# Generated by pormake.
# Topology ana-f, (3,3)-cn, num edge types: 1
# Building blocks:
#     Node 0, Type 0, BuildingBlock: WUSLED_clean_sbu_0, # of connection points: 3
#     Node 1, Type 0, BuildingBlock: WUSLED_clean_sbu_0, # of connection points: 3
#     Node 2, Type 0, BuildingBlock: WUSLED_clean_sbu_0, # of connection points: 3
#     Node 3, Type 0, BuildingBlock: WUSLED_clean_sbu_0, # of connection points: 3
#     Node 4, Type 0, BuildingBlock: WUSLED_clean_sbu_0, # of connection points: 3
#     Node 5, Type 0, BuildingBlock: WUSLED_clean_sbu_0, # of connection points: 3
#     Node 6, Type 0, BuildingBlock: WUSLED_clean_sbu_0, # of connection points: 3
#     Node 7, Type 0, BuildingBlock: WUSLED_clean_sbu_0, # of connection points: 3
#     Node 8, Type 0, BuildingBlock: WUSLED_clean_sbu_0, # of connection points: 3
#     Node 9, Type 0, BuildingBlock: WUSLED_clean_sbu_0, # of connection points: 3
#     Node 10, Type 0, BuildingBlock: WUSLED_clean_sbu_0, # of connection points: 3
#     Node 11, Type 0, BuildingBlock: WUSLED_clean_sbu_0, # of connection points: 3
#     Node 12, Type 0, BuildingBlock: WUSLED_clean_sbu_0, # of connection points: 3
#     Node 13, Type 0, BuildingBlock: WUSLED_clean_sbu_0, # of connection points: 3
#     Node 14, Type 0, BuildingBlock: WUSLED_clean_sbu_0, # of connection points: 3
#     Node 15, Type 0, BuildingBlock: WUSLED_clean_sbu_0, # of connection points: 3
#     Node 16, Type 0, BuildingBlock: WUSLED_clean_sbu_0, # of connection points: 3
#     Node 17, Type 0, BuildingBlock: WUSLED_clean_sbu_0, # of connection points: 3
#     Node 18, Type 0, BuildingBlock: WUSLED_clean_sbu_0, # of connection points: 3
#     Node 19, Type 0, BuildingBlock: WUSLED_clean_sbu_0, # of connection points: 3
#     Node 20, Type 0, BuildingBlock: WUSLED_clean_sbu_0, # of connection points: 3
#     Node 21, Type 0, BuildingBlock: WUSLED_clean_sbu_0, # of connection points: 3
#     Node 22, Type 0, BuildingBlock: WUSLED_clean_sbu_0, # of connection points: 3
#     Node 23, Type 0, BuildingBlock: WUSLED_clean_sbu_0, # of connection points: 3
#     Node 24, Type 0, BuildingBlock: WUSLED_clean_sbu_0, # of connection points: 3
#     Node 25, Type 0, BuildingBlock: WUSLED_clean_sbu_0, # of connection points: 3
#     Node 26, Type 0, BuildingBlock: WUSLED_clean_sbu_0, # of connection points: 3
#     Node 27, Type 0, BuildingBlock: WUSLED_clean_sbu_0, # of connection points: 3
#     Node 28, Type 0, BuildingBlock: WUSLED_clean_sbu_0, # of connection points: 3
#     Node 29, Type 0, BuildingBlock: WUSLED_clean_sbu_0, # of connection points: 3
#     Node 30, Type 0, BuildingBlock: WUSLED_clean_sbu_0, # of connection points: 3
#     Node 31, Type 0, BuildingBlock: WUSLED_clean_sbu_0, # of connection points: 3
#     Node 32, Type 0, BuildingBlock: WUSLED_clean_sbu_0, # of connection points: 3
#     Node 33, Type 0, BuildingBlock: WUSLED_clean_sbu_0, # of connection points: 3
#     Node 34, Type 0, BuildingBlock: WUSLED_clean_sbu_0, # of connection points: 3
#     Node 35, Type 0, BuildingBlock: WUSLED_clean_sbu_0, # of connection points: 3
#     Node 36, Type 0, BuildingBlock: WUSLED_clean_sbu_0, # of connection points: 3
#     Node 37, Type 0, BuildingBlock: WUSLED_clean_sbu_0, # of connection points: 3
#     Node 38, Type 0, BuildingBlock: WUSLED_clean_sbu_0, # of connection points: 3
#     Node 39, Type 0, BuildingBlock: WUSLED_clean_sbu_0, # of connection points: 3
#     Node 40, Type 0, BuildingBlock: WUSLED_clean_sbu_0, # of connection points: 3
#     Node 41, Type 0, BuildingBlock: WUSLED_clean_sbu_0, # of connection points: 3
#     Node 42, Type 0, BuildingBlock: WUSLED_clean_sbu_0, # of connection points: 3
#     Node 43, Type 0, BuildingBlock: WUSLED_clean_sbu_0, # of connection points: 3
#     Node 44, Type 0, BuildingBlock: WUSLED_clean_sbu_0, # of connection points: 3
#     Node 45, Type 0, BuildingBlock: WUSLED_clean_sbu_0, # of connection points: 3
#     Node 46, Type 0, BuildingBlock: WUSLED_clean_sbu_0, # of connection points: 3
#     Node 47, Type 0, BuildingBlock: WUSLED_clean_sbu_0, # of connection points: 3
#     Node 48, Type 0, BuildingBlock: WUSLED_clean_sbu_0, # of connection points: 3
#     Node 49, Type 0, BuildingBlock: WUSLED_clean_sbu_0, # of connection points: 3
#     Node 50, Type 0, BuildingBlock: WUSLED_clean_sbu_0, # of connection points: 3
#     Node 51, Type 0, BuildingBlock: WUSLED_clean_sbu_0, # of connection points: 3
#     Node 52, Type 0, BuildingBlock: WUSLED_clean_sbu_0, # of connection points: 3
#     Node 53, Type 0, BuildingBlock: WUSLED_clean_sbu_0, # of connection points: 3
#     Node 54, Type 0, BuildingBlock: WUSLED_clean_sbu_0, # of connection points: 3
#     Node 55, Type 0, BuildingBlock: WUSLED_clean_sbu_0, # of connection points: 3
#     Node 56, Type 0, BuildingBlock: WUSLED_clean_sbu_0, # of connection points: 3
#     Node 57, Type 0, BuildingBlock: WUSLED_clean_sbu_0, # of connection points: 3
#     Node 58, Type 0, BuildingBlock: WUSLED_clean_sbu_0, # of connection points: 3
#     Node 59, Type 0, BuildingBlock: WUSLED_clean_sbu_0, # of connection points: 3
#     Node 60, Type 0, BuildingBlock: WUSLED_clean_sbu_0, # of connection points: 3
#     Node 61, Type 0, BuildingBlock: WUSLED_clean_sbu_0, # of connection points: 3
#     Node 62, Type 0, BuildingBlock: WUSLED_clean_sbu_0, # of connection points: 3
#     Node 63, Type 0, BuildingBlock: WUSLED_clean_sbu_0, # of connection points: 3
#     Node 64, Type 0, BuildingBlock: WUSLED_clean_sbu_0, # of connection points: 3
#     Node 65, Type 0, BuildingBlock: WUSLED_clean_sbu_0, # of connection points: 3
#     Node 66, Type 0, BuildingBlock: WUSLED_clean_sbu_0, # of connection points: 3
#     Node 67, Type 0, BuildingBlock: WUSLED_clean_sbu_0, # of connection points: 3
#     Node 68, Type 0, BuildingBlock: WUSLED_clean_sbu_0, # of connection points: 3
#     Node 69, Type 0, BuildingBlock: WUSLED_clean_sbu_0, # of connection points: 3
#     Node 70, Type 0, BuildingBlock: WUSLED_clean_sbu_0, # of connection points: 3
#     Node 71, Type 0, BuildingBlock: WUSLED_clean_sbu_0, # of connection points: 3
#     Node 72, Type 0, BuildingBlock: WUSLED_clean_sbu_0, # of connection points: 3
#     Node 73, Type 0, BuildingBlock: WUSLED_clean_sbu_0, # of connection points: 3
#     Node 74, Type 0, BuildingBlock: WUSLED_clean_sbu_0, # of connection points: 3
#     Node 75, Type 0, BuildingBlock: WUSLED_clean_sbu_0, # of connection points: 3
#     Node 76, Type 0, BuildingBlock: WUSLED_clean_sbu_0, # of connection points: 3
#     Node 77, Type 0, BuildingBlock: WUSLED_clean_sbu_0, # of connection points: 3
#     Node 78, Type 0, BuildingBlock: WUSLED_clean_sbu_0, # of connection points: 3
#     Node 79, Type 0, BuildingBlock: WUSLED_clean_sbu_0, # of connection points: 3
#     Node 80, Type 0, BuildingBlock: WUSLED_clean_sbu_0, # of connection points: 3
#     Node 81, Type 0, BuildingBlock: WUSLED_clean_sbu_0, # of connection points: 3
#     Node 82, Type 0, BuildingBlock: WUSLED_clean_sbu_0, # of connection points: 3
#     Node 83, Type 0, BuildingBlock: WUSLED_clean_sbu_0, # of connection points: 3
#     Node 84, Type 0, BuildingBlock: WUSLED_clean_sbu_0, # of connection points: 3
#     Node 85, Type 0, BuildingBlock: WUSLED_clean_sbu_0, # of connection points: 3
#     Node 86, Type 0, BuildingBlock: WUSLED_clean_sbu_0, # of connection points: 3
#     Node 87, Type 0, BuildingBlock: WUSLED_clean_sbu_0, # of connection points: 3
#     Node 88, Type 0, BuildingBlock: WUSLED_clean_sbu_0, # of connection points: 3
#     Node 89, Type 0, BuildingBlock: WUSLED_clean_sbu_0, # of connection points: 3
#     Node 90, Type 0, BuildingBlock: WUSLED_clean_sbu_0, # of connection points: 3
#     Node 91, Type 0, BuildingBlock: WUSLED_clean_sbu_0, # of connection points: 3
#     Node 92, Type 0, BuildingBlock: WUSLED_clean_sbu_0, # of connection points: 3
#     Node 93, Type 0, BuildingBlock: WUSLED_clean_sbu_0, # of connection points: 3
#     Node 94, Type 0, BuildingBlock: WUSLED_clean_sbu_0, # of connection points: 3
#     Node 95, Type 0, BuildingBlock: WUSLED_clean_sbu_0, # of connection points: 3
#     Node 96, Type 1, BuildingBlock: BETDIP_clean_linker_0, # of connection points: 3
#     Node 97, Type 1, BuildingBlock: BETDIP_clean_linker_0, # of connection points: 3
#     Node 98, Type 1, BuildingBlock: BETDIP_clean_linker_0, # of connection points: 3
#     Node 99, Type 1, BuildingBlock: BETDIP_clean_linker_0, # of connection points: 3
#     Node 100, Type 1, BuildingBlock: BETDIP_clean_linker_0, # of connection points: 3
#     Node 101, Type 1, BuildingBlock: BETDIP_clean_linker_0, # of connection points: 3
#     Node 102, Type 1, BuildingBlock: BETDIP_clean_linker_0, # of connection points: 3
#     Node 103, Type 1, BuildingBlock: BETDIP_clean_linker_0, # of connection points: 3
#     Node 104, Type 1, BuildingBlock: BETDIP_clean_linker_0, # of connection points: 3
#     Node 105, Type 1, BuildingBlock: BETDIP_clean_linker_0, # of connection points: 3
#     Node 106, Type 1, BuildingBlock: BETDIP_clean_linker_0, # of connection points: 3
#     Node 107, Type 1, BuildingBlock: BETDIP_clean_linker_0, # of connection points: 3
#     Node 108, Type 1, BuildingBlock: BETDIP_clean_linker_0, # of connection points: 3
#     Node 109, Type 1, BuildingBlock: BETDIP_clean_linker_0, # of connection points: 3
#     Node 110, Type 1, BuildingBlock: BETDIP_clean_linker_0, # of connection points: 3
#     Node 111, Type 1, BuildingBlock: BETDIP_clean_linker_0, # of connection points: 3
#     Node 112, Type 1, BuildingBlock: BETDIP_clean_linker_0, # of connection points: 3
#     Node 113, Type 1, BuildingBlock: BETDIP_clean_linker_0, # of connection points: 3
#     Node 114, Type 1, BuildingBlock: BETDIP_clean_linker_0, # of connection points: 3
#     Node 115, Type 1, BuildingBlock: BETDIP_clean_linker_0, # of connection points: 3
#     Node 116, Type 1, BuildingBlock: BETDIP_clean_linker_0, # of connection points: 3
#     Node 117, Type 1, BuildingBlock: BETDIP_clean_linker_0, # of connection points: 3
#     Node 118, Type 1, BuildingBlock: BETDIP_clean_linker_0, # of connection points: 3
#     Node 119, Type 1, BuildingBlock: BETDIP_clean_linker_0, # of connection points: 3
#     Node 120, Type 1, BuildingBlock: BETDIP_clean_linker_0, # of connection points: 3
#     Node 121, Type 1, BuildingBlock: BETDIP_clean_linker_0, # of connection points: 3
#     Node 122, Type 1, BuildingBlock: BETDIP_clean_linker_0, # of connection points: 3
#     Node 123, Type 1, BuildingBlock: BETDIP_clean_linker_0, # of connection points: 3
#     Node 124, Type 1, BuildingBlock: BETDIP_clean_linker_0, # of connection points: 3
#     Node 125, Type 1, BuildingBlock: BETDIP_clean_linker_0, # of connection points: 3
#     Node 126, Type 1, BuildingBlock: BETDIP_clean_linker_0, # of connection points: 3
#     Node 127, Type 1, BuildingBlock: BETDIP_clean_linker_0, # of connection points: 3
#     Node 128, Type 1, BuildingBlock: BETDIP_clean_linker_0, # of connection points: 3
#     Node 129, Type 1, BuildingBlock: BETDIP_clean_linker_0, # of connection points: 3
#     Node 130, Type 1, BuildingBlock: BETDIP_clean_linker_0, # of connection points: 3
#     Node 131, Type 1, BuildingBlock: BETDIP_clean_linker_0, # of connection points: 3
#     Node 132, Type 1, BuildingBlock: BETDIP_clean_linker_0, # of connection points: 3
#     Node 133, Type 1, BuildingBlock: BETDIP_clean_linker_0, # of connection points: 3
#     Node 134, Type 1, BuildingBlock: BETDIP_clean_linker_0, # of connection points: 3
#     Node 135, Type 1, BuildingBlock: BETDIP_clean_linker_0, # of connection points: 3
#     Node 136, Type 1, BuildingBlock: BETDIP_clean_linker_0, # of connection points: 3
#     Node 137, Type 1, BuildingBlock: BETDIP_clean_linker_0, # of connection points: 3
#     Node 138, Type 1, BuildingBlock: BETDIP_clean_linker_0, # of connection points: 3
#     Node 139, Type 1, BuildingBlock: BETDIP_clean_linker_0, # of connection points: 3
#     Node 140, Type 1, BuildingBlock: BETDIP_clean_linker_0, # of connection points: 3
#     Node 141, Type 1, BuildingBlock: BETDIP_clean_linker_0, # of connection points: 3
#     Node 142, Type 1, BuildingBlock: BETDIP_clean_linker_0, # of connection points: 3
#     Node 143, Type 1, BuildingBlock: BETDIP_clean_linker_0, # of connection points: 3
#     Node 144, Type 1, BuildingBlock: BETDIP_clean_linker_0, # of connection points: 3
#     Node 145, Type 1, BuildingBlock: BETDIP_clean_linker_0, # of connection points: 3
#     Node 146, Type 1, BuildingBlock: BETDIP_clean_linker_0, # of connection points: 3
#     Node 147, Type 1, BuildingBlock: BETDIP_clean_linker_0, # of connection points: 3
#     Node 148, Type 1, BuildingBlock: BETDIP_clean_linker_0, # of connection points: 3
#     Node 149, Type 1, BuildingBlock: BETDIP_clean_linker_0, # of connection points: 3
#     Node 150, Type 1, BuildingBlock: BETDIP_clean_linker_0, # of connection points: 3
#     Node 151, Type 1, BuildingBlock: BETDIP_clean_linker_0, # of connection points: 3
#     Node 152, Type 1, BuildingBlock: BETDIP_clean_linker_0, # of connection points: 3
#     Node 153, Type 1, BuildingBlock: BETDIP_clean_linker_0, # of connection points: 3
#     Node 154, Type 1, BuildingBlock: BETDIP_clean_linker_0, # of connection points: 3
#     Node 155, Type 1, BuildingBlock: BETDIP_clean_linker_0, # of connection points: 3
#     Node 156, Type 1, BuildingBlock: BETDIP_clean_linker_0, # of connection points: 3
#     Node 157, Type 1, BuildingBlock: BETDIP_clean_linker_0, # of connection points: 3
#     Node 158, Type 1, BuildingBlock: BETDIP_clean_linker_0, # of connection points: 3
#     Node 159, Type 1, BuildingBlock: BETDIP_clean_linker_0, # of connection points: 3
#     Node 160, Type 1, BuildingBlock: BETDIP_clean_linker_0, # of connection points: 3
#     Node 161, Type 1, BuildingBlock: BETDIP_clean_linker_0, # of connection points: 3
#     Node 162, Type 1, BuildingBlock: BETDIP_clean_linker_0, # of connection points: 3
#     Node 163, Type 1, BuildingBlock: BETDIP_clean_linker_0, # of connection points: 3
#     Node 164, Type 1, BuildingBlock: BETDIP_clean_linker_0, # of connection points: 3
#     Node 165, Type 1, BuildingBlock: BETDIP_clean_linker_0, # of connection points: 3
#     Node 166, Type 1, BuildingBlock: BETDIP_clean_linker_0, # of connection points: 3
#     Node 167, Type 1, BuildingBlock: BETDIP_clean_linker_0, # of connection points: 3
#     Node 168, Type 1, BuildingBlock: BETDIP_clean_linker_0, # of connection points: 3
#     Node 169, Type 1, BuildingBlock: BETDIP_clean_linker_0, # of connection points: 3
#     Node 170, Type 1, BuildingBlock: BETDIP_clean_linker_0, # of connection points: 3
#     Node 171, Type 1, BuildingBlock: BETDIP_clean_linker_0, # of connection points: 3
#     Node 172, Type 1, BuildingBlock: BETDIP_clean_linker_0, # of connection points: 3
#     Node 173, Type 1, BuildingBlock: BETDIP_clean_linker_0, # of connection points: 3
#     Node 174, Type 1, BuildingBlock: BETDIP_clean_linker_0, # of connection points: 3
#     Node 175, Type 1, BuildingBlock: BETDIP_clean_linker_0, # of connection points: 3
#     Node 176, Type 1, BuildingBlock: BETDIP_clean_linker_0, # of connection points: 3
#     Node 177, Type 1, BuildingBlock: BETDIP_clean_linker_0, # of connection points: 3
#     Node 178, Type 1, BuildingBlock: BETDIP_clean_linker_0, # of connection points: 3
#     Node 179, Type 1, BuildingBlock: BETDIP_clean_linker_0, # of connection points: 3
#     Node 180, Type 1, BuildingBlock: BETDIP_clean_linker_0, # of connection points: 3
#     Node 181, Type 1, BuildingBlock: BETDIP_clean_linker_0, # of connection points: 3
#     Node 182, Type 1, BuildingBlock: BETDIP_clean_linker_0, # of connection points: 3
#     Node 183, Type 1, BuildingBlock: BETDIP_clean_linker_0, # of connection points: 3
#     Node 184, Type 1, BuildingBlock: BETDIP_clean_linker_0, # of connection points: 3
#     Node 185, Type 1, BuildingBlock: BETDIP_clean_linker_0, # of connection points: 3
#     Node 186, Type 1, BuildingBlock: BETDIP_clean_linker_0, # of connection points: 3
#     Node 187, Type 1, BuildingBlock: BETDIP_clean_linker_0, # of connection points: 3
#     Node 188, Type 1, BuildingBlock: BETDIP_clean_linker_0, # of connection points: 3
#     Node 189, Type 1, BuildingBlock: BETDIP_clean_linker_0, # of connection points: 3
#     Node 190, Type 1, BuildingBlock: BETDIP_clean_linker_0, # of connection points: 3
#     Node 191, Type 1, BuildingBlock: BETDIP_clean_linker_0, # of connection points: 3
#     Edge 192, Type (0, 1), BuildingBlock: EZIPEK_clean_linker_0, # of connection points: 2
#     Edge 193, Type (0, 1), BuildingBlock: EZIPEK_clean_linker_0, # of connection points: 2
#     Edge 194, Type (0, 1), BuildingBlock: EZIPEK_clean_linker_0, # of connection points: 2
#     Edge 195, Type (0, 1), BuildingBlock: EZIPEK_clean_linker_0, # of connection points: 2
#     Edge 196, Type (0, 1), BuildingBlock: EZIPEK_clean_linker_0, # of connection points: 2
#     Edge 197, Type (0, 1), BuildingBlock: EZIPEK_clean_linker_0, # of connection points: 2
#     Edge 198, Type (0, 1), BuildingBlock: EZIPEK_clean_linker_0, # of connection points: 2
#     Edge 199, Type (0, 1), BuildingBlock: EZIPEK_clean_linker_0, # of connection points: 2
#     Edge 200, Type (0, 1), BuildingBlock: EZIPEK_clean_linker_0, # of connection points: 2
#     Edge 201, Type (0, 1), BuildingBlock: EZIPEK_clean_linker_0, # of connection points: 2
#     Edge 202, Type (0, 1), BuildingBlock: EZIPEK_clean_linker_0, # of connection points: 2
#     Edge 203, Type (0, 1), BuildingBlock: EZIPEK_clean_linker_0, # of connection points: 2
#     Edge 204, Type (0, 1), BuildingBlock: EZIPEK_clean_linker_0, # of connection points: 2
#     Edge 205, Type (0, 1), BuildingBlock: EZIPEK_clean_linker_0, # of connection points: 2
#     Edge 206, Type (0, 1), BuildingBlock: EZIPEK_clean_linker_0, # of connection points: 2
#     Edge 207, Type (0, 1), BuildingBlock: EZIPEK_clean_linker_0, # of connection points: 2
#     Edge 208, Type (0, 1), BuildingBlock: EZIPEK_clean_linker_0, # of connection points: 2
#     Edge 209, Type (0, 1), BuildingBlock: EZIPEK_clean_linker_0, # of connection points: 2
#     Edge 210, Type (0, 1), BuildingBlock: EZIPEK_clean_linker_0, # of connection points: 2
#     Edge 211, Type (0, 1), BuildingBlock: EZIPEK_clean_linker_0, # of connection points: 2
#     Edge 212, Type (0, 1), BuildingBlock: EZIPEK_clean_linker_0, # of connection points: 2
#     Edge 213, Type (0, 1), BuildingBlock: EZIPEK_clean_linker_0, # of connection points: 2
#     Edge 214, Type (0, 1), BuildingBlock: EZIPEK_clean_linker_0, # of connection points: 2
#     Edge 215, Type (0, 1), BuildingBlock: EZIPEK_clean_linker_0, # of connection points: 2
#     Edge 216, Type (0, 1), BuildingBlock: EZIPEK_clean_linker_0, # of connection points: 2
#     Edge 217, Type (0, 1), BuildingBlock: EZIPEK_clean_linker_0, # of connection points: 2
#     Edge 218, Type (0, 1), BuildingBlock: EZIPEK_clean_linker_0, # of connection points: 2
#     Edge 219, Type (0, 1), BuildingBlock: EZIPEK_clean_linker_0, # of connection points: 2
#     Edge 220, Type (0, 1), BuildingBlock: EZIPEK_clean_linker_0, # of connection points: 2
#     Edge 221, Type (0, 1), BuildingBlock: EZIPEK_clean_linker_0, # of connection points: 2
#     Edge 222, Type (0, 1), BuildingBlock: EZIPEK_clean_linker_0, # of connection points: 2
#     Edge 223, Type (0, 1), BuildingBlock: EZIPEK_clean_linker_0, # of connection points: 2
#     Edge 224, Type (0, 1), BuildingBlock: EZIPEK_clean_linker_0, # of connection points: 2
#     Edge 225, Type (0, 1), BuildingBlock: EZIPEK_clean_linker_0, # of connection points: 2
#     Edge 226, Type (0, 1), BuildingBlock: EZIPEK_clean_linker_0, # of connection points: 2
#     Edge 227, Type (0, 1), BuildingBlock: EZIPEK_clean_linker_0, # of connection points: 2
#     Edge 228, Type (0, 1), BuildingBlock: EZIPEK_clean_linker_0, # of connection points: 2
#     Edge 229, Type (0, 1), BuildingBlock: EZIPEK_clean_linker_0, # of connection points: 2
#     Edge 230, Type (0, 1), BuildingBlock: EZIPEK_clean_linker_0, # of connection points: 2
#     Edge 231, Type (0, 1), BuildingBlock: EZIPEK_clean_linker_0, # of connection points: 2
#     Edge 232, Type (0, 1), BuildingBlock: EZIPEK_clean_linker_0, # of connection points: 2
#     Edge 233, Type (0, 1), BuildingBlock: EZIPEK_clean_linker_0, # of connection points: 2
#     Edge 234, Type (0, 1), BuildingBlock: EZIPEK_clean_linker_0, # of connection points: 2
#     Edge 235, Type (0, 1), BuildingBlock: EZIPEK_clean_linker_0, # of connection points: 2
#     Edge 236, Type (0, 1), BuildingBlock: EZIPEK_clean_linker_0, # of connection points: 2
#     Edge 237, Type (0, 1), BuildingBlock: EZIPEK_clean_linker_0, # of connection points: 2
#     Edge 238, Type (0, 1), BuildingBlock: EZIPEK_clean_linker_0, # of connection points: 2
#     Edge 239, Type (0, 1), BuildingBlock: EZIPEK_clean_linker_0, # of connection points: 2
#     Edge 240, Type (0, 1), BuildingBlock: EZIPEK_clean_linker_0, # of connection points: 2
#     Edge 241, Type (0, 1), BuildingBlock: EZIPEK_clean_linker_0, # of connection points: 2
#     Edge 242, Type (0, 1), BuildingBlock: EZIPEK_clean_linker_0, # of connection points: 2
#     Edge 243, Type (0, 1), BuildingBlock: EZIPEK_clean_linker_0, # of connection points: 2
#     Edge 244, Type (0, 1), BuildingBlock: EZIPEK_clean_linker_0, # of connection points: 2
#     Edge 245, Type (0, 1), BuildingBlock: EZIPEK_clean_linker_0, # of connection points: 2
#     Edge 246, Type (0, 1), BuildingBlock: EZIPEK_clean_linker_0, # of connection points: 2
#     Edge 247, Type (0, 1), BuildingBlock: EZIPEK_clean_linker_0, # of connection points: 2
#     Edge 248, Type (0, 1), BuildingBlock: EZIPEK_clean_linker_0, # of connection points: 2
#     Edge 249, Type (0, 1), BuildingBlock: EZIPEK_clean_linker_0, # of connection points: 2
#     Edge 250, Type (0, 1), BuildingBlock: EZIPEK_clean_linker_0, # of connection points: 2
#     Edge 251, Type (0, 1), BuildingBlock: EZIPEK_clean_linker_0, # of connection points: 2
#     Edge 252, Type (0, 1), BuildingBlock: EZIPEK_clean_linker_0, # of connection points: 2
#     Edge 253, Type (0, 1), BuildingBlock: EZIPEK_clean_linker_0, # of connection points: 2
#     Edge 254, Type (0, 1), BuildingBlock: EZIPEK_clean_linker_0, # of connection points: 2
#     Edge 255, Type (0, 1), BuildingBlock: EZIPEK_clean_linker_0, # of connection points: 2
#     Edge 256, Type (0, 1), BuildingBlock: EZIPEK_clean_linker_0, # of connection points: 2
#     Edge 257, Type (0, 1), BuildingBlock: EZIPEK_clean_linker_0, # of connection points: 2
#     Edge 258, Type (0, 1), BuildingBlock: EZIPEK_clean_linker_0, # of connection points: 2
#     Edge 259, Type (0, 1), BuildingBlock: EZIPEK_clean_linker_0, # of connection points: 2
#     Edge 260, Type (0, 1), BuildingBlock: EZIPEK_clean_linker_0, # of connection points: 2
#     Edge 261, Type (0, 1), BuildingBlock: EZIPEK_clean_linker_0, # of connection points: 2
#     Edge 262, Type (0, 1), BuildingBlock: EZIPEK_clean_linker_0, # of connection points: 2
#     Edge 263, Type (0, 1), BuildingBlock: EZIPEK_clean_linker_0, # of connection points: 2
#     Edge 264, Type (0, 1), BuildingBlock: EZIPEK_clean_linker_0, # of connection points: 2
#     Edge 265, Type (0, 1), BuildingBlock: EZIPEK_clean_linker_0, # of connection points: 2
#     Edge 266, Type (0, 1), BuildingBlock: EZIPEK_clean_linker_0, # of connection points: 2
#     Edge 267, Type (0, 1), BuildingBlock: EZIPEK_clean_linker_0, # of connection points: 2
#     Edge 268, Type (0, 1), BuildingBlock: EZIPEK_clean_linker_0, # of connection points: 2
#     Edge 269, Type (0, 1), BuildingBlock: EZIPEK_clean_linker_0, # of connection points: 2
#     Edge 270, Type (0, 1), BuildingBlock: EZIPEK_clean_linker_0, # of connection points: 2
#     Edge 271, Type (0, 1), BuildingBlock: EZIPEK_clean_linker_0, # of connection points: 2
#     Edge 272, Type (0, 1), BuildingBlock: EZIPEK_clean_linker_0, # of connection points: 2
#     Edge 273, Type (0, 1), BuildingBlock: EZIPEK_clean_linker_0, # of connection points: 2
#     Edge 274, Type (0, 1), BuildingBlock: EZIPEK_clean_linker_0, # of connection points: 2
#     Edge 275, Type (0, 1), BuildingBlock: EZIPEK_clean_linker_0, # of connection points: 2
#     Edge 276, Type (0, 1), BuildingBlock: EZIPEK_clean_linker_0, # of connection points: 2
#     Edge 277, Type (0, 1), BuildingBlock: EZIPEK_clean_linker_0, # of connection points: 2
#     Edge 278, Type (0, 1), BuildingBlock: EZIPEK_clean_linker_0, # of connection points: 2
#     Edge 279, Type (0, 1), BuildingBlock: EZIPEK_clean_linker_0, # of connection points: 2
#     Edge 280, Type (0, 1), BuildingBlock: EZIPEK_clean_linker_0, # of connection points: 2
#     Edge 281, Type (0, 1), BuildingBlock: EZIPEK_clean_linker_0, # of connection points: 2
#     Edge 282, Type (0, 1), BuildingBlock: EZIPEK_clean_linker_0, # of connection points: 2
#     Edge 283, Type (0, 1), BuildingBlock: EZIPEK_clean_linker_0, # of connection points: 2
#     Edge 284, Type (0, 1), BuildingBlock: EZIPEK_clean_linker_0, # of connection points: 2
#     Edge 285, Type (0, 1), BuildingBlock: EZIPEK_clean_linker_0, # of connection points: 2
#     Edge 286, Type (0, 1), BuildingBlock: EZIPEK_clean_linker_0, # of connection points: 2
#     Edge 287, Type (0, 1), BuildingBlock: EZIPEK_clean_linker_0, # of connection points: 2
#     Edge 288, Type (0, 1), BuildingBlock: EZIPEK_clean_linker_0, # of connection points: 2
#     Edge 289, Type (0, 1), BuildingBlock: EZIPEK_clean_linker_0, # of connection points: 2
#     Edge 290, Type (0, 1), BuildingBlock: EZIPEK_clean_linker_0, # of connection points: 2
#     Edge 291, Type (0, 1), BuildingBlock: EZIPEK_clean_linker_0, # of connection points: 2
#     Edge 292, Type (0, 1), BuildingBlock: EZIPEK_clean_linker_0, # of connection points: 2
#     Edge 293, Type (0, 1), BuildingBlock: EZIPEK_clean_linker_0, # of connection points: 2
#     Edge 294, Type (0, 1), BuildingBlock: EZIPEK_clean_linker_0, # of connection points: 2
#     Edge 295, Type (0, 1), BuildingBlock: EZIPEK_clean_linker_0, # of connection points: 2
#     Edge 296, Type (0, 1), BuildingBlock: EZIPEK_clean_linker_0, # of connection points: 2
#     Edge 297, Type (0, 1), BuildingBlock: EZIPEK_clean_linker_0, # of connection points: 2
#     Edge 298, Type (0, 1), BuildingBlock: EZIPEK_clean_linker_0, # of connection points: 2
#     Edge 299, Type (0, 1), BuildingBlock: EZIPEK_clean_linker_0, # of connection points: 2
#     Edge 300, Type (0, 1), BuildingBlock: EZIPEK_clean_linker_0, # of connection points: 2
#     Edge 301, Type (0, 1), BuildingBlock: EZIPEK_clean_linker_0, # of connection points: 2
#     Edge 302, Type (0, 1), BuildingBlock: EZIPEK_clean_linker_0, # of connection points: 2
#     Edge 303, Type (0, 1), BuildingBlock: EZIPEK_clean_linker_0, # of connection points: 2
#     Edge 304, Type (0, 1), BuildingBlock: EZIPEK_clean_linker_0, # of connection points: 2
#     Edge 305, Type (0, 1), BuildingBlock: EZIPEK_clean_linker_0, # of connection points: 2
#     Edge 306, Type (0, 1), BuildingBlock: EZIPEK_clean_linker_0, # of connection points: 2
#     Edge 307, Type (0, 1), BuildingBlock: EZIPEK_clean_linker_0, # of connection points: 2
#     Edge 308, Type (0, 1), BuildingBlock: EZIPEK_clean_linker_0, # of connection points: 2
#     Edge 309, Type (0, 1), BuildingBlock: EZIPEK_clean_linker_0, # of connection points: 2
#     Edge 310, Type (0, 1), BuildingBlock: EZIPEK_clean_linker_0, # of connection points: 2
#     Edge 311, Type (0, 1), BuildingBlock: EZIPEK_clean_linker_0, # of connection points: 2
#     Edge 312, Type (0, 1), BuildingBlock: EZIPEK_clean_linker_0, # of connection points: 2
#     Edge 313, Type (0, 1), BuildingBlock: EZIPEK_clean_linker_0, # of connection points: 2
#     Edge 314, Type (0, 1), BuildingBlock: EZIPEK_clean_linker_0, # of connection points: 2
#     Edge 315, Type (0, 1), BuildingBlock: EZIPEK_clean_linker_0, # of connection points: 2
#     Edge 316, Type (0, 1), BuildingBlock: EZIPEK_clean_linker_0, # of connection points: 2
#     Edge 317, Type (0, 1), BuildingBlock: EZIPEK_clean_linker_0, # of connection points: 2
#     Edge 318, Type (0, 1), BuildingBlock: EZIPEK_clean_linker_0, # of connection points: 2
#     Edge 319, Type (0, 1), BuildingBlock: EZIPEK_clean_linker_0, # of connection points: 2
#     Edge 320, Type (0, 1), BuildingBlock: EZIPEK_clean_linker_0, # of connection points: 2
#     Edge 321, Type (0, 1), BuildingBlock: EZIPEK_clean_linker_0, # of connection points: 2
#     Edge 322, Type (0, 1), BuildingBlock: EZIPEK_clean_linker_0, # of connection points: 2
#     Edge 323, Type (0, 1), BuildingBlock: EZIPEK_clean_linker_0, # of connection points: 2
#     Edge 324, Type (0, 1), BuildingBlock: EZIPEK_clean_linker_0, # of connection points: 2
#     Edge 325, Type (0, 1), BuildingBlock: EZIPEK_clean_linker_0, # of connection points: 2
#     Edge 326, Type (0, 1), BuildingBlock: EZIPEK_clean_linker_0, # of connection points: 2
#     Edge 327, Type (0, 1), BuildingBlock: EZIPEK_clean_linker_0, # of connection points: 2
#     Edge 328, Type (0, 1), BuildingBlock: EZIPEK_clean_linker_0, # of connection points: 2
#     Edge 329, Type (0, 1), BuildingBlock: EZIPEK_clean_linker_0, # of connection points: 2
#     Edge 330, Type (0, 1), BuildingBlock: EZIPEK_clean_linker_0, # of connection points: 2
#     Edge 331, Type (0, 1), BuildingBlock: EZIPEK_clean_linker_0, # of connection points: 2
#     Edge 332, Type (0, 1), BuildingBlock: EZIPEK_clean_linker_0, # of connection points: 2
#     Edge 333, Type (0, 1), BuildingBlock: EZIPEK_clean_linker_0, # of connection points: 2
#     Edge 334, Type (0, 1), BuildingBlock: EZIPEK_clean_linker_0, # of connection points: 2
#     Edge 335, Type (0, 1), BuildingBlock: EZIPEK_clean_linker_0, # of connection points: 2
#     Edge 336, Type (0, 1), BuildingBlock: EZIPEK_clean_linker_0, # of connection points: 2
#     Edge 337, Type (0, 1), BuildingBlock: EZIPEK_clean_linker_0, # of connection points: 2
#     Edge 338, Type (0, 1), BuildingBlock: EZIPEK_clean_linker_0, # of connection points: 2
#     Edge 339, Type (0, 1), BuildingBlock: EZIPEK_clean_linker_0, # of connection points: 2
#     Edge 340, Type (0, 1), BuildingBlock: EZIPEK_clean_linker_0, # of connection points: 2
#     Edge 341, Type (0, 1), BuildingBlock: EZIPEK_clean_linker_0, # of connection points: 2
#     Edge 342, Type (0, 1), BuildingBlock: EZIPEK_clean_linker_0, # of connection points: 2
#     Edge 343, Type (0, 1), BuildingBlock: EZIPEK_clean_linker_0, # of connection points: 2
#     Edge 344, Type (0, 1), BuildingBlock: EZIPEK_clean_linker_0, # of connection points: 2
#     Edge 345, Type (0, 1), BuildingBlock: EZIPEK_clean_linker_0, # of connection points: 2
#     Edge 346, Type (0, 1), BuildingBlock: EZIPEK_clean_linker_0, # of connection points: 2
#     Edge 347, Type (0, 1), BuildingBlock: EZIPEK_clean_linker_0, # of connection points: 2
#     Edge 348, Type (0, 1), BuildingBlock: EZIPEK_clean_linker_0, # of connection points: 2
#     Edge 349, Type (0, 1), BuildingBlock: EZIPEK_clean_linker_0, # of connection points: 2
#     Edge 350, Type (0, 1), BuildingBlock: EZIPEK_clean_linker_0, # of connection points: 2
#     Edge 351, Type (0, 1), BuildingBlock: EZIPEK_clean_linker_0, # of connection points: 2
#     Edge 352, Type (0, 1), BuildingBlock: EZIPEK_clean_linker_0, # of connection points: 2
#     Edge 353, Type (0, 1), BuildingBlock: EZIPEK_clean_linker_0, # of connection points: 2
#     Edge 354, Type (0, 1), BuildingBlock: EZIPEK_clean_linker_0, # of connection points: 2
#     Edge 355, Type (0, 1), BuildingBlock: EZIPEK_clean_linker_0, # of connection points: 2
#     Edge 356, Type (0, 1), BuildingBlock: EZIPEK_clean_linker_0, # of connection points: 2
#     Edge 357, Type (0, 1), BuildingBlock: EZIPEK_clean_linker_0, # of connection points: 2
#     Edge 358, Type (0, 1), BuildingBlock: EZIPEK_clean_linker_0, # of connection points: 2
#     Edge 359, Type (0, 1), BuildingBlock: EZIPEK_clean_linker_0, # of connection points: 2
#     Edge 360, Type (0, 1), BuildingBlock: EZIPEK_clean_linker_0, # of connection points: 2
#     Edge 361, Type (0, 1), BuildingBlock: EZIPEK_clean_linker_0, # of connection points: 2
#     Edge 362, Type (0, 1), BuildingBlock: EZIPEK_clean_linker_0, # of connection points: 2
#     Edge 363, Type (0, 1), BuildingBlock: EZIPEK_clean_linker_0, # of connection points: 2
#     Edge 364, Type (0, 1), BuildingBlock: EZIPEK_clean_linker_0, # of connection points: 2
#     Edge 365, Type (0, 1), BuildingBlock: EZIPEK_clean_linker_0, # of connection points: 2
#     Edge 366, Type (0, 1), BuildingBlock: EZIPEK_clean_linker_0, # of connection points: 2
#     Edge 367, Type (0, 1), BuildingBlock: EZIPEK_clean_linker_0, # of connection points: 2
#     Edge 368, Type (0, 1), BuildingBlock: EZIPEK_clean_linker_0, # of connection points: 2
#     Edge 369, Type (0, 1), BuildingBlock: EZIPEK_clean_linker_0, # of connection points: 2
#     Edge 370, Type (0, 1), BuildingBlock: EZIPEK_clean_linker_0, # of connection points: 2
#     Edge 371, Type (0, 1), BuildingBlock: EZIPEK_clean_linker_0, # of connection points: 2
#     Edge 372, Type (0, 1), BuildingBlock: EZIPEK_clean_linker_0, # of connection points: 2
#     Edge 373, Type (0, 1), BuildingBlock: EZIPEK_clean_linker_0, # of connection points: 2
#     Edge 374, Type (0, 1), BuildingBlock: EZIPEK_clean_linker_0, # of connection points: 2
#     Edge 375, Type (0, 1), BuildingBlock: EZIPEK_clean_linker_0, # of connection points: 2
#     Edge 376, Type (0, 1), BuildingBlock: EZIPEK_clean_linker_0, # of connection points: 2
#     Edge 377, Type (0, 1), BuildingBlock: EZIPEK_clean_linker_0, # of connection points: 2
#     Edge 378, Type (0, 1), BuildingBlock: EZIPEK_clean_linker_0, # of connection points: 2
#     Edge 379, Type (0, 1), BuildingBlock: EZIPEK_clean_linker_0, # of connection points: 2
#     Edge 380, Type (0, 1), BuildingBlock: EZIPEK_clean_linker_0, # of connection points: 2
#     Edge 381, Type (0, 1), BuildingBlock: EZIPEK_clean_linker_0, # of connection points: 2
#     Edge 382, Type (0, 1), BuildingBlock: EZIPEK_clean_linker_0, # of connection points: 2
#     Edge 383, Type (0, 1), BuildingBlock: EZIPEK_clean_linker_0, # of connection points: 2
#     Edge 384, Type (0, 1), BuildingBlock: EZIPEK_clean_linker_0, # of connection points: 2
#     Edge 385, Type (0, 1), BuildingBlock: EZIPEK_clean_linker_0, # of connection points: 2
#     Edge 386, Type (0, 1), BuildingBlock: EZIPEK_clean_linker_0, # of connection points: 2
#     Edge 387, Type (0, 1), BuildingBlock: EZIPEK_clean_linker_0, # of connection points: 2
#     Edge 388, Type (0, 1), BuildingBlock: EZIPEK_clean_linker_0, # of connection points: 2
#     Edge 389, Type (0, 1), BuildingBlock: EZIPEK_clean_linker_0, # of connection points: 2
#     Edge 390, Type (0, 1), BuildingBlock: EZIPEK_clean_linker_0, # of connection points: 2
#     Edge 391, Type (0, 1), BuildingBlock: EZIPEK_clean_linker_0, # of connection points: 2
#     Edge 392, Type (0, 1), BuildingBlock: EZIPEK_clean_linker_0, # of connection points: 2
#     Edge 393, Type (0, 1), BuildingBlock: EZIPEK_clean_linker_0, # of connection points: 2
#     Edge 394, Type (0, 1), BuildingBlock: EZIPEK_clean_linker_0, # of connection points: 2
#     Edge 395, Type (0, 1), BuildingBlock: EZIPEK_clean_linker_0, # of connection points: 2
#     Edge 396, Type (0, 1), BuildingBlock: EZIPEK_clean_linker_0, # of connection points: 2
#     Edge 397, Type (0, 1), BuildingBlock: EZIPEK_clean_linker_0, # of connection points: 2
#     Edge 398, Type (0, 1), BuildingBlock: EZIPEK_clean_linker_0, # of connection points: 2
#     Edge 399, Type (0, 1), BuildingBlock: EZIPEK_clean_linker_0, # of connection points: 2
#     Edge 400, Type (0, 1), BuildingBlock: EZIPEK_clean_linker_0, # of connection points: 2
#     Edge 401, Type (0, 1), BuildingBlock: EZIPEK_clean_linker_0, # of connection points: 2
#     Edge 402, Type (0, 1), BuildingBlock: EZIPEK_clean_linker_0, # of connection points: 2
#     Edge 403, Type (0, 1), BuildingBlock: EZIPEK_clean_linker_0, # of connection points: 2
#     Edge 404, Type (0, 1), BuildingBlock: EZIPEK_clean_linker_0, # of connection points: 2
#     Edge 405, Type (0, 1), BuildingBlock: EZIPEK_clean_linker_0, # of connection points: 2
#     Edge 406, Type (0, 1), BuildingBlock: EZIPEK_clean_linker_0, # of connection points: 2
#     Edge 407, Type (0, 1), BuildingBlock: EZIPEK_clean_linker_0, # of connection points: 2
#     Edge 408, Type (0, 1), BuildingBlock: EZIPEK_clean_linker_0, # of connection points: 2
#     Edge 409, Type (0, 1), BuildingBlock: EZIPEK_clean_linker_0, # of connection points: 2
#     Edge 410, Type (0, 1), BuildingBlock: EZIPEK_clean_linker_0, # of connection points: 2
#     Edge 411, Type (0, 1), BuildingBlock: EZIPEK_clean_linker_0, # of connection points: 2
#     Edge 412, Type (0, 1), BuildingBlock: EZIPEK_clean_linker_0, # of connection points: 2
#     Edge 413, Type (0, 1), BuildingBlock: EZIPEK_clean_linker_0, # of connection points: 2
#     Edge 414, Type (0, 1), BuildingBlock: EZIPEK_clean_linker_0, # of connection points: 2
#     Edge 415, Type (0, 1), BuildingBlock: EZIPEK_clean_linker_0, # of connection points: 2
#     Edge 416, Type (0, 1), BuildingBlock: EZIPEK_clean_linker_0, # of connection points: 2
#     Edge 417, Type (0, 1), BuildingBlock: EZIPEK_clean_linker_0, # of connection points: 2
#     Edge 418, Type (0, 1), BuildingBlock: EZIPEK_clean_linker_0, # of connection points: 2
#     Edge 419, Type (0, 1), BuildingBlock: EZIPEK_clean_linker_0, # of connection points: 2
#     Edge 420, Type (0, 1), BuildingBlock: EZIPEK_clean_linker_0, # of connection points: 2
#     Edge 421, Type (0, 1), BuildingBlock: EZIPEK_clean_linker_0, # of connection points: 2
#     Edge 422, Type (0, 1), BuildingBlock: EZIPEK_clean_linker_0, # of connection points: 2
#     Edge 423, Type (0, 1), BuildingBlock: EZIPEK_clean_linker_0, # of connection points: 2
#     Edge 424, Type (0, 1), BuildingBlock: EZIPEK_clean_linker_0, # of connection points: 2
#     Edge 425, Type (0, 1), BuildingBlock: EZIPEK_clean_linker_0, # of connection points: 2
#     Edge 426, Type (0, 1), BuildingBlock: EZIPEK_clean_linker_0, # of connection points: 2
#     Edge 427, Type (0, 1), BuildingBlock: EZIPEK_clean_linker_0, # of connection points: 2
#     Edge 428, Type (0, 1), BuildingBlock: EZIPEK_clean_linker_0, # of connection points: 2
#     Edge 429, Type (0, 1), BuildingBlock: EZIPEK_clean_linker_0, # of connection points: 2
#     Edge 430, Type (0, 1), BuildingBlock: EZIPEK_clean_linker_0, # of connection points: 2
#     Edge 431, Type (0, 1), BuildingBlock: EZIPEK_clean_linker_0, # of connection points: 2
#     Edge 432, Type (0, 1), BuildingBlock: EZIPEK_clean_linker_0, # of connection points: 2
#     Edge 433, Type (0, 1), BuildingBlock: EZIPEK_clean_linker_0, # of connection points: 2
#     Edge 434, Type (0, 1), BuildingBlock: EZIPEK_clean_linker_0, # of connection points: 2
#     Edge 435, Type (0, 1), BuildingBlock: EZIPEK_clean_linker_0, # of connection points: 2
#     Edge 436, Type (0, 1), BuildingBlock: EZIPEK_clean_linker_0, # of connection points: 2
#     Edge 437, Type (0, 1), BuildingBlock: EZIPEK_clean_linker_0, # of connection points: 2
#     Edge 438, Type (0, 1), BuildingBlock: EZIPEK_clean_linker_0, # of connection points: 2
#     Edge 439, Type (0, 1), BuildingBlock: EZIPEK_clean_linker_0, # of connection points: 2
#     Edge 440, Type (0, 1), BuildingBlock: EZIPEK_clean_linker_0, # of connection points: 2
#     Edge 441, Type (0, 1), BuildingBlock: EZIPEK_clean_linker_0, # of connection points: 2
#     Edge 442, Type (0, 1), BuildingBlock: EZIPEK_clean_linker_0, # of connection points: 2
#     Edge 443, Type (0, 1), BuildingBlock: EZIPEK_clean_linker_0, # of connection points: 2
#     Edge 444, Type (0, 1), BuildingBlock: EZIPEK_clean_linker_0, # of connection points: 2
#     Edge 445, Type (0, 1), BuildingBlock: EZIPEK_clean_linker_0, # of connection points: 2
#     Edge 446, Type (0, 1), BuildingBlock: EZIPEK_clean_linker_0, # of connection points: 2
#     Edge 447, Type (0, 1), BuildingBlock: EZIPEK_clean_linker_0, # of connection points: 2
#     Edge 448, Type (0, 1), BuildingBlock: EZIPEK_clean_linker_0, # of connection points: 2
#     Edge 449, Type (0, 1), BuildingBlock: EZIPEK_clean_linker_0, # of connection points: 2
#     Edge 450, Type (0, 1), BuildingBlock: EZIPEK_clean_linker_0, # of connection points: 2
#     Edge 451, Type (0, 1), BuildingBlock: EZIPEK_clean_linker_0, # of connection points: 2
#     Edge 452, Type (0, 1), BuildingBlock: EZIPEK_clean_linker_0, # of connection points: 2
#     Edge 453, Type (0, 1), BuildingBlock: EZIPEK_clean_linker_0, # of connection points: 2
#     Edge 454, Type (0, 1), BuildingBlock: EZIPEK_clean_linker_0, # of connection points: 2
#     Edge 455, Type (0, 1), BuildingBlock: EZIPEK_clean_linker_0, # of connection points: 2
#     Edge 456, Type (0, 1), BuildingBlock: EZIPEK_clean_linker_0, # of connection points: 2
#     Edge 457, Type (0, 1), BuildingBlock: EZIPEK_clean_linker_0, # of connection points: 2
#     Edge 458, Type (0, 1), BuildingBlock: EZIPEK_clean_linker_0, # of connection points: 2
#     Edge 459, Type (0, 1), BuildingBlock: EZIPEK_clean_linker_0, # of connection points: 2
#     Edge 460, Type (0, 1), BuildingBlock: EZIPEK_clean_linker_0, # of connection points: 2
#     Edge 461, Type (0, 1), BuildingBlock: EZIPEK_clean_linker_0, # of connection points: 2
#     Edge 462, Type (0, 1), BuildingBlock: EZIPEK_clean_linker_0, # of connection points: 2
#     Edge 463, Type (0, 1), BuildingBlock: EZIPEK_clean_linker_0, # of connection points: 2
#     Edge 464, Type (0, 1), BuildingBlock: EZIPEK_clean_linker_0, # of connection points: 2
#     Edge 465, Type (0, 1), BuildingBlock: EZIPEK_clean_linker_0, # of connection points: 2
#     Edge 466, Type (0, 1), BuildingBlock: EZIPEK_clean_linker_0, # of connection points: 2
#     Edge 467, Type (0, 1), BuildingBlock: EZIPEK_clean_linker_0, # of connection points: 2
#     Edge 468, Type (0, 1), BuildingBlock: EZIPEK_clean_linker_0, # of connection points: 2
#     Edge 469, Type (0, 1), BuildingBlock: EZIPEK_clean_linker_0, # of connection points: 2
#     Edge 470, Type (0, 1), BuildingBlock: EZIPEK_clean_linker_0, # of connection points: 2
#     Edge 471, Type (0, 1), BuildingBlock: EZIPEK_clean_linker_0, # of connection points: 2
#     Edge 472, Type (0, 1), BuildingBlock: EZIPEK_clean_linker_0, # of connection points: 2
#     Edge 473, Type (0, 1), BuildingBlock: EZIPEK_clean_linker_0, # of connection points: 2
#     Edge 474, Type (0, 1), BuildingBlock: EZIPEK_clean_linker_0, # of connection points: 2
#     Edge 475, Type (0, 1), BuildingBlock: EZIPEK_clean_linker_0, # of connection points: 2
#     Edge 476, Type (0, 1), BuildingBlock: EZIPEK_clean_linker_0, # of connection points: 2
#     Edge 477, Type (0, 1), BuildingBlock: EZIPEK_clean_linker_0, # of connection points: 2
#     Edge 478, Type (0, 1), BuildingBlock: EZIPEK_clean_linker_0, # of connection points: 2
#     Edge 479, Type (0, 1), BuildingBlock: EZIPEK_clean_linker_0, # of connection points: 2
# Relax obj value: 0.033
# Max RMSD: 0.059
# Mean RMSD: 0.034
data_MOF--net-ana-f--node1-WUSLED_clean_sbu_0--node2-BETDIP_clean_linker_0--edge1-EZIPEK_clean_linker_0
_symmetry_space_group_name_H-M    P1
_symmetry_Int_Tables_number       1
_symmetry_cell_setting            triclinic
loop_
_symmetry_equiv_pos_as_xyz
'x, y, z'
_cell_length_a     148.21992
_cell_length_b     148.28271
_cell_length_c     148.24343
_cell_angle_alpha  90.002716
_cell_angle_beta   89.994659
_cell_angle_gamma 90.003151
loop_
_atom_site_label
_atom_site_type_symbol
_atom_site_fract_x
_atom_site_fract_y
_atom_site_fract_z
_atom_type_partial_charge
C0 C 0.07629 0.14011 0.43238 0.0
C1 C 0.08437 0.14504 0.43262 0.0
C2 C 0.09035 0.13497 0.44409 0.0
C3 C 0.09135 0.1425 0.43844 0.0
C4 C 0.08224 0.13008 0.44393 0.0
C5 C 0.07524 0.13263 0.43809 0.0
U6 U 0.06839 0.15518 0.41351 0.0
O7 O 0.06096 0.15229 0.40094 0.0
O8 O 0.05548 0.16194 0.41076 0.0
C9 C 0.05412 0.15745 0.40322 0.0
C10 C 0.06909 0.14266 0.42602 0.0
C11 C 0.04497 0.15369 0.40174 0.0
C12 C 0.02978 0.15015 0.40698 0.0
C13 C 0.03869 0.15275 0.40881 0.0
C14 C 0.03336 0.14903 0.39108 0.0
C15 C 0.02702 0.14841 0.39808 0.0
C16 C 0.04224 0.15167 0.39289 0.0
C17 C 0.08638 0.17291 0.40625 0.0
C18 C 0.08515 0.18426 0.39445 0.0
C19 C 0.09896 0.18291 0.40311 0.0
C20 C 0.09518 0.17586 0.40806 0.0
C21 C 0.09401 0.18714 0.39625 0.0
C22 C 0.08134 0.17715 0.39943 0.0
C23 C 0.08278 0.16539 0.41161 0.0
O24 O 0.06551 0.15066 0.42737 0.0
O25 O 0.07093 0.14111 0.41748 0.0
O26 O 0.08167 0.15769 0.40736 0.0
O27 O 0.07615 0.1673 0.41718 0.0
H28 H 0.08531 0.15082 0.42824 0.0
H29 H 0.09756 0.14634 0.43847 0.0
H30 H 0.08136 0.12426 0.44826 0.0
H31 H 0.06906 0.12874 0.43798 0.0
H32 H 0.02498 0.14971 0.41247 0.0
H33 H 0.04059 0.15426 0.4157 0.0
H34 H 0.03135 0.14774 0.38417 0.0
H35 H 0.04693 0.15238 0.38733 0.0
H36 H 0.08123 0.18747 0.38919 0.0
H37 H 0.10579 0.18506 0.40459 0.0
H38 H 0.09915 0.17268 0.41331 0.0
H39 H 0.07453 0.17495 0.39796 0.0
C40 C 0.11598 0.82598 0.68277 0.0
C41 C 0.11119 0.83415 0.68264 0.0
C42 C 0.12082 0.84013 0.6945 0.0
C43 C 0.11359 0.84117 0.68847 0.0
C44 C 0.12555 0.83192 0.69471 0.0
C45 C 0.12314 0.82489 0.68886 0.0
U46 U 0.10157 0.81778 0.66345 0.0
O47 O 0.10498 0.81019 0.6511 0.0
O48 O 0.09501 0.80477 0.66064 0.0
C49 C 0.09976 0.80336 0.65327 0.0
C50 C 0.11362 0.81871 0.6764 0.0
C51 C 0.10356 0.79421 0.65192 0.0
C52 C 0.10649 0.77888 0.65713 0.0
C53 C 0.10389 0.7878 0.65892 0.0
C54 C 0.10877 0.7827 0.64141 0.0
C55 C 0.1088 0.77624 0.64832 0.0
C56 C 0.10616 0.79159 0.64319 0.0
C57 C 0.08399 0.83545 0.65495 0.0
C58 C 0.06859 0.83482 0.64922 0.0
C59 C 0.07774 0.84811 0.6466 0.0
C60 C 0.08492 0.84408 0.65117 0.0
C61 C 0.06948 0.84359 0.64575 0.0
C62 C 0.07581 0.83077 0.65381 0.0
C63 C 0.09134 0.832 0.66076 0.0
O64 O 0.10556 0.81517 0.67752 0.0
O65 O 0.11548 0.82044 0.66791 0.0
O66 O 0.09927 0.83095 0.65694 0.0
O67 O 0.08931 0.82555 0.6665 0.0
H68 H 0.10565 0.83512 0.67798 0.0
H69 H 0.10987 0.84746 0.68822 0.0
H70 H 0.13114 0.83101 0.69932 0.0
H71 H 0.12692 0.81864 0.68904 0.0
H72 H 0.10645 0.77398 0.66254 0.0
H73 H 0.10191 0.7896 0.66572 0.0
H74 H 0.11051 0.78078 0.63457 0.0
H75 H 0.1059 0.79637 0.63767 0.0
H76 H 0.06225 0.83125 0.64861 0.0
H77 H 0.07853 0.85488 0.64396 0.0
H78 H 0.09114 0.84784 0.65202 0.0
H79 H 0.07489 0.82411 0.65666 0.0
C80 C 0.43083 0.86567 0.93206 0.0
C81 C 0.42178 0.86374 0.93001 0.0
C82 C 0.41695 0.87058 0.94411 0.0
C83 C 0.41489 0.86622 0.93597 0.0
C84 C 0.426 0.87245 0.94622 0.0
C85 C 0.4329 0.87003 0.94021 0.0
U86 U 0.4385 0.85032 0.91338 0.0
O87 O 0.44604 0.8528 0.90082 0.0
O88 O 0.45126 0.84318 0.91078 0.0
C89 C 0.45267 0.84738 0.9031 0.0
C90 C 0.43808 0.86289 0.92582 0.0
C91 C 0.46188 0.8508 0.90156 0.0
C92 C 0.47442 0.86081 0.90508 0.0
C93 C 0.46559 0.85781 0.90674 0.0
C94 C 0.47587 0.84985 0.89304 0.0
C95 C 0.47963 0.8568 0.89823 0.0
C96 C 0.46707 0.84688 0.89469 0.0
C97 C 0.42009 0.8331 0.90612 0.0
C98 C 0.42128 0.82149 0.89458 0.0
C99 C 0.40729 0.82343 0.90283 0.0
C100 C 0.41116 0.83047 0.90774 0.0
C101 C 0.4123 0.81891 0.8962 0.0
C102 C 0.42517 0.82858 0.89952 0.0
C103 C 0.42382 0.84056 0.91148 0.0
O104 O 0.44139 0.8548 0.92727 0.0
O105 O 0.4365 0.8645 0.91724 0.0
O106 O 0.42517 0.84819 0.90719 0.0
O107 O 0.43035 0.83849 0.9171 0.0
H108 H 0.42003 0.86029 0.92381 0.0
H109 H 0.40796 0.86467 0.93426 0.0
H110 H 0.42769 0.87578 0.9525 0.0
H111 H 0.43984 0.87151 0.94195 0.0
H112 H 0.47722 0.86619 0.90915 0.0
H113 H 0.46167 0.86093 0.91207 0.0
H114 H 0.47977 0.84668 0.88773 0.0
H115 H 0.46432 0.84147 0.89061 0.0
H116 H 0.42524 0.81805 0.88949 0.0
H117 H 0.40036 0.82152 0.90418 0.0
H118 H 0.40715 0.83387 0.91282 0.0
H119 H 0.43209 0.83053 0.8982 0.0
C120 C 0.39056 0.18005 0.18313 0.0
C121 C 0.39253 0.17106 0.1809 0.0
C122 C 0.38588 0.16595 0.19499 0.0
C123 C 0.39017 0.16406 0.18677 0.0
C124 C 0.38396 0.17494 0.19727 0.0
C125 C 0.38627 0.18195 0.19136 0.0
U126 U 0.40537 0.18841 0.16418 0.0
O127 O 0.40249 0.1965 0.15209 0.0
O128 O 0.41242 0.20133 0.16197 0.0
C129 C 0.40784 0.20313 0.15459 0.0
C130 C 0.3932 0.18744 0.17701 0.0
C131 C 0.40439 0.21247 0.15357 0.0
C132 C 0.39291 0.22312 0.14848 0.0
C133 C 0.39558 0.21427 0.15047 0.0
C134 C 0.40767 0.22856 0.15287 0.0
C135 C 0.39898 0.23031 0.14955 0.0
C136 C 0.41035 0.21973 0.15484 0.0
C137 C 0.42253 0.17052 0.15539 0.0
C138 C 0.43785 0.17131 0.14948 0.0
C139 C 0.42891 0.15782 0.14721 0.0
C140 C 0.42171 0.16181 0.15179 0.0
C141 C 0.43708 0.16246 0.14618 0.0
C142 C 0.43062 0.17532 0.15407 0.0
C143 C 0.41519 0.17396 0.16118 0.0
O144 O 0.40135 0.19069 0.17832 0.0
O145 O 0.39134 0.18613 0.16844 0.0
O146 O 0.40736 0.17539 0.15726 0.0
O147 O 0.41731 0.18015 0.16716 0.0
H148 H 0.39592 0.16945 0.17463 0.0
H149 H 0.39174 0.15716 0.18493 0.0
H150 H 0.38068 0.17651 0.20361 0.0
H151 H 0.38476 0.18885 0.19323 0.0
H152 H 0.38619 0.22435 0.14589 0.0
H153 H 0.39083 0.20884 0.14936 0.0
H154 H 0.41246 0.23402 0.1537 0.0
H155 H 0.4172 0.21854 0.1571 0.0
H156 H 0.44413 0.17498 0.14873 0.0
H157 H 0.42821 0.15099 0.14471 0.0
H158 H 0.41556 0.15796 0.15277 0.0
H159 H 0.43144 0.18205 0.15678 0.0
C160 C 0.07584 0.86568 0.07347 0.0
C161 C 0.08403 0.86092 0.0734 0.0
C162 C 0.08985 0.87078 0.06166 0.0
C163 C 0.09098 0.86344 0.06754 0.0
C164 C 0.08163 0.8755 0.06165 0.0
C165 C 0.07466 0.87296 0.06754 0.0
U166 U 0.0683 0.8506 0.09238 0.0
O167 O 0.06102 0.85329 0.10506 0.0
O168 O 0.05551 0.84364 0.09528 0.0
C169 C 0.05429 0.84791 0.10295 0.0
C170 C 0.06867 0.86312 0.07987 0.0
C171 C 0.04513 0.85138 0.10467 0.0
C172 C 0.03222 0.86079 0.10085 0.0
C173 C 0.04106 0.85787 0.09909 0.0
C174 C 0.03151 0.85083 0.1138 0.0
C175 C 0.02736 0.85722 0.10819 0.0
C176 C 0.04031 0.84794 0.11205 0.0
C177 C 0.08655 0.83317 0.09948 0.0
C178 C 0.08541 0.82185 0.11131 0.0
C179 C 0.09926 0.82338 0.10275 0.0
C180 C 0.09541 0.83035 0.09774 0.0
C181 C 0.09433 0.81911 0.10959 0.0
C182 C 0.08153 0.82887 0.10628 0.0
C183 C 0.08286 0.84063 0.09409 0.0
O184 O 0.06516 0.85508 0.07857 0.0
O185 O 0.07054 0.86472 0.08839 0.0
O186 O 0.08171 0.84832 0.09833 0.0
O187 O 0.0762 0.83862 0.0886 0.0
H188 H 0.08507 0.85528 0.07794 0.0
H189 H 0.09727 0.85973 0.06764 0.0
H190 H 0.08065 0.88117 0.05716 0.0
H191 H 0.06839 0.87672 0.06751 0.0
H192 H 0.02913 0.86574 0.09646 0.0
H193 H 0.04469 0.86061 0.09337 0.0
H194 H 0.02789 0.84801 0.11948 0.0
H195 H 0.04334 0.84294 0.11644 0.0
H196 H 0.0815 0.8186 0.11656 0.0
H197 H 0.10614 0.82135 0.10132 0.0
H198 H 0.09937 0.83359 0.09251 0.0
H199 H 0.07468 0.83097 0.10769 0.0
C200 C 0.39066 0.82574 0.32356 0.0
C201 C 0.39256 0.83477 0.32572 0.0
C202 C 0.38611 0.83971 0.31149 0.0
C203 C 0.39027 0.84169 0.31975 0.0
C204 C 0.38429 0.83068 0.30925 0.0
C205 C 0.38653 0.82374 0.31528 0.0
U206 U 0.40521 0.81781 0.34281 0.0
O207 O 0.40205 0.81027 0.35524 0.0
O208 O 0.41206 0.80497 0.34568 0.0
C209 C 0.40738 0.80351 0.35308 0.0
C210 C 0.39315 0.81845 0.32987 0.0
C211 C 0.40371 0.79432 0.35447 0.0
C212 C 0.40074 0.779 0.34926 0.0
C213 C 0.4033 0.78793 0.34746 0.0
C214 C 0.39865 0.78277 0.36501 0.0
C215 C 0.39853 0.77633 0.35808 0.0
C216 C 0.40123 0.79166 0.36323 0.0
C217 C 0.42233 0.83609 0.35081 0.0
C218 C 0.43482 0.83452 0.36135 0.0
C219 C 0.43107 0.84921 0.35523 0.0
C220 C 0.42403 0.84538 0.35031 0.0
C221 C 0.43653 0.84382 0.36075 0.0
C222 C 0.42773 0.83066 0.35639 0.0
C223 C 0.41505 0.83237 0.34519 0.0
O224 O 0.40127 0.81507 0.32872 0.0
O225 O 0.39122 0.82 0.33838 0.0
O226 O 0.40723 0.83109 0.34916 0.0
O227 O 0.41729 0.82582 0.33965 0.0
H228 H 0.39584 0.83646 0.33203 0.0
H229 H 0.39177 0.84861 0.32156 0.0
H230 H 0.38112 0.82904 0.30288 0.0
H231 H 0.38507 0.81681 0.31346 0.0
H232 H 0.4007 0.77412 0.34382 0.0
H233 H 0.40517 0.78976 0.34064 0.0
H234 H 0.39699 0.78083 0.37186 0.0
H235 H 0.40154 0.79643 0.36876 0.0
H236 H 0.43899 0.83027 0.36558 0.0
H237 H 0.4323 0.85639 0.35469 0.0
H238 H 0.41994 0.84966 0.34602 0.0
H239 H 0.42652 0.82347 0.35683 0.0
C240 C 0.43096 0.14078 0.57337 0.0
C241 C 0.42271 0.14544 0.57339 0.0
C242 C 0.41695 0.13564 0.56158 0.0
C243 C 0.41577 0.14289 0.56754 0.0
C244 C 0.42524 0.13103 0.56147 0.0
C245 C 0.4322 0.13358 0.56735 0.0
U246 U 0.43844 0.156 0.59216 0.0
O247 O 0.4456 0.15342 0.60491 0.0
O248 O 0.45125 0.16294 0.59508 0.0
C249 C 0.45237 0.15875 0.60281 0.0
C250 C 0.43813 0.14338 0.57976 0.0
C251 C 0.46148 0.15525 0.60468 0.0
C252 C 0.47395 0.14492 0.60183 0.0
C253 C 0.46524 0.14806 0.59977 0.0
C254 C 0.47517 0.15613 0.61367 0.0
C255 C 0.47895 0.14895 0.60881 0.0
C256 C 0.46651 0.15925 0.61162 0.0
C257 C 0.4201 0.17345 0.59902 0.0
C258 C 0.4213 0.18519 0.61043 0.0
C259 C 0.4072 0.18293 0.60244 0.0
C260 C 0.4111 0.17591 0.59753 0.0
C261 C 0.41224 0.1876 0.60894 0.0
C262 C 0.42522 0.17813 0.60549 0.0
C263 C 0.42386 0.16597 0.59371 0.0
O264 O 0.44164 0.1514 0.5784 0.0
O265 O 0.43623 0.14184 0.58828 0.0
O266 O 0.42498 0.1583 0.59799 0.0
O267 O 0.43057 0.16796 0.58826 0.0
H268 H 0.42163 0.15102 0.57799 0.0
H269 H 0.40943 0.14653 0.56772 0.0
H270 H 0.42626 0.12542 0.5569 0.0
H271 H 0.43852 0.12991 0.56724 0.0
H272 H 0.47678 0.13939 0.598 0.0
H273 H 0.46145 0.14489 0.59439 0.0
H274 H 0.47893 0.15933 0.61906 0.0
H275 H 0.46373 0.1648 0.61548 0.0
H276 H 0.42528 0.18875 0.61541 0.0
H277 H 0.40022 0.1847 0.6012 0.0
H278 H 0.40707 0.17238 0.59256 0.0
H279 H 0.43219 0.1763 0.60671 0.0
C280 C 0.1151 0.18121 0.82378 0.0
C281 C 0.11045 0.17296 0.82403 0.0
C282 C 0.11994 0.16706 0.81203 0.0
C283 C 0.11285 0.16595 0.8182 0.0
C284 C 0.12456 0.17533 0.81171 0.0
C285 C 0.12216 0.18237 0.81757 0.0
U286 U 0.10056 0.18919 0.84302 0.0
O287 O 0.10362 0.19699 0.85526 0.0
O288 O 0.09354 0.20203 0.84565 0.0
C289 C 0.09809 0.20358 0.85311 0.0
C290 C 0.11264 0.1885 0.83007 0.0
C291 C 0.10149 0.21284 0.85439 0.0
C292 C 0.11286 0.22453 0.85241 0.0
C293 C 0.10976 0.21573 0.85076 0.0
C294 C 0.09945 0.22759 0.86125 0.0
C295 C 0.10772 0.23051 0.85769 0.0
C296 C 0.09637 0.21884 0.8596 0.0
C297 C 0.08347 0.17113 0.85156 0.0
C298 C 0.06823 0.17182 0.8577 0.0
C299 C 0.07722 0.15832 0.85966 0.0
C300 C 0.08435 0.16237 0.85503 0.0
C301 C 0.06906 0.16294 0.86087 0.0
C302 C 0.0754 0.17591 0.85306 0.0
C303 C 0.09075 0.17468 0.84576 0.0
O304 O 0.10451 0.19186 0.82894 0.0
O305 O 0.11456 0.1869 0.83858 0.0
O306 O 0.09862 0.176 0.84962 0.0
O307 O 0.08859 0.18101 0.83994 0.0
H308 H 0.10499 0.17194 0.82878 0.0
H309 H 0.10921 0.15962 0.81853 0.0
H310 H 0.13005 0.17631 0.80699 0.0
H311 H 0.12582 0.18868 0.81728 0.0
H312 H 0.11926 0.22668 0.84961 0.0
H313 H 0.11382 0.21119 0.84672 0.0
H314 H 0.09539 0.2321 0.86533 0.0
H315 H 0.08999 0.21672 0.86247 0.0
H316 H 0.06196 0.17548 0.85859 0.0
H317 H 0.07797 0.15146 0.86207 0.0
H318 H 0.09048 0.15856 0.85392 0.0
H319 H 0.07453 0.18267 0.85045 0.0
C320 C 0.43327 0.07553 0.14044 0.0
C321 C 0.43096 0.08455 0.14222 0.0
C322 C 0.44518 0.08962 0.13583 0.0
C323 C 0.43685 0.09154 0.13989 0.0
C324 C 0.44755 0.08061 0.1341 0.0
C325 C 0.44161 0.0736 0.13638 0.0
U326 U 0.41437 0.06735 0.15535 0.0
O327 O 0.40209 0.05951 0.15255 0.0
O328 O 0.41196 0.05448 0.16239 0.0
C329 C 0.40438 0.05294 0.15804 0.0
C330 C 0.42711 0.06816 0.14308 0.0
C331 C 0.40294 0.04368 0.15471 0.0
C332 C 0.40461 0.03189 0.14339 0.0
C333 C 0.40655 0.04063 0.14649 0.0
C334 C 0.39555 0.02919 0.15672 0.0
C335 C 0.39902 0.02614 0.14847 0.0
C336 C 0.39749 0.03787 0.15981 0.0
C337 C 0.40592 0.0853 0.17256 0.0
C338 C 0.40002 0.08447 0.18788 0.0
C339 C 0.39768 0.09795 0.17895 0.0
C340 C 0.40228 0.09399 0.17175 0.0
C341 C 0.39667 0.09329 0.18711 0.0
C342 C 0.40463 0.08048 0.18064 0.0
C343 C 0.41167 0.08185 0.16518 0.0
O344 O 0.42844 0.06486 0.1512 0.0
O345 O 0.41853 0.06954 0.14127 0.0
O346 O 0.4077 0.0805 0.15737 0.0
O347 O 0.41758 0.07557 0.16726 0.0
H348 H 0.4246 0.08619 0.14544 0.0
H349 H 0.43494 0.09844 0.14131 0.0
H350 H 0.45397 0.07902 0.13101 0.0
H351 H 0.44354 0.06669 0.13502 0.0
H352 H 0.40737 0.02964 0.13701 0.0
H353 H 0.41077 0.04503 0.14245 0.0
H354 H 0.39125 0.02485 0.16074 0.0
H355 H 0.39463 0.04011 0.16616 0.0
H356 H 0.39928 0.08078 0.19415 0.0
H357 H 0.39513 0.10476 0.17825 0.0
H358 H 0.40323 0.09784 0.16561 0.0
H359 H 0.40737 0.07376 0.18145 0.0
C360 C 0.1809 0.18362 0.39043 0.0
C361 C 0.17273 0.18361 0.39523 0.0
C362 C 0.1667 0.19519 0.38532 0.0
C363 C 0.16569 0.18935 0.3927 0.0
C364 C 0.17491 0.19528 0.38056 0.0
C365 C 0.18197 0.18951 0.3831 0.0
U366 U 0.18863 0.16499 0.40569 0.0
O367 O 0.19589 0.15228 0.40316 0.0
O368 O 0.20147 0.16221 0.41262 0.0
C369 C 0.20264 0.15446 0.40848 0.0
C370 C 0.18815 0.17732 0.39301 0.0
C371 C 0.21177 0.1526 0.40502 0.0
C372 C 0.22436 0.15555 0.39488 0.0
C373 C 0.21562 0.15759 0.39794 0.0
C374 C 0.22542 0.14356 0.40594 0.0
C375 C 0.2293 0.1485 0.39887 0.0
C376 C 0.21673 0.14558 0.40898 0.0
C377 C 0.17045 0.15801 0.42323 0.0
C378 C 0.17162 0.14614 0.43451 0.0
C379 C 0.15776 0.15472 0.43305 0.0
C380 C 0.16161 0.15975 0.42608 0.0
C381 C 0.1627 0.14785 0.43727 0.0
C382 C 0.17548 0.1512 0.42749 0.0
C383 C 0.17409 0.16335 0.41572 0.0
O384 O 0.19169 0.17875 0.40102 0.0
O385 O 0.18634 0.16878 0.39152 0.0
O386 O 0.17523 0.15906 0.40806 0.0
O387 O 0.18075 0.16887 0.41767 0.0
H388 H 0.17177 0.1791 0.4009 0.0
H389 H 0.15942 0.18918 0.39644 0.0
H390 H 0.1758 0.19975 0.37485 0.0
H391 H 0.18822 0.18961 0.37932 0.0
H392 H 0.22727 0.15944 0.38943 0.0
H393 H 0.21188 0.16303 0.39481 0.0
H394 H 0.22913 0.13811 0.4091 0.0
H395 H 0.21388 0.14166 0.41445 0.0
H396 H 0.17553 0.14087 0.43772 0.0
H397 H 0.15089 0.15613 0.4351 0.0
H398 H 0.15764 0.16498 0.42287 0.0
H399 H 0.18232 0.14978 0.42535 0.0
C400 C 0.07343 0.93087 0.64082 0.0
C401 C 0.07354 0.92266 0.64553 0.0
C402 C 0.06173 0.91675 0.63581 0.0
C403 C 0.06773 0.91566 0.64305 0.0
C404 C 0.06155 0.92499 0.63114 0.0
C405 C 0.06738 0.93202 0.63363 0.0
U406 U 0.09237 0.93856 0.65578 0.0
O407 O 0.10489 0.94608 0.65308 0.0
O408 O 0.09511 0.95131 0.6629 0.0
C409 C 0.10273 0.95269 0.65858 0.0
C410 C 0.07974 0.93812 0.64337 0.0
C411 C 0.1043 0.96192 0.65524 0.0
C412 C 0.10162 0.97418 0.64463 0.0
C413 C 0.09987 0.96535 0.64759 0.0
C414 C 0.11222 0.97618 0.65691 0.0
C415 C 0.10781 0.97966 0.6493 0.0
C416 C 0.11048 0.9674 0.65985 0.0
C417 C 0.09984 0.92022 0.67297 0.0
C418 C 0.11086 0.92174 0.68505 0.0
C419 C 0.10379 0.90728 0.68218 0.0
C420 C 0.09885 0.91108 0.67513 0.0
C421 C 0.10982 0.91256 0.68718 0.0
C422 C 0.10589 0.92557 0.67795 0.0
C423 C 0.09438 0.92392 0.66557 0.0
O424 O 0.07847 0.94154 0.65146 0.0
O425 O 0.08828 0.9364 0.64167 0.0
O426 O 0.09856 0.92523 0.65787 0.0
O427 O 0.08878 0.93046 0.66769 0.0
H428 H 0.07816 0.92164 0.6511 0.0
H429 H 0.06796 0.90935 0.64672 0.0
H430 H 0.05696 0.92595 0.62553 0.0
H431 H 0.06721 0.93831 0.62991 0.0
H432 H 0.09815 0.97675 0.63874 0.0
H433 H 0.09508 0.96121 0.64394 0.0
H434 H 0.11701 0.9803 0.6606 0.0
H435 H 0.11398 0.96487 0.66575 0.0
H436 H 0.11549 0.92591 0.68887 0.0
H437 H 0.1029 0.9002 0.68374 0.0
H438 H 0.09421 0.90687 0.67136 0.0
H439 H 0.10673 0.93265 0.67637 0.0
C440 C 0.32576 0.82342 0.89057 0.0
C441 C 0.33398 0.82336 0.89528 0.0
C442 C 0.33975 0.81165 0.88537 0.0
C443 C 0.34092 0.81751 0.8927 0.0
C444 C 0.3315 0.81163 0.8807 0.0
C445 C 0.32454 0.8175 0.88328 0.0
U446 U 0.31824 0.84223 0.9058 0.0
O447 O 0.31088 0.85487 0.90322 0.0
O448 O 0.30548 0.84502 0.91286 0.0
C449 C 0.30419 0.8527 0.90862 0.0
C450 C 0.31859 0.82979 0.89321 0.0
C451 C 0.29501 0.85435 0.90518 0.0
C452 C 0.28253 0.85111 0.895 0.0
C453 C 0.29135 0.84937 0.898 0.0
C454 C 0.28101 0.86281 0.90632 0.0
C455 C 0.27728 0.85783 0.89919 0.0
C456 C 0.28979 0.86108 0.90928 0.0
C457 C 0.33659 0.84928 0.92318 0.0
C458 C 0.33555 0.86109 0.93452 0.0
C459 C 0.34932 0.8524 0.93298 0.0
C460 C 0.34542 0.84745 0.926 0.0
C461 C 0.34445 0.85928 0.93726 0.0
C462 C 0.33163 0.85611 0.92748 0.0
C463 C 0.33286 0.84394 0.9157 0.0
O464 O 0.31513 0.82843 0.90127 0.0
O465 O 0.32043 0.83832 0.89164 0.0
O466 O 0.33164 0.84823 0.90804 0.0
O467 O 0.32623 0.83841 0.91771 0.0
H468 H 0.33505 0.82788 0.90092 0.0
H469 H 0.34723 0.81761 0.89638 0.0
H470 H 0.33049 0.80714 0.87503 0.0
H471 H 0.31825 0.81747 0.87957 0.0
H472 H 0.27976 0.8472 0.88948 0.0
H473 H 0.29529 0.84415 0.89474 0.0
H474 H 0.27708 0.86801 0.90963 0.0
H475 H 0.2925 0.865 0.91483 0.0
H476 H 0.3317 0.86638 0.93777 0.0
H477 H 0.35618 0.8509 0.93503 0.0
H478 H 0.34934 0.84219 0.92276 0.0
H479 H 0.3248 0.8576 0.92537 0.0
C480 C 0.43239 0.93081 0.36631 0.0
C481 C 0.43225 0.92261 0.36157 0.0
C482 C 0.44392 0.91656 0.37137 0.0
C483 C 0.43797 0.91555 0.36407 0.0
C484 C 0.44412 0.92479 0.37608 0.0
C485 C 0.43838 0.93187 0.37356 0.0
U486 U 0.41353 0.93882 0.35136 0.0
O487 O 0.40118 0.94659 0.35413 0.0
O488 O 0.41103 0.95164 0.34428 0.0
C489 C 0.40345 0.95317 0.34863 0.0
C490 C 0.42618 0.93813 0.36373 0.0
C491 C 0.40206 0.96242 0.352 0.0
C492 C 0.40495 0.97458 0.36266 0.0
C493 C 0.40656 0.96574 0.35965 0.0
C494 C 0.39437 0.9768 0.3504 0.0
C495 C 0.39884 0.98017 0.35802 0.0
C496 C 0.39597 0.96801 0.34741 0.0
C497 C 0.40539 0.92075 0.3341 0.0
C498 C 0.39957 0.92144 0.31874 0.0
C499 C 0.39734 0.90797 0.32772 0.0
C500 C 0.40185 0.91202 0.33493 0.0
C501 C 0.39632 0.91258 0.31953 0.0
C502 C 0.40409 0.92552 0.32599 0.0
C503 C 0.41104 0.9243 0.3415 0.0
O504 O 0.4275 0.94151 0.35564 0.0
O505 O 0.41762 0.93655 0.36545 0.0
O506 O 0.407 0.92562 0.34928 0.0
O507 O 0.41689 0.93064 0.33946 0.0
H508 H 0.42766 0.92165 0.35595 0.0
H509 H 0.43772 0.90925 0.36037 0.0
H510 H 0.44868 0.92568 0.38172 0.0
H511 H 0.43857 0.93815 0.3773 0.0
H512 H 0.40846 0.97707 0.36856 0.0
H513 H 0.41128 0.9615 0.36328 0.0
H514 H 0.38963 0.98101 0.34674 0.0
H515 H 0.39242 0.96556 0.34151 0.0
H516 H 0.39883 0.92509 0.31245 0.0
H517 H 0.39488 0.90113 0.32843 0.0
H518 H 0.40282 0.90821 0.34109 0.0
H519 H 0.40675 0.93227 0.32516 0.0
C520 C 0.32609 0.18185 0.61642 0.0
C521 C 0.33514 0.17992 0.61431 0.0
C522 C 0.33992 0.19401 0.62118 0.0
C523 C 0.34199 0.18593 0.61671 0.0
C524 C 0.33089 0.196 0.62324 0.0
C525 C 0.32401 0.18993 0.62089 0.0
U526 U 0.31841 0.16317 0.60107 0.0
O527 O 0.31107 0.15051 0.60357 0.0
O528 O 0.30558 0.16047 0.59409 0.0
C529 C 0.30434 0.15273 0.59823 0.0
C530 C 0.31887 0.17555 0.61371 0.0
C531 C 0.2952 0.15095 0.6017 0.0
C532 C 0.28268 0.15396 0.61192 0.0
C533 C 0.29141 0.15596 0.60881 0.0
C534 C 0.28149 0.14198 0.60086 0.0
C535 C 0.27768 0.14694 0.60796 0.0
C536 C 0.29017 0.14397 0.59777 0.0
C537 C 0.33668 0.15615 0.5836 0.0
C538 C 0.3355 0.14449 0.57211 0.0
C539 C 0.34936 0.15301 0.57374 0.0
C540 C 0.34553 0.15791 0.5808 0.0
C541 C 0.34441 0.14625 0.56937 0.0
C542 C 0.33164 0.14941 0.57923 0.0
C543 C 0.333 0.16146 0.59112 0.0
O544 O 0.31544 0.177 0.60566 0.0
O545 O 0.32055 0.16698 0.61525 0.0
O546 O 0.33179 0.15715 0.59877 0.0
O547 O 0.32638 0.16702 0.58915 0.0
H548 H 0.33689 0.17377 0.61077 0.0
H549 H 0.34892 0.18432 0.61503 0.0
H550 H 0.32918 0.20223 0.62665 0.0
H551 H 0.31708 0.19157 0.62251 0.0
H552 H 0.27983 0.15787 0.61739 0.0
H553 H 0.2952 0.16137 0.61193 0.0
H554 H 0.27774 0.13656 0.59772 0.0
H555 H 0.29298 0.14003 0.59229 0.0
H556 H 0.33158 0.13929 0.56879 0.0
H557 H 0.35623 0.15446 0.57169 0.0
H558 H 0.3495 0.16309 0.58409 0.0
H559 H 0.32479 0.14798 0.58132 0.0
C560 C 0.07286 0.07547 0.8659 0.0
C561 C 0.07303 0.08367 0.86115 0.0
C562 C 0.06128 0.08971 0.87086 0.0
C563 C 0.06728 0.09073 0.86361 0.0
C564 C 0.06104 0.08149 0.87557 0.0
C565 C 0.06681 0.07441 0.8731 0.0
U566 U 0.09185 0.06741 0.85111 0.0
O567 O 0.10415 0.05963 0.85398 0.0
O568 O 0.09437 0.05455 0.84407 0.0
C569 C 0.10192 0.05304 0.84848 0.0
C570 C 0.07909 0.06814 0.86337 0.0
C571 C 0.10336 0.04378 0.85181 0.0
C572 C 0.10226 0.03216 0.86338 0.0
C573 C 0.1003 0.04091 0.86032 0.0
C574 C 0.11022 0.02908 0.84944 0.0
C575 C 0.10732 0.02622 0.85798 0.0
C576 C 0.10826 0.03777 0.84639 0.0
C577 C 0.1002 0.08544 0.83388 0.0
C578 C 0.10885 0.09802 0.82789 0.0
C579 C 0.10551 0.0852 0.81833 0.0
C580 C 0.10097 0.08104 0.8255 0.0
C581 C 0.10932 0.0938 0.81944 0.0
C582 C 0.10431 0.09389 0.83503 0.0
C583 C 0.09447 0.0819 0.84124 0.0
O584 O 0.07783 0.06476 0.85527 0.0
O585 O 0.08763 0.06971 0.86516 0.0
O586 O 0.09842 0.08059 0.84907 0.0
O587 O 0.08861 0.07558 0.83917 0.0
H588 H 0.07766 0.08462 0.85558 0.0
H589 H 0.06756 0.09702 0.85991 0.0
H590 H 0.05644 0.08059 0.88118 0.0
H591 H 0.06659 0.06813 0.87684 0.0
H592 H 0.09994 0.03005 0.86998 0.0
H593 H 0.0965 0.04545 0.8646 0.0
H594 H 0.1141 0.02459 0.84517 0.0
H595 H 0.11069 0.03986 0.83982 0.0
H596 H 0.11174 0.10466 0.82886 0.0
H597 H 0.10583 0.08185 0.81184 0.0
H598 H 0.09785 0.07452 0.82441 0.0
H599 H 0.10376 0.09744 0.8414 0.0
C600 C 0.18103 0.82376 0.11551 0.0
C601 C 0.17284 0.82366 0.11074 0.0
C602 C 0.16698 0.81207 0.12074 0.0
C603 C 0.16588 0.81785 0.11334 0.0
C604 C 0.1752 0.81209 0.12547 0.0
C605 C 0.18218 0.81792 0.12287 0.0
U606 U 0.18859 0.84253 0.10028 0.0
O607 O 0.19601 0.85513 0.10283 0.0
O608 O 0.20136 0.84526 0.09318 0.0
C609 C 0.20269 0.85293 0.09743 0.0
C610 C 0.18822 0.83009 0.11286 0.0
C611 C 0.21188 0.8545 0.10089 0.0
C612 C 0.22387 0.85206 0.11184 0.0
C613 C 0.21509 0.85029 0.10875 0.0
C614 C 0.22626 0.86222 0.09926 0.0
C615 C 0.22951 0.85804 0.1071 0.0
C616 C 0.21752 0.86046 0.09619 0.0
C617 C 0.17024 0.84966 0.08294 0.0
C618 C 0.17142 0.86127 0.0714 0.0
C619 C 0.15745 0.85297 0.07328 0.0
C620 C 0.16131 0.84803 0.08029 0.0
C621 C 0.16244 0.85964 0.0688 0.0
C622 C 0.17531 0.8563 0.07846 0.0
C623 C 0.17396 0.84431 0.09041 0.0
O624 O 0.19165 0.82872 0.1048 0.0
O625 O 0.18642 0.83863 0.11444 0.0
O626 O 0.17522 0.84859 0.09807 0.0
O627 O 0.18055 0.83875 0.08838 0.0
H628 H 0.17182 0.82812 0.10505 0.0
H629 H 0.15959 0.81792 0.10962 0.0
H630 H 0.17616 0.80766 0.1312 0.0
H631 H 0.18845 0.81792 0.12663 0.0
H632 H 0.22628 0.84878 0.11791 0.0
H633 H 0.21083 0.84567 0.11247 0.0
H634 H 0.2305 0.86685 0.09552 0.0
H635 H 0.21515 0.86378 0.09012 0.0
H636 H 0.17537 0.86638 0.06799 0.0
H637 H 0.15053 0.85162 0.07135 0.0
H638 H 0.15731 0.84293 0.08367 0.0
H639 H 0.18222 0.85763 0.08044 0.0
C640 C 0.14045 0.43225 0.07588 0.0
C641 C 0.14236 0.43011 0.08491 0.0
C642 C 0.13573 0.44426 0.08985 0.0
C643 C 0.13999 0.43605 0.09184 0.0
C644 C 0.13387 0.44646 0.08082 0.0
C645 C 0.13619 0.44047 0.07387 0.0
U646 U 0.15543 0.41331 0.06814 0.0
O647 O 0.15275 0.40091 0.06044 0.0
O648 O 0.16266 0.4107 0.05541 0.0
C649 C 0.15829 0.40314 0.05387 0.0
C650 C 0.14314 0.42603 0.06858 0.0
C651 C 0.15492 0.40176 0.04462 0.0
C652 C 0.1438 0.40403 0.03274 0.0
C653 C 0.14687 0.40572 0.04154 0.0
C654 C 0.15679 0.39449 0.03004 0.0
C655 C 0.14875 0.39839 0.02694 0.0
C656 C 0.15985 0.39617 0.0388 0.0
C657 C 0.17233 0.40551 0.08666 0.0
C658 C 0.18496 0.39513 0.08513 0.0
C659 C 0.18103 0.40115 0.09982 0.0
C660 C 0.17395 0.406 0.09596 0.0
C661 C 0.1866 0.39572 0.09445 0.0
C662 C 0.17784 0.40002 0.08124 0.0
C663 C 0.16501 0.41103 0.08289 0.0
O664 O 0.15129 0.42732 0.06535 0.0
O665 O 0.14132 0.41747 0.07006 0.0
O666 O 0.1573 0.40691 0.08142 0.0
O667 O 0.16725 0.41669 0.07644 0.0
H668 H 0.14574 0.42385 0.08661 0.0
H669 H 0.14152 0.43427 0.09876 0.0
H670 H 0.13062 0.45279 0.07917 0.0
H671 H 0.13472 0.44227 0.06695 0.0
H672 H 0.13757 0.4071 0.03045 0.0
H673 H 0.14297 0.41006 0.04594 0.0
H674 H 0.1607 0.39012 0.02567 0.0
H675 H 0.16606 0.39304 0.04105 0.0
H676 H 0.18922 0.39097 0.08089 0.0
H677 H 0.18221 0.40167 0.10702 0.0
H678 H 0.16978 0.41021 0.10023 0.0
H679 H 0.17668 0.39958 0.07404 0.0
C680 C 0.6406 0.07402 0.93048 0.0
C681 C 0.64525 0.07398 0.92223 0.0
C682 C 0.63553 0.06203 0.91662 0.0
C683 C 0.64274 0.06803 0.91536 0.0
C684 C 0.6309 0.062 0.9249 0.0
C685 C 0.63343 0.06798 0.93179 0.0
U686 U 0.65554 0.09315 0.93778 0.0
O687 O 0.65285 0.10567 0.94527 0.0
O688 O 0.66279 0.096 0.95043 0.0
C689 C 0.65839 0.10356 0.95186 0.0
C690 C 0.6432 0.08045 0.9376 0.0
C691 C 0.65503 0.10502 0.96111 0.0
C692 C 0.64407 0.10262 0.97312 0.0
C693 C 0.64707 0.10096 0.96429 0.0
C694 C 0.65695 0.11237 0.97565 0.0
C695 C 0.64901 0.10834 0.97886 0.0
C696 C 0.65993 0.11072 0.96686 0.0
C697 C 0.67251 0.10039 0.91903 0.0
C698 C 0.68371 0.11238 0.9196 0.0
C699 C 0.68227 0.10315 0.90618 0.0
C700 C 0.67534 0.09827 0.91026 0.0
C701 C 0.68649 0.11024 0.91079 0.0
C702 C 0.67672 0.10747 0.92371 0.0
C703 C 0.66516 0.09504 0.92299 0.0
O704 O 0.65133 0.07926 0.94094 0.0
O705 O 0.64143 0.08894 0.93579 0.0
O706 O 0.65749 0.09925 0.92438 0.0
O707 O 0.66738 0.08953 0.92957 0.0
H708 H 0.6508 0.0786 0.92109 0.0
H709 H 0.64638 0.06814 0.90902 0.0
H710 H 0.62532 0.05741 0.92598 0.0
H711 H 0.62976 0.06792 0.93811 0.0
H712 H 0.63793 0.09945 0.97549 0.0
H713 H 0.6432 0.09654 0.95994 0.0
H714 H 0.66084 0.11679 0.97998 0.0
H715 H 0.66607 0.11392 0.96453 0.0
H716 H 0.68692 0.11782 0.92326 0.0
H717 H 0.68435 0.1014 0.89939 0.0
H718 H 0.67217 0.09282 0.90656 0.0
H719 H 0.67462 0.10918 0.9305 0.0
C720 C 0.1825 0.3905 0.1811 0.0
C721 C 0.18258 0.39526 0.17291 0.0
C722 C 0.1942 0.38529 0.16704 0.0
C723 C 0.18838 0.39268 0.16594 0.0
C724 C 0.1942 0.38057 0.17526 0.0
C725 C 0.18837 0.38316 0.18225 0.0
U726 U 0.16374 0.40574 0.18871 0.0
O727 O 0.15112 0.4032 0.19613 0.0
O728 O 0.16102 0.41284 0.20147 0.0
C729 C 0.15332 0.40863 0.20279 0.0
C730 C 0.17618 0.39315 0.18832 0.0
C731 C 0.15165 0.40525 0.21199 0.0
C732 C 0.15495 0.39528 0.22462 0.0
C733 C 0.15673 0.39821 0.21578 0.0
C734 C 0.143 0.40637 0.22589 0.0
C735 C 0.14808 0.39938 0.22974 0.0
C736 C 0.14477 0.40927 0.2171 0.0
C737 C 0.15667 0.42305 0.17027 0.0
C738 C 0.14575 0.43524 0.17158 0.0
C739 C 0.153 0.43223 0.15723 0.0
C740 C 0.15781 0.42516 0.16113 0.0
C741 C 0.14693 0.43732 0.1624 0.0
C742 C 0.1506 0.42811 0.17551 0.0
C743 C 0.16198 0.41559 0.17406 0.0
O744 O 0.17756 0.40121 0.19175 0.0
O745 O 0.16763 0.39158 0.18654 0.0
O746 O 0.15768 0.40794 0.17533 0.0
O747 O 0.16753 0.41762 0.18066 0.0
H748 H 0.17809 0.40094 0.17189 0.0
H749 H 0.18829 0.3964 0.15965 0.0
H750 H 0.19865 0.37486 0.17622 0.0
H751 H 0.18839 0.37941 0.18852 0.0
H752 H 0.15893 0.38986 0.22748 0.0
H753 H 0.16206 0.39502 0.21194 0.0
H754 H 0.13769 0.40961 0.22972 0.0
H755 H 0.14078 0.41471 0.21428 0.0
H756 H 0.14109 0.43912 0.17566 0.0
H757 H 0.15399 0.43375 0.15015 0.0
H758 H 0.16247 0.42133 0.157 0.0
H759 H 0.14964 0.42657 0.18258 0.0
C760 C 0.866 0.93321 0.43077 0.0
C761 C 0.86119 0.93322 0.4226 0.0
C762 C 0.87101 0.94492 0.41665 0.0
C763 C 0.86367 0.93904 0.41561 0.0
C764 C 0.87578 0.94499 0.42485 0.0
C765 C 0.87329 0.93915 0.43186 0.0
U766 U 0.85115 0.91416 0.43841 0.0
O767 O 0.85396 0.90161 0.44585 0.0
O768 O 0.84412 0.9113 0.45119 0.0
C769 C 0.84849 0.9037 0.45251 0.0
C770 C 0.86349 0.92685 0.43799 0.0
C771 C 0.8519 0.90211 0.46171 0.0
C772 C 0.86212 0.90531 0.47417 0.0
C773 C 0.85914 0.90704 0.46534 0.0
C774 C 0.85069 0.89373 0.47576 0.0
C775 C 0.85788 0.89866 0.47945 0.0
C776 C 0.84774 0.89544 0.46698 0.0
C777 C 0.83395 0.90667 0.42004 0.0
C778 C 0.82178 0.89575 0.42149 0.0
C779 C 0.82494 0.90263 0.40698 0.0
C780 C 0.83195 0.90757 0.41084 0.0
C781 C 0.8198 0.89669 0.41226 0.0
C782 C 0.82884 0.90073 0.42537 0.0
C783 C 0.84132 0.91216 0.42378 0.0
O784 O 0.8554 0.92806 0.44143 0.0
O785 O 0.86523 0.91834 0.43622 0.0
O786 O 0.84905 0.90803 0.42505 0.0
O787 O 0.83918 0.91768 0.43038 0.0
H788 H 0.85555 0.92868 0.42162 0.0
H789 H 0.85992 0.9389 0.40934 0.0
H790 H 0.88146 0.94949 0.42576 0.0
H791 H 0.87709 0.93922 0.43811 0.0
H792 H 0.86768 0.90918 0.47691 0.0
H793 H 0.86244 0.9122 0.46137 0.0
H794 H 0.84734 0.88858 0.47972 0.0
H795 H 0.84215 0.89156 0.46429 0.0
H796 H 0.81785 0.89121 0.42565 0.0
H797 H 0.8235 0.90343 0.39986 0.0
H798 H 0.83582 0.91213 0.40664 0.0
H799 H 0.8303 0.89997 0.43249 0.0
C800 C 0.82325 0.11585 0.18089 0.0
C801 C 0.81956 0.10941 0.17506 0.0
C802 C 0.80946 0.12076 0.16834 0.0
C803 C 0.81293 0.11185 0.1688 0.0
C804 C 0.81402 0.12731 0.17364 0.0
C805 C 0.8206 0.12485 0.17997 0.0
U806 U 0.84272 0.10084 0.18783 0.0
O807 O 0.85553 0.10375 0.1948 0.0
O808 O 0.84598 0.09406 0.20062 0.0
C809 C 0.85363 0.09843 0.20163 0.0
C810 C 0.83018 0.11332 0.18761 0.0
C811 C 0.85547 0.102 0.21073 0.0
C812 C 0.85208 0.11191 0.22339 0.0
C813 C 0.85029 0.10895 0.21457 0.0
C814 C 0.86425 0.10107 0.22456 0.0
C815 C 0.85903 0.10792 0.22847 0.0
C816 C 0.86248 0.09813 0.21577 0.0
C817 C 0.84935 0.08297 0.16987 0.0
C818 C 0.86125 0.07172 0.17107 0.0
C819 C 0.85243 0.07289 0.15735 0.0
C820 C 0.84746 0.07993 0.16112 0.0
C821 C 0.85939 0.06877 0.16225 0.0
C822 C 0.85626 0.07882 0.17487 0.0
C823 C 0.84404 0.09052 0.17347 0.0
O824 O 0.82908 0.1054 0.19146 0.0
O825 O 0.83857 0.11489 0.18522 0.0
O826 O 0.84831 0.09824 0.17433 0.0
O827 O 0.8387 0.08869 0.18031 0.0
H828 H 0.82186 0.10248 0.17526 0.0
H829 H 0.8107 0.10665 0.1642 0.0
H830 H 0.81289 0.13443 0.17291 0.0
H831 H 0.82374 0.13003 0.18406 0.0
H832 H 0.84799 0.11722 0.22629 0.0
H833 H 0.84484 0.112 0.21078 0.0
H834 H 0.86964 0.09791 0.22836 0.0
H835 H 0.86654 0.09276 0.21294 0.0
H836 H 0.86659 0.06859 0.17495 0.0
H837 H 0.8509 0.07068 0.15055 0.0
H838 H 0.84216 0.08305 0.15718 0.0
H839 H 0.85779 0.08109 0.18164 0.0
C840 C 0.36646 0.57398 0.57613 0.0
C841 C 0.36175 0.57397 0.58435 0.0
C842 C 0.37153 0.56213 0.5901 0.0
C843 C 0.36427 0.56808 0.59127 0.0
C844 C 0.37619 0.56206 0.58184 0.0
C845 C 0.37367 0.56797 0.57489 0.0
U846 U 0.35165 0.59316 0.56864 0.0
O847 O 0.35462 0.60575 0.56127 0.0
O848 O 0.34469 0.59616 0.55589 0.0
C849 C 0.34929 0.60362 0.55451 0.0
C850 C 0.36394 0.58042 0.56898 0.0
C851 C 0.35293 0.60511 0.54531 0.0
C852 C 0.35616 0.59992 0.53003 0.0
C853 C 0.35363 0.59807 0.53896 0.0
C854 C 0.35762 0.61576 0.5337 0.0
C855 C 0.35803 0.6088 0.52731 0.0
C856 C 0.35507 0.61393 0.54261 0.0
C857 C 0.33446 0.60039 0.58724 0.0
C858 C 0.3231 0.61222 0.58661 0.0
C859 C 0.32484 0.60326 0.60018 0.0
C860 C 0.33178 0.5984 0.59609 0.0
C861 C 0.32047 0.61021 0.5955 0.0
C862 C 0.33009 0.60733 0.58249 0.0
C863 C 0.34182 0.59504 0.58329 0.0
O864 O 0.35585 0.57925 0.56554 0.0
O865 O 0.36571 0.5889 0.57084 0.0
O866 O 0.34954 0.59922 0.58203 0.0
O867 O 0.33964 0.58962 0.57662 0.0
H868 H 0.35618 0.57857 0.58543 0.0
H869 H 0.3606 0.56823 0.5976 0.0
H870 H 0.38181 0.55751 0.58082 0.0
H871 H 0.37738 0.5679 0.5686 0.0
H872 H 0.35642 0.59445 0.52518 0.0
H873 H 0.35202 0.5912 0.54083 0.0
H874 H 0.35903 0.62265 0.53173 0.0
H875 H 0.35454 0.61947 0.54735 0.0
H876 H 0.31977 0.61756 0.5829 0.0
H877 H 0.32289 0.60161 0.60703 0.0
H878 H 0.33507 0.59306 0.59984 0.0
H879 H 0.33208 0.60894 0.57565 0.0
C880 C 0.18262 0.61641 0.32588 0.0
C881 C 0.18275 0.61152 0.33399 0.0
C882 C 0.19433 0.62146 0.33999 0.0
C883 C 0.18856 0.61402 0.34099 0.0
C884 C 0.19428 0.62631 0.33185 0.0
C885 C 0.18844 0.62381 0.32483 0.0
U886 U 0.16397 0.60115 0.31804 0.0
O887 O 0.15133 0.60373 0.31067 0.0
O888 O 0.1613 0.59425 0.30517 0.0
C889 C 0.15357 0.59843 0.30392 0.0
C890 C 0.1763 0.61384 0.31864 0.0
C891 C 0.15189 0.60195 0.29477 0.0
C892 C 0.155 0.61231 0.28241 0.0
C893 C 0.15677 0.60925 0.2912 0.0
C894 C 0.14348 0.60084 0.28074 0.0
C895 C 0.14836 0.60808 0.2771 0.0
C896 C 0.14523 0.59781 0.28949 0.0
C897 C 0.15704 0.58343 0.3361 0.0
C898 C 0.14544 0.57189 0.33481 0.0
C899 C 0.15396 0.57343 0.34869 0.0
C900 C 0.15882 0.58055 0.34492 0.0
C901 C 0.14721 0.56907 0.34369 0.0
C902 C 0.15033 0.57906 0.33103 0.0
C903 C 0.1623 0.59102 0.3325 0.0
O904 O 0.17774 0.60586 0.31505 0.0
O905 O 0.16775 0.61531 0.32047 0.0
O906 O 0.15793 0.59865 0.33137 0.0
O907 O 0.16788 0.58916 0.32587 0.0
H908 H 0.1783 0.6058 0.33493 0.0
H909 H 0.18851 0.6102 0.34722 0.0
H910 H 0.1987 0.63206 0.33097 0.0
H911 H 0.18843 0.62766 0.31862 0.0
H912 H 0.15884 0.61792 0.27971 0.0
H913 H 0.16194 0.61254 0.29519 0.0
H914 H 0.13833 0.5975 0.27676 0.0
H915 H 0.14139 0.59217 0.29213 0.0
H916 H 0.14026 0.56857 0.33086 0.0
H917 H 0.15542 0.57133 0.35554 0.0
H918 H 0.16398 0.58384 0.34893 0.0
H919 H 0.14888 0.58121 0.3242 0.0
C920 C 0.32417 0.39029 0.82553 0.0
C921 C 0.32647 0.39207 0.83455 0.0
C922 C 0.31227 0.38561 0.83961 0.0
C923 C 0.32058 0.38971 0.84154 0.0
C924 C 0.30992 0.38389 0.8306 0.0
C925 C 0.31585 0.38619 0.82359 0.0
U926 U 0.34306 0.40522 0.81739 0.0
O927 O 0.35534 0.40243 0.80953 0.0
O928 O 0.34547 0.41228 0.80454 0.0
C929 C 0.35304 0.40793 0.80297 0.0
C930 C 0.33033 0.39294 0.81816 0.0
C931 C 0.35438 0.40455 0.79372 0.0
C932 C 0.35132 0.39396 0.78154 0.0
C933 C 0.3497 0.39702 0.79036 0.0
C934 C 0.36226 0.40592 0.7794 0.0
C935 C 0.35762 0.39841 0.77601 0.0
C936 C 0.36065 0.40896 0.78818 0.0
C937 C 0.35148 0.42242 0.83535 0.0
C938 C 0.35738 0.43773 0.8345 0.0
C939 C 0.35967 0.42883 0.84802 0.0
C940 C 0.35509 0.42162 0.84407 0.0
C941 C 0.3607 0.43698 0.84335 0.0
C942 C 0.35279 0.43048 0.83052 0.0
C943 C 0.34575 0.41503 0.8319 0.0
O944 O 0.32899 0.40107 0.81488 0.0
O945 O 0.33891 0.39114 0.81955 0.0
O946 O 0.34972 0.40723 0.83054 0.0
O947 O 0.33983 0.4171 0.82563 0.0
H948 H 0.33281 0.39532 0.8362 0.0
H949 H 0.32248 0.39113 0.84845 0.0
H950 H 0.30351 0.38076 0.829 0.0
H951 H 0.31393 0.38483 0.81668 0.0
H952 H 0.34768 0.38815 0.77902 0.0
H953 H 0.34485 0.39352 0.79455 0.0
H954 H 0.36714 0.40943 0.77525 0.0
H955 H 0.36434 0.41476 0.79066 0.0
H956 H 0.35813 0.44398 0.83081 0.0
H957 H 0.36219 0.42815 0.85485 0.0
H958 H 0.35412 0.41549 0.84793 0.0
H959 H 0.35008 0.43127 0.82378 0.0
C960 C 0.93138 0.8652 0.57269 0.0
C961 C 0.92326 0.86032 0.57267 0.0
C962 C 0.91715 0.8702 0.5611 0.0
C963 C 0.91621 0.86279 0.56692 0.0
C964 C 0.9253 0.87504 0.56104 0.0
C965 C 0.93237 0.87256 0.56682 0.0
U966 U 0.93912 0.85034 0.59166 0.0
O967 O 0.95189 0.84324 0.5944 0.0
O968 O 0.94668 0.85309 0.60414 0.0
C969 C 0.9533 0.84761 0.60199 0.0
C970 C 0.93866 0.86268 0.57898 0.0
C971 C 0.96254 0.851 0.60349 0.0
C972 C 0.97456 0.86194 0.6011 0.0
C973 C 0.96575 0.8589 0.59936 0.0
C974 C 0.97698 0.84922 0.61107 0.0
C975 C 0.98023 0.8571 0.60697 0.0
C976 C 0.96822 0.8462 0.60934 0.0
C977 C 0.92059 0.83326 0.59915 0.0
C978 C 0.92183 0.82107 0.61007 0.0
C979 C 0.90743 0.82432 0.60302 0.0
C980 C 0.9114 0.83132 0.59814 0.0
C981 C 0.9126 0.81915 0.60901 0.0
C982 C 0.92582 0.82811 0.60516 0.0
C983 C 0.92444 0.8406 0.59371 0.0
O984 O 0.93697 0.86443 0.58751 0.0
O985 O 0.94207 0.85459 0.57774 0.0
O986 O 0.931 0.83842 0.58816 0.0
O987 O 0.92579 0.8483 0.59788 0.0
H988 H 0.92235 0.85462 0.57716 0.0
H989 H 0.90997 0.85898 0.56705 0.0
H990 H 0.92613 0.88078 0.5566 0.0
H991 H 0.93858 0.87641 0.56676 0.0
H992 H 0.97695 0.86805 0.59788 0.0
H993 H 0.96146 0.8627 0.59483 0.0
H994 H 0.98124 0.8454 0.61561 0.0
H995 H 0.96586 0.84009 0.6126 0.0
H996 H 0.92591 0.81712 0.61467 0.0
H997 H 0.90031 0.82292 0.60212 0.0
H998 H 0.90727 0.83521 0.59353 0.0
H999 H 0.93294 0.82953 0.606 0.0
C1000 C 0.89143 0.18068 0.32272 0.0
C1001 C 0.88655 0.1825 0.31481 0.0
C1002 C 0.88667 0.16654 0.31092 0.0
C1003 C 0.8842 0.17547 0.30892 0.0
C1004 C 0.89157 0.16474 0.31881 0.0
C1005 C 0.89396 0.17175 0.32465 0.0
U1006 U 0.90656 0.18867 0.3414 0.0
O1007 O 0.91372 0.20147 0.34387 0.0
O1008 O 0.904 0.19639 0.35383 0.0
C1009 C 0.90947 0.20297 0.35151 0.0
C1010 C 0.89409 0.18805 0.32886 0.0
C1011 C 0.90612 0.21222 0.35297 0.0
C1012 C 0.89524 0.22428 0.3505 0.0
C1013 C 0.89827 0.21547 0.34877 0.0
C1014 C 0.90789 0.22663 0.36059 0.0
C1015 C 0.90005 0.22992 0.35643 0.0
C1016 C 0.91089 0.21787 0.35887 0.0
C1017 C 0.92374 0.1703 0.34896 0.0
C1018 C 0.93514 0.17145 0.36071 0.0
C1019 C 0.93349 0.15757 0.35222 0.0
C1020 C 0.92649 0.16143 0.34725 0.0
C1021 C 0.93784 0.16252 0.359 0.0
C1022 C 0.9281 0.17533 0.35571 0.0
C1023 C 0.91631 0.17401 0.34355 0.0
O1024 O 0.89241 0.18658 0.33745 0.0
O1025 O 0.90219 0.19138 0.32745 0.0
O1026 O 0.91842 0.18047 0.33786 0.0
O1027 O 0.90866 0.17544 0.34779 0.0
H1028 H 0.8846 0.18935 0.31318 0.0
H1029 H 0.88046 0.17698 0.30283 0.0
H1030 H 0.89358 0.15791 0.32042 0.0
H1031 H 0.89781 0.17021 0.33067 0.0
H1032 H 0.88917 0.22671 0.34723 0.0
H1033 H 0.89449 0.2112 0.3442 0.0
H1034 H 0.91168 0.23087 0.36518 0.0
H1035 H 0.91695 0.21548 0.36219 0.0
H1036 H 0.93846 0.17536 0.36591 0.0
H1037 H 0.93549 0.15069 0.35081 0.0
H1038 H 0.92321 0.15746 0.34206 0.0
H1039 H 0.92605 0.1822 0.3571 0.0
C1040 C 0.57594 0.1411 0.0729 0.0
C1041 C 0.58406 0.14598 0.07291 0.0
C1042 C 0.59011 0.13625 0.06118 0.0
C1043 C 0.59109 0.14357 0.06709 0.0
C1044 C 0.58195 0.13142 0.06108 0.0
C1045 C 0.57491 0.13383 0.06693 0.0
U1046 U 0.56795 0.15592 0.09188 0.0
O1047 O 0.55501 0.16258 0.09474 0.0
O1048 O 0.5606 0.15291 0.10447 0.0
C1049 C 0.55371 0.15804 0.10226 0.0
C1050 C 0.56869 0.14351 0.07927 0.0
C1051 C 0.54459 0.15422 0.10379 0.0
C1052 C 0.52928 0.1509 0.09875 0.0
C1053 C 0.53816 0.15356 0.09683 0.0
C1054 C 0.53318 0.14921 0.11452 0.0
C1055 C 0.52669 0.14885 0.10764 0.0
C1056 C 0.54203 0.15189 0.11262 0.0
C1057 C 0.58613 0.17362 0.099 0.0
C1058 C 0.58544 0.18474 0.11106 0.0
C1059 C 0.59883 0.18359 0.10172 0.0
C1060 C 0.59482 0.17663 0.09682 0.0
C1061 C 0.59421 0.18766 0.1089 0.0
C1062 C 0.58141 0.17772 0.10613 0.0
C1063 C 0.58234 0.16613 0.09371 0.0
O1064 O 0.57053 0.14189 0.08779 0.0
O1065 O 0.56505 0.15149 0.07799 0.0
O1066 O 0.57564 0.1681 0.08825 0.0
O1067 O 0.58126 0.15843 0.09796 0.0
H1068 H 0.58499 0.1516 0.07749 0.0
H1069 H 0.59733 0.14737 0.06726 0.0
H1070 H 0.58108 0.12575 0.05655 0.0
H1071 H 0.56869 0.12999 0.06683 0.0
H1072 H 0.52436 0.15067 0.09335 0.0
H1073 H 0.53991 0.15531 0.08996 0.0
H1074 H 0.53131 0.14768 0.12142 0.0
H1075 H 0.54683 0.1524 0.11811 0.0
H1076 H 0.58178 0.18783 0.11657 0.0
H1077 H 0.60558 0.18576 0.09996 0.0
H1078 H 0.59855 0.17355 0.09134 0.0
H1079 H 0.57469 0.17547 0.10789 0.0
C1080 C 0.61551 0.82532 0.82306 0.0
C1081 C 0.61056 0.8334 0.823 0.0
C1082 C 0.62056 0.83962 0.81158 0.0
C1083 C 0.61306 0.84048 0.8173 0.0
C1084 C 0.62547 0.83151 0.81156 0.0
C1085 C 0.62296 0.8244 0.81728 0.0
U1086 U 0.60031 0.81737 0.84166 0.0
O1087 O 0.59333 0.80451 0.84424 0.0
O1088 O 0.60288 0.80986 0.85422 0.0
C1089 C 0.59753 0.80316 0.85193 0.0
C1090 C 0.61295 0.818 0.82928 0.0
C1091 C 0.60103 0.79399 0.85349 0.0
C1092 C 0.61168 0.78182 0.85056 0.0
C1093 C 0.60859 0.79062 0.84886 0.0
C1094 C 0.5997 0.77974 0.8615 0.0
C1095 C 0.60722 0.77632 0.85688 0.0
C1096 C 0.59664 0.78849 0.85981 0.0
C1097 C 0.58279 0.83562 0.84875 0.0
C1098 C 0.57142 0.83462 0.86054 0.0
C1099 C 0.57294 0.84834 0.85177 0.0
C1100 C 0.57995 0.84443 0.84685 0.0
C1101 C 0.56866 0.84351 0.85867 0.0
C1102 C 0.57848 0.8307 0.8556 0.0
C1103 C 0.59032 0.8319 0.84347 0.0
O1104 O 0.61447 0.81972 0.83785 0.0
O1105 O 0.60494 0.81447 0.82785 0.0
O1106 O 0.58835 0.82532 0.83787 0.0
O1107 O 0.59794 0.83066 0.84781 0.0
H1108 H 0.6048 0.83424 0.82742 0.0
H1109 H 0.6092 0.84669 0.81741 0.0
H1110 H 0.63127 0.83073 0.80719 0.0
H1111 H 0.62686 0.81822 0.81725 0.0
H1112 H 0.6175 0.77929 0.84694 0.0
H1113 H 0.61207 0.79477 0.84396 0.0
H1114 H 0.59618 0.7756 0.86639 0.0
H1115 H 0.59081 0.79098 0.86346 0.0
H1116 H 0.56816 0.8308 0.86584 0.0
H1117 H 0.57089 0.85518 0.85023 0.0
H1118 H 0.5832 0.84832 0.84158 0.0
H1119 H 0.5806 0.82387 0.85714 0.0
C1120 C 0.9311 0.14174 0.93391 0.0
C1121 C 0.92296 0.14659 0.93393 0.0
C1122 C 0.91689 0.13669 0.94549 0.0
C1123 C 0.91592 0.14409 0.93968 0.0
C1124 C 0.92506 0.13187 0.94556 0.0
C1125 C 0.93212 0.13438 0.93978 0.0
U1126 U 0.93894 0.15673 0.91505 0.0
O1127 O 0.95176 0.16375 0.91237 0.0
O1128 O 0.94647 0.15402 0.90254 0.0
C1129 C 0.95315 0.15942 0.90475 0.0
C1130 C 0.93838 0.14428 0.92762 0.0
C1131 C 0.96235 0.15595 0.90324 0.0
C1132 C 0.97427 0.1449 0.90564 0.0
C1133 C 0.96549 0.14802 0.90737 0.0
C1134 C 0.97682 0.15761 0.89568 0.0
C1135 C 0.97999 0.1497 0.89978 0.0
C1136 C 0.96808 0.16071 0.8974 0.0
C1137 C 0.92053 0.17402 0.90771 0.0
C1138 C 0.9214 0.18529 0.89581 0.0
C1139 C 0.90769 0.18369 0.90459 0.0
C1140 C 0.91168 0.17677 0.90957 0.0
C1141 C 0.91249 0.18797 0.89765 0.0
C1142 C 0.92541 0.17831 0.90081 0.0
C1143 C 0.92433 0.1666 0.91308 0.0
O1144 O 0.93667 0.14262 0.91908 0.0
O1145 O 0.94184 0.15234 0.92894 0.0
O1146 O 0.9309 0.16869 0.91864 0.0
O1147 O 0.92563 0.15893 0.90885 0.0
H1148 H 0.92204 0.15228 0.92943 0.0
H1149 H 0.90967 0.14788 0.93954 0.0
H1150 H 0.92591 0.12614 0.95 0.0
H1151 H 0.93835 0.13056 0.93985 0.0
H1152 H 0.97661 0.13878 0.90886 0.0
H1153 H 0.96116 0.14425 0.9119 0.0
H1154 H 0.98112 0.16139 0.89115 0.0
H1155 H 0.96578 0.16683 0.89415 0.0
H1156 H 0.9252 0.18854 0.89048 0.0
H1157 H 0.90083 0.18568 0.90611 0.0
H1158 H 0.90782 0.17354 0.91487 0.0
H1159 H 0.93226 0.17626 0.8993 0.0
C1160 C 0.61458 0.18143 0.68385 0.0
C1161 C 0.60979 0.17325 0.68369 0.0
C1162 C 0.61966 0.16708 0.69525 0.0
C1163 C 0.61231 0.16614 0.68936 0.0
C1164 C 0.62441 0.17528 0.69547 0.0
C1165 C 0.62188 0.18242 0.68979 0.0
U1166 U 0.59971 0.18958 0.66497 0.0
O1167 O 0.5926 0.20241 0.66255 0.0
O1168 O 0.60252 0.19747 0.65273 0.0
C1169 C 0.59699 0.20402 0.65502 0.0
C1170 C 0.612 0.18881 0.6777 0.0
C1171 C 0.6003 0.2133 0.65369 0.0
C1172 C 0.61152 0.22514 0.65568 0.0
C1173 C 0.60849 0.21632 0.6574 0.0
C1174 C 0.5982 0.22795 0.64664 0.0
C1175 C 0.60639 0.23099 0.65026 0.0
C1176 C 0.59518 0.21919 0.64835 0.0
C1177 C 0.58262 0.17141 0.65656 0.0
C1178 C 0.56708 0.17154 0.65119 0.0
C1179 C 0.5767 0.15871 0.64803 0.0
C1180 C 0.58382 0.16292 0.65254 0.0
C1181 C 0.56824 0.16291 0.64747 0.0
C1182 C 0.57423 0.17578 0.65572 0.0
C1183 C 0.58996 0.17502 0.66227 0.0
O1184 O 0.61379 0.18733 0.66914 0.0
O1185 O 0.60388 0.19213 0.679 0.0
O1186 O 0.58782 0.1813 0.66816 0.0
O1187 O 0.59776 0.17643 0.65831 0.0
H1188 H 0.60414 0.17236 0.67914 0.0
H1189 H 0.60857 0.15987 0.68909 0.0
H1190 H 0.6301 0.17612 0.69998 0.0
H1191 H 0.62566 0.18867 0.68999 0.0
H1192 H 0.61787 0.22737 0.65853 0.0
H1193 H 0.61254 0.21187 0.66153 0.0
H1194 H 0.59416 0.23237 0.64245 0.0
H1195 H 0.58886 0.21698 0.64542 0.0
H1196 H 0.56059 0.17487 0.65081 0.0
H1197 H 0.5777 0.15205 0.6452 0.0
H1198 H 0.59019 0.1594 0.65316 0.0
H1199 H 0.57311 0.18232 0.65876 0.0
C1200 C 0.57493 0.86504 0.43376 0.0
C1201 C 0.58309 0.86023 0.43361 0.0
C1202 C 0.58924 0.86995 0.44529 0.0
C1203 C 0.59018 0.86265 0.43933 0.0
C1204 C 0.58106 0.87473 0.44551 0.0
C1205 C 0.57394 0.87229 0.43977 0.0
U1206 U 0.56695 0.85043 0.41466 0.0
O1207 O 0.55415 0.84332 0.41204 0.0
O1208 O 0.55914 0.85338 0.40238 0.0
C1209 C 0.55258 0.84781 0.40456 0.0
C1210 C 0.56759 0.86256 0.42753 0.0
C1211 C 0.54331 0.85116 0.40326 0.0
C1212 C 0.53137 0.86218 0.40571 0.0
C1213 C 0.5402 0.85915 0.40732 0.0
C1214 C 0.5287 0.84927 0.39604 0.0
C1215 C 0.52557 0.85724 0.40004 0.0
C1216 C 0.53749 0.84625 0.39764 0.0
C1217 C 0.58522 0.83348 0.40623 0.0
C1218 C 0.58494 0.81811 0.40041 0.0
C1219 C 0.5981 0.8275 0.39802 0.0
C1220 C 0.59389 0.83458 0.40258 0.0
C1221 C 0.59374 0.81917 0.39705 0.0
C1222 C 0.58069 0.82522 0.40498 0.0
C1223 C 0.58155 0.84074 0.41198 0.0
O1224 O 0.56914 0.86446 0.41901 0.0
O1225 O 0.56425 0.85443 0.42871 0.0
O1226 O 0.57521 0.83853 0.41778 0.0
O1227 O 0.58016 0.84858 0.40808 0.0
H1228 H 0.58399 0.85462 0.429 0.0
H1229 H 0.59644 0.85889 0.43906 0.0
H1230 H 0.58023 0.88038 0.45007 0.0
H1231 H 0.56771 0.87609 0.43997 0.0
H1232 H 0.52906 0.86836 0.40885 0.0
H1233 H 0.5446 0.86303 0.41167 0.0
H1234 H 0.52433 0.84538 0.39166 0.0
H1235 H 0.53977 0.84009 0.39445 0.0
H1236 H 0.58148 0.81171 0.39971 0.0
H1237 H 0.60489 0.82843 0.39547 0.0
H1238 H 0.59752 0.84086 0.4035 0.0
H1239 H 0.57401 0.82418 0.40773 0.0
C1240 C 0.89118 0.82526 0.18346 0.0
C1241 C 0.8961 0.83336 0.1835 0.0
C1242 C 0.88616 0.83953 0.19498 0.0
C1243 C 0.89362 0.84043 0.18922 0.0
C1244 C 0.88127 0.8314 0.19502 0.0
C1245 C 0.88377 0.82431 0.18927 0.0
U1246 U 0.90638 0.81732 0.16483 0.0
O1247 O 0.91337 0.80446 0.16226 0.0
O1248 O 0.90381 0.8098 0.15229 0.0
C1249 C 0.90916 0.80311 0.15457 0.0
C1250 C 0.89374 0.81795 0.17722 0.0
C1251 C 0.90566 0.79393 0.15301 0.0
C1252 C 0.89469 0.78195 0.15552 0.0
C1253 C 0.8978 0.79073 0.15725 0.0
C1254 C 0.90727 0.77952 0.14535 0.0
C1255 C 0.89943 0.77628 0.14956 0.0
C1256 C 0.91035 0.78826 0.14707 0.0
C1257 C 0.9239 0.83558 0.15776 0.0
C1258 C 0.93538 0.83454 0.14606 0.0
C1259 C 0.93371 0.84833 0.1547 0.0
C1260 C 0.92668 0.84442 0.15959 0.0
C1261 C 0.93808 0.84345 0.14788 0.0
C1262 C 0.92829 0.83062 0.15098 0.0
C1263 C 0.91638 0.83185 0.16303 0.0
O1264 O 0.89222 0.81967 0.16865 0.0
O1265 O 0.90175 0.81442 0.17865 0.0
O1266 O 0.91833 0.82527 0.16862 0.0
O1267 O 0.90875 0.83061 0.15868 0.0
H1268 H 0.90184 0.83422 0.17905 0.0
H1269 H 0.89746 0.84664 0.1891 0.0
H1270 H 0.8755 0.8306 0.19943 0.0
H1271 H 0.87989 0.81812 0.18932 0.0
H1272 H 0.88863 0.77956 0.15882 0.0
H1273 H 0.89409 0.79502 0.16186 0.0
H1274 H 0.91101 0.77525 0.14074 0.0
H1275 H 0.91642 0.7906 0.14374 0.0
H1276 H 0.9387 0.83069 0.14082 0.0
H1277 H 0.93571 0.85519 0.1562 0.0
H1278 H 0.92337 0.84834 0.16481 0.0
H1279 H 0.92623 0.82377 0.14949 0.0
C1280 C 0.5728 0.93069 0.86537 0.0
C1281 C 0.57278 0.9226 0.86042 0.0
C1282 C 0.56117 0.91646 0.87023 0.0
C1283 C 0.567 0.91555 0.86283 0.0
C1284 C 0.56109 0.92458 0.87512 0.0
C1285 C 0.56689 0.93165 0.8727 0.0
U1286 U 0.59183 0.9387 0.85063 0.0
O1287 O 0.59472 0.95165 0.84399 0.0
O1288 O 0.6044 0.94606 0.85373 0.0
C1289 C 0.60221 0.95295 0.84858 0.0
C1290 C 0.57915 0.93795 0.86297 0.0
C1291 C 0.60371 0.96207 0.85242 0.0
C1292 C 0.59863 0.97736 0.85571 0.0
C1293 C 0.59674 0.96849 0.85303 0.0
C1294 C 0.61439 0.97347 0.85752 0.0
C1295 C 0.6075 0.97995 0.85783 0.0
C1296 C 0.61251 0.96463 0.85482 0.0
C1297 C 0.59919 0.92061 0.83299 0.0
C1298 C 0.61091 0.92169 0.82154 0.0
C1299 C 0.60245 0.90781 0.82331 0.0
C1300 C 0.59749 0.91171 0.83029 0.0
C1301 C 0.60921 0.91274 0.81891 0.0
C1302 C 0.60592 0.92562 0.82858 0.0
C1303 C 0.5938 0.92433 0.84043 0.0
O1304 O 0.58767 0.93613 0.86465 0.0
O1305 O 0.57791 0.94157 0.85498 0.0
O1306 O 0.58833 0.93101 0.83843 0.0
O1307 O 0.59796 0.92541 0.84818 0.0
H1308 H 0.5773 0.92173 0.85475 0.0
H1309 H 0.56715 0.90934 0.85899 0.0
H1310 H 0.55662 0.92539 0.88084 0.0
H1311 H 0.56682 0.93783 0.8766 0.0
H1312 H 0.59322 0.98227 0.85589 0.0
H1313 H 0.58988 0.96673 0.85122 0.0
H1314 H 0.62127 0.97534 0.85911 0.0
H1315 H 0.61801 0.95983 0.85436 0.0
H1316 H 0.6161 0.92559 0.81819 0.0
H1317 H 0.60104 0.90091 0.82137 0.0
H1318 H 0.59231 0.90776 0.83361 0.0
H1319 H 0.6073 0.9325 0.83058 0.0
C1320 C 0.82543 0.82347 0.61517 0.0
C1321 C 0.83354 0.82334 0.61027 0.0
C1322 C 0.83963 0.81192 0.62032 0.0
C1323 C 0.84057 0.8176 0.61282 0.0
C1324 C 0.83149 0.81197 0.6252 0.0
C1325 C 0.82443 0.81773 0.62263 0.0
U1326 U 0.81757 0.84205 0.59987 0.0
O1327 O 0.80471 0.8446 0.59285 0.0
O1328 O 0.81004 0.8546 0.60239 0.0
C1329 C 0.80334 0.85228 0.59705 0.0
C1330 C 0.81815 0.82971 0.61254 0.0
C1331 C 0.79415 0.8538 0.60058 0.0
C1332 C 0.78233 0.85147 0.61175 0.0
C1333 C 0.7911 0.84975 0.60859 0.0
C1334 C 0.77963 0.86124 0.59893 0.0
C1335 C 0.77654 0.85723 0.60693 0.0
C1336 C 0.78835 0.85953 0.59579 0.0
C1337 C 0.83592 0.84908 0.58239 0.0
C1338 C 0.83506 0.86086 0.57099 0.0
C1339 C 0.84872 0.85202 0.57261 0.0
C1340 C 0.84474 0.84714 0.5796 0.0
C1341 C 0.84395 0.85894 0.56828 0.0
C1342 C 0.83106 0.85595 0.57804 0.0
C1343 C 0.83214 0.84384 0.58991 0.0
O1344 O 0.81988 0.83828 0.61404 0.0
O1345 O 0.81466 0.82825 0.60452 0.0
O1346 O 0.82556 0.83825 0.58794 0.0
O1347 O 0.83087 0.84821 0.59752 0.0
H1348 H 0.83444 0.82773 0.60449 0.0
H1349 H 0.8468 0.81765 0.60898 0.0
H1350 H 0.83065 0.80762 0.631 0.0
H1351 H 0.81823 0.81775 0.6265 0.0
H1352 H 0.78006 0.84832 0.61794 0.0
H1353 H 0.79549 0.8453 0.61238 0.0
H1354 H 0.77527 0.8657 0.59512 0.0
H1355 H 0.79059 0.86272 0.5896 0.0
H1356 H 0.83128 0.86617 0.5677 0.0
H1357 H 0.85557 0.85044 0.5706 0.0
H1358 H 0.84859 0.84185 0.58287 0.0
H1359 H 0.82423 0.85753 0.58012 0.0
C1360 C 0.93372 0.07556 0.36479 0.0
C1361 C 0.93368 0.08371 0.35997 0.0
C1362 C 0.9454 0.08972 0.36974 0.0
C1363 C 0.93948 0.09073 0.36242 0.0
C1364 C 0.94553 0.08152 0.3745 0.0
C1365 C 0.93971 0.07449 0.37204 0.0
U1366 U 0.91475 0.06759 0.34992 0.0
O1367 O 0.91188 0.05464 0.34329 0.0
O1368 O 0.90215 0.06026 0.35295 0.0
C1369 C 0.90437 0.05336 0.34784 0.0
C1370 C 0.92735 0.06832 0.36235 0.0
C1371 C 0.90285 0.04426 0.35171 0.0
C1372 C 0.90797 0.02902 0.35522 0.0
C1373 C 0.90985 0.03788 0.35249 0.0
C1374 C 0.89216 0.03283 0.35676 0.0
C1375 C 0.89909 0.0264 0.35723 0.0
C1376 C 0.89403 0.04166 0.354 0.0
C1377 C 0.90764 0.08573 0.33219 0.0
C1378 C 0.89608 0.08473 0.32057 0.0
C1379 C 0.90459 0.09856 0.32249 0.0
C1380 C 0.90942 0.09462 0.32954 0.0
C1381 C 0.89787 0.09368 0.31798 0.0
C1382 C 0.90094 0.08077 0.32767 0.0
C1383 C 0.91292 0.08196 0.33969 0.0
O1384 O 0.91883 0.07017 0.36396 0.0
O1385 O 0.92863 0.06469 0.35437 0.0
O1386 O 0.91838 0.07525 0.33774 0.0
O1387 O 0.90867 0.0809 0.34739 0.0
H1388 H 0.9291 0.08467 0.35435 0.0
H1389 H 0.93929 0.097 0.35867 0.0
H1390 H 0.95006 0.08063 0.38016 0.0
H1391 H 0.93982 0.06825 0.37584 0.0
H1392 H 0.91341 0.02414 0.35553 0.0
H1393 H 0.91673 0.03967 0.35077 0.0
H1394 H 0.88527 0.03093 0.35826 0.0
H1395 H 0.88851 0.04642 0.35341 0.0
H1396 H 0.89092 0.08087 0.31713 0.0
H1397 H 0.90607 0.10546 0.32058 0.0
H1398 H 0.91457 0.09854 0.33294 0.0
H1399 H 0.89949 0.07388 0.32964 0.0
C1400 C 0.68163 0.18284 0.11447 0.0
C1401 C 0.67262 0.18053 0.11266 0.0
C1402 C 0.66749 0.19463 0.11927 0.0
C1403 C 0.66561 0.18635 0.11508 0.0
C1404 C 0.6765 0.197 0.12102 0.0
C1405 C 0.68353 0.19112 0.11865 0.0
U1406 U 0.68962 0.16405 0.09941 0.0
O1407 O 0.70237 0.16164 0.09214 0.0
O1408 O 0.69749 0.15175 0.10202 0.0
C1409 C 0.70401 0.15407 0.09647 0.0
C1410 C 0.68902 0.17673 0.11174 0.0
C1411 C 0.71331 0.15276 0.09977 0.0
C1412 C 0.72518 0.15486 0.11093 0.0
C1413 C 0.71636 0.15655 0.10791 0.0
C1414 C 0.72796 0.14567 0.09771 0.0
C1415 C 0.73103 0.14939 0.10585 0.0
C1416 C 0.71918 0.14735 0.0947 0.0
C1417 C 0.67101 0.15614 0.08258 0.0
C1418 C 0.67243 0.14591 0.06981 0.0
C1419 C 0.65775 0.1518 0.07401 0.0
C1420 C 0.66169 0.15659 0.08109 0.0
C1421 C 0.66308 0.14647 0.0683 0.0
C1422 C 0.67639 0.15074 0.07694 0.0
C1423 C 0.67484 0.16163 0.0899 0.0
O1424 O 0.68768 0.16814 0.11354 0.0
O1425 O 0.69221 0.17809 0.10358 0.0
O1426 O 0.68122 0.16735 0.08763 0.0
O1427 O 0.67641 0.15749 0.09757 0.0
H1428 H 0.67099 0.17422 0.10935 0.0
H1429 H 0.6587 0.18444 0.11364 0.0
H1430 H 0.67807 0.20338 0.12421 0.0
H1431 H 0.69044 0.19305 0.12003 0.0
H1432 H 0.72743 0.15778 0.11724 0.0
H1433 H 0.71191 0.16073 0.11192 0.0
H1434 H 0.73236 0.14144 0.0937 0.0
H1435 H 0.71695 0.14436 0.08841 0.0
H1436 H 0.67662 0.14182 0.06545 0.0
H1437 H 0.65054 0.15231 0.07293 0.0
H1438 H 0.65745 0.16073 0.08536 0.0
H1439 H 0.68361 0.15033 0.07799 0.0
C1440 C 0.57355 0.07574 0.64082 0.0
C1441 C 0.57541 0.08471 0.64325 0.0
C1442 C 0.56154 0.0897 0.63608 0.0
C1443 C 0.56947 0.09164 0.64087 0.0
C1444 C 0.55961 0.08073 0.63371 0.0
C1445 C 0.56561 0.07379 0.63605 0.0
U1446 U 0.59234 0.06776 0.65592 0.0
O1447 O 0.595 0.05488 0.66278 0.0
O1448 O 0.60488 0.06024 0.65311 0.0
C1449 C 0.60254 0.05345 0.65832 0.0
C1450 C 0.57981 0.06846 0.64344 0.0
C1451 C 0.604 0.04427 0.65461 0.0
C1452 C 0.59878 0.02904 0.65128 0.0
C1453 C 0.59696 0.03795 0.65386 0.0
C1454 C 0.61464 0.03268 0.64985 0.0
C1455 C 0.60766 0.02631 0.64939 0.0
C1456 C 0.61283 0.04157 0.65245 0.0
C1457 C 0.59963 0.08603 0.67342 0.0
C1458 C 0.61121 0.08499 0.685 0.0
C1459 C 0.60271 0.09883 0.68314 0.0
C1460 C 0.59785 0.09491 0.67609 0.0
C1461 C 0.60943 0.09393 0.68762 0.0
C1462 C 0.60632 0.08105 0.67791 0.0
C1463 C 0.59431 0.08227 0.66593 0.0
O1464 O 0.58837 0.07008 0.64181 0.0
O1465 O 0.57841 0.065 0.65148 0.0
O1466 O 0.58874 0.07568 0.66795 0.0
O1467 O 0.59858 0.08103 0.65827 0.0
H1468 H 0.58146 0.08636 0.64701 0.0
H1469 H 0.57103 0.09851 0.6428 0.0
H1470 H 0.5535 0.07913 0.63005 0.0
H1471 H 0.56403 0.06691 0.63416 0.0
H1472 H 0.59331 0.02421 0.65098 0.0
H1473 H 0.59008 0.03983 0.65549 0.0
H1474 H 0.62153 0.0307 0.64843 0.0
H1475 H 0.61838 0.04629 0.65303 0.0
H1476 H 0.61637 0.08111 0.68842 0.0
H1477 H 0.60124 0.10573 0.68508 0.0
H1478 H 0.5927 0.09884 0.67271 0.0
H1479 H 0.60776 0.07416 0.67592 0.0
C1480 C 0.68181 0.82304 0.39164 0.0
C1481 C 0.67365 0.82318 0.39647 0.0
C1482 C 0.6675 0.81152 0.38672 0.0
C1483 C 0.66656 0.81746 0.39403 0.0
C1484 C 0.67568 0.81131 0.38193 0.0
C1485 C 0.6828 0.81705 0.38438 0.0
U1486 U 0.6898 0.84212 0.40628 0.0
O1487 O 0.70261 0.84475 0.41335 0.0
O1488 O 0.69757 0.85442 0.40333 0.0
C1489 C 0.70415 0.85224 0.40886 0.0
C1490 C 0.68914 0.82928 0.39412 0.0
C1491 C 0.71341 0.85355 0.40547 0.0
C1492 C 0.72531 0.85107 0.39441 0.0
C1493 C 0.71649 0.84945 0.39749 0.0
C1494 C 0.72799 0.86084 0.40724 0.0
C1495 C 0.73111 0.85679 0.39928 0.0
C1496 C 0.71923 0.85923 0.41031 0.0
C1497 C 0.67156 0.85048 0.42332 0.0
C1498 C 0.67178 0.85615 0.43875 0.0
C1499 C 0.6587 0.85874 0.42928 0.0
C1500 C 0.66293 0.85421 0.42219 0.0
C1501 C 0.66302 0.85959 0.43765 0.0
C1502 C 0.67603 0.85161 0.43162 0.0
C1503 C 0.67523 0.84475 0.41603 0.0
O1504 O 0.68758 0.8378 0.39225 0.0
O1505 O 0.6925 0.82809 0.40224 0.0
O1506 O 0.68158 0.83896 0.41821 0.0
O1507 O 0.67658 0.84866 0.40819 0.0
H1508 H 0.67276 0.82778 0.40208 0.0
H1509 H 0.6603 0.81772 0.3978 0.0
H1510 H 0.67651 0.80676 0.37628 0.0
H1511 H 0.68903 0.81686 0.38057 0.0
H1512 H 0.7276 0.84789 0.38825 0.0
H1513 H 0.71209 0.84506 0.39366 0.0
H1514 H 0.73236 0.86526 0.41108 0.0
H1515 H 0.71696 0.86246 0.41646 0.0
H1516 H 0.6752 0.85676 0.44518 0.0
H1517 H 0.65194 0.86135 0.42833 0.0
H1518 H 0.65933 0.85337 0.41588 0.0
H1519 H 0.68269 0.84879 0.43268 0.0
C1520 C 0.93408 0.93057 0.14125 0.0
C1521 C 0.93406 0.92246 0.14614 0.0
C1522 C 0.9457 0.91635 0.13633 0.0
C1523 C 0.93983 0.91541 0.1437 0.0
C1524 C 0.94581 0.9245 0.13149 0.0
C1525 C 0.94001 0.93157 0.13394 0.0
U1526 U 0.91506 0.93854 0.15602 0.0
O1527 O 0.91219 0.95144 0.16275 0.0
O1528 O 0.90251 0.94594 0.15297 0.0
C1529 C 0.90471 0.95278 0.15817 0.0
C1530 C 0.92774 0.93784 0.14368 0.0
C1531 C 0.90323 0.96192 0.1544 0.0
C1532 C 0.90841 0.97716 0.151 0.0
C1533 C 0.91026 0.96826 0.15363 0.0
C1534 C 0.89257 0.97345 0.14954 0.0
C1535 C 0.89953 0.97985 0.14908 0.0
C1536 C 0.8944 0.96458 0.1522 0.0
C1537 C 0.90766 0.92036 0.17354 0.0
C1538 C 0.89625 0.92157 0.18529 0.0
C1539 C 0.90416 0.90744 0.18298 0.0
C1540 C 0.90909 0.91134 0.17597 0.0
C1541 C 0.8977 0.9125 0.18767 0.0
C1542 C 0.90121 0.92549 0.17823 0.0
C1543 C 0.91306 0.9241 0.16612 0.0
O1544 O 0.91922 0.93605 0.14198 0.0
O1545 O 0.92899 0.94141 0.1517 0.0
O1546 O 0.91855 0.93075 0.16816 0.0
O1547 O 0.9089 0.92523 0.15838 0.0
H1548 H 0.92952 0.92156 0.1518 0.0
H1549 H 0.93966 0.90917 0.14751 0.0
H1550 H 0.9503 0.92533 0.12579 0.0
H1551 H 0.94011 0.93778 0.13008 0.0
H1552 H 0.91387 0.98201 0.15069 0.0
H1553 H 0.91713 0.96642 0.15528 0.0
H1554 H 0.88567 0.9754 0.14811 0.0
H1555 H 0.88886 0.95985 0.15278 0.0
H1556 H 0.89129 0.92556 0.18887 0.0
H1557 H 0.90537 0.90045 0.18473 0.0
H1558 H 0.91405 0.90729 0.17244 0.0
H1559 H 0.90003 0.93247 0.17644 0.0
C1560 C 0.82487 0.18331 0.89196 0.0
C1561 C 0.833 0.18334 0.89684 0.0
C1562 C 0.83915 0.19481 0.88687 0.0
C1563 C 0.84007 0.18904 0.89432 0.0
C1564 C 0.83099 0.19486 0.88203 0.0
C1565 C 0.8239 0.18913 0.88456 0.0
U1566 U 0.81695 0.16464 0.90712 0.0
O1567 O 0.80413 0.1621 0.91421 0.0
O1568 O 0.80934 0.15216 0.90455 0.0
C1569 C 0.80269 0.15446 0.90995 0.0
C1570 C 0.81755 0.17709 0.89455 0.0
C1571 C 0.79346 0.15297 0.90652 0.0
C1572 C 0.78171 0.15485 0.89519 0.0
C1573 C 0.79049 0.15663 0.8983 0.0
C1574 C 0.77883 0.14581 0.90851 0.0
C1575 C 0.77583 0.14941 0.90029 0.0
C1576 C 0.78757 0.14758 0.91159 0.0
C1577 C 0.8354 0.15741 0.92443 0.0
C1578 C 0.8347 0.14538 0.93557 0.0
C1579 C 0.84817 0.15456 0.93427 0.0
C1580 C 0.84414 0.1595 0.92734 0.0
C1581 C 0.84352 0.14744 0.93839 0.0
C1582 C 0.83065 0.15034 0.92859 0.0
C1583 C 0.83158 0.16271 0.91697 0.0
O1584 O 0.81921 0.16853 0.89297 0.0
O1585 O 0.8141 0.1785 0.9026 0.0
O1586 O 0.82504 0.16832 0.91903 0.0
O1587 O 0.83023 0.15839 0.90934 0.0
H1588 H 0.83388 0.17889 0.90257 0.0
H1589 H 0.8463 0.18891 0.89813 0.0
H1590 H 0.83017 0.19926 0.87626 0.0
H1591 H 0.81768 0.18919 0.88071 0.0
H1592 H 0.7795 0.15768 0.88883 0.0
H1593 H 0.79495 0.1608 0.89429 0.0
H1594 H 0.7744 0.14161 0.91252 0.0
H1595 H 0.78974 0.14469 0.91794 0.0
H1596 H 0.83102 0.13991 0.93871 0.0
H1597 H 0.85497 0.15626 0.93637 0.0
H1598 H 0.8479 0.16494 0.92421 0.0
H1599 H 0.82389 0.14865 0.92641 0.0
C1600 C 0.86544 0.57303 0.93104 0.0
C1601 C 0.86047 0.57293 0.92298 0.0
C1602 C 0.87042 0.56145 0.91681 0.0
C1603 C 0.86293 0.56718 0.91592 0.0
C1604 C 0.87535 0.56148 0.9249 0.0
C1605 C 0.87288 0.56725 0.93198 0.0
U1606 U 0.85031 0.59172 0.93897 0.0
O1607 O 0.84339 0.59437 0.95185 0.0
O1608 O 0.85295 0.60429 0.94643 0.0
C1609 C 0.84763 0.60205 0.95316 0.0
C1610 C 0.86292 0.57931 0.93833 0.0
C1611 C 0.85118 0.60363 0.96232 0.0
C1612 C 0.86181 0.60063 0.97448 0.0
C1613 C 0.85868 0.59892 0.9657 0.0
C1614 C 0.84998 0.61173 0.97653 0.0
C1615 C 0.85744 0.60703 0.97997 0.0
C1616 C 0.84688 0.61004 0.96779 0.0
C1617 C 0.83272 0.59877 0.92075 0.0
C1618 C 0.82135 0.61056 0.92174 0.0
C1619 C 0.82287 0.60178 0.90803 0.0
C1620 C 0.82988 0.59687 0.91194 0.0
C1621 C 0.81858 0.60868 0.91286 0.0
C1622 C 0.82841 0.60563 0.92567 0.0
C1623 C 0.84025 0.5935 0.92447 0.0
O1624 O 0.86445 0.58786 0.93657 0.0
O1625 O 0.85492 0.57791 0.9419 0.0
O1626 O 0.8383 0.58794 0.93109 0.0
O1627 O 0.84789 0.59783 0.92566 0.0
H1628 H 0.85472 0.57735 0.92212 0.0
H1629 H 0.85905 0.56725 0.90973 0.0
H1630 H 0.88114 0.55709 0.9257 0.0
H1631 H 0.8768 0.56725 0.93815 0.0
H1632 H 0.86758 0.59694 0.97702 0.0
H1633 H 0.86209 0.59395 0.96157 0.0
H1634 H 0.84653 0.61668 0.98064 0.0
H1635 H 0.84109 0.61373 0.96529 0.0
H1636 H 0.81808 0.61586 0.92557 0.0
H1637 H 0.82082 0.60023 0.90118 0.0
H1638 H 0.83313 0.5916 0.90805 0.0
H1639 H 0.83053 0.60717 0.93249 0.0
C1640 C 0.36515 0.93276 0.0751 0.0
C1641 C 0.3603 0.93278 0.08324 0.0
C1642 C 0.37032 0.94422 0.08936 0.0
C1643 C 0.36286 0.93847 0.09031 0.0
C1644 C 0.37514 0.94427 0.0812 0.0
C1645 C 0.37257 0.93856 0.07411 0.0
U1646 U 0.35011 0.91398 0.06701 0.0
O1647 O 0.34309 0.91155 0.05414 0.0
O1648 O 0.35287 0.90166 0.05921 0.0
C1649 C 0.34744 0.90398 0.05259 0.0
C1650 C 0.36254 0.92658 0.06777 0.0
C1651 C 0.35089 0.90265 0.04336 0.0
C1652 C 0.36199 0.90517 0.03151 0.0
C1653 C 0.35886 0.90678 0.04031 0.0
C1654 C 0.3492 0.89536 0.02877 0.0
C1655 C 0.35716 0.89943 0.02569 0.0
C1656 C 0.34609 0.89696 0.03753 0.0
C1657 C 0.33278 0.90585 0.08509 0.0
C1658 C 0.32678 0.89723 0.0977 0.0
C1659 C 0.3171 0.90087 0.08505 0.0
C1660 C 0.32431 0.90529 0.08081 0.0
C1661 C 0.31827 0.89698 0.0936 0.0
C1662 C 0.33397 0.90164 0.09349 0.0
C1663 C 0.3402 0.91146 0.0815 0.0
O1664 O 0.36422 0.91801 0.06934 0.0
O1665 O 0.35445 0.92794 0.06439 0.0
O1666 O 0.33819 0.91734 0.07516 0.0
O1667 O 0.34798 0.90742 0.08019 0.0
H1668 H 0.35457 0.92834 0.08414 0.0
H1669 H 0.35907 0.93835 0.09656 0.0
H1670 H 0.38092 0.94867 0.08036 0.0
H1671 H 0.37639 0.93863 0.06788 0.0
H1672 H 0.36815 0.90836 0.02924 0.0
H1673 H 0.36266 0.91118 0.04473 0.0
H1674 H 0.34539 0.89092 0.02439 0.0
H1675 H 0.33993 0.89371 0.03976 0.0
H1676 H 0.32779 0.89427 0.1043 0.0
H1677 H 0.31056 0.90073 0.0818 0.0
H1678 H 0.32319 0.90849 0.07434 0.0
H1679 H 0.3404 0.90203 0.09695 0.0
C1680 C 0.82284 0.61508 0.82567 0.0
C1681 C 0.82277 0.61013 0.83375 0.0
C1682 C 0.81122 0.62002 0.83988 0.0
C1683 C 0.81699 0.61258 0.84079 0.0
C1684 C 0.8112 0.62492 0.83176 0.0
C1685 C 0.817 0.62246 0.8247 0.0
U1686 U 0.84181 0.60024 0.81768 0.0
O1687 O 0.84468 0.59358 0.80474 0.0
O1688 O 0.8544 0.60326 0.81034 0.0
C1689 C 0.85218 0.59814 0.80344 0.0
C1690 C 0.8292 0.61265 0.81842 0.0
C1691 C 0.85371 0.60197 0.79433 0.0
C1692 C 0.84869 0.6052 0.77899 0.0
C1693 C 0.84677 0.60251 0.78786 0.0
C1694 C 0.86441 0.60715 0.78297 0.0
C1695 C 0.85755 0.60739 0.77645 0.0
C1696 C 0.86251 0.60444 0.79181 0.0
C1697 C 0.84902 0.58256 0.83582 0.0
C1698 C 0.8606 0.57097 0.83476 0.0
C1699 C 0.85224 0.57295 0.84868 0.0
C1700 C 0.84734 0.57995 0.84475 0.0
C1701 C 0.85892 0.56843 0.84374 0.0
C1702 C 0.85567 0.57804 0.83081 0.0
C1703 C 0.84369 0.59003 0.83207 0.0
O1704 O 0.83772 0.61427 0.82025 0.0
O1705 O 0.82792 0.60466 0.81479 0.0
O1706 O 0.83822 0.58806 0.82538 0.0
O1707 O 0.84791 0.59775 0.83099 0.0
H1708 H 0.82725 0.60442 0.83463 0.0
H1709 H 0.8171 0.60873 0.84701 0.0
H1710 H 0.80678 0.63068 0.83095 0.0
H1711 H 0.81698 0.62636 0.81852 0.0
H1712 H 0.84331 0.60533 0.77405 0.0
H1713 H 0.83992 0.60065 0.78958 0.0
H1714 H 0.87129 0.6088 0.78113 0.0
H1715 H 0.86798 0.60403 0.79664 0.0
H1716 H 0.86573 0.56753 0.83085 0.0
H1717 H 0.85084 0.57107 0.8556 0.0
H1718 H 0.84222 0.58337 0.84871 0.0
H1719 H 0.85704 0.57997 0.8239 0.0
C1720 C 0.14104 0.07324 0.57606 0.0
C1721 C 0.13736 0.06472 0.57416 0.0
C1722 C 0.13658 0.06133 0.59021 0.0
C1723 C 0.13517 0.05878 0.58119 0.0
C1724 C 0.14027 0.06983 0.5921 0.0
C1725 C 0.14253 0.07572 0.58509 0.0
U1726 U 0.1558 0.09216 0.56772 0.0
O1727 O 0.16256 0.09473 0.55475 0.0
O1728 O 0.15282 0.10454 0.56006 0.0
C1729 C 0.15817 0.10232 0.55336 0.0
C1730 C 0.14356 0.07941 0.56866 0.0
C1731 C 0.15465 0.10384 0.54418 0.0
C1732 C 0.14655 0.09901 0.53072 0.0
C1733 C 0.14942 0.09739 0.53961 0.0
C1734 C 0.15399 0.11356 0.53099 0.0
C1735 C 0.14891 0.10709 0.52632 0.0
C1736 C 0.15682 0.11195 0.53983 0.0
C1737 C 0.17325 0.10046 0.58559 0.0
C1738 C 0.18883 0.10571 0.58527 0.0
C1739 C 0.17936 0.10903 0.59817 0.0
C1740 C 0.17217 0.10454 0.59406 0.0
C1741 C 0.18778 0.10949 0.5939 0.0
C1742 C 0.18161 0.10121 0.58113 0.0
C1743 C 0.16586 0.09475 0.58209 0.0
O1744 O 0.14177 0.08798 0.57008 0.0
O1745 O 0.15163 0.0781 0.56522 0.0
O1746 O 0.16787 0.08893 0.5757 0.0
O1747 O 0.158 0.09868 0.5809 0.0
H1748 H 0.13623 0.06265 0.56724 0.0
H1749 H 0.13236 0.05222 0.57962 0.0
H1750 H 0.14147 0.07188 0.59902 0.0
H1751 H 0.14547 0.08221 0.58672 0.0
H1752 H 0.14262 0.09394 0.52723 0.0
H1753 H 0.14766 0.09109 0.54286 0.0
H1754 H 0.15586 0.11983 0.52773 0.0
H1755 H 0.16084 0.11702 0.54325 0.0
H1756 H 0.1953 0.10601 0.58189 0.0
H1757 H 0.17844 0.1119 0.60483 0.0
H1758 H 0.16582 0.104 0.59765 0.0
H1759 H 0.18265 0.09812 0.5746 0.0
C1760 C 0.18354 0.89063 0.8258 0.0
C1761 C 0.18149 0.89285 0.83479 0.0
C1762 C 0.19551 0.88604 0.83985 0.0
C1763 C 0.1874 0.89053 0.84175 0.0
C1764 C 0.19764 0.8839 0.83087 0.0
C1765 C 0.19167 0.88616 0.82388 0.0
U1766 U 0.16461 0.90549 0.81774 0.0
O1767 O 0.16187 0.9123 0.80485 0.0
O1768 O 0.1521 0.90254 0.81023 0.0
C1769 C 0.15437 0.90776 0.80343 0.0
C1770 C 0.17729 0.89316 0.81847 0.0
C1771 C 0.15291 0.90405 0.79426 0.0
C1772 C 0.15817 0.90057 0.77907 0.0
C1773 C 0.15998 0.90317 0.78798 0.0
C1774 C 0.14227 0.89937 0.78264 0.0
C1775 C 0.14927 0.89878 0.77631 0.0
C1776 C 0.14407 0.902 0.79153 0.0
C1777 C 0.15711 0.92289 0.836 0.0
C1778 C 0.14516 0.9341 0.83508 0.0
C1779 C 0.15405 0.93271 0.84874 0.0
C1780 C 0.15903 0.92576 0.8448 0.0
C1781 C 0.14707 0.9369 0.84394 0.0
C1782 C 0.15017 0.92709 0.83112 0.0
C1783 C 0.16252 0.91548 0.83224 0.0
O1784 O 0.16874 0.89143 0.82005 0.0
O1785 O 0.1786 0.90122 0.81501 0.0
O1786 O 0.16807 0.91756 0.82565 0.0
O1787 O 0.15835 0.90776 0.83101 0.0
H1788 H 0.1753 0.89639 0.83642 0.0
H1789 H 0.18569 0.89228 0.84864 0.0
H1790 H 0.20389 0.88046 0.82929 0.0
H1791 H 0.1934 0.88445 0.81699 0.0
H1792 H 0.16366 0.90017 0.77426 0.0
H1793 H 0.16687 0.90471 0.78989 0.0
H1794 H 0.13537 0.89805 0.78064 0.0
H1795 H 0.1385 0.90267 0.79622 0.0
H1796 H 0.1398 0.93729 0.83128 0.0
H1797 H 0.15562 0.9348 0.85556 0.0
H1798 H 0.16437 0.9226 0.84865 0.0
H1799 H 0.14862 0.92495 0.82431 0.0
C1800 C 0.64061 0.43257 0.43111 0.0
C1801 C 0.64551 0.43261 0.423 0.0
C1802 C 0.63555 0.44408 0.41685 0.0
C1803 C 0.643 0.43832 0.41593 0.0
C1804 C 0.63069 0.44412 0.425 0.0
C1805 C 0.6332 0.43838 0.43208 0.0
U1806 U 0.65591 0.41403 0.439 0.0
O1807 O 0.66294 0.41147 0.45183 0.0
O1808 O 0.65343 0.40146 0.44649 0.0
C1809 C 0.65876 0.40377 0.45319 0.0
C1810 C 0.6432 0.42634 0.43841 0.0
C1811 C 0.65524 0.40223 0.46236 0.0
C1812 C 0.64478 0.40543 0.47462 0.0
C1813 C 0.64785 0.40707 0.4658 0.0
C1814 C 0.65641 0.39411 0.47656 0.0
C1815 C 0.64907 0.39896 0.48006 0.0
C1816 C 0.65946 0.39574 0.4678 0.0
C1817 C 0.67345 0.40713 0.42067 0.0
C1818 C 0.6847 0.39521 0.42147 0.0
C1819 C 0.68349 0.40445 0.40802 0.0
C1820 C 0.67646 0.40929 0.41198 0.0
C1821 C 0.68763 0.39735 0.4127 0.0
C1822 C 0.67762 0.40008 0.42544 0.0
C1823 C 0.66589 0.41233 0.42443 0.0
O1824 O 0.64173 0.41777 0.43668 0.0
O1825 O 0.65121 0.42781 0.44194 0.0
O1826 O 0.66783 0.41792 0.43103 0.0
O1827 O 0.6583 0.40792 0.42568 0.0
H1828 H 0.65125 0.42816 0.42212 0.0
H1829 H 0.64683 0.4382 0.40971 0.0
H1830 H 0.62492 0.44853 0.42582 0.0
H1831 H 0.62935 0.43843 0.43829 0.0
H1832 H 0.6391 0.40923 0.47721 0.0
H1833 H 0.64451 0.41211 0.4617 0.0
H1834 H 0.6598 0.3891 0.48066 0.0
H1835 H 0.66516 0.39193 0.46525 0.0
H1836 H 0.68786 0.38976 0.42517 0.0
H1837 H 0.68567 0.40619 0.40127 0.0
H1838 H 0.67332 0.41471 0.40822 0.0
H1839 H 0.67537 0.39833 0.43217 0.0
C1840 C 0.82284 0.39075 0.68088 0.0
C1841 C 0.82277 0.39571 0.67281 0.0
C1842 C 0.81113 0.3859 0.66671 0.0
C1843 C 0.81695 0.39331 0.66578 0.0
C1844 C 0.81112 0.38099 0.67481 0.0
C1845 C 0.81696 0.38339 0.68186 0.0
U1846 U 0.84197 0.40541 0.68883 0.0
O1847 O 0.84488 0.4121 0.70175 0.0
O1848 O 0.85451 0.40228 0.69622 0.0
C1849 C 0.85234 0.40747 0.70308 0.0
C1850 C 0.82921 0.39314 0.68813 0.0
C1851 C 0.85382 0.40368 0.71222 0.0
C1852 C 0.84864 0.40029 0.72746 0.0
C1853 C 0.84679 0.40294 0.71857 0.0
C1854 C 0.86447 0.39877 0.72373 0.0
C1855 C 0.85752 0.39833 0.73014 0.0
C1856 C 0.86264 0.40144 0.71486 0.0
C1857 C 0.84946 0.42292 0.67067 0.0
C1858 C 0.86067 0.43485 0.67198 0.0
C1859 C 0.85318 0.43218 0.65769 0.0
C1860 C 0.84825 0.42517 0.66157 0.0
C1861 C 0.85943 0.43706 0.66284 0.0
C1862 C 0.85571 0.42779 0.67589 0.0
C1863 C 0.84402 0.41553 0.67441 0.0
O1864 O 0.83772 0.39141 0.68631 0.0
O1865 O 0.82802 0.40116 0.69172 0.0
O1866 O 0.83854 0.41759 0.68108 0.0
O1867 O 0.84813 0.40776 0.67552 0.0
H1868 H 0.82727 0.40139 0.67192 0.0
H1869 H 0.81705 0.39717 0.65958 0.0
H1870 H 0.80666 0.37525 0.67563 0.0
H1871 H 0.81693 0.37948 0.68803 0.0
H1872 H 0.84319 0.40001 0.73232 0.0
H1873 H 0.83992 0.40463 0.71674 0.0
H1874 H 0.87136 0.3973 0.72567 0.0
H1875 H 0.86817 0.40201 0.71012 0.0
H1876 H 0.86546 0.43858 0.67605 0.0
H1877 H 0.85213 0.4338 0.65064 0.0
H1878 H 0.84345 0.4215 0.65745 0.0
H1879 H 0.85671 0.42614 0.68294 0.0
C1880 C 0.68363 0.61543 0.18102 0.0
C1881 C 0.68375 0.61049 0.17293 0.0
C1882 C 0.69548 0.62027 0.16695 0.0
C1883 C 0.68963 0.61289 0.16596 0.0
C1884 C 0.69544 0.62517 0.17507 0.0
C1885 C 0.68953 0.62276 0.18206 0.0
U1886 U 0.66452 0.60067 0.1888 0.0
O1887 O 0.66154 0.59395 0.20167 0.0
O1888 O 0.6519 0.60372 0.19608 0.0
C1889 C 0.65405 0.59853 0.20295 0.0
C1890 C 0.6772 0.61302 0.18821 0.0
C1891 C 0.65249 0.6023 0.21208 0.0
C1892 C 0.65756 0.6057 0.22736 0.0
C1893 C 0.65947 0.60308 0.21847 0.0
C1894 C 0.64174 0.60712 0.22354 0.0
C1895 C 0.64865 0.6076 0.22999 0.0
C1896 C 0.64364 0.60448 0.21468 0.0
C1897 C 0.6573 0.58309 0.17063 0.0
C1898 C 0.64551 0.57171 0.17165 0.0
C1899 C 0.65415 0.57334 0.15786 0.0
C1900 C 0.6591 0.58031 0.16177 0.0
C1901 C 0.6473 0.56901 0.16274 0.0
C1902 C 0.65049 0.57875 0.17559 0.0
C1903 C 0.66268 0.59053 0.17437 0.0
O1904 O 0.66871 0.6147 0.18631 0.0
O1905 O 0.67841 0.60501 0.19182 0.0
O1906 O 0.66812 0.58852 0.18107 0.0
O1907 O 0.6585 0.59827 0.17544 0.0
H1908 H 0.67923 0.60482 0.172 0.0
H1909 H 0.68957 0.60904 0.15975 0.0
H1910 H 0.69991 0.63088 0.17594 0.0
H1911 H 0.68952 0.62666 0.18824 0.0
H1912 H 0.66298 0.60602 0.23225 0.0
H1913 H 0.66637 0.60145 0.21668 0.0
H1914 H 0.63482 0.60854 0.22545 0.0
H1915 H 0.63814 0.60388 0.20991 0.0
H1916 H 0.64025 0.56842 0.17551 0.0
H1917 H 0.65563 0.57133 0.15099 0.0
H1918 H 0.66434 0.58358 0.15786 0.0
H1919 H 0.64902 0.58081 0.18244 0.0
C1920 C 0.57574 0.64071 0.93259 0.0
C1921 C 0.58393 0.64548 0.93267 0.0
C1922 C 0.5898 0.63551 0.94428 0.0
C1923 C 0.5909 0.6429 0.93848 0.0
C1924 C 0.58157 0.63079 0.94429 0.0
C1925 C 0.57458 0.63337 0.93845 0.0
U1926 U 0.56809 0.65605 0.91393 0.0
O1927 O 0.56091 0.6535 0.90117 0.0
O1928 O 0.55522 0.66289 0.91111 0.0
C1929 C 0.5541 0.65875 0.90335 0.0
C1930 C 0.56855 0.64333 0.92624 0.0
C1931 C 0.545 0.6552 0.90147 0.0
C1932 C 0.53186 0.64612 0.90533 0.0
C1933 C 0.54061 0.64916 0.90731 0.0
C1934 C 0.53187 0.65508 0.89165 0.0
C1935 C 0.52743 0.6491 0.89748 0.0
C1936 C 0.54058 0.65809 0.89362 0.0
C1937 C 0.58627 0.67367 0.90708 0.0
C1938 C 0.58522 0.68494 0.89519 0.0
C1939 C 0.59896 0.68354 0.90395 0.0
C1940 C 0.59508 0.67657 0.90894 0.0
C1941 C 0.59409 0.68774 0.89702 0.0
C1942 C 0.58132 0.6779 0.90019 0.0
C1943 C 0.58259 0.66615 0.91238 0.0
O1944 O 0.56499 0.65133 0.92767 0.0
O1945 O 0.57043 0.64188 0.91769 0.0
O1946 O 0.58151 0.65849 0.90806 0.0
O1947 O 0.57589 0.66806 0.91786 0.0
H1948 H 0.58495 0.65115 0.92818 0.0
H1949 H 0.59719 0.64661 0.93838 0.0
H1950 H 0.58061 0.62507 0.94874 0.0
H1951 H 0.56831 0.62962 0.93847 0.0
H1952 H 0.52851 0.64152 0.90991 0.0
H1953 H 0.54393 0.64685 0.9134 0.0
H1954 H 0.52856 0.65745 0.88558 0.0
H1955 H 0.54385 0.66274 0.88903 0.0
H1956 H 0.58137 0.68813 0.88986 0.0
H1957 H 0.6058 0.68563 0.90546 0.0
H1958 H 0.59899 0.67338 0.91423 0.0
H1959 H 0.57451 0.67574 0.89868 0.0
C1960 C 0.61591 0.32517 0.18296 0.0
C1961 C 0.61131 0.33345 0.18269 0.0
C1962 C 0.62084 0.33931 0.19468 0.0
C1963 C 0.61375 0.34046 0.18851 0.0
C1964 C 0.6254 0.33101 0.19502 0.0
C1965 C 0.62295 0.32398 0.18918 0.0
U1966 U 0.60127 0.31727 0.16379 0.0
O1967 O 0.60425 0.30953 0.15148 0.0
O1968 O 0.59422 0.30446 0.16112 0.0
C1969 C 0.5987 0.30295 0.15362 0.0
C1970 C 0.61341 0.31789 0.17667 0.0
C1971 C 0.60206 0.2937 0.15224 0.0
C1972 C 0.61309 0.28174 0.1546 0.0
C1973 C 0.61005 0.29056 0.15628 0.0
C1974 C 0.60019 0.27916 0.14488 0.0
C1975 C 0.60817 0.27599 0.14887 0.0
C1976 C 0.59717 0.28793 0.14656 0.0
C1977 C 0.58419 0.33543 0.15544 0.0
C1978 C 0.56896 0.33477 0.14927 0.0
C1979 C 0.5779 0.34835 0.14754 0.0
C1980 C 0.58504 0.34425 0.15211 0.0
C1981 C 0.56976 0.34371 0.14623 0.0
C1982 C 0.57614 0.33065 0.15385 0.0
C1983 C 0.59149 0.33182 0.16118 0.0
O1984 O 0.60528 0.31454 0.17783 0.0
O1985 O 0.61529 0.3195 0.16815 0.0
O1986 O 0.59933 0.3305 0.15727 0.0
O1987 O 0.58933 0.32546 0.16697 0.0
H1988 H 0.60586 0.3345 0.17794 0.0
H1989 H 0.61015 0.34681 0.18816 0.0
H1990 H 0.63088 0.33002 0.19975 0.0
H1991 H 0.62658 0.31765 0.18948 0.0
H1992 H 0.61926 0.27941 0.15773 0.0
H1993 H 0.61392 0.29492 0.16069 0.0
H1994 H 0.59631 0.27484 0.14045 0.0
H1995 H 0.59101 0.29023 0.14337 0.0
H1996 H 0.56272 0.3311 0.1483 0.0
H1997 H 0.57862 0.35525 0.14524 0.0
H1998 H 0.59115 0.34808 0.15329 0.0
H1999 H 0.57531 0.32383 0.15635 0.0
C2000 C 0.93062 0.36563 0.43305 0.0
C2001 C 0.92246 0.36081 0.43314 0.0
C2002 C 0.91657 0.37067 0.44483 0.0
C2003 C 0.9155 0.36331 0.43899 0.0
C2004 C 0.92477 0.37545 0.44483 0.0
C2005 C 0.93175 0.37294 0.43895 0.0
U2006 U 0.93837 0.35044 0.41429 0.0
O2007 O 0.94551 0.35311 0.40154 0.0
O2008 O 0.9513 0.34372 0.41142 0.0
C2009 C 0.95236 0.3479 0.40367 0.0
C2010 C 0.93781 0.3631 0.42666 0.0
C2011 C 0.96143 0.35152 0.40177 0.0
C2012 C 0.97418 0.3613 0.40519 0.0
C2013 C 0.96547 0.35815 0.40721 0.0
C2014 C 0.97481 0.35127 0.3923 0.0
C2015 C 0.9789 0.35786 0.39771 0.0
C2016 C 0.96615 0.34814 0.39431 0.0
C2017 C 0.92042 0.33264 0.40735 0.0
C2018 C 0.92176 0.32133 0.39553 0.0
C2019 C 0.90785 0.32268 0.40404 0.0
C2020 C 0.9116 0.32971 0.40906 0.0
C2021 C 0.91287 0.31848 0.39721 0.0
C2022 C 0.92552 0.32841 0.40057 0.0
C2023 C 0.92398 0.34019 0.4127 0.0
O2024 O 0.94145 0.35513 0.42805 0.0
O2025 O 0.93589 0.36457 0.41813 0.0
O2026 O 0.92497 0.34789 0.40843 0.0
O2027 O 0.93069 0.33834 0.41818 0.0
H2028 H 0.92147 0.35515 0.42862 0.0
H2029 H 0.90923 0.35955 0.4389 0.0
H2030 H 0.9257 0.38114 0.44931 0.0
H2031 H 0.93799 0.37674 0.43897 0.0
H2032 H 0.97725 0.36638 0.40945 0.0
H2033 H 0.96192 0.36084 0.41301 0.0
H2034 H 0.97835 0.34853 0.38652 0.0
H2035 H 0.96314 0.34302 0.39004 0.0
H2036 H 0.92572 0.31814 0.39029 0.0
H2037 H 0.901 0.32056 0.40544 0.0
H2038 H 0.90758 0.33289 0.41427 0.0
H2039 H 0.93235 0.33061 0.39917 0.0
C2040 C 0.89066 0.68081 0.68324 0.0
C2041 C 0.8953 0.67255 0.68303 0.0
C2042 C 0.8857 0.66668 0.69495 0.0
C2043 C 0.89284 0.66555 0.68884 0.0
C2044 C 0.8811 0.67496 0.69524 0.0
C2045 C 0.88356 0.68199 0.6894 0.0
U2046 U 0.9054 0.68866 0.66414 0.0
O2047 O 0.9025 0.69632 0.65177 0.0
O2048 O 0.91246 0.70147 0.66146 0.0
C2049 C 0.90803 0.70292 0.65391 0.0
C2050 C 0.89318 0.68808 0.67694 0.0
C2051 C 0.9047 0.71217 0.65239 0.0
C2052 C 0.89332 0.72394 0.65382 0.0
C2053 C 0.89638 0.71519 0.6558 0.0
C2054 C 0.90689 0.72669 0.64512 0.0
C2055 C 0.89854 0.72971 0.64839 0.0
C2056 C 0.90993 0.718 0.6471 0.0
C2057 C 0.92253 0.67052 0.65591 0.0
C2058 C 0.93773 0.67128 0.64967 0.0
C2059 C 0.92887 0.65764 0.64797 0.0
C2060 C 0.92173 0.66169 0.65258 0.0
C2061 C 0.93697 0.66234 0.64663 0.0
C2062 C 0.93055 0.67535 0.65429 0.0
C2063 C 0.91521 0.67411 0.66163 0.0
O2064 O 0.9013 0.69145 0.67814 0.0
O2065 O 0.89135 0.68644 0.66842 0.0
O2066 O 0.90737 0.6754 0.65769 0.0
O2067 O 0.91734 0.68049 0.6674 0.0
H2068 H 0.90079 0.67152 0.67832 0.0
H2069 H 0.89646 0.65921 0.68854 0.0
H2070 H 0.87557 0.67594 0.69992 0.0
H2071 H 0.8799 0.68831 0.68965 0.0
H2072 H 0.88687 0.72617 0.65643 0.0
H2073 H 0.89225 0.71078 0.6599 0.0
H2074 H 0.91101 0.73106 0.64095 0.0
H2075 H 0.91636 0.71579 0.64441 0.0
H2076 H 0.94394 0.67499 0.64868 0.0
H2077 H 0.92818 0.65074 0.64567 0.0
H2078 H 0.91564 0.65783 0.65379 0.0
H2079 H 0.93134 0.68217 0.65678 0.0
C2080 C 0.57598 0.36602 0.57435 0.0
C2081 C 0.58418 0.36128 0.57421 0.0
C2082 C 0.58985 0.37111 0.56238 0.0
C2083 C 0.59105 0.3638 0.56826 0.0
C2084 C 0.58161 0.37581 0.56244 0.0
C2085 C 0.57472 0.37328 0.56841 0.0
U2086 U 0.56866 0.35096 0.59337 0.0
O2087 O 0.5615 0.35366 0.60612 0.0
O2088 O 0.55589 0.34402 0.59639 0.0
C2089 C 0.55474 0.34831 0.60406 0.0
C2090 C 0.56887 0.36345 0.58082 0.0
C2091 C 0.5456 0.35184 0.60587 0.0
C2092 C 0.5322 0.36034 0.60161 0.0
C2093 C 0.541 0.35736 0.5997 0.0
C2094 C 0.53261 0.35237 0.61587 0.0
C2095 C 0.52795 0.35782 0.60971 0.0
C2096 C 0.54136 0.34941 0.61397 0.0
C2097 C 0.58723 0.33368 0.60026 0.0
C2098 C 0.58683 0.3228 0.61254 0.0
C2099 C 0.59997 0.32373 0.60285 0.0
C2100 C 0.59586 0.33061 0.59793 0.0
C2101 C 0.59553 0.3198 0.61022 0.0
C2102 C 0.58269 0.32973 0.60759 0.0
C2103 C 0.58331 0.34109 0.59496 0.0
O2104 O 0.56539 0.35539 0.57957 0.0
O2105 O 0.57082 0.36508 0.58932 0.0
O2106 O 0.58213 0.34877 0.5992 0.0
O2107 O 0.57659 0.33899 0.58958 0.0
H2108 H 0.58528 0.35566 0.57875 0.0
H2109 H 0.59735 0.36009 0.56831 0.0
H2110 H 0.58058 0.38146 0.55793 0.0
H2111 H 0.56844 0.37702 0.56843 0.0
H2112 H 0.52869 0.36454 0.59677 0.0
H2113 H 0.54416 0.35931 0.5934 0.0
H2114 H 0.52944 0.35036 0.62214 0.0
H2115 H 0.5448 0.34516 0.61882 0.0
H2116 H 0.58329 0.31981 0.6182 0.0
H2117 H 0.60667 0.32149 0.60095 0.0
H2118 H 0.59945 0.33358 0.59229 0.0
H2119 H 0.57602 0.33203 0.60948 0.0
C2120 C 0.89047 0.32561 0.82417 0.0
C2121 C 0.8922 0.33467 0.82637 0.0
C2122 C 0.88583 0.33953 0.81206 0.0
C2123 C 0.88986 0.34157 0.82038 0.0
C2124 C 0.88415 0.33048 0.80981 0.0
C2125 C 0.88644 0.32356 0.81584 0.0
U2126 U 0.90502 0.31782 0.84352 0.0
O2127 O 0.90205 0.30983 0.85566 0.0
O2128 O 0.91232 0.30512 0.84608 0.0
C2129 C 0.90774 0.30339 0.85348 0.0
C2130 C 0.89311 0.31833 0.83043 0.0
C2131 C 0.9045 0.29405 0.85463 0.0
C2132 C 0.89331 0.2822 0.85254 0.0
C2133 C 0.89629 0.29106 0.85096 0.0
C2134 C 0.90674 0.27927 0.86138 0.0
C2135 C 0.89851 0.27627 0.8578 0.0
C2136 C 0.9097 0.28808 0.85981 0.0
C2137 C 0.9216 0.3363 0.85231 0.0
C2138 C 0.93706 0.33637 0.85792 0.0
C2139 C 0.92733 0.34922 0.86064 0.0
C2140 C 0.9203 0.34486 0.85613 0.0
C2141 C 0.9358 0.34509 0.8614 0.0
C2142 C 0.93 0.33199 0.85339 0.0
C2143 C 0.91443 0.33255 0.84648 0.0
O2144 O 0.90134 0.31523 0.82934 0.0
O2145 O 0.89103 0.31971 0.83894 0.0
O2146 O 0.90657 0.33098 0.85028 0.0
O2147 O 0.9168 0.32633 0.84062 0.0
H2148 H 0.89539 0.3364 0.83271 0.0
H2149 H 0.89124 0.34851 0.8222 0.0
H2150 H 0.88108 0.3288 0.8034 0.0
H2151 H 0.88512 0.31662 0.814 0.0
H2152 H 0.88694 0.27999 0.84972 0.0
H2153 H 0.89217 0.29557 0.84695 0.0
H2154 H 0.91084 0.27479 0.86545 0.0
H2155 H 0.91604 0.29026 0.86271 0.0
H2156 H 0.94357 0.3331 0.85844 0.0
H2157 H 0.92625 0.35595 0.86328 0.0
H2158 H 0.91391 0.34833 0.85533 0.0
H2159 H 0.9312 0.32539 0.85051 0.0
C2160 C 0.93067 0.64021 0.07428 0.0
C2161 C 0.92163 0.64238 0.07615 0.0
C2162 C 0.91686 0.63539 0.06211 0.0
C2163 C 0.91478 0.63995 0.07013 0.0
C2164 C 0.9259 0.63327 0.06017 0.0
C2165 C 0.93276 0.63566 0.06624 0.0
U2166 U 0.93836 0.65554 0.09299 0.0
O2167 O 0.94564 0.653 0.10568 0.0
O2168 O 0.95123 0.66244 0.09573 0.0
C2169 C 0.95241 0.65829 0.10349 0.0
C2170 C 0.93788 0.64291 0.0806 0.0
C2171 C 0.96153 0.65478 0.10533 0.0
C2172 C 0.97422 0.64486 0.10207 0.0
C2173 C 0.9655 0.64798 0.10005 0.0
C2174 C 0.97502 0.65529 0.11463 0.0
C2175 C 0.97903 0.64851 0.10939 0.0
C2176 C 0.96635 0.65839 0.11262 0.0
C2177 C 0.92015 0.67309 0.09999 0.0
C2178 C 0.92136 0.68458 0.11164 0.0
C2179 C 0.90746 0.68293 0.10317 0.0
C2180 C 0.91129 0.67588 0.09825 0.0
C2181 C 0.91244 0.68731 0.10992 0.0
C2182 C 0.92521 0.67748 0.1067 0.0
C2183 C 0.92382 0.66557 0.09467 0.0
O2184 O 0.94134 0.65094 0.07916 0.0
O2185 O 0.93616 0.64138 0.08917 0.0
O2186 O 0.92498 0.65791 0.09897 0.0
O2187 O 0.93047 0.66751 0.08914 0.0
H2188 H 0.91986 0.64599 0.08226 0.0
H2189 H 0.90786 0.64168 0.0717 0.0
H2190 H 0.92762 0.62979 0.05399 0.0
H2191 H 0.93969 0.63398 0.06465 0.0
H2192 H 0.97722 0.63963 0.09794 0.0
H2193 H 0.96187 0.64511 0.09439 0.0
H2194 H 0.97863 0.65819 0.12029 0.0
H2195 H 0.9634 0.66363 0.11677 0.0
H2196 H 0.92529 0.68791 0.11682 0.0
H2197 H 0.90058 0.68495 0.10175 0.0
H2198 H 0.90731 0.67257 0.09309 0.0
H2199 H 0.93207 0.6754 0.10811 0.0
C2200 C 0.61528 0.68056 0.32328 0.0
C2201 C 0.61063 0.67232 0.32358 0.0
C2202 C 0.62012 0.66636 0.31161 0.0
C2203 C 0.61302 0.66528 0.31778 0.0
C2204 C 0.62474 0.67463 0.31125 0.0
C2205 C 0.62233 0.68169 0.31706 0.0
U2206 U 0.60082 0.68883 0.34252 0.0
O2207 O 0.604 0.69674 0.35467 0.0
O2208 O 0.59398 0.7018 0.34501 0.0
C2209 C 0.5987 0.70346 0.35233 0.0
C2210 C 0.61284 0.68789 0.32954 0.0
C2211 C 0.60229 0.71276 0.35339 0.0
C2212 C 0.61384 0.72323 0.35869 0.0
C2213 C 0.61105 0.71442 0.35668 0.0
C2214 C 0.59929 0.72891 0.35393 0.0
C2215 C 0.60793 0.73052 0.35744 0.0
C2216 C 0.59649 0.72012 0.35195 0.0
C2217 C 0.58361 0.67098 0.35137 0.0
C2218 C 0.56824 0.67148 0.35719 0.0
C2219 C 0.57756 0.65832 0.35987 0.0
C2220 C 0.58466 0.6624 0.35522 0.0
C2221 C 0.56925 0.66275 0.36073 0.0
C2222 C 0.57538 0.67558 0.35253 0.0
C2223 C 0.59088 0.67446 0.3455 0.0
O2224 O 0.60472 0.69127 0.3284 0.0
O2225 O 0.61477 0.68635 0.33805 0.0
O2226 O 0.59879 0.67575 0.3493 0.0
O2227 O 0.58873 0.68075 0.33964 0.0
H2228 H 0.60517 0.67132 0.32834 0.0
H2229 H 0.60939 0.65894 0.31815 0.0
H2230 H 0.63023 0.67558 0.30652 0.0
H2231 H 0.626 0.688 0.31674 0.0
H2232 H 0.62052 0.72435 0.36143 0.0
H2233 H 0.61567 0.70891 0.35794 0.0
H2234 H 0.59462 0.73445 0.35296 0.0
H2235 H 0.58967 0.71905 0.34953 0.0
H2236 H 0.56186 0.67499 0.35781 0.0
H2237 H 0.57844 0.65158 0.36255 0.0
H2238 H 0.59092 0.6587 0.35437 0.0
H2239 H 0.57438 0.6822 0.34962 0.0
C2240 C 0.9328 0.57527 0.64079 0.0
C2241 C 0.93047 0.58429 0.64255 0.0
C2242 C 0.94466 0.58938 0.63611 0.0
C2243 C 0.93634 0.59129 0.64019 0.0
C2244 C 0.94704 0.58037 0.6344 0.0
C2245 C 0.94113 0.57336 0.63671 0.0
U2246 U 0.91381 0.56715 0.65562 0.0
O2247 O 0.90164 0.55915 0.6528 0.0
O2248 O 0.91144 0.55435 0.66281 0.0
C2249 C 0.90394 0.55266 0.65838 0.0
C2250 C 0.92666 0.5679 0.64346 0.0
C2251 C 0.90271 0.54335 0.6551 0.0
C2252 C 0.90486 0.53148 0.64395 0.0
C2253 C 0.9065 0.54031 0.64696 0.0
C2254 C 0.89571 0.52867 0.65721 0.0
C2255 C 0.89942 0.52562 0.64906 0.0
C2256 C 0.89734 0.53746 0.6602 0.0
C2257 C 0.90515 0.58528 0.67256 0.0
C2258 C 0.89938 0.58477 0.68794 0.0
C2259 C 0.89682 0.59801 0.6787 0.0
C2260 C 0.90141 0.59391 0.67155 0.0
C2261 C 0.89593 0.59355 0.68699 0.0
C2262 C 0.90397 0.58066 0.68077 0.0
C2263 C 0.91094 0.58174 0.66525 0.0
O2264 O 0.92794 0.5647 0.65163 0.0
O2265 O 0.91809 0.56921 0.64156 0.0
O2266 O 0.90702 0.58026 0.65744 0.0
O2267 O 0.91688 0.57553 0.66744 0.0
H2268 H 0.92412 0.58592 0.64579 0.0
H2269 H 0.93442 0.59819 0.6416 0.0
H2270 H 0.95346 0.57879 0.63128 0.0
H2271 H 0.94307 0.56645 0.63536 0.0
H2272 H 0.90778 0.52923 0.63764 0.0
H2273 H 0.91065 0.54478 0.64292 0.0
H2274 H 0.8915 0.52425 0.66123 0.0
H2275 H 0.89434 0.53969 0.66648 0.0
H2276 H 0.89874 0.58125 0.69431 0.0
H2277 H 0.89421 0.60478 0.67785 0.0
H2278 H 0.90228 0.59762 0.66532 0.0
H2279 H 0.90679 0.57399 0.68173 0.0
C2280 C 0.68089 0.68292 0.8904 0.0
C2281 C 0.67273 0.683 0.89521 0.0
C2282 C 0.66681 0.69464 0.88531 0.0
C2283 C 0.66575 0.68882 0.89269 0.0
C2284 C 0.675 0.69464 0.88053 0.0
C2285 C 0.682 0.68879 0.88306 0.0
U2286 U 0.68852 0.6641 0.90554 0.0
O2287 O 0.69587 0.65147 0.9029 0.0
O2288 O 0.70132 0.66131 0.91253 0.0
C2289 C 0.70258 0.65362 0.90829 0.0
C2290 C 0.6881 0.67657 0.89297 0.0
C2291 C 0.71175 0.65194 0.90484 0.0
C2292 C 0.72448 0.65551 0.89507 0.0
C2293 C 0.71564 0.65725 0.89802 0.0
C2294 C 0.72556 0.64312 0.90569 0.0
C2295 C 0.72951 0.64846 0.89894 0.0
C2296 C 0.71676 0.64485 0.9086 0.0
C2297 C 0.67024 0.65701 0.92297 0.0
C2298 C 0.67136 0.64523 0.93435 0.0
C2299 C 0.65751 0.65378 0.93274 0.0
C2300 C 0.66138 0.65876 0.92576 0.0
C2301 C 0.66244 0.64696 0.93706 0.0
C2302 C 0.67525 0.65024 0.92731 0.0
C2303 C 0.67395 0.66237 0.91549 0.0
O2304 O 0.6916 0.67791 0.90101 0.0
O2305 O 0.68627 0.66804 0.8914 0.0
O2306 O 0.67514 0.6581 0.90782 0.0
O2307 O 0.68058 0.66789 0.9175 0.0
H2308 H 0.67174 0.67851 0.90089 0.0
H2309 H 0.65948 0.68873 0.89645 0.0
H2310 H 0.67593 0.6991 0.87482 0.0
H2311 H 0.68825 0.68882 0.87926 0.0
H2312 H 0.72742 0.65968 0.88985 0.0
H2313 H 0.71186 0.66275 0.89503 0.0
H2314 H 0.72932 0.63766 0.90875 0.0
H2315 H 0.71388 0.64068 0.91386 0.0
H2316 H 0.67526 0.64 0.93763 0.0
H2317 H 0.65063 0.65521 0.93475 0.0
H2318 H 0.65742 0.66396 0.92249 0.0
H2319 H 0.68212 0.64882 0.92523 0.0
C2320 C 0.57382 0.43091 0.14088 0.0
C2321 C 0.57614 0.42189 0.14262 0.0
C2322 C 0.56193 0.41681 0.13621 0.0
C2323 C 0.57026 0.4149 0.14027 0.0
C2324 C 0.55955 0.42583 0.13452 0.0
C2325 C 0.56547 0.43284 0.13683 0.0
U2326 U 0.59285 0.43901 0.15565 0.0
O2327 O 0.60503 0.44699 0.15278 0.0
O2328 O 0.59527 0.45181 0.16283 0.0
C2329 C 0.60276 0.45348 0.15838 0.0
C2330 C 0.57997 0.43828 0.14353 0.0
C2331 C 0.60401 0.46278 0.15509 0.0
C2332 C 0.60174 0.47469 0.144 0.0
C2333 C 0.6001 0.46586 0.14702 0.0
C2334 C 0.61113 0.47742 0.15711 0.0
C2335 C 0.60729 0.48051 0.14903 0.0
C2336 C 0.60949 0.46863 0.1601 0.0
C2337 C 0.60153 0.42085 0.17255 0.0
C2338 C 0.60735 0.42132 0.18792 0.0
C2339 C 0.60984 0.40809 0.17865 0.0
C2340 C 0.60525 0.41221 0.17153 0.0
C2341 C 0.61076 0.41254 0.18694 0.0
C2342 C 0.60275 0.42546 0.18077 0.0
C2343 C 0.59573 0.42441 0.16527 0.0
O2344 O 0.57872 0.44148 0.1517 0.0
O2345 O 0.58853 0.43696 0.1416 0.0
O2346 O 0.59962 0.42589 0.15744 0.0
O2347 O 0.58981 0.43063 0.16749 0.0
H2348 H 0.5825 0.42025 0.14584 0.0
H2349 H 0.57218 0.40799 0.14166 0.0
H2350 H 0.55312 0.42742 0.13143 0.0
H2351 H 0.56353 0.43975 0.13549 0.0
H2352 H 0.59873 0.47697 0.13775 0.0
H2353 H 0.59586 0.46143 0.14305 0.0
H2354 H 0.61543 0.4818 0.16107 0.0
H2355 H 0.61258 0.46638 0.16633 0.0
H2356 H 0.60801 0.42484 0.19429 0.0
H2357 H 0.61243 0.40131 0.17779 0.0
H2358 H 0.60435 0.40851 0.16528 0.0
H2359 H 0.59995 0.43213 0.18175 0.0
C2360 C 0.8264 0.32315 0.39037 0.0
C2361 C 0.83447 0.32294 0.39534 0.0
C2362 C 0.84048 0.31139 0.38538 0.0
C2363 C 0.84145 0.3171 0.39286 0.0
C2364 C 0.83237 0.3115 0.38047 0.0
C2365 C 0.82537 0.31737 0.38295 0.0
U2366 U 0.81861 0.342 0.40544 0.0
O2367 O 0.81156 0.35478 0.4026 0.0
O2368 O 0.80565 0.34498 0.41202 0.0
C2369 C 0.80462 0.35266 0.4077 0.0
C2370 C 0.81923 0.32958 0.39284 0.0
C2371 C 0.79558 0.35455 0.40393 0.0
C2372 C 0.78111 0.34969 0.39781 0.0
C2373 C 0.78993 0.34768 0.40061 0.0
C2374 C 0.78359 0.36545 0.40136 0.0
C2375 C 0.77784 0.35858 0.3983 0.0
C2376 C 0.79237 0.36344 0.40415 0.0
C2377 C 0.83652 0.34886 0.42336 0.0
C2378 C 0.83528 0.36064 0.43472 0.0
C2379 C 0.84913 0.35206 0.43331 0.0
C2380 C 0.84534 0.34709 0.42627 0.0
C2381 C 0.84416 0.35889 0.43755 0.0
C2382 C 0.83147 0.35565 0.42763 0.0
C2383 C 0.83293 0.34354 0.4158 0.0
O2384 O 0.81552 0.32823 0.40079 0.0
O2385 O 0.8212 0.33809 0.39136 0.0
O2386 O 0.83202 0.3478 0.40809 0.0
O2387 O 0.82615 0.33813 0.41764 0.0
H2388 H 0.8354 0.32737 0.40108 0.0
H2389 H 0.84765 0.3171 0.39672 0.0
H2390 H 0.83151 0.30713 0.37468 0.0
H2391 H 0.8192 0.31745 0.37904 0.0
H2392 H 0.77677 0.34431 0.39545 0.0
H2393 H 0.79227 0.34076 0.40036 0.0
H2394 H 0.78119 0.37234 0.40178 0.0
H2395 H 0.7966 0.36884 0.40669 0.0
H2396 H 0.83135 0.36588 0.43795 0.0
H2397 H 0.85598 0.35061 0.43541 0.0
H2398 H 0.84933 0.34187 0.42305 0.0
H2399 H 0.82465 0.35709 0.42545 0.0
C2400 C 0.93369 0.43138 0.86556 0.0
C2401 C 0.93736 0.42557 0.85908 0.0
C2402 C 0.94755 0.41887 0.87035 0.0
C2403 C 0.94403 0.41933 0.86146 0.0
C2404 C 0.94303 0.42414 0.87694 0.0
C2405 C 0.93642 0.43045 0.87453 0.0
U2406 U 0.91376 0.43831 0.85108 0.0
O2407 O 0.90117 0.4455 0.85436 0.0
O2408 O 0.91044 0.45105 0.84423 0.0
C2409 C 0.90296 0.45222 0.84885 0.0
C2410 C 0.92674 0.43811 0.86311 0.0
C2411 C 0.90132 0.46139 0.85232 0.0
C2412 C 0.9049 0.47404 0.86218 0.0
C2413 C 0.90657 0.46518 0.85925 0.0
C2414 C 0.89273 0.47532 0.85134 0.0
C2415 C 0.89799 0.47919 0.85819 0.0
C2416 C 0.89438 0.46651 0.84844 0.0
C2417 C 0.906 0.42027 0.83366 0.0
C2418 C 0.8996 0.42112 0.81854 0.0
C2419 C 0.89817 0.40737 0.82726 0.0
C2420 C 0.9028 0.4114 0.8344 0.0
C2421 C 0.89667 0.41214 0.81923 0.0
C2422 C 0.90424 0.42517 0.82572 0.0
C2423 C 0.9117 0.42388 0.84099 0.0
O2424 O 0.92761 0.44179 0.85508 0.0
O2425 O 0.91838 0.43585 0.86501 0.0
O2426 O 0.90782 0.42485 0.8489 0.0
O2427 O 0.91722 0.43051 0.83895 0.0
H2428 H 0.935 0.42578 0.85216 0.0
H2429 H 0.94623 0.41475 0.85624 0.0
H2430 H 0.94422 0.42341 0.88405 0.0
H2431 H 0.93331 0.43453 0.87975 0.0
H2432 H 0.90902 0.47691 0.86748 0.0
H2433 H 0.91196 0.46133 0.86232 0.0
H2434 H 0.88738 0.47918 0.84818 0.0
H2435 H 0.89026 0.4637 0.84309 0.0
H2436 H 0.89849 0.42489 0.81238 0.0
H2437 H 0.89595 0.40043 0.82789 0.0
H2438 H 0.90411 0.40748 0.84043 0.0
H2439 H 0.90663 0.43204 0.82498 0.0
C2440 C 0.82597 0.68276 0.11553 0.0
C2441 C 0.8342 0.68282 0.11082 0.0
C2442 C 0.83994 0.69459 0.12067 0.0
C2443 C 0.84112 0.68869 0.11336 0.0
C2444 C 0.83169 0.69462 0.12533 0.0
C2445 C 0.82474 0.68872 0.12278 0.0
U2446 U 0.81846 0.66398 0.10027 0.0
O2447 O 0.8113 0.65124 0.10285 0.0
O2448 O 0.80562 0.66109 0.09337 0.0
C2449 C 0.80451 0.65335 0.09755 0.0
C2450 C 0.81882 0.67636 0.11293 0.0
C2451 C 0.7954 0.65148 0.10108 0.0
C2452 C 0.78317 0.65394 0.11178 0.0
C2453 C 0.79186 0.65603 0.10861 0.0
C2454 C 0.78154 0.64279 0.09994 0.0
C2455 C 0.77798 0.64727 0.10746 0.0
C2456 C 0.79018 0.64487 0.09678 0.0
C2457 C 0.8367 0.65719 0.08269 0.0
C2458 C 0.83562 0.64546 0.07126 0.0
C2459 C 0.84944 0.65405 0.07289 0.0
C2460 C 0.84555 0.65898 0.0799 0.0
C2461 C 0.84454 0.64723 0.06855 0.0
C2462 C 0.83172 0.65041 0.07832 0.0
C2463 C 0.83299 0.66247 0.09021 0.0
O2464 O 0.81527 0.67773 0.10492 0.0
O2465 O 0.82074 0.66783 0.11443 0.0
O2466 O 0.8319 0.65816 0.09787 0.0
O2467 O 0.82627 0.66792 0.08827 0.0
H2468 H 0.83527 0.67826 0.1052 0.0
H2469 H 0.84744 0.68858 0.10969 0.0
H2470 H 0.83067 0.69914 0.13098 0.0
H2471 H 0.81845 0.68876 0.12649 0.0
H2472 H 0.78051 0.65748 0.11759 0.0
H2473 H 0.7958 0.66115 0.11201 0.0
H2474 H 0.77763 0.63765 0.09651 0.0
H2475 H 0.79279 0.64129 0.09097 0.0
H2476 H 0.83175 0.64022 0.06795 0.0
H2477 H 0.85632 0.65552 0.07088 0.0
H2478 H 0.84949 0.66419 0.08319 0.0
H2479 H 0.82486 0.64894 0.0804 0.0
C2480 C 0.57367 0.57516 0.36598 0.0
C2481 C 0.57378 0.58334 0.3612 0.0
C2482 C 0.56206 0.58937 0.37095 0.0
C2483 C 0.56801 0.59038 0.36366 0.0
C2484 C 0.56188 0.58117 0.3757 0.0
C2485 C 0.56767 0.5741 0.37322 0.0
U2486 U 0.59267 0.5672 0.35118 0.0
O2487 O 0.60503 0.55948 0.35404 0.0
O2488 O 0.59527 0.55438 0.34413 0.0
C2489 C 0.60283 0.55289 0.34853 0.0
C2490 C 0.57993 0.56786 0.36346 0.0
C2491 C 0.60426 0.54365 0.35188 0.0
C2492 C 0.60118 0.53135 0.36233 0.0
C2493 C 0.59956 0.5402 0.35936 0.0
C2494 C 0.61219 0.52938 0.3504 0.0
C2495 C 0.6075 0.52588 0.35784 0.0
C2496 C 0.61058 0.53818 0.34746 0.0
C2497 C 0.60089 0.58522 0.33393 0.0
C2498 C 0.60679 0.58449 0.31861 0.0
C2499 C 0.60902 0.59797 0.32758 0.0
C2500 C 0.60445 0.59395 0.33477 0.0
C2501 C 0.61007 0.59335 0.31941 0.0
C2502 C 0.60222 0.58045 0.32583 0.0
C2503 C 0.59519 0.5817 0.34131 0.0
O2504 O 0.57868 0.56446 0.35536 0.0
O2505 O 0.58847 0.56948 0.36524 0.0
O2506 O 0.59917 0.58042 0.34912 0.0
O2507 O 0.58936 0.57534 0.33924 0.0
H2508 H 0.57838 0.58429 0.3556 0.0
H2509 H 0.56824 0.59666 0.35993 0.0
H2510 H 0.55732 0.58028 0.38134 0.0
H2511 H 0.5675 0.56784 0.37699 0.0
H2512 H 0.59751 0.52876 0.36809 0.0
H2513 H 0.59466 0.54434 0.36287 0.0
H2514 H 0.61709 0.52527 0.34686 0.0
H2515 H 0.61428 0.54072 0.34169 0.0
H2516 H 0.60756 0.58084 0.31233 0.0
H2517 H 0.6115 0.60481 0.32831 0.0
H2518 H 0.60347 0.59777 0.34093 0.0
H2519 H 0.59954 0.5737 0.325 0.0
C2520 C 0.68131 0.32272 0.61554 0.0
C2521 C 0.67547 0.31898 0.60913 0.0
C2522 C 0.66882 0.3089 0.62053 0.0
C2523 C 0.66924 0.31234 0.61161 0.0
C2524 C 0.67413 0.31348 0.62705 0.0
C2525 C 0.68043 0.32008 0.62455 0.0
U2526 U 0.68801 0.34224 0.60051 0.0
O2527 O 0.69475 0.35516 0.60342 0.0
O2528 O 0.70079 0.34568 0.59379 0.0
C2529 C 0.70165 0.35335 0.59814 0.0
C2530 C 0.68796 0.32969 0.61299 0.0
C2531 C 0.71069 0.35537 0.60178 0.0
C2532 C 0.72369 0.3518 0.61118 0.0
C2533 C 0.71495 0.34976 0.60813 0.0
C2534 C 0.72391 0.36506 0.60163 0.0
C2535 C 0.72823 0.35946 0.60791 0.0
C2536 C 0.71522 0.36304 0.5986 0.0
C2537 C 0.66996 0.34875 0.5827 0.0
C2538 C 0.6711 0.36064 0.57144 0.0
C2539 C 0.65727 0.35201 0.57288 0.0
C2540 C 0.66113 0.34698 0.57984 0.0
C2541 C 0.66219 0.35891 0.56867 0.0
C2542 C 0.67497 0.35559 0.57846 0.0
C2543 C 0.67363 0.3434 0.5902 0.0
O2544 O 0.69179 0.32864 0.60506 0.0
O2545 O 0.68548 0.33806 0.61456 0.0
O2546 O 0.67442 0.34761 0.59796 0.0
O2547 O 0.68054 0.33818 0.58833 0.0
H2548 H 0.67564 0.32127 0.60219 0.0
H2549 H 0.66464 0.31008 0.60642 0.0
H2550 H 0.67343 0.31237 0.63417 0.0
H2551 H 0.68452 0.32325 0.62971 0.0
H2552 H 0.72693 0.34739 0.61602 0.0
H2553 H 0.71155 0.3438 0.61064 0.0
H2554 H 0.72731 0.37099 0.59903 0.0
H2555 H 0.71205 0.36744 0.5937 0.0
H2556 H 0.67499 0.36593 0.56824 0.0
H2557 H 0.65041 0.35058 0.57081 0.0
H2558 H 0.65717 0.34173 0.58304 0.0
H2559 H 0.6818 0.35703 0.5806 0.0
C2560 C 0.64112 0.93313 0.57644 0.0
C2561 C 0.64576 0.93284 0.5847 0.0
C2562 C 0.63615 0.94471 0.59067 0.0
C2563 C 0.6433 0.9386 0.59176 0.0
C2564 C 0.63155 0.94506 0.58239 0.0
C2565 C 0.63402 0.93929 0.57532 0.0
U2566 U 0.65579 0.91408 0.5681 0.0
O2567 O 0.65274 0.90192 0.56017 0.0
O2568 O 0.66265 0.91171 0.55511 0.0
C2569 C 0.65801 0.90433 0.55344 0.0
C2570 C 0.64362 0.92692 0.5691 0.0
C2571 C 0.65443 0.90324 0.54415 0.0
C2572 C 0.6428 0.89811 0.53368 0.0
C2573 C 0.64559 0.90015 0.54249 0.0
C2574 C 0.65749 0.90245 0.52801 0.0
C2575 C 0.64877 0.89913 0.5264 0.0
C2576 C 0.66029 0.90446 0.53679 0.0
C2577 C 0.67314 0.90541 0.58591 0.0
C2578 C 0.68858 0.89977 0.58537 0.0
C2579 C 0.67933 0.89698 0.59855 0.0
C2580 C 0.67215 0.90155 0.5945 0.0
C2581 C 0.68764 0.89622 0.59411 0.0
C2582 C 0.68137 0.90435 0.58129 0.0
C2583 C 0.66579 0.91119 0.58245 0.0
O2584 O 0.65173 0.92816 0.56571 0.0
O2585 O 0.6418 0.91838 0.57062 0.0
O2586 O 0.65793 0.9073 0.58117 0.0
O2587 O 0.66787 0.91709 0.57617 0.0
H2588 H 0.65126 0.92813 0.58569 0.0
H2589 H 0.64691 0.93824 0.5981 0.0
H2590 H 0.62602 0.94974 0.58145 0.0
H2591 H 0.63036 0.93959 0.569 0.0
H2592 H 0.63606 0.89552 0.53257 0.0
H2593 H 0.64092 0.89907 0.54799 0.0
H2594 H 0.6622 0.90324 0.52248 0.0
H2595 H 0.66716 0.90672 0.53787 0.0
H2596 H 0.69496 0.89923 0.58185 0.0
H2597 H 0.67849 0.89428 0.6053 0.0
H2598 H 0.6659 0.90232 0.59821 0.0
H2599 H 0.68233 0.90727 0.57467 0.0
C2600 C 0.14157 0.57264 0.43036 0.0
C2601 C 0.1462 0.57292 0.42209 0.0
C2602 C 0.13665 0.56097 0.41618 0.0
C2603 C 0.14376 0.56713 0.41506 0.0
C2604 C 0.13208 0.56061 0.42447 0.0
C2605 C 0.13452 0.56643 0.43152 0.0
U2606 U 0.15626 0.59174 0.43837 0.0
O2607 O 0.15332 0.60404 0.44612 0.0
O2608 O 0.16324 0.59432 0.45125 0.0
C2609 C 0.15863 0.60173 0.45284 0.0
C2610 C 0.14407 0.57891 0.43766 0.0
C2611 C 0.15511 0.60294 0.46215 0.0
C2612 C 0.14357 0.60823 0.47264 0.0
C2613 C 0.14632 0.60613 0.46383 0.0
C2614 C 0.15824 0.60379 0.47827 0.0
C2615 C 0.14956 0.60718 0.4799 0.0
C2616 C 0.161 0.60171 0.46948 0.0
C2617 C 0.17339 0.59981 0.42014 0.0
C2618 C 0.18583 0.6104 0.4218 0.0
C2619 C 0.18214 0.60435 0.40706 0.0
C2620 C 0.17511 0.59937 0.41086 0.0
C2621 C 0.18756 0.60988 0.41249 0.0
C2622 C 0.17876 0.60538 0.42562 0.0
C2623 C 0.16608 0.5942 0.42381 0.0
O2624 O 0.15218 0.57771 0.44105 0.0
O2625 O 0.14223 0.58743 0.43605 0.0
O2626 O 0.1583 0.59823 0.42517 0.0
O2627 O 0.16828 0.58855 0.43028 0.0
H2628 H 0.15166 0.57767 0.42107 0.0
H2629 H 0.14736 0.56749 0.40871 0.0
H2630 H 0.12658 0.5559 0.42545 0.0
H2631 H 0.13088 0.56612 0.43785 0.0
H2632 H 0.13685 0.61088 0.47377 0.0
H2633 H 0.14163 0.60722 0.45834 0.0
H2634 H 0.16297 0.60297 0.48378 0.0
H2635 H 0.16784 0.59938 0.46839 0.0
H2636 H 0.18997 0.61463 0.42608 0.0
H2637 H 0.18338 0.60387 0.39988 0.0
H2638 H 0.17105 0.5951 0.40654 0.0
H2639 H 0.17752 0.60579 0.43281 0.0
C2640 C 0.6831 0.89034 0.68117 0.0
C2641 C 0.68094 0.89228 0.67214 0.0
C2642 C 0.69508 0.88564 0.66715 0.0
C2643 C 0.68686 0.88991 0.66519 0.0
C2644 C 0.69729 0.88375 0.67617 0.0
C2645 C 0.69132 0.88607 0.68314 0.0
U2646 U 0.66437 0.90553 0.68904 0.0
O2647 O 0.65192 0.90299 0.6967 0.0
O2648 O 0.66186 0.9127 0.70181 0.0
C2649 C 0.65421 0.90846 0.70329 0.0
C2650 C 0.67691 0.89305 0.68849 0.0
C2651 C 0.65271 0.90512 0.71254 0.0
C2652 C 0.65544 0.89446 0.72474 0.0
C2653 C 0.65716 0.89746 0.71591 0.0
C2654 C 0.64487 0.90675 0.72685 0.0
C2655 C 0.64929 0.89912 0.73026 0.0
C2656 C 0.64657 0.90972 0.71807 0.0
C2657 C 0.65684 0.92272 0.67073 0.0
C2658 C 0.64529 0.9343 0.67212 0.0
C2659 C 0.65339 0.93244 0.65802 0.0
C2660 C 0.65835 0.92539 0.66179 0.0
C2661 C 0.64682 0.93693 0.66313 0.0
C2662 C 0.65029 0.9272 0.67591 0.0
C2663 C 0.66228 0.91528 0.67438 0.0
O2664 O 0.67832 0.90115 0.6918 0.0
O2665 O 0.66832 0.89137 0.687 0.0
O2666 O 0.65804 0.90762 0.67577 0.0
O2667 O 0.66796 0.91736 0.68084 0.0
H2668 H 0.67469 0.89567 0.67047 0.0
H2669 H 0.68508 0.89146 0.65828 0.0
H2670 H 0.70363 0.8805 0.6778 0.0
H2671 H 0.69314 0.88459 0.69006 0.0
H2672 H 0.65891 0.88855 0.72727 0.0
H2673 H 0.66191 0.89381 0.71173 0.0
H2674 H 0.6401 0.91042 0.731 0.0
H2675 H 0.64307 0.91564 0.71558 0.0
H2676 H 0.64025 0.93772 0.67615 0.0
H2677 H 0.65465 0.93439 0.65109 0.0
H2678 H 0.66339 0.92201 0.65771 0.0
H2679 H 0.64905 0.92522 0.68283 0.0
C2680 C 0.36598 0.43351 0.93033 0.0
C2681 C 0.36136 0.43322 0.92207 0.0
C2682 C 0.37092 0.44516 0.91614 0.0
C2683 C 0.36381 0.439 0.91503 0.0
C2684 C 0.3755 0.44551 0.92443 0.0
C2685 C 0.37304 0.43971 0.93149 0.0
U2686 U 0.35136 0.41438 0.93854 0.0
O2687 O 0.35439 0.40225 0.94653 0.0
O2688 O 0.34436 0.41199 0.95145 0.0
C2689 C 0.34902 0.40463 0.95318 0.0
C2690 C 0.36346 0.42729 0.93767 0.0
C2691 C 0.35246 0.40356 0.96253 0.0
C2692 C 0.36383 0.39821 0.97317 0.0
C2693 C 0.36119 0.40025 0.96431 0.0
C2694 C 0.3492 0.40297 0.97863 0.0
C2695 C 0.3578 0.39944 0.98037 0.0
C2696 C 0.34655 0.40498 0.9698 0.0
C2697 C 0.33422 0.4056 0.92063 0.0
C2698 C 0.31897 0.39952 0.92139 0.0
C2699 C 0.32797 0.39734 0.90792 0.0
C2700 C 0.33511 0.402 0.91192 0.0
C2701 C 0.3198 0.39622 0.91255 0.0
C2702 C 0.32614 0.4042 0.92542 0.0
C2703 C 0.34152 0.41143 0.9241 0.0
O2704 O 0.35533 0.42848 0.94099 0.0
O2705 O 0.36536 0.41876 0.93616 0.0
O2706 O 0.34939 0.40758 0.92547 0.0
O2707 O 0.33937 0.41735 0.93035 0.0
H2708 H 0.35589 0.42848 0.92105 0.0
H2709 H 0.36021 0.43864 0.90868 0.0
H2710 H 0.381 0.45022 0.9254 0.0
H2711 H 0.37668 0.44002 0.93782 0.0
H2712 H 0.37049 0.39545 0.97438 0.0
H2713 H 0.3659 0.39899 0.95887 0.0
H2714 H 0.34444 0.40393 0.9841 0.0
H2715 H 0.33975 0.40741 0.96863 0.0
H2716 H 0.31269 0.3987 0.92505 0.0
H2717 H 0.32872 0.39484 0.90109 0.0
H2718 H 0.34125 0.40304 0.90809 0.0
H2719 H 0.32528 0.40691 0.93215 0.0
C2720 C 0.3231 0.6157 0.68123 0.0
C2721 C 0.31924 0.60929 0.67548 0.0
C2722 C 0.30937 0.62079 0.66868 0.0
C2723 C 0.31264 0.61181 0.66922 0.0
C2724 C 0.31409 0.62729 0.6739 0.0
C2725 C 0.32064 0.62474 0.68023 0.0
U2726 U 0.34265 0.60073 0.68813 0.0
O2727 O 0.35536 0.60367 0.69527 0.0
O2728 O 0.34584 0.59382 0.70088 0.0
C2729 C 0.35343 0.59826 0.70202 0.0
C2730 C 0.33 0.61311 0.68796 0.0
C2731 C 0.3551 0.60177 0.71118 0.0
C2732 C 0.35214 0.61229 0.72345 0.0
C2733 C 0.35044 0.60927 0.71463 0.0
C2734 C 0.36316 0.60038 0.72539 0.0
C2735 C 0.35849 0.60782 0.7289 0.0
C2736 C 0.36148 0.59739 0.71661 0.0
C2737 C 0.34964 0.58314 0.67004 0.0
C2738 C 0.36147 0.57183 0.67134 0.0
C2739 C 0.35307 0.57334 0.65738 0.0
C2740 C 0.34801 0.58031 0.66117 0.0
C2741 C 0.35986 0.56907 0.66241 0.0
C2742 C 0.35639 0.57886 0.67514 0.0
C2743 C 0.34421 0.5906 0.67366 0.0
O2744 O 0.32893 0.60512 0.69168 0.0
O2745 O 0.3384 0.61478 0.68567 0.0
O2746 O 0.3484 0.59835 0.67466 0.0
O2747 O 0.33882 0.58864 0.68042 0.0
H2748 H 0.32139 0.60231 0.67575 0.0
H2749 H 0.31027 0.60661 0.66469 0.0
H2750 H 0.31311 0.63442 0.6731 0.0
H2751 H 0.3239 0.6299 0.68425 0.0
H2752 H 0.34848 0.61805 0.72605 0.0
H2753 H 0.34548 0.61274 0.71053 0.0
H2754 H 0.36808 0.59685 0.72948 0.0
H2755 H 0.36514 0.59159 0.71407 0.0
H2756 H 0.36668 0.56859 0.67531 0.0
H2757 H 0.35173 0.57128 0.6505 0.0
H2758 H 0.34283 0.58353 0.65714 0.0
H2759 H 0.35773 0.58097 0.68201 0.0
C2760 C 0.86651 0.07389 0.07644 0.0
C2761 C 0.86453 0.07587 0.08549 0.0
C2762 C 0.87116 0.06165 0.09024 0.0
C2763 C 0.86687 0.06982 0.09234 0.0
C2764 C 0.87306 0.0596 0.08118 0.0
C2765 C 0.87077 0.0657 0.07432 0.0
U2766 U 0.85206 0.09335 0.06882 0.0
O2767 O 0.85526 0.10577 0.06126 0.0
O2768 O 0.84507 0.09634 0.05607 0.0
C2769 C 0.84983 0.10368 0.05457 0.0
C2770 C 0.86399 0.08028 0.06924 0.0
C2771 C 0.85341 0.10502 0.04533 0.0
C2772 C 0.8565 0.09964 0.03009 0.0
C2773 C 0.854 0.09792 0.03906 0.0
C2774 C 0.85816 0.11551 0.03359 0.0
C2775 C 0.85847 0.10847 0.02727 0.0
C2776 C 0.85564 0.1138 0.04253 0.0
C2777 C 0.83523 0.10137 0.08743 0.0
C2778 C 0.8225 0.11166 0.08613 0.0
C2779 C 0.82675 0.1057 0.10076 0.0
C2780 C 0.8338 0.10091 0.09676 0.0
C2781 C 0.82102 0.11106 0.09548 0.0
C2782 C 0.82958 0.10682 0.08211 0.0
C2783 C 0.84243 0.09576 0.08352 0.0
O2784 O 0.85581 0.07925 0.06596 0.0
O2785 O 0.86602 0.08876 0.07084 0.0
O2786 O 0.85025 0.09969 0.08215 0.0
O2787 O 0.84006 0.09027 0.07697 0.0
H2788 H 0.86116 0.08211 0.08727 0.0
H2789 H 0.86531 0.07149 0.09928 0.0
H2790 H 0.87634 0.0533 0.07945 0.0
H2791 H 0.8723 0.06402 0.06738 0.0
H2792 H 0.85668 0.09413 0.0253 0.0
H2793 H 0.85232 0.09108 0.04101 0.0
H2794 H 0.85963 0.12236 0.03154 0.0
H2795 H 0.85519 0.11939 0.04721 0.0
H2796 H 0.81812 0.11576 0.08197 0.0
H2797 H 0.8257 0.10516 0.10797 0.0
H2798 H 0.83807 0.09672 0.10096 0.0
H2799 H 0.83058 0.10723 0.07488 0.0
C2800 C 0.68389 0.11532 0.82504 0.0
C2801 C 0.68751 0.10884 0.83087 0.0
C2802 C 0.6977 0.12007 0.83764 0.0
C2803 C 0.69415 0.1112 0.83716 0.0
C2804 C 0.69321 0.12667 0.83236 0.0
C2805 C 0.68662 0.12429 0.82601 0.0
U2806 U 0.66399 0.10088 0.81791 0.0
O2807 O 0.65146 0.1042 0.81064 0.0
O2808 O 0.66075 0.0941 0.8051 0.0
C2809 C 0.65328 0.09871 0.80391 0.0
C2810 C 0.67699 0.11289 0.81826 0.0
C2811 C 0.65167 0.1022 0.79474 0.0
C2812 C 0.65502 0.11235 0.78225 0.0
C2813 C 0.6567 0.10936 0.79109 0.0
C2814 C 0.64328 0.10108 0.78069 0.0
C2815 C 0.64832 0.10818 0.77698 0.0
C2816 C 0.64495 0.09812 0.78948 0.0
C2817 C 0.65604 0.08341 0.83582 0.0
C2818 C 0.65008 0.0681 0.83518 0.0
C2819 C 0.6477 0.07723 0.84853 0.0
C2820 C 0.65236 0.08436 0.84449 0.0
C2821 C 0.64667 0.06901 0.84397 0.0
C2822 C 0.65474 0.07527 0.83112 0.0
C2823 C 0.6618 0.09074 0.83228 0.0
O2824 O 0.67787 0.10488 0.81456 0.0
O2825 O 0.66861 0.1148 0.82046 0.0
O2826 O 0.65795 0.09867 0.83132 0.0
O2827 O 0.66737 0.08872 0.82568 0.0
H2828 H 0.68515 0.10192 0.83064 0.0
H2829 H 0.69631 0.10597 0.84174 0.0
H2830 H 0.6944 0.13378 0.83312 0.0
H2831 H 0.68355 0.12952 0.82192 0.0
H2832 H 0.65896 0.11785 0.7795 0.0
H2833 H 0.66192 0.11259 0.79505 0.0
H2834 H 0.63809 0.09778 0.77674 0.0
H2835 H 0.641 0.09259 0.79217 0.0
H2836 H 0.64933 0.06179 0.83157 0.0
H2837 H 0.64512 0.07803 0.85532 0.0
H2838 H 0.65331 0.09054 0.84827 0.0
H2839 H 0.65751 0.07434 0.82442 0.0
C2840 C 0.82427 0.89046 0.32544 0.0
C2841 C 0.8242 0.8953 0.33358 0.0
C2842 C 0.81264 0.88533 0.33958 0.0
C2843 C 0.81842 0.89276 0.34059 0.0
C2844 C 0.81264 0.88053 0.3314 0.0
C2845 C 0.81844 0.88308 0.32437 0.0
U2846 U 0.84295 0.90571 0.31771 0.0
O2847 O 0.85555 0.90317 0.31026 0.0
O2848 O 0.84561 0.91276 0.3049 0.0
C2849 C 0.8533 0.90855 0.30357 0.0
C2850 C 0.83056 0.89307 0.31819 0.0
C2851 C 0.85489 0.90508 0.29439 0.0
C2852 C 0.85176 0.89468 0.28206 0.0
C2853 C 0.85007 0.89771 0.29088 0.0
C2854 C 0.86309 0.90633 0.28024 0.0
C2855 C 0.85827 0.89901 0.27667 0.0
C2856 C 0.86141 0.90933 0.28901 0.0
C2857 C 0.84997 0.92316 0.33602 0.0
C2858 C 0.86173 0.93457 0.33499 0.0
C2859 C 0.85301 0.933 0.34874 0.0
C2860 C 0.8481 0.92598 0.34484 0.0
C2861 C 0.85988 0.93731 0.34388 0.0
C2862 C 0.8568 0.92749 0.33107 0.0
C2863 C 0.84468 0.91565 0.33229 0.0
O2864 O 0.82915 0.9011 0.3147 0.0
O2865 O 0.83912 0.89155 0.31996 0.0
O2866 O 0.84902 0.90802 0.33105 0.0
O2867 O 0.83911 0.91762 0.32569 0.0
H2868 H 0.82866 0.90101 0.33453 0.0
H2869 H 0.81852 0.89654 0.34685 0.0
H2870 H 0.80821 0.87479 0.33051 0.0
H2871 H 0.81841 0.87927 0.31814 0.0
H2872 H 0.84798 0.88902 0.27942 0.0
H2873 H 0.84502 0.89434 0.29494 0.0
H2874 H 0.86813 0.90975 0.27619 0.0
H2875 H 0.8652 0.91502 0.2916 0.0
H2876 H 0.86701 0.93785 0.33114 0.0
H2877 H 0.85149 0.93505 0.35559 0.0
H2878 H 0.84285 0.92272 0.34875 0.0
H2879 H 0.85831 0.92539 0.32424 0.0
C2880 C 0.43119 0.36542 0.07287 0.0
C2881 C 0.42317 0.36037 0.07285 0.0
C2882 C 0.41679 0.37022 0.06142 0.0
C2883 C 0.41603 0.36275 0.06717 0.0
C2884 C 0.42485 0.37522 0.06133 0.0
C2885 C 0.43201 0.37284 0.06705 0.0
U2886 U 0.4393 0.35068 0.09179 0.0
O2887 O 0.45224 0.34401 0.09464 0.0
O2888 O 0.44668 0.35371 0.10436 0.0
C2889 C 0.45355 0.34855 0.10215 0.0
C2890 C 0.43851 0.36306 0.07916 0.0
C2891 C 0.46268 0.35235 0.10367 0.0
C2892 C 0.4779 0.3559 0.09851 0.0
C2893 C 0.46901 0.35325 0.09664 0.0
C2894 C 0.47421 0.3571 0.11438 0.0
C2895 C 0.48059 0.35771 0.10742 0.0
C2896 C 0.46534 0.35443 0.11252 0.0
C2897 C 0.42114 0.33307 0.09909 0.0
C2898 C 0.42227 0.32141 0.11058 0.0
C2899 C 0.40825 0.32356 0.10243 0.0
C2900 C 0.41217 0.33056 0.09752 0.0
C2901 C 0.41323 0.31896 0.10901 0.0
C2902 C 0.42621 0.32846 0.10564 0.0
C2903 C 0.4249 0.34052 0.09373 0.0
O2904 O 0.43674 0.36471 0.08769 0.0
O2905 O 0.44215 0.35507 0.07789 0.0
O2906 O 0.43157 0.33851 0.08825 0.0
O2907 O 0.426 0.34824 0.09793 0.0
H2908 H 0.4224 0.35463 0.07732 0.0
H2909 H 0.40987 0.35882 0.06732 0.0
H2910 H 0.42554 0.38101 0.05694 0.0
H2911 H 0.43813 0.37682 0.06699 0.0
H2912 H 0.48274 0.35632 0.09305 0.0
H2913 H 0.46716 0.35169 0.08974 0.0
H2914 H 0.47616 0.35844 0.12129 0.0
H2915 H 0.46062 0.35374 0.11805 0.0
H2916 H 0.42621 0.31791 0.11563 0.0
H2917 H 0.40128 0.32175 0.10113 0.0
H2918 H 0.40817 0.33403 0.09248 0.0
H2919 H 0.43316 0.33033 0.10692 0.0
C2920 C 0.39127 0.68098 0.82269 0.0
C2921 C 0.39623 0.67291 0.82258 0.0
C2922 C 0.38631 0.66679 0.81105 0.0
C2923 C 0.39377 0.66588 0.8168 0.0
C2924 C 0.38138 0.67489 0.81109 0.0
C2925 C 0.38385 0.68195 0.81689 0.0
U2926 U 0.40634 0.68887 0.84147 0.0
O2927 O 0.41325 0.70174 0.84416 0.0
O2928 O 0.40364 0.69631 0.85404 0.0
C2929 C 0.40898 0.70304 0.85183 0.0
C2930 C 0.39378 0.68825 0.829 0.0
C2931 C 0.40544 0.71219 0.85341 0.0
C2932 C 0.39487 0.72439 0.85037 0.0
C2933 C 0.39797 0.7156 0.84867 0.0
C2934 C 0.40663 0.72638 0.86154 0.0
C2935 C 0.39922 0.72985 0.8568 0.0
C2936 C 0.40971 0.71764 0.85985 0.0
C2937 C 0.42391 0.67072 0.84862 0.0
C2938 C 0.43507 0.67173 0.86061 0.0
C2939 C 0.43391 0.65811 0.85163 0.0
C2940 C 0.42693 0.66198 0.84665 0.0
C2941 C 0.438 0.66291 0.85868 0.0
C2942 C 0.42803 0.67561 0.85561 0.0
C2943 C 0.4164 0.67438 0.84328 0.0
O2944 O 0.39221 0.68647 0.83754 0.0
O2945 O 0.40179 0.69181 0.82763 0.0
O2946 O 0.41836 0.681 0.83772 0.0
O2947 O 0.40873 0.67556 0.84757 0.0
H2948 H 0.40197 0.67203 0.82702 0.0
H2949 H 0.39764 0.65968 0.81687 0.0
H2950 H 0.37561 0.6757 0.80669 0.0
H2951 H 0.37994 0.68812 0.81689 0.0
H2952 H 0.38912 0.72696 0.84665 0.0
H2953 H 0.39458 0.71149 0.84367 0.0
H2954 H 0.41007 0.73048 0.86652 0.0
H2955 H 0.41548 0.71512 0.86358 0.0
H2956 H 0.43818 0.67553 0.86602 0.0
H2957 H 0.43609 0.65132 0.85003 0.0
H2958 H 0.42383 0.65811 0.84127 0.0
H2959 H 0.42578 0.68238 0.8572 0.0
C2960 C 0.07598 0.64112 0.57277 0.0
C2961 C 0.08403 0.64613 0.57284 0.0
C2962 C 0.09033 0.63645 0.56119 0.0
C2963 C 0.09114 0.64381 0.56708 0.0
C2964 C 0.08225 0.6315 0.56104 0.0
C2965 C 0.07512 0.63382 0.56681 0.0
U2966 U 0.06767 0.65534 0.59213 0.0
O2967 O 0.05466 0.66188 0.59497 0.0
O2968 O 0.06008 0.65186 0.60445 0.0
C2969 C 0.05325 0.6571 0.60232 0.0
C2970 C 0.06865 0.64338 0.57909 0.0
C2971 C 0.04408 0.65331 0.60367 0.0
C2972 C 0.02872 0.65048 0.59851 0.0
C2973 C 0.03764 0.65306 0.59669 0.0
C2974 C 0.0326 0.64805 0.61419 0.0
C2975 C 0.0261 0.6481 0.6073 0.0
C2976 C 0.04149 0.65064 0.61239 0.0
C2977 C 0.08547 0.6728 0.60071 0.0
C2978 C 0.08538 0.68835 0.60603 0.0
C2979 C 0.0981 0.67866 0.60939 0.0
C2980 C 0.0939 0.67156 0.60485 0.0
C2981 C 0.09397 0.68715 0.60985 0.0
C2982 C 0.08115 0.68122 0.60147 0.0
C2983 C 0.08193 0.66551 0.59488 0.0
O2984 O 0.07033 0.64146 0.58758 0.0
O2985 O 0.06508 0.65143 0.57803 0.0
O2986 O 0.07547 0.6676 0.58917 0.0
O2987 O 0.08085 0.65756 0.59864 0.0
H2988 H 0.08483 0.65177 0.57741 0.0
H2989 H 0.09732 0.6477 0.56729 0.0
H2990 H 0.08151 0.6258 0.55653 0.0
H2991 H 0.06897 0.62987 0.56668 0.0
H2992 H 0.02379 0.65058 0.59312 0.0
H2993 H 0.03941 0.6551 0.58991 0.0
H2994 H 0.03071 0.64626 0.62102 0.0
H2995 H 0.0463 0.65084 0.61789 0.0
H2996 H 0.0821 0.69487 0.60633 0.0
H2997 H 0.10472 0.67762 0.6123 0.0
H2998 H 0.09739 0.66516 0.60429 0.0
H2999 H 0.07466 0.68239 0.59832 0.0
C3000 C 0.11431 0.32462 0.32161 0.0
C3001 C 0.10785 0.33041 0.31787 0.0
C3002 C 0.11928 0.33736 0.30802 0.0
C3003 C 0.11032 0.33676 0.31134 0.0
C3004 C 0.12582 0.33211 0.31264 0.0
C3005 C 0.12333 0.32569 0.31911 0.0
U3006 U 0.09967 0.31736 0.34132 0.0
O3007 O 0.09276 0.30456 0.34436 0.0
O3008 O 0.10285 0.30992 0.35378 0.0
C3009 C 0.09733 0.30325 0.35184 0.0
C3010 C 0.11177 0.31777 0.32841 0.0
C3011 C 0.10078 0.29404 0.35334 0.0
C3012 C 0.11161 0.28197 0.35071 0.0
C3013 C 0.10857 0.29079 0.34903 0.0
C3014 C 0.09909 0.27962 0.36097 0.0
C3015 C 0.10686 0.27632 0.35669 0.0
C3016 C 0.09608 0.28839 0.3593 0.0
C3017 C 0.0823 0.33535 0.34939 0.0
C3018 C 0.07646 0.34786 0.35825 0.0
C3019 C 0.06676 0.33518 0.35477 0.0
C3020 C 0.07388 0.33102 0.35013 0.0
C3021 C 0.06798 0.34371 0.35871 0.0
C3022 C 0.08355 0.34373 0.35361 0.0
C3023 C 0.08963 0.33178 0.34363 0.0
O3024 O 0.11364 0.31985 0.33682 0.0
O3025 O 0.10373 0.31414 0.32743 0.0
O3026 O 0.08758 0.32527 0.33797 0.0
O3027 O 0.09754 0.33071 0.3475 0.0
H3028 H 0.10088 0.3301 0.32005 0.0
H3029 H 0.1051 0.34132 0.30908 0.0
H3030 H 0.13295 0.33295 0.31164 0.0
H3031 H 0.12852 0.32163 0.32229 0.0
H3032 H 0.11762 0.27953 0.34735 0.0
H3033 H 0.11228 0.29505 0.3444 0.0
H3034 H 0.09535 0.27538 0.36559 0.0
H3035 H 0.09006 0.29078 0.36269 0.0
H3036 H 0.07751 0.35445 0.36125 0.0
H3037 H 0.06024 0.33189 0.35507 0.0
H3038 H 0.0727 0.32456 0.34693 0.0
H3039 H 0.08995 0.34723 0.35309 0.0
C3040 C 0.43108 0.64144 0.43411 0.0
C3041 C 0.42293 0.64626 0.4339 0.0
C3042 C 0.41673 0.63662 0.44563 0.0
C3043 C 0.41581 0.64388 0.43962 0.0
C3044 C 0.42491 0.63184 0.44591 0.0
C3045 C 0.43205 0.63423 0.44017 0.0
U3046 U 0.43924 0.65592 0.41494 0.0
O3047 O 0.4521 0.66292 0.41235 0.0
O3048 O 0.44709 0.65285 0.40272 0.0
C3049 C 0.45366 0.65839 0.40489 0.0
C3050 C 0.43846 0.64386 0.42789 0.0
C3051 C 0.46293 0.65503 0.40358 0.0
C3052 C 0.47479 0.64386 0.40578 0.0
C3053 C 0.46597 0.64693 0.40745 0.0
C3054 C 0.47756 0.65696 0.39641 0.0
C3055 C 0.48063 0.64887 0.40022 0.0
C3056 C 0.4688 0.66001 0.39808 0.0
C3057 C 0.42116 0.67295 0.40631 0.0
C3058 C 0.42168 0.68825 0.4003 0.0
C3059 C 0.40838 0.67902 0.39801 0.0
C3060 C 0.41249 0.67193 0.40266 0.0
C3061 C 0.41286 0.68727 0.39695 0.0
C3062 C 0.42581 0.68113 0.40496 0.0
C3063 C 0.42473 0.6657 0.41213 0.0
O3064 O 0.43694 0.64193 0.41937 0.0
O3065 O 0.44183 0.65198 0.42903 0.0
O3066 O 0.43105 0.66789 0.41796 0.0
O3067 O 0.42608 0.65782 0.40829 0.0
H3068 H 0.42205 0.65184 0.42925 0.0
H3069 H 0.40955 0.64764 0.4393 0.0
H3070 H 0.42573 0.62622 0.45051 0.0
H3071 H 0.43828 0.63043 0.44043 0.0
H3072 H 0.47704 0.63759 0.40877 0.0
H3073 H 0.46153 0.64298 0.41171 0.0
H3074 H 0.48197 0.66091 0.39212 0.0
H3075 H 0.46658 0.66627 0.39502 0.0
H3076 H 0.42523 0.69458 0.39953 0.0
H3077 H 0.40158 0.67816 0.39547 0.0
H3078 H 0.40876 0.66572 0.40365 0.0
H3079 H 0.43251 0.6821 0.40771 0.0
C3080 C 0.11479 0.68155 0.18377 0.0
C3081 C 0.10999 0.67338 0.18367 0.0
C3082 C 0.11975 0.66735 0.19539 0.0
C3083 C 0.11245 0.66634 0.18945 0.0
C3084 C 0.12451 0.67555 0.19555 0.0
C3085 C 0.12204 0.68261 0.18976 0.0
U3086 U 0.10007 0.68951 0.16468 0.0
O3087 O 0.09306 0.70234 0.16205 0.0
O3088 O 0.10303 0.69724 0.15236 0.0
C3089 C 0.09753 0.70385 0.15454 0.0
C3090 C 0.11228 0.68885 0.1775 0.0
C3091 C 0.10096 0.71308 0.1532 0.0
C3092 C 0.11203 0.72496 0.15571 0.0
C3093 C 0.10892 0.71616 0.15734 0.0
C3094 C 0.09927 0.72764 0.14585 0.0
C3095 C 0.10721 0.73075 0.14994 0.0
C3096 C 0.09618 0.71888 0.14747 0.0
C3097 C 0.08292 0.67137 0.15637 0.0
C3098 C 0.06743 0.67157 0.15087 0.0
C3099 C 0.07695 0.65862 0.14795 0.0
C3100 C 0.08407 0.66282 0.15247 0.0
C3101 C 0.06854 0.66288 0.14727 0.0
C3102 C 0.07458 0.6758 0.1554 0.0
C3103 C 0.09024 0.67499 0.16209 0.0
O3104 O 0.11411 0.68724 0.16897 0.0
O3105 O 0.10417 0.69222 0.1787 0.0
O3106 O 0.08812 0.68135 0.16789 0.0
O3107 O 0.09809 0.67629 0.15817 0.0
H3108 H 0.10438 0.67244 0.17908 0.0
H3109 H 0.10871 0.66007 0.18923 0.0
H3110 H 0.13016 0.67644 0.2001 0.0
H3111 H 0.12582 0.68886 0.18991 0.0
H3112 H 0.11818 0.72725 0.15892 0.0
H3113 H 0.11271 0.71177 0.16178 0.0
H3114 H 0.09547 0.732 0.14138 0.0
H3115 H 0.09004 0.71662 0.14421 0.0
H3116 H 0.06097 0.67495 0.15039 0.0
H3117 H 0.07792 0.65191 0.14521 0.0
H3118 H 0.09041 0.65925 0.15318 0.0
H3119 H 0.07349 0.68239 0.15835 0.0
C3120 C 0.0749 0.36478 0.93367 0.0
C3121 C 0.083 0.35985 0.9337 0.0
C3122 C 0.08908 0.36961 0.94539 0.0
C3123 C 0.09002 0.36224 0.93952 0.0
C3124 C 0.08095 0.37449 0.94545 0.0
C3125 C 0.0739 0.37209 0.9396 0.0
U3126 U 0.06703 0.35006 0.91459 0.0
O3127 O 0.05415 0.34332 0.91166 0.0
O3128 O 0.05968 0.3531 0.90201 0.0
C3129 C 0.05284 0.34789 0.90417 0.0
C3130 C 0.06766 0.36238 0.92729 0.0
C3131 C 0.04369 0.35164 0.90264 0.0
C3132 C 0.02852 0.35532 0.90783 0.0
C3133 C 0.03741 0.35267 0.90969 0.0
C3134 C 0.03211 0.35625 0.89192 0.0
C3135 C 0.02577 0.357 0.89892 0.0
C3136 C 0.04098 0.35358 0.89377 0.0
C3137 C 0.08536 0.33257 0.90737 0.0
C3138 C 0.08478 0.32156 0.89521 0.0
C3139 C 0.09813 0.32271 0.9046 0.0
C3140 C 0.09406 0.3296 0.90955 0.0
C3141 C 0.09356 0.31867 0.89738 0.0
C3142 C 0.0807 0.32851 0.90019 0.0
C3143 C 0.08151 0.33999 0.91271 0.0
O3144 O 0.06949 0.36409 0.91879 0.0
O3145 O 0.06406 0.35437 0.9285 0.0
O3146 O 0.07481 0.33792 0.91814 0.0
O3147 O 0.08037 0.34771 0.90851 0.0
H3148 H 0.0839 0.3542 0.92916 0.0
H3149 H 0.09625 0.35841 0.93938 0.0
H3150 H 0.08012 0.38019 0.94994 0.0
H3151 H 0.06771 0.37597 0.93966 0.0
H3152 H 0.02372 0.35585 0.91332 0.0
H3153 H 0.0393 0.35122 0.9166 0.0
H3154 H 0.03012 0.35751 0.88501 0.0
H3155 H 0.04567 0.35279 0.88822 0.0
H3156 H 0.08116 0.31848 0.88966 0.0
H3157 H 0.10489 0.32055 0.90638 0.0
H3158 H 0.09775 0.33265 0.91507 0.0
H3159 H 0.07396 0.33073 0.89843 0.0
C3160 C 0.39143 0.32478 0.6828 0.0
C3161 C 0.39635 0.33287 0.68299 0.0
C3162 C 0.3863 0.3389 0.69446 0.0
C3163 C 0.39381 0.33987 0.68878 0.0
C3164 C 0.38141 0.33077 0.69435 0.0
C3165 C 0.38396 0.32375 0.68853 0.0
U3166 U 0.40672 0.31708 0.66415 0.0
O3167 O 0.41371 0.30426 0.66146 0.0
O3168 O 0.40419 0.3097 0.65152 0.0
C3169 C 0.4095 0.30296 0.65377 0.0
C3170 C 0.39403 0.31756 0.67649 0.0
C3171 C 0.40592 0.29382 0.6522 0.0
C3172 C 0.39525 0.2817 0.65524 0.0
C3173 C 0.39841 0.29048 0.65691 0.0
C3174 C 0.40708 0.27958 0.64415 0.0
C3175 C 0.3996 0.27619 0.64886 0.0
C3176 C 0.4102 0.28831 0.64581 0.0
C3177 C 0.42426 0.33543 0.65732 0.0
C3178 C 0.43546 0.33473 0.64534 0.0
C3179 C 0.43422 0.34814 0.65463 0.0
C3180 C 0.42724 0.34413 0.6595 0.0
C3181 C 0.43834 0.34351 0.64749 0.0
C3182 C 0.42842 0.33071 0.65024 0.0
C3183 C 0.41672 0.33164 0.66253 0.0
O3184 O 0.39255 0.31938 0.66794 0.0
O3185 O 0.40204 0.31403 0.67792 0.0
O3186 O 0.41867 0.32499 0.66806 0.0
O3187 O 0.40911 0.33044 0.65815 0.0
H3188 H 0.40212 0.3338 0.6786 0.0
H3189 H 0.39765 0.34608 0.68877 0.0
H3190 H 0.3756 0.32991 0.69869 0.0
H3191 H 0.38008 0.31756 0.68847 0.0
H3192 H 0.38947 0.2792 0.65893 0.0
H3193 H 0.39501 0.29464 0.66187 0.0
H3194 H 0.41051 0.27543 0.63921 0.0
H3195 H 0.41601 0.29077 0.6421 0.0
H3196 H 0.43859 0.33107 0.63986 0.0
H3197 H 0.43637 0.3549 0.65639 0.0
H3198 H 0.42411 0.34786 0.66495 0.0
H3199 H 0.42619 0.32398 0.64848 0.0
C3200 C 0.07424 0.4304 0.3662 0.0
C3201 C 0.07385 0.42237 0.3612 0.0
C3202 C 0.06226 0.41653 0.37122 0.0
C3203 C 0.0679 0.41549 0.36369 0.0
C3204 C 0.06259 0.4246 0.37619 0.0
C3205 C 0.06856 0.43149 0.37369 0.0
U3206 U 0.09327 0.43786 0.35116 0.0
O3207 O 0.09619 0.45062 0.34419 0.0
O3208 O 0.10592 0.4452 0.35397 0.0
C3209 C 0.10372 0.45199 0.3487 0.0
C3210 C 0.08071 0.43751 0.36365 0.0
C3211 C 0.10523 0.46117 0.35236 0.0
C3212 C 0.10001 0.47639 0.3558 0.0
C3213 C 0.09817 0.46746 0.35326 0.0
C3214 C 0.11591 0.47281 0.35691 0.0
C3215 C 0.10891 0.47916 0.35751 0.0
C3216 C 0.11408 0.46391 0.35434 0.0
C3217 C 0.10008 0.41929 0.33375 0.0
C3218 C 0.1122 0.41952 0.32267 0.0
C3219 C 0.10229 0.40655 0.3237 0.0
C3220 C 0.09755 0.41072 0.33067 0.0
C3221 C 0.10967 0.41088 0.31967 0.0
C3222 C 0.10742 0.42371 0.32971 0.0
C3223 C 0.09491 0.42327 0.34122 0.0
O3224 O 0.08921 0.43558 0.36527 0.0
O3225 O 0.07945 0.44103 0.35561 0.0
O3226 O 0.08948 0.42996 0.33917 0.0
O3227 O 0.09925 0.42447 0.34886 0.0
H3228 H 0.0782 0.42139 0.35541 0.0
H3229 H 0.06773 0.40932 0.35979 0.0
H3230 H 0.05828 0.4255 0.38202 0.0
H3231 H 0.06879 0.43764 0.37763 0.0
H3232 H 0.09452 0.48119 0.35621 0.0
H3233 H 0.09127 0.46556 0.35178 0.0
H3234 H 0.12282 0.47482 0.35819 0.0
H3235 H 0.11964 0.45922 0.35366 0.0
H3236 H 0.11787 0.42297 0.31961 0.0
H3237 H 0.10024 0.3999 0.32146 0.0
H3238 H 0.09189 0.40721 0.33371 0.0
H3239 H 0.10946 0.43034 0.332 0.0
C3240 C 0.32561 0.32306 0.11588 0.0
C3241 C 0.33361 0.32299 0.1108 0.0
C3242 C 0.33999 0.31159 0.12069 0.0
C3243 C 0.34074 0.3173 0.11318 0.0
C3244 C 0.33195 0.31156 0.12572 0.0
C3245 C 0.3248 0.31728 0.12333 0.0
U3246 U 0.31742 0.34187 0.10103 0.0
O3247 O 0.30445 0.34463 0.09437 0.0
O3248 O 0.31 0.35443 0.104 0.0
C3249 C 0.30312 0.35215 0.09889 0.0
C3250 C 0.31828 0.32933 0.11349 0.0
C3251 C 0.294 0.35363 0.10272 0.0
C3252 C 0.27885 0.34836 0.10642 0.0
C3253 C 0.28774 0.34655 0.10373 0.0
C3254 C 0.2824 0.36427 0.10745 0.0
C3255 C 0.27608 0.35726 0.10816 0.0
C3256 C 0.29126 0.36247 0.10474 0.0
C3257 C 0.33549 0.34905 0.08326 0.0
C3258 C 0.33455 0.36087 0.07192 0.0
C3259 C 0.34821 0.35201 0.07339 0.0
C3260 C 0.34429 0.34711 0.08039 0.0
C3261 C 0.34341 0.35895 0.06913 0.0
C3262 C 0.3306 0.35595 0.07899 0.0
C3263 C 0.33177 0.34376 0.09078 0.0
O3264 O 0.32005 0.33787 0.11508 0.0
O3265 O 0.31461 0.328 0.10553 0.0
O3266 O 0.3251 0.33825 0.08885 0.0
O3267 O 0.33068 0.34803 0.09847 0.0
H3268 H 0.33437 0.32742 0.10503 0.0
H3269 H 0.34688 0.31741 0.10923 0.0
H3270 H 0.33126 0.30719 0.13154 0.0
H3271 H 0.31869 0.31725 0.12733 0.0
H3272 H 0.27406 0.34287 0.10691 0.0
H3273 H 0.28964 0.33966 0.10222 0.0
H3274 H 0.28039 0.37118 0.10875 0.0
H3275 H 0.29593 0.36804 0.10397 0.0
H3276 H 0.33074 0.3662 0.06868 0.0
H3277 H 0.35504 0.35042 0.07131 0.0
H3278 H 0.34815 0.3418 0.08361 0.0
H3279 H 0.32379 0.35752 0.08113 0.0
C3280 C 0.43338 0.57594 0.86506 0.0
C3281 C 0.43344 0.58408 0.86021 0.0
C3282 C 0.44498 0.59011 0.87017 0.0
C3283 C 0.4392 0.5911 0.86274 0.0
C3284 C 0.44501 0.58194 0.87497 0.0
C3285 C 0.43923 0.57489 0.87243 0.0
U3286 U 0.41461 0.56794 0.84995 0.0
O3287 O 0.41189 0.555 0.84323 0.0
O3288 O 0.40203 0.56052 0.85281 0.0
C3289 C 0.40434 0.55365 0.8477 0.0
C3290 C 0.42707 0.56869 0.86252 0.0
C3291 C 0.40284 0.54452 0.85151 0.0
C3292 C 0.40794 0.52923 0.85479 0.0
C3293 C 0.40982 0.53811 0.85212 0.0
C3294 C 0.39217 0.53309 0.85658 0.0
C3295 C 0.39907 0.52662 0.8569 0.0
C3296 C 0.39404 0.54194 0.85389 0.0
C3297 C 0.40747 0.586 0.83221 0.0
C3298 C 0.39573 0.58494 0.82078 0.0
C3299 C 0.4044 0.59871 0.82236 0.0
C3300 C 0.40931 0.59483 0.82938 0.0
C3301 C 0.39755 0.59383 0.81804 0.0
C3302 C 0.40066 0.58104 0.82787 0.0
C3303 C 0.41276 0.58232 0.83974 0.0
O3304 O 0.41853 0.57049 0.86404 0.0
O3305 O 0.42846 0.5651 0.85453 0.0
O3306 O 0.4183 0.57567 0.83783 0.0
O3307 O 0.40847 0.58121 0.84742 0.0
H3308 H 0.42896 0.58502 0.85451 0.0
H3309 H 0.43909 0.59735 0.85896 0.0
H3310 H 0.44944 0.58106 0.88071 0.0
H3311 H 0.43926 0.56867 0.87626 0.0
H3312 H 0.41335 0.52432 0.85497 0.0
H3313 H 0.41668 0.53987 0.85032 0.0
H3314 H 0.38528 0.53121 0.85817 0.0
H3315 H 0.38853 0.54673 0.85343 0.0
H3316 H 0.39047 0.58108 0.8175 0.0
H3317 H 0.40591 0.60556 0.82032 0.0
H3318 H 0.41454 0.59875 0.83265 0.0
H3319 H 0.39916 0.5742 0.82997 0.0
C3320 C 0.1821 0.68354 0.61503 0.0
C3321 C 0.17401 0.68362 0.6101 0.0
C3322 C 0.16782 0.69503 0.6201 0.0
C3323 C 0.16693 0.68932 0.61261 0.0
C3324 C 0.17594 0.69504 0.625 0.0
C3325 C 0.18304 0.68931 0.62248 0.0
U3326 U 0.18995 0.66496 0.59979 0.0
O3327 O 0.20277 0.66232 0.59276 0.0
O3328 O 0.19738 0.65235 0.60229 0.0
C3329 C 0.20408 0.6546 0.59693 0.0
C3330 C 0.1894 0.6773 0.61246 0.0
C3331 C 0.21326 0.65294 0.60038 0.0
C3332 C 0.22568 0.65604 0.61067 0.0
C3333 C 0.21687 0.65782 0.60765 0.0
C3334 C 0.22728 0.64451 0.5992 0.0
C3335 C 0.23095 0.64938 0.60643 0.0
C3336 C 0.21852 0.64628 0.59621 0.0
C3337 C 0.17158 0.65801 0.58233 0.0
C3338 C 0.17246 0.64618 0.57099 0.0
C3339 C 0.1588 0.65505 0.57254 0.0
C3340 C 0.16277 0.65996 0.57952 0.0
C3341 C 0.16357 0.6481 0.56826 0.0
C3342 C 0.17645 0.65111 0.57802 0.0
C3343 C 0.17536 0.66326 0.58984 0.0
O3344 O 0.18767 0.66874 0.61397 0.0
O3345 O 0.19293 0.67874 0.60445 0.0
O3346 O 0.18197 0.66881 0.58787 0.0
O3347 O 0.1766 0.6589 0.59746 0.0
H3348 H 0.17315 0.6792 0.60434 0.0
H3349 H 0.16072 0.68922 0.60875 0.0
H3350 H 0.17673 0.69941 0.6308 0.0
H3351 H 0.18923 0.68934 0.62637 0.0
H3352 H 0.2284 0.65987 0.61627 0.0
H3353 H 0.21291 0.66299 0.61096 0.0
H3354 H 0.23123 0.63935 0.59585 0.0
H3355 H 0.21584 0.64244 0.59059 0.0
H3356 H 0.17623 0.64084 0.56774 0.0
H3357 H 0.15196 0.65663 0.57052 0.0
H3358 H 0.15893 0.66526 0.58277 0.0
H3359 H 0.18327 0.64953 0.58013 0.0
C3360 C 0.07347 0.57531 0.14145 0.0
C3361 C 0.07342 0.58343 0.14632 0.0
C3362 C 0.0618 0.58946 0.13645 0.0
C3363 C 0.06762 0.59044 0.14385 0.0
C3364 C 0.0618 0.58132 0.1316 0.0
C3365 C 0.06761 0.57428 0.13408 0.0
U3366 U 0.09249 0.56736 0.15627 0.0
O3367 O 0.09506 0.55453 0.16332 0.0
O3368 O 0.10481 0.55959 0.15339 0.0
C3369 C 0.10259 0.553 0.15889 0.0
C3370 C 0.07974 0.56802 0.14399 0.0
C3371 C 0.10393 0.54375 0.1555 0.0
C3372 C 0.10162 0.53189 0.14436 0.0
C3373 C 0.09997 0.5407 0.14744 0.0
C3374 C 0.11112 0.52914 0.15737 0.0
C3375 C 0.10722 0.52606 0.14932 0.0
C3376 C 0.10948 0.5379 0.16043 0.0
C3377 C 0.10074 0.58549 0.17346 0.0
C3378 C 0.10634 0.58512 0.18891 0.0
C3379 C 0.10899 0.59827 0.17958 0.0
C3380 C 0.10449 0.59411 0.17242 0.0
C3381 C 0.10979 0.59388 0.18792 0.0
C3382 C 0.10183 0.58094 0.18172 0.0
C3383 C 0.09505 0.58188 0.1661 0.0
O3384 O 0.08828 0.56964 0.14221 0.0
O3385 O 0.07849 0.56465 0.1521 0.0
O3386 O 0.08922 0.57553 0.1682 0.0
O3387 O 0.09903 0.58056 0.15829 0.0
H3388 H 0.07791 0.58435 0.15202 0.0
H3389 H 0.06771 0.59667 0.14767 0.0
H3390 H 0.05734 0.58045 0.12587 0.0
H3391 H 0.06757 0.56807 0.13024 0.0
H3392 H 0.09855 0.52963 0.13813 0.0
H3393 H 0.09567 0.54513 0.14353 0.0
H3394 H 0.11545 0.52474 0.16129 0.0
H3395 H 0.1126 0.54013 0.16665 0.0
H3396 H 0.10691 0.58164 0.19531 0.0
H3397 H 0.11162 0.60503 0.1787 0.0
H3398 H 0.10369 0.59777 0.16615 0.0
H3399 H 0.09899 0.57428 0.18271 0.0
C3400 C 0.18165 0.32297 0.89244 0.0
C3401 C 0.17347 0.32318 0.89722 0.0
C3402 C 0.16729 0.31154 0.88746 0.0
C3403 C 0.16635 0.3175 0.89475 0.0
C3404 C 0.1755 0.31126 0.88272 0.0
C3405 C 0.18264 0.31695 0.8852 0.0
U3406 U 0.18978 0.34203 0.90707 0.0
O3407 O 0.20264 0.34459 0.91408 0.0
O3408 O 0.1976 0.35428 0.90408 0.0
C3409 C 0.20419 0.35208 0.90958 0.0
C3410 C 0.18901 0.32917 0.89492 0.0
C3411 C 0.21344 0.35337 0.90615 0.0
C3412 C 0.22527 0.35094 0.89501 0.0
C3413 C 0.21647 0.3493 0.89814 0.0
C3414 C 0.22804 0.36064 0.90787 0.0
C3415 C 0.2311 0.35664 0.89986 0.0
C3416 C 0.2193 0.35901 0.91098 0.0
C3417 C 0.1716 0.35051 0.92415 0.0
C3418 C 0.17163 0.35591 0.93968 0.0
C3419 C 0.15885 0.35903 0.92997 0.0
C3420 C 0.16311 0.35452 0.92289 0.0
C3421 C 0.16298 0.3596 0.93846 0.0
C3422 C 0.17592 0.35138 0.93257 0.0
C3423 C 0.17525 0.34476 0.91687 0.0
O3424 O 0.18749 0.3377 0.89305 0.0
O3425 O 0.19237 0.32797 0.90304 0.0
O3426 O 0.18158 0.33894 0.91904 0.0
O3427 O 0.1766 0.34864 0.90901 0.0
H3428 H 0.17257 0.32779 0.90281 0.0
H3429 H 0.16006 0.31782 0.89847 0.0
H3430 H 0.17633 0.30669 0.87708 0.0
H3431 H 0.1889 0.31671 0.88143 0.0
H3432 H 0.22752 0.3478 0.8888 0.0
H3433 H 0.21204 0.34494 0.89431 0.0
H3434 H 0.23244 0.36505 0.9117 0.0
H3435 H 0.21708 0.36222 0.91717 0.0
H3436 H 0.1749 0.3563 0.9462 0.0
H3437 H 0.15218 0.36184 0.92892 0.0
H3438 H 0.15963 0.35388 0.91649 0.0
H3439 H 0.18246 0.34834 0.93374 0.0
C3440 C 0.43384 0.43107 0.64148 0.0
C3441 C 0.43378 0.42291 0.64629 0.0
C3442 C 0.4453 0.41678 0.63636 0.0
C3443 C 0.43947 0.41583 0.64376 0.0
C3444 C 0.44543 0.42496 0.63158 0.0
C3445 C 0.43972 0.43206 0.63412 0.0
U3446 U 0.4149 0.43912 0.65633 0.0
O3447 O 0.41242 0.45194 0.66343 0.0
O3448 O 0.40264 0.44699 0.65348 0.0
C3449 C 0.40489 0.45354 0.65901 0.0
C3450 C 0.42766 0.43841 0.64406 0.0
C3451 C 0.40359 0.46281 0.65567 0.0
C3452 C 0.40631 0.47485 0.64483 0.0
C3453 C 0.40791 0.46602 0.64786 0.0
C3454 C 0.39613 0.4773 0.65738 0.0
C3455 C 0.40039 0.48055 0.64959 0.0
C3456 C 0.39772 0.46852 0.6604 0.0
C3457 C 0.40642 0.42096 0.67337 0.0
C3458 C 0.40102 0.42103 0.6889 0.0
C3459 C 0.39772 0.40832 0.67917 0.0
C3460 C 0.4023 0.41253 0.6721 0.0
C3461 C 0.39719 0.41246 0.68766 0.0
C3462 C 0.40562 0.42526 0.68179 0.0
C3463 C 0.41218 0.42457 0.66607 0.0
O3464 O 0.41911 0.4369 0.64226 0.0
O3465 O 0.42893 0.44172 0.65219 0.0
O3466 O 0.41805 0.43085 0.66822 0.0
O3467 O 0.40826 0.42596 0.65824 0.0
H3468 H 0.42928 0.42201 0.65198 0.0
H3469 H 0.43928 0.40957 0.64753 0.0
H3470 H 0.44989 0.4258 0.62585 0.0
H3471 H 0.43985 0.4383 0.63032 0.0
H3472 H 0.40966 0.47724 0.63879 0.0
H3473 H 0.41246 0.4617 0.64412 0.0
H3474 H 0.39155 0.48159 0.66114 0.0
H3475 H 0.39432 0.46616 0.66642 0.0
H3476 H 0.40067 0.42431 0.69542 0.0
H3477 H 0.39481 0.4017 0.67811 0.0
H3478 H 0.40288 0.40905 0.66569 0.0
H3479 H 0.40874 0.43176 0.68297 0.0
C3480 C 0.32521 0.68355 0.39141 0.0
C3481 C 0.33332 0.68359 0.3963 0.0
C3482 C 0.33944 0.6951 0.38636 0.0
C3483 C 0.34038 0.68932 0.3938 0.0
C3484 C 0.33129 0.69514 0.38151 0.0
C3485 C 0.32421 0.68938 0.38402 0.0
U3486 U 0.31734 0.66482 0.40653 0.0
O3487 O 0.30451 0.66221 0.41357 0.0
O3488 O 0.3098 0.65231 0.40391 0.0
C3489 C 0.30312 0.65457 0.40929 0.0
C3490 C 0.31791 0.67729 0.39398 0.0
C3491 C 0.29392 0.65309 0.40579 0.0
C3492 C 0.28208 0.65542 0.39464 0.0
C3493 C 0.29087 0.65711 0.39777 0.0
C3494 C 0.27936 0.64572 0.40752 0.0
C3495 C 0.27627 0.64971 0.39951 0.0
C3496 C 0.28811 0.64741 0.41063 0.0
C3497 C 0.3357 0.65761 0.42391 0.0
C3498 C 0.33465 0.64597 0.43544 0.0
C3499 C 0.34852 0.65445 0.43358 0.0
C3500 C 0.34459 0.65935 0.42658 0.0
C3501 C 0.34361 0.64771 0.43804 0.0
C3502 C 0.3307 0.6509 0.42837 0.0
C3503 C 0.33194 0.66293 0.41643 0.0
O3504 O 0.31963 0.66874 0.39238 0.0
O3505 O 0.31443 0.67867 0.40202 0.0
O3506 O 0.32537 0.66852 0.41846 0.0
O3507 O 0.33065 0.65863 0.40879 0.0
H3508 H 0.33422 0.67912 0.40202 0.0
H3509 H 0.34661 0.6892 0.39761 0.0
H3510 H 0.33046 0.69956 0.37576 0.0
H3511 H 0.318 0.68943 0.38017 0.0
H3512 H 0.27981 0.65855 0.38844 0.0
H3513 H 0.29527 0.66151 0.39394 0.0
H3514 H 0.27499 0.64131 0.41137 0.0
H3515 H 0.29034 0.64424 0.41682 0.0
H3516 H 0.33077 0.6408 0.43883 0.0
H3517 H 0.35542 0.65589 0.43551 0.0
H3518 H 0.34853 0.66451 0.42321 0.0
H3519 H 0.32382 0.64949 0.42639 0.0
C3520 C 0.36522 0.07347 0.43129 0.0
C3521 C 0.36033 0.07338 0.42318 0.0
C3522 C 0.37034 0.06192 0.41708 0.0
C3523 C 0.36286 0.06764 0.41613 0.0
C3524 C 0.3752 0.06194 0.42522 0.0
C3525 C 0.37266 0.0677 0.43228 0.0
U3526 U 0.35001 0.09213 0.43911 0.0
O3527 O 0.34295 0.09473 0.45192 0.0
O3528 O 0.35256 0.10467 0.44663 0.0
C3529 C 0.34719 0.10239 0.45331 0.0
C3530 C 0.36262 0.07973 0.43856 0.0
C3531 C 0.3507 0.10388 0.4625 0.0
C3532 C 0.36167 0.10127 0.47444 0.0
C3533 C 0.35855 0.09961 0.46565 0.0
C3534 C 0.34913 0.11145 0.47696 0.0
C3535 C 0.35696 0.1072 0.48016 0.0
C3536 C 0.34603 0.1098 0.46822 0.0
C3537 C 0.33259 0.09926 0.42078 0.0
C3538 C 0.32137 0.11121 0.42168 0.0
C3539 C 0.3227 0.10223 0.40808 0.0
C3540 C 0.32967 0.09728 0.41201 0.0
C3541 C 0.31854 0.10925 0.41284 0.0
C3542 C 0.3284 0.10624 0.42564 0.0
C3543 C 0.34009 0.09396 0.42452 0.0
O3544 O 0.36417 0.08828 0.43684 0.0
O3545 O 0.35459 0.07831 0.44204 0.0
O3546 O 0.33808 0.08837 0.43109 0.0
O3547 O 0.34772 0.09828 0.4258 0.0
H3548 H 0.35457 0.0778 0.42227 0.0
H3549 H 0.35903 0.06772 0.40991 0.0
H3550 H 0.38099 0.05756 0.42605 0.0
H3551 H 0.37652 0.06769 0.43848 0.0
H3552 H 0.36774 0.09794 0.47679 0.0
H3553 H 0.36225 0.09502 0.46132 0.0
H3554 H 0.34541 0.11603 0.48127 0.0
H3555 H 0.33996 0.11316 0.4659 0.0
H3556 H 0.31821 0.1166 0.42546 0.0
H3557 H 0.32059 0.10062 0.40127 0.0
H3558 H 0.33283 0.09192 0.40818 0.0
H3559 H 0.33058 0.10784 0.43242 0.0
C3560 C 0.86518 0.43265 0.57555 0.0
C3561 C 0.86026 0.43274 0.58364 0.0
C3562 C 0.87026 0.44418 0.58979 0.0
C3563 C 0.86277 0.43847 0.5907 0.0
C3564 C 0.87515 0.44417 0.58167 0.0
C3565 C 0.87263 0.43843 0.57459 0.0
U3566 U 0.8499 0.4141 0.56762 0.0
O3567 O 0.843 0.41147 0.55473 0.0
O3568 O 0.85245 0.40148 0.56021 0.0
C3569 C 0.84718 0.40375 0.55345 0.0
C3570 C 0.86262 0.4264 0.56826 0.0
C3571 C 0.85074 0.40212 0.54431 0.0
C3572 C 0.86096 0.40552 0.5319 0.0
C3573 C 0.85787 0.40722 0.5407 0.0
C3574 C 0.84986 0.39362 0.53032 0.0
C3575 C 0.85693 0.39873 0.52663 0.0
C3576 C 0.8468 0.39531 0.53907 0.0
C3577 C 0.83222 0.40723 0.58582 0.0
C3578 C 0.82087 0.3954 0.5849 0.0
C3579 C 0.82224 0.40441 0.59849 0.0
C3580 C 0.82928 0.40927 0.59456 0.0
C3581 C 0.81802 0.39741 0.59373 0.0
C3582 C 0.82797 0.40029 0.58096 0.0
C3583 C 0.8398 0.41244 0.5821 0.0
O3584 O 0.86407 0.41783 0.57004 0.0
O3585 O 0.85464 0.42786 0.56468 0.0
O3586 O 0.83791 0.418 0.57546 0.0
O3587 O 0.84741 0.40804 0.58094 0.0
H3588 H 0.8545 0.42833 0.58452 0.0
H3589 H 0.85892 0.43838 0.59692 0.0
H3590 H 0.88095 0.44855 0.58086 0.0
H3591 H 0.87651 0.43844 0.5684 0.0
H3592 H 0.86643 0.40952 0.52917 0.0
H3593 H 0.861 0.41251 0.54465 0.0
H3594 H 0.84668 0.38836 0.52637 0.0
H3595 H 0.8413 0.3913 0.54175 0.0
H3596 H 0.81767 0.39003 0.58114 0.0
H3597 H 0.82012 0.40606 0.60529 0.0
H3598 H 0.83248 0.41461 0.5984 0.0
H3599 H 0.83017 0.39863 0.57419 0.0
C3600 C 0.32307 0.11539 0.32566 0.0
C3601 C 0.32292 0.11047 0.33375 0.0
C3602 C 0.31147 0.12051 0.33982 0.0
C3603 C 0.31716 0.113 0.34077 0.0
C3604 C 0.31154 0.12539 0.33169 0.0
C3605 C 0.31732 0.12284 0.32465 0.0
U3606 U 0.34198 0.1004 0.31783 0.0
O3607 O 0.3448 0.09355 0.30498 0.0
O3608 O 0.35456 0.10328 0.31042 0.0
C3609 C 0.35232 0.09806 0.3036 0.0
C3610 C 0.3294 0.11285 0.31842 0.0
C3611 C 0.35382 0.10177 0.29444 0.0
C3612 C 0.34869 0.10498 0.27914 0.0
C3613 C 0.34682 0.10241 0.28805 0.0
C3614 C 0.3645 0.10663 0.28292 0.0
C3615 C 0.35757 0.10697 0.27648 0.0
C3616 C 0.36264 0.10403 0.29181 0.0
C3617 C 0.34926 0.08294 0.33611 0.0
C3618 C 0.36071 0.07124 0.33496 0.0
C3619 C 0.35268 0.0735 0.34903 0.0
C3620 C 0.34776 0.08049 0.34511 0.0
C3621 C 0.35921 0.06885 0.34402 0.0
C3622 C 0.35576 0.07829 0.33101 0.0
C3623 C 0.34389 0.09038 0.33234 0.0
O3624 O 0.33793 0.11448 0.32022 0.0
O3625 O 0.3281 0.10482 0.31491 0.0
O3626 O 0.33838 0.08834 0.3257 0.0
O3627 O 0.3481 0.09808 0.33116 0.0
H3628 H 0.32732 0.10471 0.33466 0.0
H3629 H 0.31719 0.10917 0.34699 0.0
H3630 H 0.30719 0.1312 0.33085 0.0
H3631 H 0.31736 0.12672 0.31846 0.0
H3632 H 0.34326 0.1052 0.27425 0.0
H3633 H 0.33995 0.10071 0.28986 0.0
H3634 H 0.37139 0.10812 0.281 0.0
H3635 H 0.36816 0.10354 0.29658 0.0
H3636 H 0.36572 0.0677 0.331 0.0
H3637 H 0.35143 0.07173 0.35601 0.0
H3638 H 0.34276 0.084 0.34912 0.0
H3639 H 0.35699 0.0801 0.32404 0.0
C3640 C 0.64169 0.57318 0.07524 0.0
C3641 C 0.64655 0.57327 0.08337 0.0
C3642 C 0.63672 0.5617 0.08955 0.0
C3643 C 0.64409 0.56757 0.09047 0.0
C3644 C 0.6319 0.56153 0.08139 0.0
C3645 C 0.63437 0.56725 0.07427 0.0
U3646 U 0.65649 0.59211 0.06711 0.0
O3647 O 0.66336 0.59472 0.0542 0.0
O3648 O 0.65356 0.6045 0.05946 0.0
C3649 C 0.65897 0.6023 0.05279 0.0
C3650 C 0.64417 0.57942 0.0679 0.0
C3651 C 0.65547 0.60375 0.04359 0.0
C3652 C 0.64539 0.60012 0.03114 0.0
C3653 C 0.64845 0.59852 0.03997 0.0
C3654 C 0.6563 0.61219 0.02956 0.0
C3655 C 0.64934 0.60696 0.02587 0.0
C3656 C 0.65934 0.6106 0.03834 0.0
C3657 C 0.67392 0.60025 0.08508 0.0
C3658 C 0.67987 0.60899 0.09763 0.0
C3659 C 0.6896 0.60522 0.08505 0.0
C3660 C 0.6824 0.60076 0.08083 0.0
C3661 C 0.6884 0.6092 0.09356 0.0
C3662 C 0.6727 0.60454 0.09344 0.0
C3663 C 0.66652 0.59459 0.08152 0.0
O3664 O 0.64244 0.58796 0.06953 0.0
O3665 O 0.65223 0.57814 0.06443 0.0
O3666 O 0.66852 0.58878 0.07512 0.0
O3667 O 0.65868 0.59856 0.08033 0.0
H3668 H 0.65221 0.57781 0.08425 0.0
H3669 H 0.64788 0.56779 0.09671 0.0
H3670 H 0.6262 0.55704 0.08058 0.0
H3671 H 0.63054 0.56711 0.06805 0.0
H3672 H 0.63999 0.59603 0.02841 0.0
H3673 H 0.64538 0.59321 0.04394 0.0
H3674 H 0.65943 0.61749 0.02561 0.0
H3675 H 0.66475 0.61471 0.04102 0.0
H3676 H 0.67883 0.61202 0.1042 0.0
H3677 H 0.69616 0.60533 0.08183 0.0
H3678 H 0.68356 0.5975 0.0744 0.0
H3679 H 0.66626 0.60418 0.09688 0.0
C3680 C 0.68345 0.39058 0.3259 0.0
C3681 C 0.69185 0.38666 0.32393 0.0
C3682 C 0.69548 0.38608 0.33993 0.0
C3683 C 0.69785 0.38444 0.3309 0.0
C3684 C 0.68711 0.39002 0.34189 0.0
C3685 C 0.68116 0.39229 0.33494 0.0
U3686 U 0.66431 0.4052 0.3178 0.0
O3687 O 0.66151 0.41196 0.3049 0.0
O3688 O 0.65188 0.40207 0.31026 0.0
C3689 C 0.65408 0.40732 0.30346 0.0
C3690 C 0.67718 0.39307 0.31857 0.0
C3691 C 0.65268 0.4036 0.29429 0.0
C3692 C 0.65788 0.40049 0.27899 0.0
C3693 C 0.65969 0.40311 0.2879 0.0
C3694 C 0.6421 0.39852 0.28276 0.0
C3695 C 0.64904 0.39831 0.27633 0.0
C3696 C 0.64391 0.40115 0.29165 0.0
C3697 C 0.65645 0.42244 0.33608 0.0
C3698 C 0.64585 0.4349 0.33461 0.0
C3699 C 0.65224 0.43125 0.34922 0.0
C3700 C 0.65711 0.4242 0.34534 0.0
C3701 C 0.64659 0.43666 0.3439 0.0
C3702 C 0.65077 0.4278 0.3307 0.0
C3703 C 0.66199 0.41513 0.33231 0.0
O3704 O 0.66865 0.3912 0.3201 0.0
O3705 O 0.67839 0.40116 0.31514 0.0
O3706 O 0.66753 0.41731 0.32574 0.0
O3707 O 0.65796 0.40734 0.33107 0.0
H3708 H 0.69377 0.38534 0.317 0.0
H3709 H 0.70431 0.38144 0.32928 0.0
H3710 H 0.6852 0.39138 0.34882 0.0
H3711 H 0.67476 0.39541 0.33662 0.0
H3712 H 0.66332 0.40039 0.27411 0.0
H3713 H 0.66652 0.40496 0.28972 0.0
H3714 H 0.63525 0.39689 0.28083 0.0
H3715 H 0.63838 0.40153 0.29641 0.0
H3716 H 0.64153 0.43903 0.33042 0.0
H3717 H 0.65289 0.43252 0.35639 0.0
H3718 H 0.66147 0.42015 0.34958 0.0
H3719 H 0.65019 0.42654 0.32353 0.0
C3720 C 0.14129 0.93288 0.93117 0.0
C3721 C 0.1462 0.93307 0.92307 0.0
C3722 C 0.13604 0.9444 0.91699 0.0
C3723 C 0.1436 0.93879 0.91604 0.0
C3724 C 0.13116 0.94429 0.92512 0.0
C3725 C 0.13377 0.93855 0.93217 0.0
U3726 U 0.15671 0.91437 0.93898 0.0
O3727 O 0.16372 0.91181 0.95183 0.0
O3728 O 0.15425 0.90178 0.94645 0.0
C3729 C 0.15955 0.9041 0.95317 0.0
C3730 C 0.14395 0.92663 0.93843 0.0
C3731 C 0.15601 0.90254 0.96233 0.0
C3732 C 0.1451 0.90525 0.97432 0.0
C3733 C 0.14825 0.90694 0.96554 0.0
C3734 C 0.15742 0.89477 0.97671 0.0
C3735 C 0.1497 0.89916 0.97997 0.0
C3736 C 0.16055 0.89645 0.96797 0.0
C3737 C 0.17428 0.90752 0.92067 0.0
C3738 C 0.18566 0.89572 0.92154 0.0
C3739 C 0.18419 0.9047 0.90795 0.0
C3740 C 0.17716 0.90955 0.91191 0.0
C3741 C 0.18845 0.89772 0.91269 0.0
C3742 C 0.17858 0.9006 0.92552 0.0
C3743 C 0.16671 0.91271 0.92443 0.0
O3744 O 0.14251 0.91806 0.93667 0.0
O3745 O 0.15195 0.92813 0.94194 0.0
O3746 O 0.16863 0.91829 0.93104 0.0
O3747 O 0.15913 0.90829 0.92566 0.0
H3748 H 0.15201 0.92873 0.92217 0.0
H3749 H 0.14744 0.93878 0.90982 0.0
H3750 H 0.12531 0.94859 0.92595 0.0
H3751 H 0.12989 0.93848 0.93836 0.0
H3752 H 0.13912 0.90869 0.97673 0.0
H3753 H 0.14466 0.91166 0.96128 0.0
H3754 H 0.16105 0.89006 0.98095 0.0
H3755 H 0.16654 0.89299 0.96561 0.0
H3756 H 0.1889 0.89036 0.9253 0.0
H3757 H 0.18626 0.90634 0.90113 0.0
H3758 H 0.17393 0.91487 0.90808 0.0
H3759 H 0.17643 0.89895 0.9323 0.0
C3760 C 0.32305 0.89095 0.18103 0.0
C3761 C 0.32512 0.89306 0.17202 0.0
C3762 C 0.31098 0.88644 0.16704 0.0
C3763 C 0.31915 0.89079 0.16508 0.0
C3764 C 0.30883 0.88441 0.17605 0.0
C3765 C 0.31486 0.88663 0.183 0.0
U3766 U 0.3421 0.90572 0.18891 0.0
O3767 O 0.34496 0.91259 0.20174 0.0
O3768 O 0.35464 0.90275 0.19635 0.0
C3769 C 0.35244 0.90802 0.20314 0.0
C3770 C 0.32934 0.89347 0.18832 0.0
C3771 C 0.35391 0.90432 0.21231 0.0
C3772 C 0.3487 0.90091 0.22753 0.0
C3773 C 0.34687 0.90353 0.21863 0.0
C3774 C 0.36457 0.89955 0.22388 0.0
C3775 C 0.35759 0.89903 0.23025 0.0
C3776 C 0.36275 0.90219 0.215 0.0
C3777 C 0.34959 0.92298 0.17052 0.0
C3778 C 0.36143 0.9343 0.17145 0.0
C3779 C 0.35275 0.93263 0.15769 0.0
C3780 C 0.34778 0.92569 0.16166 0.0
C3781 C 0.35962 0.93696 0.16253 0.0
C3782 C 0.35643 0.92732 0.17544 0.0
C3783 C 0.34416 0.91561 0.17434 0.0
O3784 O 0.33788 0.89167 0.18671 0.0
O3785 O 0.3281 0.90155 0.19175 0.0
O3786 O 0.33866 0.91776 0.18095 0.0
O3787 O 0.34829 0.90788 0.17559 0.0
H3788 H 0.33136 0.89649 0.17035 0.0
H3789 H 0.32088 0.89246 0.15818 0.0
H3790 H 0.30253 0.88109 0.17767 0.0
H3791 H 0.31311 0.88501 0.18991 0.0
H3792 H 0.34323 0.90056 0.23236 0.0
H3793 H 0.33999 0.90513 0.21676 0.0
H3794 H 0.37146 0.89814 0.22585 0.0
H3795 H 0.3683 0.90279 0.21028 0.0
H3796 H 0.3667 0.93761 0.17528 0.0
H3797 H 0.35126 0.9346 0.15081 0.0
H3798 H 0.34252 0.92243 0.15778 0.0
H3799 H 0.35789 0.9253 0.18231 0.0
C3800 C 0.18288 0.11575 0.68116 0.0
C3801 C 0.18304 0.11077 0.6731 0.0
C3802 C 0.19473 0.12057 0.66709 0.0
C3803 C 0.18892 0.11315 0.66613 0.0
C3804 C 0.19465 0.12551 0.67517 0.0
C3805 C 0.18874 0.12312 0.68217 0.0
U3806 U 0.16391 0.10087 0.68908 0.0
O3807 O 0.161 0.09425 0.70202 0.0
O3808 O 0.15127 0.10387 0.69634 0.0
C3809 C 0.15347 0.09878 0.70327 0.0
C3810 C 0.17647 0.11334 0.68836 0.0
C3811 C 0.15189 0.10264 0.71237 0.0
C3812 C 0.15681 0.10585 0.72774 0.0
C3813 C 0.15878 0.10317 0.71888 0.0
C3814 C 0.14112 0.10786 0.72365 0.0
C3815 C 0.14793 0.10807 0.73022 0.0
C3816 C 0.14308 0.10515 0.71482 0.0
C3817 C 0.15693 0.08303 0.67101 0.0
C3818 C 0.14527 0.07152 0.67202 0.0
C3819 C 0.15401 0.07315 0.65829 0.0
C3820 C 0.15884 0.08021 0.6622 0.0
C3821 C 0.14717 0.06877 0.66314 0.0
C3822 C 0.15012 0.07865 0.67595 0.0
C3823 C 0.16219 0.09057 0.67474 0.0
O3824 O 0.16796 0.11491 0.68644 0.0
O3825 O 0.17775 0.10538 0.69205 0.0
O3826 O 0.16763 0.08868 0.68147 0.0
O3827 O 0.15791 0.09826 0.67575 0.0
H3828 H 0.17856 0.10507 0.67219 0.0
H3829 H 0.1889 0.10927 0.65994 0.0
H3830 H 0.1991 0.13124 0.67602 0.0
H3831 H 0.1887 0.12704 0.68833 0.0
H3832 H 0.16215 0.10596 0.73272 0.0
H3833 H 0.16564 0.10127 0.71722 0.0
H3834 H 0.13423 0.10953 0.72543 0.0
H3835 H 0.13764 0.10475 0.70995 0.0
H3836 H 0.14001 0.06819 0.67585 0.0
H3837 H 0.15558 0.07111 0.65145 0.0
H3838 H 0.16408 0.08352 0.65831 0.0
H3839 H 0.14857 0.08074 0.68277 0.0
H3840 H 0.1382 0.22727 0.37199 0.0
H3841 H 0.10945 0.22415 0.37551 0.0
H3842 H 0.12745 0.20296 0.38358 0.0
H3843 H 0.10904 0.23444 0.36397 0.0
C3844 C 0.11439 0.23906 0.36588 0.0
C3845 C 0.13246 0.22329 0.37412 0.0
C3846 C 0.13383 0.21468 0.37785 0.0
C3847 C 0.12369 0.22676 0.37308 0.0
C3848 C 0.11625 0.22154 0.37598 0.0
C3849 C 0.11762 0.21298 0.3798 0.0
C3850 C 0.12639 0.20958 0.38065 0.0
N3851 N 0.12261 0.2356 0.36945 0.0
H3852 H 0.02932 0.88853 0.62251 0.0
H3853 H 0.0321 0.8598 0.6264 0.0
H3854 H 0.05344 0.87764 0.63439 0.0
H3855 H 0.02205 0.85942 0.61457 0.0
C3856 C 0.01741 0.86477 0.61646 0.0
C3857 C 0.03323 0.88276 0.62473 0.0
C3858 C 0.04183 0.88408 0.62851 0.0
C3859 C 0.02968 0.87402 0.62375 0.0
C3860 C 0.03479 0.86657 0.62678 0.0
C3861 C 0.04335 0.86789 0.63062 0.0
C3862 C 0.04683 0.87663 0.63142 0.0
N3863 N 0.02085 0.87298 0.62006 0.0
H3864 H 0.36784 0.77911 0.87189 0.0
H3865 H 0.3966 0.78198 0.87563 0.0
H3866 H 0.37874 0.80332 0.88356 0.0
H3867 H 0.39711 0.77165 0.86431 0.0
C3868 C 0.39164 0.76709 0.86603 0.0
C3869 C 0.37361 0.78304 0.87406 0.0
C3870 C 0.37229 0.79165 0.8778 0.0
C3871 C 0.38235 0.77949 0.87307 0.0
C3872 C 0.38981 0.78464 0.87604 0.0
C3873 C 0.3885 0.79322 0.87984 0.0
C3874 C 0.37975 0.79669 0.88064 0.0
N3875 N 0.38338 0.77065 0.86942 0.0
H3876 H 0.4777 0.118 0.12277 0.0
H3877 H 0.47451 0.14668 0.12671 0.0
H3878 H 0.45362 0.1285 0.13508 0.0
H3879 H 0.48434 0.14736 0.11503 0.0
C3880 C 0.489 0.14183 0.11616 0.0
C3881 C 0.47374 0.1237 0.12506 0.0
C3882 C 0.46523 0.12224 0.129 0.0
C3883 C 0.47713 0.1325 0.12402 0.0
C3884 C 0.47195 0.13986 0.12713 0.0
C3885 C 0.46347 0.13841 0.13111 0.0
C3886 C 0.46017 0.12961 0.13201 0.0
N3887 N 0.48588 0.13368 0.12019 0.0
H3888 H 0.13885 0.77974 0.13445 0.0
H3889 H 0.11009 0.78254 0.13078 0.0
H3890 H 0.12791 0.80379 0.1225 0.0
H3891 H 0.10981 0.77256 0.14266 0.0
C3892 C 0.11511 0.7679 0.14071 0.0
C3893 C 0.13308 0.78364 0.13224 0.0
C3894 C 0.13438 0.7922 0.1284 0.0
C3895 C 0.12433 0.7801 0.1333 0.0
C3896 C 0.11687 0.7852 0.1303 0.0
C3897 C 0.11816 0.79373 0.12637 0.0
C3898 C 0.12691 0.79719 0.12551 0.0
N3899 N 0.12331 0.7713 0.13704 0.0
H3900 H 0.47625 0.88843 0.38472 0.0
H3901 H 0.4736 0.85966 0.38112 0.0
H3902 H 0.45207 0.8773 0.37319 0.0
H3903 H 0.48368 0.85948 0.39295 0.0
C3904 C 0.4883 0.8648 0.39094 0.0
C3905 C 0.47235 0.88263 0.38259 0.0
C3906 C 0.46371 0.88386 0.37888 0.0
C3907 C 0.47596 0.87392 0.38362 0.0
C3908 C 0.47087 0.86641 0.3807 0.0
C3909 C 0.46226 0.86764 0.37693 0.0
C3910 C 0.45871 0.87635 0.37611 0.0
N3911 N 0.48482 0.87296 0.38725 0.0
H3912 H 0.36785 0.227 0.63414 0.0
H3913 H 0.39655 0.22427 0.62987 0.0
H3914 H 0.37861 0.20304 0.62184 0.0
H3915 H 0.39717 0.23439 0.64145 0.0
C3916 C 0.39172 0.23898 0.63976 0.0
C3917 C 0.37359 0.22312 0.6318 0.0
C3918 C 0.37223 0.21459 0.62791 0.0
C3919 C 0.38234 0.22668 0.63269 0.0
C3920 C 0.38976 0.2216 0.62952 0.0
C3921 C 0.3884 0.21308 0.62561 0.0
C3922 C 0.37965 0.20962 0.62485 0.0
N3923 N 0.38342 0.23548 0.63643 0.0
H3924 H 0.02898 0.118 0.88423 0.0
H3925 H 0.0318 0.14673 0.88041 0.0
H3926 H 0.05308 0.12888 0.87228 0.0
H3927 H 0.0218 0.14708 0.89229 0.0
C3928 C 0.01713 0.14177 0.89038 0.0
C3929 C 0.03289 0.12376 0.88201 0.0
C3930 C 0.04148 0.12244 0.8782 0.0
C3931 C 0.02935 0.13251 0.88302 0.0
C3932 C 0.03447 0.13995 0.88 0.0
C3933 C 0.04301 0.13863 0.87611 0.0
C3934 C 0.04648 0.12989 0.87528 0.0
N3935 N 0.02054 0.13355 0.88673 0.0
H3936 H 0.37261 0.13761 0.22744 0.0
H3937 H 0.37681 0.10895 0.22442 0.0
H3938 H 0.38525 0.12711 0.20354 0.0
H3939 H 0.36498 0.10825 0.2341 0.0
C3940 C 0.36607 0.1138 0.23876 0.0
C3941 C 0.37499 0.13192 0.22353 0.0
C3942 C 0.37901 0.13337 0.21507 0.0
C3943 C 0.37399 0.12313 0.22695 0.0
C3944 C 0.37721 0.11576 0.22183 0.0
C3945 C 0.38125 0.11721 0.21339 0.0
C3946 C 0.38212 0.126 0.21006 0.0
N3947 N 0.37009 0.12195 0.23567 0.0
H3948 H 0.11875 0.12135 0.47638 0.0
H3949 H 0.14735 0.12639 0.47367 0.0
H3950 H 0.12924 0.13405 0.45251 0.0
H3951 H 0.14882 0.1171 0.48505 0.0
C3952 C 0.14271 0.1173 0.48906 0.0
C3953 C 0.12444 0.12385 0.47253 0.0
C3954 C 0.12299 0.12778 0.46402 0.0
C3955 C 0.1332 0.12318 0.47613 0.0
C3956 C 0.14054 0.12657 0.47107 0.0
C3957 C 0.13911 0.13047 0.46255 0.0
C3958 C 0.13035 0.13102 0.45908 0.0
N3959 N 0.13429 0.11935 0.4849 0.0
H3960 H 0.13419 0.86827 0.727 0.0
H3961 H 0.13054 0.89702 0.72416 0.0
H3962 H 0.12246 0.87921 0.70284 0.0
H3963 H 0.14245 0.89734 0.73386 0.0
C3964 C 0.14109 0.89186 0.73854 0.0
C3965 C 0.13202 0.87404 0.72308 0.0
C3966 C 0.12824 0.87274 0.71448 0.0
C3967 C 0.13308 0.88278 0.72661 0.0
C3968 C 0.1301 0.89024 0.72149 0.0
C3969 C 0.12625 0.88894 0.71293 0.0
C3970 C 0.12541 0.88021 0.70946 0.0
N3971 N 0.13684 0.88383 0.7354 0.0
H3972 H 0.38897 0.88401 0.9768 0.0
H3973 H 0.36021 0.8804 0.97385 0.0
H3974 H 0.37815 0.87181 0.95282 0.0
H3975 H 0.3599 0.89229 0.98383 0.0
C3976 C 0.36518 0.89033 0.98851 0.0
C3977 C 0.38321 0.88178 0.97289 0.0
C3978 C 0.38456 0.87783 0.96438 0.0
C3979 C 0.37446 0.88288 0.97637 0.0
C3980 C 0.36701 0.87987 0.97124 0.0
C3981 C 0.36835 0.87585 0.96276 0.0
C3982 C 0.37711 0.87489 0.95938 0.0
N3983 N 0.37339 0.88667 0.98515 0.0
H3984 H 0.37286 0.86804 0.27901 0.0
H3985 H 0.37676 0.89673 0.28224 0.0
H3986 H 0.38535 0.87852 0.30301 0.0
H3987 H 0.36481 0.89732 0.27265 0.0
C3988 C 0.36601 0.89187 0.26791 0.0
C3989 C 0.37518 0.87374 0.28297 0.0
C3990 C 0.3792 0.87227 0.29143 0.0
C3991 C 0.3741 0.88254 0.27961 0.0
C3992 C 0.37723 0.8899 0.28478 0.0
C3993 C 0.38128 0.88844 0.29322 0.0
C3994 C 0.38223 0.87964 0.29649 0.0
N3995 N 0.37017 0.88374 0.27091 0.0
H3996 H 0.3887 0.12231 0.52915 0.0
H3997 H 0.35994 0.12577 0.53229 0.0
H3998 H 0.37792 0.13375 0.55352 0.0
H3999 H 0.35958 0.11417 0.52206 0.0
C4000 C 0.36488 0.11615 0.5174 0.0
C4001 C 0.38295 0.1244 0.53314 0.0
C4002 C 0.38431 0.1281 0.54177 0.0
C4003 C 0.37418 0.12336 0.52967 0.0
C4004 C 0.36674 0.12623 0.5349 0.0
C4005 C 0.3681 0.13001 0.54348 0.0
C4006 C 0.37687 0.13085 0.54688 0.0
N4007 N 0.3731 0.11976 0.52081 0.0
H4008 H 0.13302 0.13878 0.77949 0.0
H4009 H 0.12868 0.11011 0.78229 0.0
H4010 H 0.12092 0.12808 0.80359 0.0
H4011 H 0.14038 0.10942 0.77248 0.0
C4012 C 0.1393 0.11501 0.76788 0.0
C4013 C 0.13071 0.13305 0.7834 0.0
C4014 C 0.12692 0.13443 0.79198 0.0
C4015 C 0.13159 0.12429 0.77987 0.0
C4016 C 0.12842 0.11689 0.78497 0.0
C4017 C 0.12458 0.11827 0.79352 0.0
C4018 C 0.1239 0.12702 0.79699 0.0
N4019 N 0.13536 0.12316 0.77108 0.0
H4020 H 0.11797 0.88411 0.0291 0.0
H4021 H 0.14673 0.88035 0.03197 0.0
H4022 H 0.12886 0.87242 0.05331 0.0
H4023 H 0.14713 0.89198 0.02181 0.0
C4024 C 0.14178 0.8901 0.01718 0.0
C4025 C 0.12374 0.88193 0.03303 0.0
C4026 C 0.12242 0.8782 0.04165 0.0
C4027 C 0.13249 0.88291 0.02949 0.0
C4028 C 0.13994 0.87995 0.03463 0.0
C4029 C 0.13862 0.87614 0.04321 0.0
C4030 C 0.12988 0.87535 0.04668 0.0
N4031 N 0.13354 0.88656 0.02064 0.0
H4032 H 0.22668 0.37189 0.13887 0.0
H4033 H 0.2238 0.37559 0.11012 0.0
H4034 H 0.20238 0.38339 0.12795 0.0
H4035 H 0.23361 0.36377 0.10978 0.0
C4036 C 0.23828 0.36517 0.11525 0.0
C4037 C 0.22274 0.37403 0.1331 0.0
C4038 C 0.21409 0.37772 0.13442 0.0
C4039 C 0.22627 0.37302 0.12435 0.0
C4040 C 0.22112 0.37596 0.1169 0.0
C4041 C 0.21251 0.37971 0.11821 0.0
C4042 C 0.20903 0.3805 0.12695 0.0
N4043 N 0.2351 0.36937 0.12329 0.0
H4044 H 0.72868 0.13297 0.86736 0.0
H4045 H 0.72342 0.13065 0.89588 0.0
H4046 H 0.70351 0.12197 0.87669 0.0
H4047 H 0.73388 0.14212 0.89661 0.0
C4048 C 0.73881 0.13998 0.89163 0.0
C4049 C 0.72422 0.13116 0.87286 0.0
C4050 C 0.7157 0.12746 0.87098 0.0
C4051 C 0.72704 0.13256 0.8818 0.0
C4052 C 0.72128 0.12997 0.88893 0.0
C4053 C 0.71281 0.12612 0.88709 0.0
C4054 C 0.71003 0.12498 0.87812 0.0
N4055 N 0.73585 0.13611 0.88335 0.0
H4056 H 0.1227 0.47702 0.11782 0.0
H4057 H 0.1264 0.47425 0.14658 0.0
H4058 H 0.13468 0.45298 0.12877 0.0
H4059 H 0.11445 0.48422 0.14682 0.0
C4060 C 0.11645 0.48888 0.14153 0.0
C4061 C 0.12491 0.47313 0.12359 0.0
C4062 C 0.12878 0.46457 0.12229 0.0
C4063 C 0.12387 0.47667 0.13233 0.0
C4064 C 0.12688 0.47158 0.1398 0.0
C4065 C 0.13078 0.46304 0.1385 0.0
C4066 C 0.13167 0.45958 0.12976 0.0
N4067 N 0.12015 0.48548 0.13335 0.0
H4068 H 0.78029 0.87199 0.36778 0.0
H4069 H 0.78295 0.87592 0.39652 0.0
H4070 H 0.80441 0.88381 0.37877 0.0
H4071 H 0.77295 0.86402 0.39683 0.0
C4072 C 0.76831 0.86596 0.3915 0.0
C4073 C 0.78419 0.87421 0.37356 0.0
C4074 C 0.7928 0.87797 0.37227 0.0
C4075 C 0.78059 0.87326 0.38229 0.0
C4076 C 0.78567 0.87629 0.38976 0.0
C4077 C 0.79425 0.88011 0.38848 0.0
C4078 C 0.79778 0.88086 0.37975 0.0
N4079 N 0.77176 0.86958 0.3833 0.0
H4080 H 0.88441 0.02883 0.11829 0.0
H4081 H 0.88062 0.032 0.147 0.0
H4082 H 0.87209 0.05286 0.12886 0.0
H4083 H 0.89239 0.02224 0.14757 0.0
C4084 C 0.89118 0.01756 0.14207 0.0
C4085 C 0.88212 0.03277 0.124 0.0
C4086 C 0.87816 0.04126 0.12257 0.0
C4087 C 0.8832 0.02938 0.1328 0.0
C4088 C 0.88013 0.03455 0.14018 0.0
C4089 C 0.87609 0.04301 0.13875 0.0
C4090 C 0.87517 0.04631 0.12996 0.0
N4091 N 0.88707 0.02064 0.13395 0.0
H4092 H 0.27857 0.63376 0.63885 0.0
H4093 H 0.28365 0.63067 0.61037 0.0
H4094 H 0.30358 0.62232 0.62965 0.0
H4095 H 0.27282 0.6413 0.60903 0.0
C4096 C 0.26808 0.63978 0.6144 0.0
C4097 C 0.28298 0.63178 0.63337 0.0
C4098 C 0.29146 0.62802 0.63528 0.0
C4099 C 0.2801 0.63296 0.62442 0.0
C4100 C 0.2858 0.63015 0.61732 0.0
C4101 C 0.29427 0.62631 0.6192 0.0
C4102 C 0.29708 0.62534 0.62818 0.0
N4103 N 0.27131 0.63657 0.62286 0.0
H4104 H 0.12362 0.52854 0.38783 0.0
H4105 H 0.12696 0.53177 0.35907 0.0
H4106 H 0.13488 0.553 0.37707 0.0
H4107 H 0.11554 0.52163 0.35863 0.0
C4108 C 0.11688 0.51702 0.36415 0.0
C4109 C 0.12568 0.53255 0.38208 0.0
C4110 C 0.12932 0.5412 0.38345 0.0
C4111 C 0.12461 0.52911 0.3733 0.0
C4112 C 0.12742 0.53436 0.36587 0.0
C4113 C 0.13116 0.54296 0.36724 0.0
C4114 C 0.13202 0.54635 0.37601 0.0
N4115 N 0.12101 0.52025 0.37221 0.0
H4116 H 0.38423 0.47752 0.88775 0.0
H4117 H 0.38017 0.47446 0.85906 0.0
H4118 H 0.3722 0.45334 0.87715 0.0
H4119 H 0.39186 0.48428 0.8584 0.0
C4120 C 0.39071 0.48893 0.86394 0.0
C4121 C 0.38196 0.47356 0.88203 0.0
C4122 C 0.37815 0.46499 0.88345 0.0
C4123 C 0.38293 0.47701 0.87324 0.0
C4124 C 0.37983 0.47185 0.86586 0.0
C4125 C 0.37596 0.46332 0.86729 0.0
C4126 C 0.37519 0.45993 0.87606 0.0
N4127 N 0.3867 0.48579 0.87208 0.0
H4128 H 0.86795 0.77963 0.63359 0.0
H4129 H 0.8967 0.78249 0.62963 0.0
H4130 H 0.87881 0.80372 0.62164 0.0
H4131 H 0.89721 0.76788 0.63136 0.0
C4132 C 0.89127 0.76549 0.63488 0.0
C4133 C 0.87371 0.78351 0.6313 0.0
C4134 C 0.87238 0.79212 0.62756 0.0
C4135 C 0.88242 0.77981 0.63195 0.0
C4136 C 0.88988 0.78498 0.62901 0.0
C4137 C 0.88856 0.79358 0.62525 0.0
C4138 C 0.87982 0.79709 0.62456 0.0
N4139 N 0.88339 0.77095 0.63561 0.0
H4140 H 0.9777 0.11801 0.38311 0.0
H4141 H 0.97466 0.14677 0.37971 0.0
H4142 H 0.95344 0.12889 0.37149 0.0
H4143 H 0.98454 0.1471 0.39141 0.0
C4144 C 0.98919 0.14162 0.39004 0.0
C4145 C 0.97374 0.12377 0.38098 0.0
C4146 C 0.96514 0.12245 0.37722 0.0
C4147 C 0.97722 0.13253 0.3821 0.0
C4148 C 0.97204 0.13998 0.37921 0.0
C4149 C 0.96348 0.13866 0.37535 0.0
C4150 C 0.96006 0.12991 0.37444 0.0
N4151 N 0.98603 0.13359 0.38582 0.0
H4152 H 0.63943 0.22702 0.13274 0.0
H4153 H 0.61061 0.22411 0.12966 0.0
H4154 H 0.62835 0.20304 0.12078 0.0
H4155 H 0.61048 0.23417 0.14144 0.0
C4156 C 0.61578 0.23882 0.13944 0.0
C4157 C 0.63363 0.22312 0.13062 0.0
C4158 C 0.63489 0.2146 0.12666 0.0
C4159 C 0.6249 0.22662 0.13187 0.0
C4160 C 0.61739 0.2215 0.129 0.0
C4161 C 0.61864 0.21301 0.12497 0.0
C4162 C 0.62738 0.20961 0.12386 0.0
N4163 N 0.62392 0.2354 0.13567 0.0
H4164 H 0.52899 0.88796 0.88342 0.0
H4165 H 0.53193 0.85926 0.87937 0.0
H4166 H 0.55318 0.87725 0.87151 0.0
H4167 H 0.52141 0.85845 0.8903 0.0
C4168 C 0.51693 0.86406 0.88888 0.0
C4169 C 0.53292 0.88222 0.88117 0.0
C4170 C 0.54151 0.88361 0.87738 0.0
C4171 C 0.5294 0.87346 0.88208 0.0
C4172 C 0.53455 0.86606 0.87902 0.0
C4173 C 0.54312 0.86743 0.87519 0.0
C4174 C 0.54656 0.87619 0.87445 0.0
N4175 N 0.52057 0.87239 0.88577 0.0
H4176 H 0.8673 0.22703 0.87339 0.0
H4177 H 0.89612 0.22438 0.87673 0.0
H4178 H 0.87852 0.20297 0.88509 0.0
H4179 H 0.89611 0.23435 0.86471 0.0
C4180 C 0.89088 0.23901 0.86686 0.0
C4181 C 0.87312 0.22315 0.87551 0.0
C4182 C 0.87191 0.21454 0.87931 0.0
C4183 C 0.88183 0.22674 0.87439 0.0
C4184 C 0.88936 0.22167 0.87727 0.0
C4185 C 0.88816 0.21312 0.88118 0.0
C4186 C 0.87945 0.20959 0.8821 0.0
N4187 N 0.88277 0.23558 0.87071 0.0
H4188 H 0.52884 0.11782 0.62298 0.0
H4189 H 0.53145 0.14645 0.62771 0.0
H4190 H 0.55251 0.12844 0.63598 0.0
H4191 H 0.51646 0.14624 0.62729 0.0
C4192 C 0.51439 0.14085 0.6228 0.0
C4193 C 0.53263 0.12353 0.62553 0.0
C4194 C 0.54111 0.12213 0.62954 0.0
C4195 C 0.52891 0.13224 0.62503 0.0
C4196 C 0.53397 0.13963 0.62827 0.0
C4197 C 0.54248 0.13825 0.63221 0.0
C4198 C 0.54596 0.1295 0.63288 0.0
N4199 N 0.52014 0.13332 0.6212 0.0
H4200 H 0.63899 0.7795 0.37336 0.0
H4201 H 0.61029 0.78226 0.37762 0.0
H4202 H 0.62822 0.80347 0.38566 0.0
H4203 H 0.60935 0.77202 0.36659 0.0
C4204 C 0.61521 0.76769 0.36727 0.0
C4205 C 0.63325 0.78338 0.3757 0.0
C4206 C 0.63461 0.79192 0.37959 0.0
C4207 C 0.62449 0.77985 0.37475 0.0
C4208 C 0.61708 0.78491 0.37794 0.0
C4209 C 0.61843 0.79343 0.38186 0.0
C4210 C 0.62718 0.79689 0.38263 0.0
N4211 N 0.62342 0.77109 0.3709 0.0
H4212 H 0.97783 0.88782 0.1231 0.0
H4213 H 0.97489 0.85914 0.12728 0.0
H4214 H 0.95365 0.87715 0.13505 0.0
H4215 H 0.98571 0.85812 0.11688 0.0
C4216 C 0.99006 0.8639 0.11797 0.0
C4217 C 0.9739 0.8821 0.12538 0.0
C4218 C 0.96531 0.88349 0.12916 0.0
C4219 C 0.97743 0.87333 0.1245 0.0
C4220 C 0.97228 0.86594 0.1276 0.0
C4221 C 0.9637 0.86732 0.1314 0.0
C4222 C 0.96027 0.87608 0.13211 0.0
N4223 N 0.98626 0.87226 0.1208 0.0
H4224 H 0.63385 0.86804 0.77951 0.0
H4225 H 0.63006 0.89678 0.78228 0.0
H4226 H 0.62199 0.87898 0.80362 0.0
H4227 H 0.6416 0.89721 0.77207 0.0
C4228 C 0.63983 0.89177 0.7675 0.0
C4229 C 0.63164 0.87381 0.78341 0.0
C4230 C 0.62785 0.87251 0.79201 0.0
C4231 C 0.63264 0.88254 0.77985 0.0
C4232 C 0.62963 0.89001 0.78495 0.0
C4233 C 0.62577 0.88871 0.79351 0.0
C4234 C 0.62496 0.87998 0.797 0.0
N4235 N 0.63634 0.88355 0.77102 0.0
H4236 H 0.88879 0.88344 0.52887 0.0
H4237 H 0.86005 0.87957 0.53164 0.0
H4238 H 0.87787 0.8716 0.55299 0.0
H4239 H 0.85943 0.8907 0.52122 0.0
C4240 C 0.865 0.88915 0.51673 0.0
C4241 C 0.88302 0.88122 0.53277 0.0
C4242 C 0.88434 0.87744 0.54137 0.0
C4243 C 0.87429 0.88219 0.5292 0.0
C4244 C 0.86683 0.87917 0.53431 0.0
C4245 C 0.86813 0.87533 0.54288 0.0
C4246 C 0.87687 0.87455 0.54637 0.0
N4247 N 0.87328 0.88588 0.52037 0.0
H4248 H 0.87391 0.13842 0.27817 0.0
H4249 H 0.87772 0.10968 0.281 0.0
H4250 H 0.88552 0.12752 0.3024 0.0
H4251 H 0.86699 0.10898 0.27028 0.0
C4252 C 0.86844 0.11464 0.26587 0.0
C4253 C 0.87607 0.13265 0.2821 0.0
C4254 C 0.87978 0.13396 0.29072 0.0
C4255 C 0.87514 0.12392 0.27851 0.0
C4256 C 0.8781 0.11646 0.28366 0.0
C4257 C 0.88185 0.11776 0.29228 0.0
C4258 C 0.88262 0.12651 0.29576 0.0
N4259 N 0.87155 0.12292 0.26964 0.0
H4260 H 0.61806 0.12335 0.02849 0.0
H4261 H 0.64688 0.12681 0.03104 0.0
H4262 H 0.62937 0.13446 0.05278 0.0
H4263 H 0.64695 0.11511 0.02081 0.0
C4264 C 0.64162 0.1172 0.01624 0.0
C4265 C 0.6239 0.12539 0.03239 0.0
C4266 C 0.62272 0.12897 0.04109 0.0
C4267 C 0.63259 0.1244 0.02872 0.0
C4268 C 0.64013 0.12721 0.03381 0.0
C4269 C 0.63896 0.13085 0.04248 0.0
C4270 C 0.63027 0.13164 0.04609 0.0
N4271 N 0.6335 0.12089 0.0198 0.0
H4272 H 0.63311 0.1388 0.72739 0.0
H4273 H 0.62967 0.11 0.72457 0.0
H4274 H 0.6216 0.12772 0.70317 0.0
H4275 H 0.64064 0.10951 0.73515 0.0
C4276 C 0.63902 0.11509 0.7396 0.0
C4277 C 0.63101 0.133 0.72346 0.0
C4278 C 0.62727 0.13426 0.71484 0.0
C4279 C 0.63208 0.12427 0.72704 0.0
C4280 C 0.6292 0.11678 0.7219 0.0
C4281 C 0.62541 0.11803 0.7133 0.0
C4282 C 0.62452 0.12676 0.70981 0.0
N4283 N 0.63572 0.12332 0.7359 0.0
H4284 H 0.61775 0.88324 0.47735 0.0
H4285 H 0.64644 0.87891 0.47462 0.0
H4286 H 0.62851 0.87097 0.45337 0.0
H4287 H 0.64745 0.88979 0.48497 0.0
C4288 C 0.64154 0.8892 0.48925 0.0
C4289 C 0.62349 0.8809 0.47348 0.0
C4290 C 0.62213 0.87703 0.46493 0.0
C4291 C 0.63225 0.88181 0.47703 0.0
C4292 C 0.63966 0.87862 0.47196 0.0
C4293 C 0.6383 0.87473 0.46343 0.0
C4294 C 0.62955 0.87399 0.45995 0.0
N4295 N 0.63331 0.88565 0.48579 0.0
H4296 H 0.87307 0.86793 0.22721 0.0
H4297 H 0.87711 0.89664 0.22447 0.0
H4298 H 0.88485 0.87881 0.20304 0.0
H4299 H 0.86584 0.89724 0.23484 0.0
C4300 C 0.86748 0.89171 0.23936 0.0
C4301 C 0.8753 0.87369 0.2233 0.0
C4302 C 0.87903 0.87237 0.21468 0.0
C4303 C 0.8744 0.88242 0.22689 0.0
C4304 C 0.87744 0.88987 0.22178 0.0
C4305 C 0.88122 0.88856 0.21319 0.0
C4306 C 0.88193 0.87982 0.20967 0.0
N4307 N 0.87077 0.88344 0.23574 0.0
H4308 H 0.8886 0.12324 0.97773 0.0
H4309 H 0.85981 0.12669 0.97484 0.0
H4310 H 0.87761 0.13498 0.95358 0.0
H4311 H 0.85946 0.11508 0.98477 0.0
C4312 C 0.86501 0.11639 0.98937 0.0
C4313 C 0.88282 0.12539 0.97381 0.0
C4314 C 0.88411 0.1292 0.96522 0.0
C4315 C 0.87407 0.12427 0.97732 0.0
C4316 C 0.8666 0.12719 0.97219 0.0
C4317 C 0.86788 0.13109 0.96365 0.0
C4318 C 0.87662 0.13201 0.9602 0.0
N4319 N 0.87305 0.12053 0.98613 0.0
H4320 H 0.77903 0.63337 0.86828 0.0
H4321 H 0.78186 0.62937 0.89701 0.0
H4322 H 0.80315 0.62143 0.8791 0.0
H4323 H 0.77123 0.64012 0.89782 0.0
C4324 C 0.76682 0.63881 0.89212 0.0
C4325 C 0.78294 0.63112 0.87404 0.0
C4326 C 0.79152 0.62731 0.87269 0.0
C4327 C 0.77938 0.63205 0.88278 0.0
C4328 C 0.7845 0.629 0.89022 0.0
C4329 C 0.79307 0.62516 0.88888 0.0
C4330 C 0.79654 0.62439 0.88013 0.0
N4331 N 0.77056 0.63577 0.88381 0.0
H4332 H 0.27836 0.87355 0.13883 0.0
H4333 H 0.28117 0.87776 0.11015 0.0
H4334 H 0.30229 0.88599 0.12815 0.0
H4335 H 0.27129 0.86579 0.10964 0.0
C4336 C 0.2666 0.8676 0.11498 0.0
C4337 C 0.28224 0.87589 0.1331 0.0
C4338 C 0.29075 0.87984 0.13449 0.0
C4339 C 0.27873 0.87495 0.12434 0.0
C4340 C 0.28382 0.87814 0.11694 0.0
C4341 C 0.29232 0.88209 0.11832 0.0
C4342 C 0.29573 0.88291 0.12708 0.0
N4343 N 0.26997 0.87115 0.12324 0.0
H4344 H 0.88343 0.52907 0.88856 0.0
H4345 H 0.87937 0.53165 0.85982 0.0
H4346 H 0.87169 0.55319 0.87753 0.0
H4347 H 0.8902 0.521 0.85914 0.0
C4348 C 0.88876 0.51662 0.86483 0.0
C4349 C 0.8812 0.53294 0.88277 0.0
C4350 C 0.87749 0.54157 0.88405 0.0
C4351 C 0.88208 0.5293 0.87406 0.0
C4352 C 0.87905 0.53437 0.86658 0.0
C4353 C 0.87529 0.54298 0.86784 0.0
C4354 C 0.87459 0.54654 0.87656 0.0
N4355 N 0.88569 0.52042 0.87311 0.0
H4356 H 0.2275 0.13334 0.63897 0.0
H4357 H 0.225 0.12869 0.61031 0.0
H4358 H 0.20353 0.1211 0.62813 0.0
H4359 H 0.24001 0.12871 0.61068 0.0
C4360 C 0.24212 0.13322 0.61604 0.0
C4361 C 0.22368 0.13091 0.63323 0.0
C4362 C 0.21506 0.12719 0.63455 0.0
C4363 C 0.22748 0.13132 0.62454 0.0
C4364 C 0.22239 0.12822 0.6171 0.0
C4365 C 0.21377 0.12453 0.61842 0.0
C4366 C 0.21017 0.12401 0.62712 0.0
N4367 N 0.23634 0.13495 0.62353 0.0
H4368 H 0.12247 0.97647 0.88856 0.0
H4369 H 0.12608 0.97335 0.8598 0.0
H4370 H 0.1345 0.95239 0.8778 0.0
H4371 H 0.1238 0.98781 0.85901 0.0
C4372 C 0.12064 0.99034 0.86509 0.0
C4373 C 0.12473 0.97256 0.88282 0.0
C4374 C 0.12855 0.96399 0.88418 0.0
C4375 C 0.12393 0.97617 0.87407 0.0
C4376 C 0.12681 0.97094 0.86664 0.0
C4377 C 0.13068 0.9624 0.86799 0.0
C4378 C 0.13152 0.95898 0.87676 0.0
N4379 N 0.12022 0.985 0.87308 0.0
H4380 H 0.72802 0.37327 0.36843 0.0
H4381 H 0.72432 0.3767 0.39715 0.0
H4382 H 0.70372 0.38525 0.37878 0.0
H4383 H 0.73881 0.37475 0.39812 0.0
C4384 C 0.7415 0.37154 0.39213 0.0
C4385 C 0.724 0.37549 0.37411 0.0
C4386 C 0.71545 0.37931 0.3726 0.0
C4387 C 0.72744 0.37466 0.38292 0.0
C4388 C 0.72205 0.37748 0.39027 0.0
C4389 C 0.71353 0.38136 0.38877 0.0
C4390 C 0.7103 0.38226 0.37994 0.0
N4391 N 0.73627 0.37099 0.38408 0.0
H4392 H 0.88366 0.4764 0.61797 0.0
H4393 H 0.88011 0.47381 0.64676 0.0
H4394 H 0.87196 0.45233 0.62915 0.0
H4395 H 0.89208 0.48379 0.64685 0.0
C4396 C 0.89004 0.48842 0.64156 0.0
C4397 C 0.88151 0.47253 0.62378 0.0
C4398 C 0.87773 0.46392 0.62256 0.0
C4399 C 0.88258 0.47614 0.63249 0.0
C4400 C 0.87964 0.47108 0.64001 0.0
C4401 C 0.87578 0.46251 0.6388 0.0
C4402 C 0.87492 0.45896 0.63009 0.0
N4403 N 0.88627 0.48497 0.63343 0.0
H4404 H 0.62323 0.52958 0.11781 0.0
H4405 H 0.62652 0.53237 0.14662 0.0
H4406 H 0.63492 0.55368 0.12894 0.0
H4407 H 0.61466 0.52234 0.14673 0.0
C4408 C 0.61669 0.51769 0.14144 0.0
C4409 C 0.62534 0.53349 0.12362 0.0
C4410 C 0.62916 0.54208 0.12237 0.0
C4411 C 0.62419 0.52994 0.13234 0.0
C4412 C 0.62707 0.53504 0.13985 0.0
C4413 C 0.63098 0.54359 0.13862 0.0
C4414 C 0.63193 0.54707 0.12989 0.0
N4415 N 0.62047 0.52112 0.1333 0.0
H4416 H 0.63862 0.72707 0.87194 0.0
H4417 H 0.60988 0.72431 0.87591 0.0
H4418 H 0.62774 0.70299 0.8839 0.0
H4419 H 0.60936 0.73451 0.8644 0.0
C4420 C 0.61481 0.73909 0.86613 0.0
C4421 C 0.63285 0.72317 0.87419 0.0
C4422 C 0.63418 0.71459 0.87799 0.0
C4423 C 0.62411 0.72674 0.87324 0.0
C4424 C 0.61666 0.72164 0.8763 0.0
C4425 C 0.61798 0.71309 0.88017 0.0
C4426 C 0.62672 0.7096 0.88093 0.0
N4427 N 0.62307 0.73556 0.86954 0.0
H4428 H 0.5295 0.38853 0.12286 0.0
H4429 H 0.53261 0.35981 0.12657 0.0
H4430 H 0.55347 0.37788 0.13528 0.0
H4431 H 0.523 0.35934 0.11463 0.0
C4432 C 0.51828 0.36479 0.11588 0.0
C4433 C 0.53343 0.3828 0.12514 0.0
C4434 C 0.54191 0.38421 0.12916 0.0
C4435 C 0.53004 0.37402 0.124 0.0
C4436 C 0.53518 0.36662 0.12708 0.0
C4437 C 0.54362 0.36802 0.13115 0.0
C4438 C 0.54694 0.3768 0.13214 0.0
N4439 N 0.52132 0.37288 0.12009 0.0
H4440 H 0.86868 0.27898 0.37199 0.0
H4441 H 0.89743 0.28176 0.37591 0.0
H4442 H 0.87956 0.30303 0.38402 0.0
H4443 H 0.89783 0.27171 0.36413 0.0
C4444 C 0.89246 0.26708 0.36596 0.0
C4445 C 0.87445 0.28287 0.37425 0.0
C4446 C 0.87312 0.29145 0.37808 0.0
C4447 C 0.88319 0.27933 0.37327 0.0
C4448 C 0.89064 0.28442 0.37633 0.0
C4449 C 0.88932 0.29295 0.38024 0.0
C4450 C 0.88058 0.29643 0.38103 0.0
N4451 N 0.88423 0.27052 0.36954 0.0
H4452 H 0.97704 0.61768 0.62268 0.0
H4453 H 0.97404 0.64638 0.62666 0.0
H4454 H 0.9532 0.6283 0.63536 0.0
H4455 H 0.98376 0.64704 0.61492 0.0
C4456 C 0.98838 0.64146 0.61595 0.0
C4457 C 0.97314 0.6234 0.62503 0.0
C4458 C 0.96469 0.62199 0.62911 0.0
C4459 C 0.97656 0.63218 0.62394 0.0
C4460 C 0.97146 0.63957 0.62713 0.0
C4461 C 0.96304 0.63816 0.63124 0.0
C4462 C 0.95971 0.62938 0.63219 0.0
N4463 N 0.98526 0.63332 0.61998 0.0
H4464 H 0.63908 0.27815 0.63374 0.0
H4465 H 0.61056 0.28329 0.63119 0.0
H4466 H 0.62975 0.30311 0.6223 0.0
H4467 H 0.60976 0.27291 0.64271 0.0
C4468 C 0.6148 0.268 0.64068 0.0
C4469 C 0.63358 0.28256 0.63184 0.0
C4470 C 0.63545 0.29103 0.62801 0.0
C4471 C 0.62464 0.27974 0.63321 0.0
C4472 C 0.61751 0.28543 0.63051 0.0
C4473 C 0.61935 0.29385 0.62653 0.0
C4474 C 0.62832 0.29664 0.6254 0.0
N4475 N 0.6231 0.27098 0.63687 0.0
H4476 H 0.97841 0.38895 0.88323 0.0
H4477 H 0.97301 0.36051 0.88033 0.0
H4478 H 0.95329 0.37995 0.87185 0.0
H4479 H 0.98332 0.35931 0.89152 0.0
C4480 C 0.9882 0.36464 0.89033 0.0
C4481 C 0.97394 0.3835 0.88129 0.0
C4482 C 0.96547 0.3855 0.87752 0.0
C4483 C 0.97669 0.37453 0.88257 0.0
C4484 C 0.97092 0.36748 0.8798 0.0
C4485 C 0.96248 0.36944 0.87594 0.0
C4486 C 0.95977 0.37844 0.87489 0.0
N4487 N 0.98543 0.37287 0.88623 0.0
H4488 H 0.86798 0.72718 0.13408 0.0
H4489 H 0.89676 0.72428 0.13056 0.0
H4490 H 0.87894 0.70295 0.12251 0.0
H4491 H 0.89706 0.73446 0.14221 0.0
C4492 C 0.89172 0.73908 0.14027 0.0
C4493 C 0.87376 0.72324 0.13195 0.0
C4494 C 0.87246 0.71462 0.12822 0.0
C4495 C 0.88251 0.72678 0.133 0.0
C4496 C 0.88998 0.72162 0.1301 0.0
C4497 C 0.88868 0.71304 0.12628 0.0
C4498 C 0.87994 0.70958 0.12543 0.0
N4499 N 0.88353 0.73562 0.13664 0.0
H4500 H 0.52973 0.61749 0.38443 0.0
H4501 H 0.53224 0.64624 0.38051 0.0
H4502 H 0.55363 0.62856 0.37227 0.0
H4503 H 0.52241 0.64646 0.39261 0.0
C4504 C 0.51775 0.64115 0.39068 0.0
C4505 C 0.53357 0.62328 0.38217 0.0
C4506 C 0.54213 0.62203 0.37829 0.0
C4507 C 0.52996 0.632 0.38318 0.0
C4508 C 0.53498 0.63948 0.3801 0.0
C4509 C 0.54351 0.63823 0.37615 0.0
C4510 C 0.54705 0.62952 0.37532 0.0
N4511 N 0.52117 0.63297 0.38696 0.0
H4512 H 0.87244 0.63826 0.72733 0.0
H4513 H 0.87657 0.60959 0.72428 0.0
H4514 H 0.88446 0.62768 0.70313 0.0
H4515 H 0.86492 0.60889 0.73414 0.0
C4516 C 0.86604 0.61445 0.73877 0.0
C4517 C 0.87472 0.63255 0.72337 0.0
C4518 C 0.87852 0.63398 0.7148 0.0
C4519 C 0.87378 0.62377 0.72683 0.0
C4520 C 0.87689 0.61639 0.72166 0.0
C4521 C 0.88074 0.61782 0.71312 0.0
C4522 C 0.88148 0.62659 0.70973 0.0
N4523 N 0.87002 0.62261 0.73561 0.0
H4524 H 0.61808 0.62185 0.97655 0.0
H4525 H 0.6468 0.62591 0.97368 0.0
H4526 H 0.62884 0.63391 0.95247 0.0
H4527 H 0.64758 0.61488 0.98412 0.0
C4528 C 0.64197 0.6163 0.98861 0.0
C4529 C 0.62382 0.62412 0.97264 0.0
C4530 C 0.62246 0.62796 0.96408 0.0
C4531 C 0.63258 0.62317 0.97617 0.0
C4532 C 0.64 0.62628 0.97105 0.0
C4533 C 0.63864 0.63016 0.96251 0.0
C4534 C 0.62988 0.63092 0.95907 0.0
N4535 N 0.63364 0.61943 0.98497 0.0
H4536 H 0.63416 0.36763 0.2271 0.0
H4537 H 0.63017 0.39632 0.22415 0.0
H4538 H 0.62215 0.37833 0.20296 0.0
H4539 H 0.64189 0.39692 0.23395 0.0
C4540 C 0.64072 0.39138 0.23858 0.0
C4541 C 0.63191 0.37336 0.22317 0.0
C4542 C 0.62809 0.37197 0.21459 0.0
C4543 C 0.6329 0.38213 0.22665 0.0
C4544 C 0.62981 0.38953 0.22151 0.0
C4545 C 0.62594 0.38815 0.21297 0.0
C4546 C 0.62515 0.37939 0.20955 0.0
N4547 N 0.63668 0.38325 0.23543 0.0
H4548 H 0.88829 0.38393 0.47732 0.0
H4549 H 0.85958 0.37979 0.47441 0.0
H4550 H 0.87758 0.37201 0.45314 0.0
H4551 H 0.8588 0.39085 0.48487 0.0
C4552 C 0.86438 0.38937 0.48938 0.0
C4553 C 0.88255 0.38166 0.47339 0.0
C4554 C 0.88394 0.3779 0.46479 0.0
C4555 C 0.87379 0.38255 0.47693 0.0
C4556 C 0.86638 0.37946 0.47178 0.0
C4557 C 0.86776 0.37565 0.46321 0.0
C4558 C 0.87652 0.37495 0.45976 0.0
N4559 N 0.87271 0.38622 0.48576 0.0
H4560 H 0.8726 0.36753 0.77924 0.0
H4561 H 0.87665 0.39623 0.78213 0.0
H4562 H 0.8852 0.37822 0.80309 0.0
H4563 H 0.86471 0.39678 0.77253 0.0
C4564 C 0.86589 0.39127 0.76785 0.0
C4565 C 0.87495 0.37326 0.78312 0.0
C4566 C 0.87898 0.37187 0.7916 0.0
C4567 C 0.87391 0.38203 0.77966 0.0
C4568 C 0.87709 0.38943 0.78474 0.0
C4569 C 0.88116 0.38804 0.79318 0.0
C4570 C 0.88206 0.37928 0.79656 0.0
N4571 N 0.87 0.38316 0.77094 0.0
H4572 H 0.88901 0.62215 0.02914 0.0
H4573 H 0.86028 0.62619 0.03191 0.0
H4574 H 0.8782 0.63448 0.05307 0.0
H4575 H 0.8597 0.61467 0.02175 0.0
C4576 C 0.86517 0.61634 0.01717 0.0
C4577 C 0.88326 0.62446 0.03301 0.0
C4578 C 0.8846 0.6284 0.04154 0.0
C4579 C 0.8745 0.6235 0.02947 0.0
C4580 C 0.86707 0.62662 0.03455 0.0
C4581 C 0.86841 0.63059 0.04306 0.0
C4582 C 0.87716 0.63143 0.0465 0.0
N4583 N 0.87345 0.61972 0.02068 0.0
H4584 H 0.63344 0.63812 0.27919 0.0
H4585 H 0.62953 0.6094 0.28207 0.0
H4586 H 0.62141 0.62731 0.30328 0.0
H4587 H 0.64138 0.60892 0.27235 0.0
C4588 C 0.64016 0.61444 0.2677 0.0
C4589 C 0.63119 0.63237 0.2831 0.0
C4590 C 0.62735 0.63372 0.29168 0.0
C4591 C 0.63221 0.62361 0.27961 0.0
C4592 C 0.62915 0.61618 0.28472 0.0
C4593 C 0.62524 0.61754 0.29325 0.0
C4594 C 0.62442 0.62628 0.29669 0.0
N4595 N 0.63602 0.62252 0.27084 0.0
H4596 H 0.61776 0.38441 0.52956 0.0
H4597 H 0.64648 0.38018 0.53216 0.0
H4598 H 0.62867 0.37236 0.55358 0.0
H4599 H 0.64707 0.3916 0.52191 0.0
C4600 C 0.64156 0.38995 0.51738 0.0
C4601 C 0.62353 0.38211 0.53343 0.0
C4602 C 0.62222 0.37833 0.54202 0.0
C4603 C 0.63226 0.38298 0.52981 0.0
C4604 C 0.63971 0.37986 0.53487 0.0
C4605 C 0.63841 0.376 0.54343 0.0
C4606 C 0.62968 0.37532 0.54697 0.0
N4607 N 0.63328 0.38667 0.52098 0.0
H4608 H 0.72772 0.8726 0.63897 0.0
H4609 H 0.72484 0.87664 0.61026 0.0
H4610 H 0.70376 0.88497 0.62827 0.0
H4611 H 0.73472 0.86461 0.60984 0.0
C4612 C 0.73943 0.86652 0.61511 0.0
C4613 C 0.72382 0.87491 0.63323 0.0
C4614 C 0.7153 0.87885 0.63462 0.0
C4615 C 0.72731 0.87393 0.62447 0.0
C4616 C 0.7222 0.87706 0.61706 0.0
C4617 C 0.71371 0.88103 0.61844 0.0
C4618 C 0.71032 0.88189 0.62721 0.0
N4619 N 0.7361 0.87015 0.62336 0.0
H4620 H 0.22695 0.63462 0.36801 0.0
H4621 H 0.22447 0.6306 0.39675 0.0
H4622 H 0.20286 0.62286 0.37912 0.0
H4623 H 0.23443 0.64259 0.39698 0.0
C4624 C 0.23906 0.64059 0.39167 0.0
C4625 C 0.22309 0.6324 0.3738 0.0
C4626 C 0.21445 0.62868 0.37256 0.0
C4627 C 0.22674 0.63331 0.38251 0.0
C4628 C 0.2217 0.63026 0.39 0.0
C4629 C 0.2131 0.62649 0.38877 0.0
C4630 C 0.2095 0.62579 0.38007 0.0
N4631 N 0.2356 0.63694 0.38348 0.0
H4632 H 0.62271 0.97705 0.61895 0.0
H4633 H 0.62612 0.97396 0.64772 0.0
H4634 H 0.6343 0.95278 0.62978 0.0
H4635 H 0.61449 0.98388 0.64811 0.0
C4636 C 0.61581 0.98852 0.6426 0.0
C4637 C 0.62483 0.97308 0.62471 0.0
C4638 C 0.62859 0.96448 0.62336 0.0
C4639 C 0.62371 0.97654 0.63347 0.0
C4640 C 0.62661 0.97135 0.64092 0.0
C4641 C 0.63046 0.9628 0.63958 0.0
C4642 C 0.63136 0.9594 0.63082 0.0
N4643 N 0.61999 0.98535 0.63455 0.0
H4644 H 0.27981 0.37227 0.86783 0.0
H4645 H 0.28271 0.37621 0.89655 0.0
H4646 H 0.30367 0.38483 0.87854 0.0
H4647 H 0.2729 0.36414 0.89696 0.0
C4648 C 0.26818 0.36602 0.89168 0.0
C4649 C 0.2837 0.37459 0.87357 0.0
C4650 C 0.29218 0.37862 0.87219 0.0
C4651 C 0.28024 0.37354 0.88234 0.0
C4652 C 0.28533 0.37668 0.88975 0.0
C4653 C 0.29377 0.38075 0.88837 0.0
C4654 C 0.29715 0.38168 0.8796 0.0
N4655 N 0.27149 0.36968 0.88344 0.0
H4656 H 0.38509 0.52965 0.61817 0.0
H4657 H 0.38125 0.53245 0.64692 0.0
H4658 H 0.37309 0.5537 0.62906 0.0
H4659 H 0.39301 0.52238 0.64732 0.0
C4660 C 0.39116 0.51776 0.64194 0.0
C4661 C 0.38286 0.53355 0.62394 0.0
C4662 C 0.37903 0.54212 0.62262 0.0
C4663 C 0.38386 0.53001 0.63268 0.0
C4664 C 0.38082 0.53511 0.64014 0.0
C4665 C 0.37689 0.54364 0.63882 0.0
C4666 C 0.37609 0.54711 0.63008 0.0
N4667 N 0.3876 0.52121 0.63372 0.0
H4668 H 0.77844 0.1335 0.13862 0.0
H4669 H 0.78356 0.13079 0.1101 0.0
H4670 H 0.80368 0.12264 0.1293 0.0
H4671 H 0.773 0.14214 0.10924 0.0
C4672 C 0.76812 0.14009 0.1143 0.0
C4673 C 0.78289 0.13167 0.13311 0.0
C4674 C 0.79145 0.12806 0.135 0.0
C4675 C 0.78001 0.13291 0.12417 0.0
C4676 C 0.78575 0.13026 0.11705 0.0
C4677 C 0.79429 0.12656 0.1189 0.0
C4678 C 0.79713 0.12557 0.12787 0.0
N4679 N 0.77117 0.13637 0.12262 0.0
H4680 H 0.62221 0.02925 0.8886 0.0
H4681 H 0.6267 0.03193 0.85994 0.0
H4682 H 0.63457 0.05321 0.87789 0.0
H4683 H 0.61482 0.02228 0.85928 0.0
C4684 C 0.61592 0.01764 0.86484 0.0
C4685 C 0.62459 0.03312 0.88287 0.0
C4686 C 0.62844 0.04167 0.88425 0.0
C4687 C 0.62372 0.02957 0.87411 0.0
C4688 C 0.62697 0.03462 0.86672 0.0
C4689 C 0.63088 0.04314 0.86809 0.0
C4690 C 0.63154 0.04663 0.87684 0.0
N4691 N 0.61991 0.02081 0.87299 0.0
H4692 H 0.88426 0.97728 0.38824 0.0
H4693 H 0.88054 0.97414 0.35952 0.0
H4694 H 0.87253 0.95299 0.37757 0.0
H4695 H 0.89217 0.98404 0.35898 0.0
C4696 C 0.8909 0.9887 0.36448 0.0
C4697 C 0.88207 0.97331 0.38251 0.0
C4698 C 0.87831 0.96471 0.38391 0.0
C4699 C 0.88309 0.97675 0.37373 0.0
C4700 C 0.88012 0.97155 0.36633 0.0
C4701 C 0.87627 0.963 0.36772 0.0
C4702 C 0.87546 0.95961 0.3765 0.0
N4703 N 0.8868 0.98555 0.37259 0.0
H4704 H 0.36854 0.27961 0.13378 0.0
H4705 H 0.39727 0.28233 0.12968 0.0
H4706 H 0.37942 0.30367 0.12178 0.0
H4707 H 0.3982 0.27179 0.14034 0.0
C4708 C 0.39225 0.26757 0.13974 0.0
C4709 C 0.3743 0.28349 0.1315 0.0
C4710 C 0.37298 0.29207 0.12769 0.0
C4711 C 0.38304 0.27991 0.13244 0.0
C4712 C 0.39049 0.28499 0.12934 0.0
C4713 C 0.38917 0.29355 0.12549 0.0
C4714 C 0.38043 0.29705 0.12474 0.0
N4715 N 0.38405 0.27112 0.13621 0.0
H4716 H 0.47725 0.61832 0.88374 0.0
H4717 H 0.47457 0.64705 0.87978 0.0
H4718 H 0.45329 0.62923 0.87156 0.0
H4719 H 0.48978 0.6463 0.87897 0.0
C4720 C 0.49183 0.64114 0.88373 0.0
C4721 C 0.4734 0.62408 0.88141 0.0
C4722 C 0.46483 0.62278 0.87758 0.0
C4723 C 0.47713 0.63278 0.88204 0.0
C4724 C 0.472 0.64025 0.87909 0.0
C4725 C 0.46342 0.63896 0.87527 0.0
C4726 C 0.4599 0.63023 0.87454 0.0
N4727 N 0.48596 0.6338 0.88573 0.0
H4728 H 0.13919 0.72695 0.6335 0.0
H4729 H 0.1105 0.7241 0.62927 0.0
H4730 H 0.12851 0.70292 0.62124 0.0
H4731 H 0.10983 0.73388 0.641 0.0
C4732 C 0.11542 0.73848 0.63992 0.0
C4733 C 0.13346 0.72305 0.63117 0.0
C4734 C 0.13486 0.7145 0.6273 0.0
C4735 C 0.12469 0.72654 0.63212 0.0
C4736 C 0.11729 0.72144 0.62895 0.0
C4737 C 0.11868 0.71293 0.62504 0.0
C4738 C 0.12745 0.7095 0.62427 0.0
N4739 N 0.12357 0.7353 0.63594 0.0
H4740 H 0.02928 0.38871 0.38427 0.0
H4741 H 0.03129 0.36015 0.37889 0.0
H4742 H 0.05288 0.37785 0.37135 0.0
H4743 H 0.01624 0.36087 0.37892 0.0
C4744 C 0.01431 0.36606 0.38371 0.0
C4745 C 0.03297 0.38298 0.38164 0.0
C4746 C 0.04155 0.38427 0.37779 0.0
C4747 C 0.02906 0.37434 0.38191 0.0
C4748 C 0.03399 0.36691 0.37854 0.0
C4749 C 0.04257 0.3682 0.37473 0.0
C4750 C 0.04628 0.37687 0.37436 0.0
N4751 N 0.02025 0.37336 0.38565 0.0
H4752 H 0.368 0.72712 0.3729 0.0
H4753 H 0.39668 0.72424 0.37713 0.0
H4754 H 0.37865 0.70313 0.38526 0.0
H4755 H 0.39735 0.73396 0.36535 0.0
C4756 C 0.39178 0.73859 0.36644 0.0
C4757 C 0.37372 0.72321 0.37525 0.0
C4758 C 0.37232 0.71469 0.37915 0.0
C4759 C 0.3825 0.7267 0.37429 0.0
C4760 C 0.38989 0.7216 0.37747 0.0
C4761 C 0.38849 0.71311 0.38143 0.0
C4762 C 0.37972 0.70969 0.3822 0.0
N4763 N 0.38363 0.73544 0.37044 0.0
H4764 H 0.0292 0.61753 0.12329 0.0
H4765 H 0.03158 0.64621 0.12783 0.0
H4766 H 0.05304 0.62848 0.13569 0.0
H4767 H 0.01651 0.64564 0.12798 0.0
C4768 C 0.01448 0.64036 0.12334 0.0
C4769 C 0.03298 0.62329 0.12572 0.0
C4770 C 0.04158 0.622 0.12953 0.0
C4771 C 0.02916 0.63196 0.12524 0.0
C4772 C 0.03421 0.63942 0.12836 0.0
C4773 C 0.04281 0.63815 0.13213 0.0
C4774 C 0.04642 0.62945 0.13272 0.0
N4775 N 0.02033 0.63294 0.12155 0.0
H4776 H 0.13908 0.27951 0.87383 0.0
H4777 H 0.11023 0.28231 0.87668 0.0
H4778 H 0.12781 0.30361 0.88536 0.0
H4779 H 0.11038 0.27237 0.86466 0.0
C4780 C 0.11555 0.26768 0.86689 0.0
C4781 C 0.13325 0.28341 0.87586 0.0
C4782 C 0.13445 0.29201 0.87968 0.0
C4783 C 0.12454 0.27987 0.87459 0.0
C4784 C 0.11699 0.28498 0.87734 0.0
C4785 C 0.11817 0.29352 0.88128 0.0
C4786 C 0.12689 0.297 0.88236 0.0
N4787 N 0.12362 0.27105 0.87087 0.0
H4788 H 0.47754 0.38853 0.62291 0.0
H4789 H 0.47494 0.3598 0.62683 0.0
H4790 H 0.45353 0.37753 0.63493 0.0
H4791 H 0.49022 0.36084 0.62815 0.0
C4792 C 0.49224 0.36586 0.62321 0.0
C4793 C 0.47369 0.38276 0.62521 0.0
C4794 C 0.46508 0.38404 0.62899 0.0
C4795 C 0.47745 0.37407 0.6246 0.0
C4796 C 0.47233 0.36659 0.62751 0.0
C4797 C 0.46372 0.36784 0.63127 0.0
C4798 C 0.46016 0.37656 0.632 0.0
N4799 N 0.4863 0.37308 0.62097 0.0
H4800 H 0.13232 0.36733 0.27744 0.0
H4801 H 0.12968 0.39582 0.28274 0.0
H4802 H 0.12114 0.37652 0.30257 0.0
H4803 H 0.13987 0.39721 0.27163 0.0
C4804 C 0.13845 0.39177 0.26695 0.0
C4805 C 0.13044 0.37281 0.28189 0.0
C4806 C 0.1267 0.37089 0.29038 0.0
C4807 C 0.13173 0.38176 0.27906 0.0
C4808 C 0.12906 0.38886 0.28483 0.0
C4809 C 0.12523 0.38697 0.2933 0.0
C4810 C 0.12414 0.37799 0.29606 0.0
N4811 N 0.13531 0.38331 0.27026 0.0
H4812 H 0.38814 0.38337 0.02956 0.0
H4813 H 0.35939 0.37955 0.03246 0.0
H4814 H 0.3773 0.37147 0.05369 0.0
H4815 H 0.3585 0.39016 0.02187 0.0
C4816 C 0.36443 0.38951 0.01764 0.0
C4817 C 0.38238 0.38114 0.03347 0.0
C4818 C 0.38372 0.37732 0.04205 0.0
C4819 C 0.37363 0.38215 0.02995 0.0
C4820 C 0.36619 0.37913 0.03508 0.0
C4821 C 0.36752 0.37526 0.04363 0.0
C4822 C 0.37627 0.37443 0.04708 0.0
N4823 N 0.37261 0.38592 0.02116 0.0
H4824 H 0.37328 0.63864 0.77857 0.0
H4825 H 0.37703 0.60987 0.78121 0.0
H4826 H 0.38487 0.62755 0.80274 0.0
H4827 H 0.3657 0.60948 0.77081 0.0
C4828 C 0.3675 0.61496 0.76631 0.0
C4829 C 0.37545 0.63284 0.78246 0.0
C4830 C 0.37915 0.63409 0.7911 0.0
C4831 C 0.37449 0.62413 0.77883 0.0
C4832 C 0.37743 0.61663 0.78393 0.0
C4833 C 0.38121 0.61788 0.79254 0.0
C4834 C 0.38198 0.62659 0.79608 0.0
N4835 N 0.3709 0.62318 0.76995 0.0
H4836 H 0.11876 0.6233 0.52902 0.0
H4837 H 0.1475 0.62729 0.53177 0.0
H4838 H 0.12965 0.63536 0.55304 0.0
H4839 H 0.14839 0.61651 0.52134 0.0
C4840 C 0.14248 0.61716 0.51707 0.0
C4841 C 0.12453 0.62558 0.53289 0.0
C4842 C 0.1232 0.62943 0.54146 0.0
C4843 C 0.13327 0.62459 0.52934 0.0
C4844 C 0.14072 0.62768 0.53442 0.0
C4845 C 0.13941 0.63158 0.54296 0.0
C4846 C 0.13066 0.63238 0.54644 0.0
N4847 N 0.13429 0.62077 0.52056 0.0
H4848 H 0.13309 0.63914 0.22773 0.0
H4849 H 0.12898 0.61042 0.22511 0.0
H4850 H 0.12105 0.6282 0.20371 0.0
H4851 H 0.14033 0.60982 0.23538 0.0
C4852 C 0.13877 0.61537 0.23989 0.0
C4853 C 0.13082 0.63337 0.22386 0.0
C4854 C 0.127 0.63467 0.21528 0.0
C4855 C 0.13175 0.62464 0.22747 0.0
C4856 C 0.12864 0.61719 0.22241 0.0
C4857 C 0.1248 0.61848 0.21384 0.0
C4858 C 0.12404 0.62721 0.21032 0.0
N4859 N 0.13548 0.62364 0.23628 0.0
H4860 H 0.11721 0.38284 0.97781 0.0
H4861 H 0.14596 0.37888 0.97532 0.0
H4862 H 0.12831 0.37081 0.95385 0.0
H4863 H 0.14617 0.39099 0.98514 0.0
C4864 C 0.14088 0.38902 0.9898 0.0
C4865 C 0.12301 0.38059 0.97397 0.0
C4866 C 0.12176 0.37676 0.96538 0.0
C4867 C 0.13172 0.38157 0.97759 0.0
C4868 C 0.13921 0.3785 0.97257 0.0
C4869 C 0.13797 0.37462 0.96402 0.0
C4870 C 0.12926 0.37381 0.96046 0.0
N4871 N 0.1327 0.38531 0.9864 0.0
H4872 H 0.37274 0.36709 0.72671 0.0
H4873 H 0.37731 0.39576 0.72434 0.0
H4874 H 0.38531 0.378 0.70295 0.0
H4875 H 0.36553 0.39637 0.73428 0.0
C4876 C 0.36711 0.39086 0.73885 0.0
C4877 C 0.37515 0.37285 0.72291 0.0
C4878 C 0.37908 0.37155 0.71438 0.0
C4879 C 0.37429 0.38157 0.72655 0.0
C4880 C 0.37758 0.38901 0.72159 0.0
C4881 C 0.38154 0.38771 0.71308 0.0
C4882 C 0.38223 0.379 0.70952 0.0
N4883 N 0.37045 0.38258 0.73531 0.0
H4884 H 0.38825 0.62361 0.47784 0.0
H4885 H 0.35949 0.62721 0.47486 0.0
H4886 H 0.37739 0.6352 0.45357 0.0
H4887 H 0.35904 0.61567 0.48487 0.0
C4888 C 0.3646 0.61694 0.48946 0.0
C4889 C 0.38249 0.62576 0.47389 0.0
C4890 C 0.38383 0.62948 0.46527 0.0
C4891 C 0.37373 0.62471 0.47739 0.0
C4892 C 0.36628 0.62764 0.47222 0.0
C4893 C 0.36761 0.63145 0.46365 0.0
C4894 C 0.37637 0.63228 0.4602 0.0
N4895 N 0.37267 0.62103 0.48622 0.0
H4896 H 0.27928 0.1341 0.36809 0.0
H4897 H 0.28207 0.1303 0.39684 0.0
H4898 H 0.30325 0.12194 0.379 0.0
H4899 H 0.26702 0.13027 0.39658 0.0
C4900 C 0.26488 0.13465 0.39112 0.0
C4901 C 0.28314 0.13179 0.37386 0.0
C4902 C 0.29171 0.12795 0.37255 0.0
C4903 C 0.27944 0.13249 0.38257 0.0
C4904 C 0.28458 0.12957 0.39004 0.0
C4905 C 0.29315 0.12572 0.38874 0.0
C4906 C 0.29665 0.12493 0.38 0.0
N4907 N 0.27061 0.1362 0.38356 0.0
H4908 H 0.77857 0.37296 0.63854 0.0
H4909 H 0.78123 0.37689 0.60979 0.0
H4910 H 0.80267 0.3848 0.62755 0.0
H4911 H 0.76609 0.3776 0.6104 0.0
C4912 C 0.76397 0.37299 0.61568 0.0
C4913 C 0.78243 0.37524 0.63276 0.0
C4914 C 0.79107 0.37894 0.63404 0.0
C4915 C 0.77867 0.37467 0.62407 0.0
C4916 C 0.78381 0.37755 0.61659 0.0
C4917 C 0.79245 0.38125 0.61785 0.0
C4918 C 0.79601 0.38193 0.62657 0.0
N4919 N 0.76979 0.3711 0.62309 0.0
H4920 H 0.38372 0.02966 0.38891 0.0
H4921 H 0.37994 0.03221 0.36014 0.0
H4922 H 0.37191 0.0537 0.37779 0.0
H4923 H 0.3915 0.02201 0.3598 0.0
C4924 C 0.38969 0.01747 0.36526 0.0
C4925 C 0.38153 0.03352 0.38311 0.0
C4926 C 0.37774 0.04212 0.38435 0.0
C4927 C 0.38252 0.02989 0.3744 0.0
C4928 C 0.37952 0.03494 0.3669 0.0
C4929 C 0.37568 0.04352 0.36813 0.0
C4930 C 0.37487 0.04707 0.37684 0.0
N4931 N 0.3862 0.02106 0.37346 0.0
H4932 H 0.72811 0.63312 0.13869 0.0
H4933 H 0.72545 0.62846 0.11005 0.0
H4934 H 0.70412 0.6208 0.128 0.0
H4935 H 0.74036 0.62902 0.1101 0.0
C4936 C 0.74253 0.63332 0.1156 0.0
C4937 C 0.72427 0.63068 0.13298 0.0
C4938 C 0.71566 0.62693 0.13435 0.0
C4939 C 0.72802 0.63112 0.12427 0.0
C4940 C 0.7229 0.62799 0.11686 0.0
C4941 C 0.71429 0.62426 0.11822 0.0
C4942 C 0.71074 0.62374 0.12695 0.0
N4943 N 0.73686 0.63479 0.12322 0.0
H4944 H 0.62243 0.4763 0.38856 0.0
H4945 H 0.62637 0.4737 0.35981 0.0
H4946 H 0.63406 0.45214 0.37751 0.0
H4947 H 0.61503 0.48406 0.35934 0.0
C4948 C 0.61673 0.48855 0.36487 0.0
C4949 C 0.62461 0.47241 0.38277 0.0
C4950 C 0.62832 0.46378 0.38404 0.0
C4951 C 0.6237 0.47604 0.37406 0.0
C4952 C 0.6267 0.47097 0.36657 0.0
C4953 C 0.63044 0.46235 0.36783 0.0
C4954 C 0.63117 0.45879 0.37654 0.0
N4955 N 0.62008 0.4849 0.3731 0.0
H4956 H 0.22805 0.87302 0.8681 0.0
H4957 H 0.22511 0.87698 0.89681 0.0
H4958 H 0.20404 0.88527 0.8788 0.0
H4959 H 0.2355 0.86584 0.89754 0.0
C4960 C 0.24002 0.86734 0.89198 0.0
C4961 C 0.22414 0.87531 0.87383 0.0
C4962 C 0.21563 0.87924 0.87245 0.0
C4963 C 0.22764 0.87433 0.88259 0.0
C4964 C 0.22251 0.87743 0.89001 0.0
C4965 C 0.214 0.88138 0.88864 0.0
C4966 C 0.21062 0.88224 0.87986 0.0
N4967 N 0.23643 0.87056 0.88367 0.0
H4968 H 0.38397 0.97636 0.11765 0.0
H4969 H 0.38053 0.97338 0.14644 0.0
H4970 H 0.372 0.95231 0.1286 0.0
H4971 H 0.3817 0.98813 0.14679 0.0
C4972 C 0.38542 0.99046 0.14094 0.0
C4973 C 0.38174 0.97247 0.12342 0.0
C4974 C 0.37792 0.96389 0.12212 0.0
C4975 C 0.38256 0.97613 0.13214 0.0
C4976 C 0.37973 0.97093 0.13962 0.0
C4977 C 0.37587 0.96238 0.13833 0.0
C4978 C 0.37499 0.95892 0.12959 0.0
N4979 N 0.38627 0.98496 0.13311 0.0
H4980 H 0.12369 0.02877 0.61837 0.0
H4981 H 0.12686 0.03182 0.64717 0.0
H4982 H 0.13534 0.05296 0.62932 0.0
H4983 H 0.11548 0.02149 0.64751 0.0
C4984 C 0.11731 0.01691 0.6421 0.0
C4985 C 0.12577 0.03272 0.62416 0.0
C4986 C 0.12961 0.04129 0.62285 0.0
C4987 C 0.1246 0.02924 0.6329 0.0
C4988 C 0.12744 0.03442 0.64038 0.0
C4989 C 0.13133 0.04297 0.63908 0.0
C4990 C 0.13236 0.04636 0.63033 0.0
N4991 N 0.12089 0.02042 0.63391 0.0
C4992 C 0.0135 0.13803 0.39813 0.0
C4993 C 0.01735 0.14653 0.39599 0.0
C4994 C 1.00309 0.15122 0.38899 0.0
C4995 C 0.99898 0.14308 0.39192 0.0
N4996 N 0.99982 0.12952 0.40089 0.0
N4997 N 0.01537 0.16185 0.39087 0.0
C4998 C 0.00406 0.13666 0.3969 0.0
C4999 C 0.01202 0.15331 0.39184 0.0
N5000 N 0.01889 0.1312 0.40117 0.0
N5001 N 0.99861 0.15682 0.38319 0.0
H5002 H 0.02185 0.16368 0.3929 0.0
H5003 H 0.01145 0.16731 0.38883 0.0
H5004 H 0.99213 0.15549 0.38079 0.0
H5005 H 1.00164 0.16234 0.38005 0.0
H5006 H 0.01667 0.12458 0.40191 0.0
H5007 H 0.02581 0.13199 0.40223 0.0
H5008 H 1.00302 0.12515 0.40537 0.0
H5009 H 0.99288 0.12846 0.40048 0.0
C5010 C 0.10398 0.76143 0.6416 0.0
C5011 C 0.11063 0.76658 0.64618 0.0
C5012 C 0.12026 0.75313 0.64729 0.0
C5013 C 0.114 0.74824 0.64192 0.0
N5014 N 0.10067 0.74823 0.63257 0.0
N5015 N 0.1257 0.76779 0.65216 0.0
C5016 C 0.10606 0.75252 0.6387 0.0
C5017 C 0.11896 0.76256 0.64866 0.0
N5018 N 0.09555 0.76494 0.64027 0.0
N5019 N 0.12716 0.74871 0.65152 0.0
H5020 H 0.12494 0.77468 0.65335 0.0
H5021 H 0.13225 0.76546 0.65318 0.0
H5022 H 0.12815 0.74177 0.65099 0.0
H5023 H 0.13136 0.75175 0.65625 0.0
H5024 H 0.09013 0.76116 0.63789 0.0
H5025 H 0.09374 0.77143 0.6423 0.0
H5026 H 0.09535 0.75138 0.62924 0.0
H5027 H 0.10201 0.74176 0.63014 0.0
C5028 C 0.49617 0.85693 0.90224 0.0
C5029 C 0.4891 0.85973 0.89644 0.0
C5030 C 0.50022 0.86558 0.88563 0.0
C5031 C 0.50729 0.86324 0.89167 0.0
N5032 N 0.51185 0.85861 0.90659 0.0
N5033 N 0.48423 0.86849 0.88366 0.0
C5034 C 0.50521 0.85949 0.90025 0.0
C5035 C 0.49108 0.86465 0.88847 0.0
N5036 N 0.49432 0.8515 0.90947 0.0
N5037 N 0.50216 0.8681 0.87698 0.0
H5038 H 0.47747 0.86793 0.88555 0.0
H5039 H 0.4853 0.87293 0.87832 0.0
H5040 H 0.50871 0.86852 0.87447 0.0
H5041 H 0.49726 0.86892 0.87202 0.0
H5042 H 0.4993 0.84837 0.9133 0.0
H5043 H 0.4878 0.84955 0.91123 0.0
H5044 H 0.51059 0.85678 0.91326 0.0
H5045 H 0.51851 0.86059 0.90546 0.0
C5046 C 0.39091 0.24508 0.15222 0.0
C5047 C 0.39651 0.23963 0.14668 0.0
C5048 C 0.39906 0.25244 0.13648 0.0
C5049 C 0.3932 0.2578 0.14183 0.0
N5050 N 0.38254 0.25905 0.15405 0.0
N5051 N 0.40442 0.23746 0.13264 0.0
C5052 C 0.38875 0.25404 0.14944 0.0
C5053 C 0.40015 0.24313 0.13854 0.0
N5054 N 0.388 0.24182 0.16035 0.0
N5055 N 0.40369 0.25629 0.12949 0.0
H5056 H 0.40532 0.2306 0.1339 0.0
H5057 H 0.40639 0.23934 0.12617 0.0
H5058 H 0.4027 0.26294 0.12742 0.0
H5059 H 0.4089 0.25308 0.12605 0.0
H5060 H 0.38477 0.24573 0.16519 0.0
H5061 H 0.38937 0.23528 0.16255 0.0
H5062 H 0.37832 0.25641 0.159 0.0
H5063 H 0.38116 0.26578 0.15254 0.0
C5064 C 0.01588 0.86532 0.11771 0.0
C5065 C 0.01785 0.85997 0.11003 0.0
C5066 C 1.00167 0.85901 0.10663 0.0
C5067 C 0.99966 0.86321 0.11501 0.0
N5068 N 0.00498 0.86907 0.12927 0.0
N5069 N 0.01258 0.85073 0.09771 0.0
C5070 C 0.00679 0.86612 0.12073 0.0
C5071 C 0.01073 0.85658 0.10459 0.0
N5072 N 0.02271 0.86969 0.1221 0.0
N5073 N 0.99494 0.85757 0.10049 0.0
H5074 H 0.01911 0.84882 0.09594 0.0
H5075 H 0.0076 0.84721 0.09421 0.0
H5076 H 0.98825 0.85945 0.10164 0.0
H5077 H 0.99612 0.85537 0.09393 0.0
H5078 H 0.02161 0.87442 0.12718 0.0
H5079 H 0.02944 0.86924 0.12006 0.0
H5080 H 0.00997 0.87035 0.13404 0.0
H5081 H 0.99848 0.8694 0.13193 0.0
C5082 C 0.40332 0.76149 0.36475 0.0
C5083 C 0.39668 0.76667 0.3602 0.0
C5084 C 0.38699 0.75326 0.3591 0.0
C5085 C 0.39324 0.74834 0.36444 0.0
N5086 N 0.40661 0.74826 0.37375 0.0
N5087 N 0.38159 0.76795 0.35429 0.0
C5088 C 0.40121 0.75259 0.36764 0.0
C5089 C 0.38832 0.76269 0.35775 0.0
N5090 N 0.41177 0.76496 0.36605 0.0
N5091 N 0.38006 0.74887 0.35489 0.0
H5092 H 0.38235 0.77484 0.35312 0.0
H5093 H 0.37502 0.76564 0.35329 0.0
H5094 H 0.37905 0.74194 0.3554 0.0
H5095 H 0.37586 0.75194 0.35017 0.0
H5096 H 0.41718 0.76116 0.3684 0.0
H5097 H 0.41361 0.77144 0.36401 0.0
H5098 H 0.41195 0.75139 0.37707 0.0
H5099 H 0.40524 0.74181 0.37618 0.0
C5100 C 0.48943 0.13834 0.61701 0.0
C5101 C 0.48822 0.14581 0.61114 0.0
C5102 C 0.50437 0.14937 0.61215 0.0
C5103 C 0.5056 0.1419 0.61804 0.0
N5104 N 0.49974 0.12841 0.62498 0.0
N5105 N 0.49464 0.15723 0.60156 0.0
C5106 C 0.49828 0.13605 0.62004 0.0
C5107 C 0.49575 0.15094 0.60822 0.0
N5108 N 0.48203 0.13374 0.62007 0.0
N5109 N 0.51144 0.15507 0.61049 0.0
H5110 H 0.48841 0.15853 0.59856 0.0
H5111 H 0.49995 0.16062 0.59846 0.0
H5112 H 0.51798 0.15384 0.61278 0.0
H5113 H 0.51077 0.16124 0.60722 0.0
H5114 H 0.48225 0.12894 0.62519 0.0
H5115 H 0.4755 0.13508 0.61783 0.0
H5116 H 0.49496 0.12334 0.62582 0.0
H5117 H 0.50596 0.12679 0.62782 0.0
C5118 C 0.10974 0.24677 0.85313 0.0
C5119 C 0.1109 0.23985 0.85964 0.0
C5120 C 0.1154 0.25111 0.87093 0.0
C5121 C 0.11464 0.258 0.86431 0.0
N5122 N 0.11301 0.26217 0.84867 0.0
N5123 N 0.11667 0.2351 0.87406 0.0
C5124 C 0.11238 0.25576 0.85527 0.0
C5125 C 0.11434 0.24193 0.86832 0.0
N5126 N 0.10579 0.24483 0.84502 0.0
N5127 N 0.11654 0.25334 0.8798 0.0
H5128 H 0.11593 0.2283 0.87237 0.0
H5129 H 0.12009 0.23613 0.88011 0.0
H5130 H 0.11708 0.25997 0.88206 0.0
H5131 H 0.11612 0.24868 0.88504 0.0
H5132 H 0.10377 0.24974 0.84043 0.0
H5133 H 0.10393 0.23831 0.84313 0.0
H5134 H 0.11236 0.26075 0.84182 0.0
H5135 H 0.11506 0.26878 0.84996 0.0
C5136 C 0.38966 0.01572 0.13879 0.0
C5137 C 0.39663 0.01691 0.14526 0.0
C5138 C 0.39691 1.0006 0.14811 0.0
C5139 C 0.38996 0.99939 0.14163 0.0
N5140 N 0.38077 0.00543 0.12964 0.0
N5141 N 0.40827 0.0105 0.15458 0.0
C5142 C 0.38674 0.00683 0.13654 0.0
C5143 C 0.40069 0.00933 0.14945 0.0
N5144 N 0.38548 0.02312 0.13519 0.0
N5145 N 0.39975 0.99341 0.15315 0.0
H5146 H 0.4112 0.01681 0.15564 0.0
H5147 H 0.4121 0.0052 0.15714 0.0
H5148 H 0.39753 0.98683 0.15201 0.0
H5149 H 0.40395 0.99399 0.15875 0.0
H5150 H 0.37964 0.0228 0.13131 0.0
H5151 H 0.38751 0.02971 0.13656 0.0
H5152 H 0.37894 0.01039 0.12502 0.0
H5153 H 0.37809 0.99912 0.12812 0.0
C5154 C 0.2399 0.14031 0.38838 0.0
C5155 C 0.23861 0.1462 0.39582 0.0
C5156 C 0.25473 0.14525 0.39954 0.0
C5157 C 0.25605 0.13935 0.39211 0.0
N5158 N 0.25033 0.13229 0.3786 0.0
N5159 N 0.24488 0.15581 0.4073 0.0
C5160 C 0.24878 0.13728 0.3862 0.0
C5161 C 0.24608 0.14915 0.40103 0.0
N5162 N 0.23256 0.13725 0.3837 0.0
N5163 N 0.26173 0.14697 0.4053 0.0
H5164 H 0.23862 0.15878 0.40854 0.0
H5165 H 0.25014 0.15893 0.41074 0.0
H5166 H 0.2683 0.14471 0.40413 0.0
H5167 H 0.261 0.15025 0.41146 0.0
H5168 H 0.23283 0.13212 0.37892 0.0
H5169 H 0.22602 0.13951 0.38494 0.0
H5170 H 0.2456 0.13142 0.37348 0.0
H5171 H 0.25656 0.12942 0.37708 0.0
C5172 C 0.11813 0.99109 0.64221 0.0
C5173 C 0.10974 0.98908 0.64635 0.0
C5174 C 0.10571 0.00514 0.64588 0.0
C5175 C 0.11457 0.00726 0.64291 0.0
N5176 N 0.12973 1.00228 0.63954 0.0
N5177 N 0.09585 0.99424 0.65308 0.0
C5178 C 0.12091 1.00024 0.64132 0.0
C5179 C 0.10358 0.99612 0.6484 0.0
N5180 N 0.12342 0.98423 0.63905 0.0
N5181 N 0.09924 0.01171 0.64604 0.0
H5182 H 0.09398 0.98772 0.65493 0.0
H5183 H 0.09164 0.99921 0.65571 0.0
H5184 H 0.10049 0.01835 0.64409 0.0
H5185 H 0.09244 0.0104 0.64725 0.0
H5186 H 0.12916 0.98527 0.63514 0.0
H5187 H 0.12159 0.97745 0.63962 0.0
H5188 H 0.13483 0.99746 0.63931 0.0
H5189 H 0.13215 0.00887 0.63914 0.0
C5190 C 0.26586 0.86779 0.89156 0.0
C5191 C 0.26783 0.85969 0.89627 0.0
C5192 C 0.25171 0.85587 0.89634 0.0
C5193 C 0.24966 0.86453 0.8928 0.0
N5194 N 0.25479 0.87935 0.88834 0.0
N5195 N 0.26258 0.84643 0.9041 0.0
C5196 C 0.25673 0.87064 0.89066 0.0
C5197 C 0.26074 0.85381 0.89888 0.0
N5198 N 0.27274 0.87271 0.88789 0.0
N5199 N 0.24507 0.84951 0.89703 0.0
H5200 H 0.2691 0.84462 0.90603 0.0
H5201 H 0.25759 0.84251 0.90711 0.0
H5202 H 0.23842 0.8507 0.89507 0.0
H5203 H 0.24632 0.8428 0.8987 0.0
H5204 H 0.27169 0.87817 0.8836 0.0
H5205 H 0.27949 0.87082 0.88845 0.0
H5206 H 0.25969 0.88434 0.88767 0.0
H5207 H 0.24824 0.88185 0.88793 0.0
C5208 C 0.40323 0.99658 0.35894 0.0
C5209 C 0.39703 0.98959 0.36103 0.0
C5210 C 0.38599 1.00084 0.36615 0.0
C5211 C 0.39236 0.0078 0.36448 0.0
N5212 N 0.4077 0.01214 0.36124 0.0
N5213 N 0.38337 0.98484 0.36844 0.0
C5214 C 0.40118 0.00562 0.36146 0.0
C5215 C 0.38869 0.99166 0.36524 0.0
N5216 N 0.41092 0.99464 0.35423 0.0
N5217 N 0.3772 1.00295 0.368 0.0
H5218 H 0.38515 0.97806 0.36786 0.0
H5219 H 0.37767 0.98593 0.3724 0.0
H5220 H 0.37483 0.00955 0.36842 0.0
H5221 H 0.37206 0.99816 0.36828 0.0
H5222 H 0.41516 0.99956 0.35157 0.0
H5223 H 0.41274 0.9881 0.35239 0.0
H5224 H 0.41448 0.01079 0.35998 0.0
H5225 H 0.4065 0.0188 0.36319 0.0
C5226 C 0.2671 0.13892 0.61861 0.0
C5227 C 0.26838 0.14469 0.61107 0.0
C5228 C 0.25224 0.14369 0.60743 0.0
C5229 C 0.25094 0.13791 0.61496 0.0
N5230 N 0.25669 0.13112 0.62859 0.0
N5231 N 0.26207 0.15413 0.59948 0.0
C5232 C 0.25823 0.13595 0.62088 0.0
C5233 C 0.26089 0.14756 0.60585 0.0
N5234 N 0.27445 0.1359 0.6233 0.0
N5235 N 0.24522 0.14531 0.60166 0.0
H5236 H 0.26833 0.15708 0.59817 0.0
H5237 H 0.2568 0.1572 0.59602 0.0
H5238 H 0.23866 0.14307 0.60288 0.0
H5239 H 0.24594 0.14848 0.59544 0.0
H5240 H 0.27419 0.13084 0.62816 0.0
H5241 H 0.28101 0.13809 0.62197 0.0
H5242 H 0.26144 0.13033 0.6337 0.0
H5243 H 0.25045 0.12832 0.6302 0.0
C5244 C 0.11717 0.01573 0.86708 0.0
C5245 C 0.10975 0.01698 0.86114 0.0
C5246 C 0.10888 1.00064 0.85861 0.0
C5247 C 0.11627 0.99937 0.86457 0.0
N5248 N 0.12648 0.00538 0.87571 0.0
N5249 N 0.09729 0.0107 0.85284 0.0
C5250 C 0.12004 0.00682 0.86927 0.0
C5251 C 0.10521 0.00943 0.85741 0.0
N5252 N 0.12179 0.02308 0.87021 0.0
N5253 N 0.10549 0.99344 0.85394 0.0
H5254 H 0.09444 0.01706 0.85189 0.0
H5255 H 0.09315 0.00546 0.85068 0.0
H5256 H 0.10763 0.98682 0.85503 0.0
H5257 H 0.10089 0.99403 0.84867 0.0
H5258 H 0.1279 0.02268 0.87364 0.0
H5259 H 0.11981 0.0297 0.86888 0.0
H5260 H 0.12878 0.01037 0.88009 0.0
H5261 H 0.12913 0.99903 0.87715 0.0
C5262 C 0.2408 0.86847 0.11426 0.0
C5263 C 0.23887 0.86001 0.11022 0.0
C5264 C 0.25491 0.85596 0.11112 0.0
C5265 C 0.25697 0.86486 0.114 0.0
N5266 N 0.25197 0.88006 0.11706 0.0
N5267 N 0.24414 0.84598 0.10391 0.0
C5268 C 0.24994 0.87123 0.11534 0.0
C5269 C 0.24593 0.85379 0.10845 0.0
N5270 N 0.23387 0.87383 0.11714 0.0
N5271 N 0.26148 0.84949 0.11119 0.0
H5272 H 0.23764 0.84408 0.10197 0.0
H5273 H 0.24914 0.84169 0.10147 0.0
H5274 H 0.26809 0.85078 0.11324 0.0
H5275 H 0.26021 0.84267 0.11006 0.0
H5276 H 0.23483 0.87964 0.12097 0.0
H5277 H 0.22711 0.87202 0.11642 0.0
H5278 H 0.24717 0.88518 0.11709 0.0
H5279 H 0.25855 0.88245 0.11763 0.0
C5280 C 0.1418 0.38788 0.01559 0.0
C5281 C 0.1456 0.39643 0.01758 0.0
C5282 C 0.14444 0.40064 1.0016 0.0
C5283 C 0.14181 0.39169 0.99946 0.0
N5284 N 0.13921 0.37635 0.0043 0.0
N5285 N 0.15141 0.41073 0.01245 0.0
C5286 C 0.14071 0.3852 0.00643 0.0
C5287 C 0.14711 0.40279 0.01058 0.0
N5288 N 0.13916 0.38235 0.02247 0.0
N5289 N 0.14414 0.40718 0.9951 0.0
H5290 H 0.15331 0.41262 0.01895 0.0
H5291 H 0.15367 0.41515 0.00749 0.0
H5292 H 0.14208 0.40589 0.9885 0.0
H5293 H 0.14508 0.41401 0.99644 0.0
H5294 H 0.13549 0.37644 0.02148 0.0
H5295 H 0.1399 0.38409 0.02925 0.0
H5296 H 0.13937 0.37117 0.00904 0.0
H5297 H 0.13863 0.37403 0.9977 0.0
C5298 C 0.64758 0.10373 0.99519 0.0
C5299 C 0.64599 0.11018 0.98829 0.0
C5300 C 0.64126 0.12126 0.99967 0.0
C5301 C 0.64242 0.11468 0.00653 0.0
N5302 N 0.64475 0.09912 0.01063 0.0
N5303 N 0.6395 0.12433 0.98368 0.0
C5304 C 0.64501 0.10575 0.00422 0.0
C5305 C 0.64223 0.11871 0.99045 0.0
N5306 N 0.65187 0.09582 0.99317 0.0
N5307 N 0.63981 0.13008 1.00193 0.0
H5308 H 0.64015 0.12268 0.97687 0.0
H5309 H 0.63586 0.13023 0.9848 0.0
H5310 H 0.63931 0.13232 0.00858 0.0
H5311 H 0.63992 0.13533 0.99727 0.0
H5312 H 0.65418 0.09133 0.99806 0.0
H5313 H 0.65373 0.09403 0.98663 0.0
H5314 H 0.64565 0.0923 0.00917 0.0
H5315 H 0.64275 0.1003 0.01727 0.0
C5316 C 0.13811 0.39167 0.2411 0.0
C5317 C 0.14615 0.3965 0.23919 0.0
C5318 C 0.14985 0.39661 0.25534 0.0
C5319 C 0.14124 0.39288 0.25733 0.0
N5320 N 0.12651 0.38828 0.25209 0.0
N5321 N 0.1592 0.40459 0.24456 0.0
C5322 C 0.13521 0.3907 0.25021 0.0
C5323 C 0.15193 0.39921 0.24633 0.0
N5324 N 0.13328 0.38793 0.2342 0.0
N5325 N 0.15617 0.39739 0.26202 0.0
H5326 H 0.16101 0.40658 0.23806 0.0
H5327 H 0.16304 0.40767 0.24958 0.0
H5328 H 0.15499 0.39539 0.26866 0.0
H5329 H 0.16285 0.39918 0.26081 0.0
H5330 H 0.12788 0.38355 0.23521 0.0
H5331 H 0.13521 0.38851 0.22745 0.0
H5332 H 0.12156 0.38756 0.24715 0.0
H5333 H 0.12395 0.38787 0.25863 0.0
C5334 C 0.86544 0.88867 0.49089 0.0
C5335 C 0.8608 0.8968 0.4889 0.0
C5336 C 0.86077 0.90064 0.50502 0.0
C5337 C 0.86424 0.89196 0.50709 0.0
N5338 N 0.86859 0.8771 0.50198 0.0
N5339 N 0.85309 0.91013 0.49414 0.0
C5340 C 0.86634 0.88583 0.50002 0.0
C5341 C 0.85825 0.90272 0.49598 0.0
N5342 N 0.86907 0.88369 0.48402 0.0
N5343 N 0.86013 0.90702 0.51165 0.0
H5344 H 0.85119 0.91195 0.48762 0.0
H5345 H 0.85012 0.9141 0.49912 0.0
H5346 H 0.86209 0.90582 0.5183 0.0
H5347 H 0.85853 0.91374 0.51039 0.0
H5348 H 0.87332 0.8782 0.48507 0.0
H5349 H 0.86852 0.88558 0.47726 0.0
H5350 H 0.86922 0.8721 0.49709 0.0
H5351 H 0.869 0.87461 0.50854 0.0
C5352 C 0.86886 0.11554 0.24003 0.0
C5353 C 0.86086 0.11071 0.23798 0.0
C5354 C 0.85705 0.1103 0.25409 0.0
C5355 C 0.86565 0.11397 0.25622 0.0
N5356 N 0.88037 0.1188 0.25115 0.0
N5357 N 0.8478 0.10247 0.24312 0.0
C5358 C 0.8717 0.11635 0.24917 0.0
C5359 C 0.85504 0.10785 0.24503 0.0
N5360 N 0.87371 0.11945 0.23323 0.0
N5361 N 0.85069 0.10939 0.26071 0.0
H5362 H 0.84604 0.10057 0.23658 0.0
H5363 H 0.84395 0.0993 0.24807 0.0
H5364 H 0.85183 0.11128 0.26739 0.0
H5365 H 0.84401 0.10762 0.25943 0.0
H5366 H 0.87908 0.12383 0.23435 0.0
H5367 H 0.87181 0.11898 0.22646 0.0
H5368 H 0.88535 0.11965 0.24627 0.0
H5369 H 0.88287 0.11915 0.25771 0.0
C5370 C 0.35311 0.61525 0.5124 0.0
C5371 C 0.35986 0.61092 0.51763 0.0
C5372 C 0.36958 0.60991 0.50424 0.0
C5373 C 0.3632 0.61505 0.49925 0.0
N5374 N 0.34963 0.62405 0.49908 0.0
N5375 N 0.3751 0.60542 0.51898 0.0
C5376 C 0.35516 0.61811 0.50347 0.0
C5377 C 0.36828 0.60863 0.51368 0.0
N5378 N 0.34463 0.61637 0.51584 0.0
N5379 N 0.3766 0.6058 0.49989 0.0
H5380 H 0.37436 0.60433 0.5259 0.0
H5381 H 0.38168 0.60456 0.51668 0.0
H5382 H 0.3776 0.60625 0.49295 0.0
H5383 H 0.38091 0.60122 0.50302 0.0
H5384 H 0.33916 0.61855 0.512 0.0
H5385 H 0.34282 0.61434 0.52234 0.0
H5386 H 0.34421 0.62727 0.50218 0.0
H5387 H 0.35095 0.62645 0.4926 0.0
C5388 C 0.15241 0.60859 0.26058 0.0
C5389 C 0.14648 0.61106 0.26768 0.0
C5390 C 0.13547 0.61661 0.25661 0.0
C5391 C 0.1416 0.61458 0.24952 0.0
N5392 N 0.15668 0.61058 0.24492 0.0
N5393 N 0.13334 0.61923 0.27263 0.0
C5394 C 0.15031 0.61115 0.25156 0.0
C5395 C 0.13832 0.61567 0.26573 0.0
N5396 N 0.15986 0.60346 0.26238 0.0
N5397 N 0.12673 0.61885 0.25467 0.0
H5398 H 0.13524 0.61864 0.27938 0.0
H5399 H 0.12782 0.62345 0.27161 0.0
H5400 H 0.12423 0.61929 0.24812 0.0
H5401 H 0.12172 0.61942 0.25957 0.0
H5402 H 0.16384 0.60054 0.25738 0.0
H5403 H 0.1617 0.60153 0.26889 0.0
H5404 H 0.16342 0.609 0.24615 0.0
H5405 H 0.15546 0.61256 0.23827 0.0
C5406 C 0.3677 0.39085 0.76467 0.0
C5407 C 0.35947 0.39533 0.76661 0.0
C5408 C 0.35555 0.39501 0.75052 0.0
C5409 C 0.36431 0.39171 0.74848 0.0
N5410 N 0.37928 0.38774 0.75358 0.0
N5411 N 0.34588 0.40255 0.76135 0.0
C5412 C 0.37052 0.38985 0.75554 0.0
C5413 C 0.35344 0.3976 0.75953 0.0
N5414 N 0.3728 0.38748 0.77158 0.0
N5415 N 0.34915 0.39543 0.7439 0.0
H5416 H 0.34401 0.40444 0.76787 0.0
H5417 H 0.3418 0.40534 0.75636 0.0
H5418 H 0.35039 0.39344 0.73726 0.0
H5419 H 0.3424 0.39691 0.74514 0.0
H5420 H 0.37839 0.38334 0.77058 0.0
H5421 H 0.37094 0.38812 0.77834 0.0
H5422 H 0.38432 0.3873 0.75844 0.0
H5423 H 0.38174 0.38725 0.74701 0.0
C5424 C 0.99664 0.85847 0.60267 0.0
C5425 C 0.98961 0.86018 0.60894 0.0
C5426 C 1.00075 0.86516 0.62016 0.0
C5427 C 0.00775 0.86387 0.61375 0.0
N5428 N 0.01218 0.86121 0.59832 0.0
N5429 N 0.98469 0.86696 0.62286 0.0
C5430 C 0.00564 0.86109 0.60482 0.0
C5431 C 0.99159 0.86413 0.61743 0.0
N5432 N 0.9948 0.85402 0.59481 0.0
N5433 N 1.00282 0.8668 0.629 0.0
H5434 H 0.97792 0.86626 0.62108 0.0
H5435 H 0.98569 0.87073 0.62871 0.0
H5436 H 0.00942 0.86735 0.63136 0.0
H5437 H 0.99805 0.86679 0.63415 0.0
H5438 H 0.99977 0.85161 0.59047 0.0
H5439 H 0.98829 0.85213 0.59292 0.0
H5440 H 0.01087 0.86015 0.5915 0.0
H5441 H 0.0188 0.86323 0.59961 0.0
C5442 C 0.8988 0.24634 0.35217 0.0
C5443 C 0.89699 0.2393 0.35839 0.0
C5444 C 0.89195 0.25042 0.3696 0.0
C5445 C 0.89335 0.25743 0.36323 0.0
N5446 N 0.89618 0.2619 0.34785 0.0
N5447 N 0.89003 0.23437 0.37222 0.0
C5448 C 0.89621 0.25534 0.35432 0.0
C5449 C 0.89296 0.24127 0.36685 0.0
N5450 N 0.90333 0.2445 0.34434 0.0
N5451 N 0.89025 0.25247 0.37843 0.0
H5452 H 0.89071 0.2276 0.37042 0.0
H5453 H 0.88621 0.23537 0.37803 0.0
H5454 H 0.88974 0.25905 0.38082 0.0
H5455 H 0.89018 0.24767 0.38356 0.0
H5456 H 0.90581 0.24948 0.34005 0.0
H5457 H 0.9052 0.238 0.34244 0.0
H5458 H 0.8973 0.26061 0.34103 0.0
H5459 H 0.89418 0.26852 0.34913 0.0
C5460 C 0.51182 0.15354 0.11434 0.0
C5461 C 0.51706 0.1469 0.10986 0.0
C5462 C 0.50374 0.13708 0.10888 0.0
C5463 C 0.49876 0.14334 0.11416 0.0
N5464 N 0.49858 0.15678 0.12335 0.0
N5465 N 0.51848 0.13176 0.10413 0.0
C5466 C 0.50294 0.15137 0.11728 0.0
C5467 C 0.51316 0.13848 0.10751 0.0
N5468 N 0.5152 0.16204 0.11554 0.0
N5469 N 0.49941 0.13007 0.10473 0.0
H5470 H 0.52538 0.13257 0.10296 0.0
H5471 H 0.51623 0.12517 0.10321 0.0
H5472 H 0.49248 0.129 0.10525 0.0
H5473 H 0.50252 0.12585 0.10006 0.0
H5474 H 0.51134 0.16743 0.11784 0.0
H5475 H 0.52165 0.16392 0.11346 0.0
H5476 H 0.50166 0.16218 0.12661 0.0
H5477 H 0.49214 0.15537 0.12582 0.0
C5478 C 0.60814 0.75987 0.85259 0.0
C5479 C 0.61028 0.76691 0.85872 0.0
C5480 C 0.61564 0.75575 0.86974 0.0
C5481 C 0.61394 0.74874 0.86343 0.0
N5482 N 0.6105 0.74431 0.84816 0.0
N5483 N 0.61788 0.77177 0.87223 0.0
C5484 C 0.61076 0.75086 0.85464 0.0
C5485 C 0.61464 0.76491 0.867 0.0
N5486 N 0.60326 0.76173 0.84498 0.0
N5487 N 0.61764 0.7537 0.8785 0.0
H5488 H 0.61723 0.77855 0.87043 0.0
H5489 H 0.62193 0.77074 0.87787 0.0
H5490 H 0.61814 0.74712 0.8809 0.0
H5491 H 0.61796 0.75851 0.88361 0.0
H5492 H 0.60057 0.75676 0.84082 0.0
H5493 H 0.60131 0.76824 0.84317 0.0
H5494 H 0.60913 0.74562 0.84139 0.0
H5495 H 0.61252 0.73768 0.84935 0.0
C5496 C 0.99638 0.14818 0.90412 0.0
C5497 C 0.98935 0.14654 0.89783 0.0
C5498 C 1.00048 0.1415 0.88663 0.0
C5499 C 0.00748 0.14272 0.89307 0.0
N5500 N 0.01188 0.1453 0.90851 0.0
N5501 N 0.98442 0.13984 0.88388 0.0
C5502 C 0.00536 0.14549 0.90199 0.0
C5503 C 0.99133 0.1426 0.88933 0.0
N5504 N 0.99455 0.15262 0.91199 0.0
N5505 N 1.00257 0.13988 0.87779 0.0
H5506 H 0.97765 0.14058 0.88565 0.0
H5507 H 0.9854 0.13608 0.87803 0.0
H5508 H 0.00917 0.13929 0.87544 0.0
H5509 H 0.99781 0.13994 0.87263 0.0
H5510 H 0.99954 0.15498 0.91635 0.0
H5511 H 0.98806 0.15457 0.91387 0.0
H5512 H 0.01056 0.14634 0.91533 0.0
H5513 H 0.01849 0.14322 0.90724 0.0
C5514 C 0.61316 0.24226 0.63955 0.0
C5515 C 0.60954 0.24032 0.6482 0.0
C5516 C 0.61097 0.2563 0.65235 0.0
C5517 C 0.61349 0.25839 0.64334 0.0
N5518 N 0.61564 0.2535 0.62795 0.0
N5519 N 0.60408 0.24555 0.66259 0.0
C5520 C 0.61432 0.2514 0.63684 0.0
C5521 C 0.60823 0.24735 0.65456 0.0
N5522 N 0.61557 0.23534 0.63396 0.0
N5523 N 0.61147 0.2628 0.65887 0.0
H5524 H 0.60215 0.23907 0.66453 0.0
H5525 H 0.60195 0.25054 0.66706 0.0
H5526 H 0.61356 0.26939 0.65754 0.0
H5527 H 0.61063 0.26149 0.66572 0.0
H5528 H 0.61912 0.23628 0.62796 0.0
H5529 H 0.61476 0.22857 0.63571 0.0
H5530 H 0.6153 0.24877 0.62277 0.0
H5531 H 0.61624 0.2601 0.62561 0.0
C5532 C 0.50922 0.85871 0.40455 0.0
C5533 C 0.51618 0.86033 0.39817 0.0
C5534 C 0.50491 0.86516 0.38702 0.0
C5535 C 0.49798 0.86395 0.39354 0.0
N5536 N 0.49374 0.8615 0.40905 0.0
N5537 N 0.52092 0.86692 0.3841 0.0
C5538 C 0.50021 0.86129 0.40248 0.0
C5539 C 0.51409 0.86416 0.38965 0.0
N5540 N 0.51117 0.85438 0.41246 0.0
N5541 N 0.50272 0.86667 0.37819 0.0
H5542 H 0.52772 0.86625 0.38581 0.0
H5543 H 0.51986 0.87061 0.37822 0.0
H5544 H 0.4961 0.86717 0.3759 0.0
H5545 H 0.50744 0.8666 0.37298 0.0
H5546 H 0.50626 0.85204 0.41689 0.0
H5547 H 0.51771 0.85254 0.4143 0.0
H5548 H 0.49513 0.86054 0.41587 0.0
H5549 H 0.4871 0.86349 0.40782 0.0
C5550 C 0.89234 0.76489 0.13918 0.0
C5551 C 0.89632 0.7669 0.14765 0.0
C5552 C 0.89541 0.7509 0.15184 0.0
C5553 C 0.89261 0.74875 0.14294 0.0
N5554 N 0.88966 0.75361 0.12767 0.0
N5555 N 0.90255 0.76176 0.16177 0.0
C5556 C 0.8913 0.75572 0.13649 0.0
C5557 C 0.89805 0.7599 0.15394 0.0
N5558 N 0.88948 0.77175 0.13374 0.0
N5559 N 0.89529 0.7444 0.15838 0.0
H5560 H 0.90448 0.76827 0.16363 0.0
H5561 H 0.90497 0.7568 0.16612 0.0
H5562 H 0.89324 0.73778 0.15714 0.0
H5563 H 0.89636 0.74574 0.16519 0.0
H5564 H 0.88569 0.77073 0.12792 0.0
H5565 H 0.89017 0.77853 0.1355 0.0
H5566 H 0.88965 0.75837 0.1225 0.0
H5567 H 0.88912 0.74701 0.12533 0.0
C5568 C 0.6073 0.99349 0.86819 0.0
C5569 C 0.6097 0.98958 0.85978 0.0
C5570 C 0.61715 0.00369 0.85535 0.0
C5571 C 0.61397 0.00788 0.86335 0.0
N5572 N 0.60447 0.00723 0.87657 0.0
N5573 N 0.61548 0.99142 0.84468 0.0
C5574 C 0.60866 1.0029 0.86959 0.0
C5575 C 0.61423 0.99481 0.85317 0.0
N5576 N 0.60388 0.98817 0.8749 0.0
N5577 N 0.62325 0.00805 0.84997 0.0
H5578 H 0.61342 0.98497 0.84278 0.0
H5579 H 0.61782 0.99528 0.83929 0.0
H5580 H 0.6257 0.01449 0.85139 0.0
H5581 H 0.62655 0.00496 0.84459 0.0
H5582 H 0.60292 0.99042 0.88148 0.0
H5583 H 0.60272 0.98128 0.87408 0.0
H5584 H 0.59977 0.00413 0.88077 0.0
H5585 H 0.60498 0.01416 0.87764 0.0
C5586 C 0.76018 0.85283 0.60861 0.0
C5587 C 0.7672 0.85916 0.61013 0.0
C5588 C 0.75606 0.87035 0.61519 0.0
C5589 C 0.74909 0.86387 0.61408 0.0
N5590 N 0.74472 0.8484 0.61164 0.0
N5591 N 0.77212 0.8732 0.61667 0.0
C5592 C 0.75122 0.85494 0.61135 0.0
C5593 C 0.76522 0.86768 0.61402 0.0
N5594 N 0.76202 0.84493 0.60422 0.0
N5595 N 0.75394 0.87919 0.61677 0.0
H5596 H 0.7789 0.87146 0.61587 0.0
H5597 H 0.77115 0.87907 0.62039 0.0
H5598 H 0.74734 0.8815 0.61742 0.0
H5599 H 0.75868 0.88437 0.61663 0.0
H5600 H 0.75704 0.84052 0.60195 0.0
H5601 H 0.76851 0.84306 0.60225 0.0
H5602 H 0.74606 0.84158 0.61064 0.0
H5603 H 0.73812 0.84966 0.61375 0.0
C5604 C 0.89924 0.01297 0.36773 0.0
C5605 C 0.89692 0.01678 0.35925 0.0
C5606 C 0.88965 1.00256 0.35486 0.0
C5607 C 0.89276 0.99847 0.36294 0.0
N5608 N 0.90206 0.99933 0.37629 0.0
N5609 N 0.89135 0.01474 0.3441 0.0
C5610 C 0.89794 0.00356 0.36921 0.0
C5611 C 0.89252 0.01144 0.35263 0.0
N5612 N 0.90252 0.01838 0.37443 0.0
N5613 N 0.88366 0.99809 0.34945 0.0
H5614 H 0.89337 0.02119 0.34217 0.0
H5615 H 0.88911 0.01081 0.33872 0.0
H5616 H 0.88125 0.99164 0.3509 0.0
H5617 H 0.8804 1.0011 0.344 0.0
H5618 H 0.90341 0.0162 0.38105 0.0
H5619 H 0.90363 0.02528 0.37356 0.0
H5620 H 0.90668 1.00252 0.38052 0.0
H5621 H 0.90158 0.99241 0.37743 0.0
C5622 C 0.74237 0.13877 0.11266 0.0
C5623 C 0.74038 0.14738 0.10899 0.0
C5624 C 0.75633 0.15166 0.11042 0.0
C5625 C 0.75848 0.14268 0.113 0.0
N5626 N 0.7537 0.12728 0.11525 0.0
N5627 N 0.74553 0.16177 0.10344 0.0
C5628 C 0.75153 0.13613 0.11386 0.0
C5629 C 0.74737 0.15378 0.10765 0.0
N5630 N 0.73548 0.13315 0.1151 0.0
N5631 N 0.76279 0.15822 0.1109 0.0
H5632 H 0.73903 0.16365 0.10148 0.0
H5633 H 0.75049 0.16625 0.1013 0.0
H5634 H 0.76938 0.15696 0.11303 0.0
H5635 H 0.76143 0.16506 0.11002 0.0
H5636 H 0.73646 0.12719 0.11868 0.0
H5637 H 0.7287 0.13485 0.11427 0.0
H5638 H 0.749 0.12207 0.11493 0.0
H5639 H 0.76031 0.12499 0.1159 0.0
C5640 C 0.61405 0.01136 0.65425 0.0
C5641 C 0.60977 0.01665 0.64751 0.0
C5642 C 0.60882 0.00333 0.63768 0.0
C5643 C 0.61391 0.99829 0.64406 0.0
N5644 N 0.62281 0.99801 0.65769 0.0
N5645 N 0.60436 0.01811 0.63225 0.0
C5646 C 0.61691 1.00245 0.65215 0.0
C5647 C 0.60753 0.01276 0.63905 0.0
N5648 N 0.61512 0.01475 0.66276 0.0
N5649 N 0.60476 0.99904 0.6306 0.0
H5650 H 0.60326 0.02502 0.63303 0.0
H5651 H 0.60355 0.01587 0.62564 0.0
H5652 H 0.60522 0.99211 0.62955 0.0
H5653 H 0.60021 1.0022 0.62628 0.0
H5654 H 0.61726 0.01086 0.66821 0.0
H5655 H 0.61309 0.02123 0.6646 0.0
H5656 H 0.626 1.00107 0.66316 0.0
H5657 H 0.62522 0.99154 0.65635 0.0
C5658 C 0.74746 0.85232 0.39778 0.0
C5659 C 0.74048 0.85866 0.39614 0.0
C5660 C 0.75169 0.86981 0.39118 0.0
C5661 C 0.75864 0.86333 0.39241 0.0
N5662 N 0.76295 0.84786 0.39498 0.0
N5663 N 0.73566 0.87266 0.38945 0.0
C5664 C 0.75646 0.85441 0.39515 0.0
C5665 C 0.74252 0.86716 0.39223 0.0
N5666 N 0.74555 0.84445 0.40218 0.0
N5667 N 0.75384 0.87863 0.38958 0.0
H5668 H 0.72887 0.87093 0.39016 0.0
H5669 H 0.73669 0.87851 0.38571 0.0
H5670 H 0.76046 0.88095 0.38903 0.0
H5671 H 0.74911 0.88382 0.38963 0.0
H5672 H 0.75049 0.84005 0.40454 0.0
H5673 H 0.73903 0.84259 0.40407 0.0
H5674 H 0.76159 0.84104 0.396 0.0
H5675 H 0.76958 0.8491 0.39294 0.0
C5676 C 0.89305 0.99479 0.15385 0.0
C5677 C 0.89739 0.9895 0.14715 0.0
C5678 C 0.89833 1.00278 0.13728 0.0
C5679 C 0.89317 0.00781 0.1436 0.0
N5680 N 0.88419 0.0081 0.15719 0.0
N5681 N 0.90289 0.98799 0.13192 0.0
C5682 C 0.89015 0.00368 0.1517 0.0
C5683 C 0.89965 0.99336 0.13869 0.0
N5684 N 0.89197 0.99144 0.16237 0.0
N5685 N 0.90241 0.00706 0.1302 0.0
H5686 H 0.90401 0.9811 0.13274 0.0
H5687 H 0.90372 0.99022 0.12531 0.0
H5688 H 0.90193 0.01399 0.12913 0.0
H5689 H 0.907 0.00391 0.12592 0.0
H5690 H 0.88978 0.99534 0.16779 0.0
H5691 H 0.89403 0.98498 0.16425 0.0
H5692 H 0.88099 0.00505 0.16265 0.0
H5693 H 0.88175 0.01455 0.1558 0.0
C5694 C 0.76454 0.13867 0.89358 0.0
C5695 C 0.76651 0.14735 0.89709 0.0
C5696 C 0.75058 0.15161 0.8954 0.0
C5697 C 0.74844 0.14259 0.89298 0.0
N5698 N 0.75323 0.12714 0.8911 0.0
N5699 N 0.76132 0.16185 0.9023 0.0
C5700 C 0.75539 0.13601 0.89234 0.0
C5701 C 0.75951 0.15378 0.89823 0.0
N5702 N 0.77145 0.13299 0.89133 0.0
N5703 N 0.74413 0.15817 0.89472 0.0
H5704 H 0.76778 0.16376 0.90431 0.0
H5705 H 0.75633 0.16638 0.9043 0.0
H5706 H 0.73757 0.15687 0.89255 0.0
H5707 H 0.7455 0.16502 0.89547 0.0
H5708 H 0.77051 0.12696 0.88786 0.0
H5709 H 0.77822 0.1347 0.89219 0.0
H5710 H 0.75792 0.12192 0.89158 0.0
H5711 H 0.74662 0.12484 0.89043 0.0
C5712 C 0.85834 0.6028 0.99643 0.0
C5713 C 0.86053 0.60888 0.98937 0.0
C5714 C 0.86602 0.61988 1.00048 0.0
C5715 C 0.86427 0.61361 0.00752 0.0
N5716 N 0.86068 0.5984 0.01201 0.0
N5717 N 0.86827 0.62228 0.98444 0.0
C5718 C 0.861 0.60485 0.00543 0.0
C5719 C 0.86498 0.61712 0.99133 0.0
N5720 N 0.85338 0.59524 0.99461 0.0
N5721 N 0.8681 0.62863 1.00249 0.0
H5722 H 0.86759 0.62046 0.97767 0.0
H5723 H 0.87238 0.62789 0.98545 0.0
H5724 H 0.86863 0.63105 0.00907 0.0
H5725 H 0.86846 0.63371 0.99766 0.0
H5726 H 0.85065 0.59112 0.99961 0.0
H5727 H 0.8514 0.59343 0.98811 0.0
H5728 H 0.85924 0.59164 0.01072 0.0
H5729 H 0.86273 0.59959 0.01863 0.0
C5730 C 0.36426 0.88908 0.01429 0.0
C5731 C 0.36034 0.89757 0.01633 0.0
C5732 C 0.36143 0.90186 1.00036 0.0
C5733 C 0.36418 0.89294 0.99818 0.0
N5734 N 0.36694 0.87762 1.00297 0.0
N5735 N 0.35432 0.9118 0.01125 0.0
C5736 C 0.36536 0.88644 0.00512 0.0
C5737 C 0.35874 0.90393 0.00935 0.0
N5738 N 0.36699 0.88356 0.02115 0.0
N5739 N 0.36165 0.90842 0.99389 0.0
H5740 H 0.35239 0.91363 0.01776 0.0
H5741 H 0.35199 0.9162 0.0063 0.0
H5742 H 0.36373 0.9072 0.98728 0.0
H5743 H 0.36062 0.91523 0.99526 0.0
H5744 H 0.37074 0.87771 0.02013 0.0
H5745 H 0.36625 0.88527 0.02794 0.0
H5746 H 0.36685 0.87242 0.00769 0.0
H5747 H 0.36751 0.87531 0.99635 0.0
C5748 C 0.85733 0.61775 0.76291 0.0
C5749 C 0.85979 0.60936 0.76683 0.0
C5750 C 0.86731 0.60498 0.75274 0.0
C5751 C 0.86408 0.61296 0.74853 0.0
N5752 N 0.8545 0.62611 0.74915 0.0
N5753 N 0.8657 0.59431 0.76501 0.0
C5754 C 0.85871 0.61916 0.7535 0.0
C5755 C 0.86438 0.60278 0.76161 0.0
N5756 N 0.85385 0.62443 0.76822 0.0
N5757 N 0.87345 0.59964 0.74839 0.0
H5758 H 0.86364 0.59241 0.77147 0.0
H5759 H 0.86809 0.58894 0.76117 0.0
H5760 H 0.8759 0.60107 0.74195 0.0
H5761 H 0.87679 0.59429 0.75148 0.0
H5762 H 0.85285 0.631 0.76596 0.0
H5763 H 0.85267 0.6236 0.77511 0.0
H5764 H 0.84976 0.63027 0.75224 0.0
H5765 H 0.85504 0.62719 0.74223 0.0
C5766 C 0.13991 0.11562 0.51474 0.0
C5767 C 0.14633 0.10882 0.51674 0.0
C5768 C 0.14862 0.10632 0.50053 0.0
C5769 C 0.14328 0.11404 0.49858 0.0
N5770 N 0.13503 0.12699 0.5041 0.0
N5771 N 0.15773 0.09841 0.51155 0.0
C5772 C 0.13914 0.1189 0.50574 0.0
C5773 C 0.1509 0.10431 0.50964 0.0
N5774 N 0.13451 0.11892 0.52144 0.0
N5775 N 0.1513 0.10074 0.4937 0.0
H5776 H 0.15961 0.09671 0.51811 0.0
H5777 H 0.162 0.09575 0.50665 0.0
H5778 H 0.14956 0.10183 0.48697 0.0
H5779 H 0.15444 0.09455 0.49479 0.0
H5780 H 0.12909 0.12322 0.52023 0.0
H5781 H 0.1349 0.11664 0.52809 0.0
H5782 H 0.13275 0.13125 0.50921 0.0
H5783 H 0.13471 0.12992 0.49773 0.0
C5784 C 0.14302 0.90364 0.7613 0.0
C5785 C 0.14718 0.89688 0.76664 0.0
C5786 C 0.14801 0.88695 0.75339 0.0
C5787 C 0.14301 0.89336 0.7483 0.0
N5788 N 0.13431 0.90712 0.74792 0.0
N5789 N 0.15236 0.88156 0.76822 0.0
C5790 C 0.14012 0.90153 0.7524 0.0
C5791 C 0.14929 0.88836 0.76282 0.0
N5792 N 0.14207 0.91219 0.76462 0.0
N5793 N 0.15197 0.87978 0.74916 0.0
H5794 H 0.15346 0.88237 0.77513 0.0
H5795 H 0.15308 0.87492 0.76602 0.0
H5796 H 0.15151 0.8787 0.74223 0.0
H5797 H 0.15645 0.87542 0.75235 0.0
H5798 H 0.14002 0.91765 0.7607 0.0
H5799 H 0.14413 0.91404 0.77109 0.0
H5800 H 0.1312 0.91265 0.75094 0.0
H5801 H 0.13187 0.90576 0.74146 0.0
C5802 C 0.6484 0.40328 0.49651 0.0
C5803 C 0.64605 0.3972 0.4895 0.0
C5804 C 0.6405 0.38634 0.50072 0.0
C5805 C 0.64241 0.39261 0.50771 0.0
N5806 N 0.64624 0.4078 0.51208 0.0
N5807 N 0.63806 0.38389 0.48472 0.0
C5808 C 0.64578 0.40132 0.50555 0.0
C5809 C 0.6415 0.38904 0.49155 0.0
N5810 N 0.65346 0.41075 0.49461 0.0
N5811 N 0.63833 0.37762 0.50279 0.0
H5812 H 0.63869 0.38567 0.47793 0.0
H5813 H 0.63387 0.37836 0.4858 0.0
H5814 H 0.63784 0.37524 0.50939 0.0
H5815 H 0.63784 0.37252 0.49798 0.0
H5816 H 0.6563 0.41485 0.49957 0.0
H5817 H 0.65542 0.4125 0.48809 0.0
H5818 H 0.64777 0.41453 0.51075 0.0
H5819 H 0.64422 0.40668 0.51873 0.0
C5820 C 0.85738 0.38793 0.74365 0.0
C5821 C 0.85966 0.39639 0.73979 0.0
C5822 C 0.86694 0.4009 0.75396 0.0
C5823 C 0.86391 0.39281 0.7581 0.0
N5824 N 0.85463 0.37944 0.75734 0.0
N5825 N 0.86513 0.41159 0.74174 0.0
C5826 C 0.85872 0.38651 0.75306 0.0
C5827 C 0.86403 0.40306 0.74508 0.0
N5828 N 0.85412 0.38119 0.73828 0.0
N5829 N 0.87293 0.40636 0.75838 0.0
H5830 H 0.86307 0.41347 0.73528 0.0
H5831 H 0.86735 0.417 0.74563 0.0
H5832 H 0.87538 0.40496 0.76482 0.0
H5833 H 0.87613 0.41182 0.75533 0.0
H5834 H 0.85326 0.37458 0.7405 0.0
H5835 H 0.85297 0.38201 0.73139 0.0
H5836 H 0.85002 0.37518 0.7542 0.0
H5837 H 0.85512 0.37835 0.76427 0.0
C5838 C 0.64867 0.61795 0.24353 0.0
C5839 C 0.64645 0.60949 0.23963 0.0
C5840 C 0.63915 0.60489 0.25376 0.0
C5841 C 0.64215 0.61297 0.25794 0.0
N5842 N 0.65136 0.62638 0.25727 0.0
N5843 N 0.64103 0.59426 0.24149 0.0
C5844 C 0.64731 0.61932 0.25295 0.0
C5845 C 0.64209 0.60278 0.24488 0.0
N5846 N 0.65191 0.62473 0.2382 0.0
N5847 N 0.63318 0.59938 0.25815 0.0
H5848 H 0.64312 0.59242 0.23503 0.0
H5849 H 0.63883 0.58883 0.24536 0.0
H5850 H 0.63071 0.60074 0.26459 0.0
H5851 H 0.63 0.59393 0.25506 0.0
H5852 H 0.65273 0.63134 0.24045 0.0
H5853 H 0.65307 0.62395 0.2313 0.0
H5854 H 0.65596 0.63068 0.25415 0.0
H5855 H 0.65086 0.62744 0.2642 0.0
C5856 C 0.51074 0.65195 0.89744 0.0
C5857 C 0.51805 0.64617 0.89529 0.0
C5858 C 0.50773 0.636 0.88719 0.0
C5859 C 0.50063 0.64234 0.88845 0.0
N5860 N 0.49527 0.65644 0.89451 0.0
N5861 N 0.52383 0.63287 0.888 0.0
C5862 C 0.50211 0.65032 0.89355 0.0
C5863 C 0.51661 0.63817 0.89024 0.0
N5864 N 0.51206 0.65892 0.90334 0.0
N5865 N 0.50603 0.62801 0.88291 0.0
H5866 H 0.53034 0.63409 0.89036 0.0
H5867 H 0.52353 0.62754 0.88345 0.0
H5868 H 0.49986 0.62646 0.87994 0.0
H5869 H 0.51057 0.62266 0.8827 0.0
H5870 H 0.50688 0.66288 0.90594 0.0
H5871 H 0.51832 0.66031 0.90626 0.0
H5872 H 0.49614 0.6629 0.89712 0.0
H5873 H 0.48869 0.65523 0.89231 0.0
C5874 C 0.61509 0.26461 0.13838 0.0
C5875 C 0.61126 0.26662 0.14692 0.0
C5876 C 0.61225 0.25062 0.15109 0.0
C5877 C 0.6149 0.24848 0.14213 0.0
N5878 N 0.61756 0.25334 0.12681 0.0
N5879 N 0.60532 0.2615 0.16116 0.0
C5880 C 0.61608 0.25545 0.13566 0.0
C5881 C 0.60965 0.25962 0.15324 0.0
N5882 N 0.61783 0.27148 0.13288 0.0
N5883 N 0.61247 0.24411 0.15761 0.0
H5884 H 0.60346 0.26801 0.16306 0.0
H5885 H 0.60299 0.25654 0.16556 0.0
H5886 H 0.61448 0.23749 0.15632 0.0
H5887 H 0.61152 0.24544 0.16444 0.0
H5888 H 0.62152 0.27047 0.12698 0.0
H5889 H 0.61716 0.27826 0.13465 0.0
H5890 H 0.61747 0.2581 0.12164 0.0
H5891 H 0.61805 0.24674 0.12445 0.0
C5892 C 0.99565 0.35544 0.39789 0.0
C5893 C 0.98821 0.36095 0.39547 0.0
C5894 C 0.99836 0.37104 0.38706 0.0
C5895 C 0.00557 0.3649 0.38854 0.0
N5896 N 0.0112 0.35113 0.39511 0.0
N5897 N 0.98219 0.37378 0.38756 0.0
C5898 C 0.00425 0.35709 0.39394 0.0
C5899 C 0.98951 0.36878 0.39011 0.0
N5900 N 0.99448 0.34873 0.40411 0.0
N5901 N 0.99993 0.37896 0.3826 0.0
H5902 H 0.97567 0.37247 0.38987 0.0
H5903 H 0.98242 0.37892 0.38279 0.0
H5904 H 0.00614 0.38059 0.37974 0.0
H5905 H 0.99527 0.38418 0.38218 0.0
H5906 H 0.99974 0.345 0.40688 0.0
H5907 H 0.98825 0.34735 0.4071 0.0
H5908 H 0.01044 0.34477 0.39797 0.0
H5909 H 0.01774 0.35237 0.39282 0.0
C5910 C 0.89943 0.74652 0.65021 0.0
C5911 C 0.89538 0.73896 0.64597 0.0
C5912 C 0.88691 0.74908 0.63592 0.0
C5913 C 0.89188 0.75652 0.63935 0.0
N5914 N 0.90309 0.76246 0.64951 0.0
N5915 N 0.88566 0.73281 0.63449 0.0
C5916 C 0.89817 0.75528 0.64647 0.0
C5917 C 0.88911 0.74018 0.63883 0.0
N5918 N 0.90435 0.74531 0.65792 0.0
N5919 N 0.88018 0.75051 0.62977 0.0
H5920 H 0.88699 0.7262 0.63651 0.0
H5921 H 0.88194 0.73316 0.62854 0.0
H5922 H 0.87871 0.75685 0.6271 0.0
H5923 H 0.87564 0.74556 0.62776 0.0
H5924 H 0.90678 0.75058 0.66187 0.0
H5925 H 0.90536 0.73897 0.66082 0.0
H5926 H 0.90857 0.76186 0.65386 0.0
H5927 H 0.90199 0.76905 0.64732 0.0
C5928 C 0.51696 0.36892 0.61643 0.0
C5929 C 0.51853 0.36067 0.61182 0.0
C5930 C 0.50267 0.35634 0.61387 0.0
C5931 C 0.50107 0.36456 0.61854 0.0
N5932 N 0.50625 0.37924 0.62332 0.0
N5933 N 0.51275 0.34737 0.60455 0.0
C5934 C 0.50806 0.37108 0.61943 0.0
C5935 C 0.51132 0.35465 0.61004 0.0
N5936 N 0.52409 0.37448 0.6183 0.0
N5937 N 0.49593 0.35007 0.61325 0.0
H5938 H 0.51902 0.34592 0.60171 0.0
H5939 H 0.50764 0.34317 0.60221 0.0
H5940 H 0.48933 0.35129 0.61538 0.0
H5941 H 0.49691 0.34349 0.61101 0.0
H5942 H 0.52372 0.38006 0.62254 0.0
H5943 H 0.5306 0.37326 0.61594 0.0
H5944 H 0.51068 0.38468 0.62321 0.0
H5945 H 0.50009 0.38082 0.6263 0.0
C5946 C 0.89191 0.26476 0.86836 0.0
C5947 C 0.89543 0.26688 0.85971 0.0
C5948 C 0.89414 0.25097 0.8553 0.0
C5949 C 0.89177 0.2487 0.86431 0.0
N5950 N 0.88965 0.25331 0.87979 0.0
N5951 N 0.90074 0.26197 0.84515 0.0
C5952 C 0.89088 0.25557 0.87093 0.0
C5953 C 0.89672 0.25998 0.85321 0.0
N5954 N 0.88947 0.27157 0.87408 0.0
N5955 N 0.89364 0.24456 0.84869 0.0
H5956 H 0.90255 0.26851 0.84329 0.0
H5957 H 0.90286 0.25709 0.84057 0.0
H5958 H 0.89164 0.23793 0.84995 0.0
H5959 H 0.89438 0.24599 0.84185 0.0
H5960 H 0.88599 0.27049 0.88009 0.0
H5961 H 0.89018 0.27837 0.87243 0.0
H5962 H 0.88997 0.25796 0.88504 0.0
H5963 H 0.88911 0.24667 0.88203 0.0
C5964 C 0.9958 0.65082 0.10907 0.0
C5965 C 0.98833 0.64542 0.11166 0.0
C5966 C 0.99846 0.63543 0.12022 0.0
C5967 C 0.00571 0.64149 0.11856 0.0
N5968 N 0.0114 0.65508 0.11167 0.0
N5969 N 0.98227 0.63281 0.1199 0.0
C5970 C 0.00441 0.64919 0.11301 0.0
C5971 C 0.98961 0.6377 0.11718 0.0
N5972 N 0.99464 0.65741 0.10273 0.0
N5973 N 1.00001 0.6276 0.12484 0.0
H5974 H 0.97574 0.63412 0.11762 0.0
H5975 H 0.9825 0.62777 0.12478 0.0
H5976 H 0.00621 0.62599 0.12771 0.0
H5977 H 0.99531 0.62242 0.12539 0.0
H5978 H 0.99991 0.66103 0.09985 0.0
H5979 H 0.9884 0.65876 0.09974 0.0
H5980 H 0.01066 0.66139 0.10869 0.0
H5981 H 0.01794 0.65384 0.11394 0.0
C5982 C 0.61634 0.74512 0.35488 0.0
C5983 C 0.61051 0.73981 0.36032 0.0
C5984 C 0.60801 0.75271 0.37041 0.0
C5985 C 0.61409 0.75793 0.36518 0.0
N5986 N 0.62503 0.75892 0.35317 0.0
N5987 N 0.60225 0.73787 0.37419 0.0
C5988 C 0.61862 0.75405 0.35768 0.0
C5989 C 0.60676 0.74342 0.36836 0.0
N5990 N 0.61935 0.74177 0.34683 0.0
N5991 N 0.60331 0.75668 0.3773 0.0
H5992 H 0.60123 0.73102 0.37293 0.0
H5993 H 0.60018 0.73981 0.38061 0.0
H5994 H 0.60441 0.76332 0.37937 0.0
H5995 H 0.59795 0.7536 0.38062 0.0
H5996 H 0.62276 0.74559 0.34204 0.0
H5997 H 0.61789 0.73525 0.34462 0.0
H5998 H 0.62929 0.75618 0.34832 0.0
H5999 H 0.6265 0.76562 0.35468 0.0
C6000 C 0.90386 0.50928 0.64744 0.0
C6001 C 0.89747 0.51625 0.64597 0.0
C6002 C 0.88619 0.50504 0.64131 0.0
C6003 C 0.8927 0.49809 0.64239 0.0
N6004 N 0.90823 0.49378 0.64457 0.0
N6005 N 0.88328 0.52106 0.63968 0.0
C6006 C 0.90169 0.50027 0.64489 0.0
C6007 C 0.88887 0.51421 0.6423 0.0
N6008 N 0.91187 0.5112 0.6516 0.0
N6009 N 0.87733 0.50288 0.63993 0.0
H6010 H 0.88502 0.52785 0.64037 0.0
H6011 H 0.87733 0.52004 0.6361 0.0
H6012 H 0.87501 0.49627 0.63943 0.0
H6013 H 0.87213 0.50761 0.64011 0.0
H6014 H 0.91634 0.50627 0.65384 0.0
H6015 H 0.91378 0.51773 0.65338 0.0
H6016 H 0.91508 0.49513 0.64541 0.0
H6017 H 0.90693 0.48715 0.64259 0.0
C6018 C 0.74098 0.63872 0.89109 0.0
C6019 C 0.739 0.64661 0.89613 0.0
C6020 C 0.75516 0.65022 0.8967 0.0
C6021 C 0.7572 0.6417 0.89283 0.0
N6022 N 0.75198 0.62715 0.88764 0.0
N6023 N 0.74426 0.65941 0.90471 0.0
C6024 C 0.7501 0.63579 0.89027 0.0
C6025 C 0.7461 0.65228 0.89916 0.0
N6026 N 0.73414 0.63407 0.88703 0.0
N6027 N 0.76185 0.65648 0.89779 0.0
H6028 H 0.73772 0.66119 0.90661 0.0
H6029 H 0.74923 0.66312 0.908 0.0
H6030 H 0.76852 0.65531 0.89589 0.0
H6031 H 0.76063 0.66312 0.89972 0.0
H6032 H 0.73523 0.6288 0.88252 0.0
H6033 H 0.7274 0.63604 0.88751 0.0
H6034 H 0.74703 0.62227 0.88664 0.0
H6035 H 0.7585 0.62457 0.8873 0.0
C6036 C 0.61782 0.4919 0.14218 0.0
C6037 C 0.60925 0.48988 0.14593 0.0
C6038 C 0.60504 0.50587 0.14489 0.0
C6039 C 0.61402 0.50803 0.14231 0.0
N6040 N 0.62937 0.5032 0.13976 0.0
N6041 N 0.59492 0.49497 0.15171 0.0
C6042 C 0.62051 0.50107 0.14119 0.0
C6043 C 0.60288 0.49687 0.14747 0.0
N6044 N 0.62336 0.48504 0.13951 0.0
N6045 N 0.59851 0.51237 0.1446 0.0
H6046 H 0.59301 0.48845 0.15353 0.0
H6047 H 0.59048 0.49991 0.15399 0.0
H6048 H 0.5998 0.51899 0.1426 0.0
H6049 H 0.59167 0.51103 0.1455 0.0
H6050 H 0.62929 0.48606 0.13588 0.0
H6051 H 0.62161 0.47826 0.14019 0.0
H6052 H 0.63455 0.49846 0.13989 0.0
H6053 H 0.63171 0.50981 0.13926 0.0
C6054 C 0.76632 0.36557 0.38798 0.0
C6055 C 0.76829 0.36079 0.39603 0.0
C6056 C 0.75228 0.36138 0.40026 0.0
C6057 C 0.75057 0.36725 0.39289 0.0
N6058 N 0.7563 0.376 0.38039 0.0
N6059 N 0.76336 0.35491 0.41039 0.0
C6060 C 0.75765 0.36956 0.38684 0.0
C6061 C 0.76131 0.35884 0.40229 0.0
N6062 N 0.77274 0.36625 0.3814 0.0
N6063 N 0.74523 0.35806 0.40519 0.0
H6064 H 0.76986 0.35285 0.41212 0.0
H6065 H 0.75876 0.35432 0.41566 0.0
H6066 H 0.73852 0.35969 0.40383 0.0
H6067 H 0.74594 0.35304 0.41005 0.0
H6068 H 0.77145 0.36885 0.375 0.0
H6069 H 0.77916 0.36344 0.38206 0.0
H6070 H 0.76147 0.37867 0.37646 0.0
H6071 H 0.75017 0.37933 0.37949 0.0
C6072 C 0.88827 0.4908 0.86585 0.0
C6073 C 0.89624 0.4887 0.86098 0.0
C6074 C 0.9001 0.5048 0.86048 0.0
C6075 C 0.89153 0.50696 0.86419 0.0
N6076 N 0.87681 0.50196 0.86911 0.0
N6077 N 0.9093 0.49376 0.85268 0.0
C6078 C 0.88546 0.49995 0.86663 0.0
C6079 C 0.90208 0.49571 0.85807 0.0
N6080 N 0.88343 0.48403 0.86981 0.0
N6081 N 0.90648 0.51139 0.85951 0.0
H6082 H 0.91103 0.4872 0.85081 0.0
H6083 H 0.91315 0.49868 0.84947 0.0
H6084 H 0.90536 0.51808 0.86138 0.0
H6085 H 0.91314 0.51008 0.85772 0.0
H6086 H 0.87808 0.48519 0.87421 0.0
H6087 H 0.88531 0.47726 0.86936 0.0
H6088 H 0.87183 0.49709 0.87001 0.0
H6089 H 0.87433 0.50853 0.86943 0.0
C6090 C 0.76759 0.63872 0.11789 0.0
C6091 C 0.76873 0.6449 0.11066 0.0
C6092 C 0.75251 0.64421 0.10735 0.0
C6093 C 0.75134 0.63804 0.11458 0.0
N6094 N 0.75734 0.6305 0.12769 0.0
N6095 N 0.76222 0.65505 0.0998 0.0
C6096 C 0.75874 0.63571 0.12021 0.0
C6097 C 0.76115 0.64813 0.1058 0.0
N6098 N 0.77502 0.63536 0.12221 0.0
N6099 N 0.74538 0.64619 0.10184 0.0
H6100 H 0.76847 0.65804 0.09853 0.0
H6101 H 0.75689 0.65835 0.09665 0.0
H6102 H 0.73883 0.6439 0.10308 0.0
H6103 H 0.74598 0.64971 0.0958 0.0
H6104 H 0.77481 0.63003 0.12677 0.0
H6105 H 0.78156 0.63755 0.12083 0.0
H6106 H 0.76221 0.62939 0.13263 0.0
H6107 H 0.7511 0.62771 0.12931 0.0
C6108 C 0.61755 0.51437 0.36519 0.0
C6109 C 0.6093 0.51643 0.36079 0.0
C6110 C 0.60525 0.50038 0.36093 0.0
C6111 C 0.61402 0.49821 0.36414 0.0
N6112 N 0.62905 0.50313 0.36807 0.0
N6113 N 0.59564 0.51137 0.35356 0.0
C6114 C 0.6203 0.5052 0.36604 0.0
C6115 C 0.60321 0.50943 0.35846 0.0
N6116 N 0.62272 0.52118 0.36861 0.0
N6117 N 0.59878 0.49382 0.36048 0.0
H6118 H 0.59382 0.51791 0.35173 0.0
H6119 H 0.5915 0.50644 0.35073 0.0
H6120 H 0.59997 0.48715 0.3624 0.0
H6121 H 0.59203 0.49514 0.35908 0.0
H6122 H 0.62833 0.52008 0.3727 0.0
H6123 H 0.62091 0.52796 0.36808 0.0
H6124 H 0.63414 0.50795 0.36854 0.0
H6125 H 0.63146 0.49655 0.36846 0.0
C6126 C 0.74495 0.35916 0.60523 0.0
C6127 C 0.73761 0.36167 0.61083 0.0
C6128 C 0.74796 0.37001 0.62077 0.0
C6129 C 0.7551 0.36837 0.61457 0.0
N6130 N 0.76051 0.36167 0.60078 0.0
N6131 N 0.73182 0.36963 0.62373 0.0
C6132 C 0.75363 0.36298 0.60679 0.0
C6133 C 0.73905 0.36703 0.61863 0.0
N6134 N 0.74361 0.35299 0.5985 0.0
N6135 N 0.74965 0.37456 0.62861 0.0
H6136 H 0.72527 0.36734 0.62253 0.0
H6137 H 0.73214 0.3744 0.62887 0.0
H6138 H 0.75588 0.37744 0.63013 0.0
H6139 H 0.74506 0.37507 0.63389 0.0
H6140 H 0.74879 0.35014 0.59471 0.0
H6141 H 0.73732 0.35012 0.59715 0.0
H6142 H 0.75965 0.35882 0.59442 0.0
H6143 H 0.7671 0.36383 0.60196 0.0
C6144 C 0.64974 0.88806 0.51361 0.0
C6145 C 0.64616 0.89622 0.51712 0.0
C6146 C 0.63821 0.89893 0.50281 0.0
C6147 C 0.6426 0.89131 0.49901 0.0
N6148 N 0.65309 0.87896 0.50043 0.0
N6149 N 0.63765 0.90989 0.515 0.0
C6150 C 0.64852 0.88597 0.50432 0.0
C6151 C 0.64049 0.90175 0.51173 0.0
N6152 N 0.65408 0.88219 0.51924 0.0
N6153 N 0.63193 0.90353 0.49786 0.0
H6154 H 0.63911 0.91212 0.52151 0.0
H6155 H 0.63437 0.91472 0.51111 0.0
H6156 H 0.63046 0.90199 0.49116 0.0
H6157 H 0.62776 0.9085 0.50053 0.0
H6158 H 0.65601 0.8757 0.51736 0.0
H6159 H 0.65507 0.88347 0.52609 0.0
H6160 H 0.65834 0.87553 0.50358 0.0
H6161 H 0.652 0.87687 0.4938 0.0
C6162 C 0.15066 0.61823 0.4927 0.0
C6163 C 0.14699 0.61011 0.48918 0.0
C6164 C 0.13903 0.60747 0.50351 0.0
C6165 C 0.1435 0.61505 0.50731 0.0
N6166 N 0.15412 0.62729 0.50588 0.0
N6167 N 0.13835 0.59652 0.49132 0.0
C6168 C 0.14947 0.62033 0.502 0.0
C6169 C 0.14128 0.60464 0.49458 0.0
N6170 N 0.15505 0.62406 0.48707 0.0
N6171 N 0.13271 0.60294 0.50846 0.0
H6172 H 0.13978 0.59428 0.48481 0.0
H6173 H 0.13502 0.59172 0.49522 0.0
H6174 H 0.13126 0.60449 0.51517 0.0
H6175 H 0.12848 0.59802 0.50579 0.0
H6176 H 0.15706 0.63052 0.48895 0.0
H6177 H 0.15602 0.62277 0.48022 0.0
H6178 H 0.15941 0.63067 0.50272 0.0
H6179 H 0.15306 0.62939 0.51251 0.0
C6180 C 0.65353 0.89818 0.74672 0.0
C6181 C 0.64737 0.89612 0.73968 0.0
C6182 C 0.63624 0.89097 0.75083 0.0
C6183 C 0.64257 0.8926 0.75785 0.0
N6184 N 0.65788 0.89582 0.76231 0.0
N6185 N 0.63374 0.88875 0.7348 0.0
C6186 C 0.65141 0.89563 0.75574 0.0
C6187 C 0.63901 0.89191 0.74167 0.0
N6188 N 0.66123 0.90289 0.74485 0.0
N6189 N 0.62744 0.88912 0.75287 0.0
H6190 H 0.63556 0.88936 0.72803 0.0
H6191 H 0.62802 0.8848 0.73583 0.0
H6192 H 0.62503 0.88866 0.75946 0.0
H6193 H 0.62234 0.88886 0.74805 0.0
H6194 H 0.66544 0.90553 0.74982 0.0
H6195 H 0.6631 0.90476 0.73833 0.0
H6196 H 0.66467 0.89707 0.76101 0.0
H6197 H 0.65663 0.89385 0.76895 0.0
C6198 C 0.35644 0.38847 0.99321 0.0
C6199 C 0.36023 0.39653 0.98969 0.0
C6200 C 0.36805 0.39917 0.00409 0.0
C6201 C 0.36348 0.39164 0.00787 0.0
N6202 N 0.35276 0.37949 0.00638 0.0
N6203 N 0.36899 0.41004 0.99185 0.0
C6204 C 0.35751 0.3864 1.00252 0.0
C6205 C 0.36594 0.40198 0.99513 0.0
N6206 N 0.35204 0.38266 0.98755 0.0
N6207 N 0.37434 0.40368 0.0091 0.0
H6208 H 0.36766 0.41226 0.98531 0.0
H6209 H 0.37232 0.41483 0.99575 0.0
H6210 H 0.37568 0.40217 0.01584 0.0
H6211 H 0.37865 0.40855 0.00646 0.0
H6212 H 0.34996 0.37623 0.98944 0.0
H6213 H 0.35115 0.38393 0.98068 0.0
H6214 H 0.34748 0.37615 1.00318 0.0
H6215 H 0.35373 0.37741 0.01303 0.0
C6216 C 0.35409 0.60857 0.74534 0.0
C6217 C 0.36029 0.61076 0.73837 0.0
C6218 C 0.37124 0.61595 0.74967 0.0
C6219 C 0.36487 0.61421 0.75662 0.0
N6220 N 0.34954 0.6108 0.76089 0.0
N6221 N 0.37387 0.61835 0.73369 0.0
C6222 C 0.35608 0.61109 0.75439 0.0
C6223 C 0.36858 0.61505 0.74048 0.0
N6224 N 0.34649 0.60373 0.74338 0.0
N6225 N 0.38 0.61788 0.75181 0.0
H6226 H 0.37211 0.61779 0.72689 0.0
H6227 H 0.37953 0.62236 0.73481 0.0
H6228 H 0.38234 0.61831 0.75842 0.0
H6229 H 0.38515 0.61823 0.74704 0.0
H6230 H 0.34227 0.60101 0.7483 0.0
H6231 H 0.34473 0.60184 0.73684 0.0
H6232 H 0.34278 0.60948 0.75951 0.0
H6233 H 0.35069 0.61276 0.76755 0.0
C6234 C 0.85351 0.11478 0.01231 0.0
C6235 C 0.86027 0.11048 0.01757 0.0
C6236 C 0.86999 0.10942 0.00418 0.0
C6237 C 0.86361 0.11453 0.99917 0.0
N6238 N 0.85001 0.12349 0.99894 0.0
N6239 N 0.87551 0.10499 0.01894 0.0
C6240 C 0.85556 0.11759 0.00337 0.0
C6241 C 0.86869 0.10818 0.01363 0.0
N6242 N 0.84503 0.11592 0.01576 0.0
N6243 N 0.87703 0.10532 0.99985 0.0
H6244 H 0.87476 0.10391 0.02586 0.0
H6245 H 0.88209 0.10412 0.01665 0.0
H6246 H 0.87803 0.10576 0.99291 0.0
H6247 H 0.88135 0.10076 1.00299 0.0
H6248 H 0.83956 0.11807 0.01191 0.0
H6249 H 0.84324 0.11394 0.02227 0.0
H6250 H 0.84458 0.12672 1.00202 0.0
H6251 H 0.85132 0.12586 0.99245 0.0
C6252 C 0.6384 0.1157 0.76544 0.0
C6253 C 0.64652 0.11106 0.7675 0.0
C6254 C 0.65046 0.11094 0.75141 0.0
C6255 C 0.64178 0.11439 0.74927 0.0
N6256 N 0.62689 0.11876 0.75427 0.0
N6257 N 0.65987 0.1033 0.76237 0.0
C6258 C 0.63561 0.11653 0.75629 0.0
C6259 C 0.65248 0.10847 0.76047 0.0
N6260 N 0.6334 0.11938 0.77226 0.0
N6261 N 0.65688 0.11028 0.74482 0.0
H6262 H 0.66165 0.10141 0.76891 0.0
H6263 H 0.66386 0.1003 0.75743 0.0
H6264 H 0.65572 0.1122 0.73815 0.0
H6265 H 0.6636 0.10868 0.74613 0.0
H6266 H 0.62792 0.12363 0.77114 0.0
H6267 H 0.63526 0.11889 0.77903 0.0
H6268 H 0.62186 0.11942 0.75914 0.0
H6269 H 0.62442 0.11911 0.7477 0.0
C6270 C 0.85403 0.89843 0.2602 0.0
C6271 C 0.86008 0.89604 0.26722 0.0
C6272 C 0.87101 0.89058 0.25603 0.0
C6273 C 0.86477 0.89252 0.24902 0.0
N6274 N 0.84959 0.89636 0.24459 0.0
N6275 N 0.87337 0.88804 0.27203 0.0
C6276 C 0.85605 0.89587 0.25116 0.0
C6277 C 0.86826 0.89151 0.26519 0.0
N6278 N 0.84654 0.90347 0.26209 0.0
N6279 N 0.87974 0.88842 0.25399 0.0
H6280 H 0.87156 0.88863 0.27881 0.0
H6281 H 0.87893 0.88387 0.27096 0.0
H6282 H 0.88215 0.88797 0.2474 0.0
H6283 H 0.88482 0.88791 0.25882 0.0
H6284 H 0.84247 0.90634 0.25713 0.0
H6285 H 0.84476 0.9054 0.26861 0.0
H6286 H 0.84285 0.89787 0.24591 0.0
H6287 H 0.85075 0.89438 0.23794 0.0
C6288 C 0.49557 0.35291 0.1138 0.0
C6289 C 0.49024 0.35965 0.10957 0.0
C6290 C 0.50347 0.3696 0.10879 0.0
C6291 C 0.50854 0.36323 0.11386 0.0
N6292 N 0.50889 0.34952 0.12262 0.0
N6293 N 0.48865 0.37494 0.10431 0.0
C6294 C 0.50444 0.35507 0.11675 0.0
C6295 C 0.49405 0.36816 0.10744 0.0
N6296 N 0.49227 0.34436 0.11475 0.0
N6297 N 0.50771 0.37675 0.10481 0.0
H6298 H 0.48176 0.37411 0.10317 0.0
H6299 H 0.49084 0.38158 0.10358 0.0
H6300 H 0.51464 0.37785 0.1053 0.0
H6301 H 0.50454 0.38108 0.10028 0.0
H6302 H 0.49619 0.33893 0.11685 0.0
H6303 H 0.48582 0.34248 0.11265 0.0
H6304 H 0.50587 0.34399 0.12573 0.0
H6305 H 0.51533 0.3509 0.1251 0.0
C6306 C 0.39839 0.74631 0.85253 0.0
C6307 C 0.39616 0.73927 0.85862 0.0
C6308 C 0.39071 0.75042 0.8696 0.0
C6309 C 0.3925 0.75744 0.86332 0.0
N6310 N 0.39609 0.76187 0.84809 0.0
N6311 N 0.38838 0.7344 0.87203 0.0
C6312 C 0.39576 0.75532 0.85456 0.0
C6313 C 0.39171 0.74127 0.86686 0.0
N6314 N 0.40336 0.74446 0.84498 0.0
N6315 N 0.38864 0.75246 0.87835 0.0
H6316 H 0.38902 0.72763 0.87022 0.0
H6317 H 0.38427 0.73544 0.87763 0.0
H6318 H 0.38814 0.75904 0.88076 0.0
H6319 H 0.38825 0.74764 0.88344 0.0
H6320 H 0.40611 0.74943 0.84086 0.0
H6321 H 0.40533 0.73795 0.84319 0.0
H6322 H 0.39753 0.76056 0.84134 0.0
H6323 H 0.39406 0.7685 0.84926 0.0
C6324 C 0.01133 0.65292 0.61411 0.0
C6325 C 0.01644 0.64629 0.60948 0.0
C6326 C 1.00298 0.63667 0.60844 0.0
C6327 C 0.99813 0.64291 0.61387 0.0
N6328 N 0.99818 0.65622 0.62324 0.0
N6329 N 0.0176 0.63125 0.60343 0.0
C6330 C 1.00244 0.65084 0.61707 0.0
C6331 C 0.0124 0.63797 0.607 0.0
N6332 N 0.01486 0.66134 0.61545 0.0
N6333 N 0.99852 0.62978 0.60423 0.0
H6334 H 0.02449 0.63201 0.60218 0.0
H6335 H 0.01526 0.62471 0.6024 0.0
H6336 H 0.99158 0.62879 0.60482 0.0
H6337 H 1.00152 0.62559 0.59946 0.0
H6338 H 0.0111 0.66675 0.61787 0.0
H6339 H 0.02134 0.66315 0.61339 0.0
H6340 H 1.00136 0.66153 0.62656 0.0
H6341 H 0.99173 0.65487 0.62571 0.0
C6342 C 0.11392 0.26486 0.367 0.0
C6343 C 0.10991 0.26692 0.35856 0.0
C6344 C 0.11066 0.25091 0.35435 0.0
C6345 C 0.1135 0.24873 0.36324 0.0
N6346 N 0.11656 0.25356 0.37849 0.0
N6347 N 0.10354 0.26184 0.34448 0.0
C6348 C 0.11489 0.25569 0.36968 0.0
C6349 C 0.10807 0.25993 0.35228 0.0
N6350 N 0.11687 0.2717 0.37244 0.0
N6351 N 0.11068 0.24441 0.34781 0.0
H6352 H 0.10165 0.26837 0.34264 0.0
H6353 H 0.10105 0.25691 0.34014 0.0
H6354 H 0.11268 0.23778 0.34903 0.0
H6355 H 0.10958 0.24577 0.34101 0.0
H6356 H 0.12069 0.27064 0.37824 0.0
H6357 H 0.11623 0.27849 0.37069 0.0
H6358 H 0.11664 0.25831 0.38367 0.0
H6359 H 0.11705 0.24695 0.38083 0.0
C6360 C 0.497 0.64725 0.40456 0.0
C6361 C 0.48998 0.64572 0.39824 0.0
C6362 C 0.50111 0.6409 0.38694 0.0
C6363 C 0.5081 0.64204 0.3934 0.0
N6364 N 0.51253 0.64438 0.40887 0.0
N6365 N 0.48505 0.63928 0.38417 0.0
C6366 C 0.50599 0.64465 0.40237 0.0
C6367 C 0.49195 0.64194 0.38967 0.0
N6368 N 0.49515 0.65151 0.41253 0.0
N6369 N 0.50319 0.63942 0.37808 0.0
H6370 H 0.47827 0.64 0.38594 0.0
H6371 H 0.48602 0.63563 0.37825 0.0
H6372 H 0.50979 0.63887 0.37572 0.0
H6373 H 0.49843 0.63955 0.37292 0.0
H6374 H 0.50011 0.65379 0.41694 0.0
H6375 H 0.48863 0.65334 0.41447 0.0
H6376 H 0.51123 0.64531 0.41571 0.0
H6377 H 0.51915 0.64238 0.40755 0.0
C6378 C 0.11432 0.74212 0.13956 0.0
C6379 C 0.11038 0.74011 0.14805 0.0
C6380 C 0.11141 0.75608 0.15228 0.0
C6381 C 0.11417 0.75824 0.14336 0.0
N6382 N 0.11698 0.7534 0.12806 0.0
N6383 N 0.10432 0.74522 0.16225 0.0
C6384 C 0.11539 0.75128 0.13689 0.0
C6385 C 0.10875 0.7471 0.15438 0.0
N6386 N 0.11709 0.73524 0.13408 0.0
N6387 N 0.1116 0.76258 0.15883 0.0
H6388 H 0.1024 0.73871 0.16411 0.0
H6389 H 0.10197 0.75018 0.16664 0.0
H6390 H 0.11366 0.76919 0.15758 0.0
H6391 H 0.11057 0.76123 0.16564 0.0
H6392 H 0.12084 0.73626 0.12823 0.0
H6393 H 0.11636 0.72846 0.13582 0.0
H6394 H 0.11693 0.74866 0.12288 0.0
H6395 H 0.11754 0.76001 0.12573 0.0
C6396 C 0.0107 0.35235 0.89262 0.0
C6397 C 0.01614 0.35904 0.8968 0.0
C6398 C 1.00303 0.36915 0.89758 0.0
C6399 C 0.99788 0.36285 0.8925 0.0
N6400 N 0.99733 0.34908 0.88382 0.0
N6401 N 0.01791 0.37434 0.90199 0.0
C6402 C 1.00185 0.35461 0.88966 0.0
C6403 C 0.01243 0.3676 0.89891 0.0
N6404 N 0.01389 0.34374 0.89172 0.0
N6405 N 0.99887 0.37634 0.90159 0.0
H6406 H 0.0248 0.37344 0.90311 0.0
H6407 H 0.01579 0.381 0.9027 0.0
H6408 H 0.99195 0.37748 0.90116 0.0
H6409 H 1.00211 0.38062 0.90611 0.0
H6410 H 0.00989 0.33835 0.88965 0.0
H6411 H 0.02031 0.34179 0.89383 0.0
H6412 H 1.00027 0.3435 0.88075 0.0
H6413 H 0.9909 0.35053 0.88135 0.0
C6414 C 0.39865 0.25976 0.65318 0.0
C6415 C 0.39648 0.26679 0.64706 0.0
C6416 C 0.39093 0.25564 0.63613 0.0
C6417 C 0.39266 0.24864 0.64244 0.0
N6418 N 0.39624 0.24422 0.65768 0.0
N6419 N 0.38876 0.27167 0.63363 0.0
C6420 C 0.39595 0.25076 0.65119 0.0
C6421 C 0.39202 0.2648 0.63883 0.0
N6422 N 0.40362 0.2616 0.66073 0.0
N6423 N 0.38884 0.25359 0.62739 0.0
H6424 H 0.38947 0.27844 0.63541 0.0
H6425 H 0.38464 0.27064 0.62803 0.0
H6426 H 0.38827 0.247 0.62501 0.0
H6427 H 0.38849 0.25839 0.62227 0.0
H6428 H 0.40633 0.25662 0.66488 0.0
H6429 H 0.40564 0.2681 0.6625 0.0
H6430 H 0.39769 0.24554 0.66443 0.0
H6431 H 0.39416 0.2376 0.65653 0.0
C6432 C 0.1088 0.49273 0.36782 0.0
C6433 C 0.111 0.48883 0.35935 0.0
C6434 C 0.11803 0.50307 0.35463 0.0
C6435 C 0.11503 0.50723 0.36273 0.0
N6436 N 0.10595 0.50645 0.37623 0.0
N6437 N 0.11623 0.49074 0.34406 0.0
C6438 C 0.11001 0.50217 0.36915 0.0
C6439 C 0.1152 0.49413 0.35258 0.0
N6440 N 0.10573 0.48737 0.37466 0.0
N6441 N 0.12387 0.50752 0.34905 0.0
H6442 H 0.11421 0.48425 0.34225 0.0
H6443 H 0.11831 0.49463 0.33859 0.0
H6444 H 0.12625 0.51401 0.35037 0.0
H6445 H 0.12705 0.50448 0.34358 0.0
H6446 H 0.10494 0.48964 0.38127 0.0
H6447 H 0.1047 0.48045 0.37392 0.0
H6448 H 0.10144 0.50327 0.38058 0.0
H6449 H 0.10633 0.51339 0.37725 0.0
C6450 C 0.26102 0.36346 0.10339 0.0
C6451 C 0.26643 0.35933 0.11013 0.0
C6452 C 0.25323 0.35841 0.12012 0.0
C6453 C 0.24807 0.36336 0.11373 0.0
N6454 N 0.24756 0.37207 0.09998 0.0
N6455 N 0.26812 0.3542 0.12546 0.0
C6456 C 0.25211 0.36629 0.10555 0.0
C6457 C 0.26266 0.35721 0.11867 0.0
N6458 N 0.26429 0.36442 0.09481 0.0
N6459 N 0.24906 0.35442 0.12731 0.0
H6460 H 0.27503 0.35316 0.12461 0.0
H6461 H 0.26596 0.35347 0.1321 0.0
H6462 H 0.24213 0.35481 0.12842 0.0
H6463 H 0.25231 0.34996 0.13166 0.0
H6464 H 0.26032 0.36644 0.08938 0.0
H6465 H 0.27077 0.36241 0.09293 0.0
H6466 H 0.25053 0.37521 0.09444 0.0
H6467 H 0.24109 0.37446 0.10137 0.0
C6468 C 0.39237 0.51175 0.85224 0.0
C6469 C 0.39689 0.517 0.85885 0.0
C6470 C 0.39796 0.50368 0.86867 0.0
C6471 C 0.39266 0.49869 0.86243 0.0
N6472 N 0.38339 0.49848 0.84904 0.0
N6473 N 0.4027 0.51843 0.87397 0.0
C6474 C 0.38948 0.50286 0.85442 0.0
C6475 C 0.3993 0.5131 0.86726 0.0
N6476 N 0.39111 0.51513 0.84375 0.0
N6477 N 0.40215 0.49936 0.87565 0.0
H6478 H 0.40385 0.52532 0.87314 0.0
H6479 H 0.40367 0.51618 0.88055 0.0
H6480 H 0.40164 0.49244 0.87673 0.0
H6481 H 0.40684 0.50248 0.87985 0.0
H6482 H 0.38878 0.51127 0.83837 0.0
H6483 H 0.39315 0.52159 0.84185 0.0
H6484 H 0.38009 0.50156 0.84366 0.0
H6485 H 0.38096 0.49203 0.85046 0.0
C6486 C 0.24751 0.65333 0.60698 0.0
C6487 C 0.24036 0.64744 0.60943 0.0
C6488 C 0.25135 0.63643 0.61514 0.0
C6489 C 0.25847 0.64256 0.61322 0.0
N6490 N 0.26315 0.6576 0.60913 0.0
N6491 N 0.2353 0.63433 0.61758 0.0
C6492 C 0.25649 0.65124 0.60967 0.0
C6493 C 0.24224 0.63929 0.61408 0.0
N6494 N 0.24577 0.66074 0.60178 0.0
N6495 N 0.25325 0.6277 0.61741 0.0
H6496 H 0.22855 0.63623 0.61691 0.0
H6497 H 0.23627 0.62883 0.62184 0.0
H6498 H 0.2598 0.62519 0.61791 0.0
H6499 H 0.24834 0.6227 0.61794 0.0
H6500 H 0.25081 0.66468 0.59888 0.0
H6501 H 0.23928 0.66257 0.59976 0.0
H6502 H 0.26193 0.66432 0.60749 0.0
H6503 H 0.26977 0.65639 0.6112 0.0
C6504 C 0.11768 0.51466 0.14241 0.0
C6505 C 0.10913 0.5167 0.14619 0.0
C6506 C 0.10486 0.50073 0.14508 0.0
C6507 C 0.11382 0.49855 0.14246 0.0
N6508 N 0.12918 0.50332 0.13988 0.0
N6509 N 0.0948 0.51164 0.15198 0.0
C6510 C 0.12034 0.50549 0.14135 0.0
C6511 C 0.10275 0.50973 0.14771 0.0
N6512 N 0.12325 0.52151 0.13975 0.0
N6513 N 0.0983 0.49426 0.14479 0.0
H6514 H 0.09293 0.51815 0.15385 0.0
H6515 H 0.09035 0.5067 0.15426 0.0
H6516 H 0.09956 0.48764 0.14276 0.0
H6517 H 0.09147 0.49562 0.14571 0.0
H6518 H 0.12916 0.52049 0.1361 0.0
H6519 H 0.12153 0.5283 0.14047 0.0
H6520 H 0.13438 0.50804 0.14003 0.0
H6521 H 0.13149 0.49671 0.13933 0.0
C6522 C 0.24239 0.36707 0.8927 0.0
C6523 C 0.24044 0.35857 0.89663 0.0
C6524 C 0.25644 0.35441 0.8955 0.0
C6525 C 0.25854 0.36333 0.89272 0.0
N6526 N 0.25362 0.37861 0.88995 0.0
N6527 N 0.24565 0.34438 0.90263 0.0
C6528 C 0.25154 0.36978 0.89156 0.0
C6529 C 0.24747 0.35227 0.89822 0.0
N6530 N 0.23547 0.37253 0.89 0.0
N6531 N 0.26296 0.3479 0.89528 0.0
H6532 H 0.23915 0.34249 0.90457 0.0
H6533 H 0.25063 0.34001 0.90495 0.0
H6534 H 0.26956 0.34918 0.89319 0.0
H6535 H 0.26166 0.34108 0.89632 0.0
H6536 H 0.23643 0.37839 0.88624 0.0
H6537 H 0.2287 0.37077 0.89078 0.0
H6538 H 0.24886 0.38378 0.89004 0.0
H6539 H 0.26021 0.38097 0.88934 0.0
C6540 C 0.39012 0.49196 0.64241 0.0
C6541 C 0.39853 0.48994 0.6465 0.0
C6542 C 0.4027 0.50595 0.64577 0.0
C6543 C 0.39383 0.5081 0.64285 0.0
N6544 N 0.37861 0.50322 0.63966 0.0
N6545 N 0.41256 0.49505 0.65296 0.0
C6546 C 0.38742 0.50112 0.6414 0.0
C6547 C 0.40478 0.49694 0.64837 0.0
N6548 N 0.38473 0.4851 0.63942 0.0
N6549 N 0.40922 0.51247 0.6458 0.0
H6550 H 0.41441 0.48852 0.65483 0.0
H6551 H 0.41686 0.49999 0.65547 0.0
H6552 H 0.40799 0.5191 0.64379 0.0
H6553 H 0.41602 0.51114 0.64697 0.0
H6554 H 0.37896 0.48613 0.63555 0.0
H6555 H 0.38649 0.47832 0.64009 0.0
H6556 H 0.37346 0.49845 0.63955 0.0
H6557 H 0.37625 0.50982 0.63916 0.0
C6558 C 0.25994 0.65422 0.39787 0.0
C6559 C 0.26691 0.64782 0.39635 0.0
C6560 C 0.25567 0.63667 0.39145 0.0
C6561 C 0.24874 0.6432 0.39257 0.0
N6562 N 0.24449 0.65871 0.39491 0.0
N6563 N 0.2717 0.63372 0.38988 0.0
C6564 C 0.25095 0.65214 0.39521 0.0
C6565 C 0.26485 0.63929 0.39254 0.0
N6566 N 0.26185 0.66214 0.4022 0.0
N6567 N 0.25349 0.62784 0.38992 0.0
H6568 H 0.2785 0.63543 0.39062 0.0
H6569 H 0.27067 0.62783 0.3862 0.0
H6570 H 0.24687 0.62556 0.38932 0.0
H6571 H 0.25819 0.62263 0.39006 0.0
H6572 H 0.25692 0.66658 0.40446 0.0
H6573 H 0.26837 0.66398 0.40412 0.0
H6574 H 0.24588 0.66553 0.39585 0.0
H6575 H 0.23787 0.65748 0.39285 0.0
C6576 C 0.35839 0.10268 0.4965 0.0
C6577 C 0.36009 0.10903 0.48954 0.0
C6578 C 0.36517 0.12009 0.50079 0.0
C6579 C 0.36391 0.11358 0.50772 0.0
N6580 N 0.36124 0.09811 0.51195 0.0
N6581 N 0.36692 0.12298 0.48478 0.0
C6582 C 0.36109 0.1047 0.5055 0.0
C6583 C 0.36409 0.11748 0.49161 0.0
N6584 N 0.35387 0.09488 0.49459 0.0
N6585 N 0.36682 0.12889 0.50298 0.0
H6586 H 0.3662 0.12128 0.47798 0.0
H6587 H 0.37072 0.12879 0.48583 0.0
H6588 H 0.36738 0.13118 0.5096 0.0
H6589 H 0.3668 0.1341 0.49826 0.0
H6590 H 0.35148 0.09049 0.49953 0.0
H6591 H 0.35189 0.09309 0.48808 0.0
H6592 H 0.36016 0.09131 0.51055 0.0
H6593 H 0.36333 0.09928 0.51856 0.0
C6594 C 0.86475 0.3889 0.51523 0.0
C6595 C 0.85993 0.39692 0.51719 0.0
C6596 C 0.85989 0.40077 0.50108 0.0
C6597 C 0.86354 0.39216 0.49902 0.0
N6598 N 0.86818 0.3774 0.50414 0.0
N6599 N 0.85194 0.41008 0.51193 0.0
C6600 C 0.86574 0.38607 0.50609 0.0
C6601 C 0.85728 0.40279 0.5101 0.0
N6602 N 0.86846 0.384 0.5221 0.0
N6603 N 0.85915 0.40714 0.49445 0.0
H6604 H 0.84995 0.41185 0.51844 0.0
H6605 H 0.84891 0.41398 0.50693 0.0
H6606 H 0.86117 0.40599 0.48781 0.0
H6607 H 0.85741 0.41383 0.49571 0.0
H6608 H 0.87283 0.37861 0.52106 0.0
H6609 H 0.86785 0.38588 0.52886 0.0
H6610 H 0.86889 0.37241 0.50904 0.0
H6611 H 0.86865 0.37491 0.49759 0.0
C6612 C 0.35739 0.11724 0.26289 0.0
C6613 C 0.35974 0.10884 0.26683 0.0
C6614 C 0.36713 0.10428 0.25273 0.0
C6615 C 0.36403 0.1123 0.24851 0.0
N6616 N 0.35459 0.12556 0.2491 0.0
N6617 N 0.36537 0.09368 0.26504 0.0
C6618 C 0.35875 0.11859 0.25346 0.0
C6619 C 0.36419 0.10216 0.26161 0.0
N6620 N 0.35404 0.124 0.26818 0.0
N6621 N 0.37318 0.09884 0.24838 0.0
H6622 H 0.36329 0.09183 0.2715 0.0
H6623 H 0.36765 0.08826 0.2612 0.0
H6624 H 0.37565 0.1002 0.24194 0.0
H6625 H 0.37643 0.09344 0.2515 0.0
H6626 H 0.35313 0.13058 0.26589 0.0
H6627 H 0.35289 0.12323 0.27508 0.0
H6628 H 0.34992 0.1298 0.25219 0.0
H6629 H 0.35509 0.12658 0.24216 0.0
C6630 C 0.6414 0.61667 0.01445 0.0
C6631 C 0.64634 0.60871 0.01642 0.0
C6632 C 0.64654 0.60491 1.0003 0.0
C6633 C 0.64279 0.61349 0.99825 0.0
N6634 N 0.63794 0.62817 0.0034 0.0
N6635 N 0.65454 0.59568 0.01117 0.0
C6636 C 0.64046 0.61952 0.00533 0.0
C6637 C 0.64912 0.60291 0.00934 0.0
N6638 N 0.63756 0.62147 0.02132 0.0
N6639 N 0.64741 0.59858 0.99366 0.0
H6640 H 0.65651 0.59392 0.01769 0.0
H6641 H 0.65767 0.59185 0.00618 0.0
H6642 H 0.64542 0.59972 0.98701 0.0
H6643 H 0.64924 0.59191 0.99491 0.0
H6644 H 0.63312 0.62681 0.02026 0.0
H6645 H 0.63814 0.61957 0.02807 0.0
H6646 H 0.63712 0.63313 0.00831 0.0
H6647 H 0.63751 0.63069 0.99685 0.0
C6648 C 0.64931 0.388 0.26276 0.0
C6649 C 0.64691 0.3964 0.26667 0.0
C6650 C 0.63952 0.40088 0.25254 0.0
C6651 C 0.64267 0.39286 0.24835 0.0
N6652 N 0.65213 0.37962 0.249 0.0
N6653 N 0.64116 0.41151 0.26485 0.0
C6654 C 0.64796 0.38661 0.25333 0.0
C6655 C 0.64241 0.40303 0.26143 0.0
N6656 N 0.65271 0.38129 0.26807 0.0
N6657 N 0.63345 0.40628 0.24816 0.0
H6658 H 0.64319 0.41338 0.27132 0.0
H6659 H 0.63884 0.41691 0.26099 0.0
H6660 H 0.63102 0.40488 0.24171 0.0
H6661 H 0.63016 0.41167 0.25125 0.0
H6662 H 0.65367 0.3747 0.26582 0.0
H6663 H 0.65388 0.3821 0.27497 0.0
H6664 H 0.65681 0.37541 0.25211 0.0
H6665 H 0.65161 0.37855 0.24207 0.0
C6666 C 0.14839 0.90359 0.99635 0.0
C6667 C 0.14656 0.89732 0.98935 0.0
C6668 C 0.14132 0.88628 1.00055 0.0
C6669 C 0.14272 0.89272 0.00751 0.0
N6670 N 0.14566 0.90812 0.01183 0.0
N6671 N 0.13946 0.88353 0.98452 0.0
C6672 C 0.14568 0.90156 0.00534 0.0
C6673 C 0.14242 0.88893 0.99138 0.0
N6674 N 0.15306 0.91132 0.99448 0.0
N6675 N 0.13953 0.87749 1.00267 0.0
H6676 H 0.14018 0.88526 0.97773 0.0
H6677 H 0.13556 0.87778 0.98555 0.0
H6678 H 0.13895 0.87517 0.00928 0.0
H6679 H 0.13944 0.87232 0.99792 0.0
H6680 H 0.15554 0.91562 0.99944 0.0
H6681 H 0.15506 0.91311 0.98797 0.0
H6682 H 0.14685 0.9149 0.01046 0.0
H6683 H 0.14356 0.90694 0.01844 0.0
C6684 C 0.364 0.90378 0.24522 0.0
C6685 C 0.3597 0.89709 0.23989 0.0
C6686 C 0.35884 0.88714 0.25313 0.0
C6687 C 0.36397 0.89346 0.25819 0.0
N6688 N 0.37285 0.90711 0.25854 0.0
N6689 N 0.3543 0.88184 0.23832 0.0
C6690 C 0.36693 0.9016 0.25409 0.0
C6691 C 0.3575 0.88859 0.24371 0.0
N6692 N 0.36502 0.91233 0.24191 0.0
N6693 N 0.3548 0.88003 0.25738 0.0
H6694 H 0.35316 0.88268 0.23142 0.0
H6695 H 0.3535 0.87521 0.24051 0.0
H6696 H 0.35528 0.87893 0.2643 0.0
H6697 H 0.35022 0.87574 0.25421 0.0
H6698 H 0.36718 0.91774 0.24584 0.0
H6699 H 0.36294 0.91422 0.23546 0.0
H6700 H 0.37601 0.91261 0.25552 0.0
H6701 H 0.37532 0.9057 0.26498 0.0
C6702 C 0.14098 0.10345 0.74499 0.0
C6703 C 0.14564 0.11003 0.73982 0.0
C6704 C 0.14669 0.11976 0.7532 0.0
C6705 C 0.14128 0.11356 0.75812 0.0
N6706 N 0.13183 0.10031 0.75816 0.0
N6707 N 0.15165 0.12507 0.73853 0.0
C6708 C 0.13802 0.10562 0.75386 0.0
C6709 C 0.14811 0.11838 0.74379 0.0
N6710 N 0.13963 0.095 0.74155 0.0
N6711 N 0.15093 0.12667 0.7576 0.0
H6712 H 0.15285 0.12427 0.73164 0.0
H6713 H 0.15268 0.13163 0.74081 0.0
H6714 H 0.15036 0.12773 0.76452 0.0
H6715 H 0.1557 0.13083 0.75455 0.0
H6716 H 0.13719 0.08963 0.74537 0.0
H6717 H 0.14171 0.09311 0.7351 0.0
H6718 H 0.12847 0.09499 0.75502 0.0
H6719 H 0.12935 0.10172 0.76459 0.0
C6720 C 0.10371 0.125 0.44744 0.0
C6721 C 0.09796 0.13221 0.45005 0.0
C6722 C 0.10813 0.1359 0.4626 0.0
C6723 C 0.11379 0.12861 0.46006 0.0
N6724 N 0.11609 0.11505 0.45145 0.0
N6725 N 0.09355 0.14323 0.46114 0.0
C6726 C 0.11126 0.12277 0.45292 0.0
C6727 C 0.09981 0.13724 0.45798 0.0
N6728 N 0.10219 0.12058 0.43949 0.0
N6729 N 0.1109 0.1418 0.46912 0.0
H6730 H 0.08741 0.14438 0.45788 0.0
H6731 H 0.09406 0.14646 0.46735 0.0
H6732 H 0.11684 0.14093 0.47279 0.0
H6733 H 0.10763 0.14785 0.47052 0.0
H6734 H 0.10671 0.116 0.43667 0.0
H6735 H 0.09667 0.12193 0.43534 0.0
H6736 H 0.11412 0.11004 0.44693 0.0
H6737 H 0.12167 0.11326 0.45534 0.0
C6738 C 0.131 0.85326 0.69811 0.0
C6739 C 0.12349 0.84779 0.70045 0.0
C6740 C 0.11958 0.85822 0.71272 0.0
C6741 C 0.1272 0.86358 0.71049 0.0
N6742 N 0.14121 0.8653 0.70247 0.0
N6743 N 0.11178 0.84391 0.71103 0.0
C6744 C 0.13326 0.86078 0.70363 0.0
C6745 C 0.11814 0.84991 0.70811 0.0
N6746 N 0.13571 0.85151 0.69038 0.0
N6747 N 0.1135 0.86127 0.71895 0.0
H6748 H 0.11055 0.83779 0.70778 0.0
H6749 H 0.10827 0.84461 0.71707 0.0
H6750 H 0.11443 0.8672 0.72261 0.0
H6751 H 0.10727 0.85825 0.72009 0.0
H6752 H 0.14057 0.85585 0.68773 0.0
H6753 H 0.13434 0.84602 0.6862 0.0
H6754 H 0.14634 0.8631 0.69821 0.0
H6755 H 0.14303 0.87086 0.70639 0.0
C6756 C 0.40535 0.88161 0.9497 0.0
C6757 C 0.40952 0.87302 0.95042 0.0
C6758 C 0.39855 0.86858 0.96203 0.0
C6759 C 0.39375 0.87671 0.96047 0.0
N6760 N 0.39222 0.89093 0.95278 0.0
N6761 N 0.41019 0.85819 0.957 0.0
C6762 C 0.39711 0.88327 0.95436 0.0
C6763 C 0.4062 0.8665 0.95659 0.0
N6764 N 0.40931 0.88817 0.94457 0.0
N6765 N 0.39578 0.86288 0.96874 0.0
H6766 H 0.41603 0.85657 0.95342 0.0
H6767 H 0.40752 0.85273 0.96052 0.0
H6768 H 0.3901 0.86414 0.9727 0.0
H6769 H 0.39942 0.85727 0.97085 0.0
H6770 H 0.40717 0.89485 0.94445 0.0
H6771 H 0.41522 0.88711 0.9409 0.0
H6772 H 0.39364 0.89548 0.94763 0.0
H6773 H 0.38638 0.89254 0.95637 0.0
C6774 C 0.39011 0.15515 0.20738 0.0
C6775 C 0.38354 0.15842 0.20121 0.0
C6776 C 0.37342 0.14589 0.20511 0.0
C6777 C 0.38002 0.14258 0.21121 0.0
N6778 N 0.39382 0.14474 0.21949 0.0
N6779 N 0.36839 0.15807 0.19536 0.0
C6780 C 0.3881 0.14747 0.21279 0.0
C6781 C 0.375 0.15416 0.20047 0.0
N6782 N 0.39838 0.15922 0.2078 0.0
N6783 N 0.36582 0.14092 0.20349 0.0
H6784 H 0.36939 0.164 0.19171 0.0
H6785 H 0.36173 0.15586 0.19523 0.0
H6786 H 0.36427 0.13506 0.20706 0.0
H6787 H 0.36126 0.14231 0.19834 0.0
H6788 H 0.40386 0.15659 0.2113 0.0
H6789 H 0.39995 0.16507 0.20422 0.0
H6790 H 0.39939 0.14843 0.22163 0.0
H6791 H 0.39261 0.13905 0.22345 0.0
C6792 C 0.10296 0.88098 0.05805 0.0
C6793 C 0.09744 0.87353 0.05566 0.0
C6794 C 0.10782 0.86965 0.04334 0.0
C6795 C 0.11325 0.8772 0.04563 0.0
N6796 N 0.11508 0.89113 0.05375 0.0
N6797 N 0.09343 0.86197 0.04497 0.0
C6798 C 0.1105 0.88323 0.05253 0.0
C6799 C 0.0995 0.86825 0.04795 0.0
N6800 N 0.10127 0.88564 0.06583 0.0
N6801 N 0.11081 0.8636 0.03706 0.0
H6802 H 0.0873 0.86078 0.04822 0.0
H6803 H 0.09409 0.85852 0.03889 0.0
H6804 H 0.11676 0.8645 0.03341 0.0
H6805 H 0.10773 0.85741 0.03587 0.0
H6806 H 0.10565 0.89043 0.06851 0.0
H6807 H 0.09577 0.88428 0.07 0.0
H6808 H 0.11293 0.89624 0.05806 0.0
H6809 H 0.12065 0.89294 0.04984 0.0
C6810 C 0.39046 0.85062 0.29924 0.0
C6811 C 0.38378 0.84719 0.3052 0.0
C6812 C 0.37356 0.85956 0.30112 0.0
C6813 C 0.38026 0.86304 0.29524 0.0
N6814 N 0.39431 0.8612 0.28731 0.0
N6815 N 0.36847 0.84721 0.31062 0.0
C6816 C 0.38846 0.85832 0.29384 0.0
C6817 C 0.37514 0.85128 0.30573 0.0
N6818 N 0.39881 0.8467 0.29901 0.0
N6819 N 0.36583 0.86439 0.30258 0.0
H6820 H 0.36948 0.84128 0.31426 0.0
H6821 H 0.36177 0.8493 0.31058 0.0
H6822 H 0.36428 0.87027 0.29904 0.0
H6823 H 0.36115 0.86287 0.30758 0.0
H6824 H 0.40433 0.84945 0.29568 0.0
H6825 H 0.40037 0.84083 0.30256 0.0
H6826 H 0.40001 0.85764 0.28531 0.0
H6827 H 0.39309 0.86689 0.28335 0.0
C6828 C 0.40717 0.13822 0.54798 0.0
C6829 C 0.40937 0.13286 0.5556 0.0
C6830 C 0.3964 0.12305 0.55246 0.0
C6831 C 0.39351 0.12915 0.54568 0.0
N6832 N 0.3957 0.14289 0.53727 0.0
N6833 N 0.40579 0.12055 0.56562 0.0
C6834 C 0.39882 0.13679 0.54344 0.0
C6835 C 0.40396 0.1253 0.55793 0.0
N6836 N 0.41313 0.14462 0.54504 0.0
N6837 N 0.39191 0.11507 0.55361 0.0
H6838 H 0.41131 0.12192 0.56975 0.0
H6839 H 0.4015 0.11567 0.56827 0.0
H6840 H 0.38633 0.11326 0.54973 0.0
H6841 H 0.39418 0.10992 0.55781 0.0
H6842 H 0.41236 0.14815 0.53903 0.0
H6843 H 0.41928 0.14584 0.54824 0.0
H6844 H 0.39869 0.14914 0.53614 0.0
H6845 H 0.38973 0.14196 0.53366 0.0
C6846 C 0.13009 0.15397 0.80821 0.0
C6847 C 0.12254 0.15944 0.80601 0.0
C6848 C 0.11839 0.14901 0.79383 0.0
C6849 C 0.12601 0.14362 0.79595 0.0
N6850 N 0.14015 0.14183 0.80373 0.0
N6851 N 0.11066 0.16334 0.79563 0.0
C6852 C 0.13221 0.14641 0.80268 0.0
C6853 C 0.11706 0.15732 0.79845 0.0
N6854 N 0.13496 0.15574 0.81584 0.0
N6855 N 0.11221 0.14597 0.78769 0.0
H6856 H 0.10951 0.16947 0.7989 0.0
H6857 H 0.10704 0.16264 0.78966 0.0
H6858 H 0.11307 0.14005 0.78401 0.0
H6859 H 0.10597 0.14902 0.78664 0.0
H6860 H 0.13986 0.15141 0.81841 0.0
H6861 H 0.1337 0.16127 0.82 0.0
H6862 H 0.14536 0.14402 0.8079 0.0
H6863 H 0.14185 0.13624 0.79981 0.0
C6864 C 0.45094 0.10125 0.12491 0.0
C6865 C 0.45143 0.09715 0.13354 0.0
C6866 C 0.46277 0.10829 0.13827 0.0
C6867 C 0.46141 0.11302 0.13006 0.0
N6868 N 0.45412 0.11436 0.1156 0.0
N6869 N 0.45753 0.09669 0.1486 0.0
C6870 C 0.45554 0.10953 0.12334 0.0
C6871 C 0.45735 0.1006 0.14024 0.0
N6872 N 0.44607 0.09717 0.11821 0.0
N6873 N 0.46927 0.11118 0.14414 0.0
H6874 H 0.45396 0.09084 0.15016 0.0
H6875 H 0.46083 0.09946 0.15414 0.0
H6876 H 0.47323 0.11686 0.14294 0.0
H6877 H 0.47125 0.10761 0.14985 0.0
H6878 H 0.44615 0.09926 0.11151 0.0
H6879 H 0.44244 0.09123 0.1192 0.0
H6880 H 0.44912 0.11284 0.11091 0.0
H6881 H 0.45766 0.12025 0.11407 0.0
C6882 C 0.15683 0.20874 0.38782 0.0
C6883 C 0.15902 0.20105 0.38256 0.0
C6884 C 0.14588 0.20392 0.37288 0.0
C6885 C 0.14303 0.21079 0.37889 0.0
N6886 N 0.14534 0.21942 0.39248 0.0
N6887 N 0.15532 0.19077 0.3705 0.0
C6888 C 0.14843 0.21319 0.38643 0.0
C6889 C 0.15351 0.19854 0.37513 0.0
N6890 N 0.16286 0.21184 0.39408 0.0
N6891 N 0.14131 0.2026 0.36498 0.0
H6892 H 0.16089 0.1867 0.37186 0.0
H6893 H 0.15097 0.188 0.36573 0.0
H6894 H 0.13567 0.20641 0.36317 0.0
H6895 H 0.14353 0.19832 0.35988 0.0
H6896 H 0.1621 0.21791 0.39751 0.0
H6897 H 0.16905 0.20871 0.39526 0.0
H6898 H 0.14841 0.22068 0.39867 0.0
H6899 H 0.13932 0.22296 0.39159 0.0
C6900 C 0.0581 0.90364 0.62562 0.0
C6901 C 0.05576 0.90912 0.63311 0.0
C6902 C 0.04356 0.89864 0.63711 0.0
C6903 C 0.0458 0.89325 0.62951 0.0
N6904 N 0.05379 0.8915 0.61548 0.0
N6905 N 0.04519 0.91299 0.64483 0.0
C6906 C 0.05262 0.89606 0.62341 0.0
C6907 C 0.04813 0.90698 0.63848 0.0
N6908 N 0.06581 0.90541 0.62086 0.0
N6909 N 0.03737 0.89558 0.64322 0.0
H6910 H 0.04841 0.91914 0.64601 0.0
H6911 H 0.03916 0.91228 0.64836 0.0
H6912 H 0.03374 0.88962 0.64232 0.0
H6913 H 0.03622 0.89863 0.64944 0.0
H6914 H 0.06847 0.90107 0.61602 0.0
H6915 H 0.06994 0.91094 0.62219 0.0
H6916 H 0.05802 0.8937 0.61033 0.0
H6917 H 0.04991 0.88591 0.61371 0.0
C6918 C 0.35282 0.80805 0.8751 0.0
C6919 C 0.34732 0.80565 0.88257 0.0
C6920 C 0.35771 0.79332 0.88639 0.0
C6921 C 0.36311 0.79562 0.87883 0.0
N6922 N 0.36491 0.80377 0.8649 0.0
N6923 N 0.34335 0.79494 0.89412 0.0
C6924 C 0.36035 0.80254 0.87282 0.0
C6925 C 0.3494 0.79792 0.88783 0.0
N6926 N 0.35111 0.81583 0.87046 0.0
N6927 N 0.36072 0.78703 0.89242 0.0
H6928 H 0.33722 0.79818 0.89534 0.0
H6929 H 0.34402 0.78885 0.89756 0.0
H6930 H 0.36666 0.78338 0.8915 0.0
H6931 H 0.35766 0.78583 0.89863 0.0
H6932 H 0.35547 0.81852 0.86566 0.0
H6933 H 0.34561 0.81999 0.87185 0.0
H6934 H 0.36274 0.80809 0.85981 0.0
H6935 H 0.37047 0.79986 0.86307 0.0
C6936 C 0.4575 0.90674 0.3688 0.0
C6937 C 0.44981 0.90889 0.37409 0.0
C6938 C 0.45281 0.89581 0.3838 0.0
C6939 C 0.4597 0.89301 0.37779 0.0
N6940 N 0.46827 0.89532 0.36416 0.0
N6941 N 0.43959 0.90516 0.38619 0.0
C6942 C 0.46203 0.89839 0.37022 0.0
C6943 C 0.44736 0.90339 0.38154 0.0
N6944 N 0.46053 0.91276 0.36251 0.0
N6945 N 0.45154 0.89126 0.39172 0.0
H6946 H 0.43548 0.9107 0.38482 0.0
H6947 H 0.43686 0.90082 0.39099 0.0
H6948 H 0.4554 0.88566 0.39354 0.0
H6949 H 0.44724 0.89346 0.39682 0.0
H6950 H 0.4666 0.91204 0.35906 0.0
H6951 H 0.45734 0.91891 0.36129 0.0
H6952 H 0.46948 0.89838 0.35796 0.0
H6953 H 0.47186 0.88934 0.36506 0.0
C6954 C 0.35167 0.19966 0.63203 0.0
C6955 C 0.34732 0.2004 0.62353 0.0
C6956 C 0.35806 0.21217 0.61895 0.0
C6957 C 0.36305 0.21061 0.62697 0.0
N6958 N 0.36495 0.20285 0.64111 0.0
N6959 N 0.34626 0.20709 0.60876 0.0
C6960 C 0.35989 0.20442 0.63355 0.0
C6961 C 0.35043 0.20666 0.61699 0.0
N6962 N 0.34791 0.19443 0.63863 0.0
N6963 N 0.36064 0.21895 0.61325 0.0
H6964 H 0.34043 0.20345 0.60724 0.0
H6965 H 0.34877 0.21068 0.60328 0.0
H6966 H 0.36629 0.22297 0.61441 0.0
H6967 H 0.35686 0.22106 0.60773 0.0
H6968 H 0.35019 0.19428 0.64526 0.0
H6969 H 0.34203 0.19069 0.63765 0.0
H6970 H 0.36368 0.19765 0.64565 0.0
H6971 H 0.37076 0.20651 0.64264 0.0
C6972 C 0.0477 0.09952 0.86822 0.0
C6973 C 0.05537 0.09739 0.87354 0.0
C6974 C 0.05231 0.11047 0.88322 0.0
C6975 C 0.04545 0.11327 0.87718 0.0
N6976 N 0.03692 0.11092 0.86354 0.0
N6977 N 0.06551 0.10113 0.8857 0.0
C6978 C 0.04315 0.10787 0.86961 0.0
C6979 C 0.05777 0.10289 0.881 0.0
N6980 N 0.04472 0.0935 0.86191 0.0
N6981 N 0.05355 0.11505 0.89113 0.0
H6982 H 0.06963 0.09558 0.88436 0.0
H6983 H 0.06822 0.10547 0.8905 0.0
H6984 H 0.04968 0.12065 0.89292 0.0
H6985 H 0.05782 0.11287 0.89626 0.0
H6986 H 0.03866 0.09421 0.85842 0.0
H6987 H 0.04792 0.08735 0.8607 0.0
H6988 H 0.03573 0.10785 0.85733 0.0
H6989 H 0.0333 0.11688 0.86444 0.0
C6990 C 0.15732 0.79833 0.1184 0.0
C6991 C 0.15938 0.80612 0.12357 0.0
C6992 C 0.14628 0.80318 0.13327 0.0
C6993 C 0.14354 0.79618 0.12734 0.0
N6994 N 0.14601 0.7874 0.11388 0.0
N6995 N 0.15552 0.81649 0.1355 0.0
C6996 C 0.14899 0.79376 0.11985 0.0
C6997 C 0.15383 0.80864 0.13096 0.0
N6998 N 0.1634 0.79525 0.11219 0.0
N6999 N 0.14167 0.80453 0.14114 0.0
H7000 H 0.16104 0.82062 0.13409 0.0
H7001 H 0.15113 0.81926 0.14023 0.0
H7002 H 0.13609 0.80066 0.143 0.0
H7003 H 0.14382 0.80892 0.14619 0.0
H7004 H 0.16275 0.78912 0.10884 0.0
H7005 H 0.16954 0.79846 0.11096 0.0
H7006 H 0.14911 0.7861 0.10772 0.0
H7007 H 0.14005 0.78377 0.11482 0.0
C7008 C 0.13999 0.45665 0.10063 0.0
C7009 C 0.13339 0.45055 0.09732 0.0
C7010 C 0.12323 0.45457 0.10978 0.0
C7011 C 0.12986 0.46062 0.11312 0.0
N7012 N 0.14376 0.46874 0.11106 0.0
N7013 N 0.11818 0.44484 0.09759 0.0
C7014 C 0.13799 0.4621 0.1083 0.0
C7015 C 0.12481 0.4499 0.10153 0.0
N7016 N 0.1483 0.45698 0.09662 0.0
N7017 N 0.11557 0.45304 0.1147 0.0
H7018 H 0.11919 0.44117 0.09167 0.0
H7019 H 0.11151 0.44477 0.09976 0.0
H7020 H 0.11401 0.45663 0.12055 0.0
H7021 H 0.11097 0.44793 0.11329 0.0
H7022 H 0.1538 0.46043 0.09928 0.0
H7023 H 0.14986 0.45339 0.09077 0.0
H7024 H 0.14938 0.47081 0.1074 0.0
H7025 H 0.14257 0.47271 0.11674 0.0
C7026 C 0.62534 0.05814 0.90358 0.0
C7027 C 0.63282 0.0559 0.90913 0.0
C7028 C 0.63684 0.0435 0.8989 0.0
C7029 C 0.6293 0.04568 0.89342 0.0
N7030 N 0.6153 0.05365 0.89144 0.0
N7031 N 0.64448 0.04538 0.91328 0.0
C7032 C 0.62319 0.05254 0.89608 0.0
C7033 C 0.63818 0.04821 0.90717 0.0
N7034 N 0.62057 0.06586 0.90521 0.0
N7035 N 0.64294 0.03722 0.89601 0.0
H7036 H 0.64563 0.04871 0.91937 0.0
H7037 H 0.648 0.03933 0.9127 0.0
H7038 H 0.64206 0.03347 0.89012 0.0
H7039 H 0.64913 0.0361 0.89912 0.0
H7040 H 0.61575 0.06845 0.90081 0.0
H7041 H 0.62185 0.07007 0.9107 0.0
H7042 H 0.61013 0.05792 0.89352 0.0
H7043 H 0.61356 0.04967 0.88589 0.0
C7044 C 0.20791 0.38772 0.15735 0.0
C7045 C 0.20016 0.3825 0.15943 0.0
C7046 C 0.20319 0.37278 0.14637 0.0
C7047 C 0.21013 0.37876 0.1436 0.0
N7048 N 0.21877 0.39232 0.146 0.0
N7049 N 0.18989 0.37047 0.15562 0.0
C7050 C 0.21248 0.3863 0.14902 0.0
C7051 C 0.1977 0.37507 0.15391 0.0
N7052 N 0.21095 0.39397 0.16341 0.0
N7053 N 0.20191 0.36488 0.1418 0.0
H7054 H 0.18574 0.37186 0.16113 0.0
H7055 H 0.18717 0.36569 0.15125 0.0
H7056 H 0.20581 0.36303 0.13623 0.0
H7057 H 0.19757 0.3598 0.14397 0.0
H7058 H 0.21705 0.39737 0.16273 0.0
H7059 H 0.20773 0.39518 0.16956 0.0
H7060 H 0.22001 0.39851 0.14908 0.0
H7061 H 0.22239 0.39141 0.14003 0.0
C7062 C 0.86847 0.95859 0.40693 0.0
C7063 C 0.87373 0.95087 0.40901 0.0
C7064 C 0.88337 0.95388 0.39587 0.0
C7065 C 0.87735 0.96079 0.39312 0.0
N7066 N 0.86379 0.96942 0.39558 0.0
N7067 N 0.88578 0.94063 0.40516 0.0
C7068 C 0.86984 0.96314 0.39858 0.0
C7069 C 0.88114 0.94842 0.40345 0.0
N7070 N 0.86224 0.96162 0.41301 0.0
N7071 N 0.89125 0.9526 0.39125 0.0
H7072 H 0.88444 0.9365 0.41069 0.0
H7073 H 0.89054 0.93791 0.40077 0.0
H7074 H 0.89304 0.95648 0.38565 0.0
H7075 H 0.89635 0.94829 0.3934 0.0
H7076 H 0.8588 0.9677 0.41234 0.0
H7077 H 0.86106 0.95841 0.41917 0.0
H7078 H 0.85762 0.97066 0.3987 0.0
H7079 H 0.86468 0.97303 0.38961 0.0
C7080 C 0.80007 0.13209 0.15892 0.0
C7081 C 0.80198 0.12311 0.16162 0.0
C7082 C 0.79382 0.11769 0.14825 0.0
C7083 C 0.79437 0.12648 0.14448 0.0
N7084 N 0.79784 0.14229 0.14642 0.0
N7085 N 0.79426 0.10885 0.16199 0.0
C7086 C 0.79739 0.13377 0.14988 0.0
C7087 C 0.79697 0.11623 0.1572 0.0
N7088 N 0.79906 0.13866 0.16526 0.0
N7089 N 0.7905 0.1107 0.14325 0.0
H7090 H 0.79552 0.1083 0.1689 0.0
H7091 H 0.7899 0.10397 0.15945 0.0
H7092 H 0.78773 0.11156 0.13684 0.0
H7093 H 0.79095 0.10399 0.14529 0.0
H7094 H 0.79697 0.14519 0.16369 0.0
H7095 H 0.79874 0.13707 0.17211 0.0
H7096 H 0.80081 0.14761 0.14993 0.0
H7097 H 0.79585 0.14385 0.13985 0.0
C7098 C 0.38179 0.55849 0.60315 0.0
C7099 C 0.3743 0.55613 0.59767 0.0
C7100 C 0.37043 0.54383 0.60806 0.0
C7101 C 0.37801 0.5461 0.61345 0.0
N7102 N 0.39198 0.55417 0.61523 0.0
N7103 N 0.36266 0.5455 0.59373 0.0
C7104 C 0.38405 0.55297 0.61068 0.0
C7105 C 0.36899 0.54844 0.59976 0.0
N7106 N 0.38648 0.56624 0.60142 0.0
N7107 N 0.36438 0.53756 0.61108 0.0
H7108 H 0.36144 0.54875 0.58761 0.0
H7109 H 0.35918 0.53944 0.59441 0.0
H7110 H 0.36531 0.53389 0.61701 0.0
H7111 H 0.35816 0.53638 0.60804 0.0
H7112 H 0.39132 0.5689 0.60576 0.0
H7113 H 0.38512 0.5704 0.59591 0.0
H7114 H 0.3971 0.55846 0.61305 0.0
H7115 H 0.39379 0.55027 0.6208 0.0
C7116 C 0.2081 0.61894 0.34957 0.0
C7117 C 0.20031 0.62415 0.34761 0.0
C7118 C 0.20337 0.63369 0.3608 0.0
C7119 C 0.21037 0.62772 0.36343 0.0
N7120 N 0.21907 0.61424 0.36077 0.0
N7121 N 0.19 0.63606 0.35168 0.0
C7122 C 0.21272 0.62027 0.35788 0.0
C7123 C 0.19785 0.63148 0.35326 0.0
N7124 N 0.21114 0.6128 0.3434 0.0
N7125 N 0.20208 0.64152 0.3655 0.0
H7126 H 0.18582 0.63472 0.34618 0.0
H7127 H 0.18727 0.64075 0.35614 0.0
H7128 H 0.206 0.64331 0.37106 0.0
H7129 H 0.1977 0.64661 0.36343 0.0
H7130 H 0.21727 0.60942 0.34398 0.0
H7131 H 0.20789 0.61165 0.33726 0.0
H7132 H 0.22031 0.6081 0.35759 0.0
H7133 H 0.22272 0.61508 0.36673 0.0
C7134 C 0.30007 0.38995 0.85059 0.0
C7135 C 0.30603 0.38329 0.84714 0.0
C7136 C 0.30197 0.37305 0.85951 0.0
C7137 C 0.29605 0.37973 0.86299 0.0
N7138 N 0.28811 0.39376 0.86115 0.0
N7139 N 0.31148 0.36799 0.84715 0.0
C7140 C 0.29465 0.38793 0.85827 0.0
C7141 C 0.30657 0.37465 0.85123 0.0
N7142 N 0.29985 0.39831 0.8467 0.0
N7143 N 0.30344 0.36533 0.86434 0.0
H7144 H 0.31511 0.36901 0.84121 0.0
H7145 H 0.31144 0.36129 0.84924 0.0
H7146 H 0.29991 0.36377 0.87022 0.0
H7147 H 0.30847 0.36067 0.86282 0.0
H7148 H 0.29651 0.40383 0.84947 0.0
H7149 H 0.30342 0.3999 0.84084 0.0
H7150 H 0.2861 0.39946 0.85758 0.0
H7151 H 0.28414 0.39253 0.86683 0.0
C7152 C 0.90741 0.8677 0.54744 0.0
C7153 C 0.90945 0.87289 0.55522 0.0
C7154 C 0.8962 0.88241 0.55235 0.0
C7155 C 0.89351 0.87646 0.54536 0.0
N7156 N 0.89609 0.86303 0.53657 0.0
N7157 N 0.90548 0.88475 0.56563 0.0
C7158 C 0.89904 0.86904 0.54292 0.0
C7159 C 0.90381 0.8802 0.55778 0.0
N7160 N 0.91356 0.86157 0.54432 0.0
N7161 N 0.8915 0.89022 0.55374 0.0
H7162 H 0.91104 0.88342 0.56973 0.0
H7163 H 0.90104 0.88941 0.56842 0.0
H7164 H 0.88588 0.89201 0.54989 0.0
H7165 H 0.8936 0.89529 0.55812 0.0
H7166 H 0.91291 0.85821 0.53819 0.0
H7167 H 0.91973 0.86042 0.5475 0.0
H7168 H 0.89927 0.85691 0.53526 0.0
H7169 H 0.8901 0.86387 0.53299 0.0
C7170 C 0.87577 0.15464 0.30554 0.0
C7171 C 0.88428 0.15898 0.30475 0.0
C7172 C 0.889 0.14794 0.29339 0.0
C7173 C 0.88081 0.14314 0.29467 0.0
N7174 N 0.86638 0.14165 0.30196 0.0
N7175 N 0.89877 0.16026 0.29739 0.0
C7176 C 0.87413 0.14649 0.30067 0.0
C7177 C 0.89077 0.1558 0.29849 0.0
N7178 N 0.86927 0.15838 0.31092 0.0
N7179 N 0.89541 0.14505 0.28748 0.0
H7180 H 0.90037 0.16616 0.30087 0.0
H7181 H 0.90374 0.15807 0.2929 0.0
H7182 H 0.89476 0.13934 0.2834 0.0
H7183 H 0.89476 0.13934 0.2834 0.0
H7184 H 0.86264 0.15612 0.31125 0.0
H7185 H 0.87036 0.16418 0.31476 0.0
H7186 H 0.86161 0.14305 0.30691 0.0
H7187 H 0.86482 0.13589 0.29823 0.0
C7188 C 0.60331 0.12616 0.05757 0.0
C7189 C 0.59777 0.13361 0.05522 0.0
C7190 C 0.60818 0.1376 0.04296 0.0
C7191 C 0.61359 0.13002 0.04518 0.0
N7192 N 0.61541 0.11602 0.0532 0.0
N7193 N 0.59379 0.14525 0.04462 0.0
C7194 C 0.61084 0.12395 0.05204 0.0
C7195 C 0.59985 0.13896 0.04756 0.0
N7196 N 0.60163 0.12146 0.06533 0.0
N7197 N 0.6112 0.14372 0.03676 0.0
H7198 H 0.58765 0.14642 0.04785 0.0
H7199 H 0.59447 0.14875 0.03856 0.0
H7200 H 0.61717 0.14287 0.03313 0.0
H7201 H 0.60812 0.14993 0.03564 0.0
H7202 H 0.60602 0.11666 0.06798 0.0
H7203 H 0.59614 0.12281 0.06952 0.0
H7204 H 0.61324 0.11089 0.05747 0.0
H7205 H 0.62098 0.11423 0.04927 0.0
C7206 C 0.63053 0.85301 0.8084 0.0
C7207 C 0.62326 0.84735 0.80576 0.0
C7208 C 0.61945 0.85779 0.79347 0.0
C7209 C 0.62685 0.86334 0.79599 0.0
N7210 N 0.64054 0.86536 0.80447 0.0
N7211 N 0.61205 0.84324 0.79475 0.0
C7212 C 0.63275 0.86064 0.80302 0.0
C7213 C 0.61812 0.84939 0.79794 0.0
N7214 N 0.63502 0.85134 0.81628 0.0
N7215 N 0.61347 0.86074 0.78711 0.0
H7216 H 0.61091 0.83704 0.79789 0.0
H7217 H 0.60873 0.8439 0.78859 0.0
H7218 H 0.6143 0.86676 0.78357 0.0
H7219 H 0.60737 0.85754 0.78574 0.0
H7220 H 0.63964 0.8558 0.81913 0.0
H7221 H 0.63367 0.84577 0.82036 0.0
H7222 H 0.64559 0.86326 0.80888 0.0
H7223 H 0.64235 0.871 0.80066 0.0
C7224 C 0.9071 0.13914 0.95914 0.0
C7225 C 0.90919 0.13395 0.95137 0.0
C7226 C 0.89603 0.12431 0.95425 0.0
C7227 C 0.89328 0.13025 0.96123 0.0
N7228 N 0.89573 0.14373 0.96999 0.0
N7229 N 0.90533 0.12204 0.94098 0.0
C7230 C 0.89874 0.13774 0.96366 0.0
C7231 C 0.90362 0.12659 0.94882 0.0
N7232 N 0.91319 0.14534 0.96224 0.0
N7233 N 0.89141 0.11645 0.95289 0.0
H7234 H 0.91087 0.12342 0.93688 0.0
H7235 H 0.90093 0.11732 0.9382 0.0
H7236 H 0.88581 0.11462 0.95674 0.0
H7237 H 0.89357 0.11139 0.94852 0.0
H7238 H 0.9125 0.14871 0.96837 0.0
H7239 H 0.91935 0.14654 0.95906 0.0
H7240 H 0.89885 0.14989 0.97128 0.0
H7241 H 0.88974 0.14283 0.97357 0.0
C7242 C 0.61718 0.15719 0.7088 0.0
C7243 C 0.62239 0.15935 0.70106 0.0
C7244 C 0.63209 0.14623 0.7039 0.0
C7245 C 0.62615 0.14342 0.71086 0.0
N7246 N 0.61262 0.14575 0.71958 0.0
N7247 N 0.63436 0.15561 0.69069 0.0
C7248 C 0.61862 0.14882 0.71329 0.0
C7249 C 0.62979 0.15383 0.69851 0.0
N7250 N 0.61094 0.16322 0.71192 0.0
N7251 N 0.63998 0.14165 0.70253 0.0
H7252 H 0.63296 0.16117 0.68662 0.0
H7253 H 0.6391 0.15126 0.68789 0.0
H7254 H 0.64184 0.13604 0.70636 0.0
H7255 H 0.64504 0.14385 0.69818 0.0
H7256 H 0.60756 0.16249 0.71803 0.0
H7257 H 0.6097 0.16939 0.70877 0.0
H7258 H 0.60643 0.14882 0.72086 0.0
H7259 H 0.61353 0.13974 0.72313 0.0
C7260 C 0.59905 0.86731 0.45886 0.0
C7261 C 0.59696 0.87259 0.45115 0.0
C7262 C 0.6102 0.88211 0.45407 0.0
C7263 C 0.61294 0.87608 0.46098 0.0
N7264 N 0.61042 0.86256 0.46964 0.0
N7265 N 0.60083 0.8846 0.44089 0.0
C7266 C 0.60744 0.86862 0.46336 0.0
C7267 C 0.60257 0.87994 0.44866 0.0
N7268 N 0.59294 0.86111 0.46193 0.0
N7269 N 0.61489 0.88993 0.45274 0.0
H7270 H 0.59524 0.8833 0.43681 0.0
H7271 H 0.60524 0.88931 0.43812 0.0
H7272 H 0.62054 0.89168 0.45657 0.0
H7273 H 0.61276 0.89505 0.44843 0.0
H7274 H 0.59363 0.85767 0.46801 0.0
H7275 H 0.58676 0.85997 0.45876 0.0
H7276 H 0.60727 0.85641 0.4709 0.0
H7277 H 0.61642 0.86341 0.47323 0.0
C7278 C 0.88867 0.84925 0.20864 0.0
C7279 C 0.88348 0.84723 0.20086 0.0
C7280 C 0.87401 0.86052 0.2037 0.0
C7281 C 0.87997 0.86319 0.2107 0.0
N7282 N 0.89341 0.86056 0.21948 0.0
N7283 N 0.87165 0.85124 0.19043 0.0
C7284 C 0.88738 0.85763 0.21315 0.0
C7285 C 0.8762 0.8529 0.19829 0.0
N7286 N 0.89476 0.84308 0.21178 0.0
N7287 N 0.86622 0.86525 0.20231 0.0
H7288 H 0.87297 0.84568 0.18634 0.0
H7289 H 0.86701 0.8557 0.18763 0.0
H7290 H 0.86445 0.87088 0.20615 0.0
H7291 H 0.86114 0.86316 0.19793 0.0
H7292 H 0.89812 0.84372 0.21792 0.0
H7293 H 0.89588 0.8369 0.20862 0.0
H7294 H 0.89951 0.85736 0.2208 0.0
H7295 H 0.8926 0.86657 0.22305 0.0
C7296 C 0.54755 0.90668 0.86766 0.0
C7297 C 0.55529 0.90875 0.8729 0.0
C7298 C 0.5524 0.89552 0.88243 0.0
C7299 C 0.54545 0.8928 0.87644 0.0
N7300 N 0.53673 0.89534 0.86295 0.0
N7301 N 0.56564 0.90482 0.88483 0.0
C7302 C 0.54304 0.89831 0.86899 0.0
C7303 C 0.55782 0.90313 0.88023 0.0
N7304 N 0.54445 0.91281 0.8615 0.0
N7305 N 0.55374 0.89084 0.89026 0.0
H7306 H 0.56974 0.91038 0.8835 0.0
H7307 H 0.56841 0.9004 0.88952 0.0
H7308 H 0.5499 0.88521 0.89203 0.0
H7309 H 0.55808 0.89296 0.89536 0.0
H7310 H 0.53834 0.91214 0.8581 0.0
H7311 H 0.54762 0.91898 0.86036 0.0
H7312 H 0.53545 0.89849 0.85681 0.0
H7313 H 0.53315 0.88934 0.8638 0.0
C7314 C 0.85299 0.80862 0.63031 0.0
C7315 C 0.84729 0.80601 0.62306 0.0
C7316 C 0.8576 0.79362 0.61928 0.0
C7317 C 0.8632 0.79612 0.62663 0.0
N7318 N 0.86535 0.80463 0.64029 0.0
N7319 N 0.84303 0.79499 0.61192 0.0
C7320 C 0.86059 0.80319 0.63253 0.0
C7321 C 0.84924 0.79816 0.61796 0.0
N7322 N 0.85139 0.81653 0.63479 0.0
N7323 N 0.86048 0.78721 0.6133 0.0
H7324 H 0.83686 0.79818 0.61078 0.0
H7325 H 0.84362 0.78881 0.60863 0.0
H7326 H 0.86647 0.78362 0.61412 0.0
H7327 H 0.85725 0.78585 0.60722 0.0
H7328 H 0.85587 0.81935 0.63939 0.0
H7329 H 0.84584 0.82063 0.63345 0.0
H7330 H 0.86331 0.80908 0.64532 0.0
H7331 H 0.87096 0.80077 0.64208 0.0
C7332 C 0.94888 0.10286 0.37993 0.0
C7333 C 0.9513 0.09739 0.37245 0.0
C7334 C 0.9635 0.10791 0.36857 0.0
C7335 C 0.9612 0.11327 0.37615 0.0
N7336 N 0.9531 0.11496 0.39013 0.0
N7337 N 0.96198 0.09355 0.36082 0.0
C7338 C 0.95434 0.11043 0.38219 0.0
C7339 C 0.95897 0.09956 0.36714 0.0
N7340 N 0.94113 0.10108 0.3846 0.0
N7341 N 0.96973 0.11099 0.3625 0.0
H7342 H 0.9588 0.0874 0.35961 0.0
H7343 H 0.96804 0.09429 0.35734 0.0
H7344 H 0.97333 0.11697 0.36342 0.0
H7345 H 0.97092 0.10796 0.35628 0.0
H7346 H 0.93843 0.10541 0.38942 0.0
H7347 H 0.937 0.09556 0.38323 0.0
H7348 H 0.94884 0.11273 0.39525 0.0
H7349 H 0.95697 0.12056 0.39195 0.0
C7350 C 0.65585 0.20011 0.13032 0.0
C7351 C 0.65993 0.20079 0.12168 0.0
C7352 C 0.64874 0.21218 0.1172 0.0
C7353 C 0.64406 0.21068 0.12542 0.0
N7354 N 0.64276 0.2031 0.13973 0.0
N7355 N 0.66031 0.20716 0.10673 0.0
C7356 C 0.64756 0.20468 0.132 0.0
C7357 C 0.65644 0.20682 0.1151 0.0
N7358 N 0.65996 0.19513 0.13691 0.0
N7359 N 0.64582 0.21878 0.11145 0.0
H7360 H 0.66617 0.20362 0.10508 0.0
H7361 H 0.65752 0.21055 0.10126 0.0
H7362 H 0.64011 0.22269 0.11273 0.0
H7363 H 0.64937 0.22087 0.10577 0.0
H7364 H 0.65788 0.19507 0.14361 0.0
H7365 H 0.6659 0.19153 0.13582 0.0
H7366 H 0.6443 0.19801 0.14431 0.0
H7367 H 0.63689 0.20661 0.14136 0.0
C7368 C 0.54873 0.10006 0.64013 0.0
C7369 C 0.55524 0.09716 0.63373 0.0
C7370 C 0.55154 0.11 0.62393 0.0
C7371 C 0.5451 0.11295 0.63037 0.0
N7372 N 0.5363 0.11014 0.64373 0.0
N7373 N 0.56176 0.0982 0.61888 0.0
C7374 C 0.54327 0.10774 0.63819 0.0
C7375 C 0.55627 0.10176 0.62539 0.0
N7376 N 0.54801 0.09566 0.64821 0.0
N7377 N 0.55336 0.11526 0.61657 0.0
H7378 H 0.56548 0.09231 0.61983 0.0
H7379 H 0.56216 0.10068 0.61233 0.0
H7380 H 0.54972 0.1211 0.61507 0.0
H7381 H 0.55871 0.11414 0.61218 0.0
H7382 H 0.54422 0.098 0.65363 0.0
H7383 H 0.55161 0.0898 0.64969 0.0
H7384 H 0.53399 0.1062 0.64906 0.0
H7385 H 0.53232 0.11584 0.6426 0.0
C7386 C 0.65768 0.79795 0.38934 0.0
C7387 C 0.65978 0.80566 0.38407 0.0
C7388 C 0.64654 0.80278 0.37454 0.0
C7389 C 0.6438 0.79586 0.38055 0.0
N7390 N 0.6463 0.78718 0.39406 0.0
N7391 N 0.65593 0.81595 0.37207 0.0
C7392 C 0.64929 0.79346 0.38802 0.0
C7393 C 0.65418 0.80817 0.37671 0.0
N7394 N 0.66378 0.79487 0.39553 0.0
N7395 N 0.64186 0.80412 0.3667 0.0
H7396 H 0.66151 0.82002 0.37338 0.0
H7397 H 0.65153 0.81873 0.36736 0.0
H7398 H 0.63621 0.8003 0.36495 0.0
H7399 H 0.644 0.80843 0.36159 0.0
H7400 H 0.66309 0.78879 0.39896 0.0
H7401 H 0.66996 0.79804 0.39668 0.0
H7402 H 0.64944 0.7859 0.40021 0.0
H7403 H 0.64029 0.7836 0.39321 0.0
C7404 C 0.94906 0.90306 0.12629 0.0
C7405 C 0.95157 0.90865 0.13365 0.0
C7406 C 0.9638 0.89818 0.13757 0.0
C7407 C 0.9614 0.89269 0.1301 0.0
N7408 N 0.95314 0.89077 0.11626 0.0
N7409 N 0.96239 0.91266 0.14509 0.0
C7410 C 0.95447 0.89543 0.1241 0.0
C7411 C 0.9593 0.90656 0.1389 0.0
N7412 N 0.94126 0.90478 0.12167 0.0
N7413 N 0.97009 0.89519 0.14362 0.0
H7414 H 0.95922 0.91884 0.14624 0.0
H7415 H 0.96849 0.91198 0.1485 0.0
H7416 H 0.97367 0.88919 0.14276 0.0
H7417 H 0.97136 0.89833 0.14976 0.0
H7418 H 0.93849 0.90037 0.11696 0.0
H7419 H 0.93717 0.91034 0.123 0.0
H7420 H 0.94881 0.89291 0.11115 0.0
H7421 H 0.95697 0.88513 0.11449 0.0
C7422 C 0.85246 0.19806 0.8768 0.0
C7423 C 0.84686 0.20065 0.88413 0.0
C7424 C 0.85729 0.21296 0.88787 0.0
C7425 C 0.86277 0.21051 0.88041 0.0
N7426 N 0.86469 0.20207 0.86667 0.0
N7427 N 0.84283 0.2116 0.89544 0.0
C7428 C 0.86004 0.20348 0.87451 0.0
C7429 C 0.84893 0.20845 0.88928 0.0
N7430 N 0.85077 0.19019 0.8723 0.0
N7431 N 0.86029 0.21932 0.89385 0.0
H7432 H 0.83666 0.20842 0.89665 0.0
H7433 H 0.8435 0.21774 0.89877 0.0
H7434 H 0.86628 0.22289 0.89296 0.0
H7435 H 0.85715 0.22064 0.89999 0.0
H7436 H 0.85519 0.18737 0.86763 0.0
H7437 H 0.84523 0.18609 0.8737 0.0
H7438 H 0.86255 0.19767 0.86163 0.0
H7439 H 0.87029 0.20591 0.86482 0.0
C7440 C 0.86791 0.54773 0.90717 0.0
C7441 C 0.87308 0.55554 0.90912 0.0
C7442 C 0.8825 0.55265 0.8958 0.0
C7443 C 0.87656 0.54562 0.8932 0.0
N7444 N 0.86316 0.53681 0.89593 0.0
N7445 N 0.88485 0.56599 0.90498 0.0
C7446 C 0.86918 0.54318 0.8988 0.0
C7447 C 0.88032 0.55811 0.9034 0.0
N7448 N 0.86185 0.5446 0.91338 0.0
N7449 N 0.89027 0.55404 0.89104 0.0
H7450 H 0.88354 0.57011 0.91053 0.0
H7451 H 0.88946 0.56878 0.90049 0.0
H7452 H 0.89204 0.55017 0.88543 0.0
H7453 H 0.89534 0.55846 0.89308 0.0
H7454 H 0.85852 0.53845 0.91279 0.0
H7455 H 0.86074 0.5478 0.91955 0.0
H7456 H 0.85707 0.5355 0.89917 0.0
H7457 H 0.86395 0.53322 0.88994 0.0
C7458 C 0.36803 0.95792 0.09909 0.0
C7459 C 0.3731 0.95006 0.09706 0.0
C7460 C 0.38271 0.95282 0.11027 0.0
C7461 C 0.37687 0.95991 0.11296 0.0
N7462 N 0.36354 0.96887 0.11039 0.0
N7463 N 0.38483 0.9395 0.10101 0.0
C7464 C 0.36946 0.96244 0.10744 0.0
C7465 C 0.38039 0.94741 0.10268 0.0
N7466 N 0.36193 0.96111 0.09295 0.0
N7467 N 0.39052 0.95134 0.11495 0.0
H7468 H 0.38342 0.93541 0.09546 0.0
H7469 H 0.38948 0.93665 0.10544 0.0
H7470 H 0.39238 0.95518 0.12055 0.0
H7471 H 0.39551 0.94688 0.11285 0.0
H7472 H 0.35866 0.96729 0.09359 0.0
H7473 H 0.3607 0.95793 0.0868 0.0
H7474 H 0.35742 0.97025 0.10723 0.0
H7475 H 0.36445 0.97245 0.11638 0.0
C7476 C 0.80791 0.63004 0.85321 0.0
C7477 C 0.80535 0.62273 0.84758 0.0
C7478 C 0.79303 0.6189 0.85799 0.0
C7479 C 0.79548 0.62634 0.86351 0.0
N7480 N 0.80387 0.64009 0.86549 0.0
N7481 N 0.79443 0.61142 0.84349 0.0
C7482 C 0.80248 0.63228 0.86081 0.0
C7483 C 0.79755 0.61755 0.84962 0.0
N7484 N 0.81577 0.63458 0.85154 0.0
N7485 N 0.78668 0.61291 0.86095 0.0
H7486 H 0.7976 0.61025 0.83732 0.0
H7487 H 0.78829 0.60807 0.84414 0.0
H7488 H 0.7831 0.61377 0.86694 0.0
H7489 H 0.78536 0.60678 0.85778 0.0
H7490 H 0.81857 0.63925 0.85598 0.0
H7491 H 0.81988 0.63322 0.846 0.0
H7492 H 0.80826 0.64516 0.86338 0.0
H7493 H 0.80002 0.6419 0.87111 0.0
C7494 C 0.14121 0.04955 0.60153 0.0
C7495 C 0.13436 0.0551 0.59778 0.0
C7496 C 0.12396 0.05069 0.60991 0.0
C7497 C 0.13082 0.04517 0.61366 0.0
N7498 N 0.1453 0.03793 0.61235 0.0
N7499 N 0.1188 0.05974 0.59726 0.0
C7500 C 0.13924 0.04414 0.60922 0.0
C7501 C 0.12558 0.05525 0.6016 0.0
N7502 N 0.1497 0.04972 0.5979 0.0
N7503 N 0.11604 0.05187 0.6145 0.0
H7504 H 0.11981 0.06335 0.5913 0.0
H7505 H 0.11204 0.05938 0.59914 0.0
H7506 H 0.1145 0.04837 0.62041 0.0
H7507 H 0.11119 0.05663 0.61276 0.0
H7508 H 0.15529 0.04672 0.6009 0.0
H7509 H 0.15128 0.05328 0.59204 0.0
H7510 H 0.1512 0.03618 0.60898 0.0
H7511 H 0.14409 0.03396 0.61804 0.0
C7512 C 0.20093 0.87521 0.85172 0.0
C7513 C 0.20175 0.8837 0.84737 0.0
C7514 C 0.21337 0.88826 0.85829 0.0
C7515 C 0.21172 0.88024 0.86325 0.0
N7516 N 0.20388 0.86613 0.86504 0.0
N7517 N 0.20849 0.89846 0.84642 0.0
C7518 C 0.20555 0.87368 0.86 0.0
C7519 C 0.20798 0.89024 0.85058 0.0
N7520 N 0.19573 0.86862 0.84788 0.0
N7521 N 0.22011 0.89396 0.86098 0.0
H7522 H 0.20494 0.89998 0.84053 0.0
H7523 H 0.21204 0.90393 0.84899 0.0
H7524 H 0.22403 0.89279 0.8667 0.0
H7525 H 0.22229 0.89948 0.85723 0.0
H7526 H 0.19553 0.86199 0.85016 0.0
H7527 H 0.19208 0.8696 0.84195 0.0
H7528 H 0.19868 0.86161 0.8637 0.0
H7529 H 0.20744 0.86459 0.87091 0.0
C7530 C 0.62554 0.44738 0.40352 0.0
C7531 C 0.63285 0.44995 0.40916 0.0
C7532 C 0.63674 0.46221 0.39872 0.0
C7533 C 0.62931 0.45977 0.39319 0.0
N7534 N 0.61552 0.45142 0.3912 0.0
N7535 N 0.64417 0.46085 0.41325 0.0
C7536 C 0.62334 0.45279 0.3959 0.0
C7537 C 0.63805 0.45772 0.40711 0.0
N7538 N 0.62098 0.43954 0.4052 0.0
N7539 N 0.64278 0.46852 0.39576 0.0
H7540 H 0.64531 0.4577 0.41944 0.0
H7541 H 0.64754 0.46698 0.41259 0.0
H7542 H 0.64197 0.47207 0.38974 0.0
H7543 H 0.64891 0.46982 0.39894 0.0
H7544 H 0.61632 0.43675 0.40075 0.0
H7545 H 0.62231 0.43545 0.41076 0.0
H7546 H 0.61045 0.44705 0.39332 0.0
H7547 H 0.61374 0.45525 0.38558 0.0
C7548 C 0.80766 0.376 0.65333 0.0
C7549 C 0.80517 0.38328 0.65904 0.0
C7550 C 0.79277 0.38722 0.64879 0.0
C7551 C 0.79514 0.37982 0.64319 0.0
N7552 N 0.80349 0.36607 0.64098 0.0
N7553 N 0.79433 0.39458 0.66334 0.0
C7554 C 0.80216 0.37385 0.64576 0.0
C7555 C 0.79738 0.38849 0.65713 0.0
N7556 N 0.81552 0.37143 0.65489 0.0
N7557 N 0.78641 0.39326 0.64595 0.0
H7558 H 0.79757 0.39569 0.66949 0.0
H7559 H 0.78819 0.39794 0.66279 0.0
H7560 H 0.78276 0.39246 0.63999 0.0
H7561 H 0.78515 0.39936 0.64919 0.0
H7562 H 0.81826 0.36678 0.65039 0.0
H7563 H 0.81968 0.37272 0.66041 0.0
H7564 H 0.80788 0.36099 0.643 0.0
H7565 H 0.79958 0.36433 0.63539 0.0
C7566 C 0.70928 0.6176 0.15748 0.0
C7567 C 0.70151 0.62287 0.15934 0.0
C7568 C 0.70466 0.63223 0.14605 0.0
C7569 C 0.71163 0.62618 0.14351 0.0
N7570 N 0.72028 0.61271 0.14638 0.0
N7571 N 0.69129 0.63481 0.15513 0.0
C7572 C 0.71393 0.6188 0.14917 0.0
C7573 C 0.69911 0.63015 0.1536 0.0
N7574 N 0.71226 0.61151 0.16374 0.0
N7575 N 0.70341 0.63999 0.14123 0.0
H7576 H 0.68711 0.63357 0.16065 0.0
H7577 H 0.68861 0.63946 0.15061 0.0
H7578 H 0.70735 0.64166 0.13564 0.0
H7579 H 0.69905 0.64512 0.14321 0.0
H7580 H 0.71837 0.60809 0.16322 0.0
H7581 H 0.70898 0.61046 0.16988 0.0
H7582 H 0.72149 0.60661 0.14964 0.0
H7583 H 0.72397 0.61347 0.14044 0.0
C7584 C 0.60293 0.62528 0.94775 0.0
C7585 C 0.5974 0.6327 0.95023 0.0
C7586 C 0.60783 0.63648 0.96253 0.0
C7587 C 0.61327 0.62897 0.96015 0.0
N7588 N 0.61509 0.61511 0.95189 0.0
N7589 N 0.59344 0.64415 0.96104 0.0
C7590 C 0.61049 0.623 0.95321 0.0
C7591 C 0.59949 0.63791 0.95798 0.0
N7592 N 0.6012 0.62068 0.93994 0.0
N7593 N 0.61085 0.64248 0.96886 0.0
H7594 H 0.58729 0.64537 0.95784 0.0
H7595 H 0.59412 0.64756 0.96715 0.0
H7596 H 0.61681 0.64155 0.97248 0.0
H7597 H 0.60776 0.64866 0.97012 0.0
H7598 H 0.60557 0.61592 0.9372 0.0
H7599 H 0.59567 0.62207 0.93582 0.0
H7600 H 0.61293 0.61004 0.94755 0.0
H7601 H 0.62069 0.61329 0.95575 0.0
C7602 C 0.61802 0.34915 0.20821 0.0
C7603 C 0.62349 0.34694 0.20067 0.0
C7604 C 0.63328 0.3599 0.20395 0.0
C7605 C 0.6271 0.36278 0.21067 0.0
N7606 N 0.61326 0.36059 0.21891 0.0
N7607 N 0.63597 0.35049 0.19084 0.0
C7608 C 0.61942 0.35748 0.21279 0.0
C7609 C 0.63109 0.35234 0.19845 0.0
N7610 N 0.61155 0.34321 0.21104 0.0
N7611 N 0.64126 0.36439 0.2029 0.0
H7612 H 0.63466 0.34495 0.1867 0.0
H7613 H 0.6409 0.35476 0.18826 0.0
H7614 H 0.64302 0.36998 0.20679 0.0
H7615 H 0.64647 0.36214 0.19876 0.0
H7616 H 0.60793 0.34397 0.21701 0.0
H7617 H 0.61035 0.33708 0.2078 0.0
H7618 H 0.60698 0.35762 0.21997 0.0
H7619 H 0.61418 0.36653 0.22257 0.0
C7620 C 0.90694 0.36812 0.45856 0.0
C7621 C 0.90897 0.37339 0.45083 0.0
C7622 C 0.89584 0.38301 0.45392 0.0
C7623 C 0.89313 0.37698 0.46084 0.0
N7624 N 0.89566 0.36342 0.46945 0.0
N7625 N 0.90507 0.38546 0.44063 0.0
C7626 C 0.89861 0.36948 0.46315 0.0
C7627 C 0.9034 0.3808 0.44842 0.0
N7628 N 0.91305 0.3619 0.46155 0.0
N7629 N 0.8912 0.39087 0.45268 0.0
H7630 H 0.91058 0.38412 0.43647 0.0
H7631 H 0.90066 0.39021 0.43794 0.0
H7632 H 0.88561 0.39265 0.45659 0.0
H7633 H 0.89332 0.39599 0.44836 0.0
H7634 H 0.91241 0.35846 0.46764 0.0
H7635 H 0.91919 0.36074 0.45832 0.0
H7636 H 0.89878 0.35725 0.47066 0.0
H7637 H 0.88971 0.3643 0.4731 0.0
C7638 C 0.88847 0.65688 0.70851 0.0
C7639 C 0.88303 0.65905 0.70094 0.0
C7640 C 0.87331 0.64603 0.70415 0.0
C7641 C 0.87947 0.64319 0.7109 0.0
N7642 N 0.89324 0.64546 0.71923 0.0
N7643 N 0.87064 0.65543 0.69103 0.0
C7644 C 0.88709 0.64854 0.71308 0.0
C7645 C 0.87548 0.65361 0.69867 0.0
N7646 N 0.89486 0.66287 0.71139 0.0
N7647 N 0.86535 0.6415 0.70305 0.0
H7648 H 0.87194 0.66098 0.6869 0.0
H7649 H 0.86575 0.65113 0.68841 0.0
H7650 H 0.86361 0.63589 0.70693 0.0
H7651 H 0.86016 0.64372 0.69887 0.0
H7652 H 0.89845 0.66213 0.71738 0.0
H7653 H 0.89605 0.66901 0.70817 0.0
H7654 H 0.89948 0.64848 0.72033 0.0
H7655 H 0.89234 0.63951 0.72287 0.0
C7656 C 0.60294 0.38127 0.55859 0.0
C7657 C 0.59735 0.37384 0.55627 0.0
C7658 C 0.60756 0.36991 0.54383 0.0
C7659 C 0.61307 0.37742 0.54607 0.0
N7660 N 0.61509 0.39133 0.55418 0.0
N7661 N 0.59316 0.36231 0.54563 0.0
C7662 C 0.61043 0.38346 0.553 0.0
C7663 C 0.59929 0.36856 0.54853 0.0
N7664 N 0.60135 0.38595 0.56638 0.0
N7665 N 0.61045 0.36385 0.5375 0.0
H7666 H 0.58706 0.36115 0.54895 0.0
H7667 H 0.59373 0.35885 0.53954 0.0
H7668 H 0.61635 0.36473 0.53377 0.0
H7669 H 0.60731 0.35768 0.53633 0.0
H7670 H 0.60577 0.39072 0.56901 0.0
H7671 H 0.59587 0.38463 0.5706 0.0
H7672 H 0.61302 0.39646 0.55851 0.0
H7673 H 0.62064 0.3931 0.55021 0.0
C7674 C 0.89018 0.35029 0.79968 0.0
C7675 C 0.88352 0.34697 0.80571 0.0
C7676 C 0.87332 0.35932 0.8015 0.0
C7677 C 0.88001 0.36268 0.79552 0.0
N7678 N 0.894 0.36066 0.78755 0.0
N7679 N 0.86823 0.34712 0.81119 0.0
C7680 C 0.88818 0.3579 0.79416 0.0
C7681 C 0.8749 0.3511 0.80622 0.0
N7682 N 0.89853 0.34636 0.79949 0.0
N7683 N 0.86563 0.3642 0.80293 0.0
H7684 H 0.86923 0.34122 0.81489 0.0
H7685 H 0.86154 0.34924 0.81114 0.0
H7686 H 0.86408 0.37004 0.79931 0.0
H7687 H 0.86097 0.36278 0.80798 0.0
H7688 H 0.90405 0.34905 0.79609 0.0
H7689 H 0.9001 0.34056 0.80315 0.0
H7690 H 0.89968 0.35703 0.78557 0.0
H7691 H 0.89278 0.36628 0.7835 0.0
C7692 C 0.90638 0.63944 0.04939 0.0
C7693 C 0.90948 0.63297 0.05573 0.0
C7694 C 0.89693 0.62289 0.05178 0.0
C7695 C 0.89378 0.6294 0.04551 0.0
N7696 N 0.89618 0.64304 0.03704 0.0
N7697 N 0.90888 0.61794 0.06186 0.0
C7698 C 0.89876 0.63741 0.04388 0.0
C7699 C 0.90513 0.62448 0.05655 0.0
N7700 N 0.91054 0.64766 0.04888 0.0
N7701 N 0.89188 0.61534 0.05342 0.0
H7702 H 0.91475 0.61897 0.06561 0.0
H7703 H 0.90661 0.6113 0.06208 0.0
H7704 H 0.88608 0.61376 0.04975 0.0
H7705 H 0.89313 0.61086 0.05867 0.0
H7706 H 0.90804 0.6531 0.04522 0.0
H7707 H 0.91636 0.64922 0.05251 0.0
H7708 H 0.89996 0.64855 0.03488 0.0
H7709 H 0.89054 0.64183 0.03303 0.0
C7710 C 0.6173 0.65654 0.29808 0.0
C7711 C 0.62275 0.65871 0.30565 0.0
C7712 C 0.63251 0.64573 0.30239 0.0
C7713 C 0.62635 0.64289 0.29563 0.0
N7714 N 0.61256 0.64513 0.28733 0.0
N7715 N 0.63515 0.6551 0.31554 0.0
C7716 C 0.6187 0.64822 0.29348 0.0
C7717 C 0.63031 0.65329 0.3079 0.0
N7718 N 0.61087 0.6625 0.29523 0.0
N7719 N 0.64048 0.64122 0.30347 0.0
H7720 H 0.63383 0.66063 0.31969 0.0
H7721 H 0.64006 0.65081 0.31814 0.0
H7722 H 0.64224 0.63563 0.29957 0.0
H7723 H 0.64566 0.64345 0.30765 0.0
H7724 H 0.60727 0.66177 0.28924 0.0
H7725 H 0.60966 0.66863 0.29848 0.0
H7726 H 0.6063 0.64813 0.28625 0.0
H7727 H 0.61348 0.6392 0.28366 0.0
C7728 C 0.95031 0.60102 0.62515 0.0
C7729 C 0.95089 0.59692 0.63378 0.0
C7730 C 0.96227 0.60805 0.6384 0.0
C7731 C 0.96084 0.61278 0.63021 0.0
N7732 N 0.95339 0.61415 0.61584 0.0
N7733 N 0.95712 0.59646 0.64878 0.0
C7734 C 0.9549 0.60931 0.62354 0.0
C7735 C 0.95687 0.60036 0.64042 0.0
N7736 N 0.94539 0.59695 0.61849 0.0
N7737 N 0.96884 0.61092 0.64421 0.0
H7738 H 0.95355 0.59061 0.65037 0.0
H7739 H 0.96048 0.59922 0.65429 0.0
H7740 H 0.97281 0.6166 0.64297 0.0
H7741 H 0.97088 0.60734 0.64989 0.0
H7742 H 0.9454 0.59905 0.61179 0.0
H7743 H 0.94177 0.59101 0.61951 0.0
H7744 H 0.94835 0.61264 0.61119 0.0
H7745 H 0.95692 0.62004 0.61427 0.0
C7746 C 0.65718 0.70837 0.88779 0.0
C7747 C 0.6592 0.70061 0.88257 0.0
C7748 C 0.64604 0.70363 0.87297 0.0
C7749 C 0.64335 0.7106 0.87895 0.0
N7750 N 0.6459 0.71929 0.89245 0.0
N7751 N 0.65526 0.69033 0.87059 0.0
C7752 C 0.64885 0.71296 0.88643 0.0
C7753 C 0.6536 0.69815 0.87519 0.0
N7754 N 0.6633 0.71141 0.89399 0.0
N7755 N 0.64138 0.70233 0.86512 0.0
H7756 H 0.66078 0.68618 0.87194 0.0
H7757 H 0.65084 0.6876 0.86586 0.0
H7758 H 0.63579 0.70622 0.86332 0.0
H7759 H 0.64349 0.69798 0.86003 0.0
H7760 H 0.66267 0.71752 0.89739 0.0
H7761 H 0.66944 0.70818 0.89516 0.0
H7762 H 0.64904 0.72054 0.89861 0.0
H7763 H 0.63995 0.72293 0.89157 0.0
C7764 C 0.55625 0.40521 0.12522 0.0
C7765 C 0.5557 0.40928 0.13387 0.0
C7766 C 0.54435 0.39811 0.1385 0.0
C7767 C 0.54575 0.39342 0.13028 0.0
N7768 N 0.55313 0.39212 0.11586 0.0
N7769 N 0.54953 0.40967 0.1489 0.0
C7770 C 0.55166 0.39693 0.1236 0.0
C7771 C 0.54975 0.4058 0.14053 0.0
N7772 N 0.56114 0.40931 0.11856 0.0
N7773 N 0.53782 0.39521 0.14433 0.0
H7774 H 0.5531 0.41553 0.1505 0.0
H7775 H 0.5462 0.40689 0.15442 0.0
H7776 H 0.53386 0.38952 0.14309 0.0
H7777 H 0.5358 0.39876 0.15004 0.0
H7778 H 0.5611 0.40725 0.11186 0.0
H7779 H 0.56476 0.41526 0.11959 0.0
H7780 H 0.55815 0.39366 0.11121 0.0
H7781 H 0.54961 0.38624 0.11429 0.0
C7782 C 0.85008 0.29762 0.38781 0.0
C7783 C 0.84811 0.30544 0.38266 0.0
C7784 C 0.86132 0.30248 0.3731 0.0
C7785 C 0.86396 0.29545 0.37903 0.0
N7786 N 0.8613 0.28664 0.39244 0.0
N7787 N 0.85218 0.31585 0.37083 0.0
C7788 C 0.85841 0.29303 0.38645 0.0
C7789 C 0.85377 0.30797 0.37535 0.0
N7790 N 0.84391 0.29453 0.39393 0.0
N7791 N 0.86602 0.30384 0.36529 0.0
H7792 H 0.84668 0.32002 0.3722 0.0
H7793 H 0.85665 0.31862 0.36617 0.0
H7794 H 0.8716 0.29994 0.36348 0.0
H7795 H 0.86395 0.30825 0.36023 0.0
H7796 H 0.8445 0.28839 0.39727 0.0
H7797 H 0.83776 0.29776 0.39509 0.0
H7798 H 0.85812 0.28534 0.39856 0.0
H7799 H 0.86726 0.283 0.39157 0.0
C7800 C 0.95703 0.40947 0.8816 0.0
C7801 C 0.95506 0.41216 0.87264 0.0
C7802 C 0.96316 0.39878 0.86717 0.0
C7803 C 0.96265 0.39501 0.87597 0.0
N7804 N 0.95926 0.39697 0.8918 0.0
N7805 N 0.96268 0.41251 0.85833 0.0
C7806 C 0.95969 0.40043 0.88328 0.0
C7807 C 0.96002 0.40773 0.86573 0.0
N7808 N 0.95811 0.41581 0.88816 0.0
N7809 N 0.96646 0.39378 0.86017 0.0
H7810 H 0.96142 0.41942 0.85777 0.0
H7811 H 0.967 0.40996 0.85341 0.0
H7812 H 0.96924 0.38737 0.86103 0.0
H7813 H 0.96597 0.39581 0.85346 0.0
H7814 H 0.96025 0.41425 0.89468 0.0
H7815 H 0.95841 0.42266 0.88657 0.0
H7816 H 0.95634 0.4005 0.89714 0.0
H7817 H 0.96122 0.3904 0.89336 0.0
C7818 C 0.85297 0.69826 0.13096 0.0
C7819 C 0.84751 0.7006 0.12345 0.0
C7820 C 0.85793 0.71289 0.11957 0.0
C7821 C 0.86329 0.71064 0.12718 0.0
N7822 N 0.86501 0.70261 0.14118 0.0
N7823 N 0.84361 0.71122 0.11179 0.0
C7824 C 0.86049 0.70378 0.13323 0.0
C7825 C 0.84962 0.70828 0.11813 0.0
N7826 N 0.85123 0.69052 0.13566 0.0
N7827 N 0.86098 0.71913 0.1135 0.0
H7828 H 0.83748 0.70797 0.11056 0.0
H7829 H 0.8443 0.71727 0.1083 0.0
H7830 H 0.86692 0.72278 0.11444 0.0
H7831 H 0.85795 0.72028 0.10728 0.0
H7832 H 0.85557 0.68787 0.14051 0.0
H7833 H 0.84574 0.68635 0.13428 0.0
H7834 H 0.86281 0.69835 0.14631 0.0
H7835 H 0.87057 0.70653 0.14301 0.0
C7836 C 0.55856 0.60258 0.38105 0.0
C7837 C 0.55614 0.59704 0.37363 0.0
C7838 C 0.54386 0.60745 0.36973 0.0
C7839 C 0.54617 0.61289 0.37726 0.0
N7840 N 0.55435 0.61476 0.39116 0.0
N7841 N 0.54543 0.59306 0.36207 0.0
C7842 C 0.55309 0.61015 0.38328 0.0
C7843 C 0.54843 0.59912 0.36834 0.0
N7844 N 0.56634 0.60087 0.38571 0.0
N7845 N 0.53757 0.61045 0.36368 0.0
H7846 H 0.54866 0.58692 0.36088 0.0
H7847 H 0.53935 0.59373 0.35862 0.0
H7848 H 0.53394 0.6164 0.36458 0.0
H7849 H 0.53636 0.60736 0.35749 0.0
H7850 H 0.56905 0.60525 0.39048 0.0
H7851 H 0.57047 0.59534 0.38437 0.0
H7852 H 0.55866 0.61261 0.39627 0.0
H7853 H 0.55047 0.62036 0.39295 0.0
C7854 C 0.65765 0.2964 0.61609 0.0
C7855 C 0.6621 0.30143 0.62293 0.0
C7856 C 0.65036 0.29697 0.63364 0.0
C7857 C 0.64493 0.29391 0.62638 0.0
N7858 N 0.64368 0.28991 0.61063 0.0
N7859 N 0.66576 0.29859 0.63849 0.0
C7860 C 0.6487 0.29329 0.61758 0.0
C7861 C 0.65941 0.29959 0.63192 0.0
N7862 N 0.66242 0.29366 0.60871 0.0
N7863 N 0.64692 0.29752 0.64216 0.0
H7864 H 0.67261 0.29823 0.63689 0.0
H7865 H 0.6642 0.29654 0.64504 0.0
H7866 H 0.64034 0.2956 0.64375 0.0
H7867 H 0.65046 0.3005 0.64746 0.0
H7868 H 0.65986 0.28928 0.60385 0.0
H7869 H 0.66933 0.29491 0.60812 0.0
H7870 H 0.64571 0.2903 0.60391 0.0
H7871 H 0.63727 0.28714 0.61154 0.0
C7872 C 0.63883 0.95822 0.60057 0.0
C7873 C 0.63345 0.95062 0.59834 0.0
C7874 C 0.62359 0.95377 0.61128 0.0
C7875 C 0.62968 0.96056 0.61418 0.0
N7876 N 0.64345 0.96895 0.61205 0.0
N7877 N 0.6211 0.94062 0.60187 0.0
C7878 C 0.63735 0.96278 0.6089 0.0
C7879 C 0.62587 0.9483 0.60373 0.0
N7880 N 0.64527 0.96114 0.59465 0.0
N7881 N 0.6156 0.95262 0.61574 0.0
H7882 H 0.62248 0.9365 0.59634 0.0
H7883 H 0.61619 0.93798 0.60613 0.0
H7884 H 0.61377 0.9565 0.62132 0.0
H7885 H 0.61046 0.94842 0.61347 0.0
H7886 H 0.64881 0.96715 0.59542 0.0
H7887 H 0.64653 0.95792 0.58851 0.0
H7888 H 0.64971 0.97007 0.60908 0.0
H7889 H 0.64248 0.97258 0.618 0.0
C7890 C 0.12639 0.55727 0.40315 0.0
C7891 C 0.13399 0.55502 0.40853 0.0
C7892 C 0.13805 0.54295 0.39793 0.0
C7893 C 0.13036 0.5451 0.39265 0.0
N7894 N 0.11618 0.55287 0.39111 0.0
N7895 N 0.14592 0.54463 0.4122 0.0
C7896 C 0.12418 0.5518 0.39557 0.0
C7897 C 0.13946 0.54749 0.40628 0.0
N7898 N 0.12153 0.56488 0.40503 0.0
N7899 N 0.14422 0.53687 0.39476 0.0
H7900 H 0.14713 0.54783 0.41835 0.0
H7901 H 0.14954 0.53867 0.41141 0.0
H7902 H 0.14331 0.53326 0.3888 0.0
H7903 H 0.15049 0.53581 0.39773 0.0
H7904 H 0.11659 0.56749 0.40077 0.0
H7905 H 0.12285 0.569 0.41057 0.0
H7906 H 0.11099 0.557 0.3934 0.0
H7907 H 0.1144 0.54899 0.38551 0.0
C7908 C 0.70744 0.88996 0.65635 0.0
C7909 C 0.70137 0.88333 0.65966 0.0
C7910 C 0.70538 0.87322 0.64717 0.0
C7911 C 0.7114 0.87987 0.64382 0.0
N7912 N 0.7195 0.89379 0.6459 0.0
N7913 N 0.6957 0.86811 0.65938 0.0
C7914 C 0.71287 0.88799 0.64867 0.0
C7915 C 0.70073 0.87476 0.65544 0.0
N7916 N 0.70776 0.89825 0.66039 0.0
N7917 N 0.70386 0.86557 0.64223 0.0
H7918 H 0.69204 0.8691 0.66531 0.0
H7919 H 0.69565 0.86144 0.6572 0.0
H7920 H 0.70743 0.86404 0.63636 0.0
H7921 H 0.69877 0.86095 0.64365 0.0
H7922 H 0.71119 0.90376 0.65773 0.0
H7923 H 0.70418 0.89979 0.66625 0.0
H7924 H 0.72156 0.8994 0.64957 0.0
H7925 H 0.72346 0.89261 0.64021 0.0
C7926 C 0.38114 0.44885 0.90308 0.0
C7927 C 0.37358 0.45112 0.9085 0.0
C7928 C 0.36954 0.46328 0.898 0.0
C7929 C 0.37718 0.4611 0.89266 0.0
N7930 N 0.39129 0.45324 0.89098 0.0
N7931 N 0.36173 0.46157 0.9123 0.0
C7932 C 0.38333 0.45434 0.89551 0.0
C7933 C 0.36814 0.4587 0.90633 0.0
N7934 N 0.38597 0.44121 0.9049 0.0
N7935 N 0.36341 0.46943 0.89491 0.0
H7936 H 0.36052 0.45833 0.91843 0.0
H7937 H 0.35814 0.46756 0.91156 0.0
H7938 H 0.36433 0.47309 0.88897 0.0
H7939 H 0.35716 0.47053 0.89791 0.0
H7940 H 0.39087 0.4386 0.90061 0.0
H7941 H 0.38466 0.43708 0.91045 0.0
H7942 H 0.39648 0.44906 0.89321 0.0
H7943 H 0.39305 0.45713 0.88539 0.0
C7944 C 0.29672 0.61641 0.65767 0.0
C7945 C 0.30192 0.62322 0.66195 0.0
C7946 C 0.2976 0.63381 0.65005 0.0
C7947 C 0.29436 0.62651 0.64478 0.0
N7948 N 0.29007 0.61083 0.64382 0.0
N7949 N 0.29942 0.6389 0.66534 0.0
C7950 C 0.29359 0.61781 0.6487 0.0
C7951 C 0.30025 0.63221 0.65911 0.0
N7952 N 0.29386 0.60918 0.66257 0.0
N7953 N 0.29827 0.64225 0.64645 0.0
H7954 H 0.29906 0.63744 0.67222 0.0
H7955 H 0.29752 0.64546 0.66368 0.0
H7956 H 0.2963 0.64376 0.63986 0.0
H7957 H 0.30139 0.64756 0.64987 0.0
H7958 H 0.28936 0.60437 0.66013 0.0
H7959 H 0.29514 0.60869 0.66949 0.0
H7960 H 0.29034 0.60415 0.64597 0.0
H7961 H 0.28731 0.61167 0.6374 0.0
C7962 C 0.86698 0.04911 0.10089 0.0
C7963 C 0.87355 0.05528 0.09763 0.0
C7964 C 0.88374 0.05122 0.11004 0.0
C7965 C 0.87713 0.04513 0.11336 0.0
N7966 N 0.86329 0.03693 0.11123 0.0
N7967 N 0.88874 0.06105 0.09791 0.0
C7968 C 0.86902 0.04363 0.10851 0.0
C7969 C 0.88213 0.05593 0.10182 0.0
N7970 N 0.85869 0.04875 0.09686 0.0
N7971 N 0.89139 0.05275 0.11497 0.0
H7972 H 0.88771 0.06475 0.09202 0.0
H7973 H 0.89542 0.06112 0.10007 0.0
H7974 H 0.89297 0.04913 0.12079 0.0
H7975 H 0.89597 0.05789 0.11359 0.0
H7976 H 0.85321 0.04524 0.09949 0.0
H7977 H 0.85711 0.05238 0.09104 0.0
H7978 H 0.85767 0.03486 0.10757 0.0
H7979 H 0.86453 0.03292 0.11688 0.0
C7980 C 0.70725 0.13133 0.84698 0.0
C7981 C 0.70519 0.12235 0.84438 0.0
C7982 C 0.71323 0.11697 0.85783 0.0
C7983 C 0.71281 0.12581 0.86151 0.0
N7984 N 0.70956 0.14164 0.85936 0.0
N7985 N 0.71271 0.108 0.84418 0.0
C7986 C 0.70992 0.13308 0.856 0.0
C7987 C 0.71008 0.11546 0.84889 0.0
N7988 N 0.70839 0.13781 0.84057 0.0
N7989 N 0.71645 0.10999 0.86291 0.0
H7990 H 0.71149 0.1074 0.83727 0.0
H7991 H 0.717 0.10308 0.84679 0.0
H7992 H 0.71924 0.11089 0.86931 0.0
H7993 H 0.7159 0.10326 0.86095 0.0
H7994 H 0.71059 0.14432 0.84206 0.0
H7995 H 0.70865 0.13614 0.83372 0.0
H7996 H 0.70669 0.14697 0.85577 0.0
H7997 H 0.71152 0.14326 0.86593 0.0
C7998 C 0.79894 0.88779 0.34926 0.0
C7999 C 0.80672 0.88259 0.34722 0.0
C8000 C 0.80378 0.87301 0.36041 0.0
C8001 C 0.7968 0.87897 0.36311 0.0
N8002 N 0.78806 0.89244 0.36058 0.0
N8003 N 0.81708 0.87068 0.35116 0.0
C8004 C 0.79439 0.88642 0.35761 0.0
C8005 C 0.80924 0.87524 0.35283 0.0
N8006 N 0.79585 0.89395 0.34314 0.0
N8007 N 0.80513 0.86516 0.36507 0.0
H8008 H 0.8212 0.87203 0.34562 0.0
H8009 H 0.81984 0.86598 0.35558 0.0
H8010 H 0.80125 0.86336 0.37067 0.0
H8011 H 0.80949 0.86009 0.36295 0.0
H8012 H 0.78972 0.89732 0.34379 0.0
H8013 H 0.79905 0.89512 0.33698 0.0
H8014 H 0.78678 0.89858 0.35743 0.0
H8015 H 0.78446 0.89158 0.36656 0.0
C8016 C 0.40331 0.3801 0.05832 0.0
C8017 C 0.40899 0.37286 0.05565 0.0
C8018 C 0.39846 0.36897 0.04346 0.0
C8019 C 0.39291 0.37635 0.04599 0.0
N8020 N 0.3909 0.39006 0.05445 0.0
N8021 N 0.41306 0.36161 0.04466 0.0
C8022 C 0.39564 0.38229 0.05298 0.0
C8023 C 0.4069 0.36768 0.04788 0.0
N8024 N 0.40502 0.38461 0.06618 0.0
N8025 N 0.39549 0.36295 0.03714 0.0
H8026 H 0.41928 0.3605 0.04776 0.0
H8027 H 0.41236 0.35827 0.03852 0.0
H8028 H 0.38943 0.36376 0.03364 0.0
H8029 H 0.39869 0.35686 0.03577 0.0
H8030 H 0.40056 0.38922 0.06904 0.0
H8031 H 0.41061 0.38329 0.07023 0.0
H8032 H 0.39303 0.39513 0.05882 0.0
H8033 H 0.38523 0.39183 0.05067 0.0
C8034 C 0.37636 0.65342 0.80767 0.0
C8035 C 0.38364 0.65911 0.80513 0.0
C8036 C 0.38751 0.64881 0.79275 0.0
C8037 C 0.38011 0.64324 0.79516 0.0
N8038 N 0.36636 0.64113 0.80354 0.0
N8039 N 0.39491 0.66335 0.79423 0.0
C8040 C 0.37416 0.64586 0.80218 0.0
C8041 C 0.38882 0.65716 0.79732 0.0
N8042 N 0.37182 0.65501 0.81554 0.0
N8043 N 0.39354 0.64593 0.78639 0.0
H8044 H 0.39604 0.66951 0.79744 0.0
H8045 H 0.39826 0.66276 0.78808 0.0
H8046 H 0.39273 0.63994 0.78278 0.0
H8047 H 0.39965 0.64914 0.7851 0.0
H8048 H 0.36718 0.65052 0.81831 0.0
H8049 H 0.37315 0.66053 0.81969 0.0
H8050 H 0.36129 0.64318 0.80794 0.0
H8051 H 0.36457 0.63554 0.79965 0.0
C8052 C 0.10011 0.6391 0.54758 0.0
C8053 C 0.09809 0.63387 0.55535 0.0
C8054 C 0.11137 0.6244 0.55245 0.0
C8055 C 0.11404 0.63037 0.54546 0.0
N8056 N 0.11141 0.64381 0.53671 0.0
N8057 N 0.10212 0.62201 0.56573 0.0
C8058 C 0.10849 0.63779 0.54305 0.0
C8059 C 0.10376 0.62658 0.55789 0.0
N8060 N 0.09395 0.64522 0.54449 0.0
N8061 N 0.1161 0.61661 0.55382 0.0
H8062 H 0.09656 0.62333 0.56984 0.0
H8063 H 0.10658 0.61736 0.56851 0.0
H8064 H 0.12173 0.61485 0.54997 0.0
H8065 H 0.11402 0.61152 0.55819 0.0
H8066 H 0.09459 0.6486 0.53837 0.0
H8067 H 0.08778 0.64636 0.54768 0.0
H8068 H 0.10822 0.64993 0.53541 0.0
H8069 H 0.1174 0.64298 0.53311 0.0
C8070 C 0.13068 0.34692 0.29886 0.0
C8071 C 0.12168 0.34418 0.30064 0.0
C8072 C 0.11632 0.3576 0.29255 0.0
C8073 C 0.12509 0.3614 0.29323 0.0
N8074 N 0.14087 0.35947 0.29688 0.0
N8075 N 0.10753 0.34383 0.29273 0.0
C8076 C 0.13237 0.35599 0.29629 0.0
C8077 C 0.11486 0.34862 0.29559 0.0
N8078 N 0.13728 0.34061 0.29786 0.0
N8079 N 0.10935 0.36261 0.28919 0.0
H8080 H 0.107 0.3369 0.29389 0.0
H8081 H 0.1027 0.3464 0.28833 0.0
H8082 H 0.11023 0.36905 0.28649 0.0
H8083 H 0.10264 0.36054 0.28954 0.0
H8084 H 0.14383 0.34221 0.29586 0.0
H8085 H 0.13573 0.33376 0.29749 0.0
H8086 H 0.14618 0.35594 0.29987 0.0
H8087 H 0.14244 0.36606 0.29498 0.0
C8088 C 0.40343 0.6266 0.44903 0.0
C8089 C 0.40898 0.63401 0.45148 0.0
C8090 C 0.39845 0.638 0.46364 0.0
C8091 C 0.39301 0.63048 0.46131 0.0
N8092 N 0.39117 0.61655 0.45317 0.0
N8093 N 0.4129 0.64559 0.46217 0.0
C8094 C 0.3958 0.62442 0.45444 0.0
C8095 C 0.40684 0.63934 0.45914 0.0
N8096 N 0.4052 0.62191 0.44128 0.0
N8097 N 0.39541 0.64409 0.46986 0.0
H8098 H 0.41908 0.64675 0.459 0.0
H8099 H 0.41218 0.64907 0.46823 0.0
H8100 H 0.38941 0.64324 0.47343 0.0
H8101 H 0.39852 0.65027 0.47107 0.0
H8102 H 0.40082 0.61715 0.43855 0.0
H8103 H 0.41077 0.62322 0.4372 0.0
H8104 H 0.39335 0.61142 0.4489 0.0
H8105 H 0.38554 0.61478 0.45701 0.0
C8106 C 0.12983 0.65412 0.19888 0.0
C8107 C 0.12242 0.65969 0.20132 0.0
C8108 C 0.11851 0.64929 0.2136 0.0
C8109 C 0.12602 0.64383 0.21127 0.0
N8110 N 0.1399 0.64191 0.20307 0.0
N8111 N 0.11091 0.66372 0.21205 0.0
C8112 C 0.13204 0.64655 0.20435 0.0
C8113 C 0.11715 0.65763 0.20903 0.0
N8114 N 0.13448 0.65582 0.19109 0.0
N8115 N 0.11245 0.64632 0.2199 0.0
H8116 H 0.10973 0.66986 0.20882 0.0
H8117 H 0.10747 0.66306 0.21813 0.0
H8118 H 0.11333 0.64035 0.22352 0.0
H8119 H 0.10628 0.64943 0.22112 0.0
H8120 H 0.13923 0.65142 0.18837 0.0
H8121 H 0.13314 0.66136 0.18696 0.0
H8122 H 0.14501 0.64404 0.19875 0.0
H8123 H 0.14168 0.63631 0.20696 0.0
C8124 C 0.10237 0.37961 0.94889 0.0
C8125 C 0.09676 0.37224 0.95132 0.0
C8126 C 0.10713 0.36829 0.96363 0.0
C8127 C 0.11262 0.37578 0.96132 0.0
N8128 N 0.1146 0.38966 0.95313 0.0
N8129 N 0.09266 0.36075 0.96205 0.0
C8130 C 0.10994 0.3818 0.95439 0.0
C8131 C 0.09879 0.36696 0.95904 0.0
N8132 N 0.10073 0.38425 0.94109 0.0
N8133 N 0.11007 0.36222 0.96992 0.0
H8134 H 0.08651 0.35961 0.95882 0.0
H8135 H 0.0933 0.35731 0.96814 0.0
H8136 H 0.11604 0.36307 0.97355 0.0
H8137 H 0.10693 0.35606 0.97113 0.0
H8138 H 0.10516 0.38897 0.93838 0.0
H8139 H 0.09521 0.38292 0.93692 0.0
H8140 H 0.11249 0.39477 0.94881 0.0
H8141 H 0.12019 0.39142 0.95702 0.0
C8142 C 0.38867 0.34844 0.70826 0.0
C8143 C 0.38356 0.34653 0.70039 0.0
C8144 C 0.37411 0.35981 0.70327 0.0
C8145 C 0.38001 0.3624 0.71035 0.0
N8146 N 0.39331 0.35962 0.71928 0.0
N8147 N 0.37184 0.35067 0.6899 0.0
C8148 C 0.38735 0.35678 0.71283 0.0
C8149 C 0.37632 0.35224 0.69781 0.0
N8150 N 0.39471 0.34222 0.7114 0.0
N8151 N 0.36635 0.36459 0.70184 0.0
H8152 H 0.37318 0.34514 0.68576 0.0
H8153 H 0.36724 0.35517 0.68709 0.0
H8154 H 0.36457 0.37019 0.70571 0.0
H8155 H 0.36131 0.36257 0.69739 0.0
H8156 H 0.39801 0.34279 0.71757 0.0
H8157 H 0.39585 0.33607 0.70818 0.0
H8158 H 0.39939 0.35638 0.72063 0.0
H8159 H 0.39247 0.36559 0.72291 0.0
C8160 C 0.05859 0.4031 0.38097 0.0
C8161 C 0.05611 0.40904 0.37388 0.0
C8162 C 0.04333 0.39925 0.36997 0.0
C8163 C 0.04574 0.39338 0.37714 0.0
N8164 N 0.0543 0.3906 0.39066 0.0
N8165 N 0.04512 0.41394 0.36296 0.0
C8166 C 0.05293 0.39562 0.38304 0.0
C8167 C 0.04813 0.40749 0.36881 0.0
N8168 N 0.06656 0.40436 0.38543 0.0
N8169 N 0.03675 0.39675 0.36401 0.0
H8170 H 0.04851 0.42003 0.36194 0.0
H8171 H 0.03889 0.41364 0.35973 0.0
H8172 H 0.03296 0.39087 0.36474 0.0
H8173 H 0.03544 0.40018 0.35803 0.0
H8174 H 0.06928 0.39969 0.38991 0.0
H8175 H 0.07082 0.40982 0.3842 0.0
H8176 H 0.05885 0.39236 0.3957 0.0
H8177 H 0.05027 0.38507 0.39233 0.0
C8178 C 0.34978 0.29798 0.11816 0.0
C8179 C 0.34777 0.30579 0.12331 0.0
C8180 C 0.36115 0.30308 0.13268 0.0
C8181 C 0.3638 0.29605 0.12676 0.0
N8182 N 0.3611 0.28716 0.11341 0.0
N8183 N 0.35186 0.31634 0.13501 0.0
C8184 C 0.35819 0.29352 0.11942 0.0
C8185 C 0.3535 0.30845 0.13051 0.0
N8186 N 0.34357 0.29477 0.11214 0.0
N8187 N 0.36594 0.30455 0.14043 0.0
H8188 H 0.34628 0.32041 0.13369 0.0
H8189 H 0.35636 0.3192 0.13958 0.0
H8190 H 0.37159 0.30074 0.14219 0.0
H8191 H 0.36387 0.30896 0.14549 0.0
H8192 H 0.34421 0.28861 0.10883 0.0
H8193 H 0.33736 0.2979 0.11105 0.0
H8194 H 0.35785 0.28579 0.10734 0.0
H8195 H 0.36714 0.28363 0.1142 0.0
C8196 C 0.44835 0.60336 0.88026 0.0
C8197 C 0.45089 0.59776 0.87292 0.0
C8198 C 0.46326 0.60811 0.86915 0.0
C8199 C 0.46083 0.61362 0.8766 0.0
N8200 N 0.45241 0.61562 0.89034 0.0
N8201 N 0.46181 0.59365 0.86161 0.0
C8202 C 0.4538 0.61094 0.88252 0.0
C8203 C 0.4587 0.59977 0.86776 0.0
N8204 N 0.44049 0.6017 0.88479 0.0
N8205 N 0.46964 0.61105 0.86317 0.0
H8206 H 0.45859 0.5875 0.86041 0.0
H8207 H 0.46795 0.59428 0.85826 0.0
H8208 H 0.47327 0.61701 0.86406 0.0
H8209 H 0.47095 0.6079 0.85703 0.0
H8210 H 0.43771 0.60612 0.88949 0.0
H8211 H 0.43637 0.59616 0.88342 0.0
H8212 H 0.44801 0.61353 0.89539 0.0
H8213 H 0.45628 0.62122 0.89215 0.0
C8214 C 0.15443 0.69823 0.63009 0.0
C8215 C 0.16009 0.70086 0.62282 0.0
C8216 C 0.14962 0.71311 0.61897 0.0
C8217 C 0.14406 0.71059 0.62635 0.0
N8218 N 0.14205 0.70214 0.64008 0.0
N8219 N 0.16419 0.71186 0.61159 0.0
C8220 C 0.14678 0.70359 0.63229 0.0
C8221 C 0.15803 0.70866 0.61766 0.0
N8222 N 0.15613 0.69037 0.63461 0.0
N8223 N 0.14666 0.71946 0.61298 0.0
H8224 H 0.1704 0.70873 0.61046 0.0
H8225 H 0.16352 0.718 0.60825 0.0
H8226 H 0.14063 0.72299 0.61381 0.0
H8227 H 0.14986 0.72082 0.60688 0.0
H8228 H 0.15168 0.68752 0.63924 0.0
H8229 H 0.16171 0.68631 0.63327 0.0
H8230 H 0.14416 0.69776 0.64514 0.0
H8231 H 0.13639 0.70594 0.64185 0.0
C8232 C 0.04795 0.59891 0.13897 0.0
C8233 C 0.0558 0.59708 0.13381 0.0
C8234 C 0.05276 0.61038 0.12443 0.0
C8235 C 0.04568 0.61287 0.13036 0.0
N8236 N 0.03685 0.60996 0.14371 0.0
N8237 N 0.06618 0.60134 0.12203 0.0
C8238 C 0.04328 0.60721 0.1377 0.0
C8239 C 0.0583 0.60284 0.12657 0.0
N8240 N 0.0449 0.59264 0.14501 0.0
N8241 N 0.05411 0.61522 0.11669 0.0
H8242 H 0.07035 0.59582 0.12331 0.0
H8243 H 0.06893 0.60586 0.11742 0.0
H8244 H 0.05018 0.62079 0.11496 0.0
H8245 H 0.05857 0.61327 0.11162 0.0
H8246 H 0.03874 0.59313 0.14833 0.0
H8247 H 0.0482 0.58652 0.14612 0.0
H8248 H 0.03556 0.60669 0.14979 0.0
H8249 H 0.03315 0.61589 0.14291 0.0
C8250 C 0.15408 0.30829 0.87727 0.0
C8251 C 0.15953 0.30576 0.88473 0.0
C8252 C 0.1489 0.29362 0.8885 0.0
C8253 C 0.14359 0.296 0.8809 0.0
N8254 N 0.14197 0.30425 0.867 0.0
N8255 N 0.16324 0.29499 0.89631 0.0
C8256 C 0.14647 0.30291 0.87494 0.0
C8257 C 0.15728 0.29808 0.88998 0.0
N8258 N 0.15593 0.31607 0.87267 0.0
N8259 N 0.14575 0.28737 0.8945 0.0
H8260 H 0.16941 0.29813 0.89758 0.0
H8261 H 0.16245 0.28892 0.89974 0.0
H8262 H 0.13974 0.28383 0.89355 0.0
H8263 H 0.14876 0.28611 0.90072 0.0
H8264 H 0.15162 0.31885 0.86787 0.0
H8265 H 0.16148 0.32014 0.87409 0.0
H8266 H 0.14424 0.30855 0.86193 0.0
H8267 H 0.13635 0.30044 0.86512 0.0
C8268 C 0.44857 0.40344 0.62635 0.0
C8269 C 0.45117 0.40908 0.63364 0.0
C8270 C 0.46354 0.39873 0.63739 0.0
C8271 C 0.46106 0.39319 0.62999 0.0
N8272 N 0.45254 0.39111 0.61632 0.0
N8273 N 0.46215 0.41324 0.64487 0.0
C8274 C 0.45399 0.39584 0.6241 0.0
C8275 C 0.459 0.40708 0.63876 0.0
N8276 N 0.44069 0.4051 0.62185 0.0
N8277 N 0.46995 0.39581 0.64335 0.0
H8278 H 0.45895 0.41939 0.64606 0.0
H8279 H 0.46832 0.41262 0.64817 0.0
H8280 H 0.47354 0.38983 0.64249 0.0
H8281 H 0.47129 0.399 0.64947 0.0
H8282 H 0.43786 0.40066 0.61721 0.0
H8283 H 0.4366 0.41066 0.62321 0.0
H8284 H 0.4481 0.39318 0.61129 0.0
H8285 H 0.45639 0.3855 0.61451 0.0
C8286 C 0.35278 0.69838 0.37634 0.0
C8287 C 0.34714 0.70097 0.38365 0.0
C8288 C 0.35757 0.71324 0.38749 0.0
C8289 C 0.36312 0.71077 0.38009 0.0
N8290 N 0.36512 0.70237 0.36634 0.0
N8291 N 0.34304 0.7119 0.39494 0.0
C8292 C 0.36041 0.70378 0.37414 0.0
C8293 C 0.34919 0.70875 0.38883 0.0
N8294 N 0.35109 0.69054 0.3718 0.0
N8295 N 0.36053 0.7196 0.39349 0.0
H8296 H 0.33685 0.70874 0.39608 0.0
H8297 H 0.3437 0.71803 0.39829 0.0
H8298 H 0.36653 0.72317 0.39263 0.0
H8299 H 0.35734 0.72094 0.3996 0.0
H8300 H 0.35553 0.68773 0.36714 0.0
H8301 H 0.34551 0.68646 0.37313 0.0
H8302 H 0.36301 0.69799 0.36127 0.0
H8303 H 0.37076 0.70619 0.36456 0.0
C8304 C 0.36795 0.04821 0.40739 0.0
C8305 C 0.37308 0.05604 0.4094 0.0
C8306 C 0.38262 0.05321 0.39616 0.0
C8307 C 0.37672 0.04616 0.39349 0.0
N8308 N 0.36333 0.0373 0.3961 0.0
N8309 N 0.38485 0.06653 0.40538 0.0
C8310 C 0.36931 0.04369 0.39903 0.0
C8311 C 0.38036 0.05864 0.40375 0.0
N8312 N 0.36185 0.04506 0.41355 0.0
N8313 N 0.39042 0.05463 0.39145 0.0
H8314 H 0.38349 0.07064 0.41093 0.0
H8315 H 0.38949 0.06935 0.40093 0.0
H8316 H 0.39224 0.05078 0.38585 0.0
H8317 H 0.39546 0.05905 0.39355 0.0
H8318 H 0.35854 0.0389 0.41293 0.0
H8319 H 0.36068 0.04825 0.41972 0.0
H8320 H 0.35722 0.03596 0.39929 0.0
H8321 H 0.36418 0.03372 0.39011 0.0
C8322 C 0.8803 0.44744 0.60312 0.0
C8323 C 0.87299 0.45003 0.5975 0.0
C8324 C 0.86922 0.46234 0.60793 0.0
C8325 C 0.87666 0.45988 0.61342 0.0
N8326 N 0.89041 0.45146 0.61537 0.0
N8327 N 0.86171 0.46099 0.59343 0.0
C8328 C 0.88258 0.45287 0.61071 0.0
C8329 C 0.86784 0.45784 0.59955 0.0
N8330 N 0.88481 0.43957 0.60145 0.0
N8331 N 0.86323 0.46869 0.6109 0.0
H8332 H 0.86053 0.45782 0.58726 0.0
H8333 H 0.85837 0.46713 0.5941 0.0
H8334 H 0.8641 0.47226 0.61691 0.0
H8335 H 0.85709 0.47002 0.60775 0.0
H8336 H 0.88947 0.43675 0.60588 0.0
H8337 H 0.88342 0.43546 0.59591 0.0
H8338 H 0.89545 0.44706 0.61324 0.0
H8339 H 0.89224 0.4553 0.62097 0.0
C8340 C 0.30824 0.13053 0.35317 0.0
C8341 C 0.30559 0.12329 0.34749 0.0
C8342 C 0.29317 0.1196 0.35781 0.0
C8343 C 0.29571 0.12697 0.36338 0.0
N8344 N 0.3043 0.14058 0.36549 0.0
N8345 N 0.29452 0.11217 0.34328 0.0
C8346 C 0.30281 0.13281 0.36075 0.0
C8347 C 0.29771 0.11822 0.34946 0.0
N8348 N 0.31617 0.13496 0.35155 0.0
N8349 N 0.28672 0.11368 0.36071 0.0
H8350 H 0.29771 0.11099 0.33712 0.0
H8351 H 0.28833 0.10892 0.34388 0.0
H8352 H 0.28312 0.11456 0.36669 0.0
H8353 H 0.28533 0.10759 0.3575 0.0
H8354 H 0.31902 0.13957 0.35602 0.0
H8355 H 0.32028 0.13358 0.34601 0.0
H8356 H 0.30878 0.14558 0.36343 0.0
H8357 H 0.30045 0.14241 0.37109 0.0
C8358 C 0.62662 0.55843 0.10283 0.0
C8359 C 0.63401 0.55588 0.09729 0.0
C8360 C 0.6378 0.54365 0.10781 0.0
C8361 C 0.63027 0.54607 0.11322 0.0
N8362 N 0.61644 0.5544 0.11502 0.0
N8363 N 0.64546 0.54503 0.09339 0.0
C8364 C 0.62433 0.55303 0.11043 0.0
C8365 C 0.63923 0.54814 0.09944 0.0
N8366 N 0.62206 0.56625 0.10107 0.0
N8367 N 0.6438 0.53736 0.11087 0.0
H8368 H 0.64668 0.54819 0.08723 0.0
H8369 H 0.64885 0.53893 0.09412 0.0
H8370 H 0.64288 0.5338 0.11687 0.0
H8371 H 0.64998 0.53607 0.10778 0.0
H8372 H 0.61733 0.56905 0.10545 0.0
H8373 H 0.62346 0.57034 0.09553 0.0
H8374 H 0.61138 0.55874 0.11282 0.0
H8375 H 0.6146 0.55057 0.12063 0.0
C8376 C 0.7014 0.37514 0.35146 0.0
C8377 C 0.70177 0.38382 0.34744 0.0
C8378 C 0.71295 0.38863 0.3587 0.0
C8379 C 0.7117 0.38036 0.36335 0.0
N8380 N 0.70464 0.36578 0.36452 0.0
N8381 N 0.70762 0.39898 0.34716 0.0
C8382 C 0.70597 0.37357 0.35976 0.0
C8383 C 0.70755 0.39059 0.35099 0.0
N8384 N 0.69669 0.36839 0.34728 0.0
N8385 N 0.71934 0.39458 0.36167 0.0
H8386 H 0.70406 0.40052 0.34129 0.0
H8387 H 0.7108 0.40455 0.35 0.0
H8388 H 0.7233 0.39339 0.36737 0.0
H8389 H 0.72125 0.40035 0.35816 0.0
H8390 H 0.69687 0.36168 0.34931 0.0
H8391 H 0.69308 0.36938 0.34132 0.0
H8392 H 0.69974 0.36102 0.36292 0.0
H8393 H 0.70816 0.36426 0.37042 0.0
C8394 C 0.126 0.94755 0.90364 0.0
C8395 C 0.13323 0.95025 0.90931 0.0
C8396 C 0.13687 0.96265 0.89895 0.0
C8397 C 0.12953 0.96006 0.89337 0.0
N8398 N 0.11594 0.95141 0.8913 0.0
N8399 N 0.14427 0.9614 0.91351 0.0
C8400 C 0.12371 0.95294 0.89603 0.0
C8401 C 0.13825 0.95815 0.90732 0.0
N8402 N 0.1216 0.93961 0.90527 0.0
N8403 N 0.14278 0.96911 0.89604 0.0
H8404 H 0.14545 0.95823 0.91969 0.0
H8405 H 0.1475 0.9676 0.91289 0.0
H8406 H 0.14191 0.97266 0.89004 0.0
H8407 H 0.14886 0.97053 0.89926 0.0
H8408 H 0.11702 0.93673 0.9008 0.0
H8409 H 0.123 0.93553 0.91082 0.0
H8410 H 0.11095 0.94693 0.89337 0.0
H8411 H 0.1141 0.95524 0.88568 0.0
C8412 C 0.2986 0.89082 0.15629 0.0
C8413 C 0.30468 0.88417 0.15956 0.0
C8414 C 0.30068 0.87414 0.14699 0.0
C8415 C 0.29466 0.88081 0.14369 0.0
N8416 N 0.28656 0.89471 0.14585 0.0
N8417 N 0.31036 0.86896 0.15917 0.0
C8418 C 0.29318 0.8889 0.14858 0.0
C8419 C 0.30532 0.87563 0.15528 0.0
N8420 N 0.29826 0.89907 0.16039 0.0
N8421 N 0.3022 0.86653 0.14201 0.0
H8422 H 0.31403 0.86991 0.1651 0.0
H8423 H 0.31042 0.86231 0.15694 0.0
H8424 H 0.29863 0.86503 0.13613 0.0
H8425 H 0.30729 0.86189 0.1434 0.0
H8426 H 0.29482 0.9046 0.15778 0.0
H8427 H 0.30182 0.90056 0.16628 0.0
H8428 H 0.28449 0.9003 0.14955 0.0
H8429 H 0.2826 0.89357 0.14014 0.0
C8430 C 0.19838 0.1304 0.65371 0.0
C8431 C 0.20078 0.12314 0.65948 0.0
C8432 C 0.21327 0.11908 0.64938 0.0
C8433 C 0.21096 0.12644 0.64369 0.0
N8434 N 0.20271 0.14021 0.64133 0.0
N8435 N 0.21155 0.11184 0.66397 0.0
C8436 C 0.20396 0.13247 0.64617 0.0
C8437 C 0.20858 0.11789 0.65768 0.0
N8438 N 0.19054 0.13503 0.65518 0.0
N8439 N 0.21963 0.113 0.64664 0.0
H8440 H 0.20825 0.11079 0.67009 0.0
H8441 H 0.21768 0.10844 0.66349 0.0
H8442 H 0.22334 0.11375 0.64071 0.0
H8443 H 0.22084 0.10692 0.64992 0.0
H8444 H 0.18786 0.13966 0.65063 0.0
H8445 H 0.18633 0.13379 0.66067 0.0
H8446 H 0.19833 0.14534 0.64327 0.0
H8447 H 0.20668 0.14189 0.63575 0.0
C8448 C 0.10225 0.19274 0.38248 0.0
C8449 C 0.09832 0.19455 0.39103 0.0
C8450 C 0.10595 0.20922 0.3916 0.0
C8451 C 0.10995 0.20738 0.38309 0.0
N8452 N 0.11021 0.19862 0.36942 0.0
N8453 N 0.09449 0.20525 0.40261 0.0
C8454 C 0.1075 0.19953 0.37819 0.0
C8455 C 0.09953 0.20307 0.3952 0.0
N8456 N 0.10137 0.18438 0.3787 0.0
N8457 N 0.10868 0.21656 0.39646 0.0
H8458 H 0.08974 0.20086 0.40538 0.0
H8459 H 0.0944 0.21166 0.40549 0.0
H8460 H 0.11328 0.22129 0.39401 0.0
H8461 H 0.10684 0.21768 0.40315 0.0
H8462 H 0.10496 0.18228 0.37305 0.0
H8463 H 0.09743 0.17929 0.38155 0.0
H8464 H 0.10799 0.19348 0.36519 0.0
H8465 H 0.11406 0.2035 0.36612 0.0
C8466 C 0.05531 0.85277 0.64738 0.0
C8467 C 0.06166 0.8484 0.64169 0.0
C8468 C 0.05506 0.8558 0.62843 0.0
C8469 C 0.04877 0.86021 0.63414 0.0
N8470 N 0.04146 0.86145 0.64858 0.0
N8471 N 0.06643 0.8441 0.62678 0.0
C8472 C 0.04841 0.85818 0.64347 0.0
C8473 C 0.06114 0.84938 0.63218 0.0
N8474 N 0.05616 0.85214 0.65655 0.0
N8475 N 0.05545 0.85804 0.61949 0.0
H8476 H 0.07095 0.83937 0.62937 0.0
H8477 H 0.06583 0.84384 0.61979 0.0
H8478 H 0.05088 0.86246 0.61647 0.0
H8479 H 0.06055 0.85591 0.61516 0.0
H8480 H 0.05247 0.85602 0.66108 0.0
H8481 H 0.06101 0.84811 0.65968 0.0
H8482 H 0.04027 0.85951 0.65522 0.0
H8483 H 0.03638 0.86553 0.64593 0.0
C8484 C 0.40416 0.81324 0.88242 0.0
C8485 C 0.40792 0.8115 0.89105 0.0
C8486 C 0.40004 0.79697 0.89174 0.0
C8487 C 0.3962 0.79875 0.88315 0.0
N8488 N 0.39624 0.8073 0.86935 0.0
N8489 N 0.41138 0.80094 0.90288 0.0
C8490 C 0.39883 0.80648 0.87816 0.0
C8491 C 0.4065 0.80307 0.89535 0.0
N8492 N 0.40528 0.82151 0.87851 0.0
N8493 N 0.39713 0.78973 0.89666 0.0
H8494 H 0.41615 0.8053 0.90566 0.0
H8495 H 0.41131 0.79458 0.90586 0.0
H8496 H 0.39252 0.78503 0.89419 0.0
H8497 H 0.39885 0.78867 0.90338 0.0
H8498 H 0.40181 0.82359 0.87277 0.0
H8499 H 0.40929 0.82655 0.88132 0.0
H8500 H 0.39861 0.81234 0.86507 0.0
H8501 H 0.39234 0.80244 0.86608 0.0
C8502 C 0.44538 0.15662 0.13262 0.0
C8503 C 0.44494 0.15771 0.14211 0.0
C8504 C 0.45835 0.14816 0.1439 0.0
C8505 C 0.45794 0.14601 0.13459 0.0
N8506 N 0.45108 0.14788 0.11998 0.0
N8507 N 0.45062 0.15427 0.15697 0.0
C8508 C 0.45152 0.15025 0.12889 0.0
C8509 C 0.4514 0.15352 0.1478 0.0
N8510 N 0.43995 0.16174 0.1272 0.0
N8511 N 0.46539 0.14507 0.14899 0.0
H8512 H 0.44575 0.15827 0.16009 0.0
H8513 H 0.45442 0.15051 0.16152 0.0
H8514 H 0.47051 0.14104 0.14633 0.0
H8515 H 0.46661 0.14711 0.15559 0.0
H8516 H 0.44049 0.16191 0.1202 0.0
H8517 H 0.43537 0.16643 0.12977 0.0
H8518 H 0.44591 0.14987 0.11568 0.0
H8519 H 0.45569 0.1435 0.11697 0.0
C8520 C 0.10007 0.80327 0.11077 0.0
C8521 C 0.09872 0.8118 0.11488 0.0
C8522 C 0.10787 0.80704 0.12782 0.0
C8523 C 0.11045 0.79919 0.12299 0.0
N8524 N 0.10941 0.78989 0.10968 0.0
N8525 N 0.10151 0.82209 0.12716 0.0
C8526 C 0.10655 0.79724 0.11446 0.0
C8527 C 0.10255 0.81372 0.12344 0.0
N8528 N 0.09513 0.80098 0.10333 0.0
N8529 N 0.1105 0.80805 0.13659 0.0
H8530 H 0.09752 0.8271 0.12425 0.0
H8531 H 0.10503 0.82428 0.13283 0.0
H8532 H 0.1144 0.80324 0.13995 0.0
H8533 H 0.10817 0.81318 0.14078 0.0
H8534 H 0.09515 0.79455 0.10049 0.0
H8535 H 0.09034 0.80529 0.10049 0.0
H8536 H 0.10765 0.7887 0.10299 0.0
H8537 H 0.11404 0.78524 0.1122 0.0
C8538 C 0.45219 0.85013 0.36103 0.0
C8539 C 0.4441 0.84813 0.36573 0.0
C8540 C 0.44951 0.85671 0.37881 0.0
C8541 C 0.45685 0.8599 0.37356 0.0
N8542 N 0.46522 0.85995 0.35962 0.0
N8543 N 0.43484 0.84943 0.37902 0.0
C8544 C 0.45829 0.85658 0.36469 0.0
C8545 C 0.44276 0.85128 0.37467 0.0
N8546 N 0.454 0.84585 0.35307 0.0
N8547 N 0.44906 0.85888 0.38776 0.0
H8548 H 0.42988 0.84524 0.3763 0.0
H8549 H 0.43294 0.8524 0.38509 0.0
H8550 H 0.45391 0.86288 0.39094 0.0
H8551 H 0.44436 0.85614 0.3922 0.0
H8552 H 0.46014 0.84635 0.3497 0.0
H8553 H 0.44962 0.84114 0.35022 0.0
H8554 H 0.466 0.85866 0.35276 0.0
H8555 H 0.46995 0.8645 0.36214 0.0
C8556 C 0.40426 0.19324 0.62282 0.0
C8557 C 0.40782 0.19497 0.61411 0.0
C8558 C 0.39971 0.20938 0.61348 0.0
C8559 C 0.39608 0.20761 0.62216 0.0
N8560 N 0.3965 0.19914 0.636 0.0
N8561 N 0.41086 0.20549 0.60212 0.0
C8562 C 0.39891 0.19995 0.62714 0.0
C8563 C 0.40618 0.20334 0.60977 0.0
N8564 N 0.40559 0.18502 0.62677 0.0
N8565 N 0.39663 0.21657 0.6086 0.0
H8566 H 0.41563 0.20117 0.59926 0.0
H8567 H 0.41063 0.21181 0.59908 0.0
H8568 H 0.39202 0.22124 0.61115 0.0
H8569 H 0.39818 0.21762 0.60183 0.0
H8570 H 0.40228 0.18292 0.6326 0.0
H8571 H 0.40962 0.18001 0.62391 0.0
H8572 H 0.39902 0.19417 0.64027 0.0
H8573 H 0.39257 0.20395 0.63931 0.0
C8574 C 0.05476 0.15395 0.85937 0.0
C8575 C 0.06128 0.15813 0.86501 0.0
C8576 C 0.05489 0.15055 0.87827 0.0
C8577 C 0.04843 0.14631 0.87261 0.0
N8578 N 0.04082 0.14539 0.8583 0.0
N8579 N 0.06643 0.16209 0.87988 0.0
C8580 C 0.0479 0.14852 0.86332 0.0
C8581 C 0.06096 0.15698 0.8745 0.0
N8582 N 0.05541 0.15478 0.85021 0.0
N8583 N 0.05543 0.14816 0.88716 0.0
H8584 H 0.07096 0.16681 0.87728 0.0
H8585 H 0.066 0.16221 0.88689 0.0
H8586 H 0.05086 0.14375 0.8902 0.0
H8587 H 0.06064 0.15015 0.89142 0.0
H8588 H 0.05158 0.15103 0.84567 0.0
H8589 H 0.06021 0.15884 0.84705 0.0
H8590 H 0.03951 0.14746 0.85172 0.0
H8591 H 0.03577 0.14129 0.86098 0.0
C8592 C 0.38303 0.0989 0.19544 0.0
C8593 C 0.39254 0.09799 0.19496 0.0
C8594 C 0.3942 0.10764 0.20831 0.0
C8595 C 0.38485 0.10962 0.20792 0.0
N8596 N 0.37025 0.10743 0.20114 0.0
N8597 N 0.40735 0.10172 0.20058 0.0
C8598 C 0.3792 0.10523 0.20156 0.0
C8599 C 0.39818 0.10232 0.20138 0.0
N8600 N 0.37769 0.09364 0.19006 0.0
N8601 N 0.39925 0.11087 0.21532 0.0
H8602 H 0.41052 0.09773 0.19573 0.0
H8603 H 0.41184 0.10558 0.20434 0.0
H8604 H 0.39653 0.11488 0.22043 0.0
H8605 H 0.4059 0.10898 0.21652 0.0
H8606 H 0.37069 0.09333 0.19063 0.0
H8607 H 0.38033 0.08899 0.18549 0.0
H8608 H 0.36596 0.10532 0.19599 0.0
H8609 H 0.36717 0.11179 0.20572 0.0
C8610 C 0.15463 0.13387 0.44254 0.0
C8611 C 0.15831 0.14248 0.44452 0.0
C8612 C 0.15041 0.14268 0.45906 0.0
C8613 C 0.1467 0.13408 0.45707 0.0
N8614 N 0.14697 0.12052 0.44815 0.0
N8615 N 0.16164 0.15404 0.45542 0.0
C8616 C 0.1494 0.12935 0.4492 0.0
C8617 C 0.15684 0.14653 0.45306 0.0
N8618 N 0.15571 0.13023 0.43414 0.0
N8619 N 0.14742 0.14739 0.46641 0.0
H8620 H 0.1664 0.15699 0.45115 0.0
H8621 H 0.16153 0.15684 0.46186 0.0
H8622 H 0.1428 0.14476 0.47102 0.0
H8623 H 0.14904 0.15411 0.46763 0.0
H8624 H 0.15229 0.12451 0.43192 0.0
H8625 H 0.15962 0.13325 0.42913 0.0
H8626 H 0.14941 0.11642 0.443 0.0
H8627 H 0.14314 0.11705 0.45293 0.0
C8628 C 0.12375 0.90493 0.69317 0.0
C8629 C 0.11492 0.90829 0.69469 0.0
C8630 C 0.1141 0.90013 0.70906 0.0
C8631 C 0.12287 0.89664 0.70747 0.0
N8632 N 0.13689 0.8973 0.69932 0.0
N8633 N 0.10259 0.91103 0.7049 0.0
C8634 C 0.12798 0.8996 0.69994 0.0
C8635 C 0.11041 0.90654 0.70295 0.0
N8636 N 0.1279 0.90647 0.68508 0.0
N8637 N 0.10912 0.89697 0.71615 0.0
H8638 H 0.09973 0.91573 0.70051 0.0
H8639 H 0.09939 0.91072 0.71114 0.0
H8640 H 0.11167 0.89243 0.72089 0.0
H8641 H 0.10231 0.89839 0.71707 0.0
H8642 H 0.13386 0.90332 0.6831 0.0
H8643 H 0.12511 0.91055 0.68007 0.0
H8644 H 0.14125 0.89989 0.69446 0.0
H8645 H 0.14014 0.89338 0.70418 0.0
C8646 C 0.35018 0.8604 0.95312 0.0
C8647 C 0.34889 0.86452 0.94459 0.0
C8648 C 0.35815 0.87736 0.94938 0.0
C8649 C 0.36065 0.87252 0.95724 0.0
N8650 N 0.35944 0.85924 0.96655 0.0
N8651 N 0.35184 0.87676 0.9343 0.0
C8652 C 0.35667 0.86404 0.95918 0.0
C8653 C 0.35281 0.87304 0.94268 0.0
N8654 N 0.34516 0.853 0.9554 0.0
N8655 N 0.36087 0.88612 0.94837 0.0
H8656 H 0.34784 0.87389 0.92927 0.0
H8657 H 0.35542 0.88239 0.93212 0.0
H8658 H 0.36478 0.88944 0.95319 0.0
H8659 H 0.3586 0.89032 0.94323 0.0
H8660 H 0.34514 0.85016 0.96182 0.0
H8661 H 0.34036 0.8502 0.95107 0.0
H8662 H 0.35761 0.85257 0.96775 0.0
H8663 H 0.36407 0.86173 0.97123 0.0
C8664 C 0.38278 0.90674 0.31121 0.0
C8665 C 0.39228 0.9078 0.31169 0.0
C8666 C 0.3941 0.89815 0.29836 0.0
C8667 C 0.38478 0.89604 0.29873 0.0
N8668 N 0.37014 0.89801 0.30551 0.0
N8669 N 0.40715 0.90428 0.3061 0.0
C8670 C 0.37905 0.90034 0.30509 0.0
C8671 C 0.39799 0.90354 0.30528 0.0
N8672 N 0.37736 0.91193 0.31657 0.0
N8673 N 0.3992 0.89499 0.29136 0.0
H8674 H 0.41026 0.90831 0.31095 0.0
H8675 H 0.41171 0.90047 0.30235 0.0
H8676 H 0.39655 0.89094 0.28625 0.0
H8677 H 0.40583 0.89699 0.29016 0.0
H8678 H 0.37036 0.91213 0.316 0.0
H8679 H 0.37992 0.91663 0.32113 0.0
H8680 H 0.36582 0.90006 0.31066 0.0
H8681 H 0.36713 0.8936 0.30093 0.0
C8682 C 0.35001 0.14535 0.55346 0.0
C8683 C 0.34876 0.1411 0.56193 0.0
C8684 C 0.35793 0.12829 0.55687 0.0
C8685 C 0.36042 0.13326 0.54908 0.0
N8686 N 0.35923 0.14671 0.54001 0.0
N8687 N 0.35169 0.12867 0.57199 0.0
C8688 C 0.35646 0.14179 0.5473 0.0
C8689 C 0.35265 0.13253 0.56368 0.0
N8690 N 0.34501 0.1528 0.55132 0.0
N8691 N 0.36063 0.11952 0.55772 0.0
H8692 H 0.34772 0.13147 0.57708 0.0
H8693 H 0.35526 0.12298 0.57406 0.0
H8694 H 0.3645 0.11626 0.55282 0.0
H8695 H 0.35837 0.11524 0.56281 0.0
H8696 H 0.34496 0.15574 0.54495 0.0
H8697 H 0.34025 0.15554 0.55572 0.0
H8698 H 0.35742 0.15341 0.53894 0.0
H8699 H 0.36384 0.14429 0.53528 0.0
C8700 C 0.12284 0.09938 0.81089 0.0
C8701 C 0.11332 0.09876 0.81169 0.0
C8702 C 0.1115 0.10901 0.79883 0.0
C8703 C 0.12093 0.11065 0.79892 0.0
N8704 N 0.13568 0.10774 0.80508 0.0
N8705 N 0.09846 0.10329 0.80686 0.0
C8706 C 0.12665 0.10584 0.80489 0.0
C8707 C 0.10761 0.10357 0.8057 0.0
N8708 N 0.12819 0.09372 0.81582 0.0
N8709 N 0.10631 0.11266 0.79214 0.0
H8710 H 0.09532 0.09926 0.8117 0.0
H8711 H 0.09398 0.10749 0.80345 0.0
H8712 H 0.10897 0.11675 0.78706 0.0
H8713 H 0.09955 0.11103 0.79113 0.0
H8714 H 0.13514 0.0932 0.81496 0.0
H8715 H 0.12557 0.08896 0.82029 0.0
H8716 H 0.14007 0.10528 0.80997 0.0
H8717 H 0.13873 0.11221 0.80058 0.0
C8718 C 0.1543 0.87345 0.0632 0.0
C8719 C 0.15806 0.86483 0.06142 0.0
C8720 C 0.15015 0.86421 0.0469 0.0
C8721 C 0.14632 0.87279 0.04872 0.0
N8722 N 0.1464 0.88655 0.05734 0.0
N8723 N 0.1615 0.85305 0.05079 0.0
C8724 C 0.14897 0.87774 0.05647 0.0
C8725 C 0.15663 0.86057 0.05297 0.0
N8726 N 0.15543 0.87732 0.0715 0.0
N8727 N 0.14723 0.85932 0.03964 0.0
H8728 H 0.16628 0.85025 0.05513 0.0
H8729 H 0.16142 0.8501 0.04442 0.0
H8730 H 0.1426 0.8618 0.03496 0.0
H8731 H 0.14894 0.8526 0.03856 0.0
H8732 H 0.15197 0.88305 0.07361 0.0
H8733 H 0.15945 0.87448 0.07653 0.0
H8734 H 0.14877 0.8908 0.06239 0.0
H8735 H 0.14249 0.88984 0.0525 0.0
C8736 C 0.20223 0.3956 0.10083 0.0
C8737 C 0.19421 0.39082 0.09878 0.0
C8738 C 0.19976 0.37776 0.10729 0.0
C8739 C 0.20703 0.38307 0.11051 0.0
N8740 N 0.21524 0.39711 0.11066 0.0
N8741 N 0.18509 0.37742 0.1 0.0
C8742 C 0.20837 0.39197 0.10726 0.0
C8743 C 0.19296 0.38185 0.10188 0.0
N8744 N 0.20395 0.40362 0.09661 0.0
N8745 N 0.1994 0.3688 0.10942 0.0
H8746 H 0.18011 0.38011 0.09581 0.0
H8747 H 0.18326 0.37132 0.10293 0.0
H8748 H 0.20428 0.36565 0.11341 0.0
H8749 H 0.19476 0.36432 0.10665 0.0
H8750 H 0.21005 0.40706 0.09713 0.0
H8751 H 0.19953 0.40645 0.09192 0.0
H8752 H 0.21594 0.40398 0.10942 0.0
H8753 H 0.22001 0.3946 0.11518 0.0
C8754 C 0.69204 0.12362 0.90188 0.0
C8755 C 0.69388 0.11528 0.90621 0.0
C8756 C 0.70865 0.11452 0.89879 0.0
C8757 C 0.70684 0.12288 0.89449 0.0
N8758 N 0.69791 0.1364 0.89349 0.0
N8759 N 0.70462 0.10393 0.91061 0.0
C8760 C 0.69887 0.12777 0.89656 0.0
C8761 C 0.70244 0.11112 0.90527 0.0
N8762 N 0.68362 0.12734 0.9025 0.0
N8763 N 0.71605 0.10959 0.89632 0.0
H8764 H 0.70019 0.1013 0.91541 0.0
H8765 H 0.71105 0.10113 0.9109 0.0
H8766 H 0.7208 0.11186 0.89166 0.0
H8767 H 0.71716 0.10298 0.89841 0.0
H8768 H 0.68151 0.13281 0.89864 0.0
H8769 H 0.67852 0.12461 0.90649 0.0
H8770 H 0.69268 0.14066 0.89545 0.0
H8771 H 0.70281 0.13961 0.88957 0.0
C8772 C 0.1331 0.44334 0.15461 0.0
C8773 C 0.14193 0.44482 0.158 0.0
C8774 C 0.14289 0.45912 0.14974 0.0
C8775 C 0.13412 0.45757 0.14622 0.0
N8776 N 0.12003 0.44952 0.14687 0.0
N8777 N 0.15432 0.45495 0.1607 0.0
C8778 C 0.12894 0.4501 0.14921 0.0
C8779 C 0.14651 0.45302 0.1562 0.0
N8780 N 0.12889 0.43528 0.15617 0.0
N8781 N 0.14792 0.46616 0.14654 0.0
H8782 H 0.15713 0.45057 0.16546 0.0
H8783 H 0.15758 0.46115 0.16036 0.0
H8784 H 0.14542 0.47089 0.14198 0.0
H8785 H 0.15474 0.46704 0.14799 0.0
H8786 H 0.12294 0.43333 0.153 0.0
H8787 H 0.13163 0.43028 0.16029 0.0
H8788 H 0.11563 0.44472 0.14948 0.0
H8789 H 0.11684 0.45437 0.14289 0.0
C8790 C 0.80413 0.89614 0.40598 0.0
C8791 C 0.81232 0.8916 0.40792 0.0
C8792 C 0.80712 0.87846 0.39931 0.0
C8793 C 0.79966 0.88358 0.39618 0.0
N8794 N 0.79106 0.89737 0.39621 0.0
N8795 N 0.82188 0.87854 0.40639 0.0
C8796 C 0.79808 0.8924 0.39954 0.0
C8797 C 0.81384 0.88272 0.40469 0.0
N8798 N 0.80216 0.90402 0.41034 0.0
N8799 N 0.80772 0.86952 0.39712 0.0
H8800 H 0.82684 0.88135 0.41051 0.0
H8801 H 0.82387 0.87253 0.40335 0.0
H8802 H 0.8029 0.86626 0.39316 0.0
H8803 H 0.81251 0.86517 0.39983 0.0
H8804 H 0.79595 0.90726 0.4099 0.0
H8805 H 0.8065 0.90691 0.41507 0.0
H8806 H 0.79017 0.90421 0.39753 0.0
H8807 H 0.78636 0.8948 0.39165 0.0
C8808 C 0.87318 0.0633 0.15398 0.0
C8809 C 0.86467 0.0614 0.15793 0.0
C8810 C 0.86427 0.04668 0.1504 0.0
C8811 C 0.87275 0.0486 0.14639 0.0
N8812 N 0.88631 0.05752 0.14605 0.0
N8813 N 0.85321 0.05059 0.16184 0.0
C8814 C 0.87755 0.05652 0.14877 0.0
C8815 C 0.86059 0.05283 0.15679 0.0
N8816 N 0.87686 0.07171 0.15479 0.0
N8817 N 0.8595 0.03925 0.14774 0.0
H8818 H 0.85039 0.05498 0.16657 0.0
H8819 H 0.85041 0.04415 0.16197 0.0
H8820 H 0.86202 0.03451 0.14318 0.0
H8821 H 0.85284 0.03805 0.14959 0.0
H8822 H 0.88248 0.07385 0.15117 0.0
H8823 H 0.87395 0.0768 0.15869 0.0
H8824 H 0.89048 0.06273 0.14825 0.0
H8825 H 0.88966 0.05266 0.14223 0.0
C8826 C 0.31491 0.62369 0.60424 0.0
C8827 C 0.31309 0.61525 0.60009 0.0
C8828 C 0.29843 0.61449 0.60774 0.0
C8829 C 0.30021 0.62296 0.61183 0.0
N8830 N 0.30902 0.63658 0.61246 0.0
N8831 N 0.30243 0.60368 0.59609 0.0
C8832 C 0.3081 0.62788 0.60957 0.0
C8833 C 0.3046 0.61101 0.60125 0.0
N8834 N 0.32327 0.62748 0.60343 0.0
N8835 N 0.29111 0.60954 0.61038 0.0
H8836 H 0.30682 0.60099 0.5913 0.0
H8837 H 0.29603 0.60079 0.59596 0.0
H8838 H 0.28638 0.61188 0.61504 0.0
H8839 H 0.29002 0.60288 0.60845 0.0
H8840 H 0.32538 0.63305 0.60716 0.0
H8841 H 0.32836 0.62473 0.59943 0.0
H8842 H 0.31418 0.64085 0.61034 0.0
H8843 H 0.30415 0.63981 0.61638 0.0
C8844 C 0.13353 0.56324 0.35189 0.0
C8845 C 0.1421 0.56157 0.34798 0.0
C8846 C 0.14289 0.5469 0.35558 0.0
C8847 C 0.13435 0.54861 0.35957 0.0
N8848 N 0.12056 0.55715 0.35985 0.0
N8849 N 0.15386 0.55106 0.34414 0.0
C8850 C 0.12934 0.55638 0.35714 0.0
C8851 C 0.14641 0.55311 0.34917 0.0
N8852 N 0.12961 0.57154 0.351 0.0
N8853 N 0.14785 0.53962 0.35828 0.0
H8854 H 0.15657 0.55551 0.33941 0.0
H8855 H 0.15684 0.5447 0.34404 0.0
H8856 H 0.14547 0.53484 0.36286 0.0
H8857 H 0.15456 0.5386 0.35645 0.0
H8858 H 0.12392 0.57355 0.35458 0.0
H8859 H 0.13238 0.57666 0.34706 0.0
H8860 H 0.11624 0.56223 0.35764 0.0
H8861 H 0.11733 0.55222 0.3637 0.0
C8862 C 0.3743 0.44535 0.84898 0.0
C8863 C 0.36479 0.44484 0.84805 0.0
C8864 C 0.36306 0.45819 0.85769 0.0
C8865 C 0.37241 0.45784 0.85968 0.0
N8866 N 0.38705 0.45113 0.85751 0.0
N8867 N 0.34995 0.45042 0.85173 0.0
C8868 C 0.3781 0.4515 0.85531 0.0
C8869 C 0.35912 0.45125 0.85236 0.0
N8870 N 0.37967 0.43998 0.84374 0.0
N8871 N 0.35798 0.46518 0.86091 0.0
H8872 H 0.34681 0.44556 0.84773 0.0
H8873 H 0.34543 0.45416 0.85558 0.0
H8874 H 0.36066 0.47029 0.86493 0.0
H8875 H 0.35132 0.46635 0.859 0.0
H8876 H 0.38666 0.44057 0.84345 0.0
H8877 H 0.37705 0.4354 0.83909 0.0
H8878 H 0.39136 0.446 0.85542 0.0
H8879 H 0.39009 0.45574 0.86186 0.0
C8880 C 0.90627 0.8035 0.60947 0.0
C8881 C 0.90815 0.81169 0.61403 0.0
C8882 C 0.8993 0.80651 0.62703 0.0
C8883 C 0.89626 0.79905 0.62187 0.0
N8884 N 0.89649 0.79046 0.60806 0.0
N8885 N 0.9064 0.82126 0.62705 0.0
C8886 C 0.89975 0.79746 0.6131 0.0
C8887 C 0.90476 0.81322 0.62286 0.0
N8888 N 0.91076 0.80152 0.60166 0.0
N8889 N 0.89697 0.80713 0.63593 0.0
H8890 H 0.91058 0.82621 0.62431 0.0
H8891 H 0.90325 0.82327 0.633 0.0
H8892 H 0.89295 0.80232 0.63914 0.0
H8893 H 0.89961 0.81193 0.64032 0.0
H8894 H 0.91037 0.79531 0.59842 0.0
H8895 H 0.91555 0.80585 0.59884 0.0
H8896 H 0.89793 0.78957 0.60125 0.0
H8897 H 0.89186 0.78578 0.61056 0.0
C8898 C 0.94337 0.15421 0.37274 0.0
C8899 C 0.94522 0.15814 0.36421 0.0
C8900 C 0.95982 0.15037 0.3636 0.0
C8901 C 0.95794 0.14637 0.37209 0.0
N8902 N 0.94917 0.14612 0.38575 0.0
N8903 N 0.95595 0.1619 0.35262 0.0
C8904 C 0.95011 0.14886 0.377 0.0
C8905 C 0.95372 0.15687 0.36002 0.0
N8906 N 0.93503 0.15519 0.37654 0.0
N8907 N 0.96714 0.14761 0.35873 0.0
H8908 H 0.95159 0.16669 0.34986 0.0
H8909 H 0.96235 0.16194 0.34973 0.0
H8910 H 0.97183 0.14296 0.36116 0.0
H8911 H 0.96829 0.14946 0.35205 0.0
H8912 H 0.93288 0.15161 0.38218 0.0
H8913 H 0.93 0.15923 0.37372 0.0
H8914 H 0.94405 0.14837 0.39 0.0
H8915 H 0.95401 0.14219 0.38903 0.0
C8916 C 0.60305 0.19291 0.12243 0.0
C8917 C 0.5988 0.19493 0.11409 0.0
C8918 C 0.60658 0.20952 0.1135 0.0
C8919 C 0.61086 0.20749 0.12182 0.0
N8920 N 0.61153 0.19847 0.1353 0.0
N8921 N 0.59464 0.20589 0.10287 0.0
C8922 C 0.60852 0.19957 0.12665 0.0
C8923 C 0.59994 0.20351 0.11004 0.0
N8924 N 0.60225 0.18448 0.12607 0.0
N8925 N 0.6092 0.21693 0.10867 0.0
H8926 H 0.58973 0.2016 0.10022 0.0
H8927 H 0.59452 0.21235 0.10012 0.0
H8928 H 0.61395 0.22155 0.11102 0.0
H8929 H 0.60712 0.21819 0.10208 0.0
H8930 H 0.60606 0.18224 0.13153 0.0
H8931 H 0.59817 0.17947 0.12328 0.0
H8932 H 0.6094 0.19327 0.13951 0.0
H8933 H 0.61555 0.20325 0.13855 0.0
C8934 C 0.56321 0.85188 0.87241 0.0
C8935 C 0.56133 0.84797 0.86388 0.0
C8936 C 0.54677 0.85582 0.86332 0.0
C8937 C 0.54867 0.85976 0.87184 0.0
N8938 N 0.55745 0.85989 0.88549 0.0
N8939 N 0.55056 0.84431 0.8523 0.0
C8940 C 0.55649 0.85721 0.87672 0.0
C8941 C 0.55282 0.8493 0.85971 0.0
N8942 N 0.57157 0.85089 0.87617 0.0
N8943 N 0.53947 0.85867 0.85846 0.0
H8944 H 0.55487 0.83949 0.84952 0.0
H8945 H 0.54415 0.84432 0.84942 0.0
H8946 H 0.53482 0.86334 0.86091 0.0
H8947 H 0.53832 0.85686 0.85177 0.0
H8948 H 0.57373 0.85446 0.88182 0.0
H8949 H 0.57661 0.8469 0.87331 0.0
H8950 H 0.56257 0.85758 0.88971 0.0
H8951 H 0.55263 0.8638 0.88881 0.0
C8952 C 0.90398 0.19324 0.88392 0.0
C8953 C 0.90795 0.19522 0.8924 0.0
C8954 C 0.89997 0.20971 0.89292 0.0
C8955 C 0.89595 0.20769 0.88446 0.0
N8956 N 0.89576 0.1988 0.87089 0.0
N8957 N 0.91163 0.20612 0.90385 0.0
C8958 C 0.89853 0.19986 0.87962 0.0
C8959 C 0.90658 0.20375 0.89651 0.0
N8960 N 0.90504 0.18487 0.88021 0.0
N8961 N 0.89711 0.21703 0.89775 0.0
H8962 H 0.91652 0.20187 0.90662 0.0
H8963 H 0.91159 0.21255 0.90667 0.0
H8964 H 0.89237 0.22161 0.89531 0.0
H8965 H 0.89898 0.21825 0.9044 0.0
H8966 H 0.90144 0.18262 0.87461 0.0
H8967 H 0.90913 0.17991 0.88306 0.0
H8968 H 0.89807 0.19367 0.86668 0.0
H8969 H 0.89176 0.20355 0.86758 0.0
C8970 C 0.55986 0.15713 0.63394 0.0
C8971 C 0.56054 0.15789 0.64345 0.0
C8972 C 0.54765 0.14765 0.64525 0.0
C8973 C 0.54786 0.14589 0.63585 0.0
N8974 N 0.55424 0.14858 0.62115 0.0
N8975 N 0.55551 0.15356 0.65831 0.0
C8976 C 0.55392 0.15061 0.63014 0.0
C8977 C 0.55447 0.15316 0.64916 0.0
N8978 N 0.56486 0.16272 0.62857 0.0
N8979 N 0.54089 0.14407 0.6504 0.0
H8980 H 0.56031 0.15764 0.66146 0.0
H8981 H 0.55204 0.14943 0.66281 0.0
H8982 H 0.53586 0.13993 0.64774 0.0
H8983 H 0.5398 0.1458 0.65712 0.0
H8984 H 0.56408 0.16314 0.6216 0.0
H8985 H 0.56928 0.16754 0.63118 0.0
H8986 H 0.5592 0.15096 0.61679 0.0
H8987 H 0.54979 0.14405 0.6181 0.0
C8988 C 0.60318 0.80518 0.39867 0.0
C8989 C 0.59873 0.81148 0.39298 0.0
C8990 C 0.6063 0.80509 0.37972 0.0
C8991 C 0.61077 0.79882 0.38542 0.0
N8992 N 0.61207 0.79147 0.39984 0.0
N8993 N 0.59443 0.81628 0.37808 0.0
C8994 C 0.60871 0.7984 0.39475 0.0
C8995 C 0.59976 0.81104 0.38348 0.0
N8996 N 0.60248 0.80598 0.40783 0.0
N8997 N 0.60858 0.80557 0.3708 0.0
H8998 H 0.58962 0.82072 0.38067 0.0
H8999 H 0.59421 0.81571 0.37109 0.0
H9000 H 0.61309 0.8011 0.36777 0.0
H9001 H 0.6064 0.81067 0.36649 0.0
H9002 H 0.60641 0.80233 0.41236 0.0
H9003 H 0.59836 0.81074 0.41097 0.0
H9004 H 0.61012 0.79023 0.40647 0.0
H9005 H 0.61624 0.78647 0.39718 0.0
C9006 C 0.94362 0.85175 0.13413 0.0
C9007 C 0.94544 0.8479 0.1427 0.0
C9008 C 0.95998 0.85579 0.14332 0.0
C9009 C 0.95814 0.85967 0.13477 0.0
N9010 N 0.94945 0.8597 0.12105 0.0
N9011 N 0.95612 0.84435 0.1544 0.0
C9012 C 0.95035 0.85708 0.12984 0.0
C9013 C 0.95391 0.84929 0.14693 0.0
N9014 N 0.93529 0.85072 0.13031 0.0
N9015 N 0.96725 0.85867 0.14821 0.0
H9016 H 0.95179 0.83954 0.15718 0.0
H9017 H 0.96251 0.84439 0.15732 0.0
H9018 H 0.97192 0.86332 0.14576 0.0
H9019 H 0.96835 0.85691 0.15492 0.0
H9020 H 0.93316 0.85425 0.12463 0.0
H9021 H 0.93024 0.84673 0.13315 0.0
H9022 H 0.94437 0.85736 0.1168 0.0
H9023 H 0.95429 0.86361 0.11774 0.0
C9024 C 0.62302 0.90447 0.81345 0.0
C9025 C 0.61444 0.90829 0.81158 0.0
C9026 C 0.61386 0.90031 0.79709 0.0
C9027 C 0.62241 0.89643 0.79899 0.0
N9028 N 0.63611 0.89646 0.80771 0.0
N9029 N 0.60276 0.91176 0.80085 0.0
C9030 C 0.62732 0.89909 0.80677 0.0
C9031 C 0.61023 0.90685 0.80311 0.0
N9032 N 0.62683 0.9056 0.82177 0.0
N9033 N 0.609 0.89739 0.78982 0.0
H9034 H 0.59997 0.91659 0.80514 0.0
H9035 H 0.59985 0.91167 0.79446 0.0
H9036 H 0.61148 0.89271 0.78519 0.0
H9037 H 0.6023 0.89914 0.78868 0.0
H9038 H 0.63252 0.90211 0.82393 0.0
H9039 H 0.62398 0.90966 0.82676 0.0
H9040 H 0.64035 0.89883 0.81278 0.0
H9041 H 0.63942 0.8925 0.80292 0.0
C9042 C 0.84987 0.85993 0.55249 0.0
C9043 C 0.84849 0.86412 0.56098 0.0
C9044 C 0.85782 0.87691 0.55619 0.0
C9045 C 0.86041 0.87201 0.54839 0.0
N9046 N 0.85932 0.85863 0.53919 0.0
N9047 N 0.8514 0.87641 0.57122 0.0
C9048 C 0.85645 0.86351 0.54647 0.0
C9049 C 0.85242 0.87264 0.56287 0.0
N9050 N 0.84486 0.85254 0.5502 0.0
N9051 N 0.86053 0.88567 0.55716 0.0
H9052 H 0.84736 0.87357 0.57624 0.0
H9053 H 0.85498 0.88204 0.5734 0.0
H9054 H 0.86449 0.88897 0.55236 0.0
H9055 H 0.8582 0.88991 0.56225 0.0
H9056 H 0.84491 0.84966 0.54379 0.0
H9057 H 0.84 0.84978 0.55449 0.0
H9058 H 0.85749 0.85195 0.53804 0.0
H9059 H 0.86403 0.86106 0.53457 0.0
C9060 C 0.88421 0.10202 0.31228 0.0
C9061 C 0.8928 0.09816 0.31056 0.0
C9062 C 0.89365 0.10614 0.29608 0.0
C9063 C 0.88509 0.11005 0.29783 0.0
N9064 N 0.87125 0.11008 0.30632 0.0
N9065 N 0.90464 0.09465 0.30003 0.0
C9066 C 0.88004 0.10742 0.30552 0.0
C9067 C 0.89716 0.09959 0.30216 0.0
N9068 N 0.88025 0.10092 0.32054 0.0
N9069 N 0.89865 0.10905 0.2889 0.0
H9070 H 0.90735 0.08981 0.30437 0.0
H9071 H 0.90767 0.09473 0.29369 0.0
H9072 H 0.89627 0.11373 0.28422 0.0
H9073 H 0.90537 0.10727 0.28787 0.0
H9074 H 0.87454 0.10444 0.32261 0.0
H9075 H 0.883 0.09686 0.32558 0.0
H9076 H 0.86692 0.10773 0.31132 0.0
H9077 H 0.86803 0.11405 0.30147 0.0
C9078 C 0.65551 0.1327 0.06188 0.0
C9079 C 0.65867 0.14166 0.06068 0.0
C9080 C 0.65007 0.14299 0.04661 0.0
C9081 C 0.64675 0.13411 0.04791 0.0
N9082 N 0.64779 0.11976 0.05541 0.0
N9083 N 0.66085 0.15452 0.05103 0.0
C9084 C 0.65 0.12871 0.05511 0.0
C9085 C 0.65658 0.14652 0.05271 0.0
N9086 N 0.65744 0.1282 0.06969 0.0
N9087 N 0.64664 0.14821 0.03982 0.0
H9088 H 0.6656 0.15728 0.05542 0.0
H9089 H 0.6603 0.15802 0.04496 0.0
H9090 H 0.64204 0.14578 0.03507 0.0
H9091 H 0.64793 0.15507 0.03916 0.0
H9092 H 0.65448 0.1221 0.0715 0.0
H9093 H 0.66171 0.13081 0.07464 0.0
H9094 H 0.65057 0.11522 0.06 0.0
H9095 H 0.64373 0.11669 0.05055 0.0
C9096 C 0.6102 0.09975 0.70347 0.0
C9097 C 0.61452 0.09839 0.69504 0.0
C9098 C 0.62725 0.10771 0.70004 0.0
C9099 C 0.62222 0.11028 0.70777 0.0
N9100 N 0.60872 0.10912 0.71679 0.0
N9101 N 0.62701 0.10124 0.68502 0.0
C9102 C 0.6137 0.10629 0.70956 0.0
C9103 C 0.62309 0.1023 0.69329 0.0
N9104 N 0.60276 0.09474 0.70562 0.0
N9105 N 0.63602 0.11045 0.69921 0.0
H9106 H 0.62427 0.09717 0.67998 0.0
H9107 H 0.63269 0.10481 0.68293 0.0
H9108 H 0.63922 0.11442 0.70406 0.0
H9109 H 0.64034 0.10815 0.69418 0.0
H9110 H 0.59978 0.09477 0.71197 0.0
H9111 H 0.60007 0.08991 0.70127 0.0
H9112 H 0.60203 0.10729 0.71785 0.0
H9113 H 0.6111 0.1138 0.72147 0.0
C9114 C 0.65704 0.87313 0.44588 0.0
C9115 C 0.65801 0.86363 0.44536 0.0
C9116 C 0.64795 0.86182 0.45838 0.0
C9117 C 0.64596 0.87117 0.45803 0.0
N9118 N 0.64828 0.88582 0.45141 0.0
N9119 N 0.65411 0.84876 0.4507 0.0
C9120 C 0.6505 0.87688 0.45183 0.0
C9121 C 0.65348 0.85792 0.45158 0.0
N9122 N 0.66244 0.87853 0.44072 0.0
N9123 N 0.64453 0.8567 0.46525 0.0
H9124 H 0.65823 0.84564 0.44593 0.0
H9125 H 0.65013 0.84423 0.45429 0.0
H9126 H 0.64035 0.85934 0.47026 0.0
H9127 H 0.64642 0.85004 0.46644 0.0
H9128 H 0.66271 0.88552 0.44135 0.0
H9129 H 0.66726 0.87595 0.43628 0.0
H9130 H 0.65052 0.89015 0.44636 0.0
H9131 H 0.64376 0.88884 0.45588 0.0
C9132 C 0.89691 0.90646 0.20343 0.0
C9133 C 0.89255 0.90809 0.19507 0.0
C9134 C 0.87959 0.89908 0.20006 0.0
C9135 C 0.88461 0.89626 0.20771 0.0
N9136 N 0.8982 0.89687 0.21662 0.0
N9137 N 0.87987 0.90581 0.18515 0.0
C9138 C 0.89327 0.89995 0.20946 0.0
C9139 C 0.88385 0.90447 0.19336 0.0
N9140 N 0.90454 0.91118 0.20556 0.0
N9141 N 0.87074 0.89661 0.19927 0.0
H9142 H 0.88268 0.90989 0.18015 0.0
H9143 H 0.87406 0.90246 0.18306 0.0
H9144 H 0.86746 0.89265 0.20409 0.0
H9145 H 0.86644 0.89911 0.19432 0.0
H9146 H 0.90759 0.91097 0.21188 0.0
H9147 H 0.90735 0.91598 0.20125 0.0
H9148 H 0.90496 0.89848 0.21764 0.0
H9149 H 0.89572 0.89222 0.22127 0.0
C9150 C 0.84935 0.14627 0.95421 0.0
C9151 C 0.84812 0.14222 0.94563 0.0
C9152 C 0.8577 0.12954 0.95024 0.0
C9153 C 0.86014 0.13435 0.95814 0.0
N9154 N 0.85871 0.14755 0.96756 0.0
N9155 N 0.85137 0.13019 0.93517 0.0
C9156 C 0.85598 0.14273 0.96019 0.0
C9157 C 0.85226 0.13383 0.9436 0.0
N9158 N 0.84416 0.15349 0.95661 0.0
N9159 N 0.86059 0.12086 0.94913 0.0
H9160 H 0.84731 0.13304 0.93018 0.0
H9161 H 0.8551 0.12469 0.93291 0.0
H9162 H 0.86458 0.11756 0.9539 0.0
H9163 H 0.85839 0.11667 0.94394 0.0
H9164 H 0.8441 0.15625 0.96307 0.0
H9165 H 0.83925 0.15621 0.95235 0.0
H9166 H 0.85673 0.15417 0.96881 0.0
H9167 H 0.86348 0.14517 0.97215 0.0
C9168 C 0.81313 0.62241 0.90448 0.0
C9169 C 0.81125 0.61388 0.90839 0.0
C9170 C 0.7967 0.61331 0.90052 0.0
C9171 C 0.7986 0.62182 0.89658 0.0
N9172 N 0.80737 0.63548 0.89645 0.0
N9173 N 0.80048 0.6023 0.91205 0.0
C9174 C 0.80642 0.62671 0.89913 0.0
C9175 C 0.80275 0.60971 0.90705 0.0
N9176 N 0.82149 0.62618 0.90547 0.0
N9177 N 0.7894 0.60845 0.89768 0.0
H9178 H 0.8048 0.59953 0.91687 0.0
H9179 H 0.79408 0.59942 0.91203 0.0
H9180 H 0.78475 0.6109 0.893 0.0
H9181 H 0.78825 0.60176 0.89949 0.0
H9182 H 0.82365 0.63183 0.90189 0.0
H9183 H 0.82652 0.62333 0.90947 0.0
H9184 H 0.81248 0.63971 0.89877 0.0
H9185 H 0.80255 0.63879 0.89253 0.0
C9186 C 0.30958 0.88359 0.09929 0.0
C9187 C 0.31051 0.89309 0.09865 0.0
C9188 C 0.29775 0.89509 0.10902 0.0
C9189 C 0.29773 0.88567 0.11067 0.0
N9190 N 0.30372 0.87085 0.10775 0.0
N9191 N 0.30593 0.90802 0.10325 0.0
C9192 C 0.3036 0.87987 0.10582 0.0
C9193 C 0.30463 0.89889 0.10352 0.0
N9194 N 0.31437 0.87817 0.09357 0.0
N9195 N 0.29115 0.90037 0.1127 0.0
H9196 H 0.31079 0.91109 0.09919 0.0
H9197 H 0.30262 0.91254 0.10748 0.0
H9198 H 0.28606 0.89778 0.11682 0.0
H9199 H 0.29022 0.90713 0.11106 0.0
H9200 H 0.3134 0.87124 0.09307 0.0
H9201 H 0.31882 0.88073 0.08875 0.0
H9202 H 0.30855 0.86641 0.10526 0.0
H9203 H 0.29926 0.86786 0.1123 0.0
C9204 C 0.8727 0.56284 0.85197 0.0
C9205 C 0.86407 0.56106 0.84821 0.0
C9206 C 0.86336 0.54664 0.85629 0.0
C9207 C 0.87196 0.54845 0.86011 0.0
N9208 N 0.88576 0.557 0.85994 0.0
N9209 N 0.85224 0.55046 0.84489 0.0
C9210 C 0.87695 0.55615 0.85737 0.0
C9211 C 0.85976 0.55266 0.84974 0.0
N9212 N 0.87661 0.57111 0.85076 0.0
N9213 N 0.85843 0.53945 0.8593 0.0
H9214 H 0.84947 0.55476 0.84005 0.0
H9215 H 0.84924 0.54411 0.84504 0.0
H9216 H 0.86087 0.53482 0.86399 0.0
H9217 H 0.8517 0.53839 0.85759 0.0
H9218 H 0.88234 0.57322 0.85421 0.0
H9219 H 0.8738 0.57611 0.84669 0.0
H9220 H 0.89005 0.562 0.8575 0.0
H9221 H 0.88904 0.55219 0.8639 0.0
C9222 C 0.19639 0.12294 0.59952 0.0
C9223 C 0.19557 0.11344 0.59883 0.0
C9224 C 0.20847 0.11154 0.60903 0.0
C9225 C 0.20839 0.12094 0.61075 0.0
N9226 N 0.20224 0.13571 0.60795 0.0
N9227 N 0.20043 0.09854 0.60322 0.0
C9228 C 0.20241 0.1267 0.60599 0.0
C9229 C 0.20159 0.10768 0.60357 0.0
N9230 N 0.19144 0.12834 0.59391 0.0
N9231 N 0.21517 0.10631 0.61264 0.0
H9232 H 0.19559 0.09544 0.59917 0.0
H9233 H 0.20386 0.09403 0.60736 0.0
H9234 H 0.22024 0.10894 0.61675 0.0
H9235 H 0.21617 0.09958 0.61094 0.0
H9236 H 0.1923 0.13529 0.59344 0.0
H9237 H 0.18696 0.12575 0.58914 0.0
H9238 H 0.19734 0.14013 0.60554 0.0
H9239 H 0.20676 0.13873 0.61242 0.0
C9240 C 0.14593 0.95276 0.84963 0.0
C9241 C 0.14184 0.94421 0.84842 0.0
C9242 C 0.12912 0.94894 0.85788 0.0
C9243 C 0.13396 0.95683 0.8603 0.0
N9244 N 0.14721 0.96617 0.8589 0.0
N9245 N 0.12971 0.93385 0.8516 0.0
C9246 C 0.14238 0.9588 0.85618 0.0
C9247 C 0.1334 0.94225 0.85249 0.0
N9248 N 0.15322 0.95508 0.84448 0.0
N9249 N 0.1204 0.9479 0.86073 0.0
H9250 H 0.13254 0.92884 0.84756 0.0
H9251 H 0.12415 0.93164 0.85529 0.0
H9252 H 0.11711 0.95271 0.86467 0.0
H9253 H 0.1162 0.94272 0.85852 0.0
H9254 H 0.15602 0.96152 0.8444 0.0
H9255 H 0.15596 0.95077 0.83963 0.0
H9256 H 0.15385 0.96738 0.85695 0.0
H9257 H 0.14481 0.97081 0.86361 0.0
C9258 C 0.69311 0.38385 0.40396 0.0
C9259 C 0.69499 0.39223 0.40819 0.0
C9260 C 0.7097 0.39292 0.40062 0.0
C9261 C 0.70781 0.38455 0.39637 0.0
N9262 N 0.69891 0.37099 0.39565 0.0
N9263 N 0.70579 0.40358 0.41242 0.0
C9264 C 0.69989 0.37966 0.39861 0.0
C9265 C 0.70356 0.39637 0.40714 0.0
N9266 N 0.6847 0.38014 0.40466 0.0
N9267 N 0.71709 0.39781 0.39806 0.0
H9268 H 0.70141 0.40624 0.41725 0.0
H9269 H 0.71223 0.40639 0.41262 0.0
H9270 H 0.7218 0.39549 0.39339 0.0
H9271 H 0.71825 0.40442 0.40011 0.0
H9272 H 0.68256 0.37464 0.40086 0.0
H9273 H 0.67961 0.38291 0.40865 0.0
H9274 H 0.69371 0.36674 0.39772 0.0
H9275 H 0.70378 0.36775 0.39173 0.0
C9276 C 0.86011 0.45279 0.65672 0.0
C9277 C 0.86455 0.44449 0.65845 0.0
C9278 C 0.87752 0.44954 0.64949 0.0
C9279 C 0.87244 0.4571 0.64657 0.0
N9280 N 0.85879 0.46592 0.64706 0.0
N9281 N 0.87737 0.43471 0.65641 0.0
C9282 C 0.86375 0.45882 0.6502 0.0
C9283 C 0.8733 0.44285 0.65493 0.0
N9284 N 0.85241 0.45487 0.66136 0.0
N9285 N 0.88638 0.4488 0.64705 0.0
H9286 H 0.87459 0.42975 0.66056 0.0
H9287 H 0.88324 0.43264 0.65315 0.0
H9288 H 0.88962 0.45361 0.64305 0.0
H9289 H 0.89073 0.44391 0.6496 0.0
H9290 H 0.84928 0.46115 0.66107 0.0
H9291 H 0.8496 0.45055 0.66615 0.0
H9292 H 0.85201 0.46692 0.64861 0.0
H9293 H 0.86129 0.47059 0.64243 0.0
C9294 C 0.63357 0.56356 0.15434 0.0
C9295 C 0.64209 0.56167 0.15828 0.0
C9296 C 0.6427 0.54714 0.1504 0.0
C9297 C 0.63422 0.54906 0.14638 0.0
N9298 N 0.62057 0.55784 0.14617 0.0
N9299 N 0.65365 0.55091 0.16199 0.0
C9300 C 0.62932 0.55687 0.14893 0.0
C9301 C 0.64627 0.55318 0.15695 0.0
N9302 N 0.62979 0.5719 0.15537 0.0
N9303 N 0.64757 0.53983 0.14758 0.0
H9304 H 0.6564 0.55522 0.16683 0.0
H9305 H 0.65653 0.5445 0.16198 0.0
H9306 H 0.64514 0.53519 0.1429 0.0
H9307 H 0.65424 0.53867 0.14945 0.0
H9308 H 0.62416 0.57407 0.15178 0.0
H9309 H 0.6326 0.5769 0.15943 0.0
H9310 H 0.61632 0.56294 0.14846 0.0
H9311 H 0.6173 0.55304 0.1422 0.0
C9312 C 0.59989 0.70356 0.89581 0.0
C9313 C 0.59853 0.69503 0.89172 0.0
C9314 C 0.60769 0.69975 0.87878 0.0
C9315 C 0.61028 0.70761 0.88358 0.0
N9316 N 0.60927 0.71692 0.89689 0.0
N9317 N 0.60137 0.68469 0.87949 0.0
C9318 C 0.60639 0.70958 0.89211 0.0
C9319 C 0.60238 0.69308 0.88317 0.0
N9320 N 0.59493 0.7059 0.90322 0.0
N9321 N 0.61031 0.69873 0.87 0.0
H9322 H 0.59741 0.67967 0.88241 0.0
H9323 H 0.60491 0.68249 0.87383 0.0
H9324 H 0.6142 0.70352 0.86662 0.0
H9325 H 0.60797 0.69358 0.86583 0.0
H9326 H 0.59496 0.71233 0.90604 0.0
H9327 H 0.59012 0.7016 0.90606 0.0
H9328 H 0.6075 0.71812 0.90358 0.0
H9329 H 0.61393 0.72155 0.89438 0.0
C9330 C 0.5554 0.35261 0.14777 0.0
C9331 C 0.56198 0.34853 0.14212 0.0
C9332 C 0.55563 0.35625 0.12893 0.0
C9333 C 0.54911 0.36037 0.1346 0.0
N9334 N 0.54141 0.36106 0.14888 0.0
N9335 N 0.56724 0.3448 0.12722 0.0
C9336 C 0.54854 0.35805 0.14386 0.0
C9337 C 0.56171 0.34981 0.13264 0.0
N9338 N 0.55601 0.35165 0.15693 0.0
N9339 N 0.55622 0.35877 0.12008 0.0
H9340 H 0.57178 0.34006 0.12978 0.0
H9341 H 0.56684 0.34476 0.12022 0.0
H9342 H 0.55166 0.36321 0.11707 0.0
H9343 H 0.56147 0.35687 0.11582 0.0
H9344 H 0.55213 0.35532 0.16149 0.0
H9345 H 0.56081 0.34757 0.16006 0.0
H9346 H 0.54007 0.35889 0.15542 0.0
H9347 H 0.53635 0.36516 0.14622 0.0
C9348 C 0.90482 0.31302 0.38328 0.0
C9349 C 0.90858 0.31113 0.39188 0.0
C9350 C 0.90084 0.29651 0.39223 0.0
C9351 C 0.89701 0.29844 0.38367 0.0
N9352 N 0.89704 0.30727 0.37005 0.0
N9353 N 0.91214 0.30033 0.40346 0.0
C9354 C 0.89959 0.30629 0.37886 0.0
C9355 C 0.90725 0.3026 0.39598 0.0
N9356 N 0.90582 0.3214 0.37957 0.0
N9357 N 0.89799 0.28915 0.39699 0.0
H9358 H 0.91687 0.30468 0.40634 0.0
H9359 H 0.91213 0.29391 0.4063 0.0
H9360 H 0.89341 0.28447 0.39442 0.0
H9361 H 0.8997 0.28797 0.4037 0.0
H9362 H 0.90234 0.32355 0.37386 0.0
H9363 H 0.90974 0.32645 0.38251 0.0
H9364 H 0.89938 0.31242 0.36589 0.0
H9365 H 0.89322 0.30243 0.36666 0.0
C9366 C 0.94498 0.65638 0.63295 0.0
C9367 C 0.94475 0.65758 0.64244 0.0
C9368 C 0.9582 0.64805 0.64404 0.0
C9369 C 0.95759 0.6458 0.63477 0.0
N9370 N 0.95043 0.64753 0.62029 0.0
N9371 N 0.95079 0.65435 0.6572 0.0
C9372 C 0.95105 0.64998 0.62916 0.0
C9373 C 0.95135 0.65346 0.64804 0.0
N9374 N 0.93943 0.66144 0.6276 0.0
N9375 N 0.96535 0.64499 0.64901 0.0
H9376 H 0.94601 0.65842 0.66038 0.0
H9377 H 0.95469 0.65065 0.66172 0.0
H9378 H 0.97039 0.64091 0.64629 0.0
H9379 H 0.96671 0.64709 0.65557 0.0
H9380 H 0.93981 0.66154 0.6206 0.0
H9381 H 0.9349 0.66614 0.63022 0.0
H9382 H 0.94517 0.64948 0.61607 0.0
H9383 H 0.95499 0.64313 0.61722 0.0
C9384 C 0.60107 0.30389 0.61141 0.0
C9385 C 0.60017 0.31255 0.61538 0.0
C9386 C 0.60991 0.30784 0.62791 0.0
C9387 C 0.61194 0.29976 0.6232 0.0
N9388 N 0.61002 0.29027 0.61011 0.0
N9389 N 0.60406 0.32309 0.62713 0.0
C9390 C 0.60759 0.29777 0.6149 0.0
C9391 C 0.60459 0.31458 0.62363 0.0
N9392 N 0.59565 0.30153 0.60434 0.0
N9393 N 0.61302 0.309 0.63651 0.0
H9394 H 0.6001 0.32817 0.62429 0.0
H9395 H 0.60799 0.32532 0.63251 0.0
H9396 H 0.61694 0.30416 0.63981 0.0
H9397 H 0.61108 0.31433 0.64065 0.0
H9398 H 0.59534 0.29503 0.6017 0.0
H9399 H 0.59082 0.30589 0.60165 0.0
H9400 H 0.60788 0.28902 0.60354 0.0
H9401 H 0.61472 0.28559 0.61243 0.0
C9402 C 0.94423 0.35129 0.87475 0.0
C9403 C 0.94348 0.35028 0.86526 0.0
C9404 C 0.95657 0.36019 0.8631 0.0
C9405 C 0.95655 0.36213 0.87247 0.0
N9406 N 0.95019 0.36002 0.88727 0.0
N9407 N 0.94839 0.35425 0.85025 0.0
C9408 C 0.95038 0.35775 0.87834 0.0
C9409 C 0.94957 0.35479 0.85939 0.0
N9410 N 0.93913 0.34598 0.8803 0.0
N9411 N 0.96336 0.36346 0.85778 0.0
H9412 H 0.94344 0.35025 0.84724 0.0
H9413 H 0.95188 0.35823 0.84564 0.0
H9414 H 0.96854 0.36753 0.86027 0.0
H9415 H 0.96433 0.36154 0.85109 0.0
H9416 H 0.93994 0.34573 0.88727 0.0
H9417 H 0.93454 0.34124 0.87785 0.0
H9418 H 0.9452 0.35788 0.89172 0.0
H9419 H 0.95477 0.36452 0.89016 0.0
C9420 C 0.90424 0.69296 0.12369 0.0
C9421 C 0.90808 0.69472 0.1151 0.0
C9422 C 0.90031 0.70931 0.11445 0.0
C9423 C 0.89639 0.70751 0.12301 0.0
N9424 N 0.8963 0.69887 0.13675 0.0
N9425 N 0.91172 0.70535 0.10338 0.0
C9426 C 0.89895 0.69973 0.12796 0.0
C9427 C 0.90676 0.70319 0.11085 0.0
N9428 N 0.90526 0.68464 0.12755 0.0
N9429 N 0.89749 0.7166 0.10956 0.0
H9430 H 0.91648 0.70097 0.10061 0.0
H9431 H 0.91172 0.71172 0.10044 0.0
H9432 H 0.89288 0.72131 0.11201 0.0
H9433 H 0.89926 0.71768 0.10285 0.0
H9434 H 0.90174 0.68256 0.13325 0.0
H9435 H 0.90924 0.67958 0.12472 0.0
H9436 H 0.89861 0.69379 0.14101 0.0
H9437 H 0.89242 0.70374 0.14003 0.0
C9438 C 0.55517 0.6534 0.35924 0.0
C9439 C 0.56151 0.65787 0.36487 0.0
C9440 C 0.55509 0.65046 0.37821 0.0
C9441 C 0.54882 0.64595 0.37256 0.0
N9442 N 0.54142 0.64456 0.35818 0.0
N9443 N 0.56632 0.66232 0.37971 0.0
C9444 C 0.54837 0.64793 0.36322 0.0
C9445 C 0.56106 0.65694 0.37438 0.0
N9446 N 0.55596 0.65399 0.35006 0.0
N9447 N 0.55557 0.64827 0.38715 0.0
H9448 H 0.57077 0.66709 0.37707 0.0
H9449 H 0.56576 0.6626 0.38671 0.0
H9450 H 0.55108 0.64381 0.39023 0.0
H9451 H 0.56068 0.65048 0.39144 0.0
H9452 H 0.55228 0.65004 0.34558 0.0
H9453 H 0.56074 0.65806 0.34687 0.0
H9454 H 0.54016 0.64645 0.35153 0.0
H9455 H 0.5364 0.64044 0.36089 0.0
C9456 C 0.89758 0.60288 0.70105 0.0
C9457 C 0.89188 0.59842 0.69477 0.0
C9458 C 0.8786 0.60573 0.70141 0.0
C9459 C 0.88431 0.61021 0.70765 0.0
N9460 N 0.89879 0.61162 0.71484 0.0
N9461 N 0.87698 0.59397 0.6901 0.0
C9462 C 0.89367 0.60828 0.70794 0.0
C9463 C 0.88237 0.59932 0.69533 0.0
N9464 N 0.90674 0.60231 0.70013 0.0
N9465 N 0.86964 0.6079 0.70106 0.0
H9466 H 0.87958 0.58925 0.68557 0.0
H9467 H 0.87 0.59366 0.69075 0.0
H9468 H 0.8666 0.61232 0.70562 0.0
H9469 H 0.86529 0.60571 0.69599 0.0
H9470 H 0.91127 0.60626 0.70377 0.0
H9471 H 0.90988 0.59828 0.69529 0.0
H9472 H 0.90547 0.60976 0.71599 0.0
H9473 H 0.89614 0.6157 0.71993 0.0
C9474 C 0.65423 0.63311 0.94248 0.0
C9475 C 0.65803 0.64169 0.94438 0.0
C9476 C 0.65016 0.64214 0.95893 0.0
C9477 C 0.64631 0.63358 0.95701 0.0
N9478 N 0.64635 0.61994 0.94821 0.0
N9479 N 0.66153 0.65331 0.95516 0.0
C9480 C 0.64893 0.62874 0.94918 0.0
C9481 C 0.65663 0.64584 0.95288 0.0
N9482 N 0.65529 0.62937 0.93412 0.0
N9483 N 0.64726 0.64694 0.96624 0.0
H9484 H 0.66632 0.65615 0.95085 0.0
H9485 H 0.66148 0.65618 0.96157 0.0
H9486 H 0.64262 0.64442 0.9709 0.0
H9487 H 0.64898 0.65365 0.96741 0.0
H9488 H 0.6518 0.62367 0.93195 0.0
H9489 H 0.65927 0.63227 0.9291 0.0
H9490 H 0.64871 0.61575 0.94309 0.0
H9491 H 0.64246 0.61658 0.95302 0.0
C9492 C 0.60912 0.4032 0.201 0.0
C9493 C 0.61482 0.40764 0.1947 0.0
C9494 C 0.6281 0.40025 0.20128 0.0
C9495 C 0.62239 0.39579 0.20753 0.0
N9496 N 0.60792 0.39442 0.21478 0.0
N9497 N 0.62972 0.41203 0.18999 0.0
C9498 C 0.61303 0.39776 0.20787 0.0
C9499 C 0.62433 0.4067 0.19524 0.0
N9500 N 0.59996 0.4038 0.20011 0.0
N9501 N 0.63704 0.39805 0.2009 0.0
H9502 H 0.62713 0.41677 0.18548 0.0
H9503 H 0.63671 0.41232 0.19062 0.0
H9504 H 0.64007 0.39361 0.20544 0.0
H9505 H 0.64138 0.40023 0.19583 0.0
H9506 H 0.59543 0.39986 0.20376 0.0
H9507 H 0.59682 0.40785 0.19529 0.0
H9508 H 0.60126 0.39632 0.21595 0.0
H9509 H 0.61057 0.39033 0.21984 0.0
C9510 C 0.85229 0.37275 0.44309 0.0
C9511 C 0.84849 0.36415 0.44493 0.0
C9512 C 0.85626 0.36368 0.45953 0.0
C9513 C 0.86011 0.37224 0.45767 0.0
N9514 N 0.86009 0.38592 0.44892 0.0
N9515 N 0.84492 0.35251 0.45566 0.0
C9516 C 0.85753 0.37711 0.44984 0.0
C9517 C 0.84983 0.35999 0.45343 0.0
N9518 N 0.85129 0.37651 0.43473 0.0
N9519 N 0.85912 0.35885 0.46685 0.0
H9520 H 0.84016 0.34968 0.45131 0.0
H9521 H 0.84493 0.34963 0.46206 0.0
H9522 H 0.86373 0.36136 0.47153 0.0
H9523 H 0.85739 0.35214 0.46798 0.0
H9524 H 0.85479 0.38222 0.43261 0.0
H9525 H 0.84737 0.37361 0.42967 0.0
H9526 H 0.85775 0.39012 0.4438 0.0
H9527 H 0.86393 0.38927 0.45377 0.0
C9528 C 0.88295 0.40622 0.81127 0.0
C9529 C 0.89244 0.40742 0.81145 0.0
C9530 C 0.89398 0.39795 0.79796 0.0
C9531 C 0.88471 0.39569 0.79862 0.0
N9532 N 0.87026 0.39739 0.80584 0.0
N9533 N 0.90717 0.40428 0.80529 0.0
C9534 C 0.87913 0.39984 0.80519 0.0
C9535 C 0.898 0.40335 0.80479 0.0
N9536 N 0.87763 0.41123 0.81689 0.0
N9537 N 0.89891 0.39492 0.79077 0.0
H9538 H 0.91036 0.40835 0.81006 0.0
H9539 H 0.91168 0.40062 0.80134 0.0
H9540 H 0.89617 0.39084 0.78573 0.0
H9541 H 0.90546 0.39703 0.78938 0.0
H9542 H 0.87062 0.41133 0.81656 0.0
H9543 H 0.88028 0.41591 0.82144 0.0
H9544 H 0.86606 0.39931 0.81113 0.0
H9545 H 0.86717 0.39302 0.80128 0.0
C9546 C 0.85036 0.64618 0.05272 0.0
C9547 C 0.84898 0.64201 0.06121 0.0
C9548 C 0.85812 0.62909 0.05637 0.0
C9549 C 0.86072 0.63397 0.04856 0.0
N9550 N 0.85971 0.64732 0.03934 0.0
N9551 N 0.85175 0.62966 0.07143 0.0
C9552 C 0.85684 0.64251 0.04666 0.0
C9553 C 0.8528 0.63343 0.06308 0.0
N9554 N 0.84544 0.65364 0.05047 0.0
N9555 N 0.86074 0.62031 0.05733 0.0
H9556 H 0.84776 0.63254 0.07646 0.0
H9557 H 0.85526 0.62397 0.07359 0.0
H9558 H 0.86464 0.61697 0.05251 0.0
H9559 H 0.85839 0.6161 0.06243 0.0
H9560 H 0.84548 0.65653 0.04407 0.0
H9561 H 0.84065 0.65646 0.05479 0.0
H9562 H 0.85796 0.65402 0.03818 0.0
H9563 H 0.86433 0.64481 0.03467 0.0
C9564 C 0.62365 0.59911 0.31111 0.0
C9565 C 0.61415 0.59811 0.31158 0.0
C9566 C 0.61239 0.60782 0.29829 0.0
C9567 C 0.62172 0.60988 0.29868 0.0
N9568 N 0.63635 0.60777 0.30543 0.0
N9569 N 0.5993 0.60172 0.30598 0.0
C9570 C 0.62742 0.60551 0.30501 0.0
C9571 C 0.60847 0.60242 0.30518 0.0
N9572 N 0.62904 0.59389 0.31646 0.0
N9573 N 0.60731 0.61105 0.2913 0.0
H9574 H 0.59617 0.59767 0.3108 0.0
H9575 H 0.59477 0.60556 0.30224 0.0
H9576 H 0.60998 0.61512 0.28622 0.0
H9577 H 0.60067 0.60909 0.29009 0.0
H9578 H 0.63604 0.59364 0.31589 0.0
H9579 H 0.62644 0.58918 0.321 0.0
H9580 H 0.64067 0.60568 0.31055 0.0
H9581 H 0.63939 0.61217 0.30085 0.0
C9582 C 0.65636 0.36018 0.55287 0.0
C9583 C 0.6578 0.36425 0.5614 0.0
C9584 C 0.64878 0.37729 0.5567 0.0
C9585 C 0.6461 0.37251 0.54886 0.0
N9586 N 0.64692 0.3592 0.53954 0.0
N9587 N 0.65514 0.37652 0.57174 0.0
C9588 C 0.64988 0.36395 0.54687 0.0
C9589 C 0.65406 0.37284 0.56336 0.0
N9590 N 0.66122 0.35271 0.55052 0.0
N9591 N 0.64627 0.3861 0.55773 0.0
H9592 H 0.65909 0.37355 0.57675 0.0
H9593 H 0.65169 0.38222 0.57395 0.0
H9594 H 0.6424 0.38952 0.55294 0.0
H9595 H 0.64868 0.39025 0.56286 0.0
H9596 H 0.66114 0.34989 0.54408 0.0
H9597 H 0.66601 0.34981 0.55479 0.0
H9598 H 0.64861 0.35249 0.53834 0.0
H9599 H 0.64228 0.36177 0.53493 0.0
C9600 C 0.70174 0.89785 0.6034 0.0
C9601 C 0.69544 0.89216 0.59895 0.0
C9602 C 0.70203 0.87888 0.60632 0.0
C9603 C 0.70828 0.88459 0.61079 0.0
N9604 N 0.71555 0.89904 0.61214 0.0
N9605 N 0.69074 0.87727 0.59453 0.0
C9606 C 0.70862 0.89393 0.60882 0.0
C9607 C 0.69598 0.88266 0.59988 0.0
N9608 N 0.70084 0.90701 0.60282 0.0
N9609 N 0.70163 0.86994 0.60853 0.0
H9610 H 0.68624 0.87987 0.58979 0.0
H9611 H 0.69137 0.87029 0.59424 0.0
H9612 H 0.70617 0.86691 0.61297 0.0
H9613 H 0.69655 0.86562 0.60635 0.0
H9614 H 0.7045 0.91153 0.60676 0.0
H9615 H 0.69601 0.91016 0.5988 0.0
H9616 H 0.71672 0.9057 0.61024 0.0
H9617 H 0.72062 0.89637 0.61622 0.0
C9618 C 0.19369 0.62392 0.4052 0.0
C9619 C 0.19509 0.61495 0.40822 0.0
C9620 C 0.20923 0.61409 0.39968 0.0
C9621 C 0.20774 0.62299 0.3965 0.0
N9622 N 0.1999 0.63714 0.39776 0.0
N9623 N 0.20505 0.6023 0.41027 0.0
C9624 C 0.2004 0.62817 0.3998 0.0
C9625 C 0.20318 0.61031 0.40611 0.0
N9626 N 0.18576 0.62821 0.40714 0.0
N9627 N 0.21616 0.60908 0.3962 0.0
H9628 H 0.2007 0.59938 0.41497 0.0
H9629 H 0.2112 0.59897 0.4097 0.0
H9630 H 0.22085 0.61169 0.39165 0.0
H9631 H 0.21697 0.60221 0.39738 0.0
H9632 H 0.18382 0.63431 0.40427 0.0
H9633 H 0.18083 0.62541 0.41132 0.0
H9634 H 0.19521 0.64152 0.40059 0.0
H9635 H 0.20472 0.64039 0.39378 0.0
C9636 C 0.63301 0.94267 0.65508 0.0
C9637 C 0.64164 0.94439 0.65887 0.0
C9638 C 0.6423 0.959 0.65115 0.0
C9639 C 0.63373 0.95723 0.64726 0.0
N9640 N 0.61996 0.94865 0.64718 0.0
N9641 N 0.65344 0.95493 0.66246 0.0
C9642 C 0.62876 0.94947 0.64981 0.0
C9643 C 0.64592 0.95284 0.65755 0.0
N9644 N 0.62911 0.93439 0.65614 0.0
N9645 N 0.64721 0.96629 0.64834 0.0
H9646 H 0.65623 0.95052 0.66718 0.0
H9647 H 0.65642 0.96129 0.66247 0.0
H9648 H 0.64474 0.97104 0.64378 0.0
H9649 H 0.65393 0.96735 0.65008 0.0
H9650 H 0.62337 0.93232 0.65266 0.0
H9651 H 0.63192 0.92932 0.66013 0.0
H9652 H 0.61567 0.94358 0.64948 0.0
H9653 H 0.61669 0.95354 0.64331 0.0
C9654 C 0.30549 0.39763 0.90354 0.0
C9655 C 0.31201 0.39204 0.90779 0.0
C9656 C 0.30564 0.37871 0.90032 0.0
C9657 C 0.29919 0.38432 0.89602 0.0
N9658 N 0.29155 0.3986 0.89499 0.0
N9659 N 0.31716 0.37721 0.91189 0.0
C9660 C 0.29864 0.39362 0.89815 0.0
C9661 C 0.3117 0.38254 0.90672 0.0
N9662 N 0.30614 0.4068 0.90428 0.0
N9663 N 0.30621 0.36981 0.89799 0.0
H9664 H 0.32168 0.37985 0.91661 0.0
H9665 H 0.31672 0.37021 0.91209 0.0
H9666 H 0.30167 0.36672 0.89358 0.0
H9667 H 0.31143 0.36557 0.90003 0.0
H9668 H 0.30231 0.41129 0.90049 0.0
H9669 H 0.31094 0.41 0.90832 0.0
H9670 H 0.29023 0.4052 0.89701 0.0
H9671 H 0.28649 0.39587 0.89093 0.0
C9672 C 0.37381 0.56365 0.65437 0.0
C9673 C 0.3652 0.56175 0.6581 0.0
C9674 C 0.36487 0.54716 0.6503 0.0
C9675 C 0.37345 0.5491 0.6465 0.0
N9676 N 0.38706 0.55794 0.6466 0.0
N9677 N 0.3536 0.55094 0.66158 0.0
C9678 C 0.37825 0.55695 0.64913 0.0
C9679 C 0.3611 0.55322 0.65672 0.0
N9680 N 0.37753 0.57202 0.65544 0.0
N9681 N 0.36012 0.53981 0.64741 0.0
H9682 H 0.3507 0.55527 0.66632 0.0
H9683 H 0.35076 0.54452 0.66154 0.0
H9684 H 0.3627 0.53514 0.64283 0.0
H9685 H 0.3534 0.53863 0.64909 0.0
H9686 H 0.38325 0.57419 0.65199 0.0
H9687 H 0.37457 0.57704 0.65938 0.0
H9688 H 0.39122 0.56308 0.64897 0.0
H9689 H 0.39046 0.55312 0.64276 0.0
C9690 C 0.81448 0.12468 0.10322 0.0
C9691 C 0.81335 0.11577 0.09992 0.0
C9692 C 0.79906 0.11435 0.10815 0.0
C9693 C 0.80022 0.12323 0.11152 0.0
N9694 N 0.80781 0.13756 0.11087 0.0
N9695 N 0.80378 0.10288 0.09744 0.0
C9696 C 0.80755 0.12864 0.10857 0.0
C9697 C 0.80535 0.11086 0.10179 0.0
N9698 N 0.82234 0.12919 0.10155 0.0
N9699 N 0.79219 0.10909 0.11136 0.0
H9700 H 0.80831 0.10013 0.09281 0.0
H9701 H 0.79771 0.09938 0.09781 0.0
H9702 H 0.78731 0.11147 0.11585 0.0
H9703 H 0.7916 0.10222 0.11004 0.0
H9704 H 0.82408 0.13526 0.10462 0.0
H9705 H 0.82741 0.12662 0.09739 0.0
H9706 H 0.81248 0.14211 0.10827 0.0
H9707 H 0.80286 0.14061 0.11483 0.0
C9708 C 0.63293 0.06083 0.84955 0.0
C9709 C 0.64246 0.06126 0.84875 0.0
C9710 C 0.64396 0.04806 0.85862 0.0
C9711 C 0.63459 0.0485 0.86047 0.0
N9712 N 0.62003 0.05528 0.858 0.0
N9713 N 0.6572 0.05564 0.85272 0.0
C9714 C 0.62901 0.05481 0.85593 0.0
C9715 C 0.64802 0.05488 0.85323 0.0
N9716 N 0.62767 0.06615 0.84416 0.0
N9717 N 0.64895 0.04109 0.86202 0.0
H9718 H 0.66044 0.06041 0.84869 0.0
H9719 H 0.66165 0.05193 0.85669 0.0
H9720 H 0.64618 0.03606 0.86608 0.0
H9721 H 0.65562 0.03984 0.86022 0.0
H9722 H 0.62069 0.06561 0.84378 0.0
H9723 H 0.63039 0.07065 0.83947 0.0
H9724 H 0.61578 0.06039 0.85576 0.0
H9725 H 0.61689 0.05075 0.86238 0.0
C9726 C 0.86087 0.95318 0.34959 0.0
C9727 C 0.86506 0.94468 0.34831 0.0
C9728 C 0.87787 0.94958 0.35757 0.0
C9729 C 0.87296 0.95741 0.36006 0.0
N9730 N 0.85958 0.96659 0.35886 0.0
N9731 N 0.87738 0.93448 0.3513 0.0
C9732 C 0.86446 0.95927 0.35608 0.0
C9733 C 0.87359 0.94284 0.35225 0.0
N9734 N 0.85346 0.9554 0.34457 0.0
N9735 N 0.88663 0.94865 0.36028 0.0
H9736 H 0.87454 0.92943 0.34731 0.0
H9737 H 0.88302 0.93235 0.35489 0.0
H9738 H 0.88993 0.9535 0.36418 0.0
H9739 H 0.89087 0.94353 0.35802 0.0
H9740 H 0.85058 0.9618 0.34454 0.0
H9741 H 0.8507 0.95104 0.33977 0.0
H9742 H 0.85289 0.96772 0.35703 0.0
H9743 H 0.86202 0.97127 0.36351 0.0
C9744 C 0.40507 0.31338 0.12283 0.0
C9745 C 0.40878 0.3116 0.11418 0.0
C9746 C 0.40065 0.2972 0.1135 0.0
C9747 C 0.39688 0.29903 0.12211 0.0
N9748 N 0.39711 0.30757 0.13591 0.0
N9749 N 0.412 0.30101 0.10231 0.0
C9750 C 0.39966 0.30671 0.12709 0.0
C9751 C 0.4072 0.30321 0.10987 0.0
N9752 N 0.40635 0.32163 0.12674 0.0
N9753 N 0.39762 0.29001 0.10859 0.0
H9754 H 0.41683 0.30531 0.09951 0.0
H9755 H 0.41181 0.29467 0.0993 0.0
H9756 H 0.39295 0.28537 0.11107 0.0
H9757 H 0.39929 0.28892 0.10186 0.0
H9758 H 0.40294 0.32376 0.1325 0.0
H9759 H 0.41044 0.32661 0.12393 0.0
H9760 H 0.39958 0.31256 0.1402 0.0
H9761 H 0.39313 0.30278 0.1392 0.0
C9762 C 0.44332 0.65446 0.87242 0.0
C9763 C 0.44529 0.65848 0.86396 0.0
C9764 C 0.45991 0.65074 0.86352 0.0
C9765 C 0.45792 0.64668 0.87196 0.0
N9766 N 0.44896 0.64637 0.8855 0.0
N9767 N 0.45622 0.66239 0.85261 0.0
C9768 C 0.45001 0.64913 0.87676 0.0
C9769 C 0.45387 0.65727 0.85991 0.0
N9770 N 0.43489 0.65533 0.87607 0.0
N9771 N 0.4673 0.648 0.85872 0.0
H9772 H 0.45191 0.66721 0.84983 0.0
H9773 H 0.46268 0.66246 0.84984 0.0
H9774 H 0.47194 0.64331 0.86116 0.0
H9775 H 0.46852 0.64991 0.85207 0.0
H9776 H 0.43268 0.65167 0.88164 0.0
H9777 H 0.42986 0.65931 0.87318 0.0
H9778 H 0.44377 0.6486 0.88967 0.0
H9779 H 0.45377 0.64248 0.88884 0.0
C9780 C 0.09976 0.69556 0.62337 0.0
C9781 C 0.09901 0.69485 0.61385 0.0
C9782 C 0.10928 0.7077 0.61202 0.0
C9783 C 0.11104 0.70753 0.62142 0.0
N9784 N 0.10833 0.70122 0.63614 0.0
N9785 N 0.10341 0.69978 0.59898 0.0
C9786 C 0.1063 0.70151 0.62715 0.0
C9787 C 0.10377 0.70088 0.60813 0.0
N9788 N 0.09415 0.69061 0.62875 0.0
N9789 N 0.11287 0.71444 0.60684 0.0
H9790 H 0.09934 0.69497 0.59584 0.0
H9791 H 0.10756 0.70322 0.59448 0.0
H9792 H 0.11701 0.71948 0.60948 0.0
H9793 H 0.11114 0.71551 0.60012 0.0
H9794 H 0.09373 0.69141 0.63571 0.0
H9795 H 0.08933 0.68619 0.62615 0.0
H9796 H 0.10592 0.69628 0.64051 0.0
H9797 H 0.11286 0.70567 0.63917 0.0
C9798 C 0.05434 0.35367 0.35733 0.0
C9799 C 0.06032 0.34865 0.36288 0.0
C9800 C 0.05372 0.35552 0.37643 0.0
C9801 C 0.04778 0.36056 0.37086 0.0
N9802 N 0.04091 0.36301 0.35636 0.0
N9803 N 0.06448 0.3432 0.37759 0.0
C9804 C 0.04759 0.35913 0.36141 0.0
C9805 C 0.05959 0.34906 0.37242 0.0
N9806 N 0.05541 0.35357 0.34817 0.0
N9807 N 0.054 0.3572 0.38549 0.0
H9808 H 0.06886 0.33844 0.37482 0.0
H9809 H 0.06367 0.34253 0.38454 0.0
H9810 H 0.04959 0.36166 0.38868 0.0
H9811 H 0.05889 0.35457 0.38979 0.0
H9812 H 0.05202 0.35791 0.34381 0.0
H9813 H 0.06015 0.34952 0.3449 0.0
H9814 H 0.03983 0.36155 0.34958 0.0
H9815 H 0.03593 0.36713 0.35915 0.0
C9816 C 0.40698 0.69534 0.38327 0.0
C9817 C 0.40799 0.69499 0.39278 0.0
C9818 C 0.39816 0.70821 0.39438 0.0
C9819 C 0.39612 0.7077 0.38505 0.0
N9820 N 0.39827 0.70078 0.37051 0.0
N9821 N 0.40429 0.70071 0.40756 0.0
C9822 C 0.40053 0.70133 0.37943 0.0
C9823 C 0.40361 0.70141 0.39838 0.0
N9824 N 0.41227 0.68997 0.37795 0.0
N9825 N 0.39488 0.71523 0.39938 0.0
H9826 H 0.40835 0.69594 0.41076 0.0
H9827 H 0.4004 0.70446 0.41204 0.0
H9828 H 0.39076 0.72025 0.39666 0.0
H9829 H 0.39683 0.71653 0.406 0.0
H9830 H 0.4125 0.69046 0.37095 0.0
H9831 H 0.41702 0.6855 0.3806 0.0
H9832 H 0.4004 0.69561 0.36626 0.0
H9833 H 0.39382 0.70528 0.36742 0.0
C9834 C 0.0547 0.65324 0.14897 0.0
C9835 C 0.06082 0.65788 0.14325 0.0
C9836 C 0.05423 0.65051 0.12998 0.0
C9837 C 0.04814 0.64585 0.13571 0.0
N9838 N 0.04111 0.64418 0.15024 0.0
N9839 N 0.06524 0.66256 0.12835 0.0
C9840 C 0.04789 0.64771 0.14508 0.0
C9841 C 0.06018 0.65704 0.13374 0.0
N9842 N 0.05569 0.65374 0.15813 0.0
N9843 N 0.05456 0.64842 0.121 0.0
H9844 H 0.06967 0.66737 0.13095 0.0
H9845 H 0.06451 0.66291 0.12138 0.0
H9846 H 0.05008 0.64391 0.11797 0.0
H9847 H 0.05954 0.65075 0.11663 0.0
H9848 H 0.05218 0.64967 0.16265 0.0
H9849 H 0.06047 0.65784 0.16126 0.0
H9850 H 0.03998 0.64597 0.15694 0.0
H9851 H 0.03609 0.64001 0.1476 0.0
C9852 C 0.09936 0.30285 0.89618 0.0
C9853 C 0.0982 0.31145 0.89216 0.0
C9854 C 0.108 0.30692 0.87962 0.0
C9855 C 0.11036 0.29899 0.88443 0.0
N9856 N 0.10871 0.28951 0.89755 0.0
N9857 N 0.10166 0.32198 0.88025 0.0
C9858 C 0.10605 0.2969 0.89272 0.0
C9859 C 0.10248 0.31353 0.88385 0.0
N9860 N 0.09403 0.3004 0.90329 0.0
N9861 N 0.11104 0.30808 0.87099 0.0
H9862 H 0.09754 0.32695 0.88305 0.0
H9863 H 0.10548 0.32426 0.87482 0.0
H9864 H 0.11508 0.30332 0.86773 0.0
H9865 H 0.1089 0.31328 0.8668 0.0
H9866 H 0.09392 0.29393 0.906 0.0
H9867 H 0.08908 0.30465 0.90595 0.0
H9868 H 0.1066 0.28821 0.90413 0.0
H9869 H 0.11352 0.28493 0.89523 0.0
C9870 C 0.44364 0.35224 0.6339 0.0
C9871 C 0.44562 0.3481 0.64231 0.0
C9872 C 0.46019 0.35594 0.6429 0.0
C9873 C 0.4582 0.36009 0.6345 0.0
N9874 N 0.44928 0.36051 0.62094 0.0
N9875 N 0.45654 0.34412 0.65364 0.0
C9876 C 0.45033 0.35765 0.62964 0.0
C9877 C 0.45418 0.34932 0.6464 0.0
N9878 N 0.43523 0.35139 0.63023 0.0
N9879 N 0.46753 0.35867 0.64777 0.0
H9880 H 0.45225 0.33922 0.65633 0.0
H9881 H 0.46299 0.34405 0.65642 0.0
H9882 H 0.47213 0.36344 0.64541 0.0
H9883 H 0.46873 0.35669 0.6544 0.0
H9884 H 0.43302 0.35512 0.6247 0.0
H9885 H 0.4302 0.34736 0.63305 0.0
H9886 H 0.44412 0.35829 0.61673 0.0
H9887 H 0.45409 0.36447 0.61765 0.0
C9888 C 0.12284 0.40163 0.31419 0.0
C9889 C 0.11463 0.40619 0.31231 0.0
C9890 C 0.11379 0.39882 0.29751 0.0
C9891 C 0.12206 0.39435 0.29934 0.0
N9892 N 0.13551 0.39305 0.30835 0.0
N9893 N 0.10347 0.4109 0.3015 0.0
C9894 C 0.12693 0.39628 0.30735 0.0
C9895 C 0.1105 0.40536 0.30372 0.0
N9896 N 0.12649 0.40205 0.32265 0.0
N9897 N 0.10882 0.39648 0.2901 0.0
H9898 H 0.10093 0.41575 0.30592 0.0
H9899 H 0.10072 0.41126 0.29505 0.0
H9900 H 0.111 0.39176 0.28536 0.0
H9901 H 0.10226 0.39872 0.28897 0.0
H9902 H 0.13185 0.39803 0.32476 0.0
H9903 H 0.12379 0.40602 0.32779 0.0
H9904 H 0.13977 0.39492 0.31361 0.0
H9905 H 0.13868 0.38912 0.30344 0.0
C9906 C 0.3492 0.35997 0.05329 0.0
C9907 C 0.3479 0.36414 0.0618 0.0
C9908 C 0.3573 0.37688 0.057 0.0
C9909 C 0.35981 0.37198 0.04917 0.0
N9910 N 0.35856 0.35865 0.03994 0.0
N9911 N 0.35095 0.37638 0.07207 0.0
C9912 C 0.35577 0.36352 0.04725 0.0
C9913 C 0.3519 0.37262 0.0637 0.0
N9914 N 0.34412 0.35262 0.05101 0.0
N9915 N 0.36007 0.38562 0.05798 0.0
H9916 H 0.34691 0.37356 0.07709 0.0
H9917 H 0.35458 0.38198 0.07424 0.0
H9918 H 0.36403 0.3889 0.05317 0.0
H9919 H 0.3578 0.38985 0.0631 0.0
H9920 H 0.34411 0.34976 0.0446 0.0
H9921 H 0.33927 0.34989 0.05532 0.0
H9922 H 0.35667 0.35199 0.03877 0.0
H9923 H 0.36326 0.36105 0.0353 0.0
C9924 C 0.39658 0.59964 0.8022 0.0
C9925 C 0.39236 0.59827 0.81067 0.0
C9926 C 0.37955 0.60753 0.8058 0.0
C9927 C 0.38448 0.61013 0.79802 0.0
N9928 N 0.39791 0.60906 0.78889 0.0
N9929 N 0.37998 0.60112 0.82084 0.0
C9930 C 0.39301 0.60618 0.79616 0.0
C9931 C 0.38381 0.60216 0.81251 0.0
N9932 N 0.40401 0.59465 0.79996 0.0
N9933 N 0.37077 0.61021 0.80671 0.0
H9934 H 0.38281 0.5971 0.82587 0.0
H9935 H 0.37432 0.60468 0.82298 0.0
H9936 H 0.36749 0.61415 0.80188 0.0
H9937 H 0.36651 0.60788 0.81179 0.0
H9938 H 0.40692 0.59469 0.79357 0.0
H9939 H 0.40675 0.58982 0.80428 0.0
H9940 H 0.40461 0.60725 0.78777 0.0
H9941 H 0.39549 0.61374 0.78424 0.0
C9942 C 0.15509 0.63438 0.56294 0.0
C9943 C 0.15904 0.64288 0.56099 0.0
C9944 C 0.1511 0.64341 0.54648 0.0
C9945 C 0.14712 0.63492 0.54845 0.0
N9946 N 0.14697 0.62132 0.5573 0.0
N9947 N 0.16269 0.65439 0.55014 0.0
C9948 C 0.14969 0.63007 0.55628 0.0
C9949 C 0.15767 0.64702 0.55247 0.0
N9950 N 0.1561 0.63066 0.57132 0.0
N9951 N 0.14824 0.64823 0.53916 0.0
H9952 H 0.16755 0.65716 0.55441 0.0
H9953 H 0.16266 0.65723 0.54372 0.0
H9954 H 0.14353 0.64578 0.53455 0.0
H9955 H 0.15008 0.6549 0.53796 0.0
H9956 H 0.1525 0.62505 0.57352 0.0
H9957 H 0.16013 0.63353 0.57632 0.0
H9958 H 0.14929 0.61711 0.56242 0.0
H9959 H 0.14301 0.618 0.55252 0.0
C9960 C 0.10806 0.60331 0.20191 0.0
C9961 C 0.1138 0.59882 0.19568 0.0
C9962 C 0.12703 0.60626 0.20228 0.0
C9963 C 0.12128 0.61079 0.20846 0.0
N9964 N 0.10677 0.6122 0.21561 0.0
N9965 N 0.12873 0.59438 0.19111 0.0
C9966 C 0.11193 0.60881 0.20875 0.0
C9967 C 0.1233 0.59976 0.19627 0.0
N9968 N 0.0989 0.60269 0.20097 0.0
N9969 N 0.13598 0.60847 0.20193 0.0
H9970 H 0.12616 0.58959 0.18664 0.0
H9971 H 0.13571 0.5941 0.19179 0.0
H9972 H 0.13898 0.61295 0.20645 0.0
H9973 H 0.14035 0.60625 0.1969 0.0
H9974 H 0.09435 0.60666 0.20456 0.0
H9975 H 0.0958 0.5986 0.19617 0.0
H9976 H 0.1001 0.61031 0.21676 0.0
H9977 H 0.1094 0.61634 0.22065 0.0
C9978 C 0.15315 0.35783 0.95216 0.0
C9979 C 0.15788 0.36358 0.94613 0.0
C9980 C 0.15044 0.37682 0.95271 0.0
C9981 C 0.14571 0.37106 0.95871 0.0
N9982 N 0.14397 0.35649 0.96566 0.0
N9983 N 0.16263 0.3785 0.94187 0.0
C9984 C 0.14756 0.36169 0.95894 0.0
C9985 C 0.15704 0.37308 0.94681 0.0
N9986 N 0.15363 0.34868 0.95111 0.0
N9987 N 0.14834 0.38579 0.95239 0.0
H9988 H 0.1675 0.37593 0.93748 0.0
H9989 H 0.16298 0.38547 0.94264 0.0
H9990 H 0.14376 0.3888 0.95682 0.0
H9991 H 0.15074 0.39018 0.94746 0.0
H9992 H 0.14951 0.34415 0.95454 0.0
H9993 H 0.15777 0.34557 0.94634 0.0
H9994 H 0.14575 0.3498 0.96677 0.0
H9995 H 0.13976 0.35912 0.97066 0.0
C9996 C 0.39871 0.40255 0.70133 0.0
C9997 C 0.39308 0.40743 0.69531 0.0
C9998 C 0.37965 0.40028 0.70183 0.0
C9999 C 0.38529 0.39539 0.70782 0.0
N10000 N 0.3998 0.39328 0.71479 0.0
N10001 N 0.37828 0.41254 0.69104 0.0
C10002 C 0.39471 0.39702 0.70807 0.0
C10003 C 0.38356 0.40681 0.69597 0.0
N10004 N 0.40788 0.40283 0.70031 0.0
N10005 N 0.37063 0.39839 0.70148 0.0
H10006 H 0.38098 0.41737 0.68668 0.0
H10007 H 0.37132 0.41306 0.69181 0.0
H10008 H 0.36751 0.39386 0.70587 0.0
H10009 H 0.36631 0.40091 0.69655 0.0
H10010 H 0.4123 0.3986 0.70373 0.0
H10011 H 0.41109 0.40693 0.69557 0.0
H10012 H 0.40654 0.3949 0.71592 0.0
H10013 H 0.39707 0.38912 0.71977 0.0
C10014 C 0.35193 0.634 0.44362 0.0
C10015 C 0.34806 0.64257 0.44542 0.0
C10016 C 0.35597 0.64327 0.45993 0.0
C10017 C 0.35991 0.63473 0.4581 0.0
N10018 N 0.36 0.62099 0.44946 0.0
N10019 N 0.34448 0.65428 0.45606 0.0
C10020 C 0.35732 0.62977 0.45035 0.0
C10021 C 0.34944 0.64683 0.45387 0.0
N10022 N 0.35086 0.63013 0.43532 0.0
N10023 N 0.35884 0.64819 0.46719 0.0
H10024 H 0.33966 0.65703 0.45173 0.0
H10025 H 0.34452 0.65723 0.46244 0.0
H10026 H 0.36351 0.64577 0.47186 0.0
H10027 H 0.35704 0.65488 0.46828 0.0
H10028 H 0.35439 0.62445 0.4332 0.0
H10029 H 0.3468 0.63293 0.43029 0.0
H10030 H 0.35767 0.61672 0.4444 0.0
H10031 H 0.36395 0.61774 0.45429 0.0
C10032 C 0.30269 0.11042 0.40711 0.0
C10033 C 0.31125 0.1145 0.40835 0.0
C10034 C 0.30655 0.12725 0.39893 0.0
C10035 C 0.29866 0.12243 0.39647 0.0
N10036 N 0.2893 0.10918 0.39779 0.0
N10037 N 0.32164 0.12662 0.40521 0.0
C10038 C 0.29667 0.114 0.40055 0.0
C10039 C 0.31323 0.12294 0.40431 0.0
N10040 N 0.30034 0.10312 0.41223 0.0
N10041 N 0.3076 0.13597 0.39613 0.0
H10042 H 0.32665 0.12376 0.40923 0.0
H10043 H 0.32385 0.13218 0.40155 0.0
H10044 H 0.3028 0.13929 0.3922 0.0
H10045 H 0.31277 0.14016 0.39837 0.0
H10046 H 0.2939 0.10034 0.41228 0.0
H10047 H 0.30464 0.10037 0.41708 0.0
H10048 H 0.28808 0.10254 0.39971 0.0
H10049 H 0.28467 0.1116 0.39309 0.0
C10050 C 0.81254 0.38378 0.60225 0.0
C10051 C 0.81067 0.39225 0.59822 0.0
C10052 C 0.7961 0.39293 0.60604 0.0
C10053 C 0.79799 0.38447 0.61011 0.0
N10054 N 0.80675 0.3708 0.6104 0.0
N10055 N 0.7999 0.40376 0.59435 0.0
C10056 C 0.80581 0.37954 0.60762 0.0
C10057 C 0.80216 0.39644 0.59947 0.0
N10058 N 0.82091 0.38 0.60135 0.0
N10059 N 0.78881 0.39784 0.60881 0.0
H10060 H 0.80423 0.40646 0.5895 0.0
H10061 H 0.79349 0.40663 0.59431 0.0
H10062 H 0.78416 0.39548 0.61353 0.0
H10063 H 0.78767 0.4045 0.6069 0.0
H10064 H 0.82305 0.37441 0.60501 0.0
H10065 H 0.82596 0.38281 0.59734 0.0
H10066 H 0.81186 0.36655 0.60815 0.0
H10067 H 0.8019 0.36754 0.61433 0.0
C10068 C 0.37305 0.06325 0.35211 0.0
C10069 C 0.36438 0.06148 0.34846 0.0
C10070 C 0.36369 0.04712 0.35664 0.0
C10071 C 0.37232 0.04893 0.36037 0.0
N10072 N 0.38615 0.05742 0.36005 0.0
N10073 N 0.35245 0.05092 0.34534 0.0
C10074 C 0.37732 0.05658 0.35754 0.0
C10075 C 0.36005 0.05311 0.35009 0.0
N10076 N 0.377 0.07148 0.35078 0.0
N10077 N 0.35877 0.03995 0.35972 0.0
H10078 H 0.34965 0.05521 0.34051 0.0
H10079 H 0.34943 0.04459 0.34556 0.0
H10080 H 0.36126 0.03532 0.36439 0.0
H10081 H 0.35203 0.03888 0.35808 0.0
H10082 H 0.38278 0.0736 0.35414 0.0
H10083 H 0.37418 0.07644 0.34667 0.0
H10084 H 0.39044 0.06239 0.35755 0.0
H10085 H 0.38943 0.05264 0.36404 0.0
C10086 C 0.70197 0.60735 0.10356 0.0
C10087 C 0.69614 0.61312 0.09861 0.0
C10088 C 0.70308 0.6264 0.10565 0.0
C10089 C 0.7089 0.62062 0.11059 0.0
N10090 N 0.71541 0.60592 0.11282 0.0
N10091 N 0.69235 0.628 0.09336 0.0
C10092 C 0.70885 0.61119 0.10905 0.0
C10093 C 0.6971 0.62262 0.09914 0.0
N10094 N 0.70064 0.59823 0.10338 0.0
N10095 N 0.703 0.63543 0.10748 0.0
H10096 H 0.68791 0.6254 0.08855 0.0
H10097 H 0.69334 0.63493 0.09279 0.0
H10098 H 0.70747 0.63845 0.11199 0.0
H10099 H 0.6982 0.63988 0.10492 0.0
H10100 H 0.70392 0.59374 0.10767 0.0
H10101 H 0.69579 0.59513 0.09933 0.0
H10102 H 0.71631 0.59913 0.11126 0.0
H10103 H 0.72048 0.60853 0.11695 0.0
C10104 C 0.64631 0.4523 0.35027 0.0
C10105 C 0.64162 0.44421 0.34827 0.0
C10106 C 0.62857 0.44957 0.35692 0.0
C10107 C 0.63382 0.45691 0.3601 0.0
N10108 N 0.64776 0.46529 0.36012 0.0
N10109 N 0.62838 0.4349 0.34966 0.0
C10110 C 0.64267 0.45837 0.35675 0.0
C10111 C 0.63271 0.44283 0.35147 0.0
N10112 N 0.65425 0.45414 0.34595 0.0
N10113 N 0.61963 0.4491 0.35912 0.0
H10114 H 0.63109 0.42994 0.34546 0.0
H10115 H 0.62233 0.43298 0.35268 0.0
H10116 H 0.61645 0.45394 0.36313 0.0
H10117 H 0.61519 0.4444 0.35638 0.0
H10118 H 0.65761 0.46028 0.34644 0.0
H10119 H 0.65708 0.44978 0.34121 0.0
H10120 H 0.65461 0.46608 0.3588 0.0
H10121 H 0.64525 0.47 0.3647 0.0
C10122 C 0.20429 0.89672 0.90688 0.0
C10123 C 0.19578 0.89256 0.90816 0.0
C10124 C 0.20059 0.8798 0.8988 0.0
C10125 C 0.20844 0.88468 0.89631 0.0
N10126 N 0.21769 0.89801 0.89757 0.0
N10127 N 0.1855 0.88033 0.90508 0.0
C10128 C 0.21035 0.89315 0.90034 0.0
C10129 C 0.19388 0.88407 0.90416 0.0
N10130 N 0.20657 0.90408 0.91195 0.0
N10131 N 0.19961 0.87106 0.89603 0.0
H10132 H 0.18046 0.88316 0.90909 0.0
H10133 H 0.18334 0.87473 0.90144 0.0
H10134 H 0.20443 0.86776 0.8921 0.0
H10135 H 0.19448 0.86683 0.8983 0.0
H10136 H 0.21298 0.90694 0.91197 0.0
H10137 H 0.20224 0.90682 0.91678 0.0
H10138 H 0.21886 0.90467 0.89944 0.0
H10139 H 0.22235 0.89557 0.8929 0.0
C10140 C 0.36066 0.95279 0.15675 0.0
C10141 C 0.36482 0.94428 0.15803 0.0
C10142 C 0.37753 0.94903 0.14856 0.0
C10143 C 0.37263 0.95686 0.14607 0.0
N10144 N 0.35932 0.96613 0.14739 0.0
N10145 N 0.37705 0.934 0.155 0.0
C10146 C 0.36419 0.95881 0.15016 0.0
C10147 C 0.37329 0.94235 0.154 0.0
N10148 N 0.35333 0.95509 0.16185 0.0
N10149 N 0.38625 0.94802 0.14573 0.0
H10150 H 0.37425 0.92901 0.1591 0.0
H10151 H 0.38264 0.9318 0.15136 0.0
H10152 H 0.38951 0.95282 0.14174 0.0
H10153 H 0.39049 0.94289 0.14797 0.0
H10154 H 0.35049 0.96151 0.16188 0.0
H10155 H 0.35061 0.95079 0.16672 0.0
H10156 H 0.35267 0.96732 0.14931 0.0
H10157 H 0.36171 0.97076 0.14267 0.0
C10158 C 0.14639 0.05289 0.65745 0.0
C10159 C 0.1421 0.06134 0.65869 0.0
C10160 C 0.12945 0.05632 0.64927 0.0
C10161 C 0.13447 0.04855 0.64682 0.0
N10162 N 0.1479 0.03948 0.6482 0.0
N10163 N 0.12969 0.0714 0.6556 0.0
C10164 C 0.14294 0.04676 0.65091 0.0
C10165 C 0.13359 0.06309 0.65466 0.0
N10166 N 0.15376 0.05074 0.66255 0.0
N10167 N 0.12071 0.05716 0.64644 0.0
H10168 H 0.13242 0.07646 0.65965 0.0
H10169 H 0.12406 0.07348 0.65195 0.0
H10170 H 0.11753 0.05229 0.64248 0.0
H10171 H 0.11639 0.06223 0.64866 0.0
H10172 H 0.15672 0.04438 0.66261 0.0
H10173 H 0.15642 0.05512 0.66738 0.0
H10174 H 0.15457 0.0384 0.65012 0.0
H10175 H 0.14555 0.03476 0.64354 0.0
loop_
_geom_bond_atom_site_label_1
_geom_bond_atom_site_label_2
_geom_bond_distance
_geom_bond_site_symmetry_2
_ccdc_geom_bond_type
C0 C1 1.264 . S
C0 C5 1.479 . S
C0 C10 1.465 . S
C1 C0 1.264 . S
C1 C3 1.339 . S
C1 H28 0.931 . S
C2 C3 1.395 . S
C2 C4 1.320 . S
C3 C1 1.339 . S
C3 C2 1.395 . S
C3 H29 0.929 . S
C4 C2 1.320 . S
C4 C5 1.405 . S
C4 H30 0.930 . S
C5 C0 1.479 . S
C5 C4 1.405 . S
C5 H31 0.931 . S
U6 O7 2.454 . S
U6 O8 2.458 . S
U6 C9 2.984 . S
U6 C10 2.847 . S
U6 C23 2.882 . S
U6 O24 2.441 . S
U6 O25 2.420 . S
U6 O26 2.455 . S
U6 O27 2.449 . S
O7 U6 2.454 . S
O7 C9 1.353 . S
O8 U6 2.458 . S
O8 C9 1.286 . S
C9 U6 2.984 . S
C9 O7 1.353 . S
C9 O8 1.286 . S
C9 C11 1.363 . S
C10 C0 1.465 . S
C10 U6 2.847 . S
C10 O24 1.249 . S
C10 O25 1.202 . S
C11 C9 1.363 . S
C11 C13 1.408 . S
C11 C16 1.342 . S
C12 C13 1.310 . S
C12 C15 1.461 . S
C12 H32 0.932 . S
C13 C11 1.408 . S
C13 C12 1.310 . S
C13 H33 0.930 . S
C14 C15 1.474 . S
C14 C16 1.285 . S
C14 H34 0.929 . S
C15 C12 1.461 . S
C15 C14 1.474 . S
C16 C11 1.342 . S
C16 C14 1.285 . S
C16 H35 0.930 . S
C17 C20 1.424 . S
C17 C22 1.245 . S
C17 C23 1.428 . S
C18 C21 1.260 . S
C18 C22 1.477 . S
C18 H36 0.932 . S
C19 C20 1.384 . S
C19 C21 1.479 . S
C19 H37 0.929 . S
C20 C17 1.424 . S
C20 C19 1.384 . S
C20 H38 0.928 . S
C21 C18 1.260 . S
C21 C19 1.479 . S
C22 C17 1.245 . S
C22 C18 1.477 . S
C22 H39 0.932 . S
C23 U6 2.882 . S
C23 C17 1.428 . S
C23 O26 1.301 . S
C23 O27 1.282 . S
O24 U6 2.441 . S
O24 C10 1.249 . S
O25 U6 2.420 . S
O25 C10 1.202 . S
O26 U6 2.455 . S
O26 C23 1.301 . S
O27 U6 2.449 . S
O27 C23 1.282 . S
H28 C1 0.931 . S
H29 C3 0.929 . S
H30 C4 0.930 . S
H31 C5 0.931 . S
H32 C12 0.932 . S
H33 C13 0.930 . S
H34 C14 0.929 . S
H35 C16 0.930 . S
H36 C18 0.932 . S
H37 C19 0.929 . S
H38 C20 0.928 . S
H39 C22 0.932 . S
C40 C41 1.264 . S
C40 C45 1.479 . S
C40 C50 1.465 . S
C41 C40 1.264 . S
C41 C43 1.339 . S
C41 H68 0.931 . S
C42 C43 1.395 . S
C42 C44 1.320 . S
C43 C41 1.339 . S
C43 C42 1.395 . S
C43 H69 0.929 . S
C44 C42 1.320 . S
C44 C45 1.405 . S
C44 H70 0.930 . S
C45 C40 1.479 . S
C45 C44 1.405 . S
C45 H71 0.931 . S
U46 O47 2.454 . S
U46 O48 2.458 . S
U46 C49 2.984 . S
U46 C50 2.847 . S
U46 C63 2.882 . S
U46 O64 2.441 . S
U46 O65 2.420 . S
U46 O66 2.455 . S
U46 O67 2.449 . S
O47 U46 2.454 . S
O47 C49 1.353 . S
O48 U46 2.458 . S
O48 C49 1.286 . S
C49 U46 2.984 . S
C49 O47 1.353 . S
C49 O48 1.286 . S
C49 C51 1.363 . S
C50 C40 1.465 . S
C50 U46 2.847 . S
C50 O64 1.249 . S
C50 O65 1.202 . S
C51 C49 1.363 . S
C51 C53 1.408 . S
C51 C56 1.342 . S
C52 C53 1.310 . S
C52 C55 1.461 . S
C52 H72 0.932 . S
C53 C51 1.408 . S
C53 C52 1.310 . S
C53 H73 0.930 . S
C54 C55 1.474 . S
C54 C56 1.285 . S
C54 H74 0.929 . S
C55 C52 1.461 . S
C55 C54 1.474 . S
C56 C51 1.342 . S
C56 C54 1.285 . S
C56 H75 0.930 . S
C57 C60 1.424 . S
C57 C62 1.245 . S
C57 C63 1.428 . S
C58 C61 1.260 . S
C58 C62 1.477 . S
C58 H76 0.932 . S
C59 C60 1.384 . S
C59 C61 1.479 . S
C59 H77 0.929 . S
C60 C57 1.424 . S
C60 C59 1.384 . S
C60 H78 0.928 . S
C61 C58 1.260 . S
C61 C59 1.479 . S
C62 C57 1.245 . S
C62 C58 1.477 . S
C62 H79 0.932 . S
C63 U46 2.882 . S
C63 C57 1.428 . S
C63 O66 1.301 . S
C63 O67 1.282 . S
O64 U46 2.441 . S
O64 C50 1.249 . S
O65 U46 2.420 . S
O65 C50 1.202 . S
O66 U46 2.455 . S
O66 C63 1.301 . S
O67 U46 2.449 . S
O67 C63 1.282 . S
H68 C41 0.931 . S
H69 C43 0.929 . S
H70 C44 0.930 . S
H71 C45 0.931 . S
H72 C52 0.932 . S
H73 C53 0.930 . S
H74 C54 0.929 . S
H75 C56 0.930 . S
H76 C58 0.932 . S
H77 C59 0.929 . S
H78 C60 0.928 . S
H79 C62 0.932 . S
C80 C81 1.264 . S
C80 C85 1.479 . S
C80 C90 1.465 . S
C81 C80 1.264 . S
C81 C83 1.339 . S
C81 H108 0.931 . S
C82 C83 1.395 . S
C82 C84 1.320 . S
C83 C81 1.339 . S
C83 C82 1.395 . S
C83 H109 0.929 . S
C84 C82 1.320 . S
C84 C85 1.405 . S
C84 H110 0.930 . S
C85 C80 1.479 . S
C85 C84 1.405 . S
C85 H111 0.931 . S
U86 O87 2.454 . S
U86 O88 2.458 . S
U86 C89 2.984 . S
U86 C90 2.847 . S
U86 C103 2.882 . S
U86 O104 2.441 . S
U86 O105 2.420 . S
U86 O106 2.455 . S
U86 O107 2.449 . S
O87 U86 2.454 . S
O87 C89 1.353 . S
O88 U86 2.458 . S
O88 C89 1.286 . S
C89 U86 2.984 . S
C89 O87 1.353 . S
C89 O88 1.286 . S
C89 C91 1.363 . S
C90 C80 1.465 . S
C90 U86 2.847 . S
C90 O104 1.249 . S
C90 O105 1.202 . S
C91 C89 1.363 . S
C91 C93 1.408 . S
C91 C96 1.342 . S
C92 C93 1.310 . S
C92 C95 1.461 . S
C92 H112 0.932 . S
C93 C91 1.408 . S
C93 C92 1.310 . S
C93 H113 0.930 . S
C94 C95 1.474 . S
C94 C96 1.285 . S
C94 H114 0.929 . S
C95 C92 1.461 . S
C95 C94 1.474 . S
C96 C91 1.342 . S
C96 C94 1.285 . S
C96 H115 0.930 . S
C97 C100 1.424 . S
C97 C102 1.245 . S
C97 C103 1.428 . S
C98 C101 1.260 . S
C98 C102 1.477 . S
C98 H116 0.932 . S
C99 C100 1.384 . S
C99 C101 1.479 . S
C99 H117 0.929 . S
C100 C97 1.424 . S
C100 C99 1.384 . S
C100 H118 0.928 . S
C101 C98 1.260 . S
C101 C99 1.479 . S
C102 C97 1.245 . S
C102 C98 1.477 . S
C102 H119 0.932 . S
C103 U86 2.882 . S
C103 C97 1.428 . S
C103 O106 1.301 . S
C103 O107 1.282 . S
O104 U86 2.441 . S
O104 C90 1.249 . S
O105 U86 2.420 . S
O105 C90 1.202 . S
O106 U86 2.455 . S
O106 C103 1.301 . S
O107 U86 2.449 . S
O107 C103 1.282 . S
H108 C81 0.931 . S
H109 C83 0.929 . S
H110 C84 0.930 . S
H111 C85 0.931 . S
H112 C92 0.932 . S
H113 C93 0.930 . S
H114 C94 0.929 . S
H115 C96 0.930 . S
H116 C98 0.932 . S
H117 C99 0.929 . S
H118 C100 0.928 . S
H119 C102 0.932 . S
C120 C121 1.264 . S
C120 C125 1.479 . S
C120 C130 1.465 . S
C121 C120 1.264 . S
C121 C123 1.339 . S
C121 H148 0.931 . S
C122 C123 1.395 . S
C122 C124 1.320 . S
C123 C121 1.339 . S
C123 C122 1.395 . S
C123 H149 0.929 . S
C124 C122 1.320 . S
C124 C125 1.405 . S
C124 H150 0.930 . S
C125 C120 1.479 . S
C125 C124 1.405 . S
C125 H151 0.931 . S
U126 O127 2.454 . S
U126 O128 2.458 . S
U126 C129 2.984 . S
U126 C130 2.847 . S
U126 C143 2.882 . S
U126 O144 2.441 . S
U126 O145 2.420 . S
U126 O146 2.455 . S
U126 O147 2.449 . S
O127 U126 2.454 . S
O127 C129 1.353 . S
O128 U126 2.458 . S
O128 C129 1.286 . S
C129 U126 2.984 . S
C129 O127 1.353 . S
C129 O128 1.286 . S
C129 C131 1.363 . S
C130 C120 1.465 . S
C130 U126 2.847 . S
C130 O144 1.249 . S
C130 O145 1.202 . S
C131 C129 1.363 . S
C131 C133 1.408 . S
C131 C136 1.342 . S
C132 C133 1.310 . S
C132 C135 1.461 . S
C132 H152 0.932 . S
C133 C131 1.408 . S
C133 C132 1.310 . S
C133 H153 0.930 . S
C134 C135 1.474 . S
C134 C136 1.285 . S
C134 H154 0.929 . S
C135 C132 1.461 . S
C135 C134 1.474 . S
C136 C131 1.342 . S
C136 C134 1.285 . S
C136 H155 0.930 . S
C137 C140 1.424 . S
C137 C142 1.245 . S
C137 C143 1.428 . S
C138 C141 1.260 . S
C138 C142 1.477 . S
C138 H156 0.932 . S
C139 C140 1.384 . S
C139 C141 1.479 . S
C139 H157 0.929 . S
C140 C137 1.424 . S
C140 C139 1.384 . S
C140 H158 0.928 . S
C141 C138 1.260 . S
C141 C139 1.479 . S
C142 C137 1.245 . S
C142 C138 1.477 . S
C142 H159 0.932 . S
C143 U126 2.882 . S
C143 C137 1.428 . S
C143 O146 1.301 . S
C143 O147 1.282 . S
O144 U126 2.441 . S
O144 C130 1.249 . S
O145 U126 2.420 . S
O145 C130 1.202 . S
O146 U126 2.455 . S
O146 C143 1.301 . S
O147 U126 2.449 . S
O147 C143 1.282 . S
H148 C121 0.931 . S
H149 C123 0.929 . S
H150 C124 0.930 . S
H151 C125 0.931 . S
H152 C132 0.932 . S
H153 C133 0.930 . S
H154 C134 0.929 . S
H155 C136 0.930 . S
H156 C138 0.932 . S
H157 C139 0.929 . S
H158 C140 0.928 . S
H159 C142 0.932 . S
C160 C161 1.264 . S
C160 C165 1.479 . S
C160 C170 1.465 . S
C161 C160 1.264 . S
C161 C163 1.339 . S
C161 H188 0.931 . S
C162 C163 1.395 . S
C162 C164 1.320 . S
C163 C161 1.339 . S
C163 C162 1.395 . S
C163 H189 0.929 . S
C164 C162 1.320 . S
C164 C165 1.405 . S
C164 H190 0.930 . S
C165 C160 1.479 . S
C165 C164 1.405 . S
C165 H191 0.931 . S
U166 O167 2.454 . S
U166 O168 2.458 . S
U166 C169 2.984 . S
U166 C170 2.847 . S
U166 C183 2.882 . S
U166 O184 2.441 . S
U166 O185 2.420 . S
U166 O186 2.455 . S
U166 O187 2.449 . S
O167 U166 2.454 . S
O167 C169 1.353 . S
O168 U166 2.458 . S
O168 C169 1.286 . S
C169 U166 2.984 . S
C169 O167 1.353 . S
C169 O168 1.286 . S
C169 C171 1.363 . S
C170 C160 1.465 . S
C170 U166 2.847 . S
C170 O184 1.249 . S
C170 O185 1.202 . S
C171 C169 1.363 . S
C171 C173 1.408 . S
C171 C176 1.342 . S
C172 C173 1.310 . S
C172 C175 1.461 . S
C172 H192 0.932 . S
C173 C171 1.408 . S
C173 C172 1.310 . S
C173 H193 0.930 . S
C174 C175 1.474 . S
C174 C176 1.285 . S
C174 H194 0.929 . S
C175 C172 1.461 . S
C175 C174 1.474 . S
C176 C171 1.342 . S
C176 C174 1.285 . S
C176 H195 0.930 . S
C177 C180 1.424 . S
C177 C182 1.245 . S
C177 C183 1.428 . S
C178 C181 1.260 . S
C178 C182 1.477 . S
C178 H196 0.932 . S
C179 C180 1.384 . S
C179 C181 1.479 . S
C179 H197 0.929 . S
C180 C177 1.424 . S
C180 C179 1.384 . S
C180 H198 0.928 . S
C181 C178 1.260 . S
C181 C179 1.479 . S
C182 C177 1.245 . S
C182 C178 1.477 . S
C182 H199 0.932 . S
C183 U166 2.882 . S
C183 C177 1.428 . S
C183 O186 1.301 . S
C183 O187 1.282 . S
O184 U166 2.441 . S
O184 C170 1.249 . S
O185 U166 2.420 . S
O185 C170 1.202 . S
O186 U166 2.455 . S
O186 C183 1.301 . S
O187 U166 2.449 . S
O187 C183 1.282 . S
H188 C161 0.931 . S
H189 C163 0.929 . S
H190 C164 0.930 . S
H191 C165 0.931 . S
H192 C172 0.932 . S
H193 C173 0.930 . S
H194 C174 0.929 . S
H195 C176 0.930 . S
H196 C178 0.932 . S
H197 C179 0.929 . S
H198 C180 0.928 . S
H199 C182 0.932 . S
C200 C201 1.264 . S
C200 C205 1.479 . S
C200 C210 1.465 . S
C201 C200 1.264 . S
C201 C203 1.339 . S
C201 H228 0.931 . S
C202 C203 1.395 . S
C202 C204 1.320 . S
C203 C201 1.339 . S
C203 C202 1.395 . S
C203 H229 0.929 . S
C204 C202 1.320 . S
C204 C205 1.405 . S
C204 H230 0.930 . S
C205 C200 1.479 . S
C205 C204 1.405 . S
C205 H231 0.931 . S
U206 O207 2.454 . S
U206 O208 2.458 . S
U206 C209 2.984 . S
U206 C210 2.847 . S
U206 C223 2.882 . S
U206 O224 2.441 . S
U206 O225 2.420 . S
U206 O226 2.455 . S
U206 O227 2.449 . S
O207 U206 2.454 . S
O207 C209 1.353 . S
O208 U206 2.458 . S
O208 C209 1.286 . S
C209 U206 2.984 . S
C209 O207 1.353 . S
C209 O208 1.286 . S
C209 C211 1.363 . S
C210 C200 1.465 . S
C210 U206 2.847 . S
C210 O224 1.249 . S
C210 O225 1.202 . S
C211 C209 1.363 . S
C211 C213 1.408 . S
C211 C216 1.342 . S
C212 C213 1.310 . S
C212 C215 1.461 . S
C212 H232 0.932 . S
C213 C211 1.408 . S
C213 C212 1.310 . S
C213 H233 0.930 . S
C214 C215 1.474 . S
C214 C216 1.285 . S
C214 H234 0.929 . S
C215 C212 1.461 . S
C215 C214 1.474 . S
C216 C211 1.342 . S
C216 C214 1.285 . S
C216 H235 0.930 . S
C217 C220 1.424 . S
C217 C222 1.245 . S
C217 C223 1.428 . S
C218 C221 1.260 . S
C218 C222 1.477 . S
C218 H236 0.932 . S
C219 C220 1.384 . S
C219 C221 1.479 . S
C219 H237 0.929 . S
C220 C217 1.424 . S
C220 C219 1.384 . S
C220 H238 0.928 . S
C221 C218 1.260 . S
C221 C219 1.479 . S
C222 C217 1.245 . S
C222 C218 1.477 . S
C222 H239 0.932 . S
C223 U206 2.882 . S
C223 C217 1.428 . S
C223 O226 1.301 . S
C223 O227 1.282 . S
O224 U206 2.441 . S
O224 C210 1.249 . S
O225 U206 2.420 . S
O225 C210 1.202 . S
O226 U206 2.455 . S
O226 C223 1.301 . S
O227 U206 2.449 . S
O227 C223 1.282 . S
H228 C201 0.931 . S
H229 C203 0.929 . S
H230 C204 0.930 . S
H231 C205 0.931 . S
H232 C212 0.932 . S
H233 C213 0.930 . S
H234 C214 0.929 . S
H235 C216 0.930 . S
H236 C218 0.932 . S
H237 C219 0.929 . S
H238 C220 0.928 . S
H239 C222 0.932 . S
C240 C241 1.264 . S
C240 C245 1.479 . S
C240 C250 1.465 . S
C241 C240 1.264 . S
C241 C243 1.339 . S
C241 H268 0.931 . S
C242 C243 1.395 . S
C242 C244 1.320 . S
C243 C241 1.339 . S
C243 C242 1.395 . S
C243 H269 0.929 . S
C244 C242 1.320 . S
C244 C245 1.405 . S
C244 H270 0.930 . S
C245 C240 1.479 . S
C245 C244 1.405 . S
C245 H271 0.931 . S
U246 O247 2.454 . S
U246 O248 2.458 . S
U246 C249 2.984 . S
U246 C250 2.847 . S
U246 C263 2.882 . S
U246 O264 2.441 . S
U246 O265 2.420 . S
U246 O266 2.455 . S
U246 O267 2.449 . S
O247 U246 2.454 . S
O247 C249 1.353 . S
O248 U246 2.458 . S
O248 C249 1.286 . S
C249 U246 2.984 . S
C249 O247 1.353 . S
C249 O248 1.286 . S
C249 C251 1.363 . S
C250 C240 1.465 . S
C250 U246 2.847 . S
C250 O264 1.249 . S
C250 O265 1.202 . S
C251 C249 1.363 . S
C251 C253 1.408 . S
C251 C256 1.342 . S
C252 C253 1.310 . S
C252 C255 1.461 . S
C252 H272 0.932 . S
C253 C251 1.408 . S
C253 C252 1.310 . S
C253 H273 0.930 . S
C254 C255 1.474 . S
C254 C256 1.285 . S
C254 H274 0.929 . S
C255 C252 1.461 . S
C255 C254 1.474 . S
C256 C251 1.342 . S
C256 C254 1.285 . S
C256 H275 0.930 . S
C257 C260 1.424 . S
C257 C262 1.245 . S
C257 C263 1.428 . S
C258 C261 1.260 . S
C258 C262 1.477 . S
C258 H276 0.932 . S
C259 C260 1.384 . S
C259 C261 1.479 . S
C259 H277 0.929 . S
C260 C257 1.424 . S
C260 C259 1.384 . S
C260 H278 0.928 . S
C261 C258 1.260 . S
C261 C259 1.479 . S
C262 C257 1.245 . S
C262 C258 1.477 . S
C262 H279 0.932 . S
C263 U246 2.882 . S
C263 C257 1.428 . S
C263 O266 1.301 . S
C263 O267 1.282 . S
O264 U246 2.441 . S
O264 C250 1.249 . S
O265 U246 2.420 . S
O265 C250 1.202 . S
O266 U246 2.455 . S
O266 C263 1.301 . S
O267 U246 2.449 . S
O267 C263 1.282 . S
H268 C241 0.931 . S
H269 C243 0.929 . S
H270 C244 0.930 . S
H271 C245 0.931 . S
H272 C252 0.932 . S
H273 C253 0.930 . S
H274 C254 0.929 . S
H275 C256 0.930 . S
H276 C258 0.932 . S
H277 C259 0.929 . S
H278 C260 0.928 . S
H279 C262 0.932 . S
C280 C281 1.264 . S
C280 C285 1.479 . S
C280 C290 1.465 . S
C281 C280 1.264 . S
C281 C283 1.339 . S
C281 H308 0.931 . S
C282 C283 1.395 . S
C282 C284 1.320 . S
C283 C281 1.339 . S
C283 C282 1.395 . S
C283 H309 0.929 . S
C284 C282 1.320 . S
C284 C285 1.405 . S
C284 H310 0.930 . S
C285 C280 1.479 . S
C285 C284 1.405 . S
C285 H311 0.931 . S
U286 O287 2.454 . S
U286 O288 2.458 . S
U286 C289 2.984 . S
U286 C290 2.847 . S
U286 C303 2.882 . S
U286 O304 2.441 . S
U286 O305 2.420 . S
U286 O306 2.455 . S
U286 O307 2.449 . S
O287 U286 2.454 . S
O287 C289 1.353 . S
O288 U286 2.458 . S
O288 C289 1.286 . S
C289 U286 2.984 . S
C289 O287 1.353 . S
C289 O288 1.286 . S
C289 C291 1.363 . S
C290 C280 1.465 . S
C290 U286 2.847 . S
C290 O304 1.249 . S
C290 O305 1.202 . S
C291 C289 1.363 . S
C291 C293 1.408 . S
C291 C296 1.342 . S
C292 C293 1.310 . S
C292 C295 1.461 . S
C292 H312 0.932 . S
C293 C291 1.408 . S
C293 C292 1.310 . S
C293 H313 0.930 . S
C294 C295 1.474 . S
C294 C296 1.285 . S
C294 H314 0.929 . S
C295 C292 1.461 . S
C295 C294 1.474 . S
C296 C291 1.342 . S
C296 C294 1.285 . S
C296 H315 0.930 . S
C297 C300 1.424 . S
C297 C302 1.245 . S
C297 C303 1.428 . S
C298 C301 1.260 . S
C298 C302 1.477 . S
C298 H316 0.932 . S
C299 C300 1.384 . S
C299 C301 1.479 . S
C299 H317 0.929 . S
C300 C297 1.424 . S
C300 C299 1.384 . S
C300 H318 0.928 . S
C301 C298 1.260 . S
C301 C299 1.479 . S
C302 C297 1.245 . S
C302 C298 1.477 . S
C302 H319 0.932 . S
C303 U286 2.882 . S
C303 C297 1.428 . S
C303 O306 1.301 . S
C303 O307 1.282 . S
O304 U286 2.441 . S
O304 C290 1.249 . S
O305 U286 2.420 . S
O305 C290 1.202 . S
O306 U286 2.455 . S
O306 C303 1.301 . S
O307 U286 2.449 . S
O307 C303 1.282 . S
H308 C281 0.931 . S
H309 C283 0.929 . S
H310 C284 0.930 . S
H311 C285 0.931 . S
H312 C292 0.932 . S
H313 C293 0.930 . S
H314 C294 0.929 . S
H315 C296 0.930 . S
H316 C298 0.932 . S
H317 C299 0.929 . S
H318 C300 0.928 . S
H319 C302 0.932 . S
C320 C321 1.264 . S
C320 C325 1.479 . S
C320 C330 1.465 . S
C321 C320 1.264 . S
C321 C323 1.339 . S
C321 H348 0.931 . S
C322 C323 1.395 . S
C322 C324 1.320 . S
C323 C321 1.339 . S
C323 C322 1.395 . S
C323 H349 0.929 . S
C324 C322 1.320 . S
C324 C325 1.405 . S
C324 H350 0.930 . S
C325 C320 1.479 . S
C325 C324 1.405 . S
C325 H351 0.931 . S
U326 O327 2.454 . S
U326 O328 2.458 . S
U326 C329 2.984 . S
U326 C330 2.847 . S
U326 C343 2.882 . S
U326 O344 2.441 . S
U326 O345 2.420 . S
U326 O346 2.455 . S
U326 O347 2.449 . S
O327 U326 2.454 . S
O327 C329 1.353 . S
O328 U326 2.458 . S
O328 C329 1.286 . S
C329 U326 2.984 . S
C329 O327 1.353 . S
C329 O328 1.286 . S
C329 C331 1.363 . S
C330 C320 1.465 . S
C330 U326 2.847 . S
C330 O344 1.249 . S
C330 O345 1.202 . S
C331 C329 1.363 . S
C331 C333 1.408 . S
C331 C336 1.342 . S
C332 C333 1.310 . S
C332 C335 1.461 . S
C332 H352 0.932 . S
C333 C331 1.408 . S
C333 C332 1.310 . S
C333 H353 0.930 . S
C334 C335 1.474 . S
C334 C336 1.285 . S
C334 H354 0.929 . S
C335 C332 1.461 . S
C335 C334 1.474 . S
C336 C331 1.342 . S
C336 C334 1.285 . S
C336 H355 0.930 . S
C337 C340 1.424 . S
C337 C342 1.245 . S
C337 C343 1.428 . S
C338 C341 1.260 . S
C338 C342 1.477 . S
C338 H356 0.932 . S
C339 C340 1.384 . S
C339 C341 1.479 . S
C339 H357 0.929 . S
C340 C337 1.424 . S
C340 C339 1.384 . S
C340 H358 0.928 . S
C341 C338 1.260 . S
C341 C339 1.479 . S
C342 C337 1.245 . S
C342 C338 1.477 . S
C342 H359 0.932 . S
C343 U326 2.882 . S
C343 C337 1.428 . S
C343 O346 1.301 . S
C343 O347 1.282 . S
O344 U326 2.441 . S
O344 C330 1.249 . S
O345 U326 2.420 . S
O345 C330 1.202 . S
O346 U326 2.455 . S
O346 C343 1.301 . S
O347 U326 2.449 . S
O347 C343 1.282 . S
H348 C321 0.931 . S
H349 C323 0.929 . S
H350 C324 0.930 . S
H351 C325 0.931 . S
H352 C332 0.932 . S
H353 C333 0.930 . S
H354 C334 0.929 . S
H355 C336 0.930 . S
H356 C338 0.932 . S
H357 C339 0.929 . S
H358 C340 0.928 . S
H359 C342 0.932 . S
C360 C361 1.264 . S
C360 C365 1.479 . S
C360 C370 1.465 . S
C361 C360 1.264 . S
C361 C363 1.339 . S
C361 H388 0.931 . S
C362 C363 1.395 . S
C362 C364 1.320 . S
C363 C361 1.339 . S
C363 C362 1.395 . S
C363 H389 0.929 . S
C364 C362 1.320 . S
C364 C365 1.405 . S
C364 H390 0.930 . S
C365 C360 1.479 . S
C365 C364 1.405 . S
C365 H391 0.931 . S
U366 O367 2.454 . S
U366 O368 2.458 . S
U366 C369 2.984 . S
U366 C370 2.847 . S
U366 C383 2.882 . S
U366 O384 2.441 . S
U366 O385 2.420 . S
U366 O386 2.455 . S
U366 O387 2.449 . S
O367 U366 2.454 . S
O367 C369 1.353 . S
O368 U366 2.458 . S
O368 C369 1.286 . S
C369 U366 2.984 . S
C369 O367 1.353 . S
C369 O368 1.286 . S
C369 C371 1.363 . S
C370 C360 1.465 . S
C370 U366 2.847 . S
C370 O384 1.249 . S
C370 O385 1.202 . S
C371 C369 1.363 . S
C371 C373 1.408 . S
C371 C376 1.342 . S
C372 C373 1.310 . S
C372 C375 1.461 . S
C372 H392 0.932 . S
C373 C371 1.408 . S
C373 C372 1.310 . S
C373 H393 0.930 . S
C374 C375 1.474 . S
C374 C376 1.285 . S
C374 H394 0.929 . S
C375 C372 1.461 . S
C375 C374 1.474 . S
C376 C371 1.342 . S
C376 C374 1.285 . S
C376 H395 0.930 . S
C377 C380 1.424 . S
C377 C382 1.245 . S
C377 C383 1.428 . S
C378 C381 1.260 . S
C378 C382 1.477 . S
C378 H396 0.932 . S
C379 C380 1.384 . S
C379 C381 1.479 . S
C379 H397 0.929 . S
C380 C377 1.424 . S
C380 C379 1.384 . S
C380 H398 0.928 . S
C381 C378 1.260 . S
C381 C379 1.479 . S
C382 C377 1.245 . S
C382 C378 1.477 . S
C382 H399 0.932 . S
C383 U366 2.882 . S
C383 C377 1.428 . S
C383 O386 1.301 . S
C383 O387 1.282 . S
O384 U366 2.441 . S
O384 C370 1.249 . S
O385 U366 2.420 . S
O385 C370 1.202 . S
O386 U366 2.455 . S
O386 C383 1.301 . S
O387 U366 2.449 . S
O387 C383 1.282 . S
H388 C361 0.931 . S
H389 C363 0.929 . S
H390 C364 0.930 . S
H391 C365 0.931 . S
H392 C372 0.932 . S
H393 C373 0.930 . S
H394 C374 0.929 . S
H395 C376 0.930 . S
H396 C378 0.932 . S
H397 C379 0.929 . S
H398 C380 0.928 . S
H399 C382 0.932 . S
C400 C401 1.264 . S
C400 C405 1.479 . S
C400 C410 1.465 . S
C401 C400 1.264 . S
C401 C403 1.339 . S
C401 H428 0.931 . S
C402 C403 1.395 . S
C402 C404 1.320 . S
C403 C401 1.339 . S
C403 C402 1.395 . S
C403 H429 0.929 . S
C404 C402 1.320 . S
C404 C405 1.405 . S
C404 H430 0.930 . S
C405 C400 1.479 . S
C405 C404 1.405 . S
C405 H431 0.931 . S
U406 O407 2.454 . S
U406 O408 2.458 . S
U406 C409 2.984 . S
U406 C410 2.847 . S
U406 C423 2.882 . S
U406 O424 2.441 . S
U406 O425 2.420 . S
U406 O426 2.455 . S
U406 O427 2.449 . S
O407 U406 2.454 . S
O407 C409 1.353 . S
O408 U406 2.458 . S
O408 C409 1.286 . S
C409 U406 2.984 . S
C409 O407 1.353 . S
C409 O408 1.286 . S
C409 C411 1.363 . S
C410 C400 1.465 . S
C410 U406 2.847 . S
C410 O424 1.249 . S
C410 O425 1.202 . S
C411 C409 1.363 . S
C411 C413 1.408 . S
C411 C416 1.342 . S
C412 C413 1.310 . S
C412 C415 1.461 . S
C412 H432 0.932 . S
C413 C411 1.408 . S
C413 C412 1.310 . S
C413 H433 0.930 . S
C414 C415 1.474 . S
C414 C416 1.285 . S
C414 H434 0.929 . S
C415 C412 1.461 . S
C415 C414 1.474 . S
C416 C411 1.342 . S
C416 C414 1.285 . S
C416 H435 0.930 . S
C417 C420 1.424 . S
C417 C422 1.245 . S
C417 C423 1.428 . S
C418 C421 1.260 . S
C418 C422 1.477 . S
C418 H436 0.932 . S
C419 C420 1.384 . S
C419 C421 1.479 . S
C419 H437 0.929 . S
C420 C417 1.424 . S
C420 C419 1.384 . S
C420 H438 0.928 . S
C421 C418 1.260 . S
C421 C419 1.479 . S
C422 C417 1.245 . S
C422 C418 1.477 . S
C422 H439 0.932 . S
C423 U406 2.882 . S
C423 C417 1.428 . S
C423 O426 1.301 . S
C423 O427 1.282 . S
O424 U406 2.441 . S
O424 C410 1.249 . S
O425 U406 2.420 . S
O425 C410 1.202 . S
O426 U406 2.455 . S
O426 C423 1.301 . S
O427 U406 2.449 . S
O427 C423 1.282 . S
H428 C401 0.931 . S
H429 C403 0.929 . S
H430 C404 0.930 . S
H431 C405 0.931 . S
H432 C412 0.932 . S
H433 C413 0.930 . S
H434 C414 0.929 . S
H435 C416 0.930 . S
H436 C418 0.932 . S
H437 C419 0.929 . S
H438 C420 0.928 . S
H439 C422 0.932 . S
C440 C441 1.264 . S
C440 C445 1.479 . S
C440 C450 1.465 . S
C441 C440 1.264 . S
C441 C443 1.339 . S
C441 H468 0.931 . S
C442 C443 1.395 . S
C442 C444 1.320 . S
C443 C441 1.339 . S
C443 C442 1.395 . S
C443 H469 0.929 . S
C444 C442 1.320 . S
C444 C445 1.405 . S
C444 H470 0.930 . S
C445 C440 1.479 . S
C445 C444 1.405 . S
C445 H471 0.931 . S
U446 O447 2.454 . S
U446 O448 2.458 . S
U446 C449 2.984 . S
U446 C450 2.847 . S
U446 C463 2.882 . S
U446 O464 2.441 . S
U446 O465 2.420 . S
U446 O466 2.455 . S
U446 O467 2.449 . S
O447 U446 2.454 . S
O447 C449 1.353 . S
O448 U446 2.458 . S
O448 C449 1.286 . S
C449 U446 2.984 . S
C449 O447 1.353 . S
C449 O448 1.286 . S
C449 C451 1.363 . S
C450 C440 1.465 . S
C450 U446 2.847 . S
C450 O464 1.249 . S
C450 O465 1.202 . S
C451 C449 1.363 . S
C451 C453 1.408 . S
C451 C456 1.342 . S
C452 C453 1.310 . S
C452 C455 1.461 . S
C452 H472 0.932 . S
C453 C451 1.408 . S
C453 C452 1.310 . S
C453 H473 0.930 . S
C454 C455 1.474 . S
C454 C456 1.285 . S
C454 H474 0.929 . S
C455 C452 1.461 . S
C455 C454 1.474 . S
C456 C451 1.342 . S
C456 C454 1.285 . S
C456 H475 0.930 . S
C457 C460 1.424 . S
C457 C462 1.245 . S
C457 C463 1.428 . S
C458 C461 1.260 . S
C458 C462 1.477 . S
C458 H476 0.932 . S
C459 C460 1.384 . S
C459 C461 1.479 . S
C459 H477 0.929 . S
C460 C457 1.424 . S
C460 C459 1.384 . S
C460 H478 0.928 . S
C461 C458 1.260 . S
C461 C459 1.479 . S
C462 C457 1.245 . S
C462 C458 1.477 . S
C462 H479 0.932 . S
C463 U446 2.882 . S
C463 C457 1.428 . S
C463 O466 1.301 . S
C463 O467 1.282 . S
O464 U446 2.441 . S
O464 C450 1.249 . S
O465 U446 2.420 . S
O465 C450 1.202 . S
O466 U446 2.455 . S
O466 C463 1.301 . S
O467 U446 2.449 . S
O467 C463 1.282 . S
H468 C441 0.931 . S
H469 C443 0.929 . S
H470 C444 0.930 . S
H471 C445 0.931 . S
H472 C452 0.932 . S
H473 C453 0.930 . S
H474 C454 0.929 . S
H475 C456 0.930 . S
H476 C458 0.932 . S
H477 C459 0.929 . S
H478 C460 0.928 . S
H479 C462 0.932 . S
C480 C481 1.264 . S
C480 C485 1.479 . S
C480 C490 1.465 . S
C481 C480 1.264 . S
C481 C483 1.339 . S
C481 H508 0.931 . S
C482 C483 1.395 . S
C482 C484 1.320 . S
C483 C481 1.339 . S
C483 C482 1.395 . S
C483 H509 0.929 . S
C484 C482 1.320 . S
C484 C485 1.405 . S
C484 H510 0.930 . S
C485 C480 1.479 . S
C485 C484 1.405 . S
C485 H511 0.931 . S
U486 O487 2.454 . S
U486 O488 2.458 . S
U486 C489 2.984 . S
U486 C490 2.847 . S
U486 C503 2.882 . S
U486 O504 2.441 . S
U486 O505 2.420 . S
U486 O506 2.455 . S
U486 O507 2.449 . S
O487 U486 2.454 . S
O487 C489 1.353 . S
O488 U486 2.458 . S
O488 C489 1.286 . S
C489 U486 2.984 . S
C489 O487 1.353 . S
C489 O488 1.286 . S
C489 C491 1.363 . S
C490 C480 1.465 . S
C490 U486 2.847 . S
C490 O504 1.249 . S
C490 O505 1.202 . S
C491 C489 1.363 . S
C491 C493 1.408 . S
C491 C496 1.342 . S
C492 C493 1.310 . S
C492 C495 1.461 . S
C492 H512 0.932 . S
C493 C491 1.408 . S
C493 C492 1.310 . S
C493 H513 0.930 . S
C494 C495 1.474 . S
C494 C496 1.285 . S
C494 H514 0.929 . S
C495 C492 1.461 . S
C495 C494 1.474 . S
C496 C491 1.342 . S
C496 C494 1.285 . S
C496 H515 0.930 . S
C497 C500 1.424 . S
C497 C502 1.245 . S
C497 C503 1.428 . S
C498 C501 1.260 . S
C498 C502 1.477 . S
C498 H516 0.932 . S
C499 C500 1.384 . S
C499 C501 1.479 . S
C499 H517 0.929 . S
C500 C497 1.424 . S
C500 C499 1.384 . S
C500 H518 0.928 . S
C501 C498 1.260 . S
C501 C499 1.479 . S
C502 C497 1.245 . S
C502 C498 1.477 . S
C502 H519 0.932 . S
C503 U486 2.882 . S
C503 C497 1.428 . S
C503 O506 1.301 . S
C503 O507 1.282 . S
O504 U486 2.441 . S
O504 C490 1.249 . S
O505 U486 2.420 . S
O505 C490 1.202 . S
O506 U486 2.455 . S
O506 C503 1.301 . S
O507 U486 2.449 . S
O507 C503 1.282 . S
H508 C481 0.931 . S
H509 C483 0.929 . S
H510 C484 0.930 . S
H511 C485 0.931 . S
H512 C492 0.932 . S
H513 C493 0.930 . S
H514 C494 0.929 . S
H515 C496 0.930 . S
H516 C498 0.932 . S
H517 C499 0.929 . S
H518 C500 0.928 . S
H519 C502 0.932 . S
C520 C521 1.264 . S
C520 C525 1.479 . S
C520 C530 1.465 . S
C521 C520 1.264 . S
C521 C523 1.339 . S
C521 H548 0.931 . S
C522 C523 1.395 . S
C522 C524 1.320 . S
C523 C521 1.339 . S
C523 C522 1.395 . S
C523 H549 0.929 . S
C524 C522 1.320 . S
C524 C525 1.405 . S
C524 H550 0.930 . S
C525 C520 1.479 . S
C525 C524 1.405 . S
C525 H551 0.931 . S
U526 O527 2.454 . S
U526 O528 2.458 . S
U526 C529 2.984 . S
U526 C530 2.847 . S
U526 C543 2.882 . S
U526 O544 2.441 . S
U526 O545 2.420 . S
U526 O546 2.455 . S
U526 O547 2.449 . S
O527 U526 2.454 . S
O527 C529 1.353 . S
O528 U526 2.458 . S
O528 C529 1.286 . S
C529 U526 2.984 . S
C529 O527 1.353 . S
C529 O528 1.286 . S
C529 C531 1.363 . S
C530 C520 1.465 . S
C530 U526 2.847 . S
C530 O544 1.249 . S
C530 O545 1.202 . S
C531 C529 1.363 . S
C531 C533 1.408 . S
C531 C536 1.342 . S
C532 C533 1.310 . S
C532 C535 1.461 . S
C532 H552 0.932 . S
C533 C531 1.408 . S
C533 C532 1.310 . S
C533 H553 0.930 . S
C534 C535 1.474 . S
C534 C536 1.285 . S
C534 H554 0.929 . S
C535 C532 1.461 . S
C535 C534 1.474 . S
C536 C531 1.342 . S
C536 C534 1.285 . S
C536 H555 0.930 . S
C537 C540 1.424 . S
C537 C542 1.245 . S
C537 C543 1.428 . S
C538 C541 1.260 . S
C538 C542 1.477 . S
C538 H556 0.932 . S
C539 C540 1.384 . S
C539 C541 1.479 . S
C539 H557 0.929 . S
C540 C537 1.424 . S
C540 C539 1.384 . S
C540 H558 0.928 . S
C541 C538 1.260 . S
C541 C539 1.479 . S
C542 C537 1.245 . S
C542 C538 1.477 . S
C542 H559 0.932 . S
C543 U526 2.882 . S
C543 C537 1.428 . S
C543 O546 1.301 . S
C543 O547 1.282 . S
O544 U526 2.441 . S
O544 C530 1.249 . S
O545 U526 2.420 . S
O545 C530 1.202 . S
O546 U526 2.455 . S
O546 C543 1.301 . S
O547 U526 2.449 . S
O547 C543 1.282 . S
H548 C521 0.931 . S
H549 C523 0.929 . S
H550 C524 0.930 . S
H551 C525 0.931 . S
H552 C532 0.932 . S
H553 C533 0.930 . S
H554 C534 0.929 . S
H555 C536 0.930 . S
H556 C538 0.932 . S
H557 C539 0.929 . S
H558 C540 0.928 . S
H559 C542 0.932 . S
C560 C561 1.264 . S
C560 C565 1.479 . S
C560 C570 1.465 . S
C561 C560 1.264 . S
C561 C563 1.339 . S
C561 H588 0.931 . S
C562 C563 1.395 . S
C562 C564 1.320 . S
C563 C561 1.339 . S
C563 C562 1.395 . S
C563 H589 0.929 . S
C564 C562 1.320 . S
C564 C565 1.405 . S
C564 H590 0.930 . S
C565 C560 1.479 . S
C565 C564 1.405 . S
C565 H591 0.931 . S
U566 O567 2.454 . S
U566 O568 2.458 . S
U566 C569 2.984 . S
U566 C570 2.847 . S
U566 C583 2.882 . S
U566 O584 2.441 . S
U566 O585 2.420 . S
U566 O586 2.455 . S
U566 O587 2.449 . S
O567 U566 2.454 . S
O567 C569 1.353 . S
O568 U566 2.458 . S
O568 C569 1.286 . S
C569 U566 2.984 . S
C569 O567 1.353 . S
C569 O568 1.286 . S
C569 C571 1.363 . S
C570 C560 1.465 . S
C570 U566 2.847 . S
C570 O584 1.249 . S
C570 O585 1.202 . S
C571 C569 1.363 . S
C571 C573 1.408 . S
C571 C576 1.342 . S
C572 C573 1.310 . S
C572 C575 1.461 . S
C572 H592 0.932 . S
C573 C571 1.408 . S
C573 C572 1.310 . S
C573 H593 0.930 . S
C574 C575 1.474 . S
C574 C576 1.285 . S
C574 H594 0.929 . S
C575 C572 1.461 . S
C575 C574 1.474 . S
C576 C571 1.342 . S
C576 C574 1.285 . S
C576 H595 0.930 . S
C577 C580 1.424 . S
C577 C582 1.245 . S
C577 C583 1.428 . S
C578 C581 1.260 . S
C578 C582 1.477 . S
C578 H596 0.932 . S
C579 C580 1.384 . S
C579 C581 1.479 . S
C579 H597 0.929 . S
C580 C577 1.424 . S
C580 C579 1.384 . S
C580 H598 0.928 . S
C581 C578 1.260 . S
C581 C579 1.479 . S
C582 C577 1.245 . S
C582 C578 1.477 . S
C582 H599 0.932 . S
C583 U566 2.882 . S
C583 C577 1.428 . S
C583 O586 1.301 . S
C583 O587 1.282 . S
O584 U566 2.441 . S
O584 C570 1.249 . S
O585 U566 2.420 . S
O585 C570 1.202 . S
O586 U566 2.455 . S
O586 C583 1.301 . S
O587 U566 2.449 . S
O587 C583 1.282 . S
H588 C561 0.931 . S
H589 C563 0.929 . S
H590 C564 0.930 . S
H591 C565 0.931 . S
H592 C572 0.932 . S
H593 C573 0.930 . S
H594 C574 0.929 . S
H595 C576 0.930 . S
H596 C578 0.932 . S
H597 C579 0.929 . S
H598 C580 0.928 . S
H599 C582 0.932 . S
C600 C601 1.264 . S
C600 C605 1.479 . S
C600 C610 1.465 . S
C601 C600 1.264 . S
C601 C603 1.339 . S
C601 H628 0.931 . S
C602 C603 1.395 . S
C602 C604 1.320 . S
C603 C601 1.339 . S
C603 C602 1.395 . S
C603 H629 0.929 . S
C604 C602 1.320 . S
C604 C605 1.405 . S
C604 H630 0.930 . S
C605 C600 1.479 . S
C605 C604 1.405 . S
C605 H631 0.931 . S
U606 O607 2.454 . S
U606 O608 2.458 . S
U606 C609 2.984 . S
U606 C610 2.847 . S
U606 C623 2.882 . S
U606 O624 2.441 . S
U606 O625 2.420 . S
U606 O626 2.455 . S
U606 O627 2.449 . S
O607 U606 2.454 . S
O607 C609 1.353 . S
O608 U606 2.458 . S
O608 C609 1.286 . S
C609 U606 2.984 . S
C609 O607 1.353 . S
C609 O608 1.286 . S
C609 C611 1.363 . S
C610 C600 1.465 . S
C610 U606 2.847 . S
C610 O624 1.249 . S
C610 O625 1.202 . S
C611 C609 1.363 . S
C611 C613 1.408 . S
C611 C616 1.342 . S
C612 C613 1.310 . S
C612 C615 1.461 . S
C612 H632 0.932 . S
C613 C611 1.408 . S
C613 C612 1.310 . S
C613 H633 0.930 . S
C614 C615 1.474 . S
C614 C616 1.285 . S
C614 H634 0.929 . S
C615 C612 1.461 . S
C615 C614 1.474 . S
C616 C611 1.342 . S
C616 C614 1.285 . S
C616 H635 0.930 . S
C617 C620 1.424 . S
C617 C622 1.245 . S
C617 C623 1.428 . S
C618 C621 1.260 . S
C618 C622 1.477 . S
C618 H636 0.932 . S
C619 C620 1.384 . S
C619 C621 1.479 . S
C619 H637 0.929 . S
C620 C617 1.424 . S
C620 C619 1.384 . S
C620 H638 0.928 . S
C621 C618 1.260 . S
C621 C619 1.479 . S
C622 C617 1.245 . S
C622 C618 1.477 . S
C622 H639 0.932 . S
C623 U606 2.882 . S
C623 C617 1.428 . S
C623 O626 1.301 . S
C623 O627 1.282 . S
O624 U606 2.441 . S
O624 C610 1.249 . S
O625 U606 2.420 . S
O625 C610 1.202 . S
O626 U606 2.455 . S
O626 C623 1.301 . S
O627 U606 2.449 . S
O627 C623 1.282 . S
H628 C601 0.931 . S
H629 C603 0.929 . S
H630 C604 0.930 . S
H631 C605 0.931 . S
H632 C612 0.932 . S
H633 C613 0.930 . S
H634 C614 0.929 . S
H635 C616 0.930 . S
H636 C618 0.932 . S
H637 C619 0.929 . S
H638 C620 0.928 . S
H639 C622 0.932 . S
C640 C641 1.264 . S
C640 C645 1.479 . S
C640 C650 1.465 . S
C641 C640 1.264 . S
C641 C643 1.339 . S
C641 H668 0.931 . S
C642 C643 1.395 . S
C642 C644 1.320 . S
C643 C641 1.339 . S
C643 C642 1.395 . S
C643 H669 0.929 . S
C644 C642 1.320 . S
C644 C645 1.405 . S
C644 H670 0.930 . S
C645 C640 1.479 . S
C645 C644 1.405 . S
C645 H671 0.931 . S
U646 O647 2.454 . S
U646 O648 2.458 . S
U646 C649 2.984 . S
U646 C650 2.847 . S
U646 C663 2.882 . S
U646 O664 2.441 . S
U646 O665 2.420 . S
U646 O666 2.455 . S
U646 O667 2.449 . S
O647 U646 2.454 . S
O647 C649 1.353 . S
O648 U646 2.458 . S
O648 C649 1.286 . S
C649 U646 2.984 . S
C649 O647 1.353 . S
C649 O648 1.286 . S
C649 C651 1.363 . S
C650 C640 1.465 . S
C650 U646 2.847 . S
C650 O664 1.249 . S
C650 O665 1.202 . S
C651 C649 1.363 . S
C651 C653 1.408 . S
C651 C656 1.342 . S
C652 C653 1.310 . S
C652 C655 1.461 . S
C652 H672 0.932 . S
C653 C651 1.408 . S
C653 C652 1.310 . S
C653 H673 0.930 . S
C654 C655 1.474 . S
C654 C656 1.285 . S
C654 H674 0.929 . S
C655 C652 1.461 . S
C655 C654 1.474 . S
C656 C651 1.342 . S
C656 C654 1.285 . S
C656 H675 0.930 . S
C657 C660 1.424 . S
C657 C662 1.245 . S
C657 C663 1.428 . S
C658 C661 1.260 . S
C658 C662 1.477 . S
C658 H676 0.932 . S
C659 C660 1.384 . S
C659 C661 1.479 . S
C659 H677 0.929 . S
C660 C657 1.424 . S
C660 C659 1.384 . S
C660 H678 0.928 . S
C661 C658 1.260 . S
C661 C659 1.479 . S
C662 C657 1.245 . S
C662 C658 1.477 . S
C662 H679 0.932 . S
C663 U646 2.882 . S
C663 C657 1.428 . S
C663 O666 1.301 . S
C663 O667 1.282 . S
O664 U646 2.441 . S
O664 C650 1.249 . S
O665 U646 2.420 . S
O665 C650 1.202 . S
O666 U646 2.455 . S
O666 C663 1.301 . S
O667 U646 2.449 . S
O667 C663 1.282 . S
H668 C641 0.931 . S
H669 C643 0.929 . S
H670 C644 0.930 . S
H671 C645 0.931 . S
H672 C652 0.932 . S
H673 C653 0.930 . S
H674 C654 0.929 . S
H675 C656 0.930 . S
H676 C658 0.932 . S
H677 C659 0.929 . S
H678 C660 0.928 . S
H679 C662 0.932 . S
C680 C681 1.264 . S
C680 C685 1.479 . S
C680 C690 1.465 . S
C681 C680 1.264 . S
C681 C683 1.339 . S
C681 H708 0.931 . S
C682 C683 1.395 . S
C682 C684 1.320 . S
C683 C681 1.339 . S
C683 C682 1.395 . S
C683 H709 0.929 . S
C684 C682 1.320 . S
C684 C685 1.405 . S
C684 H710 0.930 . S
C685 C680 1.479 . S
C685 C684 1.405 . S
C685 H711 0.931 . S
U686 O687 2.454 . S
U686 O688 2.458 . S
U686 C689 2.984 . S
U686 C690 2.847 . S
U686 C703 2.882 . S
U686 O704 2.441 . S
U686 O705 2.420 . S
U686 O706 2.455 . S
U686 O707 2.449 . S
O687 U686 2.454 . S
O687 C689 1.353 . S
O688 U686 2.458 . S
O688 C689 1.286 . S
C689 U686 2.984 . S
C689 O687 1.353 . S
C689 O688 1.286 . S
C689 C691 1.363 . S
C690 C680 1.465 . S
C690 U686 2.847 . S
C690 O704 1.249 . S
C690 O705 1.202 . S
C691 C689 1.363 . S
C691 C693 1.408 . S
C691 C696 1.342 . S
C692 C693 1.310 . S
C692 C695 1.461 . S
C692 H712 0.932 . S
C693 C691 1.408 . S
C693 C692 1.310 . S
C693 H713 0.930 . S
C694 C695 1.474 . S
C694 C696 1.285 . S
C694 H714 0.929 . S
C695 C692 1.461 . S
C695 C694 1.474 . S
C696 C691 1.342 . S
C696 C694 1.285 . S
C696 H715 0.930 . S
C697 C700 1.424 . S
C697 C702 1.245 . S
C697 C703 1.428 . S
C698 C701 1.260 . S
C698 C702 1.477 . S
C698 H716 0.932 . S
C699 C700 1.384 . S
C699 C701 1.479 . S
C699 H717 0.929 . S
C700 C697 1.424 . S
C700 C699 1.384 . S
C700 H718 0.928 . S
C701 C698 1.260 . S
C701 C699 1.479 . S
C702 C697 1.245 . S
C702 C698 1.477 . S
C702 H719 0.932 . S
C703 U686 2.882 . S
C703 C697 1.428 . S
C703 O706 1.301 . S
C703 O707 1.282 . S
O704 U686 2.441 . S
O704 C690 1.249 . S
O705 U686 2.420 . S
O705 C690 1.202 . S
O706 U686 2.455 . S
O706 C703 1.301 . S
O707 U686 2.449 . S
O707 C703 1.282 . S
H708 C681 0.931 . S
H709 C683 0.929 . S
H710 C684 0.930 . S
H711 C685 0.931 . S
H712 C692 0.932 . S
H713 C693 0.930 . S
H714 C694 0.929 . S
H715 C696 0.930 . S
H716 C698 0.932 . S
H717 C699 0.929 . S
H718 C700 0.928 . S
H719 C702 0.932 . S
C720 C721 1.264 . S
C720 C725 1.479 . S
C720 C730 1.465 . S
C721 C720 1.264 . S
C721 C723 1.339 . S
C721 H748 0.931 . S
C722 C723 1.395 . S
C722 C724 1.320 . S
C723 C721 1.339 . S
C723 C722 1.395 . S
C723 H749 0.929 . S
C724 C722 1.320 . S
C724 C725 1.405 . S
C724 H750 0.930 . S
C725 C720 1.479 . S
C725 C724 1.405 . S
C725 H751 0.931 . S
U726 O727 2.454 . S
U726 O728 2.458 . S
U726 C729 2.984 . S
U726 C730 2.847 . S
U726 C743 2.882 . S
U726 O744 2.441 . S
U726 O745 2.420 . S
U726 O746 2.455 . S
U726 O747 2.449 . S
O727 U726 2.454 . S
O727 C729 1.353 . S
O728 U726 2.458 . S
O728 C729 1.286 . S
C729 U726 2.984 . S
C729 O727 1.353 . S
C729 O728 1.286 . S
C729 C731 1.363 . S
C730 C720 1.465 . S
C730 U726 2.847 . S
C730 O744 1.249 . S
C730 O745 1.202 . S
C731 C729 1.363 . S
C731 C733 1.408 . S
C731 C736 1.342 . S
C732 C733 1.310 . S
C732 C735 1.461 . S
C732 H752 0.932 . S
C733 C731 1.408 . S
C733 C732 1.310 . S
C733 H753 0.930 . S
C734 C735 1.474 . S
C734 C736 1.285 . S
C734 H754 0.929 . S
C735 C732 1.461 . S
C735 C734 1.474 . S
C736 C731 1.342 . S
C736 C734 1.285 . S
C736 H755 0.930 . S
C737 C740 1.424 . S
C737 C742 1.245 . S
C737 C743 1.428 . S
C738 C741 1.260 . S
C738 C742 1.477 . S
C738 H756 0.932 . S
C739 C740 1.384 . S
C739 C741 1.479 . S
C739 H757 0.929 . S
C740 C737 1.424 . S
C740 C739 1.384 . S
C740 H758 0.928 . S
C741 C738 1.260 . S
C741 C739 1.479 . S
C742 C737 1.245 . S
C742 C738 1.477 . S
C742 H759 0.932 . S
C743 U726 2.882 . S
C743 C737 1.428 . S
C743 O746 1.301 . S
C743 O747 1.282 . S
O744 U726 2.441 . S
O744 C730 1.249 . S
O745 U726 2.420 . S
O745 C730 1.202 . S
O746 U726 2.455 . S
O746 C743 1.301 . S
O747 U726 2.449 . S
O747 C743 1.282 . S
H748 C721 0.931 . S
H749 C723 0.929 . S
H750 C724 0.930 . S
H751 C725 0.931 . S
H752 C732 0.932 . S
H753 C733 0.930 . S
H754 C734 0.929 . S
H755 C736 0.930 . S
H756 C738 0.932 . S
H757 C739 0.929 . S
H758 C740 0.928 . S
H759 C742 0.932 . S
C760 C761 1.264 . S
C760 C765 1.479 . S
C760 C770 1.465 . S
C761 C760 1.264 . S
C761 C763 1.339 . S
C761 H788 0.931 . S
C762 C763 1.395 . S
C762 C764 1.320 . S
C763 C761 1.339 . S
C763 C762 1.395 . S
C763 H789 0.929 . S
C764 C762 1.320 . S
C764 C765 1.405 . S
C764 H790 0.930 . S
C765 C760 1.479 . S
C765 C764 1.405 . S
C765 H791 0.931 . S
U766 O767 2.454 . S
U766 O768 2.458 . S
U766 C769 2.984 . S
U766 C770 2.847 . S
U766 C783 2.882 . S
U766 O784 2.441 . S
U766 O785 2.420 . S
U766 O786 2.455 . S
U766 O787 2.449 . S
O767 U766 2.454 . S
O767 C769 1.353 . S
O768 U766 2.458 . S
O768 C769 1.286 . S
C769 U766 2.984 . S
C769 O767 1.353 . S
C769 O768 1.286 . S
C769 C771 1.363 . S
C770 C760 1.465 . S
C770 U766 2.847 . S
C770 O784 1.249 . S
C770 O785 1.202 . S
C771 C769 1.363 . S
C771 C773 1.408 . S
C771 C776 1.342 . S
C772 C773 1.310 . S
C772 C775 1.461 . S
C772 H792 0.932 . S
C773 C771 1.408 . S
C773 C772 1.310 . S
C773 H793 0.930 . S
C774 C775 1.474 . S
C774 C776 1.285 . S
C774 H794 0.929 . S
C775 C772 1.461 . S
C775 C774 1.474 . S
C776 C771 1.342 . S
C776 C774 1.285 . S
C776 H795 0.930 . S
C777 C780 1.424 . S
C777 C782 1.245 . S
C777 C783 1.428 . S
C778 C781 1.260 . S
C778 C782 1.477 . S
C778 H796 0.932 . S
C779 C780 1.384 . S
C779 C781 1.479 . S
C779 H797 0.929 . S
C780 C777 1.424 . S
C780 C779 1.384 . S
C780 H798 0.928 . S
C781 C778 1.260 . S
C781 C779 1.479 . S
C782 C777 1.245 . S
C782 C778 1.477 . S
C782 H799 0.932 . S
C783 U766 2.882 . S
C783 C777 1.428 . S
C783 O786 1.301 . S
C783 O787 1.282 . S
O784 U766 2.441 . S
O784 C770 1.249 . S
O785 U766 2.420 . S
O785 C770 1.202 . S
O786 U766 2.455 . S
O786 C783 1.301 . S
O787 U766 2.449 . S
O787 C783 1.282 . S
H788 C761 0.931 . S
H789 C763 0.929 . S
H790 C764 0.930 . S
H791 C765 0.931 . S
H792 C772 0.932 . S
H793 C773 0.930 . S
H794 C774 0.929 . S
H795 C776 0.930 . S
H796 C778 0.932 . S
H797 C779 0.929 . S
H798 C780 0.928 . S
H799 C782 0.932 . S
C800 C801 1.264 . S
C800 C805 1.479 . S
C800 C810 1.465 . S
C801 C800 1.264 . S
C801 C803 1.339 . S
C801 H828 0.931 . S
C802 C803 1.395 . S
C802 C804 1.320 . S
C803 C801 1.339 . S
C803 C802 1.395 . S
C803 H829 0.929 . S
C804 C802 1.320 . S
C804 C805 1.405 . S
C804 H830 0.930 . S
C805 C800 1.479 . S
C805 C804 1.405 . S
C805 H831 0.931 . S
U806 O807 2.454 . S
U806 O808 2.458 . S
U806 C809 2.984 . S
U806 C810 2.847 . S
U806 C823 2.882 . S
U806 O824 2.441 . S
U806 O825 2.420 . S
U806 O826 2.455 . S
U806 O827 2.449 . S
O807 U806 2.454 . S
O807 C809 1.353 . S
O808 U806 2.458 . S
O808 C809 1.286 . S
C809 U806 2.984 . S
C809 O807 1.353 . S
C809 O808 1.286 . S
C809 C811 1.363 . S
C810 C800 1.465 . S
C810 U806 2.847 . S
C810 O824 1.249 . S
C810 O825 1.202 . S
C811 C809 1.363 . S
C811 C813 1.408 . S
C811 C816 1.342 . S
C812 C813 1.310 . S
C812 C815 1.461 . S
C812 H832 0.932 . S
C813 C811 1.408 . S
C813 C812 1.310 . S
C813 H833 0.930 . S
C814 C815 1.474 . S
C814 C816 1.285 . S
C814 H834 0.929 . S
C815 C812 1.461 . S
C815 C814 1.474 . S
C816 C811 1.342 . S
C816 C814 1.285 . S
C816 H835 0.930 . S
C817 C820 1.424 . S
C817 C822 1.245 . S
C817 C823 1.428 . S
C818 C821 1.260 . S
C818 C822 1.477 . S
C818 H836 0.932 . S
C819 C820 1.384 . S
C819 C821 1.479 . S
C819 H837 0.929 . S
C820 C817 1.424 . S
C820 C819 1.384 . S
C820 H838 0.928 . S
C821 C818 1.260 . S
C821 C819 1.479 . S
C822 C817 1.245 . S
C822 C818 1.477 . S
C822 H839 0.932 . S
C823 U806 2.882 . S
C823 C817 1.428 . S
C823 O826 1.301 . S
C823 O827 1.282 . S
O824 U806 2.441 . S
O824 C810 1.249 . S
O825 U806 2.420 . S
O825 C810 1.202 . S
O826 U806 2.455 . S
O826 C823 1.301 . S
O827 U806 2.449 . S
O827 C823 1.282 . S
H828 C801 0.931 . S
H829 C803 0.929 . S
H830 C804 0.930 . S
H831 C805 0.931 . S
H832 C812 0.932 . S
H833 C813 0.930 . S
H834 C814 0.929 . S
H835 C816 0.930 . S
H836 C818 0.932 . S
H837 C819 0.929 . S
H838 C820 0.928 . S
H839 C822 0.932 . S
C840 C841 1.264 . S
C840 C845 1.479 . S
C840 C850 1.465 . S
C841 C840 1.264 . S
C841 C843 1.339 . S
C841 H868 0.931 . S
C842 C843 1.395 . S
C842 C844 1.320 . S
C843 C841 1.339 . S
C843 C842 1.395 . S
C843 H869 0.929 . S
C844 C842 1.320 . S
C844 C845 1.405 . S
C844 H870 0.930 . S
C845 C840 1.479 . S
C845 C844 1.405 . S
C845 H871 0.931 . S
U846 O847 2.454 . S
U846 O848 2.458 . S
U846 C849 2.984 . S
U846 C850 2.847 . S
U846 C863 2.882 . S
U846 O864 2.441 . S
U846 O865 2.420 . S
U846 O866 2.455 . S
U846 O867 2.449 . S
O847 U846 2.454 . S
O847 C849 1.353 . S
O848 U846 2.458 . S
O848 C849 1.286 . S
C849 U846 2.984 . S
C849 O847 1.353 . S
C849 O848 1.286 . S
C849 C851 1.363 . S
C850 C840 1.465 . S
C850 U846 2.847 . S
C850 O864 1.249 . S
C850 O865 1.202 . S
C851 C849 1.363 . S
C851 C853 1.408 . S
C851 C856 1.342 . S
C852 C853 1.310 . S
C852 C855 1.461 . S
C852 H872 0.932 . S
C853 C851 1.408 . S
C853 C852 1.310 . S
C853 H873 0.930 . S
C854 C855 1.474 . S
C854 C856 1.285 . S
C854 H874 0.929 . S
C855 C852 1.461 . S
C855 C854 1.474 . S
C856 C851 1.342 . S
C856 C854 1.285 . S
C856 H875 0.930 . S
C857 C860 1.424 . S
C857 C862 1.245 . S
C857 C863 1.428 . S
C858 C861 1.260 . S
C858 C862 1.477 . S
C858 H876 0.932 . S
C859 C860 1.384 . S
C859 C861 1.479 . S
C859 H877 0.929 . S
C860 C857 1.424 . S
C860 C859 1.384 . S
C860 H878 0.928 . S
C861 C858 1.260 . S
C861 C859 1.479 . S
C862 C857 1.245 . S
C862 C858 1.477 . S
C862 H879 0.932 . S
C863 U846 2.882 . S
C863 C857 1.428 . S
C863 O866 1.301 . S
C863 O867 1.282 . S
O864 U846 2.441 . S
O864 C850 1.249 . S
O865 U846 2.420 . S
O865 C850 1.202 . S
O866 U846 2.455 . S
O866 C863 1.301 . S
O867 U846 2.449 . S
O867 C863 1.282 . S
H868 C841 0.931 . S
H869 C843 0.929 . S
H870 C844 0.930 . S
H871 C845 0.931 . S
H872 C852 0.932 . S
H873 C853 0.930 . S
H874 C854 0.929 . S
H875 C856 0.930 . S
H876 C858 0.932 . S
H877 C859 0.929 . S
H878 C860 0.928 . S
H879 C862 0.932 . S
C880 C881 1.264 . S
C880 C885 1.479 . S
C880 C890 1.465 . S
C881 C880 1.264 . S
C881 C883 1.339 . S
C881 H908 0.931 . S
C882 C883 1.395 . S
C882 C884 1.320 . S
C883 C881 1.339 . S
C883 C882 1.395 . S
C883 H909 0.929 . S
C884 C882 1.320 . S
C884 C885 1.405 . S
C884 H910 0.930 . S
C885 C880 1.479 . S
C885 C884 1.405 . S
C885 H911 0.931 . S
U886 O887 2.454 . S
U886 O888 2.458 . S
U886 C889 2.984 . S
U886 C890 2.847 . S
U886 C903 2.882 . S
U886 O904 2.441 . S
U886 O905 2.420 . S
U886 O906 2.455 . S
U886 O907 2.449 . S
O887 U886 2.454 . S
O887 C889 1.353 . S
O888 U886 2.458 . S
O888 C889 1.286 . S
C889 U886 2.984 . S
C889 O887 1.353 . S
C889 O888 1.286 . S
C889 C891 1.363 . S
C890 C880 1.465 . S
C890 U886 2.847 . S
C890 O904 1.249 . S
C890 O905 1.202 . S
C891 C889 1.363 . S
C891 C893 1.408 . S
C891 C896 1.342 . S
C892 C893 1.310 . S
C892 C895 1.461 . S
C892 H912 0.932 . S
C893 C891 1.408 . S
C893 C892 1.310 . S
C893 H913 0.930 . S
C894 C895 1.474 . S
C894 C896 1.285 . S
C894 H914 0.929 . S
C895 C892 1.461 . S
C895 C894 1.474 . S
C896 C891 1.342 . S
C896 C894 1.285 . S
C896 H915 0.930 . S
C897 C900 1.424 . S
C897 C902 1.245 . S
C897 C903 1.428 . S
C898 C901 1.260 . S
C898 C902 1.477 . S
C898 H916 0.932 . S
C899 C900 1.384 . S
C899 C901 1.479 . S
C899 H917 0.929 . S
C900 C897 1.424 . S
C900 C899 1.384 . S
C900 H918 0.928 . S
C901 C898 1.260 . S
C901 C899 1.479 . S
C902 C897 1.245 . S
C902 C898 1.477 . S
C902 H919 0.932 . S
C903 U886 2.882 . S
C903 C897 1.428 . S
C903 O906 1.301 . S
C903 O907 1.282 . S
O904 U886 2.441 . S
O904 C890 1.249 . S
O905 U886 2.420 . S
O905 C890 1.202 . S
O906 U886 2.455 . S
O906 C903 1.301 . S
O907 U886 2.449 . S
O907 C903 1.282 . S
H908 C881 0.931 . S
H909 C883 0.929 . S
H910 C884 0.930 . S
H911 C885 0.931 . S
H912 C892 0.932 . S
H913 C893 0.930 . S
H914 C894 0.929 . S
H915 C896 0.930 . S
H916 C898 0.932 . S
H917 C899 0.929 . S
H918 C900 0.928 . S
H919 C902 0.932 . S
C920 C921 1.264 . S
C920 C925 1.479 . S
C920 C930 1.465 . S
C921 C920 1.264 . S
C921 C923 1.339 . S
C921 H948 0.931 . S
C922 C923 1.395 . S
C922 C924 1.320 . S
C923 C921 1.339 . S
C923 C922 1.395 . S
C923 H949 0.929 . S
C924 C922 1.320 . S
C924 C925 1.405 . S
C924 H950 0.930 . S
C925 C920 1.479 . S
C925 C924 1.405 . S
C925 H951 0.931 . S
U926 O927 2.454 . S
U926 O928 2.458 . S
U926 C929 2.984 . S
U926 C930 2.847 . S
U926 C943 2.882 . S
U926 O944 2.441 . S
U926 O945 2.420 . S
U926 O946 2.455 . S
U926 O947 2.449 . S
O927 U926 2.454 . S
O927 C929 1.353 . S
O928 U926 2.458 . S
O928 C929 1.286 . S
C929 U926 2.984 . S
C929 O927 1.353 . S
C929 O928 1.286 . S
C929 C931 1.363 . S
C930 C920 1.465 . S
C930 U926 2.847 . S
C930 O944 1.249 . S
C930 O945 1.202 . S
C931 C929 1.363 . S
C931 C933 1.408 . S
C931 C936 1.342 . S
C932 C933 1.310 . S
C932 C935 1.461 . S
C932 H952 0.932 . S
C933 C931 1.408 . S
C933 C932 1.310 . S
C933 H953 0.930 . S
C934 C935 1.474 . S
C934 C936 1.285 . S
C934 H954 0.929 . S
C935 C932 1.461 . S
C935 C934 1.474 . S
C936 C931 1.342 . S
C936 C934 1.285 . S
C936 H955 0.930 . S
C937 C940 1.424 . S
C937 C942 1.245 . S
C937 C943 1.428 . S
C938 C941 1.260 . S
C938 C942 1.477 . S
C938 H956 0.932 . S
C939 C940 1.384 . S
C939 C941 1.479 . S
C939 H957 0.929 . S
C940 C937 1.424 . S
C940 C939 1.384 . S
C940 H958 0.928 . S
C941 C938 1.260 . S
C941 C939 1.479 . S
C942 C937 1.245 . S
C942 C938 1.477 . S
C942 H959 0.932 . S
C943 U926 2.882 . S
C943 C937 1.428 . S
C943 O946 1.301 . S
C943 O947 1.282 . S
O944 U926 2.441 . S
O944 C930 1.249 . S
O945 U926 2.420 . S
O945 C930 1.202 . S
O946 U926 2.455 . S
O946 C943 1.301 . S
O947 U926 2.449 . S
O947 C943 1.282 . S
H948 C921 0.931 . S
H949 C923 0.929 . S
H950 C924 0.930 . S
H951 C925 0.931 . S
H952 C932 0.932 . S
H953 C933 0.930 . S
H954 C934 0.929 . S
H955 C936 0.930 . S
H956 C938 0.932 . S
H957 C939 0.929 . S
H958 C940 0.928 . S
H959 C942 0.932 . S
C960 C961 1.264 . S
C960 C965 1.479 . S
C960 C970 1.465 . S
C961 C960 1.264 . S
C961 C963 1.339 . S
C961 H988 0.931 . S
C962 C963 1.395 . S
C962 C964 1.320 . S
C963 C961 1.339 . S
C963 C962 1.395 . S
C963 H989 0.929 . S
C964 C962 1.320 . S
C964 C965 1.405 . S
C964 H990 0.930 . S
C965 C960 1.479 . S
C965 C964 1.405 . S
C965 H991 0.931 . S
U966 O967 2.454 . S
U966 O968 2.458 . S
U966 C969 2.984 . S
U966 C970 2.847 . S
U966 C983 2.882 . S
U966 O984 2.441 . S
U966 O985 2.420 . S
U966 O986 2.455 . S
U966 O987 2.449 . S
O967 U966 2.454 . S
O967 C969 1.353 . S
O968 U966 2.458 . S
O968 C969 1.286 . S
C969 U966 2.984 . S
C969 O967 1.353 . S
C969 O968 1.286 . S
C969 C971 1.363 . S
C970 C960 1.465 . S
C970 U966 2.847 . S
C970 O984 1.249 . S
C970 O985 1.202 . S
C971 C969 1.363 . S
C971 C973 1.408 . S
C971 C976 1.342 . S
C972 C973 1.310 . S
C972 C975 1.461 . S
C972 H992 0.932 . S
C973 C971 1.408 . S
C973 C972 1.310 . S
C973 H993 0.930 . S
C974 C975 1.474 . S
C974 C976 1.285 . S
C974 H994 0.929 . S
C975 C972 1.461 . S
C975 C974 1.474 . S
C976 C971 1.342 . S
C976 C974 1.285 . S
C976 H995 0.930 . S
C977 C980 1.424 . S
C977 C982 1.245 . S
C977 C983 1.428 . S
C978 C981 1.260 . S
C978 C982 1.477 . S
C978 H996 0.932 . S
C979 C980 1.384 . S
C979 C981 1.479 . S
C979 H997 0.929 . S
C980 C977 1.424 . S
C980 C979 1.384 . S
C980 H998 0.928 . S
C981 C978 1.260 . S
C981 C979 1.479 . S
C982 C977 1.245 . S
C982 C978 1.477 . S
C982 H999 0.932 . S
C983 U966 2.882 . S
C983 C977 1.428 . S
C983 O986 1.301 . S
C983 O987 1.282 . S
O984 U966 2.441 . S
O984 C970 1.249 . S
O985 U966 2.420 . S
O985 C970 1.202 . S
O986 U966 2.455 . S
O986 C983 1.301 . S
O987 U966 2.449 . S
O987 C983 1.282 . S
H988 C961 0.931 . S
H989 C963 0.929 . S
H990 C964 0.930 . S
H991 C965 0.931 . S
H992 C972 0.932 . S
H993 C973 0.930 . S
H994 C974 0.929 . S
H995 C976 0.930 . S
H996 C978 0.932 . S
H997 C979 0.929 . S
H998 C980 0.928 . S
H999 C982 0.932 . S
C1000 C1001 1.264 . S
C1000 C1005 1.479 . S
C1000 C1010 1.465 . S
C1001 C1000 1.264 . S
C1001 C1003 1.339 . S
C1001 H1028 0.931 . S
C1002 C1003 1.395 . S
C1002 C1004 1.320 . S
C1003 C1001 1.339 . S
C1003 C1002 1.395 . S
C1003 H1029 0.929 . S
C1004 C1002 1.320 . S
C1004 C1005 1.405 . S
C1004 H1030 0.930 . S
C1005 C1000 1.479 . S
C1005 C1004 1.405 . S
C1005 H1031 0.931 . S
U1006 O1007 2.454 . S
U1006 O1008 2.458 . S
U1006 C1009 2.984 . S
U1006 C1010 2.847 . S
U1006 C1023 2.882 . S
U1006 O1024 2.441 . S
U1006 O1025 2.420 . S
U1006 O1026 2.455 . S
U1006 O1027 2.449 . S
O1007 U1006 2.454 . S
O1007 C1009 1.353 . S
O1008 U1006 2.458 . S
O1008 C1009 1.286 . S
C1009 U1006 2.984 . S
C1009 O1007 1.353 . S
C1009 O1008 1.286 . S
C1009 C1011 1.363 . S
C1010 C1000 1.465 . S
C1010 U1006 2.847 . S
C1010 O1024 1.249 . S
C1010 O1025 1.202 . S
C1011 C1009 1.363 . S
C1011 C1013 1.408 . S
C1011 C1016 1.342 . S
C1012 C1013 1.310 . S
C1012 C1015 1.461 . S
C1012 H1032 0.932 . S
C1013 C1011 1.408 . S
C1013 C1012 1.310 . S
C1013 H1033 0.930 . S
C1014 C1015 1.474 . S
C1014 C1016 1.285 . S
C1014 H1034 0.929 . S
C1015 C1012 1.461 . S
C1015 C1014 1.474 . S
C1016 C1011 1.342 . S
C1016 C1014 1.285 . S
C1016 H1035 0.930 . S
C1017 C1020 1.424 . S
C1017 C1022 1.245 . S
C1017 C1023 1.428 . S
C1018 C1021 1.260 . S
C1018 C1022 1.477 . S
C1018 H1036 0.932 . S
C1019 C1020 1.384 . S
C1019 C1021 1.479 . S
C1019 H1037 0.929 . S
C1020 C1017 1.424 . S
C1020 C1019 1.384 . S
C1020 H1038 0.928 . S
C1021 C1018 1.260 . S
C1021 C1019 1.479 . S
C1022 C1017 1.245 . S
C1022 C1018 1.477 . S
C1022 H1039 0.932 . S
C1023 U1006 2.882 . S
C1023 C1017 1.428 . S
C1023 O1026 1.301 . S
C1023 O1027 1.282 . S
O1024 U1006 2.441 . S
O1024 C1010 1.249 . S
O1025 U1006 2.420 . S
O1025 C1010 1.202 . S
O1026 U1006 2.455 . S
O1026 C1023 1.301 . S
O1027 U1006 2.449 . S
O1027 C1023 1.282 . S
H1028 C1001 0.931 . S
H1029 C1003 0.929 . S
H1030 C1004 0.930 . S
H1031 C1005 0.931 . S
H1032 C1012 0.932 . S
H1033 C1013 0.930 . S
H1034 C1014 0.929 . S
H1035 C1016 0.930 . S
H1036 C1018 0.932 . S
H1037 C1019 0.929 . S
H1038 C1020 0.928 . S
H1039 C1022 0.932 . S
C1040 C1041 1.264 . S
C1040 C1045 1.479 . S
C1040 C1050 1.465 . S
C1041 C1040 1.264 . S
C1041 C1043 1.339 . S
C1041 H1068 0.931 . S
C1042 C1043 1.395 . S
C1042 C1044 1.320 . S
C1043 C1041 1.339 . S
C1043 C1042 1.395 . S
C1043 H1069 0.929 . S
C1044 C1042 1.320 . S
C1044 C1045 1.405 . S
C1044 H1070 0.930 . S
C1045 C1040 1.479 . S
C1045 C1044 1.405 . S
C1045 H1071 0.931 . S
U1046 O1047 2.454 . S
U1046 O1048 2.458 . S
U1046 C1049 2.984 . S
U1046 C1050 2.847 . S
U1046 C1063 2.882 . S
U1046 O1064 2.441 . S
U1046 O1065 2.420 . S
U1046 O1066 2.455 . S
U1046 O1067 2.449 . S
O1047 U1046 2.454 . S
O1047 C1049 1.353 . S
O1048 U1046 2.458 . S
O1048 C1049 1.286 . S
C1049 U1046 2.984 . S
C1049 O1047 1.353 . S
C1049 O1048 1.286 . S
C1049 C1051 1.363 . S
C1050 C1040 1.465 . S
C1050 U1046 2.847 . S
C1050 O1064 1.249 . S
C1050 O1065 1.202 . S
C1051 C1049 1.363 . S
C1051 C1053 1.408 . S
C1051 C1056 1.342 . S
C1052 C1053 1.310 . S
C1052 C1055 1.461 . S
C1052 H1072 0.932 . S
C1053 C1051 1.408 . S
C1053 C1052 1.310 . S
C1053 H1073 0.930 . S
C1054 C1055 1.474 . S
C1054 C1056 1.285 . S
C1054 H1074 0.929 . S
C1055 C1052 1.461 . S
C1055 C1054 1.474 . S
C1056 C1051 1.342 . S
C1056 C1054 1.285 . S
C1056 H1075 0.930 . S
C1057 C1060 1.424 . S
C1057 C1062 1.245 . S
C1057 C1063 1.428 . S
C1058 C1061 1.260 . S
C1058 C1062 1.477 . S
C1058 H1076 0.932 . S
C1059 C1060 1.384 . S
C1059 C1061 1.479 . S
C1059 H1077 0.929 . S
C1060 C1057 1.424 . S
C1060 C1059 1.384 . S
C1060 H1078 0.928 . S
C1061 C1058 1.260 . S
C1061 C1059 1.479 . S
C1062 C1057 1.245 . S
C1062 C1058 1.477 . S
C1062 H1079 0.932 . S
C1063 U1046 2.882 . S
C1063 C1057 1.428 . S
C1063 O1066 1.301 . S
C1063 O1067 1.282 . S
O1064 U1046 2.441 . S
O1064 C1050 1.249 . S
O1065 U1046 2.420 . S
O1065 C1050 1.202 . S
O1066 U1046 2.455 . S
O1066 C1063 1.301 . S
O1067 U1046 2.449 . S
O1067 C1063 1.282 . S
H1068 C1041 0.931 . S
H1069 C1043 0.929 . S
H1070 C1044 0.930 . S
H1071 C1045 0.931 . S
H1072 C1052 0.932 . S
H1073 C1053 0.930 . S
H1074 C1054 0.929 . S
H1075 C1056 0.930 . S
H1076 C1058 0.932 . S
H1077 C1059 0.929 . S
H1078 C1060 0.928 . S
H1079 C1062 0.932 . S
C1080 C1081 1.264 . S
C1080 C1085 1.479 . S
C1080 C1090 1.465 . S
C1081 C1080 1.264 . S
C1081 C1083 1.339 . S
C1081 H1108 0.931 . S
C1082 C1083 1.395 . S
C1082 C1084 1.320 . S
C1083 C1081 1.339 . S
C1083 C1082 1.395 . S
C1083 H1109 0.929 . S
C1084 C1082 1.320 . S
C1084 C1085 1.405 . S
C1084 H1110 0.930 . S
C1085 C1080 1.479 . S
C1085 C1084 1.405 . S
C1085 H1111 0.931 . S
U1086 O1087 2.454 . S
U1086 O1088 2.458 . S
U1086 C1089 2.984 . S
U1086 C1090 2.847 . S
U1086 C1103 2.882 . S
U1086 O1104 2.441 . S
U1086 O1105 2.420 . S
U1086 O1106 2.455 . S
U1086 O1107 2.449 . S
O1087 U1086 2.454 . S
O1087 C1089 1.353 . S
O1088 U1086 2.458 . S
O1088 C1089 1.286 . S
C1089 U1086 2.984 . S
C1089 O1087 1.353 . S
C1089 O1088 1.286 . S
C1089 C1091 1.363 . S
C1090 C1080 1.465 . S
C1090 U1086 2.847 . S
C1090 O1104 1.249 . S
C1090 O1105 1.202 . S
C1091 C1089 1.363 . S
C1091 C1093 1.408 . S
C1091 C1096 1.342 . S
C1092 C1093 1.310 . S
C1092 C1095 1.461 . S
C1092 H1112 0.932 . S
C1093 C1091 1.408 . S
C1093 C1092 1.310 . S
C1093 H1113 0.930 . S
C1094 C1095 1.474 . S
C1094 C1096 1.285 . S
C1094 H1114 0.929 . S
C1095 C1092 1.461 . S
C1095 C1094 1.474 . S
C1096 C1091 1.342 . S
C1096 C1094 1.285 . S
C1096 H1115 0.930 . S
C1097 C1100 1.424 . S
C1097 C1102 1.245 . S
C1097 C1103 1.428 . S
C1098 C1101 1.260 . S
C1098 C1102 1.477 . S
C1098 H1116 0.932 . S
C1099 C1100 1.384 . S
C1099 C1101 1.479 . S
C1099 H1117 0.929 . S
C1100 C1097 1.424 . S
C1100 C1099 1.384 . S
C1100 H1118 0.928 . S
C1101 C1098 1.260 . S
C1101 C1099 1.479 . S
C1102 C1097 1.245 . S
C1102 C1098 1.477 . S
C1102 H1119 0.932 . S
C1103 U1086 2.882 . S
C1103 C1097 1.428 . S
C1103 O1106 1.301 . S
C1103 O1107 1.282 . S
O1104 U1086 2.441 . S
O1104 C1090 1.249 . S
O1105 U1086 2.420 . S
O1105 C1090 1.202 . S
O1106 U1086 2.455 . S
O1106 C1103 1.301 . S
O1107 U1086 2.449 . S
O1107 C1103 1.282 . S
H1108 C1081 0.931 . S
H1109 C1083 0.929 . S
H1110 C1084 0.930 . S
H1111 C1085 0.931 . S
H1112 C1092 0.932 . S
H1113 C1093 0.930 . S
H1114 C1094 0.929 . S
H1115 C1096 0.930 . S
H1116 C1098 0.932 . S
H1117 C1099 0.929 . S
H1118 C1100 0.928 . S
H1119 C1102 0.932 . S
C1120 C1121 1.264 . S
C1120 C1125 1.479 . S
C1120 C1130 1.465 . S
C1121 C1120 1.264 . S
C1121 C1123 1.339 . S
C1121 H1148 0.931 . S
C1122 C1123 1.395 . S
C1122 C1124 1.320 . S
C1123 C1121 1.339 . S
C1123 C1122 1.395 . S
C1123 H1149 0.929 . S
C1124 C1122 1.320 . S
C1124 C1125 1.405 . S
C1124 H1150 0.930 . S
C1125 C1120 1.479 . S
C1125 C1124 1.405 . S
C1125 H1151 0.931 . S
U1126 O1127 2.454 . S
U1126 O1128 2.458 . S
U1126 C1129 2.984 . S
U1126 C1130 2.847 . S
U1126 C1143 2.882 . S
U1126 O1144 2.441 . S
U1126 O1145 2.420 . S
U1126 O1146 2.455 . S
U1126 O1147 2.449 . S
O1127 U1126 2.454 . S
O1127 C1129 1.353 . S
O1128 U1126 2.458 . S
O1128 C1129 1.286 . S
C1129 U1126 2.984 . S
C1129 O1127 1.353 . S
C1129 O1128 1.286 . S
C1129 C1131 1.363 . S
C1130 C1120 1.465 . S
C1130 U1126 2.847 . S
C1130 O1144 1.249 . S
C1130 O1145 1.202 . S
C1131 C1129 1.363 . S
C1131 C1133 1.408 . S
C1131 C1136 1.342 . S
C1132 C1133 1.310 . S
C1132 C1135 1.461 . S
C1132 H1152 0.932 . S
C1133 C1131 1.408 . S
C1133 C1132 1.310 . S
C1133 H1153 0.930 . S
C1134 C1135 1.474 . S
C1134 C1136 1.285 . S
C1134 H1154 0.929 . S
C1135 C1132 1.461 . S
C1135 C1134 1.474 . S
C1136 C1131 1.342 . S
C1136 C1134 1.285 . S
C1136 H1155 0.930 . S
C1137 C1140 1.424 . S
C1137 C1142 1.245 . S
C1137 C1143 1.428 . S
C1138 C1141 1.260 . S
C1138 C1142 1.477 . S
C1138 H1156 0.932 . S
C1139 C1140 1.384 . S
C1139 C1141 1.479 . S
C1139 H1157 0.929 . S
C1140 C1137 1.424 . S
C1140 C1139 1.384 . S
C1140 H1158 0.928 . S
C1141 C1138 1.260 . S
C1141 C1139 1.479 . S
C1142 C1137 1.245 . S
C1142 C1138 1.477 . S
C1142 H1159 0.932 . S
C1143 U1126 2.882 . S
C1143 C1137 1.428 . S
C1143 O1146 1.301 . S
C1143 O1147 1.282 . S
O1144 U1126 2.441 . S
O1144 C1130 1.249 . S
O1145 U1126 2.420 . S
O1145 C1130 1.202 . S
O1146 U1126 2.455 . S
O1146 C1143 1.301 . S
O1147 U1126 2.449 . S
O1147 C1143 1.282 . S
H1148 C1121 0.931 . S
H1149 C1123 0.929 . S
H1150 C1124 0.930 . S
H1151 C1125 0.931 . S
H1152 C1132 0.932 . S
H1153 C1133 0.930 . S
H1154 C1134 0.929 . S
H1155 C1136 0.930 . S
H1156 C1138 0.932 . S
H1157 C1139 0.929 . S
H1158 C1140 0.928 . S
H1159 C1142 0.932 . S
C1160 C1161 1.264 . S
C1160 C1165 1.479 . S
C1160 C1170 1.465 . S
C1161 C1160 1.264 . S
C1161 C1163 1.339 . S
C1161 H1188 0.931 . S
C1162 C1163 1.395 . S
C1162 C1164 1.320 . S
C1163 C1161 1.339 . S
C1163 C1162 1.395 . S
C1163 H1189 0.929 . S
C1164 C1162 1.320 . S
C1164 C1165 1.405 . S
C1164 H1190 0.930 . S
C1165 C1160 1.479 . S
C1165 C1164 1.405 . S
C1165 H1191 0.931 . S
U1166 O1167 2.454 . S
U1166 O1168 2.458 . S
U1166 C1169 2.984 . S
U1166 C1170 2.847 . S
U1166 C1183 2.882 . S
U1166 O1184 2.441 . S
U1166 O1185 2.420 . S
U1166 O1186 2.455 . S
U1166 O1187 2.449 . S
O1167 U1166 2.454 . S
O1167 C1169 1.353 . S
O1168 U1166 2.458 . S
O1168 C1169 1.286 . S
C1169 U1166 2.984 . S
C1169 O1167 1.353 . S
C1169 O1168 1.286 . S
C1169 C1171 1.363 . S
C1170 C1160 1.465 . S
C1170 U1166 2.847 . S
C1170 O1184 1.249 . S
C1170 O1185 1.202 . S
C1171 C1169 1.363 . S
C1171 C1173 1.408 . S
C1171 C1176 1.342 . S
C1172 C1173 1.310 . S
C1172 C1175 1.461 . S
C1172 H1192 0.932 . S
C1173 C1171 1.408 . S
C1173 C1172 1.310 . S
C1173 H1193 0.930 . S
C1174 C1175 1.474 . S
C1174 C1176 1.285 . S
C1174 H1194 0.929 . S
C1175 C1172 1.461 . S
C1175 C1174 1.474 . S
C1176 C1171 1.342 . S
C1176 C1174 1.285 . S
C1176 H1195 0.930 . S
C1177 C1180 1.424 . S
C1177 C1182 1.245 . S
C1177 C1183 1.428 . S
C1178 C1181 1.260 . S
C1178 C1182 1.477 . S
C1178 H1196 0.932 . S
C1179 C1180 1.384 . S
C1179 C1181 1.479 . S
C1179 H1197 0.929 . S
C1180 C1177 1.424 . S
C1180 C1179 1.384 . S
C1180 H1198 0.928 . S
C1181 C1178 1.260 . S
C1181 C1179 1.479 . S
C1182 C1177 1.245 . S
C1182 C1178 1.477 . S
C1182 H1199 0.932 . S
C1183 U1166 2.882 . S
C1183 C1177 1.428 . S
C1183 O1186 1.301 . S
C1183 O1187 1.282 . S
O1184 U1166 2.441 . S
O1184 C1170 1.249 . S
O1185 U1166 2.420 . S
O1185 C1170 1.202 . S
O1186 U1166 2.455 . S
O1186 C1183 1.301 . S
O1187 U1166 2.449 . S
O1187 C1183 1.282 . S
H1188 C1161 0.931 . S
H1189 C1163 0.929 . S
H1190 C1164 0.930 . S
H1191 C1165 0.931 . S
H1192 C1172 0.932 . S
H1193 C1173 0.930 . S
H1194 C1174 0.929 . S
H1195 C1176 0.930 . S
H1196 C1178 0.932 . S
H1197 C1179 0.929 . S
H1198 C1180 0.928 . S
H1199 C1182 0.932 . S
C1200 C1201 1.264 . S
C1200 C1205 1.479 . S
C1200 C1210 1.465 . S
C1201 C1200 1.264 . S
C1201 C1203 1.339 . S
C1201 H1228 0.931 . S
C1202 C1203 1.395 . S
C1202 C1204 1.320 . S
C1203 C1201 1.339 . S
C1203 C1202 1.395 . S
C1203 H1229 0.929 . S
C1204 C1202 1.320 . S
C1204 C1205 1.405 . S
C1204 H1230 0.930 . S
C1205 C1200 1.479 . S
C1205 C1204 1.405 . S
C1205 H1231 0.931 . S
U1206 O1207 2.454 . S
U1206 O1208 2.458 . S
U1206 C1209 2.984 . S
U1206 C1210 2.847 . S
U1206 C1223 2.882 . S
U1206 O1224 2.441 . S
U1206 O1225 2.420 . S
U1206 O1226 2.455 . S
U1206 O1227 2.449 . S
O1207 U1206 2.454 . S
O1207 C1209 1.353 . S
O1208 U1206 2.458 . S
O1208 C1209 1.286 . S
C1209 U1206 2.984 . S
C1209 O1207 1.353 . S
C1209 O1208 1.286 . S
C1209 C1211 1.363 . S
C1210 C1200 1.465 . S
C1210 U1206 2.847 . S
C1210 O1224 1.249 . S
C1210 O1225 1.202 . S
C1211 C1209 1.363 . S
C1211 C1213 1.408 . S
C1211 C1216 1.342 . S
C1212 C1213 1.310 . S
C1212 C1215 1.461 . S
C1212 H1232 0.932 . S
C1213 C1211 1.408 . S
C1213 C1212 1.310 . S
C1213 H1233 0.930 . S
C1214 C1215 1.474 . S
C1214 C1216 1.285 . S
C1214 H1234 0.929 . S
C1215 C1212 1.461 . S
C1215 C1214 1.474 . S
C1216 C1211 1.342 . S
C1216 C1214 1.285 . S
C1216 H1235 0.930 . S
C1217 C1220 1.424 . S
C1217 C1222 1.245 . S
C1217 C1223 1.428 . S
C1218 C1221 1.260 . S
C1218 C1222 1.477 . S
C1218 H1236 0.932 . S
C1219 C1220 1.384 . S
C1219 C1221 1.479 . S
C1219 H1237 0.929 . S
C1220 C1217 1.424 . S
C1220 C1219 1.384 . S
C1220 H1238 0.928 . S
C1221 C1218 1.260 . S
C1221 C1219 1.479 . S
C1222 C1217 1.245 . S
C1222 C1218 1.477 . S
C1222 H1239 0.932 . S
C1223 U1206 2.882 . S
C1223 C1217 1.428 . S
C1223 O1226 1.301 . S
C1223 O1227 1.282 . S
O1224 U1206 2.441 . S
O1224 C1210 1.249 . S
O1225 U1206 2.420 . S
O1225 C1210 1.202 . S
O1226 U1206 2.455 . S
O1226 C1223 1.301 . S
O1227 U1206 2.449 . S
O1227 C1223 1.282 . S
H1228 C1201 0.931 . S
H1229 C1203 0.929 . S
H1230 C1204 0.930 . S
H1231 C1205 0.931 . S
H1232 C1212 0.932 . S
H1233 C1213 0.930 . S
H1234 C1214 0.929 . S
H1235 C1216 0.930 . S
H1236 C1218 0.932 . S
H1237 C1219 0.929 . S
H1238 C1220 0.928 . S
H1239 C1222 0.932 . S
C1240 C1241 1.264 . S
C1240 C1245 1.479 . S
C1240 C1250 1.465 . S
C1241 C1240 1.264 . S
C1241 C1243 1.339 . S
C1241 H1268 0.931 . S
C1242 C1243 1.395 . S
C1242 C1244 1.320 . S
C1243 C1241 1.339 . S
C1243 C1242 1.395 . S
C1243 H1269 0.929 . S
C1244 C1242 1.320 . S
C1244 C1245 1.405 . S
C1244 H1270 0.930 . S
C1245 C1240 1.479 . S
C1245 C1244 1.405 . S
C1245 H1271 0.931 . S
U1246 O1247 2.454 . S
U1246 O1248 2.458 . S
U1246 C1249 2.984 . S
U1246 C1250 2.847 . S
U1246 C1263 2.882 . S
U1246 O1264 2.441 . S
U1246 O1265 2.420 . S
U1246 O1266 2.455 . S
U1246 O1267 2.449 . S
O1247 U1246 2.454 . S
O1247 C1249 1.353 . S
O1248 U1246 2.458 . S
O1248 C1249 1.286 . S
C1249 U1246 2.984 . S
C1249 O1247 1.353 . S
C1249 O1248 1.286 . S
C1249 C1251 1.363 . S
C1250 C1240 1.465 . S
C1250 U1246 2.847 . S
C1250 O1264 1.249 . S
C1250 O1265 1.202 . S
C1251 C1249 1.363 . S
C1251 C1253 1.408 . S
C1251 C1256 1.342 . S
C1252 C1253 1.310 . S
C1252 C1255 1.461 . S
C1252 H1272 0.932 . S
C1253 C1251 1.408 . S
C1253 C1252 1.310 . S
C1253 H1273 0.930 . S
C1254 C1255 1.474 . S
C1254 C1256 1.285 . S
C1254 H1274 0.929 . S
C1255 C1252 1.461 . S
C1255 C1254 1.474 . S
C1256 C1251 1.342 . S
C1256 C1254 1.285 . S
C1256 H1275 0.930 . S
C1257 C1260 1.424 . S
C1257 C1262 1.245 . S
C1257 C1263 1.428 . S
C1258 C1261 1.260 . S
C1258 C1262 1.477 . S
C1258 H1276 0.932 . S
C1259 C1260 1.384 . S
C1259 C1261 1.479 . S
C1259 H1277 0.929 . S
C1260 C1257 1.424 . S
C1260 C1259 1.384 . S
C1260 H1278 0.928 . S
C1261 C1258 1.260 . S
C1261 C1259 1.479 . S
C1262 C1257 1.245 . S
C1262 C1258 1.477 . S
C1262 H1279 0.932 . S
C1263 U1246 2.882 . S
C1263 C1257 1.428 . S
C1263 O1266 1.301 . S
C1263 O1267 1.282 . S
O1264 U1246 2.441 . S
O1264 C1250 1.249 . S
O1265 U1246 2.420 . S
O1265 C1250 1.202 . S
O1266 U1246 2.455 . S
O1266 C1263 1.301 . S
O1267 U1246 2.449 . S
O1267 C1263 1.282 . S
H1268 C1241 0.931 . S
H1269 C1243 0.929 . S
H1270 C1244 0.930 . S
H1271 C1245 0.931 . S
H1272 C1252 0.932 . S
H1273 C1253 0.930 . S
H1274 C1254 0.929 . S
H1275 C1256 0.930 . S
H1276 C1258 0.932 . S
H1277 C1259 0.929 . S
H1278 C1260 0.928 . S
H1279 C1262 0.932 . S
C1280 C1281 1.264 . S
C1280 C1285 1.479 . S
C1280 C1290 1.465 . S
C1281 C1280 1.264 . S
C1281 C1283 1.339 . S
C1281 H1308 0.931 . S
C1282 C1283 1.395 . S
C1282 C1284 1.320 . S
C1283 C1281 1.339 . S
C1283 C1282 1.395 . S
C1283 H1309 0.929 . S
C1284 C1282 1.320 . S
C1284 C1285 1.405 . S
C1284 H1310 0.930 . S
C1285 C1280 1.479 . S
C1285 C1284 1.405 . S
C1285 H1311 0.931 . S
U1286 O1287 2.454 . S
U1286 O1288 2.458 . S
U1286 C1289 2.984 . S
U1286 C1290 2.847 . S
U1286 C1303 2.882 . S
U1286 O1304 2.441 . S
U1286 O1305 2.420 . S
U1286 O1306 2.455 . S
U1286 O1307 2.449 . S
O1287 U1286 2.454 . S
O1287 C1289 1.353 . S
O1288 U1286 2.458 . S
O1288 C1289 1.286 . S
C1289 U1286 2.984 . S
C1289 O1287 1.353 . S
C1289 O1288 1.286 . S
C1289 C1291 1.363 . S
C1290 C1280 1.465 . S
C1290 U1286 2.847 . S
C1290 O1304 1.249 . S
C1290 O1305 1.202 . S
C1291 C1289 1.363 . S
C1291 C1293 1.408 . S
C1291 C1296 1.342 . S
C1292 C1293 1.310 . S
C1292 C1295 1.461 . S
C1292 H1312 0.932 . S
C1293 C1291 1.408 . S
C1293 C1292 1.310 . S
C1293 H1313 0.930 . S
C1294 C1295 1.474 . S
C1294 C1296 1.285 . S
C1294 H1314 0.929 . S
C1295 C1292 1.461 . S
C1295 C1294 1.474 . S
C1296 C1291 1.342 . S
C1296 C1294 1.285 . S
C1296 H1315 0.930 . S
C1297 C1300 1.424 . S
C1297 C1302 1.245 . S
C1297 C1303 1.428 . S
C1298 C1301 1.260 . S
C1298 C1302 1.477 . S
C1298 H1316 0.932 . S
C1299 C1300 1.384 . S
C1299 C1301 1.479 . S
C1299 H1317 0.929 . S
C1300 C1297 1.424 . S
C1300 C1299 1.384 . S
C1300 H1318 0.928 . S
C1301 C1298 1.260 . S
C1301 C1299 1.479 . S
C1302 C1297 1.245 . S
C1302 C1298 1.477 . S
C1302 H1319 0.932 . S
C1303 U1286 2.882 . S
C1303 C1297 1.428 . S
C1303 O1306 1.301 . S
C1303 O1307 1.282 . S
O1304 U1286 2.441 . S
O1304 C1290 1.249 . S
O1305 U1286 2.420 . S
O1305 C1290 1.202 . S
O1306 U1286 2.455 . S
O1306 C1303 1.301 . S
O1307 U1286 2.449 . S
O1307 C1303 1.282 . S
H1308 C1281 0.931 . S
H1309 C1283 0.929 . S
H1310 C1284 0.930 . S
H1311 C1285 0.931 . S
H1312 C1292 0.932 . S
H1313 C1293 0.930 . S
H1314 C1294 0.929 . S
H1315 C1296 0.930 . S
H1316 C1298 0.932 . S
H1317 C1299 0.929 . S
H1318 C1300 0.928 . S
H1319 C1302 0.932 . S
C1320 C1321 1.264 . S
C1320 C1325 1.479 . S
C1320 C1330 1.465 . S
C1321 C1320 1.264 . S
C1321 C1323 1.339 . S
C1321 H1348 0.931 . S
C1322 C1323 1.395 . S
C1322 C1324 1.320 . S
C1323 C1321 1.339 . S
C1323 C1322 1.395 . S
C1323 H1349 0.929 . S
C1324 C1322 1.320 . S
C1324 C1325 1.405 . S
C1324 H1350 0.930 . S
C1325 C1320 1.479 . S
C1325 C1324 1.405 . S
C1325 H1351 0.931 . S
U1326 O1327 2.454 . S
U1326 O1328 2.458 . S
U1326 C1329 2.984 . S
U1326 C1330 2.847 . S
U1326 C1343 2.882 . S
U1326 O1344 2.441 . S
U1326 O1345 2.420 . S
U1326 O1346 2.455 . S
U1326 O1347 2.449 . S
O1327 U1326 2.454 . S
O1327 C1329 1.353 . S
O1328 U1326 2.458 . S
O1328 C1329 1.286 . S
C1329 U1326 2.984 . S
C1329 O1327 1.353 . S
C1329 O1328 1.286 . S
C1329 C1331 1.363 . S
C1330 C1320 1.465 . S
C1330 U1326 2.847 . S
C1330 O1344 1.249 . S
C1330 O1345 1.202 . S
C1331 C1329 1.363 . S
C1331 C1333 1.408 . S
C1331 C1336 1.342 . S
C1332 C1333 1.310 . S
C1332 C1335 1.461 . S
C1332 H1352 0.932 . S
C1333 C1331 1.408 . S
C1333 C1332 1.310 . S
C1333 H1353 0.930 . S
C1334 C1335 1.474 . S
C1334 C1336 1.285 . S
C1334 H1354 0.929 . S
C1335 C1332 1.461 . S
C1335 C1334 1.474 . S
C1336 C1331 1.342 . S
C1336 C1334 1.285 . S
C1336 H1355 0.930 . S
C1337 C1340 1.424 . S
C1337 C1342 1.245 . S
C1337 C1343 1.428 . S
C1338 C1341 1.260 . S
C1338 C1342 1.477 . S
C1338 H1356 0.932 . S
C1339 C1340 1.384 . S
C1339 C1341 1.479 . S
C1339 H1357 0.929 . S
C1340 C1337 1.424 . S
C1340 C1339 1.384 . S
C1340 H1358 0.928 . S
C1341 C1338 1.260 . S
C1341 C1339 1.479 . S
C1342 C1337 1.245 . S
C1342 C1338 1.477 . S
C1342 H1359 0.932 . S
C1343 U1326 2.882 . S
C1343 C1337 1.428 . S
C1343 O1346 1.301 . S
C1343 O1347 1.282 . S
O1344 U1326 2.441 . S
O1344 C1330 1.249 . S
O1345 U1326 2.420 . S
O1345 C1330 1.202 . S
O1346 U1326 2.455 . S
O1346 C1343 1.301 . S
O1347 U1326 2.449 . S
O1347 C1343 1.282 . S
H1348 C1321 0.931 . S
H1349 C1323 0.929 . S
H1350 C1324 0.930 . S
H1351 C1325 0.931 . S
H1352 C1332 0.932 . S
H1353 C1333 0.930 . S
H1354 C1334 0.929 . S
H1355 C1336 0.930 . S
H1356 C1338 0.932 . S
H1357 C1339 0.929 . S
H1358 C1340 0.928 . S
H1359 C1342 0.932 . S
C1360 C1361 1.264 . S
C1360 C1365 1.479 . S
C1360 C1370 1.465 . S
C1361 C1360 1.264 . S
C1361 C1363 1.339 . S
C1361 H1388 0.931 . S
C1362 C1363 1.395 . S
C1362 C1364 1.320 . S
C1363 C1361 1.339 . S
C1363 C1362 1.395 . S
C1363 H1389 0.929 . S
C1364 C1362 1.320 . S
C1364 C1365 1.405 . S
C1364 H1390 0.930 . S
C1365 C1360 1.479 . S
C1365 C1364 1.405 . S
C1365 H1391 0.931 . S
U1366 O1367 2.454 . S
U1366 O1368 2.458 . S
U1366 C1369 2.984 . S
U1366 C1370 2.847 . S
U1366 C1383 2.882 . S
U1366 O1384 2.441 . S
U1366 O1385 2.420 . S
U1366 O1386 2.455 . S
U1366 O1387 2.449 . S
O1367 U1366 2.454 . S
O1367 C1369 1.353 . S
O1368 U1366 2.458 . S
O1368 C1369 1.286 . S
C1369 U1366 2.984 . S
C1369 O1367 1.353 . S
C1369 O1368 1.286 . S
C1369 C1371 1.363 . S
C1370 C1360 1.465 . S
C1370 U1366 2.847 . S
C1370 O1384 1.249 . S
C1370 O1385 1.202 . S
C1371 C1369 1.363 . S
C1371 C1373 1.408 . S
C1371 C1376 1.342 . S
C1372 C1373 1.310 . S
C1372 C1375 1.461 . S
C1372 H1392 0.932 . S
C1373 C1371 1.408 . S
C1373 C1372 1.310 . S
C1373 H1393 0.930 . S
C1374 C1375 1.474 . S
C1374 C1376 1.285 . S
C1374 H1394 0.929 . S
C1375 C1372 1.461 . S
C1375 C1374 1.474 . S
C1376 C1371 1.342 . S
C1376 C1374 1.285 . S
C1376 H1395 0.930 . S
C1377 C1380 1.424 . S
C1377 C1382 1.245 . S
C1377 C1383 1.428 . S
C1378 C1381 1.260 . S
C1378 C1382 1.477 . S
C1378 H1396 0.932 . S
C1379 C1380 1.384 . S
C1379 C1381 1.479 . S
C1379 H1397 0.929 . S
C1380 C1377 1.424 . S
C1380 C1379 1.384 . S
C1380 H1398 0.928 . S
C1381 C1378 1.260 . S
C1381 C1379 1.479 . S
C1382 C1377 1.245 . S
C1382 C1378 1.477 . S
C1382 H1399 0.932 . S
C1383 U1366 2.882 . S
C1383 C1377 1.428 . S
C1383 O1386 1.301 . S
C1383 O1387 1.282 . S
O1384 U1366 2.441 . S
O1384 C1370 1.249 . S
O1385 U1366 2.420 . S
O1385 C1370 1.202 . S
O1386 U1366 2.455 . S
O1386 C1383 1.301 . S
O1387 U1366 2.449 . S
O1387 C1383 1.282 . S
H1388 C1361 0.931 . S
H1389 C1363 0.929 . S
H1390 C1364 0.930 . S
H1391 C1365 0.931 . S
H1392 C1372 0.932 . S
H1393 C1373 0.930 . S
H1394 C1374 0.929 . S
H1395 C1376 0.930 . S
H1396 C1378 0.932 . S
H1397 C1379 0.929 . S
H1398 C1380 0.928 . S
H1399 C1382 0.932 . S
C1400 C1401 1.264 . S
C1400 C1405 1.479 . S
C1400 C1410 1.465 . S
C1401 C1400 1.264 . S
C1401 C1403 1.339 . S
C1401 H1428 0.931 . S
C1402 C1403 1.395 . S
C1402 C1404 1.320 . S
C1403 C1401 1.339 . S
C1403 C1402 1.395 . S
C1403 H1429 0.929 . S
C1404 C1402 1.320 . S
C1404 C1405 1.405 . S
C1404 H1430 0.930 . S
C1405 C1400 1.479 . S
C1405 C1404 1.405 . S
C1405 H1431 0.931 . S
U1406 O1407 2.454 . S
U1406 O1408 2.458 . S
U1406 C1409 2.984 . S
U1406 C1410 2.847 . S
U1406 C1423 2.882 . S
U1406 O1424 2.441 . S
U1406 O1425 2.420 . S
U1406 O1426 2.455 . S
U1406 O1427 2.449 . S
O1407 U1406 2.454 . S
O1407 C1409 1.353 . S
O1408 U1406 2.458 . S
O1408 C1409 1.286 . S
C1409 U1406 2.984 . S
C1409 O1407 1.353 . S
C1409 O1408 1.286 . S
C1409 C1411 1.363 . S
C1410 C1400 1.465 . S
C1410 U1406 2.847 . S
C1410 O1424 1.249 . S
C1410 O1425 1.202 . S
C1411 C1409 1.363 . S
C1411 C1413 1.408 . S
C1411 C1416 1.342 . S
C1412 C1413 1.310 . S
C1412 C1415 1.461 . S
C1412 H1432 0.932 . S
C1413 C1411 1.408 . S
C1413 C1412 1.310 . S
C1413 H1433 0.930 . S
C1414 C1415 1.474 . S
C1414 C1416 1.285 . S
C1414 H1434 0.929 . S
C1415 C1412 1.461 . S
C1415 C1414 1.474 . S
C1416 C1411 1.342 . S
C1416 C1414 1.285 . S
C1416 H1435 0.930 . S
C1417 C1420 1.424 . S
C1417 C1422 1.245 . S
C1417 C1423 1.428 . S
C1418 C1421 1.260 . S
C1418 C1422 1.477 . S
C1418 H1436 0.932 . S
C1419 C1420 1.384 . S
C1419 C1421 1.479 . S
C1419 H1437 0.929 . S
C1420 C1417 1.424 . S
C1420 C1419 1.384 . S
C1420 H1438 0.928 . S
C1421 C1418 1.260 . S
C1421 C1419 1.479 . S
C1422 C1417 1.245 . S
C1422 C1418 1.477 . S
C1422 H1439 0.932 . S
C1423 U1406 2.882 . S
C1423 C1417 1.428 . S
C1423 O1426 1.301 . S
C1423 O1427 1.282 . S
O1424 U1406 2.441 . S
O1424 C1410 1.249 . S
O1425 U1406 2.420 . S
O1425 C1410 1.202 . S
O1426 U1406 2.455 . S
O1426 C1423 1.301 . S
O1427 U1406 2.449 . S
O1427 C1423 1.282 . S
H1428 C1401 0.931 . S
H1429 C1403 0.929 . S
H1430 C1404 0.930 . S
H1431 C1405 0.931 . S
H1432 C1412 0.932 . S
H1433 C1413 0.930 . S
H1434 C1414 0.929 . S
H1435 C1416 0.930 . S
H1436 C1418 0.932 . S
H1437 C1419 0.929 . S
H1438 C1420 0.928 . S
H1439 C1422 0.932 . S
C1440 C1441 1.264 . S
C1440 C1445 1.479 . S
C1440 C1450 1.465 . S
C1441 C1440 1.264 . S
C1441 C1443 1.339 . S
C1441 H1468 0.931 . S
C1442 C1443 1.395 . S
C1442 C1444 1.320 . S
C1443 C1441 1.339 . S
C1443 C1442 1.395 . S
C1443 H1469 0.929 . S
C1444 C1442 1.320 . S
C1444 C1445 1.405 . S
C1444 H1470 0.930 . S
C1445 C1440 1.479 . S
C1445 C1444 1.405 . S
C1445 H1471 0.931 . S
U1446 O1447 2.454 . S
U1446 O1448 2.458 . S
U1446 C1449 2.984 . S
U1446 C1450 2.847 . S
U1446 C1463 2.882 . S
U1446 O1464 2.441 . S
U1446 O1465 2.420 . S
U1446 O1466 2.455 . S
U1446 O1467 2.449 . S
O1447 U1446 2.454 . S
O1447 C1449 1.353 . S
O1448 U1446 2.458 . S
O1448 C1449 1.286 . S
C1449 U1446 2.984 . S
C1449 O1447 1.353 . S
C1449 O1448 1.286 . S
C1449 C1451 1.363 . S
C1450 C1440 1.465 . S
C1450 U1446 2.847 . S
C1450 O1464 1.249 . S
C1450 O1465 1.202 . S
C1451 C1449 1.363 . S
C1451 C1453 1.408 . S
C1451 C1456 1.342 . S
C1452 C1453 1.310 . S
C1452 C1455 1.461 . S
C1452 H1472 0.932 . S
C1453 C1451 1.408 . S
C1453 C1452 1.310 . S
C1453 H1473 0.930 . S
C1454 C1455 1.474 . S
C1454 C1456 1.285 . S
C1454 H1474 0.929 . S
C1455 C1452 1.461 . S
C1455 C1454 1.474 . S
C1456 C1451 1.342 . S
C1456 C1454 1.285 . S
C1456 H1475 0.930 . S
C1457 C1460 1.424 . S
C1457 C1462 1.245 . S
C1457 C1463 1.428 . S
C1458 C1461 1.260 . S
C1458 C1462 1.477 . S
C1458 H1476 0.932 . S
C1459 C1460 1.384 . S
C1459 C1461 1.479 . S
C1459 H1477 0.929 . S
C1460 C1457 1.424 . S
C1460 C1459 1.384 . S
C1460 H1478 0.928 . S
C1461 C1458 1.260 . S
C1461 C1459 1.479 . S
C1462 C1457 1.245 . S
C1462 C1458 1.477 . S
C1462 H1479 0.932 . S
C1463 U1446 2.882 . S
C1463 C1457 1.428 . S
C1463 O1466 1.301 . S
C1463 O1467 1.282 . S
O1464 U1446 2.441 . S
O1464 C1450 1.249 . S
O1465 U1446 2.420 . S
O1465 C1450 1.202 . S
O1466 U1446 2.455 . S
O1466 C1463 1.301 . S
O1467 U1446 2.449 . S
O1467 C1463 1.282 . S
H1468 C1441 0.931 . S
H1469 C1443 0.929 . S
H1470 C1444 0.930 . S
H1471 C1445 0.931 . S
H1472 C1452 0.932 . S
H1473 C1453 0.930 . S
H1474 C1454 0.929 . S
H1475 C1456 0.930 . S
H1476 C1458 0.932 . S
H1477 C1459 0.929 . S
H1478 C1460 0.928 . S
H1479 C1462 0.932 . S
C1480 C1481 1.264 . S
C1480 C1485 1.479 . S
C1480 C1490 1.465 . S
C1481 C1480 1.264 . S
C1481 C1483 1.339 . S
C1481 H1508 0.931 . S
C1482 C1483 1.395 . S
C1482 C1484 1.320 . S
C1483 C1481 1.339 . S
C1483 C1482 1.395 . S
C1483 H1509 0.929 . S
C1484 C1482 1.320 . S
C1484 C1485 1.405 . S
C1484 H1510 0.930 . S
C1485 C1480 1.479 . S
C1485 C1484 1.405 . S
C1485 H1511 0.931 . S
U1486 O1487 2.454 . S
U1486 O1488 2.458 . S
U1486 C1489 2.984 . S
U1486 C1490 2.847 . S
U1486 C1503 2.882 . S
U1486 O1504 2.441 . S
U1486 O1505 2.420 . S
U1486 O1506 2.455 . S
U1486 O1507 2.449 . S
O1487 U1486 2.454 . S
O1487 C1489 1.353 . S
O1488 U1486 2.458 . S
O1488 C1489 1.286 . S
C1489 U1486 2.984 . S
C1489 O1487 1.353 . S
C1489 O1488 1.286 . S
C1489 C1491 1.363 . S
C1490 C1480 1.465 . S
C1490 U1486 2.847 . S
C1490 O1504 1.249 . S
C1490 O1505 1.202 . S
C1491 C1489 1.363 . S
C1491 C1493 1.408 . S
C1491 C1496 1.342 . S
C1492 C1493 1.310 . S
C1492 C1495 1.461 . S
C1492 H1512 0.932 . S
C1493 C1491 1.408 . S
C1493 C1492 1.310 . S
C1493 H1513 0.930 . S
C1494 C1495 1.474 . S
C1494 C1496 1.285 . S
C1494 H1514 0.929 . S
C1495 C1492 1.461 . S
C1495 C1494 1.474 . S
C1496 C1491 1.342 . S
C1496 C1494 1.285 . S
C1496 H1515 0.930 . S
C1497 C1500 1.424 . S
C1497 C1502 1.245 . S
C1497 C1503 1.428 . S
C1498 C1501 1.260 . S
C1498 C1502 1.477 . S
C1498 H1516 0.932 . S
C1499 C1500 1.384 . S
C1499 C1501 1.479 . S
C1499 H1517 0.929 . S
C1500 C1497 1.424 . S
C1500 C1499 1.384 . S
C1500 H1518 0.928 . S
C1501 C1498 1.260 . S
C1501 C1499 1.479 . S
C1502 C1497 1.245 . S
C1502 C1498 1.477 . S
C1502 H1519 0.932 . S
C1503 U1486 2.882 . S
C1503 C1497 1.428 . S
C1503 O1506 1.301 . S
C1503 O1507 1.282 . S
O1504 U1486 2.441 . S
O1504 C1490 1.249 . S
O1505 U1486 2.420 . S
O1505 C1490 1.202 . S
O1506 U1486 2.455 . S
O1506 C1503 1.301 . S
O1507 U1486 2.449 . S
O1507 C1503 1.282 . S
H1508 C1481 0.931 . S
H1509 C1483 0.929 . S
H1510 C1484 0.930 . S
H1511 C1485 0.931 . S
H1512 C1492 0.932 . S
H1513 C1493 0.930 . S
H1514 C1494 0.929 . S
H1515 C1496 0.930 . S
H1516 C1498 0.932 . S
H1517 C1499 0.929 . S
H1518 C1500 0.928 . S
H1519 C1502 0.932 . S
C1520 C1521 1.264 . S
C1520 C1525 1.479 . S
C1520 C1530 1.465 . S
C1521 C1520 1.264 . S
C1521 C1523 1.339 . S
C1521 H1548 0.931 . S
C1522 C1523 1.395 . S
C1522 C1524 1.320 . S
C1523 C1521 1.339 . S
C1523 C1522 1.395 . S
C1523 H1549 0.929 . S
C1524 C1522 1.320 . S
C1524 C1525 1.405 . S
C1524 H1550 0.930 . S
C1525 C1520 1.479 . S
C1525 C1524 1.405 . S
C1525 H1551 0.931 . S
U1526 O1527 2.454 . S
U1526 O1528 2.458 . S
U1526 C1529 2.984 . S
U1526 C1530 2.847 . S
U1526 C1543 2.882 . S
U1526 O1544 2.441 . S
U1526 O1545 2.420 . S
U1526 O1546 2.455 . S
U1526 O1547 2.449 . S
O1527 U1526 2.454 . S
O1527 C1529 1.353 . S
O1528 U1526 2.458 . S
O1528 C1529 1.286 . S
C1529 U1526 2.984 . S
C1529 O1527 1.353 . S
C1529 O1528 1.286 . S
C1529 C1531 1.363 . S
C1530 C1520 1.465 . S
C1530 U1526 2.847 . S
C1530 O1544 1.249 . S
C1530 O1545 1.202 . S
C1531 C1529 1.363 . S
C1531 C1533 1.408 . S
C1531 C1536 1.342 . S
C1532 C1533 1.310 . S
C1532 C1535 1.461 . S
C1532 H1552 0.932 . S
C1533 C1531 1.408 . S
C1533 C1532 1.310 . S
C1533 H1553 0.930 . S
C1534 C1535 1.474 . S
C1534 C1536 1.285 . S
C1534 H1554 0.929 . S
C1535 C1532 1.461 . S
C1535 C1534 1.474 . S
C1536 C1531 1.342 . S
C1536 C1534 1.285 . S
C1536 H1555 0.930 . S
C1537 C1540 1.424 . S
C1537 C1542 1.245 . S
C1537 C1543 1.428 . S
C1538 C1541 1.260 . S
C1538 C1542 1.477 . S
C1538 H1556 0.932 . S
C1539 C1540 1.384 . S
C1539 C1541 1.479 . S
C1539 H1557 0.929 . S
C1540 C1537 1.424 . S
C1540 C1539 1.384 . S
C1540 H1558 0.928 . S
C1541 C1538 1.260 . S
C1541 C1539 1.479 . S
C1542 C1537 1.245 . S
C1542 C1538 1.477 . S
C1542 H1559 0.932 . S
C1543 U1526 2.882 . S
C1543 C1537 1.428 . S
C1543 O1546 1.301 . S
C1543 O1547 1.282 . S
O1544 U1526 2.441 . S
O1544 C1530 1.249 . S
O1545 U1526 2.420 . S
O1545 C1530 1.202 . S
O1546 U1526 2.455 . S
O1546 C1543 1.301 . S
O1547 U1526 2.449 . S
O1547 C1543 1.282 . S
H1548 C1521 0.931 . S
H1549 C1523 0.929 . S
H1550 C1524 0.930 . S
H1551 C1525 0.931 . S
H1552 C1532 0.932 . S
H1553 C1533 0.930 . S
H1554 C1534 0.929 . S
H1555 C1536 0.930 . S
H1556 C1538 0.932 . S
H1557 C1539 0.929 . S
H1558 C1540 0.928 . S
H1559 C1542 0.932 . S
C1560 C1561 1.264 . S
C1560 C1565 1.479 . S
C1560 C1570 1.465 . S
C1561 C1560 1.264 . S
C1561 C1563 1.339 . S
C1561 H1588 0.931 . S
C1562 C1563 1.395 . S
C1562 C1564 1.320 . S
C1563 C1561 1.339 . S
C1563 C1562 1.395 . S
C1563 H1589 0.929 . S
C1564 C1562 1.320 . S
C1564 C1565 1.405 . S
C1564 H1590 0.930 . S
C1565 C1560 1.479 . S
C1565 C1564 1.405 . S
C1565 H1591 0.931 . S
U1566 O1567 2.454 . S
U1566 O1568 2.458 . S
U1566 C1569 2.984 . S
U1566 C1570 2.847 . S
U1566 C1583 2.882 . S
U1566 O1584 2.441 . S
U1566 O1585 2.420 . S
U1566 O1586 2.455 . S
U1566 O1587 2.449 . S
O1567 U1566 2.454 . S
O1567 C1569 1.353 . S
O1568 U1566 2.458 . S
O1568 C1569 1.286 . S
C1569 U1566 2.984 . S
C1569 O1567 1.353 . S
C1569 O1568 1.286 . S
C1569 C1571 1.363 . S
C1570 C1560 1.465 . S
C1570 U1566 2.847 . S
C1570 O1584 1.249 . S
C1570 O1585 1.202 . S
C1571 C1569 1.363 . S
C1571 C1573 1.408 . S
C1571 C1576 1.342 . S
C1572 C1573 1.310 . S
C1572 C1575 1.461 . S
C1572 H1592 0.932 . S
C1573 C1571 1.408 . S
C1573 C1572 1.310 . S
C1573 H1593 0.930 . S
C1574 C1575 1.474 . S
C1574 C1576 1.285 . S
C1574 H1594 0.929 . S
C1575 C1572 1.461 . S
C1575 C1574 1.474 . S
C1576 C1571 1.342 . S
C1576 C1574 1.285 . S
C1576 H1595 0.930 . S
C1577 C1580 1.424 . S
C1577 C1582 1.245 . S
C1577 C1583 1.428 . S
C1578 C1581 1.260 . S
C1578 C1582 1.477 . S
C1578 H1596 0.932 . S
C1579 C1580 1.384 . S
C1579 C1581 1.479 . S
C1579 H1597 0.929 . S
C1580 C1577 1.424 . S
C1580 C1579 1.384 . S
C1580 H1598 0.928 . S
C1581 C1578 1.260 . S
C1581 C1579 1.479 . S
C1582 C1577 1.245 . S
C1582 C1578 1.477 . S
C1582 H1599 0.932 . S
C1583 U1566 2.882 . S
C1583 C1577 1.428 . S
C1583 O1586 1.301 . S
C1583 O1587 1.282 . S
O1584 U1566 2.441 . S
O1584 C1570 1.249 . S
O1585 U1566 2.420 . S
O1585 C1570 1.202 . S
O1586 U1566 2.455 . S
O1586 C1583 1.301 . S
O1587 U1566 2.449 . S
O1587 C1583 1.282 . S
H1588 C1561 0.931 . S
H1589 C1563 0.929 . S
H1590 C1564 0.930 . S
H1591 C1565 0.931 . S
H1592 C1572 0.932 . S
H1593 C1573 0.930 . S
H1594 C1574 0.929 . S
H1595 C1576 0.930 . S
H1596 C1578 0.932 . S
H1597 C1579 0.929 . S
H1598 C1580 0.928 . S
H1599 C1582 0.932 . S
C1600 C1601 1.264 . S
C1600 C1605 1.479 . S
C1600 C1610 1.465 . S
C1601 C1600 1.264 . S
C1601 C1603 1.339 . S
C1601 H1628 0.931 . S
C1602 C1603 1.395 . S
C1602 C1604 1.320 . S
C1603 C1601 1.339 . S
C1603 C1602 1.395 . S
C1603 H1629 0.929 . S
C1604 C1602 1.320 . S
C1604 C1605 1.405 . S
C1604 H1630 0.930 . S
C1605 C1600 1.479 . S
C1605 C1604 1.405 . S
C1605 H1631 0.931 . S
U1606 O1607 2.454 . S
U1606 O1608 2.458 . S
U1606 C1609 2.984 . S
U1606 C1610 2.847 . S
U1606 C1623 2.882 . S
U1606 O1624 2.441 . S
U1606 O1625 2.420 . S
U1606 O1626 2.455 . S
U1606 O1627 2.449 . S
O1607 U1606 2.454 . S
O1607 C1609 1.353 . S
O1608 U1606 2.458 . S
O1608 C1609 1.286 . S
C1609 U1606 2.984 . S
C1609 O1607 1.353 . S
C1609 O1608 1.286 . S
C1609 C1611 1.363 . S
C1610 C1600 1.465 . S
C1610 U1606 2.847 . S
C1610 O1624 1.249 . S
C1610 O1625 1.202 . S
C1611 C1609 1.363 . S
C1611 C1613 1.408 . S
C1611 C1616 1.342 . S
C1612 C1613 1.310 . S
C1612 C1615 1.461 . S
C1612 H1632 0.932 . S
C1613 C1611 1.408 . S
C1613 C1612 1.310 . S
C1613 H1633 0.930 . S
C1614 C1615 1.474 . S
C1614 C1616 1.285 . S
C1614 H1634 0.929 . S
C1615 C1612 1.461 . S
C1615 C1614 1.474 . S
C1616 C1611 1.342 . S
C1616 C1614 1.285 . S
C1616 H1635 0.930 . S
C1617 C1620 1.424 . S
C1617 C1622 1.245 . S
C1617 C1623 1.428 . S
C1618 C1621 1.260 . S
C1618 C1622 1.477 . S
C1618 H1636 0.932 . S
C1619 C1620 1.384 . S
C1619 C1621 1.479 . S
C1619 H1637 0.929 . S
C1620 C1617 1.424 . S
C1620 C1619 1.384 . S
C1620 H1638 0.928 . S
C1621 C1618 1.260 . S
C1621 C1619 1.479 . S
C1622 C1617 1.245 . S
C1622 C1618 1.477 . S
C1622 H1639 0.932 . S
C1623 U1606 2.882 . S
C1623 C1617 1.428 . S
C1623 O1626 1.301 . S
C1623 O1627 1.282 . S
O1624 U1606 2.441 . S
O1624 C1610 1.249 . S
O1625 U1606 2.420 . S
O1625 C1610 1.202 . S
O1626 U1606 2.455 . S
O1626 C1623 1.301 . S
O1627 U1606 2.449 . S
O1627 C1623 1.282 . S
H1628 C1601 0.931 . S
H1629 C1603 0.929 . S
H1630 C1604 0.930 . S
H1631 C1605 0.931 . S
H1632 C1612 0.932 . S
H1633 C1613 0.930 . S
H1634 C1614 0.929 . S
H1635 C1616 0.930 . S
H1636 C1618 0.932 . S
H1637 C1619 0.929 . S
H1638 C1620 0.928 . S
H1639 C1622 0.932 . S
C1640 C1641 1.264 . S
C1640 C1645 1.479 . S
C1640 C1650 1.465 . S
C1641 C1640 1.264 . S
C1641 C1643 1.339 . S
C1641 H1668 0.931 . S
C1642 C1643 1.395 . S
C1642 C1644 1.320 . S
C1643 C1641 1.339 . S
C1643 C1642 1.395 . S
C1643 H1669 0.929 . S
C1644 C1642 1.320 . S
C1644 C1645 1.405 . S
C1644 H1670 0.930 . S
C1645 C1640 1.479 . S
C1645 C1644 1.405 . S
C1645 H1671 0.931 . S
U1646 O1647 2.454 . S
U1646 O1648 2.458 . S
U1646 C1649 2.984 . S
U1646 C1650 2.847 . S
U1646 C1663 2.882 . S
U1646 O1664 2.441 . S
U1646 O1665 2.420 . S
U1646 O1666 2.455 . S
U1646 O1667 2.449 . S
O1647 U1646 2.454 . S
O1647 C1649 1.353 . S
O1648 U1646 2.458 . S
O1648 C1649 1.286 . S
C1649 U1646 2.984 . S
C1649 O1647 1.353 . S
C1649 O1648 1.286 . S
C1649 C1651 1.363 . S
C1650 C1640 1.465 . S
C1650 U1646 2.847 . S
C1650 O1664 1.249 . S
C1650 O1665 1.202 . S
C1651 C1649 1.363 . S
C1651 C1653 1.408 . S
C1651 C1656 1.342 . S
C1652 C1653 1.310 . S
C1652 C1655 1.461 . S
C1652 H1672 0.932 . S
C1653 C1651 1.408 . S
C1653 C1652 1.310 . S
C1653 H1673 0.930 . S
C1654 C1655 1.474 . S
C1654 C1656 1.285 . S
C1654 H1674 0.929 . S
C1655 C1652 1.461 . S
C1655 C1654 1.474 . S
C1656 C1651 1.342 . S
C1656 C1654 1.285 . S
C1656 H1675 0.930 . S
C1657 C1660 1.424 . S
C1657 C1662 1.245 . S
C1657 C1663 1.428 . S
C1658 C1661 1.260 . S
C1658 C1662 1.477 . S
C1658 H1676 0.932 . S
C1659 C1660 1.384 . S
C1659 C1661 1.479 . S
C1659 H1677 0.929 . S
C1660 C1657 1.424 . S
C1660 C1659 1.384 . S
C1660 H1678 0.928 . S
C1661 C1658 1.260 . S
C1661 C1659 1.479 . S
C1662 C1657 1.245 . S
C1662 C1658 1.477 . S
C1662 H1679 0.932 . S
C1663 U1646 2.882 . S
C1663 C1657 1.428 . S
C1663 O1666 1.301 . S
C1663 O1667 1.282 . S
O1664 U1646 2.441 . S
O1664 C1650 1.249 . S
O1665 U1646 2.420 . S
O1665 C1650 1.202 . S
O1666 U1646 2.455 . S
O1666 C1663 1.301 . S
O1667 U1646 2.449 . S
O1667 C1663 1.282 . S
H1668 C1641 0.931 . S
H1669 C1643 0.929 . S
H1670 C1644 0.930 . S
H1671 C1645 0.931 . S
H1672 C1652 0.932 . S
H1673 C1653 0.930 . S
H1674 C1654 0.929 . S
H1675 C1656 0.930 . S
H1676 C1658 0.932 . S
H1677 C1659 0.929 . S
H1678 C1660 0.928 . S
H1679 C1662 0.932 . S
C1680 C1681 1.264 . S
C1680 C1685 1.479 . S
C1680 C1690 1.465 . S
C1681 C1680 1.264 . S
C1681 C1683 1.339 . S
C1681 H1708 0.931 . S
C1682 C1683 1.395 . S
C1682 C1684 1.320 . S
C1683 C1681 1.339 . S
C1683 C1682 1.395 . S
C1683 H1709 0.929 . S
C1684 C1682 1.320 . S
C1684 C1685 1.405 . S
C1684 H1710 0.930 . S
C1685 C1680 1.479 . S
C1685 C1684 1.405 . S
C1685 H1711 0.931 . S
U1686 O1687 2.454 . S
U1686 O1688 2.458 . S
U1686 C1689 2.984 . S
U1686 C1690 2.847 . S
U1686 C1703 2.882 . S
U1686 O1704 2.441 . S
U1686 O1705 2.420 . S
U1686 O1706 2.455 . S
U1686 O1707 2.449 . S
O1687 U1686 2.454 . S
O1687 C1689 1.353 . S
O1688 U1686 2.458 . S
O1688 C1689 1.286 . S
C1689 U1686 2.984 . S
C1689 O1687 1.353 . S
C1689 O1688 1.286 . S
C1689 C1691 1.363 . S
C1690 C1680 1.465 . S
C1690 U1686 2.847 . S
C1690 O1704 1.249 . S
C1690 O1705 1.202 . S
C1691 C1689 1.363 . S
C1691 C1693 1.408 . S
C1691 C1696 1.342 . S
C1692 C1693 1.310 . S
C1692 C1695 1.461 . S
C1692 H1712 0.932 . S
C1693 C1691 1.408 . S
C1693 C1692 1.310 . S
C1693 H1713 0.930 . S
C1694 C1695 1.474 . S
C1694 C1696 1.285 . S
C1694 H1714 0.929 . S
C1695 C1692 1.461 . S
C1695 C1694 1.474 . S
C1696 C1691 1.342 . S
C1696 C1694 1.285 . S
C1696 H1715 0.930 . S
C1697 C1700 1.424 . S
C1697 C1702 1.245 . S
C1697 C1703 1.428 . S
C1698 C1701 1.260 . S
C1698 C1702 1.477 . S
C1698 H1716 0.932 . S
C1699 C1700 1.384 . S
C1699 C1701 1.479 . S
C1699 H1717 0.929 . S
C1700 C1697 1.424 . S
C1700 C1699 1.384 . S
C1700 H1718 0.928 . S
C1701 C1698 1.260 . S
C1701 C1699 1.479 . S
C1702 C1697 1.245 . S
C1702 C1698 1.477 . S
C1702 H1719 0.932 . S
C1703 U1686 2.882 . S
C1703 C1697 1.428 . S
C1703 O1706 1.301 . S
C1703 O1707 1.282 . S
O1704 U1686 2.441 . S
O1704 C1690 1.249 . S
O1705 U1686 2.420 . S
O1705 C1690 1.202 . S
O1706 U1686 2.455 . S
O1706 C1703 1.301 . S
O1707 U1686 2.449 . S
O1707 C1703 1.282 . S
H1708 C1681 0.931 . S
H1709 C1683 0.929 . S
H1710 C1684 0.930 . S
H1711 C1685 0.931 . S
H1712 C1692 0.932 . S
H1713 C1693 0.930 . S
H1714 C1694 0.929 . S
H1715 C1696 0.930 . S
H1716 C1698 0.932 . S
H1717 C1699 0.929 . S
H1718 C1700 0.928 . S
H1719 C1702 0.932 . S
C1720 C1721 1.264 . S
C1720 C1725 1.479 . S
C1720 C1730 1.465 . S
C1721 C1720 1.264 . S
C1721 C1723 1.339 . S
C1721 H1748 0.931 . S
C1722 C1723 1.395 . S
C1722 C1724 1.320 . S
C1723 C1721 1.339 . S
C1723 C1722 1.395 . S
C1723 H1749 0.929 . S
C1724 C1722 1.320 . S
C1724 C1725 1.405 . S
C1724 H1750 0.930 . S
C1725 C1720 1.479 . S
C1725 C1724 1.405 . S
C1725 H1751 0.931 . S
U1726 O1727 2.454 . S
U1726 O1728 2.458 . S
U1726 C1729 2.984 . S
U1726 C1730 2.847 . S
U1726 C1743 2.882 . S
U1726 O1744 2.441 . S
U1726 O1745 2.420 . S
U1726 O1746 2.455 . S
U1726 O1747 2.449 . S
O1727 U1726 2.454 . S
O1727 C1729 1.353 . S
O1728 U1726 2.458 . S
O1728 C1729 1.286 . S
C1729 U1726 2.984 . S
C1729 O1727 1.353 . S
C1729 O1728 1.286 . S
C1729 C1731 1.363 . S
C1730 C1720 1.465 . S
C1730 U1726 2.847 . S
C1730 O1744 1.249 . S
C1730 O1745 1.202 . S
C1731 C1729 1.363 . S
C1731 C1733 1.408 . S
C1731 C1736 1.342 . S
C1732 C1733 1.310 . S
C1732 C1735 1.461 . S
C1732 H1752 0.932 . S
C1733 C1731 1.408 . S
C1733 C1732 1.310 . S
C1733 H1753 0.930 . S
C1734 C1735 1.474 . S
C1734 C1736 1.285 . S
C1734 H1754 0.929 . S
C1735 C1732 1.461 . S
C1735 C1734 1.474 . S
C1736 C1731 1.342 . S
C1736 C1734 1.285 . S
C1736 H1755 0.930 . S
C1737 C1740 1.424 . S
C1737 C1742 1.245 . S
C1737 C1743 1.428 . S
C1738 C1741 1.260 . S
C1738 C1742 1.477 . S
C1738 H1756 0.932 . S
C1739 C1740 1.384 . S
C1739 C1741 1.479 . S
C1739 H1757 0.929 . S
C1740 C1737 1.424 . S
C1740 C1739 1.384 . S
C1740 H1758 0.928 . S
C1741 C1738 1.260 . S
C1741 C1739 1.479 . S
C1742 C1737 1.245 . S
C1742 C1738 1.477 . S
C1742 H1759 0.932 . S
C1743 U1726 2.882 . S
C1743 C1737 1.428 . S
C1743 O1746 1.301 . S
C1743 O1747 1.282 . S
O1744 U1726 2.441 . S
O1744 C1730 1.249 . S
O1745 U1726 2.420 . S
O1745 C1730 1.202 . S
O1746 U1726 2.455 . S
O1746 C1743 1.301 . S
O1747 U1726 2.449 . S
O1747 C1743 1.282 . S
H1748 C1721 0.931 . S
H1749 C1723 0.929 . S
H1750 C1724 0.930 . S
H1751 C1725 0.931 . S
H1752 C1732 0.932 . S
H1753 C1733 0.930 . S
H1754 C1734 0.929 . S
H1755 C1736 0.930 . S
H1756 C1738 0.932 . S
H1757 C1739 0.929 . S
H1758 C1740 0.928 . S
H1759 C1742 0.932 . S
C1760 C1761 1.264 . S
C1760 C1765 1.479 . S
C1760 C1770 1.465 . S
C1761 C1760 1.264 . S
C1761 C1763 1.339 . S
C1761 H1788 0.931 . S
C1762 C1763 1.395 . S
C1762 C1764 1.320 . S
C1763 C1761 1.339 . S
C1763 C1762 1.395 . S
C1763 H1789 0.929 . S
C1764 C1762 1.320 . S
C1764 C1765 1.405 . S
C1764 H1790 0.930 . S
C1765 C1760 1.479 . S
C1765 C1764 1.405 . S
C1765 H1791 0.931 . S
U1766 O1767 2.454 . S
U1766 O1768 2.458 . S
U1766 C1769 2.984 . S
U1766 C1770 2.847 . S
U1766 C1783 2.882 . S
U1766 O1784 2.441 . S
U1766 O1785 2.420 . S
U1766 O1786 2.455 . S
U1766 O1787 2.449 . S
O1767 U1766 2.454 . S
O1767 C1769 1.353 . S
O1768 U1766 2.458 . S
O1768 C1769 1.286 . S
C1769 U1766 2.984 . S
C1769 O1767 1.353 . S
C1769 O1768 1.286 . S
C1769 C1771 1.363 . S
C1770 C1760 1.465 . S
C1770 U1766 2.847 . S
C1770 O1784 1.249 . S
C1770 O1785 1.202 . S
C1771 C1769 1.363 . S
C1771 C1773 1.408 . S
C1771 C1776 1.342 . S
C1772 C1773 1.310 . S
C1772 C1775 1.461 . S
C1772 H1792 0.932 . S
C1773 C1771 1.408 . S
C1773 C1772 1.310 . S
C1773 H1793 0.930 . S
C1774 C1775 1.474 . S
C1774 C1776 1.285 . S
C1774 H1794 0.929 . S
C1775 C1772 1.461 . S
C1775 C1774 1.474 . S
C1776 C1771 1.342 . S
C1776 C1774 1.285 . S
C1776 H1795 0.930 . S
C1777 C1780 1.424 . S
C1777 C1782 1.245 . S
C1777 C1783 1.428 . S
C1778 C1781 1.260 . S
C1778 C1782 1.477 . S
C1778 H1796 0.932 . S
C1779 C1780 1.384 . S
C1779 C1781 1.479 . S
C1779 H1797 0.929 . S
C1780 C1777 1.424 . S
C1780 C1779 1.384 . S
C1780 H1798 0.928 . S
C1781 C1778 1.260 . S
C1781 C1779 1.479 . S
C1782 C1777 1.245 . S
C1782 C1778 1.477 . S
C1782 H1799 0.932 . S
C1783 U1766 2.882 . S
C1783 C1777 1.428 . S
C1783 O1786 1.301 . S
C1783 O1787 1.282 . S
O1784 U1766 2.441 . S
O1784 C1770 1.249 . S
O1785 U1766 2.420 . S
O1785 C1770 1.202 . S
O1786 U1766 2.455 . S
O1786 C1783 1.301 . S
O1787 U1766 2.449 . S
O1787 C1783 1.282 . S
H1788 C1761 0.931 . S
H1789 C1763 0.929 . S
H1790 C1764 0.930 . S
H1791 C1765 0.931 . S
H1792 C1772 0.932 . S
H1793 C1773 0.930 . S
H1794 C1774 0.929 . S
H1795 C1776 0.930 . S
H1796 C1778 0.932 . S
H1797 C1779 0.929 . S
H1798 C1780 0.928 . S
H1799 C1782 0.932 . S
C1800 C1801 1.264 . S
C1800 C1805 1.479 . S
C1800 C1810 1.465 . S
C1801 C1800 1.264 . S
C1801 C1803 1.339 . S
C1801 H1828 0.931 . S
C1802 C1803 1.395 . S
C1802 C1804 1.320 . S
C1803 C1801 1.339 . S
C1803 C1802 1.395 . S
C1803 H1829 0.929 . S
C1804 C1802 1.320 . S
C1804 C1805 1.405 . S
C1804 H1830 0.930 . S
C1805 C1800 1.479 . S
C1805 C1804 1.405 . S
C1805 H1831 0.931 . S
U1806 O1807 2.454 . S
U1806 O1808 2.458 . S
U1806 C1809 2.984 . S
U1806 C1810 2.847 . S
U1806 C1823 2.882 . S
U1806 O1824 2.441 . S
U1806 O1825 2.420 . S
U1806 O1826 2.455 . S
U1806 O1827 2.449 . S
O1807 U1806 2.454 . S
O1807 C1809 1.353 . S
O1808 U1806 2.458 . S
O1808 C1809 1.286 . S
C1809 U1806 2.984 . S
C1809 O1807 1.353 . S
C1809 O1808 1.286 . S
C1809 C1811 1.363 . S
C1810 C1800 1.465 . S
C1810 U1806 2.847 . S
C1810 O1824 1.249 . S
C1810 O1825 1.202 . S
C1811 C1809 1.363 . S
C1811 C1813 1.408 . S
C1811 C1816 1.342 . S
C1812 C1813 1.310 . S
C1812 C1815 1.461 . S
C1812 H1832 0.932 . S
C1813 C1811 1.408 . S
C1813 C1812 1.310 . S
C1813 H1833 0.930 . S
C1814 C1815 1.474 . S
C1814 C1816 1.285 . S
C1814 H1834 0.929 . S
C1815 C1812 1.461 . S
C1815 C1814 1.474 . S
C1816 C1811 1.342 . S
C1816 C1814 1.285 . S
C1816 H1835 0.930 . S
C1817 C1820 1.424 . S
C1817 C1822 1.245 . S
C1817 C1823 1.428 . S
C1818 C1821 1.260 . S
C1818 C1822 1.477 . S
C1818 H1836 0.932 . S
C1819 C1820 1.384 . S
C1819 C1821 1.479 . S
C1819 H1837 0.929 . S
C1820 C1817 1.424 . S
C1820 C1819 1.384 . S
C1820 H1838 0.928 . S
C1821 C1818 1.260 . S
C1821 C1819 1.479 . S
C1822 C1817 1.245 . S
C1822 C1818 1.477 . S
C1822 H1839 0.932 . S
C1823 U1806 2.882 . S
C1823 C1817 1.428 . S
C1823 O1826 1.301 . S
C1823 O1827 1.282 . S
O1824 U1806 2.441 . S
O1824 C1810 1.249 . S
O1825 U1806 2.420 . S
O1825 C1810 1.202 . S
O1826 U1806 2.455 . S
O1826 C1823 1.301 . S
O1827 U1806 2.449 . S
O1827 C1823 1.282 . S
H1828 C1801 0.931 . S
H1829 C1803 0.929 . S
H1830 C1804 0.930 . S
H1831 C1805 0.931 . S
H1832 C1812 0.932 . S
H1833 C1813 0.930 . S
H1834 C1814 0.929 . S
H1835 C1816 0.930 . S
H1836 C1818 0.932 . S
H1837 C1819 0.929 . S
H1838 C1820 0.928 . S
H1839 C1822 0.932 . S
C1840 C1841 1.264 . S
C1840 C1845 1.479 . S
C1840 C1850 1.465 . S
C1841 C1840 1.264 . S
C1841 C1843 1.339 . S
C1841 H1868 0.931 . S
C1842 C1843 1.395 . S
C1842 C1844 1.320 . S
C1843 C1841 1.339 . S
C1843 C1842 1.395 . S
C1843 H1869 0.929 . S
C1844 C1842 1.320 . S
C1844 C1845 1.405 . S
C1844 H1870 0.930 . S
C1845 C1840 1.479 . S
C1845 C1844 1.405 . S
C1845 H1871 0.931 . S
U1846 O1847 2.454 . S
U1846 O1848 2.458 . S
U1846 C1849 2.984 . S
U1846 C1850 2.847 . S
U1846 C1863 2.882 . S
U1846 O1864 2.441 . S
U1846 O1865 2.420 . S
U1846 O1866 2.455 . S
U1846 O1867 2.449 . S
O1847 U1846 2.454 . S
O1847 C1849 1.353 . S
O1848 U1846 2.458 . S
O1848 C1849 1.286 . S
C1849 U1846 2.984 . S
C1849 O1847 1.353 . S
C1849 O1848 1.286 . S
C1849 C1851 1.363 . S
C1850 C1840 1.465 . S
C1850 U1846 2.847 . S
C1850 O1864 1.249 . S
C1850 O1865 1.202 . S
C1851 C1849 1.363 . S
C1851 C1853 1.408 . S
C1851 C1856 1.342 . S
C1852 C1853 1.310 . S
C1852 C1855 1.461 . S
C1852 H1872 0.932 . S
C1853 C1851 1.408 . S
C1853 C1852 1.310 . S
C1853 H1873 0.930 . S
C1854 C1855 1.474 . S
C1854 C1856 1.285 . S
C1854 H1874 0.929 . S
C1855 C1852 1.461 . S
C1855 C1854 1.474 . S
C1856 C1851 1.342 . S
C1856 C1854 1.285 . S
C1856 H1875 0.930 . S
C1857 C1860 1.424 . S
C1857 C1862 1.245 . S
C1857 C1863 1.428 . S
C1858 C1861 1.260 . S
C1858 C1862 1.477 . S
C1858 H1876 0.932 . S
C1859 C1860 1.384 . S
C1859 C1861 1.479 . S
C1859 H1877 0.929 . S
C1860 C1857 1.424 . S
C1860 C1859 1.384 . S
C1860 H1878 0.928 . S
C1861 C1858 1.260 . S
C1861 C1859 1.479 . S
C1862 C1857 1.245 . S
C1862 C1858 1.477 . S
C1862 H1879 0.932 . S
C1863 U1846 2.882 . S
C1863 C1857 1.428 . S
C1863 O1866 1.301 . S
C1863 O1867 1.282 . S
O1864 U1846 2.441 . S
O1864 C1850 1.249 . S
O1865 U1846 2.420 . S
O1865 C1850 1.202 . S
O1866 U1846 2.455 . S
O1866 C1863 1.301 . S
O1867 U1846 2.449 . S
O1867 C1863 1.282 . S
H1868 C1841 0.931 . S
H1869 C1843 0.929 . S
H1870 C1844 0.930 . S
H1871 C1845 0.931 . S
H1872 C1852 0.932 . S
H1873 C1853 0.930 . S
H1874 C1854 0.929 . S
H1875 C1856 0.930 . S
H1876 C1858 0.932 . S
H1877 C1859 0.929 . S
H1878 C1860 0.928 . S
H1879 C1862 0.932 . S
C1880 C1881 1.264 . S
C1880 C1885 1.479 . S
C1880 C1890 1.465 . S
C1881 C1880 1.264 . S
C1881 C1883 1.339 . S
C1881 H1908 0.931 . S
C1882 C1883 1.395 . S
C1882 C1884 1.320 . S
C1883 C1881 1.339 . S
C1883 C1882 1.395 . S
C1883 H1909 0.929 . S
C1884 C1882 1.320 . S
C1884 C1885 1.405 . S
C1884 H1910 0.930 . S
C1885 C1880 1.479 . S
C1885 C1884 1.405 . S
C1885 H1911 0.931 . S
U1886 O1887 2.454 . S
U1886 O1888 2.458 . S
U1886 C1889 2.984 . S
U1886 C1890 2.847 . S
U1886 C1903 2.882 . S
U1886 O1904 2.441 . S
U1886 O1905 2.420 . S
U1886 O1906 2.455 . S
U1886 O1907 2.449 . S
O1887 U1886 2.454 . S
O1887 C1889 1.353 . S
O1888 U1886 2.458 . S
O1888 C1889 1.286 . S
C1889 U1886 2.984 . S
C1889 O1887 1.353 . S
C1889 O1888 1.286 . S
C1889 C1891 1.363 . S
C1890 C1880 1.465 . S
C1890 U1886 2.847 . S
C1890 O1904 1.249 . S
C1890 O1905 1.202 . S
C1891 C1889 1.363 . S
C1891 C1893 1.408 . S
C1891 C1896 1.342 . S
C1892 C1893 1.310 . S
C1892 C1895 1.461 . S
C1892 H1912 0.932 . S
C1893 C1891 1.408 . S
C1893 C1892 1.310 . S
C1893 H1913 0.930 . S
C1894 C1895 1.474 . S
C1894 C1896 1.285 . S
C1894 H1914 0.929 . S
C1895 C1892 1.461 . S
C1895 C1894 1.474 . S
C1896 C1891 1.342 . S
C1896 C1894 1.285 . S
C1896 H1915 0.930 . S
C1897 C1900 1.424 . S
C1897 C1902 1.245 . S
C1897 C1903 1.428 . S
C1898 C1901 1.260 . S
C1898 C1902 1.477 . S
C1898 H1916 0.932 . S
C1899 C1900 1.384 . S
C1899 C1901 1.479 . S
C1899 H1917 0.929 . S
C1900 C1897 1.424 . S
C1900 C1899 1.384 . S
C1900 H1918 0.928 . S
C1901 C1898 1.260 . S
C1901 C1899 1.479 . S
C1902 C1897 1.245 . S
C1902 C1898 1.477 . S
C1902 H1919 0.932 . S
C1903 U1886 2.882 . S
C1903 C1897 1.428 . S
C1903 O1906 1.301 . S
C1903 O1907 1.282 . S
O1904 U1886 2.441 . S
O1904 C1890 1.249 . S
O1905 U1886 2.420 . S
O1905 C1890 1.202 . S
O1906 U1886 2.455 . S
O1906 C1903 1.301 . S
O1907 U1886 2.449 . S
O1907 C1903 1.282 . S
H1908 C1881 0.931 . S
H1909 C1883 0.929 . S
H1910 C1884 0.930 . S
H1911 C1885 0.931 . S
H1912 C1892 0.932 . S
H1913 C1893 0.930 . S
H1914 C1894 0.929 . S
H1915 C1896 0.930 . S
H1916 C1898 0.932 . S
H1917 C1899 0.929 . S
H1918 C1900 0.928 . S
H1919 C1902 0.932 . S
C1920 C1921 1.264 . S
C1920 C1925 1.479 . S
C1920 C1930 1.465 . S
C1921 C1920 1.264 . S
C1921 C1923 1.339 . S
C1921 H1948 0.931 . S
C1922 C1923 1.395 . S
C1922 C1924 1.320 . S
C1923 C1921 1.339 . S
C1923 C1922 1.395 . S
C1923 H1949 0.929 . S
C1924 C1922 1.320 . S
C1924 C1925 1.405 . S
C1924 H1950 0.930 . S
C1925 C1920 1.479 . S
C1925 C1924 1.405 . S
C1925 H1951 0.931 . S
U1926 O1927 2.454 . S
U1926 O1928 2.458 . S
U1926 C1929 2.984 . S
U1926 C1930 2.847 . S
U1926 C1943 2.882 . S
U1926 O1944 2.441 . S
U1926 O1945 2.420 . S
U1926 O1946 2.455 . S
U1926 O1947 2.449 . S
O1927 U1926 2.454 . S
O1927 C1929 1.353 . S
O1928 U1926 2.458 . S
O1928 C1929 1.286 . S
C1929 U1926 2.984 . S
C1929 O1927 1.353 . S
C1929 O1928 1.286 . S
C1929 C1931 1.363 . S
C1930 C1920 1.465 . S
C1930 U1926 2.847 . S
C1930 O1944 1.249 . S
C1930 O1945 1.202 . S
C1931 C1929 1.363 . S
C1931 C1933 1.408 . S
C1931 C1936 1.342 . S
C1932 C1933 1.310 . S
C1932 C1935 1.461 . S
C1932 H1952 0.932 . S
C1933 C1931 1.408 . S
C1933 C1932 1.310 . S
C1933 H1953 0.930 . S
C1934 C1935 1.474 . S
C1934 C1936 1.285 . S
C1934 H1954 0.929 . S
C1935 C1932 1.461 . S
C1935 C1934 1.474 . S
C1936 C1931 1.342 . S
C1936 C1934 1.285 . S
C1936 H1955 0.930 . S
C1937 C1940 1.424 . S
C1937 C1942 1.245 . S
C1937 C1943 1.428 . S
C1938 C1941 1.260 . S
C1938 C1942 1.477 . S
C1938 H1956 0.932 . S
C1939 C1940 1.384 . S
C1939 C1941 1.479 . S
C1939 H1957 0.929 . S
C1940 C1937 1.424 . S
C1940 C1939 1.384 . S
C1940 H1958 0.928 . S
C1941 C1938 1.260 . S
C1941 C1939 1.479 . S
C1942 C1937 1.245 . S
C1942 C1938 1.477 . S
C1942 H1959 0.932 . S
C1943 U1926 2.882 . S
C1943 C1937 1.428 . S
C1943 O1946 1.301 . S
C1943 O1947 1.282 . S
O1944 U1926 2.441 . S
O1944 C1930 1.249 . S
O1945 U1926 2.420 . S
O1945 C1930 1.202 . S
O1946 U1926 2.455 . S
O1946 C1943 1.301 . S
O1947 U1926 2.449 . S
O1947 C1943 1.282 . S
H1948 C1921 0.931 . S
H1949 C1923 0.929 . S
H1950 C1924 0.930 . S
H1951 C1925 0.931 . S
H1952 C1932 0.932 . S
H1953 C1933 0.930 . S
H1954 C1934 0.929 . S
H1955 C1936 0.930 . S
H1956 C1938 0.932 . S
H1957 C1939 0.929 . S
H1958 C1940 0.928 . S
H1959 C1942 0.932 . S
C1960 C1961 1.264 . S
C1960 C1965 1.479 . S
C1960 C1970 1.465 . S
C1961 C1960 1.264 . S
C1961 C1963 1.339 . S
C1961 H1988 0.931 . S
C1962 C1963 1.395 . S
C1962 C1964 1.320 . S
C1963 C1961 1.339 . S
C1963 C1962 1.395 . S
C1963 H1989 0.929 . S
C1964 C1962 1.320 . S
C1964 C1965 1.405 . S
C1964 H1990 0.930 . S
C1965 C1960 1.479 . S
C1965 C1964 1.405 . S
C1965 H1991 0.931 . S
U1966 O1967 2.454 . S
U1966 O1968 2.458 . S
U1966 C1969 2.984 . S
U1966 C1970 2.847 . S
U1966 C1983 2.882 . S
U1966 O1984 2.441 . S
U1966 O1985 2.420 . S
U1966 O1986 2.455 . S
U1966 O1987 2.449 . S
O1967 U1966 2.454 . S
O1967 C1969 1.353 . S
O1968 U1966 2.458 . S
O1968 C1969 1.286 . S
C1969 U1966 2.984 . S
C1969 O1967 1.353 . S
C1969 O1968 1.286 . S
C1969 C1971 1.363 . S
C1970 C1960 1.465 . S
C1970 U1966 2.847 . S
C1970 O1984 1.249 . S
C1970 O1985 1.202 . S
C1971 C1969 1.363 . S
C1971 C1973 1.408 . S
C1971 C1976 1.342 . S
C1972 C1973 1.310 . S
C1972 C1975 1.461 . S
C1972 H1992 0.932 . S
C1973 C1971 1.408 . S
C1973 C1972 1.310 . S
C1973 H1993 0.930 . S
C1974 C1975 1.474 . S
C1974 C1976 1.285 . S
C1974 H1994 0.929 . S
C1975 C1972 1.461 . S
C1975 C1974 1.474 . S
C1976 C1971 1.342 . S
C1976 C1974 1.285 . S
C1976 H1995 0.930 . S
C1977 C1980 1.424 . S
C1977 C1982 1.245 . S
C1977 C1983 1.428 . S
C1978 C1981 1.260 . S
C1978 C1982 1.477 . S
C1978 H1996 0.932 . S
C1979 C1980 1.384 . S
C1979 C1981 1.479 . S
C1979 H1997 0.929 . S
C1980 C1977 1.424 . S
C1980 C1979 1.384 . S
C1980 H1998 0.928 . S
C1981 C1978 1.260 . S
C1981 C1979 1.479 . S
C1982 C1977 1.245 . S
C1982 C1978 1.477 . S
C1982 H1999 0.932 . S
C1983 U1966 2.882 . S
C1983 C1977 1.428 . S
C1983 O1986 1.301 . S
C1983 O1987 1.282 . S
O1984 U1966 2.441 . S
O1984 C1970 1.249 . S
O1985 U1966 2.420 . S
O1985 C1970 1.202 . S
O1986 U1966 2.455 . S
O1986 C1983 1.301 . S
O1987 U1966 2.449 . S
O1987 C1983 1.282 . S
H1988 C1961 0.931 . S
H1989 C1963 0.929 . S
H1990 C1964 0.930 . S
H1991 C1965 0.931 . S
H1992 C1972 0.932 . S
H1993 C1973 0.930 . S
H1994 C1974 0.929 . S
H1995 C1976 0.930 . S
H1996 C1978 0.932 . S
H1997 C1979 0.929 . S
H1998 C1980 0.928 . S
H1999 C1982 0.932 . S
C2000 C2001 1.264 . S
C2000 C2005 1.479 . S
C2000 C2010 1.465 . S
C2001 C2000 1.264 . S
C2001 C2003 1.339 . S
C2001 H2028 0.931 . S
C2002 C2003 1.395 . S
C2002 C2004 1.320 . S
C2003 C2001 1.339 . S
C2003 C2002 1.395 . S
C2003 H2029 0.929 . S
C2004 C2002 1.320 . S
C2004 C2005 1.405 . S
C2004 H2030 0.930 . S
C2005 C2000 1.479 . S
C2005 C2004 1.405 . S
C2005 H2031 0.931 . S
U2006 O2007 2.454 . S
U2006 O2008 2.458 . S
U2006 C2009 2.984 . S
U2006 C2010 2.847 . S
U2006 C2023 2.882 . S
U2006 O2024 2.441 . S
U2006 O2025 2.420 . S
U2006 O2026 2.455 . S
U2006 O2027 2.449 . S
O2007 U2006 2.454 . S
O2007 C2009 1.353 . S
O2008 U2006 2.458 . S
O2008 C2009 1.286 . S
C2009 U2006 2.984 . S
C2009 O2007 1.353 . S
C2009 O2008 1.286 . S
C2009 C2011 1.363 . S
C2010 C2000 1.465 . S
C2010 U2006 2.847 . S
C2010 O2024 1.249 . S
C2010 O2025 1.202 . S
C2011 C2009 1.363 . S
C2011 C2013 1.408 . S
C2011 C2016 1.342 . S
C2012 C2013 1.310 . S
C2012 C2015 1.461 . S
C2012 H2032 0.932 . S
C2013 C2011 1.408 . S
C2013 C2012 1.310 . S
C2013 H2033 0.930 . S
C2014 C2015 1.474 . S
C2014 C2016 1.285 . S
C2014 H2034 0.929 . S
C2015 C2012 1.461 . S
C2015 C2014 1.474 . S
C2016 C2011 1.342 . S
C2016 C2014 1.285 . S
C2016 H2035 0.930 . S
C2017 C2020 1.424 . S
C2017 C2022 1.245 . S
C2017 C2023 1.428 . S
C2018 C2021 1.260 . S
C2018 C2022 1.477 . S
C2018 H2036 0.932 . S
C2019 C2020 1.384 . S
C2019 C2021 1.479 . S
C2019 H2037 0.929 . S
C2020 C2017 1.424 . S
C2020 C2019 1.384 . S
C2020 H2038 0.928 . S
C2021 C2018 1.260 . S
C2021 C2019 1.479 . S
C2022 C2017 1.245 . S
C2022 C2018 1.477 . S
C2022 H2039 0.932 . S
C2023 U2006 2.882 . S
C2023 C2017 1.428 . S
C2023 O2026 1.301 . S
C2023 O2027 1.282 . S
O2024 U2006 2.441 . S
O2024 C2010 1.249 . S
O2025 U2006 2.420 . S
O2025 C2010 1.202 . S
O2026 U2006 2.455 . S
O2026 C2023 1.301 . S
O2027 U2006 2.449 . S
O2027 C2023 1.282 . S
H2028 C2001 0.931 . S
H2029 C2003 0.929 . S
H2030 C2004 0.930 . S
H2031 C2005 0.931 . S
H2032 C2012 0.932 . S
H2033 C2013 0.930 . S
H2034 C2014 0.929 . S
H2035 C2016 0.930 . S
H2036 C2018 0.932 . S
H2037 C2019 0.929 . S
H2038 C2020 0.928 . S
H2039 C2022 0.932 . S
C2040 C2041 1.264 . S
C2040 C2045 1.479 . S
C2040 C2050 1.465 . S
C2041 C2040 1.264 . S
C2041 C2043 1.339 . S
C2041 H2068 0.931 . S
C2042 C2043 1.395 . S
C2042 C2044 1.320 . S
C2043 C2041 1.339 . S
C2043 C2042 1.395 . S
C2043 H2069 0.929 . S
C2044 C2042 1.320 . S
C2044 C2045 1.405 . S
C2044 H2070 0.930 . S
C2045 C2040 1.479 . S
C2045 C2044 1.405 . S
C2045 H2071 0.931 . S
U2046 O2047 2.454 . S
U2046 O2048 2.458 . S
U2046 C2049 2.984 . S
U2046 C2050 2.847 . S
U2046 C2063 2.882 . S
U2046 O2064 2.441 . S
U2046 O2065 2.420 . S
U2046 O2066 2.455 . S
U2046 O2067 2.449 . S
O2047 U2046 2.454 . S
O2047 C2049 1.353 . S
O2048 U2046 2.458 . S
O2048 C2049 1.286 . S
C2049 U2046 2.984 . S
C2049 O2047 1.353 . S
C2049 O2048 1.286 . S
C2049 C2051 1.363 . S
C2050 C2040 1.465 . S
C2050 U2046 2.847 . S
C2050 O2064 1.249 . S
C2050 O2065 1.202 . S
C2051 C2049 1.363 . S
C2051 C2053 1.408 . S
C2051 C2056 1.342 . S
C2052 C2053 1.310 . S
C2052 C2055 1.461 . S
C2052 H2072 0.932 . S
C2053 C2051 1.408 . S
C2053 C2052 1.310 . S
C2053 H2073 0.930 . S
C2054 C2055 1.474 . S
C2054 C2056 1.285 . S
C2054 H2074 0.929 . S
C2055 C2052 1.461 . S
C2055 C2054 1.474 . S
C2056 C2051 1.342 . S
C2056 C2054 1.285 . S
C2056 H2075 0.930 . S
C2057 C2060 1.424 . S
C2057 C2062 1.245 . S
C2057 C2063 1.428 . S
C2058 C2061 1.260 . S
C2058 C2062 1.477 . S
C2058 H2076 0.932 . S
C2059 C2060 1.384 . S
C2059 C2061 1.479 . S
C2059 H2077 0.929 . S
C2060 C2057 1.424 . S
C2060 C2059 1.384 . S
C2060 H2078 0.928 . S
C2061 C2058 1.260 . S
C2061 C2059 1.479 . S
C2062 C2057 1.245 . S
C2062 C2058 1.477 . S
C2062 H2079 0.932 . S
C2063 U2046 2.882 . S
C2063 C2057 1.428 . S
C2063 O2066 1.301 . S
C2063 O2067 1.282 . S
O2064 U2046 2.441 . S
O2064 C2050 1.249 . S
O2065 U2046 2.420 . S
O2065 C2050 1.202 . S
O2066 U2046 2.455 . S
O2066 C2063 1.301 . S
O2067 U2046 2.449 . S
O2067 C2063 1.282 . S
H2068 C2041 0.931 . S
H2069 C2043 0.929 . S
H2070 C2044 0.930 . S
H2071 C2045 0.931 . S
H2072 C2052 0.932 . S
H2073 C2053 0.930 . S
H2074 C2054 0.929 . S
H2075 C2056 0.930 . S
H2076 C2058 0.932 . S
H2077 C2059 0.929 . S
H2078 C2060 0.928 . S
H2079 C2062 0.932 . S
C2080 C2081 1.264 . S
C2080 C2085 1.479 . S
C2080 C2090 1.465 . S
C2081 C2080 1.264 . S
C2081 C2083 1.339 . S
C2081 H2108 0.931 . S
C2082 C2083 1.395 . S
C2082 C2084 1.320 . S
C2083 C2081 1.339 . S
C2083 C2082 1.395 . S
C2083 H2109 0.929 . S
C2084 C2082 1.320 . S
C2084 C2085 1.405 . S
C2084 H2110 0.930 . S
C2085 C2080 1.479 . S
C2085 C2084 1.405 . S
C2085 H2111 0.931 . S
U2086 O2087 2.454 . S
U2086 O2088 2.458 . S
U2086 C2089 2.984 . S
U2086 C2090 2.847 . S
U2086 C2103 2.882 . S
U2086 O2104 2.441 . S
U2086 O2105 2.420 . S
U2086 O2106 2.455 . S
U2086 O2107 2.449 . S
O2087 U2086 2.454 . S
O2087 C2089 1.353 . S
O2088 U2086 2.458 . S
O2088 C2089 1.286 . S
C2089 U2086 2.984 . S
C2089 O2087 1.353 . S
C2089 O2088 1.286 . S
C2089 C2091 1.363 . S
C2090 C2080 1.465 . S
C2090 U2086 2.847 . S
C2090 O2104 1.249 . S
C2090 O2105 1.202 . S
C2091 C2089 1.363 . S
C2091 C2093 1.408 . S
C2091 C2096 1.342 . S
C2092 C2093 1.310 . S
C2092 C2095 1.461 . S
C2092 H2112 0.932 . S
C2093 C2091 1.408 . S
C2093 C2092 1.310 . S
C2093 H2113 0.930 . S
C2094 C2095 1.474 . S
C2094 C2096 1.285 . S
C2094 H2114 0.929 . S
C2095 C2092 1.461 . S
C2095 C2094 1.474 . S
C2096 C2091 1.342 . S
C2096 C2094 1.285 . S
C2096 H2115 0.930 . S
C2097 C2100 1.424 . S
C2097 C2102 1.245 . S
C2097 C2103 1.428 . S
C2098 C2101 1.260 . S
C2098 C2102 1.477 . S
C2098 H2116 0.932 . S
C2099 C2100 1.384 . S
C2099 C2101 1.479 . S
C2099 H2117 0.929 . S
C2100 C2097 1.424 . S
C2100 C2099 1.384 . S
C2100 H2118 0.928 . S
C2101 C2098 1.260 . S
C2101 C2099 1.479 . S
C2102 C2097 1.245 . S
C2102 C2098 1.477 . S
C2102 H2119 0.932 . S
C2103 U2086 2.882 . S
C2103 C2097 1.428 . S
C2103 O2106 1.301 . S
C2103 O2107 1.282 . S
O2104 U2086 2.441 . S
O2104 C2090 1.249 . S
O2105 U2086 2.420 . S
O2105 C2090 1.202 . S
O2106 U2086 2.455 . S
O2106 C2103 1.301 . S
O2107 U2086 2.449 . S
O2107 C2103 1.282 . S
H2108 C2081 0.931 . S
H2109 C2083 0.929 . S
H2110 C2084 0.930 . S
H2111 C2085 0.931 . S
H2112 C2092 0.932 . S
H2113 C2093 0.930 . S
H2114 C2094 0.929 . S
H2115 C2096 0.930 . S
H2116 C2098 0.932 . S
H2117 C2099 0.929 . S
H2118 C2100 0.928 . S
H2119 C2102 0.932 . S
C2120 C2121 1.264 . S
C2120 C2125 1.479 . S
C2120 C2130 1.465 . S
C2121 C2120 1.264 . S
C2121 C2123 1.339 . S
C2121 H2148 0.931 . S
C2122 C2123 1.395 . S
C2122 C2124 1.320 . S
C2123 C2121 1.339 . S
C2123 C2122 1.395 . S
C2123 H2149 0.929 . S
C2124 C2122 1.320 . S
C2124 C2125 1.405 . S
C2124 H2150 0.930 . S
C2125 C2120 1.479 . S
C2125 C2124 1.405 . S
C2125 H2151 0.931 . S
U2126 O2127 2.454 . S
U2126 O2128 2.458 . S
U2126 C2129 2.984 . S
U2126 C2130 2.847 . S
U2126 C2143 2.882 . S
U2126 O2144 2.441 . S
U2126 O2145 2.420 . S
U2126 O2146 2.455 . S
U2126 O2147 2.449 . S
O2127 U2126 2.454 . S
O2127 C2129 1.353 . S
O2128 U2126 2.458 . S
O2128 C2129 1.286 . S
C2129 U2126 2.984 . S
C2129 O2127 1.353 . S
C2129 O2128 1.286 . S
C2129 C2131 1.363 . S
C2130 C2120 1.465 . S
C2130 U2126 2.847 . S
C2130 O2144 1.249 . S
C2130 O2145 1.202 . S
C2131 C2129 1.363 . S
C2131 C2133 1.408 . S
C2131 C2136 1.342 . S
C2132 C2133 1.310 . S
C2132 C2135 1.461 . S
C2132 H2152 0.932 . S
C2133 C2131 1.408 . S
C2133 C2132 1.310 . S
C2133 H2153 0.930 . S
C2134 C2135 1.474 . S
C2134 C2136 1.285 . S
C2134 H2154 0.929 . S
C2135 C2132 1.461 . S
C2135 C2134 1.474 . S
C2136 C2131 1.342 . S
C2136 C2134 1.285 . S
C2136 H2155 0.930 . S
C2137 C2140 1.424 . S
C2137 C2142 1.245 . S
C2137 C2143 1.428 . S
C2138 C2141 1.260 . S
C2138 C2142 1.477 . S
C2138 H2156 0.932 . S
C2139 C2140 1.384 . S
C2139 C2141 1.479 . S
C2139 H2157 0.929 . S
C2140 C2137 1.424 . S
C2140 C2139 1.384 . S
C2140 H2158 0.928 . S
C2141 C2138 1.260 . S
C2141 C2139 1.479 . S
C2142 C2137 1.245 . S
C2142 C2138 1.477 . S
C2142 H2159 0.932 . S
C2143 U2126 2.882 . S
C2143 C2137 1.428 . S
C2143 O2146 1.301 . S
C2143 O2147 1.282 . S
O2144 U2126 2.441 . S
O2144 C2130 1.249 . S
O2145 U2126 2.420 . S
O2145 C2130 1.202 . S
O2146 U2126 2.455 . S
O2146 C2143 1.301 . S
O2147 U2126 2.449 . S
O2147 C2143 1.282 . S
H2148 C2121 0.931 . S
H2149 C2123 0.929 . S
H2150 C2124 0.930 . S
H2151 C2125 0.931 . S
H2152 C2132 0.932 . S
H2153 C2133 0.930 . S
H2154 C2134 0.929 . S
H2155 C2136 0.930 . S
H2156 C2138 0.932 . S
H2157 C2139 0.929 . S
H2158 C2140 0.928 . S
H2159 C2142 0.932 . S
C2160 C2161 1.264 . S
C2160 C2165 1.479 . S
C2160 C2170 1.465 . S
C2161 C2160 1.264 . S
C2161 C2163 1.339 . S
C2161 H2188 0.931 . S
C2162 C2163 1.395 . S
C2162 C2164 1.320 . S
C2163 C2161 1.339 . S
C2163 C2162 1.395 . S
C2163 H2189 0.929 . S
C2164 C2162 1.320 . S
C2164 C2165 1.405 . S
C2164 H2190 0.930 . S
C2165 C2160 1.479 . S
C2165 C2164 1.405 . S
C2165 H2191 0.931 . S
U2166 O2167 2.454 . S
U2166 O2168 2.458 . S
U2166 C2169 2.984 . S
U2166 C2170 2.847 . S
U2166 C2183 2.882 . S
U2166 O2184 2.441 . S
U2166 O2185 2.420 . S
U2166 O2186 2.455 . S
U2166 O2187 2.449 . S
O2167 U2166 2.454 . S
O2167 C2169 1.353 . S
O2168 U2166 2.458 . S
O2168 C2169 1.286 . S
C2169 U2166 2.984 . S
C2169 O2167 1.353 . S
C2169 O2168 1.286 . S
C2169 C2171 1.363 . S
C2170 C2160 1.465 . S
C2170 U2166 2.847 . S
C2170 O2184 1.249 . S
C2170 O2185 1.202 . S
C2171 C2169 1.363 . S
C2171 C2173 1.408 . S
C2171 C2176 1.342 . S
C2172 C2173 1.310 . S
C2172 C2175 1.461 . S
C2172 H2192 0.932 . S
C2173 C2171 1.408 . S
C2173 C2172 1.310 . S
C2173 H2193 0.930 . S
C2174 C2175 1.474 . S
C2174 C2176 1.285 . S
C2174 H2194 0.929 . S
C2175 C2172 1.461 . S
C2175 C2174 1.474 . S
C2176 C2171 1.342 . S
C2176 C2174 1.285 . S
C2176 H2195 0.930 . S
C2177 C2180 1.424 . S
C2177 C2182 1.245 . S
C2177 C2183 1.428 . S
C2178 C2181 1.260 . S
C2178 C2182 1.477 . S
C2178 H2196 0.932 . S
C2179 C2180 1.384 . S
C2179 C2181 1.479 . S
C2179 H2197 0.929 . S
C2180 C2177 1.424 . S
C2180 C2179 1.384 . S
C2180 H2198 0.928 . S
C2181 C2178 1.260 . S
C2181 C2179 1.479 . S
C2182 C2177 1.245 . S
C2182 C2178 1.477 . S
C2182 H2199 0.932 . S
C2183 U2166 2.882 . S
C2183 C2177 1.428 . S
C2183 O2186 1.301 . S
C2183 O2187 1.282 . S
O2184 U2166 2.441 . S
O2184 C2170 1.249 . S
O2185 U2166 2.420 . S
O2185 C2170 1.202 . S
O2186 U2166 2.455 . S
O2186 C2183 1.301 . S
O2187 U2166 2.449 . S
O2187 C2183 1.282 . S
H2188 C2161 0.931 . S
H2189 C2163 0.929 . S
H2190 C2164 0.930 . S
H2191 C2165 0.931 . S
H2192 C2172 0.932 . S
H2193 C2173 0.930 . S
H2194 C2174 0.929 . S
H2195 C2176 0.930 . S
H2196 C2178 0.932 . S
H2197 C2179 0.929 . S
H2198 C2180 0.928 . S
H2199 C2182 0.932 . S
C2200 C2201 1.264 . S
C2200 C2205 1.479 . S
C2200 C2210 1.465 . S
C2201 C2200 1.264 . S
C2201 C2203 1.339 . S
C2201 H2228 0.931 . S
C2202 C2203 1.395 . S
C2202 C2204 1.320 . S
C2203 C2201 1.339 . S
C2203 C2202 1.395 . S
C2203 H2229 0.929 . S
C2204 C2202 1.320 . S
C2204 C2205 1.405 . S
C2204 H2230 0.930 . S
C2205 C2200 1.479 . S
C2205 C2204 1.405 . S
C2205 H2231 0.931 . S
U2206 O2207 2.454 . S
U2206 O2208 2.458 . S
U2206 C2209 2.984 . S
U2206 C2210 2.847 . S
U2206 C2223 2.882 . S
U2206 O2224 2.441 . S
U2206 O2225 2.420 . S
U2206 O2226 2.455 . S
U2206 O2227 2.449 . S
O2207 U2206 2.454 . S
O2207 C2209 1.353 . S
O2208 U2206 2.458 . S
O2208 C2209 1.286 . S
C2209 U2206 2.984 . S
C2209 O2207 1.353 . S
C2209 O2208 1.286 . S
C2209 C2211 1.363 . S
C2210 C2200 1.465 . S
C2210 U2206 2.847 . S
C2210 O2224 1.249 . S
C2210 O2225 1.202 . S
C2211 C2209 1.363 . S
C2211 C2213 1.408 . S
C2211 C2216 1.342 . S
C2212 C2213 1.310 . S
C2212 C2215 1.461 . S
C2212 H2232 0.932 . S
C2213 C2211 1.408 . S
C2213 C2212 1.310 . S
C2213 H2233 0.930 . S
C2214 C2215 1.474 . S
C2214 C2216 1.285 . S
C2214 H2234 0.929 . S
C2215 C2212 1.461 . S
C2215 C2214 1.474 . S
C2216 C2211 1.342 . S
C2216 C2214 1.285 . S
C2216 H2235 0.930 . S
C2217 C2220 1.424 . S
C2217 C2222 1.245 . S
C2217 C2223 1.428 . S
C2218 C2221 1.260 . S
C2218 C2222 1.477 . S
C2218 H2236 0.932 . S
C2219 C2220 1.384 . S
C2219 C2221 1.479 . S
C2219 H2237 0.929 . S
C2220 C2217 1.424 . S
C2220 C2219 1.384 . S
C2220 H2238 0.928 . S
C2221 C2218 1.260 . S
C2221 C2219 1.479 . S
C2222 C2217 1.245 . S
C2222 C2218 1.477 . S
C2222 H2239 0.932 . S
C2223 U2206 2.882 . S
C2223 C2217 1.428 . S
C2223 O2226 1.301 . S
C2223 O2227 1.282 . S
O2224 U2206 2.441 . S
O2224 C2210 1.249 . S
O2225 U2206 2.420 . S
O2225 C2210 1.202 . S
O2226 U2206 2.455 . S
O2226 C2223 1.301 . S
O2227 U2206 2.449 . S
O2227 C2223 1.282 . S
H2228 C2201 0.931 . S
H2229 C2203 0.929 . S
H2230 C2204 0.930 . S
H2231 C2205 0.931 . S
H2232 C2212 0.932 . S
H2233 C2213 0.930 . S
H2234 C2214 0.929 . S
H2235 C2216 0.930 . S
H2236 C2218 0.932 . S
H2237 C2219 0.929 . S
H2238 C2220 0.928 . S
H2239 C2222 0.932 . S
C2240 C2241 1.264 . S
C2240 C2245 1.479 . S
C2240 C2250 1.465 . S
C2241 C2240 1.264 . S
C2241 C2243 1.339 . S
C2241 H2268 0.931 . S
C2242 C2243 1.395 . S
C2242 C2244 1.320 . S
C2243 C2241 1.339 . S
C2243 C2242 1.395 . S
C2243 H2269 0.929 . S
C2244 C2242 1.320 . S
C2244 C2245 1.405 . S
C2244 H2270 0.930 . S
C2245 C2240 1.479 . S
C2245 C2244 1.405 . S
C2245 H2271 0.931 . S
U2246 O2247 2.454 . S
U2246 O2248 2.458 . S
U2246 C2249 2.984 . S
U2246 C2250 2.847 . S
U2246 C2263 2.882 . S
U2246 O2264 2.441 . S
U2246 O2265 2.420 . S
U2246 O2266 2.455 . S
U2246 O2267 2.449 . S
O2247 U2246 2.454 . S
O2247 C2249 1.353 . S
O2248 U2246 2.458 . S
O2248 C2249 1.286 . S
C2249 U2246 2.984 . S
C2249 O2247 1.353 . S
C2249 O2248 1.286 . S
C2249 C2251 1.363 . S
C2250 C2240 1.465 . S
C2250 U2246 2.847 . S
C2250 O2264 1.249 . S
C2250 O2265 1.202 . S
C2251 C2249 1.363 . S
C2251 C2253 1.408 . S
C2251 C2256 1.342 . S
C2252 C2253 1.310 . S
C2252 C2255 1.461 . S
C2252 H2272 0.932 . S
C2253 C2251 1.408 . S
C2253 C2252 1.310 . S
C2253 H2273 0.930 . S
C2254 C2255 1.474 . S
C2254 C2256 1.285 . S
C2254 H2274 0.929 . S
C2255 C2252 1.461 . S
C2255 C2254 1.474 . S
C2256 C2251 1.342 . S
C2256 C2254 1.285 . S
C2256 H2275 0.930 . S
C2257 C2260 1.424 . S
C2257 C2262 1.245 . S
C2257 C2263 1.428 . S
C2258 C2261 1.260 . S
C2258 C2262 1.477 . S
C2258 H2276 0.932 . S
C2259 C2260 1.384 . S
C2259 C2261 1.479 . S
C2259 H2277 0.929 . S
C2260 C2257 1.424 . S
C2260 C2259 1.384 . S
C2260 H2278 0.928 . S
C2261 C2258 1.260 . S
C2261 C2259 1.479 . S
C2262 C2257 1.245 . S
C2262 C2258 1.477 . S
C2262 H2279 0.932 . S
C2263 U2246 2.882 . S
C2263 C2257 1.428 . S
C2263 O2266 1.301 . S
C2263 O2267 1.282 . S
O2264 U2246 2.441 . S
O2264 C2250 1.249 . S
O2265 U2246 2.420 . S
O2265 C2250 1.202 . S
O2266 U2246 2.455 . S
O2266 C2263 1.301 . S
O2267 U2246 2.449 . S
O2267 C2263 1.282 . S
H2268 C2241 0.931 . S
H2269 C2243 0.929 . S
H2270 C2244 0.930 . S
H2271 C2245 0.931 . S
H2272 C2252 0.932 . S
H2273 C2253 0.930 . S
H2274 C2254 0.929 . S
H2275 C2256 0.930 . S
H2276 C2258 0.932 . S
H2277 C2259 0.929 . S
H2278 C2260 0.928 . S
H2279 C2262 0.932 . S
C2280 C2281 1.264 . S
C2280 C2285 1.479 . S
C2280 C2290 1.465 . S
C2281 C2280 1.264 . S
C2281 C2283 1.339 . S
C2281 H2308 0.931 . S
C2282 C2283 1.395 . S
C2282 C2284 1.320 . S
C2283 C2281 1.339 . S
C2283 C2282 1.395 . S
C2283 H2309 0.929 . S
C2284 C2282 1.320 . S
C2284 C2285 1.405 . S
C2284 H2310 0.930 . S
C2285 C2280 1.479 . S
C2285 C2284 1.405 . S
C2285 H2311 0.931 . S
U2286 O2287 2.454 . S
U2286 O2288 2.458 . S
U2286 C2289 2.984 . S
U2286 C2290 2.847 . S
U2286 C2303 2.882 . S
U2286 O2304 2.441 . S
U2286 O2305 2.420 . S
U2286 O2306 2.455 . S
U2286 O2307 2.449 . S
O2287 U2286 2.454 . S
O2287 C2289 1.353 . S
O2288 U2286 2.458 . S
O2288 C2289 1.286 . S
C2289 U2286 2.984 . S
C2289 O2287 1.353 . S
C2289 O2288 1.286 . S
C2289 C2291 1.363 . S
C2290 C2280 1.465 . S
C2290 U2286 2.847 . S
C2290 O2304 1.249 . S
C2290 O2305 1.202 . S
C2291 C2289 1.363 . S
C2291 C2293 1.408 . S
C2291 C2296 1.342 . S
C2292 C2293 1.310 . S
C2292 C2295 1.461 . S
C2292 H2312 0.932 . S
C2293 C2291 1.408 . S
C2293 C2292 1.310 . S
C2293 H2313 0.930 . S
C2294 C2295 1.474 . S
C2294 C2296 1.285 . S
C2294 H2314 0.929 . S
C2295 C2292 1.461 . S
C2295 C2294 1.474 . S
C2296 C2291 1.342 . S
C2296 C2294 1.285 . S
C2296 H2315 0.930 . S
C2297 C2300 1.424 . S
C2297 C2302 1.245 . S
C2297 C2303 1.428 . S
C2298 C2301 1.260 . S
C2298 C2302 1.477 . S
C2298 H2316 0.932 . S
C2299 C2300 1.384 . S
C2299 C2301 1.479 . S
C2299 H2317 0.929 . S
C2300 C2297 1.424 . S
C2300 C2299 1.384 . S
C2300 H2318 0.928 . S
C2301 C2298 1.260 . S
C2301 C2299 1.479 . S
C2302 C2297 1.245 . S
C2302 C2298 1.477 . S
C2302 H2319 0.932 . S
C2303 U2286 2.882 . S
C2303 C2297 1.428 . S
C2303 O2306 1.301 . S
C2303 O2307 1.282 . S
O2304 U2286 2.441 . S
O2304 C2290 1.249 . S
O2305 U2286 2.420 . S
O2305 C2290 1.202 . S
O2306 U2286 2.455 . S
O2306 C2303 1.301 . S
O2307 U2286 2.449 . S
O2307 C2303 1.282 . S
H2308 C2281 0.931 . S
H2309 C2283 0.929 . S
H2310 C2284 0.930 . S
H2311 C2285 0.931 . S
H2312 C2292 0.932 . S
H2313 C2293 0.930 . S
H2314 C2294 0.929 . S
H2315 C2296 0.930 . S
H2316 C2298 0.932 . S
H2317 C2299 0.929 . S
H2318 C2300 0.928 . S
H2319 C2302 0.932 . S
C2320 C2321 1.264 . S
C2320 C2325 1.479 . S
C2320 C2330 1.465 . S
C2321 C2320 1.264 . S
C2321 C2323 1.339 . S
C2321 H2348 0.931 . S
C2322 C2323 1.395 . S
C2322 C2324 1.320 . S
C2323 C2321 1.339 . S
C2323 C2322 1.395 . S
C2323 H2349 0.929 . S
C2324 C2322 1.320 . S
C2324 C2325 1.405 . S
C2324 H2350 0.930 . S
C2325 C2320 1.479 . S
C2325 C2324 1.405 . S
C2325 H2351 0.931 . S
U2326 O2327 2.454 . S
U2326 O2328 2.458 . S
U2326 C2329 2.984 . S
U2326 C2330 2.847 . S
U2326 C2343 2.882 . S
U2326 O2344 2.441 . S
U2326 O2345 2.420 . S
U2326 O2346 2.455 . S
U2326 O2347 2.449 . S
O2327 U2326 2.454 . S
O2327 C2329 1.353 . S
O2328 U2326 2.458 . S
O2328 C2329 1.286 . S
C2329 U2326 2.984 . S
C2329 O2327 1.353 . S
C2329 O2328 1.286 . S
C2329 C2331 1.363 . S
C2330 C2320 1.465 . S
C2330 U2326 2.847 . S
C2330 O2344 1.249 . S
C2330 O2345 1.202 . S
C2331 C2329 1.363 . S
C2331 C2333 1.408 . S
C2331 C2336 1.342 . S
C2332 C2333 1.310 . S
C2332 C2335 1.461 . S
C2332 H2352 0.932 . S
C2333 C2331 1.408 . S
C2333 C2332 1.310 . S
C2333 H2353 0.930 . S
C2334 C2335 1.474 . S
C2334 C2336 1.285 . S
C2334 H2354 0.929 . S
C2335 C2332 1.461 . S
C2335 C2334 1.474 . S
C2336 C2331 1.342 . S
C2336 C2334 1.285 . S
C2336 H2355 0.930 . S
C2337 C2340 1.424 . S
C2337 C2342 1.245 . S
C2337 C2343 1.428 . S
C2338 C2341 1.260 . S
C2338 C2342 1.477 . S
C2338 H2356 0.932 . S
C2339 C2340 1.384 . S
C2339 C2341 1.479 . S
C2339 H2357 0.929 . S
C2340 C2337 1.424 . S
C2340 C2339 1.384 . S
C2340 H2358 0.928 . S
C2341 C2338 1.260 . S
C2341 C2339 1.479 . S
C2342 C2337 1.245 . S
C2342 C2338 1.477 . S
C2342 H2359 0.932 . S
C2343 U2326 2.882 . S
C2343 C2337 1.428 . S
C2343 O2346 1.301 . S
C2343 O2347 1.282 . S
O2344 U2326 2.441 . S
O2344 C2330 1.249 . S
O2345 U2326 2.420 . S
O2345 C2330 1.202 . S
O2346 U2326 2.455 . S
O2346 C2343 1.301 . S
O2347 U2326 2.449 . S
O2347 C2343 1.282 . S
H2348 C2321 0.931 . S
H2349 C2323 0.929 . S
H2350 C2324 0.930 . S
H2351 C2325 0.931 . S
H2352 C2332 0.932 . S
H2353 C2333 0.930 . S
H2354 C2334 0.929 . S
H2355 C2336 0.930 . S
H2356 C2338 0.932 . S
H2357 C2339 0.929 . S
H2358 C2340 0.928 . S
H2359 C2342 0.932 . S
C2360 C2361 1.264 . S
C2360 C2365 1.479 . S
C2360 C2370 1.465 . S
C2361 C2360 1.264 . S
C2361 C2363 1.339 . S
C2361 H2388 0.931 . S
C2362 C2363 1.395 . S
C2362 C2364 1.320 . S
C2363 C2361 1.339 . S
C2363 C2362 1.395 . S
C2363 H2389 0.929 . S
C2364 C2362 1.320 . S
C2364 C2365 1.405 . S
C2364 H2390 0.930 . S
C2365 C2360 1.479 . S
C2365 C2364 1.405 . S
C2365 H2391 0.931 . S
U2366 O2367 2.454 . S
U2366 O2368 2.458 . S
U2366 C2369 2.984 . S
U2366 C2370 2.847 . S
U2366 C2383 2.882 . S
U2366 O2384 2.441 . S
U2366 O2385 2.420 . S
U2366 O2386 2.455 . S
U2366 O2387 2.449 . S
O2367 U2366 2.454 . S
O2367 C2369 1.353 . S
O2368 U2366 2.458 . S
O2368 C2369 1.286 . S
C2369 U2366 2.984 . S
C2369 O2367 1.353 . S
C2369 O2368 1.286 . S
C2369 C2371 1.363 . S
C2370 C2360 1.465 . S
C2370 U2366 2.847 . S
C2370 O2384 1.249 . S
C2370 O2385 1.202 . S
C2371 C2369 1.363 . S
C2371 C2373 1.408 . S
C2371 C2376 1.342 . S
C2372 C2373 1.310 . S
C2372 C2375 1.461 . S
C2372 H2392 0.932 . S
C2373 C2371 1.408 . S
C2373 C2372 1.310 . S
C2373 H2393 0.930 . S
C2374 C2375 1.474 . S
C2374 C2376 1.285 . S
C2374 H2394 0.929 . S
C2375 C2372 1.461 . S
C2375 C2374 1.474 . S
C2376 C2371 1.342 . S
C2376 C2374 1.285 . S
C2376 H2395 0.930 . S
C2377 C2380 1.424 . S
C2377 C2382 1.245 . S
C2377 C2383 1.428 . S
C2378 C2381 1.260 . S
C2378 C2382 1.477 . S
C2378 H2396 0.932 . S
C2379 C2380 1.384 . S
C2379 C2381 1.479 . S
C2379 H2397 0.929 . S
C2380 C2377 1.424 . S
C2380 C2379 1.384 . S
C2380 H2398 0.928 . S
C2381 C2378 1.260 . S
C2381 C2379 1.479 . S
C2382 C2377 1.245 . S
C2382 C2378 1.477 . S
C2382 H2399 0.932 . S
C2383 U2366 2.882 . S
C2383 C2377 1.428 . S
C2383 O2386 1.301 . S
C2383 O2387 1.282 . S
O2384 U2366 2.441 . S
O2384 C2370 1.249 . S
O2385 U2366 2.420 . S
O2385 C2370 1.202 . S
O2386 U2366 2.455 . S
O2386 C2383 1.301 . S
O2387 U2366 2.449 . S
O2387 C2383 1.282 . S
H2388 C2361 0.931 . S
H2389 C2363 0.929 . S
H2390 C2364 0.930 . S
H2391 C2365 0.931 . S
H2392 C2372 0.932 . S
H2393 C2373 0.930 . S
H2394 C2374 0.929 . S
H2395 C2376 0.930 . S
H2396 C2378 0.932 . S
H2397 C2379 0.929 . S
H2398 C2380 0.928 . S
H2399 C2382 0.932 . S
C2400 C2401 1.264 . S
C2400 C2405 1.479 . S
C2400 C2410 1.465 . S
C2401 C2400 1.264 . S
C2401 C2403 1.339 . S
C2401 H2428 0.931 . S
C2402 C2403 1.395 . S
C2402 C2404 1.320 . S
C2403 C2401 1.339 . S
C2403 C2402 1.395 . S
C2403 H2429 0.929 . S
C2404 C2402 1.320 . S
C2404 C2405 1.405 . S
C2404 H2430 0.930 . S
C2405 C2400 1.479 . S
C2405 C2404 1.405 . S
C2405 H2431 0.931 . S
U2406 O2407 2.454 . S
U2406 O2408 2.458 . S
U2406 C2409 2.984 . S
U2406 C2410 2.847 . S
U2406 C2423 2.882 . S
U2406 O2424 2.441 . S
U2406 O2425 2.420 . S
U2406 O2426 2.455 . S
U2406 O2427 2.449 . S
O2407 U2406 2.454 . S
O2407 C2409 1.353 . S
O2408 U2406 2.458 . S
O2408 C2409 1.286 . S
C2409 U2406 2.984 . S
C2409 O2407 1.353 . S
C2409 O2408 1.286 . S
C2409 C2411 1.363 . S
C2410 C2400 1.465 . S
C2410 U2406 2.847 . S
C2410 O2424 1.249 . S
C2410 O2425 1.202 . S
C2411 C2409 1.363 . S
C2411 C2413 1.408 . S
C2411 C2416 1.342 . S
C2412 C2413 1.310 . S
C2412 C2415 1.461 . S
C2412 H2432 0.932 . S
C2413 C2411 1.408 . S
C2413 C2412 1.310 . S
C2413 H2433 0.930 . S
C2414 C2415 1.474 . S
C2414 C2416 1.285 . S
C2414 H2434 0.929 . S
C2415 C2412 1.461 . S
C2415 C2414 1.474 . S
C2416 C2411 1.342 . S
C2416 C2414 1.285 . S
C2416 H2435 0.930 . S
C2417 C2420 1.424 . S
C2417 C2422 1.245 . S
C2417 C2423 1.428 . S
C2418 C2421 1.260 . S
C2418 C2422 1.477 . S
C2418 H2436 0.932 . S
C2419 C2420 1.384 . S
C2419 C2421 1.479 . S
C2419 H2437 0.929 . S
C2420 C2417 1.424 . S
C2420 C2419 1.384 . S
C2420 H2438 0.928 . S
C2421 C2418 1.260 . S
C2421 C2419 1.479 . S
C2422 C2417 1.245 . S
C2422 C2418 1.477 . S
C2422 H2439 0.932 . S
C2423 U2406 2.882 . S
C2423 C2417 1.428 . S
C2423 O2426 1.301 . S
C2423 O2427 1.282 . S
O2424 U2406 2.441 . S
O2424 C2410 1.249 . S
O2425 U2406 2.420 . S
O2425 C2410 1.202 . S
O2426 U2406 2.455 . S
O2426 C2423 1.301 . S
O2427 U2406 2.449 . S
O2427 C2423 1.282 . S
H2428 C2401 0.931 . S
H2429 C2403 0.929 . S
H2430 C2404 0.930 . S
H2431 C2405 0.931 . S
H2432 C2412 0.932 . S
H2433 C2413 0.930 . S
H2434 C2414 0.929 . S
H2435 C2416 0.930 . S
H2436 C2418 0.932 . S
H2437 C2419 0.929 . S
H2438 C2420 0.928 . S
H2439 C2422 0.932 . S
C2440 C2441 1.264 . S
C2440 C2445 1.479 . S
C2440 C2450 1.465 . S
C2441 C2440 1.264 . S
C2441 C2443 1.339 . S
C2441 H2468 0.931 . S
C2442 C2443 1.395 . S
C2442 C2444 1.320 . S
C2443 C2441 1.339 . S
C2443 C2442 1.395 . S
C2443 H2469 0.929 . S
C2444 C2442 1.320 . S
C2444 C2445 1.405 . S
C2444 H2470 0.930 . S
C2445 C2440 1.479 . S
C2445 C2444 1.405 . S
C2445 H2471 0.931 . S
U2446 O2447 2.454 . S
U2446 O2448 2.458 . S
U2446 C2449 2.984 . S
U2446 C2450 2.847 . S
U2446 C2463 2.882 . S
U2446 O2464 2.441 . S
U2446 O2465 2.420 . S
U2446 O2466 2.455 . S
U2446 O2467 2.449 . S
O2447 U2446 2.454 . S
O2447 C2449 1.353 . S
O2448 U2446 2.458 . S
O2448 C2449 1.286 . S
C2449 U2446 2.984 . S
C2449 O2447 1.353 . S
C2449 O2448 1.286 . S
C2449 C2451 1.363 . S
C2450 C2440 1.465 . S
C2450 U2446 2.847 . S
C2450 O2464 1.249 . S
C2450 O2465 1.202 . S
C2451 C2449 1.363 . S
C2451 C2453 1.408 . S
C2451 C2456 1.342 . S
C2452 C2453 1.310 . S
C2452 C2455 1.461 . S
C2452 H2472 0.932 . S
C2453 C2451 1.408 . S
C2453 C2452 1.310 . S
C2453 H2473 0.930 . S
C2454 C2455 1.474 . S
C2454 C2456 1.285 . S
C2454 H2474 0.929 . S
C2455 C2452 1.461 . S
C2455 C2454 1.474 . S
C2456 C2451 1.342 . S
C2456 C2454 1.285 . S
C2456 H2475 0.930 . S
C2457 C2460 1.424 . S
C2457 C2462 1.245 . S
C2457 C2463 1.428 . S
C2458 C2461 1.260 . S
C2458 C2462 1.477 . S
C2458 H2476 0.932 . S
C2459 C2460 1.384 . S
C2459 C2461 1.479 . S
C2459 H2477 0.929 . S
C2460 C2457 1.424 . S
C2460 C2459 1.384 . S
C2460 H2478 0.928 . S
C2461 C2458 1.260 . S
C2461 C2459 1.479 . S
C2462 C2457 1.245 . S
C2462 C2458 1.477 . S
C2462 H2479 0.932 . S
C2463 U2446 2.882 . S
C2463 C2457 1.428 . S
C2463 O2466 1.301 . S
C2463 O2467 1.282 . S
O2464 U2446 2.441 . S
O2464 C2450 1.249 . S
O2465 U2446 2.420 . S
O2465 C2450 1.202 . S
O2466 U2446 2.455 . S
O2466 C2463 1.301 . S
O2467 U2446 2.449 . S
O2467 C2463 1.282 . S
H2468 C2441 0.931 . S
H2469 C2443 0.929 . S
H2470 C2444 0.930 . S
H2471 C2445 0.931 . S
H2472 C2452 0.932 . S
H2473 C2453 0.930 . S
H2474 C2454 0.929 . S
H2475 C2456 0.930 . S
H2476 C2458 0.932 . S
H2477 C2459 0.929 . S
H2478 C2460 0.928 . S
H2479 C2462 0.932 . S
C2480 C2481 1.264 . S
C2480 C2485 1.479 . S
C2480 C2490 1.465 . S
C2481 C2480 1.264 . S
C2481 C2483 1.339 . S
C2481 H2508 0.931 . S
C2482 C2483 1.395 . S
C2482 C2484 1.320 . S
C2483 C2481 1.339 . S
C2483 C2482 1.395 . S
C2483 H2509 0.929 . S
C2484 C2482 1.320 . S
C2484 C2485 1.405 . S
C2484 H2510 0.930 . S
C2485 C2480 1.479 . S
C2485 C2484 1.405 . S
C2485 H2511 0.931 . S
U2486 O2487 2.454 . S
U2486 O2488 2.458 . S
U2486 C2489 2.984 . S
U2486 C2490 2.847 . S
U2486 C2503 2.882 . S
U2486 O2504 2.441 . S
U2486 O2505 2.420 . S
U2486 O2506 2.455 . S
U2486 O2507 2.449 . S
O2487 U2486 2.454 . S
O2487 C2489 1.353 . S
O2488 U2486 2.458 . S
O2488 C2489 1.286 . S
C2489 U2486 2.984 . S
C2489 O2487 1.353 . S
C2489 O2488 1.286 . S
C2489 C2491 1.363 . S
C2490 C2480 1.465 . S
C2490 U2486 2.847 . S
C2490 O2504 1.249 . S
C2490 O2505 1.202 . S
C2491 C2489 1.363 . S
C2491 C2493 1.408 . S
C2491 C2496 1.342 . S
C2492 C2493 1.310 . S
C2492 C2495 1.461 . S
C2492 H2512 0.932 . S
C2493 C2491 1.408 . S
C2493 C2492 1.310 . S
C2493 H2513 0.930 . S
C2494 C2495 1.474 . S
C2494 C2496 1.285 . S
C2494 H2514 0.929 . S
C2495 C2492 1.461 . S
C2495 C2494 1.474 . S
C2496 C2491 1.342 . S
C2496 C2494 1.285 . S
C2496 H2515 0.930 . S
C2497 C2500 1.424 . S
C2497 C2502 1.245 . S
C2497 C2503 1.428 . S
C2498 C2501 1.260 . S
C2498 C2502 1.477 . S
C2498 H2516 0.932 . S
C2499 C2500 1.384 . S
C2499 C2501 1.479 . S
C2499 H2517 0.929 . S
C2500 C2497 1.424 . S
C2500 C2499 1.384 . S
C2500 H2518 0.928 . S
C2501 C2498 1.260 . S
C2501 C2499 1.479 . S
C2502 C2497 1.245 . S
C2502 C2498 1.477 . S
C2502 H2519 0.932 . S
C2503 U2486 2.882 . S
C2503 C2497 1.428 . S
C2503 O2506 1.301 . S
C2503 O2507 1.282 . S
O2504 U2486 2.441 . S
O2504 C2490 1.249 . S
O2505 U2486 2.420 . S
O2505 C2490 1.202 . S
O2506 U2486 2.455 . S
O2506 C2503 1.301 . S
O2507 U2486 2.449 . S
O2507 C2503 1.282 . S
H2508 C2481 0.931 . S
H2509 C2483 0.929 . S
H2510 C2484 0.930 . S
H2511 C2485 0.931 . S
H2512 C2492 0.932 . S
H2513 C2493 0.930 . S
H2514 C2494 0.929 . S
H2515 C2496 0.930 . S
H2516 C2498 0.932 . S
H2517 C2499 0.929 . S
H2518 C2500 0.928 . S
H2519 C2502 0.932 . S
C2520 C2521 1.264 . S
C2520 C2525 1.479 . S
C2520 C2530 1.465 . S
C2521 C2520 1.264 . S
C2521 C2523 1.339 . S
C2521 H2548 0.931 . S
C2522 C2523 1.395 . S
C2522 C2524 1.320 . S
C2523 C2521 1.339 . S
C2523 C2522 1.395 . S
C2523 H2549 0.929 . S
C2524 C2522 1.320 . S
C2524 C2525 1.405 . S
C2524 H2550 0.930 . S
C2525 C2520 1.479 . S
C2525 C2524 1.405 . S
C2525 H2551 0.931 . S
U2526 O2527 2.454 . S
U2526 O2528 2.458 . S
U2526 C2529 2.984 . S
U2526 C2530 2.847 . S
U2526 C2543 2.882 . S
U2526 O2544 2.441 . S
U2526 O2545 2.420 . S
U2526 O2546 2.455 . S
U2526 O2547 2.449 . S
O2527 U2526 2.454 . S
O2527 C2529 1.353 . S
O2528 U2526 2.458 . S
O2528 C2529 1.286 . S
C2529 U2526 2.984 . S
C2529 O2527 1.353 . S
C2529 O2528 1.286 . S
C2529 C2531 1.363 . S
C2530 C2520 1.465 . S
C2530 U2526 2.847 . S
C2530 O2544 1.249 . S
C2530 O2545 1.202 . S
C2531 C2529 1.363 . S
C2531 C2533 1.408 . S
C2531 C2536 1.342 . S
C2532 C2533 1.310 . S
C2532 C2535 1.461 . S
C2532 H2552 0.932 . S
C2533 C2531 1.408 . S
C2533 C2532 1.310 . S
C2533 H2553 0.930 . S
C2534 C2535 1.474 . S
C2534 C2536 1.285 . S
C2534 H2554 0.929 . S
C2535 C2532 1.461 . S
C2535 C2534 1.474 . S
C2536 C2531 1.342 . S
C2536 C2534 1.285 . S
C2536 H2555 0.930 . S
C2537 C2540 1.424 . S
C2537 C2542 1.245 . S
C2537 C2543 1.428 . S
C2538 C2541 1.260 . S
C2538 C2542 1.477 . S
C2538 H2556 0.932 . S
C2539 C2540 1.384 . S
C2539 C2541 1.479 . S
C2539 H2557 0.929 . S
C2540 C2537 1.424 . S
C2540 C2539 1.384 . S
C2540 H2558 0.928 . S
C2541 C2538 1.260 . S
C2541 C2539 1.479 . S
C2542 C2537 1.245 . S
C2542 C2538 1.477 . S
C2542 H2559 0.932 . S
C2543 U2526 2.882 . S
C2543 C2537 1.428 . S
C2543 O2546 1.301 . S
C2543 O2547 1.282 . S
O2544 U2526 2.441 . S
O2544 C2530 1.249 . S
O2545 U2526 2.420 . S
O2545 C2530 1.202 . S
O2546 U2526 2.455 . S
O2546 C2543 1.301 . S
O2547 U2526 2.449 . S
O2547 C2543 1.282 . S
H2548 C2521 0.931 . S
H2549 C2523 0.929 . S
H2550 C2524 0.930 . S
H2551 C2525 0.931 . S
H2552 C2532 0.932 . S
H2553 C2533 0.930 . S
H2554 C2534 0.929 . S
H2555 C2536 0.930 . S
H2556 C2538 0.932 . S
H2557 C2539 0.929 . S
H2558 C2540 0.928 . S
H2559 C2542 0.932 . S
C2560 C2561 1.264 . S
C2560 C2565 1.479 . S
C2560 C2570 1.465 . S
C2561 C2560 1.264 . S
C2561 C2563 1.339 . S
C2561 H2588 0.931 . S
C2562 C2563 1.395 . S
C2562 C2564 1.320 . S
C2563 C2561 1.339 . S
C2563 C2562 1.395 . S
C2563 H2589 0.929 . S
C2564 C2562 1.320 . S
C2564 C2565 1.405 . S
C2564 H2590 0.930 . S
C2565 C2560 1.479 . S
C2565 C2564 1.405 . S
C2565 H2591 0.931 . S
U2566 O2567 2.454 . S
U2566 O2568 2.458 . S
U2566 C2569 2.984 . S
U2566 C2570 2.847 . S
U2566 C2583 2.882 . S
U2566 O2584 2.441 . S
U2566 O2585 2.420 . S
U2566 O2586 2.455 . S
U2566 O2587 2.449 . S
O2567 U2566 2.454 . S
O2567 C2569 1.353 . S
O2568 U2566 2.458 . S
O2568 C2569 1.286 . S
C2569 U2566 2.984 . S
C2569 O2567 1.353 . S
C2569 O2568 1.286 . S
C2569 C2571 1.363 . S
C2570 C2560 1.465 . S
C2570 U2566 2.847 . S
C2570 O2584 1.249 . S
C2570 O2585 1.202 . S
C2571 C2569 1.363 . S
C2571 C2573 1.408 . S
C2571 C2576 1.342 . S
C2572 C2573 1.310 . S
C2572 C2575 1.461 . S
C2572 H2592 0.932 . S
C2573 C2571 1.408 . S
C2573 C2572 1.310 . S
C2573 H2593 0.930 . S
C2574 C2575 1.474 . S
C2574 C2576 1.285 . S
C2574 H2594 0.929 . S
C2575 C2572 1.461 . S
C2575 C2574 1.474 . S
C2576 C2571 1.342 . S
C2576 C2574 1.285 . S
C2576 H2595 0.930 . S
C2577 C2580 1.424 . S
C2577 C2582 1.245 . S
C2577 C2583 1.428 . S
C2578 C2581 1.260 . S
C2578 C2582 1.477 . S
C2578 H2596 0.932 . S
C2579 C2580 1.384 . S
C2579 C2581 1.479 . S
C2579 H2597 0.929 . S
C2580 C2577 1.424 . S
C2580 C2579 1.384 . S
C2580 H2598 0.928 . S
C2581 C2578 1.260 . S
C2581 C2579 1.479 . S
C2582 C2577 1.245 . S
C2582 C2578 1.477 . S
C2582 H2599 0.932 . S
C2583 U2566 2.882 . S
C2583 C2577 1.428 . S
C2583 O2586 1.301 . S
C2583 O2587 1.282 . S
O2584 U2566 2.441 . S
O2584 C2570 1.249 . S
O2585 U2566 2.420 . S
O2585 C2570 1.202 . S
O2586 U2566 2.455 . S
O2586 C2583 1.301 . S
O2587 U2566 2.449 . S
O2587 C2583 1.282 . S
H2588 C2561 0.931 . S
H2589 C2563 0.929 . S
H2590 C2564 0.930 . S
H2591 C2565 0.931 . S
H2592 C2572 0.932 . S
H2593 C2573 0.930 . S
H2594 C2574 0.929 . S
H2595 C2576 0.930 . S
H2596 C2578 0.932 . S
H2597 C2579 0.929 . S
H2598 C2580 0.928 . S
H2599 C2582 0.932 . S
C2600 C2601 1.264 . S
C2600 C2605 1.479 . S
C2600 C2610 1.465 . S
C2601 C2600 1.264 . S
C2601 C2603 1.339 . S
C2601 H2628 0.931 . S
C2602 C2603 1.395 . S
C2602 C2604 1.320 . S
C2603 C2601 1.339 . S
C2603 C2602 1.395 . S
C2603 H2629 0.929 . S
C2604 C2602 1.320 . S
C2604 C2605 1.405 . S
C2604 H2630 0.930 . S
C2605 C2600 1.479 . S
C2605 C2604 1.405 . S
C2605 H2631 0.931 . S
U2606 O2607 2.454 . S
U2606 O2608 2.458 . S
U2606 C2609 2.984 . S
U2606 C2610 2.847 . S
U2606 C2623 2.882 . S
U2606 O2624 2.441 . S
U2606 O2625 2.420 . S
U2606 O2626 2.455 . S
U2606 O2627 2.449 . S
O2607 U2606 2.454 . S
O2607 C2609 1.353 . S
O2608 U2606 2.458 . S
O2608 C2609 1.286 . S
C2609 U2606 2.984 . S
C2609 O2607 1.353 . S
C2609 O2608 1.286 . S
C2609 C2611 1.363 . S
C2610 C2600 1.465 . S
C2610 U2606 2.847 . S
C2610 O2624 1.249 . S
C2610 O2625 1.202 . S
C2611 C2609 1.363 . S
C2611 C2613 1.408 . S
C2611 C2616 1.342 . S
C2612 C2613 1.310 . S
C2612 C2615 1.461 . S
C2612 H2632 0.932 . S
C2613 C2611 1.408 . S
C2613 C2612 1.310 . S
C2613 H2633 0.930 . S
C2614 C2615 1.474 . S
C2614 C2616 1.285 . S
C2614 H2634 0.929 . S
C2615 C2612 1.461 . S
C2615 C2614 1.474 . S
C2616 C2611 1.342 . S
C2616 C2614 1.285 . S
C2616 H2635 0.930 . S
C2617 C2620 1.424 . S
C2617 C2622 1.245 . S
C2617 C2623 1.428 . S
C2618 C2621 1.260 . S
C2618 C2622 1.477 . S
C2618 H2636 0.932 . S
C2619 C2620 1.384 . S
C2619 C2621 1.479 . S
C2619 H2637 0.929 . S
C2620 C2617 1.424 . S
C2620 C2619 1.384 . S
C2620 H2638 0.928 . S
C2621 C2618 1.260 . S
C2621 C2619 1.479 . S
C2622 C2617 1.245 . S
C2622 C2618 1.477 . S
C2622 H2639 0.932 . S
C2623 U2606 2.882 . S
C2623 C2617 1.428 . S
C2623 O2626 1.301 . S
C2623 O2627 1.282 . S
O2624 U2606 2.441 . S
O2624 C2610 1.249 . S
O2625 U2606 2.420 . S
O2625 C2610 1.202 . S
O2626 U2606 2.455 . S
O2626 C2623 1.301 . S
O2627 U2606 2.449 . S
O2627 C2623 1.282 . S
H2628 C2601 0.931 . S
H2629 C2603 0.929 . S
H2630 C2604 0.930 . S
H2631 C2605 0.931 . S
H2632 C2612 0.932 . S
H2633 C2613 0.930 . S
H2634 C2614 0.929 . S
H2635 C2616 0.930 . S
H2636 C2618 0.932 . S
H2637 C2619 0.929 . S
H2638 C2620 0.928 . S
H2639 C2622 0.932 . S
C2640 C2641 1.264 . S
C2640 C2645 1.479 . S
C2640 C2650 1.465 . S
C2641 C2640 1.264 . S
C2641 C2643 1.339 . S
C2641 H2668 0.931 . S
C2642 C2643 1.395 . S
C2642 C2644 1.320 . S
C2643 C2641 1.339 . S
C2643 C2642 1.395 . S
C2643 H2669 0.929 . S
C2644 C2642 1.320 . S
C2644 C2645 1.405 . S
C2644 H2670 0.930 . S
C2645 C2640 1.479 . S
C2645 C2644 1.405 . S
C2645 H2671 0.931 . S
U2646 O2647 2.454 . S
U2646 O2648 2.458 . S
U2646 C2649 2.984 . S
U2646 C2650 2.847 . S
U2646 C2663 2.882 . S
U2646 O2664 2.441 . S
U2646 O2665 2.420 . S
U2646 O2666 2.455 . S
U2646 O2667 2.449 . S
O2647 U2646 2.454 . S
O2647 C2649 1.353 . S
O2648 U2646 2.458 . S
O2648 C2649 1.286 . S
C2649 U2646 2.984 . S
C2649 O2647 1.353 . S
C2649 O2648 1.286 . S
C2649 C2651 1.363 . S
C2650 C2640 1.465 . S
C2650 U2646 2.847 . S
C2650 O2664 1.249 . S
C2650 O2665 1.202 . S
C2651 C2649 1.363 . S
C2651 C2653 1.408 . S
C2651 C2656 1.342 . S
C2652 C2653 1.310 . S
C2652 C2655 1.461 . S
C2652 H2672 0.932 . S
C2653 C2651 1.408 . S
C2653 C2652 1.310 . S
C2653 H2673 0.930 . S
C2654 C2655 1.474 . S
C2654 C2656 1.285 . S
C2654 H2674 0.929 . S
C2655 C2652 1.461 . S
C2655 C2654 1.474 . S
C2656 C2651 1.342 . S
C2656 C2654 1.285 . S
C2656 H2675 0.930 . S
C2657 C2660 1.424 . S
C2657 C2662 1.245 . S
C2657 C2663 1.428 . S
C2658 C2661 1.260 . S
C2658 C2662 1.477 . S
C2658 H2676 0.932 . S
C2659 C2660 1.384 . S
C2659 C2661 1.479 . S
C2659 H2677 0.929 . S
C2660 C2657 1.424 . S
C2660 C2659 1.384 . S
C2660 H2678 0.928 . S
C2661 C2658 1.260 . S
C2661 C2659 1.479 . S
C2662 C2657 1.245 . S
C2662 C2658 1.477 . S
C2662 H2679 0.932 . S
C2663 U2646 2.882 . S
C2663 C2657 1.428 . S
C2663 O2666 1.301 . S
C2663 O2667 1.282 . S
O2664 U2646 2.441 . S
O2664 C2650 1.249 . S
O2665 U2646 2.420 . S
O2665 C2650 1.202 . S
O2666 U2646 2.455 . S
O2666 C2663 1.301 . S
O2667 U2646 2.449 . S
O2667 C2663 1.282 . S
H2668 C2641 0.931 . S
H2669 C2643 0.929 . S
H2670 C2644 0.930 . S
H2671 C2645 0.931 . S
H2672 C2652 0.932 . S
H2673 C2653 0.930 . S
H2674 C2654 0.929 . S
H2675 C2656 0.930 . S
H2676 C2658 0.932 . S
H2677 C2659 0.929 . S
H2678 C2660 0.928 . S
H2679 C2662 0.932 . S
C2680 C2681 1.264 . S
C2680 C2685 1.479 . S
C2680 C2690 1.465 . S
C2681 C2680 1.264 . S
C2681 C2683 1.339 . S
C2681 H2708 0.931 . S
C2682 C2683 1.395 . S
C2682 C2684 1.320 . S
C2683 C2681 1.339 . S
C2683 C2682 1.395 . S
C2683 H2709 0.929 . S
C2684 C2682 1.320 . S
C2684 C2685 1.405 . S
C2684 H2710 0.930 . S
C2685 C2680 1.479 . S
C2685 C2684 1.405 . S
C2685 H2711 0.931 . S
U2686 O2687 2.454 . S
U2686 O2688 2.458 . S
U2686 C2689 2.984 . S
U2686 C2690 2.847 . S
U2686 C2703 2.882 . S
U2686 O2704 2.441 . S
U2686 O2705 2.420 . S
U2686 O2706 2.455 . S
U2686 O2707 2.449 . S
O2687 U2686 2.454 . S
O2687 C2689 1.353 . S
O2688 U2686 2.458 . S
O2688 C2689 1.286 . S
C2689 U2686 2.984 . S
C2689 O2687 1.353 . S
C2689 O2688 1.286 . S
C2689 C2691 1.363 . S
C2690 C2680 1.465 . S
C2690 U2686 2.847 . S
C2690 O2704 1.249 . S
C2690 O2705 1.202 . S
C2691 C2689 1.363 . S
C2691 C2693 1.408 . S
C2691 C2696 1.342 . S
C2692 C2693 1.310 . S
C2692 C2695 1.461 . S
C2692 H2712 0.932 . S
C2693 C2691 1.408 . S
C2693 C2692 1.310 . S
C2693 H2713 0.930 . S
C2694 C2695 1.474 . S
C2694 C2696 1.285 . S
C2694 H2714 0.929 . S
C2695 C2692 1.461 . S
C2695 C2694 1.474 . S
C2696 C2691 1.342 . S
C2696 C2694 1.285 . S
C2696 H2715 0.930 . S
C2697 C2700 1.424 . S
C2697 C2702 1.245 . S
C2697 C2703 1.428 . S
C2698 C2701 1.260 . S
C2698 C2702 1.477 . S
C2698 H2716 0.932 . S
C2699 C2700 1.384 . S
C2699 C2701 1.479 . S
C2699 H2717 0.929 . S
C2700 C2697 1.424 . S
C2700 C2699 1.384 . S
C2700 H2718 0.928 . S
C2701 C2698 1.260 . S
C2701 C2699 1.479 . S
C2702 C2697 1.245 . S
C2702 C2698 1.477 . S
C2702 H2719 0.932 . S
C2703 U2686 2.882 . S
C2703 C2697 1.428 . S
C2703 O2706 1.301 . S
C2703 O2707 1.282 . S
O2704 U2686 2.441 . S
O2704 C2690 1.249 . S
O2705 U2686 2.420 . S
O2705 C2690 1.202 . S
O2706 U2686 2.455 . S
O2706 C2703 1.301 . S
O2707 U2686 2.449 . S
O2707 C2703 1.282 . S
H2708 C2681 0.931 . S
H2709 C2683 0.929 . S
H2710 C2684 0.930 . S
H2711 C2685 0.931 . S
H2712 C2692 0.932 . S
H2713 C2693 0.930 . S
H2714 C2694 0.929 . S
H2715 C2696 0.930 . S
H2716 C2698 0.932 . S
H2717 C2699 0.929 . S
H2718 C2700 0.928 . S
H2719 C2702 0.932 . S
C2720 C2721 1.264 . S
C2720 C2725 1.479 . S
C2720 C2730 1.465 . S
C2721 C2720 1.264 . S
C2721 C2723 1.339 . S
C2721 H2748 0.931 . S
C2722 C2723 1.395 . S
C2722 C2724 1.320 . S
C2723 C2721 1.339 . S
C2723 C2722 1.395 . S
C2723 H2749 0.929 . S
C2724 C2722 1.320 . S
C2724 C2725 1.405 . S
C2724 H2750 0.930 . S
C2725 C2720 1.479 . S
C2725 C2724 1.405 . S
C2725 H2751 0.931 . S
U2726 O2727 2.454 . S
U2726 O2728 2.458 . S
U2726 C2729 2.984 . S
U2726 C2730 2.847 . S
U2726 C2743 2.882 . S
U2726 O2744 2.441 . S
U2726 O2745 2.420 . S
U2726 O2746 2.455 . S
U2726 O2747 2.449 . S
O2727 U2726 2.454 . S
O2727 C2729 1.353 . S
O2728 U2726 2.458 . S
O2728 C2729 1.286 . S
C2729 U2726 2.984 . S
C2729 O2727 1.353 . S
C2729 O2728 1.286 . S
C2729 C2731 1.363 . S
C2730 C2720 1.465 . S
C2730 U2726 2.847 . S
C2730 O2744 1.249 . S
C2730 O2745 1.202 . S
C2731 C2729 1.363 . S
C2731 C2733 1.408 . S
C2731 C2736 1.342 . S
C2732 C2733 1.310 . S
C2732 C2735 1.461 . S
C2732 H2752 0.932 . S
C2733 C2731 1.408 . S
C2733 C2732 1.310 . S
C2733 H2753 0.930 . S
C2734 C2735 1.474 . S
C2734 C2736 1.285 . S
C2734 H2754 0.929 . S
C2735 C2732 1.461 . S
C2735 C2734 1.474 . S
C2736 C2731 1.342 . S
C2736 C2734 1.285 . S
C2736 H2755 0.930 . S
C2737 C2740 1.424 . S
C2737 C2742 1.245 . S
C2737 C2743 1.428 . S
C2738 C2741 1.260 . S
C2738 C2742 1.477 . S
C2738 H2756 0.932 . S
C2739 C2740 1.384 . S
C2739 C2741 1.479 . S
C2739 H2757 0.929 . S
C2740 C2737 1.424 . S
C2740 C2739 1.384 . S
C2740 H2758 0.928 . S
C2741 C2738 1.260 . S
C2741 C2739 1.479 . S
C2742 C2737 1.245 . S
C2742 C2738 1.477 . S
C2742 H2759 0.932 . S
C2743 U2726 2.882 . S
C2743 C2737 1.428 . S
C2743 O2746 1.301 . S
C2743 O2747 1.282 . S
O2744 U2726 2.441 . S
O2744 C2730 1.249 . S
O2745 U2726 2.420 . S
O2745 C2730 1.202 . S
O2746 U2726 2.455 . S
O2746 C2743 1.301 . S
O2747 U2726 2.449 . S
O2747 C2743 1.282 . S
H2748 C2721 0.931 . S
H2749 C2723 0.929 . S
H2750 C2724 0.930 . S
H2751 C2725 0.931 . S
H2752 C2732 0.932 . S
H2753 C2733 0.930 . S
H2754 C2734 0.929 . S
H2755 C2736 0.930 . S
H2756 C2738 0.932 . S
H2757 C2739 0.929 . S
H2758 C2740 0.928 . S
H2759 C2742 0.932 . S
C2760 C2761 1.264 . S
C2760 C2765 1.479 . S
C2760 C2770 1.465 . S
C2761 C2760 1.264 . S
C2761 C2763 1.339 . S
C2761 H2788 0.931 . S
C2762 C2763 1.395 . S
C2762 C2764 1.320 . S
C2763 C2761 1.339 . S
C2763 C2762 1.395 . S
C2763 H2789 0.929 . S
C2764 C2762 1.320 . S
C2764 C2765 1.405 . S
C2764 H2790 0.930 . S
C2765 C2760 1.479 . S
C2765 C2764 1.405 . S
C2765 H2791 0.931 . S
U2766 O2767 2.454 . S
U2766 O2768 2.458 . S
U2766 C2769 2.984 . S
U2766 C2770 2.847 . S
U2766 C2783 2.882 . S
U2766 O2784 2.441 . S
U2766 O2785 2.420 . S
U2766 O2786 2.455 . S
U2766 O2787 2.449 . S
O2767 U2766 2.454 . S
O2767 C2769 1.353 . S
O2768 U2766 2.458 . S
O2768 C2769 1.286 . S
C2769 U2766 2.984 . S
C2769 O2767 1.353 . S
C2769 O2768 1.286 . S
C2769 C2771 1.363 . S
C2770 C2760 1.465 . S
C2770 U2766 2.847 . S
C2770 O2784 1.249 . S
C2770 O2785 1.202 . S
C2771 C2769 1.363 . S
C2771 C2773 1.408 . S
C2771 C2776 1.342 . S
C2772 C2773 1.310 . S
C2772 C2775 1.461 . S
C2772 H2792 0.932 . S
C2773 C2771 1.408 . S
C2773 C2772 1.310 . S
C2773 H2793 0.930 . S
C2774 C2775 1.474 . S
C2774 C2776 1.285 . S
C2774 H2794 0.929 . S
C2775 C2772 1.461 . S
C2775 C2774 1.474 . S
C2776 C2771 1.342 . S
C2776 C2774 1.285 . S
C2776 H2795 0.930 . S
C2777 C2780 1.424 . S
C2777 C2782 1.245 . S
C2777 C2783 1.428 . S
C2778 C2781 1.260 . S
C2778 C2782 1.477 . S
C2778 H2796 0.932 . S
C2779 C2780 1.384 . S
C2779 C2781 1.479 . S
C2779 H2797 0.929 . S
C2780 C2777 1.424 . S
C2780 C2779 1.384 . S
C2780 H2798 0.928 . S
C2781 C2778 1.260 . S
C2781 C2779 1.479 . S
C2782 C2777 1.245 . S
C2782 C2778 1.477 . S
C2782 H2799 0.932 . S
C2783 U2766 2.882 . S
C2783 C2777 1.428 . S
C2783 O2786 1.301 . S
C2783 O2787 1.282 . S
O2784 U2766 2.441 . S
O2784 C2770 1.249 . S
O2785 U2766 2.420 . S
O2785 C2770 1.202 . S
O2786 U2766 2.455 . S
O2786 C2783 1.301 . S
O2787 U2766 2.449 . S
O2787 C2783 1.282 . S
H2788 C2761 0.931 . S
H2789 C2763 0.929 . S
H2790 C2764 0.930 . S
H2791 C2765 0.931 . S
H2792 C2772 0.932 . S
H2793 C2773 0.930 . S
H2794 C2774 0.929 . S
H2795 C2776 0.930 . S
H2796 C2778 0.932 . S
H2797 C2779 0.929 . S
H2798 C2780 0.928 . S
H2799 C2782 0.932 . S
C2800 C2801 1.264 . S
C2800 C2805 1.479 . S
C2800 C2810 1.465 . S
C2801 C2800 1.264 . S
C2801 C2803 1.339 . S
C2801 H2828 0.931 . S
C2802 C2803 1.395 . S
C2802 C2804 1.320 . S
C2803 C2801 1.339 . S
C2803 C2802 1.395 . S
C2803 H2829 0.929 . S
C2804 C2802 1.320 . S
C2804 C2805 1.405 . S
C2804 H2830 0.930 . S
C2805 C2800 1.479 . S
C2805 C2804 1.405 . S
C2805 H2831 0.931 . S
U2806 O2807 2.454 . S
U2806 O2808 2.458 . S
U2806 C2809 2.984 . S
U2806 C2810 2.847 . S
U2806 C2823 2.882 . S
U2806 O2824 2.441 . S
U2806 O2825 2.420 . S
U2806 O2826 2.455 . S
U2806 O2827 2.449 . S
O2807 U2806 2.454 . S
O2807 C2809 1.353 . S
O2808 U2806 2.458 . S
O2808 C2809 1.286 . S
C2809 U2806 2.984 . S
C2809 O2807 1.353 . S
C2809 O2808 1.286 . S
C2809 C2811 1.363 . S
C2810 C2800 1.465 . S
C2810 U2806 2.847 . S
C2810 O2824 1.249 . S
C2810 O2825 1.202 . S
C2811 C2809 1.363 . S
C2811 C2813 1.408 . S
C2811 C2816 1.342 . S
C2812 C2813 1.310 . S
C2812 C2815 1.461 . S
C2812 H2832 0.932 . S
C2813 C2811 1.408 . S
C2813 C2812 1.310 . S
C2813 H2833 0.930 . S
C2814 C2815 1.474 . S
C2814 C2816 1.285 . S
C2814 H2834 0.929 . S
C2815 C2812 1.461 . S
C2815 C2814 1.474 . S
C2816 C2811 1.342 . S
C2816 C2814 1.285 . S
C2816 H2835 0.930 . S
C2817 C2820 1.424 . S
C2817 C2822 1.245 . S
C2817 C2823 1.428 . S
C2818 C2821 1.260 . S
C2818 C2822 1.477 . S
C2818 H2836 0.932 . S
C2819 C2820 1.384 . S
C2819 C2821 1.479 . S
C2819 H2837 0.929 . S
C2820 C2817 1.424 . S
C2820 C2819 1.384 . S
C2820 H2838 0.928 . S
C2821 C2818 1.260 . S
C2821 C2819 1.479 . S
C2822 C2817 1.245 . S
C2822 C2818 1.477 . S
C2822 H2839 0.932 . S
C2823 U2806 2.882 . S
C2823 C2817 1.428 . S
C2823 O2826 1.301 . S
C2823 O2827 1.282 . S
O2824 U2806 2.441 . S
O2824 C2810 1.249 . S
O2825 U2806 2.420 . S
O2825 C2810 1.202 . S
O2826 U2806 2.455 . S
O2826 C2823 1.301 . S
O2827 U2806 2.449 . S
O2827 C2823 1.282 . S
H2828 C2801 0.931 . S
H2829 C2803 0.929 . S
H2830 C2804 0.930 . S
H2831 C2805 0.931 . S
H2832 C2812 0.932 . S
H2833 C2813 0.930 . S
H2834 C2814 0.929 . S
H2835 C2816 0.930 . S
H2836 C2818 0.932 . S
H2837 C2819 0.929 . S
H2838 C2820 0.928 . S
H2839 C2822 0.932 . S
C2840 C2841 1.264 . S
C2840 C2845 1.479 . S
C2840 C2850 1.465 . S
C2841 C2840 1.264 . S
C2841 C2843 1.339 . S
C2841 H2868 0.931 . S
C2842 C2843 1.395 . S
C2842 C2844 1.320 . S
C2843 C2841 1.339 . S
C2843 C2842 1.395 . S
C2843 H2869 0.929 . S
C2844 C2842 1.320 . S
C2844 C2845 1.405 . S
C2844 H2870 0.930 . S
C2845 C2840 1.479 . S
C2845 C2844 1.405 . S
C2845 H2871 0.931 . S
U2846 O2847 2.454 . S
U2846 O2848 2.458 . S
U2846 C2849 2.984 . S
U2846 C2850 2.847 . S
U2846 C2863 2.882 . S
U2846 O2864 2.441 . S
U2846 O2865 2.420 . S
U2846 O2866 2.455 . S
U2846 O2867 2.449 . S
O2847 U2846 2.454 . S
O2847 C2849 1.353 . S
O2848 U2846 2.458 . S
O2848 C2849 1.286 . S
C2849 U2846 2.984 . S
C2849 O2847 1.353 . S
C2849 O2848 1.286 . S
C2849 C2851 1.363 . S
C2850 C2840 1.465 . S
C2850 U2846 2.847 . S
C2850 O2864 1.249 . S
C2850 O2865 1.202 . S
C2851 C2849 1.363 . S
C2851 C2853 1.408 . S
C2851 C2856 1.342 . S
C2852 C2853 1.310 . S
C2852 C2855 1.461 . S
C2852 H2872 0.932 . S
C2853 C2851 1.408 . S
C2853 C2852 1.310 . S
C2853 H2873 0.930 . S
C2854 C2855 1.474 . S
C2854 C2856 1.285 . S
C2854 H2874 0.929 . S
C2855 C2852 1.461 . S
C2855 C2854 1.474 . S
C2856 C2851 1.342 . S
C2856 C2854 1.285 . S
C2856 H2875 0.930 . S
C2857 C2860 1.424 . S
C2857 C2862 1.245 . S
C2857 C2863 1.428 . S
C2858 C2861 1.260 . S
C2858 C2862 1.477 . S
C2858 H2876 0.932 . S
C2859 C2860 1.384 . S
C2859 C2861 1.479 . S
C2859 H2877 0.929 . S
C2860 C2857 1.424 . S
C2860 C2859 1.384 . S
C2860 H2878 0.928 . S
C2861 C2858 1.260 . S
C2861 C2859 1.479 . S
C2862 C2857 1.245 . S
C2862 C2858 1.477 . S
C2862 H2879 0.932 . S
C2863 U2846 2.882 . S
C2863 C2857 1.428 . S
C2863 O2866 1.301 . S
C2863 O2867 1.282 . S
O2864 U2846 2.441 . S
O2864 C2850 1.249 . S
O2865 U2846 2.420 . S
O2865 C2850 1.202 . S
O2866 U2846 2.455 . S
O2866 C2863 1.301 . S
O2867 U2846 2.449 . S
O2867 C2863 1.282 . S
H2868 C2841 0.931 . S
H2869 C2843 0.929 . S
H2870 C2844 0.930 . S
H2871 C2845 0.931 . S
H2872 C2852 0.932 . S
H2873 C2853 0.930 . S
H2874 C2854 0.929 . S
H2875 C2856 0.930 . S
H2876 C2858 0.932 . S
H2877 C2859 0.929 . S
H2878 C2860 0.928 . S
H2879 C2862 0.932 . S
C2880 C2881 1.264 . S
C2880 C2885 1.479 . S
C2880 C2890 1.465 . S
C2881 C2880 1.264 . S
C2881 C2883 1.339 . S
C2881 H2908 0.931 . S
C2882 C2883 1.395 . S
C2882 C2884 1.320 . S
C2883 C2881 1.339 . S
C2883 C2882 1.395 . S
C2883 H2909 0.929 . S
C2884 C2882 1.320 . S
C2884 C2885 1.405 . S
C2884 H2910 0.930 . S
C2885 C2880 1.479 . S
C2885 C2884 1.405 . S
C2885 H2911 0.931 . S
U2886 O2887 2.454 . S
U2886 O2888 2.458 . S
U2886 C2889 2.984 . S
U2886 C2890 2.847 . S
U2886 C2903 2.882 . S
U2886 O2904 2.441 . S
U2886 O2905 2.420 . S
U2886 O2906 2.455 . S
U2886 O2907 2.449 . S
O2887 U2886 2.454 . S
O2887 C2889 1.353 . S
O2888 U2886 2.458 . S
O2888 C2889 1.286 . S
C2889 U2886 2.984 . S
C2889 O2887 1.353 . S
C2889 O2888 1.286 . S
C2889 C2891 1.363 . S
C2890 C2880 1.465 . S
C2890 U2886 2.847 . S
C2890 O2904 1.249 . S
C2890 O2905 1.202 . S
C2891 C2889 1.363 . S
C2891 C2893 1.408 . S
C2891 C2896 1.342 . S
C2892 C2893 1.310 . S
C2892 C2895 1.461 . S
C2892 H2912 0.932 . S
C2893 C2891 1.408 . S
C2893 C2892 1.310 . S
C2893 H2913 0.930 . S
C2894 C2895 1.474 . S
C2894 C2896 1.285 . S
C2894 H2914 0.929 . S
C2895 C2892 1.461 . S
C2895 C2894 1.474 . S
C2896 C2891 1.342 . S
C2896 C2894 1.285 . S
C2896 H2915 0.930 . S
C2897 C2900 1.424 . S
C2897 C2902 1.245 . S
C2897 C2903 1.428 . S
C2898 C2901 1.260 . S
C2898 C2902 1.477 . S
C2898 H2916 0.932 . S
C2899 C2900 1.384 . S
C2899 C2901 1.479 . S
C2899 H2917 0.929 . S
C2900 C2897 1.424 . S
C2900 C2899 1.384 . S
C2900 H2918 0.928 . S
C2901 C2898 1.260 . S
C2901 C2899 1.479 . S
C2902 C2897 1.245 . S
C2902 C2898 1.477 . S
C2902 H2919 0.932 . S
C2903 U2886 2.882 . S
C2903 C2897 1.428 . S
C2903 O2906 1.301 . S
C2903 O2907 1.282 . S
O2904 U2886 2.441 . S
O2904 C2890 1.249 . S
O2905 U2886 2.420 . S
O2905 C2890 1.202 . S
O2906 U2886 2.455 . S
O2906 C2903 1.301 . S
O2907 U2886 2.449 . S
O2907 C2903 1.282 . S
H2908 C2881 0.931 . S
H2909 C2883 0.929 . S
H2910 C2884 0.930 . S
H2911 C2885 0.931 . S
H2912 C2892 0.932 . S
H2913 C2893 0.930 . S
H2914 C2894 0.929 . S
H2915 C2896 0.930 . S
H2916 C2898 0.932 . S
H2917 C2899 0.929 . S
H2918 C2900 0.928 . S
H2919 C2902 0.932 . S
C2920 C2921 1.264 . S
C2920 C2925 1.479 . S
C2920 C2930 1.465 . S
C2921 C2920 1.264 . S
C2921 C2923 1.339 . S
C2921 H2948 0.931 . S
C2922 C2923 1.395 . S
C2922 C2924 1.320 . S
C2923 C2921 1.339 . S
C2923 C2922 1.395 . S
C2923 H2949 0.929 . S
C2924 C2922 1.320 . S
C2924 C2925 1.405 . S
C2924 H2950 0.930 . S
C2925 C2920 1.479 . S
C2925 C2924 1.405 . S
C2925 H2951 0.931 . S
U2926 O2927 2.454 . S
U2926 O2928 2.458 . S
U2926 C2929 2.984 . S
U2926 C2930 2.847 . S
U2926 C2943 2.882 . S
U2926 O2944 2.441 . S
U2926 O2945 2.420 . S
U2926 O2946 2.455 . S
U2926 O2947 2.449 . S
O2927 U2926 2.454 . S
O2927 C2929 1.353 . S
O2928 U2926 2.458 . S
O2928 C2929 1.286 . S
C2929 U2926 2.984 . S
C2929 O2927 1.353 . S
C2929 O2928 1.286 . S
C2929 C2931 1.363 . S
C2930 C2920 1.465 . S
C2930 U2926 2.847 . S
C2930 O2944 1.249 . S
C2930 O2945 1.202 . S
C2931 C2929 1.363 . S
C2931 C2933 1.408 . S
C2931 C2936 1.342 . S
C2932 C2933 1.310 . S
C2932 C2935 1.461 . S
C2932 H2952 0.932 . S
C2933 C2931 1.408 . S
C2933 C2932 1.310 . S
C2933 H2953 0.930 . S
C2934 C2935 1.474 . S
C2934 C2936 1.285 . S
C2934 H2954 0.929 . S
C2935 C2932 1.461 . S
C2935 C2934 1.474 . S
C2936 C2931 1.342 . S
C2936 C2934 1.285 . S
C2936 H2955 0.930 . S
C2937 C2940 1.424 . S
C2937 C2942 1.245 . S
C2937 C2943 1.428 . S
C2938 C2941 1.260 . S
C2938 C2942 1.477 . S
C2938 H2956 0.932 . S
C2939 C2940 1.384 . S
C2939 C2941 1.479 . S
C2939 H2957 0.929 . S
C2940 C2937 1.424 . S
C2940 C2939 1.384 . S
C2940 H2958 0.928 . S
C2941 C2938 1.260 . S
C2941 C2939 1.479 . S
C2942 C2937 1.245 . S
C2942 C2938 1.477 . S
C2942 H2959 0.932 . S
C2943 U2926 2.882 . S
C2943 C2937 1.428 . S
C2943 O2946 1.301 . S
C2943 O2947 1.282 . S
O2944 U2926 2.441 . S
O2944 C2930 1.249 . S
O2945 U2926 2.420 . S
O2945 C2930 1.202 . S
O2946 U2926 2.455 . S
O2946 C2943 1.301 . S
O2947 U2926 2.449 . S
O2947 C2943 1.282 . S
H2948 C2921 0.931 . S
H2949 C2923 0.929 . S
H2950 C2924 0.930 . S
H2951 C2925 0.931 . S
H2952 C2932 0.932 . S
H2953 C2933 0.930 . S
H2954 C2934 0.929 . S
H2955 C2936 0.930 . S
H2956 C2938 0.932 . S
H2957 C2939 0.929 . S
H2958 C2940 0.928 . S
H2959 C2942 0.932 . S
C2960 C2961 1.264 . S
C2960 C2965 1.479 . S
C2960 C2970 1.465 . S
C2961 C2960 1.264 . S
C2961 C2963 1.339 . S
C2961 H2988 0.931 . S
C2962 C2963 1.395 . S
C2962 C2964 1.320 . S
C2963 C2961 1.339 . S
C2963 C2962 1.395 . S
C2963 H2989 0.929 . S
C2964 C2962 1.320 . S
C2964 C2965 1.405 . S
C2964 H2990 0.930 . S
C2965 C2960 1.479 . S
C2965 C2964 1.405 . S
C2965 H2991 0.931 . S
U2966 O2967 2.454 . S
U2966 O2968 2.458 . S
U2966 C2969 2.984 . S
U2966 C2970 2.847 . S
U2966 C2983 2.882 . S
U2966 O2984 2.441 . S
U2966 O2985 2.420 . S
U2966 O2986 2.455 . S
U2966 O2987 2.449 . S
O2967 U2966 2.454 . S
O2967 C2969 1.353 . S
O2968 U2966 2.458 . S
O2968 C2969 1.286 . S
C2969 U2966 2.984 . S
C2969 O2967 1.353 . S
C2969 O2968 1.286 . S
C2969 C2971 1.363 . S
C2970 C2960 1.465 . S
C2970 U2966 2.847 . S
C2970 O2984 1.249 . S
C2970 O2985 1.202 . S
C2971 C2969 1.363 . S
C2971 C2973 1.408 . S
C2971 C2976 1.342 . S
C2972 C2973 1.310 . S
C2972 C2975 1.461 . S
C2972 H2992 0.932 . S
C2973 C2971 1.408 . S
C2973 C2972 1.310 . S
C2973 H2993 0.930 . S
C2974 C2975 1.474 . S
C2974 C2976 1.285 . S
C2974 H2994 0.929 . S
C2975 C2972 1.461 . S
C2975 C2974 1.474 . S
C2976 C2971 1.342 . S
C2976 C2974 1.285 . S
C2976 H2995 0.930 . S
C2977 C2980 1.424 . S
C2977 C2982 1.245 . S
C2977 C2983 1.428 . S
C2978 C2981 1.260 . S
C2978 C2982 1.477 . S
C2978 H2996 0.932 . S
C2979 C2980 1.384 . S
C2979 C2981 1.479 . S
C2979 H2997 0.929 . S
C2980 C2977 1.424 . S
C2980 C2979 1.384 . S
C2980 H2998 0.928 . S
C2981 C2978 1.260 . S
C2981 C2979 1.479 . S
C2982 C2977 1.245 . S
C2982 C2978 1.477 . S
C2982 H2999 0.932 . S
C2983 U2966 2.882 . S
C2983 C2977 1.428 . S
C2983 O2986 1.301 . S
C2983 O2987 1.282 . S
O2984 U2966 2.441 . S
O2984 C2970 1.249 . S
O2985 U2966 2.420 . S
O2985 C2970 1.202 . S
O2986 U2966 2.455 . S
O2986 C2983 1.301 . S
O2987 U2966 2.449 . S
O2987 C2983 1.282 . S
H2988 C2961 0.931 . S
H2989 C2963 0.929 . S
H2990 C2964 0.930 . S
H2991 C2965 0.931 . S
H2992 C2972 0.932 . S
H2993 C2973 0.930 . S
H2994 C2974 0.929 . S
H2995 C2976 0.930 . S
H2996 C2978 0.932 . S
H2997 C2979 0.929 . S
H2998 C2980 0.928 . S
H2999 C2982 0.932 . S
C3000 C3001 1.264 . S
C3000 C3005 1.479 . S
C3000 C3010 1.465 . S
C3001 C3000 1.264 . S
C3001 C3003 1.339 . S
C3001 H3028 0.931 . S
C3002 C3003 1.395 . S
C3002 C3004 1.320 . S
C3003 C3001 1.339 . S
C3003 C3002 1.395 . S
C3003 H3029 0.929 . S
C3004 C3002 1.320 . S
C3004 C3005 1.405 . S
C3004 H3030 0.930 . S
C3005 C3000 1.479 . S
C3005 C3004 1.405 . S
C3005 H3031 0.931 . S
U3006 O3007 2.454 . S
U3006 O3008 2.458 . S
U3006 C3009 2.984 . S
U3006 C3010 2.847 . S
U3006 C3023 2.882 . S
U3006 O3024 2.441 . S
U3006 O3025 2.420 . S
U3006 O3026 2.455 . S
U3006 O3027 2.449 . S
O3007 U3006 2.454 . S
O3007 C3009 1.353 . S
O3008 U3006 2.458 . S
O3008 C3009 1.286 . S
C3009 U3006 2.984 . S
C3009 O3007 1.353 . S
C3009 O3008 1.286 . S
C3009 C3011 1.363 . S
C3010 C3000 1.465 . S
C3010 U3006 2.847 . S
C3010 O3024 1.249 . S
C3010 O3025 1.202 . S
C3011 C3009 1.363 . S
C3011 C3013 1.408 . S
C3011 C3016 1.342 . S
C3012 C3013 1.310 . S
C3012 C3015 1.461 . S
C3012 H3032 0.932 . S
C3013 C3011 1.408 . S
C3013 C3012 1.310 . S
C3013 H3033 0.930 . S
C3014 C3015 1.474 . S
C3014 C3016 1.285 . S
C3014 H3034 0.929 . S
C3015 C3012 1.461 . S
C3015 C3014 1.474 . S
C3016 C3011 1.342 . S
C3016 C3014 1.285 . S
C3016 H3035 0.930 . S
C3017 C3020 1.424 . S
C3017 C3022 1.245 . S
C3017 C3023 1.428 . S
C3018 C3021 1.260 . S
C3018 C3022 1.477 . S
C3018 H3036 0.932 . S
C3019 C3020 1.384 . S
C3019 C3021 1.479 . S
C3019 H3037 0.929 . S
C3020 C3017 1.424 . S
C3020 C3019 1.384 . S
C3020 H3038 0.928 . S
C3021 C3018 1.260 . S
C3021 C3019 1.479 . S
C3022 C3017 1.245 . S
C3022 C3018 1.477 . S
C3022 H3039 0.932 . S
C3023 U3006 2.882 . S
C3023 C3017 1.428 . S
C3023 O3026 1.301 . S
C3023 O3027 1.282 . S
O3024 U3006 2.441 . S
O3024 C3010 1.249 . S
O3025 U3006 2.420 . S
O3025 C3010 1.202 . S
O3026 U3006 2.455 . S
O3026 C3023 1.301 . S
O3027 U3006 2.449 . S
O3027 C3023 1.282 . S
H3028 C3001 0.931 . S
H3029 C3003 0.929 . S
H3030 C3004 0.930 . S
H3031 C3005 0.931 . S
H3032 C3012 0.932 . S
H3033 C3013 0.930 . S
H3034 C3014 0.929 . S
H3035 C3016 0.930 . S
H3036 C3018 0.932 . S
H3037 C3019 0.929 . S
H3038 C3020 0.928 . S
H3039 C3022 0.932 . S
C3040 C3041 1.264 . S
C3040 C3045 1.479 . S
C3040 C3050 1.465 . S
C3041 C3040 1.264 . S
C3041 C3043 1.339 . S
C3041 H3068 0.931 . S
C3042 C3043 1.395 . S
C3042 C3044 1.320 . S
C3043 C3041 1.339 . S
C3043 C3042 1.395 . S
C3043 H3069 0.929 . S
C3044 C3042 1.320 . S
C3044 C3045 1.405 . S
C3044 H3070 0.930 . S
C3045 C3040 1.479 . S
C3045 C3044 1.405 . S
C3045 H3071 0.931 . S
U3046 O3047 2.454 . S
U3046 O3048 2.458 . S
U3046 C3049 2.984 . S
U3046 C3050 2.847 . S
U3046 C3063 2.882 . S
U3046 O3064 2.441 . S
U3046 O3065 2.420 . S
U3046 O3066 2.455 . S
U3046 O3067 2.449 . S
O3047 U3046 2.454 . S
O3047 C3049 1.353 . S
O3048 U3046 2.458 . S
O3048 C3049 1.286 . S
C3049 U3046 2.984 . S
C3049 O3047 1.353 . S
C3049 O3048 1.286 . S
C3049 C3051 1.363 . S
C3050 C3040 1.465 . S
C3050 U3046 2.847 . S
C3050 O3064 1.249 . S
C3050 O3065 1.202 . S
C3051 C3049 1.363 . S
C3051 C3053 1.408 . S
C3051 C3056 1.342 . S
C3052 C3053 1.310 . S
C3052 C3055 1.461 . S
C3052 H3072 0.932 . S
C3053 C3051 1.408 . S
C3053 C3052 1.310 . S
C3053 H3073 0.930 . S
C3054 C3055 1.474 . S
C3054 C3056 1.285 . S
C3054 H3074 0.929 . S
C3055 C3052 1.461 . S
C3055 C3054 1.474 . S
C3056 C3051 1.342 . S
C3056 C3054 1.285 . S
C3056 H3075 0.930 . S
C3057 C3060 1.424 . S
C3057 C3062 1.245 . S
C3057 C3063 1.428 . S
C3058 C3061 1.260 . S
C3058 C3062 1.477 . S
C3058 H3076 0.932 . S
C3059 C3060 1.384 . S
C3059 C3061 1.479 . S
C3059 H3077 0.929 . S
C3060 C3057 1.424 . S
C3060 C3059 1.384 . S
C3060 H3078 0.928 . S
C3061 C3058 1.260 . S
C3061 C3059 1.479 . S
C3062 C3057 1.245 . S
C3062 C3058 1.477 . S
C3062 H3079 0.932 . S
C3063 U3046 2.882 . S
C3063 C3057 1.428 . S
C3063 O3066 1.301 . S
C3063 O3067 1.282 . S
O3064 U3046 2.441 . S
O3064 C3050 1.249 . S
O3065 U3046 2.420 . S
O3065 C3050 1.202 . S
O3066 U3046 2.455 . S
O3066 C3063 1.301 . S
O3067 U3046 2.449 . S
O3067 C3063 1.282 . S
H3068 C3041 0.931 . S
H3069 C3043 0.929 . S
H3070 C3044 0.930 . S
H3071 C3045 0.931 . S
H3072 C3052 0.932 . S
H3073 C3053 0.930 . S
H3074 C3054 0.929 . S
H3075 C3056 0.930 . S
H3076 C3058 0.932 . S
H3077 C3059 0.929 . S
H3078 C3060 0.928 . S
H3079 C3062 0.932 . S
C3080 C3081 1.264 . S
C3080 C3085 1.479 . S
C3080 C3090 1.465 . S
C3081 C3080 1.264 . S
C3081 C3083 1.339 . S
C3081 H3108 0.931 . S
C3082 C3083 1.395 . S
C3082 C3084 1.320 . S
C3083 C3081 1.339 . S
C3083 C3082 1.395 . S
C3083 H3109 0.929 . S
C3084 C3082 1.320 . S
C3084 C3085 1.405 . S
C3084 H3110 0.930 . S
C3085 C3080 1.479 . S
C3085 C3084 1.405 . S
C3085 H3111 0.931 . S
U3086 O3087 2.454 . S
U3086 O3088 2.458 . S
U3086 C3089 2.984 . S
U3086 C3090 2.847 . S
U3086 C3103 2.882 . S
U3086 O3104 2.441 . S
U3086 O3105 2.420 . S
U3086 O3106 2.455 . S
U3086 O3107 2.449 . S
O3087 U3086 2.454 . S
O3087 C3089 1.353 . S
O3088 U3086 2.458 . S
O3088 C3089 1.286 . S
C3089 U3086 2.984 . S
C3089 O3087 1.353 . S
C3089 O3088 1.286 . S
C3089 C3091 1.363 . S
C3090 C3080 1.465 . S
C3090 U3086 2.847 . S
C3090 O3104 1.249 . S
C3090 O3105 1.202 . S
C3091 C3089 1.363 . S
C3091 C3093 1.408 . S
C3091 C3096 1.342 . S
C3092 C3093 1.310 . S
C3092 C3095 1.461 . S
C3092 H3112 0.932 . S
C3093 C3091 1.408 . S
C3093 C3092 1.310 . S
C3093 H3113 0.930 . S
C3094 C3095 1.474 . S
C3094 C3096 1.285 . S
C3094 H3114 0.929 . S
C3095 C3092 1.461 . S
C3095 C3094 1.474 . S
C3096 C3091 1.342 . S
C3096 C3094 1.285 . S
C3096 H3115 0.930 . S
C3097 C3100 1.424 . S
C3097 C3102 1.245 . S
C3097 C3103 1.428 . S
C3098 C3101 1.260 . S
C3098 C3102 1.477 . S
C3098 H3116 0.932 . S
C3099 C3100 1.384 . S
C3099 C3101 1.479 . S
C3099 H3117 0.929 . S
C3100 C3097 1.424 . S
C3100 C3099 1.384 . S
C3100 H3118 0.928 . S
C3101 C3098 1.260 . S
C3101 C3099 1.479 . S
C3102 C3097 1.245 . S
C3102 C3098 1.477 . S
C3102 H3119 0.932 . S
C3103 U3086 2.882 . S
C3103 C3097 1.428 . S
C3103 O3106 1.301 . S
C3103 O3107 1.282 . S
O3104 U3086 2.441 . S
O3104 C3090 1.249 . S
O3105 U3086 2.420 . S
O3105 C3090 1.202 . S
O3106 U3086 2.455 . S
O3106 C3103 1.301 . S
O3107 U3086 2.449 . S
O3107 C3103 1.282 . S
H3108 C3081 0.931 . S
H3109 C3083 0.929 . S
H3110 C3084 0.930 . S
H3111 C3085 0.931 . S
H3112 C3092 0.932 . S
H3113 C3093 0.930 . S
H3114 C3094 0.929 . S
H3115 C3096 0.930 . S
H3116 C3098 0.932 . S
H3117 C3099 0.929 . S
H3118 C3100 0.928 . S
H3119 C3102 0.932 . S
C3120 C3121 1.264 . S
C3120 C3125 1.479 . S
C3120 C3130 1.465 . S
C3121 C3120 1.264 . S
C3121 C3123 1.339 . S
C3121 H3148 0.931 . S
C3122 C3123 1.395 . S
C3122 C3124 1.320 . S
C3123 C3121 1.339 . S
C3123 C3122 1.395 . S
C3123 H3149 0.929 . S
C3124 C3122 1.320 . S
C3124 C3125 1.405 . S
C3124 H3150 0.930 . S
C3125 C3120 1.479 . S
C3125 C3124 1.405 . S
C3125 H3151 0.931 . S
U3126 O3127 2.454 . S
U3126 O3128 2.458 . S
U3126 C3129 2.984 . S
U3126 C3130 2.847 . S
U3126 C3143 2.882 . S
U3126 O3144 2.441 . S
U3126 O3145 2.420 . S
U3126 O3146 2.455 . S
U3126 O3147 2.449 . S
O3127 U3126 2.454 . S
O3127 C3129 1.353 . S
O3128 U3126 2.458 . S
O3128 C3129 1.286 . S
C3129 U3126 2.984 . S
C3129 O3127 1.353 . S
C3129 O3128 1.286 . S
C3129 C3131 1.363 . S
C3130 C3120 1.465 . S
C3130 U3126 2.847 . S
C3130 O3144 1.249 . S
C3130 O3145 1.202 . S
C3131 C3129 1.363 . S
C3131 C3133 1.408 . S
C3131 C3136 1.342 . S
C3132 C3133 1.310 . S
C3132 C3135 1.461 . S
C3132 H3152 0.932 . S
C3133 C3131 1.408 . S
C3133 C3132 1.310 . S
C3133 H3153 0.930 . S
C3134 C3135 1.474 . S
C3134 C3136 1.285 . S
C3134 H3154 0.929 . S
C3135 C3132 1.461 . S
C3135 C3134 1.474 . S
C3136 C3131 1.342 . S
C3136 C3134 1.285 . S
C3136 H3155 0.930 . S
C3137 C3140 1.424 . S
C3137 C3142 1.245 . S
C3137 C3143 1.428 . S
C3138 C3141 1.260 . S
C3138 C3142 1.477 . S
C3138 H3156 0.932 . S
C3139 C3140 1.384 . S
C3139 C3141 1.479 . S
C3139 H3157 0.929 . S
C3140 C3137 1.424 . S
C3140 C3139 1.384 . S
C3140 H3158 0.928 . S
C3141 C3138 1.260 . S
C3141 C3139 1.479 . S
C3142 C3137 1.245 . S
C3142 C3138 1.477 . S
C3142 H3159 0.932 . S
C3143 U3126 2.882 . S
C3143 C3137 1.428 . S
C3143 O3146 1.301 . S
C3143 O3147 1.282 . S
O3144 U3126 2.441 . S
O3144 C3130 1.249 . S
O3145 U3126 2.420 . S
O3145 C3130 1.202 . S
O3146 U3126 2.455 . S
O3146 C3143 1.301 . S
O3147 U3126 2.449 . S
O3147 C3143 1.282 . S
H3148 C3121 0.931 . S
H3149 C3123 0.929 . S
H3150 C3124 0.930 . S
H3151 C3125 0.931 . S
H3152 C3132 0.932 . S
H3153 C3133 0.930 . S
H3154 C3134 0.929 . S
H3155 C3136 0.930 . S
H3156 C3138 0.932 . S
H3157 C3139 0.929 . S
H3158 C3140 0.928 . S
H3159 C3142 0.932 . S
C3160 C3161 1.264 . S
C3160 C3165 1.479 . S
C3160 C3170 1.465 . S
C3161 C3160 1.264 . S
C3161 C3163 1.339 . S
C3161 H3188 0.931 . S
C3162 C3163 1.395 . S
C3162 C3164 1.320 . S
C3163 C3161 1.339 . S
C3163 C3162 1.395 . S
C3163 H3189 0.929 . S
C3164 C3162 1.320 . S
C3164 C3165 1.405 . S
C3164 H3190 0.930 . S
C3165 C3160 1.479 . S
C3165 C3164 1.405 . S
C3165 H3191 0.931 . S
U3166 O3167 2.454 . S
U3166 O3168 2.458 . S
U3166 C3169 2.984 . S
U3166 C3170 2.847 . S
U3166 C3183 2.882 . S
U3166 O3184 2.441 . S
U3166 O3185 2.420 . S
U3166 O3186 2.455 . S
U3166 O3187 2.449 . S
O3167 U3166 2.454 . S
O3167 C3169 1.353 . S
O3168 U3166 2.458 . S
O3168 C3169 1.286 . S
C3169 U3166 2.984 . S
C3169 O3167 1.353 . S
C3169 O3168 1.286 . S
C3169 C3171 1.363 . S
C3170 C3160 1.465 . S
C3170 U3166 2.847 . S
C3170 O3184 1.249 . S
C3170 O3185 1.202 . S
C3171 C3169 1.363 . S
C3171 C3173 1.408 . S
C3171 C3176 1.342 . S
C3172 C3173 1.310 . S
C3172 C3175 1.461 . S
C3172 H3192 0.932 . S
C3173 C3171 1.408 . S
C3173 C3172 1.310 . S
C3173 H3193 0.930 . S
C3174 C3175 1.474 . S
C3174 C3176 1.285 . S
C3174 H3194 0.929 . S
C3175 C3172 1.461 . S
C3175 C3174 1.474 . S
C3176 C3171 1.342 . S
C3176 C3174 1.285 . S
C3176 H3195 0.930 . S
C3177 C3180 1.424 . S
C3177 C3182 1.245 . S
C3177 C3183 1.428 . S
C3178 C3181 1.260 . S
C3178 C3182 1.477 . S
C3178 H3196 0.932 . S
C3179 C3180 1.384 . S
C3179 C3181 1.479 . S
C3179 H3197 0.929 . S
C3180 C3177 1.424 . S
C3180 C3179 1.384 . S
C3180 H3198 0.928 . S
C3181 C3178 1.260 . S
C3181 C3179 1.479 . S
C3182 C3177 1.245 . S
C3182 C3178 1.477 . S
C3182 H3199 0.932 . S
C3183 U3166 2.882 . S
C3183 C3177 1.428 . S
C3183 O3186 1.301 . S
C3183 O3187 1.282 . S
O3184 U3166 2.441 . S
O3184 C3170 1.249 . S
O3185 U3166 2.420 . S
O3185 C3170 1.202 . S
O3186 U3166 2.455 . S
O3186 C3183 1.301 . S
O3187 U3166 2.449 . S
O3187 C3183 1.282 . S
H3188 C3161 0.931 . S
H3189 C3163 0.929 . S
H3190 C3164 0.930 . S
H3191 C3165 0.931 . S
H3192 C3172 0.932 . S
H3193 C3173 0.930 . S
H3194 C3174 0.929 . S
H3195 C3176 0.930 . S
H3196 C3178 0.932 . S
H3197 C3179 0.929 . S
H3198 C3180 0.928 . S
H3199 C3182 0.932 . S
C3200 C3201 1.264 . S
C3200 C3205 1.479 . S
C3200 C3210 1.465 . S
C3201 C3200 1.264 . S
C3201 C3203 1.339 . S
C3201 H3228 0.931 . S
C3202 C3203 1.395 . S
C3202 C3204 1.320 . S
C3203 C3201 1.339 . S
C3203 C3202 1.395 . S
C3203 H3229 0.929 . S
C3204 C3202 1.320 . S
C3204 C3205 1.405 . S
C3204 H3230 0.930 . S
C3205 C3200 1.479 . S
C3205 C3204 1.405 . S
C3205 H3231 0.931 . S
U3206 O3207 2.454 . S
U3206 O3208 2.458 . S
U3206 C3209 2.984 . S
U3206 C3210 2.847 . S
U3206 C3223 2.882 . S
U3206 O3224 2.441 . S
U3206 O3225 2.420 . S
U3206 O3226 2.455 . S
U3206 O3227 2.449 . S
O3207 U3206 2.454 . S
O3207 C3209 1.353 . S
O3208 U3206 2.458 . S
O3208 C3209 1.286 . S
C3209 U3206 2.984 . S
C3209 O3207 1.353 . S
C3209 O3208 1.286 . S
C3209 C3211 1.363 . S
C3210 C3200 1.465 . S
C3210 U3206 2.847 . S
C3210 O3224 1.249 . S
C3210 O3225 1.202 . S
C3211 C3209 1.363 . S
C3211 C3213 1.408 . S
C3211 C3216 1.342 . S
C3212 C3213 1.310 . S
C3212 C3215 1.461 . S
C3212 H3232 0.932 . S
C3213 C3211 1.408 . S
C3213 C3212 1.310 . S
C3213 H3233 0.930 . S
C3214 C3215 1.474 . S
C3214 C3216 1.285 . S
C3214 H3234 0.929 . S
C3215 C3212 1.461 . S
C3215 C3214 1.474 . S
C3216 C3211 1.342 . S
C3216 C3214 1.285 . S
C3216 H3235 0.930 . S
C3217 C3220 1.424 . S
C3217 C3222 1.245 . S
C3217 C3223 1.428 . S
C3218 C3221 1.260 . S
C3218 C3222 1.477 . S
C3218 H3236 0.932 . S
C3219 C3220 1.384 . S
C3219 C3221 1.479 . S
C3219 H3237 0.929 . S
C3220 C3217 1.424 . S
C3220 C3219 1.384 . S
C3220 H3238 0.928 . S
C3221 C3218 1.260 . S
C3221 C3219 1.479 . S
C3222 C3217 1.245 . S
C3222 C3218 1.477 . S
C3222 H3239 0.932 . S
C3223 U3206 2.882 . S
C3223 C3217 1.428 . S
C3223 O3226 1.301 . S
C3223 O3227 1.282 . S
O3224 U3206 2.441 . S
O3224 C3210 1.249 . S
O3225 U3206 2.420 . S
O3225 C3210 1.202 . S
O3226 U3206 2.455 . S
O3226 C3223 1.301 . S
O3227 U3206 2.449 . S
O3227 C3223 1.282 . S
H3228 C3201 0.931 . S
H3229 C3203 0.929 . S
H3230 C3204 0.930 . S
H3231 C3205 0.931 . S
H3232 C3212 0.932 . S
H3233 C3213 0.930 . S
H3234 C3214 0.929 . S
H3235 C3216 0.930 . S
H3236 C3218 0.932 . S
H3237 C3219 0.929 . S
H3238 C3220 0.928 . S
H3239 C3222 0.932 . S
C3240 C3241 1.264 . S
C3240 C3245 1.479 . S
C3240 C3250 1.465 . S
C3241 C3240 1.264 . S
C3241 C3243 1.339 . S
C3241 H3268 0.931 . S
C3242 C3243 1.395 . S
C3242 C3244 1.320 . S
C3243 C3241 1.339 . S
C3243 C3242 1.395 . S
C3243 H3269 0.929 . S
C3244 C3242 1.320 . S
C3244 C3245 1.405 . S
C3244 H3270 0.930 . S
C3245 C3240 1.479 . S
C3245 C3244 1.405 . S
C3245 H3271 0.931 . S
U3246 O3247 2.454 . S
U3246 O3248 2.458 . S
U3246 C3249 2.984 . S
U3246 C3250 2.847 . S
U3246 C3263 2.882 . S
U3246 O3264 2.441 . S
U3246 O3265 2.420 . S
U3246 O3266 2.455 . S
U3246 O3267 2.449 . S
O3247 U3246 2.454 . S
O3247 C3249 1.353 . S
O3248 U3246 2.458 . S
O3248 C3249 1.286 . S
C3249 U3246 2.984 . S
C3249 O3247 1.353 . S
C3249 O3248 1.286 . S
C3249 C3251 1.363 . S
C3250 C3240 1.465 . S
C3250 U3246 2.847 . S
C3250 O3264 1.249 . S
C3250 O3265 1.202 . S
C3251 C3249 1.363 . S
C3251 C3253 1.408 . S
C3251 C3256 1.342 . S
C3252 C3253 1.310 . S
C3252 C3255 1.461 . S
C3252 H3272 0.932 . S
C3253 C3251 1.408 . S
C3253 C3252 1.310 . S
C3253 H3273 0.930 . S
C3254 C3255 1.474 . S
C3254 C3256 1.285 . S
C3254 H3274 0.929 . S
C3255 C3252 1.461 . S
C3255 C3254 1.474 . S
C3256 C3251 1.342 . S
C3256 C3254 1.285 . S
C3256 H3275 0.930 . S
C3257 C3260 1.424 . S
C3257 C3262 1.245 . S
C3257 C3263 1.428 . S
C3258 C3261 1.260 . S
C3258 C3262 1.477 . S
C3258 H3276 0.932 . S
C3259 C3260 1.384 . S
C3259 C3261 1.479 . S
C3259 H3277 0.929 . S
C3260 C3257 1.424 . S
C3260 C3259 1.384 . S
C3260 H3278 0.928 . S
C3261 C3258 1.260 . S
C3261 C3259 1.479 . S
C3262 C3257 1.245 . S
C3262 C3258 1.477 . S
C3262 H3279 0.932 . S
C3263 U3246 2.882 . S
C3263 C3257 1.428 . S
C3263 O3266 1.301 . S
C3263 O3267 1.282 . S
O3264 U3246 2.441 . S
O3264 C3250 1.249 . S
O3265 U3246 2.420 . S
O3265 C3250 1.202 . S
O3266 U3246 2.455 . S
O3266 C3263 1.301 . S
O3267 U3246 2.449 . S
O3267 C3263 1.282 . S
H3268 C3241 0.931 . S
H3269 C3243 0.929 . S
H3270 C3244 0.930 . S
H3271 C3245 0.931 . S
H3272 C3252 0.932 . S
H3273 C3253 0.930 . S
H3274 C3254 0.929 . S
H3275 C3256 0.930 . S
H3276 C3258 0.932 . S
H3277 C3259 0.929 . S
H3278 C3260 0.928 . S
H3279 C3262 0.932 . S
C3280 C3281 1.264 . S
C3280 C3285 1.479 . S
C3280 C3290 1.465 . S
C3281 C3280 1.264 . S
C3281 C3283 1.339 . S
C3281 H3308 0.931 . S
C3282 C3283 1.395 . S
C3282 C3284 1.320 . S
C3283 C3281 1.339 . S
C3283 C3282 1.395 . S
C3283 H3309 0.929 . S
C3284 C3282 1.320 . S
C3284 C3285 1.405 . S
C3284 H3310 0.930 . S
C3285 C3280 1.479 . S
C3285 C3284 1.405 . S
C3285 H3311 0.931 . S
U3286 O3287 2.454 . S
U3286 O3288 2.458 . S
U3286 C3289 2.984 . S
U3286 C3290 2.847 . S
U3286 C3303 2.882 . S
U3286 O3304 2.441 . S
U3286 O3305 2.420 . S
U3286 O3306 2.455 . S
U3286 O3307 2.449 . S
O3287 U3286 2.454 . S
O3287 C3289 1.353 . S
O3288 U3286 2.458 . S
O3288 C3289 1.286 . S
C3289 U3286 2.984 . S
C3289 O3287 1.353 . S
C3289 O3288 1.286 . S
C3289 C3291 1.363 . S
C3290 C3280 1.465 . S
C3290 U3286 2.847 . S
C3290 O3304 1.249 . S
C3290 O3305 1.202 . S
C3291 C3289 1.363 . S
C3291 C3293 1.408 . S
C3291 C3296 1.342 . S
C3292 C3293 1.310 . S
C3292 C3295 1.461 . S
C3292 H3312 0.932 . S
C3293 C3291 1.408 . S
C3293 C3292 1.310 . S
C3293 H3313 0.930 . S
C3294 C3295 1.474 . S
C3294 C3296 1.285 . S
C3294 H3314 0.929 . S
C3295 C3292 1.461 . S
C3295 C3294 1.474 . S
C3296 C3291 1.342 . S
C3296 C3294 1.285 . S
C3296 H3315 0.930 . S
C3297 C3300 1.424 . S
C3297 C3302 1.245 . S
C3297 C3303 1.428 . S
C3298 C3301 1.260 . S
C3298 C3302 1.477 . S
C3298 H3316 0.932 . S
C3299 C3300 1.384 . S
C3299 C3301 1.479 . S
C3299 H3317 0.929 . S
C3300 C3297 1.424 . S
C3300 C3299 1.384 . S
C3300 H3318 0.928 . S
C3301 C3298 1.260 . S
C3301 C3299 1.479 . S
C3302 C3297 1.245 . S
C3302 C3298 1.477 . S
C3302 H3319 0.932 . S
C3303 U3286 2.882 . S
C3303 C3297 1.428 . S
C3303 O3306 1.301 . S
C3303 O3307 1.282 . S
O3304 U3286 2.441 . S
O3304 C3290 1.249 . S
O3305 U3286 2.420 . S
O3305 C3290 1.202 . S
O3306 U3286 2.455 . S
O3306 C3303 1.301 . S
O3307 U3286 2.449 . S
O3307 C3303 1.282 . S
H3308 C3281 0.931 . S
H3309 C3283 0.929 . S
H3310 C3284 0.930 . S
H3311 C3285 0.931 . S
H3312 C3292 0.932 . S
H3313 C3293 0.930 . S
H3314 C3294 0.929 . S
H3315 C3296 0.930 . S
H3316 C3298 0.932 . S
H3317 C3299 0.929 . S
H3318 C3300 0.928 . S
H3319 C3302 0.932 . S
C3320 C3321 1.264 . S
C3320 C3325 1.479 . S
C3320 C3330 1.465 . S
C3321 C3320 1.264 . S
C3321 C3323 1.339 . S
C3321 H3348 0.931 . S
C3322 C3323 1.395 . S
C3322 C3324 1.320 . S
C3323 C3321 1.339 . S
C3323 C3322 1.395 . S
C3323 H3349 0.929 . S
C3324 C3322 1.320 . S
C3324 C3325 1.405 . S
C3324 H3350 0.930 . S
C3325 C3320 1.479 . S
C3325 C3324 1.405 . S
C3325 H3351 0.931 . S
U3326 O3327 2.454 . S
U3326 O3328 2.458 . S
U3326 C3329 2.984 . S
U3326 C3330 2.847 . S
U3326 C3343 2.882 . S
U3326 O3344 2.441 . S
U3326 O3345 2.420 . S
U3326 O3346 2.455 . S
U3326 O3347 2.449 . S
O3327 U3326 2.454 . S
O3327 C3329 1.353 . S
O3328 U3326 2.458 . S
O3328 C3329 1.286 . S
C3329 U3326 2.984 . S
C3329 O3327 1.353 . S
C3329 O3328 1.286 . S
C3329 C3331 1.363 . S
C3330 C3320 1.465 . S
C3330 U3326 2.847 . S
C3330 O3344 1.249 . S
C3330 O3345 1.202 . S
C3331 C3329 1.363 . S
C3331 C3333 1.408 . S
C3331 C3336 1.342 . S
C3332 C3333 1.310 . S
C3332 C3335 1.461 . S
C3332 H3352 0.932 . S
C3333 C3331 1.408 . S
C3333 C3332 1.310 . S
C3333 H3353 0.930 . S
C3334 C3335 1.474 . S
C3334 C3336 1.285 . S
C3334 H3354 0.929 . S
C3335 C3332 1.461 . S
C3335 C3334 1.474 . S
C3336 C3331 1.342 . S
C3336 C3334 1.285 . S
C3336 H3355 0.930 . S
C3337 C3340 1.424 . S
C3337 C3342 1.245 . S
C3337 C3343 1.428 . S
C3338 C3341 1.260 . S
C3338 C3342 1.477 . S
C3338 H3356 0.932 . S
C3339 C3340 1.384 . S
C3339 C3341 1.479 . S
C3339 H3357 0.929 . S
C3340 C3337 1.424 . S
C3340 C3339 1.384 . S
C3340 H3358 0.928 . S
C3341 C3338 1.260 . S
C3341 C3339 1.479 . S
C3342 C3337 1.245 . S
C3342 C3338 1.477 . S
C3342 H3359 0.932 . S
C3343 U3326 2.882 . S
C3343 C3337 1.428 . S
C3343 O3346 1.301 . S
C3343 O3347 1.282 . S
O3344 U3326 2.441 . S
O3344 C3330 1.249 . S
O3345 U3326 2.420 . S
O3345 C3330 1.202 . S
O3346 U3326 2.455 . S
O3346 C3343 1.301 . S
O3347 U3326 2.449 . S
O3347 C3343 1.282 . S
H3348 C3321 0.931 . S
H3349 C3323 0.929 . S
H3350 C3324 0.930 . S
H3351 C3325 0.931 . S
H3352 C3332 0.932 . S
H3353 C3333 0.930 . S
H3354 C3334 0.929 . S
H3355 C3336 0.930 . S
H3356 C3338 0.932 . S
H3357 C3339 0.929 . S
H3358 C3340 0.928 . S
H3359 C3342 0.932 . S
C3360 C3361 1.264 . S
C3360 C3365 1.479 . S
C3360 C3370 1.465 . S
C3361 C3360 1.264 . S
C3361 C3363 1.339 . S
C3361 H3388 0.931 . S
C3362 C3363 1.395 . S
C3362 C3364 1.320 . S
C3363 C3361 1.339 . S
C3363 C3362 1.395 . S
C3363 H3389 0.929 . S
C3364 C3362 1.320 . S
C3364 C3365 1.405 . S
C3364 H3390 0.930 . S
C3365 C3360 1.479 . S
C3365 C3364 1.405 . S
C3365 H3391 0.931 . S
U3366 O3367 2.454 . S
U3366 O3368 2.458 . S
U3366 C3369 2.984 . S
U3366 C3370 2.847 . S
U3366 C3383 2.882 . S
U3366 O3384 2.441 . S
U3366 O3385 2.420 . S
U3366 O3386 2.455 . S
U3366 O3387 2.449 . S
O3367 U3366 2.454 . S
O3367 C3369 1.353 . S
O3368 U3366 2.458 . S
O3368 C3369 1.286 . S
C3369 U3366 2.984 . S
C3369 O3367 1.353 . S
C3369 O3368 1.286 . S
C3369 C3371 1.363 . S
C3370 C3360 1.465 . S
C3370 U3366 2.847 . S
C3370 O3384 1.249 . S
C3370 O3385 1.202 . S
C3371 C3369 1.363 . S
C3371 C3373 1.408 . S
C3371 C3376 1.342 . S
C3372 C3373 1.310 . S
C3372 C3375 1.461 . S
C3372 H3392 0.932 . S
C3373 C3371 1.408 . S
C3373 C3372 1.310 . S
C3373 H3393 0.930 . S
C3374 C3375 1.474 . S
C3374 C3376 1.285 . S
C3374 H3394 0.929 . S
C3375 C3372 1.461 . S
C3375 C3374 1.474 . S
C3376 C3371 1.342 . S
C3376 C3374 1.285 . S
C3376 H3395 0.930 . S
C3377 C3380 1.424 . S
C3377 C3382 1.245 . S
C3377 C3383 1.428 . S
C3378 C3381 1.260 . S
C3378 C3382 1.477 . S
C3378 H3396 0.932 . S
C3379 C3380 1.384 . S
C3379 C3381 1.479 . S
C3379 H3397 0.929 . S
C3380 C3377 1.424 . S
C3380 C3379 1.384 . S
C3380 H3398 0.928 . S
C3381 C3378 1.260 . S
C3381 C3379 1.479 . S
C3382 C3377 1.245 . S
C3382 C3378 1.477 . S
C3382 H3399 0.932 . S
C3383 U3366 2.882 . S
C3383 C3377 1.428 . S
C3383 O3386 1.301 . S
C3383 O3387 1.282 . S
O3384 U3366 2.441 . S
O3384 C3370 1.249 . S
O3385 U3366 2.420 . S
O3385 C3370 1.202 . S
O3386 U3366 2.455 . S
O3386 C3383 1.301 . S
O3387 U3366 2.449 . S
O3387 C3383 1.282 . S
H3388 C3361 0.931 . S
H3389 C3363 0.929 . S
H3390 C3364 0.930 . S
H3391 C3365 0.931 . S
H3392 C3372 0.932 . S
H3393 C3373 0.930 . S
H3394 C3374 0.929 . S
H3395 C3376 0.930 . S
H3396 C3378 0.932 . S
H3397 C3379 0.929 . S
H3398 C3380 0.928 . S
H3399 C3382 0.932 . S
C3400 C3401 1.264 . S
C3400 C3405 1.479 . S
C3400 C3410 1.465 . S
C3401 C3400 1.264 . S
C3401 C3403 1.339 . S
C3401 H3428 0.931 . S
C3402 C3403 1.395 . S
C3402 C3404 1.320 . S
C3403 C3401 1.339 . S
C3403 C3402 1.395 . S
C3403 H3429 0.929 . S
C3404 C3402 1.320 . S
C3404 C3405 1.405 . S
C3404 H3430 0.930 . S
C3405 C3400 1.479 . S
C3405 C3404 1.405 . S
C3405 H3431 0.931 . S
U3406 O3407 2.454 . S
U3406 O3408 2.458 . S
U3406 C3409 2.984 . S
U3406 C3410 2.847 . S
U3406 C3423 2.882 . S
U3406 O3424 2.441 . S
U3406 O3425 2.420 . S
U3406 O3426 2.455 . S
U3406 O3427 2.449 . S
O3407 U3406 2.454 . S
O3407 C3409 1.353 . S
O3408 U3406 2.458 . S
O3408 C3409 1.286 . S
C3409 U3406 2.984 . S
C3409 O3407 1.353 . S
C3409 O3408 1.286 . S
C3409 C3411 1.363 . S
C3410 C3400 1.465 . S
C3410 U3406 2.847 . S
C3410 O3424 1.249 . S
C3410 O3425 1.202 . S
C3411 C3409 1.363 . S
C3411 C3413 1.408 . S
C3411 C3416 1.342 . S
C3412 C3413 1.310 . S
C3412 C3415 1.461 . S
C3412 H3432 0.932 . S
C3413 C3411 1.408 . S
C3413 C3412 1.310 . S
C3413 H3433 0.930 . S
C3414 C3415 1.474 . S
C3414 C3416 1.285 . S
C3414 H3434 0.929 . S
C3415 C3412 1.461 . S
C3415 C3414 1.474 . S
C3416 C3411 1.342 . S
C3416 C3414 1.285 . S
C3416 H3435 0.930 . S
C3417 C3420 1.424 . S
C3417 C3422 1.245 . S
C3417 C3423 1.428 . S
C3418 C3421 1.260 . S
C3418 C3422 1.477 . S
C3418 H3436 0.932 . S
C3419 C3420 1.384 . S
C3419 C3421 1.479 . S
C3419 H3437 0.929 . S
C3420 C3417 1.424 . S
C3420 C3419 1.384 . S
C3420 H3438 0.928 . S
C3421 C3418 1.260 . S
C3421 C3419 1.479 . S
C3422 C3417 1.245 . S
C3422 C3418 1.477 . S
C3422 H3439 0.932 . S
C3423 U3406 2.882 . S
C3423 C3417 1.428 . S
C3423 O3426 1.301 . S
C3423 O3427 1.282 . S
O3424 U3406 2.441 . S
O3424 C3410 1.249 . S
O3425 U3406 2.420 . S
O3425 C3410 1.202 . S
O3426 U3406 2.455 . S
O3426 C3423 1.301 . S
O3427 U3406 2.449 . S
O3427 C3423 1.282 . S
H3428 C3401 0.931 . S
H3429 C3403 0.929 . S
H3430 C3404 0.930 . S
H3431 C3405 0.931 . S
H3432 C3412 0.932 . S
H3433 C3413 0.930 . S
H3434 C3414 0.929 . S
H3435 C3416 0.930 . S
H3436 C3418 0.932 . S
H3437 C3419 0.929 . S
H3438 C3420 0.928 . S
H3439 C3422 0.932 . S
C3440 C3441 1.264 . S
C3440 C3445 1.479 . S
C3440 C3450 1.465 . S
C3441 C3440 1.264 . S
C3441 C3443 1.339 . S
C3441 H3468 0.931 . S
C3442 C3443 1.395 . S
C3442 C3444 1.320 . S
C3443 C3441 1.339 . S
C3443 C3442 1.395 . S
C3443 H3469 0.929 . S
C3444 C3442 1.320 . S
C3444 C3445 1.405 . S
C3444 H3470 0.930 . S
C3445 C3440 1.479 . S
C3445 C3444 1.405 . S
C3445 H3471 0.931 . S
U3446 O3447 2.454 . S
U3446 O3448 2.458 . S
U3446 C3449 2.984 . S
U3446 C3450 2.847 . S
U3446 C3463 2.882 . S
U3446 O3464 2.441 . S
U3446 O3465 2.420 . S
U3446 O3466 2.455 . S
U3446 O3467 2.449 . S
O3447 U3446 2.454 . S
O3447 C3449 1.353 . S
O3448 U3446 2.458 . S
O3448 C3449 1.286 . S
C3449 U3446 2.984 . S
C3449 O3447 1.353 . S
C3449 O3448 1.286 . S
C3449 C3451 1.363 . S
C3450 C3440 1.465 . S
C3450 U3446 2.847 . S
C3450 O3464 1.249 . S
C3450 O3465 1.202 . S
C3451 C3449 1.363 . S
C3451 C3453 1.408 . S
C3451 C3456 1.342 . S
C3452 C3453 1.310 . S
C3452 C3455 1.461 . S
C3452 H3472 0.932 . S
C3453 C3451 1.408 . S
C3453 C3452 1.310 . S
C3453 H3473 0.930 . S
C3454 C3455 1.474 . S
C3454 C3456 1.285 . S
C3454 H3474 0.929 . S
C3455 C3452 1.461 . S
C3455 C3454 1.474 . S
C3456 C3451 1.342 . S
C3456 C3454 1.285 . S
C3456 H3475 0.930 . S
C3457 C3460 1.424 . S
C3457 C3462 1.245 . S
C3457 C3463 1.428 . S
C3458 C3461 1.260 . S
C3458 C3462 1.477 . S
C3458 H3476 0.932 . S
C3459 C3460 1.384 . S
C3459 C3461 1.479 . S
C3459 H3477 0.929 . S
C3460 C3457 1.424 . S
C3460 C3459 1.384 . S
C3460 H3478 0.928 . S
C3461 C3458 1.260 . S
C3461 C3459 1.479 . S
C3462 C3457 1.245 . S
C3462 C3458 1.477 . S
C3462 H3479 0.932 . S
C3463 U3446 2.882 . S
C3463 C3457 1.428 . S
C3463 O3466 1.301 . S
C3463 O3467 1.282 . S
O3464 U3446 2.441 . S
O3464 C3450 1.249 . S
O3465 U3446 2.420 . S
O3465 C3450 1.202 . S
O3466 U3446 2.455 . S
O3466 C3463 1.301 . S
O3467 U3446 2.449 . S
O3467 C3463 1.282 . S
H3468 C3441 0.931 . S
H3469 C3443 0.929 . S
H3470 C3444 0.930 . S
H3471 C3445 0.931 . S
H3472 C3452 0.932 . S
H3473 C3453 0.930 . S
H3474 C3454 0.929 . S
H3475 C3456 0.930 . S
H3476 C3458 0.932 . S
H3477 C3459 0.929 . S
H3478 C3460 0.928 . S
H3479 C3462 0.932 . S
C3480 C3481 1.264 . S
C3480 C3485 1.479 . S
C3480 C3490 1.465 . S
C3481 C3480 1.264 . S
C3481 C3483 1.339 . S
C3481 H3508 0.931 . S
C3482 C3483 1.395 . S
C3482 C3484 1.320 . S
C3483 C3481 1.339 . S
C3483 C3482 1.395 . S
C3483 H3509 0.929 . S
C3484 C3482 1.320 . S
C3484 C3485 1.405 . S
C3484 H3510 0.930 . S
C3485 C3480 1.479 . S
C3485 C3484 1.405 . S
C3485 H3511 0.931 . S
U3486 O3487 2.454 . S
U3486 O3488 2.458 . S
U3486 C3489 2.984 . S
U3486 C3490 2.847 . S
U3486 C3503 2.882 . S
U3486 O3504 2.441 . S
U3486 O3505 2.420 . S
U3486 O3506 2.455 . S
U3486 O3507 2.449 . S
O3487 U3486 2.454 . S
O3487 C3489 1.353 . S
O3488 U3486 2.458 . S
O3488 C3489 1.286 . S
C3489 U3486 2.984 . S
C3489 O3487 1.353 . S
C3489 O3488 1.286 . S
C3489 C3491 1.363 . S
C3490 C3480 1.465 . S
C3490 U3486 2.847 . S
C3490 O3504 1.249 . S
C3490 O3505 1.202 . S
C3491 C3489 1.363 . S
C3491 C3493 1.408 . S
C3491 C3496 1.342 . S
C3492 C3493 1.310 . S
C3492 C3495 1.461 . S
C3492 H3512 0.932 . S
C3493 C3491 1.408 . S
C3493 C3492 1.310 . S
C3493 H3513 0.930 . S
C3494 C3495 1.474 . S
C3494 C3496 1.285 . S
C3494 H3514 0.929 . S
C3495 C3492 1.461 . S
C3495 C3494 1.474 . S
C3496 C3491 1.342 . S
C3496 C3494 1.285 . S
C3496 H3515 0.930 . S
C3497 C3500 1.424 . S
C3497 C3502 1.245 . S
C3497 C3503 1.428 . S
C3498 C3501 1.260 . S
C3498 C3502 1.477 . S
C3498 H3516 0.932 . S
C3499 C3500 1.384 . S
C3499 C3501 1.479 . S
C3499 H3517 0.929 . S
C3500 C3497 1.424 . S
C3500 C3499 1.384 . S
C3500 H3518 0.928 . S
C3501 C3498 1.260 . S
C3501 C3499 1.479 . S
C3502 C3497 1.245 . S
C3502 C3498 1.477 . S
C3502 H3519 0.932 . S
C3503 U3486 2.882 . S
C3503 C3497 1.428 . S
C3503 O3506 1.301 . S
C3503 O3507 1.282 . S
O3504 U3486 2.441 . S
O3504 C3490 1.249 . S
O3505 U3486 2.420 . S
O3505 C3490 1.202 . S
O3506 U3486 2.455 . S
O3506 C3503 1.301 . S
O3507 U3486 2.449 . S
O3507 C3503 1.282 . S
H3508 C3481 0.931 . S
H3509 C3483 0.929 . S
H3510 C3484 0.930 . S
H3511 C3485 0.931 . S
H3512 C3492 0.932 . S
H3513 C3493 0.930 . S
H3514 C3494 0.929 . S
H3515 C3496 0.930 . S
H3516 C3498 0.932 . S
H3517 C3499 0.929 . S
H3518 C3500 0.928 . S
H3519 C3502 0.932 . S
C3520 C3521 1.264 . S
C3520 C3525 1.479 . S
C3520 C3530 1.465 . S
C3521 C3520 1.264 . S
C3521 C3523 1.339 . S
C3521 H3548 0.931 . S
C3522 C3523 1.395 . S
C3522 C3524 1.320 . S
C3523 C3521 1.339 . S
C3523 C3522 1.395 . S
C3523 H3549 0.929 . S
C3524 C3522 1.320 . S
C3524 C3525 1.405 . S
C3524 H3550 0.930 . S
C3525 C3520 1.479 . S
C3525 C3524 1.405 . S
C3525 H3551 0.931 . S
U3526 O3527 2.454 . S
U3526 O3528 2.458 . S
U3526 C3529 2.984 . S
U3526 C3530 2.847 . S
U3526 C3543 2.882 . S
U3526 O3544 2.441 . S
U3526 O3545 2.420 . S
U3526 O3546 2.455 . S
U3526 O3547 2.449 . S
O3527 U3526 2.454 . S
O3527 C3529 1.353 . S
O3528 U3526 2.458 . S
O3528 C3529 1.286 . S
C3529 U3526 2.984 . S
C3529 O3527 1.353 . S
C3529 O3528 1.286 . S
C3529 C3531 1.363 . S
C3530 C3520 1.465 . S
C3530 U3526 2.847 . S
C3530 O3544 1.249 . S
C3530 O3545 1.202 . S
C3531 C3529 1.363 . S
C3531 C3533 1.408 . S
C3531 C3536 1.342 . S
C3532 C3533 1.310 . S
C3532 C3535 1.461 . S
C3532 H3552 0.932 . S
C3533 C3531 1.408 . S
C3533 C3532 1.310 . S
C3533 H3553 0.930 . S
C3534 C3535 1.474 . S
C3534 C3536 1.285 . S
C3534 H3554 0.929 . S
C3535 C3532 1.461 . S
C3535 C3534 1.474 . S
C3536 C3531 1.342 . S
C3536 C3534 1.285 . S
C3536 H3555 0.930 . S
C3537 C3540 1.424 . S
C3537 C3542 1.245 . S
C3537 C3543 1.428 . S
C3538 C3541 1.260 . S
C3538 C3542 1.477 . S
C3538 H3556 0.932 . S
C3539 C3540 1.384 . S
C3539 C3541 1.479 . S
C3539 H3557 0.929 . S
C3540 C3537 1.424 . S
C3540 C3539 1.384 . S
C3540 H3558 0.928 . S
C3541 C3538 1.260 . S
C3541 C3539 1.479 . S
C3542 C3537 1.245 . S
C3542 C3538 1.477 . S
C3542 H3559 0.932 . S
C3543 U3526 2.882 . S
C3543 C3537 1.428 . S
C3543 O3546 1.301 . S
C3543 O3547 1.282 . S
O3544 U3526 2.441 . S
O3544 C3530 1.249 . S
O3545 U3526 2.420 . S
O3545 C3530 1.202 . S
O3546 U3526 2.455 . S
O3546 C3543 1.301 . S
O3547 U3526 2.449 . S
O3547 C3543 1.282 . S
H3548 C3521 0.931 . S
H3549 C3523 0.929 . S
H3550 C3524 0.930 . S
H3551 C3525 0.931 . S
H3552 C3532 0.932 . S
H3553 C3533 0.930 . S
H3554 C3534 0.929 . S
H3555 C3536 0.930 . S
H3556 C3538 0.932 . S
H3557 C3539 0.929 . S
H3558 C3540 0.928 . S
H3559 C3542 0.932 . S
C3560 C3561 1.264 . S
C3560 C3565 1.479 . S
C3560 C3570 1.465 . S
C3561 C3560 1.264 . S
C3561 C3563 1.339 . S
C3561 H3588 0.931 . S
C3562 C3563 1.395 . S
C3562 C3564 1.320 . S
C3563 C3561 1.339 . S
C3563 C3562 1.395 . S
C3563 H3589 0.929 . S
C3564 C3562 1.320 . S
C3564 C3565 1.405 . S
C3564 H3590 0.930 . S
C3565 C3560 1.479 . S
C3565 C3564 1.405 . S
C3565 H3591 0.931 . S
U3566 O3567 2.454 . S
U3566 O3568 2.458 . S
U3566 C3569 2.984 . S
U3566 C3570 2.847 . S
U3566 C3583 2.882 . S
U3566 O3584 2.441 . S
U3566 O3585 2.420 . S
U3566 O3586 2.455 . S
U3566 O3587 2.449 . S
O3567 U3566 2.454 . S
O3567 C3569 1.353 . S
O3568 U3566 2.458 . S
O3568 C3569 1.286 . S
C3569 U3566 2.984 . S
C3569 O3567 1.353 . S
C3569 O3568 1.286 . S
C3569 C3571 1.363 . S
C3570 C3560 1.465 . S
C3570 U3566 2.847 . S
C3570 O3584 1.249 . S
C3570 O3585 1.202 . S
C3571 C3569 1.363 . S
C3571 C3573 1.408 . S
C3571 C3576 1.342 . S
C3572 C3573 1.310 . S
C3572 C3575 1.461 . S
C3572 H3592 0.932 . S
C3573 C3571 1.408 . S
C3573 C3572 1.310 . S
C3573 H3593 0.930 . S
C3574 C3575 1.474 . S
C3574 C3576 1.285 . S
C3574 H3594 0.929 . S
C3575 C3572 1.461 . S
C3575 C3574 1.474 . S
C3576 C3571 1.342 . S
C3576 C3574 1.285 . S
C3576 H3595 0.930 . S
C3577 C3580 1.424 . S
C3577 C3582 1.245 . S
C3577 C3583 1.428 . S
C3578 C3581 1.260 . S
C3578 C3582 1.477 . S
C3578 H3596 0.932 . S
C3579 C3580 1.384 . S
C3579 C3581 1.479 . S
C3579 H3597 0.929 . S
C3580 C3577 1.424 . S
C3580 C3579 1.384 . S
C3580 H3598 0.928 . S
C3581 C3578 1.260 . S
C3581 C3579 1.479 . S
C3582 C3577 1.245 . S
C3582 C3578 1.477 . S
C3582 H3599 0.932 . S
C3583 U3566 2.882 . S
C3583 C3577 1.428 . S
C3583 O3586 1.301 . S
C3583 O3587 1.282 . S
O3584 U3566 2.441 . S
O3584 C3570 1.249 . S
O3585 U3566 2.420 . S
O3585 C3570 1.202 . S
O3586 U3566 2.455 . S
O3586 C3583 1.301 . S
O3587 U3566 2.449 . S
O3587 C3583 1.282 . S
H3588 C3561 0.931 . S
H3589 C3563 0.929 . S
H3590 C3564 0.930 . S
H3591 C3565 0.931 . S
H3592 C3572 0.932 . S
H3593 C3573 0.930 . S
H3594 C3574 0.929 . S
H3595 C3576 0.930 . S
H3596 C3578 0.932 . S
H3597 C3579 0.929 . S
H3598 C3580 0.928 . S
H3599 C3582 0.932 . S
C3600 C3601 1.264 . S
C3600 C3605 1.479 . S
C3600 C3610 1.465 . S
C3601 C3600 1.264 . S
C3601 C3603 1.339 . S
C3601 H3628 0.931 . S
C3602 C3603 1.395 . S
C3602 C3604 1.320 . S
C3603 C3601 1.339 . S
C3603 C3602 1.395 . S
C3603 H3629 0.929 . S
C3604 C3602 1.320 . S
C3604 C3605 1.405 . S
C3604 H3630 0.930 . S
C3605 C3600 1.479 . S
C3605 C3604 1.405 . S
C3605 H3631 0.931 . S
U3606 O3607 2.454 . S
U3606 O3608 2.458 . S
U3606 C3609 2.984 . S
U3606 C3610 2.847 . S
U3606 C3623 2.882 . S
U3606 O3624 2.441 . S
U3606 O3625 2.420 . S
U3606 O3626 2.455 . S
U3606 O3627 2.449 . S
O3607 U3606 2.454 . S
O3607 C3609 1.353 . S
O3608 U3606 2.458 . S
O3608 C3609 1.286 . S
C3609 U3606 2.984 . S
C3609 O3607 1.353 . S
C3609 O3608 1.286 . S
C3609 C3611 1.363 . S
C3610 C3600 1.465 . S
C3610 U3606 2.847 . S
C3610 O3624 1.249 . S
C3610 O3625 1.202 . S
C3611 C3609 1.363 . S
C3611 C3613 1.408 . S
C3611 C3616 1.342 . S
C3612 C3613 1.310 . S
C3612 C3615 1.461 . S
C3612 H3632 0.932 . S
C3613 C3611 1.408 . S
C3613 C3612 1.310 . S
C3613 H3633 0.930 . S
C3614 C3615 1.474 . S
C3614 C3616 1.285 . S
C3614 H3634 0.929 . S
C3615 C3612 1.461 . S
C3615 C3614 1.474 . S
C3616 C3611 1.342 . S
C3616 C3614 1.285 . S
C3616 H3635 0.930 . S
C3617 C3620 1.424 . S
C3617 C3622 1.245 . S
C3617 C3623 1.428 . S
C3618 C3621 1.260 . S
C3618 C3622 1.477 . S
C3618 H3636 0.932 . S
C3619 C3620 1.384 . S
C3619 C3621 1.479 . S
C3619 H3637 0.929 . S
C3620 C3617 1.424 . S
C3620 C3619 1.384 . S
C3620 H3638 0.928 . S
C3621 C3618 1.260 . S
C3621 C3619 1.479 . S
C3622 C3617 1.245 . S
C3622 C3618 1.477 . S
C3622 H3639 0.932 . S
C3623 U3606 2.882 . S
C3623 C3617 1.428 . S
C3623 O3626 1.301 . S
C3623 O3627 1.282 . S
O3624 U3606 2.441 . S
O3624 C3610 1.249 . S
O3625 U3606 2.420 . S
O3625 C3610 1.202 . S
O3626 U3606 2.455 . S
O3626 C3623 1.301 . S
O3627 U3606 2.449 . S
O3627 C3623 1.282 . S
H3628 C3601 0.931 . S
H3629 C3603 0.929 . S
H3630 C3604 0.930 . S
H3631 C3605 0.931 . S
H3632 C3612 0.932 . S
H3633 C3613 0.930 . S
H3634 C3614 0.929 . S
H3635 C3616 0.930 . S
H3636 C3618 0.932 . S
H3637 C3619 0.929 . S
H3638 C3620 0.928 . S
H3639 C3622 0.932 . S
C3640 C3641 1.264 . S
C3640 C3645 1.479 . S
C3640 C3650 1.465 . S
C3641 C3640 1.264 . S
C3641 C3643 1.339 . S
C3641 H3668 0.931 . S
C3642 C3643 1.395 . S
C3642 C3644 1.320 . S
C3643 C3641 1.339 . S
C3643 C3642 1.395 . S
C3643 H3669 0.929 . S
C3644 C3642 1.320 . S
C3644 C3645 1.405 . S
C3644 H3670 0.930 . S
C3645 C3640 1.479 . S
C3645 C3644 1.405 . S
C3645 H3671 0.931 . S
U3646 O3647 2.454 . S
U3646 O3648 2.458 . S
U3646 C3649 2.984 . S
U3646 C3650 2.847 . S
U3646 C3663 2.882 . S
U3646 O3664 2.441 . S
U3646 O3665 2.420 . S
U3646 O3666 2.455 . S
U3646 O3667 2.449 . S
O3647 U3646 2.454 . S
O3647 C3649 1.353 . S
O3648 U3646 2.458 . S
O3648 C3649 1.286 . S
C3649 U3646 2.984 . S
C3649 O3647 1.353 . S
C3649 O3648 1.286 . S
C3649 C3651 1.363 . S
C3650 C3640 1.465 . S
C3650 U3646 2.847 . S
C3650 O3664 1.249 . S
C3650 O3665 1.202 . S
C3651 C3649 1.363 . S
C3651 C3653 1.408 . S
C3651 C3656 1.342 . S
C3652 C3653 1.310 . S
C3652 C3655 1.461 . S
C3652 H3672 0.932 . S
C3653 C3651 1.408 . S
C3653 C3652 1.310 . S
C3653 H3673 0.930 . S
C3654 C3655 1.474 . S
C3654 C3656 1.285 . S
C3654 H3674 0.929 . S
C3655 C3652 1.461 . S
C3655 C3654 1.474 . S
C3656 C3651 1.342 . S
C3656 C3654 1.285 . S
C3656 H3675 0.930 . S
C3657 C3660 1.424 . S
C3657 C3662 1.245 . S
C3657 C3663 1.428 . S
C3658 C3661 1.260 . S
C3658 C3662 1.477 . S
C3658 H3676 0.932 . S
C3659 C3660 1.384 . S
C3659 C3661 1.479 . S
C3659 H3677 0.929 . S
C3660 C3657 1.424 . S
C3660 C3659 1.384 . S
C3660 H3678 0.928 . S
C3661 C3658 1.260 . S
C3661 C3659 1.479 . S
C3662 C3657 1.245 . S
C3662 C3658 1.477 . S
C3662 H3679 0.932 . S
C3663 U3646 2.882 . S
C3663 C3657 1.428 . S
C3663 O3666 1.301 . S
C3663 O3667 1.282 . S
O3664 U3646 2.441 . S
O3664 C3650 1.249 . S
O3665 U3646 2.420 . S
O3665 C3650 1.202 . S
O3666 U3646 2.455 . S
O3666 C3663 1.301 . S
O3667 U3646 2.449 . S
O3667 C3663 1.282 . S
H3668 C3641 0.931 . S
H3669 C3643 0.929 . S
H3670 C3644 0.930 . S
H3671 C3645 0.931 . S
H3672 C3652 0.932 . S
H3673 C3653 0.930 . S
H3674 C3654 0.929 . S
H3675 C3656 0.930 . S
H3676 C3658 0.932 . S
H3677 C3659 0.929 . S
H3678 C3660 0.928 . S
H3679 C3662 0.932 . S
C3680 C3681 1.264 . S
C3680 C3685 1.479 . S
C3680 C3690 1.465 . S
C3681 C3680 1.264 . S
C3681 C3683 1.339 . S
C3681 H3708 0.931 . S
C3682 C3683 1.395 . S
C3682 C3684 1.320 . S
C3683 C3681 1.339 . S
C3683 C3682 1.395 . S
C3683 H3709 0.929 . S
C3684 C3682 1.320 . S
C3684 C3685 1.405 . S
C3684 H3710 0.930 . S
C3685 C3680 1.479 . S
C3685 C3684 1.405 . S
C3685 H3711 0.931 . S
U3686 O3687 2.454 . S
U3686 O3688 2.458 . S
U3686 C3689 2.984 . S
U3686 C3690 2.847 . S
U3686 C3703 2.882 . S
U3686 O3704 2.441 . S
U3686 O3705 2.420 . S
U3686 O3706 2.455 . S
U3686 O3707 2.449 . S
O3687 U3686 2.454 . S
O3687 C3689 1.353 . S
O3688 U3686 2.458 . S
O3688 C3689 1.286 . S
C3689 U3686 2.984 . S
C3689 O3687 1.353 . S
C3689 O3688 1.286 . S
C3689 C3691 1.363 . S
C3690 C3680 1.465 . S
C3690 U3686 2.847 . S
C3690 O3704 1.249 . S
C3690 O3705 1.202 . S
C3691 C3689 1.363 . S
C3691 C3693 1.408 . S
C3691 C3696 1.342 . S
C3692 C3693 1.310 . S
C3692 C3695 1.461 . S
C3692 H3712 0.932 . S
C3693 C3691 1.408 . S
C3693 C3692 1.310 . S
C3693 H3713 0.930 . S
C3694 C3695 1.474 . S
C3694 C3696 1.285 . S
C3694 H3714 0.929 . S
C3695 C3692 1.461 . S
C3695 C3694 1.474 . S
C3696 C3691 1.342 . S
C3696 C3694 1.285 . S
C3696 H3715 0.930 . S
C3697 C3700 1.424 . S
C3697 C3702 1.245 . S
C3697 C3703 1.428 . S
C3698 C3701 1.260 . S
C3698 C3702 1.477 . S
C3698 H3716 0.932 . S
C3699 C3700 1.384 . S
C3699 C3701 1.479 . S
C3699 H3717 0.929 . S
C3700 C3697 1.424 . S
C3700 C3699 1.384 . S
C3700 H3718 0.928 . S
C3701 C3698 1.260 . S
C3701 C3699 1.479 . S
C3702 C3697 1.245 . S
C3702 C3698 1.477 . S
C3702 H3719 0.932 . S
C3703 U3686 2.882 . S
C3703 C3697 1.428 . S
C3703 O3706 1.301 . S
C3703 O3707 1.282 . S
O3704 U3686 2.441 . S
O3704 C3690 1.249 . S
O3705 U3686 2.420 . S
O3705 C3690 1.202 . S
O3706 U3686 2.455 . S
O3706 C3703 1.301 . S
O3707 U3686 2.449 . S
O3707 C3703 1.282 . S
H3708 C3681 0.931 . S
H3709 C3683 0.929 . S
H3710 C3684 0.930 . S
H3711 C3685 0.931 . S
H3712 C3692 0.932 . S
H3713 C3693 0.930 . S
H3714 C3694 0.929 . S
H3715 C3696 0.930 . S
H3716 C3698 0.932 . S
H3717 C3699 0.929 . S
H3718 C3700 0.928 . S
H3719 C3702 0.932 . S
C3720 C3721 1.264 . S
C3720 C3725 1.479 . S
C3720 C3730 1.465 . S
C3721 C3720 1.264 . S
C3721 C3723 1.339 . S
C3721 H3748 0.931 . S
C3722 C3723 1.395 . S
C3722 C3724 1.320 . S
C3723 C3721 1.339 . S
C3723 C3722 1.395 . S
C3723 H3749 0.929 . S
C3724 C3722 1.320 . S
C3724 C3725 1.405 . S
C3724 H3750 0.930 . S
C3725 C3720 1.479 . S
C3725 C3724 1.405 . S
C3725 H3751 0.931 . S
U3726 O3727 2.454 . S
U3726 O3728 2.458 . S
U3726 C3729 2.984 . S
U3726 C3730 2.847 . S
U3726 C3743 2.882 . S
U3726 O3744 2.441 . S
U3726 O3745 2.420 . S
U3726 O3746 2.455 . S
U3726 O3747 2.449 . S
O3727 U3726 2.454 . S
O3727 C3729 1.353 . S
O3728 U3726 2.458 . S
O3728 C3729 1.286 . S
C3729 U3726 2.984 . S
C3729 O3727 1.353 . S
C3729 O3728 1.286 . S
C3729 C3731 1.363 . S
C3730 C3720 1.465 . S
C3730 U3726 2.847 . S
C3730 O3744 1.249 . S
C3730 O3745 1.202 . S
C3731 C3729 1.363 . S
C3731 C3733 1.408 . S
C3731 C3736 1.342 . S
C3732 C3733 1.310 . S
C3732 C3735 1.461 . S
C3732 H3752 0.932 . S
C3733 C3731 1.408 . S
C3733 C3732 1.310 . S
C3733 H3753 0.930 . S
C3734 C3735 1.474 . S
C3734 C3736 1.285 . S
C3734 H3754 0.929 . S
C3735 C3732 1.461 . S
C3735 C3734 1.474 . S
C3736 C3731 1.342 . S
C3736 C3734 1.285 . S
C3736 H3755 0.930 . S
C3737 C3740 1.424 . S
C3737 C3742 1.245 . S
C3737 C3743 1.428 . S
C3738 C3741 1.260 . S
C3738 C3742 1.477 . S
C3738 H3756 0.932 . S
C3739 C3740 1.384 . S
C3739 C3741 1.479 . S
C3739 H3757 0.929 . S
C3740 C3737 1.424 . S
C3740 C3739 1.384 . S
C3740 H3758 0.928 . S
C3741 C3738 1.260 . S
C3741 C3739 1.479 . S
C3742 C3737 1.245 . S
C3742 C3738 1.477 . S
C3742 H3759 0.932 . S
C3743 U3726 2.882 . S
C3743 C3737 1.428 . S
C3743 O3746 1.301 . S
C3743 O3747 1.282 . S
O3744 U3726 2.441 . S
O3744 C3730 1.249 . S
O3745 U3726 2.420 . S
O3745 C3730 1.202 . S
O3746 U3726 2.455 . S
O3746 C3743 1.301 . S
O3747 U3726 2.449 . S
O3747 C3743 1.282 . S
H3748 C3721 0.931 . S
H3749 C3723 0.929 . S
H3750 C3724 0.930 . S
H3751 C3725 0.931 . S
H3752 C3732 0.932 . S
H3753 C3733 0.930 . S
H3754 C3734 0.929 . S
H3755 C3736 0.930 . S
H3756 C3738 0.932 . S
H3757 C3739 0.929 . S
H3758 C3740 0.928 . S
H3759 C3742 0.932 . S
C3760 C3761 1.264 . S
C3760 C3765 1.479 . S
C3760 C3770 1.465 . S
C3761 C3760 1.264 . S
C3761 C3763 1.339 . S
C3761 H3788 0.931 . S
C3762 C3763 1.395 . S
C3762 C3764 1.320 . S
C3763 C3761 1.339 . S
C3763 C3762 1.395 . S
C3763 H3789 0.929 . S
C3764 C3762 1.320 . S
C3764 C3765 1.405 . S
C3764 H3790 0.930 . S
C3765 C3760 1.479 . S
C3765 C3764 1.405 . S
C3765 H3791 0.931 . S
U3766 O3767 2.454 . S
U3766 O3768 2.458 . S
U3766 C3769 2.984 . S
U3766 C3770 2.847 . S
U3766 C3783 2.882 . S
U3766 O3784 2.441 . S
U3766 O3785 2.420 . S
U3766 O3786 2.455 . S
U3766 O3787 2.449 . S
O3767 U3766 2.454 . S
O3767 C3769 1.353 . S
O3768 U3766 2.458 . S
O3768 C3769 1.286 . S
C3769 U3766 2.984 . S
C3769 O3767 1.353 . S
C3769 O3768 1.286 . S
C3769 C3771 1.363 . S
C3770 C3760 1.465 . S
C3770 U3766 2.847 . S
C3770 O3784 1.249 . S
C3770 O3785 1.202 . S
C3771 C3769 1.363 . S
C3771 C3773 1.408 . S
C3771 C3776 1.342 . S
C3772 C3773 1.310 . S
C3772 C3775 1.461 . S
C3772 H3792 0.932 . S
C3773 C3771 1.408 . S
C3773 C3772 1.310 . S
C3773 H3793 0.930 . S
C3774 C3775 1.474 . S
C3774 C3776 1.285 . S
C3774 H3794 0.929 . S
C3775 C3772 1.461 . S
C3775 C3774 1.474 . S
C3776 C3771 1.342 . S
C3776 C3774 1.285 . S
C3776 H3795 0.930 . S
C3777 C3780 1.424 . S
C3777 C3782 1.245 . S
C3777 C3783 1.428 . S
C3778 C3781 1.260 . S
C3778 C3782 1.477 . S
C3778 H3796 0.932 . S
C3779 C3780 1.384 . S
C3779 C3781 1.479 . S
C3779 H3797 0.929 . S
C3780 C3777 1.424 . S
C3780 C3779 1.384 . S
C3780 H3798 0.928 . S
C3781 C3778 1.260 . S
C3781 C3779 1.479 . S
C3782 C3777 1.245 . S
C3782 C3778 1.477 . S
C3782 H3799 0.932 . S
C3783 U3766 2.882 . S
C3783 C3777 1.428 . S
C3783 O3786 1.301 . S
C3783 O3787 1.282 . S
O3784 U3766 2.441 . S
O3784 C3770 1.249 . S
O3785 U3766 2.420 . S
O3785 C3770 1.202 . S
O3786 U3766 2.455 . S
O3786 C3783 1.301 . S
O3787 U3766 2.449 . S
O3787 C3783 1.282 . S
H3788 C3761 0.931 . S
H3789 C3763 0.929 . S
H3790 C3764 0.930 . S
H3791 C3765 0.931 . S
H3792 C3772 0.932 . S
H3793 C3773 0.930 . S
H3794 C3774 0.929 . S
H3795 C3776 0.930 . S
H3796 C3778 0.932 . S
H3797 C3779 0.929 . S
H3798 C3780 0.928 . S
H3799 C3782 0.932 . S
C3800 C3801 1.264 . S
C3800 C3805 1.479 . S
C3800 C3810 1.465 . S
C3801 C3800 1.264 . S
C3801 C3803 1.339 . S
C3801 H3828 0.931 . S
C3802 C3803 1.395 . S
C3802 C3804 1.320 . S
C3803 C3801 1.339 . S
C3803 C3802 1.395 . S
C3803 H3829 0.929 . S
C3804 C3802 1.320 . S
C3804 C3805 1.405 . S
C3804 H3830 0.930 . S
C3805 C3800 1.479 . S
C3805 C3804 1.405 . S
C3805 H3831 0.931 . S
U3806 O3807 2.454 . S
U3806 O3808 2.458 . S
U3806 C3809 2.984 . S
U3806 C3810 2.847 . S
U3806 C3823 2.882 . S
U3806 O3824 2.441 . S
U3806 O3825 2.420 . S
U3806 O3826 2.455 . S
U3806 O3827 2.449 . S
O3807 U3806 2.454 . S
O3807 C3809 1.353 . S
O3808 U3806 2.458 . S
O3808 C3809 1.286 . S
C3809 U3806 2.984 . S
C3809 O3807 1.353 . S
C3809 O3808 1.286 . S
C3809 C3811 1.363 . S
C3810 C3800 1.465 . S
C3810 U3806 2.847 . S
C3810 O3824 1.249 . S
C3810 O3825 1.202 . S
C3811 C3809 1.363 . S
C3811 C3813 1.408 . S
C3811 C3816 1.342 . S
C3812 C3813 1.310 . S
C3812 C3815 1.461 . S
C3812 H3832 0.932 . S
C3813 C3811 1.408 . S
C3813 C3812 1.310 . S
C3813 H3833 0.930 . S
C3814 C3815 1.474 . S
C3814 C3816 1.285 . S
C3814 H3834 0.929 . S
C3815 C3812 1.461 . S
C3815 C3814 1.474 . S
C3816 C3811 1.342 . S
C3816 C3814 1.285 . S
C3816 H3835 0.930 . S
C3817 C3820 1.424 . S
C3817 C3822 1.245 . S
C3817 C3823 1.428 . S
C3818 C3821 1.260 . S
C3818 C3822 1.477 . S
C3818 H3836 0.932 . S
C3819 C3820 1.384 . S
C3819 C3821 1.479 . S
C3819 H3837 0.929 . S
C3820 C3817 1.424 . S
C3820 C3819 1.384 . S
C3820 H3838 0.928 . S
C3821 C3818 1.260 . S
C3821 C3819 1.479 . S
C3822 C3817 1.245 . S
C3822 C3818 1.477 . S
C3822 H3839 0.932 . S
C3823 U3806 2.882 . S
C3823 C3817 1.428 . S
C3823 O3826 1.301 . S
C3823 O3827 1.282 . S
O3824 U3806 2.441 . S
O3824 C3810 1.249 . S
O3825 U3806 2.420 . S
O3825 C3810 1.202 . S
O3826 U3806 2.455 . S
O3826 C3823 1.301 . S
O3827 U3806 2.449 . S
O3827 C3823 1.282 . S
H3828 C3801 0.931 . S
H3829 C3803 0.929 . S
H3830 C3804 0.930 . S
H3831 C3805 0.931 . S
H3832 C3812 0.932 . S
H3833 C3813 0.930 . S
H3834 C3814 0.929 . S
H3835 C3816 0.930 . S
H3836 C3818 0.932 . S
H3837 C3819 0.929 . S
H3838 C3820 0.928 . S
H3839 C3822 0.932 . S
H3840 C3845 0.930 . S
H3841 C3848 0.930 . S
H3842 C3850 0.930 . S
H3843 C3844 1.016 . S
C3844 H3843 1.016 . S
C3844 N3851 1.286 . S
C3845 H3840 0.930 . S
C3845 C3846 1.397 . S
C3845 C3847 1.361 . S
C3846 C3845 1.397 . S
C3846 C3850 1.390 . S
C3847 C3845 1.361 . S
C3847 C3848 1.393 . S
C3847 N3851 1.413 . S
C3848 H3841 0.930 . S
C3848 C3847 1.393 . S
C3848 C3849 1.399 . S
C3849 C3848 1.399 . S
C3849 C3850 1.381 . S
C3850 H3842 0.930 . S
C3850 C3846 1.390 . S
C3850 C3849 1.381 . S
N3851 C3844 1.286 . S
N3851 C3847 1.413 . S
H3852 C3857 0.930 . S
H3853 C3860 0.930 . S
H3854 C3862 0.930 . S
H3855 C3856 1.016 . S
C3856 H3855 1.016 . S
C3856 N3863 1.286 . S
C3857 H3852 0.930 . S
C3857 C3858 1.397 . S
C3857 C3859 1.361 . S
C3858 C3857 1.397 . S
C3858 C3862 1.390 . S
C3859 C3857 1.361 . S
C3859 C3860 1.393 . S
C3859 N3863 1.413 . S
C3860 H3853 0.930 . S
C3860 C3859 1.393 . S
C3860 C3861 1.399 . S
C3861 C3860 1.399 . S
C3861 C3862 1.381 . S
C3862 H3854 0.930 . S
C3862 C3858 1.390 . S
C3862 C3861 1.381 . S
N3863 C3856 1.286 . S
N3863 C3859 1.413 . S
H3864 C3869 0.930 . S
H3865 C3872 0.930 . S
H3866 C3874 0.930 . S
H3867 C3868 1.016 . S
C3868 H3867 1.016 . S
C3868 N3875 1.286 . S
C3869 H3864 0.930 . S
C3869 C3870 1.397 . S
C3869 C3871 1.361 . S
C3870 C3869 1.397 . S
C3870 C3874 1.390 . S
C3871 C3869 1.361 . S
C3871 C3872 1.393 . S
C3871 N3875 1.413 . S
C3872 H3865 0.930 . S
C3872 C3871 1.393 . S
C3872 C3873 1.399 . S
C3873 C3872 1.399 . S
C3873 C3874 1.381 . S
C3874 H3866 0.930 . S
C3874 C3870 1.390 . S
C3874 C3873 1.381 . S
N3875 C3868 1.286 . S
N3875 C3871 1.413 . S
H3876 C3881 0.930 . S
H3877 C3884 0.930 . S
H3878 C3886 0.930 . S
H3879 C3880 1.016 . S
C3880 H3879 1.016 . S
C3880 N3887 1.286 . S
C3881 H3876 0.930 . S
C3881 C3882 1.397 . S
C3881 C3883 1.361 . S
C3882 C3881 1.397 . S
C3882 C3886 1.390 . S
C3883 C3881 1.361 . S
C3883 C3884 1.393 . S
C3883 N3887 1.413 . S
C3884 H3877 0.930 . S
C3884 C3883 1.393 . S
C3884 C3885 1.399 . S
C3885 C3884 1.399 . S
C3885 C3886 1.381 . S
C3886 H3878 0.930 . S
C3886 C3882 1.390 . S
C3886 C3885 1.381 . S
N3887 C3880 1.286 . S
N3887 C3883 1.413 . S
H3888 C3893 0.930 . S
H3889 C3896 0.930 . S
H3890 C3898 0.930 . S
H3891 C3892 1.016 . S
C3892 H3891 1.016 . S
C3892 N3899 1.286 . S
C3893 H3888 0.930 . S
C3893 C3894 1.397 . S
C3893 C3895 1.361 . S
C3894 C3893 1.397 . S
C3894 C3898 1.390 . S
C3895 C3893 1.361 . S
C3895 C3896 1.393 . S
C3895 N3899 1.413 . S
C3896 H3889 0.930 . S
C3896 C3895 1.393 . S
C3896 C3897 1.399 . S
C3897 C3896 1.399 . S
C3897 C3898 1.381 . S
C3898 H3890 0.930 . S
C3898 C3894 1.390 . S
C3898 C3897 1.381 . S
N3899 C3892 1.286 . S
N3899 C3895 1.413 . S
H3900 C3905 0.930 . S
H3901 C3908 0.930 . S
H3902 C3910 0.930 . S
H3903 C3904 1.016 . S
C3904 H3903 1.016 . S
C3904 N3911 1.286 . S
C3905 H3900 0.930 . S
C3905 C3906 1.397 . S
C3905 C3907 1.361 . S
C3906 C3905 1.397 . S
C3906 C3910 1.390 . S
C3907 C3905 1.361 . S
C3907 C3908 1.393 . S
C3907 N3911 1.413 . S
C3908 H3901 0.930 . S
C3908 C3907 1.393 . S
C3908 C3909 1.399 . S
C3909 C3908 1.399 . S
C3909 C3910 1.381 . S
C3910 H3902 0.930 . S
C3910 C3906 1.390 . S
C3910 C3909 1.381 . S
N3911 C3904 1.286 . S
N3911 C3907 1.413 . S
H3912 C3917 0.930 . S
H3913 C3920 0.930 . S
H3914 C3922 0.930 . S
H3915 C3916 1.016 . S
C3916 H3915 1.016 . S
C3916 N3923 1.286 . S
C3917 H3912 0.930 . S
C3917 C3918 1.397 . S
C3917 C3919 1.361 . S
C3918 C3917 1.397 . S
C3918 C3922 1.390 . S
C3919 C3917 1.361 . S
C3919 C3920 1.393 . S
C3919 N3923 1.413 . S
C3920 H3913 0.930 . S
C3920 C3919 1.393 . S
C3920 C3921 1.399 . S
C3921 C3920 1.399 . S
C3921 C3922 1.381 . S
C3922 H3914 0.930 . S
C3922 C3918 1.390 . S
C3922 C3921 1.381 . S
N3923 C3916 1.286 . S
N3923 C3919 1.413 . S
H3924 C3929 0.930 . S
H3925 C3932 0.930 . S
H3926 C3934 0.930 . S
H3927 C3928 1.016 . S
C3928 H3927 1.016 . S
C3928 N3935 1.286 . S
C3929 H3924 0.930 . S
C3929 C3930 1.397 . S
C3929 C3931 1.361 . S
C3930 C3929 1.397 . S
C3930 C3934 1.390 . S
C3931 C3929 1.361 . S
C3931 C3932 1.393 . S
C3931 N3935 1.413 . S
C3932 H3925 0.930 . S
C3932 C3931 1.393 . S
C3932 C3933 1.399 . S
C3933 C3932 1.399 . S
C3933 C3934 1.381 . S
C3934 H3926 0.930 . S
C3934 C3930 1.390 . S
C3934 C3933 1.381 . S
N3935 C3928 1.286 . S
N3935 C3931 1.413 . S
H3936 C3941 0.930 . S
H3937 C3944 0.930 . S
H3938 C3946 0.930 . S
H3939 C3940 1.016 . S
C3940 H3939 1.016 . S
C3940 N3947 1.286 . S
C3941 H3936 0.930 . S
C3941 C3942 1.397 . S
C3941 C3943 1.361 . S
C3942 C3941 1.397 . S
C3942 C3946 1.390 . S
C3943 C3941 1.361 . S
C3943 C3944 1.393 . S
C3943 N3947 1.413 . S
C3944 H3937 0.930 . S
C3944 C3943 1.393 . S
C3944 C3945 1.399 . S
C3945 C3944 1.399 . S
C3945 C3946 1.381 . S
C3946 H3938 0.930 . S
C3946 C3942 1.390 . S
C3946 C3945 1.381 . S
N3947 C3940 1.286 . S
N3947 C3943 1.413 . S
H3948 C3953 0.930 . S
H3949 C3956 0.930 . S
H3950 C3958 0.930 . S
H3951 C3952 1.016 . S
C3952 H3951 1.016 . S
C3952 N3959 1.286 . S
C3953 H3948 0.930 . S
C3953 C3954 1.397 . S
C3953 C3955 1.361 . S
C3954 C3953 1.397 . S
C3954 C3958 1.390 . S
C3955 C3953 1.361 . S
C3955 C3956 1.393 . S
C3955 N3959 1.413 . S
C3956 H3949 0.930 . S
C3956 C3955 1.393 . S
C3956 C3957 1.399 . S
C3957 C3956 1.399 . S
C3957 C3958 1.381 . S
C3958 H3950 0.930 . S
C3958 C3954 1.390 . S
C3958 C3957 1.381 . S
N3959 C3952 1.286 . S
N3959 C3955 1.413 . S
H3960 C3965 0.930 . S
H3961 C3968 0.930 . S
H3962 C3970 0.930 . S
H3963 C3964 1.016 . S
C3964 H3963 1.016 . S
C3964 N3971 1.286 . S
C3965 H3960 0.930 . S
C3965 C3966 1.397 . S
C3965 C3967 1.361 . S
C3966 C3965 1.397 . S
C3966 C3970 1.390 . S
C3967 C3965 1.361 . S
C3967 C3968 1.393 . S
C3967 N3971 1.413 . S
C3968 H3961 0.930 . S
C3968 C3967 1.393 . S
C3968 C3969 1.399 . S
C3969 C3968 1.399 . S
C3969 C3970 1.381 . S
C3970 H3962 0.930 . S
C3970 C3966 1.390 . S
C3970 C3969 1.381 . S
N3971 C3964 1.286 . S
N3971 C3967 1.413 . S
H3972 C3977 0.930 . S
H3973 C3980 0.930 . S
H3974 C3982 0.930 . S
H3975 C3976 1.016 . S
C3976 H3975 1.016 . S
C3976 N3983 1.286 . S
C3977 H3972 0.930 . S
C3977 C3978 1.397 . S
C3977 C3979 1.361 . S
C3978 C3977 1.397 . S
C3978 C3982 1.390 . S
C3979 C3977 1.361 . S
C3979 C3980 1.393 . S
C3979 N3983 1.413 . S
C3980 H3973 0.930 . S
C3980 C3979 1.393 . S
C3980 C3981 1.399 . S
C3981 C3980 1.399 . S
C3981 C3982 1.381 . S
C3982 H3974 0.930 . S
C3982 C3978 1.390 . S
C3982 C3981 1.381 . S
N3983 C3976 1.286 . S
N3983 C3979 1.413 . S
H3984 C3989 0.930 . S
H3985 C3992 0.930 . S
H3986 C3994 0.930 . S
H3987 C3988 1.016 . S
C3988 H3987 1.016 . S
C3988 N3995 1.286 . S
C3989 H3984 0.930 . S
C3989 C3990 1.397 . S
C3989 C3991 1.361 . S
C3990 C3989 1.397 . S
C3990 C3994 1.390 . S
C3991 C3989 1.361 . S
C3991 C3992 1.393 . S
C3991 N3995 1.413 . S
C3992 H3985 0.930 . S
C3992 C3991 1.393 . S
C3992 C3993 1.399 . S
C3993 C3992 1.399 . S
C3993 C3994 1.381 . S
C3994 H3986 0.930 . S
C3994 C3990 1.390 . S
C3994 C3993 1.381 . S
N3995 C3988 1.286 . S
N3995 C3991 1.413 . S
H3996 C4001 0.930 . S
H3997 C4004 0.930 . S
H3998 C4006 0.930 . S
H3999 C4000 1.016 . S
C4000 H3999 1.016 . S
C4000 N4007 1.286 . S
C4001 H3996 0.930 . S
C4001 C4002 1.397 . S
C4001 C4003 1.361 . S
C4002 C4001 1.397 . S
C4002 C4006 1.390 . S
C4003 C4001 1.361 . S
C4003 C4004 1.393 . S
C4003 N4007 1.413 . S
C4004 H3997 0.930 . S
C4004 C4003 1.393 . S
C4004 C4005 1.399 . S
C4005 C4004 1.399 . S
C4005 C4006 1.381 . S
C4006 H3998 0.930 . S
C4006 C4002 1.390 . S
C4006 C4005 1.381 . S
N4007 C4000 1.286 . S
N4007 C4003 1.413 . S
H4008 C4013 0.930 . S
H4009 C4016 0.930 . S
H4010 C4018 0.930 . S
H4011 C4012 1.016 . S
C4012 H4011 1.016 . S
C4012 N4019 1.286 . S
C4013 H4008 0.930 . S
C4013 C4014 1.397 . S
C4013 C4015 1.361 . S
C4014 C4013 1.397 . S
C4014 C4018 1.390 . S
C4015 C4013 1.361 . S
C4015 C4016 1.393 . S
C4015 N4019 1.413 . S
C4016 H4009 0.930 . S
C4016 C4015 1.393 . S
C4016 C4017 1.399 . S
C4017 C4016 1.399 . S
C4017 C4018 1.381 . S
C4018 H4010 0.930 . S
C4018 C4014 1.390 . S
C4018 C4017 1.381 . S
N4019 C4012 1.286 . S
N4019 C4015 1.413 . S
H4020 C4025 0.930 . S
H4021 C4028 0.930 . S
H4022 C4030 0.930 . S
H4023 C4024 1.016 . S
C4024 H4023 1.016 . S
C4024 N4031 1.286 . S
C4025 H4020 0.930 . S
C4025 C4026 1.397 . S
C4025 C4027 1.361 . S
C4026 C4025 1.397 . S
C4026 C4030 1.390 . S
C4027 C4025 1.361 . S
C4027 C4028 1.393 . S
C4027 N4031 1.413 . S
C4028 H4021 0.930 . S
C4028 C4027 1.393 . S
C4028 C4029 1.399 . S
C4029 C4028 1.399 . S
C4029 C4030 1.381 . S
C4030 H4022 0.930 . S
C4030 C4026 1.390 . S
C4030 C4029 1.381 . S
N4031 C4024 1.286 . S
N4031 C4027 1.413 . S
H4032 C4037 0.930 . S
H4033 C4040 0.930 . S
H4034 C4042 0.930 . S
H4035 C4036 1.016 . S
C4036 H4035 1.016 . S
C4036 N4043 1.286 . S
C4037 H4032 0.930 . S
C4037 C4038 1.397 . S
C4037 C4039 1.361 . S
C4038 C4037 1.397 . S
C4038 C4042 1.390 . S
C4039 C4037 1.361 . S
C4039 C4040 1.393 . S
C4039 N4043 1.413 . S
C4040 H4033 0.930 . S
C4040 C4039 1.393 . S
C4040 C4041 1.399 . S
C4041 C4040 1.399 . S
C4041 C4042 1.381 . S
C4042 H4034 0.930 . S
C4042 C4038 1.390 . S
C4042 C4041 1.381 . S
N4043 C4036 1.286 . S
N4043 C4039 1.413 . S
H4044 C4049 0.930 . S
H4045 C4052 0.930 . S
H4046 C4054 0.930 . S
H4047 C4048 1.016 . S
C4048 H4047 1.016 . S
C4048 N4055 1.286 . S
C4049 H4044 0.930 . S
C4049 C4050 1.397 . S
C4049 C4051 1.361 . S
C4050 C4049 1.397 . S
C4050 C4054 1.390 . S
C4051 C4049 1.361 . S
C4051 C4052 1.393 . S
C4051 N4055 1.413 . S
C4052 H4045 0.930 . S
C4052 C4051 1.393 . S
C4052 C4053 1.399 . S
C4053 C4052 1.399 . S
C4053 C4054 1.381 . S
C4054 H4046 0.930 . S
C4054 C4050 1.390 . S
C4054 C4053 1.381 . S
N4055 C4048 1.286 . S
N4055 C4051 1.413 . S
H4056 C4061 0.930 . S
H4057 C4064 0.930 . S
H4058 C4066 0.930 . S
H4059 C4060 1.016 . S
C4060 H4059 1.016 . S
C4060 N4067 1.286 . S
C4061 H4056 0.930 . S
C4061 C4062 1.397 . S
C4061 C4063 1.361 . S
C4062 C4061 1.397 . S
C4062 C4066 1.390 . S
C4063 C4061 1.361 . S
C4063 C4064 1.393 . S
C4063 N4067 1.413 . S
C4064 H4057 0.930 . S
C4064 C4063 1.393 . S
C4064 C4065 1.399 . S
C4065 C4064 1.399 . S
C4065 C4066 1.381 . S
C4066 H4058 0.930 . S
C4066 C4062 1.390 . S
C4066 C4065 1.381 . S
N4067 C4060 1.286 . S
N4067 C4063 1.413 . S
H4068 C4073 0.930 . S
H4069 C4076 0.930 . S
H4070 C4078 0.930 . S
H4071 C4072 1.016 . S
C4072 H4071 1.016 . S
C4072 N4079 1.286 . S
C4073 H4068 0.930 . S
C4073 C4074 1.397 . S
C4073 C4075 1.361 . S
C4074 C4073 1.397 . S
C4074 C4078 1.390 . S
C4075 C4073 1.361 . S
C4075 C4076 1.393 . S
C4075 N4079 1.413 . S
C4076 H4069 0.930 . S
C4076 C4075 1.393 . S
C4076 C4077 1.399 . S
C4077 C4076 1.399 . S
C4077 C4078 1.381 . S
C4078 H4070 0.930 . S
C4078 C4074 1.390 . S
C4078 C4077 1.381 . S
N4079 C4072 1.286 . S
N4079 C4075 1.413 . S
H4080 C4085 0.930 . S
H4081 C4088 0.930 . S
H4082 C4090 0.930 . S
H4083 C4084 1.016 . S
C4084 H4083 1.016 . S
C4084 N4091 1.286 . S
C4085 H4080 0.930 . S
C4085 C4086 1.397 . S
C4085 C4087 1.361 . S
C4086 C4085 1.397 . S
C4086 C4090 1.390 . S
C4087 C4085 1.361 . S
C4087 C4088 1.393 . S
C4087 N4091 1.413 . S
C4088 H4081 0.930 . S
C4088 C4087 1.393 . S
C4088 C4089 1.399 . S
C4089 C4088 1.399 . S
C4089 C4090 1.381 . S
C4090 H4082 0.930 . S
C4090 C4086 1.390 . S
C4090 C4089 1.381 . S
N4091 C4084 1.286 . S
N4091 C4087 1.413 . S
H4092 C4097 0.930 . S
H4093 C4100 0.930 . S
H4094 C4102 0.930 . S
H4095 C4096 1.016 . S
C4096 H4095 1.016 . S
C4096 N4103 1.286 . S
C4097 H4092 0.930 . S
C4097 C4098 1.397 . S
C4097 C4099 1.361 . S
C4098 C4097 1.397 . S
C4098 C4102 1.390 . S
C4099 C4097 1.361 . S
C4099 C4100 1.393 . S
C4099 N4103 1.413 . S
C4100 H4093 0.930 . S
C4100 C4099 1.393 . S
C4100 C4101 1.399 . S
C4101 C4100 1.399 . S
C4101 C4102 1.381 . S
C4102 H4094 0.930 . S
C4102 C4098 1.390 . S
C4102 C4101 1.381 . S
N4103 C4096 1.286 . S
N4103 C4099 1.413 . S
H4104 C4109 0.930 . S
H4105 C4112 0.930 . S
H4106 C4114 0.930 . S
H4107 C4108 1.016 . S
C4108 H4107 1.016 . S
C4108 N4115 1.286 . S
C4109 H4104 0.930 . S
C4109 C4110 1.397 . S
C4109 C4111 1.361 . S
C4110 C4109 1.397 . S
C4110 C4114 1.390 . S
C4111 C4109 1.361 . S
C4111 C4112 1.393 . S
C4111 N4115 1.413 . S
C4112 H4105 0.930 . S
C4112 C4111 1.393 . S
C4112 C4113 1.399 . S
C4113 C4112 1.399 . S
C4113 C4114 1.381 . S
C4114 H4106 0.930 . S
C4114 C4110 1.390 . S
C4114 C4113 1.381 . S
N4115 C4108 1.286 . S
N4115 C4111 1.413 . S
H4116 C4121 0.930 . S
H4117 C4124 0.930 . S
H4118 C4126 0.930 . S
H4119 C4120 1.016 . S
C4120 H4119 1.016 . S
C4120 N4127 1.286 . S
C4121 H4116 0.930 . S
C4121 C4122 1.397 . S
C4121 C4123 1.361 . S
C4122 C4121 1.397 . S
C4122 C4126 1.390 . S
C4123 C4121 1.361 . S
C4123 C4124 1.393 . S
C4123 N4127 1.413 . S
C4124 H4117 0.930 . S
C4124 C4123 1.393 . S
C4124 C4125 1.399 . S
C4125 C4124 1.399 . S
C4125 C4126 1.381 . S
C4126 H4118 0.930 . S
C4126 C4122 1.390 . S
C4126 C4125 1.381 . S
N4127 C4120 1.286 . S
N4127 C4123 1.413 . S
H4128 C4133 0.930 . S
H4129 C4136 0.930 . S
H4130 C4138 0.930 . S
H4131 C4132 1.016 . S
C4132 H4131 1.016 . S
C4132 N4139 1.286 . S
C4133 H4128 0.930 . S
C4133 C4134 1.397 . S
C4133 C4135 1.361 . S
C4134 C4133 1.397 . S
C4134 C4138 1.390 . S
C4135 C4133 1.361 . S
C4135 C4136 1.393 . S
C4135 N4139 1.413 . S
C4136 H4129 0.930 . S
C4136 C4135 1.393 . S
C4136 C4137 1.399 . S
C4137 C4136 1.399 . S
C4137 C4138 1.381 . S
C4138 H4130 0.930 . S
C4138 C4134 1.390 . S
C4138 C4137 1.381 . S
N4139 C4132 1.286 . S
N4139 C4135 1.413 . S
H4140 C4145 0.930 . S
H4141 C4148 0.930 . S
H4142 C4150 0.930 . S
H4143 C4144 1.016 . S
C4144 H4143 1.016 . S
C4144 N4151 1.286 . S
C4145 H4140 0.930 . S
C4145 C4146 1.397 . S
C4145 C4147 1.361 . S
C4146 C4145 1.397 . S
C4146 C4150 1.390 . S
C4147 C4145 1.361 . S
C4147 C4148 1.393 . S
C4147 N4151 1.413 . S
C4148 H4141 0.930 . S
C4148 C4147 1.393 . S
C4148 C4149 1.399 . S
C4149 C4148 1.399 . S
C4149 C4150 1.381 . S
C4150 H4142 0.930 . S
C4150 C4146 1.390 . S
C4150 C4149 1.381 . S
N4151 C4144 1.286 . S
N4151 C4147 1.413 . S
H4152 C4157 0.930 . S
H4153 C4160 0.930 . S
H4154 C4162 0.930 . S
H4155 C4156 1.016 . S
C4156 H4155 1.016 . S
C4156 N4163 1.286 . S
C4157 H4152 0.930 . S
C4157 C4158 1.397 . S
C4157 C4159 1.361 . S
C4158 C4157 1.397 . S
C4158 C4162 1.390 . S
C4159 C4157 1.361 . S
C4159 C4160 1.393 . S
C4159 N4163 1.413 . S
C4160 H4153 0.930 . S
C4160 C4159 1.393 . S
C4160 C4161 1.399 . S
C4161 C4160 1.399 . S
C4161 C4162 1.381 . S
C4162 H4154 0.930 . S
C4162 C4158 1.390 . S
C4162 C4161 1.381 . S
N4163 C4156 1.286 . S
N4163 C4159 1.413 . S
H4164 C4169 0.930 . S
H4165 C4172 0.930 . S
H4166 C4174 0.930 . S
H4167 C4168 1.016 . S
C4168 H4167 1.016 . S
C4168 N4175 1.286 . S
C4169 H4164 0.930 . S
C4169 C4170 1.397 . S
C4169 C4171 1.361 . S
C4170 C4169 1.397 . S
C4170 C4174 1.390 . S
C4171 C4169 1.361 . S
C4171 C4172 1.393 . S
C4171 N4175 1.413 . S
C4172 H4165 0.930 . S
C4172 C4171 1.393 . S
C4172 C4173 1.399 . S
C4173 C4172 1.399 . S
C4173 C4174 1.381 . S
C4174 H4166 0.930 . S
C4174 C4170 1.390 . S
C4174 C4173 1.381 . S
N4175 C4168 1.286 . S
N4175 C4171 1.413 . S
H4176 C4181 0.930 . S
H4177 C4184 0.930 . S
H4178 C4186 0.930 . S
H4179 C4180 1.016 . S
C4180 H4179 1.016 . S
C4180 N4187 1.286 . S
C4181 H4176 0.930 . S
C4181 C4182 1.397 . S
C4181 C4183 1.361 . S
C4182 C4181 1.397 . S
C4182 C4186 1.390 . S
C4183 C4181 1.361 . S
C4183 C4184 1.393 . S
C4183 N4187 1.413 . S
C4184 H4177 0.930 . S
C4184 C4183 1.393 . S
C4184 C4185 1.399 . S
C4185 C4184 1.399 . S
C4185 C4186 1.381 . S
C4186 H4178 0.930 . S
C4186 C4182 1.390 . S
C4186 C4185 1.381 . S
N4187 C4180 1.286 . S
N4187 C4183 1.413 . S
H4188 C4193 0.930 . S
H4189 C4196 0.930 . S
H4190 C4198 0.930 . S
H4191 C4192 1.016 . S
C4192 H4191 1.016 . S
C4192 N4199 1.286 . S
C4193 H4188 0.930 . S
C4193 C4194 1.397 . S
C4193 C4195 1.361 . S
C4194 C4193 1.397 . S
C4194 C4198 1.390 . S
C4195 C4193 1.361 . S
C4195 C4196 1.393 . S
C4195 N4199 1.413 . S
C4196 H4189 0.930 . S
C4196 C4195 1.393 . S
C4196 C4197 1.399 . S
C4197 C4196 1.399 . S
C4197 C4198 1.381 . S
C4198 H4190 0.930 . S
C4198 C4194 1.390 . S
C4198 C4197 1.381 . S
N4199 C4192 1.286 . S
N4199 C4195 1.413 . S
H4200 C4205 0.930 . S
H4201 C4208 0.930 . S
H4202 C4210 0.930 . S
H4203 C4204 1.016 . S
C4204 H4203 1.016 . S
C4204 N4211 1.286 . S
C4205 H4200 0.930 . S
C4205 C4206 1.397 . S
C4205 C4207 1.361 . S
C4206 C4205 1.397 . S
C4206 C4210 1.390 . S
C4207 C4205 1.361 . S
C4207 C4208 1.393 . S
C4207 N4211 1.413 . S
C4208 H4201 0.930 . S
C4208 C4207 1.393 . S
C4208 C4209 1.399 . S
C4209 C4208 1.399 . S
C4209 C4210 1.381 . S
C4210 H4202 0.930 . S
C4210 C4206 1.390 . S
C4210 C4209 1.381 . S
N4211 C4204 1.286 . S
N4211 C4207 1.413 . S
H4212 C4217 0.930 . S
H4213 C4220 0.930 . S
H4214 C4222 0.930 . S
H4215 C4216 1.016 . S
C4216 H4215 1.016 . S
C4216 N4223 1.286 . S
C4217 H4212 0.930 . S
C4217 C4218 1.397 . S
C4217 C4219 1.361 . S
C4218 C4217 1.397 . S
C4218 C4222 1.390 . S
C4219 C4217 1.361 . S
C4219 C4220 1.393 . S
C4219 N4223 1.413 . S
C4220 H4213 0.930 . S
C4220 C4219 1.393 . S
C4220 C4221 1.399 . S
C4221 C4220 1.399 . S
C4221 C4222 1.381 . S
C4222 H4214 0.930 . S
C4222 C4218 1.390 . S
C4222 C4221 1.381 . S
N4223 C4216 1.286 . S
N4223 C4219 1.413 . S
H4224 C4229 0.930 . S
H4225 C4232 0.930 . S
H4226 C4234 0.930 . S
H4227 C4228 1.016 . S
C4228 H4227 1.016 . S
C4228 N4235 1.286 . S
C4229 H4224 0.930 . S
C4229 C4230 1.397 . S
C4229 C4231 1.361 . S
C4230 C4229 1.397 . S
C4230 C4234 1.390 . S
C4231 C4229 1.361 . S
C4231 C4232 1.393 . S
C4231 N4235 1.413 . S
C4232 H4225 0.930 . S
C4232 C4231 1.393 . S
C4232 C4233 1.399 . S
C4233 C4232 1.399 . S
C4233 C4234 1.381 . S
C4234 H4226 0.930 . S
C4234 C4230 1.390 . S
C4234 C4233 1.381 . S
N4235 C4228 1.286 . S
N4235 C4231 1.413 . S
H4236 C4241 0.930 . S
H4237 C4244 0.930 . S
H4238 C4246 0.930 . S
H4239 C4240 1.016 . S
C4240 H4239 1.016 . S
C4240 N4247 1.286 . S
C4241 H4236 0.930 . S
C4241 C4242 1.397 . S
C4241 C4243 1.361 . S
C4242 C4241 1.397 . S
C4242 C4246 1.390 . S
C4243 C4241 1.361 . S
C4243 C4244 1.393 . S
C4243 N4247 1.413 . S
C4244 H4237 0.930 . S
C4244 C4243 1.393 . S
C4244 C4245 1.399 . S
C4245 C4244 1.399 . S
C4245 C4246 1.381 . S
C4246 H4238 0.930 . S
C4246 C4242 1.390 . S
C4246 C4245 1.381 . S
N4247 C4240 1.286 . S
N4247 C4243 1.413 . S
H4248 C4253 0.930 . S
H4249 C4256 0.930 . S
H4250 C4258 0.930 . S
H4251 C4252 1.016 . S
C4252 H4251 1.016 . S
C4252 N4259 1.286 . S
C4253 H4248 0.930 . S
C4253 C4254 1.397 . S
C4253 C4255 1.361 . S
C4254 C4253 1.397 . S
C4254 C4258 1.390 . S
C4255 C4253 1.361 . S
C4255 C4256 1.393 . S
C4255 N4259 1.413 . S
C4256 H4249 0.930 . S
C4256 C4255 1.393 . S
C4256 C4257 1.399 . S
C4257 C4256 1.399 . S
C4257 C4258 1.381 . S
C4258 H4250 0.930 . S
C4258 C4254 1.390 . S
C4258 C4257 1.381 . S
N4259 C4252 1.286 . S
N4259 C4255 1.413 . S
H4260 C4265 0.930 . S
H4261 C4268 0.930 . S
H4262 C4270 0.930 . S
H4263 C4264 1.016 . S
C4264 H4263 1.016 . S
C4264 N4271 1.286 . S
C4265 H4260 0.930 . S
C4265 C4266 1.397 . S
C4265 C4267 1.361 . S
C4266 C4265 1.397 . S
C4266 C4270 1.390 . S
C4267 C4265 1.361 . S
C4267 C4268 1.393 . S
C4267 N4271 1.413 . S
C4268 H4261 0.930 . S
C4268 C4267 1.393 . S
C4268 C4269 1.399 . S
C4269 C4268 1.399 . S
C4269 C4270 1.381 . S
C4270 H4262 0.930 . S
C4270 C4266 1.390 . S
C4270 C4269 1.381 . S
N4271 C4264 1.286 . S
N4271 C4267 1.413 . S
H4272 C4277 0.930 . S
H4273 C4280 0.930 . S
H4274 C4282 0.930 . S
H4275 C4276 1.016 . S
C4276 H4275 1.016 . S
C4276 N4283 1.286 . S
C4277 H4272 0.930 . S
C4277 C4278 1.397 . S
C4277 C4279 1.361 . S
C4278 C4277 1.397 . S
C4278 C4282 1.390 . S
C4279 C4277 1.361 . S
C4279 C4280 1.393 . S
C4279 N4283 1.413 . S
C4280 H4273 0.930 . S
C4280 C4279 1.393 . S
C4280 C4281 1.399 . S
C4281 C4280 1.399 . S
C4281 C4282 1.381 . S
C4282 H4274 0.930 . S
C4282 C4278 1.390 . S
C4282 C4281 1.381 . S
N4283 C4276 1.286 . S
N4283 C4279 1.413 . S
H4284 C4289 0.930 . S
H4285 C4292 0.930 . S
H4286 C4294 0.930 . S
H4287 C4288 1.016 . S
C4288 H4287 1.016 . S
C4288 N4295 1.286 . S
C4289 H4284 0.930 . S
C4289 C4290 1.397 . S
C4289 C4291 1.361 . S
C4290 C4289 1.397 . S
C4290 C4294 1.390 . S
C4291 C4289 1.361 . S
C4291 C4292 1.393 . S
C4291 N4295 1.413 . S
C4292 H4285 0.930 . S
C4292 C4291 1.393 . S
C4292 C4293 1.399 . S
C4293 C4292 1.399 . S
C4293 C4294 1.381 . S
C4294 H4286 0.930 . S
C4294 C4290 1.390 . S
C4294 C4293 1.381 . S
N4295 C4288 1.286 . S
N4295 C4291 1.413 . S
H4296 C4301 0.930 . S
H4297 C4304 0.930 . S
H4298 C4306 0.930 . S
H4299 C4300 1.016 . S
C4300 H4299 1.016 . S
C4300 N4307 1.286 . S
C4301 H4296 0.930 . S
C4301 C4302 1.397 . S
C4301 C4303 1.361 . S
C4302 C4301 1.397 . S
C4302 C4306 1.390 . S
C4303 C4301 1.361 . S
C4303 C4304 1.393 . S
C4303 N4307 1.413 . S
C4304 H4297 0.930 . S
C4304 C4303 1.393 . S
C4304 C4305 1.399 . S
C4305 C4304 1.399 . S
C4305 C4306 1.381 . S
C4306 H4298 0.930 . S
C4306 C4302 1.390 . S
C4306 C4305 1.381 . S
N4307 C4300 1.286 . S
N4307 C4303 1.413 . S
H4308 C4313 0.930 . S
H4309 C4316 0.930 . S
H4310 C4318 0.930 . S
H4311 C4312 1.016 . S
C4312 H4311 1.016 . S
C4312 N4319 1.286 . S
C4313 H4308 0.930 . S
C4313 C4314 1.397 . S
C4313 C4315 1.361 . S
C4314 C4313 1.397 . S
C4314 C4318 1.390 . S
C4315 C4313 1.361 . S
C4315 C4316 1.393 . S
C4315 N4319 1.413 . S
C4316 H4309 0.930 . S
C4316 C4315 1.393 . S
C4316 C4317 1.399 . S
C4317 C4316 1.399 . S
C4317 C4318 1.381 . S
C4318 H4310 0.930 . S
C4318 C4314 1.390 . S
C4318 C4317 1.381 . S
N4319 C4312 1.286 . S
N4319 C4315 1.413 . S
H4320 C4325 0.930 . S
H4321 C4328 0.930 . S
H4322 C4330 0.930 . S
H4323 C4324 1.016 . S
C4324 H4323 1.016 . S
C4324 N4331 1.286 . S
C4325 H4320 0.930 . S
C4325 C4326 1.397 . S
C4325 C4327 1.361 . S
C4326 C4325 1.397 . S
C4326 C4330 1.390 . S
C4327 C4325 1.361 . S
C4327 C4328 1.393 . S
C4327 N4331 1.413 . S
C4328 H4321 0.930 . S
C4328 C4327 1.393 . S
C4328 C4329 1.399 . S
C4329 C4328 1.399 . S
C4329 C4330 1.381 . S
C4330 H4322 0.930 . S
C4330 C4326 1.390 . S
C4330 C4329 1.381 . S
N4331 C4324 1.286 . S
N4331 C4327 1.413 . S
H4332 C4337 0.930 . S
H4333 C4340 0.930 . S
H4334 C4342 0.930 . S
H4335 C4336 1.016 . S
C4336 H4335 1.016 . S
C4336 N4343 1.286 . S
C4337 H4332 0.930 . S
C4337 C4338 1.397 . S
C4337 C4339 1.361 . S
C4338 C4337 1.397 . S
C4338 C4342 1.390 . S
C4339 C4337 1.361 . S
C4339 C4340 1.393 . S
C4339 N4343 1.413 . S
C4340 H4333 0.930 . S
C4340 C4339 1.393 . S
C4340 C4341 1.399 . S
C4341 C4340 1.399 . S
C4341 C4342 1.381 . S
C4342 H4334 0.930 . S
C4342 C4338 1.390 . S
C4342 C4341 1.381 . S
N4343 C4336 1.286 . S
N4343 C4339 1.413 . S
H4344 C4349 0.930 . S
H4345 C4352 0.930 . S
H4346 C4354 0.930 . S
H4347 C4348 1.016 . S
C4348 H4347 1.016 . S
C4348 N4355 1.286 . S
C4349 H4344 0.930 . S
C4349 C4350 1.397 . S
C4349 C4351 1.361 . S
C4350 C4349 1.397 . S
C4350 C4354 1.390 . S
C4351 C4349 1.361 . S
C4351 C4352 1.393 . S
C4351 N4355 1.413 . S
C4352 H4345 0.930 . S
C4352 C4351 1.393 . S
C4352 C4353 1.399 . S
C4353 C4352 1.399 . S
C4353 C4354 1.381 . S
C4354 H4346 0.930 . S
C4354 C4350 1.390 . S
C4354 C4353 1.381 . S
N4355 C4348 1.286 . S
N4355 C4351 1.413 . S
H4356 C4361 0.930 . S
H4357 C4364 0.930 . S
H4358 C4366 0.930 . S
H4359 C4360 1.016 . S
C4360 H4359 1.016 . S
C4360 N4367 1.286 . S
C4361 H4356 0.930 . S
C4361 C4362 1.397 . S
C4361 C4363 1.361 . S
C4362 C4361 1.397 . S
C4362 C4366 1.390 . S
C4363 C4361 1.361 . S
C4363 C4364 1.393 . S
C4363 N4367 1.413 . S
C4364 H4357 0.930 . S
C4364 C4363 1.393 . S
C4364 C4365 1.399 . S
C4365 C4364 1.399 . S
C4365 C4366 1.381 . S
C4366 H4358 0.930 . S
C4366 C4362 1.390 . S
C4366 C4365 1.381 . S
N4367 C4360 1.286 . S
N4367 C4363 1.413 . S
H4368 C4373 0.930 . S
H4369 C4376 0.930 . S
H4370 C4378 0.930 . S
H4371 C4372 1.016 . S
C4372 H4371 1.016 . S
C4372 N4379 1.286 . S
C4373 H4368 0.930 . S
C4373 C4374 1.397 . S
C4373 C4375 1.361 . S
C4374 C4373 1.397 . S
C4374 C4378 1.390 . S
C4375 C4373 1.361 . S
C4375 C4376 1.393 . S
C4375 N4379 1.413 . S
C4376 H4369 0.930 . S
C4376 C4375 1.393 . S
C4376 C4377 1.399 . S
C4377 C4376 1.399 . S
C4377 C4378 1.381 . S
C4378 H4370 0.930 . S
C4378 C4374 1.390 . S
C4378 C4377 1.381 . S
N4379 C4372 1.286 . S
N4379 C4375 1.413 . S
H4380 C4385 0.930 . S
H4381 C4388 0.930 . S
H4382 C4390 0.930 . S
H4383 C4384 1.016 . S
C4384 H4383 1.016 . S
C4384 N4391 1.286 . S
C4385 H4380 0.930 . S
C4385 C4386 1.397 . S
C4385 C4387 1.361 . S
C4386 C4385 1.397 . S
C4386 C4390 1.390 . S
C4387 C4385 1.361 . S
C4387 C4388 1.393 . S
C4387 N4391 1.413 . S
C4388 H4381 0.930 . S
C4388 C4387 1.393 . S
C4388 C4389 1.399 . S
C4389 C4388 1.399 . S
C4389 C4390 1.381 . S
C4390 H4382 0.930 . S
C4390 C4386 1.390 . S
C4390 C4389 1.381 . S
N4391 C4384 1.286 . S
N4391 C4387 1.413 . S
H4392 C4397 0.930 . S
H4393 C4400 0.930 . S
H4394 C4402 0.930 . S
H4395 C4396 1.016 . S
C4396 H4395 1.016 . S
C4396 N4403 1.286 . S
C4397 H4392 0.930 . S
C4397 C4398 1.397 . S
C4397 C4399 1.361 . S
C4398 C4397 1.397 . S
C4398 C4402 1.390 . S
C4399 C4397 1.361 . S
C4399 C4400 1.393 . S
C4399 N4403 1.413 . S
C4400 H4393 0.930 . S
C4400 C4399 1.393 . S
C4400 C4401 1.399 . S
C4401 C4400 1.399 . S
C4401 C4402 1.381 . S
C4402 H4394 0.930 . S
C4402 C4398 1.390 . S
C4402 C4401 1.381 . S
N4403 C4396 1.286 . S
N4403 C4399 1.413 . S
H4404 C4409 0.930 . S
H4405 C4412 0.930 . S
H4406 C4414 0.930 . S
H4407 C4408 1.016 . S
C4408 H4407 1.016 . S
C4408 N4415 1.286 . S
C4409 H4404 0.930 . S
C4409 C4410 1.397 . S
C4409 C4411 1.361 . S
C4410 C4409 1.397 . S
C4410 C4414 1.390 . S
C4411 C4409 1.361 . S
C4411 C4412 1.393 . S
C4411 N4415 1.413 . S
C4412 H4405 0.930 . S
C4412 C4411 1.393 . S
C4412 C4413 1.399 . S
C4413 C4412 1.399 . S
C4413 C4414 1.381 . S
C4414 H4406 0.930 . S
C4414 C4410 1.390 . S
C4414 C4413 1.381 . S
N4415 C4408 1.286 . S
N4415 C4411 1.413 . S
H4416 C4421 0.930 . S
H4417 C4424 0.930 . S
H4418 C4426 0.930 . S
H4419 C4420 1.016 . S
C4420 H4419 1.016 . S
C4420 N4427 1.286 . S
C4421 H4416 0.930 . S
C4421 C4422 1.397 . S
C4421 C4423 1.361 . S
C4422 C4421 1.397 . S
C4422 C4426 1.390 . S
C4423 C4421 1.361 . S
C4423 C4424 1.393 . S
C4423 N4427 1.413 . S
C4424 H4417 0.930 . S
C4424 C4423 1.393 . S
C4424 C4425 1.399 . S
C4425 C4424 1.399 . S
C4425 C4426 1.381 . S
C4426 H4418 0.930 . S
C4426 C4422 1.390 . S
C4426 C4425 1.381 . S
N4427 C4420 1.286 . S
N4427 C4423 1.413 . S
H4428 C4433 0.930 . S
H4429 C4436 0.930 . S
H4430 C4438 0.930 . S
H4431 C4432 1.016 . S
C4432 H4431 1.016 . S
C4432 N4439 1.286 . S
C4433 H4428 0.930 . S
C4433 C4434 1.397 . S
C4433 C4435 1.361 . S
C4434 C4433 1.397 . S
C4434 C4438 1.390 . S
C4435 C4433 1.361 . S
C4435 C4436 1.393 . S
C4435 N4439 1.413 . S
C4436 H4429 0.930 . S
C4436 C4435 1.393 . S
C4436 C4437 1.399 . S
C4437 C4436 1.399 . S
C4437 C4438 1.381 . S
C4438 H4430 0.930 . S
C4438 C4434 1.390 . S
C4438 C4437 1.381 . S
N4439 C4432 1.286 . S
N4439 C4435 1.413 . S
H4440 C4445 0.930 . S
H4441 C4448 0.930 . S
H4442 C4450 0.930 . S
H4443 C4444 1.016 . S
C4444 H4443 1.016 . S
C4444 N4451 1.286 . S
C4445 H4440 0.930 . S
C4445 C4446 1.397 . S
C4445 C4447 1.361 . S
C4446 C4445 1.397 . S
C4446 C4450 1.390 . S
C4447 C4445 1.361 . S
C4447 C4448 1.393 . S
C4447 N4451 1.413 . S
C4448 H4441 0.930 . S
C4448 C4447 1.393 . S
C4448 C4449 1.399 . S
C4449 C4448 1.399 . S
C4449 C4450 1.381 . S
C4450 H4442 0.930 . S
C4450 C4446 1.390 . S
C4450 C4449 1.381 . S
N4451 C4444 1.286 . S
N4451 C4447 1.413 . S
H4452 C4457 0.930 . S
H4453 C4460 0.930 . S
H4454 C4462 0.930 . S
H4455 C4456 1.016 . S
C4456 H4455 1.016 . S
C4456 N4463 1.286 . S
C4457 H4452 0.930 . S
C4457 C4458 1.397 . S
C4457 C4459 1.361 . S
C4458 C4457 1.397 . S
C4458 C4462 1.390 . S
C4459 C4457 1.361 . S
C4459 C4460 1.393 . S
C4459 N4463 1.413 . S
C4460 H4453 0.930 . S
C4460 C4459 1.393 . S
C4460 C4461 1.399 . S
C4461 C4460 1.399 . S
C4461 C4462 1.381 . S
C4462 H4454 0.930 . S
C4462 C4458 1.390 . S
C4462 C4461 1.381 . S
N4463 C4456 1.286 . S
N4463 C4459 1.413 . S
H4464 C4469 0.930 . S
H4465 C4472 0.930 . S
H4466 C4474 0.930 . S
H4467 C4468 1.016 . S
C4468 H4467 1.016 . S
C4468 N4475 1.286 . S
C4469 H4464 0.930 . S
C4469 C4470 1.397 . S
C4469 C4471 1.361 . S
C4470 C4469 1.397 . S
C4470 C4474 1.390 . S
C4471 C4469 1.361 . S
C4471 C4472 1.393 . S
C4471 N4475 1.413 . S
C4472 H4465 0.930 . S
C4472 C4471 1.393 . S
C4472 C4473 1.399 . S
C4473 C4472 1.399 . S
C4473 C4474 1.381 . S
C4474 H4466 0.930 . S
C4474 C4470 1.390 . S
C4474 C4473 1.381 . S
N4475 C4468 1.286 . S
N4475 C4471 1.413 . S
H4476 C4481 0.930 . S
H4477 C4484 0.930 . S
H4478 C4486 0.930 . S
H4479 C4480 1.016 . S
C4480 H4479 1.016 . S
C4480 N4487 1.286 . S
C4481 H4476 0.930 . S
C4481 C4482 1.397 . S
C4481 C4483 1.361 . S
C4482 C4481 1.397 . S
C4482 C4486 1.390 . S
C4483 C4481 1.361 . S
C4483 C4484 1.393 . S
C4483 N4487 1.413 . S
C4484 H4477 0.930 . S
C4484 C4483 1.393 . S
C4484 C4485 1.399 . S
C4485 C4484 1.399 . S
C4485 C4486 1.381 . S
C4486 H4478 0.930 . S
C4486 C4482 1.390 . S
C4486 C4485 1.381 . S
N4487 C4480 1.286 . S
N4487 C4483 1.413 . S
H4488 C4493 0.930 . S
H4489 C4496 0.930 . S
H4490 C4498 0.930 . S
H4491 C4492 1.016 . S
C4492 H4491 1.016 . S
C4492 N4499 1.286 . S
C4493 H4488 0.930 . S
C4493 C4494 1.397 . S
C4493 C4495 1.361 . S
C4494 C4493 1.397 . S
C4494 C4498 1.390 . S
C4495 C4493 1.361 . S
C4495 C4496 1.393 . S
C4495 N4499 1.413 . S
C4496 H4489 0.930 . S
C4496 C4495 1.393 . S
C4496 C4497 1.399 . S
C4497 C4496 1.399 . S
C4497 C4498 1.381 . S
C4498 H4490 0.930 . S
C4498 C4494 1.390 . S
C4498 C4497 1.381 . S
N4499 C4492 1.286 . S
N4499 C4495 1.413 . S
H4500 C4505 0.930 . S
H4501 C4508 0.930 . S
H4502 C4510 0.930 . S
H4503 C4504 1.016 . S
C4504 H4503 1.016 . S
C4504 N4511 1.286 . S
C4505 H4500 0.930 . S
C4505 C4506 1.397 . S
C4505 C4507 1.361 . S
C4506 C4505 1.397 . S
C4506 C4510 1.390 . S
C4507 C4505 1.361 . S
C4507 C4508 1.393 . S
C4507 N4511 1.413 . S
C4508 H4501 0.930 . S
C4508 C4507 1.393 . S
C4508 C4509 1.399 . S
C4509 C4508 1.399 . S
C4509 C4510 1.381 . S
C4510 H4502 0.930 . S
C4510 C4506 1.390 . S
C4510 C4509 1.381 . S
N4511 C4504 1.286 . S
N4511 C4507 1.413 . S
H4512 C4517 0.930 . S
H4513 C4520 0.930 . S
H4514 C4522 0.930 . S
H4515 C4516 1.016 . S
C4516 H4515 1.016 . S
C4516 N4523 1.286 . S
C4517 H4512 0.930 . S
C4517 C4518 1.397 . S
C4517 C4519 1.361 . S
C4518 C4517 1.397 . S
C4518 C4522 1.390 . S
C4519 C4517 1.361 . S
C4519 C4520 1.393 . S
C4519 N4523 1.413 . S
C4520 H4513 0.930 . S
C4520 C4519 1.393 . S
C4520 C4521 1.399 . S
C4521 C4520 1.399 . S
C4521 C4522 1.381 . S
C4522 H4514 0.930 . S
C4522 C4518 1.390 . S
C4522 C4521 1.381 . S
N4523 C4516 1.286 . S
N4523 C4519 1.413 . S
H4524 C4529 0.930 . S
H4525 C4532 0.930 . S
H4526 C4534 0.930 . S
H4527 C4528 1.016 . S
C4528 H4527 1.016 . S
C4528 N4535 1.286 . S
C4529 H4524 0.930 . S
C4529 C4530 1.397 . S
C4529 C4531 1.361 . S
C4530 C4529 1.397 . S
C4530 C4534 1.390 . S
C4531 C4529 1.361 . S
C4531 C4532 1.393 . S
C4531 N4535 1.413 . S
C4532 H4525 0.930 . S
C4532 C4531 1.393 . S
C4532 C4533 1.399 . S
C4533 C4532 1.399 . S
C4533 C4534 1.381 . S
C4534 H4526 0.930 . S
C4534 C4530 1.390 . S
C4534 C4533 1.381 . S
N4535 C4528 1.286 . S
N4535 C4531 1.413 . S
H4536 C4541 0.930 . S
H4537 C4544 0.930 . S
H4538 C4546 0.930 . S
H4539 C4540 1.016 . S
C4540 H4539 1.016 . S
C4540 N4547 1.286 . S
C4541 H4536 0.930 . S
C4541 C4542 1.397 . S
C4541 C4543 1.361 . S
C4542 C4541 1.397 . S
C4542 C4546 1.390 . S
C4543 C4541 1.361 . S
C4543 C4544 1.393 . S
C4543 N4547 1.413 . S
C4544 H4537 0.930 . S
C4544 C4543 1.393 . S
C4544 C4545 1.399 . S
C4545 C4544 1.399 . S
C4545 C4546 1.381 . S
C4546 H4538 0.930 . S
C4546 C4542 1.390 . S
C4546 C4545 1.381 . S
N4547 C4540 1.286 . S
N4547 C4543 1.413 . S
H4548 C4553 0.930 . S
H4549 C4556 0.930 . S
H4550 C4558 0.930 . S
H4551 C4552 1.016 . S
C4552 H4551 1.016 . S
C4552 N4559 1.286 . S
C4553 H4548 0.930 . S
C4553 C4554 1.397 . S
C4553 C4555 1.361 . S
C4554 C4553 1.397 . S
C4554 C4558 1.390 . S
C4555 C4553 1.361 . S
C4555 C4556 1.393 . S
C4555 N4559 1.413 . S
C4556 H4549 0.930 . S
C4556 C4555 1.393 . S
C4556 C4557 1.399 . S
C4557 C4556 1.399 . S
C4557 C4558 1.381 . S
C4558 H4550 0.930 . S
C4558 C4554 1.390 . S
C4558 C4557 1.381 . S
N4559 C4552 1.286 . S
N4559 C4555 1.413 . S
H4560 C4565 0.930 . S
H4561 C4568 0.930 . S
H4562 C4570 0.930 . S
H4563 C4564 1.016 . S
C4564 H4563 1.016 . S
C4564 N4571 1.286 . S
C4565 H4560 0.930 . S
C4565 C4566 1.397 . S
C4565 C4567 1.361 . S
C4566 C4565 1.397 . S
C4566 C4570 1.390 . S
C4567 C4565 1.361 . S
C4567 C4568 1.393 . S
C4567 N4571 1.413 . S
C4568 H4561 0.930 . S
C4568 C4567 1.393 . S
C4568 C4569 1.399 . S
C4569 C4568 1.399 . S
C4569 C4570 1.381 . S
C4570 H4562 0.930 . S
C4570 C4566 1.390 . S
C4570 C4569 1.381 . S
N4571 C4564 1.286 . S
N4571 C4567 1.413 . S
H4572 C4577 0.930 . S
H4573 C4580 0.930 . S
H4574 C4582 0.930 . S
H4575 C4576 1.016 . S
C4576 H4575 1.016 . S
C4576 N4583 1.286 . S
C4577 H4572 0.930 . S
C4577 C4578 1.397 . S
C4577 C4579 1.361 . S
C4578 C4577 1.397 . S
C4578 C4582 1.390 . S
C4579 C4577 1.361 . S
C4579 C4580 1.393 . S
C4579 N4583 1.413 . S
C4580 H4573 0.930 . S
C4580 C4579 1.393 . S
C4580 C4581 1.399 . S
C4581 C4580 1.399 . S
C4581 C4582 1.381 . S
C4582 H4574 0.930 . S
C4582 C4578 1.390 . S
C4582 C4581 1.381 . S
N4583 C4576 1.286 . S
N4583 C4579 1.413 . S
H4584 C4589 0.930 . S
H4585 C4592 0.930 . S
H4586 C4594 0.930 . S
H4587 C4588 1.016 . S
C4588 H4587 1.016 . S
C4588 N4595 1.286 . S
C4589 H4584 0.930 . S
C4589 C4590 1.397 . S
C4589 C4591 1.361 . S
C4590 C4589 1.397 . S
C4590 C4594 1.390 . S
C4591 C4589 1.361 . S
C4591 C4592 1.393 . S
C4591 N4595 1.413 . S
C4592 H4585 0.930 . S
C4592 C4591 1.393 . S
C4592 C4593 1.399 . S
C4593 C4592 1.399 . S
C4593 C4594 1.381 . S
C4594 H4586 0.930 . S
C4594 C4590 1.390 . S
C4594 C4593 1.381 . S
N4595 C4588 1.286 . S
N4595 C4591 1.413 . S
H4596 C4601 0.930 . S
H4597 C4604 0.930 . S
H4598 C4606 0.930 . S
H4599 C4600 1.016 . S
C4600 H4599 1.016 . S
C4600 N4607 1.286 . S
C4601 H4596 0.930 . S
C4601 C4602 1.397 . S
C4601 C4603 1.361 . S
C4602 C4601 1.397 . S
C4602 C4606 1.390 . S
C4603 C4601 1.361 . S
C4603 C4604 1.393 . S
C4603 N4607 1.413 . S
C4604 H4597 0.930 . S
C4604 C4603 1.393 . S
C4604 C4605 1.399 . S
C4605 C4604 1.399 . S
C4605 C4606 1.381 . S
C4606 H4598 0.930 . S
C4606 C4602 1.390 . S
C4606 C4605 1.381 . S
N4607 C4600 1.286 . S
N4607 C4603 1.413 . S
H4608 C4613 0.930 . S
H4609 C4616 0.930 . S
H4610 C4618 0.930 . S
H4611 C4612 1.016 . S
C4612 H4611 1.016 . S
C4612 N4619 1.286 . S
C4613 H4608 0.930 . S
C4613 C4614 1.397 . S
C4613 C4615 1.361 . S
C4614 C4613 1.397 . S
C4614 C4618 1.390 . S
C4615 C4613 1.361 . S
C4615 C4616 1.393 . S
C4615 N4619 1.413 . S
C4616 H4609 0.930 . S
C4616 C4615 1.393 . S
C4616 C4617 1.399 . S
C4617 C4616 1.399 . S
C4617 C4618 1.381 . S
C4618 H4610 0.930 . S
C4618 C4614 1.390 . S
C4618 C4617 1.381 . S
N4619 C4612 1.286 . S
N4619 C4615 1.413 . S
H4620 C4625 0.930 . S
H4621 C4628 0.930 . S
H4622 C4630 0.930 . S
H4623 C4624 1.016 . S
C4624 H4623 1.016 . S
C4624 N4631 1.286 . S
C4625 H4620 0.930 . S
C4625 C4626 1.397 . S
C4625 C4627 1.361 . S
C4626 C4625 1.397 . S
C4626 C4630 1.390 . S
C4627 C4625 1.361 . S
C4627 C4628 1.393 . S
C4627 N4631 1.413 . S
C4628 H4621 0.930 . S
C4628 C4627 1.393 . S
C4628 C4629 1.399 . S
C4629 C4628 1.399 . S
C4629 C4630 1.381 . S
C4630 H4622 0.930 . S
C4630 C4626 1.390 . S
C4630 C4629 1.381 . S
N4631 C4624 1.286 . S
N4631 C4627 1.413 . S
H4632 C4637 0.930 . S
H4633 C4640 0.930 . S
H4634 C4642 0.930 . S
H4635 C4636 1.016 . S
C4636 H4635 1.016 . S
C4636 N4643 1.286 . S
C4637 H4632 0.930 . S
C4637 C4638 1.397 . S
C4637 C4639 1.361 . S
C4638 C4637 1.397 . S
C4638 C4642 1.390 . S
C4639 C4637 1.361 . S
C4639 C4640 1.393 . S
C4639 N4643 1.413 . S
C4640 H4633 0.930 . S
C4640 C4639 1.393 . S
C4640 C4641 1.399 . S
C4641 C4640 1.399 . S
C4641 C4642 1.381 . S
C4642 H4634 0.930 . S
C4642 C4638 1.390 . S
C4642 C4641 1.381 . S
N4643 C4636 1.286 . S
N4643 C4639 1.413 . S
H4644 C4649 0.930 . S
H4645 C4652 0.930 . S
H4646 C4654 0.930 . S
H4647 C4648 1.016 . S
C4648 H4647 1.016 . S
C4648 N4655 1.286 . S
C4649 H4644 0.930 . S
C4649 C4650 1.397 . S
C4649 C4651 1.361 . S
C4650 C4649 1.397 . S
C4650 C4654 1.390 . S
C4651 C4649 1.361 . S
C4651 C4652 1.393 . S
C4651 N4655 1.413 . S
C4652 H4645 0.930 . S
C4652 C4651 1.393 . S
C4652 C4653 1.399 . S
C4653 C4652 1.399 . S
C4653 C4654 1.381 . S
C4654 H4646 0.930 . S
C4654 C4650 1.390 . S
C4654 C4653 1.381 . S
N4655 C4648 1.286 . S
N4655 C4651 1.413 . S
H4656 C4661 0.930 . S
H4657 C4664 0.930 . S
H4658 C4666 0.930 . S
H4659 C4660 1.016 . S
C4660 H4659 1.016 . S
C4660 N4667 1.286 . S
C4661 H4656 0.930 . S
C4661 C4662 1.397 . S
C4661 C4663 1.361 . S
C4662 C4661 1.397 . S
C4662 C4666 1.390 . S
C4663 C4661 1.361 . S
C4663 C4664 1.393 . S
C4663 N4667 1.413 . S
C4664 H4657 0.930 . S
C4664 C4663 1.393 . S
C4664 C4665 1.399 . S
C4665 C4664 1.399 . S
C4665 C4666 1.381 . S
C4666 H4658 0.930 . S
C4666 C4662 1.390 . S
C4666 C4665 1.381 . S
N4667 C4660 1.286 . S
N4667 C4663 1.413 . S
H4668 C4673 0.930 . S
H4669 C4676 0.930 . S
H4670 C4678 0.930 . S
H4671 C4672 1.016 . S
C4672 H4671 1.016 . S
C4672 N4679 1.286 . S
C4673 H4668 0.930 . S
C4673 C4674 1.397 . S
C4673 C4675 1.361 . S
C4674 C4673 1.397 . S
C4674 C4678 1.390 . S
C4675 C4673 1.361 . S
C4675 C4676 1.393 . S
C4675 N4679 1.413 . S
C4676 H4669 0.930 . S
C4676 C4675 1.393 . S
C4676 C4677 1.399 . S
C4677 C4676 1.399 . S
C4677 C4678 1.381 . S
C4678 H4670 0.930 . S
C4678 C4674 1.390 . S
C4678 C4677 1.381 . S
N4679 C4672 1.286 . S
N4679 C4675 1.413 . S
H4680 C4685 0.930 . S
H4681 C4688 0.930 . S
H4682 C4690 0.930 . S
H4683 C4684 1.016 . S
C4684 H4683 1.016 . S
C4684 N4691 1.286 . S
C4685 H4680 0.930 . S
C4685 C4686 1.397 . S
C4685 C4687 1.361 . S
C4686 C4685 1.397 . S
C4686 C4690 1.390 . S
C4687 C4685 1.361 . S
C4687 C4688 1.393 . S
C4687 N4691 1.413 . S
C4688 H4681 0.930 . S
C4688 C4687 1.393 . S
C4688 C4689 1.399 . S
C4689 C4688 1.399 . S
C4689 C4690 1.381 . S
C4690 H4682 0.930 . S
C4690 C4686 1.390 . S
C4690 C4689 1.381 . S
N4691 C4684 1.286 . S
N4691 C4687 1.413 . S
H4692 C4697 0.930 . S
H4693 C4700 0.930 . S
H4694 C4702 0.930 . S
H4695 C4696 1.016 . S
C4696 H4695 1.016 . S
C4696 N4703 1.286 . S
C4697 H4692 0.930 . S
C4697 C4698 1.397 . S
C4697 C4699 1.361 . S
C4698 C4697 1.397 . S
C4698 C4702 1.390 . S
C4699 C4697 1.361 . S
C4699 C4700 1.393 . S
C4699 N4703 1.413 . S
C4700 H4693 0.930 . S
C4700 C4699 1.393 . S
C4700 C4701 1.399 . S
C4701 C4700 1.399 . S
C4701 C4702 1.381 . S
C4702 H4694 0.930 . S
C4702 C4698 1.390 . S
C4702 C4701 1.381 . S
N4703 C4696 1.286 . S
N4703 C4699 1.413 . S
H4704 C4709 0.930 . S
H4705 C4712 0.930 . S
H4706 C4714 0.930 . S
H4707 C4708 1.016 . S
C4708 H4707 1.016 . S
C4708 N4715 1.286 . S
C4709 H4704 0.930 . S
C4709 C4710 1.397 . S
C4709 C4711 1.361 . S
C4710 C4709 1.397 . S
C4710 C4714 1.390 . S
C4711 C4709 1.361 . S
C4711 C4712 1.393 . S
C4711 N4715 1.413 . S
C4712 H4705 0.930 . S
C4712 C4711 1.393 . S
C4712 C4713 1.399 . S
C4713 C4712 1.399 . S
C4713 C4714 1.381 . S
C4714 H4706 0.930 . S
C4714 C4710 1.390 . S
C4714 C4713 1.381 . S
N4715 C4708 1.286 . S
N4715 C4711 1.413 . S
H4716 C4721 0.930 . S
H4717 C4724 0.930 . S
H4718 C4726 0.930 . S
H4719 C4720 1.016 . S
C4720 H4719 1.016 . S
C4720 N4727 1.286 . S
C4721 H4716 0.930 . S
C4721 C4722 1.397 . S
C4721 C4723 1.361 . S
C4722 C4721 1.397 . S
C4722 C4726 1.390 . S
C4723 C4721 1.361 . S
C4723 C4724 1.393 . S
C4723 N4727 1.413 . S
C4724 H4717 0.930 . S
C4724 C4723 1.393 . S
C4724 C4725 1.399 . S
C4725 C4724 1.399 . S
C4725 C4726 1.381 . S
C4726 H4718 0.930 . S
C4726 C4722 1.390 . S
C4726 C4725 1.381 . S
N4727 C4720 1.286 . S
N4727 C4723 1.413 . S
H4728 C4733 0.930 . S
H4729 C4736 0.930 . S
H4730 C4738 0.930 . S
H4731 C4732 1.016 . S
C4732 H4731 1.016 . S
C4732 N4739 1.286 . S
C4733 H4728 0.930 . S
C4733 C4734 1.397 . S
C4733 C4735 1.361 . S
C4734 C4733 1.397 . S
C4734 C4738 1.390 . S
C4735 C4733 1.361 . S
C4735 C4736 1.393 . S
C4735 N4739 1.413 . S
C4736 H4729 0.930 . S
C4736 C4735 1.393 . S
C4736 C4737 1.399 . S
C4737 C4736 1.399 . S
C4737 C4738 1.381 . S
C4738 H4730 0.930 . S
C4738 C4734 1.390 . S
C4738 C4737 1.381 . S
N4739 C4732 1.286 . S
N4739 C4735 1.413 . S
H4740 C4745 0.930 . S
H4741 C4748 0.930 . S
H4742 C4750 0.930 . S
H4743 C4744 1.016 . S
C4744 H4743 1.016 . S
C4744 N4751 1.286 . S
C4745 H4740 0.930 . S
C4745 C4746 1.397 . S
C4745 C4747 1.361 . S
C4746 C4745 1.397 . S
C4746 C4750 1.390 . S
C4747 C4745 1.361 . S
C4747 C4748 1.393 . S
C4747 N4751 1.413 . S
C4748 H4741 0.930 . S
C4748 C4747 1.393 . S
C4748 C4749 1.399 . S
C4749 C4748 1.399 . S
C4749 C4750 1.381 . S
C4750 H4742 0.930 . S
C4750 C4746 1.390 . S
C4750 C4749 1.381 . S
N4751 C4744 1.286 . S
N4751 C4747 1.413 . S
H4752 C4757 0.930 . S
H4753 C4760 0.930 . S
H4754 C4762 0.930 . S
H4755 C4756 1.016 . S
C4756 H4755 1.016 . S
C4756 N4763 1.286 . S
C4757 H4752 0.930 . S
C4757 C4758 1.397 . S
C4757 C4759 1.361 . S
C4758 C4757 1.397 . S
C4758 C4762 1.390 . S
C4759 C4757 1.361 . S
C4759 C4760 1.393 . S
C4759 N4763 1.413 . S
C4760 H4753 0.930 . S
C4760 C4759 1.393 . S
C4760 C4761 1.399 . S
C4761 C4760 1.399 . S
C4761 C4762 1.381 . S
C4762 H4754 0.930 . S
C4762 C4758 1.390 . S
C4762 C4761 1.381 . S
N4763 C4756 1.286 . S
N4763 C4759 1.413 . S
H4764 C4769 0.930 . S
H4765 C4772 0.930 . S
H4766 C4774 0.930 . S
H4767 C4768 1.016 . S
C4768 H4767 1.016 . S
C4768 N4775 1.286 . S
C4769 H4764 0.930 . S
C4769 C4770 1.397 . S
C4769 C4771 1.361 . S
C4770 C4769 1.397 . S
C4770 C4774 1.390 . S
C4771 C4769 1.361 . S
C4771 C4772 1.393 . S
C4771 N4775 1.413 . S
C4772 H4765 0.930 . S
C4772 C4771 1.393 . S
C4772 C4773 1.399 . S
C4773 C4772 1.399 . S
C4773 C4774 1.381 . S
C4774 H4766 0.930 . S
C4774 C4770 1.390 . S
C4774 C4773 1.381 . S
N4775 C4768 1.286 . S
N4775 C4771 1.413 . S
H4776 C4781 0.930 . S
H4777 C4784 0.930 . S
H4778 C4786 0.930 . S
H4779 C4780 1.016 . S
C4780 H4779 1.016 . S
C4780 N4787 1.286 . S
C4781 H4776 0.930 . S
C4781 C4782 1.397 . S
C4781 C4783 1.361 . S
C4782 C4781 1.397 . S
C4782 C4786 1.390 . S
C4783 C4781 1.361 . S
C4783 C4784 1.393 . S
C4783 N4787 1.413 . S
C4784 H4777 0.930 . S
C4784 C4783 1.393 . S
C4784 C4785 1.399 . S
C4785 C4784 1.399 . S
C4785 C4786 1.381 . S
C4786 H4778 0.930 . S
C4786 C4782 1.390 . S
C4786 C4785 1.381 . S
N4787 C4780 1.286 . S
N4787 C4783 1.413 . S
H4788 C4793 0.930 . S
H4789 C4796 0.930 . S
H4790 C4798 0.930 . S
H4791 C4792 1.016 . S
C4792 H4791 1.016 . S
C4792 N4799 1.286 . S
C4793 H4788 0.930 . S
C4793 C4794 1.397 . S
C4793 C4795 1.361 . S
C4794 C4793 1.397 . S
C4794 C4798 1.390 . S
C4795 C4793 1.361 . S
C4795 C4796 1.393 . S
C4795 N4799 1.413 . S
C4796 H4789 0.930 . S
C4796 C4795 1.393 . S
C4796 C4797 1.399 . S
C4797 C4796 1.399 . S
C4797 C4798 1.381 . S
C4798 H4790 0.930 . S
C4798 C4794 1.390 . S
C4798 C4797 1.381 . S
N4799 C4792 1.286 . S
N4799 C4795 1.413 . S
H4800 C4805 0.930 . S
H4801 C4808 0.930 . S
H4802 C4810 0.930 . S
H4803 C4804 1.016 . S
C4804 H4803 1.016 . S
C4804 N4811 1.286 . S
C4805 H4800 0.930 . S
C4805 C4806 1.397 . S
C4805 C4807 1.361 . S
C4806 C4805 1.397 . S
C4806 C4810 1.390 . S
C4807 C4805 1.361 . S
C4807 C4808 1.393 . S
C4807 N4811 1.413 . S
C4808 H4801 0.930 . S
C4808 C4807 1.393 . S
C4808 C4809 1.399 . S
C4809 C4808 1.399 . S
C4809 C4810 1.381 . S
C4810 H4802 0.930 . S
C4810 C4806 1.390 . S
C4810 C4809 1.381 . S
N4811 C4804 1.286 . S
N4811 C4807 1.413 . S
H4812 C4817 0.930 . S
H4813 C4820 0.930 . S
H4814 C4822 0.930 . S
H4815 C4816 1.016 . S
C4816 H4815 1.016 . S
C4816 N4823 1.286 . S
C4817 H4812 0.930 . S
C4817 C4818 1.397 . S
C4817 C4819 1.361 . S
C4818 C4817 1.397 . S
C4818 C4822 1.390 . S
C4819 C4817 1.361 . S
C4819 C4820 1.393 . S
C4819 N4823 1.413 . S
C4820 H4813 0.930 . S
C4820 C4819 1.393 . S
C4820 C4821 1.399 . S
C4821 C4820 1.399 . S
C4821 C4822 1.381 . S
C4822 H4814 0.930 . S
C4822 C4818 1.390 . S
C4822 C4821 1.381 . S
N4823 C4816 1.286 . S
N4823 C4819 1.413 . S
H4824 C4829 0.930 . S
H4825 C4832 0.930 . S
H4826 C4834 0.930 . S
H4827 C4828 1.016 . S
C4828 H4827 1.016 . S
C4828 N4835 1.286 . S
C4829 H4824 0.930 . S
C4829 C4830 1.397 . S
C4829 C4831 1.361 . S
C4830 C4829 1.397 . S
C4830 C4834 1.390 . S
C4831 C4829 1.361 . S
C4831 C4832 1.393 . S
C4831 N4835 1.413 . S
C4832 H4825 0.930 . S
C4832 C4831 1.393 . S
C4832 C4833 1.399 . S
C4833 C4832 1.399 . S
C4833 C4834 1.381 . S
C4834 H4826 0.930 . S
C4834 C4830 1.390 . S
C4834 C4833 1.381 . S
N4835 C4828 1.286 . S
N4835 C4831 1.413 . S
H4836 C4841 0.930 . S
H4837 C4844 0.930 . S
H4838 C4846 0.930 . S
H4839 C4840 1.016 . S
C4840 H4839 1.016 . S
C4840 N4847 1.286 . S
C4841 H4836 0.930 . S
C4841 C4842 1.397 . S
C4841 C4843 1.361 . S
C4842 C4841 1.397 . S
C4842 C4846 1.390 . S
C4843 C4841 1.361 . S
C4843 C4844 1.393 . S
C4843 N4847 1.413 . S
C4844 H4837 0.930 . S
C4844 C4843 1.393 . S
C4844 C4845 1.399 . S
C4845 C4844 1.399 . S
C4845 C4846 1.381 . S
C4846 H4838 0.930 . S
C4846 C4842 1.390 . S
C4846 C4845 1.381 . S
N4847 C4840 1.286 . S
N4847 C4843 1.413 . S
H4848 C4853 0.930 . S
H4849 C4856 0.930 . S
H4850 C4858 0.930 . S
H4851 C4852 1.016 . S
C4852 H4851 1.016 . S
C4852 N4859 1.286 . S
C4853 H4848 0.930 . S
C4853 C4854 1.397 . S
C4853 C4855 1.361 . S
C4854 C4853 1.397 . S
C4854 C4858 1.390 . S
C4855 C4853 1.361 . S
C4855 C4856 1.393 . S
C4855 N4859 1.413 . S
C4856 H4849 0.930 . S
C4856 C4855 1.393 . S
C4856 C4857 1.399 . S
C4857 C4856 1.399 . S
C4857 C4858 1.381 . S
C4858 H4850 0.930 . S
C4858 C4854 1.390 . S
C4858 C4857 1.381 . S
N4859 C4852 1.286 . S
N4859 C4855 1.413 . S
H4860 C4865 0.930 . S
H4861 C4868 0.930 . S
H4862 C4870 0.930 . S
H4863 C4864 1.016 . S
C4864 H4863 1.016 . S
C4864 N4871 1.286 . S
C4865 H4860 0.930 . S
C4865 C4866 1.397 . S
C4865 C4867 1.361 . S
C4866 C4865 1.397 . S
C4866 C4870 1.390 . S
C4867 C4865 1.361 . S
C4867 C4868 1.393 . S
C4867 N4871 1.413 . S
C4868 H4861 0.930 . S
C4868 C4867 1.393 . S
C4868 C4869 1.399 . S
C4869 C4868 1.399 . S
C4869 C4870 1.381 . S
C4870 H4862 0.930 . S
C4870 C4866 1.390 . S
C4870 C4869 1.381 . S
N4871 C4864 1.286 . S
N4871 C4867 1.413 . S
H4872 C4877 0.930 . S
H4873 C4880 0.930 . S
H4874 C4882 0.930 . S
H4875 C4876 1.016 . S
C4876 H4875 1.016 . S
C4876 N4883 1.286 . S
C4877 H4872 0.930 . S
C4877 C4878 1.397 . S
C4877 C4879 1.361 . S
C4878 C4877 1.397 . S
C4878 C4882 1.390 . S
C4879 C4877 1.361 . S
C4879 C4880 1.393 . S
C4879 N4883 1.413 . S
C4880 H4873 0.930 . S
C4880 C4879 1.393 . S
C4880 C4881 1.399 . S
C4881 C4880 1.399 . S
C4881 C4882 1.381 . S
C4882 H4874 0.930 . S
C4882 C4878 1.390 . S
C4882 C4881 1.381 . S
N4883 C4876 1.286 . S
N4883 C4879 1.413 . S
H4884 C4889 0.930 . S
H4885 C4892 0.930 . S
H4886 C4894 0.930 . S
H4887 C4888 1.016 . S
C4888 H4887 1.016 . S
C4888 N4895 1.286 . S
C4889 H4884 0.930 . S
C4889 C4890 1.397 . S
C4889 C4891 1.361 . S
C4890 C4889 1.397 . S
C4890 C4894 1.390 . S
C4891 C4889 1.361 . S
C4891 C4892 1.393 . S
C4891 N4895 1.413 . S
C4892 H4885 0.930 . S
C4892 C4891 1.393 . S
C4892 C4893 1.399 . S
C4893 C4892 1.399 . S
C4893 C4894 1.381 . S
C4894 H4886 0.930 . S
C4894 C4890 1.390 . S
C4894 C4893 1.381 . S
N4895 C4888 1.286 . S
N4895 C4891 1.413 . S
H4896 C4901 0.930 . S
H4897 C4904 0.930 . S
H4898 C4906 0.930 . S
H4899 C4900 1.016 . S
C4900 H4899 1.016 . S
C4900 N4907 1.286 . S
C4901 H4896 0.930 . S
C4901 C4902 1.397 . S
C4901 C4903 1.361 . S
C4902 C4901 1.397 . S
C4902 C4906 1.390 . S
C4903 C4901 1.361 . S
C4903 C4904 1.393 . S
C4903 N4907 1.413 . S
C4904 H4897 0.930 . S
C4904 C4903 1.393 . S
C4904 C4905 1.399 . S
C4905 C4904 1.399 . S
C4905 C4906 1.381 . S
C4906 H4898 0.930 . S
C4906 C4902 1.390 . S
C4906 C4905 1.381 . S
N4907 C4900 1.286 . S
N4907 C4903 1.413 . S
H4908 C4913 0.930 . S
H4909 C4916 0.930 . S
H4910 C4918 0.930 . S
H4911 C4912 1.016 . S
C4912 H4911 1.016 . S
C4912 N4919 1.286 . S
C4913 H4908 0.930 . S
C4913 C4914 1.397 . S
C4913 C4915 1.361 . S
C4914 C4913 1.397 . S
C4914 C4918 1.390 . S
C4915 C4913 1.361 . S
C4915 C4916 1.393 . S
C4915 N4919 1.413 . S
C4916 H4909 0.930 . S
C4916 C4915 1.393 . S
C4916 C4917 1.399 . S
C4917 C4916 1.399 . S
C4917 C4918 1.381 . S
C4918 H4910 0.930 . S
C4918 C4914 1.390 . S
C4918 C4917 1.381 . S
N4919 C4912 1.286 . S
N4919 C4915 1.413 . S
H4920 C4925 0.930 . S
H4921 C4928 0.930 . S
H4922 C4930 0.930 . S
H4923 C4924 1.016 . S
C4924 H4923 1.016 . S
C4924 N4931 1.286 . S
C4925 H4920 0.930 . S
C4925 C4926 1.397 . S
C4925 C4927 1.361 . S
C4926 C4925 1.397 . S
C4926 C4930 1.390 . S
C4927 C4925 1.361 . S
C4927 C4928 1.393 . S
C4927 N4931 1.413 . S
C4928 H4921 0.930 . S
C4928 C4927 1.393 . S
C4928 C4929 1.399 . S
C4929 C4928 1.399 . S
C4929 C4930 1.381 . S
C4930 H4922 0.930 . S
C4930 C4926 1.390 . S
C4930 C4929 1.381 . S
N4931 C4924 1.286 . S
N4931 C4927 1.413 . S
H4932 C4937 0.930 . S
H4933 C4940 0.930 . S
H4934 C4942 0.930 . S
H4935 C4936 1.016 . S
C4936 H4935 1.016 . S
C4936 N4943 1.286 . S
C4937 H4932 0.930 . S
C4937 C4938 1.397 . S
C4937 C4939 1.361 . S
C4938 C4937 1.397 . S
C4938 C4942 1.390 . S
C4939 C4937 1.361 . S
C4939 C4940 1.393 . S
C4939 N4943 1.413 . S
C4940 H4933 0.930 . S
C4940 C4939 1.393 . S
C4940 C4941 1.399 . S
C4941 C4940 1.399 . S
C4941 C4942 1.381 . S
C4942 H4934 0.930 . S
C4942 C4938 1.390 . S
C4942 C4941 1.381 . S
N4943 C4936 1.286 . S
N4943 C4939 1.413 . S
H4944 C4949 0.930 . S
H4945 C4952 0.930 . S
H4946 C4954 0.930 . S
H4947 C4948 1.016 . S
C4948 H4947 1.016 . S
C4948 N4955 1.286 . S
C4949 H4944 0.930 . S
C4949 C4950 1.397 . S
C4949 C4951 1.361 . S
C4950 C4949 1.397 . S
C4950 C4954 1.390 . S
C4951 C4949 1.361 . S
C4951 C4952 1.393 . S
C4951 N4955 1.413 . S
C4952 H4945 0.930 . S
C4952 C4951 1.393 . S
C4952 C4953 1.399 . S
C4953 C4952 1.399 . S
C4953 C4954 1.381 . S
C4954 H4946 0.930 . S
C4954 C4950 1.390 . S
C4954 C4953 1.381 . S
N4955 C4948 1.286 . S
N4955 C4951 1.413 . S
H4956 C4961 0.930 . S
H4957 C4964 0.930 . S
H4958 C4966 0.930 . S
H4959 C4960 1.016 . S
C4960 H4959 1.016 . S
C4960 N4967 1.286 . S
C4961 H4956 0.930 . S
C4961 C4962 1.397 . S
C4961 C4963 1.361 . S
C4962 C4961 1.397 . S
C4962 C4966 1.390 . S
C4963 C4961 1.361 . S
C4963 C4964 1.393 . S
C4963 N4967 1.413 . S
C4964 H4957 0.930 . S
C4964 C4963 1.393 . S
C4964 C4965 1.399 . S
C4965 C4964 1.399 . S
C4965 C4966 1.381 . S
C4966 H4958 0.930 . S
C4966 C4962 1.390 . S
C4966 C4965 1.381 . S
N4967 C4960 1.286 . S
N4967 C4963 1.413 . S
H4968 C4973 0.930 . S
H4969 C4976 0.930 . S
H4970 C4978 0.930 . S
H4971 C4972 1.016 . S
C4972 H4971 1.016 . S
C4972 N4979 1.286 . S
C4973 H4968 0.930 . S
C4973 C4974 1.397 . S
C4973 C4975 1.361 . S
C4974 C4973 1.397 . S
C4974 C4978 1.390 . S
C4975 C4973 1.361 . S
C4975 C4976 1.393 . S
C4975 N4979 1.413 . S
C4976 H4969 0.930 . S
C4976 C4975 1.393 . S
C4976 C4977 1.399 . S
C4977 C4976 1.399 . S
C4977 C4978 1.381 . S
C4978 H4970 0.930 . S
C4978 C4974 1.390 . S
C4978 C4977 1.381 . S
N4979 C4972 1.286 . S
N4979 C4975 1.413 . S
H4980 C4985 0.930 . S
H4981 C4988 0.930 . S
H4982 C4990 0.930 . S
H4983 C4984 1.016 . S
C4984 H4983 1.016 . S
C4984 N4991 1.286 . S
C4985 H4980 0.930 . S
C4985 C4986 1.397 . S
C4985 C4987 1.361 . S
C4986 C4985 1.397 . S
C4986 C4990 1.390 . S
C4987 C4985 1.361 . S
C4987 C4988 1.393 . S
C4987 N4991 1.413 . S
C4988 H4981 0.930 . S
C4988 C4987 1.393 . S
C4988 C4989 1.399 . S
C4989 C4988 1.399 . S
C4989 C4990 1.381 . S
C4990 H4982 0.930 . S
C4990 C4986 1.390 . S
C4990 C4989 1.381 . S
N4991 C4984 1.286 . S
N4991 C4987 1.413 . S
C4992 C4993 1.363 . S
C4992 C4998 1.379 1_455 S
C4992 N5000 1.356 . S
C4993 C4992 1.363 . S
C4993 C4999 1.363 . S
C4994 C4995 1.363 . S
C4994 C4999 1.379 1_655 S
C4994 N5001 1.356 . S
C4995 C4994 1.363 . S
C4995 C4998 1.363 . S
N4996 C4998 1.356 . S
N4996 H5008 0.984 . S
N4996 H5009 0.985 . S
N4997 C4999 1.356 . S
N4997 H5002 0.984 . S
N4997 H5003 0.985 . S
C4998 C4992 1.379 1_655 S
C4998 C4995 1.363 . S
C4998 N4996 1.356 . S
C4999 C4993 1.363 . S
C4999 C4994 1.379 1_455 S
C4999 N4997 1.356 . S
N5000 C4992 1.356 . S
N5000 H5006 0.984 . S
N5000 H5007 0.984 . S
N5001 C4994 1.356 . S
N5001 H5004 0.984 . S
N5001 H5005 0.985 . S
H5002 N4997 0.984 . S
H5003 N4997 0.985 . S
H5004 N5001 0.984 . S
H5005 N5001 0.985 . S
H5006 N5000 0.984 . S
H5007 N5000 0.984 . S
H5008 N4996 0.984 . S
H5009 N4996 0.985 . S
C5010 C5011 1.363 . S
C5010 C5016 1.379 . S
C5010 N5018 1.356 . S
C5011 C5010 1.363 . S
C5011 C5017 1.363 . S
C5012 C5013 1.363 . S
C5012 C5017 1.379 . S
C5012 N5019 1.356 . S
C5013 C5012 1.363 . S
C5013 C5016 1.363 . S
N5014 C5016 1.356 . S
N5014 H5026 0.984 . S
N5014 H5027 0.985 . S
N5015 C5017 1.356 . S
N5015 H5020 0.984 . S
N5015 H5021 0.985 . S
C5016 C5010 1.379 . S
C5016 C5013 1.363 . S
C5016 N5014 1.356 . S
C5017 C5011 1.363 . S
C5017 C5012 1.379 . S
C5017 N5015 1.356 . S
N5018 C5010 1.356 . S
N5018 H5024 0.984 . S
N5018 H5025 0.984 . S
N5019 C5012 1.356 . S
N5019 H5022 0.984 . S
N5019 H5023 0.985 . S
H5020 N5015 0.984 . S
H5021 N5015 0.985 . S
H5022 N5019 0.984 . S
H5023 N5019 0.985 . S
H5024 N5018 0.984 . S
H5025 N5018 0.984 . S
H5026 N5014 0.984 . S
H5027 N5014 0.985 . S
C5028 C5029 1.363 . S
C5028 C5034 1.379 . S
C5028 N5036 1.356 . S
C5029 C5028 1.363 . S
C5029 C5035 1.363 . S
C5030 C5031 1.363 . S
C5030 C5035 1.379 . S
C5030 N5037 1.356 . S
C5031 C5030 1.363 . S
C5031 C5034 1.363 . S
N5032 C5034 1.356 . S
N5032 H5044 0.984 . S
N5032 H5045 0.985 . S
N5033 C5035 1.356 . S
N5033 H5038 0.984 . S
N5033 H5039 0.985 . S
C5034 C5028 1.379 . S
C5034 C5031 1.363 . S
C5034 N5032 1.356 . S
C5035 C5029 1.363 . S
C5035 C5030 1.379 . S
C5035 N5033 1.356 . S
N5036 C5028 1.356 . S
N5036 H5042 0.984 . S
N5036 H5043 0.984 . S
N5037 C5030 1.356 . S
N5037 H5040 0.984 . S
N5037 H5041 0.985 . S
H5038 N5033 0.984 . S
H5039 N5033 0.985 . S
H5040 N5037 0.984 . S
H5041 N5037 0.985 . S
H5042 N5036 0.984 . S
H5043 N5036 0.984 . S
H5044 N5032 0.984 . S
H5045 N5032 0.985 . S
C5046 C5047 1.363 . S
C5046 C5052 1.379 . S
C5046 N5054 1.356 . S
C5047 C5046 1.363 . S
C5047 C5053 1.363 . S
C5048 C5049 1.363 . S
C5048 C5053 1.379 . S
C5048 N5055 1.356 . S
C5049 C5048 1.363 . S
C5049 C5052 1.363 . S
N5050 C5052 1.356 . S
N5050 H5062 0.984 . S
N5050 H5063 0.985 . S
N5051 C5053 1.356 . S
N5051 H5056 0.984 . S
N5051 H5057 0.985 . S
C5052 C5046 1.379 . S
C5052 C5049 1.363 . S
C5052 N5050 1.356 . S
C5053 C5047 1.363 . S
C5053 C5048 1.379 . S
C5053 N5051 1.356 . S
N5054 C5046 1.356 . S
N5054 H5060 0.984 . S
N5054 H5061 0.984 . S
N5055 C5048 1.356 . S
N5055 H5058 0.984 . S
N5055 H5059 0.985 . S
H5056 N5051 0.984 . S
H5057 N5051 0.985 . S
H5058 N5055 0.984 . S
H5059 N5055 0.985 . S
H5060 N5054 0.984 . S
H5061 N5054 0.984 . S
H5062 N5050 0.984 . S
H5063 N5050 0.985 . S
C5064 C5065 1.363 . S
C5064 C5070 1.413 . S
C5064 N5072 1.356 . S
C5065 C5064 1.363 . S
C5065 C5071 1.363 . S
C5066 C5067 1.363 . S
C5066 C5071 1.379 1_655 S
C5066 N5073 1.356 . S
C5067 C5066 1.363 . S
C5067 C5070 1.331 1_655 S
N5068 C5070 1.343 1_655 S
N5068 H5080 0.984 1_655 S
N5068 H5081 0.985 . S
N5069 C5071 1.356 . S
N5069 H5074 0.984 . S
N5069 H5075 1.071 . S
C5070 C5064 1.413 . S
C5070 C5067 1.331 1_455 S
C5070 N5068 1.343 1_455 S
C5071 C5065 1.363 . S
C5071 C5066 1.379 1_455 S
C5071 N5069 1.356 . S
N5072 C5064 1.356 . S
N5072 H5078 0.984 . S
N5072 H5079 0.984 . S
N5073 C5066 1.356 . S
N5073 H5076 0.984 . S
N5073 H5077 0.985 . S
H5074 N5069 0.984 . S
H5075 N5069 1.071 . S
H5076 N5073 0.984 . S
H5077 N5073 0.985 . S
H5078 N5072 0.984 . S
H5079 N5072 0.984 . S
H5080 N5068 0.984 1_455 S
H5081 N5068 0.985 . S
C5082 C5083 1.363 . S
C5082 C5088 1.379 . S
C5082 N5090 1.356 . S
C5083 C5082 1.363 . S
C5083 C5089 1.363 . S
C5084 C5085 1.363 . S
C5084 C5089 1.379 . S
C5084 N5091 1.356 . S
C5085 C5084 1.363 . S
C5085 C5088 1.363 . S
N5086 C5088 1.356 . S
N5086 H5098 0.984 . S
N5086 H5099 0.985 . S
N5087 C5089 1.356 . S
N5087 H5092 0.984 . S
N5087 H5093 0.985 . S
C5088 C5082 1.379 . S
C5088 C5085 1.363 . S
C5088 N5086 1.356 . S
C5089 C5083 1.363 . S
C5089 C5084 1.379 . S
C5089 N5087 1.356 . S
N5090 C5082 1.356 . S
N5090 H5096 0.984 . S
N5090 H5097 0.984 . S
N5091 C5084 1.356 . S
N5091 H5094 0.984 . S
N5091 H5095 0.985 . S
H5092 N5087 0.984 . S
H5093 N5087 0.985 . S
H5094 N5091 0.984 . S
H5095 N5091 0.985 . S
H5096 N5090 0.984 . S
H5097 N5090 0.984 . S
H5098 N5086 0.984 . S
H5099 N5086 0.985 . S
C5100 C5101 1.363 . S
C5100 C5106 1.379 . S
C5100 N5108 1.356 . S
C5101 C5100 1.363 . S
C5101 C5107 1.363 . S
C5102 C5103 1.363 . S
C5102 C5107 1.379 . S
C5102 N5109 1.356 . S
C5103 C5102 1.363 . S
C5103 C5106 1.363 . S
N5104 C5106 1.356 . S
N5104 H5116 0.984 . S
N5104 H5117 0.985 . S
N5105 C5107 1.356 . S
N5105 H5110 0.984 . S
N5105 H5111 0.985 . S
C5106 C5100 1.379 . S
C5106 C5103 1.363 . S
C5106 N5104 1.356 . S
C5107 C5101 1.363 . S
C5107 C5102 1.379 . S
C5107 N5105 1.356 . S
N5108 C5100 1.356 . S
N5108 H5114 0.984 . S
N5108 H5115 0.984 . S
N5109 C5102 1.356 . S
N5109 H5112 0.984 . S
N5109 H5113 0.985 . S
H5110 N5105 0.984 . S
H5111 N5105 0.985 . S
H5112 N5109 0.984 . S
H5113 N5109 0.985 . S
H5114 N5108 0.984 . S
H5115 N5108 0.984 . S
H5116 N5104 0.984 . S
H5117 N5104 0.985 . S
C5118 C5119 1.363 . S
C5118 C5124 1.379 . S
C5118 N5126 1.356 . S
C5119 C5118 1.363 . S
C5119 C5125 1.363 . S
C5120 C5121 1.363 . S
C5120 C5125 1.379 . S
C5120 N5127 1.356 . S
C5121 C5120 1.363 . S
C5121 C5124 1.363 . S
N5122 C5124 1.356 . S
N5122 H5134 0.984 . S
N5122 H5135 0.985 . S
N5123 C5125 1.356 . S
N5123 H5128 0.984 . S
N5123 H5129 0.985 . S
C5124 C5118 1.379 . S
C5124 C5121 1.363 . S
C5124 N5122 1.356 . S
C5125 C5119 1.363 . S
C5125 C5120 1.379 . S
C5125 N5123 1.356 . S
N5126 C5118 1.356 . S
N5126 H5132 0.984 . S
N5126 H5133 0.984 . S
N5127 C5120 1.356 . S
N5127 H5130 0.984 . S
N5127 H5131 0.985 . S
H5128 N5123 0.984 . S
H5129 N5123 0.985 . S
H5130 N5127 0.984 . S
H5131 N5127 0.985 . S
H5132 N5126 0.984 . S
H5133 N5126 0.984 . S
H5134 N5122 0.984 . S
H5135 N5122 0.985 . S
C5136 C5137 1.363 . S
C5136 C5142 1.390 . S
C5136 N5144 1.356 . S
C5137 C5136 1.363 . S
C5137 C5143 1.363 . S
C5138 C5139 1.363 . S
C5138 C5143 1.379 1_565 S
C5138 N5145 1.356 . S
C5139 C5138 1.363 . S
C5139 C5142 1.353 1_565 S
N5140 C5142 1.352 1_565 S
N5140 H5152 0.934 1_565 S
N5140 H5153 0.985 . S
N5141 C5143 1.356 . S
N5141 H5146 0.984 . S
N5141 H5147 0.985 . S
C5142 C5136 1.390 . S
C5142 C5139 1.353 1_545 S
C5142 N5140 1.352 1_545 S
C5143 C5137 1.363 . S
C5143 C5138 1.379 1_545 S
C5143 N5141 1.356 . S
N5144 C5136 1.356 . S
N5144 H5150 0.984 . S
N5144 H5151 0.984 . S
N5145 C5138 1.356 . S
N5145 H5148 0.984 . S
N5145 H5149 0.985 . S
H5146 N5141 0.984 . S
H5147 N5141 0.985 . S
H5148 N5145 0.984 . S
H5149 N5145 0.985 . S
H5150 N5144 0.984 . S
H5151 N5144 0.984 . S
H5152 N5140 0.934 1_545 S
H5153 N5140 0.985 . S
C5154 C5155 1.363 . S
C5154 C5160 1.379 . S
C5154 N5162 1.356 . S
C5155 C5154 1.363 . S
C5155 C5161 1.363 . S
C5156 C5157 1.363 . S
C5156 C5161 1.379 . S
C5156 N5163 1.356 . S
C5157 C5156 1.363 . S
C5157 C5160 1.363 . S
N5158 C5160 1.356 . S
N5158 H5170 0.984 . S
N5158 H5171 0.985 . S
N5159 C5161 1.356 . S
N5159 H5164 0.984 . S
N5159 H5165 0.985 . S
C5160 C5154 1.379 . S
C5160 C5157 1.363 . S
C5160 N5158 1.356 . S
C5161 C5155 1.363 . S
C5161 C5156 1.379 . S
C5161 N5159 1.356 . S
N5162 C5154 1.356 . S
N5162 H5168 0.984 . S
N5162 H5169 0.984 . S
N5163 C5156 1.356 . S
N5163 H5166 0.984 . S
N5163 H5167 0.985 . S
H5164 N5159 0.984 . S
H5165 N5159 0.985 . S
H5166 N5163 0.984 . S
H5167 N5163 0.985 . S
H5168 N5162 0.984 . S
H5169 N5162 0.984 . S
H5170 N5158 0.984 . S
H5171 N5158 0.985 . S
C5172 C5173 1.363 . S
C5172 C5178 1.432 . S
C5172 N5180 1.356 . S
C5173 C5172 1.363 . S
C5173 C5179 1.363 . S
C5174 C5175 1.363 . S
C5174 C5179 1.379 1_545 S
C5174 N5181 1.356 . S
C5175 C5174 1.363 . S
C5175 C5178 1.312 1_545 S
N5176 C5178 1.337 1_545 S
N5176 H5188 0.984 1_545 S
N5176 H5189 0.985 . S
N5177 C5179 1.356 . S
N5177 H5182 0.984 . S
N5177 H5183 1.033 . S
C5178 C5172 1.432 . S
C5178 C5175 1.312 1_565 S
C5178 N5176 1.337 1_565 S
C5179 C5173 1.363 . S
C5179 C5174 1.379 1_565 S
C5179 N5177 1.356 . S
N5180 C5172 1.356 . S
N5180 H5186 0.984 . S
N5180 H5187 0.984 . S
N5181 C5174 1.356 . S
N5181 H5184 0.984 . S
N5181 H5185 0.985 . S
H5182 N5177 0.984 . S
H5183 N5177 1.033 . S
H5184 N5181 0.984 . S
H5185 N5181 0.985 . S
H5186 N5180 0.984 . S
H5187 N5180 0.984 . S
H5188 N5176 0.984 1_565 S
H5189 N5176 0.985 . S
C5190 C5191 1.363 . S
C5190 C5196 1.379 . S
C5190 N5198 1.356 . S
C5191 C5190 1.363 . S
C5191 C5197 1.363 . S
C5192 C5193 1.363 . S
C5192 C5197 1.379 . S
C5192 N5199 1.356 . S
C5193 C5192 1.363 . S
C5193 C5196 1.363 . S
N5194 C5196 1.356 . S
N5194 H5206 0.984 . S
N5194 H5207 0.985 . S
N5195 C5197 1.356 . S
N5195 H5200 0.984 . S
N5195 H5201 0.985 . S
C5196 C5190 1.379 . S
C5196 C5193 1.363 . S
C5196 N5194 1.356 . S
C5197 C5191 1.363 . S
C5197 C5192 1.379 . S
C5197 N5195 1.356 . S
N5198 C5190 1.356 . S
N5198 H5204 0.984 . S
N5198 H5205 0.984 . S
N5199 C5192 1.356 . S
N5199 H5202 0.984 . S
N5199 H5203 0.985 . S
H5200 N5195 0.984 . S
H5201 N5195 0.985 . S
H5202 N5199 0.984 . S
H5203 N5199 0.985 . S
H5204 N5198 0.984 . S
H5205 N5198 0.984 . S
H5206 N5194 0.984 . S
H5207 N5194 0.985 . S
C5208 C5209 1.363 . S
C5208 C5214 1.379 1_565 S
C5208 N5216 1.356 . S
C5209 C5208 1.363 . S
C5209 C5215 1.363 . S
C5210 C5211 1.327 1_565 S
C5210 C5215 1.417 . S
C5210 N5217 1.341 1_565 S
C5211 C5210 1.327 1_545 S
C5211 C5214 1.363 . S
N5212 C5214 1.356 . S
N5212 H5224 0.984 . S
N5212 H5225 0.985 . S
N5213 C5215 1.356 . S
N5213 H5218 0.984 . S
N5213 H5219 0.985 . S
C5214 C5208 1.379 1_545 S
C5214 C5211 1.363 . S
C5214 N5212 1.356 . S
C5215 C5209 1.363 . S
C5215 C5210 1.417 . S
C5215 N5213 1.356 . S
N5216 C5208 1.356 . S
N5216 H5222 1.062 . S
N5216 H5223 0.984 . S
N5217 C5210 1.341 1_545 S
N5217 H5220 0.984 . S
N5217 H5221 0.985 1_545 S
H5218 N5213 0.984 . S
H5219 N5213 0.985 . S
H5220 N5217 0.984 . S
H5221 N5217 0.985 1_565 S
H5222 N5216 1.062 . S
H5223 N5216 0.984 . S
H5224 N5212 0.984 . S
H5225 N5212 0.985 . S
C5226 C5227 1.363 . S
C5226 C5232 1.379 . S
C5226 N5234 1.356 . S
C5227 C5226 1.363 . S
C5227 C5233 1.363 . S
C5228 C5229 1.363 . S
C5228 C5233 1.379 . S
C5228 N5235 1.356 . S
C5229 C5228 1.363 . S
C5229 C5232 1.363 . S
N5230 C5232 1.356 . S
N5230 H5242 0.984 . S
N5230 H5243 0.985 . S
N5231 C5233 1.356 . S
N5231 H5236 0.984 . S
N5231 H5237 0.985 . S
C5232 C5226 1.379 . S
C5232 C5229 1.363 . S
C5232 N5230 1.356 . S
C5233 C5227 1.363 . S
C5233 C5228 1.379 . S
C5233 N5231 1.356 . S
N5234 C5226 1.356 . S
N5234 H5240 0.984 . S
N5234 H5241 0.984 . S
N5235 C5228 1.356 . S
N5235 H5238 0.984 . S
N5235 H5239 0.985 . S
H5236 N5231 0.984 . S
H5237 N5231 0.985 . S
H5238 N5235 0.984 . S
H5239 N5235 0.985 . S
H5240 N5234 0.984 . S
H5241 N5234 0.984 . S
H5242 N5230 0.984 . S
H5243 N5230 0.985 . S
C5244 C5245 1.363 . S
C5244 C5250 1.418 . S
C5244 N5252 1.356 . S
C5245 C5244 1.363 . S
C5245 C5251 1.363 . S
C5246 C5247 1.363 . S
C5246 C5251 1.379 1_565 S
C5246 N5253 1.356 . S
C5247 C5246 1.363 . S
C5247 C5250 1.326 1_565 S
N5248 C5250 1.341 1_565 S
N5248 H5260 0.984 1_565 S
N5248 H5261 0.985 . S
N5249 C5251 1.356 . S
N5249 H5254 0.984 . S
N5249 H5255 1.061 . S
C5250 C5244 1.418 . S
C5250 C5247 1.326 1_545 S
C5250 N5248 1.341 1_545 S
C5251 C5245 1.363 . S
C5251 C5246 1.379 1_545 S
C5251 N5249 1.356 . S
N5252 C5244 1.356 . S
N5252 H5258 0.984 . S
N5252 H5259 0.984 . S
N5253 C5246 1.356 . S
N5253 H5256 0.984 . S
N5253 H5257 0.985 . S
H5254 N5249 0.984 . S
H5255 N5249 1.061 . S
H5256 N5253 0.984 . S
H5257 N5253 0.985 . S
H5258 N5252 0.984 . S
H5259 N5252 0.984 . S
H5260 N5248 0.984 1_545 S
H5261 N5248 0.985 . S
C5262 C5263 1.363 . S
C5262 C5268 1.379 . S
C5262 N5270 1.356 . S
C5263 C5262 1.363 . S
C5263 C5269 1.363 . S
C5264 C5265 1.363 . S
C5264 C5269 1.379 . S
C5264 N5271 1.356 . S
C5265 C5264 1.363 . S
C5265 C5268 1.363 . S
N5266 C5268 1.356 . S
N5266 H5278 0.984 . S
N5266 H5279 0.985 . S
N5267 C5269 1.356 . S
N5267 H5272 0.984 . S
N5267 H5273 0.985 . S
C5268 C5262 1.379 . S
C5268 C5265 1.363 . S
C5268 N5266 1.356 . S
C5269 C5263 1.363 . S
C5269 C5264 1.379 . S
C5269 N5267 1.356 . S
N5270 C5262 1.356 . S
N5270 H5276 0.984 . S
N5270 H5277 0.984 . S
N5271 C5264 1.356 . S
N5271 H5274 0.984 . S
N5271 H5275 0.985 . S
H5272 N5267 0.984 . S
H5273 N5267 0.985 . S
H5274 N5271 0.984 . S
H5275 N5271 0.985 . S
H5276 N5270 0.984 . S
H5277 N5270 0.984 . S
H5278 N5266 0.984 . S
H5279 N5266 0.985 . S
C5280 C5281 1.363 . S
C5280 C5286 1.379 1_554 S
C5280 N5288 1.356 . S
C5281 C5280 1.363 . S
C5281 C5287 1.363 . S
C5282 C5283 1.363 . S
C5282 C5287 1.379 1_556 S
C5282 N5289 1.356 . S
C5283 C5282 1.363 . S
C5283 C5286 1.363 . S
N5284 C5286 1.356 . S
N5284 H5296 0.984 . S
N5284 H5297 0.985 . S
N5285 C5287 1.356 . S
N5285 H5290 0.984 . S
N5285 H5291 0.985 . S
C5286 C5280 1.379 1_556 S
C5286 C5283 1.363 . S
C5286 N5284 1.356 . S
C5287 C5281 1.363 . S
C5287 C5282 1.379 1_554 S
C5287 N5285 1.356 . S
N5288 C5280 1.356 . S
N5288 H5294 0.984 . S
N5288 H5295 0.984 . S
N5289 C5282 1.356 . S
N5289 H5292 0.984 . S
N5289 H5293 0.985 . S
H5290 N5285 0.984 . S
H5291 N5285 0.985 . S
H5292 N5289 0.984 . S
H5293 N5289 0.985 . S
H5294 N5288 0.984 . S
H5295 N5288 0.984 . S
H5296 N5284 0.984 . S
H5297 N5284 0.985 . S
C5298 C5299 1.363 . S
C5298 C5304 1.379 1_556 S
C5298 N5306 1.356 . S
C5299 C5298 1.363 . S
C5299 C5305 1.363 . S
C5300 C5301 1.363 . S
C5300 C5305 1.379 1_554 S
C5300 N5307 1.356 . S
C5301 C5300 1.363 . S
C5301 C5304 1.363 . S
N5302 C5304 1.356 . S
N5302 H5314 0.984 . S
N5302 H5315 0.985 . S
N5303 C5305 1.356 . S
N5303 H5308 0.984 . S
N5303 H5309 0.985 . S
C5304 C5298 1.379 1_554 S
C5304 C5301 1.363 . S
C5304 N5302 1.356 . S
C5305 C5299 1.363 . S
C5305 C5300 1.379 1_556 S
C5305 N5303 1.356 . S
N5306 C5298 1.356 . S
N5306 H5312 0.984 . S
N5306 H5313 0.984 . S
N5307 C5300 1.356 . S
N5307 H5310 0.984 . S
N5307 H5311 0.985 . S
H5308 N5303 0.984 . S
H5309 N5303 0.985 . S
H5310 N5307 0.984 . S
H5311 N5307 0.985 . S
H5312 N5306 0.984 . S
H5313 N5306 0.984 . S
H5314 N5302 0.984 . S
H5315 N5302 0.985 . S
C5316 C5317 1.363 . S
C5316 C5322 1.379 . S
C5316 N5324 1.356 . S
C5317 C5316 1.363 . S
C5317 C5323 1.363 . S
C5318 C5319 1.363 . S
C5318 C5323 1.379 . S
C5318 N5325 1.356 . S
C5319 C5318 1.363 . S
C5319 C5322 1.363 . S
N5320 C5322 1.356 . S
N5320 H5332 0.984 . S
N5320 H5333 0.985 . S
N5321 C5323 1.356 . S
N5321 H5326 0.984 . S
N5321 H5327 0.985 . S
C5322 C5316 1.379 . S
C5322 C5319 1.363 . S
C5322 N5320 1.356 . S
C5323 C5317 1.363 . S
C5323 C5318 1.379 . S
C5323 N5321 1.356 . S
N5324 C5316 1.356 . S
N5324 H5330 0.984 . S
N5324 H5331 0.984 . S
N5325 C5318 1.356 . S
N5325 H5328 0.984 . S
N5325 H5329 0.985 . S
H5326 N5321 0.984 . S
H5327 N5321 0.985 . S
H5328 N5325 0.984 . S
H5329 N5325 0.985 . S
H5330 N5324 0.984 . S
H5331 N5324 0.984 . S
H5332 N5320 0.984 . S
H5333 N5320 0.985 . S
C5334 C5335 1.363 . S
C5334 C5340 1.379 . S
C5334 N5342 1.356 . S
C5335 C5334 1.363 . S
C5335 C5341 1.363 . S
C5336 C5337 1.363 . S
C5336 C5341 1.379 . S
C5336 N5343 1.356 . S
C5337 C5336 1.363 . S
C5337 C5340 1.363 . S
N5338 C5340 1.356 . S
N5338 H5350 0.984 . S
N5338 H5351 0.985 . S
N5339 C5341 1.356 . S
N5339 H5344 0.984 . S
N5339 H5345 0.985 . S
C5340 C5334 1.379 . S
C5340 C5337 1.363 . S
C5340 N5338 1.356 . S
C5341 C5335 1.363 . S
C5341 C5336 1.379 . S
C5341 N5339 1.356 . S
N5342 C5334 1.356 . S
N5342 H5348 0.984 . S
N5342 H5349 0.984 . S
N5343 C5336 1.356 . S
N5343 H5346 0.984 . S
N5343 H5347 0.985 . S
H5344 N5339 0.984 . S
H5345 N5339 0.985 . S
H5346 N5343 0.984 . S
H5347 N5343 0.985 . S
H5348 N5342 0.984 . S
H5349 N5342 0.984 . S
H5350 N5338 0.984 . S
H5351 N5338 0.985 . S
C5352 C5353 1.363 . S
C5352 C5358 1.379 . S
C5352 N5360 1.356 . S
C5353 C5352 1.363 . S
C5353 C5359 1.363 . S
C5354 C5355 1.363 . S
C5354 C5359 1.379 . S
C5354 N5361 1.356 . S
C5355 C5354 1.363 . S
C5355 C5358 1.363 . S
N5356 C5358 1.356 . S
N5356 H5368 0.984 . S
N5356 H5369 0.985 . S
N5357 C5359 1.356 . S
N5357 H5362 0.984 . S
N5357 H5363 0.985 . S
C5358 C5352 1.379 . S
C5358 C5355 1.363 . S
C5358 N5356 1.356 . S
C5359 C5353 1.363 . S
C5359 C5354 1.379 . S
C5359 N5357 1.356 . S
N5360 C5352 1.356 . S
N5360 H5366 0.984 . S
N5360 H5367 0.984 . S
N5361 C5354 1.356 . S
N5361 H5364 0.984 . S
N5361 H5365 0.985 . S
H5362 N5357 0.984 . S
H5363 N5357 0.985 . S
H5364 N5361 0.984 . S
H5365 N5361 0.985 . S
H5366 N5360 0.984 . S
H5367 N5360 0.984 . S
H5368 N5356 0.984 . S
H5369 N5356 0.985 . S
C5370 C5371 1.363 . S
C5370 C5376 1.379 . S
C5370 N5378 1.356 . S
C5371 C5370 1.363 . S
C5371 C5377 1.363 . S
C5372 C5373 1.363 . S
C5372 C5377 1.379 . S
C5372 N5379 1.356 . S
C5373 C5372 1.363 . S
C5373 C5376 1.363 . S
N5374 C5376 1.356 . S
N5374 H5386 0.984 . S
N5374 H5387 0.985 . S
N5375 C5377 1.356 . S
N5375 H5380 0.984 . S
N5375 H5381 0.985 . S
C5376 C5370 1.379 . S
C5376 C5373 1.363 . S
C5376 N5374 1.356 . S
C5377 C5371 1.363 . S
C5377 C5372 1.379 . S
C5377 N5375 1.356 . S
N5378 C5370 1.356 . S
N5378 H5384 0.984 . S
N5378 H5385 0.984 . S
N5379 C5372 1.356 . S
N5379 H5382 0.984 . S
N5379 H5383 0.985 . S
H5380 N5375 0.984 . S
H5381 N5375 0.985 . S
H5382 N5379 0.984 . S
H5383 N5379 0.985 . S
H5384 N5378 0.984 . S
H5385 N5378 0.984 . S
H5386 N5374 0.984 . S
H5387 N5374 0.985 . S
C5388 C5389 1.363 . S
C5388 C5394 1.379 . S
C5388 N5396 1.356 . S
C5389 C5388 1.363 . S
C5389 C5395 1.363 . S
C5390 C5391 1.363 . S
C5390 C5395 1.379 . S
C5390 N5397 1.356 . S
C5391 C5390 1.363 . S
C5391 C5394 1.363 . S
N5392 C5394 1.356 . S
N5392 H5404 0.984 . S
N5392 H5405 0.985 . S
N5393 C5395 1.356 . S
N5393 H5398 0.984 . S
N5393 H5399 0.985 . S
C5394 C5388 1.379 . S
C5394 C5391 1.363 . S
C5394 N5392 1.356 . S
C5395 C5389 1.363 . S
C5395 C5390 1.379 . S
C5395 N5393 1.356 . S
N5396 C5388 1.356 . S
N5396 H5402 0.984 . S
N5396 H5403 0.984 . S
N5397 C5390 1.356 . S
N5397 H5400 0.984 . S
N5397 H5401 0.985 . S
H5398 N5393 0.984 . S
H5399 N5393 0.985 . S
H5400 N5397 0.984 . S
H5401 N5397 0.985 . S
H5402 N5396 0.984 . S
H5403 N5396 0.984 . S
H5404 N5392 0.984 . S
H5405 N5392 0.985 . S
C5406 C5407 1.363 . S
C5406 C5412 1.379 . S
C5406 N5414 1.356 . S
C5407 C5406 1.363 . S
C5407 C5413 1.363 . S
C5408 C5409 1.363 . S
C5408 C5413 1.379 . S
C5408 N5415 1.356 . S
C5409 C5408 1.363 . S
C5409 C5412 1.363 . S
N5410 C5412 1.356 . S
N5410 H5422 0.984 . S
N5410 H5423 0.985 . S
N5411 C5413 1.356 . S
N5411 H5416 0.984 . S
N5411 H5417 0.985 . S
C5412 C5406 1.379 . S
C5412 C5409 1.363 . S
C5412 N5410 1.356 . S
C5413 C5407 1.363 . S
C5413 C5408 1.379 . S
C5413 N5411 1.356 . S
N5414 C5406 1.356 . S
N5414 H5420 0.984 . S
N5414 H5421 0.984 . S
N5415 C5408 1.356 . S
N5415 H5418 0.984 . S
N5415 H5419 0.985 . S
H5416 N5411 0.984 . S
H5417 N5411 0.985 . S
H5418 N5415 0.984 . S
H5419 N5415 0.985 . S
H5420 N5414 0.984 . S
H5421 N5414 0.984 . S
H5422 N5410 0.984 . S
H5423 N5410 0.985 . S
C5424 C5425 1.363 . S
C5424 C5430 1.379 1_655 S
C5424 N5432 1.356 . S
C5425 C5424 1.363 . S
C5425 C5431 1.363 . S
C5426 C5427 1.457 . S
C5426 C5431 1.264 1_455 S
C5426 N5433 1.423 . S
C5427 C5426 1.457 . S
C5427 C5430 1.363 . S
N5428 C5430 1.356 . S
N5428 H5440 0.984 . S
N5428 H5441 0.985 . S
N5429 C5431 1.356 . S
N5429 H5434 0.984 . S
N5429 H5435 0.985 . S
C5430 C5424 1.379 1_455 S
C5430 C5427 1.363 . S
C5430 N5428 1.356 . S
C5431 C5425 1.363 . S
C5431 C5426 1.264 1_655 S
C5431 N5429 1.356 . S
N5432 C5424 1.356 . S
N5432 H5438 0.984 . S
N5432 H5439 0.984 . S
N5433 C5426 1.423 . S
N5433 H5436 0.984 . S
N5433 H5437 0.985 . S
H5434 N5429 0.984 . S
H5435 N5429 0.985 . S
H5436 N5433 0.984 . S
H5437 N5433 0.985 . S
H5438 N5432 0.984 . S
H5439 N5432 0.984 . S
H5440 N5428 0.984 . S
H5441 N5428 0.985 . S
C5442 C5443 1.363 . S
C5442 C5448 1.379 . S
C5442 N5450 1.356 . S
C5443 C5442 1.363 . S
C5443 C5449 1.363 . S
C5444 C5445 1.363 . S
C5444 C5449 1.379 . S
C5444 N5451 1.356 . S
C5445 C5444 1.363 . S
C5445 C5448 1.363 . S
N5446 C5448 1.356 . S
N5446 H5458 0.984 . S
N5446 H5459 0.985 . S
N5447 C5449 1.356 . S
N5447 H5452 0.984 . S
N5447 H5453 0.985 . S
C5448 C5442 1.379 . S
C5448 C5445 1.363 . S
C5448 N5446 1.356 . S
C5449 C5443 1.363 . S
C5449 C5444 1.379 . S
C5449 N5447 1.356 . S
N5450 C5442 1.356 . S
N5450 H5456 0.984 . S
N5450 H5457 0.984 . S
N5451 C5444 1.356 . S
N5451 H5454 0.984 . S
N5451 H5455 0.985 . S
H5452 N5447 0.984 . S
H5453 N5447 0.985 . S
H5454 N5451 0.984 . S
H5455 N5451 0.985 . S
H5456 N5450 0.984 . S
H5457 N5450 0.984 . S
H5458 N5446 0.984 . S
H5459 N5446 0.985 . S
C5460 C5461 1.363 . S
C5460 C5466 1.379 . S
C5460 N5468 1.356 . S
C5461 C5460 1.363 . S
C5461 C5467 1.363 . S
C5462 C5463 1.363 . S
C5462 C5467 1.379 . S
C5462 N5469 1.356 . S
C5463 C5462 1.363 . S
C5463 C5466 1.363 . S
N5464 C5466 1.356 . S
N5464 H5476 0.984 . S
N5464 H5477 0.985 . S
N5465 C5467 1.356 . S
N5465 H5470 0.984 . S
N5465 H5471 0.985 . S
C5466 C5460 1.379 . S
C5466 C5463 1.363 . S
C5466 N5464 1.356 . S
C5467 C5461 1.363 . S
C5467 C5462 1.379 . S
C5467 N5465 1.356 . S
N5468 C5460 1.356 . S
N5468 H5474 0.984 . S
N5468 H5475 0.984 . S
N5469 C5462 1.356 . S
N5469 H5472 0.984 . S
N5469 H5473 0.985 . S
H5470 N5465 0.984 . S
H5471 N5465 0.985 . S
H5472 N5469 0.984 . S
H5473 N5469 0.985 . S
H5474 N5468 0.984 . S
H5475 N5468 0.984 . S
H5476 N5464 0.984 . S
H5477 N5464 0.985 . S
C5478 C5479 1.363 . S
C5478 C5484 1.379 . S
C5478 N5486 1.356 . S
C5479 C5478 1.363 . S
C5479 C5485 1.363 . S
C5480 C5481 1.363 . S
C5480 C5485 1.379 . S
C5480 N5487 1.356 . S
C5481 C5480 1.363 . S
C5481 C5484 1.363 . S
N5482 C5484 1.356 . S
N5482 H5494 0.984 . S
N5482 H5495 0.985 . S
N5483 C5485 1.356 . S
N5483 H5488 0.984 . S
N5483 H5489 0.985 . S
C5484 C5478 1.379 . S
C5484 C5481 1.363 . S
C5484 N5482 1.356 . S
C5485 C5479 1.363 . S
C5485 C5480 1.379 . S
C5485 N5483 1.356 . S
N5486 C5478 1.356 . S
N5486 H5492 0.984 . S
N5486 H5493 0.984 . S
N5487 C5480 1.356 . S
N5487 H5490 0.984 . S
N5487 H5491 0.985 . S
H5488 N5483 0.984 . S
H5489 N5483 0.985 . S
H5490 N5487 0.984 . S
H5491 N5487 0.985 . S
H5492 N5486 0.984 . S
H5493 N5486 0.984 . S
H5494 N5482 0.984 . S
H5495 N5482 0.985 . S
C5496 C5497 1.363 . S
C5496 C5502 1.379 1_655 S
C5496 N5504 1.356 . S
C5497 C5496 1.363 . S
C5497 C5503 1.363 . S
C5498 C5499 1.363 . S
C5498 C5503 1.379 1_455 S
C5498 N5505 1.356 . S
C5499 C5498 1.363 . S
C5499 C5502 1.363 . S
N5500 C5502 1.356 . S
N5500 H5512 0.984 . S
N5500 H5513 0.985 . S
N5501 C5503 1.356 . S
N5501 H5506 0.984 . S
N5501 H5507 0.985 . S
C5502 C5496 1.379 1_455 S
C5502 C5499 1.363 . S
C5502 N5500 1.356 . S
C5503 C5497 1.363 . S
C5503 C5498 1.379 1_655 S
C5503 N5501 1.356 . S
N5504 C5496 1.356 . S
N5504 H5510 0.984 . S
N5504 H5511 0.984 . S
N5505 C5498 1.356 . S
N5505 H5508 0.984 . S
N5505 H5509 0.985 . S
H5506 N5501 0.984 . S
H5507 N5501 0.985 . S
H5508 N5505 0.984 . S
H5509 N5505 0.985 . S
H5510 N5504 0.984 . S
H5511 N5504 0.984 . S
H5512 N5500 0.984 . S
H5513 N5500 0.985 . S
C5514 C5515 1.363 . S
C5514 C5520 1.379 . S
C5514 N5522 1.356 . S
C5515 C5514 1.363 . S
C5515 C5521 1.363 . S
C5516 C5517 1.363 . S
C5516 C5521 1.379 . S
C5516 N5523 1.356 . S
C5517 C5516 1.363 . S
C5517 C5520 1.363 . S
N5518 C5520 1.356 . S
N5518 H5530 0.984 . S
N5518 H5531 0.985 . S
N5519 C5521 1.356 . S
N5519 H5524 0.984 . S
N5519 H5525 0.985 . S
C5520 C5514 1.379 . S
C5520 C5517 1.363 . S
C5520 N5518 1.356 . S
C5521 C5515 1.363 . S
C5521 C5516 1.379 . S
C5521 N5519 1.356 . S
N5522 C5514 1.356 . S
N5522 H5528 0.984 . S
N5522 H5529 0.984 . S
N5523 C5516 1.356 . S
N5523 H5526 0.984 . S
N5523 H5527 0.985 . S
H5524 N5519 0.984 . S
H5525 N5519 0.985 . S
H5526 N5523 0.984 . S
H5527 N5523 0.985 . S
H5528 N5522 0.984 . S
H5529 N5522 0.984 . S
H5530 N5518 0.984 . S
H5531 N5518 0.985 . S
C5532 C5533 1.363 . S
C5532 C5538 1.379 . S
C5532 N5540 1.356 . S
C5533 C5532 1.363 . S
C5533 C5539 1.363 . S
C5534 C5535 1.363 . S
C5534 C5539 1.379 . S
C5534 N5541 1.356 . S
C5535 C5534 1.363 . S
C5535 C5538 1.363 . S
N5536 C5538 1.356 . S
N5536 H5548 0.984 . S
N5536 H5549 0.985 . S
N5537 C5539 1.356 . S
N5537 H5542 0.984 . S
N5537 H5543 0.985 . S
C5538 C5532 1.379 . S
C5538 C5535 1.363 . S
C5538 N5536 1.356 . S
C5539 C5533 1.363 . S
C5539 C5534 1.379 . S
C5539 N5537 1.356 . S
N5540 C5532 1.356 . S
N5540 H5546 0.984 . S
N5540 H5547 0.984 . S
N5541 C5534 1.356 . S
N5541 H5544 0.984 . S
N5541 H5545 0.985 . S
H5542 N5537 0.984 . S
H5543 N5537 0.985 . S
H5544 N5541 0.984 . S
H5545 N5541 0.985 . S
H5546 N5540 0.984 . S
H5547 N5540 0.984 . S
H5548 N5536 0.984 . S
H5549 N5536 0.985 . S
C5550 C5551 1.363 . S
C5550 C5556 1.379 . S
C5550 N5558 1.356 . S
C5551 C5550 1.363 . S
C5551 C5557 1.363 . S
C5552 C5553 1.363 . S
C5552 C5557 1.379 . S
C5552 N5559 1.356 . S
C5553 C5552 1.363 . S
C5553 C5556 1.363 . S
N5554 C5556 1.356 . S
N5554 H5566 0.984 . S
N5554 H5567 0.985 . S
N5555 C5557 1.356 . S
N5555 H5560 0.984 . S
N5555 H5561 0.985 . S
C5556 C5550 1.379 . S
C5556 C5553 1.363 . S
C5556 N5554 1.356 . S
C5557 C5551 1.363 . S
C5557 C5552 1.379 . S
C5557 N5555 1.356 . S
N5558 C5550 1.356 . S
N5558 H5564 0.984 . S
N5558 H5565 0.984 . S
N5559 C5552 1.356 . S
N5559 H5562 0.984 . S
N5559 H5563 0.985 . S
H5560 N5555 0.984 . S
H5561 N5555 0.985 . S
H5562 N5559 0.984 . S
H5563 N5559 0.985 . S
H5564 N5558 0.984 . S
H5565 N5558 0.984 . S
H5566 N5554 0.984 . S
H5567 N5554 0.985 . S
C5568 C5569 1.363 . S
C5568 C5574 1.379 1_565 S
C5568 N5576 1.356 . S
C5569 C5568 1.363 . S
C5569 C5575 1.363 . S
C5570 C5571 1.363 . S
C5570 C5575 1.379 1_545 S
C5570 N5577 1.356 . S
C5571 C5570 1.363 . S
C5571 C5574 1.363 . S
N5572 C5574 1.356 . S
N5572 H5584 0.984 . S
N5572 H5585 0.985 . S
N5573 C5575 1.356 . S
N5573 H5578 0.984 . S
N5573 H5579 0.985 . S
C5574 C5568 1.379 1_545 S
C5574 C5571 1.363 . S
C5574 N5572 1.356 . S
C5575 C5569 1.363 . S
C5575 C5570 1.379 1_565 S
C5575 N5573 1.356 . S
N5576 C5568 1.356 . S
N5576 H5582 0.984 . S
N5576 H5583 0.984 . S
N5577 C5570 1.356 . S
N5577 H5580 0.984 . S
N5577 H5581 0.985 . S
H5578 N5573 0.984 . S
H5579 N5573 0.985 . S
H5580 N5577 0.984 . S
H5581 N5577 0.985 . S
H5582 N5576 0.984 . S
H5583 N5576 0.984 . S
H5584 N5572 0.984 . S
H5585 N5572 0.985 . S
C5586 C5587 1.363 . S
C5586 C5592 1.379 . S
C5586 N5594 1.356 . S
C5587 C5586 1.363 . S
C5587 C5593 1.363 . S
C5588 C5589 1.363 . S
C5588 C5593 1.379 . S
C5588 N5595 1.356 . S
C5589 C5588 1.363 . S
C5589 C5592 1.363 . S
N5590 C5592 1.356 . S
N5590 H5602 0.984 . S
N5590 H5603 0.985 . S
N5591 C5593 1.356 . S
N5591 H5596 0.984 . S
N5591 H5597 0.985 . S
C5592 C5586 1.379 . S
C5592 C5589 1.363 . S
C5592 N5590 1.356 . S
C5593 C5587 1.363 . S
C5593 C5588 1.379 . S
C5593 N5591 1.356 . S
N5594 C5586 1.356 . S
N5594 H5600 0.984 . S
N5594 H5601 0.984 . S
N5595 C5588 1.356 . S
N5595 H5598 0.984 . S
N5595 H5599 0.985 . S
H5596 N5591 0.984 . S
H5597 N5591 0.985 . S
H5598 N5595 0.984 . S
H5599 N5595 0.985 . S
H5600 N5594 0.984 . S
H5601 N5594 0.984 . S
H5602 N5590 0.984 . S
H5603 N5590 0.985 . S
C5604 C5605 1.363 . S
C5604 C5610 1.379 1_545 S
C5604 N5612 1.356 . S
C5605 C5604 1.363 . S
C5605 C5611 1.363 . S
C5606 C5607 1.363 . S
C5606 C5611 1.379 1_565 S
C5606 N5613 1.356 . S
C5607 C5606 1.363 . S
C5607 C5610 1.363 . S
N5608 C5610 1.356 . S
N5608 H5620 0.984 . S
N5608 H5621 0.985 . S
N5609 C5611 1.356 . S
N5609 H5614 0.984 . S
N5609 H5615 0.985 . S
C5610 C5604 1.379 1_565 S
C5610 C5607 1.363 . S
C5610 N5608 1.356 . S
C5611 C5605 1.363 . S
C5611 C5606 1.379 1_545 S
C5611 N5609 1.356 . S
N5612 C5604 1.356 . S
N5612 H5618 0.984 . S
N5612 H5619 0.984 . S
N5613 C5606 1.356 . S
N5613 H5616 0.984 . S
N5613 H5617 0.985 . S
H5614 N5609 0.984 . S
H5615 N5609 0.985 . S
H5616 N5613 0.984 . S
H5617 N5613 0.985 . S
H5618 N5612 0.984 . S
H5619 N5612 0.984 . S
H5620 N5608 0.984 . S
H5621 N5608 0.985 . S
C5622 C5623 1.363 . S
C5622 C5628 1.379 . S
C5622 N5630 1.356 . S
C5623 C5622 1.363 . S
C5623 C5629 1.363 . S
C5624 C5625 1.363 . S
C5624 C5629 1.379 . S
C5624 N5631 1.356 . S
C5625 C5624 1.363 . S
C5625 C5628 1.363 . S
N5626 C5628 1.356 . S
N5626 H5638 0.984 . S
N5626 H5639 0.985 . S
N5627 C5629 1.356 . S
N5627 H5632 0.984 . S
N5627 H5633 0.985 . S
C5628 C5622 1.379 . S
C5628 C5625 1.363 . S
C5628 N5626 1.356 . S
C5629 C5623 1.363 . S
C5629 C5624 1.379 . S
C5629 N5627 1.356 . S
N5630 C5622 1.356 . S
N5630 H5636 0.984 . S
N5630 H5637 0.984 . S
N5631 C5624 1.356 . S
N5631 H5634 0.984 . S
N5631 H5635 0.985 . S
H5632 N5627 0.984 . S
H5633 N5627 0.985 . S
H5634 N5631 0.984 . S
H5635 N5631 0.985 . S
H5636 N5630 0.984 . S
H5637 N5630 0.984 . S
H5638 N5626 0.984 . S
H5639 N5626 0.985 . S
C5640 C5641 1.363 . S
C5640 C5646 1.379 1_545 S
C5640 N5648 1.356 . S
C5641 C5640 1.363 . S
C5641 C5647 1.363 . S
C5642 C5643 1.363 . S
C5642 C5647 1.379 1_565 S
C5642 N5649 1.356 . S
C5643 C5642 1.363 . S
C5643 C5646 1.363 . S
N5644 C5646 1.356 . S
N5644 H5656 0.984 . S
N5644 H5657 0.985 . S
N5645 C5647 1.356 . S
N5645 H5650 0.984 . S
N5645 H5651 0.985 . S
C5646 C5640 1.379 1_565 S
C5646 C5643 1.363 . S
C5646 N5644 1.356 . S
C5647 C5641 1.363 . S
C5647 C5642 1.379 1_545 S
C5647 N5645 1.356 . S
N5648 C5640 1.356 . S
N5648 H5654 0.984 . S
N5648 H5655 0.984 . S
N5649 C5642 1.356 . S
N5649 H5652 0.984 . S
N5649 H5653 0.985 . S
H5650 N5645 0.984 . S
H5651 N5645 0.985 . S
H5652 N5649 0.984 . S
H5653 N5649 0.985 . S
H5654 N5648 0.984 . S
H5655 N5648 0.984 . S
H5656 N5644 0.984 . S
H5657 N5644 0.985 . S
C5658 C5659 1.363 . S
C5658 C5664 1.379 . S
C5658 N5666 1.356 . S
C5659 C5658 1.363 . S
C5659 C5665 1.363 . S
C5660 C5661 1.363 . S
C5660 C5665 1.379 . S
C5660 N5667 1.356 . S
C5661 C5660 1.363 . S
C5661 C5664 1.363 . S
N5662 C5664 1.356 . S
N5662 H5674 0.984 . S
N5662 H5675 0.985 . S
N5663 C5665 1.356 . S
N5663 H5668 0.984 . S
N5663 H5669 0.985 . S
C5664 C5658 1.379 . S
C5664 C5661 1.363 . S
C5664 N5662 1.356 . S
C5665 C5659 1.363 . S
C5665 C5660 1.379 . S
C5665 N5663 1.356 . S
N5666 C5658 1.356 . S
N5666 H5672 0.984 . S
N5666 H5673 0.984 . S
N5667 C5660 1.356 . S
N5667 H5670 0.984 . S
N5667 H5671 0.985 . S
H5668 N5663 0.984 . S
H5669 N5663 0.985 . S
H5670 N5667 0.984 . S
H5671 N5667 0.985 . S
H5672 N5666 0.984 . S
H5673 N5666 0.984 . S
H5674 N5662 0.984 . S
H5675 N5662 0.985 . S
C5676 C5677 1.363 . S
C5676 C5682 1.379 1_565 S
C5676 N5684 1.356 . S
C5677 C5676 1.363 . S
C5677 C5683 1.363 . S
C5678 C5679 1.363 . S
C5678 C5683 1.379 1_545 S
C5678 N5685 1.356 . S
C5679 C5678 1.363 . S
C5679 C5682 1.363 . S
N5680 C5682 1.356 . S
N5680 H5692 0.984 . S
N5680 H5693 0.985 . S
N5681 C5683 1.356 . S
N5681 H5686 0.984 . S
N5681 H5687 0.985 . S
C5682 C5676 1.379 1_545 S
C5682 C5679 1.363 . S
C5682 N5680 1.356 . S
C5683 C5677 1.363 . S
C5683 C5678 1.379 1_565 S
C5683 N5681 1.356 . S
N5684 C5676 1.356 . S
N5684 H5690 0.984 . S
N5684 H5691 0.984 . S
N5685 C5678 1.356 . S
N5685 H5688 0.984 . S
N5685 H5689 0.985 . S
H5686 N5681 0.984 . S
H5687 N5681 0.985 . S
H5688 N5685 0.984 . S
H5689 N5685 0.985 . S
H5690 N5684 0.984 . S
H5691 N5684 0.984 . S
H5692 N5680 0.984 . S
H5693 N5680 0.985 . S
C5694 C5695 1.363 . S
C5694 C5700 1.379 . S
C5694 N5702 1.356 . S
C5695 C5694 1.363 . S
C5695 C5701 1.363 . S
C5696 C5697 1.363 . S
C5696 C5701 1.379 . S
C5696 N5703 1.356 . S
C5697 C5696 1.363 . S
C5697 C5700 1.363 . S
N5698 C5700 1.356 . S
N5698 H5710 0.984 . S
N5698 H5711 0.985 . S
N5699 C5701 1.356 . S
N5699 H5704 0.984 . S
N5699 H5705 0.985 . S
C5700 C5694 1.379 . S
C5700 C5697 1.363 . S
C5700 N5698 1.356 . S
C5701 C5695 1.363 . S
C5701 C5696 1.379 . S
C5701 N5699 1.356 . S
N5702 C5694 1.356 . S
N5702 H5708 0.984 . S
N5702 H5709 0.984 . S
N5703 C5696 1.356 . S
N5703 H5706 0.984 . S
N5703 H5707 0.985 . S
H5704 N5699 0.984 . S
H5705 N5699 0.985 . S
H5706 N5703 0.984 . S
H5707 N5703 0.985 . S
H5708 N5702 0.984 . S
H5709 N5702 0.984 . S
H5710 N5698 0.984 . S
H5711 N5698 0.985 . S
C5712 C5713 1.363 . S
C5712 C5718 1.379 1_556 S
C5712 N5720 1.356 . S
C5713 C5712 1.363 . S
C5713 C5719 1.363 . S
C5714 C5715 1.330 1_556 S
C5714 C5719 1.414 . S
C5714 N5721 1.343 1_556 S
C5715 C5714 1.330 1_554 S
C5715 C5718 1.363 . S
N5716 C5718 1.356 . S
N5716 H5728 0.984 . S
N5716 H5729 0.985 . S
N5717 C5719 1.356 . S
N5717 H5722 0.984 . S
N5717 H5723 0.985 . S
C5718 C5712 1.379 1_554 S
C5718 C5715 1.363 . S
C5718 N5716 1.356 . S
C5719 C5713 1.363 . S
C5719 C5714 1.414 . S
C5719 N5717 1.356 . S
N5720 C5712 1.356 . S
N5720 H5726 1.069 . S
N5720 H5727 0.984 . S
N5721 C5714 1.343 1_554 S
N5721 H5724 0.984 . S
N5721 H5725 0.985 1_554 S
H5722 N5717 0.984 . S
H5723 N5717 0.985 . S
H5724 N5721 0.984 . S
H5725 N5721 0.985 1_556 S
H5726 N5720 1.069 . S
H5727 N5720 0.984 . S
H5728 N5716 0.984 . S
H5729 N5716 0.985 . S
C5730 C5731 1.363 . S
C5730 C5736 1.370 . S
C5730 N5738 1.356 . S
C5731 C5730 1.363 . S
C5731 C5737 1.363 . S
C5732 C5733 1.363 . S
C5732 C5737 1.379 1_556 S
C5732 N5739 1.356 . S
C5733 C5732 1.363 . S
C5733 C5736 1.371 1_556 S
N5734 C5736 1.360 1_556 S
N5734 H5746 0.966 1_556 S
N5734 H5747 0.985 . S
N5735 C5737 1.356 . S
N5735 H5740 0.984 . S
N5735 H5741 0.985 . S
C5736 C5730 1.370 . S
C5736 C5733 1.371 1_554 S
C5736 N5734 1.360 1_554 S
C5737 C5731 1.363 . S
C5737 C5732 1.379 1_554 S
C5737 N5735 1.356 . S
N5738 C5730 1.356 . S
N5738 H5744 0.984 . S
N5738 H5745 0.984 . S
N5739 C5732 1.356 . S
N5739 H5742 0.984 . S
N5739 H5743 0.985 . S
H5740 N5735 0.984 . S
H5741 N5735 0.985 . S
H5742 N5739 0.984 . S
H5743 N5739 0.985 . S
H5744 N5738 0.984 . S
H5745 N5738 0.984 . S
H5746 N5734 0.966 1_554 S
H5747 N5734 0.985 . S
C5748 C5749 1.363 . S
C5748 C5754 1.379 . S
C5748 N5756 1.356 . S
C5749 C5748 1.363 . S
C5749 C5755 1.363 . S
C5750 C5751 1.363 . S
C5750 C5755 1.379 . S
C5750 N5757 1.356 . S
C5751 C5750 1.363 . S
C5751 C5754 1.363 . S
N5752 C5754 1.356 . S
N5752 H5764 0.984 . S
N5752 H5765 0.985 . S
N5753 C5755 1.356 . S
N5753 H5758 0.984 . S
N5753 H5759 0.985 . S
C5754 C5748 1.379 . S
C5754 C5751 1.363 . S
C5754 N5752 1.356 . S
C5755 C5749 1.363 . S
C5755 C5750 1.379 . S
C5755 N5753 1.356 . S
N5756 C5748 1.356 . S
N5756 H5762 0.984 . S
N5756 H5763 0.984 . S
N5757 C5750 1.356 . S
N5757 H5760 0.984 . S
N5757 H5761 0.985 . S
H5758 N5753 0.984 . S
H5759 N5753 0.985 . S
H5760 N5757 0.984 . S
H5761 N5757 0.985 . S
H5762 N5756 0.984 . S
H5763 N5756 0.984 . S
H5764 N5752 0.984 . S
H5765 N5752 0.985 . S
C5766 C5767 1.363 . S
C5766 C5772 1.379 . S
C5766 N5774 1.356 . S
C5767 C5766 1.363 . S
C5767 C5773 1.363 . S
C5768 C5769 1.363 . S
C5768 C5773 1.379 . S
C5768 N5775 1.356 . S
C5769 C5768 1.363 . S
C5769 C5772 1.363 . S
N5770 C5772 1.356 . S
N5770 H5782 0.984 . S
N5770 H5783 0.985 . S
N5771 C5773 1.356 . S
N5771 H5776 0.984 . S
N5771 H5777 0.985 . S
C5772 C5766 1.379 . S
C5772 C5769 1.363 . S
C5772 N5770 1.356 . S
C5773 C5767 1.363 . S
C5773 C5768 1.379 . S
C5773 N5771 1.356 . S
N5774 C5766 1.356 . S
N5774 H5780 0.984 . S
N5774 H5781 0.984 . S
N5775 C5768 1.356 . S
N5775 H5778 0.984 . S
N5775 H5779 0.985 . S
H5776 N5771 0.984 . S
H5777 N5771 0.985 . S
H5778 N5775 0.984 . S
H5779 N5775 0.985 . S
H5780 N5774 0.984 . S
H5781 N5774 0.984 . S
H5782 N5770 0.984 . S
H5783 N5770 0.985 . S
C5784 C5785 1.363 . S
C5784 C5790 1.379 . S
C5784 N5792 1.356 . S
C5785 C5784 1.363 . S
C5785 C5791 1.363 . S
C5786 C5787 1.363 . S
C5786 C5791 1.379 . S
C5786 N5793 1.356 . S
C5787 C5786 1.363 . S
C5787 C5790 1.363 . S
N5788 C5790 1.356 . S
N5788 H5800 0.984 . S
N5788 H5801 0.985 . S
N5789 C5791 1.356 . S
N5789 H5794 0.984 . S
N5789 H5795 0.985 . S
C5790 C5784 1.379 . S
C5790 C5787 1.363 . S
C5790 N5788 1.356 . S
C5791 C5785 1.363 . S
C5791 C5786 1.379 . S
C5791 N5789 1.356 . S
N5792 C5784 1.356 . S
N5792 H5798 0.984 . S
N5792 H5799 0.984 . S
N5793 C5786 1.356 . S
N5793 H5796 0.984 . S
N5793 H5797 0.985 . S
H5794 N5789 0.984 . S
H5795 N5789 0.985 . S
H5796 N5793 0.984 . S
H5797 N5793 0.985 . S
H5798 N5792 0.984 . S
H5799 N5792 0.984 . S
H5800 N5788 0.984 . S
H5801 N5788 0.985 . S
C5802 C5803 1.363 . S
C5802 C5808 1.379 . S
C5802 N5810 1.356 . S
C5803 C5802 1.363 . S
C5803 C5809 1.363 . S
C5804 C5805 1.363 . S
C5804 C5809 1.379 . S
C5804 N5811 1.356 . S
C5805 C5804 1.363 . S
C5805 C5808 1.363 . S
N5806 C5808 1.356 . S
N5806 H5818 0.984 . S
N5806 H5819 0.985 . S
N5807 C5809 1.356 . S
N5807 H5812 0.984 . S
N5807 H5813 0.985 . S
C5808 C5802 1.379 . S
C5808 C5805 1.363 . S
C5808 N5806 1.356 . S
C5809 C5803 1.363 . S
C5809 C5804 1.379 . S
C5809 N5807 1.356 . S
N5810 C5802 1.356 . S
N5810 H5816 0.984 . S
N5810 H5817 0.984 . S
N5811 C5804 1.356 . S
N5811 H5814 0.984 . S
N5811 H5815 0.985 . S
H5812 N5807 0.984 . S
H5813 N5807 0.985 . S
H5814 N5811 0.984 . S
H5815 N5811 0.985 . S
H5816 N5810 0.984 . S
H5817 N5810 0.984 . S
H5818 N5806 0.984 . S
H5819 N5806 0.985 . S
C5820 C5821 1.363 . S
C5820 C5826 1.379 . S
C5820 N5828 1.356 . S
C5821 C5820 1.363 . S
C5821 C5827 1.363 . S
C5822 C5823 1.363 . S
C5822 C5827 1.379 . S
C5822 N5829 1.356 . S
C5823 C5822 1.363 . S
C5823 C5826 1.363 . S
N5824 C5826 1.356 . S
N5824 H5836 0.984 . S
N5824 H5837 0.985 . S
N5825 C5827 1.356 . S
N5825 H5830 0.984 . S
N5825 H5831 0.985 . S
C5826 C5820 1.379 . S
C5826 C5823 1.363 . S
C5826 N5824 1.356 . S
C5827 C5821 1.363 . S
C5827 C5822 1.379 . S
C5827 N5825 1.356 . S
N5828 C5820 1.356 . S
N5828 H5834 0.984 . S
N5828 H5835 0.984 . S
N5829 C5822 1.356 . S
N5829 H5832 0.984 . S
N5829 H5833 0.985 . S
H5830 N5825 0.984 . S
H5831 N5825 0.985 . S
H5832 N5829 0.984 . S
H5833 N5829 0.985 . S
H5834 N5828 0.984 . S
H5835 N5828 0.984 . S
H5836 N5824 0.984 . S
H5837 N5824 0.985 . S
C5838 C5839 1.363 . S
C5838 C5844 1.379 . S
C5838 N5846 1.356 . S
C5839 C5838 1.363 . S
C5839 C5845 1.363 . S
C5840 C5841 1.363 . S
C5840 C5845 1.379 . S
C5840 N5847 1.356 . S
C5841 C5840 1.363 . S
C5841 C5844 1.363 . S
N5842 C5844 1.356 . S
N5842 H5854 0.984 . S
N5842 H5855 0.985 . S
N5843 C5845 1.356 . S
N5843 H5848 0.984 . S
N5843 H5849 0.985 . S
C5844 C5838 1.379 . S
C5844 C5841 1.363 . S
C5844 N5842 1.356 . S
C5845 C5839 1.363 . S
C5845 C5840 1.379 . S
C5845 N5843 1.356 . S
N5846 C5838 1.356 . S
N5846 H5852 0.984 . S
N5846 H5853 0.984 . S
N5847 C5840 1.356 . S
N5847 H5850 0.984 . S
N5847 H5851 0.985 . S
H5848 N5843 0.984 . S
H5849 N5843 0.985 . S
H5850 N5847 0.984 . S
H5851 N5847 0.985 . S
H5852 N5846 0.984 . S
H5853 N5846 0.984 . S
H5854 N5842 0.984 . S
H5855 N5842 0.985 . S
C5856 C5857 1.363 . S
C5856 C5862 1.379 . S
C5856 N5864 1.356 . S
C5857 C5856 1.363 . S
C5857 C5863 1.363 . S
C5858 C5859 1.363 . S
C5858 C5863 1.379 . S
C5858 N5865 1.356 . S
C5859 C5858 1.363 . S
C5859 C5862 1.363 . S
N5860 C5862 1.356 . S
N5860 H5872 0.984 . S
N5860 H5873 0.985 . S
N5861 C5863 1.356 . S
N5861 H5866 0.984 . S
N5861 H5867 0.985 . S
C5862 C5856 1.379 . S
C5862 C5859 1.363 . S
C5862 N5860 1.356 . S
C5863 C5857 1.363 . S
C5863 C5858 1.379 . S
C5863 N5861 1.356 . S
N5864 C5856 1.356 . S
N5864 H5870 0.984 . S
N5864 H5871 0.984 . S
N5865 C5858 1.356 . S
N5865 H5868 0.984 . S
N5865 H5869 0.985 . S
H5866 N5861 0.984 . S
H5867 N5861 0.985 . S
H5868 N5865 0.984 . S
H5869 N5865 0.985 . S
H5870 N5864 0.984 . S
H5871 N5864 0.984 . S
H5872 N5860 0.984 . S
H5873 N5860 0.985 . S
C5874 C5875 1.363 . S
C5874 C5880 1.379 . S
C5874 N5882 1.356 . S
C5875 C5874 1.363 . S
C5875 C5881 1.363 . S
C5876 C5877 1.363 . S
C5876 C5881 1.379 . S
C5876 N5883 1.356 . S
C5877 C5876 1.363 . S
C5877 C5880 1.363 . S
N5878 C5880 1.356 . S
N5878 H5890 0.984 . S
N5878 H5891 0.985 . S
N5879 C5881 1.356 . S
N5879 H5884 0.984 . S
N5879 H5885 0.985 . S
C5880 C5874 1.379 . S
C5880 C5877 1.363 . S
C5880 N5878 1.356 . S
C5881 C5875 1.363 . S
C5881 C5876 1.379 . S
C5881 N5879 1.356 . S
N5882 C5874 1.356 . S
N5882 H5888 0.984 . S
N5882 H5889 0.984 . S
N5883 C5876 1.356 . S
N5883 H5886 0.984 . S
N5883 H5887 0.985 . S
H5884 N5879 0.984 . S
H5885 N5879 0.985 . S
H5886 N5883 0.984 . S
H5887 N5883 0.985 . S
H5888 N5882 0.984 . S
H5889 N5882 0.984 . S
H5890 N5878 0.984 . S
H5891 N5878 0.985 . S
C5892 C5893 1.363 . S
C5892 C5898 1.379 1_655 S
C5892 N5900 1.356 . S
C5893 C5892 1.363 . S
C5893 C5899 1.363 . S
C5894 C5895 1.397 . S
C5894 C5899 1.339 1_455 S
C5894 N5901 1.376 . S
C5895 C5894 1.397 . S
C5895 C5898 1.363 . S
N5896 C5898 1.356 . S
N5896 H5908 0.984 . S
N5896 H5909 0.985 . S
N5897 C5899 1.356 . S
N5897 H5902 0.984 . S
N5897 H5903 0.985 . S
C5898 C5892 1.379 1_455 S
C5898 C5895 1.363 . S
C5898 N5896 1.356 . S
C5899 C5893 1.363 . S
C5899 C5894 1.339 1_655 S
C5899 N5897 1.356 . S
N5900 C5892 1.356 . S
N5900 H5906 0.984 . S
N5900 H5907 0.984 . S
N5901 C5894 1.376 . S
N5901 H5904 0.984 . S
N5901 H5905 1.046 . S
H5902 N5897 0.984 . S
H5903 N5897 0.985 . S
H5904 N5901 0.984 . S
H5905 N5901 1.046 . S
H5906 N5900 0.984 . S
H5907 N5900 0.984 . S
H5908 N5896 0.984 . S
H5909 N5896 0.985 . S
C5910 C5911 1.363 . S
C5910 C5916 1.379 . S
C5910 N5918 1.356 . S
C5911 C5910 1.363 . S
C5911 C5917 1.363 . S
C5912 C5913 1.363 . S
C5912 C5917 1.379 . S
C5912 N5919 1.356 . S
C5913 C5912 1.363 . S
C5913 C5916 1.363 . S
N5914 C5916 1.356 . S
N5914 H5926 0.984 . S
N5914 H5927 0.985 . S
N5915 C5917 1.356 . S
N5915 H5920 0.984 . S
N5915 H5921 0.985 . S
C5916 C5910 1.379 . S
C5916 C5913 1.363 . S
C5916 N5914 1.356 . S
C5917 C5911 1.363 . S
C5917 C5912 1.379 . S
C5917 N5915 1.356 . S
N5918 C5910 1.356 . S
N5918 H5924 0.984 . S
N5918 H5925 0.984 . S
N5919 C5912 1.356 . S
N5919 H5922 0.984 . S
N5919 H5923 0.985 . S
H5920 N5915 0.984 . S
H5921 N5915 0.985 . S
H5922 N5919 0.984 . S
H5923 N5919 0.985 . S
H5924 N5918 0.984 . S
H5925 N5918 0.984 . S
H5926 N5914 0.984 . S
H5927 N5914 0.985 . S
C5928 C5929 1.363 . S
C5928 C5934 1.379 . S
C5928 N5936 1.356 . S
C5929 C5928 1.363 . S
C5929 C5935 1.363 . S
C5930 C5931 1.363 . S
C5930 C5935 1.379 . S
C5930 N5937 1.356 . S
C5931 C5930 1.363 . S
C5931 C5934 1.363 . S
N5932 C5934 1.356 . S
N5932 H5944 0.984 . S
N5932 H5945 0.985 . S
N5933 C5935 1.356 . S
N5933 H5938 0.984 . S
N5933 H5939 0.985 . S
C5934 C5928 1.379 . S
C5934 C5931 1.363 . S
C5934 N5932 1.356 . S
C5935 C5929 1.363 . S
C5935 C5930 1.379 . S
C5935 N5933 1.356 . S
N5936 C5928 1.356 . S
N5936 H5942 0.984 . S
N5936 H5943 0.984 . S
N5937 C5930 1.356 . S
N5937 H5940 0.984 . S
N5937 H5941 0.985 . S
H5938 N5933 0.984 . S
H5939 N5933 0.985 . S
H5940 N5937 0.984 . S
H5941 N5937 0.985 . S
H5942 N5936 0.984 . S
H5943 N5936 0.984 . S
H5944 N5932 0.984 . S
H5945 N5932 0.985 . S
C5946 C5947 1.363 . S
C5946 C5952 1.379 . S
C5946 N5954 1.356 . S
C5947 C5946 1.363 . S
C5947 C5953 1.363 . S
C5948 C5949 1.363 . S
C5948 C5953 1.379 . S
C5948 N5955 1.356 . S
C5949 C5948 1.363 . S
C5949 C5952 1.363 . S
N5950 C5952 1.356 . S
N5950 H5962 0.984 . S
N5950 H5963 0.985 . S
N5951 C5953 1.356 . S
N5951 H5956 0.984 . S
N5951 H5957 0.985 . S
C5952 C5946 1.379 . S
C5952 C5949 1.363 . S
C5952 N5950 1.356 . S
C5953 C5947 1.363 . S
C5953 C5948 1.379 . S
C5953 N5951 1.356 . S
N5954 C5946 1.356 . S
N5954 H5960 0.984 . S
N5954 H5961 0.984 . S
N5955 C5948 1.356 . S
N5955 H5958 0.984 . S
N5955 H5959 0.985 . S
H5956 N5951 0.984 . S
H5957 N5951 0.985 . S
H5958 N5955 0.984 . S
H5959 N5955 0.985 . S
H5960 N5954 0.984 . S
H5961 N5954 0.984 . S
H5962 N5950 0.984 . S
H5963 N5950 0.985 . S
C5964 C5965 1.363 . S
C5964 C5970 1.379 1_655 S
C5964 N5972 1.356 . S
C5965 C5964 1.363 . S
C5965 C5971 1.363 . S
C5966 C5967 1.363 . S
C5966 C5971 1.379 1_455 S
C5966 N5973 1.356 . S
C5967 C5966 1.363 . S
C5967 C5970 1.363 . S
N5968 C5970 1.356 . S
N5968 H5980 0.984 . S
N5968 H5981 0.985 . S
N5969 C5971 1.356 . S
N5969 H5974 0.984 . S
N5969 H5975 0.985 . S
C5970 C5964 1.379 1_455 S
C5970 C5967 1.363 . S
C5970 N5968 1.356 . S
C5971 C5965 1.363 . S
C5971 C5966 1.379 1_655 S
C5971 N5969 1.356 . S
N5972 C5964 1.356 . S
N5972 H5978 0.984 . S
N5972 H5979 0.984 . S
N5973 C5966 1.356 . S
N5973 H5976 0.984 . S
N5973 H5977 0.985 . S
H5974 N5969 0.984 . S
H5975 N5969 0.985 . S
H5976 N5973 0.984 . S
H5977 N5973 0.985 . S
H5978 N5972 0.984 . S
H5979 N5972 0.984 . S
H5980 N5968 0.984 . S
H5981 N5968 0.985 . S
C5982 C5983 1.363 . S
C5982 C5988 1.379 . S
C5982 N5990 1.356 . S
C5983 C5982 1.363 . S
C5983 C5989 1.363 . S
C5984 C5985 1.363 . S
C5984 C5989 1.379 . S
C5984 N5991 1.356 . S
C5985 C5984 1.363 . S
C5985 C5988 1.363 . S
N5986 C5988 1.356 . S
N5986 H5998 0.984 . S
N5986 H5999 0.985 . S
N5987 C5989 1.356 . S
N5987 H5992 0.984 . S
N5987 H5993 0.985 . S
C5988 C5982 1.379 . S
C5988 C5985 1.363 . S
C5988 N5986 1.356 . S
C5989 C5983 1.363 . S
C5989 C5984 1.379 . S
C5989 N5987 1.356 . S
N5990 C5982 1.356 . S
N5990 H5996 0.984 . S
N5990 H5997 0.984 . S
N5991 C5984 1.356 . S
N5991 H5994 0.984 . S
N5991 H5995 0.985 . S
H5992 N5987 0.984 . S
H5993 N5987 0.985 . S
H5994 N5991 0.984 . S
H5995 N5991 0.985 . S
H5996 N5990 0.984 . S
H5997 N5990 0.984 . S
H5998 N5986 0.984 . S
H5999 N5986 0.985 . S
C6000 C6001 1.363 . S
C6000 C6006 1.379 . S
C6000 N6008 1.356 . S
C6001 C6000 1.363 . S
C6001 C6007 1.363 . S
C6002 C6003 1.363 . S
C6002 C6007 1.379 . S
C6002 N6009 1.356 . S
C6003 C6002 1.363 . S
C6003 C6006 1.363 . S
N6004 C6006 1.356 . S
N6004 H6016 0.984 . S
N6004 H6017 0.985 . S
N6005 C6007 1.356 . S
N6005 H6010 0.984 . S
N6005 H6011 0.985 . S
C6006 C6000 1.379 . S
C6006 C6003 1.363 . S
C6006 N6004 1.356 . S
C6007 C6001 1.363 . S
C6007 C6002 1.379 . S
C6007 N6005 1.356 . S
N6008 C6000 1.356 . S
N6008 H6014 0.984 . S
N6008 H6015 0.984 . S
N6009 C6002 1.356 . S
N6009 H6012 0.984 . S
N6009 H6013 0.985 . S
H6010 N6005 0.984 . S
H6011 N6005 0.985 . S
H6012 N6009 0.984 . S
H6013 N6009 0.985 . S
H6014 N6008 0.984 . S
H6015 N6008 0.984 . S
H6016 N6004 0.984 . S
H6017 N6004 0.985 . S
C6018 C6019 1.363 . S
C6018 C6024 1.379 . S
C6018 N6026 1.356 . S
C6019 C6018 1.363 . S
C6019 C6025 1.363 . S
C6020 C6021 1.363 . S
C6020 C6025 1.379 . S
C6020 N6027 1.356 . S
C6021 C6020 1.363 . S
C6021 C6024 1.363 . S
N6022 C6024 1.356 . S
N6022 H6034 0.984 . S
N6022 H6035 0.985 . S
N6023 C6025 1.356 . S
N6023 H6028 0.984 . S
N6023 H6029 0.985 . S
C6024 C6018 1.379 . S
C6024 C6021 1.363 . S
C6024 N6022 1.356 . S
C6025 C6019 1.363 . S
C6025 C6020 1.379 . S
C6025 N6023 1.356 . S
N6026 C6018 1.356 . S
N6026 H6032 0.984 . S
N6026 H6033 0.984 . S
N6027 C6020 1.356 . S
N6027 H6030 0.984 . S
N6027 H6031 0.985 . S
H6028 N6023 0.984 . S
H6029 N6023 0.985 . S
H6030 N6027 0.984 . S
H6031 N6027 0.985 . S
H6032 N6026 0.984 . S
H6033 N6026 0.984 . S
H6034 N6022 0.984 . S
H6035 N6022 0.985 . S
C6036 C6037 1.363 . S
C6036 C6042 1.379 . S
C6036 N6044 1.356 . S
C6037 C6036 1.363 . S
C6037 C6043 1.363 . S
C6038 C6039 1.363 . S
C6038 C6043 1.379 . S
C6038 N6045 1.356 . S
C6039 C6038 1.363 . S
C6039 C6042 1.363 . S
N6040 C6042 1.356 . S
N6040 H6052 0.984 . S
N6040 H6053 0.985 . S
N6041 C6043 1.356 . S
N6041 H6046 0.984 . S
N6041 H6047 0.985 . S
C6042 C6036 1.379 . S
C6042 C6039 1.363 . S
C6042 N6040 1.356 . S
C6043 C6037 1.363 . S
C6043 C6038 1.379 . S
C6043 N6041 1.356 . S
N6044 C6036 1.356 . S
N6044 H6050 0.984 . S
N6044 H6051 0.984 . S
N6045 C6038 1.356 . S
N6045 H6048 0.984 . S
N6045 H6049 0.985 . S
H6046 N6041 0.984 . S
H6047 N6041 0.985 . S
H6048 N6045 0.984 . S
H6049 N6045 0.985 . S
H6050 N6044 0.984 . S
H6051 N6044 0.984 . S
H6052 N6040 0.984 . S
H6053 N6040 0.985 . S
C6054 C6055 1.363 . S
C6054 C6060 1.379 . S
C6054 N6062 1.356 . S
C6055 C6054 1.363 . S
C6055 C6061 1.363 . S
C6056 C6057 1.363 . S
C6056 C6061 1.379 . S
C6056 N6063 1.356 . S
C6057 C6056 1.363 . S
C6057 C6060 1.363 . S
N6058 C6060 1.356 . S
N6058 H6070 0.984 . S
N6058 H6071 0.985 . S
N6059 C6061 1.356 . S
N6059 H6064 0.984 . S
N6059 H6065 0.985 . S
C6060 C6054 1.379 . S
C6060 C6057 1.363 . S
C6060 N6058 1.356 . S
C6061 C6055 1.363 . S
C6061 C6056 1.379 . S
C6061 N6059 1.356 . S
N6062 C6054 1.356 . S
N6062 H6068 0.984 . S
N6062 H6069 0.984 . S
N6063 C6056 1.356 . S
N6063 H6066 0.984 . S
N6063 H6067 0.985 . S
H6064 N6059 0.984 . S
H6065 N6059 0.985 . S
H6066 N6063 0.984 . S
H6067 N6063 0.985 . S
H6068 N6062 0.984 . S
H6069 N6062 0.984 . S
H6070 N6058 0.984 . S
H6071 N6058 0.985 . S
C6072 C6073 1.363 . S
C6072 C6078 1.379 . S
C6072 N6080 1.356 . S
C6073 C6072 1.363 . S
C6073 C6079 1.363 . S
C6074 C6075 1.363 . S
C6074 C6079 1.379 . S
C6074 N6081 1.356 . S
C6075 C6074 1.363 . S
C6075 C6078 1.363 . S
N6076 C6078 1.356 . S
N6076 H6088 0.984 . S
N6076 H6089 0.985 . S
N6077 C6079 1.356 . S
N6077 H6082 0.984 . S
N6077 H6083 0.985 . S
C6078 C6072 1.379 . S
C6078 C6075 1.363 . S
C6078 N6076 1.356 . S
C6079 C6073 1.363 . S
C6079 C6074 1.379 . S
C6079 N6077 1.356 . S
N6080 C6072 1.356 . S
N6080 H6086 0.984 . S
N6080 H6087 0.984 . S
N6081 C6074 1.356 . S
N6081 H6084 0.984 . S
N6081 H6085 0.985 . S
H6082 N6077 0.984 . S
H6083 N6077 0.985 . S
H6084 N6081 0.984 . S
H6085 N6081 0.985 . S
H6086 N6080 0.984 . S
H6087 N6080 0.984 . S
H6088 N6076 0.984 . S
H6089 N6076 0.985 . S
C6090 C6091 1.363 . S
C6090 C6096 1.379 . S
C6090 N6098 1.356 . S
C6091 C6090 1.363 . S
C6091 C6097 1.363 . S
C6092 C6093 1.363 . S
C6092 C6097 1.379 . S
C6092 N6099 1.356 . S
C6093 C6092 1.363 . S
C6093 C6096 1.363 . S
N6094 C6096 1.356 . S
N6094 H6106 0.984 . S
N6094 H6107 0.985 . S
N6095 C6097 1.356 . S
N6095 H6100 0.984 . S
N6095 H6101 0.985 . S
C6096 C6090 1.379 . S
C6096 C6093 1.363 . S
C6096 N6094 1.356 . S
C6097 C6091 1.363 . S
C6097 C6092 1.379 . S
C6097 N6095 1.356 . S
N6098 C6090 1.356 . S
N6098 H6104 0.984 . S
N6098 H6105 0.984 . S
N6099 C6092 1.356 . S
N6099 H6102 0.984 . S
N6099 H6103 0.985 . S
H6100 N6095 0.984 . S
H6101 N6095 0.985 . S
H6102 N6099 0.984 . S
H6103 N6099 0.985 . S
H6104 N6098 0.984 . S
H6105 N6098 0.984 . S
H6106 N6094 0.984 . S
H6107 N6094 0.985 . S
C6108 C6109 1.363 . S
C6108 C6114 1.379 . S
C6108 N6116 1.356 . S
C6109 C6108 1.363 . S
C6109 C6115 1.363 . S
C6110 C6111 1.363 . S
C6110 C6115 1.379 . S
C6110 N6117 1.356 . S
C6111 C6110 1.363 . S
C6111 C6114 1.363 . S
N6112 C6114 1.356 . S
N6112 H6124 0.984 . S
N6112 H6125 0.985 . S
N6113 C6115 1.356 . S
N6113 H6118 0.984 . S
N6113 H6119 0.985 . S
C6114 C6108 1.379 . S
C6114 C6111 1.363 . S
C6114 N6112 1.356 . S
C6115 C6109 1.363 . S
C6115 C6110 1.379 . S
C6115 N6113 1.356 . S
N6116 C6108 1.356 . S
N6116 H6122 0.984 . S
N6116 H6123 0.984 . S
N6117 C6110 1.356 . S
N6117 H6120 0.984 . S
N6117 H6121 0.985 . S
H6118 N6113 0.984 . S
H6119 N6113 0.985 . S
H6120 N6117 0.984 . S
H6121 N6117 0.985 . S
H6122 N6116 0.984 . S
H6123 N6116 0.984 . S
H6124 N6112 0.984 . S
H6125 N6112 0.985 . S
C6126 C6127 1.363 . S
C6126 C6132 1.379 . S
C6126 N6134 1.356 . S
C6127 C6126 1.363 . S
C6127 C6133 1.363 . S
C6128 C6129 1.363 . S
C6128 C6133 1.379 . S
C6128 N6135 1.356 . S
C6129 C6128 1.363 . S
C6129 C6132 1.363 . S
N6130 C6132 1.356 . S
N6130 H6142 0.984 . S
N6130 H6143 0.985 . S
N6131 C6133 1.356 . S
N6131 H6136 0.984 . S
N6131 H6137 0.985 . S
C6132 C6126 1.379 . S
C6132 C6129 1.363 . S
C6132 N6130 1.356 . S
C6133 C6127 1.363 . S
C6133 C6128 1.379 . S
C6133 N6131 1.356 . S
N6134 C6126 1.356 . S
N6134 H6140 0.984 . S
N6134 H6141 0.984 . S
N6135 C6128 1.356 . S
N6135 H6138 0.984 . S
N6135 H6139 0.985 . S
H6136 N6131 0.984 . S
H6137 N6131 0.985 . S
H6138 N6135 0.984 . S
H6139 N6135 0.985 . S
H6140 N6134 0.984 . S
H6141 N6134 0.984 . S
H6142 N6130 0.984 . S
H6143 N6130 0.985 . S
C6144 C6145 1.363 . S
C6144 C6150 1.379 . S
C6144 N6152 1.356 . S
C6145 C6144 1.363 . S
C6145 C6151 1.363 . S
C6146 C6147 1.363 . S
C6146 C6151 1.379 . S
C6146 N6153 1.356 . S
C6147 C6146 1.363 . S
C6147 C6150 1.363 . S
N6148 C6150 1.356 . S
N6148 H6160 0.984 . S
N6148 H6161 0.985 . S
N6149 C6151 1.356 . S
N6149 H6154 0.984 . S
N6149 H6155 0.985 . S
C6150 C6144 1.379 . S
C6150 C6147 1.363 . S
C6150 N6148 1.356 . S
C6151 C6145 1.363 . S
C6151 C6146 1.379 . S
C6151 N6149 1.356 . S
N6152 C6144 1.356 . S
N6152 H6158 0.984 . S
N6152 H6159 0.984 . S
N6153 C6146 1.356 . S
N6153 H6156 0.984 . S
N6153 H6157 0.985 . S
H6154 N6149 0.984 . S
H6155 N6149 0.985 . S
H6156 N6153 0.984 . S
H6157 N6153 0.985 . S
H6158 N6152 0.984 . S
H6159 N6152 0.984 . S
H6160 N6148 0.984 . S
H6161 N6148 0.985 . S
C6162 C6163 1.363 . S
C6162 C6168 1.379 . S
C6162 N6170 1.356 . S
C6163 C6162 1.363 . S
C6163 C6169 1.363 . S
C6164 C6165 1.363 . S
C6164 C6169 1.379 . S
C6164 N6171 1.356 . S
C6165 C6164 1.363 . S
C6165 C6168 1.363 . S
N6166 C6168 1.356 . S
N6166 H6178 0.984 . S
N6166 H6179 0.985 . S
N6167 C6169 1.356 . S
N6167 H6172 0.984 . S
N6167 H6173 0.985 . S
C6168 C6162 1.379 . S
C6168 C6165 1.363 . S
C6168 N6166 1.356 . S
C6169 C6163 1.363 . S
C6169 C6164 1.379 . S
C6169 N6167 1.356 . S
N6170 C6162 1.356 . S
N6170 H6176 0.984 . S
N6170 H6177 0.984 . S
N6171 C6164 1.356 . S
N6171 H6174 0.984 . S
N6171 H6175 0.985 . S
H6172 N6167 0.984 . S
H6173 N6167 0.985 . S
H6174 N6171 0.984 . S
H6175 N6171 0.985 . S
H6176 N6170 0.984 . S
H6177 N6170 0.984 . S
H6178 N6166 0.984 . S
H6179 N6166 0.985 . S
C6180 C6181 1.363 . S
C6180 C6186 1.379 . S
C6180 N6188 1.356 . S
C6181 C6180 1.363 . S
C6181 C6187 1.363 . S
C6182 C6183 1.363 . S
C6182 C6187 1.379 . S
C6182 N6189 1.356 . S
C6183 C6182 1.363 . S
C6183 C6186 1.363 . S
N6184 C6186 1.356 . S
N6184 H6196 0.984 . S
N6184 H6197 0.985 . S
N6185 C6187 1.356 . S
N6185 H6190 0.984 . S
N6185 H6191 0.985 . S
C6186 C6180 1.379 . S
C6186 C6183 1.363 . S
C6186 N6184 1.356 . S
C6187 C6181 1.363 . S
C6187 C6182 1.379 . S
C6187 N6185 1.356 . S
N6188 C6180 1.356 . S
N6188 H6194 0.984 . S
N6188 H6195 0.984 . S
N6189 C6182 1.356 . S
N6189 H6192 0.984 . S
N6189 H6193 0.985 . S
H6190 N6185 0.984 . S
H6191 N6185 0.985 . S
H6192 N6189 0.984 . S
H6193 N6189 0.985 . S
H6194 N6188 0.984 . S
H6195 N6188 0.984 . S
H6196 N6184 0.984 . S
H6197 N6184 0.985 . S
C6198 C6199 1.363 . S
C6198 C6204 1.379 1_556 S
C6198 N6206 1.356 . S
C6199 C6198 1.363 . S
C6199 C6205 1.363 . S
C6200 C6201 1.363 . S
C6200 C6205 1.379 1_554 S
C6200 N6207 1.356 . S
C6201 C6200 1.363 . S
C6201 C6204 1.363 . S
N6202 C6204 1.356 . S
N6202 H6214 0.984 . S
N6202 H6215 0.985 . S
N6203 C6205 1.356 . S
N6203 H6208 0.984 . S
N6203 H6209 0.985 . S
C6204 C6198 1.379 1_554 S
C6204 C6201 1.363 . S
C6204 N6202 1.356 . S
C6205 C6199 1.363 . S
C6205 C6200 1.379 1_556 S
C6205 N6203 1.356 . S
N6206 C6198 1.356 . S
N6206 H6212 0.984 . S
N6206 H6213 0.984 . S
N6207 C6200 1.356 . S
N6207 H6210 0.984 . S
N6207 H6211 0.985 . S
H6208 N6203 0.984 . S
H6209 N6203 0.985 . S
H6210 N6207 0.984 . S
H6211 N6207 0.985 . S
H6212 N6206 0.984 . S
H6213 N6206 0.984 . S
H6214 N6202 0.984 . S
H6215 N6202 0.985 . S
C6216 C6217 1.363 . S
C6216 C6222 1.379 . S
C6216 N6224 1.356 . S
C6217 C6216 1.363 . S
C6217 C6223 1.363 . S
C6218 C6219 1.363 . S
C6218 C6223 1.379 . S
C6218 N6225 1.356 . S
C6219 C6218 1.363 . S
C6219 C6222 1.363 . S
N6220 C6222 1.356 . S
N6220 H6232 0.984 . S
N6220 H6233 0.985 . S
N6221 C6223 1.356 . S
N6221 H6226 0.984 . S
N6221 H6227 0.985 . S
C6222 C6216 1.379 . S
C6222 C6219 1.363 . S
C6222 N6220 1.356 . S
C6223 C6217 1.363 . S
C6223 C6218 1.379 . S
C6223 N6221 1.356 . S
N6224 C6216 1.356 . S
N6224 H6230 0.984 . S
N6224 H6231 0.984 . S
N6225 C6218 1.356 . S
N6225 H6228 0.984 . S
N6225 H6229 0.985 . S
H6226 N6221 0.984 . S
H6227 N6221 0.985 . S
H6228 N6225 0.984 . S
H6229 N6225 0.985 . S
H6230 N6224 0.984 . S
H6231 N6224 0.984 . S
H6232 N6220 0.984 . S
H6233 N6220 0.985 . S
C6234 C6235 1.363 . S
C6234 C6240 1.379 1_554 S
C6234 N6242 1.356 . S
C6235 C6234 1.363 . S
C6235 C6241 1.363 . S
C6236 C6237 1.363 . S
C6236 C6241 1.379 1_556 S
C6236 N6243 1.356 . S
C6237 C6236 1.363 . S
C6237 C6240 1.363 . S
N6238 C6240 1.356 . S
N6238 H6250 0.984 . S
N6238 H6251 0.985 . S
N6239 C6241 1.356 . S
N6239 H6244 0.984 . S
N6239 H6245 0.985 . S
C6240 C6234 1.379 1_556 S
C6240 C6237 1.363 . S
C6240 N6238 1.356 . S
C6241 C6235 1.363 . S
C6241 C6236 1.379 1_554 S
C6241 N6239 1.356 . S
N6242 C6234 1.356 . S
N6242 H6248 0.984 . S
N6242 H6249 0.984 . S
N6243 C6236 1.356 . S
N6243 H6246 0.984 . S
N6243 H6247 0.985 . S
H6244 N6239 0.984 . S
H6245 N6239 0.985 . S
H6246 N6243 0.984 . S
H6247 N6243 0.985 . S
H6248 N6242 0.984 . S
H6249 N6242 0.984 . S
H6250 N6238 0.984 . S
H6251 N6238 0.985 . S
C6252 C6253 1.363 . S
C6252 C6258 1.379 . S
C6252 N6260 1.356 . S
C6253 C6252 1.363 . S
C6253 C6259 1.363 . S
C6254 C6255 1.363 . S
C6254 C6259 1.379 . S
C6254 N6261 1.356 . S
C6255 C6254 1.363 . S
C6255 C6258 1.363 . S
N6256 C6258 1.356 . S
N6256 H6268 0.984 . S
N6256 H6269 0.985 . S
N6257 C6259 1.356 . S
N6257 H6262 0.984 . S
N6257 H6263 0.985 . S
C6258 C6252 1.379 . S
C6258 C6255 1.363 . S
C6258 N6256 1.356 . S
C6259 C6253 1.363 . S
C6259 C6254 1.379 . S
C6259 N6257 1.356 . S
N6260 C6252 1.356 . S
N6260 H6266 0.984 . S
N6260 H6267 0.984 . S
N6261 C6254 1.356 . S
N6261 H6264 0.984 . S
N6261 H6265 0.985 . S
H6262 N6257 0.984 . S
H6263 N6257 0.985 . S
H6264 N6261 0.984 . S
H6265 N6261 0.985 . S
H6266 N6260 0.984 . S
H6267 N6260 0.984 . S
H6268 N6256 0.984 . S
H6269 N6256 0.985 . S
C6270 C6271 1.363 . S
C6270 C6276 1.379 . S
C6270 N6278 1.356 . S
C6271 C6270 1.363 . S
C6271 C6277 1.363 . S
C6272 C6273 1.363 . S
C6272 C6277 1.379 . S
C6272 N6279 1.356 . S
C6273 C6272 1.363 . S
C6273 C6276 1.363 . S
N6274 C6276 1.356 . S
N6274 H6286 0.984 . S
N6274 H6287 0.985 . S
N6275 C6277 1.356 . S
N6275 H6280 0.984 . S
N6275 H6281 0.985 . S
C6276 C6270 1.379 . S
C6276 C6273 1.363 . S
C6276 N6274 1.356 . S
C6277 C6271 1.363 . S
C6277 C6272 1.379 . S
C6277 N6275 1.356 . S
N6278 C6270 1.356 . S
N6278 H6284 0.984 . S
N6278 H6285 0.984 . S
N6279 C6272 1.356 . S
N6279 H6282 0.984 . S
N6279 H6283 0.985 . S
H6280 N6275 0.984 . S
H6281 N6275 0.985 . S
H6282 N6279 0.984 . S
H6283 N6279 0.985 . S
H6284 N6278 0.984 . S
H6285 N6278 0.984 . S
H6286 N6274 0.984 . S
H6287 N6274 0.985 . S
C6288 C6289 1.363 . S
C6288 C6294 1.379 . S
C6288 N6296 1.356 . S
C6289 C6288 1.363 . S
C6289 C6295 1.363 . S
C6290 C6291 1.363 . S
C6290 C6295 1.379 . S
C6290 N6297 1.356 . S
C6291 C6290 1.363 . S
C6291 C6294 1.363 . S
N6292 C6294 1.356 . S
N6292 H6304 0.984 . S
N6292 H6305 0.985 . S
N6293 C6295 1.356 . S
N6293 H6298 0.984 . S
N6293 H6299 0.985 . S
C6294 C6288 1.379 . S
C6294 C6291 1.363 . S
C6294 N6292 1.356 . S
C6295 C6289 1.363 . S
C6295 C6290 1.379 . S
C6295 N6293 1.356 . S
N6296 C6288 1.356 . S
N6296 H6302 0.984 . S
N6296 H6303 0.984 . S
N6297 C6290 1.356 . S
N6297 H6300 0.984 . S
N6297 H6301 0.985 . S
H6298 N6293 0.984 . S
H6299 N6293 0.985 . S
H6300 N6297 0.984 . S
H6301 N6297 0.985 . S
H6302 N6296 0.984 . S
H6303 N6296 0.984 . S
H6304 N6292 0.984 . S
H6305 N6292 0.985 . S
C6306 C6307 1.363 . S
C6306 C6312 1.379 . S
C6306 N6314 1.356 . S
C6307 C6306 1.363 . S
C6307 C6313 1.363 . S
C6308 C6309 1.363 . S
C6308 C6313 1.379 . S
C6308 N6315 1.356 . S
C6309 C6308 1.363 . S
C6309 C6312 1.363 . S
N6310 C6312 1.356 . S
N6310 H6322 0.984 . S
N6310 H6323 0.985 . S
N6311 C6313 1.356 . S
N6311 H6316 0.984 . S
N6311 H6317 0.985 . S
C6312 C6306 1.379 . S
C6312 C6309 1.363 . S
C6312 N6310 1.356 . S
C6313 C6307 1.363 . S
C6313 C6308 1.379 . S
C6313 N6311 1.356 . S
N6314 C6306 1.356 . S
N6314 H6320 0.984 . S
N6314 H6321 0.984 . S
N6315 C6308 1.356 . S
N6315 H6318 0.984 . S
N6315 H6319 0.985 . S
H6316 N6311 0.984 . S
H6317 N6311 0.985 . S
H6318 N6315 0.984 . S
H6319 N6315 0.985 . S
H6320 N6314 0.984 . S
H6321 N6314 0.984 . S
H6322 N6310 0.984 . S
H6323 N6310 0.985 . S
C6324 C6325 1.363 . S
C6324 C6330 1.379 1_455 S
C6324 N6332 1.356 . S
C6325 C6324 1.363 . S
C6325 C6331 1.363 . S
C6326 C6327 1.363 . S
C6326 C6331 1.379 1_655 S
C6326 N6333 1.356 . S
C6327 C6326 1.363 . S
C6327 C6330 1.363 . S
N6328 C6330 1.356 . S
N6328 H6340 0.984 . S
N6328 H6341 0.985 . S
N6329 C6331 1.356 . S
N6329 H6334 0.984 . S
N6329 H6335 0.985 . S
C6330 C6324 1.379 1_655 S
C6330 C6327 1.363 . S
C6330 N6328 1.356 . S
C6331 C6325 1.363 . S
C6331 C6326 1.379 1_455 S
C6331 N6329 1.356 . S
N6332 C6324 1.356 . S
N6332 H6338 0.984 . S
N6332 H6339 0.984 . S
N6333 C6326 1.356 . S
N6333 H6336 0.984 . S
N6333 H6337 0.985 . S
H6334 N6329 0.984 . S
H6335 N6329 0.985 . S
H6336 N6333 0.984 . S
H6337 N6333 0.985 . S
H6338 N6332 0.984 . S
H6339 N6332 0.984 . S
H6340 N6328 0.984 . S
H6341 N6328 0.985 . S
C6342 C6343 1.363 . S
C6342 C6348 1.379 . S
C6342 N6350 1.356 . S
C6343 C6342 1.363 . S
C6343 C6349 1.363 . S
C6344 C6345 1.363 . S
C6344 C6349 1.379 . S
C6344 N6351 1.356 . S
C6345 C6344 1.363 . S
C6345 C6348 1.363 . S
N6346 C6348 1.356 . S
N6346 H6358 0.984 . S
N6346 H6359 0.985 . S
N6347 C6349 1.356 . S
N6347 H6352 0.984 . S
N6347 H6353 0.985 . S
C6348 C6342 1.379 . S
C6348 C6345 1.363 . S
C6348 N6346 1.356 . S
C6349 C6343 1.363 . S
C6349 C6344 1.379 . S
C6349 N6347 1.356 . S
N6350 C6342 1.356 . S
N6350 H6356 0.984 . S
N6350 H6357 0.984 . S
N6351 C6344 1.356 . S
N6351 H6354 0.984 . S
N6351 H6355 0.985 . S
H6352 N6347 0.984 . S
H6353 N6347 0.985 . S
H6354 N6351 0.984 . S
H6355 N6351 0.985 . S
H6356 N6350 0.984 . S
H6357 N6350 0.984 . S
H6358 N6346 0.984 . S
H6359 N6346 0.985 . S
C6360 C6361 1.363 . S
C6360 C6366 1.379 . S
C6360 N6368 1.356 . S
C6361 C6360 1.363 . S
C6361 C6367 1.363 . S
C6362 C6363 1.363 . S
C6362 C6367 1.379 . S
C6362 N6369 1.356 . S
C6363 C6362 1.363 . S
C6363 C6366 1.363 . S
N6364 C6366 1.356 . S
N6364 H6376 0.984 . S
N6364 H6377 0.985 . S
N6365 C6367 1.356 . S
N6365 H6370 0.984 . S
N6365 H6371 0.985 . S
C6366 C6360 1.379 . S
C6366 C6363 1.363 . S
C6366 N6364 1.356 . S
C6367 C6361 1.363 . S
C6367 C6362 1.379 . S
C6367 N6365 1.356 . S
N6368 C6360 1.356 . S
N6368 H6374 0.984 . S
N6368 H6375 0.984 . S
N6369 C6362 1.356 . S
N6369 H6372 0.984 . S
N6369 H6373 0.985 . S
H6370 N6365 0.984 . S
H6371 N6365 0.985 . S
H6372 N6369 0.984 . S
H6373 N6369 0.985 . S
H6374 N6368 0.984 . S
H6375 N6368 0.984 . S
H6376 N6364 0.984 . S
H6377 N6364 0.985 . S
C6378 C6379 1.363 . S
C6378 C6384 1.379 . S
C6378 N6386 1.356 . S
C6379 C6378 1.363 . S
C6379 C6385 1.363 . S
C6380 C6381 1.363 . S
C6380 C6385 1.379 . S
C6380 N6387 1.356 . S
C6381 C6380 1.363 . S
C6381 C6384 1.363 . S
N6382 C6384 1.356 . S
N6382 H6394 0.984 . S
N6382 H6395 0.985 . S
N6383 C6385 1.356 . S
N6383 H6388 0.984 . S
N6383 H6389 0.985 . S
C6384 C6378 1.379 . S
C6384 C6381 1.363 . S
C6384 N6382 1.356 . S
C6385 C6379 1.363 . S
C6385 C6380 1.379 . S
C6385 N6383 1.356 . S
N6386 C6378 1.356 . S
N6386 H6392 0.984 . S
N6386 H6393 0.984 . S
N6387 C6380 1.356 . S
N6387 H6390 0.984 . S
N6387 H6391 0.985 . S
H6388 N6383 0.984 . S
H6389 N6383 0.985 . S
H6390 N6387 0.984 . S
H6391 N6387 0.985 . S
H6392 N6386 0.984 . S
H6393 N6386 0.984 . S
H6394 N6382 0.984 . S
H6395 N6382 0.985 . S
C6396 C6397 1.363 . S
C6396 C6402 1.379 1_455 S
C6396 N6404 1.356 . S
C6397 C6396 1.363 . S
C6397 C6403 1.363 . S
C6398 C6399 1.355 . S
C6398 C6403 1.388 1_655 S
C6398 N6405 1.352 . S
C6399 C6398 1.355 . S
C6399 C6402 1.363 . S
N6400 C6402 1.356 . S
N6400 H6412 0.984 . S
N6400 H6413 0.985 . S
N6401 C6403 1.356 . S
N6401 H6406 0.984 . S
N6401 H6407 0.985 . S
C6402 C6396 1.379 1_655 S
C6402 C6399 1.363 . S
C6402 N6400 1.356 . S
C6403 C6397 1.363 . S
C6403 C6398 1.388 1_455 S
C6403 N6401 1.356 . S
N6404 C6396 1.356 . S
N6404 H6410 0.984 . S
N6404 H6411 0.984 . S
N6405 C6398 1.352 . S
N6405 H6408 0.984 . S
N6405 H6409 0.982 1_655 S
H6406 N6401 0.984 . S
H6407 N6401 0.985 . S
H6408 N6405 0.984 . S
H6409 N6405 0.982 1_455 S
H6410 N6404 0.984 . S
H6411 N6404 0.984 . S
H6412 N6400 0.984 . S
H6413 N6400 0.985 . S
C6414 C6415 1.363 . S
C6414 C6420 1.379 . S
C6414 N6422 1.356 . S
C6415 C6414 1.363 . S
C6415 C6421 1.363 . S
C6416 C6417 1.363 . S
C6416 C6421 1.379 . S
C6416 N6423 1.356 . S
C6417 C6416 1.363 . S
C6417 C6420 1.363 . S
N6418 C6420 1.356 . S
N6418 H6430 0.984 . S
N6418 H6431 0.985 . S
N6419 C6421 1.356 . S
N6419 H6424 0.984 . S
N6419 H6425 0.985 . S
C6420 C6414 1.379 . S
C6420 C6417 1.363 . S
C6420 N6418 1.356 . S
C6421 C6415 1.363 . S
C6421 C6416 1.379 . S
C6421 N6419 1.356 . S
N6422 C6414 1.356 . S
N6422 H6428 0.984 . S
N6422 H6429 0.984 . S
N6423 C6416 1.356 . S
N6423 H6426 0.984 . S
N6423 H6427 0.985 . S
H6424 N6419 0.984 . S
H6425 N6419 0.985 . S
H6426 N6423 0.984 . S
H6427 N6423 0.985 . S
H6428 N6422 0.984 . S
H6429 N6422 0.984 . S
H6430 N6418 0.984 . S
H6431 N6418 0.985 . S
C6432 C6433 1.363 . S
C6432 C6438 1.379 . S
C6432 N6440 1.356 . S
C6433 C6432 1.363 . S
C6433 C6439 1.363 . S
C6434 C6435 1.363 . S
C6434 C6439 1.379 . S
C6434 N6441 1.356 . S
C6435 C6434 1.363 . S
C6435 C6438 1.363 . S
N6436 C6438 1.356 . S
N6436 H6448 0.984 . S
N6436 H6449 0.985 . S
N6437 C6439 1.356 . S
N6437 H6442 0.984 . S
N6437 H6443 0.985 . S
C6438 C6432 1.379 . S
C6438 C6435 1.363 . S
C6438 N6436 1.356 . S
C6439 C6433 1.363 . S
C6439 C6434 1.379 . S
C6439 N6437 1.356 . S
N6440 C6432 1.356 . S
N6440 H6446 0.984 . S
N6440 H6447 0.984 . S
N6441 C6434 1.356 . S
N6441 H6444 0.984 . S
N6441 H6445 0.985 . S
H6442 N6437 0.984 . S
H6443 N6437 0.985 . S
H6444 N6441 0.984 . S
H6445 N6441 0.985 . S
H6446 N6440 0.984 . S
H6447 N6440 0.984 . S
H6448 N6436 0.984 . S
H6449 N6436 0.985 . S
C6450 C6451 1.363 . S
C6450 C6456 1.379 . S
C6450 N6458 1.356 . S
C6451 C6450 1.363 . S
C6451 C6457 1.363 . S
C6452 C6453 1.363 . S
C6452 C6457 1.379 . S
C6452 N6459 1.356 . S
C6453 C6452 1.363 . S
C6453 C6456 1.363 . S
N6454 C6456 1.356 . S
N6454 H6466 0.984 . S
N6454 H6467 0.985 . S
N6455 C6457 1.356 . S
N6455 H6460 0.984 . S
N6455 H6461 0.985 . S
C6456 C6450 1.379 . S
C6456 C6453 1.363 . S
C6456 N6454 1.356 . S
C6457 C6451 1.363 . S
C6457 C6452 1.379 . S
C6457 N6455 1.356 . S
N6458 C6450 1.356 . S
N6458 H6464 0.984 . S
N6458 H6465 0.984 . S
N6459 C6452 1.356 . S
N6459 H6462 0.984 . S
N6459 H6463 0.985 . S
H6460 N6455 0.984 . S
H6461 N6455 0.985 . S
H6462 N6459 0.984 . S
H6463 N6459 0.985 . S
H6464 N6458 0.984 . S
H6465 N6458 0.984 . S
H6466 N6454 0.984 . S
H6467 N6454 0.985 . S
C6468 C6469 1.363 . S
C6468 C6474 1.379 . S
C6468 N6476 1.356 . S
C6469 C6468 1.363 . S
C6469 C6475 1.363 . S
C6470 C6471 1.363 . S
C6470 C6475 1.379 . S
C6470 N6477 1.356 . S
C6471 C6470 1.363 . S
C6471 C6474 1.363 . S
N6472 C6474 1.356 . S
N6472 H6484 0.984 . S
N6472 H6485 0.985 . S
N6473 C6475 1.356 . S
N6473 H6478 0.984 . S
N6473 H6479 0.985 . S
C6474 C6468 1.379 . S
C6474 C6471 1.363 . S
C6474 N6472 1.356 . S
C6475 C6469 1.363 . S
C6475 C6470 1.379 . S
C6475 N6473 1.356 . S
N6476 C6468 1.356 . S
N6476 H6482 0.984 . S
N6476 H6483 0.984 . S
N6477 C6470 1.356 . S
N6477 H6480 0.984 . S
N6477 H6481 0.985 . S
H6478 N6473 0.984 . S
H6479 N6473 0.985 . S
H6480 N6477 0.984 . S
H6481 N6477 0.985 . S
H6482 N6476 0.984 . S
H6483 N6476 0.984 . S
H6484 N6472 0.984 . S
H6485 N6472 0.985 . S
C6486 C6487 1.363 . S
C6486 C6492 1.379 . S
C6486 N6494 1.356 . S
C6487 C6486 1.363 . S
C6487 C6493 1.363 . S
C6488 C6489 1.363 . S
C6488 C6493 1.379 . S
C6488 N6495 1.356 . S
C6489 C6488 1.363 . S
C6489 C6492 1.363 . S
N6490 C6492 1.356 . S
N6490 H6502 0.984 . S
N6490 H6503 0.985 . S
N6491 C6493 1.356 . S
N6491 H6496 0.984 . S
N6491 H6497 0.985 . S
C6492 C6486 1.379 . S
C6492 C6489 1.363 . S
C6492 N6490 1.356 . S
C6493 C6487 1.363 . S
C6493 C6488 1.379 . S
C6493 N6491 1.356 . S
N6494 C6486 1.356 . S
N6494 H6500 0.984 . S
N6494 H6501 0.984 . S
N6495 C6488 1.356 . S
N6495 H6498 0.984 . S
N6495 H6499 0.985 . S
H6496 N6491 0.984 . S
H6497 N6491 0.985 . S
H6498 N6495 0.984 . S
H6499 N6495 0.985 . S
H6500 N6494 0.984 . S
H6501 N6494 0.984 . S
H6502 N6490 0.984 . S
H6503 N6490 0.985 . S
C6504 C6505 1.363 . S
C6504 C6510 1.379 . S
C6504 N6512 1.356 . S
C6505 C6504 1.363 . S
C6505 C6511 1.363 . S
C6506 C6507 1.363 . S
C6506 C6511 1.379 . S
C6506 N6513 1.356 . S
C6507 C6506 1.363 . S
C6507 C6510 1.363 . S
N6508 C6510 1.356 . S
N6508 H6520 0.984 . S
N6508 H6521 0.985 . S
N6509 C6511 1.356 . S
N6509 H6514 0.984 . S
N6509 H6515 0.985 . S
C6510 C6504 1.379 . S
C6510 C6507 1.363 . S
C6510 N6508 1.356 . S
C6511 C6505 1.363 . S
C6511 C6506 1.379 . S
C6511 N6509 1.356 . S
N6512 C6504 1.356 . S
N6512 H6518 0.984 . S
N6512 H6519 0.984 . S
N6513 C6506 1.356 . S
N6513 H6516 0.984 . S
N6513 H6517 0.985 . S
H6514 N6509 0.984 . S
H6515 N6509 0.985 . S
H6516 N6513 0.984 . S
H6517 N6513 0.985 . S
H6518 N6512 0.984 . S
H6519 N6512 0.984 . S
H6520 N6508 0.984 . S
H6521 N6508 0.985 . S
C6522 C6523 1.363 . S
C6522 C6528 1.379 . S
C6522 N6530 1.356 . S
C6523 C6522 1.363 . S
C6523 C6529 1.363 . S
C6524 C6525 1.363 . S
C6524 C6529 1.379 . S
C6524 N6531 1.356 . S
C6525 C6524 1.363 . S
C6525 C6528 1.363 . S
N6526 C6528 1.356 . S
N6526 H6538 0.984 . S
N6526 H6539 0.985 . S
N6527 C6529 1.356 . S
N6527 H6532 0.984 . S
N6527 H6533 0.985 . S
C6528 C6522 1.379 . S
C6528 C6525 1.363 . S
C6528 N6526 1.356 . S
C6529 C6523 1.363 . S
C6529 C6524 1.379 . S
C6529 N6527 1.356 . S
N6530 C6522 1.356 . S
N6530 H6536 0.984 . S
N6530 H6537 0.984 . S
N6531 C6524 1.356 . S
N6531 H6534 0.984 . S
N6531 H6535 0.985 . S
H6532 N6527 0.984 . S
H6533 N6527 0.985 . S
H6534 N6531 0.984 . S
H6535 N6531 0.985 . S
H6536 N6530 0.984 . S
H6537 N6530 0.984 . S
H6538 N6526 0.984 . S
H6539 N6526 0.985 . S
C6540 C6541 1.363 . S
C6540 C6546 1.379 . S
C6540 N6548 1.356 . S
C6541 C6540 1.363 . S
C6541 C6547 1.363 . S
C6542 C6543 1.363 . S
C6542 C6547 1.379 . S
C6542 N6549 1.356 . S
C6543 C6542 1.363 . S
C6543 C6546 1.363 . S
N6544 C6546 1.356 . S
N6544 H6556 0.984 . S
N6544 H6557 0.985 . S
N6545 C6547 1.356 . S
N6545 H6550 0.984 . S
N6545 H6551 0.985 . S
C6546 C6540 1.379 . S
C6546 C6543 1.363 . S
C6546 N6544 1.356 . S
C6547 C6541 1.363 . S
C6547 C6542 1.379 . S
C6547 N6545 1.356 . S
N6548 C6540 1.356 . S
N6548 H6554 0.984 . S
N6548 H6555 0.984 . S
N6549 C6542 1.356 . S
N6549 H6552 0.984 . S
N6549 H6553 0.985 . S
H6550 N6545 0.984 . S
H6551 N6545 0.985 . S
H6552 N6549 0.984 . S
H6553 N6549 0.985 . S
H6554 N6548 0.984 . S
H6555 N6548 0.984 . S
H6556 N6544 0.984 . S
H6557 N6544 0.985 . S
C6558 C6559 1.363 . S
C6558 C6564 1.379 . S
C6558 N6566 1.356 . S
C6559 C6558 1.363 . S
C6559 C6565 1.363 . S
C6560 C6561 1.363 . S
C6560 C6565 1.379 . S
C6560 N6567 1.356 . S
C6561 C6560 1.363 . S
C6561 C6564 1.363 . S
N6562 C6564 1.356 . S
N6562 H6574 0.984 . S
N6562 H6575 0.985 . S
N6563 C6565 1.356 . S
N6563 H6568 0.984 . S
N6563 H6569 0.985 . S
C6564 C6558 1.379 . S
C6564 C6561 1.363 . S
C6564 N6562 1.356 . S
C6565 C6559 1.363 . S
C6565 C6560 1.379 . S
C6565 N6563 1.356 . S
N6566 C6558 1.356 . S
N6566 H6572 0.984 . S
N6566 H6573 0.984 . S
N6567 C6560 1.356 . S
N6567 H6570 0.984 . S
N6567 H6571 0.985 . S
H6568 N6563 0.984 . S
H6569 N6563 0.985 . S
H6570 N6567 0.984 . S
H6571 N6567 0.985 . S
H6572 N6566 0.984 . S
H6573 N6566 0.984 . S
H6574 N6562 0.984 . S
H6575 N6562 0.985 . S
C6576 C6577 1.363 . S
C6576 C6582 1.379 . S
C6576 N6584 1.356 . S
C6577 C6576 1.363 . S
C6577 C6583 1.363 . S
C6578 C6579 1.363 . S
C6578 C6583 1.379 . S
C6578 N6585 1.356 . S
C6579 C6578 1.363 . S
C6579 C6582 1.363 . S
N6580 C6582 1.356 . S
N6580 H6592 0.984 . S
N6580 H6593 0.985 . S
N6581 C6583 1.356 . S
N6581 H6586 0.984 . S
N6581 H6587 0.985 . S
C6582 C6576 1.379 . S
C6582 C6579 1.363 . S
C6582 N6580 1.356 . S
C6583 C6577 1.363 . S
C6583 C6578 1.379 . S
C6583 N6581 1.356 . S
N6584 C6576 1.356 . S
N6584 H6590 0.984 . S
N6584 H6591 0.984 . S
N6585 C6578 1.356 . S
N6585 H6588 0.984 . S
N6585 H6589 0.985 . S
H6586 N6581 0.984 . S
H6587 N6581 0.985 . S
H6588 N6585 0.984 . S
H6589 N6585 0.985 . S
H6590 N6584 0.984 . S
H6591 N6584 0.984 . S
H6592 N6580 0.984 . S
H6593 N6580 0.985 . S
C6594 C6595 1.363 . S
C6594 C6600 1.379 . S
C6594 N6602 1.356 . S
C6595 C6594 1.363 . S
C6595 C6601 1.363 . S
C6596 C6597 1.363 . S
C6596 C6601 1.379 . S
C6596 N6603 1.356 . S
C6597 C6596 1.363 . S
C6597 C6600 1.363 . S
N6598 C6600 1.356 . S
N6598 H6610 0.984 . S
N6598 H6611 0.985 . S
N6599 C6601 1.356 . S
N6599 H6604 0.984 . S
N6599 H6605 0.985 . S
C6600 C6594 1.379 . S
C6600 C6597 1.363 . S
C6600 N6598 1.356 . S
C6601 C6595 1.363 . S
C6601 C6596 1.379 . S
C6601 N6599 1.356 . S
N6602 C6594 1.356 . S
N6602 H6608 0.984 . S
N6602 H6609 0.984 . S
N6603 C6596 1.356 . S
N6603 H6606 0.984 . S
N6603 H6607 0.985 . S
H6604 N6599 0.984 . S
H6605 N6599 0.985 . S
H6606 N6603 0.984 . S
H6607 N6603 0.985 . S
H6608 N6602 0.984 . S
H6609 N6602 0.984 . S
H6610 N6598 0.984 . S
H6611 N6598 0.985 . S
C6612 C6613 1.363 . S
C6612 C6618 1.379 . S
C6612 N6620 1.356 . S
C6613 C6612 1.363 . S
C6613 C6619 1.363 . S
C6614 C6615 1.363 . S
C6614 C6619 1.379 . S
C6614 N6621 1.356 . S
C6615 C6614 1.363 . S
C6615 C6618 1.363 . S
N6616 C6618 1.356 . S
N6616 H6628 0.984 . S
N6616 H6629 0.985 . S
N6617 C6619 1.356 . S
N6617 H6622 0.984 . S
N6617 H6623 0.985 . S
C6618 C6612 1.379 . S
C6618 C6615 1.363 . S
C6618 N6616 1.356 . S
C6619 C6613 1.363 . S
C6619 C6614 1.379 . S
C6619 N6617 1.356 . S
N6620 C6612 1.356 . S
N6620 H6626 0.984 . S
N6620 H6627 0.984 . S
N6621 C6614 1.356 . S
N6621 H6624 0.984 . S
N6621 H6625 0.985 . S
H6622 N6617 0.984 . S
H6623 N6617 0.985 . S
H6624 N6621 0.984 . S
H6625 N6621 0.985 . S
H6626 N6620 0.984 . S
H6627 N6620 0.984 . S
H6628 N6616 0.984 . S
H6629 N6616 0.985 . S
C6630 C6631 1.363 . S
C6630 C6636 1.435 . S
C6630 N6638 1.356 . S
C6631 C6630 1.363 . S
C6631 C6637 1.363 . S
C6632 C6633 1.363 . S
C6632 C6637 1.379 1_556 S
C6632 N6639 1.356 . S
C6633 C6632 1.363 . S
C6633 C6636 1.309 1_556 S
N6634 C6636 1.336 1_556 S
N6634 H6646 0.984 1_556 S
N6634 H6647 0.985 . S
N6635 C6637 1.356 . S
N6635 H6640 0.984 . S
N6635 H6641 1.028 . S
C6636 C6630 1.435 . S
C6636 C6633 1.309 1_554 S
C6636 N6634 1.336 1_554 S
C6637 C6631 1.363 . S
C6637 C6632 1.379 1_554 S
C6637 N6635 1.356 . S
N6638 C6630 1.356 . S
N6638 H6644 0.984 . S
N6638 H6645 0.984 . S
N6639 C6632 1.356 . S
N6639 H6642 0.984 . S
N6639 H6643 0.985 . S
H6640 N6635 0.984 . S
H6641 N6635 1.028 . S
H6642 N6639 0.984 . S
H6643 N6639 0.985 . S
H6644 N6638 0.984 . S
H6645 N6638 0.984 . S
H6646 N6634 0.984 1_554 S
H6647 N6634 0.985 . S
C6648 C6649 1.363 . S
C6648 C6654 1.379 . S
C6648 N6656 1.356 . S
C6649 C6648 1.363 . S
C6649 C6655 1.363 . S
C6650 C6651 1.363 . S
C6650 C6655 1.379 . S
C6650 N6657 1.356 . S
C6651 C6650 1.363 . S
C6651 C6654 1.363 . S
N6652 C6654 1.356 . S
N6652 H6664 0.984 . S
N6652 H6665 0.985 . S
N6653 C6655 1.356 . S
N6653 H6658 0.984 . S
N6653 H6659 0.985 . S
C6654 C6648 1.379 . S
C6654 C6651 1.363 . S
C6654 N6652 1.356 . S
C6655 C6649 1.363 . S
C6655 C6650 1.379 . S
C6655 N6653 1.356 . S
N6656 C6648 1.356 . S
N6656 H6662 0.984 . S
N6656 H6663 0.984 . S
N6657 C6650 1.356 . S
N6657 H6660 0.984 . S
N6657 H6661 0.985 . S
H6658 N6653 0.984 . S
H6659 N6653 0.985 . S
H6660 N6657 0.984 . S
H6661 N6657 0.985 . S
H6662 N6656 0.984 . S
H6663 N6656 0.984 . S
H6664 N6652 0.984 . S
H6665 N6652 0.985 . S
C6666 C6667 1.363 . S
C6666 C6672 1.379 1_556 S
C6666 N6674 1.356 . S
C6667 C6666 1.363 . S
C6667 C6673 1.363 . S
C6668 C6669 1.355 . S
C6668 C6673 1.387 1_554 S
C6668 N6675 1.352 . S
C6669 C6668 1.355 . S
C6669 C6672 1.363 . S
N6670 C6672 1.356 . S
N6670 H6682 0.984 . S
N6670 H6683 0.985 . S
N6671 C6673 1.356 . S
N6671 H6676 0.984 . S
N6671 H6677 0.985 . S
C6672 C6666 1.379 1_554 S
C6672 C6669 1.363 . S
C6672 N6670 1.356 . S
C6673 C6667 1.363 . S
C6673 C6668 1.387 1_556 S
C6673 N6671 1.356 . S
N6674 C6666 1.356 . S
N6674 H6680 0.984 . S
N6674 H6681 0.984 . S
N6675 C6668 1.352 . S
N6675 H6678 0.984 . S
N6675 H6679 0.982 1_554 S
H6676 N6671 0.984 . S
H6677 N6671 0.985 . S
H6678 N6675 0.984 . S
H6679 N6675 0.982 1_556 S
H6680 N6674 0.984 . S
H6681 N6674 0.984 . S
H6682 N6670 0.984 . S
H6683 N6670 0.985 . S
C6684 C6685 1.363 . S
C6684 C6690 1.379 . S
C6684 N6692 1.356 . S
C6685 C6684 1.363 . S
C6685 C6691 1.363 . S
C6686 C6687 1.363 . S
C6686 C6691 1.379 . S
C6686 N6693 1.356 . S
C6687 C6686 1.363 . S
C6687 C6690 1.363 . S
N6688 C6690 1.356 . S
N6688 H6700 0.984 . S
N6688 H6701 0.985 . S
N6689 C6691 1.356 . S
N6689 H6694 0.984 . S
N6689 H6695 0.985 . S
C6690 C6684 1.379 . S
C6690 C6687 1.363 . S
C6690 N6688 1.356 . S
C6691 C6685 1.363 . S
C6691 C6686 1.379 . S
C6691 N6689 1.356 . S
N6692 C6684 1.356 . S
N6692 H6698 0.984 . S
N6692 H6699 0.984 . S
N6693 C6686 1.356 . S
N6693 H6696 0.984 . S
N6693 H6697 0.985 . S
H6694 N6689 0.984 . S
H6695 N6689 0.985 . S
H6696 N6693 0.984 . S
H6697 N6693 0.985 . S
H6698 N6692 0.984 . S
H6699 N6692 0.984 . S
H6700 N6688 0.984 . S
H6701 N6688 0.985 . S
C6702 C6703 1.363 . S
C6702 C6708 1.379 . S
C6702 N6710 1.356 . S
C6703 C6702 1.363 . S
C6703 C6709 1.363 . S
C6704 C6705 1.363 . S
C6704 C6709 1.379 . S
C6704 N6711 1.356 . S
C6705 C6704 1.363 . S
C6705 C6708 1.363 . S
N6706 C6708 1.356 . S
N6706 H6718 0.984 . S
N6706 H6719 0.985 . S
N6707 C6709 1.356 . S
N6707 H6712 0.984 . S
N6707 H6713 0.985 . S
C6708 C6702 1.379 . S
C6708 C6705 1.363 . S
C6708 N6706 1.356 . S
C6709 C6703 1.363 . S
C6709 C6704 1.379 . S
C6709 N6707 1.356 . S
N6710 C6702 1.356 . S
N6710 H6716 0.984 . S
N6710 H6717 0.984 . S
N6711 C6704 1.356 . S
N6711 H6714 0.984 . S
N6711 H6715 0.985 . S
H6712 N6707 0.984 . S
H6713 N6707 0.985 . S
H6714 N6711 0.984 . S
H6715 N6711 0.985 . S
H6716 N6710 0.984 . S
H6717 N6710 0.984 . S
H6718 N6706 0.984 . S
H6719 N6706 0.985 . S
C6720 C6721 1.363 . S
C6720 C6726 1.379 . S
C6720 N6728 1.356 . S
C6721 C6720 1.363 . S
C6721 C6727 1.363 . S
C6722 C6723 1.363 . S
C6722 C6727 1.379 . S
C6722 N6729 1.356 . S
C6723 C6722 1.363 . S
C6723 C6726 1.363 . S
N6724 C6726 1.356 . S
N6724 H6736 0.984 . S
N6724 H6737 0.985 . S
N6725 C6727 1.356 . S
N6725 H6730 0.984 . S
N6725 H6731 0.985 . S
C6726 C6720 1.379 . S
C6726 C6723 1.363 . S
C6726 N6724 1.356 . S
C6727 C6721 1.363 . S
C6727 C6722 1.379 . S
C6727 N6725 1.356 . S
N6728 C6720 1.356 . S
N6728 H6734 0.984 . S
N6728 H6735 0.984 . S
N6729 C6722 1.356 . S
N6729 H6732 0.984 . S
N6729 H6733 0.985 . S
H6730 N6725 0.984 . S
H6731 N6725 0.985 . S
H6732 N6729 0.984 . S
H6733 N6729 0.985 . S
H6734 N6728 0.984 . S
H6735 N6728 0.984 . S
H6736 N6724 0.984 . S
H6737 N6724 0.985 . S
C6738 C6739 1.363 . S
C6738 C6744 1.379 . S
C6738 N6746 1.356 . S
C6739 C6738 1.363 . S
C6739 C6745 1.363 . S
C6740 C6741 1.363 . S
C6740 C6745 1.379 . S
C6740 N6747 1.356 . S
C6741 C6740 1.363 . S
C6741 C6744 1.363 . S
N6742 C6744 1.356 . S
N6742 H6754 0.984 . S
N6742 H6755 0.985 . S
N6743 C6745 1.356 . S
N6743 H6748 0.984 . S
N6743 H6749 0.985 . S
C6744 C6738 1.379 . S
C6744 C6741 1.363 . S
C6744 N6742 1.356 . S
C6745 C6739 1.363 . S
C6745 C6740 1.379 . S
C6745 N6743 1.356 . S
N6746 C6738 1.356 . S
N6746 H6752 0.984 . S
N6746 H6753 0.984 . S
N6747 C6740 1.356 . S
N6747 H6750 0.984 . S
N6747 H6751 0.985 . S
H6748 N6743 0.984 . S
H6749 N6743 0.985 . S
H6750 N6747 0.984 . S
H6751 N6747 0.985 . S
H6752 N6746 0.984 . S
H6753 N6746 0.984 . S
H6754 N6742 0.984 . S
H6755 N6742 0.985 . S
C6756 C6757 1.363 . S
C6756 C6762 1.379 . S
C6756 N6764 1.356 . S
C6757 C6756 1.363 . S
C6757 C6763 1.363 . S
C6758 C6759 1.363 . S
C6758 C6763 1.379 . S
C6758 N6765 1.356 . S
C6759 C6758 1.363 . S
C6759 C6762 1.363 . S
N6760 C6762 1.356 . S
N6760 H6772 0.984 . S
N6760 H6773 0.985 . S
N6761 C6763 1.356 . S
N6761 H6766 0.984 . S
N6761 H6767 0.985 . S
C6762 C6756 1.379 . S
C6762 C6759 1.363 . S
C6762 N6760 1.356 . S
C6763 C6757 1.363 . S
C6763 C6758 1.379 . S
C6763 N6761 1.356 . S
N6764 C6756 1.356 . S
N6764 H6770 0.984 . S
N6764 H6771 0.984 . S
N6765 C6758 1.356 . S
N6765 H6768 0.984 . S
N6765 H6769 0.985 . S
H6766 N6761 0.984 . S
H6767 N6761 0.985 . S
H6768 N6765 0.984 . S
H6769 N6765 0.985 . S
H6770 N6764 0.984 . S
H6771 N6764 0.984 . S
H6772 N6760 0.984 . S
H6773 N6760 0.985 . S
C6774 C6775 1.363 . S
C6774 C6780 1.379 . S
C6774 N6782 1.356 . S
C6775 C6774 1.363 . S
C6775 C6781 1.363 . S
C6776 C6777 1.363 . S
C6776 C6781 1.379 . S
C6776 N6783 1.356 . S
C6777 C6776 1.363 . S
C6777 C6780 1.363 . S
N6778 C6780 1.356 . S
N6778 H6790 0.984 . S
N6778 H6791 0.985 . S
N6779 C6781 1.356 . S
N6779 H6784 0.984 . S
N6779 H6785 0.985 . S
C6780 C6774 1.379 . S
C6780 C6777 1.363 . S
C6780 N6778 1.356 . S
C6781 C6775 1.363 . S
C6781 C6776 1.379 . S
C6781 N6779 1.356 . S
N6782 C6774 1.356 . S
N6782 H6788 0.984 . S
N6782 H6789 0.984 . S
N6783 C6776 1.356 . S
N6783 H6786 0.984 . S
N6783 H6787 0.985 . S
H6784 N6779 0.984 . S
H6785 N6779 0.985 . S
H6786 N6783 0.984 . S
H6787 N6783 0.985 . S
H6788 N6782 0.984 . S
H6789 N6782 0.984 . S
H6790 N6778 0.984 . S
H6791 N6778 0.985 . S
C6792 C6793 1.363 . S
C6792 C6798 1.379 . S
C6792 N6800 1.356 . S
C6793 C6792 1.363 . S
C6793 C6799 1.363 . S
C6794 C6795 1.363 . S
C6794 C6799 1.379 . S
C6794 N6801 1.356 . S
C6795 C6794 1.363 . S
C6795 C6798 1.363 . S
N6796 C6798 1.356 . S
N6796 H6808 0.984 . S
N6796 H6809 0.985 . S
N6797 C6799 1.356 . S
N6797 H6802 0.984 . S
N6797 H6803 0.985 . S
C6798 C6792 1.379 . S
C6798 C6795 1.363 . S
C6798 N6796 1.356 . S
C6799 C6793 1.363 . S
C6799 C6794 1.379 . S
C6799 N6797 1.356 . S
N6800 C6792 1.356 . S
N6800 H6806 0.984 . S
N6800 H6807 0.984 . S
N6801 C6794 1.356 . S
N6801 H6804 0.984 . S
N6801 H6805 0.985 . S
H6802 N6797 0.984 . S
H6803 N6797 0.985 . S
H6804 N6801 0.984 . S
H6805 N6801 0.985 . S
H6806 N6800 0.984 . S
H6807 N6800 0.984 . S
H6808 N6796 0.984 . S
H6809 N6796 0.985 . S
C6810 C6811 1.363 . S
C6810 C6816 1.379 . S
C6810 N6818 1.356 . S
C6811 C6810 1.363 . S
C6811 C6817 1.363 . S
C6812 C6813 1.363 . S
C6812 C6817 1.379 . S
C6812 N6819 1.356 . S
C6813 C6812 1.363 . S
C6813 C6816 1.363 . S
N6814 C6816 1.356 . S
N6814 H6826 0.984 . S
N6814 H6827 0.985 . S
N6815 C6817 1.356 . S
N6815 H6820 0.984 . S
N6815 H6821 0.985 . S
C6816 C6810 1.379 . S
C6816 C6813 1.363 . S
C6816 N6814 1.356 . S
C6817 C6811 1.363 . S
C6817 C6812 1.379 . S
C6817 N6815 1.356 . S
N6818 C6810 1.356 . S
N6818 H6824 0.984 . S
N6818 H6825 0.984 . S
N6819 C6812 1.356 . S
N6819 H6822 0.984 . S
N6819 H6823 0.985 . S
H6820 N6815 0.984 . S
H6821 N6815 0.985 . S
H6822 N6819 0.984 . S
H6823 N6819 0.985 . S
H6824 N6818 0.984 . S
H6825 N6818 0.984 . S
H6826 N6814 0.984 . S
H6827 N6814 0.985 . S
C6828 C6829 1.363 . S
C6828 C6834 1.379 . S
C6828 N6836 1.356 . S
C6829 C6828 1.363 . S
C6829 C6835 1.363 . S
C6830 C6831 1.363 . S
C6830 C6835 1.379 . S
C6830 N6837 1.356 . S
C6831 C6830 1.363 . S
C6831 C6834 1.363 . S
N6832 C6834 1.356 . S
N6832 H6844 0.984 . S
N6832 H6845 0.985 . S
N6833 C6835 1.356 . S
N6833 H6838 0.984 . S
N6833 H6839 0.985 . S
C6834 C6828 1.379 . S
C6834 C6831 1.363 . S
C6834 N6832 1.356 . S
C6835 C6829 1.363 . S
C6835 C6830 1.379 . S
C6835 N6833 1.356 . S
N6836 C6828 1.356 . S
N6836 H6842 0.984 . S
N6836 H6843 0.984 . S
N6837 C6830 1.356 . S
N6837 H6840 0.984 . S
N6837 H6841 0.985 . S
H6838 N6833 0.984 . S
H6839 N6833 0.985 . S
H6840 N6837 0.984 . S
H6841 N6837 0.985 . S
H6842 N6836 0.984 . S
H6843 N6836 0.984 . S
H6844 N6832 0.984 . S
H6845 N6832 0.985 . S
C6846 C6847 1.363 . S
C6846 C6852 1.379 . S
C6846 N6854 1.356 . S
C6847 C6846 1.363 . S
C6847 C6853 1.363 . S
C6848 C6849 1.363 . S
C6848 C6853 1.379 . S
C6848 N6855 1.356 . S
C6849 C6848 1.363 . S
C6849 C6852 1.363 . S
N6850 C6852 1.356 . S
N6850 H6862 0.984 . S
N6850 H6863 0.985 . S
N6851 C6853 1.356 . S
N6851 H6856 0.984 . S
N6851 H6857 0.985 . S
C6852 C6846 1.379 . S
C6852 C6849 1.363 . S
C6852 N6850 1.356 . S
C6853 C6847 1.363 . S
C6853 C6848 1.379 . S
C6853 N6851 1.356 . S
N6854 C6846 1.356 . S
N6854 H6860 0.984 . S
N6854 H6861 0.984 . S
N6855 C6848 1.356 . S
N6855 H6858 0.984 . S
N6855 H6859 0.985 . S
H6856 N6851 0.984 . S
H6857 N6851 0.985 . S
H6858 N6855 0.984 . S
H6859 N6855 0.985 . S
H6860 N6854 0.984 . S
H6861 N6854 0.984 . S
H6862 N6850 0.984 . S
H6863 N6850 0.985 . S
C6864 C6865 1.363 . S
C6864 C6870 1.379 . S
C6864 N6872 1.356 . S
C6865 C6864 1.363 . S
C6865 C6871 1.363 . S
C6866 C6867 1.363 . S
C6866 C6871 1.379 . S
C6866 N6873 1.356 . S
C6867 C6866 1.363 . S
C6867 C6870 1.363 . S
N6868 C6870 1.356 . S
N6868 H6880 0.984 . S
N6868 H6881 0.985 . S
N6869 C6871 1.356 . S
N6869 H6874 0.984 . S
N6869 H6875 0.985 . S
C6870 C6864 1.379 . S
C6870 C6867 1.363 . S
C6870 N6868 1.356 . S
C6871 C6865 1.363 . S
C6871 C6866 1.379 . S
C6871 N6869 1.356 . S
N6872 C6864 1.356 . S
N6872 H6878 0.984 . S
N6872 H6879 0.984 . S
N6873 C6866 1.356 . S
N6873 H6876 0.984 . S
N6873 H6877 0.985 . S
H6874 N6869 0.984 . S
H6875 N6869 0.985 . S
H6876 N6873 0.984 . S
H6877 N6873 0.985 . S
H6878 N6872 0.984 . S
H6879 N6872 0.984 . S
H6880 N6868 0.984 . S
H6881 N6868 0.985 . S
C6882 C6883 1.363 . S
C6882 C6888 1.379 . S
C6882 N6890 1.356 . S
C6883 C6882 1.363 . S
C6883 C6889 1.363 . S
C6884 C6885 1.363 . S
C6884 C6889 1.379 . S
C6884 N6891 1.356 . S
C6885 C6884 1.363 . S
C6885 C6888 1.363 . S
N6886 C6888 1.356 . S
N6886 H6898 0.984 . S
N6886 H6899 0.985 . S
N6887 C6889 1.356 . S
N6887 H6892 0.984 . S
N6887 H6893 0.985 . S
C6888 C6882 1.379 . S
C6888 C6885 1.363 . S
C6888 N6886 1.356 . S
C6889 C6883 1.363 . S
C6889 C6884 1.379 . S
C6889 N6887 1.356 . S
N6890 C6882 1.356 . S
N6890 H6896 0.984 . S
N6890 H6897 0.984 . S
N6891 C6884 1.356 . S
N6891 H6894 0.984 . S
N6891 H6895 0.985 . S
H6892 N6887 0.984 . S
H6893 N6887 0.985 . S
H6894 N6891 0.984 . S
H6895 N6891 0.985 . S
H6896 N6890 0.984 . S
H6897 N6890 0.984 . S
H6898 N6886 0.984 . S
H6899 N6886 0.985 . S
C6900 C6901 1.363 . S
C6900 C6906 1.379 . S
C6900 N6908 1.356 . S
C6901 C6900 1.363 . S
C6901 C6907 1.363 . S
C6902 C6903 1.363 . S
C6902 C6907 1.379 . S
C6902 N6909 1.356 . S
C6903 C6902 1.363 . S
C6903 C6906 1.363 . S
N6904 C6906 1.356 . S
N6904 H6916 0.984 . S
N6904 H6917 0.985 . S
N6905 C6907 1.356 . S
N6905 H6910 0.984 . S
N6905 H6911 0.985 . S
C6906 C6900 1.379 . S
C6906 C6903 1.363 . S
C6906 N6904 1.356 . S
C6907 C6901 1.363 . S
C6907 C6902 1.379 . S
C6907 N6905 1.356 . S
N6908 C6900 1.356 . S
N6908 H6914 0.984 . S
N6908 H6915 0.984 . S
N6909 C6902 1.356 . S
N6909 H6912 0.984 . S
N6909 H6913 0.985 . S
H6910 N6905 0.984 . S
H6911 N6905 0.985 . S
H6912 N6909 0.984 . S
H6913 N6909 0.985 . S
H6914 N6908 0.984 . S
H6915 N6908 0.984 . S
H6916 N6904 0.984 . S
H6917 N6904 0.985 . S
C6918 C6919 1.363 . S
C6918 C6924 1.379 . S
C6918 N6926 1.356 . S
C6919 C6918 1.363 . S
C6919 C6925 1.363 . S
C6920 C6921 1.363 . S
C6920 C6925 1.379 . S
C6920 N6927 1.356 . S
C6921 C6920 1.363 . S
C6921 C6924 1.363 . S
N6922 C6924 1.356 . S
N6922 H6934 0.984 . S
N6922 H6935 0.985 . S
N6923 C6925 1.356 . S
N6923 H6928 0.984 . S
N6923 H6929 0.985 . S
C6924 C6918 1.379 . S
C6924 C6921 1.363 . S
C6924 N6922 1.356 . S
C6925 C6919 1.363 . S
C6925 C6920 1.379 . S
C6925 N6923 1.356 . S
N6926 C6918 1.356 . S
N6926 H6932 0.984 . S
N6926 H6933 0.984 . S
N6927 C6920 1.356 . S
N6927 H6930 0.984 . S
N6927 H6931 0.985 . S
H6928 N6923 0.984 . S
H6929 N6923 0.985 . S
H6930 N6927 0.984 . S
H6931 N6927 0.985 . S
H6932 N6926 0.984 . S
H6933 N6926 0.984 . S
H6934 N6922 0.984 . S
H6935 N6922 0.985 . S
C6936 C6937 1.363 . S
C6936 C6942 1.379 . S
C6936 N6944 1.356 . S
C6937 C6936 1.363 . S
C6937 C6943 1.363 . S
C6938 C6939 1.363 . S
C6938 C6943 1.379 . S
C6938 N6945 1.356 . S
C6939 C6938 1.363 . S
C6939 C6942 1.363 . S
N6940 C6942 1.356 . S
N6940 H6952 0.984 . S
N6940 H6953 0.985 . S
N6941 C6943 1.356 . S
N6941 H6946 0.984 . S
N6941 H6947 0.985 . S
C6942 C6936 1.379 . S
C6942 C6939 1.363 . S
C6942 N6940 1.356 . S
C6943 C6937 1.363 . S
C6943 C6938 1.379 . S
C6943 N6941 1.356 . S
N6944 C6936 1.356 . S
N6944 H6950 0.984 . S
N6944 H6951 0.984 . S
N6945 C6938 1.356 . S
N6945 H6948 0.984 . S
N6945 H6949 0.985 . S
H6946 N6941 0.984 . S
H6947 N6941 0.985 . S
H6948 N6945 0.984 . S
H6949 N6945 0.985 . S
H6950 N6944 0.984 . S
H6951 N6944 0.984 . S
H6952 N6940 0.984 . S
H6953 N6940 0.985 . S
C6954 C6955 1.363 . S
C6954 C6960 1.379 . S
C6954 N6962 1.356 . S
C6955 C6954 1.363 . S
C6955 C6961 1.363 . S
C6956 C6957 1.363 . S
C6956 C6961 1.379 . S
C6956 N6963 1.356 . S
C6957 C6956 1.363 . S
C6957 C6960 1.363 . S
N6958 C6960 1.356 . S
N6958 H6970 0.984 . S
N6958 H6971 0.985 . S
N6959 C6961 1.356 . S
N6959 H6964 0.984 . S
N6959 H6965 0.985 . S
C6960 C6954 1.379 . S
C6960 C6957 1.363 . S
C6960 N6958 1.356 . S
C6961 C6955 1.363 . S
C6961 C6956 1.379 . S
C6961 N6959 1.356 . S
N6962 C6954 1.356 . S
N6962 H6968 0.984 . S
N6962 H6969 0.984 . S
N6963 C6956 1.356 . S
N6963 H6966 0.984 . S
N6963 H6967 0.985 . S
H6964 N6959 0.984 . S
H6965 N6959 0.985 . S
H6966 N6963 0.984 . S
H6967 N6963 0.985 . S
H6968 N6962 0.984 . S
H6969 N6962 0.984 . S
H6970 N6958 0.984 . S
H6971 N6958 0.985 . S
C6972 C6973 1.363 . S
C6972 C6978 1.379 . S
C6972 N6980 1.356 . S
C6973 C6972 1.363 . S
C6973 C6979 1.363 . S
C6974 C6975 1.363 . S
C6974 C6979 1.379 . S
C6974 N6981 1.356 . S
C6975 C6974 1.363 . S
C6975 C6978 1.363 . S
N6976 C6978 1.356 . S
N6976 H6988 0.984 . S
N6976 H6989 0.985 . S
N6977 C6979 1.356 . S
N6977 H6982 0.984 . S
N6977 H6983 0.985 . S
C6978 C6972 1.379 . S
C6978 C6975 1.363 . S
C6978 N6976 1.356 . S
C6979 C6973 1.363 . S
C6979 C6974 1.379 . S
C6979 N6977 1.356 . S
N6980 C6972 1.356 . S
N6980 H6986 0.984 . S
N6980 H6987 0.984 . S
N6981 C6974 1.356 . S
N6981 H6984 0.984 . S
N6981 H6985 0.985 . S
H6982 N6977 0.984 . S
H6983 N6977 0.985 . S
H6984 N6981 0.984 . S
H6985 N6981 0.985 . S
H6986 N6980 0.984 . S
H6987 N6980 0.984 . S
H6988 N6976 0.984 . S
H6989 N6976 0.985 . S
C6990 C6991 1.363 . S
C6990 C6996 1.379 . S
C6990 N6998 1.356 . S
C6991 C6990 1.363 . S
C6991 C6997 1.363 . S
C6992 C6993 1.363 . S
C6992 C6997 1.379 . S
C6992 N6999 1.356 . S
C6993 C6992 1.363 . S
C6993 C6996 1.363 . S
N6994 C6996 1.356 . S
N6994 H7006 0.984 . S
N6994 H7007 0.985 . S
N6995 C6997 1.356 . S
N6995 H7000 0.984 . S
N6995 H7001 0.985 . S
C6996 C6990 1.379 . S
C6996 C6993 1.363 . S
C6996 N6994 1.356 . S
C6997 C6991 1.363 . S
C6997 C6992 1.379 . S
C6997 N6995 1.356 . S
N6998 C6990 1.356 . S
N6998 H7004 0.984 . S
N6998 H7005 0.984 . S
N6999 C6992 1.356 . S
N6999 H7002 0.984 . S
N6999 H7003 0.985 . S
H7000 N6995 0.984 . S
H7001 N6995 0.985 . S
H7002 N6999 0.984 . S
H7003 N6999 0.985 . S
H7004 N6998 0.984 . S
H7005 N6998 0.984 . S
H7006 N6994 0.984 . S
H7007 N6994 0.985 . S
C7008 C7009 1.363 . S
C7008 C7014 1.379 . S
C7008 N7016 1.356 . S
C7009 C7008 1.363 . S
C7009 C7015 1.363 . S
C7010 C7011 1.363 . S
C7010 C7015 1.379 . S
C7010 N7017 1.356 . S
C7011 C7010 1.363 . S
C7011 C7014 1.363 . S
N7012 C7014 1.356 . S
N7012 H7024 0.984 . S
N7012 H7025 0.985 . S
N7013 C7015 1.356 . S
N7013 H7018 0.984 . S
N7013 H7019 0.985 . S
C7014 C7008 1.379 . S
C7014 C7011 1.363 . S
C7014 N7012 1.356 . S
C7015 C7009 1.363 . S
C7015 C7010 1.379 . S
C7015 N7013 1.356 . S
N7016 C7008 1.356 . S
N7016 H7022 0.984 . S
N7016 H7023 0.984 . S
N7017 C7010 1.356 . S
N7017 H7020 0.984 . S
N7017 H7021 0.985 . S
H7018 N7013 0.984 . S
H7019 N7013 0.985 . S
H7020 N7017 0.984 . S
H7021 N7017 0.985 . S
H7022 N7016 0.984 . S
H7023 N7016 0.984 . S
H7024 N7012 0.984 . S
H7025 N7012 0.985 . S
C7026 C7027 1.363 . S
C7026 C7032 1.379 . S
C7026 N7034 1.356 . S
C7027 C7026 1.363 . S
C7027 C7033 1.363 . S
C7028 C7029 1.363 . S
C7028 C7033 1.379 . S
C7028 N7035 1.356 . S
C7029 C7028 1.363 . S
C7029 C7032 1.363 . S
N7030 C7032 1.356 . S
N7030 H7042 0.984 . S
N7030 H7043 0.985 . S
N7031 C7033 1.356 . S
N7031 H7036 0.984 . S
N7031 H7037 0.985 . S
C7032 C7026 1.379 . S
C7032 C7029 1.363 . S
C7032 N7030 1.356 . S
C7033 C7027 1.363 . S
C7033 C7028 1.379 . S
C7033 N7031 1.356 . S
N7034 C7026 1.356 . S
N7034 H7040 0.984 . S
N7034 H7041 0.984 . S
N7035 C7028 1.356 . S
N7035 H7038 0.984 . S
N7035 H7039 0.985 . S
H7036 N7031 0.984 . S
H7037 N7031 0.985 . S
H7038 N7035 0.984 . S
H7039 N7035 0.985 . S
H7040 N7034 0.984 . S
H7041 N7034 0.984 . S
H7042 N7030 0.984 . S
H7043 N7030 0.985 . S
C7044 C7045 1.363 . S
C7044 C7050 1.379 . S
C7044 N7052 1.356 . S
C7045 C7044 1.363 . S
C7045 C7051 1.363 . S
C7046 C7047 1.363 . S
C7046 C7051 1.379 . S
C7046 N7053 1.356 . S
C7047 C7046 1.363 . S
C7047 C7050 1.363 . S
N7048 C7050 1.356 . S
N7048 H7060 0.984 . S
N7048 H7061 0.985 . S
N7049 C7051 1.356 . S
N7049 H7054 0.984 . S
N7049 H7055 0.985 . S
C7050 C7044 1.379 . S
C7050 C7047 1.363 . S
C7050 N7048 1.356 . S
C7051 C7045 1.363 . S
C7051 C7046 1.379 . S
C7051 N7049 1.356 . S
N7052 C7044 1.356 . S
N7052 H7058 0.984 . S
N7052 H7059 0.984 . S
N7053 C7046 1.356 . S
N7053 H7056 0.984 . S
N7053 H7057 0.985 . S
H7054 N7049 0.984 . S
H7055 N7049 0.985 . S
H7056 N7053 0.984 . S
H7057 N7053 0.985 . S
H7058 N7052 0.984 . S
H7059 N7052 0.984 . S
H7060 N7048 0.984 . S
H7061 N7048 0.985 . S
C7062 C7063 1.363 . S
C7062 C7068 1.379 . S
C7062 N7070 1.356 . S
C7063 C7062 1.363 . S
C7063 C7069 1.363 . S
C7064 C7065 1.363 . S
C7064 C7069 1.379 . S
C7064 N7071 1.356 . S
C7065 C7064 1.363 . S
C7065 C7068 1.363 . S
N7066 C7068 1.356 . S
N7066 H7078 0.984 . S
N7066 H7079 0.985 . S
N7067 C7069 1.356 . S
N7067 H7072 0.984 . S
N7067 H7073 0.985 . S
C7068 C7062 1.379 . S
C7068 C7065 1.363 . S
C7068 N7066 1.356 . S
C7069 C7063 1.363 . S
C7069 C7064 1.379 . S
C7069 N7067 1.356 . S
N7070 C7062 1.356 . S
N7070 H7076 0.984 . S
N7070 H7077 0.984 . S
N7071 C7064 1.356 . S
N7071 H7074 0.984 . S
N7071 H7075 0.985 . S
H7072 N7067 0.984 . S
H7073 N7067 0.985 . S
H7074 N7071 0.984 . S
H7075 N7071 0.985 . S
H7076 N7070 0.984 . S
H7077 N7070 0.984 . S
H7078 N7066 0.984 . S
H7079 N7066 0.985 . S
C7080 C7081 1.363 . S
C7080 C7086 1.379 . S
C7080 N7088 1.356 . S
C7081 C7080 1.363 . S
C7081 C7087 1.363 . S
C7082 C7083 1.363 . S
C7082 C7087 1.379 . S
C7082 N7089 1.356 . S
C7083 C7082 1.363 . S
C7083 C7086 1.363 . S
N7084 C7086 1.356 . S
N7084 H7096 0.984 . S
N7084 H7097 0.985 . S
N7085 C7087 1.356 . S
N7085 H7090 0.984 . S
N7085 H7091 0.985 . S
C7086 C7080 1.379 . S
C7086 C7083 1.363 . S
C7086 N7084 1.356 . S
C7087 C7081 1.363 . S
C7087 C7082 1.379 . S
C7087 N7085 1.356 . S
N7088 C7080 1.356 . S
N7088 H7094 0.984 . S
N7088 H7095 0.984 . S
N7089 C7082 1.356 . S
N7089 H7092 0.984 . S
N7089 H7093 0.985 . S
H7090 N7085 0.984 . S
H7091 N7085 0.985 . S
H7092 N7089 0.984 . S
H7093 N7089 0.985 . S
H7094 N7088 0.984 . S
H7095 N7088 0.984 . S
H7096 N7084 0.984 . S
H7097 N7084 0.985 . S
C7098 C7099 1.363 . S
C7098 C7104 1.379 . S
C7098 N7106 1.356 . S
C7099 C7098 1.363 . S
C7099 C7105 1.363 . S
C7100 C7101 1.363 . S
C7100 C7105 1.379 . S
C7100 N7107 1.356 . S
C7101 C7100 1.363 . S
C7101 C7104 1.363 . S
N7102 C7104 1.356 . S
N7102 H7114 0.984 . S
N7102 H7115 0.985 . S
N7103 C7105 1.356 . S
N7103 H7108 0.984 . S
N7103 H7109 0.985 . S
C7104 C7098 1.379 . S
C7104 C7101 1.363 . S
C7104 N7102 1.356 . S
C7105 C7099 1.363 . S
C7105 C7100 1.379 . S
C7105 N7103 1.356 . S
N7106 C7098 1.356 . S
N7106 H7112 0.984 . S
N7106 H7113 0.984 . S
N7107 C7100 1.356 . S
N7107 H7110 0.984 . S
N7107 H7111 0.985 . S
H7108 N7103 0.984 . S
H7109 N7103 0.985 . S
H7110 N7107 0.984 . S
H7111 N7107 0.985 . S
H7112 N7106 0.984 . S
H7113 N7106 0.984 . S
H7114 N7102 0.984 . S
H7115 N7102 0.985 . S
C7116 C7117 1.363 . S
C7116 C7122 1.379 . S
C7116 N7124 1.356 . S
C7117 C7116 1.363 . S
C7117 C7123 1.363 . S
C7118 C7119 1.363 . S
C7118 C7123 1.379 . S
C7118 N7125 1.356 . S
C7119 C7118 1.363 . S
C7119 C7122 1.363 . S
N7120 C7122 1.356 . S
N7120 H7132 0.984 . S
N7120 H7133 0.985 . S
N7121 C7123 1.356 . S
N7121 H7126 0.984 . S
N7121 H7127 0.985 . S
C7122 C7116 1.379 . S
C7122 C7119 1.363 . S
C7122 N7120 1.356 . S
C7123 C7117 1.363 . S
C7123 C7118 1.379 . S
C7123 N7121 1.356 . S
N7124 C7116 1.356 . S
N7124 H7130 0.984 . S
N7124 H7131 0.984 . S
N7125 C7118 1.356 . S
N7125 H7128 0.984 . S
N7125 H7129 0.985 . S
H7126 N7121 0.984 . S
H7127 N7121 0.985 . S
H7128 N7125 0.984 . S
H7129 N7125 0.985 . S
H7130 N7124 0.984 . S
H7131 N7124 0.984 . S
H7132 N7120 0.984 . S
H7133 N7120 0.985 . S
C7134 C7135 1.363 . S
C7134 C7140 1.379 . S
C7134 N7142 1.356 . S
C7135 C7134 1.363 . S
C7135 C7141 1.363 . S
C7136 C7137 1.363 . S
C7136 C7141 1.379 . S
C7136 N7143 1.356 . S
C7137 C7136 1.363 . S
C7137 C7140 1.363 . S
N7138 C7140 1.356 . S
N7138 H7150 0.984 . S
N7138 H7151 0.985 . S
N7139 C7141 1.356 . S
N7139 H7144 0.984 . S
N7139 H7145 0.985 . S
C7140 C7134 1.379 . S
C7140 C7137 1.363 . S
C7140 N7138 1.356 . S
C7141 C7135 1.363 . S
C7141 C7136 1.379 . S
C7141 N7139 1.356 . S
N7142 C7134 1.356 . S
N7142 H7148 0.984 . S
N7142 H7149 0.984 . S
N7143 C7136 1.356 . S
N7143 H7146 0.984 . S
N7143 H7147 0.985 . S
H7144 N7139 0.984 . S
H7145 N7139 0.985 . S
H7146 N7143 0.984 . S
H7147 N7143 0.985 . S
H7148 N7142 0.984 . S
H7149 N7142 0.984 . S
H7150 N7138 0.984 . S
H7151 N7138 0.985 . S
C7152 C7153 1.363 . S
C7152 C7158 1.379 . S
C7152 N7160 1.356 . S
C7153 C7152 1.363 . S
C7153 C7159 1.363 . S
C7154 C7155 1.363 . S
C7154 C7159 1.379 . S
C7154 N7161 1.356 . S
C7155 C7154 1.363 . S
C7155 C7158 1.363 . S
N7156 C7158 1.356 . S
N7156 H7168 0.984 . S
N7156 H7169 0.985 . S
N7157 C7159 1.356 . S
N7157 H7162 0.984 . S
N7157 H7163 0.985 . S
C7158 C7152 1.379 . S
C7158 C7155 1.363 . S
C7158 N7156 1.356 . S
C7159 C7153 1.363 . S
C7159 C7154 1.379 . S
C7159 N7157 1.356 . S
N7160 C7152 1.356 . S
N7160 H7166 0.984 . S
N7160 H7167 0.984 . S
N7161 C7154 1.356 . S
N7161 H7164 0.984 . S
N7161 H7165 0.985 . S
H7162 N7157 0.984 . S
H7163 N7157 0.985 . S
H7164 N7161 0.984 . S
H7165 N7161 0.985 . S
H7166 N7160 0.984 . S
H7167 N7160 0.984 . S
H7168 N7156 0.984 . S
H7169 N7156 0.985 . S
C7170 C7171 1.363 . S
C7170 C7176 1.379 . S
C7170 N7178 1.356 . S
C7171 C7170 1.363 . S
C7171 C7177 1.363 . S
C7172 C7173 1.363 . S
C7172 C7177 1.379 . S
C7172 N7179 1.356 . S
C7173 C7172 1.363 . S
C7173 C7176 1.363 . S
N7174 C7176 1.356 . S
N7174 H7186 0.984 . S
N7174 H7187 0.985 . S
N7175 C7177 1.356 . S
N7175 H7180 0.984 . S
N7175 H7181 0.985 . S
C7176 C7170 1.379 . S
C7176 C7173 1.363 . S
C7176 N7174 1.356 . S
C7177 C7171 1.363 . S
C7177 C7172 1.379 . S
C7177 N7175 1.356 . S
N7178 C7170 1.356 . S
N7178 H7184 0.984 . S
N7178 H7185 0.984 . S
N7179 C7172 1.356 . S
N7179 H7182 0.984 . S
N7179 H7183 0.985 . S
H7180 N7175 0.984 . S
H7181 N7175 0.985 . S
H7182 N7179 0.984 . S
H7183 N7179 0.985 . S
H7184 N7178 0.984 . S
H7185 N7178 0.984 . S
H7186 N7174 0.984 . S
H7187 N7174 0.985 . S
C7188 C7189 1.363 . S
C7188 C7194 1.379 . S
C7188 N7196 1.356 . S
C7189 C7188 1.363 . S
C7189 C7195 1.363 . S
C7190 C7191 1.363 . S
C7190 C7195 1.379 . S
C7190 N7197 1.356 . S
C7191 C7190 1.363 . S
C7191 C7194 1.363 . S
N7192 C7194 1.356 . S
N7192 H7204 0.984 . S
N7192 H7205 0.985 . S
N7193 C7195 1.356 . S
N7193 H7198 0.984 . S
N7193 H7199 0.985 . S
C7194 C7188 1.379 . S
C7194 C7191 1.363 . S
C7194 N7192 1.356 . S
C7195 C7189 1.363 . S
C7195 C7190 1.379 . S
C7195 N7193 1.356 . S
N7196 C7188 1.356 . S
N7196 H7202 0.984 . S
N7196 H7203 0.984 . S
N7197 C7190 1.356 . S
N7197 H7200 0.984 . S
N7197 H7201 0.985 . S
H7198 N7193 0.984 . S
H7199 N7193 0.985 . S
H7200 N7197 0.984 . S
H7201 N7197 0.985 . S
H7202 N7196 0.984 . S
H7203 N7196 0.984 . S
H7204 N7192 0.984 . S
H7205 N7192 0.985 . S
C7206 C7207 1.363 . S
C7206 C7212 1.379 . S
C7206 N7214 1.356 . S
C7207 C7206 1.363 . S
C7207 C7213 1.363 . S
C7208 C7209 1.363 . S
C7208 C7213 1.379 . S
C7208 N7215 1.356 . S
C7209 C7208 1.363 . S
C7209 C7212 1.363 . S
N7210 C7212 1.356 . S
N7210 H7222 0.984 . S
N7210 H7223 0.985 . S
N7211 C7213 1.356 . S
N7211 H7216 0.984 . S
N7211 H7217 0.985 . S
C7212 C7206 1.379 . S
C7212 C7209 1.363 . S
C7212 N7210 1.356 . S
C7213 C7207 1.363 . S
C7213 C7208 1.379 . S
C7213 N7211 1.356 . S
N7214 C7206 1.356 . S
N7214 H7220 0.984 . S
N7214 H7221 0.984 . S
N7215 C7208 1.356 . S
N7215 H7218 0.984 . S
N7215 H7219 0.985 . S
H7216 N7211 0.984 . S
H7217 N7211 0.985 . S
H7218 N7215 0.984 . S
H7219 N7215 0.985 . S
H7220 N7214 0.984 . S
H7221 N7214 0.984 . S
H7222 N7210 0.984 . S
H7223 N7210 0.985 . S
C7224 C7225 1.363 . S
C7224 C7230 1.379 . S
C7224 N7232 1.356 . S
C7225 C7224 1.363 . S
C7225 C7231 1.363 . S
C7226 C7227 1.363 . S
C7226 C7231 1.379 . S
C7226 N7233 1.356 . S
C7227 C7226 1.363 . S
C7227 C7230 1.363 . S
N7228 C7230 1.356 . S
N7228 H7240 0.984 . S
N7228 H7241 0.985 . S
N7229 C7231 1.356 . S
N7229 H7234 0.984 . S
N7229 H7235 0.985 . S
C7230 C7224 1.379 . S
C7230 C7227 1.363 . S
C7230 N7228 1.356 . S
C7231 C7225 1.363 . S
C7231 C7226 1.379 . S
C7231 N7229 1.356 . S
N7232 C7224 1.356 . S
N7232 H7238 0.984 . S
N7232 H7239 0.984 . S
N7233 C7226 1.356 . S
N7233 H7236 0.984 . S
N7233 H7237 0.985 . S
H7234 N7229 0.984 . S
H7235 N7229 0.985 . S
H7236 N7233 0.984 . S
H7237 N7233 0.985 . S
H7238 N7232 0.984 . S
H7239 N7232 0.984 . S
H7240 N7228 0.984 . S
H7241 N7228 0.985 . S
C7242 C7243 1.363 . S
C7242 C7248 1.379 . S
C7242 N7250 1.356 . S
C7243 C7242 1.363 . S
C7243 C7249 1.363 . S
C7244 C7245 1.363 . S
C7244 C7249 1.379 . S
C7244 N7251 1.356 . S
C7245 C7244 1.363 . S
C7245 C7248 1.363 . S
N7246 C7248 1.356 . S
N7246 H7258 0.984 . S
N7246 H7259 0.985 . S
N7247 C7249 1.356 . S
N7247 H7252 0.984 . S
N7247 H7253 0.985 . S
C7248 C7242 1.379 . S
C7248 C7245 1.363 . S
C7248 N7246 1.356 . S
C7249 C7243 1.363 . S
C7249 C7244 1.379 . S
C7249 N7247 1.356 . S
N7250 C7242 1.356 . S
N7250 H7256 0.984 . S
N7250 H7257 0.984 . S
N7251 C7244 1.356 . S
N7251 H7254 0.984 . S
N7251 H7255 0.985 . S
H7252 N7247 0.984 . S
H7253 N7247 0.985 . S
H7254 N7251 0.984 . S
H7255 N7251 0.985 . S
H7256 N7250 0.984 . S
H7257 N7250 0.984 . S
H7258 N7246 0.984 . S
H7259 N7246 0.985 . S
C7260 C7261 1.363 . S
C7260 C7266 1.379 . S
C7260 N7268 1.356 . S
C7261 C7260 1.363 . S
C7261 C7267 1.363 . S
C7262 C7263 1.363 . S
C7262 C7267 1.379 . S
C7262 N7269 1.356 . S
C7263 C7262 1.363 . S
C7263 C7266 1.363 . S
N7264 C7266 1.356 . S
N7264 H7276 0.984 . S
N7264 H7277 0.985 . S
N7265 C7267 1.356 . S
N7265 H7270 0.984 . S
N7265 H7271 0.985 . S
C7266 C7260 1.379 . S
C7266 C7263 1.363 . S
C7266 N7264 1.356 . S
C7267 C7261 1.363 . S
C7267 C7262 1.379 . S
C7267 N7265 1.356 . S
N7268 C7260 1.356 . S
N7268 H7274 0.984 . S
N7268 H7275 0.984 . S
N7269 C7262 1.356 . S
N7269 H7272 0.984 . S
N7269 H7273 0.985 . S
H7270 N7265 0.984 . S
H7271 N7265 0.985 . S
H7272 N7269 0.984 . S
H7273 N7269 0.985 . S
H7274 N7268 0.984 . S
H7275 N7268 0.984 . S
H7276 N7264 0.984 . S
H7277 N7264 0.985 . S
C7278 C7279 1.363 . S
C7278 C7284 1.379 . S
C7278 N7286 1.356 . S
C7279 C7278 1.363 . S
C7279 C7285 1.363 . S
C7280 C7281 1.363 . S
C7280 C7285 1.379 . S
C7280 N7287 1.356 . S
C7281 C7280 1.363 . S
C7281 C7284 1.363 . S
N7282 C7284 1.356 . S
N7282 H7294 0.984 . S
N7282 H7295 0.985 . S
N7283 C7285 1.356 . S
N7283 H7288 0.984 . S
N7283 H7289 0.985 . S
C7284 C7278 1.379 . S
C7284 C7281 1.363 . S
C7284 N7282 1.356 . S
C7285 C7279 1.363 . S
C7285 C7280 1.379 . S
C7285 N7283 1.356 . S
N7286 C7278 1.356 . S
N7286 H7292 0.984 . S
N7286 H7293 0.984 . S
N7287 C7280 1.356 . S
N7287 H7290 0.984 . S
N7287 H7291 0.985 . S
H7288 N7283 0.984 . S
H7289 N7283 0.985 . S
H7290 N7287 0.984 . S
H7291 N7287 0.985 . S
H7292 N7286 0.984 . S
H7293 N7286 0.984 . S
H7294 N7282 0.984 . S
H7295 N7282 0.985 . S
C7296 C7297 1.363 . S
C7296 C7302 1.379 . S
C7296 N7304 1.356 . S
C7297 C7296 1.363 . S
C7297 C7303 1.363 . S
C7298 C7299 1.363 . S
C7298 C7303 1.379 . S
C7298 N7305 1.356 . S
C7299 C7298 1.363 . S
C7299 C7302 1.363 . S
N7300 C7302 1.356 . S
N7300 H7312 0.984 . S
N7300 H7313 0.985 . S
N7301 C7303 1.356 . S
N7301 H7306 0.984 . S
N7301 H7307 0.985 . S
C7302 C7296 1.379 . S
C7302 C7299 1.363 . S
C7302 N7300 1.356 . S
C7303 C7297 1.363 . S
C7303 C7298 1.379 . S
C7303 N7301 1.356 . S
N7304 C7296 1.356 . S
N7304 H7310 0.984 . S
N7304 H7311 0.984 . S
N7305 C7298 1.356 . S
N7305 H7308 0.984 . S
N7305 H7309 0.985 . S
H7306 N7301 0.984 . S
H7307 N7301 0.985 . S
H7308 N7305 0.984 . S
H7309 N7305 0.985 . S
H7310 N7304 0.984 . S
H7311 N7304 0.984 . S
H7312 N7300 0.984 . S
H7313 N7300 0.985 . S
C7314 C7315 1.363 . S
C7314 C7320 1.379 . S
C7314 N7322 1.356 . S
C7315 C7314 1.363 . S
C7315 C7321 1.363 . S
C7316 C7317 1.363 . S
C7316 C7321 1.379 . S
C7316 N7323 1.356 . S
C7317 C7316 1.363 . S
C7317 C7320 1.363 . S
N7318 C7320 1.356 . S
N7318 H7330 0.984 . S
N7318 H7331 0.985 . S
N7319 C7321 1.356 . S
N7319 H7324 0.984 . S
N7319 H7325 0.985 . S
C7320 C7314 1.379 . S
C7320 C7317 1.363 . S
C7320 N7318 1.356 . S
C7321 C7315 1.363 . S
C7321 C7316 1.379 . S
C7321 N7319 1.356 . S
N7322 C7314 1.356 . S
N7322 H7328 0.984 . S
N7322 H7329 0.984 . S
N7323 C7316 1.356 . S
N7323 H7326 0.984 . S
N7323 H7327 0.985 . S
H7324 N7319 0.984 . S
H7325 N7319 0.985 . S
H7326 N7323 0.984 . S
H7327 N7323 0.985 . S
H7328 N7322 0.984 . S
H7329 N7322 0.984 . S
H7330 N7318 0.984 . S
H7331 N7318 0.985 . S
C7332 C7333 1.363 . S
C7332 C7338 1.379 . S
C7332 N7340 1.356 . S
C7333 C7332 1.363 . S
C7333 C7339 1.363 . S
C7334 C7335 1.363 . S
C7334 C7339 1.379 . S
C7334 N7341 1.356 . S
C7335 C7334 1.363 . S
C7335 C7338 1.363 . S
N7336 C7338 1.356 . S
N7336 H7348 0.984 . S
N7336 H7349 0.985 . S
N7337 C7339 1.356 . S
N7337 H7342 0.984 . S
N7337 H7343 0.985 . S
C7338 C7332 1.379 . S
C7338 C7335 1.363 . S
C7338 N7336 1.356 . S
C7339 C7333 1.363 . S
C7339 C7334 1.379 . S
C7339 N7337 1.356 . S
N7340 C7332 1.356 . S
N7340 H7346 0.984 . S
N7340 H7347 0.984 . S
N7341 C7334 1.356 . S
N7341 H7344 0.984 . S
N7341 H7345 0.985 . S
H7342 N7337 0.984 . S
H7343 N7337 0.985 . S
H7344 N7341 0.984 . S
H7345 N7341 0.985 . S
H7346 N7340 0.984 . S
H7347 N7340 0.984 . S
H7348 N7336 0.984 . S
H7349 N7336 0.985 . S
C7350 C7351 1.363 . S
C7350 C7356 1.379 . S
C7350 N7358 1.356 . S
C7351 C7350 1.363 . S
C7351 C7357 1.363 . S
C7352 C7353 1.363 . S
C7352 C7357 1.379 . S
C7352 N7359 1.356 . S
C7353 C7352 1.363 . S
C7353 C7356 1.363 . S
N7354 C7356 1.356 . S
N7354 H7366 0.984 . S
N7354 H7367 0.985 . S
N7355 C7357 1.356 . S
N7355 H7360 0.984 . S
N7355 H7361 0.985 . S
C7356 C7350 1.379 . S
C7356 C7353 1.363 . S
C7356 N7354 1.356 . S
C7357 C7351 1.363 . S
C7357 C7352 1.379 . S
C7357 N7355 1.356 . S
N7358 C7350 1.356 . S
N7358 H7364 0.984 . S
N7358 H7365 0.984 . S
N7359 C7352 1.356 . S
N7359 H7362 0.984 . S
N7359 H7363 0.985 . S
H7360 N7355 0.984 . S
H7361 N7355 0.985 . S
H7362 N7359 0.984 . S
H7363 N7359 0.985 . S
H7364 N7358 0.984 . S
H7365 N7358 0.984 . S
H7366 N7354 0.984 . S
H7367 N7354 0.985 . S
C7368 C7369 1.363 . S
C7368 C7374 1.379 . S
C7368 N7376 1.356 . S
C7369 C7368 1.363 . S
C7369 C7375 1.363 . S
C7370 C7371 1.363 . S
C7370 C7375 1.379 . S
C7370 N7377 1.356 . S
C7371 C7370 1.363 . S
C7371 C7374 1.363 . S
N7372 C7374 1.356 . S
N7372 H7384 0.984 . S
N7372 H7385 0.985 . S
N7373 C7375 1.356 . S
N7373 H7378 0.984 . S
N7373 H7379 0.985 . S
C7374 C7368 1.379 . S
C7374 C7371 1.363 . S
C7374 N7372 1.356 . S
C7375 C7369 1.363 . S
C7375 C7370 1.379 . S
C7375 N7373 1.356 . S
N7376 C7368 1.356 . S
N7376 H7382 0.984 . S
N7376 H7383 0.984 . S
N7377 C7370 1.356 . S
N7377 H7380 0.984 . S
N7377 H7381 0.985 . S
H7378 N7373 0.984 . S
H7379 N7373 0.985 . S
H7380 N7377 0.984 . S
H7381 N7377 0.985 . S
H7382 N7376 0.984 . S
H7383 N7376 0.984 . S
H7384 N7372 0.984 . S
H7385 N7372 0.985 . S
C7386 C7387 1.363 . S
C7386 C7392 1.379 . S
C7386 N7394 1.356 . S
C7387 C7386 1.363 . S
C7387 C7393 1.363 . S
C7388 C7389 1.363 . S
C7388 C7393 1.379 . S
C7388 N7395 1.356 . S
C7389 C7388 1.363 . S
C7389 C7392 1.363 . S
N7390 C7392 1.356 . S
N7390 H7402 0.984 . S
N7390 H7403 0.985 . S
N7391 C7393 1.356 . S
N7391 H7396 0.984 . S
N7391 H7397 0.985 . S
C7392 C7386 1.379 . S
C7392 C7389 1.363 . S
C7392 N7390 1.356 . S
C7393 C7387 1.363 . S
C7393 C7388 1.379 . S
C7393 N7391 1.356 . S
N7394 C7386 1.356 . S
N7394 H7400 0.984 . S
N7394 H7401 0.984 . S
N7395 C7388 1.356 . S
N7395 H7398 0.984 . S
N7395 H7399 0.985 . S
H7396 N7391 0.984 . S
H7397 N7391 0.985 . S
H7398 N7395 0.984 . S
H7399 N7395 0.985 . S
H7400 N7394 0.984 . S
H7401 N7394 0.984 . S
H7402 N7390 0.984 . S
H7403 N7390 0.985 . S
C7404 C7405 1.363 . S
C7404 C7410 1.379 . S
C7404 N7412 1.356 . S
C7405 C7404 1.363 . S
C7405 C7411 1.363 . S
C7406 C7407 1.363 . S
C7406 C7411 1.379 . S
C7406 N7413 1.356 . S
C7407 C7406 1.363 . S
C7407 C7410 1.363 . S
N7408 C7410 1.356 . S
N7408 H7420 0.984 . S
N7408 H7421 0.985 . S
N7409 C7411 1.356 . S
N7409 H7414 0.984 . S
N7409 H7415 0.985 . S
C7410 C7404 1.379 . S
C7410 C7407 1.363 . S
C7410 N7408 1.356 . S
C7411 C7405 1.363 . S
C7411 C7406 1.379 . S
C7411 N7409 1.356 . S
N7412 C7404 1.356 . S
N7412 H7418 0.984 . S
N7412 H7419 0.984 . S
N7413 C7406 1.356 . S
N7413 H7416 0.984 . S
N7413 H7417 0.985 . S
H7414 N7409 0.984 . S
H7415 N7409 0.985 . S
H7416 N7413 0.984 . S
H7417 N7413 0.985 . S
H7418 N7412 0.984 . S
H7419 N7412 0.984 . S
H7420 N7408 0.984 . S
H7421 N7408 0.985 . S
C7422 C7423 1.363 . S
C7422 C7428 1.379 . S
C7422 N7430 1.356 . S
C7423 C7422 1.363 . S
C7423 C7429 1.363 . S
C7424 C7425 1.363 . S
C7424 C7429 1.379 . S
C7424 N7431 1.356 . S
C7425 C7424 1.363 . S
C7425 C7428 1.363 . S
N7426 C7428 1.356 . S
N7426 H7438 0.984 . S
N7426 H7439 0.985 . S
N7427 C7429 1.356 . S
N7427 H7432 0.984 . S
N7427 H7433 0.985 . S
C7428 C7422 1.379 . S
C7428 C7425 1.363 . S
C7428 N7426 1.356 . S
C7429 C7423 1.363 . S
C7429 C7424 1.379 . S
C7429 N7427 1.356 . S
N7430 C7422 1.356 . S
N7430 H7436 0.984 . S
N7430 H7437 0.984 . S
N7431 C7424 1.356 . S
N7431 H7434 0.984 . S
N7431 H7435 0.985 . S
H7432 N7427 0.984 . S
H7433 N7427 0.985 . S
H7434 N7431 0.984 . S
H7435 N7431 0.985 . S
H7436 N7430 0.984 . S
H7437 N7430 0.984 . S
H7438 N7426 0.984 . S
H7439 N7426 0.985 . S
C7440 C7441 1.363 . S
C7440 C7446 1.379 . S
C7440 N7448 1.356 . S
C7441 C7440 1.363 . S
C7441 C7447 1.363 . S
C7442 C7443 1.363 . S
C7442 C7447 1.379 . S
C7442 N7449 1.356 . S
C7443 C7442 1.363 . S
C7443 C7446 1.363 . S
N7444 C7446 1.356 . S
N7444 H7456 0.984 . S
N7444 H7457 0.985 . S
N7445 C7447 1.356 . S
N7445 H7450 0.984 . S
N7445 H7451 0.985 . S
C7446 C7440 1.379 . S
C7446 C7443 1.363 . S
C7446 N7444 1.356 . S
C7447 C7441 1.363 . S
C7447 C7442 1.379 . S
C7447 N7445 1.356 . S
N7448 C7440 1.356 . S
N7448 H7454 0.984 . S
N7448 H7455 0.984 . S
N7449 C7442 1.356 . S
N7449 H7452 0.984 . S
N7449 H7453 0.985 . S
H7450 N7445 0.984 . S
H7451 N7445 0.985 . S
H7452 N7449 0.984 . S
H7453 N7449 0.985 . S
H7454 N7448 0.984 . S
H7455 N7448 0.984 . S
H7456 N7444 0.984 . S
H7457 N7444 0.985 . S
C7458 C7459 1.363 . S
C7458 C7464 1.379 . S
C7458 N7466 1.356 . S
C7459 C7458 1.363 . S
C7459 C7465 1.363 . S
C7460 C7461 1.363 . S
C7460 C7465 1.379 . S
C7460 N7467 1.356 . S
C7461 C7460 1.363 . S
C7461 C7464 1.363 . S
N7462 C7464 1.356 . S
N7462 H7474 0.984 . S
N7462 H7475 0.985 . S
N7463 C7465 1.356 . S
N7463 H7468 0.984 . S
N7463 H7469 0.985 . S
C7464 C7458 1.379 . S
C7464 C7461 1.363 . S
C7464 N7462 1.356 . S
C7465 C7459 1.363 . S
C7465 C7460 1.379 . S
C7465 N7463 1.356 . S
N7466 C7458 1.356 . S
N7466 H7472 0.984 . S
N7466 H7473 0.984 . S
N7467 C7460 1.356 . S
N7467 H7470 0.984 . S
N7467 H7471 0.985 . S
H7468 N7463 0.984 . S
H7469 N7463 0.985 . S
H7470 N7467 0.984 . S
H7471 N7467 0.985 . S
H7472 N7466 0.984 . S
H7473 N7466 0.984 . S
H7474 N7462 0.984 . S
H7475 N7462 0.985 . S
C7476 C7477 1.363 . S
C7476 C7482 1.379 . S
C7476 N7484 1.356 . S
C7477 C7476 1.363 . S
C7477 C7483 1.363 . S
C7478 C7479 1.363 . S
C7478 C7483 1.379 . S
C7478 N7485 1.356 . S
C7479 C7478 1.363 . S
C7479 C7482 1.363 . S
N7480 C7482 1.356 . S
N7480 H7492 0.984 . S
N7480 H7493 0.985 . S
N7481 C7483 1.356 . S
N7481 H7486 0.984 . S
N7481 H7487 0.985 . S
C7482 C7476 1.379 . S
C7482 C7479 1.363 . S
C7482 N7480 1.356 . S
C7483 C7477 1.363 . S
C7483 C7478 1.379 . S
C7483 N7481 1.356 . S
N7484 C7476 1.356 . S
N7484 H7490 0.984 . S
N7484 H7491 0.984 . S
N7485 C7478 1.356 . S
N7485 H7488 0.984 . S
N7485 H7489 0.985 . S
H7486 N7481 0.984 . S
H7487 N7481 0.985 . S
H7488 N7485 0.984 . S
H7489 N7485 0.985 . S
H7490 N7484 0.984 . S
H7491 N7484 0.984 . S
H7492 N7480 0.984 . S
H7493 N7480 0.985 . S
C7494 C7495 1.363 . S
C7494 C7500 1.379 . S
C7494 N7502 1.356 . S
C7495 C7494 1.363 . S
C7495 C7501 1.363 . S
C7496 C7497 1.363 . S
C7496 C7501 1.379 . S
C7496 N7503 1.356 . S
C7497 C7496 1.363 . S
C7497 C7500 1.363 . S
N7498 C7500 1.356 . S
N7498 H7510 0.984 . S
N7498 H7511 0.985 . S
N7499 C7501 1.356 . S
N7499 H7504 0.984 . S
N7499 H7505 0.985 . S
C7500 C7494 1.379 . S
C7500 C7497 1.363 . S
C7500 N7498 1.356 . S
C7501 C7495 1.363 . S
C7501 C7496 1.379 . S
C7501 N7499 1.356 . S
N7502 C7494 1.356 . S
N7502 H7508 0.984 . S
N7502 H7509 0.984 . S
N7503 C7496 1.356 . S
N7503 H7506 0.984 . S
N7503 H7507 0.985 . S
H7504 N7499 0.984 . S
H7505 N7499 0.985 . S
H7506 N7503 0.984 . S
H7507 N7503 0.985 . S
H7508 N7502 0.984 . S
H7509 N7502 0.984 . S
H7510 N7498 0.984 . S
H7511 N7498 0.985 . S
C7512 C7513 1.363 . S
C7512 C7518 1.379 . S
C7512 N7520 1.356 . S
C7513 C7512 1.363 . S
C7513 C7519 1.363 . S
C7514 C7515 1.363 . S
C7514 C7519 1.379 . S
C7514 N7521 1.356 . S
C7515 C7514 1.363 . S
C7515 C7518 1.363 . S
N7516 C7518 1.356 . S
N7516 H7528 0.984 . S
N7516 H7529 0.985 . S
N7517 C7519 1.356 . S
N7517 H7522 0.984 . S
N7517 H7523 0.985 . S
C7518 C7512 1.379 . S
C7518 C7515 1.363 . S
C7518 N7516 1.356 . S
C7519 C7513 1.363 . S
C7519 C7514 1.379 . S
C7519 N7517 1.356 . S
N7520 C7512 1.356 . S
N7520 H7526 0.984 . S
N7520 H7527 0.984 . S
N7521 C7514 1.356 . S
N7521 H7524 0.984 . S
N7521 H7525 0.985 . S
H7522 N7517 0.984 . S
H7523 N7517 0.985 . S
H7524 N7521 0.984 . S
H7525 N7521 0.985 . S
H7526 N7520 0.984 . S
H7527 N7520 0.984 . S
H7528 N7516 0.984 . S
H7529 N7516 0.985 . S
C7530 C7531 1.363 . S
C7530 C7536 1.379 . S
C7530 N7538 1.356 . S
C7531 C7530 1.363 . S
C7531 C7537 1.363 . S
C7532 C7533 1.363 . S
C7532 C7537 1.379 . S
C7532 N7539 1.356 . S
C7533 C7532 1.363 . S
C7533 C7536 1.363 . S
N7534 C7536 1.356 . S
N7534 H7546 0.984 . S
N7534 H7547 0.985 . S
N7535 C7537 1.356 . S
N7535 H7540 0.984 . S
N7535 H7541 0.985 . S
C7536 C7530 1.379 . S
C7536 C7533 1.363 . S
C7536 N7534 1.356 . S
C7537 C7531 1.363 . S
C7537 C7532 1.379 . S
C7537 N7535 1.356 . S
N7538 C7530 1.356 . S
N7538 H7544 0.984 . S
N7538 H7545 0.984 . S
N7539 C7532 1.356 . S
N7539 H7542 0.984 . S
N7539 H7543 0.985 . S
H7540 N7535 0.984 . S
H7541 N7535 0.985 . S
H7542 N7539 0.984 . S
H7543 N7539 0.985 . S
H7544 N7538 0.984 . S
H7545 N7538 0.984 . S
H7546 N7534 0.984 . S
H7547 N7534 0.985 . S
C7548 C7549 1.363 . S
C7548 C7554 1.379 . S
C7548 N7556 1.356 . S
C7549 C7548 1.363 . S
C7549 C7555 1.363 . S
C7550 C7551 1.363 . S
C7550 C7555 1.379 . S
C7550 N7557 1.356 . S
C7551 C7550 1.363 . S
C7551 C7554 1.363 . S
N7552 C7554 1.356 . S
N7552 H7564 0.984 . S
N7552 H7565 0.985 . S
N7553 C7555 1.356 . S
N7553 H7558 0.984 . S
N7553 H7559 0.985 . S
C7554 C7548 1.379 . S
C7554 C7551 1.363 . S
C7554 N7552 1.356 . S
C7555 C7549 1.363 . S
C7555 C7550 1.379 . S
C7555 N7553 1.356 . S
N7556 C7548 1.356 . S
N7556 H7562 0.984 . S
N7556 H7563 0.984 . S
N7557 C7550 1.356 . S
N7557 H7560 0.984 . S
N7557 H7561 0.985 . S
H7558 N7553 0.984 . S
H7559 N7553 0.985 . S
H7560 N7557 0.984 . S
H7561 N7557 0.985 . S
H7562 N7556 0.984 . S
H7563 N7556 0.984 . S
H7564 N7552 0.984 . S
H7565 N7552 0.985 . S
C7566 C7567 1.363 . S
C7566 C7572 1.379 . S
C7566 N7574 1.356 . S
C7567 C7566 1.363 . S
C7567 C7573 1.363 . S
C7568 C7569 1.363 . S
C7568 C7573 1.379 . S
C7568 N7575 1.356 . S
C7569 C7568 1.363 . S
C7569 C7572 1.363 . S
N7570 C7572 1.356 . S
N7570 H7582 0.984 . S
N7570 H7583 0.985 . S
N7571 C7573 1.356 . S
N7571 H7576 0.984 . S
N7571 H7577 0.985 . S
C7572 C7566 1.379 . S
C7572 C7569 1.363 . S
C7572 N7570 1.356 . S
C7573 C7567 1.363 . S
C7573 C7568 1.379 . S
C7573 N7571 1.356 . S
N7574 C7566 1.356 . S
N7574 H7580 0.984 . S
N7574 H7581 0.984 . S
N7575 C7568 1.356 . S
N7575 H7578 0.984 . S
N7575 H7579 0.985 . S
H7576 N7571 0.984 . S
H7577 N7571 0.985 . S
H7578 N7575 0.984 . S
H7579 N7575 0.985 . S
H7580 N7574 0.984 . S
H7581 N7574 0.984 . S
H7582 N7570 0.984 . S
H7583 N7570 0.985 . S
C7584 C7585 1.363 . S
C7584 C7590 1.379 . S
C7584 N7592 1.356 . S
C7585 C7584 1.363 . S
C7585 C7591 1.363 . S
C7586 C7587 1.363 . S
C7586 C7591 1.379 . S
C7586 N7593 1.356 . S
C7587 C7586 1.363 . S
C7587 C7590 1.363 . S
N7588 C7590 1.356 . S
N7588 H7600 0.984 . S
N7588 H7601 0.985 . S
N7589 C7591 1.356 . S
N7589 H7594 0.984 . S
N7589 H7595 0.985 . S
C7590 C7584 1.379 . S
C7590 C7587 1.363 . S
C7590 N7588 1.356 . S
C7591 C7585 1.363 . S
C7591 C7586 1.379 . S
C7591 N7589 1.356 . S
N7592 C7584 1.356 . S
N7592 H7598 0.984 . S
N7592 H7599 0.984 . S
N7593 C7586 1.356 . S
N7593 H7596 0.984 . S
N7593 H7597 0.985 . S
H7594 N7589 0.984 . S
H7595 N7589 0.985 . S
H7596 N7593 0.984 . S
H7597 N7593 0.985 . S
H7598 N7592 0.984 . S
H7599 N7592 0.984 . S
H7600 N7588 0.984 . S
H7601 N7588 0.985 . S
C7602 C7603 1.363 . S
C7602 C7608 1.379 . S
C7602 N7610 1.356 . S
C7603 C7602 1.363 . S
C7603 C7609 1.363 . S
C7604 C7605 1.363 . S
C7604 C7609 1.379 . S
C7604 N7611 1.356 . S
C7605 C7604 1.363 . S
C7605 C7608 1.363 . S
N7606 C7608 1.356 . S
N7606 H7618 0.984 . S
N7606 H7619 0.985 . S
N7607 C7609 1.356 . S
N7607 H7612 0.984 . S
N7607 H7613 0.985 . S
C7608 C7602 1.379 . S
C7608 C7605 1.363 . S
C7608 N7606 1.356 . S
C7609 C7603 1.363 . S
C7609 C7604 1.379 . S
C7609 N7607 1.356 . S
N7610 C7602 1.356 . S
N7610 H7616 0.984 . S
N7610 H7617 0.984 . S
N7611 C7604 1.356 . S
N7611 H7614 0.984 . S
N7611 H7615 0.985 . S
H7612 N7607 0.984 . S
H7613 N7607 0.985 . S
H7614 N7611 0.984 . S
H7615 N7611 0.985 . S
H7616 N7610 0.984 . S
H7617 N7610 0.984 . S
H7618 N7606 0.984 . S
H7619 N7606 0.985 . S
C7620 C7621 1.363 . S
C7620 C7626 1.379 . S
C7620 N7628 1.356 . S
C7621 C7620 1.363 . S
C7621 C7627 1.363 . S
C7622 C7623 1.363 . S
C7622 C7627 1.379 . S
C7622 N7629 1.356 . S
C7623 C7622 1.363 . S
C7623 C7626 1.363 . S
N7624 C7626 1.356 . S
N7624 H7636 0.984 . S
N7624 H7637 0.985 . S
N7625 C7627 1.356 . S
N7625 H7630 0.984 . S
N7625 H7631 0.985 . S
C7626 C7620 1.379 . S
C7626 C7623 1.363 . S
C7626 N7624 1.356 . S
C7627 C7621 1.363 . S
C7627 C7622 1.379 . S
C7627 N7625 1.356 . S
N7628 C7620 1.356 . S
N7628 H7634 0.984 . S
N7628 H7635 0.984 . S
N7629 C7622 1.356 . S
N7629 H7632 0.984 . S
N7629 H7633 0.985 . S
H7630 N7625 0.984 . S
H7631 N7625 0.985 . S
H7632 N7629 0.984 . S
H7633 N7629 0.985 . S
H7634 N7628 0.984 . S
H7635 N7628 0.984 . S
H7636 N7624 0.984 . S
H7637 N7624 0.985 . S
C7638 C7639 1.363 . S
C7638 C7644 1.379 . S
C7638 N7646 1.356 . S
C7639 C7638 1.363 . S
C7639 C7645 1.363 . S
C7640 C7641 1.363 . S
C7640 C7645 1.379 . S
C7640 N7647 1.356 . S
C7641 C7640 1.363 . S
C7641 C7644 1.363 . S
N7642 C7644 1.356 . S
N7642 H7654 0.984 . S
N7642 H7655 0.985 . S
N7643 C7645 1.356 . S
N7643 H7648 0.984 . S
N7643 H7649 0.985 . S
C7644 C7638 1.379 . S
C7644 C7641 1.363 . S
C7644 N7642 1.356 . S
C7645 C7639 1.363 . S
C7645 C7640 1.379 . S
C7645 N7643 1.356 . S
N7646 C7638 1.356 . S
N7646 H7652 0.984 . S
N7646 H7653 0.984 . S
N7647 C7640 1.356 . S
N7647 H7650 0.984 . S
N7647 H7651 0.985 . S
H7648 N7643 0.984 . S
H7649 N7643 0.985 . S
H7650 N7647 0.984 . S
H7651 N7647 0.985 . S
H7652 N7646 0.984 . S
H7653 N7646 0.984 . S
H7654 N7642 0.984 . S
H7655 N7642 0.985 . S
C7656 C7657 1.363 . S
C7656 C7662 1.379 . S
C7656 N7664 1.356 . S
C7657 C7656 1.363 . S
C7657 C7663 1.363 . S
C7658 C7659 1.363 . S
C7658 C7663 1.379 . S
C7658 N7665 1.356 . S
C7659 C7658 1.363 . S
C7659 C7662 1.363 . S
N7660 C7662 1.356 . S
N7660 H7672 0.984 . S
N7660 H7673 0.985 . S
N7661 C7663 1.356 . S
N7661 H7666 0.984 . S
N7661 H7667 0.985 . S
C7662 C7656 1.379 . S
C7662 C7659 1.363 . S
C7662 N7660 1.356 . S
C7663 C7657 1.363 . S
C7663 C7658 1.379 . S
C7663 N7661 1.356 . S
N7664 C7656 1.356 . S
N7664 H7670 0.984 . S
N7664 H7671 0.984 . S
N7665 C7658 1.356 . S
N7665 H7668 0.984 . S
N7665 H7669 0.985 . S
H7666 N7661 0.984 . S
H7667 N7661 0.985 . S
H7668 N7665 0.984 . S
H7669 N7665 0.985 . S
H7670 N7664 0.984 . S
H7671 N7664 0.984 . S
H7672 N7660 0.984 . S
H7673 N7660 0.985 . S
C7674 C7675 1.363 . S
C7674 C7680 1.379 . S
C7674 N7682 1.356 . S
C7675 C7674 1.363 . S
C7675 C7681 1.363 . S
C7676 C7677 1.363 . S
C7676 C7681 1.379 . S
C7676 N7683 1.356 . S
C7677 C7676 1.363 . S
C7677 C7680 1.363 . S
N7678 C7680 1.356 . S
N7678 H7690 0.984 . S
N7678 H7691 0.985 . S
N7679 C7681 1.356 . S
N7679 H7684 0.984 . S
N7679 H7685 0.985 . S
C7680 C7674 1.379 . S
C7680 C7677 1.363 . S
C7680 N7678 1.356 . S
C7681 C7675 1.363 . S
C7681 C7676 1.379 . S
C7681 N7679 1.356 . S
N7682 C7674 1.356 . S
N7682 H7688 0.984 . S
N7682 H7689 0.984 . S
N7683 C7676 1.356 . S
N7683 H7686 0.984 . S
N7683 H7687 0.985 . S
H7684 N7679 0.984 . S
H7685 N7679 0.985 . S
H7686 N7683 0.984 . S
H7687 N7683 0.985 . S
H7688 N7682 0.984 . S
H7689 N7682 0.984 . S
H7690 N7678 0.984 . S
H7691 N7678 0.985 . S
C7692 C7693 1.363 . S
C7692 C7698 1.379 . S
C7692 N7700 1.356 . S
C7693 C7692 1.363 . S
C7693 C7699 1.363 . S
C7694 C7695 1.363 . S
C7694 C7699 1.379 . S
C7694 N7701 1.356 . S
C7695 C7694 1.363 . S
C7695 C7698 1.363 . S
N7696 C7698 1.356 . S
N7696 H7708 0.984 . S
N7696 H7709 0.985 . S
N7697 C7699 1.356 . S
N7697 H7702 0.984 . S
N7697 H7703 0.985 . S
C7698 C7692 1.379 . S
C7698 C7695 1.363 . S
C7698 N7696 1.356 . S
C7699 C7693 1.363 . S
C7699 C7694 1.379 . S
C7699 N7697 1.356 . S
N7700 C7692 1.356 . S
N7700 H7706 0.984 . S
N7700 H7707 0.984 . S
N7701 C7694 1.356 . S
N7701 H7704 0.984 . S
N7701 H7705 0.985 . S
H7702 N7697 0.984 . S
H7703 N7697 0.985 . S
H7704 N7701 0.984 . S
H7705 N7701 0.985 . S
H7706 N7700 0.984 . S
H7707 N7700 0.984 . S
H7708 N7696 0.984 . S
H7709 N7696 0.985 . S
C7710 C7711 1.363 . S
C7710 C7716 1.379 . S
C7710 N7718 1.356 . S
C7711 C7710 1.363 . S
C7711 C7717 1.363 . S
C7712 C7713 1.363 . S
C7712 C7717 1.379 . S
C7712 N7719 1.356 . S
C7713 C7712 1.363 . S
C7713 C7716 1.363 . S
N7714 C7716 1.356 . S
N7714 H7726 0.984 . S
N7714 H7727 0.985 . S
N7715 C7717 1.356 . S
N7715 H7720 0.984 . S
N7715 H7721 0.985 . S
C7716 C7710 1.379 . S
C7716 C7713 1.363 . S
C7716 N7714 1.356 . S
C7717 C7711 1.363 . S
C7717 C7712 1.379 . S
C7717 N7715 1.356 . S
N7718 C7710 1.356 . S
N7718 H7724 0.984 . S
N7718 H7725 0.984 . S
N7719 C7712 1.356 . S
N7719 H7722 0.984 . S
N7719 H7723 0.985 . S
H7720 N7715 0.984 . S
H7721 N7715 0.985 . S
H7722 N7719 0.984 . S
H7723 N7719 0.985 . S
H7724 N7718 0.984 . S
H7725 N7718 0.984 . S
H7726 N7714 0.984 . S
H7727 N7714 0.985 . S
C7728 C7729 1.363 . S
C7728 C7734 1.379 . S
C7728 N7736 1.356 . S
C7729 C7728 1.363 . S
C7729 C7735 1.363 . S
C7730 C7731 1.363 . S
C7730 C7735 1.379 . S
C7730 N7737 1.356 . S
C7731 C7730 1.363 . S
C7731 C7734 1.363 . S
N7732 C7734 1.356 . S
N7732 H7744 0.984 . S
N7732 H7745 0.985 . S
N7733 C7735 1.356 . S
N7733 H7738 0.984 . S
N7733 H7739 0.985 . S
C7734 C7728 1.379 . S
C7734 C7731 1.363 . S
C7734 N7732 1.356 . S
C7735 C7729 1.363 . S
C7735 C7730 1.379 . S
C7735 N7733 1.356 . S
N7736 C7728 1.356 . S
N7736 H7742 0.984 . S
N7736 H7743 0.984 . S
N7737 C7730 1.356 . S
N7737 H7740 0.984 . S
N7737 H7741 0.985 . S
H7738 N7733 0.984 . S
H7739 N7733 0.985 . S
H7740 N7737 0.984 . S
H7741 N7737 0.985 . S
H7742 N7736 0.984 . S
H7743 N7736 0.984 . S
H7744 N7732 0.984 . S
H7745 N7732 0.985 . S
C7746 C7747 1.363 . S
C7746 C7752 1.379 . S
C7746 N7754 1.356 . S
C7747 C7746 1.363 . S
C7747 C7753 1.363 . S
C7748 C7749 1.363 . S
C7748 C7753 1.379 . S
C7748 N7755 1.356 . S
C7749 C7748 1.363 . S
C7749 C7752 1.363 . S
N7750 C7752 1.356 . S
N7750 H7762 0.984 . S
N7750 H7763 0.985 . S
N7751 C7753 1.356 . S
N7751 H7756 0.984 . S
N7751 H7757 0.985 . S
C7752 C7746 1.379 . S
C7752 C7749 1.363 . S
C7752 N7750 1.356 . S
C7753 C7747 1.363 . S
C7753 C7748 1.379 . S
C7753 N7751 1.356 . S
N7754 C7746 1.356 . S
N7754 H7760 0.984 . S
N7754 H7761 0.984 . S
N7755 C7748 1.356 . S
N7755 H7758 0.984 . S
N7755 H7759 0.985 . S
H7756 N7751 0.984 . S
H7757 N7751 0.985 . S
H7758 N7755 0.984 . S
H7759 N7755 0.985 . S
H7760 N7754 0.984 . S
H7761 N7754 0.984 . S
H7762 N7750 0.984 . S
H7763 N7750 0.985 . S
C7764 C7765 1.363 . S
C7764 C7770 1.379 . S
C7764 N7772 1.356 . S
C7765 C7764 1.363 . S
C7765 C7771 1.363 . S
C7766 C7767 1.363 . S
C7766 C7771 1.379 . S
C7766 N7773 1.356 . S
C7767 C7766 1.363 . S
C7767 C7770 1.363 . S
N7768 C7770 1.356 . S
N7768 H7780 0.984 . S
N7768 H7781 0.985 . S
N7769 C7771 1.356 . S
N7769 H7774 0.984 . S
N7769 H7775 0.985 . S
C7770 C7764 1.379 . S
C7770 C7767 1.363 . S
C7770 N7768 1.356 . S
C7771 C7765 1.363 . S
C7771 C7766 1.379 . S
C7771 N7769 1.356 . S
N7772 C7764 1.356 . S
N7772 H7778 0.984 . S
N7772 H7779 0.984 . S
N7773 C7766 1.356 . S
N7773 H7776 0.984 . S
N7773 H7777 0.985 . S
H7774 N7769 0.984 . S
H7775 N7769 0.985 . S
H7776 N7773 0.984 . S
H7777 N7773 0.985 . S
H7778 N7772 0.984 . S
H7779 N7772 0.984 . S
H7780 N7768 0.984 . S
H7781 N7768 0.985 . S
C7782 C7783 1.363 . S
C7782 C7788 1.379 . S
C7782 N7790 1.356 . S
C7783 C7782 1.363 . S
C7783 C7789 1.363 . S
C7784 C7785 1.363 . S
C7784 C7789 1.379 . S
C7784 N7791 1.356 . S
C7785 C7784 1.363 . S
C7785 C7788 1.363 . S
N7786 C7788 1.356 . S
N7786 H7798 0.984 . S
N7786 H7799 0.985 . S
N7787 C7789 1.356 . S
N7787 H7792 0.984 . S
N7787 H7793 0.985 . S
C7788 C7782 1.379 . S
C7788 C7785 1.363 . S
C7788 N7786 1.356 . S
C7789 C7783 1.363 . S
C7789 C7784 1.379 . S
C7789 N7787 1.356 . S
N7790 C7782 1.356 . S
N7790 H7796 0.984 . S
N7790 H7797 0.984 . S
N7791 C7784 1.356 . S
N7791 H7794 0.984 . S
N7791 H7795 0.985 . S
H7792 N7787 0.984 . S
H7793 N7787 0.985 . S
H7794 N7791 0.984 . S
H7795 N7791 0.985 . S
H7796 N7790 0.984 . S
H7797 N7790 0.984 . S
H7798 N7786 0.984 . S
H7799 N7786 0.985 . S
C7800 C7801 1.363 . S
C7800 C7806 1.379 . S
C7800 N7808 1.356 . S
C7801 C7800 1.363 . S
C7801 C7807 1.363 . S
C7802 C7803 1.363 . S
C7802 C7807 1.379 . S
C7802 N7809 1.356 . S
C7803 C7802 1.363 . S
C7803 C7806 1.363 . S
N7804 C7806 1.356 . S
N7804 H7816 0.984 . S
N7804 H7817 0.985 . S
N7805 C7807 1.356 . S
N7805 H7810 0.984 . S
N7805 H7811 0.985 . S
C7806 C7800 1.379 . S
C7806 C7803 1.363 . S
C7806 N7804 1.356 . S
C7807 C7801 1.363 . S
C7807 C7802 1.379 . S
C7807 N7805 1.356 . S
N7808 C7800 1.356 . S
N7808 H7814 0.984 . S
N7808 H7815 0.984 . S
N7809 C7802 1.356 . S
N7809 H7812 0.984 . S
N7809 H7813 0.985 . S
H7810 N7805 0.984 . S
H7811 N7805 0.985 . S
H7812 N7809 0.984 . S
H7813 N7809 0.985 . S
H7814 N7808 0.984 . S
H7815 N7808 0.984 . S
H7816 N7804 0.984 . S
H7817 N7804 0.985 . S
C7818 C7819 1.363 . S
C7818 C7824 1.379 . S
C7818 N7826 1.356 . S
C7819 C7818 1.363 . S
C7819 C7825 1.363 . S
C7820 C7821 1.363 . S
C7820 C7825 1.379 . S
C7820 N7827 1.356 . S
C7821 C7820 1.363 . S
C7821 C7824 1.363 . S
N7822 C7824 1.356 . S
N7822 H7834 0.984 . S
N7822 H7835 0.985 . S
N7823 C7825 1.356 . S
N7823 H7828 0.984 . S
N7823 H7829 0.985 . S
C7824 C7818 1.379 . S
C7824 C7821 1.363 . S
C7824 N7822 1.356 . S
C7825 C7819 1.363 . S
C7825 C7820 1.379 . S
C7825 N7823 1.356 . S
N7826 C7818 1.356 . S
N7826 H7832 0.984 . S
N7826 H7833 0.984 . S
N7827 C7820 1.356 . S
N7827 H7830 0.984 . S
N7827 H7831 0.985 . S
H7828 N7823 0.984 . S
H7829 N7823 0.985 . S
H7830 N7827 0.984 . S
H7831 N7827 0.985 . S
H7832 N7826 0.984 . S
H7833 N7826 0.984 . S
H7834 N7822 0.984 . S
H7835 N7822 0.985 . S
C7836 C7837 1.363 . S
C7836 C7842 1.379 . S
C7836 N7844 1.356 . S
C7837 C7836 1.363 . S
C7837 C7843 1.363 . S
C7838 C7839 1.363 . S
C7838 C7843 1.379 . S
C7838 N7845 1.356 . S
C7839 C7838 1.363 . S
C7839 C7842 1.363 . S
N7840 C7842 1.356 . S
N7840 H7852 0.984 . S
N7840 H7853 0.985 . S
N7841 C7843 1.356 . S
N7841 H7846 0.984 . S
N7841 H7847 0.985 . S
C7842 C7836 1.379 . S
C7842 C7839 1.363 . S
C7842 N7840 1.356 . S
C7843 C7837 1.363 . S
C7843 C7838 1.379 . S
C7843 N7841 1.356 . S
N7844 C7836 1.356 . S
N7844 H7850 0.984 . S
N7844 H7851 0.984 . S
N7845 C7838 1.356 . S
N7845 H7848 0.984 . S
N7845 H7849 0.985 . S
H7846 N7841 0.984 . S
H7847 N7841 0.985 . S
H7848 N7845 0.984 . S
H7849 N7845 0.985 . S
H7850 N7844 0.984 . S
H7851 N7844 0.984 . S
H7852 N7840 0.984 . S
H7853 N7840 0.985 . S
C7854 C7855 1.363 . S
C7854 C7860 1.379 . S
C7854 N7862 1.356 . S
C7855 C7854 1.363 . S
C7855 C7861 1.363 . S
C7856 C7857 1.363 . S
C7856 C7861 1.379 . S
C7856 N7863 1.356 . S
C7857 C7856 1.363 . S
C7857 C7860 1.363 . S
N7858 C7860 1.356 . S
N7858 H7870 0.984 . S
N7858 H7871 0.985 . S
N7859 C7861 1.356 . S
N7859 H7864 0.984 . S
N7859 H7865 0.985 . S
C7860 C7854 1.379 . S
C7860 C7857 1.363 . S
C7860 N7858 1.356 . S
C7861 C7855 1.363 . S
C7861 C7856 1.379 . S
C7861 N7859 1.356 . S
N7862 C7854 1.356 . S
N7862 H7868 0.984 . S
N7862 H7869 0.984 . S
N7863 C7856 1.356 . S
N7863 H7866 0.984 . S
N7863 H7867 0.985 . S
H7864 N7859 0.984 . S
H7865 N7859 0.985 . S
H7866 N7863 0.984 . S
H7867 N7863 0.985 . S
H7868 N7862 0.984 . S
H7869 N7862 0.984 . S
H7870 N7858 0.984 . S
H7871 N7858 0.985 . S
C7872 C7873 1.363 . S
C7872 C7878 1.379 . S
C7872 N7880 1.356 . S
C7873 C7872 1.363 . S
C7873 C7879 1.363 . S
C7874 C7875 1.363 . S
C7874 C7879 1.379 . S
C7874 N7881 1.356 . S
C7875 C7874 1.363 . S
C7875 C7878 1.363 . S
N7876 C7878 1.356 . S
N7876 H7888 0.984 . S
N7876 H7889 0.985 . S
N7877 C7879 1.356 . S
N7877 H7882 0.984 . S
N7877 H7883 0.985 . S
C7878 C7872 1.379 . S
C7878 C7875 1.363 . S
C7878 N7876 1.356 . S
C7879 C7873 1.363 . S
C7879 C7874 1.379 . S
C7879 N7877 1.356 . S
N7880 C7872 1.356 . S
N7880 H7886 0.984 . S
N7880 H7887 0.984 . S
N7881 C7874 1.356 . S
N7881 H7884 0.984 . S
N7881 H7885 0.985 . S
H7882 N7877 0.984 . S
H7883 N7877 0.985 . S
H7884 N7881 0.984 . S
H7885 N7881 0.985 . S
H7886 N7880 0.984 . S
H7887 N7880 0.984 . S
H7888 N7876 0.984 . S
H7889 N7876 0.985 . S
C7890 C7891 1.363 . S
C7890 C7896 1.379 . S
C7890 N7898 1.356 . S
C7891 C7890 1.363 . S
C7891 C7897 1.363 . S
C7892 C7893 1.363 . S
C7892 C7897 1.379 . S
C7892 N7899 1.356 . S
C7893 C7892 1.363 . S
C7893 C7896 1.363 . S
N7894 C7896 1.356 . S
N7894 H7906 0.984 . S
N7894 H7907 0.985 . S
N7895 C7897 1.356 . S
N7895 H7900 0.984 . S
N7895 H7901 0.985 . S
C7896 C7890 1.379 . S
C7896 C7893 1.363 . S
C7896 N7894 1.356 . S
C7897 C7891 1.363 . S
C7897 C7892 1.379 . S
C7897 N7895 1.356 . S
N7898 C7890 1.356 . S
N7898 H7904 0.984 . S
N7898 H7905 0.984 . S
N7899 C7892 1.356 . S
N7899 H7902 0.984 . S
N7899 H7903 0.985 . S
H7900 N7895 0.984 . S
H7901 N7895 0.985 . S
H7902 N7899 0.984 . S
H7903 N7899 0.985 . S
H7904 N7898 0.984 . S
H7905 N7898 0.984 . S
H7906 N7894 0.984 . S
H7907 N7894 0.985 . S
C7908 C7909 1.363 . S
C7908 C7914 1.379 . S
C7908 N7916 1.356 . S
C7909 C7908 1.363 . S
C7909 C7915 1.363 . S
C7910 C7911 1.363 . S
C7910 C7915 1.379 . S
C7910 N7917 1.356 . S
C7911 C7910 1.363 . S
C7911 C7914 1.363 . S
N7912 C7914 1.356 . S
N7912 H7924 0.984 . S
N7912 H7925 0.985 . S
N7913 C7915 1.356 . S
N7913 H7918 0.984 . S
N7913 H7919 0.985 . S
C7914 C7908 1.379 . S
C7914 C7911 1.363 . S
C7914 N7912 1.356 . S
C7915 C7909 1.363 . S
C7915 C7910 1.379 . S
C7915 N7913 1.356 . S
N7916 C7908 1.356 . S
N7916 H7922 0.984 . S
N7916 H7923 0.984 . S
N7917 C7910 1.356 . S
N7917 H7920 0.984 . S
N7917 H7921 0.985 . S
H7918 N7913 0.984 . S
H7919 N7913 0.985 . S
H7920 N7917 0.984 . S
H7921 N7917 0.985 . S
H7922 N7916 0.984 . S
H7923 N7916 0.984 . S
H7924 N7912 0.984 . S
H7925 N7912 0.985 . S
C7926 C7927 1.363 . S
C7926 C7932 1.379 . S
C7926 N7934 1.356 . S
C7927 C7926 1.363 . S
C7927 C7933 1.363 . S
C7928 C7929 1.363 . S
C7928 C7933 1.379 . S
C7928 N7935 1.356 . S
C7929 C7928 1.363 . S
C7929 C7932 1.363 . S
N7930 C7932 1.356 . S
N7930 H7942 0.984 . S
N7930 H7943 0.985 . S
N7931 C7933 1.356 . S
N7931 H7936 0.984 . S
N7931 H7937 0.985 . S
C7932 C7926 1.379 . S
C7932 C7929 1.363 . S
C7932 N7930 1.356 . S
C7933 C7927 1.363 . S
C7933 C7928 1.379 . S
C7933 N7931 1.356 . S
N7934 C7926 1.356 . S
N7934 H7940 0.984 . S
N7934 H7941 0.984 . S
N7935 C7928 1.356 . S
N7935 H7938 0.984 . S
N7935 H7939 0.985 . S
H7936 N7931 0.984 . S
H7937 N7931 0.985 . S
H7938 N7935 0.984 . S
H7939 N7935 0.985 . S
H7940 N7934 0.984 . S
H7941 N7934 0.984 . S
H7942 N7930 0.984 . S
H7943 N7930 0.985 . S
C7944 C7945 1.363 . S
C7944 C7950 1.379 . S
C7944 N7952 1.356 . S
C7945 C7944 1.363 . S
C7945 C7951 1.363 . S
C7946 C7947 1.363 . S
C7946 C7951 1.379 . S
C7946 N7953 1.356 . S
C7947 C7946 1.363 . S
C7947 C7950 1.363 . S
N7948 C7950 1.356 . S
N7948 H7960 0.984 . S
N7948 H7961 0.985 . S
N7949 C7951 1.356 . S
N7949 H7954 0.984 . S
N7949 H7955 0.985 . S
C7950 C7944 1.379 . S
C7950 C7947 1.363 . S
C7950 N7948 1.356 . S
C7951 C7945 1.363 . S
C7951 C7946 1.379 . S
C7951 N7949 1.356 . S
N7952 C7944 1.356 . S
N7952 H7958 0.984 . S
N7952 H7959 0.984 . S
N7953 C7946 1.356 . S
N7953 H7956 0.984 . S
N7953 H7957 0.985 . S
H7954 N7949 0.984 . S
H7955 N7949 0.985 . S
H7956 N7953 0.984 . S
H7957 N7953 0.985 . S
H7958 N7952 0.984 . S
H7959 N7952 0.984 . S
H7960 N7948 0.984 . S
H7961 N7948 0.985 . S
C7962 C7963 1.363 . S
C7962 C7968 1.379 . S
C7962 N7970 1.356 . S
C7963 C7962 1.363 . S
C7963 C7969 1.363 . S
C7964 C7965 1.363 . S
C7964 C7969 1.379 . S
C7964 N7971 1.356 . S
C7965 C7964 1.363 . S
C7965 C7968 1.363 . S
N7966 C7968 1.356 . S
N7966 H7978 0.984 . S
N7966 H7979 0.985 . S
N7967 C7969 1.356 . S
N7967 H7972 0.984 . S
N7967 H7973 0.985 . S
C7968 C7962 1.379 . S
C7968 C7965 1.363 . S
C7968 N7966 1.356 . S
C7969 C7963 1.363 . S
C7969 C7964 1.379 . S
C7969 N7967 1.356 . S
N7970 C7962 1.356 . S
N7970 H7976 0.984 . S
N7970 H7977 0.984 . S
N7971 C7964 1.356 . S
N7971 H7974 0.984 . S
N7971 H7975 0.985 . S
H7972 N7967 0.984 . S
H7973 N7967 0.985 . S
H7974 N7971 0.984 . S
H7975 N7971 0.985 . S
H7976 N7970 0.984 . S
H7977 N7970 0.984 . S
H7978 N7966 0.984 . S
H7979 N7966 0.985 . S
C7980 C7981 1.363 . S
C7980 C7986 1.379 . S
C7980 N7988 1.356 . S
C7981 C7980 1.363 . S
C7981 C7987 1.363 . S
C7982 C7983 1.363 . S
C7982 C7987 1.379 . S
C7982 N7989 1.356 . S
C7983 C7982 1.363 . S
C7983 C7986 1.363 . S
N7984 C7986 1.356 . S
N7984 H7996 0.984 . S
N7984 H7997 0.985 . S
N7985 C7987 1.356 . S
N7985 H7990 0.984 . S
N7985 H7991 0.985 . S
C7986 C7980 1.379 . S
C7986 C7983 1.363 . S
C7986 N7984 1.356 . S
C7987 C7981 1.363 . S
C7987 C7982 1.379 . S
C7987 N7985 1.356 . S
N7988 C7980 1.356 . S
N7988 H7994 0.984 . S
N7988 H7995 0.984 . S
N7989 C7982 1.356 . S
N7989 H7992 0.984 . S
N7989 H7993 0.985 . S
H7990 N7985 0.984 . S
H7991 N7985 0.985 . S
H7992 N7989 0.984 . S
H7993 N7989 0.985 . S
H7994 N7988 0.984 . S
H7995 N7988 0.984 . S
H7996 N7984 0.984 . S
H7997 N7984 0.985 . S
C7998 C7999 1.363 . S
C7998 C8004 1.379 . S
C7998 N8006 1.356 . S
C7999 C7998 1.363 . S
C7999 C8005 1.363 . S
C8000 C8001 1.363 . S
C8000 C8005 1.379 . S
C8000 N8007 1.356 . S
C8001 C8000 1.363 . S
C8001 C8004 1.363 . S
N8002 C8004 1.356 . S
N8002 H8014 0.984 . S
N8002 H8015 0.985 . S
N8003 C8005 1.356 . S
N8003 H8008 0.984 . S
N8003 H8009 0.985 . S
C8004 C7998 1.379 . S
C8004 C8001 1.363 . S
C8004 N8002 1.356 . S
C8005 C7999 1.363 . S
C8005 C8000 1.379 . S
C8005 N8003 1.356 . S
N8006 C7998 1.356 . S
N8006 H8012 0.984 . S
N8006 H8013 0.984 . S
N8007 C8000 1.356 . S
N8007 H8010 0.984 . S
N8007 H8011 0.985 . S
H8008 N8003 0.984 . S
H8009 N8003 0.985 . S
H8010 N8007 0.984 . S
H8011 N8007 0.985 . S
H8012 N8006 0.984 . S
H8013 N8006 0.984 . S
H8014 N8002 0.984 . S
H8015 N8002 0.985 . S
C8016 C8017 1.363 . S
C8016 C8022 1.379 . S
C8016 N8024 1.356 . S
C8017 C8016 1.363 . S
C8017 C8023 1.363 . S
C8018 C8019 1.363 . S
C8018 C8023 1.379 . S
C8018 N8025 1.356 . S
C8019 C8018 1.363 . S
C8019 C8022 1.363 . S
N8020 C8022 1.356 . S
N8020 H8032 0.984 . S
N8020 H8033 0.985 . S
N8021 C8023 1.356 . S
N8021 H8026 0.984 . S
N8021 H8027 0.985 . S
C8022 C8016 1.379 . S
C8022 C8019 1.363 . S
C8022 N8020 1.356 . S
C8023 C8017 1.363 . S
C8023 C8018 1.379 . S
C8023 N8021 1.356 . S
N8024 C8016 1.356 . S
N8024 H8030 0.984 . S
N8024 H8031 0.984 . S
N8025 C8018 1.356 . S
N8025 H8028 0.984 . S
N8025 H8029 0.985 . S
H8026 N8021 0.984 . S
H8027 N8021 0.985 . S
H8028 N8025 0.984 . S
H8029 N8025 0.985 . S
H8030 N8024 0.984 . S
H8031 N8024 0.984 . S
H8032 N8020 0.984 . S
H8033 N8020 0.985 . S
C8034 C8035 1.363 . S
C8034 C8040 1.379 . S
C8034 N8042 1.356 . S
C8035 C8034 1.363 . S
C8035 C8041 1.363 . S
C8036 C8037 1.363 . S
C8036 C8041 1.379 . S
C8036 N8043 1.356 . S
C8037 C8036 1.363 . S
C8037 C8040 1.363 . S
N8038 C8040 1.356 . S
N8038 H8050 0.984 . S
N8038 H8051 0.985 . S
N8039 C8041 1.356 . S
N8039 H8044 0.984 . S
N8039 H8045 0.985 . S
C8040 C8034 1.379 . S
C8040 C8037 1.363 . S
C8040 N8038 1.356 . S
C8041 C8035 1.363 . S
C8041 C8036 1.379 . S
C8041 N8039 1.356 . S
N8042 C8034 1.356 . S
N8042 H8048 0.984 . S
N8042 H8049 0.984 . S
N8043 C8036 1.356 . S
N8043 H8046 0.984 . S
N8043 H8047 0.985 . S
H8044 N8039 0.984 . S
H8045 N8039 0.985 . S
H8046 N8043 0.984 . S
H8047 N8043 0.985 . S
H8048 N8042 0.984 . S
H8049 N8042 0.984 . S
H8050 N8038 0.984 . S
H8051 N8038 0.985 . S
C8052 C8053 1.363 . S
C8052 C8058 1.379 . S
C8052 N8060 1.356 . S
C8053 C8052 1.363 . S
C8053 C8059 1.363 . S
C8054 C8055 1.363 . S
C8054 C8059 1.379 . S
C8054 N8061 1.356 . S
C8055 C8054 1.363 . S
C8055 C8058 1.363 . S
N8056 C8058 1.356 . S
N8056 H8068 0.984 . S
N8056 H8069 0.985 . S
N8057 C8059 1.356 . S
N8057 H8062 0.984 . S
N8057 H8063 0.985 . S
C8058 C8052 1.379 . S
C8058 C8055 1.363 . S
C8058 N8056 1.356 . S
C8059 C8053 1.363 . S
C8059 C8054 1.379 . S
C8059 N8057 1.356 . S
N8060 C8052 1.356 . S
N8060 H8066 0.984 . S
N8060 H8067 0.984 . S
N8061 C8054 1.356 . S
N8061 H8064 0.984 . S
N8061 H8065 0.985 . S
H8062 N8057 0.984 . S
H8063 N8057 0.985 . S
H8064 N8061 0.984 . S
H8065 N8061 0.985 . S
H8066 N8060 0.984 . S
H8067 N8060 0.984 . S
H8068 N8056 0.984 . S
H8069 N8056 0.985 . S
C8070 C8071 1.363 . S
C8070 C8076 1.379 . S
C8070 N8078 1.356 . S
C8071 C8070 1.363 . S
C8071 C8077 1.363 . S
C8072 C8073 1.363 . S
C8072 C8077 1.379 . S
C8072 N8079 1.356 . S
C8073 C8072 1.363 . S
C8073 C8076 1.363 . S
N8074 C8076 1.356 . S
N8074 H8086 0.984 . S
N8074 H8087 0.985 . S
N8075 C8077 1.356 . S
N8075 H8080 0.984 . S
N8075 H8081 0.985 . S
C8076 C8070 1.379 . S
C8076 C8073 1.363 . S
C8076 N8074 1.356 . S
C8077 C8071 1.363 . S
C8077 C8072 1.379 . S
C8077 N8075 1.356 . S
N8078 C8070 1.356 . S
N8078 H8084 0.984 . S
N8078 H8085 0.984 . S
N8079 C8072 1.356 . S
N8079 H8082 0.984 . S
N8079 H8083 0.985 . S
H8080 N8075 0.984 . S
H8081 N8075 0.985 . S
H8082 N8079 0.984 . S
H8083 N8079 0.985 . S
H8084 N8078 0.984 . S
H8085 N8078 0.984 . S
H8086 N8074 0.984 . S
H8087 N8074 0.985 . S
C8088 C8089 1.363 . S
C8088 C8094 1.379 . S
C8088 N8096 1.356 . S
C8089 C8088 1.363 . S
C8089 C8095 1.363 . S
C8090 C8091 1.363 . S
C8090 C8095 1.379 . S
C8090 N8097 1.356 . S
C8091 C8090 1.363 . S
C8091 C8094 1.363 . S
N8092 C8094 1.356 . S
N8092 H8104 0.984 . S
N8092 H8105 0.985 . S
N8093 C8095 1.356 . S
N8093 H8098 0.984 . S
N8093 H8099 0.985 . S
C8094 C8088 1.379 . S
C8094 C8091 1.363 . S
C8094 N8092 1.356 . S
C8095 C8089 1.363 . S
C8095 C8090 1.379 . S
C8095 N8093 1.356 . S
N8096 C8088 1.356 . S
N8096 H8102 0.984 . S
N8096 H8103 0.984 . S
N8097 C8090 1.356 . S
N8097 H8100 0.984 . S
N8097 H8101 0.985 . S
H8098 N8093 0.984 . S
H8099 N8093 0.985 . S
H8100 N8097 0.984 . S
H8101 N8097 0.985 . S
H8102 N8096 0.984 . S
H8103 N8096 0.984 . S
H8104 N8092 0.984 . S
H8105 N8092 0.985 . S
C8106 C8107 1.363 . S
C8106 C8112 1.379 . S
C8106 N8114 1.356 . S
C8107 C8106 1.363 . S
C8107 C8113 1.363 . S
C8108 C8109 1.363 . S
C8108 C8113 1.379 . S
C8108 N8115 1.356 . S
C8109 C8108 1.363 . S
C8109 C8112 1.363 . S
N8110 C8112 1.356 . S
N8110 H8122 0.984 . S
N8110 H8123 0.985 . S
N8111 C8113 1.356 . S
N8111 H8116 0.984 . S
N8111 H8117 0.985 . S
C8112 C8106 1.379 . S
C8112 C8109 1.363 . S
C8112 N8110 1.356 . S
C8113 C8107 1.363 . S
C8113 C8108 1.379 . S
C8113 N8111 1.356 . S
N8114 C8106 1.356 . S
N8114 H8120 0.984 . S
N8114 H8121 0.984 . S
N8115 C8108 1.356 . S
N8115 H8118 0.984 . S
N8115 H8119 0.985 . S
H8116 N8111 0.984 . S
H8117 N8111 0.985 . S
H8118 N8115 0.984 . S
H8119 N8115 0.985 . S
H8120 N8114 0.984 . S
H8121 N8114 0.984 . S
H8122 N8110 0.984 . S
H8123 N8110 0.985 . S
C8124 C8125 1.363 . S
C8124 C8130 1.379 . S
C8124 N8132 1.356 . S
C8125 C8124 1.363 . S
C8125 C8131 1.363 . S
C8126 C8127 1.363 . S
C8126 C8131 1.379 . S
C8126 N8133 1.356 . S
C8127 C8126 1.363 . S
C8127 C8130 1.363 . S
N8128 C8130 1.356 . S
N8128 H8140 0.984 . S
N8128 H8141 0.985 . S
N8129 C8131 1.356 . S
N8129 H8134 0.984 . S
N8129 H8135 0.985 . S
C8130 C8124 1.379 . S
C8130 C8127 1.363 . S
C8130 N8128 1.356 . S
C8131 C8125 1.363 . S
C8131 C8126 1.379 . S
C8131 N8129 1.356 . S
N8132 C8124 1.356 . S
N8132 H8138 0.984 . S
N8132 H8139 0.984 . S
N8133 C8126 1.356 . S
N8133 H8136 0.984 . S
N8133 H8137 0.985 . S
H8134 N8129 0.984 . S
H8135 N8129 0.985 . S
H8136 N8133 0.984 . S
H8137 N8133 0.985 . S
H8138 N8132 0.984 . S
H8139 N8132 0.984 . S
H8140 N8128 0.984 . S
H8141 N8128 0.985 . S
C8142 C8143 1.363 . S
C8142 C8148 1.379 . S
C8142 N8150 1.356 . S
C8143 C8142 1.363 . S
C8143 C8149 1.363 . S
C8144 C8145 1.363 . S
C8144 C8149 1.379 . S
C8144 N8151 1.356 . S
C8145 C8144 1.363 . S
C8145 C8148 1.363 . S
N8146 C8148 1.356 . S
N8146 H8158 0.984 . S
N8146 H8159 0.985 . S
N8147 C8149 1.356 . S
N8147 H8152 0.984 . S
N8147 H8153 0.985 . S
C8148 C8142 1.379 . S
C8148 C8145 1.363 . S
C8148 N8146 1.356 . S
C8149 C8143 1.363 . S
C8149 C8144 1.379 . S
C8149 N8147 1.356 . S
N8150 C8142 1.356 . S
N8150 H8156 0.984 . S
N8150 H8157 0.984 . S
N8151 C8144 1.356 . S
N8151 H8154 0.984 . S
N8151 H8155 0.985 . S
H8152 N8147 0.984 . S
H8153 N8147 0.985 . S
H8154 N8151 0.984 . S
H8155 N8151 0.985 . S
H8156 N8150 0.984 . S
H8157 N8150 0.984 . S
H8158 N8146 0.984 . S
H8159 N8146 0.985 . S
C8160 C8161 1.363 . S
C8160 C8166 1.379 . S
C8160 N8168 1.356 . S
C8161 C8160 1.363 . S
C8161 C8167 1.363 . S
C8162 C8163 1.363 . S
C8162 C8167 1.379 . S
C8162 N8169 1.356 . S
C8163 C8162 1.363 . S
C8163 C8166 1.363 . S
N8164 C8166 1.356 . S
N8164 H8176 0.984 . S
N8164 H8177 0.985 . S
N8165 C8167 1.356 . S
N8165 H8170 0.984 . S
N8165 H8171 0.985 . S
C8166 C8160 1.379 . S
C8166 C8163 1.363 . S
C8166 N8164 1.356 . S
C8167 C8161 1.363 . S
C8167 C8162 1.379 . S
C8167 N8165 1.356 . S
N8168 C8160 1.356 . S
N8168 H8174 0.984 . S
N8168 H8175 0.984 . S
N8169 C8162 1.356 . S
N8169 H8172 0.984 . S
N8169 H8173 0.985 . S
H8170 N8165 0.984 . S
H8171 N8165 0.985 . S
H8172 N8169 0.984 . S
H8173 N8169 0.985 . S
H8174 N8168 0.984 . S
H8175 N8168 0.984 . S
H8176 N8164 0.984 . S
H8177 N8164 0.985 . S
C8178 C8179 1.363 . S
C8178 C8184 1.379 . S
C8178 N8186 1.356 . S
C8179 C8178 1.363 . S
C8179 C8185 1.363 . S
C8180 C8181 1.363 . S
C8180 C8185 1.379 . S
C8180 N8187 1.356 . S
C8181 C8180 1.363 . S
C8181 C8184 1.363 . S
N8182 C8184 1.356 . S
N8182 H8194 0.984 . S
N8182 H8195 0.985 . S
N8183 C8185 1.356 . S
N8183 H8188 0.984 . S
N8183 H8189 0.985 . S
C8184 C8178 1.379 . S
C8184 C8181 1.363 . S
C8184 N8182 1.356 . S
C8185 C8179 1.363 . S
C8185 C8180 1.379 . S
C8185 N8183 1.356 . S
N8186 C8178 1.356 . S
N8186 H8192 0.984 . S
N8186 H8193 0.984 . S
N8187 C8180 1.356 . S
N8187 H8190 0.984 . S
N8187 H8191 0.985 . S
H8188 N8183 0.984 . S
H8189 N8183 0.985 . S
H8190 N8187 0.984 . S
H8191 N8187 0.985 . S
H8192 N8186 0.984 . S
H8193 N8186 0.984 . S
H8194 N8182 0.984 . S
H8195 N8182 0.985 . S
C8196 C8197 1.363 . S
C8196 C8202 1.379 . S
C8196 N8204 1.356 . S
C8197 C8196 1.363 . S
C8197 C8203 1.363 . S
C8198 C8199 1.363 . S
C8198 C8203 1.379 . S
C8198 N8205 1.356 . S
C8199 C8198 1.363 . S
C8199 C8202 1.363 . S
N8200 C8202 1.356 . S
N8200 H8212 0.984 . S
N8200 H8213 0.985 . S
N8201 C8203 1.356 . S
N8201 H8206 0.984 . S
N8201 H8207 0.985 . S
C8202 C8196 1.379 . S
C8202 C8199 1.363 . S
C8202 N8200 1.356 . S
C8203 C8197 1.363 . S
C8203 C8198 1.379 . S
C8203 N8201 1.356 . S
N8204 C8196 1.356 . S
N8204 H8210 0.984 . S
N8204 H8211 0.984 . S
N8205 C8198 1.356 . S
N8205 H8208 0.984 . S
N8205 H8209 0.985 . S
H8206 N8201 0.984 . S
H8207 N8201 0.985 . S
H8208 N8205 0.984 . S
H8209 N8205 0.985 . S
H8210 N8204 0.984 . S
H8211 N8204 0.984 . S
H8212 N8200 0.984 . S
H8213 N8200 0.985 . S
C8214 C8215 1.363 . S
C8214 C8220 1.379 . S
C8214 N8222 1.356 . S
C8215 C8214 1.363 . S
C8215 C8221 1.363 . S
C8216 C8217 1.363 . S
C8216 C8221 1.379 . S
C8216 N8223 1.356 . S
C8217 C8216 1.363 . S
C8217 C8220 1.363 . S
N8218 C8220 1.356 . S
N8218 H8230 0.984 . S
N8218 H8231 0.985 . S
N8219 C8221 1.356 . S
N8219 H8224 0.984 . S
N8219 H8225 0.985 . S
C8220 C8214 1.379 . S
C8220 C8217 1.363 . S
C8220 N8218 1.356 . S
C8221 C8215 1.363 . S
C8221 C8216 1.379 . S
C8221 N8219 1.356 . S
N8222 C8214 1.356 . S
N8222 H8228 0.984 . S
N8222 H8229 0.984 . S
N8223 C8216 1.356 . S
N8223 H8226 0.984 . S
N8223 H8227 0.985 . S
H8224 N8219 0.984 . S
H8225 N8219 0.985 . S
H8226 N8223 0.984 . S
H8227 N8223 0.985 . S
H8228 N8222 0.984 . S
H8229 N8222 0.984 . S
H8230 N8218 0.984 . S
H8231 N8218 0.985 . S
C8232 C8233 1.363 . S
C8232 C8238 1.379 . S
C8232 N8240 1.356 . S
C8233 C8232 1.363 . S
C8233 C8239 1.363 . S
C8234 C8235 1.363 . S
C8234 C8239 1.379 . S
C8234 N8241 1.356 . S
C8235 C8234 1.363 . S
C8235 C8238 1.363 . S
N8236 C8238 1.356 . S
N8236 H8248 0.984 . S
N8236 H8249 0.985 . S
N8237 C8239 1.356 . S
N8237 H8242 0.984 . S
N8237 H8243 0.985 . S
C8238 C8232 1.379 . S
C8238 C8235 1.363 . S
C8238 N8236 1.356 . S
C8239 C8233 1.363 . S
C8239 C8234 1.379 . S
C8239 N8237 1.356 . S
N8240 C8232 1.356 . S
N8240 H8246 0.984 . S
N8240 H8247 0.984 . S
N8241 C8234 1.356 . S
N8241 H8244 0.984 . S
N8241 H8245 0.985 . S
H8242 N8237 0.984 . S
H8243 N8237 0.985 . S
H8244 N8241 0.984 . S
H8245 N8241 0.985 . S
H8246 N8240 0.984 . S
H8247 N8240 0.984 . S
H8248 N8236 0.984 . S
H8249 N8236 0.985 . S
C8250 C8251 1.363 . S
C8250 C8256 1.379 . S
C8250 N8258 1.356 . S
C8251 C8250 1.363 . S
C8251 C8257 1.363 . S
C8252 C8253 1.363 . S
C8252 C8257 1.379 . S
C8252 N8259 1.356 . S
C8253 C8252 1.363 . S
C8253 C8256 1.363 . S
N8254 C8256 1.356 . S
N8254 H8266 0.984 . S
N8254 H8267 0.985 . S
N8255 C8257 1.356 . S
N8255 H8260 0.984 . S
N8255 H8261 0.985 . S
C8256 C8250 1.379 . S
C8256 C8253 1.363 . S
C8256 N8254 1.356 . S
C8257 C8251 1.363 . S
C8257 C8252 1.379 . S
C8257 N8255 1.356 . S
N8258 C8250 1.356 . S
N8258 H8264 0.984 . S
N8258 H8265 0.984 . S
N8259 C8252 1.356 . S
N8259 H8262 0.984 . S
N8259 H8263 0.985 . S
H8260 N8255 0.984 . S
H8261 N8255 0.985 . S
H8262 N8259 0.984 . S
H8263 N8259 0.985 . S
H8264 N8258 0.984 . S
H8265 N8258 0.984 . S
H8266 N8254 0.984 . S
H8267 N8254 0.985 . S
C8268 C8269 1.363 . S
C8268 C8274 1.379 . S
C8268 N8276 1.356 . S
C8269 C8268 1.363 . S
C8269 C8275 1.363 . S
C8270 C8271 1.363 . S
C8270 C8275 1.379 . S
C8270 N8277 1.356 . S
C8271 C8270 1.363 . S
C8271 C8274 1.363 . S
N8272 C8274 1.356 . S
N8272 H8284 0.984 . S
N8272 H8285 0.985 . S
N8273 C8275 1.356 . S
N8273 H8278 0.984 . S
N8273 H8279 0.985 . S
C8274 C8268 1.379 . S
C8274 C8271 1.363 . S
C8274 N8272 1.356 . S
C8275 C8269 1.363 . S
C8275 C8270 1.379 . S
C8275 N8273 1.356 . S
N8276 C8268 1.356 . S
N8276 H8282 0.984 . S
N8276 H8283 0.984 . S
N8277 C8270 1.356 . S
N8277 H8280 0.984 . S
N8277 H8281 0.985 . S
H8278 N8273 0.984 . S
H8279 N8273 0.985 . S
H8280 N8277 0.984 . S
H8281 N8277 0.985 . S
H8282 N8276 0.984 . S
H8283 N8276 0.984 . S
H8284 N8272 0.984 . S
H8285 N8272 0.985 . S
C8286 C8287 1.363 . S
C8286 C8292 1.379 . S
C8286 N8294 1.356 . S
C8287 C8286 1.363 . S
C8287 C8293 1.363 . S
C8288 C8289 1.363 . S
C8288 C8293 1.379 . S
C8288 N8295 1.356 . S
C8289 C8288 1.363 . S
C8289 C8292 1.363 . S
N8290 C8292 1.356 . S
N8290 H8302 0.984 . S
N8290 H8303 0.985 . S
N8291 C8293 1.356 . S
N8291 H8296 0.984 . S
N8291 H8297 0.985 . S
C8292 C8286 1.379 . S
C8292 C8289 1.363 . S
C8292 N8290 1.356 . S
C8293 C8287 1.363 . S
C8293 C8288 1.379 . S
C8293 N8291 1.356 . S
N8294 C8286 1.356 . S
N8294 H8300 0.984 . S
N8294 H8301 0.984 . S
N8295 C8288 1.356 . S
N8295 H8298 0.984 . S
N8295 H8299 0.985 . S
H8296 N8291 0.984 . S
H8297 N8291 0.985 . S
H8298 N8295 0.984 . S
H8299 N8295 0.985 . S
H8300 N8294 0.984 . S
H8301 N8294 0.984 . S
H8302 N8290 0.984 . S
H8303 N8290 0.985 . S
C8304 C8305 1.363 . S
C8304 C8310 1.379 . S
C8304 N8312 1.356 . S
C8305 C8304 1.363 . S
C8305 C8311 1.363 . S
C8306 C8307 1.363 . S
C8306 C8311 1.379 . S
C8306 N8313 1.356 . S
C8307 C8306 1.363 . S
C8307 C8310 1.363 . S
N8308 C8310 1.356 . S
N8308 H8320 0.984 . S
N8308 H8321 0.985 . S
N8309 C8311 1.356 . S
N8309 H8314 0.984 . S
N8309 H8315 0.985 . S
C8310 C8304 1.379 . S
C8310 C8307 1.363 . S
C8310 N8308 1.356 . S
C8311 C8305 1.363 . S
C8311 C8306 1.379 . S
C8311 N8309 1.356 . S
N8312 C8304 1.356 . S
N8312 H8318 0.984 . S
N8312 H8319 0.984 . S
N8313 C8306 1.356 . S
N8313 H8316 0.984 . S
N8313 H8317 0.985 . S
H8314 N8309 0.984 . S
H8315 N8309 0.985 . S
H8316 N8313 0.984 . S
H8317 N8313 0.985 . S
H8318 N8312 0.984 . S
H8319 N8312 0.984 . S
H8320 N8308 0.984 . S
H8321 N8308 0.985 . S
C8322 C8323 1.363 . S
C8322 C8328 1.379 . S
C8322 N8330 1.356 . S
C8323 C8322 1.363 . S
C8323 C8329 1.363 . S
C8324 C8325 1.363 . S
C8324 C8329 1.379 . S
C8324 N8331 1.356 . S
C8325 C8324 1.363 . S
C8325 C8328 1.363 . S
N8326 C8328 1.356 . S
N8326 H8338 0.984 . S
N8326 H8339 0.985 . S
N8327 C8329 1.356 . S
N8327 H8332 0.984 . S
N8327 H8333 0.985 . S
C8328 C8322 1.379 . S
C8328 C8325 1.363 . S
C8328 N8326 1.356 . S
C8329 C8323 1.363 . S
C8329 C8324 1.379 . S
C8329 N8327 1.356 . S
N8330 C8322 1.356 . S
N8330 H8336 0.984 . S
N8330 H8337 0.984 . S
N8331 C8324 1.356 . S
N8331 H8334 0.984 . S
N8331 H8335 0.985 . S
H8332 N8327 0.984 . S
H8333 N8327 0.985 . S
H8334 N8331 0.984 . S
H8335 N8331 0.985 . S
H8336 N8330 0.984 . S
H8337 N8330 0.984 . S
H8338 N8326 0.984 . S
H8339 N8326 0.985 . S
C8340 C8341 1.363 . S
C8340 C8346 1.379 . S
C8340 N8348 1.356 . S
C8341 C8340 1.363 . S
C8341 C8347 1.363 . S
C8342 C8343 1.363 . S
C8342 C8347 1.379 . S
C8342 N8349 1.356 . S
C8343 C8342 1.363 . S
C8343 C8346 1.363 . S
N8344 C8346 1.356 . S
N8344 H8356 0.984 . S
N8344 H8357 0.985 . S
N8345 C8347 1.356 . S
N8345 H8350 0.984 . S
N8345 H8351 0.985 . S
C8346 C8340 1.379 . S
C8346 C8343 1.363 . S
C8346 N8344 1.356 . S
C8347 C8341 1.363 . S
C8347 C8342 1.379 . S
C8347 N8345 1.356 . S
N8348 C8340 1.356 . S
N8348 H8354 0.984 . S
N8348 H8355 0.984 . S
N8349 C8342 1.356 . S
N8349 H8352 0.984 . S
N8349 H8353 0.985 . S
H8350 N8345 0.984 . S
H8351 N8345 0.985 . S
H8352 N8349 0.984 . S
H8353 N8349 0.985 . S
H8354 N8348 0.984 . S
H8355 N8348 0.984 . S
H8356 N8344 0.984 . S
H8357 N8344 0.985 . S
C8358 C8359 1.363 . S
C8358 C8364 1.379 . S
C8358 N8366 1.356 . S
C8359 C8358 1.363 . S
C8359 C8365 1.363 . S
C8360 C8361 1.363 . S
C8360 C8365 1.379 . S
C8360 N8367 1.356 . S
C8361 C8360 1.363 . S
C8361 C8364 1.363 . S
N8362 C8364 1.356 . S
N8362 H8374 0.984 . S
N8362 H8375 0.985 . S
N8363 C8365 1.356 . S
N8363 H8368 0.984 . S
N8363 H8369 0.985 . S
C8364 C8358 1.379 . S
C8364 C8361 1.363 . S
C8364 N8362 1.356 . S
C8365 C8359 1.363 . S
C8365 C8360 1.379 . S
C8365 N8363 1.356 . S
N8366 C8358 1.356 . S
N8366 H8372 0.984 . S
N8366 H8373 0.984 . S
N8367 C8360 1.356 . S
N8367 H8370 0.984 . S
N8367 H8371 0.985 . S
H8368 N8363 0.984 . S
H8369 N8363 0.985 . S
H8370 N8367 0.984 . S
H8371 N8367 0.985 . S
H8372 N8366 0.984 . S
H8373 N8366 0.984 . S
H8374 N8362 0.984 . S
H8375 N8362 0.985 . S
C8376 C8377 1.363 . S
C8376 C8382 1.379 . S
C8376 N8384 1.356 . S
C8377 C8376 1.363 . S
C8377 C8383 1.363 . S
C8378 C8379 1.363 . S
C8378 C8383 1.379 . S
C8378 N8385 1.356 . S
C8379 C8378 1.363 . S
C8379 C8382 1.363 . S
N8380 C8382 1.356 . S
N8380 H8392 0.984 . S
N8380 H8393 0.985 . S
N8381 C8383 1.356 . S
N8381 H8386 0.984 . S
N8381 H8387 0.985 . S
C8382 C8376 1.379 . S
C8382 C8379 1.363 . S
C8382 N8380 1.356 . S
C8383 C8377 1.363 . S
C8383 C8378 1.379 . S
C8383 N8381 1.356 . S
N8384 C8376 1.356 . S
N8384 H8390 0.984 . S
N8384 H8391 0.984 . S
N8385 C8378 1.356 . S
N8385 H8388 0.984 . S
N8385 H8389 0.985 . S
H8386 N8381 0.984 . S
H8387 N8381 0.985 . S
H8388 N8385 0.984 . S
H8389 N8385 0.985 . S
H8390 N8384 0.984 . S
H8391 N8384 0.984 . S
H8392 N8380 0.984 . S
H8393 N8380 0.985 . S
C8394 C8395 1.363 . S
C8394 C8400 1.379 . S
C8394 N8402 1.356 . S
C8395 C8394 1.363 . S
C8395 C8401 1.363 . S
C8396 C8397 1.363 . S
C8396 C8401 1.379 . S
C8396 N8403 1.356 . S
C8397 C8396 1.363 . S
C8397 C8400 1.363 . S
N8398 C8400 1.356 . S
N8398 H8410 0.984 . S
N8398 H8411 0.985 . S
N8399 C8401 1.356 . S
N8399 H8404 0.984 . S
N8399 H8405 0.985 . S
C8400 C8394 1.379 . S
C8400 C8397 1.363 . S
C8400 N8398 1.356 . S
C8401 C8395 1.363 . S
C8401 C8396 1.379 . S
C8401 N8399 1.356 . S
N8402 C8394 1.356 . S
N8402 H8408 0.984 . S
N8402 H8409 0.984 . S
N8403 C8396 1.356 . S
N8403 H8406 0.984 . S
N8403 H8407 0.985 . S
H8404 N8399 0.984 . S
H8405 N8399 0.985 . S
H8406 N8403 0.984 . S
H8407 N8403 0.985 . S
H8408 N8402 0.984 . S
H8409 N8402 0.984 . S
H8410 N8398 0.984 . S
H8411 N8398 0.985 . S
C8412 C8413 1.363 . S
C8412 C8418 1.379 . S
C8412 N8420 1.356 . S
C8413 C8412 1.363 . S
C8413 C8419 1.363 . S
C8414 C8415 1.363 . S
C8414 C8419 1.379 . S
C8414 N8421 1.356 . S
C8415 C8414 1.363 . S
C8415 C8418 1.363 . S
N8416 C8418 1.356 . S
N8416 H8428 0.984 . S
N8416 H8429 0.985 . S
N8417 C8419 1.356 . S
N8417 H8422 0.984 . S
N8417 H8423 0.985 . S
C8418 C8412 1.379 . S
C8418 C8415 1.363 . S
C8418 N8416 1.356 . S
C8419 C8413 1.363 . S
C8419 C8414 1.379 . S
C8419 N8417 1.356 . S
N8420 C8412 1.356 . S
N8420 H8426 0.984 . S
N8420 H8427 0.984 . S
N8421 C8414 1.356 . S
N8421 H8424 0.984 . S
N8421 H8425 0.985 . S
H8422 N8417 0.984 . S
H8423 N8417 0.985 . S
H8424 N8421 0.984 . S
H8425 N8421 0.985 . S
H8426 N8420 0.984 . S
H8427 N8420 0.984 . S
H8428 N8416 0.984 . S
H8429 N8416 0.985 . S
C8430 C8431 1.363 . S
C8430 C8436 1.379 . S
C8430 N8438 1.356 . S
C8431 C8430 1.363 . S
C8431 C8437 1.363 . S
C8432 C8433 1.363 . S
C8432 C8437 1.379 . S
C8432 N8439 1.356 . S
C8433 C8432 1.363 . S
C8433 C8436 1.363 . S
N8434 C8436 1.356 . S
N8434 H8446 0.984 . S
N8434 H8447 0.985 . S
N8435 C8437 1.356 . S
N8435 H8440 0.984 . S
N8435 H8441 0.985 . S
C8436 C8430 1.379 . S
C8436 C8433 1.363 . S
C8436 N8434 1.356 . S
C8437 C8431 1.363 . S
C8437 C8432 1.379 . S
C8437 N8435 1.356 . S
N8438 C8430 1.356 . S
N8438 H8444 0.984 . S
N8438 H8445 0.984 . S
N8439 C8432 1.356 . S
N8439 H8442 0.984 . S
N8439 H8443 0.985 . S
H8440 N8435 0.984 . S
H8441 N8435 0.985 . S
H8442 N8439 0.984 . S
H8443 N8439 0.985 . S
H8444 N8438 0.984 . S
H8445 N8438 0.984 . S
H8446 N8434 0.984 . S
H8447 N8434 0.985 . S
C8448 C8449 1.363 . S
C8448 C8454 1.379 . S
C8448 N8456 1.356 . S
C8449 C8448 1.363 . S
C8449 C8455 1.363 . S
C8450 C8451 1.363 . S
C8450 C8455 1.379 . S
C8450 N8457 1.356 . S
C8451 C8450 1.363 . S
C8451 C8454 1.363 . S
N8452 C8454 1.356 . S
N8452 H8464 0.984 . S
N8452 H8465 0.985 . S
N8453 C8455 1.356 . S
N8453 H8458 0.984 . S
N8453 H8459 0.985 . S
C8454 C8448 1.379 . S
C8454 C8451 1.363 . S
C8454 N8452 1.356 . S
C8455 C8449 1.363 . S
C8455 C8450 1.379 . S
C8455 N8453 1.356 . S
N8456 C8448 1.356 . S
N8456 H8462 0.984 . S
N8456 H8463 0.984 . S
N8457 C8450 1.356 . S
N8457 H8460 0.984 . S
N8457 H8461 0.985 . S
H8458 N8453 0.984 . S
H8459 N8453 0.985 . S
H8460 N8457 0.984 . S
H8461 N8457 0.985 . S
H8462 N8456 0.984 . S
H8463 N8456 0.984 . S
H8464 N8452 0.984 . S
H8465 N8452 0.985 . S
C8466 C8467 1.363 . S
C8466 C8472 1.379 . S
C8466 N8474 1.356 . S
C8467 C8466 1.363 . S
C8467 C8473 1.363 . S
C8468 C8469 1.363 . S
C8468 C8473 1.379 . S
C8468 N8475 1.356 . S
C8469 C8468 1.363 . S
C8469 C8472 1.363 . S
N8470 C8472 1.356 . S
N8470 H8482 0.984 . S
N8470 H8483 0.985 . S
N8471 C8473 1.356 . S
N8471 H8476 0.984 . S
N8471 H8477 0.985 . S
C8472 C8466 1.379 . S
C8472 C8469 1.363 . S
C8472 N8470 1.356 . S
C8473 C8467 1.363 . S
C8473 C8468 1.379 . S
C8473 N8471 1.356 . S
N8474 C8466 1.356 . S
N8474 H8480 0.984 . S
N8474 H8481 0.984 . S
N8475 C8468 1.356 . S
N8475 H8478 0.984 . S
N8475 H8479 0.985 . S
H8476 N8471 0.984 . S
H8477 N8471 0.985 . S
H8478 N8475 0.984 . S
H8479 N8475 0.985 . S
H8480 N8474 0.984 . S
H8481 N8474 0.984 . S
H8482 N8470 0.984 . S
H8483 N8470 0.985 . S
C8484 C8485 1.363 . S
C8484 C8490 1.379 . S
C8484 N8492 1.356 . S
C8485 C8484 1.363 . S
C8485 C8491 1.363 . S
C8486 C8487 1.363 . S
C8486 C8491 1.379 . S
C8486 N8493 1.356 . S
C8487 C8486 1.363 . S
C8487 C8490 1.363 . S
N8488 C8490 1.356 . S
N8488 H8500 0.984 . S
N8488 H8501 0.985 . S
N8489 C8491 1.356 . S
N8489 H8494 0.984 . S
N8489 H8495 0.985 . S
C8490 C8484 1.379 . S
C8490 C8487 1.363 . S
C8490 N8488 1.356 . S
C8491 C8485 1.363 . S
C8491 C8486 1.379 . S
C8491 N8489 1.356 . S
N8492 C8484 1.356 . S
N8492 H8498 0.984 . S
N8492 H8499 0.984 . S
N8493 C8486 1.356 . S
N8493 H8496 0.984 . S
N8493 H8497 0.985 . S
H8494 N8489 0.984 . S
H8495 N8489 0.985 . S
H8496 N8493 0.984 . S
H8497 N8493 0.985 . S
H8498 N8492 0.984 . S
H8499 N8492 0.984 . S
H8500 N8488 0.984 . S
H8501 N8488 0.985 . S
C8502 C8503 1.363 . S
C8502 C8508 1.379 . S
C8502 N8510 1.356 . S
C8503 C8502 1.363 . S
C8503 C8509 1.363 . S
C8504 C8505 1.363 . S
C8504 C8509 1.379 . S
C8504 N8511 1.356 . S
C8505 C8504 1.363 . S
C8505 C8508 1.363 . S
N8506 C8508 1.356 . S
N8506 H8518 0.984 . S
N8506 H8519 0.985 . S
N8507 C8509 1.356 . S
N8507 H8512 0.984 . S
N8507 H8513 0.985 . S
C8508 C8502 1.379 . S
C8508 C8505 1.363 . S
C8508 N8506 1.356 . S
C8509 C8503 1.363 . S
C8509 C8504 1.379 . S
C8509 N8507 1.356 . S
N8510 C8502 1.356 . S
N8510 H8516 0.984 . S
N8510 H8517 0.984 . S
N8511 C8504 1.356 . S
N8511 H8514 0.984 . S
N8511 H8515 0.985 . S
H8512 N8507 0.984 . S
H8513 N8507 0.985 . S
H8514 N8511 0.984 . S
H8515 N8511 0.985 . S
H8516 N8510 0.984 . S
H8517 N8510 0.984 . S
H8518 N8506 0.984 . S
H8519 N8506 0.985 . S
C8520 C8521 1.363 . S
C8520 C8526 1.379 . S
C8520 N8528 1.356 . S
C8521 C8520 1.363 . S
C8521 C8527 1.363 . S
C8522 C8523 1.363 . S
C8522 C8527 1.379 . S
C8522 N8529 1.356 . S
C8523 C8522 1.363 . S
C8523 C8526 1.363 . S
N8524 C8526 1.356 . S
N8524 H8536 0.984 . S
N8524 H8537 0.985 . S
N8525 C8527 1.356 . S
N8525 H8530 0.984 . S
N8525 H8531 0.985 . S
C8526 C8520 1.379 . S
C8526 C8523 1.363 . S
C8526 N8524 1.356 . S
C8527 C8521 1.363 . S
C8527 C8522 1.379 . S
C8527 N8525 1.356 . S
N8528 C8520 1.356 . S
N8528 H8534 0.984 . S
N8528 H8535 0.984 . S
N8529 C8522 1.356 . S
N8529 H8532 0.984 . S
N8529 H8533 0.985 . S
H8530 N8525 0.984 . S
H8531 N8525 0.985 . S
H8532 N8529 0.984 . S
H8533 N8529 0.985 . S
H8534 N8528 0.984 . S
H8535 N8528 0.984 . S
H8536 N8524 0.984 . S
H8537 N8524 0.985 . S
C8538 C8539 1.363 . S
C8538 C8544 1.379 . S
C8538 N8546 1.356 . S
C8539 C8538 1.363 . S
C8539 C8545 1.363 . S
C8540 C8541 1.363 . S
C8540 C8545 1.379 . S
C8540 N8547 1.356 . S
C8541 C8540 1.363 . S
C8541 C8544 1.363 . S
N8542 C8544 1.356 . S
N8542 H8554 0.984 . S
N8542 H8555 0.985 . S
N8543 C8545 1.356 . S
N8543 H8548 0.984 . S
N8543 H8549 0.985 . S
C8544 C8538 1.379 . S
C8544 C8541 1.363 . S
C8544 N8542 1.356 . S
C8545 C8539 1.363 . S
C8545 C8540 1.379 . S
C8545 N8543 1.356 . S
N8546 C8538 1.356 . S
N8546 H8552 0.984 . S
N8546 H8553 0.984 . S
N8547 C8540 1.356 . S
N8547 H8550 0.984 . S
N8547 H8551 0.985 . S
H8548 N8543 0.984 . S
H8549 N8543 0.985 . S
H8550 N8547 0.984 . S
H8551 N8547 0.985 . S
H8552 N8546 0.984 . S
H8553 N8546 0.984 . S
H8554 N8542 0.984 . S
H8555 N8542 0.985 . S
C8556 C8557 1.363 . S
C8556 C8562 1.379 . S
C8556 N8564 1.356 . S
C8557 C8556 1.363 . S
C8557 C8563 1.363 . S
C8558 C8559 1.363 . S
C8558 C8563 1.379 . S
C8558 N8565 1.356 . S
C8559 C8558 1.363 . S
C8559 C8562 1.363 . S
N8560 C8562 1.356 . S
N8560 H8572 0.984 . S
N8560 H8573 0.985 . S
N8561 C8563 1.356 . S
N8561 H8566 0.984 . S
N8561 H8567 0.985 . S
C8562 C8556 1.379 . S
C8562 C8559 1.363 . S
C8562 N8560 1.356 . S
C8563 C8557 1.363 . S
C8563 C8558 1.379 . S
C8563 N8561 1.356 . S
N8564 C8556 1.356 . S
N8564 H8570 0.984 . S
N8564 H8571 0.984 . S
N8565 C8558 1.356 . S
N8565 H8568 0.984 . S
N8565 H8569 0.985 . S
H8566 N8561 0.984 . S
H8567 N8561 0.985 . S
H8568 N8565 0.984 . S
H8569 N8565 0.985 . S
H8570 N8564 0.984 . S
H8571 N8564 0.984 . S
H8572 N8560 0.984 . S
H8573 N8560 0.985 . S
C8574 C8575 1.363 . S
C8574 C8580 1.379 . S
C8574 N8582 1.356 . S
C8575 C8574 1.363 . S
C8575 C8581 1.363 . S
C8576 C8577 1.363 . S
C8576 C8581 1.379 . S
C8576 N8583 1.356 . S
C8577 C8576 1.363 . S
C8577 C8580 1.363 . S
N8578 C8580 1.356 . S
N8578 H8590 0.984 . S
N8578 H8591 0.985 . S
N8579 C8581 1.356 . S
N8579 H8584 0.984 . S
N8579 H8585 0.985 . S
C8580 C8574 1.379 . S
C8580 C8577 1.363 . S
C8580 N8578 1.356 . S
C8581 C8575 1.363 . S
C8581 C8576 1.379 . S
C8581 N8579 1.356 . S
N8582 C8574 1.356 . S
N8582 H8588 0.984 . S
N8582 H8589 0.984 . S
N8583 C8576 1.356 . S
N8583 H8586 0.984 . S
N8583 H8587 0.985 . S
H8584 N8579 0.984 . S
H8585 N8579 0.985 . S
H8586 N8583 0.984 . S
H8587 N8583 0.985 . S
H8588 N8582 0.984 . S
H8589 N8582 0.984 . S
H8590 N8578 0.984 . S
H8591 N8578 0.985 . S
C8592 C8593 1.363 . S
C8592 C8598 1.379 . S
C8592 N8600 1.356 . S
C8593 C8592 1.363 . S
C8593 C8599 1.363 . S
C8594 C8595 1.363 . S
C8594 C8599 1.379 . S
C8594 N8601 1.356 . S
C8595 C8594 1.363 . S
C8595 C8598 1.363 . S
N8596 C8598 1.356 . S
N8596 H8608 0.984 . S
N8596 H8609 0.985 . S
N8597 C8599 1.356 . S
N8597 H8602 0.984 . S
N8597 H8603 0.985 . S
C8598 C8592 1.379 . S
C8598 C8595 1.363 . S
C8598 N8596 1.356 . S
C8599 C8593 1.363 . S
C8599 C8594 1.379 . S
C8599 N8597 1.356 . S
N8600 C8592 1.356 . S
N8600 H8606 0.984 . S
N8600 H8607 0.984 . S
N8601 C8594 1.356 . S
N8601 H8604 0.984 . S
N8601 H8605 0.985 . S
H8602 N8597 0.984 . S
H8603 N8597 0.985 . S
H8604 N8601 0.984 . S
H8605 N8601 0.985 . S
H8606 N8600 0.984 . S
H8607 N8600 0.984 . S
H8608 N8596 0.984 . S
H8609 N8596 0.985 . S
C8610 C8611 1.363 . S
C8610 C8616 1.379 . S
C8610 N8618 1.356 . S
C8611 C8610 1.363 . S
C8611 C8617 1.363 . S
C8612 C8613 1.363 . S
C8612 C8617 1.379 . S
C8612 N8619 1.356 . S
C8613 C8612 1.363 . S
C8613 C8616 1.363 . S
N8614 C8616 1.356 . S
N8614 H8626 0.984 . S
N8614 H8627 0.985 . S
N8615 C8617 1.356 . S
N8615 H8620 0.984 . S
N8615 H8621 0.985 . S
C8616 C8610 1.379 . S
C8616 C8613 1.363 . S
C8616 N8614 1.356 . S
C8617 C8611 1.363 . S
C8617 C8612 1.379 . S
C8617 N8615 1.356 . S
N8618 C8610 1.356 . S
N8618 H8624 0.984 . S
N8618 H8625 0.984 . S
N8619 C8612 1.356 . S
N8619 H8622 0.984 . S
N8619 H8623 0.985 . S
H8620 N8615 0.984 . S
H8621 N8615 0.985 . S
H8622 N8619 0.984 . S
H8623 N8619 0.985 . S
H8624 N8618 0.984 . S
H8625 N8618 0.984 . S
H8626 N8614 0.984 . S
H8627 N8614 0.985 . S
C8628 C8629 1.363 . S
C8628 C8634 1.379 . S
C8628 N8636 1.356 . S
C8629 C8628 1.363 . S
C8629 C8635 1.363 . S
C8630 C8631 1.363 . S
C8630 C8635 1.379 . S
C8630 N8637 1.356 . S
C8631 C8630 1.363 . S
C8631 C8634 1.363 . S
N8632 C8634 1.356 . S
N8632 H8644 0.984 . S
N8632 H8645 0.985 . S
N8633 C8635 1.356 . S
N8633 H8638 0.984 . S
N8633 H8639 0.985 . S
C8634 C8628 1.379 . S
C8634 C8631 1.363 . S
C8634 N8632 1.356 . S
C8635 C8629 1.363 . S
C8635 C8630 1.379 . S
C8635 N8633 1.356 . S
N8636 C8628 1.356 . S
N8636 H8642 0.984 . S
N8636 H8643 0.984 . S
N8637 C8630 1.356 . S
N8637 H8640 0.984 . S
N8637 H8641 0.985 . S
H8638 N8633 0.984 . S
H8639 N8633 0.985 . S
H8640 N8637 0.984 . S
H8641 N8637 0.985 . S
H8642 N8636 0.984 . S
H8643 N8636 0.984 . S
H8644 N8632 0.984 . S
H8645 N8632 0.985 . S
C8646 C8647 1.363 . S
C8646 C8652 1.379 . S
C8646 N8654 1.356 . S
C8647 C8646 1.363 . S
C8647 C8653 1.363 . S
C8648 C8649 1.363 . S
C8648 C8653 1.379 . S
C8648 N8655 1.356 . S
C8649 C8648 1.363 . S
C8649 C8652 1.363 . S
N8650 C8652 1.356 . S
N8650 H8662 0.984 . S
N8650 H8663 0.985 . S
N8651 C8653 1.356 . S
N8651 H8656 0.984 . S
N8651 H8657 0.985 . S
C8652 C8646 1.379 . S
C8652 C8649 1.363 . S
C8652 N8650 1.356 . S
C8653 C8647 1.363 . S
C8653 C8648 1.379 . S
C8653 N8651 1.356 . S
N8654 C8646 1.356 . S
N8654 H8660 0.984 . S
N8654 H8661 0.984 . S
N8655 C8648 1.356 . S
N8655 H8658 0.984 . S
N8655 H8659 0.985 . S
H8656 N8651 0.984 . S
H8657 N8651 0.985 . S
H8658 N8655 0.984 . S
H8659 N8655 0.985 . S
H8660 N8654 0.984 . S
H8661 N8654 0.984 . S
H8662 N8650 0.984 . S
H8663 N8650 0.985 . S
C8664 C8665 1.363 . S
C8664 C8670 1.379 . S
C8664 N8672 1.356 . S
C8665 C8664 1.363 . S
C8665 C8671 1.363 . S
C8666 C8667 1.363 . S
C8666 C8671 1.379 . S
C8666 N8673 1.356 . S
C8667 C8666 1.363 . S
C8667 C8670 1.363 . S
N8668 C8670 1.356 . S
N8668 H8680 0.984 . S
N8668 H8681 0.985 . S
N8669 C8671 1.356 . S
N8669 H8674 0.984 . S
N8669 H8675 0.985 . S
C8670 C8664 1.379 . S
C8670 C8667 1.363 . S
C8670 N8668 1.356 . S
C8671 C8665 1.363 . S
C8671 C8666 1.379 . S
C8671 N8669 1.356 . S
N8672 C8664 1.356 . S
N8672 H8678 0.984 . S
N8672 H8679 0.984 . S
N8673 C8666 1.356 . S
N8673 H8676 0.984 . S
N8673 H8677 0.985 . S
H8674 N8669 0.984 . S
H8675 N8669 0.985 . S
H8676 N8673 0.984 . S
H8677 N8673 0.985 . S
H8678 N8672 0.984 . S
H8679 N8672 0.984 . S
H8680 N8668 0.984 . S
H8681 N8668 0.985 . S
C8682 C8683 1.363 . S
C8682 C8688 1.379 . S
C8682 N8690 1.356 . S
C8683 C8682 1.363 . S
C8683 C8689 1.363 . S
C8684 C8685 1.363 . S
C8684 C8689 1.379 . S
C8684 N8691 1.356 . S
C8685 C8684 1.363 . S
C8685 C8688 1.363 . S
N8686 C8688 1.356 . S
N8686 H8698 0.984 . S
N8686 H8699 0.985 . S
N8687 C8689 1.356 . S
N8687 H8692 0.984 . S
N8687 H8693 0.985 . S
C8688 C8682 1.379 . S
C8688 C8685 1.363 . S
C8688 N8686 1.356 . S
C8689 C8683 1.363 . S
C8689 C8684 1.379 . S
C8689 N8687 1.356 . S
N8690 C8682 1.356 . S
N8690 H8696 0.984 . S
N8690 H8697 0.984 . S
N8691 C8684 1.356 . S
N8691 H8694 0.984 . S
N8691 H8695 0.985 . S
H8692 N8687 0.984 . S
H8693 N8687 0.985 . S
H8694 N8691 0.984 . S
H8695 N8691 0.985 . S
H8696 N8690 0.984 . S
H8697 N8690 0.984 . S
H8698 N8686 0.984 . S
H8699 N8686 0.985 . S
C8700 C8701 1.363 . S
C8700 C8706 1.379 . S
C8700 N8708 1.356 . S
C8701 C8700 1.363 . S
C8701 C8707 1.363 . S
C8702 C8703 1.363 . S
C8702 C8707 1.379 . S
C8702 N8709 1.356 . S
C8703 C8702 1.363 . S
C8703 C8706 1.363 . S
N8704 C8706 1.356 . S
N8704 H8716 0.984 . S
N8704 H8717 0.985 . S
N8705 C8707 1.356 . S
N8705 H8710 0.984 . S
N8705 H8711 0.985 . S
C8706 C8700 1.379 . S
C8706 C8703 1.363 . S
C8706 N8704 1.356 . S
C8707 C8701 1.363 . S
C8707 C8702 1.379 . S
C8707 N8705 1.356 . S
N8708 C8700 1.356 . S
N8708 H8714 0.984 . S
N8708 H8715 0.984 . S
N8709 C8702 1.356 . S
N8709 H8712 0.984 . S
N8709 H8713 0.985 . S
H8710 N8705 0.984 . S
H8711 N8705 0.985 . S
H8712 N8709 0.984 . S
H8713 N8709 0.985 . S
H8714 N8708 0.984 . S
H8715 N8708 0.984 . S
H8716 N8704 0.984 . S
H8717 N8704 0.985 . S
C8718 C8719 1.363 . S
C8718 C8724 1.379 . S
C8718 N8726 1.356 . S
C8719 C8718 1.363 . S
C8719 C8725 1.363 . S
C8720 C8721 1.363 . S
C8720 C8725 1.379 . S
C8720 N8727 1.356 . S
C8721 C8720 1.363 . S
C8721 C8724 1.363 . S
N8722 C8724 1.356 . S
N8722 H8734 0.984 . S
N8722 H8735 0.985 . S
N8723 C8725 1.356 . S
N8723 H8728 0.984 . S
N8723 H8729 0.985 . S
C8724 C8718 1.379 . S
C8724 C8721 1.363 . S
C8724 N8722 1.356 . S
C8725 C8719 1.363 . S
C8725 C8720 1.379 . S
C8725 N8723 1.356 . S
N8726 C8718 1.356 . S
N8726 H8732 0.984 . S
N8726 H8733 0.984 . S
N8727 C8720 1.356 . S
N8727 H8730 0.984 . S
N8727 H8731 0.985 . S
H8728 N8723 0.984 . S
H8729 N8723 0.985 . S
H8730 N8727 0.984 . S
H8731 N8727 0.985 . S
H8732 N8726 0.984 . S
H8733 N8726 0.984 . S
H8734 N8722 0.984 . S
H8735 N8722 0.985 . S
C8736 C8737 1.363 . S
C8736 C8742 1.379 . S
C8736 N8744 1.356 . S
C8737 C8736 1.363 . S
C8737 C8743 1.363 . S
C8738 C8739 1.363 . S
C8738 C8743 1.379 . S
C8738 N8745 1.356 . S
C8739 C8738 1.363 . S
C8739 C8742 1.363 . S
N8740 C8742 1.356 . S
N8740 H8752 0.984 . S
N8740 H8753 0.985 . S
N8741 C8743 1.356 . S
N8741 H8746 0.984 . S
N8741 H8747 0.985 . S
C8742 C8736 1.379 . S
C8742 C8739 1.363 . S
C8742 N8740 1.356 . S
C8743 C8737 1.363 . S
C8743 C8738 1.379 . S
C8743 N8741 1.356 . S
N8744 C8736 1.356 . S
N8744 H8750 0.984 . S
N8744 H8751 0.984 . S
N8745 C8738 1.356 . S
N8745 H8748 0.984 . S
N8745 H8749 0.985 . S
H8746 N8741 0.984 . S
H8747 N8741 0.985 . S
H8748 N8745 0.984 . S
H8749 N8745 0.985 . S
H8750 N8744 0.984 . S
H8751 N8744 0.984 . S
H8752 N8740 0.984 . S
H8753 N8740 0.985 . S
C8754 C8755 1.363 . S
C8754 C8760 1.379 . S
C8754 N8762 1.356 . S
C8755 C8754 1.363 . S
C8755 C8761 1.363 . S
C8756 C8757 1.363 . S
C8756 C8761 1.379 . S
C8756 N8763 1.356 . S
C8757 C8756 1.363 . S
C8757 C8760 1.363 . S
N8758 C8760 1.356 . S
N8758 H8770 0.984 . S
N8758 H8771 0.985 . S
N8759 C8761 1.356 . S
N8759 H8764 0.984 . S
N8759 H8765 0.985 . S
C8760 C8754 1.379 . S
C8760 C8757 1.363 . S
C8760 N8758 1.356 . S
C8761 C8755 1.363 . S
C8761 C8756 1.379 . S
C8761 N8759 1.356 . S
N8762 C8754 1.356 . S
N8762 H8768 0.984 . S
N8762 H8769 0.984 . S
N8763 C8756 1.356 . S
N8763 H8766 0.984 . S
N8763 H8767 0.985 . S
H8764 N8759 0.984 . S
H8765 N8759 0.985 . S
H8766 N8763 0.984 . S
H8767 N8763 0.985 . S
H8768 N8762 0.984 . S
H8769 N8762 0.984 . S
H8770 N8758 0.984 . S
H8771 N8758 0.985 . S
C8772 C8773 1.363 . S
C8772 C8778 1.379 . S
C8772 N8780 1.356 . S
C8773 C8772 1.363 . S
C8773 C8779 1.363 . S
C8774 C8775 1.363 . S
C8774 C8779 1.379 . S
C8774 N8781 1.356 . S
C8775 C8774 1.363 . S
C8775 C8778 1.363 . S
N8776 C8778 1.356 . S
N8776 H8788 0.984 . S
N8776 H8789 0.985 . S
N8777 C8779 1.356 . S
N8777 H8782 0.984 . S
N8777 H8783 0.985 . S
C8778 C8772 1.379 . S
C8778 C8775 1.363 . S
C8778 N8776 1.356 . S
C8779 C8773 1.363 . S
C8779 C8774 1.379 . S
C8779 N8777 1.356 . S
N8780 C8772 1.356 . S
N8780 H8786 0.984 . S
N8780 H8787 0.984 . S
N8781 C8774 1.356 . S
N8781 H8784 0.984 . S
N8781 H8785 0.985 . S
H8782 N8777 0.984 . S
H8783 N8777 0.985 . S
H8784 N8781 0.984 . S
H8785 N8781 0.985 . S
H8786 N8780 0.984 . S
H8787 N8780 0.984 . S
H8788 N8776 0.984 . S
H8789 N8776 0.985 . S
C8790 C8791 1.363 . S
C8790 C8796 1.379 . S
C8790 N8798 1.356 . S
C8791 C8790 1.363 . S
C8791 C8797 1.363 . S
C8792 C8793 1.363 . S
C8792 C8797 1.379 . S
C8792 N8799 1.356 . S
C8793 C8792 1.363 . S
C8793 C8796 1.363 . S
N8794 C8796 1.356 . S
N8794 H8806 0.984 . S
N8794 H8807 0.985 . S
N8795 C8797 1.356 . S
N8795 H8800 0.984 . S
N8795 H8801 0.985 . S
C8796 C8790 1.379 . S
C8796 C8793 1.363 . S
C8796 N8794 1.356 . S
C8797 C8791 1.363 . S
C8797 C8792 1.379 . S
C8797 N8795 1.356 . S
N8798 C8790 1.356 . S
N8798 H8804 0.984 . S
N8798 H8805 0.984 . S
N8799 C8792 1.356 . S
N8799 H8802 0.984 . S
N8799 H8803 0.985 . S
H8800 N8795 0.984 . S
H8801 N8795 0.985 . S
H8802 N8799 0.984 . S
H8803 N8799 0.985 . S
H8804 N8798 0.984 . S
H8805 N8798 0.984 . S
H8806 N8794 0.984 . S
H8807 N8794 0.985 . S
C8808 C8809 1.363 . S
C8808 C8814 1.379 . S
C8808 N8816 1.356 . S
C8809 C8808 1.363 . S
C8809 C8815 1.363 . S
C8810 C8811 1.363 . S
C8810 C8815 1.379 . S
C8810 N8817 1.356 . S
C8811 C8810 1.363 . S
C8811 C8814 1.363 . S
N8812 C8814 1.356 . S
N8812 H8824 0.984 . S
N8812 H8825 0.985 . S
N8813 C8815 1.356 . S
N8813 H8818 0.984 . S
N8813 H8819 0.985 . S
C8814 C8808 1.379 . S
C8814 C8811 1.363 . S
C8814 N8812 1.356 . S
C8815 C8809 1.363 . S
C8815 C8810 1.379 . S
C8815 N8813 1.356 . S
N8816 C8808 1.356 . S
N8816 H8822 0.984 . S
N8816 H8823 0.984 . S
N8817 C8810 1.356 . S
N8817 H8820 0.984 . S
N8817 H8821 0.985 . S
H8818 N8813 0.984 . S
H8819 N8813 0.985 . S
H8820 N8817 0.984 . S
H8821 N8817 0.985 . S
H8822 N8816 0.984 . S
H8823 N8816 0.984 . S
H8824 N8812 0.984 . S
H8825 N8812 0.985 . S
C8826 C8827 1.363 . S
C8826 C8832 1.379 . S
C8826 N8834 1.356 . S
C8827 C8826 1.363 . S
C8827 C8833 1.363 . S
C8828 C8829 1.363 . S
C8828 C8833 1.379 . S
C8828 N8835 1.356 . S
C8829 C8828 1.363 . S
C8829 C8832 1.363 . S
N8830 C8832 1.356 . S
N8830 H8842 0.984 . S
N8830 H8843 0.985 . S
N8831 C8833 1.356 . S
N8831 H8836 0.984 . S
N8831 H8837 0.985 . S
C8832 C8826 1.379 . S
C8832 C8829 1.363 . S
C8832 N8830 1.356 . S
C8833 C8827 1.363 . S
C8833 C8828 1.379 . S
C8833 N8831 1.356 . S
N8834 C8826 1.356 . S
N8834 H8840 0.984 . S
N8834 H8841 0.984 . S
N8835 C8828 1.356 . S
N8835 H8838 0.984 . S
N8835 H8839 0.985 . S
H8836 N8831 0.984 . S
H8837 N8831 0.985 . S
H8838 N8835 0.984 . S
H8839 N8835 0.985 . S
H8840 N8834 0.984 . S
H8841 N8834 0.984 . S
H8842 N8830 0.984 . S
H8843 N8830 0.985 . S
C8844 C8845 1.363 . S
C8844 C8850 1.379 . S
C8844 N8852 1.356 . S
C8845 C8844 1.363 . S
C8845 C8851 1.363 . S
C8846 C8847 1.363 . S
C8846 C8851 1.379 . S
C8846 N8853 1.356 . S
C8847 C8846 1.363 . S
C8847 C8850 1.363 . S
N8848 C8850 1.356 . S
N8848 H8860 0.984 . S
N8848 H8861 0.985 . S
N8849 C8851 1.356 . S
N8849 H8854 0.984 . S
N8849 H8855 0.985 . S
C8850 C8844 1.379 . S
C8850 C8847 1.363 . S
C8850 N8848 1.356 . S
C8851 C8845 1.363 . S
C8851 C8846 1.379 . S
C8851 N8849 1.356 . S
N8852 C8844 1.356 . S
N8852 H8858 0.984 . S
N8852 H8859 0.984 . S
N8853 C8846 1.356 . S
N8853 H8856 0.984 . S
N8853 H8857 0.985 . S
H8854 N8849 0.984 . S
H8855 N8849 0.985 . S
H8856 N8853 0.984 . S
H8857 N8853 0.985 . S
H8858 N8852 0.984 . S
H8859 N8852 0.984 . S
H8860 N8848 0.984 . S
H8861 N8848 0.985 . S
C8862 C8863 1.363 . S
C8862 C8868 1.379 . S
C8862 N8870 1.356 . S
C8863 C8862 1.363 . S
C8863 C8869 1.363 . S
C8864 C8865 1.363 . S
C8864 C8869 1.379 . S
C8864 N8871 1.356 . S
C8865 C8864 1.363 . S
C8865 C8868 1.363 . S
N8866 C8868 1.356 . S
N8866 H8878 0.984 . S
N8866 H8879 0.985 . S
N8867 C8869 1.356 . S
N8867 H8872 0.984 . S
N8867 H8873 0.985 . S
C8868 C8862 1.379 . S
C8868 C8865 1.363 . S
C8868 N8866 1.356 . S
C8869 C8863 1.363 . S
C8869 C8864 1.379 . S
C8869 N8867 1.356 . S
N8870 C8862 1.356 . S
N8870 H8876 0.984 . S
N8870 H8877 0.984 . S
N8871 C8864 1.356 . S
N8871 H8874 0.984 . S
N8871 H8875 0.985 . S
H8872 N8867 0.984 . S
H8873 N8867 0.985 . S
H8874 N8871 0.984 . S
H8875 N8871 0.985 . S
H8876 N8870 0.984 . S
H8877 N8870 0.984 . S
H8878 N8866 0.984 . S
H8879 N8866 0.985 . S
C8880 C8881 1.363 . S
C8880 C8886 1.379 . S
C8880 N8888 1.356 . S
C8881 C8880 1.363 . S
C8881 C8887 1.363 . S
C8882 C8883 1.363 . S
C8882 C8887 1.379 . S
C8882 N8889 1.356 . S
C8883 C8882 1.363 . S
C8883 C8886 1.363 . S
N8884 C8886 1.356 . S
N8884 H8896 0.984 . S
N8884 H8897 0.985 . S
N8885 C8887 1.356 . S
N8885 H8890 0.984 . S
N8885 H8891 0.985 . S
C8886 C8880 1.379 . S
C8886 C8883 1.363 . S
C8886 N8884 1.356 . S
C8887 C8881 1.363 . S
C8887 C8882 1.379 . S
C8887 N8885 1.356 . S
N8888 C8880 1.356 . S
N8888 H8894 0.984 . S
N8888 H8895 0.984 . S
N8889 C8882 1.356 . S
N8889 H8892 0.984 . S
N8889 H8893 0.985 . S
H8890 N8885 0.984 . S
H8891 N8885 0.985 . S
H8892 N8889 0.984 . S
H8893 N8889 0.985 . S
H8894 N8888 0.984 . S
H8895 N8888 0.984 . S
H8896 N8884 0.984 . S
H8897 N8884 0.985 . S
C8898 C8899 1.363 . S
C8898 C8904 1.379 . S
C8898 N8906 1.356 . S
C8899 C8898 1.363 . S
C8899 C8905 1.363 . S
C8900 C8901 1.363 . S
C8900 C8905 1.379 . S
C8900 N8907 1.356 . S
C8901 C8900 1.363 . S
C8901 C8904 1.363 . S
N8902 C8904 1.356 . S
N8902 H8914 0.984 . S
N8902 H8915 0.985 . S
N8903 C8905 1.356 . S
N8903 H8908 0.984 . S
N8903 H8909 0.985 . S
C8904 C8898 1.379 . S
C8904 C8901 1.363 . S
C8904 N8902 1.356 . S
C8905 C8899 1.363 . S
C8905 C8900 1.379 . S
C8905 N8903 1.356 . S
N8906 C8898 1.356 . S
N8906 H8912 0.984 . S
N8906 H8913 0.984 . S
N8907 C8900 1.356 . S
N8907 H8910 0.984 . S
N8907 H8911 0.985 . S
H8908 N8903 0.984 . S
H8909 N8903 0.985 . S
H8910 N8907 0.984 . S
H8911 N8907 0.985 . S
H8912 N8906 0.984 . S
H8913 N8906 0.984 . S
H8914 N8902 0.984 . S
H8915 N8902 0.985 . S
C8916 C8917 1.363 . S
C8916 C8922 1.379 . S
C8916 N8924 1.356 . S
C8917 C8916 1.363 . S
C8917 C8923 1.363 . S
C8918 C8919 1.363 . S
C8918 C8923 1.379 . S
C8918 N8925 1.356 . S
C8919 C8918 1.363 . S
C8919 C8922 1.363 . S
N8920 C8922 1.356 . S
N8920 H8932 0.984 . S
N8920 H8933 0.985 . S
N8921 C8923 1.356 . S
N8921 H8926 0.984 . S
N8921 H8927 0.985 . S
C8922 C8916 1.379 . S
C8922 C8919 1.363 . S
C8922 N8920 1.356 . S
C8923 C8917 1.363 . S
C8923 C8918 1.379 . S
C8923 N8921 1.356 . S
N8924 C8916 1.356 . S
N8924 H8930 0.984 . S
N8924 H8931 0.984 . S
N8925 C8918 1.356 . S
N8925 H8928 0.984 . S
N8925 H8929 0.985 . S
H8926 N8921 0.984 . S
H8927 N8921 0.985 . S
H8928 N8925 0.984 . S
H8929 N8925 0.985 . S
H8930 N8924 0.984 . S
H8931 N8924 0.984 . S
H8932 N8920 0.984 . S
H8933 N8920 0.985 . S
C8934 C8935 1.363 . S
C8934 C8940 1.379 . S
C8934 N8942 1.356 . S
C8935 C8934 1.363 . S
C8935 C8941 1.363 . S
C8936 C8937 1.363 . S
C8936 C8941 1.379 . S
C8936 N8943 1.356 . S
C8937 C8936 1.363 . S
C8937 C8940 1.363 . S
N8938 C8940 1.356 . S
N8938 H8950 0.984 . S
N8938 H8951 0.985 . S
N8939 C8941 1.356 . S
N8939 H8944 0.984 . S
N8939 H8945 0.985 . S
C8940 C8934 1.379 . S
C8940 C8937 1.363 . S
C8940 N8938 1.356 . S
C8941 C8935 1.363 . S
C8941 C8936 1.379 . S
C8941 N8939 1.356 . S
N8942 C8934 1.356 . S
N8942 H8948 0.984 . S
N8942 H8949 0.984 . S
N8943 C8936 1.356 . S
N8943 H8946 0.984 . S
N8943 H8947 0.985 . S
H8944 N8939 0.984 . S
H8945 N8939 0.985 . S
H8946 N8943 0.984 . S
H8947 N8943 0.985 . S
H8948 N8942 0.984 . S
H8949 N8942 0.984 . S
H8950 N8938 0.984 . S
H8951 N8938 0.985 . S
C8952 C8953 1.363 . S
C8952 C8958 1.379 . S
C8952 N8960 1.356 . S
C8953 C8952 1.363 . S
C8953 C8959 1.363 . S
C8954 C8955 1.363 . S
C8954 C8959 1.379 . S
C8954 N8961 1.356 . S
C8955 C8954 1.363 . S
C8955 C8958 1.363 . S
N8956 C8958 1.356 . S
N8956 H8968 0.984 . S
N8956 H8969 0.985 . S
N8957 C8959 1.356 . S
N8957 H8962 0.984 . S
N8957 H8963 0.985 . S
C8958 C8952 1.379 . S
C8958 C8955 1.363 . S
C8958 N8956 1.356 . S
C8959 C8953 1.363 . S
C8959 C8954 1.379 . S
C8959 N8957 1.356 . S
N8960 C8952 1.356 . S
N8960 H8966 0.984 . S
N8960 H8967 0.984 . S
N8961 C8954 1.356 . S
N8961 H8964 0.984 . S
N8961 H8965 0.985 . S
H8962 N8957 0.984 . S
H8963 N8957 0.985 . S
H8964 N8961 0.984 . S
H8965 N8961 0.985 . S
H8966 N8960 0.984 . S
H8967 N8960 0.984 . S
H8968 N8956 0.984 . S
H8969 N8956 0.985 . S
C8970 C8971 1.363 . S
C8970 C8976 1.379 . S
C8970 N8978 1.356 . S
C8971 C8970 1.363 . S
C8971 C8977 1.363 . S
C8972 C8973 1.363 . S
C8972 C8977 1.379 . S
C8972 N8979 1.356 . S
C8973 C8972 1.363 . S
C8973 C8976 1.363 . S
N8974 C8976 1.356 . S
N8974 H8986 0.984 . S
N8974 H8987 0.985 . S
N8975 C8977 1.356 . S
N8975 H8980 0.984 . S
N8975 H8981 0.985 . S
C8976 C8970 1.379 . S
C8976 C8973 1.363 . S
C8976 N8974 1.356 . S
C8977 C8971 1.363 . S
C8977 C8972 1.379 . S
C8977 N8975 1.356 . S
N8978 C8970 1.356 . S
N8978 H8984 0.984 . S
N8978 H8985 0.984 . S
N8979 C8972 1.356 . S
N8979 H8982 0.984 . S
N8979 H8983 0.985 . S
H8980 N8975 0.984 . S
H8981 N8975 0.985 . S
H8982 N8979 0.984 . S
H8983 N8979 0.985 . S
H8984 N8978 0.984 . S
H8985 N8978 0.984 . S
H8986 N8974 0.984 . S
H8987 N8974 0.985 . S
C8988 C8989 1.363 . S
C8988 C8994 1.379 . S
C8988 N8996 1.356 . S
C8989 C8988 1.363 . S
C8989 C8995 1.363 . S
C8990 C8991 1.363 . S
C8990 C8995 1.379 . S
C8990 N8997 1.356 . S
C8991 C8990 1.363 . S
C8991 C8994 1.363 . S
N8992 C8994 1.356 . S
N8992 H9004 0.984 . S
N8992 H9005 0.985 . S
N8993 C8995 1.356 . S
N8993 H8998 0.984 . S
N8993 H8999 0.985 . S
C8994 C8988 1.379 . S
C8994 C8991 1.363 . S
C8994 N8992 1.356 . S
C8995 C8989 1.363 . S
C8995 C8990 1.379 . S
C8995 N8993 1.356 . S
N8996 C8988 1.356 . S
N8996 H9002 0.984 . S
N8996 H9003 0.984 . S
N8997 C8990 1.356 . S
N8997 H9000 0.984 . S
N8997 H9001 0.985 . S
H8998 N8993 0.984 . S
H8999 N8993 0.985 . S
H9000 N8997 0.984 . S
H9001 N8997 0.985 . S
H9002 N8996 0.984 . S
H9003 N8996 0.984 . S
H9004 N8992 0.984 . S
H9005 N8992 0.985 . S
C9006 C9007 1.363 . S
C9006 C9012 1.379 . S
C9006 N9014 1.356 . S
C9007 C9006 1.363 . S
C9007 C9013 1.363 . S
C9008 C9009 1.363 . S
C9008 C9013 1.379 . S
C9008 N9015 1.356 . S
C9009 C9008 1.363 . S
C9009 C9012 1.363 . S
N9010 C9012 1.356 . S
N9010 H9022 0.984 . S
N9010 H9023 0.985 . S
N9011 C9013 1.356 . S
N9011 H9016 0.984 . S
N9011 H9017 0.985 . S
C9012 C9006 1.379 . S
C9012 C9009 1.363 . S
C9012 N9010 1.356 . S
C9013 C9007 1.363 . S
C9013 C9008 1.379 . S
C9013 N9011 1.356 . S
N9014 C9006 1.356 . S
N9014 H9020 0.984 . S
N9014 H9021 0.984 . S
N9015 C9008 1.356 . S
N9015 H9018 0.984 . S
N9015 H9019 0.985 . S
H9016 N9011 0.984 . S
H9017 N9011 0.985 . S
H9018 N9015 0.984 . S
H9019 N9015 0.985 . S
H9020 N9014 0.984 . S
H9021 N9014 0.984 . S
H9022 N9010 0.984 . S
H9023 N9010 0.985 . S
C9024 C9025 1.363 . S
C9024 C9030 1.379 . S
C9024 N9032 1.356 . S
C9025 C9024 1.363 . S
C9025 C9031 1.363 . S
C9026 C9027 1.363 . S
C9026 C9031 1.379 . S
C9026 N9033 1.356 . S
C9027 C9026 1.363 . S
C9027 C9030 1.363 . S
N9028 C9030 1.356 . S
N9028 H9040 0.984 . S
N9028 H9041 0.985 . S
N9029 C9031 1.356 . S
N9029 H9034 0.984 . S
N9029 H9035 0.985 . S
C9030 C9024 1.379 . S
C9030 C9027 1.363 . S
C9030 N9028 1.356 . S
C9031 C9025 1.363 . S
C9031 C9026 1.379 . S
C9031 N9029 1.356 . S
N9032 C9024 1.356 . S
N9032 H9038 0.984 . S
N9032 H9039 0.984 . S
N9033 C9026 1.356 . S
N9033 H9036 0.984 . S
N9033 H9037 0.985 . S
H9034 N9029 0.984 . S
H9035 N9029 0.985 . S
H9036 N9033 0.984 . S
H9037 N9033 0.985 . S
H9038 N9032 0.984 . S
H9039 N9032 0.984 . S
H9040 N9028 0.984 . S
H9041 N9028 0.985 . S
C9042 C9043 1.363 . S
C9042 C9048 1.379 . S
C9042 N9050 1.356 . S
C9043 C9042 1.363 . S
C9043 C9049 1.363 . S
C9044 C9045 1.363 . S
C9044 C9049 1.379 . S
C9044 N9051 1.356 . S
C9045 C9044 1.363 . S
C9045 C9048 1.363 . S
N9046 C9048 1.356 . S
N9046 H9058 0.984 . S
N9046 H9059 0.985 . S
N9047 C9049 1.356 . S
N9047 H9052 0.984 . S
N9047 H9053 0.985 . S
C9048 C9042 1.379 . S
C9048 C9045 1.363 . S
C9048 N9046 1.356 . S
C9049 C9043 1.363 . S
C9049 C9044 1.379 . S
C9049 N9047 1.356 . S
N9050 C9042 1.356 . S
N9050 H9056 0.984 . S
N9050 H9057 0.984 . S
N9051 C9044 1.356 . S
N9051 H9054 0.984 . S
N9051 H9055 0.985 . S
H9052 N9047 0.984 . S
H9053 N9047 0.985 . S
H9054 N9051 0.984 . S
H9055 N9051 0.985 . S
H9056 N9050 0.984 . S
H9057 N9050 0.984 . S
H9058 N9046 0.984 . S
H9059 N9046 0.985 . S
C9060 C9061 1.363 . S
C9060 C9066 1.379 . S
C9060 N9068 1.356 . S
C9061 C9060 1.363 . S
C9061 C9067 1.363 . S
C9062 C9063 1.363 . S
C9062 C9067 1.379 . S
C9062 N9069 1.356 . S
C9063 C9062 1.363 . S
C9063 C9066 1.363 . S
N9064 C9066 1.356 . S
N9064 H9076 0.984 . S
N9064 H9077 0.985 . S
N9065 C9067 1.356 . S
N9065 H9070 0.984 . S
N9065 H9071 0.985 . S
C9066 C9060 1.379 . S
C9066 C9063 1.363 . S
C9066 N9064 1.356 . S
C9067 C9061 1.363 . S
C9067 C9062 1.379 . S
C9067 N9065 1.356 . S
N9068 C9060 1.356 . S
N9068 H9074 0.984 . S
N9068 H9075 0.984 . S
N9069 C9062 1.356 . S
N9069 H9072 0.984 . S
N9069 H9073 0.985 . S
H9070 N9065 0.984 . S
H9071 N9065 0.985 . S
H9072 N9069 0.984 . S
H9073 N9069 0.985 . S
H9074 N9068 0.984 . S
H9075 N9068 0.984 . S
H9076 N9064 0.984 . S
H9077 N9064 0.985 . S
C9078 C9079 1.363 . S
C9078 C9084 1.379 . S
C9078 N9086 1.356 . S
C9079 C9078 1.363 . S
C9079 C9085 1.363 . S
C9080 C9081 1.363 . S
C9080 C9085 1.379 . S
C9080 N9087 1.356 . S
C9081 C9080 1.363 . S
C9081 C9084 1.363 . S
N9082 C9084 1.356 . S
N9082 H9094 0.984 . S
N9082 H9095 0.985 . S
N9083 C9085 1.356 . S
N9083 H9088 0.984 . S
N9083 H9089 0.985 . S
C9084 C9078 1.379 . S
C9084 C9081 1.363 . S
C9084 N9082 1.356 . S
C9085 C9079 1.363 . S
C9085 C9080 1.379 . S
C9085 N9083 1.356 . S
N9086 C9078 1.356 . S
N9086 H9092 0.984 . S
N9086 H9093 0.984 . S
N9087 C9080 1.356 . S
N9087 H9090 0.984 . S
N9087 H9091 0.985 . S
H9088 N9083 0.984 . S
H9089 N9083 0.985 . S
H9090 N9087 0.984 . S
H9091 N9087 0.985 . S
H9092 N9086 0.984 . S
H9093 N9086 0.984 . S
H9094 N9082 0.984 . S
H9095 N9082 0.985 . S
C9096 C9097 1.363 . S
C9096 C9102 1.379 . S
C9096 N9104 1.356 . S
C9097 C9096 1.363 . S
C9097 C9103 1.363 . S
C9098 C9099 1.363 . S
C9098 C9103 1.379 . S
C9098 N9105 1.356 . S
C9099 C9098 1.363 . S
C9099 C9102 1.363 . S
N9100 C9102 1.356 . S
N9100 H9112 0.984 . S
N9100 H9113 0.985 . S
N9101 C9103 1.356 . S
N9101 H9106 0.984 . S
N9101 H9107 0.985 . S
C9102 C9096 1.379 . S
C9102 C9099 1.363 . S
C9102 N9100 1.356 . S
C9103 C9097 1.363 . S
C9103 C9098 1.379 . S
C9103 N9101 1.356 . S
N9104 C9096 1.356 . S
N9104 H9110 0.984 . S
N9104 H9111 0.984 . S
N9105 C9098 1.356 . S
N9105 H9108 0.984 . S
N9105 H9109 0.985 . S
H9106 N9101 0.984 . S
H9107 N9101 0.985 . S
H9108 N9105 0.984 . S
H9109 N9105 0.985 . S
H9110 N9104 0.984 . S
H9111 N9104 0.984 . S
H9112 N9100 0.984 . S
H9113 N9100 0.985 . S
C9114 C9115 1.363 . S
C9114 C9120 1.379 . S
C9114 N9122 1.356 . S
C9115 C9114 1.363 . S
C9115 C9121 1.363 . S
C9116 C9117 1.363 . S
C9116 C9121 1.379 . S
C9116 N9123 1.356 . S
C9117 C9116 1.363 . S
C9117 C9120 1.363 . S
N9118 C9120 1.356 . S
N9118 H9130 0.984 . S
N9118 H9131 0.985 . S
N9119 C9121 1.356 . S
N9119 H9124 0.984 . S
N9119 H9125 0.985 . S
C9120 C9114 1.379 . S
C9120 C9117 1.363 . S
C9120 N9118 1.356 . S
C9121 C9115 1.363 . S
C9121 C9116 1.379 . S
C9121 N9119 1.356 . S
N9122 C9114 1.356 . S
N9122 H9128 0.984 . S
N9122 H9129 0.984 . S
N9123 C9116 1.356 . S
N9123 H9126 0.984 . S
N9123 H9127 0.985 . S
H9124 N9119 0.984 . S
H9125 N9119 0.985 . S
H9126 N9123 0.984 . S
H9127 N9123 0.985 . S
H9128 N9122 0.984 . S
H9129 N9122 0.984 . S
H9130 N9118 0.984 . S
H9131 N9118 0.985 . S
C9132 C9133 1.363 . S
C9132 C9138 1.379 . S
C9132 N9140 1.356 . S
C9133 C9132 1.363 . S
C9133 C9139 1.363 . S
C9134 C9135 1.363 . S
C9134 C9139 1.379 . S
C9134 N9141 1.356 . S
C9135 C9134 1.363 . S
C9135 C9138 1.363 . S
N9136 C9138 1.356 . S
N9136 H9148 0.984 . S
N9136 H9149 0.985 . S
N9137 C9139 1.356 . S
N9137 H9142 0.984 . S
N9137 H9143 0.985 . S
C9138 C9132 1.379 . S
C9138 C9135 1.363 . S
C9138 N9136 1.356 . S
C9139 C9133 1.363 . S
C9139 C9134 1.379 . S
C9139 N9137 1.356 . S
N9140 C9132 1.356 . S
N9140 H9146 0.984 . S
N9140 H9147 0.984 . S
N9141 C9134 1.356 . S
N9141 H9144 0.984 . S
N9141 H9145 0.985 . S
H9142 N9137 0.984 . S
H9143 N9137 0.985 . S
H9144 N9141 0.984 . S
H9145 N9141 0.985 . S
H9146 N9140 0.984 . S
H9147 N9140 0.984 . S
H9148 N9136 0.984 . S
H9149 N9136 0.985 . S
C9150 C9151 1.363 . S
C9150 C9156 1.379 . S
C9150 N9158 1.356 . S
C9151 C9150 1.363 . S
C9151 C9157 1.363 . S
C9152 C9153 1.363 . S
C9152 C9157 1.379 . S
C9152 N9159 1.356 . S
C9153 C9152 1.363 . S
C9153 C9156 1.363 . S
N9154 C9156 1.356 . S
N9154 H9166 0.984 . S
N9154 H9167 0.985 . S
N9155 C9157 1.356 . S
N9155 H9160 0.984 . S
N9155 H9161 0.985 . S
C9156 C9150 1.379 . S
C9156 C9153 1.363 . S
C9156 N9154 1.356 . S
C9157 C9151 1.363 . S
C9157 C9152 1.379 . S
C9157 N9155 1.356 . S
N9158 C9150 1.356 . S
N9158 H9164 0.984 . S
N9158 H9165 0.984 . S
N9159 C9152 1.356 . S
N9159 H9162 0.984 . S
N9159 H9163 0.985 . S
H9160 N9155 0.984 . S
H9161 N9155 0.985 . S
H9162 N9159 0.984 . S
H9163 N9159 0.985 . S
H9164 N9158 0.984 . S
H9165 N9158 0.984 . S
H9166 N9154 0.984 . S
H9167 N9154 0.985 . S
C9168 C9169 1.363 . S
C9168 C9174 1.379 . S
C9168 N9176 1.356 . S
C9169 C9168 1.363 . S
C9169 C9175 1.363 . S
C9170 C9171 1.363 . S
C9170 C9175 1.379 . S
C9170 N9177 1.356 . S
C9171 C9170 1.363 . S
C9171 C9174 1.363 . S
N9172 C9174 1.356 . S
N9172 H9184 0.984 . S
N9172 H9185 0.985 . S
N9173 C9175 1.356 . S
N9173 H9178 0.984 . S
N9173 H9179 0.985 . S
C9174 C9168 1.379 . S
C9174 C9171 1.363 . S
C9174 N9172 1.356 . S
C9175 C9169 1.363 . S
C9175 C9170 1.379 . S
C9175 N9173 1.356 . S
N9176 C9168 1.356 . S
N9176 H9182 0.984 . S
N9176 H9183 0.984 . S
N9177 C9170 1.356 . S
N9177 H9180 0.984 . S
N9177 H9181 0.985 . S
H9178 N9173 0.984 . S
H9179 N9173 0.985 . S
H9180 N9177 0.984 . S
H9181 N9177 0.985 . S
H9182 N9176 0.984 . S
H9183 N9176 0.984 . S
H9184 N9172 0.984 . S
H9185 N9172 0.985 . S
C9186 C9187 1.363 . S
C9186 C9192 1.379 . S
C9186 N9194 1.356 . S
C9187 C9186 1.363 . S
C9187 C9193 1.363 . S
C9188 C9189 1.363 . S
C9188 C9193 1.379 . S
C9188 N9195 1.356 . S
C9189 C9188 1.363 . S
C9189 C9192 1.363 . S
N9190 C9192 1.356 . S
N9190 H9202 0.984 . S
N9190 H9203 0.985 . S
N9191 C9193 1.356 . S
N9191 H9196 0.984 . S
N9191 H9197 0.985 . S
C9192 C9186 1.379 . S
C9192 C9189 1.363 . S
C9192 N9190 1.356 . S
C9193 C9187 1.363 . S
C9193 C9188 1.379 . S
C9193 N9191 1.356 . S
N9194 C9186 1.356 . S
N9194 H9200 0.984 . S
N9194 H9201 0.984 . S
N9195 C9188 1.356 . S
N9195 H9198 0.984 . S
N9195 H9199 0.985 . S
H9196 N9191 0.984 . S
H9197 N9191 0.985 . S
H9198 N9195 0.984 . S
H9199 N9195 0.985 . S
H9200 N9194 0.984 . S
H9201 N9194 0.984 . S
H9202 N9190 0.984 . S
H9203 N9190 0.985 . S
C9204 C9205 1.363 . S
C9204 C9210 1.379 . S
C9204 N9212 1.356 . S
C9205 C9204 1.363 . S
C9205 C9211 1.363 . S
C9206 C9207 1.363 . S
C9206 C9211 1.379 . S
C9206 N9213 1.356 . S
C9207 C9206 1.363 . S
C9207 C9210 1.363 . S
N9208 C9210 1.356 . S
N9208 H9220 0.984 . S
N9208 H9221 0.985 . S
N9209 C9211 1.356 . S
N9209 H9214 0.984 . S
N9209 H9215 0.985 . S
C9210 C9204 1.379 . S
C9210 C9207 1.363 . S
C9210 N9208 1.356 . S
C9211 C9205 1.363 . S
C9211 C9206 1.379 . S
C9211 N9209 1.356 . S
N9212 C9204 1.356 . S
N9212 H9218 0.984 . S
N9212 H9219 0.984 . S
N9213 C9206 1.356 . S
N9213 H9216 0.984 . S
N9213 H9217 0.985 . S
H9214 N9209 0.984 . S
H9215 N9209 0.985 . S
H9216 N9213 0.984 . S
H9217 N9213 0.985 . S
H9218 N9212 0.984 . S
H9219 N9212 0.984 . S
H9220 N9208 0.984 . S
H9221 N9208 0.985 . S
C9222 C9223 1.363 . S
C9222 C9228 1.379 . S
C9222 N9230 1.356 . S
C9223 C9222 1.363 . S
C9223 C9229 1.363 . S
C9224 C9225 1.363 . S
C9224 C9229 1.379 . S
C9224 N9231 1.356 . S
C9225 C9224 1.363 . S
C9225 C9228 1.363 . S
N9226 C9228 1.356 . S
N9226 H9238 0.984 . S
N9226 H9239 0.985 . S
N9227 C9229 1.356 . S
N9227 H9232 0.984 . S
N9227 H9233 0.985 . S
C9228 C9222 1.379 . S
C9228 C9225 1.363 . S
C9228 N9226 1.356 . S
C9229 C9223 1.363 . S
C9229 C9224 1.379 . S
C9229 N9227 1.356 . S
N9230 C9222 1.356 . S
N9230 H9236 0.984 . S
N9230 H9237 0.984 . S
N9231 C9224 1.356 . S
N9231 H9234 0.984 . S
N9231 H9235 0.985 . S
H9232 N9227 0.984 . S
H9233 N9227 0.985 . S
H9234 N9231 0.984 . S
H9235 N9231 0.985 . S
H9236 N9230 0.984 . S
H9237 N9230 0.984 . S
H9238 N9226 0.984 . S
H9239 N9226 0.985 . S
C9240 C9241 1.363 . S
C9240 C9246 1.379 . S
C9240 N9248 1.356 . S
C9241 C9240 1.363 . S
C9241 C9247 1.363 . S
C9242 C9243 1.363 . S
C9242 C9247 1.379 . S
C9242 N9249 1.356 . S
C9243 C9242 1.363 . S
C9243 C9246 1.363 . S
N9244 C9246 1.356 . S
N9244 H9256 0.984 . S
N9244 H9257 0.985 . S
N9245 C9247 1.356 . S
N9245 H9250 0.984 . S
N9245 H9251 0.985 . S
C9246 C9240 1.379 . S
C9246 C9243 1.363 . S
C9246 N9244 1.356 . S
C9247 C9241 1.363 . S
C9247 C9242 1.379 . S
C9247 N9245 1.356 . S
N9248 C9240 1.356 . S
N9248 H9254 0.984 . S
N9248 H9255 0.984 . S
N9249 C9242 1.356 . S
N9249 H9252 0.984 . S
N9249 H9253 0.985 . S
H9250 N9245 0.984 . S
H9251 N9245 0.985 . S
H9252 N9249 0.984 . S
H9253 N9249 0.985 . S
H9254 N9248 0.984 . S
H9255 N9248 0.984 . S
H9256 N9244 0.984 . S
H9257 N9244 0.985 . S
C9258 C9259 1.363 . S
C9258 C9264 1.379 . S
C9258 N9266 1.356 . S
C9259 C9258 1.363 . S
C9259 C9265 1.363 . S
C9260 C9261 1.363 . S
C9260 C9265 1.379 . S
C9260 N9267 1.356 . S
C9261 C9260 1.363 . S
C9261 C9264 1.363 . S
N9262 C9264 1.356 . S
N9262 H9274 0.984 . S
N9262 H9275 0.985 . S
N9263 C9265 1.356 . S
N9263 H9268 0.984 . S
N9263 H9269 0.985 . S
C9264 C9258 1.379 . S
C9264 C9261 1.363 . S
C9264 N9262 1.356 . S
C9265 C9259 1.363 . S
C9265 C9260 1.379 . S
C9265 N9263 1.356 . S
N9266 C9258 1.356 . S
N9266 H9272 0.984 . S
N9266 H9273 0.984 . S
N9267 C9260 1.356 . S
N9267 H9270 0.984 . S
N9267 H9271 0.985 . S
H9268 N9263 0.984 . S
H9269 N9263 0.985 . S
H9270 N9267 0.984 . S
H9271 N9267 0.985 . S
H9272 N9266 0.984 . S
H9273 N9266 0.984 . S
H9274 N9262 0.984 . S
H9275 N9262 0.985 . S
C9276 C9277 1.363 . S
C9276 C9282 1.379 . S
C9276 N9284 1.356 . S
C9277 C9276 1.363 . S
C9277 C9283 1.363 . S
C9278 C9279 1.363 . S
C9278 C9283 1.379 . S
C9278 N9285 1.356 . S
C9279 C9278 1.363 . S
C9279 C9282 1.363 . S
N9280 C9282 1.356 . S
N9280 H9292 0.984 . S
N9280 H9293 0.985 . S
N9281 C9283 1.356 . S
N9281 H9286 0.984 . S
N9281 H9287 0.985 . S
C9282 C9276 1.379 . S
C9282 C9279 1.363 . S
C9282 N9280 1.356 . S
C9283 C9277 1.363 . S
C9283 C9278 1.379 . S
C9283 N9281 1.356 . S
N9284 C9276 1.356 . S
N9284 H9290 0.984 . S
N9284 H9291 0.984 . S
N9285 C9278 1.356 . S
N9285 H9288 0.984 . S
N9285 H9289 0.985 . S
H9286 N9281 0.984 . S
H9287 N9281 0.985 . S
H9288 N9285 0.984 . S
H9289 N9285 0.985 . S
H9290 N9284 0.984 . S
H9291 N9284 0.984 . S
H9292 N9280 0.984 . S
H9293 N9280 0.985 . S
C9294 C9295 1.363 . S
C9294 C9300 1.379 . S
C9294 N9302 1.356 . S
C9295 C9294 1.363 . S
C9295 C9301 1.363 . S
C9296 C9297 1.363 . S
C9296 C9301 1.379 . S
C9296 N9303 1.356 . S
C9297 C9296 1.363 . S
C9297 C9300 1.363 . S
N9298 C9300 1.356 . S
N9298 H9310 0.984 . S
N9298 H9311 0.985 . S
N9299 C9301 1.356 . S
N9299 H9304 0.984 . S
N9299 H9305 0.985 . S
C9300 C9294 1.379 . S
C9300 C9297 1.363 . S
C9300 N9298 1.356 . S
C9301 C9295 1.363 . S
C9301 C9296 1.379 . S
C9301 N9299 1.356 . S
N9302 C9294 1.356 . S
N9302 H9308 0.984 . S
N9302 H9309 0.984 . S
N9303 C9296 1.356 . S
N9303 H9306 0.984 . S
N9303 H9307 0.985 . S
H9304 N9299 0.984 . S
H9305 N9299 0.985 . S
H9306 N9303 0.984 . S
H9307 N9303 0.985 . S
H9308 N9302 0.984 . S
H9309 N9302 0.984 . S
H9310 N9298 0.984 . S
H9311 N9298 0.985 . S
C9312 C9313 1.363 . S
C9312 C9318 1.379 . S
C9312 N9320 1.356 . S
C9313 C9312 1.363 . S
C9313 C9319 1.363 . S
C9314 C9315 1.363 . S
C9314 C9319 1.379 . S
C9314 N9321 1.356 . S
C9315 C9314 1.363 . S
C9315 C9318 1.363 . S
N9316 C9318 1.356 . S
N9316 H9328 0.984 . S
N9316 H9329 0.985 . S
N9317 C9319 1.356 . S
N9317 H9322 0.984 . S
N9317 H9323 0.985 . S
C9318 C9312 1.379 . S
C9318 C9315 1.363 . S
C9318 N9316 1.356 . S
C9319 C9313 1.363 . S
C9319 C9314 1.379 . S
C9319 N9317 1.356 . S
N9320 C9312 1.356 . S
N9320 H9326 0.984 . S
N9320 H9327 0.984 . S
N9321 C9314 1.356 . S
N9321 H9324 0.984 . S
N9321 H9325 0.985 . S
H9322 N9317 0.984 . S
H9323 N9317 0.985 . S
H9324 N9321 0.984 . S
H9325 N9321 0.985 . S
H9326 N9320 0.984 . S
H9327 N9320 0.984 . S
H9328 N9316 0.984 . S
H9329 N9316 0.985 . S
C9330 C9331 1.363 . S
C9330 C9336 1.379 . S
C9330 N9338 1.356 . S
C9331 C9330 1.363 . S
C9331 C9337 1.363 . S
C9332 C9333 1.363 . S
C9332 C9337 1.379 . S
C9332 N9339 1.356 . S
C9333 C9332 1.363 . S
C9333 C9336 1.363 . S
N9334 C9336 1.356 . S
N9334 H9346 0.984 . S
N9334 H9347 0.985 . S
N9335 C9337 1.356 . S
N9335 H9340 0.984 . S
N9335 H9341 0.985 . S
C9336 C9330 1.379 . S
C9336 C9333 1.363 . S
C9336 N9334 1.356 . S
C9337 C9331 1.363 . S
C9337 C9332 1.379 . S
C9337 N9335 1.356 . S
N9338 C9330 1.356 . S
N9338 H9344 0.984 . S
N9338 H9345 0.984 . S
N9339 C9332 1.356 . S
N9339 H9342 0.984 . S
N9339 H9343 0.985 . S
H9340 N9335 0.984 . S
H9341 N9335 0.985 . S
H9342 N9339 0.984 . S
H9343 N9339 0.985 . S
H9344 N9338 0.984 . S
H9345 N9338 0.984 . S
H9346 N9334 0.984 . S
H9347 N9334 0.985 . S
C9348 C9349 1.363 . S
C9348 C9354 1.379 . S
C9348 N9356 1.356 . S
C9349 C9348 1.363 . S
C9349 C9355 1.363 . S
C9350 C9351 1.363 . S
C9350 C9355 1.379 . S
C9350 N9357 1.356 . S
C9351 C9350 1.363 . S
C9351 C9354 1.363 . S
N9352 C9354 1.356 . S
N9352 H9364 0.984 . S
N9352 H9365 0.985 . S
N9353 C9355 1.356 . S
N9353 H9358 0.984 . S
N9353 H9359 0.985 . S
C9354 C9348 1.379 . S
C9354 C9351 1.363 . S
C9354 N9352 1.356 . S
C9355 C9349 1.363 . S
C9355 C9350 1.379 . S
C9355 N9353 1.356 . S
N9356 C9348 1.356 . S
N9356 H9362 0.984 . S
N9356 H9363 0.984 . S
N9357 C9350 1.356 . S
N9357 H9360 0.984 . S
N9357 H9361 0.985 . S
H9358 N9353 0.984 . S
H9359 N9353 0.985 . S
H9360 N9357 0.984 . S
H9361 N9357 0.985 . S
H9362 N9356 0.984 . S
H9363 N9356 0.984 . S
H9364 N9352 0.984 . S
H9365 N9352 0.985 . S
C9366 C9367 1.363 . S
C9366 C9372 1.379 . S
C9366 N9374 1.356 . S
C9367 C9366 1.363 . S
C9367 C9373 1.363 . S
C9368 C9369 1.363 . S
C9368 C9373 1.379 . S
C9368 N9375 1.356 . S
C9369 C9368 1.363 . S
C9369 C9372 1.363 . S
N9370 C9372 1.356 . S
N9370 H9382 0.984 . S
N9370 H9383 0.985 . S
N9371 C9373 1.356 . S
N9371 H9376 0.984 . S
N9371 H9377 0.985 . S
C9372 C9366 1.379 . S
C9372 C9369 1.363 . S
C9372 N9370 1.356 . S
C9373 C9367 1.363 . S
C9373 C9368 1.379 . S
C9373 N9371 1.356 . S
N9374 C9366 1.356 . S
N9374 H9380 0.984 . S
N9374 H9381 0.984 . S
N9375 C9368 1.356 . S
N9375 H9378 0.984 . S
N9375 H9379 0.985 . S
H9376 N9371 0.984 . S
H9377 N9371 0.985 . S
H9378 N9375 0.984 . S
H9379 N9375 0.985 . S
H9380 N9374 0.984 . S
H9381 N9374 0.984 . S
H9382 N9370 0.984 . S
H9383 N9370 0.985 . S
C9384 C9385 1.363 . S
C9384 C9390 1.379 . S
C9384 N9392 1.356 . S
C9385 C9384 1.363 . S
C9385 C9391 1.363 . S
C9386 C9387 1.363 . S
C9386 C9391 1.379 . S
C9386 N9393 1.356 . S
C9387 C9386 1.363 . S
C9387 C9390 1.363 . S
N9388 C9390 1.356 . S
N9388 H9400 0.984 . S
N9388 H9401 0.985 . S
N9389 C9391 1.356 . S
N9389 H9394 0.984 . S
N9389 H9395 0.985 . S
C9390 C9384 1.379 . S
C9390 C9387 1.363 . S
C9390 N9388 1.356 . S
C9391 C9385 1.363 . S
C9391 C9386 1.379 . S
C9391 N9389 1.356 . S
N9392 C9384 1.356 . S
N9392 H9398 0.984 . S
N9392 H9399 0.984 . S
N9393 C9386 1.356 . S
N9393 H9396 0.984 . S
N9393 H9397 0.985 . S
H9394 N9389 0.984 . S
H9395 N9389 0.985 . S
H9396 N9393 0.984 . S
H9397 N9393 0.985 . S
H9398 N9392 0.984 . S
H9399 N9392 0.984 . S
H9400 N9388 0.984 . S
H9401 N9388 0.985 . S
C9402 C9403 1.363 . S
C9402 C9408 1.379 . S
C9402 N9410 1.356 . S
C9403 C9402 1.363 . S
C9403 C9409 1.363 . S
C9404 C9405 1.363 . S
C9404 C9409 1.379 . S
C9404 N9411 1.356 . S
C9405 C9404 1.363 . S
C9405 C9408 1.363 . S
N9406 C9408 1.356 . S
N9406 H9418 0.984 . S
N9406 H9419 0.985 . S
N9407 C9409 1.356 . S
N9407 H9412 0.984 . S
N9407 H9413 0.985 . S
C9408 C9402 1.379 . S
C9408 C9405 1.363 . S
C9408 N9406 1.356 . S
C9409 C9403 1.363 . S
C9409 C9404 1.379 . S
C9409 N9407 1.356 . S
N9410 C9402 1.356 . S
N9410 H9416 0.984 . S
N9410 H9417 0.984 . S
N9411 C9404 1.356 . S
N9411 H9414 0.984 . S
N9411 H9415 0.985 . S
H9412 N9407 0.984 . S
H9413 N9407 0.985 . S
H9414 N9411 0.984 . S
H9415 N9411 0.985 . S
H9416 N9410 0.984 . S
H9417 N9410 0.984 . S
H9418 N9406 0.984 . S
H9419 N9406 0.985 . S
C9420 C9421 1.363 . S
C9420 C9426 1.379 . S
C9420 N9428 1.356 . S
C9421 C9420 1.363 . S
C9421 C9427 1.363 . S
C9422 C9423 1.363 . S
C9422 C9427 1.379 . S
C9422 N9429 1.356 . S
C9423 C9422 1.363 . S
C9423 C9426 1.363 . S
N9424 C9426 1.356 . S
N9424 H9436 0.984 . S
N9424 H9437 0.985 . S
N9425 C9427 1.356 . S
N9425 H9430 0.984 . S
N9425 H9431 0.985 . S
C9426 C9420 1.379 . S
C9426 C9423 1.363 . S
C9426 N9424 1.356 . S
C9427 C9421 1.363 . S
C9427 C9422 1.379 . S
C9427 N9425 1.356 . S
N9428 C9420 1.356 . S
N9428 H9434 0.984 . S
N9428 H9435 0.984 . S
N9429 C9422 1.356 . S
N9429 H9432 0.984 . S
N9429 H9433 0.985 . S
H9430 N9425 0.984 . S
H9431 N9425 0.985 . S
H9432 N9429 0.984 . S
H9433 N9429 0.985 . S
H9434 N9428 0.984 . S
H9435 N9428 0.984 . S
H9436 N9424 0.984 . S
H9437 N9424 0.985 . S
C9438 C9439 1.363 . S
C9438 C9444 1.379 . S
C9438 N9446 1.356 . S
C9439 C9438 1.363 . S
C9439 C9445 1.363 . S
C9440 C9441 1.363 . S
C9440 C9445 1.379 . S
C9440 N9447 1.356 . S
C9441 C9440 1.363 . S
C9441 C9444 1.363 . S
N9442 C9444 1.356 . S
N9442 H9454 0.984 . S
N9442 H9455 0.985 . S
N9443 C9445 1.356 . S
N9443 H9448 0.984 . S
N9443 H9449 0.985 . S
C9444 C9438 1.379 . S
C9444 C9441 1.363 . S
C9444 N9442 1.356 . S
C9445 C9439 1.363 . S
C9445 C9440 1.379 . S
C9445 N9443 1.356 . S
N9446 C9438 1.356 . S
N9446 H9452 0.984 . S
N9446 H9453 0.984 . S
N9447 C9440 1.356 . S
N9447 H9450 0.984 . S
N9447 H9451 0.985 . S
H9448 N9443 0.984 . S
H9449 N9443 0.985 . S
H9450 N9447 0.984 . S
H9451 N9447 0.985 . S
H9452 N9446 0.984 . S
H9453 N9446 0.984 . S
H9454 N9442 0.984 . S
H9455 N9442 0.985 . S
C9456 C9457 1.363 . S
C9456 C9462 1.379 . S
C9456 N9464 1.356 . S
C9457 C9456 1.363 . S
C9457 C9463 1.363 . S
C9458 C9459 1.363 . S
C9458 C9463 1.379 . S
C9458 N9465 1.356 . S
C9459 C9458 1.363 . S
C9459 C9462 1.363 . S
N9460 C9462 1.356 . S
N9460 H9472 0.984 . S
N9460 H9473 0.985 . S
N9461 C9463 1.356 . S
N9461 H9466 0.984 . S
N9461 H9467 0.985 . S
C9462 C9456 1.379 . S
C9462 C9459 1.363 . S
C9462 N9460 1.356 . S
C9463 C9457 1.363 . S
C9463 C9458 1.379 . S
C9463 N9461 1.356 . S
N9464 C9456 1.356 . S
N9464 H9470 0.984 . S
N9464 H9471 0.984 . S
N9465 C9458 1.356 . S
N9465 H9468 0.984 . S
N9465 H9469 0.985 . S
H9466 N9461 0.984 . S
H9467 N9461 0.985 . S
H9468 N9465 0.984 . S
H9469 N9465 0.985 . S
H9470 N9464 0.984 . S
H9471 N9464 0.984 . S
H9472 N9460 0.984 . S
H9473 N9460 0.985 . S
C9474 C9475 1.363 . S
C9474 C9480 1.379 . S
C9474 N9482 1.356 . S
C9475 C9474 1.363 . S
C9475 C9481 1.363 . S
C9476 C9477 1.363 . S
C9476 C9481 1.379 . S
C9476 N9483 1.356 . S
C9477 C9476 1.363 . S
C9477 C9480 1.363 . S
N9478 C9480 1.356 . S
N9478 H9490 0.984 . S
N9478 H9491 0.985 . S
N9479 C9481 1.356 . S
N9479 H9484 0.984 . S
N9479 H9485 0.985 . S
C9480 C9474 1.379 . S
C9480 C9477 1.363 . S
C9480 N9478 1.356 . S
C9481 C9475 1.363 . S
C9481 C9476 1.379 . S
C9481 N9479 1.356 . S
N9482 C9474 1.356 . S
N9482 H9488 0.984 . S
N9482 H9489 0.984 . S
N9483 C9476 1.356 . S
N9483 H9486 0.984 . S
N9483 H9487 0.985 . S
H9484 N9479 0.984 . S
H9485 N9479 0.985 . S
H9486 N9483 0.984 . S
H9487 N9483 0.985 . S
H9488 N9482 0.984 . S
H9489 N9482 0.984 . S
H9490 N9478 0.984 . S
H9491 N9478 0.985 . S
C9492 C9493 1.363 . S
C9492 C9498 1.379 . S
C9492 N9500 1.356 . S
C9493 C9492 1.363 . S
C9493 C9499 1.363 . S
C9494 C9495 1.363 . S
C9494 C9499 1.379 . S
C9494 N9501 1.356 . S
C9495 C9494 1.363 . S
C9495 C9498 1.363 . S
N9496 C9498 1.356 . S
N9496 H9508 0.984 . S
N9496 H9509 0.985 . S
N9497 C9499 1.356 . S
N9497 H9502 0.984 . S
N9497 H9503 0.985 . S
C9498 C9492 1.379 . S
C9498 C9495 1.363 . S
C9498 N9496 1.356 . S
C9499 C9493 1.363 . S
C9499 C9494 1.379 . S
C9499 N9497 1.356 . S
N9500 C9492 1.356 . S
N9500 H9506 0.984 . S
N9500 H9507 0.984 . S
N9501 C9494 1.356 . S
N9501 H9504 0.984 . S
N9501 H9505 0.985 . S
H9502 N9497 0.984 . S
H9503 N9497 0.985 . S
H9504 N9501 0.984 . S
H9505 N9501 0.985 . S
H9506 N9500 0.984 . S
H9507 N9500 0.984 . S
H9508 N9496 0.984 . S
H9509 N9496 0.985 . S
C9510 C9511 1.363 . S
C9510 C9516 1.379 . S
C9510 N9518 1.356 . S
C9511 C9510 1.363 . S
C9511 C9517 1.363 . S
C9512 C9513 1.363 . S
C9512 C9517 1.379 . S
C9512 N9519 1.356 . S
C9513 C9512 1.363 . S
C9513 C9516 1.363 . S
N9514 C9516 1.356 . S
N9514 H9526 0.984 . S
N9514 H9527 0.985 . S
N9515 C9517 1.356 . S
N9515 H9520 0.984 . S
N9515 H9521 0.985 . S
C9516 C9510 1.379 . S
C9516 C9513 1.363 . S
C9516 N9514 1.356 . S
C9517 C9511 1.363 . S
C9517 C9512 1.379 . S
C9517 N9515 1.356 . S
N9518 C9510 1.356 . S
N9518 H9524 0.984 . S
N9518 H9525 0.984 . S
N9519 C9512 1.356 . S
N9519 H9522 0.984 . S
N9519 H9523 0.985 . S
H9520 N9515 0.984 . S
H9521 N9515 0.985 . S
H9522 N9519 0.984 . S
H9523 N9519 0.985 . S
H9524 N9518 0.984 . S
H9525 N9518 0.984 . S
H9526 N9514 0.984 . S
H9527 N9514 0.985 . S
C9528 C9529 1.363 . S
C9528 C9534 1.379 . S
C9528 N9536 1.356 . S
C9529 C9528 1.363 . S
C9529 C9535 1.363 . S
C9530 C9531 1.363 . S
C9530 C9535 1.379 . S
C9530 N9537 1.356 . S
C9531 C9530 1.363 . S
C9531 C9534 1.363 . S
N9532 C9534 1.356 . S
N9532 H9544 0.984 . S
N9532 H9545 0.985 . S
N9533 C9535 1.356 . S
N9533 H9538 0.984 . S
N9533 H9539 0.985 . S
C9534 C9528 1.379 . S
C9534 C9531 1.363 . S
C9534 N9532 1.356 . S
C9535 C9529 1.363 . S
C9535 C9530 1.379 . S
C9535 N9533 1.356 . S
N9536 C9528 1.356 . S
N9536 H9542 0.984 . S
N9536 H9543 0.984 . S
N9537 C9530 1.356 . S
N9537 H9540 0.984 . S
N9537 H9541 0.985 . S
H9538 N9533 0.984 . S
H9539 N9533 0.985 . S
H9540 N9537 0.984 . S
H9541 N9537 0.985 . S
H9542 N9536 0.984 . S
H9543 N9536 0.984 . S
H9544 N9532 0.984 . S
H9545 N9532 0.985 . S
C9546 C9547 1.363 . S
C9546 C9552 1.379 . S
C9546 N9554 1.356 . S
C9547 C9546 1.363 . S
C9547 C9553 1.363 . S
C9548 C9549 1.363 . S
C9548 C9553 1.379 . S
C9548 N9555 1.356 . S
C9549 C9548 1.363 . S
C9549 C9552 1.363 . S
N9550 C9552 1.356 . S
N9550 H9562 0.984 . S
N9550 H9563 0.985 . S
N9551 C9553 1.356 . S
N9551 H9556 0.984 . S
N9551 H9557 0.985 . S
C9552 C9546 1.379 . S
C9552 C9549 1.363 . S
C9552 N9550 1.356 . S
C9553 C9547 1.363 . S
C9553 C9548 1.379 . S
C9553 N9551 1.356 . S
N9554 C9546 1.356 . S
N9554 H9560 0.984 . S
N9554 H9561 0.984 . S
N9555 C9548 1.356 . S
N9555 H9558 0.984 . S
N9555 H9559 0.985 . S
H9556 N9551 0.984 . S
H9557 N9551 0.985 . S
H9558 N9555 0.984 . S
H9559 N9555 0.985 . S
H9560 N9554 0.984 . S
H9561 N9554 0.984 . S
H9562 N9550 0.984 . S
H9563 N9550 0.985 . S
C9564 C9565 1.363 . S
C9564 C9570 1.379 . S
C9564 N9572 1.356 . S
C9565 C9564 1.363 . S
C9565 C9571 1.363 . S
C9566 C9567 1.363 . S
C9566 C9571 1.379 . S
C9566 N9573 1.356 . S
C9567 C9566 1.363 . S
C9567 C9570 1.363 . S
N9568 C9570 1.356 . S
N9568 H9580 0.984 . S
N9568 H9581 0.985 . S
N9569 C9571 1.356 . S
N9569 H9574 0.984 . S
N9569 H9575 0.985 . S
C9570 C9564 1.379 . S
C9570 C9567 1.363 . S
C9570 N9568 1.356 . S
C9571 C9565 1.363 . S
C9571 C9566 1.379 . S
C9571 N9569 1.356 . S
N9572 C9564 1.356 . S
N9572 H9578 0.984 . S
N9572 H9579 0.984 . S
N9573 C9566 1.356 . S
N9573 H9576 0.984 . S
N9573 H9577 0.985 . S
H9574 N9569 0.984 . S
H9575 N9569 0.985 . S
H9576 N9573 0.984 . S
H9577 N9573 0.985 . S
H9578 N9572 0.984 . S
H9579 N9572 0.984 . S
H9580 N9568 0.984 . S
H9581 N9568 0.985 . S
C9582 C9583 1.363 . S
C9582 C9588 1.379 . S
C9582 N9590 1.356 . S
C9583 C9582 1.363 . S
C9583 C9589 1.363 . S
C9584 C9585 1.363 . S
C9584 C9589 1.379 . S
C9584 N9591 1.356 . S
C9585 C9584 1.363 . S
C9585 C9588 1.363 . S
N9586 C9588 1.356 . S
N9586 H9598 0.984 . S
N9586 H9599 0.985 . S
N9587 C9589 1.356 . S
N9587 H9592 0.984 . S
N9587 H9593 0.985 . S
C9588 C9582 1.379 . S
C9588 C9585 1.363 . S
C9588 N9586 1.356 . S
C9589 C9583 1.363 . S
C9589 C9584 1.379 . S
C9589 N9587 1.356 . S
N9590 C9582 1.356 . S
N9590 H9596 0.984 . S
N9590 H9597 0.984 . S
N9591 C9584 1.356 . S
N9591 H9594 0.984 . S
N9591 H9595 0.985 . S
H9592 N9587 0.984 . S
H9593 N9587 0.985 . S
H9594 N9591 0.984 . S
H9595 N9591 0.985 . S
H9596 N9590 0.984 . S
H9597 N9590 0.984 . S
H9598 N9586 0.984 . S
H9599 N9586 0.985 . S
C9600 C9601 1.363 . S
C9600 C9606 1.379 . S
C9600 N9608 1.356 . S
C9601 C9600 1.363 . S
C9601 C9607 1.363 . S
C9602 C9603 1.363 . S
C9602 C9607 1.379 . S
C9602 N9609 1.356 . S
C9603 C9602 1.363 . S
C9603 C9606 1.363 . S
N9604 C9606 1.356 . S
N9604 H9616 0.984 . S
N9604 H9617 0.985 . S
N9605 C9607 1.356 . S
N9605 H9610 0.984 . S
N9605 H9611 0.985 . S
C9606 C9600 1.379 . S
C9606 C9603 1.363 . S
C9606 N9604 1.356 . S
C9607 C9601 1.363 . S
C9607 C9602 1.379 . S
C9607 N9605 1.356 . S
N9608 C9600 1.356 . S
N9608 H9614 0.984 . S
N9608 H9615 0.984 . S
N9609 C9602 1.356 . S
N9609 H9612 0.984 . S
N9609 H9613 0.985 . S
H9610 N9605 0.984 . S
H9611 N9605 0.985 . S
H9612 N9609 0.984 . S
H9613 N9609 0.985 . S
H9614 N9608 0.984 . S
H9615 N9608 0.984 . S
H9616 N9604 0.984 . S
H9617 N9604 0.985 . S
C9618 C9619 1.363 . S
C9618 C9624 1.379 . S
C9618 N9626 1.356 . S
C9619 C9618 1.363 . S
C9619 C9625 1.363 . S
C9620 C9621 1.363 . S
C9620 C9625 1.379 . S
C9620 N9627 1.356 . S
C9621 C9620 1.363 . S
C9621 C9624 1.363 . S
N9622 C9624 1.356 . S
N9622 H9634 0.984 . S
N9622 H9635 0.985 . S
N9623 C9625 1.356 . S
N9623 H9628 0.984 . S
N9623 H9629 0.985 . S
C9624 C9618 1.379 . S
C9624 C9621 1.363 . S
C9624 N9622 1.356 . S
C9625 C9619 1.363 . S
C9625 C9620 1.379 . S
C9625 N9623 1.356 . S
N9626 C9618 1.356 . S
N9626 H9632 0.984 . S
N9626 H9633 0.984 . S
N9627 C9620 1.356 . S
N9627 H9630 0.984 . S
N9627 H9631 0.985 . S
H9628 N9623 0.984 . S
H9629 N9623 0.985 . S
H9630 N9627 0.984 . S
H9631 N9627 0.985 . S
H9632 N9626 0.984 . S
H9633 N9626 0.984 . S
H9634 N9622 0.984 . S
H9635 N9622 0.985 . S
C9636 C9637 1.363 . S
C9636 C9642 1.379 . S
C9636 N9644 1.356 . S
C9637 C9636 1.363 . S
C9637 C9643 1.363 . S
C9638 C9639 1.363 . S
C9638 C9643 1.379 . S
C9638 N9645 1.356 . S
C9639 C9638 1.363 . S
C9639 C9642 1.363 . S
N9640 C9642 1.356 . S
N9640 H9652 0.984 . S
N9640 H9653 0.985 . S
N9641 C9643 1.356 . S
N9641 H9646 0.984 . S
N9641 H9647 0.985 . S
C9642 C9636 1.379 . S
C9642 C9639 1.363 . S
C9642 N9640 1.356 . S
C9643 C9637 1.363 . S
C9643 C9638 1.379 . S
C9643 N9641 1.356 . S
N9644 C9636 1.356 . S
N9644 H9650 0.984 . S
N9644 H9651 0.984 . S
N9645 C9638 1.356 . S
N9645 H9648 0.984 . S
N9645 H9649 0.985 . S
H9646 N9641 0.984 . S
H9647 N9641 0.985 . S
H9648 N9645 0.984 . S
H9649 N9645 0.985 . S
H9650 N9644 0.984 . S
H9651 N9644 0.984 . S
H9652 N9640 0.984 . S
H9653 N9640 0.985 . S
C9654 C9655 1.363 . S
C9654 C9660 1.379 . S
C9654 N9662 1.356 . S
C9655 C9654 1.363 . S
C9655 C9661 1.363 . S
C9656 C9657 1.363 . S
C9656 C9661 1.379 . S
C9656 N9663 1.356 . S
C9657 C9656 1.363 . S
C9657 C9660 1.363 . S
N9658 C9660 1.356 . S
N9658 H9670 0.984 . S
N9658 H9671 0.985 . S
N9659 C9661 1.356 . S
N9659 H9664 0.984 . S
N9659 H9665 0.985 . S
C9660 C9654 1.379 . S
C9660 C9657 1.363 . S
C9660 N9658 1.356 . S
C9661 C9655 1.363 . S
C9661 C9656 1.379 . S
C9661 N9659 1.356 . S
N9662 C9654 1.356 . S
N9662 H9668 0.984 . S
N9662 H9669 0.984 . S
N9663 C9656 1.356 . S
N9663 H9666 0.984 . S
N9663 H9667 0.985 . S
H9664 N9659 0.984 . S
H9665 N9659 0.985 . S
H9666 N9663 0.984 . S
H9667 N9663 0.985 . S
H9668 N9662 0.984 . S
H9669 N9662 0.984 . S
H9670 N9658 0.984 . S
H9671 N9658 0.985 . S
C9672 C9673 1.363 . S
C9672 C9678 1.379 . S
C9672 N9680 1.356 . S
C9673 C9672 1.363 . S
C9673 C9679 1.363 . S
C9674 C9675 1.363 . S
C9674 C9679 1.379 . S
C9674 N9681 1.356 . S
C9675 C9674 1.363 . S
C9675 C9678 1.363 . S
N9676 C9678 1.356 . S
N9676 H9688 0.984 . S
N9676 H9689 0.985 . S
N9677 C9679 1.356 . S
N9677 H9682 0.984 . S
N9677 H9683 0.985 . S
C9678 C9672 1.379 . S
C9678 C9675 1.363 . S
C9678 N9676 1.356 . S
C9679 C9673 1.363 . S
C9679 C9674 1.379 . S
C9679 N9677 1.356 . S
N9680 C9672 1.356 . S
N9680 H9686 0.984 . S
N9680 H9687 0.984 . S
N9681 C9674 1.356 . S
N9681 H9684 0.984 . S
N9681 H9685 0.985 . S
H9682 N9677 0.984 . S
H9683 N9677 0.985 . S
H9684 N9681 0.984 . S
H9685 N9681 0.985 . S
H9686 N9680 0.984 . S
H9687 N9680 0.984 . S
H9688 N9676 0.984 . S
H9689 N9676 0.985 . S
C9690 C9691 1.363 . S
C9690 C9696 1.379 . S
C9690 N9698 1.356 . S
C9691 C9690 1.363 . S
C9691 C9697 1.363 . S
C9692 C9693 1.363 . S
C9692 C9697 1.379 . S
C9692 N9699 1.356 . S
C9693 C9692 1.363 . S
C9693 C9696 1.363 . S
N9694 C9696 1.356 . S
N9694 H9706 0.984 . S
N9694 H9707 0.985 . S
N9695 C9697 1.356 . S
N9695 H9700 0.984 . S
N9695 H9701 0.985 . S
C9696 C9690 1.379 . S
C9696 C9693 1.363 . S
C9696 N9694 1.356 . S
C9697 C9691 1.363 . S
C9697 C9692 1.379 . S
C9697 N9695 1.356 . S
N9698 C9690 1.356 . S
N9698 H9704 0.984 . S
N9698 H9705 0.984 . S
N9699 C9692 1.356 . S
N9699 H9702 0.984 . S
N9699 H9703 0.985 . S
H9700 N9695 0.984 . S
H9701 N9695 0.985 . S
H9702 N9699 0.984 . S
H9703 N9699 0.985 . S
H9704 N9698 0.984 . S
H9705 N9698 0.984 . S
H9706 N9694 0.984 . S
H9707 N9694 0.985 . S
C9708 C9709 1.363 . S
C9708 C9714 1.379 . S
C9708 N9716 1.356 . S
C9709 C9708 1.363 . S
C9709 C9715 1.363 . S
C9710 C9711 1.363 . S
C9710 C9715 1.379 . S
C9710 N9717 1.356 . S
C9711 C9710 1.363 . S
C9711 C9714 1.363 . S
N9712 C9714 1.356 . S
N9712 H9724 0.984 . S
N9712 H9725 0.985 . S
N9713 C9715 1.356 . S
N9713 H9718 0.984 . S
N9713 H9719 0.985 . S
C9714 C9708 1.379 . S
C9714 C9711 1.363 . S
C9714 N9712 1.356 . S
C9715 C9709 1.363 . S
C9715 C9710 1.379 . S
C9715 N9713 1.356 . S
N9716 C9708 1.356 . S
N9716 H9722 0.984 . S
N9716 H9723 0.984 . S
N9717 C9710 1.356 . S
N9717 H9720 0.984 . S
N9717 H9721 0.985 . S
H9718 N9713 0.984 . S
H9719 N9713 0.985 . S
H9720 N9717 0.984 . S
H9721 N9717 0.985 . S
H9722 N9716 0.984 . S
H9723 N9716 0.984 . S
H9724 N9712 0.984 . S
H9725 N9712 0.985 . S
C9726 C9727 1.363 . S
C9726 C9732 1.379 . S
C9726 N9734 1.356 . S
C9727 C9726 1.363 . S
C9727 C9733 1.363 . S
C9728 C9729 1.363 . S
C9728 C9733 1.379 . S
C9728 N9735 1.356 . S
C9729 C9728 1.363 . S
C9729 C9732 1.363 . S
N9730 C9732 1.356 . S
N9730 H9742 0.984 . S
N9730 H9743 0.985 . S
N9731 C9733 1.356 . S
N9731 H9736 0.984 . S
N9731 H9737 0.985 . S
C9732 C9726 1.379 . S
C9732 C9729 1.363 . S
C9732 N9730 1.356 . S
C9733 C9727 1.363 . S
C9733 C9728 1.379 . S
C9733 N9731 1.356 . S
N9734 C9726 1.356 . S
N9734 H9740 0.984 . S
N9734 H9741 0.984 . S
N9735 C9728 1.356 . S
N9735 H9738 0.984 . S
N9735 H9739 0.985 . S
H9736 N9731 0.984 . S
H9737 N9731 0.985 . S
H9738 N9735 0.984 . S
H9739 N9735 0.985 . S
H9740 N9734 0.984 . S
H9741 N9734 0.984 . S
H9742 N9730 0.984 . S
H9743 N9730 0.985 . S
C9744 C9745 1.363 . S
C9744 C9750 1.379 . S
C9744 N9752 1.356 . S
C9745 C9744 1.363 . S
C9745 C9751 1.363 . S
C9746 C9747 1.363 . S
C9746 C9751 1.379 . S
C9746 N9753 1.356 . S
C9747 C9746 1.363 . S
C9747 C9750 1.363 . S
N9748 C9750 1.356 . S
N9748 H9760 0.984 . S
N9748 H9761 0.985 . S
N9749 C9751 1.356 . S
N9749 H9754 0.984 . S
N9749 H9755 0.985 . S
C9750 C9744 1.379 . S
C9750 C9747 1.363 . S
C9750 N9748 1.356 . S
C9751 C9745 1.363 . S
C9751 C9746 1.379 . S
C9751 N9749 1.356 . S
N9752 C9744 1.356 . S
N9752 H9758 0.984 . S
N9752 H9759 0.984 . S
N9753 C9746 1.356 . S
N9753 H9756 0.984 . S
N9753 H9757 0.985 . S
H9754 N9749 0.984 . S
H9755 N9749 0.985 . S
H9756 N9753 0.984 . S
H9757 N9753 0.985 . S
H9758 N9752 0.984 . S
H9759 N9752 0.984 . S
H9760 N9748 0.984 . S
H9761 N9748 0.985 . S
C9762 C9763 1.363 . S
C9762 C9768 1.379 . S
C9762 N9770 1.356 . S
C9763 C9762 1.363 . S
C9763 C9769 1.363 . S
C9764 C9765 1.363 . S
C9764 C9769 1.379 . S
C9764 N9771 1.356 . S
C9765 C9764 1.363 . S
C9765 C9768 1.363 . S
N9766 C9768 1.356 . S
N9766 H9778 0.984 . S
N9766 H9779 0.985 . S
N9767 C9769 1.356 . S
N9767 H9772 0.984 . S
N9767 H9773 0.985 . S
C9768 C9762 1.379 . S
C9768 C9765 1.363 . S
C9768 N9766 1.356 . S
C9769 C9763 1.363 . S
C9769 C9764 1.379 . S
C9769 N9767 1.356 . S
N9770 C9762 1.356 . S
N9770 H9776 0.984 . S
N9770 H9777 0.984 . S
N9771 C9764 1.356 . S
N9771 H9774 0.984 . S
N9771 H9775 0.985 . S
H9772 N9767 0.984 . S
H9773 N9767 0.985 . S
H9774 N9771 0.984 . S
H9775 N9771 0.985 . S
H9776 N9770 0.984 . S
H9777 N9770 0.984 . S
H9778 N9766 0.984 . S
H9779 N9766 0.985 . S
C9780 C9781 1.363 . S
C9780 C9786 1.379 . S
C9780 N9788 1.356 . S
C9781 C9780 1.363 . S
C9781 C9787 1.363 . S
C9782 C9783 1.363 . S
C9782 C9787 1.379 . S
C9782 N9789 1.356 . S
C9783 C9782 1.363 . S
C9783 C9786 1.363 . S
N9784 C9786 1.356 . S
N9784 H9796 0.984 . S
N9784 H9797 0.985 . S
N9785 C9787 1.356 . S
N9785 H9790 0.984 . S
N9785 H9791 0.985 . S
C9786 C9780 1.379 . S
C9786 C9783 1.363 . S
C9786 N9784 1.356 . S
C9787 C9781 1.363 . S
C9787 C9782 1.379 . S
C9787 N9785 1.356 . S
N9788 C9780 1.356 . S
N9788 H9794 0.984 . S
N9788 H9795 0.984 . S
N9789 C9782 1.356 . S
N9789 H9792 0.984 . S
N9789 H9793 0.985 . S
H9790 N9785 0.984 . S
H9791 N9785 0.985 . S
H9792 N9789 0.984 . S
H9793 N9789 0.985 . S
H9794 N9788 0.984 . S
H9795 N9788 0.984 . S
H9796 N9784 0.984 . S
H9797 N9784 0.985 . S
C9798 C9799 1.363 . S
C9798 C9804 1.379 . S
C9798 N9806 1.356 . S
C9799 C9798 1.363 . S
C9799 C9805 1.363 . S
C9800 C9801 1.363 . S
C9800 C9805 1.379 . S
C9800 N9807 1.356 . S
C9801 C9800 1.363 . S
C9801 C9804 1.363 . S
N9802 C9804 1.356 . S
N9802 H9814 0.984 . S
N9802 H9815 0.985 . S
N9803 C9805 1.356 . S
N9803 H9808 0.984 . S
N9803 H9809 0.985 . S
C9804 C9798 1.379 . S
C9804 C9801 1.363 . S
C9804 N9802 1.356 . S
C9805 C9799 1.363 . S
C9805 C9800 1.379 . S
C9805 N9803 1.356 . S
N9806 C9798 1.356 . S
N9806 H9812 0.984 . S
N9806 H9813 0.984 . S
N9807 C9800 1.356 . S
N9807 H9810 0.984 . S
N9807 H9811 0.985 . S
H9808 N9803 0.984 . S
H9809 N9803 0.985 . S
H9810 N9807 0.984 . S
H9811 N9807 0.985 . S
H9812 N9806 0.984 . S
H9813 N9806 0.984 . S
H9814 N9802 0.984 . S
H9815 N9802 0.985 . S
C9816 C9817 1.363 . S
C9816 C9822 1.379 . S
C9816 N9824 1.356 . S
C9817 C9816 1.363 . S
C9817 C9823 1.363 . S
C9818 C9819 1.363 . S
C9818 C9823 1.379 . S
C9818 N9825 1.356 . S
C9819 C9818 1.363 . S
C9819 C9822 1.363 . S
N9820 C9822 1.356 . S
N9820 H9832 0.984 . S
N9820 H9833 0.985 . S
N9821 C9823 1.356 . S
N9821 H9826 0.984 . S
N9821 H9827 0.985 . S
C9822 C9816 1.379 . S
C9822 C9819 1.363 . S
C9822 N9820 1.356 . S
C9823 C9817 1.363 . S
C9823 C9818 1.379 . S
C9823 N9821 1.356 . S
N9824 C9816 1.356 . S
N9824 H9830 0.984 . S
N9824 H9831 0.984 . S
N9825 C9818 1.356 . S
N9825 H9828 0.984 . S
N9825 H9829 0.985 . S
H9826 N9821 0.984 . S
H9827 N9821 0.985 . S
H9828 N9825 0.984 . S
H9829 N9825 0.985 . S
H9830 N9824 0.984 . S
H9831 N9824 0.984 . S
H9832 N9820 0.984 . S
H9833 N9820 0.985 . S
C9834 C9835 1.363 . S
C9834 C9840 1.379 . S
C9834 N9842 1.356 . S
C9835 C9834 1.363 . S
C9835 C9841 1.363 . S
C9836 C9837 1.363 . S
C9836 C9841 1.379 . S
C9836 N9843 1.356 . S
C9837 C9836 1.363 . S
C9837 C9840 1.363 . S
N9838 C9840 1.356 . S
N9838 H9850 0.984 . S
N9838 H9851 0.985 . S
N9839 C9841 1.356 . S
N9839 H9844 0.984 . S
N9839 H9845 0.985 . S
C9840 C9834 1.379 . S
C9840 C9837 1.363 . S
C9840 N9838 1.356 . S
C9841 C9835 1.363 . S
C9841 C9836 1.379 . S
C9841 N9839 1.356 . S
N9842 C9834 1.356 . S
N9842 H9848 0.984 . S
N9842 H9849 0.984 . S
N9843 C9836 1.356 . S
N9843 H9846 0.984 . S
N9843 H9847 0.985 . S
H9844 N9839 0.984 . S
H9845 N9839 0.985 . S
H9846 N9843 0.984 . S
H9847 N9843 0.985 . S
H9848 N9842 0.984 . S
H9849 N9842 0.984 . S
H9850 N9838 0.984 . S
H9851 N9838 0.985 . S
C9852 C9853 1.363 . S
C9852 C9858 1.379 . S
C9852 N9860 1.356 . S
C9853 C9852 1.363 . S
C9853 C9859 1.363 . S
C9854 C9855 1.363 . S
C9854 C9859 1.379 . S
C9854 N9861 1.356 . S
C9855 C9854 1.363 . S
C9855 C9858 1.363 . S
N9856 C9858 1.356 . S
N9856 H9868 0.984 . S
N9856 H9869 0.985 . S
N9857 C9859 1.356 . S
N9857 H9862 0.984 . S
N9857 H9863 0.985 . S
C9858 C9852 1.379 . S
C9858 C9855 1.363 . S
C9858 N9856 1.356 . S
C9859 C9853 1.363 . S
C9859 C9854 1.379 . S
C9859 N9857 1.356 . S
N9860 C9852 1.356 . S
N9860 H9866 0.984 . S
N9860 H9867 0.984 . S
N9861 C9854 1.356 . S
N9861 H9864 0.984 . S
N9861 H9865 0.985 . S
H9862 N9857 0.984 . S
H9863 N9857 0.985 . S
H9864 N9861 0.984 . S
H9865 N9861 0.985 . S
H9866 N9860 0.984 . S
H9867 N9860 0.984 . S
H9868 N9856 0.984 . S
H9869 N9856 0.985 . S
C9870 C9871 1.363 . S
C9870 C9876 1.379 . S
C9870 N9878 1.356 . S
C9871 C9870 1.363 . S
C9871 C9877 1.363 . S
C9872 C9873 1.363 . S
C9872 C9877 1.379 . S
C9872 N9879 1.356 . S
C9873 C9872 1.363 . S
C9873 C9876 1.363 . S
N9874 C9876 1.356 . S
N9874 H9886 0.984 . S
N9874 H9887 0.985 . S
N9875 C9877 1.356 . S
N9875 H9880 0.984 . S
N9875 H9881 0.985 . S
C9876 C9870 1.379 . S
C9876 C9873 1.363 . S
C9876 N9874 1.356 . S
C9877 C9871 1.363 . S
C9877 C9872 1.379 . S
C9877 N9875 1.356 . S
N9878 C9870 1.356 . S
N9878 H9884 0.984 . S
N9878 H9885 0.984 . S
N9879 C9872 1.356 . S
N9879 H9882 0.984 . S
N9879 H9883 0.985 . S
H9880 N9875 0.984 . S
H9881 N9875 0.985 . S
H9882 N9879 0.984 . S
H9883 N9879 0.985 . S
H9884 N9878 0.984 . S
H9885 N9878 0.984 . S
H9886 N9874 0.984 . S
H9887 N9874 0.985 . S
C9888 C9889 1.363 . S
C9888 C9894 1.379 . S
C9888 N9896 1.356 . S
C9889 C9888 1.363 . S
C9889 C9895 1.363 . S
C9890 C9891 1.363 . S
C9890 C9895 1.379 . S
C9890 N9897 1.356 . S
C9891 C9890 1.363 . S
C9891 C9894 1.363 . S
N9892 C9894 1.356 . S
N9892 H9904 0.984 . S
N9892 H9905 0.985 . S
N9893 C9895 1.356 . S
N9893 H9898 0.984 . S
N9893 H9899 0.985 . S
C9894 C9888 1.379 . S
C9894 C9891 1.363 . S
C9894 N9892 1.356 . S
C9895 C9889 1.363 . S
C9895 C9890 1.379 . S
C9895 N9893 1.356 . S
N9896 C9888 1.356 . S
N9896 H9902 0.984 . S
N9896 H9903 0.984 . S
N9897 C9890 1.356 . S
N9897 H9900 0.984 . S
N9897 H9901 0.985 . S
H9898 N9893 0.984 . S
H9899 N9893 0.985 . S
H9900 N9897 0.984 . S
H9901 N9897 0.985 . S
H9902 N9896 0.984 . S
H9903 N9896 0.984 . S
H9904 N9892 0.984 . S
H9905 N9892 0.985 . S
C9906 C9907 1.363 . S
C9906 C9912 1.379 . S
C9906 N9914 1.356 . S
C9907 C9906 1.363 . S
C9907 C9913 1.363 . S
C9908 C9909 1.363 . S
C9908 C9913 1.379 . S
C9908 N9915 1.356 . S
C9909 C9908 1.363 . S
C9909 C9912 1.363 . S
N9910 C9912 1.356 . S
N9910 H9922 0.984 . S
N9910 H9923 0.985 . S
N9911 C9913 1.356 . S
N9911 H9916 0.984 . S
N9911 H9917 0.985 . S
C9912 C9906 1.379 . S
C9912 C9909 1.363 . S
C9912 N9910 1.356 . S
C9913 C9907 1.363 . S
C9913 C9908 1.379 . S
C9913 N9911 1.356 . S
N9914 C9906 1.356 . S
N9914 H9920 0.984 . S
N9914 H9921 0.984 . S
N9915 C9908 1.356 . S
N9915 H9918 0.984 . S
N9915 H9919 0.985 . S
H9916 N9911 0.984 . S
H9917 N9911 0.985 . S
H9918 N9915 0.984 . S
H9919 N9915 0.985 . S
H9920 N9914 0.984 . S
H9921 N9914 0.984 . S
H9922 N9910 0.984 . S
H9923 N9910 0.985 . S
C9924 C9925 1.363 . S
C9924 C9930 1.379 . S
C9924 N9932 1.356 . S
C9925 C9924 1.363 . S
C9925 C9931 1.363 . S
C9926 C9927 1.363 . S
C9926 C9931 1.379 . S
C9926 N9933 1.356 . S
C9927 C9926 1.363 . S
C9927 C9930 1.363 . S
N9928 C9930 1.356 . S
N9928 H9940 0.984 . S
N9928 H9941 0.985 . S
N9929 C9931 1.356 . S
N9929 H9934 0.984 . S
N9929 H9935 0.985 . S
C9930 C9924 1.379 . S
C9930 C9927 1.363 . S
C9930 N9928 1.356 . S
C9931 C9925 1.363 . S
C9931 C9926 1.379 . S
C9931 N9929 1.356 . S
N9932 C9924 1.356 . S
N9932 H9938 0.984 . S
N9932 H9939 0.984 . S
N9933 C9926 1.356 . S
N9933 H9936 0.984 . S
N9933 H9937 0.985 . S
H9934 N9929 0.984 . S
H9935 N9929 0.985 . S
H9936 N9933 0.984 . S
H9937 N9933 0.985 . S
H9938 N9932 0.984 . S
H9939 N9932 0.984 . S
H9940 N9928 0.984 . S
H9941 N9928 0.985 . S
C9942 C9943 1.363 . S
C9942 C9948 1.379 . S
C9942 N9950 1.356 . S
C9943 C9942 1.363 . S
C9943 C9949 1.363 . S
C9944 C9945 1.363 . S
C9944 C9949 1.379 . S
C9944 N9951 1.356 . S
C9945 C9944 1.363 . S
C9945 C9948 1.363 . S
N9946 C9948 1.356 . S
N9946 H9958 0.984 . S
N9946 H9959 0.985 . S
N9947 C9949 1.356 . S
N9947 H9952 0.984 . S
N9947 H9953 0.985 . S
C9948 C9942 1.379 . S
C9948 C9945 1.363 . S
C9948 N9946 1.356 . S
C9949 C9943 1.363 . S
C9949 C9944 1.379 . S
C9949 N9947 1.356 . S
N9950 C9942 1.356 . S
N9950 H9956 0.984 . S
N9950 H9957 0.984 . S
N9951 C9944 1.356 . S
N9951 H9954 0.984 . S
N9951 H9955 0.985 . S
H9952 N9947 0.984 . S
H9953 N9947 0.985 . S
H9954 N9951 0.984 . S
H9955 N9951 0.985 . S
H9956 N9950 0.984 . S
H9957 N9950 0.984 . S
H9958 N9946 0.984 . S
H9959 N9946 0.985 . S
C9960 C9961 1.363 . S
C9960 C9966 1.379 . S
C9960 N9968 1.356 . S
C9961 C9960 1.363 . S
C9961 C9967 1.363 . S
C9962 C9963 1.363 . S
C9962 C9967 1.379 . S
C9962 N9969 1.356 . S
C9963 C9962 1.363 . S
C9963 C9966 1.363 . S
N9964 C9966 1.356 . S
N9964 H9976 0.984 . S
N9964 H9977 0.985 . S
N9965 C9967 1.356 . S
N9965 H9970 0.984 . S
N9965 H9971 0.985 . S
C9966 C9960 1.379 . S
C9966 C9963 1.363 . S
C9966 N9964 1.356 . S
C9967 C9961 1.363 . S
C9967 C9962 1.379 . S
C9967 N9965 1.356 . S
N9968 C9960 1.356 . S
N9968 H9974 0.984 . S
N9968 H9975 0.984 . S
N9969 C9962 1.356 . S
N9969 H9972 0.984 . S
N9969 H9973 0.985 . S
H9970 N9965 0.984 . S
H9971 N9965 0.985 . S
H9972 N9969 0.984 . S
H9973 N9969 0.985 . S
H9974 N9968 0.984 . S
H9975 N9968 0.984 . S
H9976 N9964 0.984 . S
H9977 N9964 0.985 . S
C9978 C9979 1.363 . S
C9978 C9984 1.379 . S
C9978 N9986 1.356 . S
C9979 C9978 1.363 . S
C9979 C9985 1.363 . S
C9980 C9981 1.363 . S
C9980 C9985 1.379 . S
C9980 N9987 1.356 . S
C9981 C9980 1.363 . S
C9981 C9984 1.363 . S
N9982 C9984 1.356 . S
N9982 H9994 0.984 . S
N9982 H9995 0.985 . S
N9983 C9985 1.356 . S
N9983 H9988 0.984 . S
N9983 H9989 0.985 . S
C9984 C9978 1.379 . S
C9984 C9981 1.363 . S
C9984 N9982 1.356 . S
C9985 C9979 1.363 . S
C9985 C9980 1.379 . S
C9985 N9983 1.356 . S
N9986 C9978 1.356 . S
N9986 H9992 0.984 . S
N9986 H9993 0.984 . S
N9987 C9980 1.356 . S
N9987 H9990 0.984 . S
N9987 H9991 0.985 . S
H9988 N9983 0.984 . S
H9989 N9983 0.985 . S
H9990 N9987 0.984 . S
H9991 N9987 0.985 . S
H9992 N9986 0.984 . S
H9993 N9986 0.984 . S
H9994 N9982 0.984 . S
H9995 N9982 0.985 . S
C9996 C9997 1.363 . S
C9996 C10002 1.379 . S
C9996 N10004 1.356 . S
C9997 C9996 1.363 . S
C9997 C10003 1.363 . S
C9998 C9999 1.363 . S
C9998 C10003 1.379 . S
C9998 N10005 1.356 . S
C9999 C9998 1.363 . S
C9999 C10002 1.363 . S
N10000 C10002 1.356 . S
N10000 H10012 0.984 . S
N10000 H10013 0.985 . S
N10001 C10003 1.356 . S
N10001 H10006 0.984 . S
N10001 H10007 0.985 . S
C10002 C9996 1.379 . S
C10002 C9999 1.363 . S
C10002 N10000 1.356 . S
C10003 C9997 1.363 . S
C10003 C9998 1.379 . S
C10003 N10001 1.356 . S
N10004 C9996 1.356 . S
N10004 H10010 0.984 . S
N10004 H10011 0.984 . S
N10005 C9998 1.356 . S
N10005 H10008 0.984 . S
N10005 H10009 0.985 . S
H10006 N10001 0.984 . S
H10007 N10001 0.985 . S
H10008 N10005 0.984 . S
H10009 N10005 0.985 . S
H10010 N10004 0.984 . S
H10011 N10004 0.984 . S
H10012 N10000 0.984 . S
H10013 N10000 0.985 . S
C10014 C10015 1.363 . S
C10014 C10020 1.379 . S
C10014 N10022 1.356 . S
C10015 C10014 1.363 . S
C10015 C10021 1.363 . S
C10016 C10017 1.363 . S
C10016 C10021 1.379 . S
C10016 N10023 1.356 . S
C10017 C10016 1.363 . S
C10017 C10020 1.363 . S
N10018 C10020 1.356 . S
N10018 H10030 0.984 . S
N10018 H10031 0.985 . S
N10019 C10021 1.356 . S
N10019 H10024 0.984 . S
N10019 H10025 0.985 . S
C10020 C10014 1.379 . S
C10020 C10017 1.363 . S
C10020 N10018 1.356 . S
C10021 C10015 1.363 . S
C10021 C10016 1.379 . S
C10021 N10019 1.356 . S
N10022 C10014 1.356 . S
N10022 H10028 0.984 . S
N10022 H10029 0.984 . S
N10023 C10016 1.356 . S
N10023 H10026 0.984 . S
N10023 H10027 0.985 . S
H10024 N10019 0.984 . S
H10025 N10019 0.985 . S
H10026 N10023 0.984 . S
H10027 N10023 0.985 . S
H10028 N10022 0.984 . S
H10029 N10022 0.984 . S
H10030 N10018 0.984 . S
H10031 N10018 0.985 . S
C10032 C10033 1.363 . S
C10032 C10038 1.379 . S
C10032 N10040 1.356 . S
C10033 C10032 1.363 . S
C10033 C10039 1.363 . S
C10034 C10035 1.363 . S
C10034 C10039 1.379 . S
C10034 N10041 1.356 . S
C10035 C10034 1.363 . S
C10035 C10038 1.363 . S
N10036 C10038 1.356 . S
N10036 H10048 0.984 . S
N10036 H10049 0.985 . S
N10037 C10039 1.356 . S
N10037 H10042 0.984 . S
N10037 H10043 0.985 . S
C10038 C10032 1.379 . S
C10038 C10035 1.363 . S
C10038 N10036 1.356 . S
C10039 C10033 1.363 . S
C10039 C10034 1.379 . S
C10039 N10037 1.356 . S
N10040 C10032 1.356 . S
N10040 H10046 0.984 . S
N10040 H10047 0.984 . S
N10041 C10034 1.356 . S
N10041 H10044 0.984 . S
N10041 H10045 0.985 . S
H10042 N10037 0.984 . S
H10043 N10037 0.985 . S
H10044 N10041 0.984 . S
H10045 N10041 0.985 . S
H10046 N10040 0.984 . S
H10047 N10040 0.984 . S
H10048 N10036 0.984 . S
H10049 N10036 0.985 . S
C10050 C10051 1.363 . S
C10050 C10056 1.379 . S
C10050 N10058 1.356 . S
C10051 C10050 1.363 . S
C10051 C10057 1.363 . S
C10052 C10053 1.363 . S
C10052 C10057 1.379 . S
C10052 N10059 1.356 . S
C10053 C10052 1.363 . S
C10053 C10056 1.363 . S
N10054 C10056 1.356 . S
N10054 H10066 0.984 . S
N10054 H10067 0.985 . S
N10055 C10057 1.356 . S
N10055 H10060 0.984 . S
N10055 H10061 0.985 . S
C10056 C10050 1.379 . S
C10056 C10053 1.363 . S
C10056 N10054 1.356 . S
C10057 C10051 1.363 . S
C10057 C10052 1.379 . S
C10057 N10055 1.356 . S
N10058 C10050 1.356 . S
N10058 H10064 0.984 . S
N10058 H10065 0.984 . S
N10059 C10052 1.356 . S
N10059 H10062 0.984 . S
N10059 H10063 0.985 . S
H10060 N10055 0.984 . S
H10061 N10055 0.985 . S
H10062 N10059 0.984 . S
H10063 N10059 0.985 . S
H10064 N10058 0.984 . S
H10065 N10058 0.984 . S
H10066 N10054 0.984 . S
H10067 N10054 0.985 . S
C10068 C10069 1.363 . S
C10068 C10074 1.379 . S
C10068 N10076 1.356 . S
C10069 C10068 1.363 . S
C10069 C10075 1.363 . S
C10070 C10071 1.363 . S
C10070 C10075 1.379 . S
C10070 N10077 1.356 . S
C10071 C10070 1.363 . S
C10071 C10074 1.363 . S
N10072 C10074 1.356 . S
N10072 H10084 0.984 . S
N10072 H10085 0.985 . S
N10073 C10075 1.356 . S
N10073 H10078 0.984 . S
N10073 H10079 0.985 . S
C10074 C10068 1.379 . S
C10074 C10071 1.363 . S
C10074 N10072 1.356 . S
C10075 C10069 1.363 . S
C10075 C10070 1.379 . S
C10075 N10073 1.356 . S
N10076 C10068 1.356 . S
N10076 H10082 0.984 . S
N10076 H10083 0.984 . S
N10077 C10070 1.356 . S
N10077 H10080 0.984 . S
N10077 H10081 0.985 . S
H10078 N10073 0.984 . S
H10079 N10073 0.985 . S
H10080 N10077 0.984 . S
H10081 N10077 0.985 . S
H10082 N10076 0.984 . S
H10083 N10076 0.984 . S
H10084 N10072 0.984 . S
H10085 N10072 0.985 . S
C10086 C10087 1.363 . S
C10086 C10092 1.379 . S
C10086 N10094 1.356 . S
C10087 C10086 1.363 . S
C10087 C10093 1.363 . S
C10088 C10089 1.363 . S
C10088 C10093 1.379 . S
C10088 N10095 1.356 . S
C10089 C10088 1.363 . S
C10089 C10092 1.363 . S
N10090 C10092 1.356 . S
N10090 H10102 0.984 . S
N10090 H10103 0.985 . S
N10091 C10093 1.356 . S
N10091 H10096 0.984 . S
N10091 H10097 0.985 . S
C10092 C10086 1.379 . S
C10092 C10089 1.363 . S
C10092 N10090 1.356 . S
C10093 C10087 1.363 . S
C10093 C10088 1.379 . S
C10093 N10091 1.356 . S
N10094 C10086 1.356 . S
N10094 H10100 0.984 . S
N10094 H10101 0.984 . S
N10095 C10088 1.356 . S
N10095 H10098 0.984 . S
N10095 H10099 0.985 . S
H10096 N10091 0.984 . S
H10097 N10091 0.985 . S
H10098 N10095 0.984 . S
H10099 N10095 0.985 . S
H10100 N10094 0.984 . S
H10101 N10094 0.984 . S
H10102 N10090 0.984 . S
H10103 N10090 0.985 . S
C10104 C10105 1.363 . S
C10104 C10110 1.379 . S
C10104 N10112 1.356 . S
C10105 C10104 1.363 . S
C10105 C10111 1.363 . S
C10106 C10107 1.363 . S
C10106 C10111 1.379 . S
C10106 N10113 1.356 . S
C10107 C10106 1.363 . S
C10107 C10110 1.363 . S
N10108 C10110 1.356 . S
N10108 H10120 0.984 . S
N10108 H10121 0.985 . S
N10109 C10111 1.356 . S
N10109 H10114 0.984 . S
N10109 H10115 0.985 . S
C10110 C10104 1.379 . S
C10110 C10107 1.363 . S
C10110 N10108 1.356 . S
C10111 C10105 1.363 . S
C10111 C10106 1.379 . S
C10111 N10109 1.356 . S
N10112 C10104 1.356 . S
N10112 H10118 0.984 . S
N10112 H10119 0.984 . S
N10113 C10106 1.356 . S
N10113 H10116 0.984 . S
N10113 H10117 0.985 . S
H10114 N10109 0.984 . S
H10115 N10109 0.985 . S
H10116 N10113 0.984 . S
H10117 N10113 0.985 . S
H10118 N10112 0.984 . S
H10119 N10112 0.984 . S
H10120 N10108 0.984 . S
H10121 N10108 0.985 . S
C10122 C10123 1.363 . S
C10122 C10128 1.379 . S
C10122 N10130 1.356 . S
C10123 C10122 1.363 . S
C10123 C10129 1.363 . S
C10124 C10125 1.363 . S
C10124 C10129 1.379 . S
C10124 N10131 1.356 . S
C10125 C10124 1.363 . S
C10125 C10128 1.363 . S
N10126 C10128 1.356 . S
N10126 H10138 0.984 . S
N10126 H10139 0.985 . S
N10127 C10129 1.356 . S
N10127 H10132 0.984 . S
N10127 H10133 0.985 . S
C10128 C10122 1.379 . S
C10128 C10125 1.363 . S
C10128 N10126 1.356 . S
C10129 C10123 1.363 . S
C10129 C10124 1.379 . S
C10129 N10127 1.356 . S
N10130 C10122 1.356 . S
N10130 H10136 0.984 . S
N10130 H10137 0.984 . S
N10131 C10124 1.356 . S
N10131 H10134 0.984 . S
N10131 H10135 0.985 . S
H10132 N10127 0.984 . S
H10133 N10127 0.985 . S
H10134 N10131 0.984 . S
H10135 N10131 0.985 . S
H10136 N10130 0.984 . S
H10137 N10130 0.984 . S
H10138 N10126 0.984 . S
H10139 N10126 0.985 . S
C10140 C10141 1.363 . S
C10140 C10146 1.379 . S
C10140 N10148 1.356 . S
C10141 C10140 1.363 . S
C10141 C10147 1.363 . S
C10142 C10143 1.363 . S
C10142 C10147 1.379 . S
C10142 N10149 1.356 . S
C10143 C10142 1.363 . S
C10143 C10146 1.363 . S
N10144 C10146 1.356 . S
N10144 H10156 0.984 . S
N10144 H10157 0.985 . S
N10145 C10147 1.356 . S
N10145 H10150 0.984 . S
N10145 H10151 0.985 . S
C10146 C10140 1.379 . S
C10146 C10143 1.363 . S
C10146 N10144 1.356 . S
C10147 C10141 1.363 . S
C10147 C10142 1.379 . S
C10147 N10145 1.356 . S
N10148 C10140 1.356 . S
N10148 H10154 0.984 . S
N10148 H10155 0.984 . S
N10149 C10142 1.356 . S
N10149 H10152 0.984 . S
N10149 H10153 0.985 . S
H10150 N10145 0.984 . S
H10151 N10145 0.985 . S
H10152 N10149 0.984 . S
H10153 N10149 0.985 . S
H10154 N10148 0.984 . S
H10155 N10148 0.984 . S
H10156 N10144 0.984 . S
H10157 N10144 0.985 . S
C10158 C10159 1.363 . S
C10158 C10164 1.379 . S
C10158 N10166 1.356 . S
C10159 C10158 1.363 . S
C10159 C10165 1.363 . S
C10160 C10161 1.363 . S
C10160 C10165 1.379 . S
C10160 N10167 1.356 . S
C10161 C10160 1.363 . S
C10161 C10164 1.363 . S
N10162 C10164 1.356 . S
N10162 H10174 0.984 . S
N10162 H10175 0.985 . S
N10163 C10165 1.356 . S
N10163 H10168 0.984 . S
N10163 H10169 0.985 . S
C10164 C10158 1.379 . S
C10164 C10161 1.363 . S
C10164 N10162 1.356 . S
C10165 C10159 1.363 . S
C10165 C10160 1.379 . S
C10165 N10163 1.356 . S
N10166 C10158 1.356 . S
N10166 H10172 0.984 . S
N10166 H10173 0.984 . S
N10167 C10160 1.356 . S
N10167 H10170 0.984 . S
N10167 H10171 0.985 . S
H10168 N10163 0.984 . S
H10169 N10163 0.985 . S
H10170 N10167 0.984 . S
H10171 N10167 0.985 . S
H10172 N10166 0.984 . S
H10173 N10166 0.984 . S
H10174 N10162 0.984 . S
H10175 N10162 0.985 . S
C4995 C4144 1.536 . S
C4993 C15 1.564 . S
C5013 C4732 1.536 . S
C5011 C55 1.564 . S
C5031 C4168 1.536 . S
C5029 C95 1.564 . S
C5049 C4708 1.536 . S
C5047 C135 1.564 . S
C5067 C4216 1.536 . S
C5065 C175 1.564 . S
C5083 C215 1.564 . S
C5085 C4756 1.536 . S
C5103 C4192 1.536 . S
C5101 C255 1.564 . S
C5121 C4780 1.536 . S
C5119 C295 1.564 . S
C5139 C4972 1.536 . S
C5137 C335 1.564 . S
C5155 C375 1.564 . S
C5157 C4900 1.536 . S
C5175 C4984 1.536 . S
C5173 C415 1.564 . S
C5191 C455 1.564 . S
C5193 C4960 1.536 . S
C5211 C4924 1.536 . S
C5209 C495 1.564 . S
C5229 C4360 1.536 . S
C5227 C535 1.564 . S
C5247 C4372 1.536 . S
C5245 C575 1.564 . S
C5263 C615 1.564 . S
C5265 C4336 1.536 . S
C5281 C655 1.564 . S
C5283 C4864 1.536 . S
C5301 C4264 1.536 . S
C5299 C695 1.564 . S
C5319 C4804 1.536 . S
C5317 C735 1.564 . S
C5337 C4240 1.536 . S
C5335 C775 1.564 . S
C5353 C815 1.564 . S
C5355 C4252 1.536 . S
C5373 C4888 1.536 . S
C5371 C855 1.564 . S
C5391 C4852 1.536 . S
C5389 C895 1.564 . S
C5407 C935 1.564 . S
C5409 C4876 1.536 . S
C5425 C975 1.568 . S
C5427 C3856 1.543 . S
C5443 C1015 1.568 . S
C5445 C4444 1.543 . S
C5463 C3880 1.543 . S
C5461 C1055 1.568 . S
C5479 C1095 1.568 . S
C5481 C4420 1.543 . S
C5499 C3928 1.543 . S
C5497 C1135 1.568 . S
C5515 C1175 1.568 . S
C5517 C4468 1.543 . S
C5535 C3904 1.543 . S
C5533 C1215 1.568 . S
C5553 C4492 1.543 . S
C5551 C1255 1.568 . S
C5569 C1295 1.568 . S
C5571 C4684 1.543 . S
C5589 C4612 1.543 . S
C5587 C1335 1.568 . S
C5605 C1375 1.568 . S
C5607 C4696 1.543 . S
C5625 C4672 1.543 . S
C5623 C1415 1.568 . S
C5643 C4636 1.543 . S
C5641 C1455 1.568 . S
C5659 C1495 1.568 . S
C5661 C4072 1.543 . S
C5677 C1535 1.568 . S
C5679 C4084 1.543 . S
C5697 C4048 1.543 . S
C5695 C1575 1.568 . S
C5713 C1615 1.568 . S
C5715 C4576 1.543 . S
C5733 C3976 1.543 . S
C5731 C1655 1.568 . S
C5749 C1695 1.568 . S
C5751 C4516 1.543 . S
C5769 C3952 1.543 . S
C5767 C1735 1.568 . S
C5785 C1775 1.568 . S
C5787 C3964 1.543 . S
C5805 C4600 1.543 . S
C5803 C1815 1.568 . S
C5823 C4564 1.543 . S
C5821 C1855 1.568 . S
C5841 C4588 1.543 . S
C5839 C1895 1.568 . S
C5857 C1935 1.564 . S
C5859 C4720 1.536 . S
C5877 C4156 1.536 . S
C5875 C1975 1.564 . S
C5895 C4744 1.536 . S
C5893 C2015 1.564 . S
C5913 C4132 1.536 . S
C5911 C2055 1.564 . S
C5929 C2095 1.564 . S
C5931 C4792 1.536 . S
C5949 C4180 1.536 . S
C5947 C2135 1.564 . S
C5967 C4768 1.536 . S
C5965 C2175 1.564 . S
C5985 C4204 1.536 . S
C5983 C2215 1.564 . S
C6001 C2255 1.564 . S
C6003 C4396 1.536 . S
C6021 C4324 1.536 . S
C6019 C2295 1.564 . S
C6039 C4408 1.536 . S
C6037 C2335 1.564 . S
C6055 C2375 1.564 . S
C6057 C4384 1.536 . S
C6073 C2415 1.564 . S
C6075 C4348 1.536 . S
C6091 C2455 1.564 . S
C6093 C4936 1.536 . S
C6109 C2495 1.564 . S
C6111 C4948 1.536 . S
C6129 C4912 1.536 . S
C6127 C2535 1.564 . S
C6145 C2575 1.564 . S
C6147 C4288 1.536 . S
C6165 C4840 1.536 . S
C6163 C2615 1.564 . S
C6183 C4228 1.536 . S
C6181 C2655 1.564 . S
C6201 C4816 1.536 . S
C6199 C2695 1.564 . S
C6217 C2735 1.564 . S
C6219 C4828 1.536 . S
C6235 C2775 1.564 . S
C6237 C4312 1.536 . S
C6255 C4276 1.536 . S
C6253 C2815 1.564 . S
C6271 C2855 1.564 . S
C6273 C4300 1.536 . S
C6289 C2895 1.568 . S
C6291 C4432 1.543 . S
C6309 C3868 1.543 . S
C6307 C2935 1.568 . S
C6327 C4456 1.543 . S
C6325 C2975 1.568 . S
C6343 C3015 1.568 . S
C6345 C3844 1.543 . S
C6363 C4504 1.543 . S
C6361 C3055 1.568 . S
C6381 C3892 1.543 . S
C6379 C3095 1.568 . S
C6397 C3135 1.568 . S
C6399 C4480 1.543 . S
C6415 C3175 1.568 . S
C6417 C3916 1.543 . S
C6435 C4108 1.543 . S
C6433 C3215 1.568 . S
C6451 C3255 1.568 . S
C6453 C4036 1.543 . S
C6471 C4120 1.543 . S
C6469 C3295 1.568 . S
C6489 C4096 1.543 . S
C6487 C3335 1.568 . S
C6505 C3375 1.568 . S
C6507 C4060 1.543 . S
C6523 C3415 1.568 . S
C6525 C4648 1.543 . S
C6543 C4660 1.543 . S
C6541 C3455 1.568 . S
C6559 C3495 1.568 . S
C6561 C4624 1.543 . S
C6579 C4000 1.543 . S
C6577 C3535 1.568 . S
C6597 C4552 1.543 . S
C6595 C3575 1.568 . S
C6613 C3615 1.568 . S
C6615 C3940 1.543 . S
C6631 C3655 1.568 . S
C6633 C4528 1.543 . S
C6649 C3695 1.568 . S
C6651 C4540 1.543 . S
C6667 C3735 1.568 . S
C6669 C4024 1.543 . S
C6685 C3775 1.568 . S
C6687 C3988 1.543 . S
C6705 C4012 1.543 . S
C6703 C3815 1.568 . S
C6723 C3954 1.586 . S
C6721 C2 1.564 . S
C6741 C3966 1.586 . S
C6739 C42 1.564 . S
C6757 C82 1.564 . S
C6759 C3978 1.586 . S
C6775 C122 1.564 . S
C6777 C3942 1.586 . S
C6793 C162 1.564 . S
C6795 C4026 1.586 . S
C6813 C3990 1.586 . S
C6811 C202 1.564 . S
C6831 C4002 1.586 . S
C6829 C242 1.564 . S
C6847 C282 1.564 . S
C6849 C4014 1.586 . S
C6865 C322 1.563 . S
C6867 C3882 1.586 . S
C6883 C362 1.564 . S
C6885 C3846 1.586 . S
C6901 C402 1.564 . S
C6903 C3858 1.586 . S
C6921 C3870 1.586 . S
C6919 C442 1.564 . S
C6937 C482 1.564 . S
C6939 C3906 1.586 . S
C6955 C522 1.564 . S
C6957 C3918 1.586 . S
C6973 C562 1.564 . S
C6975 C3930 1.586 . S
C6991 C602 1.563 . S
C6993 C3894 1.586 . S
C7011 C4062 1.586 . S
C7009 C642 1.564 . S
C7027 C682 1.564 . S
C7029 C4686 1.586 . S
C7047 C4038 1.586 . S
C7045 C722 1.564 . S
C7065 C4698 1.586 . S
C7063 C762 1.564 . S
C7081 C802 1.564 . S
C7083 C4674 1.586 . S
C7099 C842 1.564 . S
C7101 C4662 1.586 . S
C7119 C4626 1.586 . S
C7117 C882 1.564 . S
C7137 C4650 1.586 . S
C7135 C922 1.564 . S
C7155 C4242 1.621 . S
C7153 C962 1.651 . S
C7173 C4254 1.621 . S
C7171 C1002 1.651 . S
C7191 C4266 1.621 . S
C7189 C1042 1.651 . S
C7207 C1082 1.651 . S
C7209 C4230 1.621 . S
C7225 C1122 1.651 . S
C7227 C4314 1.621 . S
C7245 C4278 1.621 . S
C7243 C1162 1.651 . S
C7261 C1202 1.651 . S
C7263 C4290 1.621 . S
C7281 C4302 1.621 . S
C7279 C1242 1.651 . S
C7297 C1282 1.651 . S
C7299 C4170 1.621 . S
C7317 C4134 1.621 . S
C7315 C1322 1.651 . S
C7333 C1362 1.651 . S
C7335 C4146 1.621 . S
C7353 C4158 1.621 . S
C7351 C1402 1.651 . S
C7371 C4194 1.621 . S
C7369 C1442 1.651 . S
C7387 C1482 1.651 . S
C7389 C4206 1.621 . S
C7407 C4218 1.621 . S
C7405 C1522 1.651 . S
C7425 C4182 1.621 . S
C7423 C1562 1.651 . S
C7443 C4350 1.621 . S
C7441 C1602 1.651 . S
C7461 C4974 1.621 . S
C7459 C1642 1.651 . S
C7479 C4326 1.621 . S
C7477 C1682 1.651 . S
C7495 C1722 1.651 . S
C7497 C4986 1.621 . S
C7513 C1762 1.651 . S
C7515 C4962 1.621 . S
C7533 C4950 1.621 . S
C7531 C1802 1.651 . S
C7551 C4914 1.621 . S
C7549 C1842 1.651 . S
C7569 C4938 1.621 . S
C7567 C1882 1.651 . S
C7585 C1922 1.564 . S
C7587 C4530 1.586 . S
C7605 C4542 1.586 . S
C7603 C1962 1.564 . S
C7621 C2002 1.564 . S
C7623 C4554 1.586 . S
C7641 C4518 1.586 . S
C7639 C2042 1.564 . S
C7657 C2082 1.564 . S
C7659 C4602 1.586 . S
C7675 C2122 1.564 . S
C7677 C4566 1.586 . S
C7693 C2162 1.564 . S
C7695 C4578 1.586 . S
C7711 C2202 1.564 . S
C7713 C4590 1.586 . S
C7729 C2242 1.563 . S
C7731 C4458 1.586 . S
C7749 C4422 1.586 . S
C7747 C2282 1.564 . S
C7767 C4434 1.586 . S
C7765 C2322 1.564 . S
C7783 C2362 1.564 . S
C7785 C4446 1.586 . S
C7801 C2402 1.564 . S
C7803 C4482 1.586 . S
C7819 C2442 1.564 . S
C7821 C4494 1.586 . S
C7837 C2482 1.564 . S
C7839 C4506 1.586 . S
C7855 C2522 1.563 . S
C7857 C4470 1.586 . S
C7875 C4638 1.586 . S
C7873 C2562 1.564 . S
C7893 C4110 1.586 . S
C7891 C2602 1.564 . S
C7911 C4614 1.586 . S
C7909 C2642 1.564 . S
C7929 C4122 1.586 . S
C7927 C2682 1.564 . S
C7947 C4098 1.586 . S
C7945 C2722 1.564 . S
C7965 C4086 1.586 . S
C7963 C2762 1.564 . S
C7981 C2802 1.564 . S
C7983 C4050 1.586 . S
C8001 C4074 1.586 . S
C7999 C2842 1.564 . S
C8017 C2882 1.651 . S
C8019 C4818 1.621 . S
C8035 C2922 1.651 . S
C8037 C4830 1.621 . S
C8055 C4842 1.621 . S
C8053 C2962 1.651 . S
C8071 C3002 1.651 . S
C8073 C4806 1.621 . S
C8091 C4890 1.621 . S
C8089 C3042 1.651 . S
C8107 C3082 1.651 . S
C8109 C4854 1.621 . S
C8125 C3122 1.651 . S
C8127 C4866 1.621 . S
C8145 C4878 1.621 . S
C8143 C3162 1.651 . S
C8163 C4746 1.621 . S
C8161 C3202 1.651 . S
C8181 C4710 1.621 . S
C8179 C3242 1.651 . S
C8199 C4722 1.621 . S
C8197 C3282 1.651 . S
C8217 C4734 1.621 . S
C8215 C3322 1.651 . S
C8233 C3362 1.651 . S
C8235 C4770 1.621 . S
C8253 C4782 1.621 . S
C8251 C3402 1.651 . S
C8269 C3442 1.651 . S
C8271 C4794 1.621 . S
C8287 C3482 1.651 . S
C8289 C4758 1.621 . S
C8305 C3522 1.651 . S
C8307 C4926 1.621 . S
C8323 C3562 1.651 . S
C8325 C4398 1.621 . S
C8341 C3602 1.651 . S
C8343 C4902 1.621 . S
C8361 C4410 1.621 . S
C8359 C3642 1.651 . S
C8377 C3682 1.651 . S
C8379 C4386 1.621 . S
C8395 C3722 1.651 . S
C8397 C4374 1.621 . S
C8413 C3762 1.651 . S
C8415 C4338 1.621 . S
C8433 C4362 1.621 . S
C8431 C3802 1.651 . S
C8449 C21 1.636 . S
C8451 C3849 1.672 . S
C8467 C61 1.636 . S
C8469 C3861 1.672 . S
C8485 C101 1.636 . S
C8487 C3873 1.672 . S
C8505 C3885 1.672 . S
C8503 C141 1.636 . S
C8523 C3897 1.672 . S
C8521 C181 1.636 . S
C8539 C221 1.636 . S
C8541 C3909 1.672 . S
C8557 C261 1.636 . S
C8559 C3921 1.672 . S
C8575 C301 1.636 . S
C8577 C3933 1.672 . S
C8595 C3945 1.672 . S
C8593 C341 1.636 . S
C8613 C3957 1.672 . S
C8611 C381 1.636 . S
C8629 C421 1.636 . S
C8631 C3969 1.672 . S
C8649 C3981 1.672 . S
C8647 C461 1.636 . S
C8665 C501 1.636 . S
C8667 C3993 1.672 . S
C8683 C541 1.636 . S
C8685 C4005 1.672 . S
C8701 C581 1.636 . S
C8703 C4017 1.672 . S
C8719 C621 1.636 . S
C8721 C4029 1.672 . S
C8737 C661 1.636 . S
C8739 C4041 1.672 . S
C8755 C701 1.636 . S
C8757 C4053 1.672 . S
C8775 C4065 1.672 . S
C8773 C741 1.636 . S
C8793 C4077 1.672 . S
C8791 C781 1.636 . S
C8811 C4089 1.672 . S
C8809 C821 1.636 . S
C8829 C4101 1.672 . S
C8827 C861 1.636 . S
C8845 C901 1.636 . S
C8847 C4113 1.672 . S
C8865 C4125 1.672 . S
C8863 C941 1.636 . S
C8881 C981 1.734 . S
C8883 C4137 1.691 . S
C8899 C1021 1.733 . S
C8901 C4149 1.691 . S
C8917 C1061 1.734 . S
C8919 C4161 1.691 . S
C8937 C4173 1.691 . S
C8935 C1101 1.734 . S
C8953 C1141 1.734 . S
C8955 C4185 1.691 . S
C8973 C4197 1.691 . S
C8971 C1181 1.734 . S
C8989 C1221 1.733 . S
C8991 C4209 1.691 . S
C9007 C1261 1.734 . S
C9009 C4221 1.691 . S
C9027 C4233 1.691 . S
C9025 C1301 1.734 . S
C9043 C1341 1.734 . S
C9045 C4245 1.691 . S
C9063 C4257 1.691 . S
C9061 C1381 1.733 . S
C9079 C1421 1.734 . S
C9081 C4269 1.691 . S
C9099 C4281 1.691 . S
C9097 C1461 1.734 . S
C9117 C4293 1.691 . S
C9115 C1501 1.733 . S
C9135 C4305 1.691 . S
C9133 C1541 1.734 . S
C9151 C1581 1.734 . S
C9153 C4317 1.691 . S
C9169 C1621 1.734 . S
C9171 C4329 1.691 . S
C9187 C1661 1.734 . S
C9189 C4341 1.691 . S
C9205 C1701 1.734 . S
C9207 C4353 1.691 . S
C9223 C1741 1.734 . S
C9225 C4365 1.691 . S
C9241 C1781 1.734 . S
C9243 C4377 1.691 . S
C9261 C4389 1.691 . S
C9259 C1821 1.734 . S
C9277 C1861 1.734 . S
C9279 C4401 1.691 . S
C9297 C4413 1.691 . S
C9295 C1901 1.734 . S
C9313 C1941 1.636 . S
C9315 C4425 1.672 . S
C9333 C4437 1.672 . S
C9331 C1981 1.636 . S
C9351 C4449 1.672 . S
C9349 C2021 1.636 . S
C9369 C4461 1.672 . S
C9367 C2061 1.636 . S
C9385 C2101 1.636 . S
C9387 C4473 1.672 . S
C9403 C2141 1.636 . S
C9405 C4485 1.672 . S
C9423 C4497 1.672 . S
C9421 C2181 1.636 . S
C9441 C4509 1.672 . S
C9439 C2221 1.636 . S
C9457 C2261 1.636 . S
C9459 C4521 1.672 . S
C9475 C2301 1.636 . S
C9477 C4533 1.672 . S
C9493 C2341 1.636 . S
C9495 C4545 1.672 . S
C9511 C2381 1.636 . S
C9513 C4557 1.672 . S
C9529 C2421 1.636 . S
C9531 C4569 1.672 . S
C9549 C4581 1.672 . S
C9547 C2461 1.636 . S
C9567 C4593 1.672 . S
C9565 C2501 1.636 . S
C9585 C4605 1.672 . S
C9583 C2541 1.636 . S
C9603 C4617 1.672 . S
C9601 C2581 1.636 . S
C9619 C2621 1.636 . S
C9621 C4629 1.672 . S
C9637 C2661 1.636 . S
C9639 C4641 1.672 . S
C9657 C4653 1.672 . S
C9655 C2701 1.636 . S
C9673 C2741 1.636 . S
C9675 C4665 1.672 . S
C9693 C4677 1.672 . S
C9691 C2781 1.636 . S
C9711 C4689 1.672 . S
C9709 C2821 1.636 . S
C9729 C4701 1.672 . S
C9727 C2861 1.636 . S
C9745 C2901 1.734 . S
C9747 C4713 1.691 . S
C9763 C2941 1.733 . S
C9765 C4725 1.691 . S
C9781 C2981 1.734 . S
C9783 C4737 1.691 . S
C9799 C3021 1.734 . S
C9801 C4749 1.691 . S
C9819 C4761 1.691 . S
C9817 C3061 1.734 . S
C9837 C4773 1.691 . S
C9835 C3101 1.734 . S
C9855 C4785 1.691 . S
C9853 C3141 1.733 . S
C9871 C3181 1.734 . S
C9873 C4797 1.691 . S
C9889 C3221 1.734 . S
C9891 C4809 1.691 . S
C9909 C4821 1.691 . S
C9907 C3261 1.734 . S
C9927 C4833 1.691 . S
C9925 C3301 1.733 . S
C9945 C4845 1.691 . S
C9943 C3341 1.734 . S
C9963 C4857 1.691 . S
C9961 C3381 1.734 . S
C9981 C4869 1.691 . S
C9979 C3421 1.733 . S
C9999 C4881 1.691 . S
C9997 C3461 1.734 . S
C10017 C4893 1.691 . S
C10015 C3501 1.734 . S
C10035 C4905 1.691 . S
C10033 C3541 1.734 . S
C10053 C4917 1.691 . S
C10051 C3581 1.734 . S
C10071 C4929 1.691 . S
C10069 C3621 1.734 . S
C10087 C3661 1.734 . S
C10089 C4941 1.691 . S
C10107 C4953 1.691 . S
C10105 C3701 1.734 . S
C10123 C3741 1.734 . S
C10125 C4965 1.691 . S
C10143 C4977 1.691 . S
C10141 C3781 1.734 . S
C10161 C4989 1.691 . S
C10159 C3821 1.734 . S
