# Generated by pormake.
# Topology llj, (12,3)-cn, num edge types: 1
# Building blocks:
#     Node 0, Type 0, BuildingBlock: QEWDON_clean_sbu_0, # of connection points: 12
#     Node 1, Type 0, BuildingBlock: QEWDON_clean_sbu_0, # of connection points: 12
#     Node 2, Type 1, BuildingBlock: MIDCAF_clean_linker_0, # of connection points: 3
#     Node 3, Type 1, BuildingBlock: MIDCAF_clean_linker_0, # of connection points: 3
#     Node 4, Type 1, BuildingBlock: MIDCAF_clean_linker_0, # of connection points: 3
#     Node 5, Type 1, BuildingBlock: MIDCAF_clean_linker_0, # of connection points: 3
#     Node 6, Type 1, BuildingBlock: MIDCAF_clean_linker_0, # of connection points: 3
#     Node 7, Type 1, BuildingBlock: MIDCAF_clean_linker_0, # of connection points: 3
#     Node 8, Type 1, BuildingBlock: MIDCAF_clean_linker_0, # of connection points: 3
#     Node 9, Type 1, BuildingBlock: MIDCAF_clean_linker_0, # of connection points: 3
#     Edge 10, Type (0, 1), BuildingBlock: AJUNOK_clean_linker_0, # of connection points: 2
#     Edge 11, Type (0, 1), BuildingBlock: AJUNOK_clean_linker_0, # of connection points: 2
#     Edge 12, Type (0, 1), BuildingBlock: AJUNOK_clean_linker_0, # of connection points: 2
#     Edge 13, Type (0, 1), BuildingBlock: AJUNOK_clean_linker_0, # of connection points: 2
#     Edge 14, Type (0, 1), BuildingBlock: AJUNOK_clean_linker_0, # of connection points: 2
#     Edge 15, Type (0, 1), BuildingBlock: AJUNOK_clean_linker_0, # of connection points: 2
#     Edge 16, Type (0, 1), BuildingBlock: AJUNOK_clean_linker_0, # of connection points: 2
#     Edge 17, Type (0, 1), BuildingBlock: AJUNOK_clean_linker_0, # of connection points: 2
#     Edge 18, Type (0, 1), BuildingBlock: AJUNOK_clean_linker_0, # of connection points: 2
#     Edge 19, Type (0, 1), BuildingBlock: AJUNOK_clean_linker_0, # of connection points: 2
#     Edge 20, Type (0, 1), BuildingBlock: AJUNOK_clean_linker_0, # of connection points: 2
#     Edge 21, Type (0, 1), BuildingBlock: AJUNOK_clean_linker_0, # of connection points: 2
#     Edge 22, Type (0, 1), BuildingBlock: AJUNOK_clean_linker_0, # of connection points: 2
#     Edge 23, Type (0, 1), BuildingBlock: AJUNOK_clean_linker_0, # of connection points: 2
#     Edge 24, Type (0, 1), BuildingBlock: AJUNOK_clean_linker_0, # of connection points: 2
#     Edge 25, Type (0, 1), BuildingBlock: AJUNOK_clean_linker_0, # of connection points: 2
#     Edge 26, Type (0, 1), BuildingBlock: AJUNOK_clean_linker_0, # of connection points: 2
#     Edge 27, Type (0, 1), BuildingBlock: AJUNOK_clean_linker_0, # of connection points: 2
#     Edge 28, Type (0, 1), BuildingBlock: AJUNOK_clean_linker_0, # of connection points: 2
#     Edge 29, Type (0, 1), BuildingBlock: AJUNOK_clean_linker_0, # of connection points: 2
#     Edge 30, Type (0, 1), BuildingBlock: AJUNOK_clean_linker_0, # of connection points: 2
#     Edge 31, Type (0, 1), BuildingBlock: AJUNOK_clean_linker_0, # of connection points: 2
#     Edge 32, Type (0, 1), BuildingBlock: AJUNOK_clean_linker_0, # of connection points: 2
#     Edge 33, Type (0, 1), BuildingBlock: AJUNOK_clean_linker_0, # of connection points: 2
# Relax obj value: 0.011
# Max RMSD: 0.058
# Mean RMSD: 0.054
data_MOF--net-llj--node1-QEWDON_clean_sbu_0--node2-MIDCAF_clean_linker_0--edge1-AJUNOK_clean_linker_0
_symmetry_space_group_name_H-M    P1
_symmetry_Int_Tables_number       1
_symmetry_cell_setting            triclinic
loop_
_symmetry_equiv_pos_as_xyz
'x, y, z'
_cell_length_a     36.298847
_cell_length_b     36.309703
_cell_length_c     25.311882
_cell_angle_alpha  89.880044
_cell_angle_beta   90.01623
_cell_angle_gamma 89.972878
loop_
_atom_site_label
_atom_site_type_symbol
_atom_site_fract_x
_atom_site_fract_y
_atom_site_fract_z
_atom_type_partial_charge
Zn0 Zn 0.94817 0.05425 0.95569 0.0
Zn1 Zn 0.94551 0.06243 0.08023 0.0
O2 O 0.98032 0.05238 0.02055 0.0
H3 H 0.00188 0.03678 0.02199 0.0
C4 C 0.89154 0.99353 0.89895 0.0
O5 O 0.87915 0.00237 0.94599 0.0
Zn6 Zn 0.06863 0.93718 0.08551 0.0
Zn7 Zn 0.07007 0.93399 0.95795 0.0
O8 O 0.03792 0.94651 0.02109 0.0
H9 H 0.01746 0.9635 0.01972 0.0
Zn10 Zn 0.9259 0.93664 0.96163 0.0
O11 O 0.93631 0.96844 0.02364 0.0
Zn12 Zn 0.93436 0.93501 0.08583 0.0
H13 H 0.95337 0.98854 0.01946 0.0
Zn14 Zn 0.06958 0.06465 0.97205 0.0
O15 O 0.08286 0.02864 0.02931 0.0
H16 H 0.10113 0.0096 0.02432 0.0
Zn17 Zn 0.07865 0.06314 0.08964 0.0
C18 C 0.09781 0.01862 0.8911 0.0
O19 O 0.12548 0.02027 0.92448 0.0
O20 O 0.90292 0.08678 0.96713 0.0
O21 O 0.90269 0.09441 0.05437 0.0
O22 O 0.11933 0.91065 0.97884 0.0
O23 O 0.11494 0.90817 0.06648 0.0
O24 O 0.89842 0.88934 0.9817 0.0
O25 O 0.90188 0.89052 0.06957 0.0
C26 C 0.00811 0.08593 0.13924 0.0
O27 O 0.09598 0.11455 0.98405 0.0
O28 O 0.10625 0.10995 0.07063 0.0
O29 O 0.04538 0.90995 0.89266 0.0
C30 C 0.8893 0.10113 0.0086 0.0
O31 O 0.97622 0.06395 0.88643 0.0
C32 C 0.00413 0.90833 0.13783 0.0
O33 O 0.91219 0.96548 0.89426 0.0
C34 C 0.1321 0.90106 0.02363 0.0
O35 O 0.06948 0.0382 0.89984 0.0
C36 C 0.9174 0.99799 0.1474 0.0
O37 O 0.97312 0.08616 0.14008 0.0
O38 O 0.02464 0.07355 0.09888 0.0
C39 C 0.89099 0.87552 0.0267 0.0
O40 O 0.03902 0.9097 0.14008 0.0
O41 O 0.98777 0.9224 0.09833 0.0
C42 C 0.0949 0.00254 0.1555 0.0
O43 O 0.91497 0.96308 0.1491 0.0
O44 O 0.92933 0.01252 0.10509 0.0
C45 C 0.10959 0.12728 0.02682 0.0
O46 O 0.09786 0.03747 0.15532 0.0
O47 O 0.08186 0.98743 0.11423 0.0
C48 C 0.01318 0.89647 0.89574 0.0
O49 O 0.99528 0.89856 0.94073 0.0
C50 C -0.00033 0.08986 0.88772 0.0
O51 O 0.00456 0.1078 0.93221 0.0
Zn52 Zn 0.43268 0.5817 0.44789 0.0
Zn53 Zn 0.44256 0.57165 0.57173 0.0
O54 O 0.46899 0.56596 0.5034 0.0
H55 H 0.48853 0.54862 0.49616 0.0
C56 C 0.39139 0.48945 0.37493 0.0
O57 O 0.385 0.5022 0.42257 0.0
Zn58 Zn 0.55054 0.41842 0.56799 0.0
Zn59 Zn 0.55441 0.42117 0.44986 0.0
O60 O 0.5168 0.4143 0.50649 0.0
H61 H 0.49627 0.39746 0.50389 0.0
Zn62 Zn 0.42612 0.43537 0.43986 0.0
O63 O 0.43276 0.47139 0.50012 0.0
Zn64 Zn 0.42608 0.44148 0.56499 0.0
H65 H 0.44755 0.4934 0.49741 0.0
Zn66 Zn 0.57918 0.5557 0.42733 0.0
O67 O 0.56361 0.523 0.48779 0.0
H68 H 0.54609 0.50311 0.48441 0.0
Zn69 Zn 0.57389 0.55197 0.55307 0.0
C70 C 0.60135 0.49612 0.35993 0.0
O71 O 0.60266 0.48014 0.40649 0.0
O72 O 0.38931 0.61157 0.4778 0.0
O73 O 0.3988 0.60722 0.56436 0.0
O74 O 0.6 0.38935 0.46667 0.0
O75 O 0.59594 0.38674 0.55458 0.0
O76 O 0.40263 0.38619 0.46242 0.0
O77 O 0.3985 0.39414 0.54941 0.0
C78 C 0.5135 0.58382 0.6202 0.0
O79 O 0.61446 0.59631 0.45136 0.0
O80 O 0.60951 0.59457 0.53891 0.0
O81 O 0.52938 0.42138 0.37675 0.0
C82 C 0.38039 0.61953 0.52509 0.0
O83 O 0.45622 0.597 0.3769 0.0
C84 C 0.48791 0.41283 0.63011 0.0
O85 O 0.40866 0.45921 0.37003 0.0
C86 C 0.61191 0.37806 0.5113 0.0
O87 O 0.59166 0.52968 0.35712 0.0
C88 C 0.40308 0.50513 0.62239 0.0
O89 O 0.47923 0.589 0.62731 0.0
O90 O 0.52423 0.56912 0.57753 0.0
C91 C 0.3926 0.37503 0.50797 0.0
O92 O 0.5215 0.40326 0.63292 0.0
O93 O 0.47674 0.42851 0.58843 0.0
C94 C 0.58784 0.48423 0.60765 0.0
O95 O 0.39922 0.47043 0.62007 0.0
O96 O 0.42455 0.52031 0.5891 0.0
C97 C 0.62349 0.60818 0.49684 0.0
O98 O 0.5961 0.51821 0.6075 0.0
O99 O 0.56559 0.47176 0.5734 0.0
C100 C 0.50634 0.39554 0.36981 0.0
O101 O 0.50356 0.36975 0.40608 0.0
C102 C 0.48722 0.613 0.38037 0.0
O103 O 0.50084 0.61939 0.42755 0.0
C104 C 0.41872 0.40029 0.14087 0.0
C105 C 0.40566 0.3907 0.19117 0.0
C106 C 0.37025 0.37528 0.19591 0.0
C107 C 0.34886 0.36847 0.15095 0.0
H108 H 0.25105 0.31722 0.09335 0.0
H109 H 0.20166 0.27168 0.09789 0.0
H110 H 0.22011 0.24407 0.93413 0.0
H111 H 0.26828 0.29031 0.92885 0.0
H112 H 0.31749 0.34723 0.85794 0.0
H113 H 0.34966 0.36069 0.7749 0.0
H114 H 0.43626 0.41476 0.86212 0.0
H115 H 0.40431 0.40262 0.94402 0.0
H116 H 0.40889 0.40091 0.05804 0.0
H117 H 0.4462 0.4113 0.13566 0.0
H118 H 0.35943 0.36777 0.23433 0.0
H119 H 0.3221 0.35571 0.15575 0.0
N120 N 0.31162 0.34507 0.05394 0.0
N121 N 0.31002 0.34299 0.96107 0.0
N122 N 0.35609 0.37631 0.00428 0.0
C123 C 0.29533 0.33319 0.00855 0.0
C124 C 0.34037 0.36477 0.95874 0.0
C125 C 0.34211 0.36675 0.05194 0.0
C126 C 0.26366 0.30748 0.01074 0.0
C127 C 0.24423 0.30178 0.05811 0.0
C128 C 0.21598 0.27566 0.06077 0.0
C129 C 0.2067 0.25452 0.01625 0.0
C130 C 0.2258 0.26059 0.96875 0.0
C131 C 0.2537 0.28697 0.96589 0.0
C132 C 0.35816 0.37395 0.90775 0.0
C133 C 0.34317 0.36237 0.85927 0.0
C134 C 0.36157 0.36991 0.81181 0.0
C135 C 0.3951 0.38922 0.81218 0.0
C136 C 0.40995 0.40072 0.86053 0.0
C137 C 0.39164 0.39345 0.90762 0.0
C138 C 0.36246 0.37714 0.10046 0.0
C139 C 0.3973 0.39391 0.09617 0.0
C140 C 0.63054 0.42759 0.12108 0.0
C141 C 0.64733 0.41941 0.16961 0.0
C142 C 0.6756 0.39296 0.17135 0.0
C143 C 0.68619 0.37432 0.1256 0.0
H144 H 0.7566 0.29293 0.0656 0.0
H145 H 0.79665 0.23917 0.06939 0.0
H146 H 0.75404 0.20244 0.91909 0.0
H147 H 0.71515 0.25719 0.91404 0.0
H148 H 0.69378 0.33255 0.83537 0.0
H149 H 0.67299 0.35921 0.7514 0.0
H150 H 0.61178 0.44195 0.83656 0.0
H151 H 0.63165 0.41554 0.91969 0.0
H152 H 0.62743 0.41594 0.03862 0.0
H153 H 0.60861 0.44777 0.1187 0.0
H154 H 0.68964 0.38678 0.20807 0.0
H155 H 0.70794 0.35396 0.12827 0.0
N156 N 0.7009 0.3315 0.03087 0.0
N157 N 0.69797 0.32581 0.93847 0.0
N158 N 0.66803 0.37464 0.9809 0.0
C159 C 0.70996 0.31302 0.98605 0.0
C160 C 0.67705 0.35682 0.93571 0.0
C161 C 0.67973 0.36228 0.02852 0.0
C162 C 0.73303 0.27954 0.9892 0.0
C163 C 0.75573 0.27339 0.03335 0.0
C164 C 0.77855 0.24248 0.03568 0.0
C165 C 0.77888 0.21681 0.99423 0.0
C166 C 0.75519 0.22227 0.95095 0.0
C167 C 0.7328 0.25353 0.94818 0.0
C168 C 0.66443 0.37185 0.88438 0.0
C169 C 0.6758 0.35635 0.83613 0.0
C170 C 0.66415 0.37168 0.78811 0.0
C171 C 0.6409 0.40262 0.78773 0.0
C172 C 0.62947 0.41789 0.83582 0.0
C173 C 0.64106 0.40275 0.8835 0.0
C174 C 0.66904 0.38215 0.07709 0.0
C175 C 0.64131 0.40922 0.07528 0.0
C176 C 0.57471 0.62219 0.85174 0.0
C177 C 0.59501 0.62689 0.80503 0.0
C178 C 0.62927 0.64476 0.80726 0.0
C179 C 0.64331 0.65695 0.85575 0.0
H180 H 0.71789 0.73268 0.9263 0.0
H181 H 0.77215 0.77168 0.93434 0.0
H182 H 0.77871 0.74621 0.10086 0.0
H183 H 0.72357 0.7083 0.09338 0.0
H184 H 0.62399 0.71283 0.13328 0.0
H185 H 0.58787 0.70138 0.21274 0.0
H186 H 0.55324 0.59645 0.14955 0.0
H187 H 0.58751 0.60916 0.06843 0.0
H188 H 0.5721 0.6299 0.93501 0.0
H189 H 0.54772 0.60946 0.85095 0.0
H190 H 0.6453 0.64891 0.77166 0.0
H191 H 0.66993 0.6704 0.85636 0.0
N192 N 0.66932 0.68389 0.95772 0.0
N193 N 0.66206 0.68858 0.0496 0.0
N194 N 0.61831 0.6568 -0.00069 0.0
C195 C 0.68186 0.69592 0.00532 0.0
C196 C 0.63033 0.66901 0.04684 0.0
C197 C 0.6375 0.66426 0.95446 0.0
C198 C 0.7163 0.7175 0.0092 0.0
C199 C 0.73111 0.73506 0.96452 0.0
C200 C 0.76243 0.75716 0.96904 0.0
C201 C 0.78002 0.76161 0.01814 0.0
C202 C 0.76567 0.7434 0.06257 0.0
C203 C 0.73409 0.72168 0.0582 0.0
C204 C 0.60875 0.66172 0.09501 0.0
C205 C 0.6087 0.6873 0.13649 0.0
C206 C 0.58825 0.68058 0.18216 0.0
C207 C 0.5684 0.64758 0.18803 0.0
C208 C 0.56818 0.62216 0.14618 0.0
C209 C 0.5879 0.62934 0.09989 0.0
C210 C 0.62319 0.65159 0.90273 0.0
C211 C 0.58867 0.63417 0.89996 0.0
C212 C 0.35357 0.56441 0.85252 0.0
C213 C 0.34647 0.58254 0.80466 0.0
C214 C 0.33247 0.61859 0.80536 0.0
C215 C 0.32527 0.63607 0.85346 0.0
H216 H 0.2637 0.72092 0.92532 0.0
H217 H 0.22889 0.77789 0.93265 0.0
H218 H 0.2642 0.78946 0.09474 0.0
H219 H 0.29805 0.7316 0.08816 0.0
H220 H 0.29295 0.63785 0.14141 0.0
H221 H 0.30594 0.60164 0.22048 0.0
H222 H 0.395 0.54677 0.13914 0.0
H223 H 0.38072 0.58159 0.05914 0.0
H224 H 0.35248 0.56684 0.93644 0.0
H225 H 0.3653 0.53696 0.85297 0.0
H226 H 0.32712 0.63315 0.76875 0.0
H227 H 0.31442 0.66386 0.85292 0.0
N228 N 0.30896 0.6695 0.95554 0.0
N229 N 0.31089 0.66693 0.04823 0.0
N230 N 0.33427 0.61809 -0.00179 0.0
C231 C 0.30194 0.68531 0.00319 0.0
C232 C 0.32716 0.63332 0.04586 0.0
C233 C 0.3252 0.63583 0.95287 0.0
C234 C 0.28348 0.72156 0.00623 0.0
C235 C 0.26449 0.7358 0.96234 0.0
C236 C 0.24481 0.7687 0.96638 0.0
C237 C 0.24422 0.78845 0.0141 0.0
C238 C 0.2641 0.77479 0.05752 0.0
C239 C 0.28345 0.74164 0.05369 0.0
C240 C 0.33602 0.61273 0.09438 0.0
C241 C 0.31542 0.61822 0.14057 0.0
C242 C 0.32297 0.59759 0.18586 0.0
C243 C 0.35192 0.57185 0.18622 0.0
C244 C 0.37243 0.5663 0.1399 0.0
C245 C 0.36439 0.58638 0.09429 0.0
C246 C 0.33235 0.61784 0.90152 0.0
C247 C 0.34654 0.58179 0.90037 0.0
C248 C 0.96061 0.84692 0.65793 0.0
C249 C 0.94872 0.83271 0.70656 0.0
C250 C 0.91985 0.8069 0.70738 0.0
C251 C 0.90182 0.7971 0.6607 0.0
H252 H 0.81306 0.73573 0.59621 0.0
H253 H 0.75797 0.69711 0.59215 0.0
H254 H 0.72988 0.74499 0.44118 0.0
H255 H 0.7853 0.78272 0.44423 0.0
H256 H 0.84996 0.8264 0.37813 0.0
H257 H 0.87638 0.85014 0.29598 0.0
H258 H 0.98469 0.84809 0.36674 0.0
H259 H 0.95833 0.82594 0.44905 0.0
H260 H 0.95216 0.84929 0.57465 0.0
H261 H 0.98273 0.86691 0.65616 0.0
H262 H 0.91073 0.79484 0.74431 0.0
H263 H 0.87907 0.77787 0.66278 0.0
N264 N 0.85899 0.78713 0.56436 0.0
N265 N 0.85321 0.79439 0.47247 0.0
N266 N 0.90546 0.81669 0.5161 0.0
C267 C 0.83939 0.78194 0.51914 0.0
C268 C 0.88638 0.81156 0.47071 0.0
C269 C 0.89202 0.80478 0.56306 0.0
C270 C 0.80395 0.76177 0.52004 0.0
C271 C 0.79494 0.7383 0.56239 0.0
C272 C 0.76335 0.71628 0.56022 0.0
C273 C 0.74012 0.71753 0.51585 0.0
C274 C 0.74787 0.74274 0.47519 0.0
C275 C 0.77958 0.76439 0.47703 0.0
C276 C 0.90203 0.82445 0.42011 0.0
C277 C 0.87942 0.83088 0.37596 0.0
C278 C 0.89456 0.84424 0.32886 0.0
C279 C 0.93263 0.85075 0.32486 0.0
C280 C 0.9552 0.84374 0.3688 0.0
C281 C 0.94007 0.83095 0.41594 0.0
C282 C 0.91268 0.81256 0.61221 0.0
C283 C 0.94287 0.8369 0.61125 0.0
C284 C 0.09201 0.92193 0.66975 0.0
C285 C 0.10762 0.91327 0.71893 0.0
C286 C 0.13027 0.88198 0.72328 0.0
C287 C 0.13885 0.861 0.67866 0.0
H288 H 0.19331 0.76331 0.61816 0.0
H289 H 0.23971 0.71442 0.62015 0.0
H290 H 0.27512 0.74554 0.46339 0.0
H291 H 0.22816 0.79306 0.46045 0.0
H292 H 0.17851 0.84544 0.39095 0.0
H293 H 0.16787 0.88074 0.30995 0.0
H294 H 0.08019 0.9404 0.38677 0.0
H295 H 0.09085 0.90584 0.46773 0.0
H296 H 0.08888 0.90939 0.58769 0.0
H297 H 0.07492 0.94617 0.66493 0.0
H298 H 0.14239 0.8745 0.76092 0.0
H299 H 0.15761 0.83799 0.68297 0.0
N300 N 0.16341 0.825 0.58205 0.0
N301 N 0.16925 0.82677 0.48961 0.0
N302 N 0.12946 0.86766 0.53234 0.0
C303 C 0.17867 0.81154 0.5369 0.0
C304 C 0.14444 0.85469 0.48702 0.0
C305 C 0.13867 0.85314 0.57995 0.0
C306 C 0.20686 0.78202 0.53905 0.0
C307 C 0.21104 0.75967 0.58417 0.0
C308 C 0.23781 0.73185 0.58549 0.0
C309 C 0.26128 0.72622 0.54204 0.0
C310 C 0.25721 0.74883 0.49728 0.0
C311 C 0.23026 0.77618 0.49566 0.0
C312 C 0.13588 0.8731 0.43616 0.0
C313 C 0.15677 0.86588 0.39051 0.0
C314 C 0.15074 0.88604 0.34413 0.0
C315 C 0.12378 0.91379 0.34264 0.0
C316 C 0.10183 0.91985 0.3874 0.0
C317 C 0.10786 0.89984 0.43367 0.0
C318 C 0.12496 0.871 0.62879 0.0
C319 C 0.10039 0.90094 0.62528 0.0
C320 C 0.06735 0.13968 0.37269 0.0
C321 C 0.08709 0.13217 0.32627 0.0
C322 C 0.12556 0.13656 0.32616 0.0
C323 C 0.14405 0.14693 0.37227 0.0
H324 H 0.22776 0.21819 0.43106 0.0
H325 H 0.28095 0.2584 0.4318 0.0
H326 H 0.29693 0.23634 0.59799 0.0
H327 H 0.24239 0.19695 0.59796 0.0
H328 H 0.17304 0.14444 0.65906 0.0
H329 H 0.13908 0.12617 0.73877 0.0
H330 H 0.03632 0.14572 0.65732 0.0
H331 H 0.06986 0.16229 0.57775 0.0
H332 H 0.06971 0.15453 0.45412 0.0
H333 H 0.03758 0.13779 0.37348 0.0
H334 H 0.14145 0.13097 0.29085 0.0
H335 H 0.17379 0.14929 0.37147 0.0
N336 N 0.17768 0.17649 0.46906 0.0
N337 N 0.17793 0.17684 0.56195 0.0
N338 N 0.1267 0.15439 0.51579 0.0
C339 C 0.19501 0.18451 0.5153 0.0
C340 C 0.14366 0.16181 0.56223 0.0
C341 C 0.14354 0.16134 0.46914 0.0
C342 C 0.23054 0.20453 0.51458 0.0
C343 C 0.24288 0.22125 0.46768 0.0
C344 C 0.27372 0.24411 0.46793 0.0
C345 C 0.29343 0.25028 0.51484 0.0
C346 C 0.28217 0.23221 0.56128 0.0
C347 C 0.25097 0.20963 0.5612 0.0
C348 C 0.12406 0.15413 0.61206 0.0
C349 C 0.14321 0.14488 0.65846 0.0
C350 C 0.12382 0.13446 0.70393 0.0
C351 C 0.08509 0.13353 0.70366 0.0
C352 C 0.06614 0.14476 0.65806 0.0
C353 C 0.08538 0.15452 0.61261 0.0
C354 C 0.12433 0.1528 0.41927 0.0
C355 C 0.08578 0.1495 0.4188 0.0
C356 C 0.85251 0.06579 0.37059 0.0
C357 C 0.87298 0.08363 0.33094 0.0
C358 C 0.88047 0.12149 0.33637 0.0
C359 C 0.869 0.14059 0.38157 0.0
H360 H 0.80022 0.23687 0.43774 0.0
H361 H 0.7553 0.28688 0.43608 0.0
H362 H 0.73045 0.26728 0.60052 0.0
H363 H 0.77607 0.21826 0.60301 0.0
H364 H 0.84286 0.16618 0.66537 0.0
H365 H 0.85543 0.13275 0.74725 0.0
H366 H 0.86028 0.03071 0.66002 0.0
H367 H 0.84938 0.06415 0.57816 0.0
H368 H 0.82729 0.06972 0.44674 0.0
H369 H 0.84472 0.03714 0.36668 0.0
H370 H 0.896 0.13608 0.3064 0.0
H371 H 0.87577 0.16951 0.38558 0.0
N372 N 0.82459 0.17372 0.47294 0.0
N373 N 0.82142 0.17116 0.56559 0.0
N374 N 0.84787 0.12243 0.51858 0.0
C375 C 0.81421 0.18921 0.51962 0.0
C376 C 0.83843 0.13788 0.56537 0.0
C377 C 0.84144 0.1403 0.47241 0.0
C378 C 0.79135 0.22305 0.52022 0.0
C379 C 0.7856 0.24355 0.47378 0.0
C380 C 0.75973 0.27205 0.47271 0.0
C381 C 0.7387 0.28029 0.51782 0.0
C382 C 0.74616 0.26148 0.56511 0.0
C383 C 0.77228 0.23325 0.56638 0.0
C384 C 0.84522 0.11783 0.61529 0.0
C385 C 0.8465 0.1366 0.66377 0.0
C386 C 0.85341 0.11742 0.71071 0.0
C387 C 0.85844 0.07903 0.71015 0.0
C388 C 0.85683 0.06032 0.66168 0.0
C389 C 0.85052 0.07951 0.61478 0.0
C390 C 0.85058 0.12191 0.42233 0.0
C391 C 0.84211 0.08451 0.41619 0.0
C392 C 0.15716 0.16904 0.06567 0.0
C393 C 0.13156 0.16171 0.02525 0.0
C394 C 0.18057 0.19965 0.06311 0.0
C395 C 0.17912 0.22437 0.02026 0.0
H396 H 0.16009 0.15034 0.09881 0.0
H397 H 0.20082 0.20323 0.09411 0.0
S398 S 0.11363 0.22048 0.90776 0.0
N399 N 0.10404 0.18352 0.94325 0.0
N400 N 0.1475 0.2415 0.93912 0.0
C401 C 0.15248 0.21837 0.98082 0.0
C402 C 0.12884 0.18699 0.98317 0.0
C403 C 0.83662 0.13716 0.04614 0.0
C404 C 0.85924 0.12846 0.00283 0.0
C405 C 0.80992 0.16496 0.04253 0.0
C406 C 0.80502 0.18532 -0.00437 0.0
H407 H 0.83978 0.12264 0.08331 0.0
H408 H 0.79324 0.17085 0.07698 0.0
S409 S 0.85797 0.17411 0.87122 0.0
N410 N 0.87504 0.14262 0.91144 0.0
N411 N 0.82549 0.19524 0.90523 0.0
C412 C 0.82715 0.17659 0.95182 0.0
C413 C 0.85412 0.14812 0.9553 0.0
C414 C 0.83926 0.84049 0.06759 0.0
C415 C 0.8667 0.84303 0.02865 0.0
C416 C 0.81207 0.81317 0.06497 0.0
C417 C 0.81165 0.78724 0.02363 0.0
H418 H 0.83761 0.86088 0.09869 0.0
H419 H 0.79029 0.81345 0.09421 0.0
S420 S 0.88167 0.77824 0.91765 0.0
N421 N 0.89463 0.81488 0.9514 0.0
N422 N 0.84404 0.76298 0.94709 0.0
C423 C 0.84052 0.78802 0.98661 0.0
C424 C 0.86794 0.81603 0.98901 0.0
C425 C 0.16942 0.8515 0.06622 0.0
C426 C 0.16509 0.87717 0.025 0.0
C427 C 0.19634 0.82393 0.06353 0.0
C428 C 0.22013 0.82124 0.0198 0.0
H429 H 0.15054 0.85127 0.09935 0.0
H430 H 0.19715 0.80341 0.09465 0.0
S431 S 0.22464 0.88604 0.90646 0.0
N432 N 0.18981 0.90107 0.9424 0.0
N433 N 0.24101 0.84973 0.93809 0.0
C434 C 0.21794 0.84848 0.98035 0.0
C435 C 0.19032 0.87634 0.98281 0.0
C436 C 0.65636 0.65813 0.54679 0.0
C437 C 0.65247 0.63689 0.50061 0.0
C438 C 0.68446 0.68452 0.5514 0.0
C439 C 0.70961 0.69064 0.51 0.0
H440 H 0.63759 0.65435 0.57963 0.0
H441 H 0.68649 0.7003 0.58756 0.0
S442 S 0.71339 0.64037 0.38264 0.0
N443 N 0.67762 0.62263 0.41377 0.0
N444 N 0.73011 0.67202 0.42267 0.0
C445 C 0.70623 0.6694 0.46391 0.0
C446 C 0.67777 0.64261 0.45916 0.0
C447 C 0.32275 0.64927 0.4924 0.0
C448 C 0.34833 0.64424 0.53359 0.0
C449 C 0.29404 0.67476 0.49656 0.0
C450 C 0.28968 0.69661 0.54194 0.0
H451 H 0.32509 0.63369 0.45614 0.0
H452 H 0.27537 0.67776 0.46342 0.0
S453 S 0.34778 0.6927 0.6626 0.0
N454 N 0.36611 0.66173 0.6228 0.0
N455 N 0.3125 0.71045 0.6301 0.0
C456 C 0.31411 0.69092 0.58443 0.0
C457 C 0.34333 0.66458 0.58036 0.0
C458 C 0.34651 0.33568 0.55456 0.0
C459 C 0.37129 0.34045 0.51239 0.0
C460 C 0.32263 0.30544 0.5563 0.0
C461 C 0.32291 0.2786 0.51626 0.0
H462 H 0.34424 0.35632 0.58523 0.0
H463 H 0.3026 0.3041 0.58795 0.0
S464 S 0.38703 0.27503 0.4022 0.0
N465 N 0.39759 0.31374 0.43278 0.0
N466 N 0.35334 0.25632 0.43688 0.0
C467 C 0.34929 0.28175 0.47579 0.0
C468 C 0.37333 0.31279 0.47366 0.0
C469 C 0.67044 0.356 0.55318 0.0
C470 C 0.64424 0.35339 0.51242 0.0
C471 C 0.70142 0.33284 0.55419 0.0
C472 C 0.70705 0.30612 0.5147 0.0
H473 H 0.66714 0.37627 0.58417 0.0
H474 H 0.7211 0.33585 0.58606 0.0
S475 S 0.64396 0.28543 0.40324 0.0
N476 N 0.62445 0.3204 0.43402 0.0
N477 N 0.6822 0.27663 0.43621 0.0
C478 C 0.68056 0.30284 0.47443 0.0
C479 C 0.64926 0.32651 0.47325 0.0
C480 C 0.05641 0.12354 0.18334 0.0
C481 C 0.02879 0.09661 0.18644 0.0
C482 C 0.07545 0.13477 0.2287 0.0
C483 C 0.06749 0.11923 0.27842 0.0
H484 H 0.0626 0.13667 0.14595 0.0
H485 H 0.09596 0.15627 0.225 0.0
S486 S 0.00069 0.04408 0.3052 0.0
N487 N 0.99619 0.05263 0.24144 0.0
N488 N 0.03235 0.07301 0.32673 0.0
C489 C 0.04062 0.09135 0.28139 0.0
C490 C 0.02116 0.0802 0.23533 0.0
C491 C 0.89454 0.05635 0.18888 0.0
C492 C 0.90833 0.02035 0.19445 0.0
C493 C 0.88378 0.077 0.23313 0.0
C494 C 0.88667 0.06245 0.28459 0.0
H495 H 0.89093 0.06824 0.15002 0.0
H496 H 0.87214 0.10413 0.22681 0.0
S497 S 0.92543 0.97114 0.32071 0.0
N498 N 0.92669 0.97199 0.25555 0.0
N499 N 0.9079 0.01112 0.33859 0.0
C500 C 0.90192 0.02702 0.29067 0.0
C501 C 0.91234 0.00589 0.24568 0.0
C502 C 0.99222 0.90848 0.23391 0.0
C503 C 0.98371 0.89457 0.18372 0.0
C504 C 0.97516 0.89442 0.27911 0.0
C505 C 0.94908 0.86582 0.27576 0.0
H506 H 0.01229 0.93037 0.23826 0.0
H507 H 0.98245 0.90612 0.31703 0.0
S508 S 0.92108 0.817 0.15354 0.0
N509 N 0.95031 0.84885 0.13309 0.0
N510 N 0.91767 0.82238 0.21814 0.0
C511 C 0.94074 0.85137 0.22561 0.0
C512 C 0.95824 0.86576 0.17952 0.0
C513 C 0.1077 0.94205 0.20008 0.0
C514 C 0.10496 0.98066 0.20304 0.0
C515 C 0.11428 0.92054 0.24513 0.0
C516 C 0.1188 0.93692 0.29489 0.0
H517 H 0.1048 0.92816 0.16276 0.0
H518 H 0.11519 0.89086 0.24111 0.0
S519 S 0.12043 0.03698 0.32344 0.0
N520 N 0.11123 0.03451 0.25967 0.0
N521 N 0.12439 0.99402 0.34398 0.0
C522 C 0.11814 0.97553 0.2982 0.0
C523 C 0.11122 0.99743 0.25239 0.0
C524 C 0.13294 0.97647 0.83213 0.0
C525 C 0.09903 0.99228 0.84657 0.0
C526 C 0.1352 0.95045 0.79162 0.0
C527 C 0.10362 0.93906 0.76394 0.0
H528 H 0.15814 0.98438 0.85204 0.0
H529 H 0.16208 0.93971 0.7812 0.0
S530 S 0.00767 0.96928 0.78943 0.0
N531 N 0.03271 0.99292 0.83198 0.0
N532 N 0.03712 0.94402 0.75548 0.0
C533 C 0.06941 0.95418 0.77835 0.0
C534 C 0.06707 0.98077 0.81972 0.0
C535 C 0.05141 0.12419 0.84499 0.0
C536 C 0.02155 0.09965 0.84034 0.0
C537 C 0.07237 0.13445 0.8009 0.0
C538 C 0.06418 0.12061 0.75046 0.0
H539 H 0.05862 0.13578 0.88297 0.0
H540 H 0.09461 0.15399 0.80618 0.0
S541 S 0.99004 0.05436 0.71692 0.0
N542 N 0.98533 0.06134 0.78098 0.0
N543 N 0.02557 0.07964 0.69861 0.0
C544 C 0.035 0.09539 0.74537 0.0
C545 C 0.01348 0.08515 0.79014 0.0
C546 C 0.90234 0.01095 0.80492 0.0
C547 C 0.88254 0.01623 0.85205 0.0
C548 C 0.89447 0.03158 0.75964 0.0
C549 C 0.86645 0.05833 0.75947 0.0
H550 H 0.92423 0.99074 0.80284 0.0
H551 H 0.9106 0.02655 0.72441 0.0
S552 S 0.80485 0.08136 0.87167 0.0
N553 N 0.83285 0.04956 0.89547 0.0
N554 N 0.81765 0.08791 0.80977 0.0
C555 C 0.84623 0.06384 0.80621 0.0
C556 C 0.85437 0.0429 0.85259 0.0
C557 C 0.01865 0.86567 0.8077 0.0
C558 C 0.99623 0.8787 0.84903 0.0
C559 C 0.00322 0.85007 0.76216 0.0
C560 C 0.9648 0.84688 0.75635 0.0
H561 H 0.04838 0.86776 0.8103 0.0
H562 H 0.02148 0.84063 0.73116 0.0
S563 S 0.89398 0.8787 0.85134 0.0
N564 N 0.93365 0.88795 0.88031 0.0
N565 N 0.90472 0.85951 0.79442 0.0
C566 C 0.94213 0.85976 0.79726 0.0
C567 C 0.95782 0.8754 0.84369 0.0
C568 C 0.55608 0.62708 0.66581 0.0
C569 C 0.53946 0.59222 0.6629 0.0
C570 C 0.57601 0.63761 0.7109 0.0
C571 C 0.57958 0.61358 0.75434 0.0
H572 H 0.5523 0.64681 0.63409 0.0
H573 H 0.58699 0.66531 0.71291 0.0
S574 S 0.54449 0.518 0.76301 0.0
N575 N 0.5301 0.53287 0.7048 0.0
N576 N 0.56804 0.55227 0.78912 0.0
C577 C 0.56485 0.57792 0.75023 0.0
C578 C 0.54457 0.56735 0.70459 0.0
C579 C 0.39409 0.56288 0.67529 0.0
C580 C 0.38435 0.52613 0.66489 0.0
C581 C 0.38004 0.58172 0.71898 0.0
C582 C 0.35602 0.56429 0.75445 0.0
H583 H 0.41398 0.57688 0.65124 0.0
H584 H 0.3896 0.60949 0.72655 0.0
S585 S 0.31899 0.46949 0.74382 0.0
N586 N 0.34658 0.4739 0.69239 0.0
N587 N 0.32074 0.50932 0.77502 0.0
C588 C 0.34465 0.52814 0.74369 0.0
C589 C 0.35864 0.50906 0.69884 0.0
C590 C 0.44745 0.37258 0.68475 0.0
C591 C 0.46286 0.4073 0.67466 0.0
C592 C 0.42405 0.36718 0.72821 0.0
C593 C 0.41575 0.39634 0.76283 0.0
H594 H 0.45382 0.34949 0.65929 0.0
H595 H 0.41346 0.33979 0.73582 0.0
S596 S 0.44844 0.49274 0.75143 0.0
N597 N 0.46776 0.47128 0.70104 0.0
N598 N 0.42344 0.46145 0.7823 0.0
C599 C 0.43034 0.43139 0.75194 0.0
C600 C 0.45407 0.43678 0.70792 0.0
C601 C 0.57755 0.44758 0.68841 0.0
C602 C 0.6019 0.46027 0.6496 0.0
C603 C 0.59027 0.42738 0.73172 0.0
C604 C 0.62797 0.41947 0.73783 0.0
H605 H 0.54864 0.4547 0.68643 0.0
H606 H 0.57058 0.41882 0.76147 0.0
S607 S 0.70284 0.4463 0.64584 0.0
N608 N 0.66505 0.46322 0.61858 0.0
N609 N 0.6895 0.42536 0.70063 0.0
C610 C 0.65258 0.43129 0.69839 0.0
C611 C 0.63945 0.45193 0.65422 0.0
C612 C 0.61949 0.49522 0.26461 0.0
C613 C 0.61229 0.47584 0.31172 0.0
C614 C 0.6308 0.47682 0.21882 0.0
C615 C 0.6351 0.43832 0.21834 0.0
H616 H 0.6169 0.52494 0.26317 0.0
H617 H 0.63669 0.4929 0.18373 0.0
S618 S 0.61639 0.3744 0.32939 0.0
N619 N 0.60876 0.41571 0.35409 0.0
N620 N 0.62869 0.38117 0.26742 0.0
C621 C 0.62711 0.41852 0.26462 0.0
C622 C 0.61602 0.43725 0.31142 0.0
C623 C 0.49273 0.61655 0.28192 0.0
C624 C 0.50816 0.62294 0.33212 0.0
C625 C 0.51227 0.62475 0.23565 0.0
C626 C 0.54808 0.63951 0.23769 0.0
H627 H 0.46529 0.6051 0.27815 0.0
H628 H 0.49907 0.61971 0.19796 0.0
S629 S 0.60131 0.66091 0.35901 0.0
N630 N 0.5615 0.64519 0.38093 0.0
N631 N 0.59859 0.6593 0.29402 0.0
C632 C 0.5639 0.64592 0.28757 0.0
C633 C 0.54389 0.63793 0.33471 0.0
C634 C 0.3771 0.49315 0.27849 0.0
C635 C 0.38001 0.5107 0.32779 0.0
C636 C 0.36781 0.513 0.23289 0.0
C637 C 0.36114 0.55115 0.23497 0.0
H638 H 0.3818 0.46379 0.27512 0.0
H639 H 0.36561 0.49831 0.19581 0.0
S640 S 0.36607 0.61034 0.3539 0.0
N641 N 0.37524 0.56849 0.37587 0.0
N642 N 0.35926 0.60593 0.28984 0.0
C643 C 0.364 0.56902 0.28395 0.0
C644 C 0.37299 0.54876 0.33044 0.0
C645 C 0.45871 0.36452 0.31463 0.0
C646 C 0.48111 0.39547 0.32385 0.0
C647 C 0.43385 0.36366 0.27244 0.0
C648 C 0.43028 0.39375 0.23777 0.0
H649 H 0.46048 0.3405 0.33997 0.0
H650 H 0.41791 0.33882 0.26626 0.0
S651 S 0.48026 0.4827 0.24689 0.0
N652 N 0.49674 0.45784 0.29621 0.0
N653 N 0.44975 0.45623 0.21701 0.0
C654 C 0.45199 0.4252 0.24699 0.0
C655 C 0.47743 0.42607 0.28998 0.0
loop_
_geom_bond_atom_site_label_1
_geom_bond_atom_site_label_2
_geom_bond_distance
_geom_bond_site_symmetry_2
_ccdc_geom_bond_type
Zn0 O2 1.933 1_556 S
Zn0 O20 1.985 . S
Zn0 O31 1.955 . S
Zn1 O2 1.911 . S
Zn1 O21 1.970 . S
Zn1 O37 1.945 . S
Zn1 O44 1.981 . S
O2 Zn0 1.933 1_554 S
O2 Zn1 1.911 . S
O2 H3 0.841 1_655 S
H3 O2 0.841 1_455 S
C4 O5 1.246 . S
C4 O33 1.276 1_545 S
O5 C4 1.246 . S
Zn6 O8 1.911 . S
Zn6 O23 1.970 . S
Zn6 O40 1.945 . S
Zn6 O47 1.981 . S
Zn7 O8 1.933 1_556 S
Zn7 O22 1.985 . S
Zn7 O29 1.955 . S
O8 Zn6 1.911 . S
O8 Zn7 1.933 1_554 S
O8 H9 0.841 1_455 S
H9 O8 0.841 1_655 S
Zn10 O11 1.933 1_556 S
Zn10 O24 1.985 . S
Zn10 O33 1.955 . S
O11 Zn10 1.933 1_554 S
O11 Zn12 1.911 . S
O11 H13 0.841 1_565 S
Zn12 O11 1.911 . S
Zn12 O25 1.970 . S
Zn12 O41 1.981 . S
Zn12 O43 1.945 . S
H13 O11 0.841 1_545 S
Zn14 O15 1.933 1_556 S
Zn14 O27 1.985 . S
Zn14 O35 1.955 . S
O15 Zn14 1.933 1_554 S
O15 H16 0.841 1_545 S
O15 Zn17 1.911 . S
H16 O15 0.841 1_565 S
Zn17 O15 1.911 . S
Zn17 O28 1.970 . S
Zn17 O38 1.981 . S
Zn17 O46 1.945 . S
C18 O19 1.246 . S
C18 O35 1.276 1_565 S
O19 C18 1.246 . S
O20 Zn0 1.985 . S
O20 C30 1.245 1_556 S
O21 Zn1 1.970 . S
O21 C30 1.263 . S
O22 Zn7 1.985 . S
O22 C34 1.245 1_556 S
O23 Zn6 1.970 . S
O23 C34 1.263 . S
O24 Zn10 1.985 . S
O24 C39 1.245 1_556 S
O25 Zn12 1.970 . S
O25 C39 1.263 . S
C26 O37 1.262 1_455 S
C26 O38 1.245 . S
O27 Zn14 1.985 . S
O27 C45 1.245 1_556 S
O28 Zn17 1.970 . S
O28 C45 1.263 . S
O29 Zn7 1.955 . S
O29 C48 1.276 1_455 S
C30 O20 1.245 1_554 S
C30 O21 1.263 . S
O31 Zn0 1.955 . S
O31 C50 1.276 1_655 S
C32 O40 1.262 1_655 S
C32 O41 1.245 . S
O33 C4 1.276 1_565 S
O33 Zn10 1.955 . S
C34 O22 1.245 1_554 S
C34 O23 1.263 . S
O35 Zn14 1.955 . S
O35 C18 1.276 1_545 S
C36 O43 1.262 1_545 S
C36 O44 1.245 . S
O37 Zn1 1.945 . S
O37 C26 1.262 1_655 S
O38 Zn17 1.981 . S
O38 C26 1.245 . S
C39 O24 1.245 1_554 S
C39 O25 1.263 . S
O40 Zn6 1.945 . S
O40 C32 1.262 1_455 S
O41 Zn12 1.981 . S
O41 C32 1.245 . S
C42 O46 1.262 1_565 S
C42 O47 1.245 . S
O43 Zn12 1.945 . S
O43 C36 1.262 1_565 S
O44 Zn1 1.981 . S
O44 C36 1.245 . S
C45 O27 1.245 1_554 S
C45 O28 1.263 . S
O46 Zn17 1.945 . S
O46 C42 1.262 1_545 S
O47 Zn6 1.981 . S
O47 C42 1.245 . S
C48 O29 1.276 1_655 S
C48 O49 1.246 . S
O49 C48 1.246 . S
C50 O31 1.276 1_455 S
C50 O51 1.246 . S
O51 C50 1.246 . S
Zn52 O54 1.933 . S
Zn52 O72 1.985 . S
Zn52 O83 1.955 . S
Zn53 O54 1.911 . S
Zn53 O73 1.970 . S
Zn53 O89 1.945 . S
Zn53 O96 1.981 . S
O54 Zn52 1.933 . S
O54 Zn53 1.911 . S
O54 H55 0.841 . S
H55 O54 0.841 . S
C56 O57 1.246 . S
C56 O85 1.276 . S
O57 C56 1.246 . S
Zn58 O60 1.911 . S
Zn58 O75 1.970 . S
Zn58 O92 1.945 . S
Zn58 O99 1.981 . S
Zn59 O60 1.933 . S
Zn59 O74 1.985 . S
Zn59 O81 1.955 . S
O60 Zn58 1.911 . S
O60 Zn59 1.933 . S
O60 H61 0.841 . S
H61 O60 0.841 . S
Zn62 O63 1.933 . S
Zn62 O76 1.985 . S
Zn62 O85 1.955 . S
O63 Zn62 1.933 . S
O63 Zn64 1.911 . S
O63 H65 0.841 . S
Zn64 O63 1.911 . S
Zn64 O77 1.970 . S
Zn64 O93 1.981 . S
Zn64 O95 1.945 . S
H65 O63 0.841 . S
Zn66 O67 1.933 . S
Zn66 O79 1.985 . S
Zn66 O87 1.955 . S
O67 Zn66 1.933 . S
O67 H68 0.841 . S
O67 Zn69 1.911 . S
H68 O67 0.841 . S
Zn69 O67 1.911 . S
Zn69 O80 1.970 . S
Zn69 O90 1.981 . S
Zn69 O98 1.945 . S
C70 O71 1.246 . S
C70 O87 1.276 . S
O71 C70 1.246 . S
O72 Zn52 1.985 . S
O72 C82 1.245 . S
O73 Zn53 1.970 . S
O73 C82 1.263 . S
O74 Zn59 1.985 . S
O74 C86 1.245 . S
O75 Zn58 1.970 . S
O75 C86 1.263 . S
O76 Zn62 1.985 . S
O76 C91 1.245 . S
O77 Zn64 1.970 . S
O77 C91 1.263 . S
C78 O89 1.262 . S
C78 O90 1.245 . S
O79 Zn66 1.985 . S
O79 C97 1.245 . S
O80 Zn69 1.970 . S
O80 C97 1.263 . S
O81 Zn59 1.955 . S
O81 C100 1.276 . S
C82 O72 1.245 . S
C82 O73 1.263 . S
O83 Zn52 1.955 . S
O83 C102 1.276 . S
C84 O92 1.262 . S
C84 O93 1.245 . S
O85 C56 1.276 . S
O85 Zn62 1.955 . S
C86 O74 1.245 . S
C86 O75 1.263 . S
O87 Zn66 1.955 . S
O87 C70 1.276 . S
C88 O95 1.262 . S
C88 O96 1.245 . S
O89 Zn53 1.945 . S
O89 C78 1.262 . S
O90 Zn69 1.981 . S
O90 C78 1.245 . S
C91 O76 1.245 . S
C91 O77 1.263 . S
O92 Zn58 1.945 . S
O92 C84 1.262 . S
O93 Zn64 1.981 . S
O93 C84 1.245 . S
C94 O98 1.262 . S
C94 O99 1.245 . S
O95 Zn64 1.945 . S
O95 C88 1.262 . S
O96 Zn53 1.981 . S
O96 C88 1.245 . S
C97 O79 1.245 . S
C97 O80 1.263 . S
O98 Zn69 1.945 . S
O98 C94 1.262 . S
O99 Zn58 1.981 . S
O99 C94 1.245 . S
C100 O81 1.276 . S
C100 O101 1.246 . S
O101 C100 1.246 . S
C102 O83 1.276 . S
C102 O103 1.246 . S
O103 C102 1.246 . S
C104 C105 1.384 . S
C104 H117 0.947 . S
C104 C139 1.382 . S
C105 C104 1.384 . S
C105 C106 1.378 . S
C106 C105 1.378 . S
C106 C107 1.378 . S
C106 H118 0.952 . S
C107 C106 1.378 . S
C107 H119 0.950 . S
C107 C138 1.383 . S
H108 C127 0.947 . S
H109 C128 0.946 . S
H110 C130 0.953 . S
H111 C131 0.945 . S
H112 C133 0.952 . S
H113 C134 0.949 . S
H114 C136 0.950 . S
H115 C137 0.948 . S
H116 C139 0.951 . S
H117 C104 0.947 . S
H118 C106 0.952 . S
H119 C107 0.950 . S
N120 C123 1.382 . S
N120 C125 1.363 . S
N121 C123 1.371 1_556 S
N121 C124 1.372 . S
N122 C124 1.361 1_554 S
N122 C125 1.377 . S
C123 N120 1.382 . S
C123 N121 1.371 1_554 S
C123 C126 1.480 . S
C124 N121 1.372 . S
C124 N122 1.361 1_556 S
C124 C132 1.457 . S
C125 N120 1.363 . S
C125 N122 1.377 . S
C125 C138 1.479 . S
C126 C123 1.480 . S
C126 C127 1.383 . S
C126 C131 1.385 1_554 S
C127 H108 0.947 . S
C127 C126 1.383 . S
C127 C128 1.388 . S
C128 H109 0.946 . S
C128 C127 1.388 . S
C128 C129 1.384 . S
C129 C128 1.384 . S
C129 C130 1.377 1_554 S
C130 H110 0.953 . S
C130 C129 1.377 1_556 S
C130 C131 1.369 . S
C131 H111 0.945 . S
C131 C126 1.385 1_556 S
C131 C130 1.369 . S
C132 C124 1.457 . S
C132 C133 1.372 . S
C132 C137 1.364 . S
C133 H112 0.952 . S
C133 C132 1.372 . S
C133 C134 1.389 . S
C134 H113 0.949 . S
C134 C133 1.389 . S
C134 C135 1.387 . S
C135 C134 1.387 . S
C135 C136 1.372 . S
C136 H114 0.950 . S
C136 C135 1.372 . S
C136 C137 1.379 . S
C137 H115 0.948 . S
C137 C132 1.364 . S
C137 C136 1.379 . S
C138 C107 1.383 . S
C138 C125 1.479 . S
C138 C139 1.398 . S
C139 C104 1.382 . S
C139 H116 0.951 . S
C139 C138 1.398 . S
C140 C141 1.384 . S
C140 H153 0.947 . S
C140 C175 1.382 . S
C141 C140 1.384 . S
C141 C142 1.378 . S
C142 C141 1.378 . S
C142 C143 1.378 . S
C142 H154 0.952 . S
C143 C142 1.378 . S
C143 H155 0.950 . S
C143 C174 1.383 . S
H144 C163 0.947 . S
H145 C164 0.946 . S
H146 C166 0.953 . S
H147 C167 0.945 . S
H148 C169 0.952 . S
H149 C170 0.949 . S
H150 C172 0.950 . S
H151 C173 0.948 . S
H152 C175 0.951 . S
H153 C140 0.947 . S
H154 C142 0.952 . S
H155 C143 0.950 . S
N156 C159 1.382 . S
N156 C161 1.363 . S
N157 C159 1.371 1_556 S
N157 C160 1.372 . S
N158 C160 1.361 1_554 S
N158 C161 1.377 . S
C159 N156 1.382 . S
C159 N157 1.371 1_554 S
C159 C162 1.480 . S
C160 N157 1.372 . S
C160 N158 1.361 1_556 S
C160 C168 1.457 . S
C161 N156 1.363 . S
C161 N158 1.377 . S
C161 C174 1.479 . S
C162 C159 1.480 . S
C162 C163 1.383 . S
C162 C167 1.385 1_554 S
C163 H144 0.947 . S
C163 C162 1.383 . S
C163 C164 1.388 . S
C164 H145 0.946 . S
C164 C163 1.388 . S
C164 C165 1.384 . S
C165 C164 1.384 . S
C165 C166 1.377 1_554 S
C166 H146 0.953 . S
C166 C165 1.377 1_556 S
C166 C167 1.369 . S
C167 H147 0.945 . S
C167 C162 1.385 1_556 S
C167 C166 1.369 . S
C168 C160 1.457 . S
C168 C169 1.372 . S
C168 C173 1.364 . S
C169 H148 0.952 . S
C169 C168 1.372 . S
C169 C170 1.389 . S
C170 H149 0.949 . S
C170 C169 1.389 . S
C170 C171 1.387 . S
C171 C170 1.387 . S
C171 C172 1.372 . S
C172 H150 0.950 . S
C172 C171 1.372 . S
C172 C173 1.379 . S
C173 H151 0.948 . S
C173 C168 1.364 . S
C173 C172 1.379 . S
C174 C143 1.383 . S
C174 C161 1.479 . S
C174 C175 1.398 . S
C175 C140 1.382 . S
C175 H152 0.951 . S
C175 C174 1.398 . S
C176 C177 1.384 . S
C176 H189 0.947 . S
C176 C211 1.382 . S
C177 C176 1.384 . S
C177 C178 1.378 . S
C178 C177 1.378 . S
C178 C179 1.378 . S
C178 H190 0.952 . S
C179 C178 1.378 . S
C179 H191 0.950 . S
C179 C210 1.383 . S
H180 C199 0.947 . S
H181 C200 0.946 . S
H182 C202 0.953 . S
H183 C203 0.945 . S
H184 C205 0.952 . S
H185 C206 0.949 . S
H186 C208 0.950 . S
H187 C209 0.948 . S
H188 C211 0.951 . S
H189 C176 0.947 . S
H190 C178 0.952 . S
H191 C179 0.950 . S
N192 C195 1.382 1_556 S
N192 C197 1.363 . S
N193 C195 1.371 . S
N193 C196 1.372 . S
N194 C196 1.361 . S
N194 C197 1.377 1_554 S
C195 N192 1.382 1_554 S
C195 N193 1.371 . S
C195 C198 1.480 . S
C196 N193 1.372 . S
C196 N194 1.361 . S
C196 C204 1.457 . S
C197 N192 1.363 . S
C197 N194 1.377 1_556 S
C197 C210 1.479 . S
C198 C195 1.480 . S
C198 C199 1.383 1_554 S
C198 C203 1.385 . S
C199 H180 0.947 . S
C199 C198 1.383 1_556 S
C199 C200 1.388 . S
C200 H181 0.946 . S
C200 C199 1.388 . S
C200 C201 1.384 1_556 S
C201 C200 1.384 1_554 S
C201 C202 1.377 . S
C202 H182 0.953 . S
C202 C201 1.377 . S
C202 C203 1.369 . S
C203 H183 0.945 . S
C203 C198 1.385 . S
C203 C202 1.369 . S
C204 C196 1.457 . S
C204 C205 1.372 . S
C204 C209 1.364 . S
C205 H184 0.952 . S
C205 C204 1.372 . S
C205 C206 1.389 . S
C206 H185 0.949 . S
C206 C205 1.389 . S
C206 C207 1.387 . S
C207 C206 1.387 . S
C207 C208 1.372 . S
C208 H186 0.950 . S
C208 C207 1.372 . S
C208 C209 1.379 . S
C209 H187 0.948 . S
C209 C204 1.364 . S
C209 C208 1.379 . S
C210 C179 1.383 . S
C210 C197 1.479 . S
C210 C211 1.398 . S
C211 C176 1.382 . S
C211 H188 0.951 . S
C211 C210 1.398 . S
C212 C213 1.384 . S
C212 H225 0.947 . S
C212 C247 1.382 . S
C213 C212 1.384 . S
C213 C214 1.378 . S
C214 C213 1.378 . S
C214 C215 1.378 . S
C214 H226 0.952 . S
C215 C214 1.378 . S
C215 H227 0.950 . S
C215 C246 1.383 . S
H216 C235 0.947 . S
H217 C236 0.946 . S
H218 C238 0.953 . S
H219 C239 0.945 . S
H220 C241 0.952 . S
H221 C242 0.949 . S
H222 C244 0.950 . S
H223 C245 0.948 . S
H224 C247 0.951 . S
H225 C212 0.947 . S
H226 C214 0.952 . S
H227 C215 0.950 . S
N228 C231 1.382 1_556 S
N228 C233 1.363 . S
N229 C231 1.371 . S
N229 C232 1.372 . S
N230 C232 1.361 . S
N230 C233 1.377 1_554 S
C231 N228 1.382 1_554 S
C231 N229 1.371 . S
C231 C234 1.480 . S
C232 N229 1.372 . S
C232 N230 1.361 . S
C232 C240 1.457 . S
C233 N228 1.363 . S
C233 N230 1.377 1_556 S
C233 C246 1.479 . S
C234 C231 1.480 . S
C234 C235 1.383 1_554 S
C234 C239 1.385 . S
C235 H216 0.947 . S
C235 C234 1.383 1_556 S
C235 C236 1.388 . S
C236 H217 0.946 . S
C236 C235 1.388 . S
C236 C237 1.384 1_556 S
C237 C236 1.384 1_554 S
C237 C238 1.377 . S
C238 H218 0.953 . S
C238 C237 1.377 . S
C238 C239 1.369 . S
C239 H219 0.945 . S
C239 C234 1.385 . S
C239 C238 1.369 . S
C240 C232 1.457 . S
C240 C241 1.372 . S
C240 C245 1.364 . S
C241 H220 0.952 . S
C241 C240 1.372 . S
C241 C242 1.389 . S
C242 H221 0.949 . S
C242 C241 1.389 . S
C242 C243 1.387 . S
C243 C242 1.387 . S
C243 C244 1.372 . S
C244 H222 0.950 . S
C244 C243 1.372 . S
C244 C245 1.379 . S
C245 H223 0.948 . S
C245 C240 1.364 . S
C245 C244 1.379 . S
C246 C215 1.383 . S
C246 C233 1.479 . S
C246 C247 1.398 . S
C247 C212 1.382 . S
C247 H224 0.951 . S
C247 C246 1.398 . S
C248 C249 1.384 . S
C248 H261 0.947 . S
C248 C283 1.382 . S
C249 C248 1.384 . S
C249 C250 1.378 . S
C250 C249 1.378 . S
C250 C251 1.378 . S
C250 H262 0.952 . S
C251 C250 1.378 . S
C251 H263 0.950 . S
C251 C282 1.383 . S
H252 C271 0.947 . S
H253 C272 0.946 . S
H254 C274 0.953 . S
H255 C275 0.945 . S
H256 C277 0.952 . S
H257 C278 0.949 . S
H258 C280 0.950 . S
H259 C281 0.948 . S
H260 C283 0.951 . S
H261 C248 0.947 . S
H262 C250 0.952 . S
H263 C251 0.950 . S
N264 C267 1.382 . S
N264 C269 1.363 . S
N265 C267 1.371 . S
N265 C268 1.372 . S
N266 C268 1.361 . S
N266 C269 1.377 . S
C267 N264 1.382 . S
C267 N265 1.371 . S
C267 C270 1.480 . S
C268 N265 1.372 . S
C268 N266 1.361 . S
C268 C276 1.457 . S
C269 N264 1.363 . S
C269 N266 1.377 . S
C269 C282 1.479 . S
C270 C267 1.480 . S
C270 C271 1.383 . S
C270 C275 1.385 . S
C271 H252 0.947 . S
C271 C270 1.383 . S
C271 C272 1.388 . S
C272 H253 0.946 . S
C272 C271 1.388 . S
C272 C273 1.384 . S
C273 C272 1.384 . S
C273 C274 1.377 . S
C274 H254 0.953 . S
C274 C273 1.377 . S
C274 C275 1.369 . S
C275 H255 0.945 . S
C275 C270 1.385 . S
C275 C274 1.369 . S
C276 C268 1.457 . S
C276 C277 1.372 . S
C276 C281 1.364 . S
C277 H256 0.952 . S
C277 C276 1.372 . S
C277 C278 1.389 . S
C278 H257 0.949 . S
C278 C277 1.389 . S
C278 C279 1.387 . S
C279 C278 1.387 . S
C279 C280 1.372 . S
C280 H258 0.950 . S
C280 C279 1.372 . S
C280 C281 1.379 . S
C281 H259 0.948 . S
C281 C276 1.364 . S
C281 C280 1.379 . S
C282 C251 1.383 . S
C282 C269 1.479 . S
C282 C283 1.398 . S
C283 C248 1.382 . S
C283 H260 0.951 . S
C283 C282 1.398 . S
C284 C285 1.384 . S
C284 H297 0.947 . S
C284 C319 1.382 . S
C285 C284 1.384 . S
C285 C286 1.378 . S
C286 C285 1.378 . S
C286 C287 1.378 . S
C286 H298 0.952 . S
C287 C286 1.378 . S
C287 H299 0.950 . S
C287 C318 1.383 . S
H288 C307 0.947 . S
H289 C308 0.946 . S
H290 C310 0.953 . S
H291 C311 0.945 . S
H292 C313 0.952 . S
H293 C314 0.949 . S
H294 C316 0.950 . S
H295 C317 0.948 . S
H296 C319 0.951 . S
H297 C284 0.947 . S
H298 C286 0.952 . S
H299 C287 0.950 . S
N300 C303 1.382 . S
N300 C305 1.363 . S
N301 C303 1.371 . S
N301 C304 1.372 . S
N302 C304 1.361 . S
N302 C305 1.377 . S
C303 N300 1.382 . S
C303 N301 1.371 . S
C303 C306 1.480 . S
C304 N301 1.372 . S
C304 N302 1.361 . S
C304 C312 1.457 . S
C305 N300 1.363 . S
C305 N302 1.377 . S
C305 C318 1.479 . S
C306 C303 1.480 . S
C306 C307 1.383 . S
C306 C311 1.385 . S
C307 H288 0.947 . S
C307 C306 1.383 . S
C307 C308 1.388 . S
C308 H289 0.946 . S
C308 C307 1.388 . S
C308 C309 1.384 . S
C309 C308 1.384 . S
C309 C310 1.377 . S
C310 H290 0.953 . S
C310 C309 1.377 . S
C310 C311 1.369 . S
C311 H291 0.945 . S
C311 C306 1.385 . S
C311 C310 1.369 . S
C312 C304 1.457 . S
C312 C313 1.372 . S
C312 C317 1.364 . S
C313 H292 0.952 . S
C313 C312 1.372 . S
C313 C314 1.389 . S
C314 H293 0.949 . S
C314 C313 1.389 . S
C314 C315 1.387 . S
C315 C314 1.387 . S
C315 C316 1.372 . S
C316 H294 0.950 . S
C316 C315 1.372 . S
C316 C317 1.379 . S
C317 H295 0.948 . S
C317 C312 1.364 . S
C317 C316 1.379 . S
C318 C287 1.383 . S
C318 C305 1.479 . S
C318 C319 1.398 . S
C319 C284 1.382 . S
C319 H296 0.951 . S
C319 C318 1.398 . S
C320 C321 1.384 . S
C320 H333 0.947 . S
C320 C355 1.382 . S
C321 C320 1.384 . S
C321 C322 1.378 . S
C322 C321 1.378 . S
C322 C323 1.378 . S
C322 H334 0.952 . S
C323 C322 1.378 . S
C323 H335 0.950 . S
C323 C354 1.383 . S
H324 C343 0.947 . S
H325 C344 0.946 . S
H326 C346 0.953 . S
H327 C347 0.945 . S
H328 C349 0.952 . S
H329 C350 0.949 . S
H330 C352 0.950 . S
H331 C353 0.948 . S
H332 C355 0.951 . S
H333 C320 0.947 . S
H334 C322 0.952 . S
H335 C323 0.950 . S
N336 C339 1.382 . S
N336 C341 1.363 . S
N337 C339 1.371 . S
N337 C340 1.372 . S
N338 C340 1.361 . S
N338 C341 1.377 . S
C339 N336 1.382 . S
C339 N337 1.371 . S
C339 C342 1.480 . S
C340 N337 1.372 . S
C340 N338 1.361 . S
C340 C348 1.457 . S
C341 N336 1.363 . S
C341 N338 1.377 . S
C341 C354 1.479 . S
C342 C339 1.480 . S
C342 C343 1.383 . S
C342 C347 1.385 . S
C343 H324 0.947 . S
C343 C342 1.383 . S
C343 C344 1.388 . S
C344 H325 0.946 . S
C344 C343 1.388 . S
C344 C345 1.384 . S
C345 C344 1.384 . S
C345 C346 1.377 . S
C346 H326 0.953 . S
C346 C345 1.377 . S
C346 C347 1.369 . S
C347 H327 0.945 . S
C347 C342 1.385 . S
C347 C346 1.369 . S
C348 C340 1.457 . S
C348 C349 1.372 . S
C348 C353 1.364 . S
C349 H328 0.952 . S
C349 C348 1.372 . S
C349 C350 1.389 . S
C350 H329 0.949 . S
C350 C349 1.389 . S
C350 C351 1.387 . S
C351 C350 1.387 . S
C351 C352 1.372 . S
C352 H330 0.950 . S
C352 C351 1.372 . S
C352 C353 1.379 . S
C353 H331 0.948 . S
C353 C348 1.364 . S
C353 C352 1.379 . S
C354 C323 1.383 . S
C354 C341 1.479 . S
C354 C355 1.398 . S
C355 C320 1.382 . S
C355 H332 0.951 . S
C355 C354 1.398 . S
C356 C357 1.384 . S
C356 H369 0.947 . S
C356 C391 1.382 . S
C357 C356 1.384 . S
C357 C358 1.378 . S
C358 C357 1.378 . S
C358 C359 1.378 . S
C358 H370 0.952 . S
C359 C358 1.378 . S
C359 H371 0.950 . S
C359 C390 1.383 . S
H360 C379 0.947 . S
H361 C380 0.946 . S
H362 C382 0.953 . S
H363 C383 0.945 . S
H364 C385 0.952 . S
H365 C386 0.949 . S
H366 C388 0.950 . S
H367 C389 0.948 . S
H368 C391 0.951 . S
H369 C356 0.947 . S
H370 C358 0.952 . S
H371 C359 0.950 . S
N372 C375 1.382 . S
N372 C377 1.363 . S
N373 C375 1.371 . S
N373 C376 1.372 . S
N374 C376 1.361 . S
N374 C377 1.377 . S
C375 N372 1.382 . S
C375 N373 1.371 . S
C375 C378 1.480 . S
C376 N373 1.372 . S
C376 N374 1.361 . S
C376 C384 1.457 . S
C377 N372 1.363 . S
C377 N374 1.377 . S
C377 C390 1.479 . S
C378 C375 1.480 . S
C378 C379 1.383 . S
C378 C383 1.385 . S
C379 H360 0.947 . S
C379 C378 1.383 . S
C379 C380 1.388 . S
C380 H361 0.946 . S
C380 C379 1.388 . S
C380 C381 1.384 . S
C381 C380 1.384 . S
C381 C382 1.377 . S
C382 H362 0.953 . S
C382 C381 1.377 . S
C382 C383 1.369 . S
C383 H363 0.945 . S
C383 C378 1.385 . S
C383 C382 1.369 . S
C384 C376 1.457 . S
C384 C385 1.372 . S
C384 C389 1.364 . S
C385 H364 0.952 . S
C385 C384 1.372 . S
C385 C386 1.389 . S
C386 H365 0.949 . S
C386 C385 1.389 . S
C386 C387 1.387 . S
C387 C386 1.387 . S
C387 C388 1.372 . S
C388 H366 0.950 . S
C388 C387 1.372 . S
C388 C389 1.379 . S
C389 H367 0.948 . S
C389 C384 1.364 . S
C389 C388 1.379 . S
C390 C359 1.383 . S
C390 C377 1.479 . S
C390 C391 1.398 . S
C391 C356 1.382 . S
C391 H368 0.951 . S
C391 C390 1.398 . S
C392 C393 1.369 . S
C392 C394 1.419 . S
C392 H396 0.930 . S
C393 C392 1.369 . S
C393 C402 1.429 . S
C394 C392 1.419 . S
C394 C395 1.363 . S
C394 H397 0.929 . S
C395 C394 1.363 . S
C395 C401 1.428 . S
H396 C392 0.930 . S
H397 C394 0.929 . S
S398 N399 1.613 . S
S398 N400 1.610 . S
N399 S398 1.613 . S
N399 C402 1.350 1_556 S
N400 S398 1.610 . S
N400 C401 1.351 1_556 S
C401 C395 1.428 . S
C401 N400 1.351 1_554 S
C401 C402 1.434 . S
C402 C393 1.429 . S
C402 N399 1.350 1_554 S
C402 C401 1.434 . S
C403 C404 1.369 . S
C403 C405 1.419 . S
C403 H407 0.930 . S
C404 C403 1.369 . S
C404 C413 1.429 . S
C405 C403 1.419 . S
C405 C406 1.363 . S
C405 H408 0.929 . S
C406 C405 1.363 . S
C406 C412 1.428 . S
H407 C403 0.930 . S
H408 C405 0.929 . S
S409 N410 1.613 . S
S409 N411 1.610 . S
N410 S409 1.613 . S
N410 C413 1.350 . S
N411 S409 1.610 . S
N411 C412 1.351 . S
C412 C406 1.428 . S
C412 N411 1.351 . S
C412 C413 1.434 . S
C413 C404 1.429 . S
C413 N410 1.350 . S
C413 C412 1.434 . S
C414 C415 1.369 . S
C414 C416 1.419 . S
C414 H418 0.930 . S
C415 C414 1.369 . S
C415 C424 1.429 . S
C416 C414 1.419 . S
C416 C417 1.363 . S
C416 H419 0.929 . S
C417 C416 1.363 . S
C417 C423 1.428 . S
H418 C414 0.930 . S
H419 C416 0.929 . S
S420 N421 1.613 . S
S420 N422 1.610 . S
N421 S420 1.613 . S
N421 C424 1.350 1_556 S
N422 S420 1.610 . S
N422 C423 1.351 1_556 S
C423 C417 1.428 . S
C423 N422 1.351 1_554 S
C423 C424 1.434 . S
C424 C415 1.429 . S
C424 N421 1.350 1_554 S
C424 C423 1.434 . S
C425 C426 1.369 . S
C425 C427 1.419 . S
C425 H429 0.930 . S
C426 C425 1.369 . S
C426 C435 1.429 1_554 S
C427 C425 1.419 . S
C427 C428 1.363 . S
C427 H430 0.929 . S
C428 C427 1.363 . S
C428 C434 1.428 1_554 S
H429 C425 0.930 . S
H430 C427 0.929 . S
S431 N432 1.613 . S
S431 N433 1.610 . S
N432 S431 1.613 . S
N432 C435 1.350 . S
N433 S431 1.610 . S
N433 C434 1.351 . S
C434 C428 1.428 1_556 S
C434 N433 1.351 . S
C434 C435 1.434 . S
C435 C426 1.429 1_556 S
C435 N432 1.350 . S
C435 C434 1.434 . S
C436 C437 1.369 . S
C436 C438 1.419 . S
C436 H440 0.930 . S
C437 C436 1.369 . S
C437 C446 1.429 . S
C438 C436 1.419 . S
C438 C439 1.363 . S
C438 H441 0.929 . S
C439 C438 1.363 . S
C439 C445 1.428 . S
H440 C436 0.930 . S
H441 C438 0.929 . S
S442 N443 1.613 . S
S442 N444 1.610 . S
N443 S442 1.613 . S
N443 C446 1.350 . S
N444 S442 1.610 . S
N444 C445 1.351 . S
C445 C439 1.428 . S
C445 N444 1.351 . S
C445 C446 1.434 . S
C446 C437 1.429 . S
C446 N443 1.350 . S
C446 C445 1.434 . S
C447 C448 1.369 . S
C447 C449 1.419 . S
C447 H451 0.930 . S
C448 C447 1.369 . S
C448 C457 1.429 . S
C449 C447 1.419 . S
C449 C450 1.363 . S
C449 H452 0.929 . S
C450 C449 1.363 . S
C450 C456 1.428 . S
H451 C447 0.930 . S
H452 C449 0.929 . S
S453 N454 1.613 . S
S453 N455 1.610 . S
N454 S453 1.613 . S
N454 C457 1.350 . S
N455 S453 1.610 . S
N455 C456 1.351 . S
C456 C450 1.428 . S
C456 N455 1.351 . S
C456 C457 1.434 . S
C457 C448 1.429 . S
C457 N454 1.350 . S
C457 C456 1.434 . S
C458 C459 1.369 . S
C458 C460 1.419 . S
C458 H462 0.930 . S
C459 C458 1.369 . S
C459 C468 1.429 . S
C460 C458 1.419 . S
C460 C461 1.363 . S
C460 H463 0.929 . S
C461 C460 1.363 . S
C461 C467 1.428 . S
H462 C458 0.930 . S
H463 C460 0.929 . S
S464 N465 1.613 . S
S464 N466 1.610 . S
N465 S464 1.613 . S
N465 C468 1.350 . S
N466 S464 1.610 . S
N466 C467 1.351 . S
C467 C461 1.428 . S
C467 N466 1.351 . S
C467 C468 1.434 . S
C468 C459 1.429 . S
C468 N465 1.350 . S
C468 C467 1.434 . S
C469 C470 1.369 . S
C469 C471 1.419 . S
C469 H473 0.930 . S
C470 C469 1.369 . S
C470 C479 1.429 . S
C471 C469 1.419 . S
C471 C472 1.363 . S
C471 H474 0.929 . S
C472 C471 1.363 . S
C472 C478 1.428 . S
H473 C469 0.930 . S
H474 C471 0.929 . S
S475 N476 1.613 . S
S475 N477 1.610 . S
N476 S475 1.613 . S
N476 C479 1.350 . S
N477 S475 1.610 . S
N477 C478 1.351 . S
C478 C472 1.428 . S
C478 N477 1.351 . S
C478 C479 1.434 . S
C479 C470 1.429 . S
C479 N476 1.350 . S
C479 C478 1.434 . S
C480 C481 1.369 . S
C480 C482 1.419 . S
C480 H484 0.930 . S
C481 C480 1.369 . S
C481 C490 1.429 . S
C482 C480 1.419 . S
C482 C483 1.363 . S
C482 H485 0.929 . S
C483 C482 1.363 . S
C483 C489 1.428 . S
H484 C480 0.930 . S
H485 C482 0.929 . S
S486 N487 1.612 1_655 S
S486 N488 1.610 1_655 S
N487 S486 1.612 1_455 S
N487 C490 1.352 . S
N488 S486 1.610 1_455 S
N488 C489 1.351 . S
C489 C483 1.428 . S
C489 N488 1.351 . S
C489 C490 1.434 . S
C490 C481 1.429 . S
C490 N487 1.352 . S
C490 C489 1.434 . S
C491 C492 1.369 . S
C491 C493 1.419 . S
C491 H495 0.930 . S
C492 C491 1.369 . S
C492 C501 1.429 . S
C493 C491 1.419 . S
C493 C494 1.363 . S
C493 H496 0.929 . S
C494 C493 1.363 . S
C494 C500 1.428 . S
H495 C491 0.930 . S
H496 C493 0.929 . S
S497 N498 1.613 . S
S497 N499 1.610 . S
N498 S497 1.613 . S
N498 C501 1.350 . S
N499 S497 1.610 . S
N499 C500 1.351 . S
C500 C494 1.428 . S
C500 N499 1.351 . S
C500 C501 1.434 . S
C501 C492 1.429 . S
C501 N498 1.350 . S
C501 C500 1.434 . S
C502 C503 1.369 . S
C502 C504 1.419 . S
C502 H506 0.930 . S
C503 C502 1.369 . S
C503 C512 1.429 . S
C504 C502 1.419 . S
C504 C505 1.363 . S
C504 H507 0.929 . S
C505 C504 1.363 . S
C505 C511 1.428 . S
H506 C502 0.930 . S
H507 C504 0.929 . S
S508 N509 1.613 . S
S508 N510 1.610 . S
N509 S508 1.613 . S
N509 C512 1.350 . S
N510 S508 1.610 . S
N510 C511 1.351 . S
C511 C505 1.428 . S
C511 N510 1.351 . S
C511 C512 1.434 . S
C512 C503 1.429 . S
C512 N509 1.350 . S
C512 C511 1.434 . S
C513 C514 1.369 . S
C513 C515 1.419 . S
C513 H517 0.930 . S
C514 C513 1.369 . S
C514 C523 1.429 . S
C515 C513 1.419 . S
C515 C516 1.363 . S
C515 H518 0.929 . S
C516 C515 1.363 . S
C516 C522 1.428 . S
H517 C513 0.930 . S
H518 C515 0.929 . S
S519 N520 1.613 . S
S519 N521 1.610 . S
N520 S519 1.613 . S
N520 C523 1.350 1_545 S
N521 S519 1.610 . S
N521 C522 1.351 1_545 S
C522 C516 1.428 . S
C522 N521 1.351 1_565 S
C522 C523 1.434 . S
C523 C514 1.429 . S
C523 N520 1.350 1_565 S
C523 C522 1.434 . S
C524 C525 1.369 . S
C524 C526 1.419 . S
C524 H528 0.930 . S
C525 C524 1.369 . S
C525 C534 1.429 . S
C526 C524 1.419 . S
C526 C527 1.363 . S
C526 H529 0.929 . S
C527 C526 1.363 . S
C527 C533 1.428 . S
H528 C524 0.930 . S
H529 C526 0.929 . S
S530 N531 1.613 . S
S530 N532 1.610 . S
N531 S530 1.613 . S
N531 C534 1.350 . S
N532 S530 1.610 . S
N532 C533 1.351 . S
C533 C527 1.428 . S
C533 N532 1.351 . S
C533 C534 1.434 . S
C534 C525 1.429 . S
C534 N531 1.350 . S
C534 C533 1.434 . S
C535 C536 1.369 . S
C535 C537 1.419 . S
C535 H539 0.930 . S
C536 C535 1.369 . S
C536 C545 1.429 . S
C537 C535 1.419 . S
C537 C538 1.363 . S
C537 H540 0.929 . S
C538 C537 1.363 . S
C538 C544 1.428 . S
H539 C535 0.930 . S
H540 C537 0.929 . S
S541 N542 1.613 . S
S541 N543 1.610 . S
N542 S541 1.613 . S
N542 C545 1.350 . S
N543 S541 1.610 . S
N543 C544 1.351 . S
C544 C538 1.428 . S
C544 N543 1.351 . S
C544 C545 1.434 . S
C545 C536 1.429 . S
C545 N542 1.350 . S
C545 C544 1.434 . S
C546 C547 1.369 . S
C546 C548 1.419 . S
C546 H550 0.930 . S
C547 C546 1.369 . S
C547 C556 1.429 . S
C548 C546 1.419 . S
C548 C549 1.363 . S
C548 H551 0.929 . S
C549 C548 1.363 . S
C549 C555 1.428 . S
H550 C546 0.930 . S
H551 C548 0.929 . S
S552 N553 1.613 . S
S552 N554 1.610 . S
N553 S552 1.613 . S
N553 C556 1.350 1_565 S
N554 S552 1.610 . S
N554 C555 1.351 1_565 S
C555 C549 1.428 . S
C555 N554 1.351 1_545 S
C555 C556 1.434 . S
C556 C547 1.429 . S
C556 N553 1.350 1_545 S
C556 C555 1.434 . S
C557 C558 1.369 . S
C557 C559 1.419 . S
C557 H561 0.930 1_655 S
C558 C557 1.369 . S
C558 C567 1.429 . S
C559 C557 1.419 . S
C559 C560 1.363 . S
C559 H562 0.929 1_655 S
C560 C559 1.363 . S
C560 C566 1.428 . S
H561 C557 0.930 1_455 S
H562 C559 0.929 1_455 S
S563 N564 1.613 . S
S563 N565 1.610 . S
N564 S563 1.613 . S
N564 C567 1.350 . S
N565 S563 1.610 . S
N565 C566 1.351 . S
C566 C560 1.428 . S
C566 N565 1.351 . S
C566 C567 1.434 . S
C567 C558 1.429 . S
C567 N564 1.350 . S
C567 C566 1.434 . S
C568 C569 1.369 . S
C568 C570 1.419 . S
C568 H572 0.930 . S
C569 C568 1.369 . S
C569 C578 1.429 . S
C570 C568 1.419 . S
C570 C571 1.363 . S
C570 H573 0.929 . S
C571 C570 1.363 . S
C571 C577 1.428 . S
H572 C568 0.930 . S
H573 C570 0.929 . S
S574 N575 1.613 . S
S574 N576 1.610 . S
N575 S574 1.613 . S
N575 C578 1.350 . S
N576 S574 1.610 . S
N576 C577 1.351 . S
C577 C571 1.428 . S
C577 N576 1.351 . S
C577 C578 1.434 . S
C578 C569 1.429 . S
C578 N575 1.350 . S
C578 C577 1.434 . S
C579 C580 1.369 . S
C579 C581 1.419 . S
C579 H583 0.930 . S
C580 C579 1.369 . S
C580 C589 1.429 . S
C581 C579 1.419 . S
C581 C582 1.363 . S
C581 H584 0.929 . S
C582 C581 1.363 . S
C582 C588 1.428 . S
H583 C579 0.930 . S
H584 C581 0.929 . S
S585 N586 1.613 . S
S585 N587 1.610 . S
N586 S585 1.613 . S
N586 C589 1.350 . S
N587 S585 1.610 . S
N587 C588 1.351 . S
C588 C582 1.428 . S
C588 N587 1.351 . S
C588 C589 1.434 . S
C589 C580 1.429 . S
C589 N586 1.350 . S
C589 C588 1.434 . S
C590 C591 1.369 . S
C590 C592 1.419 . S
C590 H594 0.930 . S
C591 C590 1.369 . S
C591 C600 1.429 . S
C592 C590 1.419 . S
C592 C593 1.363 . S
C592 H595 0.929 . S
C593 C592 1.363 . S
C593 C599 1.428 . S
H594 C590 0.930 . S
H595 C592 0.929 . S
S596 N597 1.613 . S
S596 N598 1.610 . S
N597 S596 1.613 . S
N597 C600 1.350 . S
N598 S596 1.610 . S
N598 C599 1.351 . S
C599 C593 1.428 . S
C599 N598 1.351 . S
C599 C600 1.434 . S
C600 C591 1.429 . S
C600 N597 1.350 . S
C600 C599 1.434 . S
C601 C602 1.369 . S
C601 C603 1.419 . S
C601 H605 0.930 . S
C602 C601 1.369 . S
C602 C611 1.429 . S
C603 C601 1.419 . S
C603 C604 1.363 . S
C603 H606 0.929 . S
C604 C603 1.363 . S
C604 C610 1.428 . S
H605 C601 0.930 . S
H606 C603 0.929 . S
S607 N608 1.613 . S
S607 N609 1.610 . S
N608 S607 1.613 . S
N608 C611 1.350 . S
N609 S607 1.610 . S
N609 C610 1.351 . S
C610 C604 1.428 . S
C610 N609 1.351 . S
C610 C611 1.434 . S
C611 C602 1.429 . S
C611 N608 1.350 . S
C611 C610 1.434 . S
C612 C613 1.369 . S
C612 C614 1.419 . S
C612 H616 0.930 . S
C613 C612 1.369 . S
C613 C622 1.429 . S
C614 C612 1.419 . S
C614 C615 1.363 . S
C614 H617 0.929 . S
C615 C614 1.363 . S
C615 C621 1.428 . S
H616 C612 0.930 . S
H617 C614 0.929 . S
S618 N619 1.613 . S
S618 N620 1.610 . S
N619 S618 1.613 . S
N619 C622 1.350 . S
N620 S618 1.610 . S
N620 C621 1.351 . S
C621 C615 1.428 . S
C621 N620 1.351 . S
C621 C622 1.434 . S
C622 C613 1.429 . S
C622 N619 1.350 . S
C622 C621 1.434 . S
C623 C624 1.369 . S
C623 C625 1.419 . S
C623 H627 0.930 . S
C624 C623 1.369 . S
C624 C633 1.429 . S
C625 C623 1.419 . S
C625 C626 1.363 . S
C625 H628 0.929 . S
C626 C625 1.363 . S
C626 C632 1.428 . S
H627 C623 0.930 . S
H628 C625 0.929 . S
S629 N630 1.613 . S
S629 N631 1.610 . S
N630 S629 1.613 . S
N630 C633 1.350 . S
N631 S629 1.610 . S
N631 C632 1.351 . S
C632 C626 1.428 . S
C632 N631 1.351 . S
C632 C633 1.434 . S
C633 C624 1.429 . S
C633 N630 1.350 . S
C633 C632 1.434 . S
C634 C635 1.369 . S
C634 C636 1.419 . S
C634 H638 0.930 . S
C635 C634 1.369 . S
C635 C644 1.429 . S
C636 C634 1.419 . S
C636 C637 1.363 . S
C636 H639 0.929 . S
C637 C636 1.363 . S
C637 C643 1.428 . S
H638 C634 0.930 . S
H639 C636 0.929 . S
S640 N641 1.613 . S
S640 N642 1.610 . S
N641 S640 1.613 . S
N641 C644 1.350 . S
N642 S640 1.610 . S
N642 C643 1.351 . S
C643 C637 1.428 . S
C643 N642 1.351 . S
C643 C644 1.434 . S
C644 C635 1.429 . S
C644 N641 1.350 . S
C644 C643 1.434 . S
C645 C646 1.369 . S
C645 C647 1.419 . S
C645 H649 0.930 . S
C646 C645 1.369 . S
C646 C655 1.429 . S
C647 C645 1.419 . S
C647 C648 1.363 . S
C647 H650 0.929 . S
C648 C647 1.363 . S
C648 C654 1.428 . S
H649 C645 0.930 . S
H650 C647 0.929 . S
S651 N652 1.613 . S
S651 N653 1.610 . S
N652 S651 1.613 . S
N652 C655 1.350 . S
N653 S651 1.610 . S
N653 C654 1.351 . S
C654 C648 1.428 . S
C654 N653 1.351 . S
C654 C655 1.434 . S
C655 C646 1.429 . S
C655 N652 1.350 . S
C655 C654 1.434 . S
C393 C45 1.635 . S
C395 C129 1.670 . S
C404 C30 1.628 . S
C406 C165 1.674 . S
C415 C39 1.635 . S
C417 C201 1.612 . S
C428 C237 1.612 . S
C426 C34 1.634 . S
C437 C97 1.629 . S
C439 C273 1.672 . S
C450 C309 1.674 . S
C448 C82 1.628 . S
C461 C345 1.612 . S
C459 C91 1.635 . S
C472 C381 1.618 . S
C470 C86 1.628 . S
C483 C321 1.553 . S
C481 C26 1.506 . S
C494 C357 1.551 . S
C492 C36 1.509 . S
C505 C279 1.594 . S
C503 C32 1.508 . S
C516 C315 1.595 . S
C514 C42 1.504 . S
C525 C18 1.580 . S
C527 C285 1.684 . S
C538 C351 1.623 . S
C536 C50 1.582 . S
C547 C4 1.571 . S
C549 C387 1.631 . S
C558 C48 1.576 . S
C560 C249 1.686 . S
C571 C177 1.552 . S
C569 C78 1.508 . S
C580 C88 1.501 . S
C582 C213 1.556 . S
C593 C135 1.591 . S
C591 C84 1.512 . S
C604 C171 1.594 . S
C602 C94 1.509 . S
C615 C141 1.687 . S
C613 C70 1.571 . S
C626 C207 1.624 . S
C624 C102 1.580 . S
C635 C56 1.575 . S
C637 C243 1.628 . S
C646 C100 1.580 . S
C648 C105 1.685 . S
