# Generated by pormake.
# Topology zzz, (3,6)-cn, num edge types: 1
# Building blocks:
#     Node 0, Type 0, BuildingBlock: KAKCAD_clean_linker_0, # of connection points: 3
#     Node 1, Type 0, BuildingBlock: KAKCAD_clean_linker_0, # of connection points: 3
#     Node 2, Type 0, BuildingBlock: KAKCAD_clean_linker_0, # of connection points: 3
#     Node 3, Type 0, BuildingBlock: KAKCAD_clean_linker_0, # of connection points: 3
#     Node 4, Type 0, BuildingBlock: KAKCAD_clean_linker_0, # of connection points: 3
#     Node 5, Type 0, BuildingBlock: KAKCAD_clean_linker_0, # of connection points: 3
#     Node 6, Type 0, BuildingBlock: KAKCAD_clean_linker_0, # of connection points: 3
#     Node 7, Type 0, BuildingBlock: KAKCAD_clean_linker_0, # of connection points: 3
#     Node 8, Type 1, BuildingBlock: LEVNOQ01_clean_sbu_1, # of connection points: 6
#     Node 9, Type 1, BuildingBlock: LEVNOQ01_clean_sbu_1, # of connection points: 6
#     Node 10, Type 1, BuildingBlock: LEVNOQ01_clean_sbu_1, # of connection points: 6
#     Node 11, Type 1, BuildingBlock: LEVNOQ01_clean_sbu_1, # of connection points: 6
#     Edge 12, Type (0, 1), BuildingBlock: EZIPEK_clean_linker_0, # of connection points: 2
#     Edge 13, Type (0, 1), BuildingBlock: EZIPEK_clean_linker_0, # of connection points: 2
#     Edge 14, Type (0, 1), BuildingBlock: EZIPEK_clean_linker_0, # of connection points: 2
#     Edge 15, Type (0, 1), BuildingBlock: EZIPEK_clean_linker_0, # of connection points: 2
#     Edge 16, Type (0, 1), BuildingBlock: EZIPEK_clean_linker_0, # of connection points: 2
#     Edge 17, Type (0, 1), BuildingBlock: EZIPEK_clean_linker_0, # of connection points: 2
#     Edge 18, Type (0, 1), BuildingBlock: EZIPEK_clean_linker_0, # of connection points: 2
#     Edge 19, Type (0, 1), BuildingBlock: EZIPEK_clean_linker_0, # of connection points: 2
#     Edge 20, Type (0, 1), BuildingBlock: EZIPEK_clean_linker_0, # of connection points: 2
#     Edge 21, Type (0, 1), BuildingBlock: EZIPEK_clean_linker_0, # of connection points: 2
#     Edge 22, Type (0, 1), BuildingBlock: EZIPEK_clean_linker_0, # of connection points: 2
#     Edge 23, Type (0, 1), BuildingBlock: EZIPEK_clean_linker_0, # of connection points: 2
#     Edge 24, Type (0, 1), BuildingBlock: EZIPEK_clean_linker_0, # of connection points: 2
#     Edge 25, Type (0, 1), BuildingBlock: EZIPEK_clean_linker_0, # of connection points: 2
#     Edge 26, Type (0, 1), BuildingBlock: EZIPEK_clean_linker_0, # of connection points: 2
#     Edge 27, Type (0, 1), BuildingBlock: EZIPEK_clean_linker_0, # of connection points: 2
#     Edge 28, Type (0, 1), BuildingBlock: EZIPEK_clean_linker_0, # of connection points: 2
#     Edge 29, Type (0, 1), BuildingBlock: EZIPEK_clean_linker_0, # of connection points: 2
#     Edge 30, Type (0, 1), BuildingBlock: EZIPEK_clean_linker_0, # of connection points: 2
#     Edge 31, Type (0, 1), BuildingBlock: EZIPEK_clean_linker_0, # of connection points: 2
#     Edge 32, Type (0, 1), BuildingBlock: EZIPEK_clean_linker_0, # of connection points: 2
#     Edge 33, Type (0, 1), BuildingBlock: EZIPEK_clean_linker_0, # of connection points: 2
#     Edge 34, Type (0, 1), BuildingBlock: EZIPEK_clean_linker_0, # of connection points: 2
#     Edge 35, Type (0, 1), BuildingBlock: EZIPEK_clean_linker_0, # of connection points: 2
# Relax obj value: 0.305
# Max RMSD: 0.222
# Mean RMSD: 0.207
data_MOF--net-zzz--node1-LEVNOQ01_clean_sbu_1--node2-KAKCAD_clean_linker_0--edge1-EZIPEK_clean_linker_0
_symmetry_space_group_name_H-M    P1
_symmetry_Int_Tables_number       1
_symmetry_cell_setting            triclinic
loop_
_symmetry_equiv_pos_as_xyz
'x, y, z'
_cell_length_a     43.606851
_cell_length_b     46.032491
_cell_length_c     16.513859
_cell_angle_alpha  89.952017
_cell_angle_beta   89.902631
_cell_angle_gamma 89.90137
loop_
_atom_site_label
_atom_site_type_symbol
_atom_site_fract_x
_atom_site_fract_y
_atom_site_fract_z
_atom_type_partial_charge
C0 C 0.87796 0.60955 0.97122 0.0
C1 C 0.87853 0.57901 0.96923 0.0
C2 C 0.85429 0.62385 0.01289 0.0
C3 C 0.8309 0.60747 0.04914 0.0
C4 C 0.83042 0.57721 0.0405 0.0
C5 C 0.85411 0.56311 0.00149 0.0
C6 C 0.80873 0.6197 0.1064 0.0
C7 C 0.77801 0.61766 0.08473 0.0
C8 C 0.75503 0.61012 0.14132 0.0
C9 C 0.76488 0.60392 0.22231 0.0
C10 C 0.79621 0.60741 0.24477 0.0
C11 C 0.81699 0.6181 0.18747 0.0
C12 C 0.81078 0.59234 0.31522 0.0
C13 C 0.8145 0.60594 0.39091 0.0
C14 C 0.82853 0.5675 0.29847 0.0
C15 C 0.85035 0.55731 0.35354 0.0
C16 C 0.85456 0.57089 0.429 0.0
C17 C 0.72311 0.6037 0.10852 0.0
C18 C 0.71481 0.61316 0.02979 0.0
C19 C 0.70186 0.5857 0.14905 0.0
C20 C 0.67547 0.57535 0.10896 0.0
C21 C 0.67094 0.58057 0.02536 0.0
C22 C 0.69067 0.60039 0.98747 0.0
C23 C 0.83573 0.59494 0.44798 0.0
H24 H 0.89655 0.62199 0.94501 0.0
H25 H 0.85481 0.64725 0.01934 0.0
H26 H 0.81258 0.56426 0.06868 0.0
H27 H 0.85408 0.53956 -0.00035 0.0
H28 H 0.77356 0.61719 0.02041 0.0
H29 H 0.84125 0.61859 0.2024 0.0
H30 H 0.74914 0.59493 0.26625 0.0
H31 H 0.80196 0.62566 0.40457 0.0
H32 H 0.82694 0.55703 0.23983 0.0
H33 H 0.8643 0.53876 0.33671 0.0
H34 H 0.72785 0.62944 0.99763 0.0
H35 H 0.70594 0.57842 0.2103 0.0
H36 H 0.83809 0.6057 0.50593 0.0
H37 H 0.68798 0.60568 0.92397 0.0
H38 H 0.65999 0.56114 0.14157 0.0
C39 C 0.97848 0.83449 0.99014 0.0
C40 C 0.00955 0.84103 0.97799 0.0
C41 C 0.9704 0.80918 0.03133 0.0
C42 C 0.99336 0.79015 0.05818 0.0
C43 C 0.02412 0.79535 0.0386 0.0
C44 C 0.03222 0.82083 0.99906 0.0
C45 C 0.98695 0.76966 0.1233 0.0
C46 C 0.98875 0.73993 0.11016 0.0
C47 C 0.98913 0.72051 0.17554 0.0
C48 C 0.98865 0.73157 0.25607 0.0
C49 C 0.98629 0.76207 0.26877 0.0
C50 C 0.98499 0.78052 0.20167 0.0
C51 C 0.98769 0.77706 0.34858 0.0
C52 C 0.9618 0.79293 0.37431 0.0
C53 C 0.01652 0.78482 0.37998 0.0
C54 C 0.01964 0.80915 0.4308 0.0
C55 C 0.99399 0.82629 0.45095 0.0
C56 C 0.99205 0.68935 0.15342 0.0
C57 C 0.96667 0.67547 0.11785 0.0
C58 C 0.02147 0.67793 0.13883 0.0
C59 C 0.02563 0.65482 0.08444 0.0
C60 C 1.00044 0.64263 0.0437 0.0
C61 C 0.9708 0.65224 0.06387 0.0
C62 C 0.96491 0.81726 0.42485 0.0
H63 H 0.96082 0.84992 0.97313 0.0
H64 H 0.94661 0.80546 0.04721 0.0
H65 H 0.04206 0.78101 0.06037 0.0
H66 H 0.05627 0.82564 0.98941 0.0
H67 H 0.99098 0.73192 0.04861 0.0
H68 H 0.98462 0.80391 0.21062 0.0
H69 H 0.9902 0.71692 0.30722 0.0
H70 H 0.93946 0.78818 0.34895 0.0
H71 H 0.03701 0.77379 0.35901 0.0
H72 H 0.04232 0.81569 0.45016 0.0
H73 H 0.94386 0.68439 0.12578 0.0
H74 H 0.04148 0.68871 0.16326 0.0
H75 H 0.94481 0.83009 0.43948 0.0
H76 H 0.95104 0.64318 0.03336 0.0
H77 H 0.0487 0.64766 0.07024 0.0
C78 C 0.65847 0.89006 0.97696 0.0
C79 C 0.65582 0.92049 0.97401 0.0
C80 C 0.68324 0.87737 0.01792 0.0
C81 C 0.70594 0.89516 0.05185 0.0
C82 C 0.70429 0.92536 0.04259 0.0
C83 C 0.67929 0.9379 0.00502 0.0
C84 C 0.72788 0.88449 0.11181 0.0
C85 C 0.75902 0.88776 0.09554 0.0
C86 C 0.77994 0.89408 0.15772 0.0
C87 C 0.76861 0.89735 0.23806 0.0
C88 C 0.7372 0.89177 0.25522 0.0
C89 C 0.71764 0.88404 0.19164 0.0
C90 C 0.72165 0.89921 0.333 0.0
C91 C 0.70234 0.87848 0.36974 0.0
C92 C 0.71792 0.92857 0.35437 0.0
C93 C 0.69407 0.93717 0.40654 0.0
C94 C 0.67351 0.9166 0.43855 0.0
C95 C 0.81182 0.90164 0.13161 0.0
C96 C 0.82639 0.88416 0.07285 0.0
C97 C 0.82411 0.92929 0.14749 0.0
C98 C 0.84811 0.94034 0.09936 0.0
C99 C 0.85987 0.92402 0.03408 0.0
C100 C 0.84986 0.89533 0.02408 0.0
C101 C 0.67851 0.88707 0.42174 0.0
H102 H 0.64075 0.87642 0.95139 0.0
H103 H 0.68413 0.85402 0.02573 0.0
H104 H 0.72135 0.93941 0.06976 0.0
H105 H 0.67779 0.9614 0.00223 0.0
H106 H 0.76626 0.88913 0.03273 0.0
H107 H 0.69312 0.88261 0.20278 0.0
H108 H 0.78373 0.90462 0.28585 0.0
H109 H 0.70409 0.8558 0.35276 0.0
H110 H 0.73167 0.94513 0.32516 0.0
H111 H 0.69062 0.96008 0.41843 0.0
H112 H 0.81756 0.86273 0.05927 0.0
H113 H 0.81333 0.9434 0.19163 0.0
H114 H 0.66296 0.8708 0.44541 0.0
H115 H 0.85859 0.88228 0.97454 0.0
H116 H 0.85554 0.96254 0.10831 0.0
C117 C 0.50054 0.69209 0.46636 0.0
C118 C 0.52687 0.67456 0.47431 0.0
C119 C 0.50055 0.71627 0.41416 0.0
C120 C 0.52702 0.7237 0.36993 0.0
C121 C 0.55426 0.70822 0.38608 0.0
C122 C 0.55408 0.68366 0.43652 0.0
C123 C 0.52328 0.73542 0.2865 0.0
C124 C 0.5246 0.76508 0.26303 0.0
C125 C 0.52275 0.77244 0.17938 0.0
C126 C 0.52127 0.75018 0.12139 0.0
C127 C 0.52046 0.72111 0.14497 0.0
C128 C 0.51992 0.7142 0.22705 0.0
C129 C 0.52136 0.69734 0.08533 0.0
C130 C 0.50266 0.69762 0.01673 0.0
C131 C 0.53902 0.6727 0.10196 0.0
C132 C 0.53663 0.6481 0.05437 0.0
C133 C 0.51824 0.64767 0.98397 0.0
C134 C 0.52175 0.80263 0.1473 0.0
C135 C 0.54883 0.81886 0.13729 0.0
C136 C 0.49524 0.81155 0.1057 0.0
C137 C 0.49613 0.83497 0.05178 0.0
C138 C 0.52351 0.85017 0.03807 0.0
C139 C 0.54962 0.84269 0.08367 0.0
C140 C 0.50081 0.67308 0.96736 0.0
H141 H 0.47924 0.68552 0.49473 0.0
H142 H 0.47899 0.72703 0.40129 0.0
H143 H 0.57476 0.71274 0.35114 0.0
H144 H 0.57465 0.67056 0.4413 0.0
H145 H 0.52677 0.78192 0.30836 0.0
H146 H 0.51795 0.69161 0.24539 0.0
H147 H 0.52127 0.75558 0.05742 0.0
H148 H 0.4881 0.71614 0.0038 0.0
H149 H 0.5537 0.6718 0.15481 0.0
H150 H 0.54807 0.62922 0.07805 0.0
H151 H 0.56978 0.81199 0.16681 0.0
H152 H 0.47428 0.79907 0.11074 0.0
H153 H 0.48391 0.6741 0.92003 0.0
H154 H 0.5709 0.8544 0.07489 0.0
H155 H 0.47561 0.84057 0.01826 0.0
C156 C 0.19357 0.41802 0.5273 0.0
C157 C 0.16423 0.40803 0.50777 0.0
C158 C 0.21911 0.40545 0.49069 0.0
C159 C 0.2152 0.38318 0.43326 0.0
C160 C 0.18648 0.36936 0.42811 0.0
C161 C 0.16081 0.38228 0.46358 0.0
C162 C 0.23549 0.38365 0.36124 0.0
C163 C 0.26692 0.38873 0.36962 0.0
C164 C 0.28367 0.40214 0.30736 0.0
C165 C 0.26863 0.40966 0.23409 0.0
C166 C 0.23744 0.40207 0.22248 0.0
C167 C 0.22165 0.38859 0.286 0.0
C168 C 0.21854 0.41134 0.1514 0.0
C169 C 0.21608 0.44083 0.13007 0.0
C170 C 0.19755 0.39155 0.11712 0.0
C171 C 0.17383 0.40113 0.06654 0.0
C172 C 0.17066 0.4307 0.04805 0.0
C173 C 0.31505 0.41214 0.32836 0.0
C174 C 0.31918 0.4408 0.35527 0.0
C175 C 0.3384 0.39166 0.34309 0.0
C176 C 0.36473 0.39939 0.38697 0.0
C177 C 0.36773 0.42756 0.41864 0.0
C178 C 0.34523 0.44841 0.40012 0.0
C179 C 0.19241 0.4504 0.07866 0.0
H180 H 0.19644 0.4375 0.5633 0.0
H181 H 0.24096 0.4163 0.49773 0.0
H182 H 0.18306 0.35154 0.38628 0.0
H183 H 0.13818 0.37394 0.44999 0.0
H184 H 0.27764 0.38522 0.4281 0.0
H185 H 0.19711 0.38555 0.27986 0.0
H186 H 0.28085 0.42155 0.18757 0.0
H187 H 0.23133 0.4567 0.15675 0.0
H188 H 0.19859 0.36872 0.13296 0.0
H189 H 0.15759 0.38551 0.04292 0.0
H190 H 0.30114 0.45675 0.34702 0.0
H191 H 0.33538 0.36923 0.32496 0.0
H192 H 0.19054 0.47331 0.0645 0.0
H193 H 0.34708 0.47026 0.42395 0.0
H194 H 0.38181 0.38298 0.40045 0.0
C195 C 0.99163 0.18479 0.48905 0.0
C196 C 0.00907 0.15921 0.4884 0.0
C197 C 1.00176 0.2088 0.44492 0.0
C198 C 0.02955 0.20726 0.40173 0.0
C199 C 0.04881 0.18316 0.41149 0.0
C200 C 0.03847 0.15912 0.45388 0.0
C201 C 0.0346 0.2266 0.33241 0.0
C202 C 0.0315 0.25645 0.33986 0.0
C203 C 0.03101 0.27434 0.27112 0.0
C204 C 0.03407 0.26173 0.19284 0.0
C205 C 0.03821 0.2312 0.18565 0.0
C206 C 0.03832 0.21427 0.256 0.0
C207 C 0.04006 0.21457 0.10812 0.0
C208 C 0.01394 0.21159 0.05899 0.0
C209 C 0.06393 0.19409 0.0993 0.0
C210 C 0.06034 0.16954 0.05029 0.0
C211 C 0.03315 0.16518 0.00668 0.0
C212 C 0.02509 0.30551 0.28758 0.0
C213 C 0.99679 0.31262 0.32343 0.0
C214 C 0.04996 0.32454 0.29854 0.0
C215 C 0.0473 0.3486 0.35066 0.0
C216 C 0.02009 0.35319 0.39493 0.0
C217 C 0.99444 0.3359 0.37728 0.0
C218 C 0.01064 0.18722 0.00811 0.0
H219 H 0.96927 0.18527 0.51766 0.0
H220 H 0.98663 0.22734 0.43827 0.0
H221 H 0.07053 0.18185 0.3797 0.0
H222 H 0.05258 0.13971 0.45514 0.0
H223 H 0.02841 0.26576 0.39972 0.0
H224 H 0.03948 0.19077 0.25079 0.0
H225 H 0.03293 0.27523 0.13921 0.0
H226 H 0.99489 0.22654 0.06555 0.0
H227 H 0.08411 0.19548 0.1373 0.0
H228 H 0.07806 0.15302 0.05029 0.0
H229 H 0.97742 0.29806 0.31737 0.0
H230 H 0.07219 0.31929 0.27305 0.0
H231 H 0.9895 0.18446 0.97465 0.0
H232 H 0.97297 0.33935 0.40902 0.0
H233 H 0.06713 0.36218 0.36142 0.0
C234 C 0.34007 0.07947 0.5168 0.0
C235 C 0.36939 0.08774 0.49132 0.0
C236 C 0.31442 0.09275 0.48314 0.0
C237 C 0.31811 0.11408 0.42272 0.0
C238 C 0.34731 0.12671 0.41252 0.0
C239 C 0.3731 0.11286 0.44447 0.0
C240 C 0.29656 0.11333 0.35315 0.0
C241 C 0.26549 0.10717 0.36551 0.0
C242 C 0.24842 0.09259 0.30622 0.0
C243 C 0.26235 0.08567 0.23098 0.0
C244 C 0.2929 0.0945 0.21497 0.0
C245 C 0.30917 0.1088 0.2761 0.0
C246 C 0.31111 0.08532 0.14234 0.0
C247 C 0.31323 0.05587 0.12022 0.0
C248 C 0.33208 0.10506 0.10751 0.0
C249 C 0.35595 0.09539 0.05754 0.0
C250 C 0.35889 0.06585 0.03843 0.0
C251 C 0.2187 0.08008 0.33283 0.0
C252 C 0.21917 0.05525 0.38239 0.0
C253 C 0.19132 0.0961 0.32641 0.0
C254 C 0.1651 0.08775 0.3704 0.0
C255 C 0.16612 0.06352 0.42234 0.0
C256 C 0.19318 0.04708 0.42662 0.0
C257 C 0.3368 0.04627 0.06835 0.0
H258 H 0.33702 0.06064 0.55542 0.0
H259 H 0.29232 0.08293 0.49505 0.0
H260 H 0.35069 0.14412 0.36926 0.0
H261 H 0.39578 0.12005 0.42665 0.0
H262 H 0.25554 0.11054 0.42505 0.0
H263 H 0.33342 0.11262 0.26666 0.0
H264 H 0.24997 0.07289 0.18681 0.0
H265 H 0.29795 0.04001 0.14703 0.0
H266 H 0.33121 0.12788 0.12337 0.0
H267 H 0.37253 0.11093 0.03492 0.0
H268 H 0.24026 0.04311 0.39048 0.0
H269 H 0.19068 0.11582 0.29062 0.0
H270 H 0.33857 0.02337 0.05415 0.0
H271 H 0.19451 0.02841 0.46646 0.0
H272 H 0.14444 0.10076 0.36636 0.0
C273 C 0.47164 0.30982 0.9969 0.0
C274 C 0.4998 0.32406 0.98582 0.0
C275 C 0.46992 0.28459 0.04463 0.0
C276 C 0.49631 0.27311 0.08201 0.0
C277 C 0.52487 0.28559 0.06291 0.0
C278 C 0.52658 0.31088 0.01565 0.0
C279 C 0.49274 0.26034 0.16403 0.0
C280 C 0.49308 0.23037 0.18366 0.0
C281 C 0.48992 0.22165 0.26591 0.0
C282 C 0.48737 0.24302 0.32651 0.0
C283 C 0.48788 0.27251 0.30684 0.0
C284 C 0.49023 0.28074 0.2259 0.0
C285 C 0.4899 0.29538 0.36921 0.0
C286 C 0.51042 0.29244 0.43434 0.0
C287 C 0.47604 0.32247 0.35456 0.0
C288 C 0.48567 0.3469 0.39638 0.0
C289 C 0.50795 0.34434 0.45679 0.0
C290 C 0.49137 0.19089 0.29377 0.0
C291 C 0.51863 0.17481 0.28544 0.0
C292 C 0.46858 0.18053 0.34699 0.0
C293 C 0.47402 0.15634 0.39635 0.0
C294 C 0.50228 0.14183 0.39308 0.0
C295 C 0.52404 0.15043 0.33477 0.0
C296 C 0.51906 0.31685 0.47889 0.0
H297 H 0.45073 0.31935 0.97346 0.0
H298 H 0.44751 0.27607 0.06007 0.0
H299 H 0.54547 0.27791 0.09273 0.0
H300 H 0.54862 0.32127 0.00702 0.0
H301 H 0.49576 0.21428 0.13637 0.0
H302 H 0.49167 0.30362 0.2103 0.0
H303 H 0.48597 0.23666 0.38966 0.0
H304 H 0.52144 0.27185 0.44716 0.0
H305 H 0.45939 0.32517 0.30649 0.0
H306 H 0.4762 0.36794 0.38062 0.0
H307 H 0.53679 0.18255 0.24618 0.0
H308 H 0.44747 0.19263 0.35521 0.0
H309 H 0.53571 0.31462 0.52713 0.0
H310 H 0.54609 0.13961 0.33166 0.0
H311 H 0.45697 0.15012 0.4409 0.0
O312 O 0.07179 0.96166 0.84371 0.0
Mg313 Mg 0.06985 0.96555 0.71649 0.0
O314 O 0.02254 0.96136 0.82013 0.0
Mg315 Mg 0.01008 -0.00395 0.72593 0.0
O316 O 0.05968 0.00525 0.67 0.0
O317 O 0.1064 0.98471 0.66239 0.0
O318 O 0.99841 0.03005 0.63105 0.0
O319 O 0.01947 0.03478 0.82042 0.0
Mg320 Mg 0.95506 0.03029 0.73846 0.0
O321 O 0.95908 0.98739 0.77726 0.0
O322 O 0.95095 0.04281 0.61578 0.0
O323 O 0.97745 0.06149 0.8102 0.0
O324 O 0.91683 0.01457 0.79052 0.0
C325 C 0.01953 0.93451 0.62006 0.0
C326 C 0.04534 0.95258 0.86101 0.0
C327 C 0.08819 0.00593 0.64519 0.0
C328 C 0.97856 0.04483 0.59339 0.0
C329 C 0.0042 0.05786 0.838 0.0
C330 C 0.93039 -0.01014 0.80025 0.0
O331 O 0.04643 0.93269 0.64907 0.0
O332 O 1.0024 0.95671 0.63446 0.0
O333 O 0.43666 0.98598 0.82726 0.0
Mg334 Mg 0.44671 0.95596 0.73486 0.0
O335 O 0.47608 0.01641 0.8059 0.0
Mg336 Mg 0.51234 -0.00717 0.71428 0.0
O337 O 0.49237 0.94951 0.75099 0.0
O338 O 0.4599 0.91399 0.77409 0.0
O339 O 0.54759 0.96855 0.62788 0.0
O340 O 0.54653 0.98387 0.81605 0.0
Mg341 Mg 0.57175 0.02769 0.72177 0.0
O342 O 0.53154 0.03732 0.66686 0.0
O343 O 0.59111 -0.00835 0.65714 0.0
O344 O 0.56781 0.02494 0.84956 0.0
O345 O 0.57136 0.06753 0.6653 0.0
C346 C 0.4517 -0.00179 0.59225 0.0
C347 C 0.45051 0.00972 0.84125 0.0
C348 C 0.48715 0.92433 0.78283 0.0
C349 C 0.57681 0.97136 0.62114 0.0
C350 C 0.56397 -0.0018 0.8625 0.0
C351 C 0.54371 0.06168 0.64295 0.0
O352 O 0.43524 0.97886 0.62593 0.0
O353 O 0.47974 0.00125 0.60998 0.0
O354 O 0.5547 0.44073 0.85624 0.0
Mg355 Mg 0.57318 0.46715 0.76565 0.0
O356 O 0.5097 0.45612 0.81225 0.0
Mg357 Mg 0.51761 0.49946 0.72997 0.0
O358 O 0.56677 0.51052 0.78939 0.0
O359 O 0.61226 0.48722 0.79627 0.0
O360 O 0.52379 0.54232 0.65022 0.0
O361 O 0.50144 0.52897 0.83138 0.0
Mg362 Mg 0.45483 0.52912 0.71571 0.0
O363 O 0.46911 0.48985 0.67154 0.0
O364 O 0.47776 0.56339 0.65331 0.0
O365 O 0.45171 0.53217 0.84282 0.0
O366 O 0.42136 0.50707 0.65612 0.0
C367 C 0.54944 0.4498 0.60865 0.0
C368 C 0.52587 0.43808 0.85377 0.0
C369 C 0.59563 0.50979 0.81202 0.0
C370 C 0.50582 0.56356 0.63248 0.0
C371 C 0.47803 0.53861 0.86843 0.0
C372 C 0.44143 0.48703 0.64251 0.0
O373 O 0.57205 0.44528 0.65448 0.0
O374 O 0.53179 0.47125 0.62102 0.0
O375 O 0.96115 0.46739 0.8714 0.0
Mg376 Mg 0.95756 0.45877 0.74561 0.0
O377 O 0.98219 0.50731 0.82648 0.0
Mg378 Mg 0.01504 0.49809 0.72287 0.0
O379 O 0.998 0.45157 0.68855 0.0
O380 O 0.96314 0.41673 0.7014 0.0
O381 O 0.04685 0.48859 0.61665 0.0
O382 O 0.05377 0.4781 0.81399 0.0
Mg383 Mg 0.07842 0.53762 0.73037 0.0
O384 O 0.03309 0.54341 0.75312 0.0
O385 O 0.08963 0.51438 0.62234 0.0
O386 O 0.09197 0.51033 0.8263 0.0
O387 O 0.0655 0.58006 0.76225 0.0
C388 C 0.94723 0.51294 0.63172 0.0
C389 C 0.96547 0.49439 0.87787 0.0
C390 C 0.98845 0.42569 0.66962 0.0
C391 C 0.07428 0.49315 0.59466 0.0
C392 C 0.07966 0.48619 0.8448 0.0
C393 C 0.03887 0.56944 0.77898 0.0
O394 O 0.9357 0.49182 0.67165 0.0
O395 O 0.9762 0.51839 0.63592 0.0
C396 C 0.13921 0.06477 0.55737 0.0
C397 C 0.13961 0.05545 0.47539 0.0
C398 C 0.09593 0.02327 0.50333 0.0
C399 C 0.0998 0.02821 0.58744 0.0
N400 N 0.1233 0.05471 0.69595 0.0
N401 N 0.11777 0.02686 0.36814 0.0
C402 C 0.12056 0.04972 0.61475 0.0
C403 C 0.11734 0.0354 0.44737 0.0
N404 N 0.15685 0.08787 0.57999 0.0
N405 N 0.07198 0.00659 0.47748 0.0
H406 H 0.1324 0.03612 0.32526 0.0
H407 H 0.10475 0.00979 0.34548 0.0
H408 H 0.05609 -0.00245 0.51747 0.0
H409 H 0.0662 0.00385 0.41686 0.0
H410 H 0.15582 0.09747 0.63696 0.0
H411 H 0.1708 0.09906 0.53915 0.0
H412 H 0.14021 0.06772 0.72148 0.0
H413 H 0.109 0.04477 0.73844 0.0
C414 C 0.50354 0.09098 0.45186 0.0
C415 C 0.51071 0.12091 0.45871 0.0
C416 C 0.53121 0.11201 0.59492 0.0
C417 C 0.52867 0.08154 0.58293 0.0
N418 N 0.51723 0.04202 0.49089 0.0
N419 N 0.5348 0.15966 0.53356 0.0
C420 C 0.51581 0.07092 0.50931 0.0
C421 C 0.52557 0.13134 0.52934 0.0
N422 N 0.48508 0.08166 0.39047 0.0
N423 N 0.53802 0.1226 0.67008 0.0
H424 H 0.53014 0.17492 0.48848 0.0
H425 H 0.54914 0.16748 0.57897 0.0
H426 H 0.54074 0.10922 0.7206 0.0
H427 H 0.53756 0.14464 0.6843 0.0
H428 H 0.47616 0.06068 0.388 0.0
H429 H 0.47653 0.09561 0.34607 0.0
H430 H 0.51081 0.03368 0.4348 0.0
H431 H 0.52763 0.02662 0.52795 0.0
C432 C 0.41896 0.4508 0.44862 0.0
C433 C 0.39295 0.43512 0.4764 0.0
C434 C 0.40825 0.44394 0.61756 0.0
C435 C 0.43191 0.46248 0.58959 0.0
N436 N 0.46579 0.47699 0.48243 0.0
N437 N 0.36676 0.41059 0.58538 0.0
C438 C 0.43941 0.46345 0.50614 0.0
C439 C 0.38911 0.42941 0.56048 0.0
N440 N 0.42316 0.45461 0.36727 0.0
N441 N 0.40347 0.44151 0.69912 0.0
H442 H 0.35189 0.40029 0.54532 0.0
H443 H 0.36387 0.40372 0.64487 0.0
H444 H 0.41849 0.45063 0.74121 0.0
H445 H 0.38488 0.43099 0.72545 0.0
H446 H 0.43962 0.46824 0.3421 0.0
H447 H 0.40931 0.44455 0.32417 0.0
H448 H 0.47409 0.47702 0.42336 0.0
H449 H 0.48084 0.48634 0.52385 0.0
C450 C 0.99556 0.39765 0.45303 0.0
C451 C 0.01757 0.3753 0.46144 0.0
C452 C 0.02473 0.38917 0.60516 0.0
C453 C 1.00063 0.40975 0.59743 0.0
N454 N 0.9573 0.42666 0.51978 0.0
N455 N 0.05557 0.35088 0.54322 0.0
C456 C 0.98468 0.41233 0.52272 0.0
C457 C 0.03314 0.37154 0.53681 0.0
N458 N 0.98501 0.40494 0.37779 0.0
N459 N 0.03755 0.38486 0.67972 0.0
H460 H 0.06075 0.33625 0.49717 0.0
H461 H 0.06992 0.34848 0.59293 0.0
H462 H 0.03163 0.39737 0.73007 0.0
H463 H 0.05322 0.36859 0.69347 0.0
H464 H 0.9711 0.42297 0.36705 0.0
H465 H 0.99283 0.39482 0.3251 0.0
H466 H 0.94284 0.42625 0.46961 0.0
H467 H 0.94727 0.43593 0.5707 0.0
C468 C 0.90993 0.93139 0.95716 0.0
C469 C 0.87832 0.93812 0.96806 0.0
C470 C 0.88009 0.96883 0.84634 0.0
C471 C 0.91257 0.96634 0.84402 0.0
N472 N 0.95474 0.93377 0.86984 0.0
N473 N 0.83287 0.96323 0.92174 0.0
C474 C 0.92667 0.9443 0.89159 0.0
C475 C 0.86327 0.95672 0.91198 0.0
N476 N 0.92425 0.91354 0.01141 0.0
N477 N 0.8651 0.98068 0.78154 0.0
H478 H 0.81877 0.95308 0.96416 0.0
H479 H 0.82195 0.97999 0.8906 0.0
H480 H 0.87659 0.98662 0.72855 0.0
H481 H 0.84134 0.98101 0.77553 0.0
H482 H 0.94785 0.91024 0.0126 0.0
H483 H 0.91272 0.90355 0.05928 0.0
H484 H 0.96475 0.91557 0.89625 0.0
H485 H 0.96577 0.94012 0.81696 0.0
C486 C 0.53418 0.86784 0.8954 0.0
C487 C 0.52379 0.87381 0.97547 0.0
C488 C 0.50171 0.91997 0.92846 0.0
C489 C 0.50702 0.91138 0.84704 0.0
N490 N 0.53113 0.87964 0.75135 0.0
N491 N 0.50084 0.90659 0.07117 0.0
C492 C 0.52469 0.88628 0.83019 0.0
C493 C 0.50894 0.90051 0.99294 0.0
N494 N 0.55258 0.84428 0.88194 0.0
N495 N 0.48935 0.94672 0.94343 0.0
H496 H 0.50762 0.89361 0.11982 0.0
H497 H 0.48704 0.92395 0.08848 0.0
H498 H 0.48521 0.96164 0.89736 0.0
H499 H 0.48571 0.95531 0.00084 0.0
H500 H 0.56288 0.83958 0.82664 0.0
H501 H 0.55929 0.83019 0.9281 0.0
H502 H 0.54132 0.86038 0.73241 0.0
H503 H 0.52562 0.89373 0.70393 0.0
C504 C 0.6446 0.53326 0.98582 0.0
C505 C 0.64762 0.56384 0.97577 0.0
C506 C 0.61326 0.5604 0.85654 0.0
C507 C 0.60851 0.53054 0.87285 0.0
N508 N 0.61065 0.49226 0.97247 0.0
N509 N 0.62727 0.60729 0.91236 0.0
C510 C 0.62098 0.5184 0.94446 0.0
C511 C 0.62966 0.57773 0.91418 0.0
N512 N 0.66588 0.51758 0.02801 0.0
N513 N 0.60292 0.57206 0.7857 0.0
H514 H 0.63617 0.62043 0.95802 0.0
H515 H 0.61332 0.61841 0.87158 0.0
H516 H 0.59044 0.55998 0.74371 0.0
H517 H 0.6085 0.59297 0.76654 0.0
H518 H 0.66534 0.49495 0.03122 0.0
H519 H 0.68628 0.52639 0.04944 0.0
H520 H 0.61761 0.48363 0.02792 0.0
H521 H 0.59264 0.48112 0.94492 0.0
C522 C 0.01568 0.59293 0.99173 0.0
C523 C 0.00544 0.62164 0.97525 0.0
C524 C 0.00764 0.61153 0.82858 0.0
C525 C 0.02072 0.58398 0.84454 0.0
N526 N 0.03563 0.54703 0.94016 0.0
N527 N 0.99517 0.6597 0.87831 0.0
C528 C 0.02391 0.57413 0.92602 0.0
C529 C 1.00188 0.63119 0.8937 0.0
N530 N 0.01795 0.584 0.07058 0.0
N531 N 1.00065 0.61873 0.75047 0.0
H532 H 0.99128 0.67498 0.92375 0.0
H533 H 0.99583 0.66892 0.82078 0.0
H534 H 0.00464 0.60456 0.70225 0.0
H535 H 0.9884 0.63727 0.73423 0.0
H536 H 0.02576 0.56376 0.08922 0.0
H537 H 0.01107 0.59688 0.11929 0.0
H538 H 0.04101 0.53867 0.9968 0.0
H539 H 0.03987 0.5322 0.89405 0.0
C540 C 0.97535 0.11513 0.47381 0.0
C541 C 0.997 0.13151 0.5193 0.0
C542 C 0.01358 0.08778 0.58701 0.0
C543 C 0.98877 0.07197 0.55251 0.0
N544 N 0.9476 0.07044 0.45526 0.0
N545 N 0.03023 0.13452 0.63511 0.0
C546 C 0.96983 0.08576 0.49446 0.0
C547 C 0.01352 0.1182 0.58217 0.0
N548 N 0.96009 0.12657 0.40935 0.0
N549 N 0.03887 0.07404 0.61671 0.0
H550 H 0.03044 0.1572 0.63284 0.0
H551 H 0.04101 0.12554 0.68561 0.0
H552 H 0.04324 0.05233 0.60452 0.0
H553 H 0.05803 0.0852 0.63787 0.0
H554 H 0.96291 0.14777 0.38834 0.0
H555 H 0.96291 0.14777 0.38834 0.0
H556 H 0.93302 0.08 0.41275 0.0
H557 H 0.94456 0.04816 0.46386 0.0
C558 C 0.41684 0.07342 0.56525 0.0
C559 C 0.39523 0.06753 0.50437 0.0
C560 C 0.41487 0.01786 0.48881 0.0
C561 C 0.43593 0.02313 0.55238 0.0
N562 N 0.46101 0.0586 0.64062 0.0
N563 N 0.37837 0.03794 0.39285 0.0
C564 C 0.43868 0.05184 0.58588 0.0
C565 C 0.39583 0.0409 0.46108 0.0
N566 N 0.41483 0.09877 0.60837 0.0
N567 N 0.41262 -0.00936 0.45637 0.0
H568 H 0.36447 0.05462 0.37062 0.0
H569 H 0.37957 0.02012 0.35426 0.0
H570 H 0.42787 0.97393 0.47072 0.0
H571 H 0.39506 0.98424 0.41772 0.0
H572 H 0.42663 0.10263 0.66205 0.0
H573 H 0.39963 0.11548 0.59383 0.0
H574 H 0.46731 0.07988 0.65398 0.0
H575 H 0.47382 0.04363 0.67274 0.0
C576 C 0.49881 0.38606 0.54851 0.0
C577 C 0.51904 0.37091 0.4968 0.0
C578 C 0.55675 0.41029 0.50635 0.0
C579 C 0.53743 0.4246 0.56271 0.0
N580 N 0.49223 0.42254 0.64981 0.0
N581 N 0.56836 0.3663 0.43134 0.0
C582 C 0.50886 0.41178 0.58635 0.0
C583 C 0.54842 0.38229 0.47732 0.0
N584 N 0.46979 0.37578 0.56209 0.0
N585 N 0.58254 0.42398 0.47878 0.0
H586 H 0.5625 0.34657 0.40468 0.0
H587 H 0.59135 0.37163 0.42342 0.0
H588 H 0.58883 0.44472 0.49802 0.0
H589 H 0.5963 0.41609 0.43219 0.0
H590 H 0.45231 0.38834 0.5873 0.0
H591 H 0.46247 0.35522 0.54414 0.0
H592 H 0.47441 0.41131 0.67787 0.0
H593 H 0.49734 0.44149 0.6799 0.0
C594 C 0.13249 0.4512 0.46966 0.0
C595 C 0.13763 0.4272 0.52221 0.0
C596 C 0.09508 0.44224 0.60828 0.0
C597 C 0.09171 0.46814 0.56047 0.0
N598 N 0.10648 0.4972 0.44603 0.0
N599 N 0.12109 0.39622 0.63071 0.0
C600 C 0.11 0.47236 0.49053 0.0
C601 C 0.11803 0.42162 0.58813 0.0
N602 N 0.14867 0.45318 0.39876 0.0
N603 N 0.07824 0.43832 0.67722 0.0
H604 H 0.13856 0.38121 0.6199 0.0
H605 H 0.10541 0.38884 0.67349 0.0
H606 H 0.05811 0.44924 0.69014 0.0
H607 H 0.08456 0.42434 0.72387 0.0
H608 H 0.14435 0.4685 0.3539 0.0
H609 H 0.16523 0.43801 0.38148 0.0
H610 H 0.12136 0.50372 0.40023 0.0
H611 H 0.08882 0.51204 0.45695 0.0
C612 C 0.01551 0.89443 0.00155 0.0
C613 C 0.01902 0.86998 0.94991 0.0
C614 C 0.04905 0.89884 0.85545 0.0
C615 C 0.04174 0.92424 0.90076 0.0
N616 N 0.01471 0.9469 0.01137 0.0
N617 N 0.03366 0.85 0.82069 0.0
C618 C 0.02405 0.92224 0.97245 0.0
C619 C 0.03424 0.87248 0.87478 0.0
N620 N 0.00493 0.89103 0.07896 0.0
N621 N 0.0702 0.89964 0.79435 0.0
H622 H 0.02244 0.83043 0.83242 0.0
H623 H 0.04145 0.85184 0.76122 0.0
H624 H 0.0826 0.91808 0.7789 0.0
H625 H 0.07808 0.88109 0.76475 0.0
H626 H 0.0047 0.90779 0.12131 0.0
H627 H 0.99875 0.87096 0.10324 0.0
H628 H 0.99844 0.94686 0.05766 0.0
H629 H 0.02192 0.96759 0.99392 0.0
C630 C 0.60166 0.9386 0.98381 0.0
C631 C 0.62921 0.93562 0.9385 0.0
C632 C 0.61709 0.97859 0.85907 0.0
C633 C 0.58862 0.9811 0.90075 0.0
N634 N 0.5541 0.96555 0.00526 0.0
N635 N 0.65886 0.94693 0.82007 0.0
C636 C 0.58084 0.9614 0.96352 0.0
C637 C 0.63529 0.95368 0.87148 0.0
N638 N 0.59576 0.91981 0.0461 0.0
N639 N 0.62771 0.00052 0.81073 0.0
H640 H 0.67239 0.9284 0.82783 0.0
H641 H 0.66271 0.95764 0.76538 0.0
H642 H 0.61695 0.02051 0.80459 0.0
H643 H 0.6495 0.00054 0.78485 0.0
H644 H 0.57622 0.92027 0.0821 0.0
H645 H 0.61047 0.90286 0.06156 0.0
H646 H 0.54629 0.95239 0.05201 0.0
H647 H 0.53969 0.98324 0.99411 0.0
C648 C 0.49049 0.61753 0.87799 0.0
C649 C 0.51332 0.6196 0.93794 0.0
C650 C 0.50992 0.56728 0.96015 0.0
C651 C 0.48324 0.56626 0.9115 0.0
N652 N 0.44455 0.59328 0.83628 0.0
N653 N 0.55758 0.5925 0.97984 0.0
C654 C 0.47226 0.59226 0.87447 0.0
C655 C 0.52694 0.59332 0.96425 0.0
N656 N 0.48953 0.63741 0.81681 0.0
N657 N 0.51942 0.543 0.00047 0.0
H658 H 0.57125 0.61078 0.97037 0.0
H659 H 0.56951 0.57342 0.99258 0.0
H660 H 0.50705 0.5236 0.99851 0.0
H661 H 0.53767 0.54311 0.04119 0.0
H662 H 0.47535 0.63516 0.7664 0.0
H663 H 0.50608 0.65372 0.81192 0.0
H664 H 0.43576 0.61248 0.81196 0.0
H665 H 0.42857 0.57657 0.8391 0.0
C666 C 0.89879 0.54374 0.87216 0.0
C667 C 0.90473 0.56207 0.93854 0.0
C668 C 0.94899 0.53205 0.97644 0.0
C669 C 0.94132 0.51274 0.9132 0.0
N670 N 0.90272 0.49512 0.82049 0.0
N671 N 0.93618 0.5759 0.05188 0.0
C672 C 0.91443 0.51707 0.86654 0.0
C673 C 0.9302 0.55694 0.99025 0.0
N674 N 0.87774 0.55183 0.8152 0.0
N675 N 0.97328 0.52541 0.0252 0.0
H676 H 0.92305 0.59442 0.06246 0.0
H677 H 0.95452 0.57414 0.09158 0.0
H678 H 0.98652 0.50674 0.01651 0.0
H679 H 0.97931 0.53694 0.0767 0.0
H680 H 0.87447 0.54053 0.76122 0.0
H681 H 0.86602 0.57161 0.81846 0.0
H682 H 0.88178 0.49659 0.79044 0.0
H683 H 0.91172 0.47419 0.82053 0.0
C684 C 0.00468 0.11724 -0.00073 0.0
C685 C 0.02731 0.13627 0.96685 0.0
C686 C 0.04168 0.09859 0.86719 0.0
C687 C 0.01632 0.0814 0.89207 0.0
N688 N 0.97434 0.07328 0.98414 0.0
N689 N 0.06575 0.14617 0.86561 0.0
C690 C 0.99811 0.09046 0.95912 0.0
C691 C 0.04564 0.12706 0.90022 0.0
N692 N 0.99024 0.12427 0.0703 0.0
N693 N 0.06201 0.08777 0.81188 0.0
H694 H 0.06887 0.16728 0.88686 0.0
H695 H 0.07748 0.14212 0.81184 0.0
H696 H 0.05962 0.06739 0.78546 0.0
H697 H 0.08269 0.09777 0.79738 0.0
H698 H 0.97536 0.11051 0.10114 0.0
H699 H 0.99487 0.14318 0.10268 0.0
H700 H 0.95735 0.07995 0.02435 0.0
H701 H 0.97109 0.05221 0.96248 0.0
C702 C 0.38539 0.06001 0.90326 0.0
C703 C 0.38544 0.05543 0.98828 0.0
C704 C 0.43527 0.03011 0.9764 0.0
C705 C 0.43276 0.031 0.89091 0.0
N706 N 0.40387 0.04426 0.7722 0.0
N707 N 0.41044 0.03649 0.10738 0.0
C708 C 0.40769 0.04577 0.8542 0.0
C709 C 0.41057 0.04075 0.02543 0.0
N710 N 0.36368 0.07757 0.86893 0.0
N711 N 0.46132 0.01893 0.0102 0.0
H712 H 0.39369 0.04527 0.1454 0.0
H713 H 0.42602 0.02326 0.13768 0.0
H714 H 0.47962 0.01151 0.97495 0.0
H715 H 0.46602 0.01918 0.07193 0.0
H716 H 0.36483 0.0848 0.80923 0.0
H717 H 0.34555 0.0867 0.90137 0.0
H718 H 0.38434 0.05147 0.74202 0.0
H719 H 0.41938 0.03362 0.73455 0.0
C720 C 0.49232 0.37887 0.98954 0.0
C721 C 0.50147 0.35342 0.9465 0.0
C722 C 0.5222 0.38387 0.83736 0.0
C723 C 0.51319 0.4094 0.8803 0.0
N724 N 0.48406 0.43129 0.9876 0.0
N725 N 0.51831 0.33152 0.82198 0.0
C726 C 0.49621 0.40688 0.95312 0.0
C727 C 0.51426 0.35594 0.86796 0.0
N728 N 0.48146 0.37637 0.06693 0.0
N729 N 0.53933 0.38629 0.76828 0.0
H730 H 0.51279 0.31076 0.84273 0.0
H731 H 0.52446 0.33193 0.76106 0.0
H732 H 0.54402 0.40613 0.74079 0.0
H733 H 0.55022 0.36886 0.74019 0.0
H734 H 0.47748 0.39402 0.10488 0.0
H735 H 0.4783 0.35641 0.09563 0.0
H736 H 0.46897 0.43092 0.03648 0.0
H737 H 0.48711 0.45193 0.96268 0.0
C738 C 0.11643 0.4498 0.02844 0.0
C739 C 0.14504 0.44096 0.99467 0.0
C740 C 0.128 0.45696 0.86027 0.0
C741 C 0.09934 0.46606 0.89355 0.0
N742 N 0.06409 0.46684 0.00552 0.0
N743 N 0.17505 0.42936 0.87657 0.0
C744 C 0.09277 0.46084 0.97651 0.0
C745 C 0.14976 0.44231 0.9099 0.0
N746 N 0.11234 0.44848 0.11047 0.0
N747 N 0.13518 0.46364 0.78176 0.0
H748 H 0.19201 0.41924 0.91105 0.0
H749 H 0.17802 0.42643 0.81453 0.0
H750 H 0.11983 0.47353 0.74209 0.0
H751 H 0.15699 0.46114 0.757 0.0
H752 H 0.09348 0.45716 0.14063 0.0
H753 H 0.12879 0.43981 0.14948 0.0
H754 H 0.05667 0.46152 0.06356 0.0
H755 H 0.04675 0.47539 0.96907 0.0
C756 C 0.00793 0.87979 0.44948 0.0
C757 C 0.99782 0.85492 0.49346 0.0
C758 C 0.9958 0.88467 0.61782 0.0
C759 C 0.00794 0.90876 0.57438 0.0
N760 N 0.02481 0.92962 0.44805 0.0
N761 N 0.98387 0.83297 0.62059 0.0
C762 C 0.01363 0.90638 0.49018 0.0
C763 C 0.99188 0.85728 0.57794 0.0
N764 N 0.01262 0.87884 0.36792 0.0
N765 N 0.98785 0.88818 0.69734 0.0
H766 H 0.9805 0.81281 0.59326 0.0
H767 H 0.98224 0.8321 0.68337 0.0
H768 H 0.99127 0.90761 0.72837 0.0
H769 H 0.97618 0.87276 0.73152 0.0
H770 H 0.00881 0.86054 0.33205 0.0
H771 H 0.00881 0.86054 0.33205 0.0
H772 H 0.02976 0.92867 0.38622 0.0
H773 H 0.02882 0.94977 0.4749 0.0
C774 C 0.62107 0.94018 0.44158 0.0
C775 C 0.64542 0.92627 0.48397 0.0
C776 C 0.61666 0.93239 0.61117 0.0
C777 C 0.59564 0.95101 0.57119 0.0
N778 N 0.57704 0.97259 0.44795 0.0
N779 N 0.6668 0.90941 0.61015 0.0
C780 C 0.59732 0.95452 0.48596 0.0
C781 C 0.64309 0.92203 0.56901 0.0
N782 N 0.62038 0.93915 0.35888 0.0
N783 N 0.61097 0.92438 0.68942 0.0
H784 H 0.68649 0.90161 0.58155 0.0
H785 H 0.66793 0.90845 0.67305 0.0
H786 H 0.59166 0.93162 0.7211 0.0
H787 H 0.6235 0.9085 0.71986 0.0
H788 H 0.60184 0.9463 0.32453 0.0
H789 H 0.63723 0.92869 0.32467 0.0
H790 H 0.5792 0.97901 0.38774 0.0
H791 H 0.55867 0.98232 0.47809 0.0
C792 C 0.53816 0.63933 0.58946 0.0
C793 C 0.52485 0.64486 0.51231 0.0
C794 C 0.50697 0.594 0.50645 0.0
C795 C 0.517 0.58963 0.58722 0.0
N796 N 0.54176 0.60755 0.70722 0.0
N797 N 0.49748 0.62741 0.39513 0.0
C798 C 0.53295 0.61201 0.62871 0.0
C799 C 0.50965 0.62206 0.47002 0.0
N800 N 0.55564 0.66031 0.62529 0.0
N801 N 0.49549 0.5709 0.46416 0.0
H802 H 0.50113 0.64668 0.36336 0.0
H803 H 0.48278 0.6133 0.36509 0.0
H804 H 0.49366 0.55014 0.48915 0.0
H805 H 0.49004 0.57143 0.4029 0.0
H806 H 0.56883 0.6569 0.67686 0.0
H807 H 0.55846 0.681 0.60068 0.0
H808 H 0.55082 0.62357 0.7445 0.0
H809 H 0.53868 0.58779 0.73709 0.0
C810 C 0.90333 0.57436 0.51738 0.0
C811 C 0.87775 0.55826 0.48745 0.0
C812 C 0.90242 0.51383 0.53535 0.0
C813 C 0.92563 0.52963 0.57646 0.0
N814 N 0.94411 0.57685 0.61761 0.0
N815 N 0.84963 0.51319 0.49297 0.0
C816 C 0.92502 0.56054 0.57069 0.0
C817 C 0.87619 0.52823 0.50505 0.0
N818 N 0.9078 0.60233 0.49268 0.0
N819 N 0.9065 0.48513 0.51931 0.0
H820 H 0.82936 0.52322 0.47422 0.0
H821 H 0.84705 0.49156 0.51058 0.0
H822 H 0.92762 0.47542 0.52902 0.0
H823 H 0.89122 0.47291 0.48477 0.0
H824 H 0.92757 0.61402 0.50633 0.0
H825 H 0.89312 0.61288 0.45251 0.0
H826 H 0.94253 0.59941 0.62121 0.0
H827 H 0.95954 0.56775 0.65852 0.0
loop_
_geom_bond_atom_site_label_1
_geom_bond_atom_site_label_2
_geom_bond_distance
_geom_bond_site_symmetry_2
_ccdc_geom_bond_type
C0 C1 1.386 . S
C0 C2 1.397 . S
C0 H24 0.931 . S
C1 C0 1.386 . S
C1 C5 1.397 . S
C2 C0 1.397 . S
C2 C3 1.384 . S
C2 H25 0.930 . S
C3 C2 1.384 . S
C3 C4 1.377 . S
C3 C6 1.481 1_556 S
C4 C3 1.377 . S
C4 C5 1.389 . S
C4 H26 0.929 1_556 S
C5 C1 1.397 . S
C5 C4 1.389 . S
C5 H27 0.931 . S
C6 C3 1.481 1_554 S
C6 C7 1.387 . S
C6 C11 1.390 . S
C7 C6 1.387 . S
C7 C8 1.401 . S
C7 H28 0.930 1_554 S
C8 C7 1.401 . S
C8 C9 1.376 . S
C8 C17 1.511 . S
C9 C8 1.376 . S
C9 C10 1.392 . S
C9 H30 0.931 . S
C10 C9 1.392 . S
C10 C11 1.361 . S
C10 C12 1.500 . S
C11 C6 1.390 . S
C11 C10 1.361 . S
C11 H29 0.931 . S
C12 C10 1.500 . S
C12 C13 1.371 . S
C12 C14 1.365 . S
C13 C12 1.371 . S
C13 C23 1.386 . S
C13 H31 0.931 . S
C14 C12 1.365 . S
C14 C15 1.409 . S
C14 H32 0.929 . S
C15 C14 1.409 . S
C15 C16 1.380 . S
C15 H33 0.930 . S
C16 C15 1.380 . S
C16 C23 1.357 . S
C17 C8 1.511 . S
C17 C18 1.353 . S
C17 C19 1.371 . S
C18 C17 1.353 . S
C18 C22 1.390 1_554 S
C18 H34 0.921 1_554 S
C19 C17 1.371 . S
C19 C20 1.392 . S
C19 H35 0.931 . S
C20 C19 1.392 . S
C20 C21 1.331 . S
C20 H38 0.932 . S
C21 C20 1.331 . S
C21 C22 1.336 1_554 S
C22 C18 1.390 1_556 S
C22 C21 1.336 1_556 S
C22 H37 0.929 . S
C23 C13 1.386 . S
C23 C16 1.357 . S
C23 H36 0.928 . S
H24 C0 0.931 . S
H25 C2 0.930 . S
H26 C4 0.929 1_554 S
H27 C5 0.931 . S
H28 C7 0.930 1_556 S
H29 C11 0.931 . S
H30 C9 0.931 . S
H31 C13 0.931 . S
H32 C14 0.929 . S
H33 C15 0.930 . S
H34 C18 0.921 1_556 S
H35 C19 0.931 . S
H36 C23 0.928 . S
H37 C22 0.929 . S
H38 C20 0.932 . S
C39 C40 1.386 . S
C39 C41 1.397 . S
C39 H63 0.931 . S
C40 C39 1.386 . S
C40 C44 1.397 1_655 S
C41 C39 1.397 . S
C41 C42 1.384 1_556 S
C41 H64 0.930 . S
C42 C41 1.384 1_554 S
C42 C43 1.377 1_655 S
C42 C45 1.481 . S
C43 C42 1.377 1_455 S
C43 C44 1.389 1_554 S
C43 H65 0.929 . S
C44 C40 1.397 1_455 S
C44 C43 1.389 1_556 S
C44 H66 0.931 . S
C45 C42 1.481 . S
C45 C46 1.387 . S
C45 C50 1.390 . S
C46 C45 1.387 . S
C46 C47 1.401 . S
C46 H67 0.916 1_554 S
C47 C46 1.401 . S
C47 C48 1.376 . S
C47 C56 1.511 . S
C48 C47 1.376 . S
C48 C49 1.392 . S
C48 H69 0.931 . S
C49 C48 1.392 . S
C49 C50 1.361 . S
C49 C51 1.500 . S
C50 C45 1.390 . S
C50 C49 1.361 . S
C50 H68 0.931 . S
C51 C49 1.500 . S
C51 C52 1.371 . S
C51 C53 1.365 1_655 S
C52 C51 1.371 . S
C52 C62 1.386 . S
C52 H70 0.931 . S
C53 C51 1.365 1_455 S
C53 C54 1.409 . S
C53 H71 0.929 . S
C54 C53 1.409 . S
C54 C55 1.380 1_455 S
C54 H72 0.930 . S
C55 C54 1.380 1_655 S
C55 C62 1.357 . S
C56 C47 1.511 . S
C56 C57 1.341 . S
C56 C58 1.371 1_655 S
C57 C56 1.341 . S
C57 C61 1.393 1_554 S
C57 H73 0.930 1_554 S
C58 C56 1.371 1_455 S
C58 C59 1.392 . S
C58 H74 0.931 . S
C59 C58 1.392 . S
C59 C60 1.331 1_455 S
C59 H77 0.932 . S
C60 C59 1.331 1_655 S
C60 C61 1.333 1_554 S
C61 C57 1.393 1_556 S
C61 C60 1.333 1_556 S
C61 H76 0.933 . S
C62 C52 1.386 . S
C62 C55 1.357 . S
C62 H75 0.928 . S
H63 C39 0.931 . S
H64 C41 0.930 . S
H65 C43 0.929 . S
H66 C44 0.931 . S
H67 C46 0.916 1_556 S
H68 C50 0.931 . S
H69 C48 0.931 . S
H70 C52 0.931 . S
H71 C53 0.929 . S
H72 C54 0.930 . S
H73 C57 0.930 1_556 S
H74 C58 0.931 . S
H75 C62 0.928 . S
H76 C61 0.933 . S
H77 C59 0.932 . S
C78 C79 1.386 . S
C78 C80 1.397 . S
C78 H102 0.931 . S
C79 C78 1.386 . S
C79 C83 1.397 . S
C80 C78 1.397 . S
C80 C81 1.384 . S
C80 H103 0.930 . S
C81 C80 1.384 . S
C81 C82 1.377 . S
C81 C84 1.481 1_556 S
C82 C81 1.377 . S
C82 C83 1.389 . S
C82 H104 0.929 1_556 S
C83 C79 1.397 . S
C83 C82 1.389 . S
C83 H105 0.931 . S
C84 C81 1.481 1_554 S
C84 C85 1.387 . S
C84 C89 1.390 . S
C85 C84 1.387 . S
C85 C86 1.401 . S
C85 H106 0.930 1_554 S
C86 C85 1.401 . S
C86 C87 1.376 . S
C86 C95 1.511 . S
C87 C86 1.376 . S
C87 C88 1.392 . S
C87 H108 0.931 . S
C88 C87 1.392 . S
C88 C89 1.361 . S
C88 C90 1.500 . S
C89 C84 1.390 . S
C89 C88 1.361 . S
C89 H107 0.931 . S
C90 C88 1.500 . S
C90 C91 1.371 . S
C90 C92 1.365 . S
C91 C90 1.371 . S
C91 C101 1.386 . S
C91 H109 0.931 . S
C92 C90 1.365 . S
C92 C93 1.409 . S
C92 H110 0.929 . S
C93 C92 1.409 . S
C93 C94 1.380 . S
C93 H111 0.930 . S
C94 C93 1.380 . S
C94 C101 1.357 . S
C95 C86 1.511 . S
C95 C96 1.341 1_554 S
C95 C97 1.371 . S
C96 C95 1.341 1_556 S
C96 C100 1.394 . S
C96 H112 0.930 . S
C97 C95 1.371 . S
C97 C98 1.392 . S
C97 H113 0.931 . S
C98 C97 1.392 . S
C98 C99 1.331 . S
C98 H116 0.932 . S
C99 C98 1.331 . S
C99 C100 1.336 1_554 S
C100 C96 1.394 . S
C100 C99 1.336 1_556 S
C100 H115 0.929 . S
C101 C91 1.386 . S
C101 C94 1.357 . S
C101 H114 0.928 . S
H102 C78 0.931 . S
H103 C80 0.930 . S
H104 C82 0.929 1_554 S
H105 C83 0.931 . S
H106 C85 0.930 1_556 S
H107 C89 0.931 . S
H108 C87 0.931 . S
H109 C91 0.931 . S
H110 C92 0.929 . S
H111 C93 0.930 . S
H112 C96 0.930 . S
H113 C97 0.931 . S
H114 C101 0.928 . S
H115 C100 0.929 . S
H116 C98 0.932 . S
C117 C118 1.386 . S
C117 C119 1.397 . S
C117 H141 0.931 . S
C118 C117 1.386 . S
C118 C122 1.397 . S
C119 C117 1.397 . S
C119 C120 1.384 . S
C119 H142 0.930 . S
C120 C119 1.384 . S
C120 C121 1.377 . S
C120 C123 1.481 . S
C121 C120 1.377 . S
C121 C122 1.389 . S
C121 H143 0.929 . S
C122 C118 1.397 . S
C122 C121 1.389 . S
C122 H144 0.931 . S
C123 C120 1.481 . S
C123 C124 1.387 . S
C123 C128 1.390 . S
C124 C123 1.387 . S
C124 C125 1.401 . S
C124 H145 0.930 . S
C125 C124 1.401 . S
C125 C126 1.376 . S
C125 C134 1.511 . S
C126 C125 1.376 . S
C126 C127 1.392 . S
C126 H147 0.931 1_554 S
C127 C126 1.392 . S
C127 C128 1.361 . S
C127 C129 1.500 . S
C128 C123 1.390 . S
C128 C127 1.361 . S
C128 H146 0.931 . S
C129 C127 1.500 . S
C129 C130 1.371 1_554 S
C129 C131 1.365 . S
C130 C129 1.371 1_556 S
C130 C140 1.386 . S
C130 H148 0.931 . S
C131 C129 1.365 . S
C131 C132 1.409 1_554 S
C131 H149 0.929 . S
C132 C131 1.409 1_556 S
C132 C133 1.380 . S
C132 H150 0.930 . S
C133 C132 1.380 . S
C133 C140 1.357 . S
C134 C125 1.511 . S
C134 C135 1.341 . S
C134 C136 1.371 . S
C135 C134 1.341 . S
C135 C139 1.394 . S
C135 H151 0.930 . S
C136 C134 1.371 . S
C136 C137 1.392 1_554 S
C136 H152 0.931 1_554 S
C137 C136 1.392 1_556 S
C137 C138 1.331 1_556 S
C137 H155 0.932 . S
C138 C137 1.331 1_554 S
C138 C139 1.336 . S
C139 C135 1.394 . S
C139 C138 1.336 . S
C139 H154 0.929 . S
C140 C130 1.386 . S
C140 C133 1.357 . S
C140 H153 0.928 . S
H141 C117 0.931 . S
H142 C119 0.930 . S
H143 C121 0.929 . S
H144 C122 0.931 . S
H145 C124 0.930 . S
H146 C128 0.931 . S
H147 C126 0.931 1_556 S
H148 C130 0.931 . S
H149 C131 0.929 . S
H150 C132 0.930 . S
H151 C135 0.930 . S
H152 C136 0.931 1_556 S
H153 C140 0.928 . S
H154 C139 0.929 . S
H155 C137 0.932 . S
C156 C157 1.386 . S
C156 C158 1.397 . S
C156 H180 0.931 . S
C157 C156 1.386 . S
C157 C161 1.397 . S
C158 C156 1.397 . S
C158 C159 1.384 . S
C158 H181 0.930 . S
C159 C158 1.384 . S
C159 C160 1.377 . S
C159 C162 1.481 . S
C160 C159 1.377 . S
C160 C161 1.389 . S
C160 H182 0.929 . S
C161 C157 1.397 . S
C161 C160 1.389 . S
C161 H183 0.931 . S
C162 C159 1.481 . S
C162 C163 1.387 . S
C162 C167 1.390 . S
C163 C162 1.387 . S
C163 C164 1.401 . S
C163 H184 0.930 . S
C164 C163 1.401 . S
C164 C165 1.376 . S
C164 C173 1.511 . S
C165 C164 1.376 . S
C165 C166 1.392 . S
C165 H186 0.931 . S
C166 C165 1.392 . S
C166 C167 1.361 . S
C166 C168 1.500 . S
C167 C162 1.390 . S
C167 C166 1.361 . S
C167 H185 0.931 . S
C168 C166 1.500 . S
C168 C169 1.371 . S
C168 C170 1.365 . S
C169 C168 1.371 . S
C169 C179 1.386 . S
C169 H187 0.931 . S
C170 C168 1.365 . S
C170 C171 1.409 . S
C170 H188 0.929 . S
C171 C170 1.409 . S
C171 C172 1.380 . S
C171 H189 0.930 . S
C172 C171 1.380 . S
C172 C179 1.357 . S
C173 C164 1.511 . S
C173 C174 1.341 . S
C173 C175 1.371 . S
C174 C173 1.341 . S
C174 C178 1.394 . S
C174 H190 0.930 . S
C175 C173 1.371 . S
C175 C176 1.392 . S
C175 H191 0.931 . S
C176 C175 1.392 . S
C176 C177 1.331 . S
C176 H194 0.932 . S
C177 C176 1.331 . S
C177 C178 1.336 . S
C178 C174 1.394 . S
C178 C177 1.336 . S
C178 H193 0.929 . S
C179 C169 1.386 . S
C179 C172 1.357 . S
C179 H192 0.928 . S
H180 C156 0.931 . S
H181 C158 0.930 . S
H182 C160 0.929 . S
H183 C161 0.931 . S
H184 C163 0.930 . S
H185 C167 0.931 . S
H186 C165 0.931 . S
H187 C169 0.931 . S
H188 C170 0.929 . S
H189 C171 0.930 . S
H190 C174 0.930 . S
H191 C175 0.931 . S
H192 C179 0.928 . S
H193 C178 0.929 . S
H194 C176 0.932 . S
C195 C196 1.386 1_655 S
C195 C197 1.397 . S
C195 H219 0.931 . S
C196 C195 1.386 1_455 S
C196 C200 1.397 . S
C197 C195 1.397 . S
C197 C198 1.384 1_655 S
C197 H220 0.930 . S
C198 C197 1.384 1_455 S
C198 C199 1.377 . S
C198 C201 1.481 . S
C199 C198 1.377 . S
C199 C200 1.389 . S
C199 H221 0.929 . S
C200 C196 1.397 . S
C200 C199 1.389 . S
C200 H222 0.931 . S
C201 C198 1.481 . S
C201 C202 1.387 . S
C201 C206 1.390 . S
C202 C201 1.387 . S
C202 C203 1.401 . S
C202 H223 0.930 . S
C203 C202 1.401 . S
C203 C204 1.376 . S
C203 C212 1.511 . S
C204 C203 1.376 . S
C204 C205 1.392 . S
C204 H225 0.931 . S
C205 C204 1.392 . S
C205 C206 1.361 . S
C205 C207 1.500 . S
C206 C201 1.390 . S
C206 C205 1.361 . S
C206 H224 0.931 . S
C207 C205 1.500 . S
C207 C208 1.355 1_455 S
C207 C209 1.365 . S
C208 C207 1.355 1_655 S
C208 C218 1.387 . S
C208 H226 0.949 . S
C209 C207 1.365 . S
C209 C210 1.409 . S
C209 H227 0.929 . S
C210 C209 1.409 . S
C210 C211 1.380 1_554 S
C210 H228 0.930 . S
C211 C210 1.380 1_556 S
C211 C218 1.357 1_456 S
C212 C203 1.511 . S
C212 C213 1.341 . S
C212 C214 1.371 . S
C213 C212 1.341 . S
C213 C217 1.394 . S
C213 H229 0.930 1_455 S
C214 C212 1.371 . S
C214 C215 1.392 . S
C214 H230 0.931 . S
C215 C214 1.392 . S
C215 C216 1.331 . S
C215 H233 0.932 . S
C216 C215 1.331 . S
C216 C217 1.336 . S
C217 C213 1.394 . S
C217 C216 1.336 . S
C217 H232 0.929 1_455 S
C218 C208 1.387 . S
C218 C211 1.357 1_654 S
C218 H231 0.928 1_554 S
H219 C195 0.931 . S
H220 C197 0.930 . S
H221 C199 0.929 . S
H222 C200 0.931 . S
H223 C202 0.930 . S
H224 C206 0.931 . S
H225 C204 0.931 . S
H226 C208 0.949 . S
H227 C209 0.929 . S
H228 C210 0.930 . S
H229 C213 0.930 1_655 S
H230 C214 0.931 . S
H231 C218 0.928 1_556 S
H232 C217 0.929 1_655 S
H233 C215 0.932 . S
C234 C235 1.386 . S
C234 C236 1.397 . S
C234 H258 0.931 . S
C235 C234 1.386 . S
C235 C239 1.397 . S
C236 C234 1.397 . S
C236 C237 1.384 . S
C236 H259 0.930 . S
C237 C236 1.384 . S
C237 C238 1.377 . S
C237 C240 1.481 . S
C238 C237 1.377 . S
C238 C239 1.389 . S
C238 H260 0.929 . S
C239 C235 1.397 . S
C239 C238 1.389 . S
C239 H261 0.931 . S
C240 C237 1.481 . S
C240 C241 1.387 . S
C240 C245 1.390 . S
C241 C240 1.387 . S
C241 C242 1.401 . S
C241 H262 0.930 . S
C242 C241 1.401 . S
C242 C243 1.376 . S
C242 C251 1.511 . S
C243 C242 1.376 . S
C243 C244 1.392 . S
C243 H264 0.931 . S
C244 C243 1.392 . S
C244 C245 1.361 . S
C244 C246 1.500 . S
C245 C240 1.390 . S
C245 C244 1.361 . S
C245 H263 0.931 . S
C246 C244 1.500 . S
C246 C247 1.371 . S
C246 C248 1.365 . S
C247 C246 1.371 . S
C247 C257 1.386 . S
C247 H265 0.931 . S
C248 C246 1.365 . S
C248 C249 1.409 . S
C248 H266 0.929 . S
C249 C248 1.409 . S
C249 C250 1.380 . S
C249 H267 0.930 . S
C250 C249 1.380 . S
C250 C257 1.357 . S
C251 C242 1.511 . S
C251 C252 1.341 . S
C251 C253 1.371 . S
C252 C251 1.341 . S
C252 C256 1.394 . S
C252 H268 0.930 . S
C253 C251 1.371 . S
C253 C254 1.392 . S
C253 H269 0.931 . S
C254 C253 1.392 . S
C254 C255 1.331 . S
C254 H272 0.932 . S
C255 C254 1.331 . S
C255 C256 1.336 . S
C256 C252 1.394 . S
C256 C255 1.336 . S
C256 H271 0.929 . S
C257 C247 1.386 . S
C257 C250 1.357 . S
C257 H270 0.928 . S
H258 C234 0.931 . S
H259 C236 0.930 . S
H260 C238 0.929 . S
H261 C239 0.931 . S
H262 C241 0.930 . S
H263 C245 0.931 . S
H264 C243 0.931 . S
H265 C247 0.931 . S
H266 C248 0.929 . S
H267 C249 0.930 . S
H268 C252 0.930 . S
H269 C253 0.931 . S
H270 C257 0.928 . S
H271 C256 0.929 . S
H272 C254 0.932 . S
C273 C274 1.386 1_554 S
C273 C275 1.397 . S
C273 H297 0.931 1_554 S
C274 C273 1.386 1_556 S
C274 C278 1.397 1_556 S
C275 C273 1.397 . S
C275 C276 1.384 . S
C275 H298 0.930 . S
C276 C275 1.384 . S
C276 C277 1.377 . S
C276 C279 1.481 . S
C277 C276 1.377 . S
C277 C278 1.389 . S
C277 H299 0.929 . S
C278 C274 1.397 1_554 S
C278 C277 1.389 . S
C278 H300 0.931 . S
C279 C276 1.481 . S
C279 C280 1.387 . S
C279 C284 1.390 . S
C280 C279 1.387 . S
C280 C281 1.401 . S
C280 H301 0.930 . S
C281 C280 1.401 . S
C281 C282 1.376 . S
C281 C290 1.511 . S
C282 C281 1.376 . S
C282 C283 1.392 . S
C282 H303 0.931 . S
C283 C282 1.392 . S
C283 C284 1.361 . S
C283 C285 1.500 . S
C284 C279 1.390 . S
C284 C283 1.361 . S
C284 H302 0.931 . S
C285 C283 1.500 . S
C285 C286 1.371 . S
C285 C287 1.365 . S
C286 C285 1.371 . S
C286 C296 1.386 . S
C286 H304 0.931 . S
C287 C285 1.365 . S
C287 C288 1.409 . S
C287 H305 0.929 . S
C288 C287 1.409 . S
C288 C289 1.380 . S
C288 H306 0.930 . S
C289 C288 1.380 . S
C289 C296 1.357 . S
C290 C281 1.511 . S
C290 C291 1.341 . S
C290 C292 1.371 . S
C291 C290 1.341 . S
C291 C295 1.394 . S
C291 H307 0.930 . S
C292 C290 1.371 . S
C292 C293 1.392 . S
C292 H308 0.931 . S
C293 C292 1.392 . S
C293 C294 1.331 . S
C293 H311 0.932 . S
C294 C293 1.331 . S
C294 C295 1.336 . S
C295 C291 1.394 . S
C295 C294 1.336 . S
C295 H310 0.929 . S
C296 C286 1.386 . S
C296 C289 1.357 . S
C296 H309 0.928 . S
H297 C273 0.931 1_556 S
H298 C275 0.930 . S
H299 C277 0.929 . S
H300 C278 0.931 . S
H301 C280 0.930 . S
H302 C284 0.931 . S
H303 C282 0.931 . S
H304 C286 0.931 . S
H305 C287 0.929 . S
H306 C288 0.930 . S
H307 C291 0.930 . S
H308 C292 0.931 . S
H309 C296 0.928 . S
H310 C295 0.929 . S
H311 C293 0.932 . S
O312 Mg313 1.990 . S
O312 C326 1.253 . S
Mg313 O312 1.990 . S
Mg313 O316 2.180 1_565 S
Mg313 O317 2.117 . S
Mg313 O331 2.030 . S
O314 Mg315 2.072 1_565 S
O314 C326 1.260 . S
Mg315 O314 2.072 1_545 S
Mg315 O316 2.099 . S
Mg315 O318 2.079 1_455 S
Mg315 O319 2.072 . S
Mg315 O321 2.099 1_455 S
Mg315 O332 2.079 1_445 S
O316 Mg313 2.180 1_545 S
O316 Mg315 2.099 . S
O316 C327 1.279 . S
O317 Mg313 2.117 . S
O317 C327 1.250 1_565 S
O318 Mg315 2.079 1_655 S
O318 C328 1.264 . S
O319 Mg315 2.072 . S
O319 C329 1.260 . S
Mg320 O321 2.180 . S
Mg320 O322 2.030 . S
Mg320 O323 1.990 . S
Mg320 O324 2.117 . S
O321 Mg315 2.099 1_655 S
O321 Mg320 2.180 . S
O321 C330 1.279 . S
O322 Mg320 2.030 . S
O322 C328 1.248 . S
O323 Mg320 1.990 . S
O323 C329 1.253 1_655 S
O324 Mg320 2.117 . S
O324 C330 1.250 . S
C325 O331 1.248 . S
C325 O332 1.264 1_455 S
C326 O312 1.253 . S
C326 O314 1.260 . S
C327 O316 1.279 . S
C327 O317 1.250 1_545 S
C328 O318 1.264 . S
C328 O322 1.248 . S
C329 O319 1.260 . S
C329 O323 1.253 1_455 S
C330 O321 1.279 . S
C330 O324 1.250 . S
O331 Mg313 2.030 . S
O331 C325 1.248 . S
O332 Mg315 2.079 1_665 S
O332 C325 1.264 1_655 S
O333 Mg334 1.990 1_545 S
O333 C347 1.253 . S
Mg334 O333 1.990 1_565 S
Mg334 O337 2.180 . S
Mg334 O338 2.117 . S
Mg334 O352 2.030 . S
O335 Mg336 2.072 . S
O335 C347 1.260 . S
Mg336 O335 2.072 . S
Mg336 O337 2.099 1_545 S
Mg336 O339 2.079 1_545 S
Mg336 O340 2.072 1_545 S
Mg336 O342 2.099 . S
Mg336 O353 2.079 . S
O337 Mg334 2.180 . S
O337 Mg336 2.099 1_565 S
O337 C348 1.279 . S
O338 Mg334 2.117 . S
O338 C348 1.250 . S
O339 Mg336 2.079 1_565 S
O339 C349 1.264 . S
O340 Mg336 2.072 1_565 S
O340 C350 1.260 1_565 S
Mg341 O342 2.180 . S
Mg341 O343 2.030 . S
Mg341 O344 1.990 . S
Mg341 O345 2.117 . S
O342 Mg336 2.099 . S
O342 Mg341 2.180 . S
O342 C351 1.279 . S
O343 Mg341 2.030 . S
O343 C349 1.248 1_545 S
O344 Mg341 1.990 . S
O344 C350 1.253 . S
O345 Mg341 2.117 . S
O345 C351 1.250 . S
C346 O352 1.248 1_545 S
C346 O353 1.264 . S
C347 O333 1.253 . S
C347 O335 1.260 . S
C348 O337 1.279 . S
C348 O338 1.250 . S
C349 O339 1.264 . S
C349 O343 1.248 1_565 S
C350 O340 1.260 1_545 S
C350 O344 1.253 . S
C351 O342 1.279 . S
C351 O345 1.250 . S
O352 Mg334 2.030 . S
O352 C346 1.248 1_565 S
O353 Mg336 2.079 . S
O353 C346 1.264 . S
O354 Mg355 1.990 . S
O354 C368 1.253 . S
Mg355 O354 1.990 . S
Mg355 O358 2.180 . S
Mg355 O359 2.117 . S
Mg355 O373 2.030 . S
O356 Mg357 2.072 . S
O356 C368 1.260 . S
Mg357 O356 2.072 . S
Mg357 O358 2.099 . S
Mg357 O360 2.079 . S
Mg357 O361 2.072 . S
Mg357 O363 2.099 . S
Mg357 O374 2.079 . S
O358 Mg355 2.180 . S
O358 Mg357 2.099 . S
O358 C369 1.279 . S
O359 Mg355 2.117 . S
O359 C369 1.250 . S
O360 Mg357 2.079 . S
O360 C370 1.264 . S
O361 Mg357 2.072 . S
O361 C371 1.260 . S
Mg362 O363 2.180 . S
Mg362 O364 2.030 . S
Mg362 O365 1.990 . S
Mg362 O366 2.117 . S
O363 Mg357 2.099 . S
O363 Mg362 2.180 . S
O363 C372 1.279 . S
O364 Mg362 2.030 . S
O364 C370 1.248 . S
O365 Mg362 1.990 . S
O365 C371 1.253 . S
O366 Mg362 2.117 . S
O366 C372 1.250 . S
C367 O373 1.248 . S
C367 O374 1.264 . S
C368 O354 1.253 . S
C368 O356 1.260 . S
C369 O358 1.279 . S
C369 O359 1.250 . S
C370 O360 1.264 . S
C370 O364 1.248 . S
C371 O361 1.260 . S
C371 O365 1.253 . S
C372 O363 1.279 . S
C372 O366 1.250 . S
O373 Mg355 2.030 . S
O373 C367 1.248 . S
O374 Mg357 2.079 . S
O374 C367 1.264 . S
O375 Mg376 1.990 . S
O375 C389 1.253 . S
Mg376 O375 1.990 . S
Mg376 O379 2.180 . S
Mg376 O380 2.117 . S
Mg376 O394 2.030 . S
O377 Mg378 2.072 1_655 S
O377 C389 1.260 . S
Mg378 O377 2.072 1_455 S
Mg378 O379 2.099 1_455 S
Mg378 O381 2.079 . S
Mg378 O382 2.072 . S
Mg378 O384 2.099 . S
Mg378 O395 2.079 1_455 S
O379 Mg376 2.180 . S
O379 Mg378 2.099 1_655 S
O379 C390 1.279 . S
O380 Mg376 2.117 . S
O380 C390 1.250 . S
O381 Mg378 2.079 . S
O381 C391 1.264 . S
O382 Mg378 2.072 . S
O382 C392 1.260 . S
Mg383 O384 2.180 . S
Mg383 O385 2.030 . S
Mg383 O386 1.990 . S
Mg383 O387 2.117 . S
O384 Mg378 2.099 . S
O384 Mg383 2.180 . S
O384 C393 1.279 . S
O385 Mg383 2.030 . S
O385 C391 1.248 . S
O386 Mg383 1.990 . S
O386 C392 1.253 . S
O387 Mg383 2.117 . S
O387 C393 1.250 . S
C388 O394 1.248 . S
C388 O395 1.264 . S
C389 O375 1.253 . S
C389 O377 1.260 . S
C390 O379 1.279 . S
C390 O380 1.250 . S
C391 O381 1.264 . S
C391 O385 1.248 . S
C392 O382 1.260 . S
C392 O386 1.253 . S
C393 O384 1.279 . S
C393 O387 1.250 . S
O394 Mg376 2.030 . S
O394 C388 1.248 . S
O395 Mg378 2.079 1_655 S
O395 C388 1.264 . S
C396 C397 1.363 . S
C396 C402 1.379 . S
C396 N404 1.356 . S
C397 C396 1.363 . S
C397 C403 1.363 . S
C398 C399 1.363 . S
C398 C403 1.379 . S
C398 N405 1.356 . S
C399 C398 1.363 . S
C399 C402 1.363 . S
N400 C402 1.356 . S
N400 H412 0.984 . S
N400 H413 0.985 . S
N401 C403 1.356 . S
N401 H406 0.984 . S
N401 H407 0.985 . S
C402 C396 1.379 . S
C402 C399 1.363 . S
C402 N400 1.356 . S
C403 C397 1.363 . S
C403 C398 1.379 . S
C403 N401 1.356 . S
N404 C396 1.356 . S
N404 H410 0.984 . S
N404 H411 0.984 . S
N405 C398 1.356 . S
N405 H408 0.985 1_545 S
N405 H409 0.985 1_545 S
H406 N401 0.984 . S
H407 N401 0.985 . S
H408 N405 0.985 1_565 S
H409 N405 0.985 1_565 S
H410 N404 0.984 . S
H411 N404 0.984 . S
H412 N400 0.984 . S
H413 N400 0.985 . S
C414 C415 1.363 . S
C414 C420 1.379 . S
C414 N422 1.356 . S
C415 C414 1.363 . S
C415 C421 1.363 . S
C416 C417 1.363 . S
C416 C421 1.379 . S
C416 N423 1.356 . S
C417 C416 1.363 . S
C417 C420 1.363 . S
N418 C420 1.356 . S
N418 H430 0.984 . S
N418 H431 0.985 . S
N419 C421 1.356 . S
N419 H424 0.984 . S
N419 H425 0.985 . S
C420 C414 1.379 . S
C420 C417 1.363 . S
C420 N418 1.356 . S
C421 C415 1.363 . S
C421 C416 1.379 . S
C421 N419 1.356 . S
N422 C414 1.356 . S
N422 H428 0.984 . S
N422 H429 0.984 . S
N423 C416 1.356 . S
N423 H426 0.984 . S
N423 H427 0.985 . S
H424 N419 0.984 . S
H425 N419 0.985 . S
H426 N423 0.984 . S
H427 N423 0.985 . S
H428 N422 0.984 . S
H429 N422 0.984 . S
H430 N418 0.984 . S
H431 N418 0.985 . S
C432 C433 1.363 . S
C432 C438 1.379 . S
C432 N440 1.356 . S
C433 C432 1.363 . S
C433 C439 1.363 . S
C434 C435 1.363 . S
C434 C439 1.379 . S
C434 N441 1.356 . S
C435 C434 1.363 . S
C435 C438 1.363 . S
N436 C438 1.356 . S
N436 H448 0.984 . S
N436 H449 0.985 . S
N437 C439 1.356 . S
N437 H442 0.984 . S
N437 H443 0.985 . S
C438 C432 1.379 . S
C438 C435 1.363 . S
C438 N436 1.356 . S
C439 C433 1.363 . S
C439 C434 1.379 . S
C439 N437 1.356 . S
N440 C432 1.356 . S
N440 H446 0.984 . S
N440 H447 0.984 . S
N441 C434 1.356 . S
N441 H444 0.984 . S
N441 H445 0.985 . S
H442 N437 0.984 . S
H443 N437 0.985 . S
H444 N441 0.984 . S
H445 N441 0.985 . S
H446 N440 0.984 . S
H447 N440 0.984 . S
H448 N436 0.984 . S
H449 N436 0.985 . S
C450 C451 1.363 1_655 S
C450 C456 1.379 . S
C450 N458 1.356 . S
C451 C450 1.363 1_455 S
C451 C457 1.363 . S
C452 C453 1.363 . S
C452 C457 1.379 . S
C452 N459 1.356 . S
C453 C452 1.363 . S
C453 C456 1.363 1_455 S
N454 C456 1.356 . S
N454 H466 0.984 . S
N454 H467 0.985 . S
N455 C457 1.356 . S
N455 H460 0.984 . S
N455 H461 0.985 . S
C456 C450 1.379 . S
C456 C453 1.363 1_655 S
C456 N454 1.356 . S
C457 C451 1.363 . S
C457 C452 1.379 . S
C457 N455 1.356 . S
N458 C450 1.356 . S
N458 H464 0.984 . S
N458 H465 0.984 . S
N459 C452 1.356 . S
N459 H462 0.984 . S
N459 H463 0.985 . S
H460 N455 0.984 . S
H461 N455 0.985 . S
H462 N459 0.984 . S
H463 N459 0.985 . S
H464 N458 0.984 . S
H465 N458 0.984 . S
H466 N454 0.984 . S
H467 N454 0.985 . S
C468 C469 1.363 . S
C468 C474 1.379 . S
C468 N476 1.356 . S
C469 C468 1.363 . S
C469 C475 1.363 . S
C470 C471 1.363 . S
C470 C475 1.379 . S
C470 N477 1.356 1_565 S
C471 C470 1.363 . S
C471 C474 1.363 . S
N472 C474 1.356 . S
N472 H484 0.984 . S
N472 H485 0.985 . S
N473 C475 1.356 . S
N473 H478 0.984 1_556 S
N473 H479 0.985 . S
C474 C468 1.379 . S
C474 C471 1.363 . S
C474 N472 1.356 . S
C475 C469 1.363 . S
C475 C470 1.379 . S
C475 N473 1.356 . S
N476 C468 1.356 . S
N476 H482 0.984 . S
N476 H483 0.984 . S
N477 C470 1.356 1_545 S
N477 H480 0.984 . S
N477 H481 0.985 . S
H478 N473 0.984 1_554 S
H479 N473 0.985 . S
H480 N477 0.984 . S
H481 N477 0.985 . S
H482 N476 0.984 . S
H483 N476 0.984 . S
H484 N472 0.984 . S
H485 N472 0.985 . S
C486 C487 1.363 . S
C486 C492 1.379 . S
C486 N494 1.356 . S
C487 C486 1.363 . S
C487 C493 1.363 . S
C488 C489 1.363 . S
C488 C493 1.379 . S
C488 N495 1.356 . S
C489 C488 1.363 . S
C489 C492 1.363 . S
N490 C492 1.356 . S
N490 H502 0.984 . S
N490 H503 0.985 . S
N491 C493 1.356 1_554 S
N491 H496 0.984 . S
N491 H497 0.985 . S
C492 C486 1.379 . S
C492 C489 1.363 . S
C492 N490 1.356 . S
C493 C487 1.363 . S
C493 C488 1.379 . S
C493 N491 1.356 1_556 S
N494 C486 1.356 . S
N494 H500 0.984 . S
N494 H501 0.984 . S
N495 C488 1.356 . S
N495 H498 0.984 . S
N495 H499 0.985 . S
H496 N491 0.984 . S
H497 N491 0.985 . S
H498 N495 0.984 . S
H499 N495 0.985 . S
H500 N494 0.984 . S
H501 N494 0.984 . S
H502 N490 0.984 . S
H503 N490 0.985 . S
C504 C505 1.363 . S
C504 C510 1.379 . S
C504 N512 1.356 1_556 S
C505 C504 1.363 . S
C505 C511 1.363 . S
C506 C507 1.363 . S
C506 C511 1.379 . S
C506 N513 1.356 . S
C507 C506 1.363 . S
C507 C510 1.363 . S
N508 C510 1.356 . S
N508 H520 0.984 . S
N508 H521 0.985 . S
N509 C511 1.356 . S
N509 H514 0.984 . S
N509 H515 0.985 . S
C510 C504 1.379 . S
C510 C507 1.363 . S
C510 N508 1.356 . S
C511 C505 1.363 . S
C511 C506 1.379 . S
C511 N509 1.356 . S
N512 C504 1.356 1_554 S
N512 H518 0.984 . S
N512 H519 0.984 . S
N513 C506 1.356 . S
N513 H516 0.984 . S
N513 H517 0.985 . S
H514 N509 0.984 . S
H515 N509 0.985 . S
H516 N513 0.984 . S
H517 N513 0.985 . S
H518 N512 0.984 . S
H519 N512 0.984 . S
H520 N508 0.984 . S
H521 N508 0.985 . S
C522 C523 1.363 1_655 S
C522 C528 1.379 1_655 S
C522 N530 1.356 1_556 S
C523 C522 1.363 1_455 S
C523 C529 1.363 . S
C524 C525 1.363 . S
C524 C529 1.379 . S
C524 N531 1.356 . S
C525 C524 1.363 . S
C525 C528 1.363 . S
N526 C528 1.356 . S
N526 H538 0.984 1_455 S
N526 H539 0.985 . S
N527 C529 1.356 . S
N527 H532 0.984 1_556 S
N527 H533 0.985 . S
C528 C522 1.379 1_455 S
C528 C525 1.363 . S
C528 N526 1.356 . S
C529 C523 1.363 . S
C529 C524 1.379 . S
C529 N527 1.356 . S
N530 C522 1.356 1_554 S
N530 H536 0.984 . S
N530 H537 0.984 . S
N531 C524 1.356 . S
N531 H534 0.984 . S
N531 H535 0.985 . S
H532 N527 0.984 1_554 S
H533 N527 0.985 . S
H534 N531 0.984 . S
H535 N531 0.985 . S
H536 N530 0.984 . S
H537 N530 0.984 . S
H538 N526 0.984 1_655 S
H539 N526 0.985 . S
C540 C541 1.363 1_655 S
C540 C546 1.379 . S
C540 N548 1.356 . S
C541 C540 1.363 1_455 S
C541 C547 1.363 . S
C542 C543 1.363 1_455 S
C542 C547 1.379 . S
C542 N549 1.356 . S
C543 C542 1.363 1_655 S
C543 C546 1.363 . S
N544 C546 1.356 . S
N544 H556 0.984 . S
N544 H557 0.985 . S
N545 C547 1.356 . S
N545 H550 0.984 . S
N545 H551 0.985 . S
C546 C540 1.379 . S
C546 C543 1.363 . S
C546 N544 1.356 . S
C547 C541 1.363 . S
C547 C542 1.379 . S
C547 N545 1.356 . S
N548 C540 1.356 . S
N548 H554 0.984 . S
N548 H555 0.984 . S
N549 C542 1.356 . S
N549 H552 0.984 . S
N549 H553 0.985 . S
H550 N545 0.984 . S
H551 N545 0.985 . S
H552 N549 0.984 . S
H553 N549 0.985 . S
H554 N548 0.984 . S
H555 N548 0.984 . S
H556 N544 0.984 . S
H557 N544 0.985 . S
C558 C559 1.363 . S
C558 C564 1.379 . S
C558 N566 1.356 . S
C559 C558 1.363 . S
C559 C565 1.363 . S
C560 C561 1.363 . S
C560 C565 1.379 . S
C560 N567 1.356 . S
C561 C560 1.363 . S
C561 C564 1.363 . S
N562 C564 1.356 . S
N562 H574 0.984 . S
N562 H575 0.985 . S
N563 C565 1.356 . S
N563 H568 0.984 . S
N563 H569 0.985 . S
C564 C558 1.379 . S
C564 C561 1.363 . S
C564 N562 1.356 . S
C565 C559 1.363 . S
C565 C560 1.379 . S
C565 N563 1.356 . S
N566 C558 1.356 . S
N566 H572 0.984 . S
N566 H573 0.984 . S
N567 C560 1.356 . S
N567 H570 0.984 1_545 S
N567 H571 0.985 . S
H568 N563 0.984 . S
H569 N563 0.985 . S
H570 N567 0.984 1_565 S
H571 N567 0.985 . S
H572 N566 0.984 . S
H573 N566 0.984 . S
H574 N562 0.984 . S
H575 N562 0.985 . S
C576 C577 1.363 . S
C576 C582 1.379 . S
C576 N584 1.356 . S
C577 C576 1.363 . S
C577 C583 1.363 . S
C578 C579 1.363 . S
C578 C583 1.379 . S
C578 N585 1.356 . S
C579 C578 1.363 . S
C579 C582 1.363 . S
N580 C582 1.356 . S
N580 H592 0.984 . S
N580 H593 0.985 . S
N581 C583 1.356 . S
N581 H586 0.984 . S
N581 H587 0.985 . S
C582 C576 1.379 . S
C582 C579 1.363 . S
C582 N580 1.356 . S
C583 C577 1.363 . S
C583 C578 1.379 . S
C583 N581 1.356 . S
N584 C576 1.356 . S
N584 H590 0.984 . S
N584 H591 0.984 . S
N585 C578 1.356 . S
N585 H588 0.984 . S
N585 H589 0.985 . S
H586 N581 0.984 . S
H587 N581 0.985 . S
H588 N585 0.984 . S
H589 N585 0.985 . S
H590 N584 0.984 . S
H591 N584 0.984 . S
H592 N580 0.984 . S
H593 N580 0.985 . S
C594 C595 1.363 . S
C594 C600 1.379 . S
C594 N602 1.356 . S
C595 C594 1.363 . S
C595 C601 1.363 . S
C596 C597 1.363 . S
C596 C601 1.379 . S
C596 N603 1.356 . S
C597 C596 1.363 . S
C597 C600 1.363 . S
N598 C600 1.356 . S
N598 H610 0.984 . S
N598 H611 0.985 . S
N599 C601 1.356 . S
N599 H604 0.984 . S
N599 H605 0.985 . S
C600 C594 1.379 . S
C600 C597 1.363 . S
C600 N598 1.356 . S
C601 C595 1.363 . S
C601 C596 1.379 . S
C601 N599 1.356 . S
N602 C594 1.356 . S
N602 H608 0.984 . S
N602 H609 0.984 . S
N603 C596 1.356 . S
N603 H606 0.984 . S
N603 H607 0.985 . S
H604 N599 0.984 . S
H605 N599 0.985 . S
H606 N603 0.984 . S
H607 N603 0.985 . S
H608 N602 0.984 . S
H609 N602 0.984 . S
H610 N598 0.984 . S
H611 N598 0.985 . S
C612 C613 1.363 . S
C612 C618 1.382 . S
C612 N620 1.356 . S
C613 C612 1.363 . S
C613 C619 1.363 1_655 S
C614 C615 1.363 . S
C614 C619 1.379 . S
C614 N621 1.356 . S
C615 C614 1.363 . S
C615 C618 1.356 1_455 S
N616 C618 1.357 . S
N616 H628 0.984 . S
N616 H629 0.985 1_655 S
N617 C619 1.356 . S
N617 H622 0.984 . S
N617 H623 0.985 . S
C618 C612 1.382 . S
C618 C615 1.356 1_655 S
C618 N616 1.357 . S
C619 C613 1.363 1_455 S
C619 C614 1.379 . S
C619 N617 1.356 . S
N620 C612 1.356 . S
N620 H626 0.984 1_556 S
N620 H627 0.984 . S
N621 C614 1.356 . S
N621 H624 0.984 . S
N621 H625 0.985 . S
H622 N617 0.984 . S
H623 N617 0.985 . S
H624 N621 0.984 . S
H625 N621 0.985 . S
H626 N620 0.984 1_554 S
H627 N620 0.984 . S
H628 N616 0.984 . S
H629 N616 0.985 1_455 S
C630 C631 1.363 . S
C630 C636 1.379 . S
C630 N638 1.356 . S
C631 C630 1.363 . S
C631 C637 1.363 . S
C632 C633 1.363 . S
C632 C637 1.379 . S
C632 N639 1.356 1_565 S
C633 C632 1.363 . S
C633 C636 1.363 . S
N634 C636 1.356 . S
N634 H646 0.984 . S
N634 H647 0.985 . S
N635 C637 1.356 . S
N635 H640 0.984 . S
N635 H641 0.985 . S
C636 C630 1.379 . S
C636 C633 1.363 . S
C636 N634 1.356 . S
C637 C631 1.363 . S
C637 C632 1.379 . S
C637 N635 1.356 . S
N638 C630 1.356 . S
N638 H644 0.984 . S
N638 H645 0.984 . S
N639 C632 1.356 1_545 S
N639 H642 0.984 . S
N639 H643 0.985 . S
H640 N635 0.984 . S
H641 N635 0.985 . S
H642 N639 0.984 . S
H643 N639 0.985 . S
H644 N638 0.984 . S
H645 N638 0.984 . S
H646 N634 0.984 . S
H647 N634 0.985 . S
C648 C649 1.363 . S
C648 C654 1.379 . S
C648 N656 1.356 . S
C649 C648 1.363 . S
C649 C655 1.363 . S
C650 C651 1.363 . S
C650 C655 1.379 . S
C650 N657 1.356 . S
C651 C650 1.363 . S
C651 C654 1.363 . S
N652 C654 1.356 . S
N652 H664 0.984 . S
N652 H665 0.985 . S
N653 C655 1.356 . S
N653 H658 0.984 . S
N653 H659 0.985 1_556 S
C654 C648 1.379 . S
C654 C651 1.363 . S
C654 N652 1.356 . S
C655 C649 1.363 . S
C655 C650 1.379 . S
C655 N653 1.356 . S
N656 C648 1.356 . S
N656 H662 0.984 . S
N656 H663 0.984 . S
N657 C650 1.356 . S
N657 H660 0.984 . S
N657 H661 0.985 . S
H658 N653 0.984 . S
H659 N653 0.985 1_554 S
H660 N657 0.984 . S
H661 N657 0.985 . S
H662 N656 0.984 . S
H663 N656 0.984 . S
H664 N652 0.984 . S
H665 N652 0.985 . S
C666 C667 1.363 . S
C666 C672 1.379 . S
C666 N674 1.356 . S
C667 C666 1.363 . S
C667 C673 1.363 . S
C668 C669 1.363 . S
C668 C673 1.379 . S
C668 N675 1.356 . S
C669 C668 1.363 . S
C669 C672 1.363 . S
N670 C672 1.356 . S
N670 H682 0.984 . S
N670 H683 0.985 . S
N671 C673 1.356 . S
N671 H676 0.984 . S
N671 H677 0.985 . S
C672 C666 1.379 . S
C672 C669 1.363 . S
C672 N670 1.356 . S
C673 C667 1.363 . S
C673 C668 1.379 . S
C673 N671 1.356 . S
N674 C666 1.356 . S
N674 H680 0.984 . S
N674 H681 0.984 . S
N675 C668 1.356 . S
N675 H678 0.984 . S
N675 H679 0.985 . S
H676 N671 0.984 . S
H677 N671 0.985 . S
H678 N675 0.984 . S
H679 N675 0.985 . S
H680 N674 0.984 . S
H681 N674 0.984 . S
H682 N670 0.984 . S
H683 N670 0.985 . S
C684 C685 1.363 1_655 S
C684 C690 1.379 . S
C684 N692 1.356 . S
C685 C684 1.363 1_455 S
C685 C691 1.363 . S
C686 C687 1.363 . S
C686 C691 1.379 . S
C686 N693 1.356 . S
C687 C686 1.363 . S
C687 C690 1.363 1_455 S
N688 C690 1.356 . S
N688 H700 0.984 . S
N688 H701 0.985 . S
N689 C691 1.356 . S
N689 H694 0.984 . S
N689 H695 0.985 . S
C690 C684 1.379 . S
C690 C687 1.363 1_655 S
C690 N688 1.356 . S
C691 C685 1.363 . S
C691 C686 1.379 . S
C691 N689 1.356 . S
N692 C684 1.356 . S
N692 H698 0.984 . S
N692 H699 0.984 . S
N693 C686 1.356 . S
N693 H696 0.984 . S
N693 H697 0.985 . S
H694 N689 0.984 . S
H695 N689 0.985 . S
H696 N693 0.984 . S
H697 N693 0.985 . S
H698 N692 0.984 . S
H699 N692 0.984 . S
H700 N688 0.984 . S
H701 N688 0.985 . S
C702 C703 1.363 . S
C702 C708 1.379 . S
C702 N710 1.356 . S
C703 C702 1.363 . S
C703 C709 1.363 . S
C704 C705 1.363 . S
C704 C709 1.379 . S
C704 N711 1.356 1_556 S
C705 C704 1.363 . S
C705 C708 1.363 . S
N706 C708 1.356 . S
N706 H718 0.984 . S
N706 H719 0.985 . S
N707 C709 1.356 1_554 S
N707 H712 0.984 . S
N707 H713 0.985 . S
C708 C702 1.379 . S
C708 C705 1.363 . S
C708 N706 1.356 . S
C709 C703 1.363 . S
C709 C704 1.379 . S
C709 N707 1.356 1_556 S
N710 C702 1.356 . S
N710 H716 0.984 . S
N710 H717 0.984 . S
N711 C704 1.356 1_554 S
N711 H714 0.984 1_554 S
N711 H715 0.985 . S
H712 N707 0.984 . S
H713 N707 0.985 . S
H714 N711 0.984 1_556 S
H715 N711 0.985 . S
H716 N710 0.984 . S
H717 N710 0.984 . S
H718 N706 0.984 . S
H719 N706 0.985 . S
C720 C721 1.363 . S
C720 C726 1.379 . S
C720 N728 1.356 1_556 S
C721 C720 1.363 . S
C721 C727 1.363 . S
C722 C723 1.363 . S
C722 C727 1.379 . S
C722 N729 1.356 . S
C723 C722 1.363 . S
C723 C726 1.363 . S
N724 C726 1.356 . S
N724 H736 0.984 1_556 S
N724 H737 0.985 . S
N725 C727 1.356 . S
N725 H730 0.984 . S
N725 H731 0.985 . S
C726 C720 1.379 . S
C726 C723 1.363 . S
C726 N724 1.356 . S
C727 C721 1.363 . S
C727 C722 1.379 . S
C727 N725 1.356 . S
N728 C720 1.356 1_554 S
N728 H734 0.984 . S
N728 H735 0.984 . S
N729 C722 1.356 . S
N729 H732 0.984 . S
N729 H733 0.985 . S
H730 N725 0.984 . S
H731 N725 0.985 . S
H732 N729 0.984 . S
H733 N729 0.985 . S
H734 N728 0.984 . S
H735 N728 0.984 . S
H736 N724 0.984 1_554 S
H737 N724 0.985 . S
C738 C739 1.363 1_554 S
C738 C744 1.379 1_554 S
C738 N746 1.356 . S
C739 C738 1.363 1_556 S
C739 C745 1.363 . S
C740 C741 1.363 . S
C740 C745 1.379 . S
C740 N747 1.356 . S
C741 C740 1.363 . S
C741 C744 1.363 . S
N742 C744 1.356 1_554 S
N742 H754 0.984 . S
N742 H755 0.985 1_554 S
N743 C745 1.356 . S
N743 H748 0.984 . S
N743 H749 0.985 . S
C744 C738 1.379 1_556 S
C744 C741 1.363 . S
C744 N742 1.356 1_556 S
C745 C739 1.363 . S
C745 C740 1.379 . S
C745 N743 1.356 . S
N746 C738 1.356 . S
N746 H752 0.984 . S
N746 H753 0.984 . S
N747 C740 1.356 . S
N747 H750 0.984 . S
N747 H751 0.985 . S
H748 N743 0.984 . S
H749 N743 0.985 . S
H750 N747 0.984 . S
H751 N747 0.985 . S
H752 N746 0.984 . S
H753 N746 0.984 . S
H754 N742 0.984 . S
H755 N742 0.985 1_556 S
C756 C757 1.363 1_455 S
C756 C762 1.379 . S
C756 N764 1.356 . S
C757 C756 1.363 1_655 S
C757 C763 1.363 . S
C758 C759 1.363 . S
C758 C763 1.379 . S
C758 N765 1.356 . S
C759 C758 1.363 . S
C759 C762 1.363 1_655 S
N760 C762 1.356 . S
N760 H772 0.984 . S
N760 H773 0.985 . S
N761 C763 1.356 . S
N761 H766 0.984 . S
N761 H767 0.985 . S
C762 C756 1.379 . S
C762 C759 1.363 1_455 S
C762 N760 1.356 . S
C763 C757 1.363 . S
C763 C758 1.379 . S
C763 N761 1.356 . S
N764 C756 1.356 . S
N764 H770 0.984 . S
N764 H771 0.984 . S
N765 C758 1.356 . S
N765 H768 0.984 . S
N765 H769 0.985 . S
H766 N761 0.984 . S
H767 N761 0.985 . S
H768 N765 0.984 . S
H769 N765 0.985 . S
H770 N764 0.984 . S
H771 N764 0.984 . S
H772 N760 0.984 . S
H773 N760 0.985 . S
C774 C775 1.363 . S
C774 C780 1.379 . S
C774 N782 1.356 . S
C775 C774 1.363 . S
C775 C781 1.363 . S
C776 C777 1.363 . S
C776 C781 1.379 . S
C776 N783 1.356 . S
C777 C776 1.363 . S
C777 C780 1.363 . S
N778 C780 1.356 . S
N778 H790 0.984 . S
N778 H791 0.985 . S
N779 C781 1.356 . S
N779 H784 0.984 . S
N779 H785 0.985 . S
C780 C774 1.379 . S
C780 C777 1.363 . S
C780 N778 1.356 . S
C781 C775 1.363 . S
C781 C776 1.379 . S
C781 N779 1.356 . S
N782 C774 1.356 . S
N782 H788 0.984 . S
N782 H789 0.984 . S
N783 C776 1.356 . S
N783 H786 0.984 . S
N783 H787 0.985 . S
H784 N779 0.984 . S
H785 N779 0.985 . S
H786 N783 0.984 . S
H787 N783 0.985 . S
H788 N782 0.984 . S
H789 N782 0.984 . S
H790 N778 0.984 . S
H791 N778 0.985 . S
C792 C793 1.363 . S
C792 C798 1.379 . S
C792 N800 1.356 . S
C793 C792 1.363 . S
C793 C799 1.363 . S
C794 C795 1.363 . S
C794 C799 1.379 . S
C794 N801 1.356 . S
C795 C794 1.363 . S
C795 C798 1.363 . S
N796 C798 1.356 . S
N796 H808 0.984 . S
N796 H809 0.985 . S
N797 C799 1.356 . S
N797 H802 0.984 . S
N797 H803 0.985 . S
C798 C792 1.379 . S
C798 C795 1.363 . S
C798 N796 1.356 . S
C799 C793 1.363 . S
C799 C794 1.379 . S
C799 N797 1.356 . S
N800 C792 1.356 . S
N800 H806 0.984 . S
N800 H807 0.984 . S
N801 C794 1.356 . S
N801 H804 0.984 . S
N801 H805 0.985 . S
H802 N797 0.984 . S
H803 N797 0.985 . S
H804 N801 0.984 . S
H805 N801 0.985 . S
H806 N800 0.984 . S
H807 N800 0.984 . S
H808 N796 0.984 . S
H809 N796 0.985 . S
C810 C811 1.363 . S
C810 C816 1.379 . S
C810 N818 1.356 . S
C811 C810 1.363 . S
C811 C817 1.363 . S
C812 C813 1.363 . S
C812 C817 1.379 . S
C812 N819 1.356 . S
C813 C812 1.363 . S
C813 C816 1.363 . S
N814 C816 1.356 . S
N814 H826 0.984 . S
N814 H827 0.985 . S
N815 C817 1.356 . S
N815 H820 0.984 . S
N815 H821 0.985 . S
C816 C810 1.379 . S
C816 C813 1.363 . S
C816 N814 1.356 . S
C817 C811 1.363 . S
C817 C812 1.379 . S
C817 N815 1.356 . S
N818 C810 1.356 . S
N818 H824 0.984 . S
N818 H825 0.984 . S
N819 C812 1.356 . S
N819 H822 0.984 . S
N819 H823 0.985 . S
H820 N815 0.984 . S
H821 N815 0.985 . S
H822 N819 0.984 . S
H823 N819 0.985 . S
H824 N818 0.984 . S
H825 N818 0.984 . S
H826 N814 0.984 . S
H827 N814 0.985 . S
C397 C255 2.053 . S
C399 C327 2.076 . S
C417 C351 1.645 . S
C415 C294 1.804 . S
C435 C372 2.010 . S
C433 C177 1.987 . S
C453 C390 1.675 1_455 S
C451 C216 1.854 . S
C471 C330 1.970 1_565 S
C469 C99 1.949 1_556 S
C487 C138 1.611 1_556 S
C489 C348 1.484 . S
C505 C21 1.964 1_556 S
C507 C369 1.977 . S
C523 C60 1.592 1_456 S
C525 C393 1.460 . S
C543 C328 0.752 . S
C541 C196 0.753 . S
C561 C346 1.177 . S
C559 C235 1.089 . S
C579 C367 0.741 . S
C577 C289 0.740 . S
C595 C157 1.088 . S
C597 C391 1.174 . S
C613 C40 0.846 . S
C615 C326 0.853 . S
C633 C350 1.270 1_565 S
C631 C79 1.135 . S
C651 C371 0.812 . S
C649 C133 0.809 . S
C667 C1 1.142 . S
C669 C389 1.275 . S
C685 C211 2.011 . S
C687 C329 2.078 . S
C703 C250 2.228 1_556 S
C705 C347 2.325 . S
C723 C368 2.061 . S
C721 C274 2.003 . S
C741 C392 2.297 . S
C739 C172 2.202 1_556 S
C757 C55 1.873 . S
C759 C325 1.918 1_655 S
C777 C349 2.180 . S
C775 C94 2.101 . S
C795 C370 1.967 . S
C793 C118 1.933 . S
C811 C16 2.073 . S
C813 C388 2.158 . S
