# Generated by pormake.
# Topology the, (3,8)-cn, num edge types: 1
# Building blocks:
#     Node 0, Type 0, BuildingBlock: BETDIP_clean_linker_0, # of connection points: 3
#     Node 1, Type 0, BuildingBlock: BETDIP_clean_linker_0, # of connection points: 3
#     Node 2, Type 0, BuildingBlock: BETDIP_clean_linker_0, # of connection points: 3
#     Node 3, Type 0, BuildingBlock: BETDIP_clean_linker_0, # of connection points: 3
#     Node 4, Type 0, BuildingBlock: BETDIP_clean_linker_0, # of connection points: 3
#     Node 5, Type 0, BuildingBlock: BETDIP_clean_linker_0, # of connection points: 3
#     Node 6, Type 0, BuildingBlock: BETDIP_clean_linker_0, # of connection points: 3
#     Node 7, Type 0, BuildingBlock: BETDIP_clean_linker_0, # of connection points: 3
#     Node 8, Type 1, BuildingBlock: GIZVER_clean_sbu_0, # of connection points: 8
#     Node 9, Type 1, BuildingBlock: GIZVER_clean_sbu_0, # of connection points: 8
#     Node 10, Type 1, BuildingBlock: GIZVER_clean_sbu_0, # of connection points: 8
#     Edge 11, Type (0, 1), BuildingBlock: ZUJKAS_clean_linker_0, # of connection points: 2
#     Edge 12, Type (0, 1), BuildingBlock: ZUJKAS_clean_linker_0, # of connection points: 2
#     Edge 13, Type (0, 1), BuildingBlock: ZUJKAS_clean_linker_0, # of connection points: 2
#     Edge 14, Type (0, 1), BuildingBlock: ZUJKAS_clean_linker_0, # of connection points: 2
#     Edge 15, Type (0, 1), BuildingBlock: ZUJKAS_clean_linker_0, # of connection points: 2
#     Edge 16, Type (0, 1), BuildingBlock: ZUJKAS_clean_linker_0, # of connection points: 2
#     Edge 17, Type (0, 1), BuildingBlock: ZUJKAS_clean_linker_0, # of connection points: 2
#     Edge 18, Type (0, 1), BuildingBlock: ZUJKAS_clean_linker_0, # of connection points: 2
#     Edge 19, Type (0, 1), BuildingBlock: ZUJKAS_clean_linker_0, # of connection points: 2
#     Edge 20, Type (0, 1), BuildingBlock: ZUJKAS_clean_linker_0, # of connection points: 2
#     Edge 21, Type (0, 1), BuildingBlock: ZUJKAS_clean_linker_0, # of connection points: 2
#     Edge 22, Type (0, 1), BuildingBlock: ZUJKAS_clean_linker_0, # of connection points: 2
#     Edge 23, Type (0, 1), BuildingBlock: ZUJKAS_clean_linker_0, # of connection points: 2
#     Edge 24, Type (0, 1), BuildingBlock: ZUJKAS_clean_linker_0, # of connection points: 2
#     Edge 25, Type (0, 1), BuildingBlock: ZUJKAS_clean_linker_0, # of connection points: 2
#     Edge 26, Type (0, 1), BuildingBlock: ZUJKAS_clean_linker_0, # of connection points: 2
#     Edge 27, Type (0, 1), BuildingBlock: ZUJKAS_clean_linker_0, # of connection points: 2
#     Edge 28, Type (0, 1), BuildingBlock: ZUJKAS_clean_linker_0, # of connection points: 2
#     Edge 29, Type (0, 1), BuildingBlock: ZUJKAS_clean_linker_0, # of connection points: 2
#     Edge 30, Type (0, 1), BuildingBlock: ZUJKAS_clean_linker_0, # of connection points: 2
#     Edge 31, Type (0, 1), BuildingBlock: ZUJKAS_clean_linker_0, # of connection points: 2
#     Edge 32, Type (0, 1), BuildingBlock: ZUJKAS_clean_linker_0, # of connection points: 2
#     Edge 33, Type (0, 1), BuildingBlock: ZUJKAS_clean_linker_0, # of connection points: 2
#     Edge 34, Type (0, 1), BuildingBlock: ZUJKAS_clean_linker_0, # of connection points: 2
# Relax obj value: 0.082
# Max RMSD: 0.189
# Mean RMSD: 0.143
data_MOF--net-the--node1-GIZVER_clean_sbu_0--node2-BETDIP_clean_linker_0--edge1-ZUJKAS_clean_linker_0
_symmetry_space_group_name_H-M    P1
_symmetry_Int_Tables_number       1
_symmetry_cell_setting            triclinic
loop_
_symmetry_equiv_pos_as_xyz
'x, y, z'
_cell_length_a     51.896521
_cell_length_b     48.680807
_cell_length_c     46.903128
_cell_angle_alpha  90.588064
_cell_angle_beta   89.758163
_cell_angle_gamma 107.44472
loop_
_atom_site_label
_atom_site_type_symbol
_atom_site_fract_x
_atom_site_fract_y
_atom_site_fract_z
_atom_type_partial_charge
H0 H 0.30197 0.33198 0.43416 0.0
H1 H 0.35373 0.33248 0.36241 0.0
H2 H 0.29565 0.3794 0.35893 0.0
H3 H 0.38154 0.32511 0.3969 0.0
C4 C 0.36757 0.3102 0.41099 0.0
C5 C 0.30853 0.33907 0.41277 0.0
C6 C 0.29613 0.3566 0.39798 0.0
C7 C 0.32984 0.33107 0.40052 0.0
C8 C 0.33829 0.33992 0.37264 0.0
C9 C 0.32608 0.35741 0.35739 0.0
C10 C 0.30514 0.36582 0.37039 0.0
N11 N 0.34158 0.31317 0.41637 0.0
H12 H 0.73282 0.37445 0.2994 0.0
H13 H 0.6628 0.30009 0.29283 0.0
H14 H 0.72209 0.30355 0.35719 0.0
H15 H 0.66511 0.31272 0.24676 0.0
C16 C 0.67039 0.33605 0.24765 0.0
C17 C 0.72142 0.35322 0.30669 0.0
C18 C 0.73058 0.34094 0.33022 0.0
C19 C 0.69738 0.33842 0.29255 0.0
C20 C 0.68187 0.31135 0.30274 0.0
C21 C 0.69073 0.29865 0.326 0.0
C22 C 0.7152 0.31343 0.33933 0.0
N23 N 0.68883 0.3516 0.2688 0.0
H24 H 0.70763 0.66879 0.31496 0.0
H25 H 0.71482 0.73172 0.38184 0.0
H26 H 0.65717 0.7247 0.31461 0.0
H27 H 0.75419 0.72474 0.39026 0.0
C28 C 0.75357 0.70339 0.3828 0.0
C29 C 0.70129 0.68608 0.32452 0.0
C30 C 0.68085 0.69513 0.31154 0.0
C31 C 0.71411 0.69938 0.34948 0.0
C32 C 0.70575 0.72168 0.36217 0.0
C33 C 0.68539 0.73118 0.34956 0.0
C34 C 0.67328 0.71796 0.32408 0.0
N35 N 0.73481 0.6892 0.36133 0.0
H36 H 0.25051 0.67838 0.28051 0.0
H37 H 0.32843 0.73972 0.29347 0.0
H38 H 0.26152 0.74315 0.34629 0.0
H39 H 0.33797 0.72322 0.25014 0.0
C40 C 0.3261 0.70067 0.25039 0.0
C41 C 0.26318 0.69709 0.29177 0.0
C42 C 0.25256 0.70939 0.31441 0.0
C43 C 0.29028 0.70789 0.28392 0.0
C44 C 0.30712 0.73195 0.29848 0.0
C45 C 0.29681 0.74501 0.32092 0.0
C46 C 0.26944 0.73365 0.32861 0.0
N47 N 0.30017 0.69204 0.26328 0.0
H48 H 0.30164 0.64762 0.74066 0.0
H49 H 0.37296 0.72098 0.74412 0.0
H50 H 0.31453 0.7144 0.67801 0.0
H51 H 0.37416 0.70904 0.78936 0.0
C52 C 0.36634 0.68574 0.79008 0.0
C53 C 0.31366 0.66813 0.73224 0.0
C54 C 0.30523 0.67908 0.70748 0.0
C55 C 0.33782 0.6832 0.74602 0.0
C56 C 0.35374 0.70958 0.73463 0.0
C57 C 0.34551 0.72094 0.71003 0.0
C58 C 0.32125 0.70551 0.69667 0.0
N59 N 0.34602 0.67067 0.77043 0.0
H60 H 0.32802 0.357 0.71911 0.0
H61 H 0.32142 0.29557 0.65099 0.0
H62 H 0.37598 0.29855 0.72051 0.0
H63 H 0.28061 0.30221 0.64469 0.0
C64 C 0.28305 0.32451 0.65038 0.0
C65 C 0.33388 0.33932 0.70974 0.0
C66 C 0.35337 0.32917 0.72326 0.0
C67 C 0.3219 0.32716 0.68399 0.0
C68 C 0.33003 0.30478 0.67115 0.0
C69 C 0.34951 0.29422 0.68423 0.0
C70 C 0.36096 0.30652 0.71033 0.0
N71 N 0.30239 0.33863 0.67137 0.0
H72 H 0.7045 0.27238 0.74817 0.0
H73 H 0.77948 0.3395 0.75842 0.0
H74 H 0.77118 0.27652 0.69165 0.0
H75 H 0.76406 0.34234 0.80323 0.0
C76 C 0.7427 0.33889 0.79937 0.0
C77 C 0.72537 0.28202 0.74191 0.0
C78 C 0.73594 0.27119 0.71815 0.0
C79 C 0.74106 0.30615 0.757 0.0
C80 C 0.76769 0.3198 0.74809 0.0
C81 C 0.77864 0.30933 0.72442 0.0
C82 C 0.76274 0.28481 0.7098 0.0
N83 N 0.72863 0.31774 0.77923 0.0
H84 H 0.68006 0.69781 0.67653 0.0
H85 H 0.73124 0.69573 0.60476 0.0
H86 H 0.73853 0.65129 0.68142 0.0
H87 H 0.72066 0.7345 0.59112 0.0
C88 C 0.70083 0.73298 0.59969 0.0
C89 C 0.69594 0.69057 0.66692 0.0
C90 C 0.70822 0.6734 0.68249 0.0
C91 C 0.70439 0.69924 0.63916 0.0
C92 C 0.72511 0.69015 0.62653 0.0
C93 C 0.73751 0.67284 0.64172 0.0
C94 C 0.72898 0.66464 0.66966 0.0
N95 N 0.69121 0.7167 0.62463 0.0
Co96 Co 0.0701 0.48802 0.52931 0.0
Co97 Co 0.04016 0.47173 0.4834 0.0
Co98 Co 0.01615 0.51351 0.52032 0.0
O99 O 0.03222 0.48075 0.52064 0.0
H100 H 0.02077 0.46392 0.53009 0.0
O101 O 1.00028 0.54628 0.51983 0.0
Co102 Co 0.96246 0.53973 0.5121 0.0
Co103 Co 0.99378 0.55613 0.55718 0.0
H104 H 0.01166 0.56294 0.51009 0.0
O105 O 0.04704 0.43711 0.47395 0.0
O106 O 0.07676 0.47809 0.48967 0.0
O107 O 0.03737 0.49814 0.45403 0.0
O108 O 0.03666 0.53243 0.48552 0.0
O109 O 0.98615 0.48969 0.49539 0.0
O110 O 0.92827 0.53719 0.50395 0.0
O111 O 0.96493 0.57608 0.5012 0.0
O112 O 0.95524 0.50066 0.52121 0.0
O113 O 0.99544 0.49486 0.55516 0.0
O114 O 0.99773 0.53012 0.58653 0.0
O115 O 0.9569 0.5489 0.55223 0.0
O116 O 0.98628 0.59067 0.56654 0.0
C117 C 0.09405 0.46461 0.54496 0.0
C118 C 0.07082 0.54202 0.53864 0.0
C119 C 0.04007 0.52431 0.46015 0.0
C120 C 0.07172 0.45193 0.47994 0.0
C121 C 0.93899 0.56421 0.49763 0.0
C122 C 0.96133 0.48541 0.50171 0.0
C123 C 0.99325 0.50358 0.58063 0.0
C124 C 0.96161 0.57499 0.56188 0.0
O125 O 0.10419 0.49167 0.5386 0.0
O126 O 0.06827 0.45195 0.54093 0.0
O127 O 0.04606 0.53734 0.54532 0.0
O128 O 0.07685 0.52675 0.51918 0.0
Co129 Co 0.54028 0.95554 0.49664 0.0
Co130 Co 0.55611 0.9826 0.5455 0.0
Co131 Co 0.51588 0.01075 0.5179 0.0
O132 O 0.54645 0.99449 0.5105 0.0
H133 H 0.5618 0.00811 0.50163 0.0
O134 O 0.48541 0.02727 0.52508 0.0
Co135 Co 0.49178 0.06642 0.53886 0.0
Co136 Co 0.47622 0.03949 0.48982 0.0
H137 H 0.46995 0.01371 0.53386 0.0
O138 O 0.58889 0.97552 0.55095 0.0
O139 O 0.55024 0.94445 0.53467 0.0
O140 O 0.53276 0.98206 0.57771 0.0
O141 O 0.49898 0.98223 0.54902 0.0
O142 O 0.53877 0.0378 0.54636 0.0
O143 O 0.49462 0.1014 0.55233 0.0
O144 O 0.45752 0.06289 0.55126 0.0
O145 O 0.52888 0.07548 0.52925 0.0
O146 O 0.53291 0.03926 0.48698 0.0
O147 O 0.49982 0.04005 0.45765 0.0
O148 O 0.48269 0.07775 0.50061 0.0
O149 O 0.44383 0.04744 0.48396 0.0
C150 C 0.56297 0.93231 0.47717 0.0
C151 C 0.48822 0.95634 0.49158 0.0
C152 C 0.50765 0.97584 0.5728 0.0
C153 C 0.57512 0.94962 0.54318 0.0
C154 C 0.46908 0.09 0.55779 0.0
C155 C 0.54379 0.065 0.54452 0.0
C156 C 0.5248 0.0459 0.46306 0.0
C157 C 0.45808 0.07323 0.49154 0.0
O158 O 0.53754 0.92064 0.48306 0.0
O159 O 0.57438 0.95946 0.48359 0.0
O160 O 0.49297 0.9835 0.48949 0.0
O161 O 0.50338 0.94625 0.50693 0.0
Co162 Co 0.47893 0.509 0.0763 0.0
Co163 Co 0.47132 0.45928 0.05005 0.0
Co164 Co 0.51733 0.50924 0.01831 0.0
O165 O 0.48156 0.49747 0.03768 0.0
H166 H 0.46754 0.50059 0.02582 0.0
O167 O 0.55332 0.52111 0.99942 0.0
Co168 Co 0.55773 0.50799 0.96208 0.0
Co169 Co 0.56343 0.55827 0.98518 0.0
H170 H 0.56723 0.51914 0.01213 0.0
O171 O 0.43563 0.43886 0.06126 0.0
O172 O 0.46782 0.46854 0.08812 0.0
O173 O 0.49948 0.441 0.04953 0.0
O174 O 0.53225 0.48163 0.04049 0.0
O175 O 0.5014 0.4789 0.98832 0.0
O176 O 0.56509 0.49519 0.9284 0.0
O177 O 0.59205 0.50789 0.96689 0.0
O178 O 0.52195 0.50559 0.95249 0.0
O179 O 0.50229 0.53675 0.99607 0.0
O180 O 0.5351 0.57601 0.98312 0.0
O181 O 0.56932 0.54789 0.94808 0.0
O182 O 0.59929 0.57909 0.97624 0.0
C183 C 0.44987 0.51863 0.10013 0.0
C184 C 0.53309 0.533 0.07443 0.0
C185 C 0.52428 0.45558 0.04928 0.0
C186 C 0.44385 0.45042 0.08591 0.0
C187 C 0.58794 0.49744 0.94101 0.0
C188 C 0.50268 0.48488 0.96179 0.0
C189 C 0.51025 0.56201 0.9853 0.0
C190 C 0.59271 0.56699 0.95145 0.0
O191 O 0.47316 0.52004 0.11125 0.0
O192 O 0.44451 0.50962 0.0739 0.0
O193 O 0.53314 0.53965 0.04819 0.0
O194 O 0.51511 0.51101 0.08357 0.0
H195 H 0.28838 0.40967 0.39811 0.0
H196 H 0.2497 0.42287 0.41708 0.0
H197 H 0.21415 0.336 0.44639 0.0
H198 H 0.25276 0.32255 0.42731 0.0
H199 H 0.19549 0.39565 0.39917 0.0
H200 H 0.20722 0.38604 0.51636 0.0
H201 H 0.23553 0.39233 0.49211 0.0
H202 H 0.2111 0.35738 0.49396 0.0
C203 C 0.27237 0.3934 0.40867 0.0
C204 C 0.27354 0.36505 0.41112 0.0
C205 C 0.2504 0.40101 0.41965 0.0
C206 C 0.22928 0.38048 0.43341 0.0
C207 C 0.23055 0.35229 0.43637 0.0
H208 H 0.06839 0.39703 0.46279 0.0
H209 H 0.10586 0.37718 0.4537 0.0
C210 C 0.25257 0.34464 0.42542 0.0
C211 C 0.20502 0.3882 0.44249 0.0
H212 H 0.16902 0.39829 0.50076 0.0
C213 C 0.18962 0.39609 0.42135 0.0
C214 C 0.19749 0.38868 0.47146 0.0
C215 C 0.21371 0.38084 0.49492 0.0
C216 C 0.16697 0.40474 0.42843 0.0
C217 C 0.15957 0.40546 0.45736 0.0
C218 C 0.17478 0.39741 0.47858 0.0
C219 C 0.13691 0.41619 0.46574 0.0
C220 C 0.15138 0.41373 0.40506 0.0
C221 C 0.14218 0.44452 0.47575 0.0
C222 C 0.12095 0.45606 0.48053 0.0
C223 C 0.09407 0.43929 0.47573 0.0
C224 C 0.08886 0.41055 0.46655 0.0
C225 C 0.11017 0.39911 0.46151 0.0
H226 H 0.16122 0.41439 0.38389 0.0
H227 H 0.13074 0.3983 0.40381 0.0
H228 H 0.1493 0.43533 0.40994 0.0
H229 H 0.16277 0.45798 0.47897 0.0
H230 H 0.1257 0.47827 0.48755 0.0
H231 H 0.63635 0.28063 0.33643 0.0
H232 H 0.6095 0.23467 0.35666 0.0
H233 H 0.68071 0.20669 0.36086 0.0
H234 H 0.7077 0.25253 0.34044 0.0
H235 H 0.62956 0.16445 0.33739 0.0
H236 H 0.6188 0.21327 0.44289 0.0
H237 H 0.61107 0.23096 0.412 0.0
H238 H 0.64508 0.23049 0.41785 0.0
C239 C 0.64623 0.26456 0.34135 0.0
C240 C 0.67416 0.27023 0.33694 0.0
C241 C 0.63091 0.23841 0.35304 0.0
C242 C 0.64319 0.21743 0.36041 0.0
C243 C 0.6709 0.22267 0.35537 0.0
H244 H 0.57846 0.07271 0.47301 0.0
H245 H 0.60857 0.11226 0.44612 0.0
C246 C 0.68629 0.2489 0.34388 0.0
C247 C 0.62728 0.19038 0.3742 0.0
H248 H 0.59459 0.16421 0.43604 0.0
C249 C 0.62192 0.16431 0.35896 0.0
C250 C 0.61762 0.19033 0.40243 0.0
C251 C 0.62352 0.21767 0.41995 0.0
C252 C 0.60665 0.13816 0.37112 0.0
C253 C 0.59655 0.13821 0.39916 0.0
C254 C 0.60233 0.16425 0.41452 0.0
C255 C 0.57954 0.11167 0.41301 0.0
C256 C 0.60161 0.11064 0.35406 0.0
C257 C 0.55339 0.09781 0.40296 0.0
C258 C 0.53602 0.07519 0.41833 0.0
C259 C 0.54449 0.06604 0.44408 0.0
C260 C 0.57122 0.07907 0.45325 0.0
C261 C 0.58848 0.10178 0.43797 0.0
H262 H 0.61546 0.11327 0.33547 0.0
H263 H 0.60407 0.09302 0.36761 0.0
H264 H 0.58055 0.10406 0.34599 0.0
H265 H 0.54598 0.10534 0.38393 0.0
H266 H 0.5156 0.06573 0.41064 0.0
H267 H 0.79215 0.72639 0.42234 0.0
H268 H 0.82597 0.70568 0.44164 0.0
H269 H 0.79436 0.63015 0.38874 0.0
H270 H 0.76072 0.65089 0.36914 0.0
H271 H 0.81821 0.65538 0.47132 0.0
H272 H 0.87522 0.65227 0.3717 0.0
H273 H 0.85157 0.6728 0.37505 0.0
H274 H 0.83959 0.63459 0.36866 0.0
C275 C 0.79252 0.70542 0.41473 0.0
C276 C 0.77387 0.69036 0.39415 0.0
C277 C 0.81184 0.69361 0.42577 0.0
C278 C 0.81303 0.66655 0.41633 0.0
C279 C 0.79426 0.65134 0.3959 0.0
H280 H 0.88389 0.54809 0.49655 0.0
H281 H 0.85477 0.57481 0.47785 0.0
C282 C 0.7749 0.66315 0.38484 0.0
C283 C 0.83325 0.65385 0.42866 0.0
H284 H 0.885 0.62672 0.41133 0.0
C285 C 0.83292 0.64931 0.4582 0.0
C286 C 0.85272 0.64624 0.41164 0.0
C287 C 0.85506 0.65195 0.38004 0.0
C288 C 0.85093 0.63661 0.47101 0.0
C289 C 0.8696 0.62788 0.45385 0.0
C290 C 0.87053 0.63321 0.42444 0.0
C291 C 0.88757 0.6122 0.46592 0.0
C292 C 0.84975 0.63243 0.50281 0.0
C293 C 0.91579 0.62421 0.46527 0.0
C294 C 0.9326 0.60895 0.47604 0.0
C295 C 0.92148 0.58119 0.48726 0.0
C296 C 0.89319 0.56935 0.48798 0.0
C297 C 0.87646 0.58467 0.47743 0.0
H298 H 0.83893 0.64611 0.51372 0.0
H299 H 0.83877 0.6096 0.50728 0.0
H300 H 0.87036 0.63729 0.51196 0.0
H301 H 0.92479 0.64541 0.45643 0.0
H302 H 0.95428 0.61869 0.47517 0.0
H303 H 0.33616 0.79197 0.30082 0.0
H304 H 0.36747 0.83049 0.32871 0.0
H305 H 0.33008 0.79109 0.40646 0.0
H306 H 0.2989 0.7525 0.37885 0.0
H307 H 0.33993 0.85133 0.40537 0.0
H308 H 0.43077 0.81954 0.37508 0.0
H309 H 0.41133 0.82606 0.34571 0.0
H310 H 0.39685 0.79638 0.36907 0.0
C311 C 0.33468 0.79149 0.32386 0.0
C312 C 0.31507 0.76915 0.33761 0.0
C313 C 0.35255 0.81349 0.33975 0.0
C314 C 0.35126 0.81343 0.36965 0.0
C315 C 0.33137 0.79154 0.3834 0.0
H316 H 0.47252 0.89758 0.49219 0.0
H317 H 0.43825 0.86436 0.46264 0.0
C318 C 0.31349 0.76957 0.36756 0.0
C319 C 0.37096 0.83577 0.38677 0.0
H320 H 0.43793 0.8615 0.40343 0.0
C321 C 0.36138 0.85368 0.4049 0.0
C322 C 0.39887 0.83848 0.38633 0.0
C323 C 0.41015 0.81898 0.36822 0.0
C324 C 0.379 0.87425 0.42267 0.0
C325 C 0.40694 0.87716 0.42198 0.0
C326 C 0.4165 0.85931 0.40377 0.0
C327 C 0.42657 0.8977 0.44081 0.0
C328 C 0.36751 0.89212 0.44261 0.0
C329 C 0.43128 0.92752 0.43844 0.0
C330 C 0.45086 0.94668 0.45542 0.0
C331 C 0.46619 0.93629 0.4749 0.0
C332 C 0.46111 0.90636 0.47742 0.0
C333 C 0.44156 0.8873 0.46051 0.0
H334 H 0.3453 0.88283 0.44518 0.0
H335 H 0.37711 0.89403 0.46395 0.0
H336 H 0.37163 0.91411 0.43387 0.0
H337 H 0.42024 0.93601 0.42303 0.0
H338 H 0.45436 0.96959 0.45285 0.0
H339 H 0.25511 0.65419 0.73071 0.0
H340 H 0.21289 0.63011 0.70528 0.0
H341 H 0.25585 0.64423 0.6253 0.0
H342 H 0.29795 0.66818 0.65044 0.0
H343 H 0.18987 0.65662 0.65674 0.0
H344 H 0.21267 0.5552 0.6285 0.0
H345 H 0.22883 0.57813 0.6579 0.0
H346 H 0.23929 0.588 0.62194 0.0
C347 C 0.25556 0.65185 0.70774 0.0
C348 C 0.27983 0.66309 0.69256 0.0
C349 C 0.23144 0.63827 0.69326 0.0
C350 C 0.23132 0.63531 0.66345 0.0
C351 C 0.25556 0.64615 0.64833 0.0
H352 H 0.12426 0.56229 0.52593 0.0
H353 H 0.16145 0.58598 0.5578 0.0
C354 C 0.27955 0.65994 0.66271 0.0
C355 C 0.20588 0.62147 0.64781 0.0
H356 H 0.17523 0.56358 0.60547 0.0
C357 C 0.18643 0.63612 0.64575 0.0
C358 C 0.20159 0.59482 0.63348 0.0
C359 C 0.22155 0.57791 0.63564 0.0
C360 C 0.16325 0.62534 0.62871 0.0
C361 C 0.15919 0.59889 0.61388 0.0
C362 C 0.17836 0.58391 0.6167 0.0
C363 C 0.13599 0.58682 0.59426 0.0
C364 C 0.14397 0.64298 0.62579 0.0
C365 C 0.10913 0.5798 0.60392 0.0
C366 C 0.08766 0.56648 0.58552 0.0
C367 C 0.09276 0.55955 0.55729 0.0
C368 C 0.11963 0.56726 0.54756 0.0
C369 C 0.14095 0.58074 0.5658 0.0
H370 H 0.15338 0.66574 0.63249 0.0
H371 H 0.13687 0.64261 0.60345 0.0
H372 H 0.1261 0.63376 0.63957 0.0
H373 H 0.10477 0.58373 0.62592 0.0
H374 H 0.06721 0.56055 0.59375 0.0
H375 H 0.3621 0.28833 0.62805 0.0
H376 H 0.37824 0.25061 0.60627 0.0
H377 H 0.37266 0.20882 0.68768 0.0
H378 H 0.35688 0.24668 0.70962 0.0
H379 H 0.41972 0.21319 0.66322 0.0
H380 H 0.33946 0.16894 0.58328 0.0
H381 H 0.35493 0.20697 0.57959 0.0
H382 H 0.33608 0.19325 0.61139 0.0
C383 C 0.36392 0.27086 0.64122 0.0
C384 C 0.35817 0.27055 0.6706 0.0
C385 C 0.37305 0.2492 0.6287 0.0
C386 C 0.37627 0.22648 0.64516 0.0
C387 C 0.37029 0.22601 0.67445 0.0
H388 H 0.41639 0.07439 0.57735 0.0
H389 H 0.39234 0.10613 0.5987 0.0
C390 C 0.36136 0.24776 0.68701 0.0
C391 C 0.38755 0.20429 0.6324 0.0
H392 H 0.37978 0.15505 0.57799 0.0
C393 C 0.41081 0.20036 0.64471 0.0
C394 C 0.37583 0.18717 0.60843 0.0
C395 C 0.35004 0.18905 0.59507 0.0
C396 C 0.42304 0.18051 0.63336 0.0
C397 C 0.4121 0.16442 0.6086 0.0
C398 C 0.38836 0.16761 0.59676 0.0
C399 C 0.42576 0.14512 0.59427 0.0
C400 C 0.44757 0.17688 0.64816 0.0
C401 C 0.45218 0.15654 0.58398 0.0
C402 C 0.46594 0.13855 0.5721 0.0
C403 C 0.45355 0.10862 0.56986 0.0
C404 C 0.42663 0.09727 0.57907 0.0
C405 C 0.41285 0.11539 0.59118 0.0
H406 H 0.44853 0.18397 0.67083 0.0
H407 H 0.44766 0.1541 0.64735 0.0
H408 H 0.46606 0.19028 0.63734 0.0
H409 H 0.46231 0.17947 0.58535 0.0
H410 H 0.48643 0.14823 0.5647 0.0
H411 H 0.82505 0.33336 0.75495 0.0
H412 H 0.86807 0.36519 0.73699 0.0
H413 H 0.8362 0.35415 0.65151 0.0
H414 H 0.79317 0.3228 0.66917 0.0
H415 H 0.90435 0.35553 0.68697 0.0
H416 H 0.85774 0.4438 0.67488 0.0
H417 H 0.84402 0.41366 0.69829 0.0
H418 H 0.83872 0.4093 0.66051 0.0
C419 C 0.82733 0.33755 0.73229 0.0
C420 C 0.80571 0.32568 0.71348 0.0
C421 C 0.85191 0.35554 0.7221 0.0
C422 C 0.8551 0.36203 0.69302 0.0
C423 C 0.834 0.34934 0.67405 0.0
H424 H 0.97576 0.44493 0.57472 0.0
H425 H 0.94662 0.41056 0.60728 0.0
C426 C 0.80951 0.33131 0.68417 0.0
C427 C 0.87963 0.38369 0.6825 0.0
H428 H 0.90057 0.45059 0.65343 0.0
C429 C 0.90375 0.37647 0.67992 0.0
C430 C 0.87874 0.41108 0.67382 0.0
C431 C 0.85351 0.42016 0.67716 0.0
C432 C 0.92681 0.39564 0.66753 0.0
C433 C 0.92543 0.42241 0.65734 0.0
C434 C 0.90162 0.43004 0.66122 0.0
C435 C 0.94739 0.44202 0.64046 0.0
C436 C 0.9523 0.38696 0.6652 0.0
C437 C 0.95787 0.4711 0.64846 0.0
C438 C 0.97436 0.49093 0.62974 0.0
C439 C 0.98048 0.48205 0.60256 0.0
C440 C 0.97141 0.45256 0.59543 0.0
C441 C 0.95489 0.43278 0.61415 0.0
H442 H 0.95295 0.37095 0.68169 0.0
H443 H 0.95293 0.37687 0.64399 0.0
H444 H 0.97054 0.40591 0.66738 0.0
H445 H 0.95222 0.47868 0.66865 0.0
H446 H 0.9811 0.51343 0.63602 0.0
H447 H 0.64949 0.73354 0.61276 0.0
H448 H 0.6267 0.76762 0.59626 0.0
H449 H 0.69578 0.80948 0.54422 0.0
H450 H 0.71855 0.77494 0.56027 0.0
H451 H 0.64674 0.82558 0.60652 0.0
H452 H 0.63332 0.805 0.4898 0.0
H453 H 0.63867 0.77867 0.51415 0.0
H454 H 0.66651 0.80871 0.50345 0.0
C455 C 0.6597 0.74973 0.59749 0.0
C456 C 0.6859 0.75179 0.58792 0.0
C457 C 0.64661 0.76912 0.588 0.0
C458 C 0.65941 0.79089 0.56878 0.0
C459 C 0.68527 0.79246 0.55854 0.0
H460 H 0.62795 0.95442 0.55382 0.0
H461 H 0.64864 0.91561 0.55705 0.0
C462 C 0.69834 0.77291 0.5679 0.0
C463 C 0.6469 0.8137 0.56217 0.0
H464 H 0.62372 0.84656 0.50813 0.0
C465 C 0.64159 0.83004 0.58501 0.0
C466 C 0.6402 0.81945 0.53408 0.0
C467 C 0.64471 0.80193 0.5089 0.0
C468 C 0.62995 0.85211 0.58059 0.0
C469 C 0.62376 0.85825 0.55253 0.0
C470 C 0.62873 0.84181 0.52959 0.0
C471 C 0.61195 0.88174 0.54704 0.0
C472 C 0.62418 0.86864 0.606 0.0
C473 C 0.58463 0.87543 0.53971 0.0
C474 C 0.57264 0.89753 0.53811 0.0
C475 C 0.5879 0.92626 0.54356 0.0
C476 C 0.61555 0.93251 0.54979 0.0
C477 C 0.62746 0.91042 0.55151 0.0
H478 H 0.62541 0.85773 0.62642 0.0
H479 H 0.63919 0.89036 0.60667 0.0
H480 H 0.60378 0.87145 0.60426 0.0
H481 H 0.5724 0.85335 0.53622 0.0
H482 H 0.55133 0.89203 0.53311 0.0
H483 H 0.4147 0.29836 0.40263 0.0
H484 H 0.42826 0.25812 0.42183 0.0
H485 H 0.3532 0.22929 0.46823 0.0
H486 H 0.33951 0.2695 0.44918 0.0
H487 H 0.40324 0.22899 0.49953 0.0
H488 H 0.38923 0.17336 0.39405 0.0
H489 H 0.40977 0.21038 0.39377 0.0
H490 H 0.37457 0.20169 0.4027 0.0
C491 C 0.40121 0.28355 0.4171 0.0
C492 C 0.37603 0.28688 0.42423 0.0
C493 C 0.40894 0.26063 0.42801 0.0
C494 C 0.3916 0.24071 0.44622 0.0
C495 C 0.36681 0.2445 0.45418 0.0
H496 H 0.40665 0.07068 0.47643 0.0
H497 H 0.38842 0.11092 0.46947 0.0
C498 C 0.359 0.2674 0.44319 0.0
C499 C 0.39881 0.21508 0.45559 0.0
H500 H 0.4102 0.15393 0.43008 0.0
C501 C 0.40466 0.21245 0.48445 0.0
C502 C 0.40016 0.19341 0.43589 0.0
C503 C 0.39289 0.19458 0.40489 0.0
C504 C 0.41271 0.18899 0.49396 0.0
C505 C 0.41511 0.16795 0.47397 0.0
C506 C 0.40847 0.17021 0.44531 0.0
C507 C 0.42514 0.14365 0.48188 0.0
C508 C 0.41847 0.18679 0.52522 0.0
C509 C 0.45176 0.14877 0.4914 0.0
C510 C 0.46234 0.12583 0.49519 0.0
C511 C 0.44644 0.09739 0.48949 0.0
C512 C 0.41949 0.09232 0.48084 0.0
C513 C 0.40899 0.11526 0.47697 0.0
H514 H 0.40884 0.19993 0.53862 0.0
H515 H 0.41124 0.16408 0.53236 0.0
H516 H 0.44061 0.19481 0.5288 0.0
H517 H 0.4647 0.17057 0.49484 0.0
H518 H 0.48317 0.13048 0.50187 0.0
H519 H 0.7398 0.34338 0.38783 0.0
H520 H 0.78171 0.36703 0.41312 0.0
H521 H 0.82067 0.39863 0.33357 0.0
H522 H 0.7789 0.37425 0.30778 0.0
H523 H 0.8356 0.35841 0.40206 0.0
H524 H 0.83263 0.47103 0.3888 0.0
H525 H 0.80274 0.4404 0.3855 0.0
H526 H 0.8275 0.44819 0.35757 0.0
C527 C 0.7573 0.35507 0.37556 0.0
C528 C 0.75593 0.35667 0.34565 0.0
C529 C 0.78123 0.3687 0.39013 0.0
C530 C 0.80427 0.38458 0.37524 0.0
C531 C 0.80303 0.38663 0.34547 0.0
H532 H 0.96591 0.45588 0.45239 0.0
H533 H 0.92932 0.43027 0.41991 0.0
C534 C 0.77908 0.3728 0.33079 0.0
C535 C 0.82948 0.39884 0.39114 0.0
H536 H 0.86893 0.46449 0.41489 0.0
C537 C 0.84311 0.38162 0.40463 0.0
C538 C 0.83905 0.42908 0.39459 0.0
C539 C 0.82476 0.44842 0.38104 0.0
C540 C 0.86589 0.39388 0.42182 0.0
C541 C 0.87521 0.42409 0.4256 0.0
C542 C 0.86181 0.44132 0.41178 0.0
C543 C 0.89747 0.43811 0.44559 0.0
C544 C 0.8793 0.37448 0.4367 0.0
C545 C 0.89164 0.45073 0.47082 0.0
C546 C 0.91233 0.46511 0.48942 0.0
C547 C 0.93947 0.46754 0.48306 0.0
C548 C 0.94526 0.45436 0.45798 0.0
C549 C 0.9244 0.43975 0.43939 0.0
H550 H 0.86773 0.35135 0.4342 0.0
H551 H 0.89982 0.37786 0.4277 0.0
H552 H 0.88158 0.37992 0.45979 0.0
H553 H 0.87099 0.44963 0.47603 0.0
H554 H 0.90702 0.47483 0.50855 0.0
H555 H 0.67643 0.77791 0.3242 0.0
H556 H 0.66017 0.81533 0.34644 0.0
H557 H 0.65649 0.77394 0.42788 0.0
H558 H 0.67337 0.7369 0.40584 0.0
H559 H 0.61342 0.81014 0.37155 0.0
H560 H 0.69382 0.85559 0.45134 0.0
H561 H 0.69826 0.83369 0.4215 0.0
H562 H 0.68028 0.81713 0.45272 0.0
C563 C 0.67234 0.77691 0.34689 0.0
C564 C 0.67632 0.75449 0.36326 0.0
C565 C 0.66312 0.79838 0.35962 0.0
C566 C 0.65757 0.7979 0.38901 0.0
C567 C 0.66146 0.77545 0.40539 0.0
H568 H 0.54594 0.87411 0.46997 0.0
H569 H 0.57044 0.84318 0.44948 0.0
C570 C 0.67096 0.75414 0.39272 0.0
C571 C 0.64593 0.81969 0.40199 0.0
H572 H 0.65323 0.86855 0.4567 0.0
C573 C 0.62233 0.82307 0.39001 0.0
C574 C 0.65765 0.83694 0.42588 0.0
C575 C 0.68405 0.83596 0.43848 0.0
C576 C 0.6098 0.84256 0.40155 0.0
C577 C 0.6207 0.8587 0.42631 0.0
C578 C 0.6447 0.85596 0.43792 0.0
C579 C 0.60685 0.87777 0.4407 0.0
C580 C 0.58503 0.84579 0.38692 0.0
C581 C 0.61954 0.90754 0.4438 0.0
C582 C 0.60555 0.92548 0.45585 0.0
C583 C 0.57862 0.91391 0.46494 0.0
C584 C 0.56643 0.88395 0.46265 0.0
C585 C 0.58042 0.86614 0.45089 0.0
H586 H 0.58409 0.83883 0.36421 0.0
H587 H 0.5667 0.83206 0.39775 0.0
H588 H 0.58456 0.86844 0.38787 0.0
H589 H 0.64005 0.91697 0.43634 0.0
H590 H 0.61565 0.94838 0.45764 0.0
H591 H 0.21466 0.73479 0.33315 0.0
H592 H 0.16978 0.71062 0.353 0.0
H593 H 0.18263 0.62813 0.33849 0.0
H594 H 0.22743 0.6518 0.31955 0.0
H595 H 0.12824 0.63472 0.32165 0.0
H596 H 0.16269 0.66786 0.43279 0.0
H597 H 0.16928 0.69468 0.40531 0.0
H598 H 0.18647 0.66777 0.40461 0.0
C599 C 0.20789 0.71151 0.33419 0.0
C600 C 0.22464 0.69524 0.32468 0.0
C601 C 0.18224 0.69778 0.34534 0.0
C602 C 0.17301 0.66766 0.34707 0.0
C603 C 0.18935 0.65141 0.33701 0.0
H604 H 0.06495 0.51828 0.40999 0.0
H605 H 0.09158 0.5567 0.37964 0.0
C606 C 0.21493 0.66502 0.32607 0.0
C607 C 0.14724 0.65263 0.36117 0.0
H608 H 0.12099 0.63274 0.42712 0.0
C609 C 0.12629 0.63468 0.34469 0.0
C610 C 0.14481 0.65286 0.39115 0.0
C611 C 0.16694 0.6717 0.4097 0.0
C612 C 0.10341 0.61581 0.35757 0.0
C613 C 0.10194 0.6144 0.38768 0.0
C614 C 0.12213 0.63376 0.40404 0.0
C615 C 0.08172 0.59096 0.4028 0.0
C616 C 0.08141 0.59716 0.3388 0.0
C617 C 0.06717 0.59731 0.42593 0.0
C618 C 0.05228 0.57536 0.4437 0.0
C619 C 0.05167 0.54664 0.43863 0.0
C620 C 0.06487 0.54013 0.41442 0.0
C621 C 0.07996 0.56212 0.39685 0.0
H622 H 0.08007 0.60816 0.31846 0.0
H623 H 0.08622 0.577 0.33339 0.0
H624 H 0.06142 0.59149 0.34955 0.0
H625 H 0.06831 0.61942 0.43099 0.0
H626 H 0.04218 0.58107 0.46208 0.0
H627 H 0.35848 0.73377 0.65412 0.0
H628 H 0.38526 0.77985 0.63428 0.0
H629 H 0.39735 0.81719 0.71875 0.0
H630 H 0.37024 0.77118 0.7388 0.0
H631 H 0.38097 0.85136 0.67477 0.0
H632 H 0.46891 0.81493 0.64332 0.0
H633 H 0.43655 0.79211 0.6316 0.0
H634 H 0.44408 0.79596 0.66903 0.0
C635 C 0.36673 0.75182 0.66848 0.0
C636 C 0.36226 0.74881 0.69806 0.0
C637 C 0.38217 0.77806 0.65713 0.0
C638 C 0.39343 0.80183 0.67508 0.0
C639 C 0.38888 0.79904 0.70456 0.0
H640 H 0.51912 0.95571 0.62403 0.0
H641 H 0.49028 0.91571 0.65133 0.0
C642 C 0.37357 0.77272 0.71599 0.0
C643 C 0.40997 0.82957 0.66296 0.0
H644 H 0.46856 0.86067 0.62688 0.0
C645 C 0.4002 0.85351 0.66442 0.0
C646 C 0.43512 0.83231 0.64971 0.0
C647 C 0.447 0.80758 0.64844 0.0
C648 C 0.41469 0.88 0.65234 0.0
C649 C 0.43948 0.88248 0.63838 0.0
C650 C 0.44949 0.85869 0.6375 0.0
C651 C 0.45539 0.90935 0.62415 0.0
C652 C 0.40349 0.90516 0.65475 0.0
C653 C 0.44513 0.91955 0.60015 0.0
C654 C 0.46159 0.9425 0.58442 0.0
C655 C 0.4887 0.95556 0.59231 0.0
C656 C 0.4984 0.94619 0.61725 0.0
C657 C 0.48196 0.92326 0.63289 0.0
H658 H 0.38796 0.90191 0.6718 0.0
H659 H 0.41984 0.92543 0.65923 0.0
H660 H 0.39391 0.90769 0.63424 0.0
H661 H 0.42481 0.90887 0.59277 0.0
H662 H 0.45345 0.94899 0.56528 0.0
H663 H 0.2396 0.29997 0.61684 0.0
H664 H 0.20713 0.32239 0.59705 0.0
H665 H 0.25069 0.40321 0.63656 0.0
H666 H 0.28312 0.38092 0.65654 0.0
H667 H 0.17512 0.35341 0.63121 0.0
H668 H 0.24235 0.42149 0.54968 0.0
H669 H 0.24771 0.38894 0.56306 0.0
H670 H 0.25604 0.42093 0.58478 0.0
C671 C 0.24228 0.32254 0.62123 0.0
C672 C 0.26388 0.33864 0.63825 0.0
C673 C 0.22373 0.3353 0.60993 0.0
C674 C 0.22663 0.36451 0.61512 0.0
C675 C 0.24825 0.38071 0.63203 0.0
H676 H 0.14439 0.48686 0.56735 0.0
H677 H 0.17528 0.46113 0.58351 0.0
C678 C 0.2667 0.3679 0.64353 0.0
C679 C 0.20663 0.37786 0.60353 0.0
H680 H 0.19929 0.42756 0.55585 0.0
C681 C 0.1803 0.36954 0.61464 0.0
C682 C 0.21351 0.39892 0.582 0.0
C683 C 0.24137 0.40811 0.56894 0.0
C684 C 0.16086 0.38235 0.60541 0.0
C685 C 0.16768 0.40347 0.58379 0.0
C686 C 0.19398 0.41142 0.5724 0.0
C687 C 0.1484 0.41868 0.57371 0.0
C688 C 0.13355 0.37392 0.61975 0.0
C689 C 0.12293 0.40351 0.56251 0.0
C690 C 0.10494 0.41825 0.55362 0.0
C691 C 0.11229 0.44847 0.55526 0.0
C692 C 0.138 0.46357 0.56591 0.0
C693 C 0.15576 0.44886 0.57509 0.0
H694 H 0.13406 0.36367 0.64071 0.0
H695 H 0.12621 0.39292 0.62309 0.0
H696 H 0.11881 0.35815 0.60603 0.0
H697 H 0.11702 0.38029 0.56041 0.0
H698 H 0.08552 0.40604 0.54497 0.0
H699 H 0.69913 0.22175 0.73736 0.0
H700 H 0.66853 0.18334 0.70877 0.0
H701 H 0.70236 0.22751 0.63177 0.0
H702 H 0.73275 0.26604 0.66007 0.0
H703 H 0.62993 0.18972 0.67069 0.0
H704 H 0.70355 0.145 0.61584 0.0
H705 H 0.71216 0.16795 0.64705 0.0
H706 H 0.71119 0.18333 0.61252 0.0
C707 C 0.70011 0.22322 0.71433 0.0
C708 C 0.71847 0.2469 0.701 0.0
C709 C 0.68272 0.20121 0.69805 0.0
C710 C 0.68348 0.20237 0.66816 0.0
C711 C 0.70191 0.22583 0.65479 0.0
H712 H 0.55855 0.12377 0.54706 0.0
H713 H 0.59288 0.15586 0.5775 0.0
C714 C 0.71928 0.24784 0.67102 0.0
C715 C 0.66381 0.18011 0.65094 0.0
H716 H 0.6587 0.13112 0.59698 0.0
C717 C 0.6362 0.17672 0.65475 0.0
C718 C 0.67204 0.163 0.63036 0.0
C719 C 0.70134 0.16474 0.62633 0.0
C720 C 0.61662 0.1573 0.63791 0.0
C721 C 0.62492 0.14114 0.61645 0.0
C722 C 0.65245 0.14381 0.61324 0.0
C723 C 0.60523 0.12169 0.59691 0.0
C724 C 0.58718 0.15419 0.64323 0.0
C725 C 0.60148 0.09193 0.59704 0.0
C726 C 0.5819 0.07347 0.57956 0.0
C727 C 0.56588 0.08453 0.56153 0.0
C728 C 0.57038 0.1145 0.5608 0.0
C729 C 0.58991 0.13288 0.57829 0.0
H730 H 0.58388 0.16229 0.66476 0.0
H731 H 0.58007 0.1669 0.62722 0.0
H732 H 0.57466 0.13135 0.64115 0.0
H733 H 0.61327 0.08295 0.61115 0.0
H734 H 0.57902 0.05052 0.58056 0.0
H735 H 0.78096 0.70518 0.61138 0.0
H736 H 0.81871 0.69001 0.5924 0.0
H737 H 0.78188 0.60444 0.62447 0.0
H738 H 0.74387 0.61919 0.64287 0.0
H739 H 0.85256 0.66662 0.62736 0.0
H740 H 0.80172 0.58997 0.54159 0.0
H741 H 0.78894 0.61852 0.55444 0.0
H742 H 0.78432 0.58656 0.57513 0.0
C743 C 0.78068 0.683 0.61387 0.0
C744 C 0.7595 0.66336 0.62863 0.0
C745 C 0.80227 0.67442 0.60315 0.0
C746 C 0.80284 0.64605 0.60674 0.0
C747 C 0.78154 0.62631 0.62104 0.0
H748 H 0.90998 0.54485 0.57487 0.0
H749 H 0.87222 0.56374 0.58462 0.0
C750 C 0.76001 0.63485 0.63181 0.0
C751 C 0.82658 0.63749 0.59745 0.0
H752 H 0.84586 0.59021 0.55453 0.0
C753 C 0.8513 0.65021 0.61114 0.0
C754 C 0.82459 0.61582 0.57661 0.0
C755 C 0.79855 0.602 0.56087 0.0
C756 C 0.87402 0.64116 0.60523 0.0
C757 C 0.87212 0.61945 0.58429 0.0
C758 C 0.84738 0.60701 0.57037 0.0
C759 C 0.89511 0.60829 0.57748 0.0
C760 C 0.8993 0.65395 0.62258 0.0
C761 C 0.92046 0.62694 0.56968 0.0
C762 C 0.94229 0.61624 0.56492 0.0
C763 C 0.93884 0.58661 0.56694 0.0
C764 C 0.91321 0.56783 0.57341 0.0
C765 C 0.89161 0.5786 0.57887 0.0
H766 H 0.89485 0.6634 0.643 0.0
H767 H 0.90952 0.63753 0.62751 0.0
H768 H 0.91348 0.67149 0.61033 0.0
H769 H 0.92341 0.64978 0.56738 0.0
H770 H 0.96173 0.63105 0.55928 0.0
H771 H 0.29471 0.36179 0.31159 0.0
H772 H 0.30968 0.37753 0.26325 0.0
H773 H 0.39222 0.38876 0.28746 0.0
H774 H 0.3777 0.3741 0.33613 0.0
H775 H 0.35654 0.43535 0.24895 0.0
H776 H 0.36988 0.33106 0.21301 0.0
H777 H 0.34651 0.33333 0.24098 0.0
H778 H 0.38209 0.3442 0.248 0.0
C779 C 0.3161 0.36796 0.30681 0.0
C780 C 0.33501 0.36668 0.32784 0.0
C781 C 0.32455 0.37677 0.27912 0.0
C782 C 0.35198 0.38413 0.27191 0.0
C783 C 0.37092 0.38292 0.2927 0.0
H784 H 0.45679 0.46965 0.14031 0.0
H785 H 0.43064 0.45421 0.18355 0.0
C786 C 0.36255 0.37436 0.32043 0.0
C787 C 0.36102 0.39317 0.24265 0.0
H788 H 0.38642 0.37093 0.18247 0.0
C789 C 0.36282 0.42124 0.23424 0.0
C790 C 0.36889 0.37453 0.22356 0.0
C791 C 0.36667 0.34399 0.2316 0.0
C792 C 0.37337 0.43158 0.20747 0.0
C793 C 0.38238 0.41333 0.18884 0.0
C794 C 0.37949 0.38485 0.19682 0.0
C795 C 0.39693 0.42404 0.16207 0.0
C796 C 0.37518 0.46205 0.19944 0.0
C797 C 0.38672 0.41198 0.1356 0.0
C798 C 0.40161 0.42095 0.11061 0.0
C799 C 0.4271 0.44181 0.11183 0.0
C800 C 0.43711 0.45382 0.13846 0.0
C801 C 0.42216 0.44508 0.16327 0.0
H802 H 0.36096 0.47037 0.21215 0.0
H803 H 0.39597 0.47625 0.20361 0.0
H804 H 0.37081 0.46346 0.17643 0.0
H805 H 0.36735 0.3955 0.13433 0.0
H806 H 0.39338 0.4112 0.09047 0.0
H807 H 0.35031 0.62778 0.80306 0.0
H808 H 0.36904 0.60402 0.84011 0.0
H809 H 0.42573 0.68574 0.86351 0.0
H810 H 0.40669 0.70956 0.82715 0.0
H811 H 0.4193 0.59973 0.84623 0.0
H812 H 0.39581 0.65707 0.94041 0.0
H813 H 0.38121 0.65864 0.90584 0.0
H814 H 0.41457 0.68173 0.91426 0.0
C815 C 0.36661 0.64068 0.81629 0.0
C816 C 0.37695 0.6706 0.81238 0.0
C817 C 0.3773 0.62708 0.83745 0.0
C818 C 0.39843 0.64315 0.85509 0.0
C819 C 0.40892 0.67296 0.85085 0.0
H820 H 0.51724 0.61734 0.96807 0.0
H821 H 0.48699 0.63485 0.93835 0.0
C822 C 0.39817 0.68653 0.82989 0.0
C823 C 0.41051 0.6288 0.87702 0.0
H824 H 0.42979 0.63318 0.947 0.0
C825 C 0.42119 0.60672 0.86836 0.0
C826 C 0.41289 0.63777 0.906 0.0
C827 C 0.40025 0.65989 0.91724 0.0
C828 C 0.43529 0.59442 0.8875 0.0
C829 C 0.43868 0.60434 0.9161 0.0
C830 C 0.42729 0.62574 0.92502 0.0
C831 C 0.4555 0.59405 0.93649 0.0
C832 C 0.44746 0.57172 0.87674 0.0
C833 C 0.44743 0.56551 0.9461 0.0
C834 C 0.46461 0.55544 0.96334 0.0
C835 C 0.49026 0.57372 0.97113 0.0
C836 C 0.4977 0.60264 0.96243 0.0
C837 C 0.48044 0.61271 0.94542 0.0
H838 H 0.44652 0.56953 0.85314 0.0
H839 H 0.46888 0.57692 0.88353 0.0
H840 H 0.43629 0.55061 0.88602 0.0
H841 H 0.42812 0.55084 0.93969 0.0
H842 H 0.45825 0.53302 0.96951 0.0
H843 H 0.40671 0.34358 0.73891 0.0
H844 H 0.42745 0.36661 0.7832 0.0
H845 H 0.34951 0.36823 0.81401 0.0
H846 H 0.32863 0.3453 0.76965 0.0
H847 H 0.38691 0.41932 0.82234 0.0
H848 H 0.42712 0.33366 0.86185 0.0
H849 H 0.4384 0.34441 0.82633 0.0
H850 H 0.40301 0.32766 0.83308 0.0
C851 C 0.39389 0.34842 0.75527 0.0
C852 C 0.36596 0.34246 0.75068 0.0
C853 C 0.40579 0.36154 0.78068 0.0
C854 C 0.39002 0.36873 0.80228 0.0
C855 C 0.36213 0.3628 0.79777 0.0
H856 H 0.46258 0.43329 0.96982 0.0
H857 H 0.43197 0.40418 0.93346 0.0
C858 C 0.35023 0.34979 0.77231 0.0
C859 C 0.40284 0.38379 0.82886 0.0
H860 H 0.44535 0.38044 0.88339 0.0
C861 C 0.39942 0.41062 0.83584 0.0
C862 C 0.4188 0.37231 0.84693 0.0
C863 C 0.42184 0.34279 0.84186 0.0
C864 C 0.41246 0.4268 0.8595 0.0
C865 C 0.42983 0.41617 0.87644 0.0
C866 C 0.43226 0.38876 0.87029 0.0
C867 C 0.44719 0.43411 0.89913 0.0
C868 C 0.40758 0.45526 0.866 0.0
C869 C 0.46596 0.46047 0.89197 0.0
C870 C 0.48332 0.47702 0.91255 0.0
C871 C 0.48259 0.46759 0.94092 0.0
C872 C 0.4636 0.44126 0.94825 0.0
C873 C 0.44617 0.42457 0.92747 0.0
H874 H 0.38774 0.45579 0.85763 0.0
H875 H 0.40824 0.45973 0.8893 0.0
H876 H 0.42349 0.47278 0.85556 0.0
H877 H 0.46763 0.46804 0.87021 0.0
H878 H 0.49765 0.49712 0.90599 0.0
H879 H 0.68988 0.33835 0.79429 0.0
H880 H 0.66762 0.36927 0.81932 0.0
H881 H 0.74131 0.41043 0.86494 0.0
H882 H 0.76391 0.37977 0.83956 0.0
H883 H 0.66009 0.37409 0.87755 0.0
H884 H 0.72067 0.47879 0.83234 0.0
H885 H 0.72086 0.4446 0.81718 0.0
H886 H 0.73998 0.45823 0.84884 0.0
C887 C 0.70138 0.35397 0.80963 0.0
C888 C 0.72866 0.35673 0.815 0.0
C889 C 0.68863 0.37164 0.82389 0.0
C890 C 0.70293 0.39242 0.84366 0.0
C891 C 0.73008 0.39495 0.84934 0.0
H892 H 0.63423 0.49033 0.96325 0.0
H893 H 0.66484 0.46719 0.93994 0.0
C894 C 0.74287 0.3773 0.83502 0.0
C895 C 0.68904 0.4108 0.85878 0.0
H896 H 0.6886 0.48043 0.86795 0.0
C897 C 0.6664 0.39733 0.87553 0.0
C898 C 0.69729 0.44114 0.85599 0.0
C899 C 0.72089 0.45662 0.83744 0.0
C900 C 0.6517 0.41338 0.8895 0.0
C901 C 0.6599 0.44361 0.88666 0.0
C902 C 0.68263 0.45722 0.87017 0.0
C903 C 0.64391 0.46097 0.89953 0.0
C904 C 0.62716 0.39803 0.90686 0.0
C905 C 0.62254 0.46561 0.88417 0.0
C906 C 0.605 0.47864 0.89736 0.0
C907 C 0.6086 0.48726 0.92617 0.0
C908 C 0.63091 0.48389 0.94106 0.0
C909 C 0.64841 0.47072 0.92783 0.0
H910 H 0.62376 0.3744 0.90744 0.0
H911 H 0.6295 0.4066 0.92904 0.0
H912 H 0.60898 0.40216 0.89772 0.0
H913 H 0.61884 0.45815 0.86229 0.0
H914 H 0.58815 0.48113 0.88523 0.0
H915 H 0.73979 0.67118 0.72861 0.0
H916 H 0.72492 0.65435 0.77666 0.0
H917 H 0.64195 0.63906 0.75155 0.0
H918 H 0.65654 0.6553 0.70329 0.0
H919 H 0.6577 0.66981 0.80538 0.0
H920 H 0.68594 0.56834 0.79702 0.0
H921 H 0.71162 0.60107 0.78785 0.0
H922 H 0.68197 0.58849 0.7661 0.0
C923 C 0.71836 0.664 0.73322 0.0
C924 C 0.69933 0.66439 0.71203 0.0
C925 C 0.70993 0.65448 0.76069 0.0
C926 C 0.68236 0.6452 0.76748 0.0
C927 C 0.66334 0.64614 0.74665 0.0
H928 H 0.58538 0.54465 0.89748 0.0
H929 H 0.61065 0.56443 0.8547 0.0
C930 C 0.67172 0.65555 0.71914 0.0
C931 C 0.67318 0.63433 0.79625 0.0
H932 H 0.66745 0.5777 0.84072 0.0
C933 C 0.66001 0.64982 0.81328 0.0
C934 C 0.67615 0.60814 0.80626 0.0
C935 C 0.68951 0.59033 0.78838 0.0
C936 C 0.64933 0.63958 0.84001 0.0
C937 C 0.65214 0.6133 0.84996 0.0
C938 C 0.66563 0.598 0.83309 0.0
C939 C 0.63897 0.6001 0.87659 0.0
C940 C 0.63422 0.65636 0.85694 0.0
C941 C 0.64708 0.61317 0.90322 0.0
C942 C 0.63272 0.6018 0.92789 0.0
C943 C 0.60999 0.57725 0.92621 0.0
C944 C 0.60272 0.56361 0.8996 0.0
C945 C 0.61714 0.57487 0.87507 0.0
H946 H 0.63011 0.6737 0.8442 0.0
H947 H 0.61472 0.64182 0.86478 0.0
H948 H 0.64641 0.66641 0.87578 0.0
H949 H 0.66413 0.63249 0.90481 0.0
H950 H 0.63891 0.61275 0.94807 0.0
H951 H 0.66755 0.71935 0.26323 0.0
H952 H 0.64413 0.69448 0.22057 0.0
H953 H 0.63966 0.61261 0.2578 0.0
H954 H 0.6628 0.63718 0.30049 0.0
H955 H 0.65986 0.65088 0.18331 0.0
H956 H 0.55977 0.60939 0.23606 0.0
H957 H 0.58626 0.63972 0.24994 0.0
H958 H 0.58786 0.60375 0.25489 0.0
C959 C 0.66147 0.69604 0.26238 0.0
C960 C 0.66703 0.68026 0.28532 0.0
C961 C 0.64825 0.68189 0.23792 0.0
C962 C 0.64002 0.65171 0.2361 0.0
C963 C 0.6457 0.63592 0.25884 0.0
H964 H 0.54721 0.51698 0.1259 0.0
H965 H 0.57476 0.54733 0.16287 0.0
C966 C 0.65909 0.65002 0.28315 0.0
C967 C 0.62516 0.6365 0.21069 0.0
H968 H 0.56408 0.59117 0.18995 0.0
C969 C 0.63886 0.63797 0.1846 0.0
C970 C 0.59778 0.61974 0.21249 0.0
C971 C 0.58188 0.61812 0.23975 0.0
C972 C 0.62616 0.62218 0.16051 0.0
C973 C 0.59883 0.60499 0.16243 0.0
C974 C 0.58503 0.6042 0.18842 0.0
C975 C 0.58429 0.58654 0.13838 0.0
C976 C 0.64244 0.62317 0.13361 0.0
C977 C 0.58077 0.59826 0.11188 0.0
C978 C 0.56516 0.58073 0.09038 0.0
C979 C 0.55242 0.5513 0.09524 0.0
C980 C 0.55657 0.5396 0.1215 0.0
C981 C 0.57232 0.55696 0.14273 0.0
H982 H 0.6645 0.63112 0.13782 0.0
H983 H 0.63765 0.60156 0.12337 0.0
H984 H 0.63745 0.63806 0.11833 0.0
H985 H 0.58931 0.6211 0.10813 0.0
H986 H 0.56215 0.59042 0.07048 0.0
H987 H 0.30648 0.64195 0.254 0.0
H988 H 0.32444 0.60633 0.23103 0.0
H989 H 0.38627 0.6745 0.19046 0.0
H990 H 0.36891 0.71038 0.21433 0.0
H991 H 0.32943 0.59319 0.17688 0.0
H992 H 0.43097 0.62965 0.22577 0.0
H993 H 0.40369 0.64275 0.23769 0.0
H994 H 0.42343 0.65813 0.2069 0.0
C995 C 0.32394 0.64939 0.24022 0.0
C996 C 0.33641 0.67897 0.23595 0.0
C997 C 0.33417 0.62897 0.2271 0.0
C998 C 0.35698 0.63772 0.20941 0.0
C999 C 0.36909 0.66726 0.20464 0.0
H1000 H 0.41138 0.54138 0.08065 0.0
H1001 H 0.38545 0.56629 0.10894 0.0
C1002 C 0.35907 0.68772 0.21807 0.0
C1003 C 0.36784 0.6159 0.19569 0.0
H1004 H 0.42577 0.5977 0.18573 0.0
C1005 C 0.35044 0.59399 0.17902 0.0
C1006 C 0.39507 0.61648 0.19906 0.0
C1007 C 0.41428 0.63782 0.21859 0.0
C1008 C 0.3598 0.57329 0.1648 0.0
C1009 C 0.38746 0.5751 0.16663 0.0
C1010 C 0.4046 0.59642 0.18408 0.0
C1011 C 0.39958 0.55613 0.14976 0.0
C1012 C 0.33987 0.54959 0.14826 0.0
C1013 C 0.41607 0.54196 0.16321 0.0
C1014 C 0.43141 0.52839 0.14702 0.0
C1015 C 0.43027 0.5284 0.11711 0.0
C1016 C 0.41243 0.54086 0.10369 0.0
C1017 C 0.39748 0.55496 0.11988 0.0
H1018 H 0.31914 0.54512 0.15712 0.0
H1019 H 0.33932 0.55642 0.12583 0.0
H1020 H 0.34556 0.52934 0.1484 0.0
H1021 H 0.41794 0.54248 0.18622 0.0
H1022 H 0.44487 0.51874 0.15791 0.0
H1023 H 0.68041 0.39438 0.23836 0.0
H1024 H 0.65863 0.41692 0.20282 0.0
H1025 H 0.61122 0.33295 0.17316 0.0
H1026 H 0.63291 0.31037 0.20834 0.0
H1027 H 0.65437 0.40512 0.13824 0.0
H1028 H 0.55634 0.37908 0.19596 0.0
H1029 H 0.58772 0.38074 0.2135 0.0
H1030 H 0.57087 0.35004 0.19185 0.0
C1031 C 0.6654 0.38076 0.2242 0.0
C1032 C 0.65824 0.35059 0.22616 0.0
C1033 C 0.65303 0.39366 0.2039 0.0
C1034 C 0.63319 0.37658 0.18553 0.0
C1035 C 0.62633 0.34651 0.18728 0.0
H1036 H 0.51795 0.39945 0.0632 0.0
H1037 H 0.54664 0.38124 0.09433 0.0
C1038 C 0.63875 0.33366 0.20735 0.0
C1039 C 0.61912 0.38986 0.16473 0.0
H1040 H 0.5572 0.39676 0.14913 0.0
C1041 C 0.63318 0.40356 0.14064 0.0
C1042 C 0.59148 0.38763 0.16792 0.0
C1043 C 0.57565 0.37378 0.19378 0.0
C1044 C 0.62005 0.41431 0.11916 0.0
C1045 C 0.59225 0.4118 0.1222 0.0
C1046 C 0.57842 0.39853 0.14663 0.0
C1047 C 0.57685 0.42253 0.10044 0.0
C1048 C 0.63583 0.42735 0.09299 0.0
C1049 C 0.58451 0.45174 0.09293 0.0
C1050 C 0.56827 0.46218 0.07478 0.0
C1051 C 0.54378 0.4437 0.06415 0.0
C1052 C 0.53665 0.41429 0.07097 0.0
C1053 C 0.55301 0.40385 0.08886 0.0
H1054 H 0.65416 0.42028 0.09016 0.0
H1055 H 0.62326 0.42153 0.07348 0.0
H1056 H 0.64248 0.45115 0.09527 0.0
H1057 H 0.60244 0.46676 0.10204 0.0
H1058 H 0.57423 0.48503 0.07035 0.0
loop_
_geom_bond_atom_site_label_1
_geom_bond_atom_site_label_2
_geom_bond_distance
_geom_bond_site_symmetry_2
_ccdc_geom_bond_type
H0 C5 0.930 . S
H1 C8 0.930 . S
H2 C10 0.930 . S
H3 C4 1.016 . S
C4 H3 1.016 . S
C4 N11 1.286 . S
C5 H0 0.930 . S
C5 C6 1.397 . S
C5 C7 1.361 . S
C6 C5 1.397 . S
C6 C10 1.390 . S
C7 C5 1.361 . S
C7 C8 1.393 . S
C7 N11 1.413 . S
C8 H1 0.930 . S
C8 C7 1.393 . S
C8 C9 1.399 . S
C9 C8 1.399 . S
C9 C10 1.381 . S
C10 H2 0.930 . S
C10 C6 1.390 . S
C10 C9 1.381 . S
N11 C4 1.286 . S
N11 C7 1.413 . S
H12 C17 0.930 . S
H13 C20 0.930 . S
H14 C22 0.930 . S
H15 C16 1.016 . S
C16 H15 1.016 . S
C16 N23 1.286 . S
C17 H12 0.930 . S
C17 C18 1.397 . S
C17 C19 1.361 . S
C18 C17 1.397 . S
C18 C22 1.390 . S
C19 C17 1.361 . S
C19 C20 1.393 . S
C19 N23 1.413 . S
C20 H13 0.930 . S
C20 C19 1.393 . S
C20 C21 1.399 . S
C21 C20 1.399 . S
C21 C22 1.381 . S
C22 H14 0.930 . S
C22 C18 1.390 . S
C22 C21 1.381 . S
N23 C16 1.286 . S
N23 C19 1.413 . S
H24 C29 0.930 . S
H25 C32 0.930 . S
H26 C34 0.930 . S
H27 C28 1.016 . S
C28 H27 1.016 . S
C28 N35 1.286 . S
C29 H24 0.930 . S
C29 C30 1.397 . S
C29 C31 1.361 . S
C30 C29 1.397 . S
C30 C34 1.390 . S
C31 C29 1.361 . S
C31 C32 1.393 . S
C31 N35 1.413 . S
C32 H25 0.930 . S
C32 C31 1.393 . S
C32 C33 1.399 . S
C33 C32 1.399 . S
C33 C34 1.381 . S
C34 H26 0.930 . S
C34 C30 1.390 . S
C34 C33 1.381 . S
N35 C28 1.286 . S
N35 C31 1.413 . S
H36 C41 0.930 . S
H37 C44 0.930 . S
H38 C46 0.930 . S
H39 C40 1.016 . S
C40 H39 1.016 . S
C40 N47 1.286 . S
C41 H36 0.930 . S
C41 C42 1.397 . S
C41 C43 1.361 . S
C42 C41 1.397 . S
C42 C46 1.390 . S
C43 C41 1.361 . S
C43 C44 1.393 . S
C43 N47 1.413 . S
C44 H37 0.930 . S
C44 C43 1.393 . S
C44 C45 1.399 . S
C45 C44 1.399 . S
C45 C46 1.381 . S
C46 H38 0.930 . S
C46 C42 1.390 . S
C46 C45 1.381 . S
N47 C40 1.286 . S
N47 C43 1.413 . S
H48 C53 0.930 . S
H49 C56 0.930 . S
H50 C58 0.930 . S
H51 C52 1.016 . S
C52 H51 1.016 . S
C52 N59 1.286 . S
C53 H48 0.930 . S
C53 C54 1.397 . S
C53 C55 1.361 . S
C54 C53 1.397 . S
C54 C58 1.390 . S
C55 C53 1.361 . S
C55 C56 1.393 . S
C55 N59 1.413 . S
C56 H49 0.930 . S
C56 C55 1.393 . S
C56 C57 1.399 . S
C57 C56 1.399 . S
C57 C58 1.381 . S
C58 H50 0.930 . S
C58 C54 1.390 . S
C58 C57 1.381 . S
N59 C52 1.286 . S
N59 C55 1.413 . S
H60 C65 0.930 . S
H61 C68 0.930 . S
H62 C70 0.930 . S
H63 C64 1.016 . S
C64 H63 1.016 . S
C64 N71 1.286 . S
C65 H60 0.930 . S
C65 C66 1.397 . S
C65 C67 1.361 . S
C66 C65 1.397 . S
C66 C70 1.390 . S
C67 C65 1.361 . S
C67 C68 1.393 . S
C67 N71 1.413 . S
C68 H61 0.930 . S
C68 C67 1.393 . S
C68 C69 1.399 . S
C69 C68 1.399 . S
C69 C70 1.381 . S
C70 H62 0.930 . S
C70 C66 1.390 . S
C70 C69 1.381 . S
N71 C64 1.286 . S
N71 C67 1.413 . S
H72 C77 0.930 . S
H73 C80 0.930 . S
H74 C82 0.930 . S
H75 C76 1.016 . S
C76 H75 1.016 . S
C76 N83 1.286 . S
C77 H72 0.930 . S
C77 C78 1.397 . S
C77 C79 1.361 . S
C78 C77 1.397 . S
C78 C82 1.390 . S
C79 C77 1.361 . S
C79 C80 1.393 . S
C79 N83 1.413 . S
C80 H73 0.930 . S
C80 C79 1.393 . S
C80 C81 1.399 . S
C81 C80 1.399 . S
C81 C82 1.381 . S
C82 H74 0.930 . S
C82 C78 1.390 . S
C82 C81 1.381 . S
N83 C76 1.286 . S
N83 C79 1.413 . S
H84 C89 0.930 . S
H85 C92 0.930 . S
H86 C94 0.930 . S
H87 C88 1.016 . S
C88 H87 1.016 . S
C88 N95 1.286 . S
C89 H84 0.930 . S
C89 C90 1.397 . S
C89 C91 1.361 . S
C90 C89 1.397 . S
C90 C94 1.390 . S
C91 C89 1.361 . S
C91 C92 1.393 . S
C91 N95 1.413 . S
C92 H85 0.930 . S
C92 C91 1.393 . S
C92 C93 1.399 . S
C93 C92 1.399 . S
C93 C94 1.381 . S
C94 H86 0.930 . S
C94 C90 1.390 . S
C94 C93 1.381 . S
N95 C88 1.286 . S
N95 C91 1.413 . S
Co96 O99 2.042 . S
Co96 O106 2.264 . S
Co96 O125 2.286 . S
Co96 O126 2.069 . S
Co96 O128 2.015 . S
Co97 O99 2.122 . S
Co97 O105 2.073 . S
Co97 O106 2.327 . S
Co97 O107 1.976 . S
Co98 O99 2.087 . S
Co98 O101 2.087 1_455 S
Co98 O108 2.111 . S
Co98 O109 2.143 1_455 S
Co98 O113 2.111 1_455 S
Co98 O127 2.143 . S
O99 Co96 2.042 . S
O99 Co97 2.122 . S
O99 Co98 2.087 . S
O99 H100 0.980 . S
H100 O99 0.980 . S
O101 Co98 2.087 1_655 S
O101 Co102 2.042 . S
O101 Co103 2.122 . S
O101 H104 0.980 1_655 S
Co102 O101 2.042 . S
Co102 O110 2.286 . S
Co102 O111 2.069 . S
Co102 O112 2.015 . S
Co102 O115 2.264 . S
Co103 O101 2.122 . S
Co103 O114 1.976 . S
Co103 O115 2.327 . S
Co103 O116 2.073 . S
H104 O101 0.980 1_455 S
O105 Co97 2.073 . S
O105 C120 1.245 . S
O106 Co96 2.264 . S
O106 Co97 2.327 . S
O106 C120 1.257 . S
O107 Co97 1.976 . S
O107 C119 1.251 . S
O108 Co98 2.111 . S
O108 C119 1.274 . S
O109 Co98 2.143 1_655 S
O109 C122 1.246 . S
O110 Co102 2.286 . S
O110 C121 1.259 . S
O111 Co102 2.069 . S
O111 C121 1.289 . S
O112 Co102 2.015 . S
O112 C122 1.257 . S
O113 Co98 2.111 1_655 S
O113 C123 1.274 . S
O114 Co103 1.976 . S
O114 C123 1.251 . S
O115 Co102 2.264 . S
O115 Co103 2.327 . S
O115 C124 1.257 . S
O116 Co103 2.073 . S
O116 C124 1.245 . S
C117 O125 1.259 . S
C117 O126 1.289 . S
C118 O127 1.246 . S
C118 O128 1.257 . S
C119 O107 1.251 . S
C119 O108 1.274 . S
C120 O105 1.245 . S
C120 O106 1.257 . S
C121 O110 1.259 . S
C121 O111 1.289 . S
C122 O109 1.246 . S
C122 O112 1.257 . S
C123 O113 1.274 . S
C123 O114 1.251 . S
C124 O115 1.257 . S
C124 O116 1.245 . S
O125 Co96 2.286 . S
O125 C117 1.259 . S
O126 Co96 2.069 . S
O126 C117 1.289 . S
O127 Co98 2.143 . S
O127 C118 1.246 . S
O128 Co96 2.015 . S
O128 C118 1.257 . S
Co129 O132 2.042 . S
Co129 O139 2.264 . S
Co129 O158 2.286 . S
Co129 O159 2.069 . S
Co129 O161 2.015 . S
Co130 O132 2.122 . S
Co130 O138 2.073 . S
Co130 O139 2.327 . S
Co130 O140 1.976 . S
Co131 O132 2.087 1_545 S
Co131 O134 2.087 . S
Co131 O141 2.111 1_545 S
Co131 O142 2.143 . S
Co131 O146 2.111 . S
Co131 O160 2.143 1_545 S
O132 Co129 2.042 . S
O132 Co130 2.122 . S
O132 Co131 2.087 1_565 S
O132 H133 0.980 . S
H133 O132 0.980 . S
O134 Co131 2.087 . S
O134 Co135 2.042 . S
O134 Co136 2.122 . S
O134 H137 0.980 . S
Co135 O134 2.042 . S
Co135 O143 2.286 . S
Co135 O144 2.069 . S
Co135 O145 2.015 . S
Co135 O148 2.264 . S
Co136 O134 2.122 . S
Co136 O147 1.976 . S
Co136 O148 2.327 . S
Co136 O149 2.073 . S
H137 O134 0.980 . S
O138 Co130 2.073 . S
O138 C153 1.245 . S
O139 Co129 2.264 . S
O139 Co130 2.327 . S
O139 C153 1.257 . S
O140 Co130 1.976 . S
O140 C152 1.251 . S
O141 Co131 2.111 1_565 S
O141 C152 1.274 . S
O142 Co131 2.143 . S
O142 C155 1.246 . S
O143 Co135 2.286 . S
O143 C154 1.259 . S
O144 Co135 2.069 . S
O144 C154 1.289 . S
O145 Co135 2.015 . S
O145 C155 1.257 . S
O146 Co131 2.111 . S
O146 C156 1.274 . S
O147 Co136 1.976 . S
O147 C156 1.251 . S
O148 Co135 2.264 . S
O148 Co136 2.327 . S
O148 C157 1.257 . S
O149 Co136 2.073 . S
O149 C157 1.245 . S
C150 O158 1.259 . S
C150 O159 1.289 . S
C151 O160 1.246 . S
C151 O161 1.257 . S
C152 O140 1.251 . S
C152 O141 1.274 . S
C153 O138 1.245 . S
C153 O139 1.257 . S
C154 O143 1.259 . S
C154 O144 1.289 . S
C155 O142 1.246 . S
C155 O145 1.257 . S
C156 O146 1.274 . S
C156 O147 1.251 . S
C157 O148 1.257 . S
C157 O149 1.245 . S
O158 Co129 2.286 . S
O158 C150 1.259 . S
O159 Co129 2.069 . S
O159 C150 1.289 . S
O160 Co131 2.143 1_565 S
O160 C151 1.246 . S
O161 Co129 2.015 . S
O161 C151 1.257 . S
Co162 O165 2.042 . S
Co162 O172 2.264 . S
Co162 O191 2.286 . S
Co162 O192 2.069 . S
Co162 O194 2.015 . S
Co163 O165 2.122 . S
Co163 O171 2.073 . S
Co163 O172 2.327 . S
Co163 O173 1.976 . S
Co164 O165 2.087 . S
Co164 O167 2.087 1_554 S
Co164 O174 2.111 . S
Co164 O175 2.143 1_554 S
Co164 O179 2.111 1_554 S
Co164 O193 2.143 . S
O165 Co162 2.042 . S
O165 Co163 2.122 . S
O165 Co164 2.087 . S
O165 H166 0.980 . S
H166 O165 0.980 . S
O167 Co164 2.087 1_556 S
O167 Co168 2.042 . S
O167 Co169 2.122 . S
O167 H170 0.980 . S
Co168 O167 2.042 . S
Co168 O176 2.286 . S
Co168 O177 2.069 . S
Co168 O178 2.015 . S
Co168 O181 2.264 . S
Co169 O167 2.122 . S
Co169 O180 1.976 . S
Co169 O181 2.327 . S
Co169 O182 2.073 . S
H170 O167 0.980 . S
O171 Co163 2.073 . S
O171 C186 1.245 . S
O172 Co162 2.264 . S
O172 Co163 2.327 . S
O172 C186 1.257 . S
O173 Co163 1.976 . S
O173 C185 1.251 . S
O174 Co164 2.111 . S
O174 C185 1.274 . S
O175 Co164 2.143 1_556 S
O175 C188 1.246 . S
O176 Co168 2.286 . S
O176 C187 1.259 . S
O177 Co168 2.069 . S
O177 C187 1.289 . S
O178 Co168 2.015 . S
O178 C188 1.257 . S
O179 Co164 2.111 1_556 S
O179 C189 1.274 . S
O180 Co169 1.976 . S
O180 C189 1.251 . S
O181 Co168 2.264 . S
O181 Co169 2.327 . S
O181 C190 1.257 . S
O182 Co169 2.073 . S
O182 C190 1.245 . S
C183 O191 1.259 . S
C183 O192 1.289 . S
C184 O193 1.246 . S
C184 O194 1.257 . S
C185 O173 1.251 . S
C185 O174 1.274 . S
C186 O171 1.245 . S
C186 O172 1.257 . S
C187 O176 1.259 . S
C187 O177 1.289 . S
C188 O175 1.246 . S
C188 O178 1.257 . S
C189 O179 1.274 . S
C189 O180 1.251 . S
C190 O181 1.257 . S
C190 O182 1.245 . S
O191 Co162 2.286 . S
O191 C183 1.259 . S
O192 Co162 2.069 . S
O192 C183 1.289 . S
O193 Co164 2.143 . S
O193 C184 1.246 . S
O194 Co162 2.015 . S
O194 C184 1.257 . S
H195 C203 0.929 . S
H196 C205 0.930 . S
H197 C207 0.930 . S
H198 C210 0.929 . S
H199 C213 0.930 . S
H200 C215 0.960 . S
H201 C215 0.960 . S
H202 C215 0.960 . S
C203 H195 0.929 . S
C203 C204 1.377 . S
C203 C205 1.384 . S
C204 C203 1.377 . S
C204 C210 1.390 . S
C205 H196 0.930 . S
C205 C203 1.384 . S
C205 C206 1.372 . S
C206 C205 1.372 . S
C206 C207 1.400 . S
C206 C211 1.490 . S
C207 H197 0.930 . S
C207 C206 1.400 . S
C207 C210 1.386 . S
H208 C224 0.930 . S
H209 C225 0.931 . S
C210 H198 0.929 . S
C210 C204 1.390 . S
C210 C207 1.386 . S
C211 C206 1.490 . S
C211 C213 1.395 . S
C211 C214 1.403 . S
H212 C218 0.930 . S
C213 H199 0.930 . S
C213 C211 1.395 . S
C213 C216 1.403 . S
C214 C211 1.403 . S
C214 C215 1.524 . S
C214 C218 1.400 . S
C215 H200 0.960 . S
C215 H201 0.960 . S
C215 H202 0.960 . S
C215 C214 1.524 . S
C216 C213 1.403 . S
C216 C217 1.392 . S
C216 C220 1.495 . S
C217 C216 1.392 . S
C217 C218 1.385 . S
C217 C219 1.478 . S
C218 H212 0.930 . S
C218 C214 1.400 . S
C218 C217 1.385 . S
C219 C217 1.478 . S
C219 C221 1.381 . S
C219 C225 1.383 . S
C220 C216 1.495 . S
C220 H226 0.959 . S
C220 H227 0.961 . S
C220 H228 0.960 . S
C221 C219 1.381 . S
C221 C222 1.394 . S
C221 H229 0.930 . S
C222 C221 1.394 . S
C222 C223 1.383 . S
C222 H230 0.929 . S
C223 C222 1.383 . S
C223 C224 1.377 . S
C224 H208 0.930 . S
C224 C223 1.377 . S
C224 C225 1.379 . S
C225 H209 0.931 . S
C225 C219 1.383 . S
C225 C224 1.379 . S
H226 C220 0.959 . S
H227 C220 0.961 . S
H228 C220 0.960 . S
H229 C221 0.930 . S
H230 C222 0.929 . S
H231 C239 0.929 . S
H232 C241 0.930 . S
H233 C243 0.930 . S
H234 C246 0.929 . S
H235 C249 0.930 . S
H236 C251 0.960 . S
H237 C251 0.960 . S
H238 C251 0.960 . S
C239 H231 0.929 . S
C239 C240 1.377 . S
C239 C241 1.384 . S
C240 C239 1.377 . S
C240 C246 1.390 . S
C241 H232 0.930 . S
C241 C239 1.384 . S
C241 C242 1.372 . S
C242 C241 1.372 . S
C242 C243 1.400 . S
C242 C247 1.490 . S
C243 H233 0.930 . S
C243 C242 1.400 . S
C243 C246 1.386 . S
H244 C260 0.930 . S
H245 C261 0.931 . S
C246 H234 0.929 . S
C246 C240 1.390 . S
C246 C243 1.386 . S
C247 C242 1.490 . S
C247 C249 1.395 . S
C247 C250 1.403 . S
H248 C254 0.930 . S
C249 H235 0.930 . S
C249 C247 1.395 . S
C249 C252 1.403 . S
C250 C247 1.403 . S
C250 C251 1.524 . S
C250 C254 1.400 . S
C251 H236 0.960 . S
C251 H237 0.960 . S
C251 H238 0.960 . S
C251 C250 1.524 . S
C252 C249 1.403 . S
C252 C253 1.392 . S
C252 C256 1.495 . S
C253 C252 1.392 . S
C253 C254 1.385 . S
C253 C255 1.478 . S
C254 H248 0.930 . S
C254 C250 1.400 . S
C254 C253 1.385 . S
C255 C253 1.478 . S
C255 C257 1.381 . S
C255 C261 1.383 . S
C256 C252 1.495 . S
C256 H262 0.959 . S
C256 H263 0.961 . S
C256 H264 0.960 . S
C257 C255 1.381 . S
C257 C258 1.394 . S
C257 H265 0.930 . S
C258 C257 1.394 . S
C258 C259 1.383 . S
C258 H266 0.929 . S
C259 C258 1.383 . S
C259 C260 1.377 . S
C260 H244 0.930 . S
C260 C259 1.377 . S
C260 C261 1.379 . S
C261 H245 0.931 . S
C261 C255 1.383 . S
C261 C260 1.379 . S
H262 C256 0.959 . S
H263 C256 0.961 . S
H264 C256 0.960 . S
H265 C257 0.930 . S
H266 C258 0.929 . S
H267 C275 0.929 . S
H268 C277 0.930 . S
H269 C279 0.930 . S
H270 C282 0.929 . S
H271 C285 0.930 . S
H272 C287 0.960 . S
H273 C287 0.960 . S
H274 C287 0.960 . S
C275 H267 0.929 . S
C275 C276 1.377 . S
C275 C277 1.384 . S
C276 C275 1.377 . S
C276 C282 1.390 . S
C277 H268 0.930 . S
C277 C275 1.384 . S
C277 C278 1.372 . S
C278 C277 1.372 . S
C278 C279 1.400 . S
C278 C283 1.490 . S
C279 H269 0.930 . S
C279 C278 1.400 . S
C279 C282 1.386 . S
H280 C296 0.930 . S
H281 C297 0.931 . S
C282 H270 0.929 . S
C282 C276 1.390 . S
C282 C279 1.386 . S
C283 C278 1.490 . S
C283 C285 1.395 . S
C283 C286 1.403 . S
H284 C290 0.930 . S
C285 H271 0.930 . S
C285 C283 1.395 . S
C285 C288 1.403 . S
C286 C283 1.403 . S
C286 C287 1.524 . S
C286 C290 1.400 . S
C287 H272 0.960 . S
C287 H273 0.960 . S
C287 H274 0.960 . S
C287 C286 1.524 . S
C288 C285 1.403 . S
C288 C289 1.392 . S
C288 C292 1.495 . S
C289 C288 1.392 . S
C289 C290 1.385 . S
C289 C291 1.478 . S
C290 H284 0.930 . S
C290 C286 1.400 . S
C290 C289 1.385 . S
C291 C289 1.478 . S
C291 C293 1.381 . S
C291 C297 1.383 . S
C292 C288 1.495 . S
C292 H298 0.959 . S
C292 H299 0.961 . S
C292 H300 0.960 . S
C293 C291 1.381 . S
C293 C294 1.394 . S
C293 H301 0.930 . S
C294 C293 1.394 . S
C294 C295 1.383 . S
C294 H302 0.929 . S
C295 C294 1.383 . S
C295 C296 1.377 . S
C296 H280 0.930 . S
C296 C295 1.377 . S
C296 C297 1.379 . S
C297 H281 0.931 . S
C297 C291 1.383 . S
C297 C296 1.379 . S
H298 C292 0.959 . S
H299 C292 0.961 . S
H300 C292 0.960 . S
H301 C293 0.930 . S
H302 C294 0.929 . S
H303 C311 0.929 . S
H304 C313 0.930 . S
H305 C315 0.930 . S
H306 C318 0.929 . S
H307 C321 0.930 . S
H308 C323 0.960 . S
H309 C323 0.960 . S
H310 C323 0.960 . S
C311 H303 0.929 . S
C311 C312 1.377 . S
C311 C313 1.384 . S
C312 C311 1.377 . S
C312 C318 1.390 . S
C313 H304 0.930 . S
C313 C311 1.384 . S
C313 C314 1.372 . S
C314 C313 1.372 . S
C314 C315 1.400 . S
C314 C319 1.490 . S
C315 H305 0.930 . S
C315 C314 1.400 . S
C315 C318 1.386 . S
H316 C332 0.930 . S
H317 C333 0.931 . S
C318 H306 0.929 . S
C318 C312 1.390 . S
C318 C315 1.386 . S
C319 C314 1.490 . S
C319 C321 1.395 . S
C319 C322 1.403 . S
H320 C326 0.930 . S
C321 H307 0.930 . S
C321 C319 1.395 . S
C321 C324 1.403 . S
C322 C319 1.403 . S
C322 C323 1.524 . S
C322 C326 1.400 . S
C323 H308 0.960 . S
C323 H309 0.960 . S
C323 H310 0.960 . S
C323 C322 1.524 . S
C324 C321 1.403 . S
C324 C325 1.392 . S
C324 C328 1.495 . S
C325 C324 1.392 . S
C325 C326 1.385 . S
C325 C327 1.478 . S
C326 H320 0.930 . S
C326 C322 1.400 . S
C326 C325 1.385 . S
C327 C325 1.478 . S
C327 C329 1.381 . S
C327 C333 1.383 . S
C328 C324 1.495 . S
C328 H334 0.959 . S
C328 H335 0.961 . S
C328 H336 0.960 . S
C329 C327 1.381 . S
C329 C330 1.394 . S
C329 H337 0.930 . S
C330 C329 1.394 . S
C330 C331 1.383 . S
C330 H338 0.929 . S
C331 C330 1.383 . S
C331 C332 1.377 . S
C332 H316 0.930 . S
C332 C331 1.377 . S
C332 C333 1.379 . S
C333 H317 0.931 . S
C333 C327 1.383 . S
C333 C332 1.379 . S
H334 C328 0.959 . S
H335 C328 0.961 . S
H336 C328 0.960 . S
H337 C329 0.930 . S
H338 C330 0.929 . S
H339 C347 0.929 . S
H340 C349 0.930 . S
H341 C351 0.930 . S
H342 C354 0.929 . S
H343 C357 0.930 . S
H344 C359 0.960 . S
H345 C359 0.960 . S
H346 C359 0.960 . S
C347 H339 0.929 . S
C347 C348 1.377 . S
C347 C349 1.384 . S
C348 C347 1.377 . S
C348 C354 1.390 . S
C349 H340 0.930 . S
C349 C347 1.384 . S
C349 C350 1.372 . S
C350 C349 1.372 . S
C350 C351 1.400 . S
C350 C355 1.490 . S
C351 H341 0.930 . S
C351 C350 1.400 . S
C351 C354 1.386 . S
H352 C368 0.930 . S
H353 C369 0.931 . S
C354 H342 0.929 . S
C354 C348 1.390 . S
C354 C351 1.386 . S
C355 C350 1.490 . S
C355 C357 1.395 . S
C355 C358 1.403 . S
H356 C362 0.930 . S
C357 H343 0.930 . S
C357 C355 1.395 . S
C357 C360 1.403 . S
C358 C355 1.403 . S
C358 C359 1.524 . S
C358 C362 1.400 . S
C359 H344 0.960 . S
C359 H345 0.960 . S
C359 H346 0.960 . S
C359 C358 1.524 . S
C360 C357 1.403 . S
C360 C361 1.392 . S
C360 C364 1.495 . S
C361 C360 1.392 . S
C361 C362 1.385 . S
C361 C363 1.478 . S
C362 H356 0.930 . S
C362 C358 1.400 . S
C362 C361 1.385 . S
C363 C361 1.478 . S
C363 C365 1.381 . S
C363 C369 1.383 . S
C364 C360 1.495 . S
C364 H370 0.959 . S
C364 H371 0.961 . S
C364 H372 0.960 . S
C365 C363 1.381 . S
C365 C366 1.394 . S
C365 H373 0.930 . S
C366 C365 1.394 . S
C366 C367 1.383 . S
C366 H374 0.929 . S
C367 C366 1.383 . S
C367 C368 1.377 . S
C368 H352 0.930 . S
C368 C367 1.377 . S
C368 C369 1.379 . S
C369 H353 0.931 . S
C369 C363 1.383 . S
C369 C368 1.379 . S
H370 C364 0.959 . S
H371 C364 0.961 . S
H372 C364 0.960 . S
H373 C365 0.930 . S
H374 C366 0.929 . S
H375 C383 0.929 . S
H376 C385 0.930 . S
H377 C387 0.930 . S
H378 C390 0.929 . S
H379 C393 0.930 . S
H380 C395 0.960 . S
H381 C395 0.960 . S
H382 C395 0.960 . S
C383 H375 0.929 . S
C383 C384 1.377 . S
C383 C385 1.384 . S
C384 C383 1.377 . S
C384 C390 1.390 . S
C385 H376 0.930 . S
C385 C383 1.384 . S
C385 C386 1.372 . S
C386 C385 1.372 . S
C386 C387 1.400 . S
C386 C391 1.490 . S
C387 H377 0.930 . S
C387 C386 1.400 . S
C387 C390 1.386 . S
H388 C404 0.930 . S
H389 C405 0.931 . S
C390 H378 0.929 . S
C390 C384 1.390 . S
C390 C387 1.386 . S
C391 C386 1.490 . S
C391 C393 1.395 . S
C391 C394 1.403 . S
H392 C398 0.930 . S
C393 H379 0.930 . S
C393 C391 1.395 . S
C393 C396 1.403 . S
C394 C391 1.403 . S
C394 C395 1.524 . S
C394 C398 1.400 . S
C395 H380 0.960 . S
C395 H381 0.960 . S
C395 H382 0.960 . S
C395 C394 1.524 . S
C396 C393 1.403 . S
C396 C397 1.392 . S
C396 C400 1.495 . S
C397 C396 1.392 . S
C397 C398 1.385 . S
C397 C399 1.478 . S
C398 H392 0.930 . S
C398 C394 1.400 . S
C398 C397 1.385 . S
C399 C397 1.478 . S
C399 C401 1.381 . S
C399 C405 1.383 . S
C400 C396 1.495 . S
C400 H406 0.959 . S
C400 H407 0.961 . S
C400 H408 0.960 . S
C401 C399 1.381 . S
C401 C402 1.394 . S
C401 H409 0.930 . S
C402 C401 1.394 . S
C402 C403 1.383 . S
C402 H410 0.929 . S
C403 C402 1.383 . S
C403 C404 1.377 . S
C404 H388 0.930 . S
C404 C403 1.377 . S
C404 C405 1.379 . S
C405 H389 0.931 . S
C405 C399 1.383 . S
C405 C404 1.379 . S
H406 C400 0.959 . S
H407 C400 0.961 . S
H408 C400 0.960 . S
H409 C401 0.930 . S
H410 C402 0.929 . S
H411 C419 0.929 . S
H412 C421 0.930 . S
H413 C423 0.930 . S
H414 C426 0.929 . S
H415 C429 0.930 . S
H416 C431 0.960 . S
H417 C431 0.960 . S
H418 C431 0.960 . S
C419 H411 0.929 . S
C419 C420 1.377 . S
C419 C421 1.384 . S
C420 C419 1.377 . S
C420 C426 1.390 . S
C421 H412 0.930 . S
C421 C419 1.384 . S
C421 C422 1.372 . S
C422 C421 1.372 . S
C422 C423 1.400 . S
C422 C427 1.490 . S
C423 H413 0.930 . S
C423 C422 1.400 . S
C423 C426 1.386 . S
H424 C440 0.930 . S
H425 C441 0.931 . S
C426 H414 0.929 . S
C426 C420 1.390 . S
C426 C423 1.386 . S
C427 C422 1.490 . S
C427 C429 1.395 . S
C427 C430 1.403 . S
H428 C434 0.930 . S
C429 H415 0.930 . S
C429 C427 1.395 . S
C429 C432 1.403 . S
C430 C427 1.403 . S
C430 C431 1.524 . S
C430 C434 1.400 . S
C431 H416 0.960 . S
C431 H417 0.960 . S
C431 H418 0.960 . S
C431 C430 1.524 . S
C432 C429 1.403 . S
C432 C433 1.392 . S
C432 C436 1.495 . S
C433 C432 1.392 . S
C433 C434 1.385 . S
C433 C435 1.478 . S
C434 H428 0.930 . S
C434 C430 1.400 . S
C434 C433 1.385 . S
C435 C433 1.478 . S
C435 C437 1.381 . S
C435 C441 1.383 . S
C436 C432 1.495 . S
C436 H442 0.959 . S
C436 H443 0.961 . S
C436 H444 0.960 . S
C437 C435 1.381 . S
C437 C438 1.394 . S
C437 H445 0.930 . S
C438 C437 1.394 . S
C438 C439 1.383 . S
C438 H446 0.929 . S
C439 C438 1.383 . S
C439 C440 1.377 . S
C440 H424 0.930 . S
C440 C439 1.377 . S
C440 C441 1.379 . S
C441 H425 0.931 . S
C441 C435 1.383 . S
C441 C440 1.379 . S
H442 C436 0.959 . S
H443 C436 0.961 . S
H444 C436 0.960 . S
H445 C437 0.930 . S
H446 C438 0.929 . S
H447 C455 0.929 . S
H448 C457 0.930 . S
H449 C459 0.930 . S
H450 C462 0.929 . S
H451 C465 0.930 . S
H452 C467 0.960 . S
H453 C467 0.960 . S
H454 C467 0.960 . S
C455 H447 0.929 . S
C455 C456 1.377 . S
C455 C457 1.384 . S
C456 C455 1.377 . S
C456 C462 1.390 . S
C457 H448 0.930 . S
C457 C455 1.384 . S
C457 C458 1.372 . S
C458 C457 1.372 . S
C458 C459 1.400 . S
C458 C463 1.490 . S
C459 H449 0.930 . S
C459 C458 1.400 . S
C459 C462 1.386 . S
H460 C476 0.930 . S
H461 C477 0.931 . S
C462 H450 0.929 . S
C462 C456 1.390 . S
C462 C459 1.386 . S
C463 C458 1.490 . S
C463 C465 1.395 . S
C463 C466 1.403 . S
H464 C470 0.930 . S
C465 H451 0.930 . S
C465 C463 1.395 . S
C465 C468 1.403 . S
C466 C463 1.403 . S
C466 C467 1.524 . S
C466 C470 1.400 . S
C467 H452 0.960 . S
C467 H453 0.960 . S
C467 H454 0.960 . S
C467 C466 1.524 . S
C468 C465 1.403 . S
C468 C469 1.392 . S
C468 C472 1.495 . S
C469 C468 1.392 . S
C469 C470 1.385 . S
C469 C471 1.478 . S
C470 H464 0.930 . S
C470 C466 1.400 . S
C470 C469 1.385 . S
C471 C469 1.478 . S
C471 C473 1.381 . S
C471 C477 1.383 . S
C472 C468 1.495 . S
C472 H478 0.959 . S
C472 H479 0.961 . S
C472 H480 0.960 . S
C473 C471 1.381 . S
C473 C474 1.394 . S
C473 H481 0.930 . S
C474 C473 1.394 . S
C474 C475 1.383 . S
C474 H482 0.929 . S
C475 C474 1.383 . S
C475 C476 1.377 . S
C476 H460 0.930 . S
C476 C475 1.377 . S
C476 C477 1.379 . S
C477 H461 0.931 . S
C477 C471 1.383 . S
C477 C476 1.379 . S
H478 C472 0.959 . S
H479 C472 0.961 . S
H480 C472 0.960 . S
H481 C473 0.930 . S
H482 C474 0.929 . S
H483 C491 0.929 . S
H484 C493 0.930 . S
H485 C495 0.930 . S
H486 C498 0.929 . S
H487 C501 0.930 . S
H488 C503 0.960 . S
H489 C503 0.960 . S
H490 C503 0.960 . S
C491 H483 0.929 . S
C491 C492 1.377 . S
C491 C493 1.384 . S
C492 C491 1.377 . S
C492 C498 1.390 . S
C493 H484 0.930 . S
C493 C491 1.384 . S
C493 C494 1.372 . S
C494 C493 1.372 . S
C494 C495 1.400 . S
C494 C499 1.490 . S
C495 H485 0.930 . S
C495 C494 1.400 . S
C495 C498 1.386 . S
H496 C512 0.930 . S
H497 C513 0.931 . S
C498 H486 0.929 . S
C498 C492 1.390 . S
C498 C495 1.386 . S
C499 C494 1.490 . S
C499 C501 1.395 . S
C499 C502 1.403 . S
H500 C506 0.930 . S
C501 H487 0.930 . S
C501 C499 1.395 . S
C501 C504 1.403 . S
C502 C499 1.403 . S
C502 C503 1.524 . S
C502 C506 1.400 . S
C503 H488 0.960 . S
C503 H489 0.960 . S
C503 H490 0.960 . S
C503 C502 1.524 . S
C504 C501 1.403 . S
C504 C505 1.392 . S
C504 C508 1.495 . S
C505 C504 1.392 . S
C505 C506 1.385 . S
C505 C507 1.478 . S
C506 H500 0.930 . S
C506 C502 1.400 . S
C506 C505 1.385 . S
C507 C505 1.478 . S
C507 C509 1.381 . S
C507 C513 1.383 . S
C508 C504 1.495 . S
C508 H514 0.959 . S
C508 H515 0.961 . S
C508 H516 0.960 . S
C509 C507 1.381 . S
C509 C510 1.394 . S
C509 H517 0.930 . S
C510 C509 1.394 . S
C510 C511 1.383 . S
C510 H518 0.929 . S
C511 C510 1.383 . S
C511 C512 1.377 . S
C512 H496 0.930 . S
C512 C511 1.377 . S
C512 C513 1.379 . S
C513 H497 0.931 . S
C513 C507 1.383 . S
C513 C512 1.379 . S
H514 C508 0.959 . S
H515 C508 0.961 . S
H516 C508 0.960 . S
H517 C509 0.930 . S
H518 C510 0.929 . S
H519 C527 0.929 . S
H520 C529 0.930 . S
H521 C531 0.930 . S
H522 C534 0.929 . S
H523 C537 0.930 . S
H524 C539 0.960 . S
H525 C539 0.960 . S
H526 C539 0.960 . S
C527 H519 0.929 . S
C527 C528 1.377 . S
C527 C529 1.384 . S
C528 C527 1.377 . S
C528 C534 1.390 . S
C529 H520 0.930 . S
C529 C527 1.384 . S
C529 C530 1.372 . S
C530 C529 1.372 . S
C530 C531 1.400 . S
C530 C535 1.490 . S
C531 H521 0.930 . S
C531 C530 1.400 . S
C531 C534 1.386 . S
H532 C548 0.930 . S
H533 C549 0.931 . S
C534 H522 0.929 . S
C534 C528 1.390 . S
C534 C531 1.386 . S
C535 C530 1.490 . S
C535 C537 1.395 . S
C535 C538 1.403 . S
H536 C542 0.930 . S
C537 H523 0.930 . S
C537 C535 1.395 . S
C537 C540 1.403 . S
C538 C535 1.403 . S
C538 C539 1.524 . S
C538 C542 1.400 . S
C539 H524 0.960 . S
C539 H525 0.960 . S
C539 H526 0.960 . S
C539 C538 1.524 . S
C540 C537 1.403 . S
C540 C541 1.392 . S
C540 C544 1.495 . S
C541 C540 1.392 . S
C541 C542 1.385 . S
C541 C543 1.478 . S
C542 H536 0.930 . S
C542 C538 1.400 . S
C542 C541 1.385 . S
C543 C541 1.478 . S
C543 C545 1.381 . S
C543 C549 1.383 . S
C544 C540 1.495 . S
C544 H550 0.959 . S
C544 H551 0.961 . S
C544 H552 0.960 . S
C545 C543 1.381 . S
C545 C546 1.394 . S
C545 H553 0.930 . S
C546 C545 1.394 . S
C546 C547 1.383 . S
C546 H554 0.929 . S
C547 C546 1.383 . S
C547 C548 1.377 . S
C548 H532 0.930 . S
C548 C547 1.377 . S
C548 C549 1.379 . S
C549 H533 0.931 . S
C549 C543 1.383 . S
C549 C548 1.379 . S
H550 C544 0.959 . S
H551 C544 0.961 . S
H552 C544 0.960 . S
H553 C545 0.930 . S
H554 C546 0.929 . S
H555 C563 0.929 . S
H556 C565 0.930 . S
H557 C567 0.930 . S
H558 C570 0.929 . S
H559 C573 0.930 . S
H560 C575 0.960 . S
H561 C575 0.960 . S
H562 C575 0.960 . S
C563 H555 0.929 . S
C563 C564 1.377 . S
C563 C565 1.384 . S
C564 C563 1.377 . S
C564 C570 1.390 . S
C565 H556 0.930 . S
C565 C563 1.384 . S
C565 C566 1.372 . S
C566 C565 1.372 . S
C566 C567 1.400 . S
C566 C571 1.490 . S
C567 H557 0.930 . S
C567 C566 1.400 . S
C567 C570 1.386 . S
H568 C584 0.930 . S
H569 C585 0.931 . S
C570 H558 0.929 . S
C570 C564 1.390 . S
C570 C567 1.386 . S
C571 C566 1.490 . S
C571 C573 1.395 . S
C571 C574 1.403 . S
H572 C578 0.930 . S
C573 H559 0.930 . S
C573 C571 1.395 . S
C573 C576 1.403 . S
C574 C571 1.403 . S
C574 C575 1.524 . S
C574 C578 1.400 . S
C575 H560 0.960 . S
C575 H561 0.960 . S
C575 H562 0.960 . S
C575 C574 1.524 . S
C576 C573 1.403 . S
C576 C577 1.392 . S
C576 C580 1.495 . S
C577 C576 1.392 . S
C577 C578 1.385 . S
C577 C579 1.478 . S
C578 H572 0.930 . S
C578 C574 1.400 . S
C578 C577 1.385 . S
C579 C577 1.478 . S
C579 C581 1.381 . S
C579 C585 1.383 . S
C580 C576 1.495 . S
C580 H586 0.959 . S
C580 H587 0.961 . S
C580 H588 0.960 . S
C581 C579 1.381 . S
C581 C582 1.394 . S
C581 H589 0.930 . S
C582 C581 1.394 . S
C582 C583 1.383 . S
C582 H590 0.929 . S
C583 C582 1.383 . S
C583 C584 1.377 . S
C584 H568 0.930 . S
C584 C583 1.377 . S
C584 C585 1.379 . S
C585 H569 0.931 . S
C585 C579 1.383 . S
C585 C584 1.379 . S
H586 C580 0.959 . S
H587 C580 0.961 . S
H588 C580 0.960 . S
H589 C581 0.930 . S
H590 C582 0.929 . S
H591 C599 0.929 . S
H592 C601 0.930 . S
H593 C603 0.930 . S
H594 C606 0.929 . S
H595 C609 0.930 . S
H596 C611 0.960 . S
H597 C611 0.960 . S
H598 C611 0.960 . S
C599 H591 0.929 . S
C599 C600 1.377 . S
C599 C601 1.384 . S
C600 C599 1.377 . S
C600 C606 1.390 . S
C601 H592 0.930 . S
C601 C599 1.384 . S
C601 C602 1.372 . S
C602 C601 1.372 . S
C602 C603 1.400 . S
C602 C607 1.490 . S
C603 H593 0.930 . S
C603 C602 1.400 . S
C603 C606 1.386 . S
H604 C620 0.930 . S
H605 C621 0.931 . S
C606 H594 0.929 . S
C606 C600 1.390 . S
C606 C603 1.386 . S
C607 C602 1.490 . S
C607 C609 1.395 . S
C607 C610 1.403 . S
H608 C614 0.930 . S
C609 H595 0.930 . S
C609 C607 1.395 . S
C609 C612 1.403 . S
C610 C607 1.403 . S
C610 C611 1.524 . S
C610 C614 1.400 . S
C611 H596 0.960 . S
C611 H597 0.960 . S
C611 H598 0.960 . S
C611 C610 1.524 . S
C612 C609 1.403 . S
C612 C613 1.392 . S
C612 C616 1.495 . S
C613 C612 1.392 . S
C613 C614 1.385 . S
C613 C615 1.478 . S
C614 H608 0.930 . S
C614 C610 1.400 . S
C614 C613 1.385 . S
C615 C613 1.478 . S
C615 C617 1.381 . S
C615 C621 1.383 . S
C616 C612 1.495 . S
C616 H622 0.959 . S
C616 H623 0.961 . S
C616 H624 0.960 . S
C617 C615 1.381 . S
C617 C618 1.394 . S
C617 H625 0.930 . S
C618 C617 1.394 . S
C618 C619 1.383 . S
C618 H626 0.929 . S
C619 C618 1.383 . S
C619 C620 1.377 . S
C620 H604 0.930 . S
C620 C619 1.377 . S
C620 C621 1.379 . S
C621 H605 0.931 . S
C621 C615 1.383 . S
C621 C620 1.379 . S
H622 C616 0.959 . S
H623 C616 0.961 . S
H624 C616 0.960 . S
H625 C617 0.930 . S
H626 C618 0.929 . S
H627 C635 0.929 . S
H628 C637 0.930 . S
H629 C639 0.930 . S
H630 C642 0.929 . S
H631 C645 0.930 . S
H632 C647 0.960 . S
H633 C647 0.960 . S
H634 C647 0.960 . S
C635 H627 0.929 . S
C635 C636 1.377 . S
C635 C637 1.384 . S
C636 C635 1.377 . S
C636 C642 1.390 . S
C637 H628 0.930 . S
C637 C635 1.384 . S
C637 C638 1.372 . S
C638 C637 1.372 . S
C638 C639 1.400 . S
C638 C643 1.490 . S
C639 H629 0.930 . S
C639 C638 1.400 . S
C639 C642 1.386 . S
H640 C656 0.930 . S
H641 C657 0.931 . S
C642 H630 0.929 . S
C642 C636 1.390 . S
C642 C639 1.386 . S
C643 C638 1.490 . S
C643 C645 1.395 . S
C643 C646 1.403 . S
H644 C650 0.930 . S
C645 H631 0.930 . S
C645 C643 1.395 . S
C645 C648 1.403 . S
C646 C643 1.403 . S
C646 C647 1.524 . S
C646 C650 1.400 . S
C647 H632 0.960 . S
C647 H633 0.960 . S
C647 H634 0.960 . S
C647 C646 1.524 . S
C648 C645 1.403 . S
C648 C649 1.392 . S
C648 C652 1.495 . S
C649 C648 1.392 . S
C649 C650 1.385 . S
C649 C651 1.478 . S
C650 H644 0.930 . S
C650 C646 1.400 . S
C650 C649 1.385 . S
C651 C649 1.478 . S
C651 C653 1.381 . S
C651 C657 1.383 . S
C652 C648 1.495 . S
C652 H658 0.959 . S
C652 H659 0.961 . S
C652 H660 0.960 . S
C653 C651 1.381 . S
C653 C654 1.394 . S
C653 H661 0.930 . S
C654 C653 1.394 . S
C654 C655 1.383 . S
C654 H662 0.929 . S
C655 C654 1.383 . S
C655 C656 1.377 . S
C656 H640 0.930 . S
C656 C655 1.377 . S
C656 C657 1.379 . S
C657 H641 0.931 . S
C657 C651 1.383 . S
C657 C656 1.379 . S
H658 C652 0.959 . S
H659 C652 0.961 . S
H660 C652 0.960 . S
H661 C653 0.930 . S
H662 C654 0.929 . S
H663 C671 0.929 . S
H664 C673 0.930 . S
H665 C675 0.930 . S
H666 C678 0.929 . S
H667 C681 0.930 . S
H668 C683 0.960 . S
H669 C683 0.960 . S
H670 C683 0.960 . S
C671 H663 0.929 . S
C671 C672 1.377 . S
C671 C673 1.384 . S
C672 C671 1.377 . S
C672 C678 1.390 . S
C673 H664 0.930 . S
C673 C671 1.384 . S
C673 C674 1.372 . S
C674 C673 1.372 . S
C674 C675 1.400 . S
C674 C679 1.490 . S
C675 H665 0.930 . S
C675 C674 1.400 . S
C675 C678 1.386 . S
H676 C692 0.930 . S
H677 C693 0.931 . S
C678 H666 0.929 . S
C678 C672 1.390 . S
C678 C675 1.386 . S
C679 C674 1.490 . S
C679 C681 1.395 . S
C679 C682 1.403 . S
H680 C686 0.930 . S
C681 H667 0.930 . S
C681 C679 1.395 . S
C681 C684 1.403 . S
C682 C679 1.403 . S
C682 C683 1.524 . S
C682 C686 1.400 . S
C683 H668 0.960 . S
C683 H669 0.960 . S
C683 H670 0.960 . S
C683 C682 1.524 . S
C684 C681 1.403 . S
C684 C685 1.392 . S
C684 C688 1.495 . S
C685 C684 1.392 . S
C685 C686 1.385 . S
C685 C687 1.478 . S
C686 H680 0.930 . S
C686 C682 1.400 . S
C686 C685 1.385 . S
C687 C685 1.478 . S
C687 C689 1.381 . S
C687 C693 1.383 . S
C688 C684 1.495 . S
C688 H694 0.959 . S
C688 H695 0.961 . S
C688 H696 0.960 . S
C689 C687 1.381 . S
C689 C690 1.394 . S
C689 H697 0.930 . S
C690 C689 1.394 . S
C690 C691 1.383 . S
C690 H698 0.929 . S
C691 C690 1.383 . S
C691 C692 1.377 . S
C692 H676 0.930 . S
C692 C691 1.377 . S
C692 C693 1.379 . S
C693 H677 0.931 . S
C693 C687 1.383 . S
C693 C692 1.379 . S
H694 C688 0.959 . S
H695 C688 0.961 . S
H696 C688 0.960 . S
H697 C689 0.930 . S
H698 C690 0.929 . S
H699 C707 0.929 . S
H700 C709 0.930 . S
H701 C711 0.930 . S
H702 C714 0.929 . S
H703 C717 0.930 . S
H704 C719 0.960 . S
H705 C719 0.960 . S
H706 C719 0.960 . S
C707 H699 0.929 . S
C707 C708 1.377 . S
C707 C709 1.384 . S
C708 C707 1.377 . S
C708 C714 1.390 . S
C709 H700 0.930 . S
C709 C707 1.384 . S
C709 C710 1.372 . S
C710 C709 1.372 . S
C710 C711 1.400 . S
C710 C715 1.490 . S
C711 H701 0.930 . S
C711 C710 1.400 . S
C711 C714 1.386 . S
H712 C728 0.930 . S
H713 C729 0.931 . S
C714 H702 0.929 . S
C714 C708 1.390 . S
C714 C711 1.386 . S
C715 C710 1.490 . S
C715 C717 1.395 . S
C715 C718 1.403 . S
H716 C722 0.930 . S
C717 H703 0.930 . S
C717 C715 1.395 . S
C717 C720 1.403 . S
C718 C715 1.403 . S
C718 C719 1.524 . S
C718 C722 1.400 . S
C719 H704 0.960 . S
C719 H705 0.960 . S
C719 H706 0.960 . S
C719 C718 1.524 . S
C720 C717 1.403 . S
C720 C721 1.392 . S
C720 C724 1.495 . S
C721 C720 1.392 . S
C721 C722 1.385 . S
C721 C723 1.478 . S
C722 H716 0.930 . S
C722 C718 1.400 . S
C722 C721 1.385 . S
C723 C721 1.478 . S
C723 C725 1.381 . S
C723 C729 1.383 . S
C724 C720 1.495 . S
C724 H730 0.959 . S
C724 H731 0.961 . S
C724 H732 0.960 . S
C725 C723 1.381 . S
C725 C726 1.394 . S
C725 H733 0.930 . S
C726 C725 1.394 . S
C726 C727 1.383 . S
C726 H734 0.929 . S
C727 C726 1.383 . S
C727 C728 1.377 . S
C728 H712 0.930 . S
C728 C727 1.377 . S
C728 C729 1.379 . S
C729 H713 0.931 . S
C729 C723 1.383 . S
C729 C728 1.379 . S
H730 C724 0.959 . S
H731 C724 0.961 . S
H732 C724 0.960 . S
H733 C725 0.930 . S
H734 C726 0.929 . S
H735 C743 0.929 . S
H736 C745 0.930 . S
H737 C747 0.930 . S
H738 C750 0.929 . S
H739 C753 0.930 . S
H740 C755 0.960 . S
H741 C755 0.960 . S
H742 C755 0.960 . S
C743 H735 0.929 . S
C743 C744 1.377 . S
C743 C745 1.384 . S
C744 C743 1.377 . S
C744 C750 1.390 . S
C745 H736 0.930 . S
C745 C743 1.384 . S
C745 C746 1.372 . S
C746 C745 1.372 . S
C746 C747 1.400 . S
C746 C751 1.490 . S
C747 H737 0.930 . S
C747 C746 1.400 . S
C747 C750 1.386 . S
H748 C764 0.930 . S
H749 C765 0.931 . S
C750 H738 0.929 . S
C750 C744 1.390 . S
C750 C747 1.386 . S
C751 C746 1.490 . S
C751 C753 1.395 . S
C751 C754 1.403 . S
H752 C758 0.930 . S
C753 H739 0.930 . S
C753 C751 1.395 . S
C753 C756 1.403 . S
C754 C751 1.403 . S
C754 C755 1.524 . S
C754 C758 1.400 . S
C755 H740 0.960 . S
C755 H741 0.960 . S
C755 H742 0.960 . S
C755 C754 1.524 . S
C756 C753 1.403 . S
C756 C757 1.392 . S
C756 C760 1.495 . S
C757 C756 1.392 . S
C757 C758 1.385 . S
C757 C759 1.478 . S
C758 H752 0.930 . S
C758 C754 1.400 . S
C758 C757 1.385 . S
C759 C757 1.478 . S
C759 C761 1.381 . S
C759 C765 1.383 . S
C760 C756 1.495 . S
C760 H766 0.959 . S
C760 H767 0.961 . S
C760 H768 0.960 . S
C761 C759 1.381 . S
C761 C762 1.394 . S
C761 H769 0.930 . S
C762 C761 1.394 . S
C762 C763 1.383 . S
C762 H770 0.929 . S
C763 C762 1.383 . S
C763 C764 1.377 . S
C764 H748 0.930 . S
C764 C763 1.377 . S
C764 C765 1.379 . S
C765 H749 0.931 . S
C765 C759 1.383 . S
C765 C764 1.379 . S
H766 C760 0.959 . S
H767 C760 0.961 . S
H768 C760 0.960 . S
H769 C761 0.930 . S
H770 C762 0.929 . S
H771 C779 0.929 . S
H772 C781 0.930 . S
H773 C783 0.930 . S
H774 C786 0.929 . S
H775 C789 0.930 . S
H776 C791 0.960 . S
H777 C791 0.960 . S
H778 C791 0.960 . S
C779 H771 0.929 . S
C779 C780 1.377 . S
C779 C781 1.384 . S
C780 C779 1.377 . S
C780 C786 1.390 . S
C781 H772 0.930 . S
C781 C779 1.384 . S
C781 C782 1.372 . S
C782 C781 1.372 . S
C782 C783 1.400 . S
C782 C787 1.490 . S
C783 H773 0.930 . S
C783 C782 1.400 . S
C783 C786 1.386 . S
H784 C800 0.930 . S
H785 C801 0.931 . S
C786 H774 0.929 . S
C786 C780 1.390 . S
C786 C783 1.386 . S
C787 C782 1.490 . S
C787 C789 1.395 . S
C787 C790 1.403 . S
H788 C794 0.930 . S
C789 H775 0.930 . S
C789 C787 1.395 . S
C789 C792 1.403 . S
C790 C787 1.403 . S
C790 C791 1.524 . S
C790 C794 1.400 . S
C791 H776 0.960 . S
C791 H777 0.960 . S
C791 H778 0.960 . S
C791 C790 1.524 . S
C792 C789 1.403 . S
C792 C793 1.392 . S
C792 C796 1.495 . S
C793 C792 1.392 . S
C793 C794 1.385 . S
C793 C795 1.478 . S
C794 H788 0.930 . S
C794 C790 1.400 . S
C794 C793 1.385 . S
C795 C793 1.478 . S
C795 C797 1.381 . S
C795 C801 1.383 . S
C796 C792 1.495 . S
C796 H802 0.959 . S
C796 H803 0.961 . S
C796 H804 0.960 . S
C797 C795 1.381 . S
C797 C798 1.394 . S
C797 H805 0.930 . S
C798 C797 1.394 . S
C798 C799 1.383 . S
C798 H806 0.929 . S
C799 C798 1.383 . S
C799 C800 1.377 . S
C800 H784 0.930 . S
C800 C799 1.377 . S
C800 C801 1.379 . S
C801 H785 0.931 . S
C801 C795 1.383 . S
C801 C800 1.379 . S
H802 C796 0.959 . S
H803 C796 0.961 . S
H804 C796 0.960 . S
H805 C797 0.930 . S
H806 C798 0.929 . S
H807 C815 0.929 . S
H808 C817 0.930 . S
H809 C819 0.930 . S
H810 C822 0.929 . S
H811 C825 0.930 . S
H812 C827 0.960 . S
H813 C827 0.960 . S
H814 C827 0.960 . S
C815 H807 0.929 . S
C815 C816 1.377 . S
C815 C817 1.384 . S
C816 C815 1.377 . S
C816 C822 1.390 . S
C817 H808 0.930 . S
C817 C815 1.384 . S
C817 C818 1.372 . S
C818 C817 1.372 . S
C818 C819 1.400 . S
C818 C823 1.490 . S
C819 H809 0.930 . S
C819 C818 1.400 . S
C819 C822 1.386 . S
H820 C836 0.930 . S
H821 C837 0.931 . S
C822 H810 0.929 . S
C822 C816 1.390 . S
C822 C819 1.386 . S
C823 C818 1.490 . S
C823 C825 1.395 . S
C823 C826 1.403 . S
H824 C830 0.930 . S
C825 H811 0.930 . S
C825 C823 1.395 . S
C825 C828 1.403 . S
C826 C823 1.403 . S
C826 C827 1.524 . S
C826 C830 1.400 . S
C827 H812 0.960 . S
C827 H813 0.960 . S
C827 H814 0.960 . S
C827 C826 1.524 . S
C828 C825 1.403 . S
C828 C829 1.392 . S
C828 C832 1.495 . S
C829 C828 1.392 . S
C829 C830 1.385 . S
C829 C831 1.478 . S
C830 H824 0.930 . S
C830 C826 1.400 . S
C830 C829 1.385 . S
C831 C829 1.478 . S
C831 C833 1.381 . S
C831 C837 1.383 . S
C832 C828 1.495 . S
C832 H838 0.959 . S
C832 H839 0.961 . S
C832 H840 0.960 . S
C833 C831 1.381 . S
C833 C834 1.394 . S
C833 H841 0.930 . S
C834 C833 1.394 . S
C834 C835 1.383 . S
C834 H842 0.929 . S
C835 C834 1.383 . S
C835 C836 1.377 . S
C836 H820 0.930 . S
C836 C835 1.377 . S
C836 C837 1.379 . S
C837 H821 0.931 . S
C837 C831 1.383 . S
C837 C836 1.379 . S
H838 C832 0.959 . S
H839 C832 0.961 . S
H840 C832 0.960 . S
H841 C833 0.930 . S
H842 C834 0.929 . S
H843 C851 0.929 . S
H844 C853 0.930 . S
H845 C855 0.930 . S
H846 C858 0.929 . S
H847 C861 0.930 . S
H848 C863 0.960 . S
H849 C863 0.960 . S
H850 C863 0.960 . S
C851 H843 0.929 . S
C851 C852 1.377 . S
C851 C853 1.384 . S
C852 C851 1.377 . S
C852 C858 1.390 . S
C853 H844 0.930 . S
C853 C851 1.384 . S
C853 C854 1.372 . S
C854 C853 1.372 . S
C854 C855 1.400 . S
C854 C859 1.490 . S
C855 H845 0.930 . S
C855 C854 1.400 . S
C855 C858 1.386 . S
H856 C872 0.930 . S
H857 C873 0.931 . S
C858 H846 0.929 . S
C858 C852 1.390 . S
C858 C855 1.386 . S
C859 C854 1.490 . S
C859 C861 1.395 . S
C859 C862 1.403 . S
H860 C866 0.930 . S
C861 H847 0.930 . S
C861 C859 1.395 . S
C861 C864 1.403 . S
C862 C859 1.403 . S
C862 C863 1.524 . S
C862 C866 1.400 . S
C863 H848 0.960 . S
C863 H849 0.960 . S
C863 H850 0.960 . S
C863 C862 1.524 . S
C864 C861 1.403 . S
C864 C865 1.392 . S
C864 C868 1.495 . S
C865 C864 1.392 . S
C865 C866 1.385 . S
C865 C867 1.478 . S
C866 H860 0.930 . S
C866 C862 1.400 . S
C866 C865 1.385 . S
C867 C865 1.478 . S
C867 C869 1.381 . S
C867 C873 1.383 . S
C868 C864 1.495 . S
C868 H874 0.959 . S
C868 H875 0.961 . S
C868 H876 0.960 . S
C869 C867 1.381 . S
C869 C870 1.394 . S
C869 H877 0.930 . S
C870 C869 1.394 . S
C870 C871 1.383 . S
C870 H878 0.929 . S
C871 C870 1.383 . S
C871 C872 1.377 . S
C872 H856 0.930 . S
C872 C871 1.377 . S
C872 C873 1.379 . S
C873 H857 0.931 . S
C873 C867 1.383 . S
C873 C872 1.379 . S
H874 C868 0.959 . S
H875 C868 0.961 . S
H876 C868 0.960 . S
H877 C869 0.930 . S
H878 C870 0.929 . S
H879 C887 0.929 . S
H880 C889 0.930 . S
H881 C891 0.930 . S
H882 C894 0.929 . S
H883 C897 0.930 . S
H884 C899 0.960 . S
H885 C899 0.960 . S
H886 C899 0.960 . S
C887 H879 0.929 . S
C887 C888 1.377 . S
C887 C889 1.384 . S
C888 C887 1.377 . S
C888 C894 1.390 . S
C889 H880 0.930 . S
C889 C887 1.384 . S
C889 C890 1.372 . S
C890 C889 1.372 . S
C890 C891 1.400 . S
C890 C895 1.490 . S
C891 H881 0.930 . S
C891 C890 1.400 . S
C891 C894 1.386 . S
H892 C908 0.930 . S
H893 C909 0.931 . S
C894 H882 0.929 . S
C894 C888 1.390 . S
C894 C891 1.386 . S
C895 C890 1.490 . S
C895 C897 1.395 . S
C895 C898 1.403 . S
H896 C902 0.930 . S
C897 H883 0.930 . S
C897 C895 1.395 . S
C897 C900 1.403 . S
C898 C895 1.403 . S
C898 C899 1.524 . S
C898 C902 1.400 . S
C899 H884 0.960 . S
C899 H885 0.960 . S
C899 H886 0.960 . S
C899 C898 1.524 . S
C900 C897 1.403 . S
C900 C901 1.392 . S
C900 C904 1.495 . S
C901 C900 1.392 . S
C901 C902 1.385 . S
C901 C903 1.478 . S
C902 H896 0.930 . S
C902 C898 1.400 . S
C902 C901 1.385 . S
C903 C901 1.478 . S
C903 C905 1.381 . S
C903 C909 1.383 . S
C904 C900 1.495 . S
C904 H910 0.959 . S
C904 H911 0.961 . S
C904 H912 0.960 . S
C905 C903 1.381 . S
C905 C906 1.394 . S
C905 H913 0.930 . S
C906 C905 1.394 . S
C906 C907 1.383 . S
C906 H914 0.929 . S
C907 C906 1.383 . S
C907 C908 1.377 . S
C908 H892 0.930 . S
C908 C907 1.377 . S
C908 C909 1.379 . S
C909 H893 0.931 . S
C909 C903 1.383 . S
C909 C908 1.379 . S
H910 C904 0.959 . S
H911 C904 0.961 . S
H912 C904 0.960 . S
H913 C905 0.930 . S
H914 C906 0.929 . S
H915 C923 0.929 . S
H916 C925 0.930 . S
H917 C927 0.930 . S
H918 C930 0.929 . S
H919 C933 0.930 . S
H920 C935 0.960 . S
H921 C935 0.960 . S
H922 C935 0.960 . S
C923 H915 0.929 . S
C923 C924 1.377 . S
C923 C925 1.384 . S
C924 C923 1.377 . S
C924 C930 1.390 . S
C925 H916 0.930 . S
C925 C923 1.384 . S
C925 C926 1.372 . S
C926 C925 1.372 . S
C926 C927 1.400 . S
C926 C931 1.490 . S
C927 H917 0.930 . S
C927 C926 1.400 . S
C927 C930 1.386 . S
H928 C944 0.930 . S
H929 C945 0.931 . S
C930 H918 0.929 . S
C930 C924 1.390 . S
C930 C927 1.386 . S
C931 C926 1.490 . S
C931 C933 1.395 . S
C931 C934 1.403 . S
H932 C938 0.930 . S
C933 H919 0.930 . S
C933 C931 1.395 . S
C933 C936 1.403 . S
C934 C931 1.403 . S
C934 C935 1.524 . S
C934 C938 1.400 . S
C935 H920 0.960 . S
C935 H921 0.960 . S
C935 H922 0.960 . S
C935 C934 1.524 . S
C936 C933 1.403 . S
C936 C937 1.392 . S
C936 C940 1.495 . S
C937 C936 1.392 . S
C937 C938 1.385 . S
C937 C939 1.478 . S
C938 H932 0.930 . S
C938 C934 1.400 . S
C938 C937 1.385 . S
C939 C937 1.478 . S
C939 C941 1.381 . S
C939 C945 1.383 . S
C940 C936 1.495 . S
C940 H946 0.959 . S
C940 H947 0.961 . S
C940 H948 0.960 . S
C941 C939 1.381 . S
C941 C942 1.394 . S
C941 H949 0.930 . S
C942 C941 1.394 . S
C942 C943 1.383 . S
C942 H950 0.929 . S
C943 C942 1.383 . S
C943 C944 1.377 . S
C944 H928 0.930 . S
C944 C943 1.377 . S
C944 C945 1.379 . S
C945 H929 0.931 . S
C945 C939 1.383 . S
C945 C944 1.379 . S
H946 C940 0.959 . S
H947 C940 0.961 . S
H948 C940 0.960 . S
H949 C941 0.930 . S
H950 C942 0.929 . S
H951 C959 0.929 . S
H952 C961 0.930 . S
H953 C963 0.930 . S
H954 C966 0.929 . S
H955 C969 0.930 . S
H956 C971 0.960 . S
H957 C971 0.960 . S
H958 C971 0.960 . S
C959 H951 0.929 . S
C959 C960 1.377 . S
C959 C961 1.384 . S
C960 C959 1.377 . S
C960 C966 1.390 . S
C961 H952 0.930 . S
C961 C959 1.384 . S
C961 C962 1.372 . S
C962 C961 1.372 . S
C962 C963 1.400 . S
C962 C967 1.490 . S
C963 H953 0.930 . S
C963 C962 1.400 . S
C963 C966 1.386 . S
H964 C980 0.930 . S
H965 C981 0.931 . S
C966 H954 0.929 . S
C966 C960 1.390 . S
C966 C963 1.386 . S
C967 C962 1.490 . S
C967 C969 1.395 . S
C967 C970 1.403 . S
H968 C974 0.930 . S
C969 H955 0.930 . S
C969 C967 1.395 . S
C969 C972 1.403 . S
C970 C967 1.403 . S
C970 C971 1.524 . S
C970 C974 1.400 . S
C971 H956 0.960 . S
C971 H957 0.960 . S
C971 H958 0.960 . S
C971 C970 1.524 . S
C972 C969 1.403 . S
C972 C973 1.392 . S
C972 C976 1.495 . S
C973 C972 1.392 . S
C973 C974 1.385 . S
C973 C975 1.478 . S
C974 H968 0.930 . S
C974 C970 1.400 . S
C974 C973 1.385 . S
C975 C973 1.478 . S
C975 C977 1.381 . S
C975 C981 1.383 . S
C976 C972 1.495 . S
C976 H982 0.959 . S
C976 H983 0.961 . S
C976 H984 0.960 . S
C977 C975 1.381 . S
C977 C978 1.394 . S
C977 H985 0.930 . S
C978 C977 1.394 . S
C978 C979 1.383 . S
C978 H986 0.929 . S
C979 C978 1.383 . S
C979 C980 1.377 . S
C980 H964 0.930 . S
C980 C979 1.377 . S
C980 C981 1.379 . S
C981 H965 0.931 . S
C981 C975 1.383 . S
C981 C980 1.379 . S
H982 C976 0.959 . S
H983 C976 0.961 . S
H984 C976 0.960 . S
H985 C977 0.930 . S
H986 C978 0.929 . S
H987 C995 0.929 . S
H988 C997 0.930 . S
H989 C999 0.930 . S
H990 C1002 0.929 . S
H991 C1005 0.930 . S
H992 C1007 0.960 . S
H993 C1007 0.960 . S
H994 C1007 0.960 . S
C995 H987 0.929 . S
C995 C996 1.377 . S
C995 C997 1.384 . S
C996 C995 1.377 . S
C996 C1002 1.390 . S
C997 H988 0.930 . S
C997 C995 1.384 . S
C997 C998 1.372 . S
C998 C997 1.372 . S
C998 C999 1.400 . S
C998 C1003 1.490 . S
C999 H989 0.930 . S
C999 C998 1.400 . S
C999 C1002 1.386 . S
H1000 C1016 0.930 . S
H1001 C1017 0.931 . S
C1002 H990 0.929 . S
C1002 C996 1.390 . S
C1002 C999 1.386 . S
C1003 C998 1.490 . S
C1003 C1005 1.395 . S
C1003 C1006 1.403 . S
H1004 C1010 0.930 . S
C1005 H991 0.930 . S
C1005 C1003 1.395 . S
C1005 C1008 1.403 . S
C1006 C1003 1.403 . S
C1006 C1007 1.524 . S
C1006 C1010 1.400 . S
C1007 H992 0.960 . S
C1007 H993 0.960 . S
C1007 H994 0.960 . S
C1007 C1006 1.524 . S
C1008 C1005 1.403 . S
C1008 C1009 1.392 . S
C1008 C1012 1.495 . S
C1009 C1008 1.392 . S
C1009 C1010 1.385 . S
C1009 C1011 1.478 . S
C1010 H1004 0.930 . S
C1010 C1006 1.400 . S
C1010 C1009 1.385 . S
C1011 C1009 1.478 . S
C1011 C1013 1.381 . S
C1011 C1017 1.383 . S
C1012 C1008 1.495 . S
C1012 H1018 0.959 . S
C1012 H1019 0.961 . S
C1012 H1020 0.960 . S
C1013 C1011 1.381 . S
C1013 C1014 1.394 . S
C1013 H1021 0.930 . S
C1014 C1013 1.394 . S
C1014 C1015 1.383 . S
C1014 H1022 0.929 . S
C1015 C1014 1.383 . S
C1015 C1016 1.377 . S
C1016 H1000 0.930 . S
C1016 C1015 1.377 . S
C1016 C1017 1.379 . S
C1017 H1001 0.931 . S
C1017 C1011 1.383 . S
C1017 C1016 1.379 . S
H1018 C1012 0.959 . S
H1019 C1012 0.961 . S
H1020 C1012 0.960 . S
H1021 C1013 0.930 . S
H1022 C1014 0.929 . S
H1023 C1031 0.929 . S
H1024 C1033 0.930 . S
H1025 C1035 0.930 . S
H1026 C1038 0.929 . S
H1027 C1041 0.930 . S
H1028 C1043 0.960 . S
H1029 C1043 0.960 . S
H1030 C1043 0.960 . S
C1031 H1023 0.929 . S
C1031 C1032 1.377 . S
C1031 C1033 1.384 . S
C1032 C1031 1.377 . S
C1032 C1038 1.390 . S
C1033 H1024 0.930 . S
C1033 C1031 1.384 . S
C1033 C1034 1.372 . S
C1034 C1033 1.372 . S
C1034 C1035 1.400 . S
C1034 C1039 1.490 . S
C1035 H1025 0.930 . S
C1035 C1034 1.400 . S
C1035 C1038 1.386 . S
H1036 C1052 0.930 . S
H1037 C1053 0.931 . S
C1038 H1026 0.929 . S
C1038 C1032 1.390 . S
C1038 C1035 1.386 . S
C1039 C1034 1.490 . S
C1039 C1041 1.395 . S
C1039 C1042 1.403 . S
H1040 C1046 0.930 . S
C1041 H1027 0.930 . S
C1041 C1039 1.395 . S
C1041 C1044 1.403 . S
C1042 C1039 1.403 . S
C1042 C1043 1.524 . S
C1042 C1046 1.400 . S
C1043 H1028 0.960 . S
C1043 H1029 0.960 . S
C1043 H1030 0.960 . S
C1043 C1042 1.524 . S
C1044 C1041 1.403 . S
C1044 C1045 1.392 . S
C1044 C1048 1.495 . S
C1045 C1044 1.392 . S
C1045 C1046 1.385 . S
C1045 C1047 1.478 . S
C1046 H1040 0.930 . S
C1046 C1042 1.400 . S
C1046 C1045 1.385 . S
C1047 C1045 1.478 . S
C1047 C1049 1.381 . S
C1047 C1053 1.383 . S
C1048 C1044 1.495 . S
C1048 H1054 0.959 . S
C1048 H1055 0.961 . S
C1048 H1056 0.960 . S
C1049 C1047 1.381 . S
C1049 C1050 1.394 . S
C1049 H1057 0.930 . S
C1050 C1049 1.394 . S
C1050 C1051 1.383 . S
C1050 H1058 0.929 . S
C1051 C1050 1.383 . S
C1051 C1052 1.377 . S
C1052 H1036 0.930 . S
C1052 C1051 1.377 . S
C1052 C1053 1.379 . S
C1053 H1037 0.931 . S
C1053 C1047 1.383 . S
C1053 C1052 1.379 . S
H1054 C1048 0.959 . S
H1055 C1048 0.961 . S
H1056 C1048 0.960 . S
H1057 C1049 0.930 . S
H1058 C1050 0.929 . S
C223 C120 1.391 . S
C204 C6 1.502 . S
C259 C156 1.761 . S
C240 C21 1.884 . S
C295 C121 1.366 . S
C276 C28 1.402 . S
C331 C151 1.009 . S
C312 C45 1.003 . S
C367 C118 1.539 . S
C348 C54 1.601 . S
C384 C69 2.112 . S
C403 C154 2.100 . S
C420 C81 0.435 . S
C439 C123 0.659 . S
C475 C153 1.415 . S
C456 C88 1.480 . S
C511 C157 1.382 . S
C492 C4 1.398 . S
C547 C122 1.555 . S
C528 C18 1.581 . S
C583 C150 1.976 . S
C564 C33 1.976 . S
C619 C119 0.610 . S
C600 C42 0.393 . S
C655 C152 1.867 . S
C636 C57 1.969 . S
C672 C64 1.453 . S
C691 C117 1.457 . S
C708 C78 0.960 . S
C727 C155 0.895 . S
C763 C124 1.430 . S
C744 C93 1.482 . S
C799 C186 2.094 . S
C780 C9 2.188 . S
C816 C52 1.982 . S
C835 C189 1.865 . S
C871 C188 2.007 . S
C852 C66 2.111 . S
C888 C76 1.219 . S
C907 C187 1.191 . S
C943 C190 1.954 . S
C924 C90 2.063 . S
C960 C30 2.016 . S
C979 C184 1.961 . S
C1015 C183 1.226 . S
C996 C40 1.218 . S
C1032 C16 1.922 . S
C1051 C185 1.829 . S
