# Generated by pormake.
# Topology pyr, (3,6)-cn, num edge types: 1
# Building blocks:
#     Node 0, Type 0, BuildingBlock: CUQRIR_clean_linker_1, # of connection points: 3
#     Node 1, Type 0, BuildingBlock: CUQRIR_clean_linker_1, # of connection points: 3
#     Node 2, Type 0, BuildingBlock: CUQRIR_clean_linker_1, # of connection points: 3
#     Node 3, Type 0, BuildingBlock: CUQRIR_clean_linker_1, # of connection points: 3
#     Node 4, Type 0, BuildingBlock: CUQRIR_clean_linker_1, # of connection points: 3
#     Node 5, Type 0, BuildingBlock: CUQRIR_clean_linker_1, # of connection points: 3
#     Node 6, Type 0, BuildingBlock: CUQRIR_clean_linker_1, # of connection points: 3
#     Node 7, Type 0, BuildingBlock: CUQRIR_clean_linker_1, # of connection points: 3
#     Node 8, Type 1, BuildingBlock: BETGAK_clean_sbu_0, # of connection points: 6
#     Node 9, Type 1, BuildingBlock: BETGAK_clean_sbu_0, # of connection points: 6
#     Node 10, Type 1, BuildingBlock: BETGAK_clean_sbu_0, # of connection points: 6
#     Node 11, Type 1, BuildingBlock: BETGAK_clean_sbu_0, # of connection points: 6
#     Edge 12, Type (0, 1), BuildingBlock: XIVTED_clean_linker_0, # of connection points: 2
#     Edge 13, Type (0, 1), BuildingBlock: XIVTED_clean_linker_0, # of connection points: 2
#     Edge 14, Type (0, 1), BuildingBlock: XIVTED_clean_linker_0, # of connection points: 2
#     Edge 15, Type (0, 1), BuildingBlock: XIVTED_clean_linker_0, # of connection points: 2
#     Edge 16, Type (0, 1), BuildingBlock: XIVTED_clean_linker_0, # of connection points: 2
#     Edge 17, Type (0, 1), BuildingBlock: XIVTED_clean_linker_0, # of connection points: 2
#     Edge 18, Type (0, 1), BuildingBlock: XIVTED_clean_linker_0, # of connection points: 2
#     Edge 19, Type (0, 1), BuildingBlock: XIVTED_clean_linker_0, # of connection points: 2
#     Edge 20, Type (0, 1), BuildingBlock: XIVTED_clean_linker_0, # of connection points: 2
#     Edge 21, Type (0, 1), BuildingBlock: XIVTED_clean_linker_0, # of connection points: 2
#     Edge 22, Type (0, 1), BuildingBlock: XIVTED_clean_linker_0, # of connection points: 2
#     Edge 23, Type (0, 1), BuildingBlock: XIVTED_clean_linker_0, # of connection points: 2
#     Edge 24, Type (0, 1), BuildingBlock: XIVTED_clean_linker_0, # of connection points: 2
#     Edge 25, Type (0, 1), BuildingBlock: XIVTED_clean_linker_0, # of connection points: 2
#     Edge 26, Type (0, 1), BuildingBlock: XIVTED_clean_linker_0, # of connection points: 2
#     Edge 27, Type (0, 1), BuildingBlock: XIVTED_clean_linker_0, # of connection points: 2
#     Edge 28, Type (0, 1), BuildingBlock: XIVTED_clean_linker_0, # of connection points: 2
#     Edge 29, Type (0, 1), BuildingBlock: XIVTED_clean_linker_0, # of connection points: 2
#     Edge 30, Type (0, 1), BuildingBlock: XIVTED_clean_linker_0, # of connection points: 2
#     Edge 31, Type (0, 1), BuildingBlock: XIVTED_clean_linker_0, # of connection points: 2
#     Edge 32, Type (0, 1), BuildingBlock: XIVTED_clean_linker_0, # of connection points: 2
#     Edge 33, Type (0, 1), BuildingBlock: XIVTED_clean_linker_0, # of connection points: 2
#     Edge 34, Type (0, 1), BuildingBlock: XIVTED_clean_linker_0, # of connection points: 2
#     Edge 35, Type (0, 1), BuildingBlock: XIVTED_clean_linker_0, # of connection points: 2
# Relax obj value: 0.207
# Max RMSD: 0.259
# Mean RMSD: 0.169
data_MOF--net-pyr--node1-BETGAK_clean_sbu_0--node2-CUQRIR_clean_linker_1--edge1-XIVTED_clean_linker_0
_symmetry_space_group_name_H-M    P1
_symmetry_Int_Tables_number       1
_symmetry_cell_setting            triclinic
loop_
_symmetry_equiv_pos_as_xyz
'x, y, z'
_cell_length_a     35.554012
_cell_length_b     37.349802
_cell_length_c     33.291599
_cell_angle_alpha  90.332029
_cell_angle_beta   89.742065
_cell_angle_gamma 106.40097
loop_
_atom_site_label
_atom_site_type_symbol
_atom_site_fract_x
_atom_site_fract_y
_atom_site_fract_z
_atom_type_partial_charge
C0 C 0.34729 0.37657 0.23551 0.0
N1 N 0.36506 0.34955 0.2422 0.0
N2 N 0.35658 0.39161 0.19855 0.0
C3 C 0.31506 0.38286 0.26201 0.0
C4 C 0.38018 0.37229 0.18281 0.0
N5 N 0.3855 0.34693 0.20942 0.0
C6 C 0.39581 0.3766 0.1406 0.0
H7 H 0.29972 0.40188 0.24871 0.0
H8 H 0.3278 0.39466 0.2912 0.0
H9 H 0.29297 0.35583 0.26824 0.0
H10 H 0.39926 0.40538 0.12969 0.0
H11 H 0.37476 0.35687 0.12066 0.0
H12 H 0.42435 0.37006 0.13894 0.0
C13 C 0.36489 1.01695 0.59434 0.0
N14 N 0.34771 1.03588 0.61991 0.0
N15 N 0.39579 1.00894 0.61188 0.0
C16 C 0.35122 1.00535 0.55229 0.0
C17 C 0.39735 1.02455 0.64886 0.0
N18 N 0.36844 1.04126 0.65354 0.0
C19 C 0.42229 1.01729 0.68262 0.0
H20 H 0.32936 0.97751 0.55278 0.0
H21 H 0.37627 1.00329 0.53329 0.0
H22 H 0.33733 1.02561 0.53891 0.0
H23 H 0.45298 1.02212 0.67225 0.0
H24 H 0.41116 0.98763 0.6918 0.0
H25 H 0.42197 1.03532 0.70912 0.0
C26 C 0.62392 0.39858 0.88579 0.0
N27 N 0.64686 0.39498 0.91748 0.0
N28 N 0.63876 0.43172 0.86666 0.0
C29 C 0.58589 0.37054 0.87478 0.0
C30 C 0.67163 0.44814 0.88784 0.0
N31 N 0.67675 0.42611 0.91855 0.0
C32 C 0.69913 0.48582 0.87818 0.0
H33 H 0.58676 0.34183 0.88206 0.0
H34 H 0.57921 0.37202 0.84247 0.0
H35 H 0.56182 0.37667 0.89234 0.0
H36 H 0.69034 0.50743 0.89587 0.0
H37 H 0.69785 0.49229 0.84581 0.0
H38 H 0.72972 0.48707 0.88625 0.0
C39 C 0.84017 0.72377 0.38125 0.0
N40 N 0.87501 0.74894 0.37145 0.0
N41 N 0.82191 0.73632 0.41202 0.0
C42 C 0.82522 0.68589 0.36197 0.0
C43 C 0.84686 0.77024 0.4206 0.0
N44 N 0.8792 0.77817 0.39649 0.0
C45 C 0.83943 0.79607 0.45272 0.0
H46 H 0.81958 0.68933 0.32967 0.0
H47 H 0.79804 0.66871 0.37644 0.0
H48 H 0.84793 0.67081 0.36382 0.0
H49 H 0.85485 0.7922 0.48056 0.0
H50 H 0.80767 0.79011 0.45942 0.0
H51 H 0.85085 0.82566 0.44355 0.0
C52 C 0.6714 0.85372 0.91634 0.0
N53 N 0.69874 0.84239 0.89551 0.0
N54 N 0.65865 0.87856 0.89461 0.0
C55 C 0.66099 0.8445 0.95969 0.0
C56 C 0.67905 0.88151 0.85976 0.0
N57 N 0.70358 0.8598 0.86039 0.0
C58 C 0.67883 0.90919 0.82717 0.0
H59 H 0.62885 0.83768 0.96408 0.0
H60 H 0.67488 0.86922 0.97861 0.0
H61 H 0.67088 0.82042 0.96984 0.0
H62 H 0.705 0.93365 0.83043 0.0
H63 H 0.65198 0.9187 0.82871 0.0
H64 H 0.68062 0.89644 0.7973 0.0
C65 C 0.82905 0.31654 0.53829 0.0
N66 N 0.83897 0.29388 0.51076 0.0
N67 N 0.81181 0.34018 0.52028 0.0
C68 C 0.83625 0.31609 0.58269 0.0
C69 C 0.81118 0.33093 0.48089 0.0
N70 N 0.82829 0.30327 0.47503 0.0
C71 C 0.78838 0.34468 0.44919 0.0
H72 H 0.81052 0.29654 0.59732 0.0
H73 H 0.84003 0.34426 0.59584 0.0
H74 H 0.86263 0.30677 0.58894 0.0
H75 H 0.80891 0.36726 0.43187 0.0
H76 H 0.7653 0.35581 0.46242 0.0
H77 H 0.77412 0.32196 0.42795 0.0
C78 C 0.34867 0.73275 0.28105 0.0
N79 N 0.38258 0.75852 0.29189 0.0
N80 N 0.32857 0.74686 0.25367 0.0
C81 C 0.33533 0.6935 0.29696 0.0
C82 C 0.35124 0.78231 0.24848 0.0
N83 N 0.3841 0.78959 0.27133 0.0
C84 C 0.34068 0.81057 0.22191 0.0
H85 H 0.31669 0.67429 0.27476 0.0
H86 H 0.31794 0.69334 0.32476 0.0
H87 H 0.36053 0.68291 0.30456 0.0
H88 H 0.30845 0.80434 0.21852 0.0
H89 H 0.35399 0.80994 0.1918 0.0
H90 H 0.35215 0.8392 0.23427 0.0
C91 C 0.12902 0.41507 0.78301 0.0
N92 N 0.15324 0.41038 0.75259 0.0
N93 N 0.14243 0.44926 0.80091 0.0
C94 C 0.09077 0.3871 0.79351 0.0
C95 C 0.17599 0.46516 0.77993 0.0
N96 N 0.18261 0.44191 0.75066 0.0
C97 C 0.20298 0.50337 0.78861 0.0
H98 H 0.07782 0.37026 0.76681 0.0
H99 H 0.06954 0.4012 0.80569 0.0
H100 H 0.09612 0.36795 0.81674 0.0
H101 H 0.23384 0.50496 0.7813 0.0
H102 H 0.2011 0.51105 0.82065 0.0
H103 H 0.19426 0.52405 0.76972 0.0
La104 La 0.04183 0.11459 0.51873 0.0
La105 La 0.03264 0.07895 0.59827 0.0
C106 C 0.04672 0.15484 0.45787 0.0
C107 C 0.0826 0.18009 0.44178 0.0
C108 C 0.11626 0.18957 0.46595 0.0
C109 C 0.15292 0.20575 0.449 0.0
C110 C 0.15646 0.2125 0.40756 0.0
C111 C 0.12241 0.20484 0.38381 0.0
C112 C 0.08564 0.18855 0.40084 0.0
C113 C 0.10254 0.09292 0.54352 0.0
C114 C 0.06649 0.16603 0.59782 0.0
C115 C 0.03602 1.03767 0.65645 0.0
C116 C 1.00775 1.00335 0.66957 0.0
C117 C 0.97056 0.99266 0.65184 0.0
C118 C 0.94074 0.96423 0.66868 0.0
C119 C 0.94783 0.94588 0.70336 0.0
C120 C 0.9862 0.9545 0.71878 0.0
C121 C 1.01599 0.98337 0.70212 0.0
C122 C 0.97209 0.10192 0.57637 0.0
C123 C 1.00443 1.02814 0.51897 0.0
O124 O 0.04659 0.1199 0.45625 0.0
O125 O 0.03548 0.16386 0.49303 0.0
O126 O 0.09209 0.09237 0.50649 0.0
O127 O 0.08166 0.10779 0.56395 0.0
O128 O 0.05371 0.16385 0.56009 0.0
O129 O 0.067 0.13513 0.61698 0.0
O130 O 1.02332 0.06722 0.65939 0.0
O131 O 0.05281 1.0357 0.62177 0.0
O132 O 0.9822 0.0994 0.61327 0.0
O133 O 0.99259 0.08773 0.55408 0.0
O134 O 1.01722 1.02977 0.55664 0.0
O135 O 1.00448 0.05942 0.5003 0.0
H136 H 0.11447 0.18237 0.49754 0.0
H137 H 0.17863 0.21107 0.46793 0.0
H138 H 0.12433 0.21042 0.35186 0.0
H139 H 0.05997 0.18085 0.38176 0.0
H140 H 0.96393 1.00794 0.62651 0.0
H141 H 0.91154 0.95873 0.6563 0.0
H142 H 0.99266 0.94036 0.74506 0.0
H143 H 0.04478 0.99125 0.71579 0.0
La144 La 0.55929 0.0983 0.13288 0.0
La145 La 0.49035 0.08534 0.08471 0.0
C146 C 0.62844 0.10834 0.15714 0.0
C147 C 0.66072 0.13358 0.17854 0.0
C148 C 0.6942 0.1219 0.18534 0.0
C149 C 0.72313 0.14205 0.21125 0.0
C150 C 0.71883 0.17417 0.23044 0.0
C151 C 0.6862 0.18702 0.22176 0.0
C152 C 0.65704 0.16661 0.19598 0.0
C153 C 0.5015 1.04205 0.16023 0.0
C154 C 0.49923 0.13731 0.15836 0.0
C155 C 0.42317 1.05705 0.0561 0.0
C156 C 0.40763 0.06154 1.01643 0.0
C157 C 0.43352 0.07728 0.98521 0.0
C158 C 0.41916 0.08189 0.94735 0.0
C159 C 0.37862 0.07071 0.93998 0.0
C160 C 0.35269 1.05537 0.9715 0.0
C161 C 0.36716 1.05095 1.0096 0.0
C162 C 0.53503 0.15145 0.05959 0.0
C163 C 0.55424 1.05371 0.05121 0.0
O164 O 0.59732 0.09319 0.17866 0.0
O165 O 0.61982 0.11857 0.12172 0.0
O166 O 0.52336 0.0685 0.18216 0.0
O167 O 0.51122 1.04902 0.12371 0.0
O168 O 0.53746 0.14331 0.15521 0.0
O169 O 0.47551 0.10776 0.14103 0.0
O170 O 0.43222 0.08717 0.07839 0.0
O171 O 0.45067 1.04001 0.05635 0.0
O172 O 0.50088 0.13393 1.04606 0.0
O173 O 0.54416 0.13173 0.0869 0.0
O174 O 0.52381 0.06464 1.04076 0.0
O175 O 0.56931 0.06002 0.0874 0.0
H176 H 0.6971 0.09623 0.17208 0.0
H177 H 0.74812 0.1318 0.21748 0.0
H178 H 0.68216 0.21152 0.2367 0.0
H179 H 0.63098 0.17557 0.19111 0.0
H180 H 0.46492 0.08552 0.98993 0.0
H181 H 0.43992 0.09308 0.92351 0.0
H182 H 0.32132 1.04664 0.96662 0.0
H183 H 0.34685 1.03906 1.03357 0.0
La184 La 0.49713 0.55978 0.5529 0.0
La185 La 0.50469 0.62012 0.60684 0.0
C186 C 0.51001 0.5078 0.51156 0.0
C187 C 0.53788 0.48575 0.51743 0.0
C188 C 0.54011 0.46831 0.5543 0.0
C189 C 0.57133 0.45358 0.56204 0.0
C190 C 0.60088 0.45628 0.53315 0.0
C191 C 0.59742 0.47195 0.49554 0.0
C192 C 0.56614 0.48649 0.48775 0.0
C193 C 0.43048 0.55524 0.59218 0.0
C194 C 0.53187 0.55571 0.64124 0.0
C195 C 0.49397 0.67221 0.64948 0.0
C196 C 0.4861 0.70754 0.63933 0.0
C197 C 0.50696 0.74068 0.65843 0.0
C198 C 0.50057 0.77459 0.64769 0.0
C199 C 0.47343 0.77574 0.61744 0.0
C200 C 0.45334 0.74249 0.59783 0.0
C201 C 0.45925 0.70872 0.60902 0.0
C202 C 0.57108 0.62406 0.56697 0.0
C203 C 0.47394 0.62768 0.51703 0.0
O204 O 0.48117 0.50284 0.53731 0.0
O205 O 0.52641 0.54314 0.5046 0.0
O206 O 0.43326 0.54858 0.5542 0.0
O207 O 0.46479 0.56469 0.60682 0.0
O208 O 0.53256 0.54596 0.60285 0.0
O209 O 0.516 0.58232 0.65118 0.0
O210 O 0.52861 0.66978 0.63915 0.0
O211 O 0.46629 0.6418 0.64065 0.0
O212 O 0.5689 0.63217 0.6046 0.0
O213 O 0.53669 0.61477 0.55304 0.0
O214 O 0.47771 0.64031 0.55458 0.0
O215 O 0.48226 0.59625 0.50806 0.0
H216 H 0.51874 0.46742 0.57783 0.0
H217 H 0.57324 0.44159 0.59125 0.0
H218 H 0.61931 0.4736 0.47236 0.0
H219 H 0.56496 0.49979 0.45912 0.0
H220 H 0.52799 0.74027 0.68176 0.0
H221 H 0.51611 0.79966 0.66375 0.0
H222 H 0.43272 0.74246 0.57396 0.0
H223 H 0.44265 0.6835 0.59398 0.0
La224 La 1.00103 0.55555 0.11358 0.0
La225 La 0.99891 0.62741 0.06545 0.0
C226 C 1.01778 0.49747 0.13452 0.0
C227 C 0.05473 0.48723 0.13324 0.0
C228 C 0.06638 0.47094 0.16708 0.0
C229 C 0.10345 0.4651 0.16833 0.0
C230 C 0.12916 0.47502 0.13548 0.0
C231 C 0.11727 0.49073 0.10136 0.0
C232 C 0.08054 0.49731 0.10049 0.0
C233 C 0.9749 0.60356 0.16056 0.0
C234 C 0.07403 0.62681 0.11527 0.0
C235 C 0.9847 0.6875 1.04786 0.0
C236 C 0.96212 0.70085 1.0176 0.0
C237 C 0.97272 0.73888 1.00834 0.0
C238 C 0.94722 0.75365 0.98654 0.0
C239 C 0.91061 0.73056 0.97402 0.0
C240 C 0.90168 0.69186 0.98027 0.0
C241 C 0.92733 0.67708 1.00188 0.0
C242 C 0.02825 0.58267 1.01826 0.0
C243 C 0.92608 0.55291 0.06071 0.0
O244 O 1.0181 0.525 0.15905 0.0
O245 O 1.00136 0.50064 0.09998 0.0
O246 O 0.97691 0.57079 0.17102 0.0
O247 O 0.98557 0.60604 0.12407 0.0
O248 O 0.0616 0.58994 0.11585 0.0
O249 O 0.05251 0.64758 0.10094 0.0
O250 O 1.01625 0.67909 1.03559 0.0
O251 O 0.96382 0.66306 0.0732 0.0
O252 O 1.02275 0.61423 1.00789 0.0
O253 O 1.01655 0.57771 0.05461 0.0
O254 O 0.94116 0.58869 0.05087 0.0
O255 O 0.94419 0.53461 0.08444 0.0
H256 H 0.04717 0.46364 0.19295 0.0
H257 H 0.11207 0.45283 0.19492 0.0
H258 H 0.13685 0.49896 0.07591 0.0
H259 H 0.07284 0.51117 0.07469 0.0
H260 H 0.99967 0.75751 1.01992 0.0
H261 H 0.95523 0.78346 0.98132 0.0
H262 H 0.87371 0.67335 0.97106 0.0
H263 H 0.91883 0.64749 1.00844 0.0
H264 H 0.32515 0.27863 0.22556 0.0
H265 H 0.22057 0.26663 0.43497 0.0
H266 H 0.36993 0.35462 0.32301 0.0
H267 H 0.18183 0.1874 0.33835 0.0
H268 H 0.2836 0.29061 0.40086 0.0
H269 H 0.28326 0.23544 0.27247 0.0
C270 C 0.32743 0.28535 0.25726 0.0
C271 C 0.35086 0.32004 0.27068 0.0
C272 C 0.26151 0.26765 0.38737 0.0
C273 C 0.30123 0.27207 0.32422 0.0
C274 C 0.22552 0.25403 0.40678 0.0
C275 C 0.19564 0.22572 0.38884 0.0
C276 C 0.26747 0.25297 0.3497 0.0
C277 C 0.20363 0.21017 0.3525 0.0
C278 C 0.30302 0.261 0.28404 0.0
C279 C 0.35194 0.32807 0.31182 0.0
N280 N 0.2386 0.22433 0.33386 0.0
N281 N 0.32661 0.30465 0.33715 0.0
H282 H 0.39634 0.10788 0.68934 0.0
H283 H 0.32303 1.01709 0.89993 0.0
H284 H 0.31465 0.99931 0.70354 0.0
H285 H 0.40192 0.12768 0.88576 0.0
H286 H 0.30834 1.01549 0.82835 0.0
H287 H 0.38751 0.12142 0.76042 0.0
C288 C 0.37559 0.08747 0.70746 0.0
C289 C 0.35608 1.05264 0.69129 0.0
C290 C 0.3283 1.04042 0.84097 0.0
C291 C 0.34667 0.06693 0.77222 0.0
C292 C 0.33652 1.04142 0.88192 0.0
C293 C 0.36417 0.07233 0.89863 0.0
C294 C 0.34811 0.07045 0.81655 0.0
C295 C 0.38106 0.10295 0.87383 0.0
C296 C 0.37069 0.09495 0.74791 0.0
C297 C 0.32988 1.02655 0.71544 0.0
N298 N 0.3732 0.10102 0.83389 0.0
N299 N 0.32639 1.03396 0.75502 0.0
H300 H 0.62617 0.40653 0.78951 0.0
H301 H 0.54052 0.57476 0.72106 0.0
H302 H 0.61496 0.49457 0.86834 0.0
H303 H 0.56195 0.49449 0.63702 0.0
H304 H 0.5661 0.5445 0.77499 0.0
H305 H 0.60082 0.43619 0.7337 0.0
C306 C 0.61793 0.43189 0.79511 0.0
C307 C 0.62216 0.44782 0.83377 0.0
C308 C 0.56525 0.53333 0.74481 0.0
C309 C 0.59362 0.48242 0.76987 0.0
C310 C 0.55053 0.55067 0.71374 0.0
C311 C 0.54866 0.53719 0.67398 0.0
C312 C 0.57825 0.5018 0.73668 0.0
C313 C 0.5625 0.50588 0.66696 0.0
C314 C 0.60373 0.449 0.7632 0.0
C315 C 0.6119 0.48122 0.83913 0.0
N316 N 0.57648 0.48923 0.69787 0.0
N317 N 0.59809 0.49724 0.80777 0.0
H318 H 0.87597 0.76424 0.29154 0.0
H319 H 0.97432 0.60046 0.24178 0.0
H320 H 0.92995 0.71194 0.38005 0.0
H321 H 0.95243 0.67013 0.14732 0.0
H322 H 0.95723 0.64149 0.29142 0.0
H323 H 0.90371 0.73308 0.23797 0.0
C324 C 0.89516 0.74755 0.2997 0.0
C325 C 0.90172 0.74201 0.34069 0.0
C326 C 0.95626 0.64819 0.25992 0.0
C327 C 0.93187 0.70392 0.27907 0.0
C328 C 0.96598 0.62449 0.23119 0.0
C329 C 0.96506 0.63132 0.18964 0.0
C330 C 0.94454 0.67942 0.24784 0.0
C331 C 0.95392 0.66337 0.17861 0.0
C332 C 0.91048 0.72916 0.26902 0.0
C333 C 0.92518 0.71828 0.34914 0.0
N334 N 0.94378 0.68584 0.20732 0.0
N335 N 0.93878 0.69999 0.319 0.0
H336 H 0.3667 0.29366 0.15218 0.0
H337 H 0.53635 0.20202 0.19902 0.0
H338 H 0.44379 0.33315 0.25217 0.0
H339 H 0.42354 0.13908 0.15282 0.0
H340 H 0.50867 0.25398 0.2142 0.0
H341 H 0.39404 0.24061 0.14457 0.0
C342 C 0.39007 0.29142 0.17187 0.0
C343 C 0.40384 0.31784 0.20223 0.0
C344 C 0.49006 0.22849 0.20122 0.0
C345 C 0.43468 0.25748 0.19436 0.0
C346 C 0.50573 0.19889 0.19268 0.0
C347 C 0.48232 0.16627 0.17444 0.0
C348 C 0.45115 0.22556 0.1905 0.0
C349 C 0.44281 0.16368 0.16677 0.0
C350 C 0.4052 0.26103 0.16802 0.0
C351 C 0.43309 0.31333 0.22811 0.0
N352 N 0.42867 0.19316 0.17423 0.0
N353 N 0.44793 0.28377 0.22343 0.0
H354 H 0.28041 0.98482 0.59853 0.0
H355 H 0.14439 0.11966 0.6108 0.0
H356 H 0.32846 0.10003 0.63277 0.0
H357 H 0.13786 1.04338 0.51158 0.0
H358 H 0.2029 0.104 0.63525 0.0
H359 H 0.21784 0.99712 0.58322 0.0
C360 C 0.27772 1.01276 0.60254 0.0
C361 C 0.3098 1.04193 0.61524 0.0
C362 C 0.18844 0.09067 0.60826 0.0
C363 C 0.23835 1.05564 0.59977 0.0
C364 C 0.15521 0.09947 0.59435 0.0
C365 C 0.13684 0.08301 0.55891 0.0
C366 C 0.20244 0.0645 0.58715 0.0
C367 C 0.15166 1.05694 0.53873 0.0
C368 C 0.2421 1.01962 0.5942 0.0
C369 C 0.3044 0.07713 0.62233 0.0
N370 N 0.1836 1.04826 0.5533 0.0
N371 N 0.26923 0.08317 0.61428 0.0
H372 H 0.68557 0.48141 0.97294 0.0
H373 H 0.89729 0.47725 0.04888 0.0
H374 H 0.73979 0.3996 0.92863 0.0
H375 H 0.86644 0.57995 1.03282 0.0
H376 H 0.83433 0.44283 1.01906 0.0
H377 H 0.7457 0.51164 1.01051 0.0
C378 C 0.70968 0.46901 0.97243 0.0
C379 C 0.70725 0.4373 0.94858 0.0
C380 C 0.84133 0.47286 1.02225 0.0
C381 C 0.77649 0.4721 0.99084 0.0
C382 C 0.87721 0.4926 1.03942 0.0
C383 C 0.88736 0.53171 1.04348 0.0
C384 C 0.81476 0.49211 1.00985 0.0
C385 C 0.86007 0.54992 1.03026 0.0
C386 C 0.74412 0.48655 0.99334 0.0
C387 C 0.73981 0.42304 0.94784 0.0
N388 N 0.825 0.53 1.01438 0.0
N389 N 0.77306 0.44049 0.96862 0.0
H390 H 0.81395 0.72133 0.49163 0.0
H391 H 0.57963 0.62849 0.48431 0.0
H392 H 0.748 0.70858 0.38189 0.0
H393 H 0.64664 0.65129 0.59371 0.0
H394 H 0.64042 0.65433 0.44567 0.0
H395 H 0.75314 0.69284 0.52874 0.0
C396 C 0.78657 0.71233 0.47535 0.0
C397 C 0.78614 0.71728 0.43357 0.0
C398 C 0.64187 0.65357 0.47812 0.0
C399 C 0.7158 0.6843 0.47596 0.0
C400 C 0.60712 0.63867 0.50023 0.0
C401 C 0.60785 0.63763 0.54247 0.0
C402 C 0.6779 0.66744 0.49824 0.0
C403 C 0.64448 0.65146 0.5613 0.0
C404 C 0.75177 0.69603 0.49652 0.0
C405 C 0.74973 0.70498 0.41399 0.0
N406 N 0.67776 0.66569 0.5392 0.0
N407 N 0.71614 0.68914 0.43526 0.0
H408 H 0.35491 0.46184 0.21415 0.0
H409 H 0.16232 0.4377 0.08158 0.0
H410 H 0.30739 0.36747 0.13665 0.0
H411 H 0.18501 0.49954 0.19287 0.0
H412 H 0.226 0.4246 0.08752 0.0
H413 H 0.30393 0.48972 0.19107 0.0
C414 C 0.33455 0.44784 0.1911 0.0
C415 C 0.33497 0.41252 0.17719 0.0
C416 C 0.21719 0.44143 0.11031 0.0
C417 C 0.27679 0.44348 0.1512 0.0
C418 C 0.18103 0.44888 0.10694 0.0
C419 C 0.16848 0.46927 0.13707 0.0
C420 C 0.24104 0.45503 0.14369 0.0
C421 C 0.19356 0.48322 0.16938 0.0
C422 C 0.30535 0.4634 0.1783 0.0
C423 C 0.30795 0.39491 0.14773 0.0
N424 N 0.22868 0.47575 0.17193 0.0
N425 N 0.2795 0.41036 0.13602 0.0
H426 H 0.68749 0.34439 0.93351 0.0
H427 H 0.5015 0.20334 1.0336 0.0
H428 H 0.58331 0.37464 0.96606 0.0
H429 H 0.61578 0.18865 0.05398 0.0
H430 H 0.53207 0.26459 1.00516 0.0
H431 H 0.66452 0.28733 0.97446 0.0
C432 C 0.66041 0.33967 0.95022 0.0
C433 C 0.63758 0.36476 0.94672 0.0
C434 C 0.55073 0.24837 1.01614 0.0
C435 C 0.6101 0.29846 0.99224 0.0
C436 C 0.53323 0.21314 1.03245 0.0
C437 C 0.55592 0.19054 1.04655 0.0
C438 C 0.5917 0.26154 1.01261 0.0
C439 C 0.59701 0.2051 1.0439 0.0
C440 C 0.64706 0.30681 0.97328 0.0
C441 C 0.60191 0.35624 0.96792 0.0
N442 N 0.61357 0.23941 1.02674 0.0
N443 N 0.58916 0.32386 0.98912 0.0
H444 H 0.93646 0.7904 0.45199 0.0
H445 H 0.97132 1.01344 0.44341 0.0
H446 H 0.89099 0.84434 0.35802 0.0
H447 H 1.00345 0.95716 0.54474 0.0
H448 H 0.9485 0.95328 0.40829 0.0
H449 H 0.96995 0.85179 0.48087 0.0
C450 C 0.93531 0.81528 0.4361 0.0
C451 C 0.91171 0.81184 0.40161 0.0
C452 C 0.9606 0.95399 0.43816 0.0
C453 C 0.94852 0.88313 0.43605 0.0
C454 C 0.97364 0.98853 0.45845 0.0
C455 C 0.98942 0.99092 0.4975 0.0
C456 C 0.96339 0.92097 0.45657 0.0
C457 C 0.9915 0.95715 0.51489 0.0
C458 C 0.95364 0.85047 0.45325 0.0
C459 C 0.9098 0.84539 0.38372 0.0
N460 N 0.97878 0.92392 0.49446 0.0
N461 N 0.92738 0.87931 0.40124 0.0
H462 H 0.47097 1.0068 0.60316 0.0
H463 H 0.4013 0.78416 0.60199 0.0
H464 H 0.35099 0.93879 0.60169 0.0
H465 H 0.5231 0.8472 0.61263 0.0
H466 H 0.38428 0.84158 0.59101 0.0
H467 H 0.49261 0.9498 0.59713 0.0
C468 C 0.44936 0.97987 0.60073 0.0
C469 C 0.4093 0.97716 0.60242 0.0
C470 C 0.41483 0.84302 0.59546 0.0
C471 C 0.43327 0.91256 0.5958 0.0
C472 C 0.42465 0.81008 0.60141 0.0
C473 C 0.46372 0.81081 0.60831 0.0
C474 C 0.44412 0.87723 0.59695 0.0
C475 C 0.49251 0.84545 0.60808 0.0
C476 C 0.46156 0.94751 0.59736 0.0
C477 C 0.38212 0.94193 0.59951 0.0
N478 N 0.48208 0.87745 0.60282 0.0
N479 N 0.3946 0.91103 0.59654 0.0
H480 H 0.77398 0.89906 0.88635 0.0
H481 H 0.87996 0.89599 0.6758 0.0
H482 H 0.71369 0.83924 0.78389 0.0
H483 H 0.93843 0.94548 0.78454 0.0
H484 H 0.81986 0.87036 0.71469 0.0
H485 H 0.83568 0.9128 0.84937 0.0
C486 C 0.77416 0.88866 0.85594 0.0
C487 C 0.73941 0.86779 0.83795 0.0
C488 C 0.84612 0.88626 0.73004 0.0
C489 C 0.80926 0.88372 0.79504 0.0
C490 C 0.88038 0.90088 0.70791 0.0
C491 C 0.91423 0.92315 0.72687 0.0
C492 C 0.84585 0.89409 0.77129 0.0
C493 C 0.9133 0.92821 0.76859 0.0
C494 C 0.80918 0.89642 0.83481 0.0
C495 C 0.74032 0.85533 0.79841 0.0
N496 N 0.87955 0.91416 0.78925 0.0
N497 N 0.7749 0.86365 0.77798 0.0
H498 H 0.85633 0.32894 0.40233 0.0
H499 H 0.74059 0.13935 0.29374 0.0
H500 H 0.79264 0.22989 0.46537 0.0
H501 H 0.75682 0.24808 0.24138 0.0
H502 H 0.77867 0.16878 0.35213 0.0
H503 H 0.83891 0.29538 0.33825 0.0
C504 C 0.83966 0.29979 0.40248 0.0
C505 C 0.82581 0.28193 0.4387 0.0
C506 C 0.77445 0.18609 0.32752 0.0
C507 C 0.80601 0.24375 0.36656 0.0
C508 C 0.75297 0.16939 0.29423 0.0
C509 C 0.74567 0.19151 0.26299 0.0
C510 C 0.78888 0.22506 0.32928 0.0
C511 C 0.76172 0.23027 0.26515 0.0
C512 C 0.82963 0.28081 0.36622 0.0
C513 C 0.80419 0.24429 0.43793 0.0
N514 N 0.78253 0.24594 0.29799 0.0
N515 N 0.79461 0.22642 0.40227 0.0
H516 H 0.44017 0.72457 0.28518 0.0
H517 H 0.44428 0.68857 0.52353 0.0
H518 H 0.37911 0.77408 0.37095 0.0
H519 H 0.47961 0.62012 0.43467 0.0
H520 H 0.42885 0.72651 0.46962 0.0
H521 H 0.46538 0.69453 0.34053 0.0
C522 C 0.43362 0.73054 0.31587 0.0
C523 C 0.40837 0.75279 0.32342 0.0
C524 C 0.44002 0.70322 0.46185 0.0
C525 C 0.4357 0.71701 0.38734 0.0
C526 C 0.44886 0.68138 0.4928 0.0
C527 C 0.46316 0.65065 0.48412 0.0
C528 C 0.44591 0.69487 0.42143 0.0
C529 C 0.46838 0.64316 0.44322 0.0
C530 C 0.44728 0.71271 0.34749 0.0
C531 C 0.39936 0.75808 0.36382 0.0
N532 N 0.45992 0.66502 0.41366 0.0
N533 N 0.41269 0.74023 0.39407 0.0
H534 H 0.11503 0.41901 0.8743 0.0
H535 H 0.06585 0.60679 0.94892 0.0
H536 H 0.12848 0.51741 0.80275 0.0
H537 H 0.03003 0.50655 1.01954 0.0
H538 H 0.09201 0.57363 0.89812 0.0
H539 H 0.0868 0.44857 0.92903 0.0
C540 C 0.11195 0.44674 0.86993 0.0
C541 C 0.12462 0.46571 0.83355 0.0
C542 C 0.07875 0.55857 0.92467 0.0
C543 C 0.09252 0.50018 0.89681 0.0
C544 C 0.06366 0.57768 0.95415 0.0
C545 C 0.04586 0.55998 0.98948 0.0
C546 C 0.07655 0.52071 0.92957 0.0
C547 C 0.04419 0.52192 0.99359 0.0
C548 C 0.09591 0.4637 0.90138 0.0
C549 C 0.11998 0.50177 0.83016 0.0
N550 N 0.05932 0.50365 0.96415 0.0
N551 N 0.10466 0.51759 0.86105 0.0
H552 H 0.69091 0.95301 0.89965 0.0
H553 H 0.56939 0.98986 0.07234 0.0
H554 H 0.58653 0.8649 0.92745 0.0
H555 H 0.57045 0.06131 0.97071 0.0
H556 H 0.59193 0.9471 1.02853 0.0
H557 H 0.66217 0.99803 0.93297 0.0
C558 C 0.66158 0.94339 0.91201 0.0
C559 C 0.64067 0.90542 0.9107 0.0
C560 C 0.58708 0.97213 1.016 0.0
C561 C 0.60889 0.95595 0.94973 0.0
C562 C 0.57459 0.99652 1.04079 0.0
C563 C 0.56812 1.02882 1.02476 0.0
C564 C 0.59415 0.98081 0.97537 0.0
C565 C 0.57499 1.03638 0.98379 0.0
C566 C 0.64544 0.96892 0.93099 0.0
C567 C 0.60344 0.89394 0.92828 0.0
N568 N 0.58833 1.01263 0.96029 0.0
N569 N 0.58889 0.91909 0.9479 0.0
H570 H 0.81288 0.23853 0.56481 0.0
H571 H 0.96124 0.1237 0.49982 0.0
H572 H 0.89907 0.27767 0.47181 0.0
H573 H 0.92454 0.13069 0.62255 0.0
H574 H 0.92531 0.1684 0.48049 0.0
H575 H 0.84085 0.18682 0.57792 0.0
C576 C 0.83803 0.23643 0.54756 0.0
C577 C 0.85467 0.26296 0.5182 0.0
C578 C 0.92498 0.15981 0.51154 0.0
C579 C 0.88547 0.2032 0.5316 0.0
C580 C 0.94541 0.13445 0.52257 0.0
C581 C 0.94649 0.12431 0.56295 0.0
C582 C 0.90471 0.17406 0.54102 0.0
C583 C 0.9248 0.13823 0.59118 0.0
C584 C 0.8536 0.20677 0.55465 0.0
C585 C 0.8859 0.25794 0.49509 0.0
N586 N 0.90478 0.16245 0.57968 0.0
N587 N 0.90045 0.22862 0.50232 0.0
H588 H 0.26018 0.70706 0.28798 0.0
H589 H 0.12802 0.69302 0.09471 0.0
H590 H 0.31344 0.74523 0.17374 0.0
H591 H 0.10726 0.60215 0.17892 0.0
H592 H 0.19123 0.72221 0.12794 0.0
H593 H 0.19824 0.67714 0.25329 0.0
C594 C 0.25889 0.70892 0.25562 0.0
C595 C 0.29202 0.72853 0.2337 0.0
C596 C 0.17271 0.69585 0.13896 0.0
C597 C 0.22107 0.69575 0.19411 0.0
C598 C 0.13672 0.6793 0.12016 0.0
C599 C 0.11251 0.64505 0.13397 0.0
C600 C 0.18383 0.67859 0.17253 0.0
C601 C 0.12519 0.6284 0.16708 0.0
C602 C 0.22357 0.6921 0.23591 0.0
C603 C 0.28845 0.73082 0.1918 0.0
N604 N 0.1597 0.64552 0.18551 0.0
N605 N 0.25354 0.71497 0.17337 0.0
H606 H 0.25504 0.43615 0.76784 0.0
H607 H 0.35476 0.53827 0.56524 0.0
H608 H 0.18899 0.47023 0.67517 0.0
H609 H 0.421 0.53303 0.67195 0.0
H610 H 0.29408 0.50725 0.6015 0.0
H611 H 0.31578 0.46339 0.72942 0.0
C612 C 0.25327 0.44837 0.73875 0.0
C613 C 0.21674 0.45008 0.72426 0.0
C614 C 0.32181 0.51292 0.61712 0.0
C615 C 0.28648 0.48247 0.6803 0.0
C616 C 0.35658 0.53077 0.5964 0.0
C617 C 0.39329 0.53864 0.61548 0.0
C618 C 0.32334 0.502 0.65733 0.0
C619 C 0.39353 0.52794 0.65597 0.0
C620 C 0.288 0.46444 0.71706 0.0
C621 C 0.21633 0.46745 0.68697 0.0
N622 N 0.35932 0.51005 0.67532 0.0
N623 N 0.25046 0.48286 0.66638 0.0
H624 H 0.74541 0.86024 0.96068 0.0
H625 H 0.85754 0.70648 0.91271 0.0
H626 H 0.71432 0.78251 0.86219 0.0
H627 H 0.89293 0.79175 1.00408 0.0
H628 H 0.80331 0.73179 0.89485 0.0
H629 H 0.79729 0.8324 0.97957 0.0
C630 C 0.74889 0.83648 0.94386 0.0
C631 C 0.7251 0.82274 0.91063 0.0
C632 C 0.82314 0.74505 0.91863 0.0
C633 C 0.78518 0.79174 0.93077 0.0
C634 C 0.85406 0.73065 0.92879 0.0
C635 C 0.87996 0.74721 0.9597 0.0
C636 C 0.81798 0.77598 0.93982 0.0
C637 C 0.87417 0.77851 0.97953 0.0
C638 C 0.77883 0.82098 0.95414 0.0
C639 C 0.73179 0.79314 0.88848 0.0
N640 N 0.84375 0.79175 0.96935 0.0
N641 N 0.7613 0.77857 0.89888 0.0
H642 H 0.39805 0.85239 0.31642 0.0
H643 H 0.4899 0.97327 0.12297 0.0
H644 H 0.43768 0.8052 0.21216 0.0
H645 H 0.47659 1.02342 0.23707 0.0
H646 H 0.46964 0.91141 0.1548 0.0
H647 H 0.42889 0.91526 0.28994 0.0
C648 C 0.41517 0.85534 0.28903 0.0
C649 C 0.41606 0.8234 0.26701 0.0
C650 C 0.47108 0.93593 0.1729 0.0
C651 C 0.44928 0.89538 0.23481 0.0
C652 C 0.48223 0.97128 0.15457 0.0
C653 C 0.48482 1.00375 0.17727 0.0
C654 C 0.46199 0.93276 0.21426 0.0
C655 C 0.47497 0.99926 0.21832 0.0
C656 C 0.43195 0.89125 0.2733 0.0
C657 C 0.43716 0.82902 0.23061 0.0
N658 N 0.46393 0.96466 0.23535 0.0
N659 N 0.45211 0.86403 0.21528 0.0
H660 H 0.14952 0.34109 0.77889 0.0
H661 H 0.07798 0.23764 0.56729 0.0
H662 H 0.14265 0.40185 0.67121 0.0
H663 H 0.09082 0.18051 0.67627 0.0
H664 H 0.10293 0.29771 0.60283 0.0
H665 H 0.13054 0.28254 0.74038 0.0
C666 C 0.14465 0.34211 0.74689 0.0
C667 C 0.14817 0.37661 0.72832 0.0
C668 C 0.10035 0.27204 0.61895 0.0
C669 C 0.12533 0.30897 0.68349 0.0
C670 C 0.08597 0.23755 0.59863 0.0
C671 C 0.08201 0.20346 0.61857 0.0
C672 C 0.11087 0.27283 0.65982 0.0
C673 C 0.09318 0.20568 0.6593 0.0
C674 C 0.13355 0.30858 0.72482 0.0
C675 C 0.14099 0.37607 0.68671 0.0
N676 N 0.10682 0.2394 0.67833 0.0
N677 N 0.12971 0.34294 0.66583 0.0
H678 H 0.74952 0.31531 0.56896 0.0
H679 H 0.67739 0.49223 0.51646 0.0
H680 H 0.82128 0.41356 0.51065 0.0
H681 H 0.60395 0.39236 0.57146 0.0
H682 H 0.73421 0.46893 0.52633 0.0
H683 H 0.70062 0.34841 0.58404 0.0
C684 C 0.75548 0.34439 0.56076 0.0
C685 C 0.78913 0.36201 0.53868 0.0
C686 C 0.70576 0.45223 0.53664 0.0
C687 C 0.73323 0.39955 0.5543 0.0
C688 C 0.67328 0.46538 0.53069 0.0
C689 C 0.63582 0.44377 0.54233 0.0
C690 C 0.70074 0.41707 0.55412 0.0
C691 C 0.63229 0.40976 0.56177 0.0
C692 C 0.72748 0.36315 0.56887 0.0
C693 C 0.79553 0.39936 0.52784 0.0
N694 N 0.6643 0.39719 0.56656 0.0
N695 N 0.76746 0.41679 0.53515 0.0
loop_
_geom_bond_atom_site_label_1
_geom_bond_atom_site_label_2
_geom_bond_distance
_geom_bond_site_symmetry_2
_ccdc_geom_bond_type
C0 N1 1.317 . S
C0 N2 1.348 . S
C0 C3 1.485 . S
N1 C0 1.317 . S
N1 N5 1.370 . S
N2 C0 1.348 . S
N2 C4 1.346 . S
C3 C0 1.485 . S
C3 H7 0.960 . S
C3 H8 0.961 . S
C3 H9 0.960 . S
C4 N2 1.346 . S
C4 N5 1.307 . S
C4 C6 1.486 . S
N5 N1 1.370 . S
N5 C4 1.307 . S
C6 C4 1.486 . S
C6 H10 0.960 . S
C6 H11 0.960 . S
C6 H12 0.959 . S
H7 C3 0.960 . S
H8 C3 0.961 . S
H9 C3 0.960 . S
H10 C6 0.960 . S
H11 C6 0.960 . S
H12 C6 0.959 . S
C13 N14 1.317 . S
C13 N15 1.348 . S
C13 C16 1.485 . S
N14 C13 1.317 . S
N14 N18 1.370 . S
N15 C13 1.348 . S
N15 C17 1.346 . S
C16 C13 1.485 . S
C16 H20 0.960 . S
C16 H21 0.961 . S
C16 H22 0.960 . S
C17 N15 1.346 . S
C17 N18 1.307 . S
C17 C19 1.486 . S
N18 N14 1.370 . S
N18 C17 1.307 . S
C19 C17 1.486 . S
C19 H23 0.960 . S
C19 H24 0.960 . S
C19 H25 0.959 . S
H20 C16 0.960 . S
H21 C16 0.961 . S
H22 C16 0.960 . S
H23 C19 0.960 . S
H24 C19 0.960 . S
H25 C19 0.959 . S
C26 N27 1.317 . S
C26 N28 1.348 . S
C26 C29 1.485 . S
N27 C26 1.317 . S
N27 N31 1.370 . S
N28 C26 1.348 . S
N28 C30 1.346 . S
C29 C26 1.485 . S
C29 H33 0.960 . S
C29 H34 0.961 . S
C29 H35 0.960 . S
C30 N28 1.346 . S
C30 N31 1.307 . S
C30 C32 1.486 . S
N31 N27 1.370 . S
N31 C30 1.307 . S
C32 C30 1.486 . S
C32 H36 0.960 . S
C32 H37 0.960 . S
C32 H38 0.959 . S
H33 C29 0.960 . S
H34 C29 0.961 . S
H35 C29 0.960 . S
H36 C32 0.960 . S
H37 C32 0.960 . S
H38 C32 0.959 . S
C39 N40 1.317 . S
C39 N41 1.348 . S
C39 C42 1.485 . S
N40 C39 1.317 . S
N40 N44 1.370 . S
N41 C39 1.348 . S
N41 C43 1.346 . S
C42 C39 1.485 . S
C42 H46 0.960 . S
C42 H47 0.961 . S
C42 H48 0.960 . S
C43 N41 1.346 . S
C43 N44 1.307 . S
C43 C45 1.486 . S
N44 N40 1.370 . S
N44 C43 1.307 . S
C45 C43 1.486 . S
C45 H49 0.960 . S
C45 H50 0.960 . S
C45 H51 0.959 . S
H46 C42 0.960 . S
H47 C42 0.961 . S
H48 C42 0.960 . S
H49 C45 0.960 . S
H50 C45 0.960 . S
H51 C45 0.959 . S
C52 N53 1.317 . S
C52 N54 1.348 . S
C52 C55 1.485 . S
N53 C52 1.317 . S
N53 N57 1.370 . S
N54 C52 1.348 . S
N54 C56 1.346 . S
C55 C52 1.485 . S
C55 H59 0.960 . S
C55 H60 0.961 . S
C55 H61 0.960 . S
C56 N54 1.346 . S
C56 N57 1.307 . S
C56 C58 1.486 . S
N57 N53 1.370 . S
N57 C56 1.307 . S
C58 C56 1.486 . S
C58 H62 0.960 . S
C58 H63 0.960 . S
C58 H64 0.959 . S
H59 C55 0.960 . S
H60 C55 0.961 . S
H61 C55 0.960 . S
H62 C58 0.960 . S
H63 C58 0.960 . S
H64 C58 0.959 . S
C65 N66 1.317 . S
C65 N67 1.348 . S
C65 C68 1.485 . S
N66 C65 1.317 . S
N66 N70 1.370 . S
N67 C65 1.348 . S
N67 C69 1.346 . S
C68 C65 1.485 . S
C68 H72 0.960 . S
C68 H73 0.961 . S
C68 H74 0.960 . S
C69 N67 1.346 . S
C69 N70 1.307 . S
C69 C71 1.486 . S
N70 N66 1.370 . S
N70 C69 1.307 . S
C71 C69 1.486 . S
C71 H75 0.960 . S
C71 H76 0.960 . S
C71 H77 0.959 . S
H72 C68 0.960 . S
H73 C68 0.961 . S
H74 C68 0.960 . S
H75 C71 0.960 . S
H76 C71 0.960 . S
H77 C71 0.959 . S
C78 N79 1.317 . S
C78 N80 1.348 . S
C78 C81 1.485 . S
N79 C78 1.317 . S
N79 N83 1.370 . S
N80 C78 1.348 . S
N80 C82 1.346 . S
C81 C78 1.485 . S
C81 H85 0.960 . S
C81 H86 0.961 . S
C81 H87 0.960 . S
C82 N80 1.346 . S
C82 N83 1.307 . S
C82 C84 1.486 . S
N83 N79 1.370 . S
N83 C82 1.307 . S
C84 C82 1.486 . S
C84 H88 0.960 . S
C84 H89 0.960 . S
C84 H90 0.959 . S
H85 C81 0.960 . S
H86 C81 0.961 . S
H87 C81 0.960 . S
H88 C84 0.960 . S
H89 C84 0.960 . S
H90 C84 0.959 . S
C91 N92 1.317 . S
C91 N93 1.348 . S
C91 C94 1.485 . S
N92 C91 1.317 . S
N92 N96 1.370 . S
N93 C91 1.348 . S
N93 C95 1.346 . S
C94 C91 1.485 . S
C94 H98 0.960 . S
C94 H99 0.961 . S
C94 H100 0.960 . S
C95 N93 1.346 . S
C95 N96 1.307 . S
C95 C97 1.486 . S
N96 N92 1.370 . S
N96 C95 1.307 . S
C97 C95 1.486 . S
C97 H101 0.960 . S
C97 H102 0.960 . S
C97 H103 0.959 . S
H98 C94 0.960 . S
H99 C94 0.961 . S
H100 C94 0.960 . S
H101 C97 0.960 . S
H102 C97 0.960 . S
H103 C97 0.959 . S
La104 C106 2.928 . S
La104 O124 2.521 . S
La104 O125 2.628 . S
La104 O126 2.554 . S
La104 O127 2.757 . S
La104 O128 2.470 . S
La104 O133 2.482 . S
La104 O135 2.503 1_545 S
La105 C115 2.928 1_445 S
La105 O127 2.482 . S
La105 O129 2.503 . S
La105 O130 2.521 1_445 S
La105 O131 2.628 1_445 S
La105 O132 2.554 1_455 S
La105 O133 2.757 . S
La105 O134 2.470 1_445 S
C106 La104 2.928 . S
C106 C107 1.503 . S
C106 O124 1.261 . S
C106 O125 1.243 . S
C107 C106 1.503 . S
C107 C108 1.394 . S
C107 C112 1.373 . S
C108 C107 1.394 . S
C108 C109 1.380 . S
C108 H136 0.930 . S
C109 C108 1.380 . S
C109 C110 1.376 . S
C109 H137 0.930 . S
C110 C109 1.376 . S
C110 C111 1.370 . S
C111 C110 1.370 . S
C111 C112 1.396 . S
C111 H138 0.929 . S
C112 C107 1.373 . S
C112 C111 1.396 . S
C112 H139 0.929 . S
C113 O126 1.240 1_565 S
C113 O127 1.289 1_565 S
C114 O128 1.258 . S
C114 O129 1.256 . S
C115 La105 2.928 1_665 S
C115 C116 1.503 . S
C115 O130 1.261 . S
C115 O131 1.243 . S
C116 C115 1.503 . S
C116 C117 1.394 . S
C116 C121 1.373 . S
C117 C116 1.394 . S
C117 C118 1.380 . S
C117 H140 0.930 . S
C118 C117 1.380 . S
C118 C119 1.376 . S
C118 H141 0.930 . S
C119 C118 1.376 . S
C119 C120 1.370 . S
C120 C119 1.370 . S
C120 C121 1.396 . S
C120 H142 0.929 . S
C121 C116 1.373 . S
C121 C120 1.396 . S
C121 H143 0.929 . S
C122 O132 1.240 . S
C122 O133 1.289 1_655 S
C123 O134 1.258 . S
C123 O135 1.256 1_655 S
O124 La104 2.521 . S
O124 C106 1.261 . S
O125 La104 2.628 . S
O125 C106 1.243 . S
O126 La104 2.554 . S
O126 C113 1.240 1_545 S
O127 La104 2.757 . S
O127 La105 2.482 . S
O127 C113 1.289 1_545 S
O128 La104 2.470 . S
O128 C114 1.258 . S
O129 La105 2.503 . S
O129 C114 1.256 . S
O130 La105 2.521 1_665 S
O130 C115 1.261 . S
O131 La105 2.628 1_665 S
O131 C115 1.243 . S
O132 La105 2.554 1_655 S
O132 C122 1.240 . S
O133 La104 2.482 . S
O133 La105 2.757 . S
O133 C122 1.289 1_455 S
O134 La105 2.470 1_665 S
O134 C123 1.258 . S
O135 La104 2.503 1_565 S
O135 C123 1.256 1_455 S
H136 C108 0.930 . S
H137 C109 0.930 . S
H138 C111 0.929 . S
H139 C112 0.929 . S
H140 C117 0.930 . S
H141 C118 0.930 . S
H142 C120 0.929 . S
H143 C121 0.929 . S
La144 C146 2.928 . S
La144 O164 2.521 . S
La144 O165 2.628 . S
La144 O166 2.554 1_545 S
La144 O167 2.757 . S
La144 O168 2.470 . S
La144 O173 2.482 . S
La144 O175 2.503 . S
La145 C155 2.928 1_554 S
La145 O167 2.482 . S
La145 O169 2.503 . S
La145 O170 2.521 1_554 S
La145 O171 2.628 1_544 S
La145 O172 2.554 1_554 S
La145 O173 2.757 . S
La145 O174 2.470 1_554 S
C146 La144 2.928 . S
C146 C147 1.503 . S
C146 O164 1.261 . S
C146 O165 1.243 . S
C147 C146 1.503 . S
C147 C148 1.394 . S
C147 C152 1.373 . S
C148 C147 1.394 . S
C148 C149 1.380 . S
C148 H176 0.930 . S
C149 C148 1.380 . S
C149 C150 1.376 . S
C149 H177 0.930 . S
C150 C149 1.376 . S
C150 C151 1.370 . S
C151 C150 1.370 . S
C151 C152 1.396 . S
C151 H178 0.929 . S
C152 C147 1.373 . S
C152 C151 1.396 . S
C152 H179 0.929 . S
C153 O166 1.240 . S
C153 O167 1.289 1_565 S
C154 O168 1.258 . S
C154 O169 1.256 . S
C155 La145 2.928 1_556 S
C155 C156 1.503 1_545 S
C155 O170 1.261 . S
C155 O171 1.243 1_545 S
C156 C155 1.503 1_565 S
C156 C157 1.394 1_565 S
C156 C161 1.373 . S
C157 C156 1.394 1_545 S
C157 C158 1.380 1_545 S
C157 H180 0.930 . S
C158 C157 1.380 1_565 S
C158 C159 1.376 . S
C158 H181 0.930 . S
C159 C158 1.376 . S
C159 C160 1.370 . S
C160 C159 1.370 . S
C160 C161 1.396 . S
C160 H182 0.929 . S
C161 C156 1.373 . S
C161 C160 1.396 . S
C161 H183 0.929 . S
C162 O172 1.240 1_554 S
C162 O173 1.289 . S
C163 O174 1.258 1_554 S
C163 O175 1.256 . S
O164 La144 2.521 . S
O164 C146 1.261 . S
O165 La144 2.628 . S
O165 C146 1.243 . S
O166 La144 2.554 1_565 S
O166 C153 1.240 . S
O167 La144 2.757 . S
O167 La145 2.482 . S
O167 C153 1.289 1_545 S
O168 La144 2.470 . S
O168 C154 1.258 . S
O169 La145 2.503 . S
O169 C154 1.256 . S
O170 La145 2.521 1_556 S
O170 C155 1.261 . S
O171 La145 2.628 1_566 S
O171 C155 1.243 1_565 S
O172 La145 2.554 1_556 S
O172 C162 1.240 1_556 S
O173 La144 2.482 . S
O173 La145 2.757 . S
O173 C162 1.289 . S
O174 La145 2.470 1_556 S
O174 C163 1.258 1_556 S
O175 La144 2.503 . S
O175 C163 1.256 . S
H176 C148 0.930 . S
H177 C149 0.930 . S
H178 C151 0.929 . S
H179 C152 0.929 . S
H180 C157 0.930 . S
H181 C158 0.930 . S
H182 C160 0.929 . S
H183 C161 0.929 . S
La184 C186 2.928 . S
La184 O204 2.521 . S
La184 O205 2.628 . S
La184 O206 2.554 . S
La184 O207 2.757 . S
La184 O208 2.470 . S
La184 O213 2.482 . S
La184 O215 2.503 . S
La185 C195 2.928 . S
La185 O207 2.482 . S
La185 O209 2.503 . S
La185 O210 2.521 . S
La185 O211 2.628 . S
La185 O212 2.554 . S
La185 O213 2.757 . S
La185 O214 2.470 . S
C186 La184 2.928 . S
C186 C187 1.503 . S
C186 O204 1.261 . S
C186 O205 1.243 . S
C187 C186 1.503 . S
C187 C188 1.394 . S
C187 C192 1.373 . S
C188 C187 1.394 . S
C188 C189 1.380 . S
C188 H216 0.930 . S
C189 C188 1.380 . S
C189 C190 1.376 . S
C189 H217 0.930 . S
C190 C189 1.376 . S
C190 C191 1.370 . S
C191 C190 1.370 . S
C191 C192 1.396 . S
C191 H218 0.929 . S
C192 C187 1.373 . S
C192 C191 1.396 . S
C192 H219 0.929 . S
C193 O206 1.240 . S
C193 O207 1.289 . S
C194 O208 1.258 . S
C194 O209 1.256 . S
C195 La185 2.928 . S
C195 C196 1.503 . S
C195 O210 1.261 . S
C195 O211 1.243 . S
C196 C195 1.503 . S
C196 C197 1.394 . S
C196 C201 1.373 . S
C197 C196 1.394 . S
C197 C198 1.380 . S
C197 H220 0.930 . S
C198 C197 1.380 . S
C198 C199 1.376 . S
C198 H221 0.930 . S
C199 C198 1.376 . S
C199 C200 1.370 . S
C200 C199 1.370 . S
C200 C201 1.396 . S
C200 H222 0.929 . S
C201 C196 1.373 . S
C201 C200 1.396 . S
C201 H223 0.929 . S
C202 O212 1.240 . S
C202 O213 1.289 . S
C203 O214 1.258 . S
C203 O215 1.256 . S
O204 La184 2.521 . S
O204 C186 1.261 . S
O205 La184 2.628 . S
O205 C186 1.243 . S
O206 La184 2.554 . S
O206 C193 1.240 . S
O207 La184 2.757 . S
O207 La185 2.482 . S
O207 C193 1.289 . S
O208 La184 2.470 . S
O208 C194 1.258 . S
O209 La185 2.503 . S
O209 C194 1.256 . S
O210 La185 2.521 . S
O210 C195 1.261 . S
O211 La185 2.628 . S
O211 C195 1.243 . S
O212 La185 2.554 . S
O212 C202 1.240 . S
O213 La184 2.482 . S
O213 La185 2.757 . S
O213 C202 1.289 . S
O214 La185 2.470 . S
O214 C203 1.258 . S
O215 La184 2.503 . S
O215 C203 1.256 . S
H216 C188 0.930 . S
H217 C189 0.930 . S
H218 C191 0.929 . S
H219 C192 0.929 . S
H220 C197 0.930 . S
H221 C198 0.930 . S
H222 C200 0.929 . S
H223 C201 0.929 . S
La224 C226 2.928 . S
La224 O244 2.521 . S
La224 O245 2.628 . S
La224 O246 2.554 1_455 S
La224 O247 2.757 1_455 S
La224 O248 2.470 . S
La224 O253 2.482 1_554 S
La224 O255 2.503 1_455 S
La225 C235 2.927 1_455 S
La225 O247 2.481 1_456 S
La225 O249 2.504 1_556 S
La225 O250 2.520 1_455 S
La225 O251 2.626 1_455 S
La225 O252 2.554 . S
La225 O253 2.758 . S
La225 O254 2.469 1_455 S
C226 La224 2.928 . S
C226 C227 1.503 . S
C226 O244 1.261 . S
C226 O245 1.243 . S
C227 C226 1.503 . S
C227 C228 1.394 . S
C227 C232 1.373 . S
C228 C227 1.394 . S
C228 C229 1.380 . S
C228 H256 0.930 . S
C229 C228 1.380 . S
C229 C230 1.376 . S
C229 H257 0.930 . S
C230 C229 1.376 . S
C230 C231 1.370 . S
C231 C230 1.370 . S
C231 C232 1.396 . S
C231 H258 0.929 . S
C232 C227 1.373 . S
C232 C231 1.396 . S
C232 H259 0.929 . S
C233 O246 1.240 . S
C233 O247 1.289 . S
C234 O248 1.258 . S
C234 O249 1.256 . S
C235 La225 2.927 1_655 S
C235 C236 1.503 . S
C235 O250 1.261 . S
C235 O251 1.243 . S
C236 C235 1.503 . S
C236 C237 1.394 . S
C236 C241 1.373 . S
C237 C236 1.394 . S
C237 C238 1.380 . S
C237 H260 0.930 . S
C238 C237 1.380 . S
C238 C239 1.376 . S
C238 H261 0.930 . S
C239 C238 1.376 . S
C239 C240 1.370 . S
C240 C239 1.370 . S
C240 C241 1.396 . S
C240 H262 0.929 . S
C241 C236 1.373 . S
C241 C240 1.396 . S
C241 H263 0.929 . S
C242 O252 1.240 . S
C242 O253 1.289 . S
C243 O254 1.258 . S
C243 O255 1.256 1_556 S
O244 La224 2.521 . S
O244 C226 1.261 . S
O245 La224 2.628 . S
O245 C226 1.243 . S
O246 La224 2.554 1_655 S
O246 C233 1.240 . S
O247 La224 2.757 1_655 S
O247 La225 2.481 1_654 S
O247 C233 1.289 . S
O248 La224 2.470 . S
O248 C234 1.258 . S
O249 La225 2.504 1_554 S
O249 C234 1.256 . S
O250 La225 2.520 1_655 S
O250 C235 1.261 . S
O251 La225 2.626 1_655 S
O251 C235 1.243 . S
O252 La225 2.554 . S
O252 C242 1.240 . S
O253 La224 2.482 1_556 S
O253 La225 2.758 . S
O253 C242 1.289 . S
O254 La225 2.469 1_655 S
O254 C243 1.258 . S
O255 La224 2.503 1_655 S
O255 C243 1.256 1_554 S
H256 C228 0.930 . S
H257 C229 0.930 . S
H258 C231 0.929 . S
H259 C232 0.929 . S
H260 C237 0.930 . S
H261 C238 0.930 . S
H262 C240 0.929 . S
H263 C241 0.929 . S
H264 C270 0.930 . S
H265 C274 0.930 . S
H266 C279 0.929 . S
H267 C277 0.929 . S
H268 C272 0.929 . S
H269 C278 0.929 . S
C270 H264 0.930 . S
C270 C271 1.367 . S
C270 C278 1.378 . S
C271 C270 1.367 . S
C271 C279 1.433 . S
C272 H268 0.929 . S
C272 C274 1.378 . S
C272 C276 1.350 . S
C273 C276 1.463 . S
C273 C278 1.350 . S
C273 N281 1.427 . S
C274 H265 0.930 . S
C274 C272 1.378 . S
C274 C275 1.367 . S
C275 C274 1.367 . S
C275 C277 1.433 . S
C276 C272 1.350 . S
C276 C273 1.463 . S
C276 N280 1.427 . S
C277 H267 0.929 . S
C277 C275 1.433 . S
C277 N280 1.384 . S
C278 H269 0.929 . S
C278 C270 1.378 . S
C278 C273 1.350 . S
C279 H266 0.929 . S
C279 C271 1.433 . S
C279 N281 1.384 . S
N280 C276 1.427 . S
N280 C277 1.384 . S
N281 C273 1.427 . S
N281 C279 1.384 . S
H282 C288 0.930 . S
H283 C292 0.930 . S
H284 C297 0.929 . S
H285 C295 0.929 . S
H286 C290 0.929 . S
H287 C296 0.929 . S
C288 H282 0.930 . S
C288 C289 1.367 . S
C288 C296 1.378 . S
C289 C288 1.367 . S
C289 C297 1.433 . S
C290 H286 0.929 . S
C290 C292 1.378 . S
C290 C294 1.350 . S
C291 C294 1.463 . S
C291 C296 1.350 . S
C291 N299 1.427 . S
C292 H283 0.930 . S
C292 C290 1.378 . S
C292 C293 1.367 . S
C293 C292 1.367 . S
C293 C295 1.433 . S
C294 C290 1.350 . S
C294 C291 1.463 . S
C294 N298 1.427 . S
C295 H285 0.929 . S
C295 C293 1.433 . S
C295 N298 1.384 . S
C296 H287 0.929 . S
C296 C288 1.378 . S
C296 C291 1.350 . S
C297 H284 0.929 . S
C297 C289 1.433 . S
C297 N299 1.384 . S
N298 C294 1.427 . S
N298 C295 1.384 . S
N299 C291 1.427 . S
N299 C297 1.384 . S
H300 C306 0.930 . S
H301 C310 0.930 . S
H302 C315 0.929 . S
H303 C313 0.929 . S
H304 C308 0.929 . S
H305 C314 0.929 . S
C306 H300 0.930 . S
C306 C307 1.367 . S
C306 C314 1.378 . S
C307 C306 1.367 . S
C307 C315 1.433 . S
C308 H304 0.929 . S
C308 C310 1.378 . S
C308 C312 1.350 . S
C309 C312 1.463 . S
C309 C314 1.350 . S
C309 N317 1.427 . S
C310 H301 0.930 . S
C310 C308 1.378 . S
C310 C311 1.367 . S
C311 C310 1.367 . S
C311 C313 1.433 . S
C312 C308 1.350 . S
C312 C309 1.463 . S
C312 N316 1.427 . S
C313 H303 0.929 . S
C313 C311 1.433 . S
C313 N316 1.384 . S
C314 H305 0.929 . S
C314 C306 1.378 . S
C314 C309 1.350 . S
C315 H302 0.929 . S
C315 C307 1.433 . S
C315 N317 1.384 . S
N316 C312 1.427 . S
N316 C313 1.384 . S
N317 C309 1.427 . S
N317 C315 1.384 . S
H318 C324 0.930 . S
H319 C328 0.930 . S
H320 C333 0.929 . S
H321 C331 0.929 . S
H322 C326 0.929 . S
H323 C332 0.929 . S
C324 H318 0.930 . S
C324 C325 1.367 . S
C324 C332 1.378 . S
C325 C324 1.367 . S
C325 C333 1.433 . S
C326 H322 0.929 . S
C326 C328 1.378 . S
C326 C330 1.350 . S
C327 C330 1.463 . S
C327 C332 1.350 . S
C327 N335 1.427 . S
C328 H319 0.930 . S
C328 C326 1.378 . S
C328 C329 1.367 . S
C329 C328 1.367 . S
C329 C331 1.433 . S
C330 C326 1.350 . S
C330 C327 1.463 . S
C330 N334 1.427 . S
C331 H321 0.929 . S
C331 C329 1.433 . S
C331 N334 1.384 . S
C332 H323 0.929 . S
C332 C324 1.378 . S
C332 C327 1.350 . S
C333 H320 0.929 . S
C333 C325 1.433 . S
C333 N335 1.384 . S
N334 C330 1.427 . S
N334 C331 1.384 . S
N335 C327 1.427 . S
N335 C333 1.384 . S
H336 C342 0.930 . S
H337 C346 0.930 . S
H338 C351 0.929 . S
H339 C349 0.929 . S
H340 C344 0.929 . S
H341 C350 0.929 . S
C342 H336 0.930 . S
C342 C343 1.367 . S
C342 C350 1.378 . S
C343 C342 1.367 . S
C343 C351 1.433 . S
C344 H340 0.929 . S
C344 C346 1.378 . S
C344 C348 1.350 . S
C345 C348 1.463 . S
C345 C350 1.350 . S
C345 N353 1.427 . S
C346 H337 0.930 . S
C346 C344 1.378 . S
C346 C347 1.367 . S
C347 C346 1.367 . S
C347 C349 1.433 . S
C348 C344 1.350 . S
C348 C345 1.463 . S
C348 N352 1.427 . S
C349 H339 0.929 . S
C349 C347 1.433 . S
C349 N352 1.384 . S
C350 H341 0.929 . S
C350 C342 1.378 . S
C350 C345 1.350 . S
C351 H338 0.929 . S
C351 C343 1.433 . S
C351 N353 1.384 . S
N352 C348 1.427 . S
N352 C349 1.384 . S
N353 C345 1.427 . S
N353 C351 1.384 . S
H354 C360 0.930 . S
H355 C364 0.930 . S
H356 C369 0.929 . S
H357 C367 0.929 . S
H358 C362 0.929 . S
H359 C368 0.929 . S
C360 H354 0.930 . S
C360 C361 1.367 . S
C360 C368 1.378 . S
C361 C360 1.367 . S
C361 C369 1.433 . S
C362 H358 0.929 . S
C362 C364 1.378 1_565 S
C362 C366 1.350 . S
C363 C366 1.463 . S
C363 C368 1.350 . S
C363 N371 1.427 . S
C364 H355 0.930 . S
C364 C362 1.378 1_545 S
C364 C365 1.367 1_545 S
C365 C364 1.367 1_565 S
C365 C367 1.433 . S
C366 C362 1.350 . S
C366 C363 1.463 . S
C366 N370 1.427 . S
C367 H357 0.929 . S
C367 C365 1.433 . S
C367 N370 1.384 . S
C368 H359 0.929 . S
C368 C360 1.378 . S
C368 C363 1.350 . S
C369 H356 0.929 . S
C369 C361 1.433 . S
C369 N371 1.384 . S
N370 C366 1.427 . S
N370 C367 1.384 . S
N371 C363 1.427 . S
N371 C369 1.384 . S
H372 C378 0.930 . S
H373 C382 0.930 . S
H374 C387 0.929 . S
H375 C385 0.929 . S
H376 C380 0.929 . S
H377 C386 0.929 . S
C378 H372 0.930 . S
C378 C379 1.367 . S
C378 C386 1.378 . S
C379 C378 1.367 . S
C379 C387 1.433 . S
C380 H376 0.929 . S
C380 C382 1.378 . S
C380 C384 1.350 . S
C381 C384 1.463 . S
C381 C386 1.350 . S
C381 N389 1.427 . S
C382 H373 0.930 . S
C382 C380 1.378 . S
C382 C383 1.367 . S
C383 C382 1.367 . S
C383 C385 1.433 . S
C384 C380 1.350 . S
C384 C381 1.463 . S
C384 N388 1.427 . S
C385 H375 0.929 . S
C385 C383 1.433 . S
C385 N388 1.384 . S
C386 H377 0.929 . S
C386 C378 1.378 . S
C386 C381 1.350 . S
C387 H374 0.929 . S
C387 C379 1.433 . S
C387 N389 1.384 . S
N388 C384 1.427 . S
N388 C385 1.384 . S
N389 C381 1.427 . S
N389 C387 1.384 . S
H390 C396 0.930 . S
H391 C400 0.930 . S
H392 C405 0.929 . S
H393 C403 0.929 . S
H394 C398 0.929 . S
H395 C404 0.929 . S
C396 H390 0.930 . S
C396 C397 1.367 . S
C396 C404 1.378 . S
C397 C396 1.367 . S
C397 C405 1.433 . S
C398 H394 0.929 . S
C398 C400 1.378 . S
C398 C402 1.350 . S
C399 C402 1.463 . S
C399 C404 1.350 . S
C399 N407 1.427 . S
C400 H391 0.930 . S
C400 C398 1.378 . S
C400 C401 1.367 . S
C401 C400 1.367 . S
C401 C403 1.433 . S
C402 C398 1.350 . S
C402 C399 1.463 . S
C402 N406 1.427 . S
C403 H393 0.929 . S
C403 C401 1.433 . S
C403 N406 1.384 . S
C404 H395 0.929 . S
C404 C396 1.378 . S
C404 C399 1.350 . S
C405 H392 0.929 . S
C405 C397 1.433 . S
C405 N407 1.384 . S
N406 C402 1.427 . S
N406 C403 1.384 . S
N407 C399 1.427 . S
N407 C405 1.384 . S
H408 C414 0.930 . S
H409 C418 0.930 . S
H410 C423 0.929 . S
H411 C421 0.929 . S
H412 C416 0.929 . S
H413 C422 0.929 . S
C414 H408 0.930 . S
C414 C415 1.367 . S
C414 C422 1.378 . S
C415 C414 1.367 . S
C415 C423 1.433 . S
C416 H412 0.929 . S
C416 C418 1.378 . S
C416 C420 1.350 . S
C417 C420 1.463 . S
C417 C422 1.350 . S
C417 N425 1.427 . S
C418 H409 0.930 . S
C418 C416 1.378 . S
C418 C419 1.367 . S
C419 C418 1.367 . S
C419 C421 1.433 . S
C420 C416 1.350 . S
C420 C417 1.463 . S
C420 N424 1.427 . S
C421 H411 0.929 . S
C421 C419 1.433 . S
C421 N424 1.384 . S
C422 H413 0.929 . S
C422 C414 1.378 . S
C422 C417 1.350 . S
C423 H410 0.929 . S
C423 C415 1.433 . S
C423 N425 1.384 . S
N424 C420 1.427 . S
N424 C421 1.384 . S
N425 C417 1.427 . S
N425 C423 1.384 . S
H426 C432 0.930 . S
H427 C436 0.930 1_554 S
H428 C441 0.929 . S
H429 C439 0.929 . S
H430 C434 0.929 . S
H431 C440 0.929 . S
C432 H426 0.930 . S
C432 C433 1.367 . S
C432 C440 1.378 . S
C433 C432 1.367 . S
C433 C441 1.433 . S
C434 H430 0.929 . S
C434 C436 1.378 . S
C434 C438 1.350 . S
C435 C438 1.463 . S
C435 C440 1.350 . S
C435 N443 1.427 . S
C436 H427 0.930 1_556 S
C436 C434 1.378 . S
C436 C437 1.367 . S
C437 C436 1.367 . S
C437 C439 1.433 . S
C438 C434 1.350 . S
C438 C435 1.463 . S
C438 N442 1.427 . S
C439 H429 0.929 . S
C439 C437 1.433 . S
C439 N442 1.384 . S
C440 H431 0.929 . S
C440 C432 1.378 . S
C440 C435 1.350 . S
C441 H428 0.929 . S
C441 C433 1.433 . S
C441 N443 1.384 . S
N442 C438 1.427 . S
N442 C439 1.384 . S
N443 C435 1.427 . S
N443 C441 1.384 . S
H444 C450 0.930 . S
H445 C454 0.930 . S
H446 C459 0.929 . S
H447 C457 0.929 . S
H448 C452 0.929 . S
H449 C458 0.929 . S
C450 H444 0.930 . S
C450 C451 1.367 . S
C450 C458 1.378 . S
C451 C450 1.367 . S
C451 C459 1.433 . S
C452 H448 0.929 . S
C452 C454 1.378 . S
C452 C456 1.350 . S
C453 C456 1.463 . S
C453 C458 1.350 . S
C453 N461 1.427 . S
C454 H445 0.930 . S
C454 C452 1.378 . S
C454 C455 1.367 . S
C455 C454 1.367 . S
C455 C457 1.433 . S
C456 C452 1.350 . S
C456 C453 1.463 . S
C456 N460 1.427 . S
C457 H447 0.929 . S
C457 C455 1.433 . S
C457 N460 1.384 . S
C458 H449 0.929 . S
C458 C450 1.378 . S
C458 C453 1.350 . S
C459 H446 0.929 . S
C459 C451 1.433 . S
C459 N461 1.384 . S
N460 C456 1.427 . S
N460 C457 1.384 . S
N461 C453 1.427 . S
N461 C459 1.384 . S
H462 C468 0.930 . S
H463 C472 0.930 . S
H464 C477 0.929 . S
H465 C475 0.929 . S
H466 C470 0.929 . S
H467 C476 0.929 . S
C468 H462 0.930 . S
C468 C469 1.367 . S
C468 C476 1.378 . S
C469 C468 1.367 . S
C469 C477 1.433 . S
C470 H466 0.929 . S
C470 C472 1.378 . S
C470 C474 1.350 . S
C471 C474 1.463 . S
C471 C476 1.350 . S
C471 N479 1.427 . S
C472 H463 0.930 . S
C472 C470 1.378 . S
C472 C473 1.367 . S
C473 C472 1.367 . S
C473 C475 1.433 . S
C474 C470 1.350 . S
C474 C471 1.463 . S
C474 N478 1.427 . S
C475 H465 0.929 . S
C475 C473 1.433 . S
C475 N478 1.384 . S
C476 H467 0.929 . S
C476 C468 1.378 . S
C476 C471 1.350 . S
C477 H464 0.929 . S
C477 C469 1.433 . S
C477 N479 1.384 . S
N478 C474 1.427 . S
N478 C475 1.384 . S
N479 C471 1.427 . S
N479 C477 1.384 . S
H480 C486 0.930 . S
H481 C490 0.930 . S
H482 C495 0.929 . S
H483 C493 0.929 . S
H484 C488 0.929 . S
H485 C494 0.929 . S
C486 H480 0.930 . S
C486 C487 1.367 . S
C486 C494 1.378 . S
C487 C486 1.367 . S
C487 C495 1.433 . S
C488 H484 0.929 . S
C488 C490 1.378 . S
C488 C492 1.350 . S
C489 C492 1.463 . S
C489 C494 1.350 . S
C489 N497 1.427 . S
C490 H481 0.930 . S
C490 C488 1.378 . S
C490 C491 1.367 . S
C491 C490 1.367 . S
C491 C493 1.433 . S
C492 C488 1.350 . S
C492 C489 1.463 . S
C492 N496 1.427 . S
C493 H483 0.929 . S
C493 C491 1.433 . S
C493 N496 1.384 . S
C494 H485 0.929 . S
C494 C486 1.378 . S
C494 C489 1.350 . S
C495 H482 0.929 . S
C495 C487 1.433 . S
C495 N497 1.384 . S
N496 C492 1.427 . S
N496 C493 1.384 . S
N497 C489 1.427 . S
N497 C495 1.384 . S
H498 C504 0.930 . S
H499 C508 0.930 . S
H500 C513 0.929 . S
H501 C511 0.929 . S
H502 C506 0.929 . S
H503 C512 0.929 . S
C504 H498 0.930 . S
C504 C505 1.367 . S
C504 C512 1.378 . S
C505 C504 1.367 . S
C505 C513 1.433 . S
C506 H502 0.929 . S
C506 C508 1.378 . S
C506 C510 1.350 . S
C507 C510 1.463 . S
C507 C512 1.350 . S
C507 N515 1.427 . S
C508 H499 0.930 . S
C508 C506 1.378 . S
C508 C509 1.367 . S
C509 C508 1.367 . S
C509 C511 1.433 . S
C510 C506 1.350 . S
C510 C507 1.463 . S
C510 N514 1.427 . S
C511 H501 0.929 . S
C511 C509 1.433 . S
C511 N514 1.384 . S
C512 H503 0.929 . S
C512 C504 1.378 . S
C512 C507 1.350 . S
C513 H500 0.929 . S
C513 C505 1.433 . S
C513 N515 1.384 . S
N514 C510 1.427 . S
N514 C511 1.384 . S
N515 C507 1.427 . S
N515 C513 1.384 . S
H516 C522 0.930 . S
H517 C526 0.930 . S
H518 C531 0.929 . S
H519 C529 0.929 . S
H520 C524 0.929 . S
H521 C530 0.929 . S
C522 H516 0.930 . S
C522 C523 1.367 . S
C522 C530 1.378 . S
C523 C522 1.367 . S
C523 C531 1.433 . S
C524 H520 0.929 . S
C524 C526 1.378 . S
C524 C528 1.350 . S
C525 C528 1.463 . S
C525 C530 1.350 . S
C525 N533 1.427 . S
C526 H517 0.930 . S
C526 C524 1.378 . S
C526 C527 1.367 . S
C527 C526 1.367 . S
C527 C529 1.433 . S
C528 C524 1.350 . S
C528 C525 1.463 . S
C528 N532 1.427 . S
C529 H519 0.929 . S
C529 C527 1.433 . S
C529 N532 1.384 . S
C530 H521 0.929 . S
C530 C522 1.378 . S
C530 C525 1.350 . S
C531 H518 0.929 . S
C531 C523 1.433 . S
C531 N533 1.384 . S
N532 C528 1.427 . S
N532 C529 1.384 . S
N533 C525 1.427 . S
N533 C531 1.384 . S
H534 C540 0.930 . S
H535 C544 0.930 . S
H536 C549 0.929 . S
H537 C547 0.929 . S
H538 C542 0.929 . S
H539 C548 0.929 . S
C540 H534 0.930 . S
C540 C541 1.367 . S
C540 C548 1.378 . S
C541 C540 1.367 . S
C541 C549 1.433 . S
C542 H538 0.929 . S
C542 C544 1.378 . S
C542 C546 1.350 . S
C543 C546 1.463 . S
C543 C548 1.350 . S
C543 N551 1.427 . S
C544 H535 0.930 . S
C544 C542 1.378 . S
C544 C545 1.367 . S
C545 C544 1.367 . S
C545 C547 1.433 . S
C546 C542 1.350 . S
C546 C543 1.463 . S
C546 N550 1.427 . S
C547 H537 0.929 . S
C547 C545 1.433 . S
C547 N550 1.384 . S
C548 H539 0.929 . S
C548 C540 1.378 . S
C548 C543 1.350 . S
C549 H536 0.929 . S
C549 C541 1.433 . S
C549 N551 1.384 . S
N550 C546 1.427 . S
N550 C547 1.384 . S
N551 C543 1.427 . S
N551 C549 1.384 . S
H552 C558 0.930 . S
H553 C562 0.930 1_554 S
H554 C567 0.929 . S
H555 C565 0.929 . S
H556 C560 0.929 . S
H557 C566 0.929 . S
C558 H552 0.930 . S
C558 C559 1.367 . S
C558 C566 1.378 . S
C559 C558 1.367 . S
C559 C567 1.433 . S
C560 H556 0.929 . S
C560 C562 1.378 . S
C560 C564 1.350 . S
C561 C564 1.463 . S
C561 C566 1.350 . S
C561 N569 1.427 . S
C562 H553 0.930 1_556 S
C562 C560 1.378 . S
C562 C563 1.367 . S
C563 C562 1.367 . S
C563 C565 1.433 . S
C564 C560 1.350 . S
C564 C561 1.463 . S
C564 N568 1.427 . S
C565 H555 0.929 . S
C565 C563 1.433 . S
C565 N568 1.384 . S
C566 H557 0.929 . S
C566 C558 1.378 . S
C566 C561 1.350 . S
C567 H554 0.929 . S
C567 C559 1.433 . S
C567 N569 1.384 . S
N568 C564 1.427 . S
N568 C565 1.384 . S
N569 C561 1.427 . S
N569 C567 1.384 . S
H570 C576 0.930 . S
H571 C580 0.930 . S
H572 C585 0.929 . S
H573 C583 0.929 . S
H574 C578 0.929 . S
H575 C584 0.929 . S
C576 H570 0.930 . S
C576 C577 1.367 . S
C576 C584 1.378 . S
C577 C576 1.367 . S
C577 C585 1.433 . S
C578 H574 0.929 . S
C578 C580 1.378 . S
C578 C582 1.350 . S
C579 C582 1.463 . S
C579 C584 1.350 . S
C579 N587 1.427 . S
C580 H571 0.930 . S
C580 C578 1.378 . S
C580 C581 1.367 . S
C581 C580 1.367 . S
C581 C583 1.433 . S
C582 C578 1.350 . S
C582 C579 1.463 . S
C582 N586 1.427 . S
C583 H573 0.929 . S
C583 C581 1.433 . S
C583 N586 1.384 . S
C584 H575 0.929 . S
C584 C576 1.378 . S
C584 C579 1.350 . S
C585 H572 0.929 . S
C585 C577 1.433 . S
C585 N587 1.384 . S
N586 C582 1.427 . S
N586 C583 1.384 . S
N587 C579 1.427 . S
N587 C585 1.384 . S
H588 C594 0.930 . S
H589 C598 0.930 . S
H590 C603 0.929 . S
H591 C601 0.929 . S
H592 C596 0.929 . S
H593 C602 0.929 . S
C594 H588 0.930 . S
C594 C595 1.367 . S
C594 C602 1.378 . S
C595 C594 1.367 . S
C595 C603 1.433 . S
C596 H592 0.929 . S
C596 C598 1.378 . S
C596 C600 1.350 . S
C597 C600 1.463 . S
C597 C602 1.350 . S
C597 N605 1.427 . S
C598 H589 0.930 . S
C598 C596 1.378 . S
C598 C599 1.367 . S
C599 C598 1.367 . S
C599 C601 1.433 . S
C600 C596 1.350 . S
C600 C597 1.463 . S
C600 N604 1.427 . S
C601 H591 0.929 . S
C601 C599 1.433 . S
C601 N604 1.384 . S
C602 H593 0.929 . S
C602 C594 1.378 . S
C602 C597 1.350 . S
C603 H590 0.929 . S
C603 C595 1.433 . S
C603 N605 1.384 . S
N604 C600 1.427 . S
N604 C601 1.384 . S
N605 C597 1.427 . S
N605 C603 1.384 . S
H606 C612 0.930 . S
H607 C616 0.930 . S
H608 C621 0.929 . S
H609 C619 0.929 . S
H610 C614 0.929 . S
H611 C620 0.929 . S
C612 H606 0.930 . S
C612 C613 1.367 . S
C612 C620 1.378 . S
C613 C612 1.367 . S
C613 C621 1.433 . S
C614 H610 0.929 . S
C614 C616 1.378 . S
C614 C618 1.350 . S
C615 C618 1.463 . S
C615 C620 1.350 . S
C615 N623 1.427 . S
C616 H607 0.930 . S
C616 C614 1.378 . S
C616 C617 1.367 . S
C617 C616 1.367 . S
C617 C619 1.433 . S
C618 C614 1.350 . S
C618 C615 1.463 . S
C618 N622 1.427 . S
C619 H609 0.929 . S
C619 C617 1.433 . S
C619 N622 1.384 . S
C620 H611 0.929 . S
C620 C612 1.378 . S
C620 C615 1.350 . S
C621 H608 0.929 . S
C621 C613 1.433 . S
C621 N623 1.384 . S
N622 C618 1.427 . S
N622 C619 1.384 . S
N623 C615 1.427 . S
N623 C621 1.384 . S
H624 C630 0.930 . S
H625 C634 0.930 . S
H626 C639 0.929 . S
H627 C637 0.929 . S
H628 C632 0.929 . S
H629 C638 0.929 . S
C630 H624 0.930 . S
C630 C631 1.367 . S
C630 C638 1.378 . S
C631 C630 1.367 . S
C631 C639 1.433 . S
C632 H628 0.929 . S
C632 C634 1.378 . S
C632 C636 1.350 . S
C633 C636 1.463 . S
C633 C638 1.350 . S
C633 N641 1.427 . S
C634 H625 0.930 . S
C634 C632 1.378 . S
C634 C635 1.367 . S
C635 C634 1.367 . S
C635 C637 1.433 . S
C636 C632 1.350 . S
C636 C633 1.463 . S
C636 N640 1.427 . S
C637 H627 0.929 . S
C637 C635 1.433 . S
C637 N640 1.384 . S
C638 H629 0.929 . S
C638 C630 1.378 . S
C638 C633 1.350 . S
C639 H626 0.929 . S
C639 C631 1.433 . S
C639 N641 1.384 . S
N640 C636 1.427 . S
N640 C637 1.384 . S
N641 C633 1.427 . S
N641 C639 1.384 . S
H642 C648 0.930 . S
H643 C652 0.930 . S
H644 C657 0.929 . S
H645 C655 0.929 . S
H646 C650 0.929 . S
H647 C656 0.929 . S
C648 H642 0.930 . S
C648 C649 1.367 . S
C648 C656 1.378 . S
C649 C648 1.367 . S
C649 C657 1.433 . S
C650 H646 0.929 . S
C650 C652 1.378 . S
C650 C654 1.350 . S
C651 C654 1.463 . S
C651 C656 1.350 . S
C651 N659 1.427 . S
C652 H643 0.930 . S
C652 C650 1.378 . S
C652 C653 1.367 . S
C653 C652 1.367 . S
C653 C655 1.433 . S
C654 C650 1.350 . S
C654 C651 1.463 . S
C654 N658 1.427 . S
C655 H645 0.929 . S
C655 C653 1.433 . S
C655 N658 1.384 . S
C656 H647 0.929 . S
C656 C648 1.378 . S
C656 C651 1.350 . S
C657 H644 0.929 . S
C657 C649 1.433 . S
C657 N659 1.384 . S
N658 C654 1.427 . S
N658 C655 1.384 . S
N659 C651 1.427 . S
N659 C657 1.384 . S
H660 C666 0.930 . S
H661 C670 0.930 . S
H662 C675 0.929 . S
H663 C673 0.929 . S
H664 C668 0.929 . S
H665 C674 0.929 . S
C666 H660 0.930 . S
C666 C667 1.367 . S
C666 C674 1.378 . S
C667 C666 1.367 . S
C667 C675 1.433 . S
C668 H664 0.929 . S
C668 C670 1.378 . S
C668 C672 1.350 . S
C669 C672 1.463 . S
C669 C674 1.350 . S
C669 N677 1.427 . S
C670 H661 0.930 . S
C670 C668 1.378 . S
C670 C671 1.367 . S
C671 C670 1.367 . S
C671 C673 1.433 . S
C672 C668 1.350 . S
C672 C669 1.463 . S
C672 N676 1.427 . S
C673 H663 0.929 . S
C673 C671 1.433 . S
C673 N676 1.384 . S
C674 H665 0.929 . S
C674 C666 1.378 . S
C674 C669 1.350 . S
C675 H662 0.929 . S
C675 C667 1.433 . S
C675 N677 1.384 . S
N676 C672 1.427 . S
N676 C673 1.384 . S
N677 C669 1.427 . S
N677 C675 1.384 . S
H678 C684 0.930 . S
H679 C688 0.930 . S
H680 C693 0.929 . S
H681 C691 0.929 . S
H682 C686 0.929 . S
H683 C692 0.929 . S
C684 H678 0.930 . S
C684 C685 1.367 . S
C684 C692 1.378 . S
C685 C684 1.367 . S
C685 C693 1.433 . S
C686 H682 0.929 . S
C686 C688 1.378 . S
C686 C690 1.350 . S
C687 C690 1.463 . S
C687 C692 1.350 . S
C687 N695 1.427 . S
C688 H679 0.930 . S
C688 C686 1.378 . S
C688 C689 1.367 . S
C689 C688 1.367 . S
C689 C691 1.433 . S
C690 C686 1.350 . S
C690 C687 1.463 . S
C690 N694 1.427 . S
C691 H681 0.929 . S
C691 C689 1.433 . S
C691 N694 1.384 . S
C692 H683 0.929 . S
C692 C684 1.378 . S
C692 C687 1.350 . S
C693 H680 0.929 . S
C693 C685 1.433 . S
C693 N695 1.384 . S
N694 C690 1.427 . S
N694 C691 1.384 . S
N695 C687 1.427 . S
N695 C693 1.384 . S
C271 N1 0.913 . S
C275 C110 0.946 . S
C289 N18 1.076 . S
C293 C159 1.107 . S
C311 C194 2.093 . S
C307 N28 2.153 . S
C325 N40 2.634 . S
C329 C233 2.620 . S
C347 C154 2.392 . S
C343 N5 2.339 . S
C365 C113 0.690 . S
C361 N14 0.661 . S
C383 C243 2.009 . S
C379 N31 2.025 . S
C401 C202 1.420 . S
C397 N41 1.444 . S
C415 N2 1.309 . S
C419 C230 1.338 . S
C437 C162 2.458 1_556 S
C433 N27 2.542 . S
C451 N44 2.422 . S
C455 C123 2.456 . S
C469 N15 0.677 . S
C473 C199 0.671 . S
C491 C119 1.456 . S
C487 N57 1.474 . S
C505 N70 0.877 . S
C509 C150 0.909 . S
C523 N79 2.326 . S
C527 C203 2.342 . S
C541 N93 2.427 . S
C545 C242 2.398 . S
C559 N54 1.891 . S
C563 C163 1.998 1_566 S
C581 C122 1.447 . S
C577 N66 1.531 . S
C599 C234 1.422 . S
C595 N80 1.477 . S
C617 C193 1.721 . S
C613 N96 1.731 . S
C631 N53 1.452 . S
C635 C239 1.481 . S
C653 C153 2.154 . S
C649 N83 2.165 . S
C671 C114 2.654 . S
C667 N92 2.638 . S
C685 N67 0.872 . S
C689 C190 0.883 . S
