# Generated by pormake.
# Topology dag, (6,3)-cn, num edge types: 1
# Building blocks:
#     Node 0, Type 0, BuildingBlock: OJICUG_clean_sbu_0, # of connection points: 6
#     Node 1, Type 0, BuildingBlock: OJICUG_clean_sbu_0, # of connection points: 6
#     Node 2, Type 0, BuildingBlock: OJICUG_clean_sbu_0, # of connection points: 6
#     Node 3, Type 0, BuildingBlock: OJICUG_clean_sbu_0, # of connection points: 6
#     Node 4, Type 1, BuildingBlock: CUQRIR_clean_linker_1, # of connection points: 3
#     Node 5, Type 1, BuildingBlock: CUQRIR_clean_linker_1, # of connection points: 3
#     Node 6, Type 1, BuildingBlock: CUQRIR_clean_linker_1, # of connection points: 3
#     Node 7, Type 1, BuildingBlock: CUQRIR_clean_linker_1, # of connection points: 3
#     Node 8, Type 1, BuildingBlock: CUQRIR_clean_linker_1, # of connection points: 3
#     Node 9, Type 1, BuildingBlock: CUQRIR_clean_linker_1, # of connection points: 3
#     Node 10, Type 1, BuildingBlock: CUQRIR_clean_linker_1, # of connection points: 3
#     Node 11, Type 1, BuildingBlock: CUQRIR_clean_linker_1, # of connection points: 3
#     Edge 12, Type (0, 1), BuildingBlock: AJUNOK_clean_linker_0, # of connection points: 2
#     Edge 13, Type (0, 1), BuildingBlock: AJUNOK_clean_linker_0, # of connection points: 2
#     Edge 14, Type (0, 1), BuildingBlock: AJUNOK_clean_linker_0, # of connection points: 2
#     Edge 15, Type (0, 1), BuildingBlock: AJUNOK_clean_linker_0, # of connection points: 2
#     Edge 16, Type (0, 1), BuildingBlock: AJUNOK_clean_linker_0, # of connection points: 2
#     Edge 17, Type (0, 1), BuildingBlock: AJUNOK_clean_linker_0, # of connection points: 2
#     Edge 18, Type (0, 1), BuildingBlock: AJUNOK_clean_linker_0, # of connection points: 2
#     Edge 19, Type (0, 1), BuildingBlock: AJUNOK_clean_linker_0, # of connection points: 2
#     Edge 20, Type (0, 1), BuildingBlock: AJUNOK_clean_linker_0, # of connection points: 2
#     Edge 21, Type (0, 1), BuildingBlock: AJUNOK_clean_linker_0, # of connection points: 2
#     Edge 22, Type (0, 1), BuildingBlock: AJUNOK_clean_linker_0, # of connection points: 2
#     Edge 23, Type (0, 1), BuildingBlock: AJUNOK_clean_linker_0, # of connection points: 2
#     Edge 24, Type (0, 1), BuildingBlock: AJUNOK_clean_linker_0, # of connection points: 2
#     Edge 25, Type (0, 1), BuildingBlock: AJUNOK_clean_linker_0, # of connection points: 2
#     Edge 26, Type (0, 1), BuildingBlock: AJUNOK_clean_linker_0, # of connection points: 2
#     Edge 27, Type (0, 1), BuildingBlock: AJUNOK_clean_linker_0, # of connection points: 2
#     Edge 28, Type (0, 1), BuildingBlock: AJUNOK_clean_linker_0, # of connection points: 2
#     Edge 29, Type (0, 1), BuildingBlock: AJUNOK_clean_linker_0, # of connection points: 2
#     Edge 30, Type (0, 1), BuildingBlock: AJUNOK_clean_linker_0, # of connection points: 2
#     Edge 31, Type (0, 1), BuildingBlock: AJUNOK_clean_linker_0, # of connection points: 2
#     Edge 32, Type (0, 1), BuildingBlock: AJUNOK_clean_linker_0, # of connection points: 2
#     Edge 33, Type (0, 1), BuildingBlock: AJUNOK_clean_linker_0, # of connection points: 2
#     Edge 34, Type (0, 1), BuildingBlock: AJUNOK_clean_linker_0, # of connection points: 2
#     Edge 35, Type (0, 1), BuildingBlock: AJUNOK_clean_linker_0, # of connection points: 2
# Relax obj value: 0.082
# Max RMSD: 0.091
# Mean RMSD: 0.081
data_MOF--net-dag--node1-OJICUG_clean_sbu_0--node2-CUQRIR_clean_linker_1--edge1-AJUNOK_clean_linker_0
_symmetry_space_group_name_H-M    P1
_symmetry_Int_Tables_number       1
_symmetry_cell_setting            triclinic
loop_
_symmetry_equiv_pos_as_xyz
'x, y, z'
_cell_length_a     25.504215
_cell_length_b     25.922681
_cell_length_c     26.751218
_cell_angle_alpha  92.679998
_cell_angle_beta   90.013687
_cell_angle_gamma 90.048143
loop_
_atom_site_label
_atom_site_type_symbol
_atom_site_fract_x
_atom_site_fract_y
_atom_site_fract_z
_atom_type_partial_charge
Sc0 Sc 0.06941 0.92767 0.00844 0.0
Sc1 Sc 0.10279 0.79635 0.01008 0.0
Sc2 Sc 0.1983 0.89289 0.03772 0.0
O3 O 0.12361 0.87219 0.01862 0.0
C4 C 0.17106 0.97411 0.95688 0.0
C5 C 0.04256 0.84622 0.91956 0.0
C6 C 0.21696 0.79493 0.96267 0.0
C7 C 0.00339 0.84465 0.06587 0.0
C8 C 0.13099 0.97577 0.10214 0.0
C9 C 0.17612 0.79895 0.10709 0.0
O10 O 0.12227 0.97253 0.96607 0.0
O11 O 0.05966 0.80728 0.94174 0.0
O12 O 0.23285 0.83462 0.98794 0.0
O13 O 0.01067 0.88935 0.04987 0.0
O14 O 0.174 0.95368 0.09051 0.0
O15 O 0.14344 0.77675 0.07728 0.0
O16 O 0.08894 0.9686 0.07749 0.0
O17 O 0.03325 0.8066 0.05502 0.0
O18 O 0.19813 0.84171 0.09864 0.0
O19 O 0.04431 0.89195 0.93866 0.0
O20 O 0.20452 0.94639 0.97848 0.0
O21 O 0.17029 0.77802 0.96487 0.0
Sc22 Sc 0.69805 0.60149 0.47924 0.0
Sc23 Sc 0.60302 0.69854 0.50126 0.0
Sc24 Sc 0.56846 0.56768 0.50472 0.0
O25 O 0.62334 0.62274 0.49526 0.0
C26 C 0.63655 0.51626 0.41577 0.0
C27 C 0.67925 0.69603 0.40821 0.0
C28 C 0.50722 0.64576 0.44021 0.0
C29 C 0.71579 0.6985 0.5536 0.0
C30 C 0.66413 0.52349 0.56333 0.0
C31 C 0.53382 0.65515 0.58647 0.0
O32 O 0.67433 0.54792 0.41996 0.0
O33 O 0.63992 0.71457 0.43184 0.0
O34 O 0.51884 0.59973 0.45006 0.0
O35 O 0.72902 0.65388 0.53645 0.0
O36 O 0.61529 0.53233 0.55988 0.0
O37 O 0.56396 0.69029 0.57174 0.0
O38 O 0.69799 0.54209 0.53403 0.0
O39 O 0.67319 0.72055 0.54216 0.0
O40 O 0.52896 0.61128 0.56385 0.0
O41 O 0.70549 0.65762 0.42242 0.0
O42 O 0.59853 0.51577 0.44628 0.0
O43 O 0.5308 0.6851 0.45981 0.0
Sc44 Sc 0.89131 0.19695 0.00547 0.0
Sc45 Sc 0.79792 0.10124 0.97695 0.0
Sc46 Sc 0.92565 0.06715 0.00751 0.0
O47 O 0.87154 0.12185 -0.00334 0.0
C48 C 0.9934 0.15417 0.95548 0.0
C49 C 0.81682 0.19477 0.90917 0.0
C50 C 0.86885 0.0206 0.91295 0.0
C51 C 0.77934 0.1979 0.0537 0.0
C52 C 0.95122 0.1455 0.09585 0.0
C53 C 0.82165 0.01687 0.05234 0.0
O54 O 0.9568 0.18734 0.95536 0.0
O55 O 0.80082 0.1488 0.91358 0.0
O56 O 0.91207 0.03294 0.93396 0.0
O57 O 0.82727 0.21124 0.05626 0.0
O58 O 0.94137 0.09903 0.0815 0.0
O59 O 0.79042 0.05171 0.03887 0.0
O60 O 0.94123 0.18396 0.06945 0.0
O61 O 0.76228 0.16275 0.02304 0.0
O62 O 0.86956 0.01467 0.03906 0.0
O63 O 0.84431 0.21908 0.94234 0.0
O64 O 0.98959 0.11181 0.97749 0.0
O65 O 0.82449 0.03725 0.92836 0.0
Sc66 Sc 0.42508 0.42689 0.5104 0.0
Sc67 Sc 0.29527 0.39213 0.53764 0.0
Sc68 Sc 0.39063 0.29611 0.5128 0.0
O69 O 0.37017 0.37162 0.5202 0.0
C70 C 0.45185 0.34668 0.42199 0.0
C71 C 0.3233 0.47823 0.46304 0.0
C72 C 0.27869 0.29597 0.4604 0.0
C73 C 0.365 0.4712 0.60599 0.0
C74 C 0.49168 0.3418 0.56547 0.0
C75 C 0.31227 0.29714 0.6062 0.0
O76 O 0.44605 0.39325 0.43825 0.0
O77 O 0.29048 0.44649 0.47954 0.0
O78 O 0.32505 0.27863 0.46435 0.0
O79 O 0.40758 0.46353 0.58204 0.0
O80 O 0.45756 0.30634 0.56084 0.0
O81 O 0.29092 0.33985 0.59705 0.0
O82 O 0.48716 0.38522 0.54585 0.0
O83 O 0.32145 0.45102 0.59211 0.0
O84 O 0.34738 0.27573 0.57864 0.0
O85 O 0.37177 0.47773 0.47386 0.0
O86 O 0.43724 0.30812 0.44644 0.0
O87 O 0.26155 0.33499 0.48592 0.0
C88 C 0.09715 0.19553 0.30321 0.0
N89 N 0.08196 0.15852 0.26896 0.0
N90 N 0.14051 0.18027 0.32772 0.0
C91 C 0.07376 0.24865 0.30859 0.0
C92 C 0.15111 0.13283 0.30685 0.0
N93 N 0.11581 0.1198 0.27087 0.0
C94 C 0.19673 0.09961 0.32056 0.0
H95 H 0.10135 0.2767 0.29275 0.0
H96 H 0.06821 0.25989 0.34875 0.0
H97 H 0.03556 0.25069 0.28892 0.0
H98 H 0.21036 0.10965 0.3592 0.0
H99 H 0.2296 0.10542 0.29429 0.0
H100 H 0.18544 0.05823 0.31727 0.0
C101 C 0.34909 0.63296 0.81076 0.0
N102 N 0.37771 0.623 0.76897 0.0
N103 N 0.35604 0.68243 0.82799 0.0
C104 C 0.31482 0.59432 0.83539 0.0
C105 C 0.39039 0.7022 0.79529 0.0
N106 N 0.4037 0.66595 0.75967 0.0
C107 C 0.40642 0.75803 0.79501 0.0
H108 H 0.27361 0.59906 0.82328 0.0
H109 H 0.31614 0.60097 0.87666 0.0
H110 H 0.32747 0.55426 0.82511 0.0
H111 H 0.44117 0.76402 0.81955 0.0
H112 H 0.37453 0.78358 0.80968 0.0
H113 H 0.41714 0.7691 0.75677 0.0
C114 C 0.73985 0.83513 0.20963 0.0
N115 N 0.77783 0.85082 0.17843 0.0
N116 N 0.75716 0.79516 0.23617 0.0
C117 C 0.68536 0.85695 0.21265 0.0
C118 C 0.80715 0.7876 0.22045 0.0
N119 N 0.81938 0.82106 0.18525 0.0
C120 C 0.8458 0.75133 0.2428 0.0
H121 H 0.68355 0.88684 0.24365 0.0
H122 H 0.65668 0.82621 0.22072 0.0
H123 H 0.67454 0.87506 0.17731 0.0
H124 H 0.84603 0.7144 0.2201 0.0
H125 H 0.83532 0.74328 0.28191 0.0
H126 H 0.88601 0.76769 0.24216 0.0
C127 C 0.74844 0.34367 0.72094 0.0
N128 N 0.71131 0.3568 0.68791 0.0
N129 N 0.73778 0.2967 0.73874 0.0
C130 C 0.79348 0.37767 0.73756 0.0
C131 C 0.69253 0.28201 0.71548 0.0
N132 N 0.67648 0.3187 0.68459 0.0
C133 C 0.66409 0.23214 0.72359 0.0
H134 H 0.82582 0.35457 0.75292 0.0
H135 H 0.77957 0.40581 0.76715 0.0
H136 H 0.80833 0.39975 0.70597 0.0
H137 H 0.66325 0.22443 0.76404 0.0
H138 H 0.68538 0.19998 0.70388 0.0
H139 H 0.62364 0.23203 0.70864 0.0
C140 C 0.5972 0.297 0.21222 0.0
N141 N 0.58489 0.33184 0.24967 0.0
N142 N 0.64199 0.31108 0.18918 0.0
C143 C 0.56824 0.24735 0.20065 0.0
C144 C 0.65641 0.35555 0.21407 0.0
N145 N 0.6216 0.36822 0.25057 0.0
C146 C 0.70715 0.38358 0.20606 0.0
H147 H 0.59195 0.21469 0.21363 0.0
H148 H 0.56288 0.24118 0.15971 0.0
H149 H 0.5293 0.24723 0.2191 0.0
H150 H 0.70228 0.42574 0.21338 0.0
H151 H 0.72178 0.37605 0.16735 0.0
H152 H 0.73684 0.36985 0.23268 0.0
C153 C 0.19724 0.22013 0.81268 0.0
N154 N 0.18366 0.18376 0.8449 0.0
N155 N 0.23745 0.20339 0.783 0.0
C156 C 0.17267 0.27278 0.8116 0.0
C157 C 0.24826 0.15566 0.79869 0.0
N158 N 0.21568 0.14385 0.8363 0.0
C159 C 0.28692 0.11893 0.77388 0.0
H160 H 0.13662 0.27071 0.78843 0.0
H161 H 0.20005 0.3008 0.7954 0.0
H162 H 0.16134 0.28658 0.84999 0.0
H163 H 0.32708 0.1303 0.78596 0.0
H164 H 0.28493 0.12126 0.7326 0.0
H165 H 0.27982 0.07851 0.78399 0.0
C166 C 0.24058 0.65626 0.30277 0.0
N167 N 0.28004 0.64079 0.33241 0.0
N168 N 0.25641 0.69643 0.27578 0.0
C169 C 0.18618 0.63407 0.30165 0.0
C170 C 0.30695 0.7044 0.28958 0.0
N171 N 0.32106 0.67079 0.32403 0.0
C172 C 0.34379 0.74206 0.26672 0.0
H173 H 0.18321 0.60472 0.27025 0.0
H174 H 0.15696 0.66476 0.29521 0.0
H175 H 0.17706 0.61529 0.33706 0.0
H176 H 0.34344 0.77877 0.28976 0.0
H177 H 0.3318 0.75023 0.22802 0.0
H178 H 0.3845 0.72696 0.2662 0.0
C179 C 0.83835 0.85634 0.7152 0.0
N180 N 0.87543 0.87043 0.74915 0.0
N181 N 0.85219 0.81184 0.69001 0.0
C182 C 0.78652 0.88324 0.70987 0.0
C183 C 0.899 0.79937 0.71031 0.0
N184 N 0.91295 0.83497 0.74634 0.0
C185 C 0.93192 0.75349 0.69434 0.0
H186 H 0.75452 0.85456 0.70397 0.0
H187 H 0.78812 0.90723 0.67664 0.0
H188 H 0.77743 0.9088 0.74314 0.0
H189 H 0.9208 0.73817 0.65639 0.0
H190 H 0.92661 0.72273 0.72136 0.0
H191 H 0.97402 0.7644 0.69477 0.0
C192 C 0.09028 0.00585 0.1829 0.0
C193 C 0.12955 0.01122 0.14659 0.0
C194 C 0.08736 0.04011 0.22492 0.0
C195 C 0.12293 0.08118 0.23119 0.0
H196 H 0.06183 0.9749 0.17883 0.0
H197 H 0.05677 0.03504 0.25226 0.0
S198 S 0.2306 0.11378 0.14542 0.0
N199 N 0.20409 0.06096 0.11923 0.0
N200 N 0.19694 0.12675 0.19724 0.0
C201 C 0.16211 0.08705 0.19514 0.0
C202 C 0.16582 0.05166 0.15298 0.0
C203 C 0.52244 0.67309 0.67819 0.0
C204 C 0.50041 0.66604 0.63022 0.0
C205 C 0.49023 0.67608 0.72078 0.0
C206 C 0.43546 0.67289 0.71617 0.0
H207 H 0.56464 0.67359 0.68289 0.0
H208 H 0.50806 0.67837 0.75756 0.0
S209 S 0.35908 0.66143 0.59857 0.0
N210 N 0.42095 0.6598 0.58026 0.0
N211 N 0.36059 0.6685 0.66026 0.0
C212 C 0.41315 0.66965 0.66828 0.0
C213 C 0.4457 0.66526 0.6252 0.0
C214 C 0.80368 0.92417 0.06421 0.0
C215 C 0.80146 0.97562 0.08296 0.0
C216 C 0.79074 0.88344 0.09453 0.0
C217 C 0.77658 0.89276 0.14491 0.0
H218 H 0.81701 0.91532 0.02631 0.0
H219 H 0.79495 0.84413 0.07953 0.0
S220 S 0.7646 0.02077 0.21141 0.0
N221 N 0.78194 0.03414 0.15392 0.0
N222 N 0.75998 0.95719 0.21178 0.0
C223 C 0.77207 0.94417 0.16341 0.0
C224 C 0.78428 0.98576 0.13223 0.0
C225 C 0.58812 0.33107 0.57383 0.0
C226 C 0.53823 0.33274 0.59601 0.0
C227 C 0.6331 0.32405 0.60284 0.0
C228 C 0.62949 0.31937 0.65484 0.0
H229 H 0.59233 0.33535 0.53393 0.0
H230 H 0.67114 0.32334 0.58486 0.0
S231 S 0.50815 0.32601 0.73088 0.0
N232 N 0.48761 0.33088 0.6727 0.0
N233 N 0.5726 0.32033 0.72762 0.0
C234 C 0.57983 0.32174 0.6774 0.0
C235 C 0.53401 0.3278 0.64781 0.0
C236 C 0.6422 0.42642 0.37986 0.0
C237 C 0.6357 0.47931 0.3727 0.0
C238 C 0.63936 0.39039 0.33929 0.0
C239 C 0.62891 0.40622 0.29078 0.0
H240 H 0.64936 0.41293 0.41699 0.0
H241 H 0.64442 0.34978 0.3458 0.0
S242 S 0.6056 0.53981 0.25339 0.0
N243 N 0.61736 0.54581 0.31416 0.0
N244 N 0.61011 0.47745 0.23805 0.0
C245 C 0.622 0.45886 0.28328 0.0
C246 C 0.62579 0.49564 0.32435 0.0
C247 C 0.04101 0.18103 0.87954 0.0
C248 C 0.04257 0.16523 0.92904 0.0
C249 C 0.0874 0.18892 0.85281 0.0
C250 C 0.13681 0.18288 0.87518 0.0
H251 H 0.00373 0.18528 0.86074 0.0
H252 H 0.08466 0.19775 0.81375 0.0
S253 S 0.16173 0.14782 0.00577 0.0
N254 N 0.0972 0.14632 0.00032 0.0
N255 N 0.18431 0.16489 0.95105 0.0
C256 C 0.13872 0.16982 0.9255 0.0
C257 C 0.0916 0.16001 0.95219 0.0
C258 C 0.30836 0.57076 0.44824 0.0
C259 C 0.30439 0.51888 0.43118 0.0
C260 C 0.29568 0.61063 0.41684 0.0
C261 C 0.28003 0.59989 0.36705 0.0
H262 H 0.32258 0.58056 0.48568 0.0
H263 H 0.3008 0.65026 0.4306 0.0
S264 S 0.26322 0.47026 0.30494 0.0
N265 N 0.28172 0.45849 0.36252 0.0
N266 N 0.26036 0.53379 0.30252 0.0
C267 C 0.27413 0.54813 0.35019 0.0
C268 C 0.28601 0.50746 0.3825 0.0
C269 C 0.98348 0.7959 0.86082 0.0
C270 C 0.01705 0.83833 0.8703 0.0
C271 C 0.95207 0.7927 0.81772 0.0
C272 C 0.95417 0.83124 0.78259 0.0
H273 H 0.97887 0.76688 0.88835 0.0
H274 H 0.92352 0.76188 0.8134 0.0
S275 S 0.04198 0.94493 0.7856 0.0
N276 N 0.05473 0.91644 0.8382 0.0
N277 N 0.99694 0.9089 0.75644 0.0
C278 C 0.99064 0.87127 0.78956 0.0
C279 C 0.0218 0.87523 0.83369 0.0
C280 C 0.85297 0.93232 0.87648 0.0
C281 C 0.86968 0.98324 0.8702 0.0
C282 C 0.85399 0.8957 0.8363 0.0
C283 C 0.87068 0.9094 0.78875 0.0
H284 H 0.83993 0.92062 0.91281 0.0
H285 H 0.84229 0.8563 0.8423 0.0
S286 S 0.91649 0.03783 0.75285 0.0
N287 N 0.90303 0.04565 0.81318 0.0
N288 N 0.90266 0.97693 0.73699 0.0
C289 C 0.88615 0.96036 0.78174 0.0
C290 C 0.88633 -0.00265 0.82281 0.0
C291 C 0.47841 0.37514 0.33766 0.0
C292 C 0.47975 0.3374 0.37384 0.0
C293 C 0.51003 0.37084 0.29487 0.0
C294 C 0.5443 0.32894 0.28684 0.0
H295 H 0.45402 0.40913 0.34322 0.0
H296 H 0.50984 0.4018 0.26905 0.0
S297 S 0.563 0.2199 0.36956 0.0
N298 N 0.51744 0.2559 0.39778 0.0
N299 N 0.57794 0.2491 0.31789 0.0
C300 C 0.54479 0.29007 0.32156 0.0
C301 C 0.5122 0.294 0.36494 0.0
C302 C 0.15324 0.02546 0.88262 0.0
C303 C 0.1885 0.01122 0.92011 0.0
C304 C 0.16436 0.06647 0.8523 0.0
C305 C 0.21074 0.09493 0.85881 0.0
H306 H 0.11575 0.00615 0.87799 0.0
H307 H 0.13524 0.07809 0.82559 0.0
S308 S 0.31786 0.07131 0.94799 0.0
N309 N 0.2737 0.02658 0.95909 0.0
N310 N 0.29392 0.10452 0.90195 0.0
C311 C 0.24796 0.07913 0.89341 0.0
C312 C 0.23691 0.03707 0.92427 0.0
C313 C 0.43457 0.70034 0.40894 0.0
C314 C 0.46288 0.65367 0.40587 0.0
C315 C 0.38937 0.7067 0.38016 0.0
C316 C 0.37143 0.6668 0.34735 0.0
H317 H 0.44609 0.73138 0.43518 0.0
H318 H 0.36696 0.74203 0.38505 0.0
S319 S 0.43441 0.54016 0.3201 0.0
N320 N 0.47185 0.56868 0.36356 0.0
N321 N 0.38715 0.58167 0.3092 0.0
C322 C 0.4007 0.62132 0.34165 0.0
C323 C 0.44638 0.61445 0.37108 0.0
C324 C 0.41398 0.51607 0.67664 0.0
C325 C 0.3662 0.50617 0.65142 0.0
C326 C 0.41694 0.55204 0.71732 0.0
C327 C 0.37236 0.57937 0.73406 0.0
H328 H 0.44964 0.49669 0.66431 0.0
H329 H 0.45461 0.56009 0.73468 0.0
S330 S 0.23851 0.56924 0.68077 0.0
N331 N 0.27326 0.52692 0.64677 0.0
N332 N 0.27958 0.5952 0.72246 0.0
C333 C 0.32424 0.56901 0.71025 0.0
C334 C 0.321 0.53231 0.66903 0.0
C335 C 0.931 0.79049 0.0982 0.0
C336 C 0.95869 0.83747 0.0996 0.0
C337 C 0.8863 0.78461 0.12783 0.0
C338 C 0.86872 0.8252 0.16008 0.0
H339 H 0.94278 0.75884 0.07279 0.0
H340 H 0.86423 0.74892 0.1244 0.0
S341 S 0.93128 0.95284 0.18285 0.0
N342 N 0.96762 0.92367 0.139 0.0
N343 N 0.88484 0.91122 0.19609 0.0
C344 C 0.89768 0.87103 0.16405 0.0
C345 C 0.94237 0.87756 0.13332 0.0
C346 C 0.72591 0.45568 0.59163 0.0
C347 C 0.68135 0.48681 0.60079 0.0
C348 C 0.73787 0.41497 0.62247 0.0
C349 C 0.70614 0.40479 0.66367 0.0
H350 H 0.7499 0.46076 0.55881 0.0
H351 H 0.7702 0.38946 0.61254 0.0
S352 S 0.58992 0.47865 0.70821 0.0
N353 N 0.60856 0.50735 0.65731 0.0
N354 N 0.63222 0.43135 0.71536 0.0
C355 C 0.66398 0.43764 0.67535 0.0
C356 C 0.65127 0.47857 0.64386 0.0
C357 C 0.0247 0.18629 0.14459 0.0
C358 C 0.97981 0.15465 0.14321 0.0
C359 C 0.05668 0.18998 0.18724 0.0
C360 C 0.04398 0.16305 0.22986 0.0
H361 H 0.03671 0.20599 0.11163 0.0
H362 H 0.0928 0.2119 0.18625 0.0
S363 S 0.92741 0.08109 0.24765 0.0
N364 N 0.92218 0.09938 0.1895 0.0
N365 N 0.98166 0.10814 0.27029 0.0
C366 C 0.9977 0.13405 0.23007 0.0
C367 C 0.96571 0.12933 0.18648 0.0
C368 C 0.19318 0.71869 0.15258 0.0
C369 C 0.19066 0.77297 0.15299 0.0
C370 C 0.21224 0.69346 0.19407 0.0
C371 C 0.22862 0.72172 0.23728 0.0
H372 H 0.18271 0.69567 0.11921 0.0
H373 H 0.21661 0.65188 0.19157 0.0
S374 S 0.22208 0.86341 0.26041 0.0
N375 N 0.20098 0.85363 0.20235 0.0
N376 N 0.23572 0.80566 0.28057 0.0
C377 C 0.22305 0.77552 0.23944 0.0
C378 C 0.20437 0.80133 0.19716 0.0
C379 C 0.7661 0.77753 0.57974 0.0
C380 C 0.75189 0.72629 0.58818 0.0
C381 C 0.80034 0.80473 0.61238 0.0
C382 C 0.82047 0.7819 0.65494 0.0
H383 H 0.75103 0.79649 0.54747 0.0
H384 H 0.81087 0.84403 0.60466 0.0
S385 S 0.79151 0.65018 0.69566 0.0
N386 N 0.75924 0.65411 0.64242 0.0
N387 N 0.82119 0.70642 0.70542 0.0
C388 C 0.80586 0.73097 0.66413 0.0
C389 C 0.77209 0.70286 0.63029 0.0
C390 C 0.75656 0.2352 0.13829 0.0
C391 C 0.74204 0.22444 0.08819 0.0
C392 C 0.72281 0.26211 0.17148 0.0
C393 C 0.67396 0.28002 0.15542 0.0
H394 H 0.79425 0.22265 0.15194 0.0
H395 H 0.73516 0.26975 0.20985 0.0
S396 S 0.61857 0.26414 0.0278 0.0
N397 N 0.67562 0.23401 0.02405 0.0
N398 N 0.61319 0.28674 0.08637 0.0
C399 C 0.6589 0.26962 0.10561 0.0
C400 C 0.69276 0.24128 0.07196 0.0
C401 C 0.32849 0.25762 0.68819 0.0
C402 C 0.29356 0.27069 0.65015 0.0
C403 C 0.30995 0.23572 0.73188 0.0
C404 C 0.25623 0.22583 0.73824 0.0
H405 H 0.37 0.26561 0.68469 0.0
H406 H 0.33748 0.227 0.76111 0.0
S407 S 0.1504 0.24691 0.64658 0.0
N408 N 0.20376 0.26922 0.62003 0.0
N409 N 0.16946 0.22574 0.70094 0.0
C410 C 0.22149 0.23679 0.6995 0.0
C411 C 0.24007 0.25988 0.65569 0.0
C412 C 0.6958 0.77489 0.3608 0.0
C413 C 0.69544 0.72072 0.36227 0.0
C414 C 0.71406 0.79924 0.31849 0.0
C415 C 0.7314 0.77011 0.27614 0.0
H416 H 0.68384 0.79858 0.39324 0.0
H417 H 0.71665 0.84096 0.31957 0.0
S418 S 0.73092 0.62759 0.2585 0.0
N419 N 0.70969 0.6388 0.31633 0.0
N420 N 0.74188 0.68488 0.23599 0.0
C421 C 0.72824 0.71609 0.27607 0.0
C422 C 0.71084 0.69127 0.31942 0.0
C423 C 0.78377 0.2732 0.86881 0.0
C424 C 0.80098 0.22168 0.86429 0.0
C425 C 0.76435 0.29802 0.82722 0.0
C426 C 0.76258 0.27246 0.77977 0.0
H427 H 0.78339 0.29374 0.90503 0.0
H428 H 0.74914 0.33689 0.83235 0.0
S429 S 0.80969 0.14019 0.74696 0.0
N430 N 0.81867 0.14732 0.80806 0.0
N431 N 0.78447 0.19522 0.72953 0.0
C432 C 0.78218 0.22204 0.77429 0.0
C433 C 0.80086 0.19632 0.8167 0.0
C434 C 0.19095 0.25816 0.43929 0.0
C435 C 0.24281 0.26879 0.42501 0.0
C436 C 0.15728 0.22954 0.40708 0.0
C437 C 0.17429 0.21163 0.35951 0.0
H438 H 0.17688 0.27067 0.4761 0.0
H439 H 0.11813 0.22048 0.41963 0.0
S440 S 0.30381 0.23478 0.30215 0.0
N441 N 0.30826 0.26218 0.359 0.0
N442 N 0.24404 0.21037 0.29783 0.0
C443 C 0.22514 0.22392 0.34406 0.0
C444 C 0.2597 0.25203 0.37703 0.0
C445 C 0.23456 0.73906 0.88632 0.0
C446 C 0.25403 0.76711 0.92864 0.0
C447 C 0.26828 0.71173 0.8536 0.0
C448 C 0.32249 0.71077 0.8624 0.0
H449 H 0.19298 0.73867 0.87799 0.0
H450 H 0.25198 0.69151 0.82083 0.0
S451 S 0.39354 0.77624 0.96785 0.0
N452 N 0.33145 0.79187 0.97756 0.0
N453 N 0.39452 0.73917 0.91591 0.0
C454 C 0.3427 0.7384 0.90427 0.0
C455 C 0.3085 0.76687 0.93748 0.0
loop_
_geom_bond_atom_site_label_1
_geom_bond_atom_site_label_2
_geom_bond_distance
_geom_bond_site_symmetry_2
_ccdc_geom_bond_type
Sc0 O3 2.025 . S
Sc0 O10 2.105 1_554 S
Sc0 O13 2.105 . S
Sc0 O16 2.105 . S
Sc0 O19 2.105 1_554 S
Sc1 O3 2.025 . S
Sc1 O11 2.105 1_554 S
Sc1 O15 2.105 . S
Sc1 O17 2.105 . S
Sc1 O21 2.105 1_554 S
Sc2 O3 2.025 . S
Sc2 O12 2.105 1_554 S
Sc2 O14 2.105 . S
Sc2 O18 2.105 . S
Sc2 O20 2.105 1_554 S
O3 Sc0 2.025 . S
O3 Sc1 2.025 . S
O3 Sc2 2.025 . S
C4 O10 1.268 . S
C4 O20 1.268 . S
C5 O11 1.268 . S
C5 O19 1.268 . S
C6 O12 1.268 . S
C6 O21 1.268 . S
C7 O13 1.268 . S
C7 O17 1.268 . S
C8 O14 1.268 . S
C8 O16 1.268 . S
C9 O15 1.268 . S
C9 O18 1.268 . S
O10 Sc0 2.105 1_556 S
O10 C4 1.268 . S
O11 Sc1 2.105 1_556 S
O11 C5 1.268 . S
O12 Sc2 2.105 1_556 S
O12 C6 1.268 . S
O13 Sc0 2.105 . S
O13 C7 1.268 . S
O14 Sc2 2.105 . S
O14 C8 1.268 . S
O15 Sc1 2.105 . S
O15 C9 1.268 . S
O16 Sc0 2.105 . S
O16 C8 1.268 . S
O17 Sc1 2.105 . S
O17 C7 1.268 . S
O18 Sc2 2.105 . S
O18 C9 1.268 . S
O19 Sc0 2.105 1_556 S
O19 C5 1.268 . S
O20 Sc2 2.105 1_556 S
O20 C4 1.268 . S
O21 Sc1 2.105 1_556 S
O21 C6 1.268 . S
Sc22 O25 2.025 . S
Sc22 O32 2.105 . S
Sc22 O35 2.105 . S
Sc22 O38 2.105 . S
Sc22 O41 2.105 . S
Sc23 O25 2.025 . S
Sc23 O33 2.105 . S
Sc23 O37 2.105 . S
Sc23 O39 2.105 . S
Sc23 O43 2.105 . S
Sc24 O25 2.025 . S
Sc24 O34 2.105 . S
Sc24 O36 2.105 . S
Sc24 O40 2.105 . S
Sc24 O42 2.105 . S
O25 Sc22 2.025 . S
O25 Sc23 2.025 . S
O25 Sc24 2.025 . S
C26 O32 1.268 . S
C26 O42 1.268 . S
C27 O33 1.268 . S
C27 O41 1.268 . S
C28 O34 1.268 . S
C28 O43 1.268 . S
C29 O35 1.268 . S
C29 O39 1.268 . S
C30 O36 1.268 . S
C30 O38 1.268 . S
C31 O37 1.268 . S
C31 O40 1.268 . S
O32 Sc22 2.105 . S
O32 C26 1.268 . S
O33 Sc23 2.105 . S
O33 C27 1.268 . S
O34 Sc24 2.105 . S
O34 C28 1.268 . S
O35 Sc22 2.105 . S
O35 C29 1.268 . S
O36 Sc24 2.105 . S
O36 C30 1.268 . S
O37 Sc23 2.105 . S
O37 C31 1.268 . S
O38 Sc22 2.105 . S
O38 C30 1.268 . S
O39 Sc23 2.105 . S
O39 C29 1.268 . S
O40 Sc24 2.105 . S
O40 C31 1.268 . S
O41 Sc22 2.105 . S
O41 C27 1.268 . S
O42 Sc24 2.105 . S
O42 C26 1.268 . S
O43 Sc23 2.105 . S
O43 C28 1.268 . S
Sc44 O47 2.025 . S
Sc44 O54 2.105 1_554 S
Sc44 O57 2.105 . S
Sc44 O60 2.105 . S
Sc44 O63 2.105 1_554 S
Sc45 O47 2.025 1_556 S
Sc45 O55 2.105 . S
Sc45 O59 2.105 1_556 S
Sc45 O61 2.105 1_556 S
Sc45 O65 2.105 . S
Sc46 O47 2.025 . S
Sc46 O56 2.105 1_554 S
Sc46 O58 2.105 . S
Sc46 O62 2.105 . S
Sc46 O64 2.105 1_554 S
O47 Sc44 2.025 . S
O47 Sc45 2.025 1_554 S
O47 Sc46 2.025 . S
C48 O54 1.268 . S
C48 O64 1.268 . S
C49 O55 1.268 . S
C49 O63 1.268 . S
C50 O56 1.268 . S
C50 O65 1.268 . S
C51 O57 1.268 . S
C51 O61 1.268 . S
C52 O58 1.268 . S
C52 O60 1.268 . S
C53 O59 1.268 . S
C53 O62 1.268 . S
O54 Sc44 2.105 1_556 S
O54 C48 1.268 . S
O55 Sc45 2.105 . S
O55 C49 1.268 . S
O56 Sc46 2.105 1_556 S
O56 C50 1.268 . S
O57 Sc44 2.105 . S
O57 C51 1.268 . S
O58 Sc46 2.105 . S
O58 C52 1.268 . S
O59 Sc45 2.105 1_554 S
O59 C53 1.268 . S
O60 Sc44 2.105 . S
O60 C52 1.268 . S
O61 Sc45 2.105 1_554 S
O61 C51 1.268 . S
O62 Sc46 2.105 . S
O62 C53 1.268 . S
O63 Sc44 2.105 1_556 S
O63 C49 1.268 . S
O64 Sc46 2.105 1_556 S
O64 C48 1.268 . S
O65 Sc45 2.105 . S
O65 C50 1.268 . S
Sc66 O69 2.025 . S
Sc66 O76 2.105 . S
Sc66 O79 2.105 . S
Sc66 O82 2.105 . S
Sc66 O85 2.105 . S
Sc67 O69 2.025 . S
Sc67 O77 2.105 . S
Sc67 O81 2.105 . S
Sc67 O83 2.105 . S
Sc67 O87 2.105 . S
Sc68 O69 2.025 . S
Sc68 O78 2.105 . S
Sc68 O80 2.105 . S
Sc68 O84 2.105 . S
Sc68 O86 2.105 . S
O69 Sc66 2.025 . S
O69 Sc67 2.025 . S
O69 Sc68 2.025 . S
C70 O76 1.268 . S
C70 O86 1.268 . S
C71 O77 1.268 . S
C71 O85 1.268 . S
C72 O78 1.268 . S
C72 O87 1.268 . S
C73 O79 1.268 . S
C73 O83 1.268 . S
C74 O80 1.268 . S
C74 O82 1.268 . S
C75 O81 1.268 . S
C75 O84 1.268 . S
O76 Sc66 2.105 . S
O76 C70 1.268 . S
O77 Sc67 2.105 . S
O77 C71 1.268 . S
O78 Sc68 2.105 . S
O78 C72 1.268 . S
O79 Sc66 2.105 . S
O79 C73 1.268 . S
O80 Sc68 2.105 . S
O80 C74 1.268 . S
O81 Sc67 2.105 . S
O81 C75 1.268 . S
O82 Sc66 2.105 . S
O82 C74 1.268 . S
O83 Sc67 2.105 . S
O83 C73 1.268 . S
O84 Sc68 2.105 . S
O84 C75 1.268 . S
O85 Sc66 2.105 . S
O85 C71 1.268 . S
O86 Sc68 2.105 . S
O86 C70 1.268 . S
O87 Sc67 2.105 . S
O87 C72 1.268 . S
C88 N89 1.317 . S
C88 N90 1.348 . S
C88 C91 1.485 . S
N89 C88 1.317 . S
N89 N93 1.370 . S
N90 C88 1.348 . S
N90 C92 1.346 . S
C91 C88 1.485 . S
C91 H95 0.960 . S
C91 H96 0.961 . S
C91 H97 0.960 . S
C92 N90 1.346 . S
C92 N93 1.307 . S
C92 C94 1.486 . S
N93 N89 1.370 . S
N93 C92 1.307 . S
C94 C92 1.486 . S
C94 H98 0.960 . S
C94 H99 0.960 . S
C94 H100 0.959 . S
H95 C91 0.960 . S
H96 C91 0.961 . S
H97 C91 0.960 . S
H98 C94 0.960 . S
H99 C94 0.960 . S
H100 C94 0.959 . S
C101 N102 1.317 . S
C101 N103 1.348 . S
C101 C104 1.485 . S
N102 C101 1.317 . S
N102 N106 1.370 . S
N103 C101 1.348 . S
N103 C105 1.346 . S
C104 C101 1.485 . S
C104 H108 0.960 . S
C104 H109 0.961 . S
C104 H110 0.960 . S
C105 N103 1.346 . S
C105 N106 1.307 . S
C105 C107 1.486 . S
N106 N102 1.370 . S
N106 C105 1.307 . S
C107 C105 1.486 . S
C107 H111 0.960 . S
C107 H112 0.960 . S
C107 H113 0.959 . S
H108 C104 0.960 . S
H109 C104 0.961 . S
H110 C104 0.960 . S
H111 C107 0.960 . S
H112 C107 0.960 . S
H113 C107 0.959 . S
C114 N115 1.317 . S
C114 N116 1.348 . S
C114 C117 1.485 . S
N115 C114 1.317 . S
N115 N119 1.370 . S
N116 C114 1.348 . S
N116 C118 1.346 . S
C117 C114 1.485 . S
C117 H121 0.960 . S
C117 H122 0.961 . S
C117 H123 0.960 . S
C118 N116 1.346 . S
C118 N119 1.307 . S
C118 C120 1.486 . S
N119 N115 1.370 . S
N119 C118 1.307 . S
C120 C118 1.486 . S
C120 H124 0.960 . S
C120 H125 0.960 . S
C120 H126 0.959 . S
H121 C117 0.960 . S
H122 C117 0.961 . S
H123 C117 0.960 . S
H124 C120 0.960 . S
H125 C120 0.960 . S
H126 C120 0.959 . S
C127 N128 1.317 . S
C127 N129 1.348 . S
C127 C130 1.485 . S
N128 C127 1.317 . S
N128 N132 1.370 . S
N129 C127 1.348 . S
N129 C131 1.346 . S
C130 C127 1.485 . S
C130 H134 0.960 . S
C130 H135 0.961 . S
C130 H136 0.960 . S
C131 N129 1.346 . S
C131 N132 1.307 . S
C131 C133 1.486 . S
N132 N128 1.370 . S
N132 C131 1.307 . S
C133 C131 1.486 . S
C133 H137 0.960 . S
C133 H138 0.960 . S
C133 H139 0.959 . S
H134 C130 0.960 . S
H135 C130 0.961 . S
H136 C130 0.960 . S
H137 C133 0.960 . S
H138 C133 0.960 . S
H139 C133 0.959 . S
C140 N141 1.317 . S
C140 N142 1.348 . S
C140 C143 1.485 . S
N141 C140 1.317 . S
N141 N145 1.370 . S
N142 C140 1.348 . S
N142 C144 1.346 . S
C143 C140 1.485 . S
C143 H147 0.960 . S
C143 H148 0.961 . S
C143 H149 0.960 . S
C144 N142 1.346 . S
C144 N145 1.307 . S
C144 C146 1.486 . S
N145 N141 1.370 . S
N145 C144 1.307 . S
C146 C144 1.486 . S
C146 H150 0.960 . S
C146 H151 0.960 . S
C146 H152 0.959 . S
H147 C143 0.960 . S
H148 C143 0.961 . S
H149 C143 0.960 . S
H150 C146 0.960 . S
H151 C146 0.960 . S
H152 C146 0.959 . S
C153 N154 1.317 . S
C153 N155 1.348 . S
C153 C156 1.485 . S
N154 C153 1.317 . S
N154 N158 1.370 . S
N155 C153 1.348 . S
N155 C157 1.346 . S
C156 C153 1.485 . S
C156 H160 0.960 . S
C156 H161 0.961 . S
C156 H162 0.960 . S
C157 N155 1.346 . S
C157 N158 1.307 . S
C157 C159 1.486 . S
N158 N154 1.370 . S
N158 C157 1.307 . S
C159 C157 1.486 . S
C159 H163 0.960 . S
C159 H164 0.960 . S
C159 H165 0.959 . S
H160 C156 0.960 . S
H161 C156 0.961 . S
H162 C156 0.960 . S
H163 C159 0.960 . S
H164 C159 0.960 . S
H165 C159 0.959 . S
C166 N167 1.317 . S
C166 N168 1.348 . S
C166 C169 1.485 . S
N167 C166 1.317 . S
N167 N171 1.370 . S
N168 C166 1.348 . S
N168 C170 1.346 . S
C169 C166 1.485 . S
C169 H173 0.960 . S
C169 H174 0.961 . S
C169 H175 0.960 . S
C170 N168 1.346 . S
C170 N171 1.307 . S
C170 C172 1.486 . S
N171 N167 1.370 . S
N171 C170 1.307 . S
C172 C170 1.486 . S
C172 H176 0.960 . S
C172 H177 0.960 . S
C172 H178 0.959 . S
H173 C169 0.960 . S
H174 C169 0.961 . S
H175 C169 0.960 . S
H176 C172 0.960 . S
H177 C172 0.960 . S
H178 C172 0.959 . S
C179 N180 1.317 . S
C179 N181 1.348 . S
C179 C182 1.485 . S
N180 C179 1.317 . S
N180 N184 1.370 . S
N181 C179 1.348 . S
N181 C183 1.346 . S
C182 C179 1.485 . S
C182 H186 0.960 . S
C182 H187 0.961 . S
C182 H188 0.960 . S
C183 N181 1.346 . S
C183 N184 1.307 . S
C183 C185 1.486 . S
N184 N180 1.370 . S
N184 C183 1.307 . S
C185 C183 1.486 . S
C185 H189 0.960 . S
C185 H190 0.960 . S
C185 H191 0.959 . S
H186 C182 0.960 . S
H187 C182 0.961 . S
H188 C182 0.960 . S
H189 C185 0.960 . S
H190 C185 0.960 . S
H191 C185 0.959 . S
C192 C193 1.369 . S
C192 C194 1.419 1_565 S
C192 H196 0.930 . S
C193 C192 1.369 . S
C193 C202 1.429 1_565 S
C194 C192 1.419 1_545 S
C194 C195 1.363 . S
C194 H197 0.929 . S
C195 C194 1.363 . S
C195 C201 1.428 . S
H196 C192 0.930 . S
H197 C194 0.929 . S
S198 N199 1.613 . S
S198 N200 1.610 . S
N199 S198 1.613 . S
N199 C202 1.350 . S
N200 S198 1.610 . S
N200 C201 1.351 . S
C201 C195 1.428 . S
C201 N200 1.351 . S
C201 C202 1.434 . S
C202 C193 1.429 1_545 S
C202 N199 1.350 . S
C202 C201 1.434 . S
C203 C204 1.369 . S
C203 C205 1.419 . S
C203 H207 0.930 . S
C204 C203 1.369 . S
C204 C213 1.429 . S
C205 C203 1.419 . S
C205 C206 1.363 . S
C205 H208 0.929 . S
C206 C205 1.363 . S
C206 C212 1.428 . S
H207 C203 0.930 . S
H208 C205 0.929 . S
S209 N210 1.613 . S
S209 N211 1.610 . S
N210 S209 1.613 . S
N210 C213 1.350 . S
N211 S209 1.610 . S
N211 C212 1.351 . S
C212 C206 1.428 . S
C212 N211 1.351 . S
C212 C213 1.434 . S
C213 C204 1.429 . S
C213 N210 1.350 . S
C213 C212 1.434 . S
C214 C215 1.369 1_565 S
C214 C216 1.419 . S
C214 H218 0.930 . S
C215 C214 1.369 1_545 S
C215 C224 1.429 . S
C216 C214 1.419 . S
C216 C217 1.363 . S
C216 H219 0.929 . S
C217 C216 1.363 . S
C217 C223 1.428 . S
H218 C214 0.930 . S
H219 C216 0.929 . S
S220 N221 1.613 . S
S220 N222 1.610 1_545 S
N221 S220 1.613 . S
N221 C224 1.350 . S
N222 S220 1.610 1_565 S
N222 C223 1.351 . S
C223 C217 1.428 . S
C223 N222 1.351 . S
C223 C224 1.434 1_565 S
C224 C215 1.429 . S
C224 N221 1.350 . S
C224 C223 1.434 1_545 S
C225 C226 1.369 . S
C225 C227 1.419 . S
C225 H229 0.930 . S
C226 C225 1.369 . S
C226 C235 1.429 . S
C227 C225 1.419 . S
C227 C228 1.363 . S
C227 H230 0.929 . S
C228 C227 1.363 . S
C228 C234 1.428 . S
H229 C225 0.930 . S
H230 C227 0.929 . S
S231 N232 1.613 . S
S231 N233 1.610 . S
N232 S231 1.613 . S
N232 C235 1.350 . S
N233 S231 1.610 . S
N233 C234 1.351 . S
C234 C228 1.428 . S
C234 N233 1.351 . S
C234 C235 1.434 . S
C235 C226 1.429 . S
C235 N232 1.350 . S
C235 C234 1.434 . S
C236 C237 1.369 . S
C236 C238 1.419 . S
C236 H240 0.930 . S
C237 C236 1.369 . S
C237 C246 1.429 . S
C238 C236 1.419 . S
C238 C239 1.363 . S
C238 H241 0.929 . S
C239 C238 1.363 . S
C239 C245 1.428 . S
H240 C236 0.930 . S
H241 C238 0.929 . S
S242 N243 1.613 . S
S242 N244 1.610 . S
N243 S242 1.613 . S
N243 C246 1.350 . S
N244 S242 1.610 . S
N244 C245 1.351 . S
C245 C239 1.428 . S
C245 N244 1.351 . S
C245 C246 1.434 . S
C246 C237 1.429 . S
C246 N243 1.350 . S
C246 C245 1.434 . S
C247 C248 1.369 . S
C247 C249 1.419 . S
C247 H251 0.930 . S
C248 C247 1.369 . S
C248 C257 1.429 . S
C249 C247 1.419 . S
C249 C250 1.363 . S
C249 H252 0.929 . S
C250 C249 1.363 . S
C250 C256 1.428 . S
H251 C247 0.930 . S
H252 C249 0.929 . S
S253 N254 1.613 . S
S253 N255 1.610 . S
N254 S253 1.613 . S
N254 C257 1.350 . S
N255 S253 1.610 . S
N255 C256 1.351 . S
C256 C250 1.428 . S
C256 N255 1.351 . S
C256 C257 1.434 . S
C257 C248 1.429 . S
C257 N254 1.350 . S
C257 C256 1.434 . S
C258 C259 1.369 . S
C258 C260 1.419 . S
C258 H262 0.930 . S
C259 C258 1.369 . S
C259 C268 1.429 . S
C260 C258 1.419 . S
C260 C261 1.363 . S
C260 H263 0.929 . S
C261 C260 1.363 . S
C261 C267 1.428 . S
H262 C258 0.930 . S
H263 C260 0.929 . S
S264 N265 1.613 . S
S264 N266 1.610 . S
N265 S264 1.613 . S
N265 C268 1.350 . S
N266 S264 1.610 . S
N266 C267 1.351 . S
C267 C261 1.428 . S
C267 N266 1.351 . S
C267 C268 1.434 . S
C268 C259 1.429 . S
C268 N265 1.350 . S
C268 C267 1.434 . S
C269 C270 1.369 1_655 S
C269 C271 1.419 . S
C269 H273 0.930 . S
C270 C269 1.369 1_455 S
C270 C279 1.429 . S
C271 C269 1.419 . S
C271 C272 1.363 . S
C271 H274 0.929 . S
C272 C271 1.363 . S
C272 C278 1.428 . S
H273 C269 0.930 . S
H274 C271 0.929 . S
S275 N276 1.613 . S
S275 N277 1.610 1_455 S
N276 S275 1.613 . S
N276 C279 1.350 . S
N277 S275 1.610 1_655 S
N277 C278 1.351 . S
C278 C272 1.428 . S
C278 N277 1.351 . S
C278 C279 1.434 1_655 S
C279 C270 1.429 . S
C279 N276 1.350 . S
C279 C278 1.434 1_455 S
C280 C281 1.369 1_565 S
C280 C282 1.419 . S
C280 H284 0.930 . S
C281 C280 1.369 1_545 S
C281 C290 1.429 . S
C282 C280 1.419 . S
C282 C283 1.363 . S
C282 H285 0.929 . S
C283 C282 1.363 . S
C283 C289 1.428 . S
H284 C280 0.930 . S
H285 C282 0.929 . S
S286 N287 1.613 . S
S286 N288 1.610 1_545 S
N287 S286 1.613 . S
N287 C290 1.350 . S
N288 S286 1.610 1_565 S
N288 C289 1.351 . S
C289 C283 1.428 . S
C289 N288 1.351 . S
C289 C290 1.434 1_565 S
C290 C281 1.429 . S
C290 N287 1.350 . S
C290 C289 1.434 1_545 S
C291 C292 1.369 . S
C291 C293 1.419 . S
C291 H295 0.930 . S
C292 C291 1.369 . S
C292 C301 1.429 . S
C293 C291 1.419 . S
C293 C294 1.363 . S
C293 H296 0.929 . S
C294 C293 1.363 . S
C294 C300 1.428 . S
H295 C291 0.930 . S
H296 C293 0.929 . S
S297 N298 1.613 . S
S297 N299 1.610 . S
N298 S297 1.613 . S
N298 C301 1.350 . S
N299 S297 1.610 . S
N299 C300 1.351 . S
C300 C294 1.428 . S
C300 N299 1.351 . S
C300 C301 1.434 . S
C301 C292 1.429 . S
C301 N298 1.350 . S
C301 C300 1.434 . S
C302 C303 1.369 1_545 S
C302 C304 1.419 . S
C302 H306 0.930 1_545 S
C303 C302 1.369 1_565 S
C303 C312 1.424 1_565 S
C304 C302 1.419 . S
C304 C305 1.363 . S
C304 H307 0.929 . S
C305 C304 1.363 . S
C305 C311 1.428 . S
H306 C302 0.930 1_565 S
H307 C304 0.929 . S
S308 N309 1.612 1_554 S
S308 N310 1.610 1_554 S
N309 S308 1.612 1_556 S
N309 C312 1.358 . S
N310 S308 1.610 1_556 S
N310 C311 1.351 . S
C311 C305 1.428 . S
C311 N310 1.351 . S
C311 C312 1.434 . S
C312 C303 1.424 1_545 S
C312 N309 1.358 . S
C312 C311 1.434 . S
C313 C314 1.369 . S
C313 C315 1.419 . S
C313 H317 0.930 . S
C314 C313 1.369 . S
C314 C323 1.429 . S
C315 C313 1.419 . S
C315 C316 1.363 . S
C315 H318 0.929 . S
C316 C315 1.363 . S
C316 C322 1.428 . S
H317 C313 0.930 . S
H318 C315 0.929 . S
S319 N320 1.613 . S
S319 N321 1.610 . S
N320 S319 1.613 . S
N320 C323 1.350 . S
N321 S319 1.610 . S
N321 C322 1.351 . S
C322 C316 1.428 . S
C322 N321 1.351 . S
C322 C323 1.434 . S
C323 C314 1.429 . S
C323 N320 1.350 . S
C323 C322 1.434 . S
C324 C325 1.369 . S
C324 C326 1.419 . S
C324 H328 0.930 . S
C325 C324 1.369 . S
C325 C334 1.429 . S
C326 C324 1.419 . S
C326 C327 1.363 . S
C326 H329 0.929 . S
C327 C326 1.363 . S
C327 C333 1.428 . S
H328 C324 0.930 . S
H329 C326 0.929 . S
S330 N331 1.613 . S
S330 N332 1.610 . S
N331 S330 1.613 . S
N331 C334 1.350 . S
N332 S330 1.610 . S
N332 C333 1.351 . S
C333 C327 1.428 . S
C333 N332 1.351 . S
C333 C334 1.434 . S
C334 C325 1.429 . S
C334 N331 1.350 . S
C334 C333 1.434 . S
C335 C336 1.369 . S
C335 C337 1.419 . S
C335 H339 0.930 . S
C336 C335 1.369 . S
C336 C345 1.429 . S
C337 C335 1.419 . S
C337 C338 1.363 . S
C337 H340 0.929 . S
C338 C337 1.363 . S
C338 C344 1.428 . S
H339 C335 0.930 . S
H340 C337 0.929 . S
S341 N342 1.613 . S
S341 N343 1.610 . S
N342 S341 1.613 . S
N342 C345 1.350 . S
N343 S341 1.610 . S
N343 C344 1.351 . S
C344 C338 1.428 . S
C344 N343 1.351 . S
C344 C345 1.434 . S
C345 C336 1.429 . S
C345 N342 1.350 . S
C345 C344 1.434 . S
C346 C347 1.369 . S
C346 C348 1.419 . S
C346 H350 0.930 . S
C347 C346 1.369 . S
C347 C356 1.429 . S
C348 C346 1.419 . S
C348 C349 1.363 . S
C348 H351 0.929 . S
C349 C348 1.363 . S
C349 C355 1.428 . S
H350 C346 0.930 . S
H351 C348 0.929 . S
S352 N353 1.613 . S
S352 N354 1.610 . S
N353 S352 1.613 . S
N353 C356 1.350 . S
N354 S352 1.610 . S
N354 C355 1.351 . S
C355 C349 1.428 . S
C355 N354 1.351 . S
C355 C356 1.434 . S
C356 C347 1.429 . S
C356 N353 1.350 . S
C356 C355 1.434 . S
C357 C358 1.369 1_455 S
C357 C359 1.419 . S
C357 H361 0.930 . S
C358 C357 1.369 1_655 S
C358 C367 1.429 . S
C359 C357 1.419 . S
C359 C360 1.363 . S
C359 H362 0.929 . S
C360 C359 1.363 . S
C360 C366 1.428 1_455 S
H361 C357 0.930 . S
H362 C359 0.929 . S
S363 N364 1.613 . S
S363 N365 1.610 . S
N364 S363 1.613 . S
N364 C367 1.350 . S
N365 S363 1.610 . S
N365 C366 1.351 . S
C366 C360 1.428 1_655 S
C366 N365 1.351 . S
C366 C367 1.434 . S
C367 C358 1.429 . S
C367 N364 1.350 . S
C367 C366 1.434 . S
C368 C369 1.369 . S
C368 C370 1.419 . S
C368 H372 0.930 . S
C369 C368 1.369 . S
C369 C378 1.429 . S
C370 C368 1.419 . S
C370 C371 1.363 . S
C370 H373 0.929 . S
C371 C370 1.363 . S
C371 C377 1.428 . S
H372 C368 0.930 . S
H373 C370 0.929 . S
S374 N375 1.613 . S
S374 N376 1.610 . S
N375 S374 1.613 . S
N375 C378 1.350 . S
N376 S374 1.610 . S
N376 C377 1.351 . S
C377 C371 1.428 . S
C377 N376 1.351 . S
C377 C378 1.434 . S
C378 C369 1.429 . S
C378 N375 1.350 . S
C378 C377 1.434 . S
C379 C380 1.369 . S
C379 C381 1.419 . S
C379 H383 0.930 . S
C380 C379 1.369 . S
C380 C389 1.429 . S
C381 C379 1.419 . S
C381 C382 1.363 . S
C381 H384 0.929 . S
C382 C381 1.363 . S
C382 C388 1.428 . S
H383 C379 0.930 . S
H384 C381 0.929 . S
S385 N386 1.613 . S
S385 N387 1.610 . S
N386 S385 1.613 . S
N386 C389 1.350 . S
N387 S385 1.610 . S
N387 C388 1.351 . S
C388 C382 1.428 . S
C388 N387 1.351 . S
C388 C389 1.434 . S
C389 C380 1.429 . S
C389 N386 1.350 . S
C389 C388 1.434 . S
C390 C391 1.369 . S
C390 C392 1.419 . S
C390 H394 0.930 . S
C391 C390 1.369 . S
C391 C400 1.429 . S
C392 C390 1.419 . S
C392 C393 1.363 . S
C392 H395 0.929 . S
C393 C392 1.363 . S
C393 C399 1.428 . S
H394 C390 0.930 . S
H395 C392 0.929 . S
S396 N397 1.613 . S
S396 N398 1.610 . S
N397 S396 1.613 . S
N397 C400 1.350 . S
N398 S396 1.610 . S
N398 C399 1.351 . S
C399 C393 1.428 . S
C399 N398 1.351 . S
C399 C400 1.434 . S
C400 C391 1.429 . S
C400 N397 1.350 . S
C400 C399 1.434 . S
C401 C402 1.369 . S
C401 C403 1.419 . S
C401 H405 0.930 . S
C402 C401 1.369 . S
C402 C411 1.429 . S
C403 C401 1.419 . S
C403 C404 1.363 . S
C403 H406 0.929 . S
C404 C403 1.363 . S
C404 C410 1.428 . S
H405 C401 0.930 . S
H406 C403 0.929 . S
S407 N408 1.613 . S
S407 N409 1.610 . S
N408 S407 1.613 . S
N408 C411 1.350 . S
N409 S407 1.610 . S
N409 C410 1.351 . S
C410 C404 1.428 . S
C410 N409 1.351 . S
C410 C411 1.434 . S
C411 C402 1.429 . S
C411 N408 1.350 . S
C411 C410 1.434 . S
C412 C413 1.369 . S
C412 C414 1.419 . S
C412 H416 0.930 . S
C413 C412 1.369 . S
C413 C422 1.429 . S
C414 C412 1.419 . S
C414 C415 1.363 . S
C414 H417 0.929 . S
C415 C414 1.363 . S
C415 C421 1.428 . S
H416 C412 0.930 . S
H417 C414 0.929 . S
S418 N419 1.613 . S
S418 N420 1.610 . S
N419 S418 1.613 . S
N419 C422 1.350 . S
N420 S418 1.610 . S
N420 C421 1.351 . S
C421 C415 1.428 . S
C421 N420 1.351 . S
C421 C422 1.434 . S
C422 C413 1.429 . S
C422 N419 1.350 . S
C422 C421 1.434 . S
C423 C424 1.369 . S
C423 C425 1.419 . S
C423 H427 0.930 . S
C424 C423 1.369 . S
C424 C433 1.429 . S
C425 C423 1.419 . S
C425 C426 1.363 . S
C425 H428 0.929 . S
C426 C425 1.363 . S
C426 C432 1.428 . S
H427 C423 0.930 . S
H428 C425 0.929 . S
S429 N430 1.613 . S
S429 N431 1.610 . S
N430 S429 1.613 . S
N430 C433 1.350 . S
N431 S429 1.610 . S
N431 C432 1.351 . S
C432 C426 1.428 . S
C432 N431 1.351 . S
C432 C433 1.434 . S
C433 C424 1.429 . S
C433 N430 1.350 . S
C433 C432 1.434 . S
C434 C435 1.369 . S
C434 C436 1.419 . S
C434 H438 0.930 . S
C435 C434 1.369 . S
C435 C444 1.429 . S
C436 C434 1.419 . S
C436 C437 1.363 . S
C436 H439 0.929 . S
C437 C436 1.363 . S
C437 C443 1.428 . S
H438 C434 0.930 . S
H439 C436 0.929 . S
S440 N441 1.613 . S
S440 N442 1.610 . S
N441 S440 1.613 . S
N441 C444 1.350 . S
N442 S440 1.610 . S
N442 C443 1.351 . S
C443 C437 1.428 . S
C443 N442 1.351 . S
C443 C444 1.434 . S
C444 C435 1.429 . S
C444 N441 1.350 . S
C444 C443 1.434 . S
C445 C446 1.369 . S
C445 C447 1.419 . S
C445 H449 0.930 . S
C446 C445 1.369 . S
C446 C455 1.429 . S
C447 C445 1.419 . S
C447 C448 1.363 . S
C447 H450 0.929 . S
C448 C447 1.363 . S
C448 C454 1.428 . S
H449 C445 0.930 . S
H450 C447 0.929 . S
S451 N452 1.613 . S
S451 N453 1.610 . S
N452 S451 1.613 . S
N452 C455 1.350 . S
N453 S451 1.610 . S
N453 C454 1.351 . S
C454 C448 1.428 . S
C454 N453 1.351 . S
C454 C455 1.434 . S
C455 C446 1.429 . S
C455 N452 1.350 . S
C455 C454 1.434 . S
C193 C8 1.398 . S
C195 N93 1.415 . S
C204 C31 1.350 . S
C206 N106 1.368 . S
C215 C53 1.368 . S
C217 N115 1.396 . S
C228 N132 1.416 . S
C226 C74 1.389 . S
C239 N145 1.417 . S
C237 C26 1.403 . S
C248 C48 1.380 1_455 S
C250 N154 1.420 . S
C259 C71 1.367 . S
C261 N167 1.395 . S
C270 C5 1.354 . S
C272 N184 1.371 . S
C281 C50 1.401 . S
C283 N180 1.419 . S
C294 N141 1.371 . S
C292 C70 1.352 . S
C305 N158 1.396 . S
C303 C4 1.366 . S
C314 C28 1.384 . S
C316 N171 1.419 . S
C327 N102 1.418 . S
C325 C73 1.396 . S
C336 C7 1.386 1_655 S
C338 N119 1.421 . S
C349 N128 1.383 . S
C347 C30 1.366 . S
C360 N89 1.374 . S
C358 C52 1.356 . S
C371 N168 1.423 . S
C369 C9 1.425 . S
C382 N181 1.414 . S
C380 C29 1.403 . S
C391 C51 1.395 . S
C393 N142 1.413 . S
C404 N155 1.421 . S
C402 C75 1.426 . S
C415 N116 1.424 . S
C413 C27 1.426 . S
C424 C49 1.423 . S
C426 N129 1.414 . S
C437 N90 1.414 . S
C435 C72 1.403 . S
C448 N103 1.413 . S
C446 C6 1.399 . S
