# Generated by pormake.
# Topology eea, (3,6)-cn, num edge types: 1
# Building blocks:
#     Node 0, Type 0, BuildingBlock: ESEHIV_clean_linker_0, # of connection points: 3
#     Node 1, Type 0, BuildingBlock: ESEHIV_clean_linker_0, # of connection points: 3
#     Node 2, Type 0, BuildingBlock: ESEHIV_clean_linker_0, # of connection points: 3
#     Node 3, Type 0, BuildingBlock: ESEHIV_clean_linker_0, # of connection points: 3
#     Node 4, Type 0, BuildingBlock: ESEHIV_clean_linker_0, # of connection points: 3
#     Node 5, Type 0, BuildingBlock: ESEHIV_clean_linker_0, # of connection points: 3
#     Node 6, Type 0, BuildingBlock: ESEHIV_clean_linker_0, # of connection points: 3
#     Node 7, Type 0, BuildingBlock: ESEHIV_clean_linker_0, # of connection points: 3
#     Node 8, Type 0, BuildingBlock: ESEHIV_clean_linker_0, # of connection points: 3
#     Node 9, Type 0, BuildingBlock: ESEHIV_clean_linker_0, # of connection points: 3
#     Node 10, Type 0, BuildingBlock: ESEHIV_clean_linker_0, # of connection points: 3
#     Node 11, Type 0, BuildingBlock: ESEHIV_clean_linker_0, # of connection points: 3
#     Node 12, Type 0, BuildingBlock: ESEHIV_clean_linker_0, # of connection points: 3
#     Node 13, Type 0, BuildingBlock: ESEHIV_clean_linker_0, # of connection points: 3
#     Node 14, Type 0, BuildingBlock: ESEHIV_clean_linker_0, # of connection points: 3
#     Node 15, Type 0, BuildingBlock: ESEHIV_clean_linker_0, # of connection points: 3
#     Node 16, Type 0, BuildingBlock: ESEHIV_clean_linker_0, # of connection points: 3
#     Node 17, Type 0, BuildingBlock: ESEHIV_clean_linker_0, # of connection points: 3
#     Node 18, Type 1, BuildingBlock: KUMBOL_clean_sbu_0, # of connection points: 6
#     Node 19, Type 1, BuildingBlock: KUMBOL_clean_sbu_0, # of connection points: 6
#     Node 20, Type 1, BuildingBlock: KUMBOL_clean_sbu_0, # of connection points: 6
#     Node 21, Type 1, BuildingBlock: KUMBOL_clean_sbu_0, # of connection points: 6
#     Node 22, Type 1, BuildingBlock: KUMBOL_clean_sbu_0, # of connection points: 6
#     Node 23, Type 1, BuildingBlock: KUMBOL_clean_sbu_0, # of connection points: 6
#     Node 24, Type 1, BuildingBlock: KUMBOL_clean_sbu_0, # of connection points: 6
#     Node 25, Type 1, BuildingBlock: KUMBOL_clean_sbu_0, # of connection points: 6
#     Node 26, Type 1, BuildingBlock: KUMBOL_clean_sbu_0, # of connection points: 6
#     Edge 27, Type (0, 1), BuildingBlock: UVAHIK_clean_linker_0, # of connection points: 2
#     Edge 28, Type (0, 1), BuildingBlock: UVAHIK_clean_linker_0, # of connection points: 2
#     Edge 29, Type (0, 1), BuildingBlock: UVAHIK_clean_linker_0, # of connection points: 2
#     Edge 30, Type (0, 1), BuildingBlock: UVAHIK_clean_linker_0, # of connection points: 2
#     Edge 31, Type (0, 1), BuildingBlock: UVAHIK_clean_linker_0, # of connection points: 2
#     Edge 32, Type (0, 1), BuildingBlock: UVAHIK_clean_linker_0, # of connection points: 2
#     Edge 33, Type (0, 1), BuildingBlock: UVAHIK_clean_linker_0, # of connection points: 2
#     Edge 34, Type (0, 1), BuildingBlock: UVAHIK_clean_linker_0, # of connection points: 2
#     Edge 35, Type (0, 1), BuildingBlock: UVAHIK_clean_linker_0, # of connection points: 2
#     Edge 36, Type (0, 1), BuildingBlock: UVAHIK_clean_linker_0, # of connection points: 2
#     Edge 37, Type (0, 1), BuildingBlock: UVAHIK_clean_linker_0, # of connection points: 2
#     Edge 38, Type (0, 1), BuildingBlock: UVAHIK_clean_linker_0, # of connection points: 2
#     Edge 39, Type (0, 1), BuildingBlock: UVAHIK_clean_linker_0, # of connection points: 2
#     Edge 40, Type (0, 1), BuildingBlock: UVAHIK_clean_linker_0, # of connection points: 2
#     Edge 41, Type (0, 1), BuildingBlock: UVAHIK_clean_linker_0, # of connection points: 2
#     Edge 42, Type (0, 1), BuildingBlock: UVAHIK_clean_linker_0, # of connection points: 2
#     Edge 43, Type (0, 1), BuildingBlock: UVAHIK_clean_linker_0, # of connection points: 2
#     Edge 44, Type (0, 1), BuildingBlock: UVAHIK_clean_linker_0, # of connection points: 2
#     Edge 45, Type (0, 1), BuildingBlock: UVAHIK_clean_linker_0, # of connection points: 2
#     Edge 46, Type (0, 1), BuildingBlock: UVAHIK_clean_linker_0, # of connection points: 2
#     Edge 47, Type (0, 1), BuildingBlock: UVAHIK_clean_linker_0, # of connection points: 2
#     Edge 48, Type (0, 1), BuildingBlock: UVAHIK_clean_linker_0, # of connection points: 2
#     Edge 49, Type (0, 1), BuildingBlock: UVAHIK_clean_linker_0, # of connection points: 2
#     Edge 50, Type (0, 1), BuildingBlock: UVAHIK_clean_linker_0, # of connection points: 2
#     Edge 51, Type (0, 1), BuildingBlock: UVAHIK_clean_linker_0, # of connection points: 2
#     Edge 52, Type (0, 1), BuildingBlock: UVAHIK_clean_linker_0, # of connection points: 2
#     Edge 53, Type (0, 1), BuildingBlock: UVAHIK_clean_linker_0, # of connection points: 2
#     Edge 54, Type (0, 1), BuildingBlock: UVAHIK_clean_linker_0, # of connection points: 2
#     Edge 55, Type (0, 1), BuildingBlock: UVAHIK_clean_linker_0, # of connection points: 2
#     Edge 56, Type (0, 1), BuildingBlock: UVAHIK_clean_linker_0, # of connection points: 2
#     Edge 57, Type (0, 1), BuildingBlock: UVAHIK_clean_linker_0, # of connection points: 2
#     Edge 58, Type (0, 1), BuildingBlock: UVAHIK_clean_linker_0, # of connection points: 2
#     Edge 59, Type (0, 1), BuildingBlock: UVAHIK_clean_linker_0, # of connection points: 2
#     Edge 60, Type (0, 1), BuildingBlock: UVAHIK_clean_linker_0, # of connection points: 2
#     Edge 61, Type (0, 1), BuildingBlock: UVAHIK_clean_linker_0, # of connection points: 2
#     Edge 62, Type (0, 1), BuildingBlock: UVAHIK_clean_linker_0, # of connection points: 2
#     Edge 63, Type (0, 1), BuildingBlock: UVAHIK_clean_linker_0, # of connection points: 2
#     Edge 64, Type (0, 1), BuildingBlock: UVAHIK_clean_linker_0, # of connection points: 2
#     Edge 65, Type (0, 1), BuildingBlock: UVAHIK_clean_linker_0, # of connection points: 2
#     Edge 66, Type (0, 1), BuildingBlock: UVAHIK_clean_linker_0, # of connection points: 2
#     Edge 67, Type (0, 1), BuildingBlock: UVAHIK_clean_linker_0, # of connection points: 2
#     Edge 68, Type (0, 1), BuildingBlock: UVAHIK_clean_linker_0, # of connection points: 2
#     Edge 69, Type (0, 1), BuildingBlock: UVAHIK_clean_linker_0, # of connection points: 2
#     Edge 70, Type (0, 1), BuildingBlock: UVAHIK_clean_linker_0, # of connection points: 2
#     Edge 71, Type (0, 1), BuildingBlock: UVAHIK_clean_linker_0, # of connection points: 2
#     Edge 72, Type (0, 1), BuildingBlock: UVAHIK_clean_linker_0, # of connection points: 2
#     Edge 73, Type (0, 1), BuildingBlock: UVAHIK_clean_linker_0, # of connection points: 2
#     Edge 74, Type (0, 1), BuildingBlock: UVAHIK_clean_linker_0, # of connection points: 2
#     Edge 75, Type (0, 1), BuildingBlock: UVAHIK_clean_linker_0, # of connection points: 2
#     Edge 76, Type (0, 1), BuildingBlock: UVAHIK_clean_linker_0, # of connection points: 2
#     Edge 77, Type (0, 1), BuildingBlock: UVAHIK_clean_linker_0, # of connection points: 2
#     Edge 78, Type (0, 1), BuildingBlock: UVAHIK_clean_linker_0, # of connection points: 2
#     Edge 79, Type (0, 1), BuildingBlock: UVAHIK_clean_linker_0, # of connection points: 2
#     Edge 80, Type (0, 1), BuildingBlock: UVAHIK_clean_linker_0, # of connection points: 2
# Relax obj value: 0.009
# Max RMSD: 0.094
# Mean RMSD: 0.062
data_MOF--net-eea--node1-KUMBOL_clean_sbu_0--node2-ESEHIV_clean_linker_0--edge1-UVAHIK_clean_linker_0
_symmetry_space_group_name_H-M    P1
_symmetry_Int_Tables_number       1
_symmetry_cell_setting            triclinic
loop_
_symmetry_equiv_pos_as_xyz
'x, y, z'
_cell_length_a     63.064155
_cell_length_b     64.387721
_cell_length_c     89.642103
_cell_angle_alpha  90.078329
_cell_angle_beta   90.135005
_cell_angle_gamma 119.93974
loop_
_atom_site_label
_atom_site_type_symbol
_atom_site_fract_x
_atom_site_fract_y
_atom_site_fract_z
_atom_type_partial_charge
H0 H 0.26182 0.16227 0.43546 0.0
H1 H 0.25965 0.09446 0.43705 0.0
H2 H 0.23487 0.11445 0.39784 0.0
C3 C 0.25754 0.14542 0.43023 0.0
C4 C 0.24823 0.14048 0.41561 0.0
C5 C 0.26166 0.12888 0.43806 0.0
C6 C 0.25659 0.10734 0.43105 0.0
C7 C 0.24722 0.10211 0.41646 0.0
C8 C 0.24308 0.11879 0.40886 0.0
H9 H 0.84891 0.09559 0.43883 0.0
H10 H 0.9164 0.1628 0.43676 0.0
H11 H 0.89629 0.11209 0.40085 0.0
C12 C 0.86564 0.10763 0.43301 0.0
C13 C 0.87047 0.10101 0.419 0.0
C14 C 0.88222 0.12978 0.43958 0.0
C15 C 0.90368 0.14556 0.43188 0.0
C16 C 0.90875 0.13932 0.41786 0.0
C17 C 0.89223 0.11695 0.41161 0.0
H18 H 0.84897 0.76377 0.43655 0.0
H19 H 0.91712 0.76367 0.43629 0.0
H20 H 0.89593 0.78939 0.39812 0.0
C21 C 0.86588 0.76794 0.43101 0.0
C22 C 0.87035 0.77741 0.41646 0.0
C23 C 0.88264 0.76298 0.43833 0.0
C24 C 0.90393 0.76717 0.43076 0.0
C25 C 0.90875 0.77661 0.41624 0.0
C26 C 0.89204 0.78191 0.40926 0.0
H27 H 0.08604 0.2357 0.57289 0.0
H28 H 0.15385 0.23483 0.57186 0.0
H29 H 0.10773 0.20971 0.61064 0.0
C30 C 0.0991 0.23172 0.57813 0.0
C31 C 0.09444 0.22216 0.59261 0.0
C32 C 0.12033 0.23605 0.57038 0.0
C33 C 0.13732 0.23129 0.57762 0.0
C34 C 0.13319 0.22204 0.59224 0.0
C35 C 0.11144 0.21721 0.59951 0.0
H36 H 0.73896 0.90119 0.57355 0.0
H37 H 0.74077 0.83532 0.5714 0.0
H38 H 0.76555 0.87913 0.61093 0.0
C39 C 0.74295 0.88828 0.57868 0.0
C40 C 0.75252 0.89236 0.59321 0.0
C41 C 0.73886 0.86782 0.57068 0.0
C42 C 0.74397 0.85117 0.5775 0.0
C43 C 0.75349 0.85502 0.59206 0.0
C44 C 0.75783 0.87575 0.59978 0.0
H45 H 0.08316 0.83691 0.57311 0.0
H46 H 0.14744 0.90672 0.57071 0.0
H47 H 0.10374 0.88542 0.61042 0.0
C48 C 0.09527 0.85423 0.57811 0.0
C49 C 0.09092 0.85906 0.59275 0.0
C50 C 0.11569 0.87128 0.57008 0.0
C51 C 0.13169 0.89344 0.57683 0.0
C52 C 0.1277 0.89858 0.59144 0.0
C53 C 0.10726 0.88129 0.59929 0.0
H54 H 0.91944 0.48786 0.77005 0.0
H55 H 0.92694 0.42499 0.76841 0.0
H56 H 0.90358 0.44695 0.72948 0.0
C57 C 0.91842 0.47289 0.7639 0.0
C58 C 0.91062 0.46921 0.74895 0.0
C59 C 0.92461 0.45718 0.77101 0.0
C60 C 0.92282 0.4376 0.76297 0.0
C61 C 0.91537 0.43392 0.74798 0.0
C62 C 0.90954 0.44991 0.74103 0.0
H63 H 0.51994 0.42904 0.77333 0.0
H64 H 0.5855 0.49773 0.76928 0.0
H65 H 0.56309 0.44674 0.73338 0.0
C66 C 0.53576 0.44158 0.76697 0.0
C67 C 0.53965 0.43495 0.75271 0.0
C68 C 0.55209 0.46426 0.77306 0.0
C69 C 0.57249 0.48042 0.76462 0.0
C70 C 0.57672 0.47408 0.75037 0.0
C71 C 0.56021 0.45137 0.74453 0.0
H72 H 0.51422 0.09293 0.77026 0.0
H73 H 0.583 0.09398 0.76844 0.0
H74 H 0.56032 0.12113 0.73165 0.0
C75 C 0.53102 0.09736 0.76447 0.0
C76 C 0.53525 0.10779 0.75019 0.0
C77 C 0.54815 0.09234 0.77122 0.0
C78 C 0.56959 0.09764 0.76338 0.0
C79 C 0.5742 0.10823 0.74918 0.0
C80 C 0.55709 0.1135 0.74275 0.0
H81 H 0.7513 0.56682 0.90645 0.0
H82 H 0.81907 0.56596 0.90609 0.0
H83 H 0.77197 0.54015 0.9444 0.0
C84 C 0.76414 0.56267 0.91184 0.0
C85 C 0.75918 0.55296 0.92629 0.0
C86 C 0.78563 0.56722 0.90438 0.0
C87 C 0.80233 0.56218 0.91169 0.0
C88 C 0.79772 0.55253 0.92618 0.0
C89 C 0.7759 0.54775 0.93329 0.0
H90 H 0.40456 0.23373 0.90696 0.0
H91 H 0.4048 0.16713 0.90725 0.0
H92 H 0.42788 0.21223 0.9462 0.0
C93 C 0.4082 0.22104 0.91271 0.0
C94 C 0.41644 0.2254 0.92756 0.0
C95 C 0.40421 0.20019 0.90526 0.0
C96 C 0.40797 0.18331 0.91293 0.0
C97 C 0.41617 0.18737 0.92779 0.0
C98 C 0.4205 0.20852 0.93496 0.0
H99 H 0.75041 0.16767 0.90737 0.0
H100 H 0.81545 0.23686 0.90413 0.0
H101 H 0.77152 0.21768 0.94378 0.0
C102 C 0.76294 0.18505 0.91215 0.0
C103 C 0.75864 0.19078 0.92653 0.0
C104 C 0.78335 0.20167 0.90394 0.0
C105 C 0.79958 0.22405 0.91036 0.0
C106 C 0.79561 0.22999 0.92477 0.0
C107 C 0.77493 0.21327 0.9327 0.0
H108 H 0.59317 0.82835 0.10011 0.0
H109 H 0.59134 0.76061 0.10094 0.0
H110 H 0.575 0.78519 0.06037 0.0
C111 C 0.5903 0.81224 0.09447 0.0
C112 C 0.58356 0.80875 0.07932 0.0
C113 C 0.5933 0.79502 0.10237 0.0
C114 C 0.58934 0.77413 0.09493 0.0
C115 C 0.58285 0.77053 0.07978 0.0
C116 C 0.58009 0.78795 0.07207 0.0
H117 H 0.18668 0.75952 0.10459 0.0
H118 H 0.2527 0.82808 0.10215 0.0
H119 H 0.23197 0.77855 0.06551 0.0
C120 C 0.2027 0.77235 0.09848 0.0
C121 C 0.20718 0.76633 0.08422 0.0
C122 C 0.21899 0.79454 0.10508 0.0
C123 C 0.24009 0.81082 0.09725 0.0
C124 C 0.24495 0.80493 0.08307 0.0
C125 C 0.22849 0.78272 0.07665 0.0
H126 H 0.18187 0.42932 0.10277 0.0
H127 H 0.25213 0.43332 0.10189 0.0
H128 H 0.22578 0.45261 0.06304 0.0
C129 C 0.19855 0.43343 0.09693 0.0
C130 C 0.20179 0.44163 0.08212 0.0
C131 C 0.21658 0.4303 0.1042 0.0
C132 C 0.23806 0.43559 0.09643 0.0
C133 C 0.24142 0.44353 0.08158 0.0
C134 C 0.22325 0.44654 0.07452 0.0
H135 H 0.41684 0.89939 0.24106 0.0
H136 H 0.48393 0.89739 0.24093 0.0
H137 H 0.43714 0.87331 0.27947 0.0
C138 C 0.42951 0.89513 0.24656 0.0
C139 C 0.42454 0.88593 0.26113 0.0
C140 C 0.45079 0.89911 0.23911 0.0
C141 C 0.46731 0.89397 0.24653 0.0
C142 C 0.46271 0.88471 0.26114 0.0
C143 C 0.44106 0.88052 0.26827 0.0
H144 H 0.07473 0.5662 0.23884 0.0
H145 H 0.07363 0.49899 0.24158 0.0
H146 H 0.09571 0.54595 0.27959 0.0
C147 C 0.07778 0.55359 0.24517 0.0
C148 C 0.08567 0.55875 0.26008 0.0
C149 C 0.0735 0.53215 0.23838 0.0
C150 C 0.07669 0.5155 0.24675 0.0
C151 C 0.0843 0.52025 0.26171 0.0
C152 C 0.08876 0.54187 0.26826 0.0
H153 H 0.41526 0.50282 0.2401 0.0
H154 H 0.4812 0.57142 0.23719 0.0
H155 H 0.43891 0.55106 0.27755 0.0
C156 C 0.42852 0.5197 0.24515 0.0
C157 C 0.4248 0.52507 0.25976 0.0
C158 C 0.44868 0.5365 0.23684 0.0
C159 C 0.46549 0.55846 0.24349 0.0
C160 C 0.46214 0.56391 0.25816 0.0
C161 C 0.4416 0.54716 0.26617 0.0
Gd162 Gd 0.50798 0.01088 0.02312 0.0
Gd163 Gd 0.49364 0.98583 0.98505 0.0
C164 C 0.41143 0.93143 0.98132 0.0
C165 C 0.41037 0.89369 0.98542 0.0
C166 C 0.44936 0.93109 0.98464 0.0
C167 C 0.43725 0.94372 0.98243 0.0
C168 C 0.43604 0.9058 0.98561 0.0
C169 C 0.39808 0.9065 0.98331 0.0
C170 C 0.3998 0.94443 0.97784 0.0
C171 C 0.41389 0.96877 0.9747 0.0
N172 N 0.4507 0.96787 0.98067 0.0
C173 C 0.43938 0.9801 0.97579 0.0
H174 H 0.44962 -0.00141 0.9724 0.0
C175 C 0.48657 0.93091 0.98373 0.0
N176 N 0.47417 0.9433 0.98481 0.0
C177 C 0.47426 0.90594 0.98479 0.0
C178 C 0.44889 0.89334 0.98614 0.0
H179 H 0.50606 0.94005 0.9819 0.0
H180 H 0.37827 0.89687 0.98275 0.0
H181 H 0.55569 0.00164 0.02342 0.0
H182 H 0.38005 0.93567 0.97692 0.0
H183 H 0.40516 0.9788 0.97123 0.0
H184 H 0.39988 0.87436 0.98641 0.0
H185 H 0.48839 0.04727 0.03583 0.0
H186 H 0.62146 0.06923 0.02783 0.0
H187 H 0.60065 0.02514 0.02499 0.0
H188 H 0.59205 0.12409 0.03575 0.0
H189 H 0.48436 0.89643 0.98437 0.0
H190 H 0.43935 0.87396 0.98684 0.0
H191 H 0.61809 0.10621 0.03141 0.0
H192 H 0.50541 0.09024 0.04192 0.0
N193 N 0.55093 0.03199 0.02489 0.0
C194 C 0.60168 0.05896 0.02711 0.0
C195 C 0.59 0.03409 0.02553 0.0
C196 C 0.58763 0.07019 0.02823 0.0
C197 C 0.56194 0.05598 0.02721 0.0
C198 C 0.56446 0.0208 0.02454 0.0
N199 N 0.52275 0.05141 0.02948 0.0
C200 C 0.54735 0.06607 0.02942 0.0
C201 C 0.5174 0.08376 0.03825 0.0
C202 C 0.54255 0.09949 0.03708 0.0
C203 C 0.50783 0.05951 0.03478 0.0
C204 C 0.55796 0.0906 0.03302 0.0
H205 H 0.54998 0.11822 0.03994 0.0
O206 O 0.4881 0.00548 0.04391 0.0
O207 O 0.48041 0.98193 0.00847 0.0
O208 O 0.48337 0.01447 0.98741 0.0
O209 O 0.50032 0.03595 0.00951 0.0
O210 O 0.46821 -0.00013 0.02218 0.0
O211 O 0.51784 -0.00184 0.04297 0.0
O212 O 0.51263 0.97818 0.9675 0.0
O213 O 0.52345 0.00985 1.00099 0.0
O214 O 0.50755 0.97579 0.0215 0.0
O215 O 0.51763 0.97397 0.99692 0.0
O216 O 0.52295 0.02349 0.98016 0.0
O217 O 0.49206 0.99588 0.96217 0.0
C218 C 0.46162 0.98254 0.01272 0.0
C219 C 0.58355 0.10514 0.03321 0.0
C220 C 0.59837 0.09495 0.03079 0.0
C221 C 0.50177 -0.00065 0.05143 0.0
C222 C 0.51059 0.01089 0.06608 0.0
C223 C 0.52706 0.03557 0.06709 0.0
C224 C 0.50288 0.99708 0.07919 0.0
C225 C 0.51171 0.00792 0.09324 0.0
C226 C 0.53551 0.04647 0.08094 0.0
C227 C 0.52791 0.03282 0.09393 0.0
C228 C 0.4891 0.03268 0.99653 0.0
C229 C 0.53445 0.02796 0.99264 0.0
C230 C 0.5053 0.98719 0.95701 0.0
C231 C 0.49729 0.97431 0.94269 0.0
C232 C 0.48289 0.94928 0.94213 0.0
C233 C 0.50406 0.98753 0.92932 0.0
C234 C 0.49688 0.97584 0.91539 0.0
C235 C 0.47565 0.93756 0.92837 0.0
C236 C 0.48263 0.95067 0.9151 0.0
C237 C 0.5156 0.96713 0.011 0.0
H238 H 0.53349 0.04644 0.0572 0.0
H239 H 0.49049 0.97791 0.07841 0.0
H240 H 0.54808 0.06558 0.08161 0.0
H241 H 0.53466 0.04181 0.10455 0.0
H242 H 0.47724 0.93883 0.95228 0.0
H243 H 0.5152 0.0069 0.92978 0.0
H244 H 0.46453 0.91822 0.92798 0.0
H245 H 0.47656 0.94111 0.9046 0.0
Gd246 Gd 0.98055 0.49154 0.0215 0.0
Gd247 Gd 0.01978 0.50553 0.98809 0.0
C248 C 0.08701 0.49638 0.98695 0.0
C249 C 0.12012 0.5376 0.9849 0.0
C250 C 0.07787 0.52867 0.98583 0.0
C251 C 0.06997 0.5045 0.98701 0.0
C252 C 0.10299 0.54547 0.98439 0.0
C253 C 0.11215 0.5131 0.98621 0.0
C254 C 0.07825 0.47169 0.98729 0.0
C255 C 0.05306 0.45579 0.98719 0.0
N256 N 0.04555 0.48885 0.98761 0.0
C257 C 0.03688 0.46472 0.98714 0.0
H258 H 0.01749 0.45218 0.98713 0.0
C259 C 0.06747 0.55887 0.98214 0.0
N260 N 0.06083 0.53562 0.98523 0.0
C261 C 0.09218 0.57624 0.98074 0.0
C262 C 0.11005 0.56957 0.98206 0.0
H263 H 0.0537 0.56409 0.98118 0.0
H264 H 0.12553 0.50721 0.98628 0.0
H265 H 0.98243 0.54482 0.02149 0.0
H266 H 0.09074 0.46472 0.98732 0.0
H267 H 0.04608 0.43665 0.98719 0.0
H268 H 0.13953 0.55025 0.98396 0.0
H269 H 0.94698 0.4345 0.03179 0.0
H270 H 0.90917 0.53205 0.01976 0.0
H271 H 0.95381 0.56021 0.02032 0.0
H272 H 0.86059 0.44682 0.02524 0.0
H273 H 0.09741 0.59474 0.97866 0.0
H274 H 0.12917 0.58303 0.98091 0.0
H275 H 0.87443 0.48956 0.02132 0.0
H276 H 0.90335 0.4039 0.03483 0.0
N277 N 0.9545 0.50808 0.02116 0.0
C278 C 0.92169 0.52514 0.02027 0.0
C279 C 0.94686 0.54108 0.02063 0.0
C280 C 0.91298 0.5005 0.02112 0.0
C281 C 0.93009 0.49246 0.02167 0.0
C282 C 0.96307 0.53222 0.02132 0.0
N283 N 0.93949 0.46192 0.02526 0.0
C284 C 0.9223 0.46852 0.02373 0.0
C285 C 0.9084 0.42197 0.0316 0.0
C286 C 0.89035 0.42813 0.02913 0.0
C287 C 0.93306 0.43932 0.02988 0.0
C288 C 0.89722 0.4518 0.02547 0.0
H289 H 0.87127 0.41473 0.03057 0.0
O290 O 0.98438 0.47833 0.04301 0.0
O291 O 0.01322 0.49287 0.01142 0.0
O292 O 0.98882 0.46674 0.98791 0.0
O293 O 0.95843 0.46264 0.0047 0.0
O294 O 0.99213 0.46377 0.02476 0.0
O295 O 0.98947 0.51407 0.04118 0.0
O296 O 0.01736 0.52049 0.96694 0.0
O297 O 0.98668 0.50353 0.99798 0.0
O298 O 0.01112 0.53061 0.02063 0.0
O299 O 0.04224 0.53173 0.00607 0.0
O300 O 0.00818 0.53331 0.9852 0.0
O301 O 0.01148 0.48428 0.96786 0.0
C302 C 0.01175 0.47415 0.01685 0.0
C303 C 0.87998 0.45944 0.02412 0.0
C304 C 0.88786 0.48377 0.02191 0.0
C305 C 0.98804 0.49748 0.05012 0.0
C306 C 0.97368 0.49338 0.06371 0.0
C307 C 0.94871 0.48602 0.06302 0.0
C308 C 0.98515 0.4966 0.07759 0.0
C309 C 0.97179 0.49248 0.09085 0.0
C310 C 0.93526 0.48175 0.07612 0.0
C311 C 0.94668 0.48493 0.08998 0.0
C312 C 0.96633 0.455 0.99343 0.0
C313 C 0.98808 0.52225 0.99262 0.0
C314 C 0.0133 0.50154 0.95938 0.0
C315 C 0.02729 0.50598 0.9456 0.0
C316 C 0.05278 0.51606 0.94589 0.0
C317 C 0.01487 0.50043 0.93192 0.0
C318 C 0.02777 0.50495 0.91844 0.0
C319 C 0.06574 0.52065 0.93256 0.0
C320 C 0.05338 0.51518 0.9189 0.0
C321 C 0.03432 0.54096 0.01634 0.0
H322 H 0.93962 0.48359 0.05242 0.0
H323 H 0.00457 0.50265 0.07804 0.0
H324 H 0.91595 0.47594 0.07554 0.0
H325 H 0.93583 0.48131 0.09999 0.0
H326 H 0.06262 0.52043 0.95634 0.0
H327 H 0.99511 0.49233 0.93182 0.0
H328 H 0.08544 0.52856 0.93282 0.0
H329 H 0.06388 0.51919 0.90871 0.0
Gd330 Gd 0.4911 0.50563 0.98435 0.0
Gd331 Gd 0.5076 0.49295 0.0211 0.0
C332 C 0.58744 0.51096 0.02259 0.0
C333 C 0.5835 0.47189 0.02663 0.0
C334 C 0.54721 0.47589 0.02486 0.0
C335 C 0.56171 0.50024 0.02261 0.0
C336 C 0.55796 0.46157 0.02747 0.0
C337 C 0.59822 0.49656 0.02417 0.0
C338 C 0.60155 0.5359 0.02139 0.0
C339 C 0.58996 0.54952 0.02071 0.0
N340 N 0.55069 0.51362 0.02118 0.0
C341 C 0.56439 0.53804 0.02074 0.0
H342 H 0.55576 0.5488 0.02039 0.0
C343 C 0.50818 0.44394 0.03124 0.0
N344 N 0.52268 0.46665 0.02588 0.0
C345 C 0.51788 0.4289 0.03376 0.0
C346 C 0.54283 0.43762 0.03157 0.0
H347 H 0.4889 0.43727 0.03309 0.0
H348 H 0.61794 0.50442 0.02397 0.0
H349 H 0.4521 0.45392 0.96552 0.0
H350 H 0.62136 0.54483 0.02132 0.0
H351 H 0.60068 0.56887 0.02012 0.0
H352 H 0.59208 0.46112 0.02839 0.0
H353 H 0.49772 0.56149 0.98739 0.0
H354 H 0.37902 0.43934 0.9725 0.0
H355 H 0.40786 0.4271 0.96286 0.0
H356 H 0.39046 0.51336 0.99208 0.0
H357 H 0.50615 0.41067 0.03747 0.0
H358 H 0.55038 0.42603 0.03369 0.0
H359 H 0.3727 0.47158 0.98364 0.0
H360 H 0.47262 0.57932 0.99374 0.0
N361 N 0.44887 0.48022 0.97836 0.0
C362 C 0.39854 0.45104 0.97402 0.0
C363 C 0.41474 0.44405 0.96861 0.0
C364 C 0.40781 0.47372 0.98045 0.0
C365 C 0.4334 0.48822 0.98225 0.0
C366 C 0.43993 0.45923 0.97046 0.0
N367 N 0.46802 0.52536 0.98755 0.0
C368 C 0.44333 0.51157 0.98703 0.0
C369 C 0.4641 0.56012 0.99223 0.0
C370 C 0.43878 0.54571 0.99322 0.0
C371 C 0.4784 0.5497 0.98898 0.0
C372 C 0.42801 0.52123 0.99012 0.0
H373 H 0.42769 0.55383 0.99561 0.0
O374 O 0.50822 0.53575 0.96898 0.0
O375 O 0.52186 0.50911 0.9988 0.0
O376 O 0.50761 0.52784 0.02107 0.0
O377 O 0.51633 0.54035 0.99657 0.0
O378 O 0.51795 0.49422 0.97768 0.0
O379 O 0.49345 0.49953 0.9608 0.0
O380 O 0.48974 0.47828 0.04232 0.0
O381 O 0.47967 0.49671 0.00798 0.0
O382 O 0.47915 0.46621 0.98583 0.0
O383 O 0.49682 0.45993 0.00712 0.0
O384 O 0.46726 0.46631 0.02106 0.0
O385 O 0.51942 0.51479 0.04118 0.0
C386 C 0.53098 0.50074 0.98964 0.0
C387 C 0.4025 0.50639 0.98944 0.0
C388 C 0.39239 0.48263 0.98463 0.0
C389 C 0.50406 0.52208 0.95735 0.0
C390 C 0.49555 0.52781 0.9435 0.0
C391 C 0.48044 0.538 0.94364 0.0
C392 C 0.50243 0.52229 0.9298 0.0
C393 C 0.49428 0.5268 0.91622 0.0
C394 C 0.47242 0.54274 0.9302 0.0
C395 C 0.47922 0.53717 0.91658 0.0
C396 C 0.5151 0.54472 0.01087 0.0
C397 C 0.46067 0.47802 0.01231 0.0
C398 C 0.50415 0.49761 0.04979 0.0
C399 C 0.51419 0.49438 0.06381 0.0
C400 C 0.53263 0.48826 0.06379 0.0
C401 C 0.50549 0.49792 0.07741 0.0
C402 C 0.51514 0.49539 0.09102 0.0
C403 C 0.5421 0.48545 0.07723 0.0
C404 C 0.53345 0.48897 0.09077 0.0
C405 C 0.48456 0.45275 0.99441 0.0
H406 H 0.47478 0.54219 0.95409 0.0
H407 H 0.51375 0.51399 0.92977 0.0
H408 H 0.46083 0.5507 0.93033 0.0
H409 H 0.47286 0.54115 0.90633 0.0
H410 H 0.53981 0.4858 0.05345 0.0
H411 H 0.49158 0.50313 0.07736 0.0
H412 H 0.55625 0.48061 0.07714 0.0
H413 H 0.541 0.48654 0.10105 0.0
Gd414 Gd 0.17669 0.34639 0.35786 0.0
Gd415 Gd 0.15935 0.31957 0.32037 0.0
C416 C 0.07936 0.26036 0.31749 0.0
C417 C 0.08292 0.2253 0.31187 0.0
C418 C 0.11943 0.26439 0.31478 0.0
C419 C 0.1051 0.27455 0.31771 0.0
C420 C 0.1085 0.2398 0.31128 0.0
C421 C 0.06837 0.23557 0.31499 0.0
C422 C 0.06547 0.27164 0.31934 0.0
C423 C 0.07731 0.29653 0.32088 0.0
N424 N 0.11633 0.29856 0.32 0.0
C425 C 0.10289 0.3098 0.32109 0.0
H426 H 0.11178 0.32896 0.32224 0.0
C427 C 0.15848 0.27073 0.30825 0.0
N428 N 0.14401 0.27899 0.31407 0.0
C429 C 0.14859 0.24643 0.30483 0.0
C430 C 0.12353 0.23078 0.30663 0.0
H431 H 0.17785 0.2829 0.30675 0.0
H432 H 0.04863 0.22432 0.31498 0.0
H433 H 0.21184 0.32712 0.37586 0.0
H434 H 0.04565 0.26139 0.31924 0.0
H435 H 0.06675 0.30551 0.32199 0.0
H436 H 0.07419 0.20631 0.30942 0.0
H437 H 0.17533 0.39854 0.35487 0.0
H438 H 0.28688 0.3803 0.37067 0.0
H439 H 0.25526 0.34 0.37894 0.0
H440 H 0.28287 0.44833 0.3532 0.0
H441 H 0.16026 0.23982 0.30073 0.0
H442 H 0.11584 0.212 0.30383 0.0
H443 H 0.297 0.42064 0.36093 0.0
H444 H 0.20355 0.44075 0.34969 0.0
N445 N 0.21816 0.35849 0.36394 0.0
C446 C 0.26771 0.37448 0.3689 0.0
C447 C 0.24994 0.35172 0.37352 0.0
C448 C 0.26045 0.39 0.36294 0.0
C449 C 0.23521 0.3815 0.36082 0.0
C450 C 0.22519 0.34429 0.37139 0.0
N451 N 0.20289 0.38843 0.3552 0.0
C452 C 0.22731 0.397 0.35642 0.0
C453 C 0.21054 0.42858 0.35122 0.0
C454 C 0.23564 0.43719 0.35102 0.0
C455 C 0.19444 0.40423 0.35374 0.0
C456 C 0.24437 0.42152 0.35409 0.0
H457 H 0.24812 0.45609 0.34915 0.0
O458 O 0.15849 0.35951 0.37259 0.0
O459 O 0.14563 0.32149 0.34299 0.0
O460 O 0.15956 0.3545 0.32143 0.0
O461 O 0.15315 0.35911 0.34635 0.0
O462 O 0.14807 0.30911 0.36404 0.0
O463 O 0.17724 0.34162 0.38196 0.0
O464 O 0.17901 0.32562 0.29944 0.0
O465 O 0.18796 0.34932 0.33414 0.0
O466 O 0.18464 0.31588 0.35591 0.0
O467 O 0.16791 0.29484 0.33361 0.0
O468 O 0.19898 0.33001 0.32076 0.0
O469 O 0.14759 0.33035 0.30045 0.0
C470 C 0.13547 0.30394 0.3519 0.0
C471 C 0.26952 0.4297 0.35524 0.0
C472 C 0.27756 0.41394 0.35963 0.0
C473 C 0.16418 0.35175 0.38449 0.0
C474 C 0.15702 0.35488 0.39967 0.0
C475 C 0.14843 0.371 0.40194 0.0
C476 C 0.15725 0.34094 0.41176 0.0
C477 C 0.14819 0.34265 0.4258 0.0
C478 C 0.13991 0.373 0.41591 0.0
C479 C 0.13958 0.3588 0.42773 0.0
C480 C 0.1535 0.36458 0.33212 0.0
C481 C 0.2063 0.34802 0.32975 0.0
C482 C 0.16432 0.33043 0.29196 0.0
C483 C 0.15626 0.31884 0.27726 0.0
C484 C 0.13937 0.29427 0.27614 0.0
C485 C 0.16576 0.33244 0.26418 0.0
C486 C 0.1588 0.32141 0.25005 0.0
C487 C 0.13242 0.28325 0.26218 0.0
C488 C 0.14212 0.29665 0.24922 0.0
C489 C 0.17901 0.29783 0.34661 0.0
H490 H 0.14808 0.38193 0.39287 0.0
H491 H 0.16356 0.32822 0.41016 0.0
H492 H 0.13326 0.38543 0.41753 0.0
H493 H 0.13262 0.36045 0.43844 0.0
H494 H 0.13153 0.28359 0.28601 0.0
H495 H 0.17879 0.35147 0.26501 0.0
H496 H 0.11942 0.26425 0.26141 0.0
H497 H 0.13626 0.28771 0.23851 0.0
Gd498 Gd 0.64867 0.82534 0.35353 0.0
Gd499 Gd 0.68785 0.83969 0.32012 0.0
C500 C 0.75691 0.83327 0.31996 0.0
C501 C 0.78882 0.87454 0.31599 0.0
C502 C 0.74613 0.86418 0.31699 0.0
C503 C 0.73919 0.84053 0.31947 0.0
C504 C 0.77094 0.88138 0.31474 0.0
C505 C 0.78181 0.8505 0.31863 0.0
C506 C 0.749 0.80882 0.32123 0.0
C507 C 0.72397 0.79229 0.32134 0.0
N508 N 0.71496 0.82439 0.32045 0.0
C509 C 0.70713 0.8004 0.32068 0.0
H510 H 0.68789 0.78734 0.32084 0.0
C511 C 0.73384 0.89223 0.31074 0.0
N512 N 0.72834 0.87001 0.31561 0.0
C513 C 0.7582 0.91 0.30847 0.0
C514 C 0.77688 0.90466 0.31072 0.0
H515 H 0.71946 0.89647 0.30904 0.0
H516 H 0.7957 0.84531 0.31914 0.0
H517 H 0.65082 0.87863 0.35474 0.0
H518 H 0.76201 0.8025 0.32171 0.0
H519 H 0.71762 0.7733 0.32198 0.0
H520 H 0.80801 0.88753 0.31448 0.0
H521 H 0.61466 0.76667 0.36013 0.0
H522 H 0.57752 0.86594 0.35385 0.0
H523 H 0.62216 0.89408 0.35453 0.0
H524 H 0.52877 0.78033 0.3563 0.0
H525 H 0.76252 0.92778 0.30499 0.0
H526 H 0.79572 0.91841 0.30888 0.0
H527 H 0.54277 0.8234 0.3543 0.0
H528 H 0.57086 0.7359 0.3621 0.0
N529 N 0.62283 0.84195 0.35385 0.0
C530 C 0.59004 0.85901 0.35397 0.0
C531 C 0.61522 0.87494 0.35438 0.0
C532 C 0.58132 0.83432 0.3541 0.0
C533 C 0.5984 0.82625 0.35415 0.0
C534 C 0.63144 0.86607 0.35451 0.0
N535 N 0.60755 0.79513 0.35592 0.0
C536 C 0.5905 0.80204 0.35513 0.0
C537 C 0.57613 0.75442 0.36007 0.0
C538 C 0.55826 0.76106 0.3585 0.0
C539 C 0.60086 0.77185 0.35899 0.0
C540 C 0.56535 0.78518 0.35626 0.0
H541 H 0.53911 0.74755 0.35941 0.0
O542 O 0.6501 0.80996 0.37473 0.0
O543 O 0.68223 0.82799 0.34378 0.0
O544 O 0.65819 0.80031 0.32134 0.0
O545 O 0.62667 0.79908 0.33547 0.0
O546 O 0.6609 0.79809 0.35657 0.0
O547 O 0.65638 0.84632 0.37382 0.0
O548 O 0.68252 0.85169 0.29855 0.0
O549 O 0.65507 0.83792 0.33026 0.0
O550 O 0.67962 0.8642 0.35387 0.0
O551 O 0.70991 0.86907 0.33673 0.0
O552 O 0.67551 0.86694 0.31678 0.0
O553 O 0.6788 0.81654 0.30073 0.0
C554 C 0.68108 0.80941 0.34924 0.0
C555 C 0.5482 0.79303 0.3556 0.0
C556 C 0.55617 0.81755 0.35449 0.0
C557 C 0.65388 0.8288 0.38231 0.0
C558 C 0.63905 0.8242 0.39574 0.0
C559 C 0.61365 0.81453 0.39486 0.0
C560 C 0.65058 0.82928 0.40969 0.0
C561 C 0.63687 0.82464 0.42284 0.0
C562 C 0.59988 0.80986 0.40785 0.0
C563 C 0.61136 0.81484 0.42179 0.0
C564 C 0.63489 0.78986 0.32538 0.0
C565 C 0.65601 0.85636 0.32478 0.0
C566 C 0.67901 0.83243 0.29166 0.0
C567 C 0.69243 0.83623 0.27769 0.0
C568 C 0.71764 0.84459 0.27773 0.0
C569 C 0.67978 0.83164 0.26412 0.0
C570 C 0.69219 0.83531 0.25051 0.0
C571 C 0.73013 0.84843 0.26428 0.0
C572 C 0.71754 0.84384 0.25074 0.0
C573 C 0.70201 0.87638 0.34819 0.0
H574 H 0.60447 0.81055 0.38421 0.0
H575 H 0.67029 0.83708 0.41026 0.0
H576 H 0.58025 0.80227 0.40713 0.0
H577 H 0.60026 0.81076 0.43173 0.0
H578 H 0.72762 0.84813 0.2881 0.0
H579 H 0.66021 0.82487 0.26419 0.0
H580 H 0.74963 0.855 0.26434 0.0
H581 H 0.72768 0.84714 0.24044 0.0
Gd582 Gd 0.15397 0.83733 0.31983 0.0
Gd583 Gd 0.17726 0.82474 0.35485 0.0
C584 C 0.25549 0.83786 0.35699 0.0
C585 C 0.24865 0.79759 0.36071 0.0
C586 C 0.21418 0.80448 0.3589 0.0
C587 C 0.22996 0.82863 0.35685 0.0
C588 C 0.22332 0.78876 0.36136 0.0
C589 C 0.26473 0.82212 0.35849 0.0
C590 C 0.27096 0.86267 0.35608 0.0
C591 C 0.26086 0.87763 0.35571 0.0
N592 N 0.22037 0.84329 0.35562 0.0
C593 C 0.23542 0.86762 0.35572 0.0
H594 H 0.22804 0.87952 0.35533 0.0
C595 C 0.17392 0.77389 0.3643 0.0
N596 N 0.18991 0.79668 0.3597 0.0
C597 C 0.18202 0.75751 0.36671 0.0
C598 C 0.20679 0.76487 0.36498 0.0
H599 H 0.15476 0.7682 0.36565 0.0
H600 H 0.28427 0.82883 0.35844 0.0
H601 H 0.10294 0.78283 0.31969 0.0
H602 H 0.29067 0.87047 0.35609 0.0
H603 H 0.27265 0.89689 0.35535 0.0
H604 H 0.25604 0.78576 0.36238 0.0
H605 H 0.17689 0.89384 0.30885 0.0
H606 H 0.04069 0.7925 0.31884 0.0
H607 H 0.05835 0.76579 0.31975 0.0
H608 H 0.07598 0.87724 0.31221 0.0
H609 H 0.16917 0.73927 0.36991 0.0
H610 H 0.21307 0.75222 0.36695 0.0
H611 H 0.04747 0.83426 0.31629 0.0
H612 H 0.16283 0.92301 0.30447 0.0
N613 N 0.11091 0.81913 0.31921 0.0
C614 C 0.06038 0.80015 0.31883 0.0
C615 C 0.07028 0.78503 0.3193 0.0
C616 C 0.07602 0.82493 0.31782 0.0
C617 C 0.10151 0.83395 0.31793 0.0
C618 C 0.09569 0.79483 0.31925 0.0
N619 N 0.14168 0.86565 0.31498 0.0
C620 C 0.11746 0.85806 0.31581 0.0
C621 C 0.14989 0.90485 0.30778 0.0
C622 C 0.12518 0.89772 0.30956 0.0
C623 C 0.15779 0.88834 0.31026 0.0
C624 C 0.10851 0.87392 0.31329 0.0
H625 H 0.11905 0.91047 0.30752 0.0
O626 O 0.17263 0.85112 0.29875 0.0
O627 O 0.18462 0.8361 0.33118 0.0
O628 O 0.1848 0.8631 0.35402 0.0
O629 O 0.16005 0.86675 0.33581 0.0
O630 O 0.19381 0.8653 0.31764 0.0
O631 O 0.1417 0.8151 0.29992 0.0
O632 O 0.15901 0.81053 0.376 0.0
O633 O 0.14669 0.82594 0.34348 0.0
O634 O 0.14629 0.79894 0.32068 0.0
O635 O 0.17114 0.79533 0.33882 0.0
O636 O 0.13732 0.79689 0.35712 0.0
O637 O 0.18875 0.84718 0.37466 0.0
C638 C 0.20241 0.85485 0.32592 0.0
C639 C 0.08321 0.86529 0.31394 0.0
C640 C 0.06698 0.84082 0.31624 0.0
C641 C 0.15769 0.8319 0.29132 0.0
C642 C 0.14843 0.83578 0.27718 0.0
C643 C 0.13134 0.84365 0.27705 0.0
C644 C 0.15703 0.83183 0.26365 0.0
C645 C 0.14865 0.83578 0.24996 0.0
C646 C 0.12312 0.84782 0.26354 0.0
C647 C 0.13172 0.84399 0.25008 0.0
C648 C 0.17479 0.87466 0.34755 0.0
C649 C 0.12879 0.80738 0.34882 0.0
C650 C 0.17327 0.83012 0.38333 0.0
C651 C 0.18296 0.82716 0.39755 0.0
C652 C 0.20069 0.8201 0.39792 0.0
C653 C 0.17434 0.83148 0.41095 0.0
C654 C 0.18339 0.82882 0.42476 0.0
C655 C 0.20961 0.81724 0.41156 0.0
C656 C 0.20105 0.82154 0.4249 0.0
C657 C 0.15635 0.78739 0.32711 0.0
H658 H 0.12436 0.84657 0.28733 0.0
H659 H 0.16996 0.82538 0.26383 0.0
H660 H 0.11007 0.85408 0.26351 0.0
H661 H 0.12526 0.84766 0.23976 0.0
H662 H 0.20763 0.81685 0.38772 0.0
H663 H 0.1609 0.8373 0.41059 0.0
H664 H 0.22321 0.81167 0.41179 0.0
H665 H 0.20812 0.81898 0.43534 0.0
Gd666 Gd 0.84496 0.68115 0.68915 0.0
Gd667 Gd 0.82373 0.64749 0.65328 0.0
C668 C 0.74663 0.58349 0.64764 0.0
C669 C 0.7547 0.55064 0.6441 0.0
C670 C 0.78837 0.5913 0.64766 0.0
C671 C 0.772 0.59953 0.64896 0.0
C672 C 0.77997 0.56686 0.64484 0.0
C673 C 0.73805 0.55894 0.64552 0.0
C674 C 0.73071 0.5927 0.64811 0.0
C675 C 0.74026 0.6174 0.64934 0.0
N676 N 0.78096 0.62338 0.65086 0.0
C677 C 0.76558 0.6326 0.65048 0.0
H678 H 0.77259 0.65161 0.65147 0.0
C679 C 0.82954 0.60078 0.64509 0.0
N680 N 0.81262 0.60748 0.64826 0.0
C681 C 0.82214 0.57671 0.64234 0.0
C682 C 0.79724 0.55961 0.6424 0.0
H683 H 0.84881 0.61397 0.64509 0.0
H684 H 0.71862 0.54632 0.64461 0.0
H685 H 0.8975 0.67944 0.69004 0.0
H686 H 0.71109 0.58098 0.64719 0.0
H687 H 0.72814 0.62477 0.64944 0.0
H688 H 0.74787 0.53174 0.64207 0.0
H689 H 0.81873 0.71231 0.70036 0.0
H690 H 0.95738 0.75108 0.6936 0.0
H691 H 0.94176 0.70752 0.69134 0.0
H692 H 0.9179 0.79745 0.70101 0.0
H693 H 0.83562 0.57137 0.64017 0.0
H694 H 0.79154 0.54099 0.64019 0.0
H695 H 0.94829 0.78464 0.69698 0.0
H696 H 0.83043 0.75428 0.70608 0.0
N697 N 0.88774 0.70667 0.69104 0.0
C698 C 0.93783 0.7388 0.69299 0.0
C699 C 0.92909 0.71423 0.69177 0.0
C700 C 0.92121 0.74713 0.69398 0.0
C701 C 0.89596 0.73037 0.69305 0.0
C702 C 0.90386 0.69832 0.69106 0.0
N703 N 0.85501 0.7206 0.69522 0.0
C704 C 0.87899 0.7376 0.69518 0.0
C705 C 0.84428 0.74988 0.70292 0.0
C706 C 0.8688 0.76784 0.70208 0.0
C707 C 0.83772 0.72615 0.69969 0.0
C708 C 0.8866 0.76174 0.69848 0.0
H709 H 0.87387 0.78618 0.7047 0.0
O710 O 0.82521 0.67403 0.71009 0.0
O711 O 0.81487 0.65102 0.67671 0.0
O712 O 0.81582 0.67816 0.65461 0.0
O713 O 0.8402 0.70548 0.67323 0.0
O714 O 0.80494 0.66999 0.6908 0.0
O715 O 0.8564 0.66881 0.70848 0.0
O716 O 0.84314 0.65193 0.63247 0.0
O717 O 0.85363 0.67788 0.66557 0.0
O718 O 0.85457 0.65171 0.68672 0.0
O719 O 0.82651 0.62312 0.67018 0.0
O720 O 0.86378 0.65872 0.65175 0.0
O721 O 0.81361 0.65987 0.63342 0.0
C722 C 0.79677 0.65202 0.68177 0.0
C723 C 0.91168 0.77876 0.69866 0.0
C724 C 0.92898 0.77146 0.69638 0.0
C725 C 0.83994 0.66882 0.71723 0.0
C726 C 0.84862 0.68037 0.73186 0.0
C727 C 0.86469 0.70514 0.73284 0.0
C728 C 0.84082 0.6666 0.74497 0.0
C729 C 0.84917 0.67754 0.75904 0.0
C730 C 0.87278 0.71613 0.74671 0.0
C731 C 0.8651 0.7025 0.75972 0.0
C732 C 0.82596 0.69941 0.66127 0.0
C733 C 0.87181 0.67707 0.66047 0.0
C734 C 0.82959 0.65832 0.62498 0.0
C735 C 0.82084 0.64694 0.6103 0.0
C736 C 0.80493 0.62217 0.60915 0.0
C737 C 0.82845 0.661 0.59729 0.0
C738 C 0.82008 0.65036 0.58314 0.0
C739 C 0.79674 0.61149 0.5952 0.0
C740 C 0.80422 0.62541 0.58229 0.0
C741 C 0.84266 0.62967 0.68117 0.0
H742 H 0.87098 0.71598 0.72291 0.0
H743 H 0.82862 0.6474 0.74418 0.0
H744 H 0.88506 0.73529 0.74739 0.0
H745 H 0.87149 0.71156 0.77035 0.0
H746 H 0.79888 0.6111 0.61901 0.0
H747 H 0.84054 0.6802 0.59822 0.0
H748 H 0.78456 0.59232 0.59439 0.0
H749 H 0.79777 0.61657 0.5716 0.0
Gd750 Gd 0.31478 0.15912 0.68803 0.0
Gd751 Gd 0.35478 0.17391 0.65516 0.0
C752 C 0.42322 0.16669 0.65454 0.0
C753 C 0.45567 0.20822 0.65264 0.0
C754 C 0.41308 0.19829 0.65324 0.0
C755 C 0.40573 0.17425 0.65446 0.0
C756 C 0.4381 0.21553 0.65197 0.0
C757 C 0.44824 0.18384 0.65394 0.0
C758 C 0.41501 0.1421 0.65487 0.0
C759 C 0.38992 0.12577 0.6546 0.0
N760 N 0.38141 0.15819 0.6549 0.0
C761 C 0.3733 0.13416 0.6544 0.0
H762 H 0.354 0.12128 0.65427 0.0
C763 C 0.40179 0.22781 0.64943 0.0
N764 N 0.39563 0.20467 0.65247 0.0
C765 C 0.42636 0.24561 0.64821 0.0
C766 C 0.44463 0.2395 0.64966 0.0
H767 H 0.38773 0.23265 0.64837 0.0
H768 H 0.46195 0.17839 0.65413 0.0
H769 H 0.31527 0.21159 0.68873 0.0
H770 H 0.42784 0.13556 0.655 0.0
H771 H 0.38336 0.1067 0.65459 0.0
H772 H 0.475 0.22122 0.65181 0.0
H773 H 0.28198 0.10039 0.69497 0.0
H774 H 0.2413 0.19698 0.68762 0.0
H775 H 0.28574 0.22599 0.68817 0.0
H776 H 0.19446 0.11131 0.69092 0.0
H777 H 0.4312 0.26401 0.64615 0.0
H778 H 0.46366 0.25329 0.64864 0.0
H779 H 0.20733 0.15408 0.68848 0.0
H780 H 0.23856 0.06891 0.69711 0.0
N781 N 0.28798 0.17465 0.6881 0.0
C782 C 0.25421 0.19052 0.68786 0.0
C783 C 0.27927 0.20694 0.68821 0.0
C784 C 0.2461 0.16595 0.68824 0.0
C785 C 0.26367 0.1585 0.68846 0.0
C786 C 0.29598 0.19866 0.68853 0.0
N787 N 0.27396 0.12823 0.69065 0.0
C788 C 0.25642 0.13449 0.68974 0.0
C789 C 0.24332 0.08727 0.69498 0.0
C790 C 0.22498 0.09326 0.69337 0.0
C791 C 0.26788 0.10514 0.69379 0.0
C792 C 0.23142 0.11717 0.69095 0.0
H793 H 0.20597 0.0794 0.69435 0.0
O794 O 0.31739 0.14493 0.70942 0.0
O795 O 0.34806 0.16106 0.67845 0.0
O796 O 0.32437 0.13463 0.65538 0.0
O797 O 0.29289 0.13295 0.66988 0.0
O798 O 0.32655 0.13143 0.69123 0.0
O799 O 0.32241 0.18078 0.70801 0.0
O800 O 0.3522 0.1883 0.63383 0.0
O801 O 0.32158 0.17199 0.66477 0.0
O802 O 0.34517 0.19839 0.68782 0.0
O803 O 0.3767 0.20012 0.67334 0.0
O804 O 0.34301 0.20163 0.65201 0.0
O805 O 0.34664 0.15224 0.63514 0.0
C806 C 0.3466 0.14229 0.68376 0.0
C807 C 0.21377 0.12437 0.69014 0.0
C808 C 0.2211 0.14872 0.68877 0.0
C809 C 0.3207 0.16382 0.71673 0.0
C810 C 0.306 0.1592 0.73021 0.0
C811 C 0.28067 0.15 0.72942 0.0
C812 C 0.31759 0.16365 0.74412 0.0
C813 C 0.304 0.15889 0.75732 0.0
C814 C 0.26702 0.1452 0.74248 0.0
C815 C 0.27856 0.14958 0.75638 0.0
C816 C 0.30106 0.12407 0.65951 0.0
C817 C 0.32293 0.19071 0.65945 0.0
C818 C 0.3484 0.16929 0.62647 0.0
C819 C 0.36268 0.17364 0.61282 0.0
C820 C 0.38803 0.18279 0.61336 0.0
C821 C 0.35069 0.16892 0.59903 0.0
C822 C 0.36389 0.1733 0.58568 0.0
C823 C 0.40129 0.18725 0.60016 0.0
C824 C 0.38934 0.18256 0.58638 0.0
C825 C 0.3685 0.20897 0.68372 0.0
H826 H 0.27147 0.1465 0.71878 0.0
H827 H 0.33725 0.17106 0.74462 0.0
H828 H 0.24743 0.13799 0.74183 0.0
H829 H 0.26756 0.14545 0.76637 0.0
H830 H 0.39753 0.18652 0.62392 0.0
H831 H 0.33103 0.16155 0.59872 0.0
H832 H 0.42088 0.19443 0.60061 0.0
H833 H 0.40005 0.18641 0.57629 0.0
Gd834 Gd 0.82398 0.17084 0.65125 0.0
Gd835 Gd 0.84148 0.15893 0.68782 0.0
C836 C 0.9212 0.17653 0.68856 0.0
C837 C 0.91714 0.13749 0.69297 0.0
C838 C 0.88095 0.14169 0.69144 0.0
C839 C 0.89549 0.16594 0.68887 0.0
C840 C 0.89165 0.12734 0.69409 0.0
C841 C 0.93189 0.16205 0.69018 0.0
C842 C 0.93538 0.20142 0.68705 0.0
C843 C 0.92389 0.21514 0.68636 0.0
N844 N 0.88455 0.1794 0.68741 0.0
C845 C 0.89834 0.20379 0.68667 0.0
H846 H 0.88977 0.21461 0.68626 0.0
C847 C 0.84204 0.11012 0.69839 0.0
N848 N 0.85648 0.13262 0.69272 0.0
C849 C 0.85168 0.09504 0.70097 0.0
C850 C 0.87654 0.10354 0.69852 0.0
H851 H 0.82284 0.10362 0.70043 0.0
H852 H 0.95158 0.16981 0.68977 0.0
H853 H 0.78062 0.11663 0.63625 0.0
H854 H 0.95518 0.21024 0.68676 0.0
H855 H 0.93469 0.23446 0.68552 0.0
H856 H 0.92567 0.12668 0.69476 0.0
H857 H 0.83453 0.22831 0.65129 0.0
H858 H 0.71026 0.10831 0.64421 0.0
H859 H 0.73612 0.09184 0.63566 0.0
H860 H 0.72828 0.18702 0.65837 0.0
H861 H 0.83999 0.07696 0.70493 0.0
H862 H 0.88404 0.09192 0.70068 0.0
H863 H 0.70753 0.14389 0.65279 0.0
H864 H 0.81208 0.24934 0.65643 0.0
N865 N 0.78094 0.14644 0.64715 0.0
C866 C 0.73 0.11922 0.64492 0.0
C867 C 0.74453 0.10984 0.64016 0.0
C868 C 0.74117 0.14306 0.64963 0.0
C869 C 0.767 0.15649 0.65041 0.0
C870 C 0.77 0.12396 0.64092 0.0
N871 N 0.80341 0.1932 0.65349 0.0
C872 C 0.77862 0.18064 0.65368 0.0
C873 C 0.80242 0.22995 0.65602 0.0
C874 C 0.77712 0.21703 0.65774 0.0
C875 C 0.81521 0.21775 0.65348 0.0
C876 C 0.7648 0.19213 0.6561 0.0
H877 H 0.76719 0.22652 0.65959 0.0
O878 O 0.84286 0.19938 0.63504 0.0
O879 O 0.85525 0.1747 0.66535 0.0
O880 O 0.84157 0.19388 0.68771 0.0
O881 O 0.84953 0.20578 0.66309 0.0
O882 O 0.85076 0.15942 0.64433 0.0
O883 O 0.82161 0.16249 0.62768 0.0
O884 O 0.82368 0.14499 0.70914 0.0
O885 O 0.81296 0.16232 0.67503 0.0
O886 O 0.81278 0.13166 0.65276 0.0
O887 O 0.83052 0.1256 0.67407 0.0
O888 O 0.80131 0.13199 0.68817 0.0
O889 O 0.85436 0.18095 0.7078 0.0
C890 C 0.86421 0.16625 0.65612 0.0
C891 C 0.73915 0.17857 0.65626 0.0
C892 C 0.72735 0.15403 0.65307 0.0
C893 C 0.83507 0.18473 0.6237 0.0
C894 C 0.82719 0.19197 0.61023 0.0
C895 C 0.81346 0.20361 0.61093 0.0
C896 C 0.83332 0.18651 0.5963 0.0
C897 C 0.82596 0.19266 0.58299 0.0
C898 C 0.80615 0.20991 0.59778 0.0
C899 C 0.81232 0.2045 0.58389 0.0
C900 C 0.84865 0.21049 0.67735 0.0
C901 C 0.79425 0.14356 0.67964 0.0
C902 C 0.83872 0.16419 0.7165 0.0
C903 C 0.84842 0.16054 0.73053 0.0
C904 C 0.8665 0.15395 0.73055 0.0
C905 C 0.83959 0.164 0.74411 0.0
C906 C 0.84877 0.16092 0.75774 0.0
C907 C 0.87547 0.15055 0.74401 0.0
C908 C 0.86669 0.15398 0.75754 0.0
C909 C 0.81818 0.11826 0.66139 0.0
H910 H 0.80837 0.20775 0.62158 0.0
H911 H 0.8435 0.17703 0.59586 0.0
H912 H 0.79564 0.21899 0.59834 0.0
H913 H 0.80661 0.20977 0.57388 0.0
H914 H 0.87377 0.15155 0.72023 0.0
H915 H 0.82596 0.16958 0.74402 0.0
H916 H 0.88933 0.14532 0.74397 0.0
H917 H 0.87387 0.15111 0.76783 0.0
C918 C 0.27191 0.84553 0.07214 0.0
C919 C 0.26698 0.82203 0.07471 0.0
C920 C 0.29203 0.86123 0.06353 0.0
C921 C 0.35244 0.87367 0.05198 0.0
H922 H 0.34479 0.90937 0.01963 0.0
C923 C 0.43564 0.93894 0.01777 0.0
C924 C 0.4375 0.96112 0.01463 0.0
C925 C 0.41347 0.91969 0.02254 0.0
C926 C 0.3473 0.8997 0.02869 0.0
H927 H 0.27928 0.79657 0.07066 0.0
H928 H 0.31488 0.82425 0.05589 0.0
H929 H 0.30903 0.88106 0.03394 0.0
H930 H 0.41802 0.98079 0.01393 0.0
H931 H 0.37946 0.94754 0.02275 0.0
H932 H 0.39068 0.89289 0.04736 0.0
C933 C 0.30304 0.83041 0.06039 0.0
C934 C 0.32681 0.88348 0.03685 0.0
C935 C 0.28271 0.81461 0.06877 0.0
C936 C 0.41679 0.96365 0.01603 0.0
C937 C 0.3947 0.94453 0.02101 0.0
C938 C 0.37295 0.89011 0.04399 0.0
C939 C 0.30776 0.85378 0.05758 0.0
C940 C 0.32925 0.87046 0.04863 0.0
C941 C 0.39295 0.92249 0.02475 0.0
C942 C 0.37071 0.90349 0.0323 0.0
H943 H 0.25992 0.85158 0.07654 0.0
H944 H 0.29544 0.87925 0.06163 0.0
H945 H 0.35482 0.86399 0.0611 0.0
H946 H 0.45157 0.93674 0.01712 0.0
H947 H 0.4127 0.90287 0.025 0.0
C948 C 0.15804 0.4266 0.07485 0.0
C949 C 0.18267 0.4448 0.07446 0.0
C950 C 0.14009 0.42942 0.06745 0.0
C951 C 0.13174 0.46689 0.03866 0.0
H952 H 0.06741 0.43943 0.05652 0.0
C953 C 0.05653 0.49001 0.02168 0.0
C954 C 0.0326 0.47053 0.02029 0.0
C955 C 0.07552 0.48648 0.02677 0.0
C956 C 0.08522 0.447 0.05131 0.0
H957 H 0.20781 0.48035 0.0662 0.0
H958 H 0.17647 0.48571 0.05372 0.0
H959 H 0.09902 0.43449 0.06878 0.0
H960 H 0.0097 0.43224 0.0232 0.0
H961 H 0.04274 0.42609 0.03232 0.0
H962 H 0.11781 0.4801 0.02145 0.0
C963 C 0.17098 0.46891 0.05934 0.0
C964 C 0.10339 0.4441 0.05831 0.0
C965 C 0.18897 0.46593 0.06657 0.0
C966 C 0.02804 0.4475 0.02403 0.0
C967 C 0.0469 0.44401 0.02929 0.0
C968 C 0.1136 0.47008 0.03176 0.0
C969 C 0.14624 0.45068 0.05965 0.0
C970 C 0.12691 0.4539 0.05208 0.0
C971 C 0.07076 0.46351 0.03094 0.0
C972 C 0.09012 0.46005 0.038 0.0
H973 H 0.15271 0.40998 0.08067 0.0
H974 H 0.1214 0.41474 0.06771 0.0
H975 H 0.14945 0.4744 0.03336 0.0
H976 H 0.06048 0.50805 0.0193 0.0
H977 H 0.09368 0.50186 0.02806 0.0
C978 C 0.56458 0.72595 0.07886 0.0
C979 C 0.57847 0.74838 0.07201 0.0
C980 C 0.55977 0.70502 0.07138 0.0
C981 C 0.5563 0.68029 0.03383 0.0
H982 H 0.55749 0.62918 0.05595 0.0
C983 C 0.53835 0.58958 0.00767 0.0
C984 C 0.52285 0.56924 0.01614 0.0
C985 C 0.54661 0.6126 0.01349 0.0
C986 C 0.55699 0.64327 0.04964 0.0
H987 H 0.59865 0.76652 0.0521 0.0
H988 H 0.59025 0.72985 0.03902 0.0
H989 H 0.56974 0.66727 0.06825 0.0
H990 H 0.50284 0.55704 0.03696 0.0
H991 H 0.51712 0.59684 0.04696 0.0
H992 H 0.54325 0.65596 0.01523 0.0
C993 C 0.58281 0.72848 0.05009 0.0
C994 C 0.56396 0.66505 0.05669 0.0
C995 C 0.58762 0.74944 0.05758 0.0
C996 C 0.51515 0.57232 0.03025 0.0
C997 C 0.52338 0.59514 0.03602 0.0
C998 C 0.54934 0.65841 0.02674 0.0
C999 C 0.56878 0.70604 0.0569 0.0
C1000 C 0.56323 0.68364 0.04896 0.0
C1001 C 0.53954 0.61552 0.02786 0.0
C1002 C 0.54914 0.63954 0.03469 0.0
H1003 H 0.55695 0.72454 0.08987 0.0
H1004 H 0.54854 0.68797 0.07684 0.0
H1005 H 0.55541 0.69424 0.02761 0.0
H1006 H 0.54454 0.5877 0.99675 0.0
H1007 H 0.55906 0.62806 0.00696 0.0
C1008 C 0.81929 0.25489 0.94686 0.0
C1009 C 0.81321 0.25345 0.93165 0.0
C1010 C 0.83581 0.27684 0.95337 0.0
C1011 C 0.86568 0.34265 0.94741 0.0
H1012 H 0.90996 0.34431 0.9781 0.0
C1013 C 0.94747 0.43026 0.97067 0.0
C1014 C 0.94898 0.4321 0.98629 0.0
C1015 C 0.9308 0.40864 0.96381 0.0
C1016 C 0.89759 0.34406 0.9696 0.0
H1017 H 0.81971 0.27415 0.91139 0.0
H1018 H 0.84934 0.31224 0.92257 0.0
H1019 H 0.88142 0.3063 0.96628 0.0
H1020 H 0.9352 0.41271 0.00695 0.0
H1021 H 0.90615 0.37484 0.99501 0.0
H1022 H 0.88249 0.38066 0.95057 0.0
C1023 C 0.84093 0.29647 0.92957 0.0
C1024 C 0.88114 0.32228 0.96287 0.0
C1025 C 0.82418 0.27453 0.92309 0.0
C1026 C 0.93392 0.41191 0.99493 0.0
C1027 C 0.91756 0.39019 0.98809 0.0
C1028 C 0.88239 0.36449 0.95402 0.0
C1029 C 0.84696 0.29792 0.9448 0.0
C1030 C 0.86483 0.32125 0.95175 0.0
C1031 C 0.91577 0.38839 0.97246 0.0
C1032 C 0.89838 0.36536 0.96524 0.0
H1033 H 0.81148 0.239 0.95376 0.0
H1034 H 0.83968 0.27726 0.96517 0.0
H1035 H 0.85315 0.34253 0.93909 0.0
H1036 H 0.95894 0.44563 0.96378 0.0
H1037 H 0.9299 0.40765 0.95174 0.0
C1038 C 0.73031 0.56663 0.93488 0.0
C1039 C 0.73676 0.5487 0.93426 0.0
C1040 C 0.70961 0.5629 0.94279 0.0
C1041 C 0.66473 0.52297 0.97135 0.0
H1042 H 0.62529 0.54835 0.95509 0.0
C1043 C 0.56371 0.49035 0.98698 0.0
C1044 C 0.5569 0.50789 0.98857 0.0
C1045 C 0.58758 0.49684 0.9828 0.0
C1046 C 0.63631 0.54144 0.9599 0.0
H1047 H 0.72644 0.51266 0.94117 0.0
H1048 H 0.68989 0.50577 0.95456 0.0
H1049 H 0.66263 0.55633 0.94243 0.0
H1050 H 0.56901 0.54568 0.98672 0.0
H1051 H 0.6108 0.55714 0.97931 0.0
H1052 H 0.63755 0.50725 0.9885 0.0
C1053 C 0.70115 0.52302 0.94936 0.0
C1054 C 0.65779 0.54604 0.95265 0.0
C1055 C 0.72201 0.52688 0.9416 0.0
C1056 C 0.5742 0.532 0.986 0.0
C1057 C 0.59795 0.53847 0.98163 0.0
C1058 C 0.64303 0.51813 0.97851 0.0
C1059 C 0.69469 0.54101 0.9501 0.0
C1060 C 0.67224 0.53676 0.9582 0.0
C1061 C 0.6047 0.52089 0.97964 0.0
C1062 C 0.62857 0.52724 0.97281 0.0
H1063 H 0.74156 0.58375 0.9295 0.0
H1064 H 0.70552 0.57733 0.94331 0.0
H1065 H 0.67559 0.51589 0.97613 0.0
H1066 H 0.55035 0.47158 0.98852 0.0
H1067 H 0.5922 0.4829 0.98119 0.0
C1068 C 0.43267 0.15915 0.92828 0.0
C1069 C 0.42117 0.17007 0.93571 0.0
C1070 C 0.43838 0.14371 0.9359 0.0
C1071 C 0.45253 0.1307 0.97283 0.0
H1072 H 0.43871 0.07049 0.95473 0.0
C1073 C 0.47461 0.06202 1.00087 0.0
C1074 C 0.48319 0.05073 0.99119 0.0
C1075 C 0.46644 0.07702 0.99513 0.0
C1076 C 0.44291 0.08736 0.95987 0.0
H1077 H 0.40604 0.17283 0.95686 0.0
H1078 H 0.41656 0.14615 0.97025 0.0
H1079 H 0.4246 0.09517 0.94255 0.0
H1080 H 0.49167 0.04736 0.9682 0.0
H1081 H 0.47818 0.07389 0.95827 0.0
H1082 H 0.47148 0.12315 0.98996 0.0
C1083 C 0.42121 0.14972 0.95855 0.0
C1084 C 0.43475 0.1014 0.95292 0.0
C1085 C 0.41526 0.16499 0.95089 0.0
C1086 C 0.48469 0.05555 0.97586 0.0
C1087 C 0.47683 0.07062 0.97018 0.0
C1088 C 0.46092 0.1167 0.97976 0.0
C1089 C 0.43289 0.13904 0.95112 0.0
C1090 C 0.43983 0.12336 0.9592 0.0
C1091 C 0.46695 0.08097 0.97966 0.0
C1092 C 0.45659 0.09512 0.97316 0.0
H1093 H 0.43787 0.163 0.91667 0.0
H1094 H 0.44767 0.13589 0.92998 0.0
H1095 H 0.45676 0.14767 0.97784 0.0
H1096 H 0.47312 0.05839 0.01272 0.0
H1097 H 0.4589 0.08477 0.0027 0.0
C1098 C 0.72257 0.18062 0.94277 0.0
C1099 C 0.73731 0.1733 0.93532 0.0
C1100 C 0.703 0.16448 0.95153 0.0
C1101 C 0.66171 0.09972 0.9573 0.0
H1102 H 0.64441 0.12156 0.9932 0.0
C1103 C 0.57685 0.03589 0.99048 0.0
C1104 C 0.56078 0.0447 0.9927 0.0
C1105 C 0.60122 0.05149 0.98672 0.0
C1106 C 0.64912 0.11523 0.98323 0.0
H1107 H 0.74333 0.14347 0.93124 0.0
H1108 H 0.70927 0.11523 0.94671 0.0
H1109 H 0.68171 0.14887 0.97973 0.0
H1110 H 0.55704 0.07628 0.99286 0.0
H1111 H 0.59985 0.10382 0.98644 0.0
H1112 H 0.62898 0.06622 0.96067 0.0
C1113 C 0.71257 0.13335 0.94561 0.0
C1114 C 0.67036 0.13086 0.97546 0.0
C1115 C 0.73205 0.14948 0.93674 0.0
C1116 C 0.56944 0.06933 0.99157 0.0
C1117 C 0.59387 0.085 0.98793 0.0
C1118 C 0.64062 0.08406 0.96512 0.0
C1119 C 0.69782 0.14067 0.95313 0.0
C1120 C 0.67661 0.12345 0.96221 0.0
C1121 C 0.60975 0.07608 0.98493 0.0
C1122 C 0.63385 0.0918 0.97799 0.0
H1123 H 0.72606 0.19881 0.94171 0.0
H1124 H 0.6917 0.1706 0.95685 0.0
H1125 H 0.66573 0.09347 0.94705 0.0
H1126 H 0.57024 0.01679 0.99087 0.0
H1127 H 0.6131 0.04417 0.98454 0.0
C1128 C 0.82931 0.53943 0.9261 0.0
C1129 C 0.8159 0.54794 0.934 0.0
C1130 C 0.84699 0.53601 0.93332 0.0
C1131 C 0.86659 0.52575 0.96979 0.0
H1132 H 0.93057 0.55328 0.95137 0.0
C1133 C 0.97095 0.54774 0.98441 0.0
C1134 C 0.96698 0.52504 0.98849 0.0
C1135 C 0.95174 0.55045 0.9789 0.0
C1136 C 0.91282 0.54558 0.95668 0.0
H1137 H 0.81073 0.5594 0.95583 0.0
H1138 H 0.84111 0.55271 0.96846 0.0
H1139 H 0.89824 0.55754 0.93924 0.0
H1140 H 0.93994 0.48728 0.98976 0.0
H1141 H 0.90608 0.49211 0.9805 0.0
H1142 H 0.88127 0.51357 0.98717 0.0
C1143 C 0.83781 0.5487 0.95666 0.0
C1144 C 0.89428 0.54784 0.94967 0.0
C1145 C 0.82034 0.55244 0.9494 0.0
C1146 C 0.94336 0.50507 0.98706 0.0
C1147 C 0.92403 0.50782 0.98173 0.0
C1148 C 0.88509 0.52316 0.9767 0.0
C1149 C 0.8515 0.5407 0.94866 0.0
C1150 C 0.87098 0.53799 0.95615 0.0
C1151 C 0.92816 0.53049 0.97733 0.0
C1152 C 0.90841 0.53317 0.97022 0.0
H1153 H 0.82609 0.53529 0.91431 0.0
H1154 H 0.85709 0.52955 0.92691 0.0
H1155 H 0.84876 0.51791 0.97499 0.0
H1156 H 0.98905 0.56336 0.98527 0.0
H1157 H 0.95538 0.56813 0.97566 0.0
C1158 C 0.43243 0.26973 0.92751 0.0
C1159 C 0.4215 0.24786 0.93525 0.0
C1160 C 0.43773 0.29093 0.93481 0.0
C1161 C 0.45186 0.31984 0.97112 0.0
H1162 H 0.43306 0.36275 0.95273 0.0
C1163 C 0.4704 0.40926 0.99853 0.0
C1164 C 0.47736 0.42864 0.9888 0.0
C1165 C 0.4626 0.38629 0.99285 0.0
C1166 C 0.4387 0.35111 0.95794 0.0
H1167 H 0.40721 0.23112 0.95671 0.0
H1168 H 0.41717 0.26843 0.96954 0.0
H1169 H 0.42112 0.32427 0.94106 0.0
H1170 H 0.48294 0.43964 0.96563 0.0
H1171 H 0.46993 0.39994 0.95575 0.0
H1172 H 0.47015 0.347 0.98776 0.0
C1173 C 0.4216 0.269 0.95782 0.0
C1174 C 0.43175 0.32905 0.95128 0.0
C1175 C 0.41599 0.24771 0.95048 0.0
C1176 C 0.47711 0.42488 0.97337 0.0
C1177 C 0.46958 0.4021 0.96772 0.0
C1178 C 0.45908 0.34208 0.97772 0.0
C1179 C 0.43247 0.29075 0.95003 0.0
C1180 C 0.43853 0.31337 0.95769 0.0
C1181 C 0.46183 0.38244 0.97735 0.0
C1182 C 0.45289 0.35812 0.97106 0.0
H1183 H 0.43736 0.27058 0.91587 0.0
H1184 H 0.4464 0.30757 0.92861 0.0
H1185 H 0.4574 0.30804 0.97622 0.0
H1186 H 0.47026 0.41168 0.01047 0.0
H1187 H 0.45662 0.37149 1.00057 0.0
C1188 C 0.19765 0.72997 0.06885 0.0
C1189 C 0.18944 0.74315 0.07713 0.0
C1190 C 0.18093 0.70831 0.06206 0.0
C1191 C 0.11701 0.6594 0.06425 0.0
H1192 H 0.12795 0.64521 0.02388 0.0
C1193 C 0.04402 0.57706 0.03187 0.0
C1194 C 0.05211 0.56425 0.02312 0.0
C1195 C 0.0608 0.59905 0.03826 0.0
C1196 C 0.12477 0.64877 0.03522 0.0
H1197 H 0.15718 0.74406 0.08452 0.0
H1198 H 0.12804 0.70614 0.07283 0.0
H1199 H 0.15727 0.68326 0.03543 0.0
H1200 H 0.08429 0.56436 0.01449 0.0
H1201 H 0.11352 0.60264 0.02566 0.0
H1202 H 0.08466 0.6249 0.06413 0.0
C1203 C 0.14742 0.71245 0.07174 0.0
C1204 C 0.14156 0.67058 0.04183 0.0
C1205 C 0.16412 0.73415 0.07846 0.0
C1206 C 0.07738 0.57391 0.02096 0.0
C1207 C 0.09417 0.5959 0.02736 0.0
C1208 C 0.10028 0.63757 0.05767 0.0
C1209 C 0.15563 0.69929 0.06346 0.0
C1210 C 0.13784 0.67614 0.05641 0.0
C1211 C 0.08608 0.60873 0.0361 0.0
C1212 C 0.10393 0.63199 0.04307 0.0
H1213 H 0.21702 0.73622 0.06777 0.0
H1214 H 0.18782 0.69842 0.05592 0.0
H1215 H 0.11384 0.66301 0.07559 0.0
H1216 H 0.02469 0.57021 0.03374 0.0
H1217 H 0.05392 0.60861 0.04476 0.0
C1218 C 0.26188 0.43733 0.05948 0.0
C1219 C 0.26375 0.44833 0.07332 0.0
C1220 C 0.28291 0.44157 0.05174 0.0
C1221 C 0.35015 0.46619 0.05725 0.0
H1222 H 0.35023 0.46395 0.01398 0.0
C1223 C 0.43701 0.49683 0.02149 0.0
C1224 C 0.43723 0.47693 0.01523 0.0
C1225 C 0.41528 0.49458 0.02707 0.0
C1226 C 0.35035 0.46465 0.02606 0.0
H1227 H 0.28895 0.47281 0.08982 0.0
H1228 H 0.3257 0.48122 0.0761 0.0
H1229 H 0.3137 0.45823 0.02708 0.0
H1230 H 0.41522 0.43932 0.00969 0.0
H1231 H 0.37681 0.43559 0.019 0.0
H1232 H 0.3872 0.47345 0.05604 0.0
C1233 C 0.30809 0.46857 0.07136 0.0
C1234 C 0.3294 0.46116 0.03362 0.0
C1235 C 0.28704 0.46391 0.07922 0.0
C1236 C 0.4153 0.45496 0.01422 0.0
C1237 C 0.39345 0.45284 0.01952 0.0
C1238 C 0.37118 0.47017 0.04968 0.0
C1239 C 0.30638 0.45732 0.05754 0.0
C1240 C 0.32891 0.4617 0.04936 0.0
C1241 C 0.39345 0.47248 0.02633 0.0
C1242 C 0.37138 0.46927 0.03406 0.0
H1243 H 0.24408 0.42504 0.05476 0.0
H1244 H 0.28065 0.43212 0.04134 0.0
H1245 H 0.3505 0.46621 0.06932 0.0
H1246 H 0.45383 0.51382 0.02269 0.0
H1247 H 0.41564 0.50989 0.03236 0.0
C1248 C 0.55975 0.81877 0.06122 0.0
C1249 C 0.57976 0.82653 0.07101 0.0
C1250 C 0.55616 0.83531 0.0532 0.0
C1251 C 0.5694 0.89724 0.05469 0.0
H1252 H 0.54554 0.88488 0.01384 0.0
C1253 C 0.51724 0.93991 0.02997 0.0
C1254 C 0.52401 0.95051 0.01581 0.0
C1255 C 0.52653 0.92583 0.03541 0.0
C1256 C 0.55249 0.8887 0.02517 0.0
H1257 H 0.61184 0.85772 0.07995 0.0
H1258 H 0.60536 0.88674 0.06604 0.0
H1259 H 0.55826 0.85861 0.02575 0.0
H1260 H 0.54535 0.95411 0.99604 0.0
H1261 H 0.56137 0.92886 0.00557 0.0
H1262 H 0.5632 0.92699 0.05424 0.0
C1263 C 0.59245 0.86781 0.06462 0.0
C1264 C 0.55955 0.87359 0.03203 0.0
C1265 C 0.59609 0.85122 0.07263 0.0
C1266 C 0.53968 0.94604 0.00696 0.0
C1267 C 0.5489 0.9317 0.01241 0.0
C1268 C 0.56223 0.91221 0.04788 0.0
C1269 C 0.57243 0.86 0.05483 0.0
C1270 C 0.56759 0.87743 0.04696 0.0
C1271 C 0.54276 0.92191 0.02682 0.0
C1272 C 0.55316 0.90775 0.03319 0.0
H1273 H 0.54659 0.79988 0.05993 0.0
H1274 H 0.54026 0.82876 0.046 0.0
H1275 H 0.57536 0.90059 0.06622 0.0
H1276 H 0.50494 0.94269 0.03701 0.0
H1277 H 0.52104 0.91804 0.04641 0.0
C1278 C 0.93724 0.18045 0.40802 0.0
C1279 C 0.93097 0.15633 0.40949 0.0
C1280 C 0.95763 0.19629 0.39967 0.0
C1281 C 0.00116 0.1981 0.37099 0.0
H1282 H 0.04195 0.26274 0.38596 0.0
C1283 C 0.10164 0.26196 0.35361 0.0
C1284 C 0.10933 0.28641 0.35246 0.0
C1285 C 0.07763 0.24565 0.35782 0.0
C1286 C 0.03053 0.24488 0.38147 0.0
H1287 H 0.94136 0.12999 0.4036 0.0
H1288 H 0.9773 0.15773 0.38931 0.0
H1289 H 0.005 0.23529 0.39933 0.0
H1290 H 0.09861 0.31332 0.35491 0.0
H1291 H 0.05651 0.28485 0.36215 0.0
H1292 H 0.02742 0.20769 0.35339 0.0
C1293 C 0.96613 0.16431 0.39426 0.0
C1294 C 0.00931 0.2291 0.38915 0.0
C1295 C 0.94562 0.14843 0.40252 0.0
C1296 C 0.09272 0.29437 0.3553 0.0
C1297 C 0.0688 0.27815 0.35959 0.0
C1298 C 0.02255 0.21388 0.36336 0.0
C1299 C 0.97236 0.18844 0.39269 0.0
C1300 C 0.99443 0.20545 0.38409 0.0
C1301 C 0.06124 0.25374 0.36137 0.0
C1302 C 0.03751 0.23739 0.36858 0.0
H1303 H 0.92606 0.18695 0.41309 0.0
H1304 H 0.96163 0.21464 0.39852 0.0
H1305 H 0.98991 0.18014 0.36663 0.0
H1306 H 0.11449 0.25566 0.35187 0.0
H1307 H 0.07242 0.227 0.35926 0.0
C1308 C 0.84789 0.7781 0.39325 0.0
C1309 C 0.85222 0.78222 0.40869 0.0
C1310 C 0.83067 0.78227 0.38602 0.0
C1311 C 0.77459 0.78412 0.39301 0.0
H1312 H 0.78818 0.81821 0.35541 0.0
C1313 C 0.72598 0.82672 0.35463 0.0
C1314 C 0.7023 0.80677 0.35343 0.0
C1315 C 0.74531 0.82409 0.36017 0.0
C1316 C 0.78419 0.8087 0.36592 0.0
H1317 H 0.84198 0.79459 0.42848 0.0
H1318 H 0.81143 0.80109 0.41594 0.0
H1319 H 0.82031 0.81342 0.36773 0.0
H1320 H 0.68021 0.76857 0.35713 0.0
H1321 H 0.7138 0.76402 0.36704 0.0
H1322 H 0.73849 0.77916 0.39118 0.0
C1323 C 0.82143 0.79459 0.40947 0.0
C1324 C 0.80249 0.80584 0.37291 0.0
C1325 C 0.83887 0.79073 0.41666 0.0
C1326 C 0.69833 0.7842 0.35784 0.0
C1327 C 0.71751 0.78162 0.36354 0.0
C1328 C 0.75625 0.78666 0.38592 0.0
C1329 C 0.81709 0.79035 0.39408 0.0
C1330 C 0.79788 0.79359 0.38657 0.0
C1331 C 0.74113 0.80157 0.36498 0.0
C1332 C 0.76083 0.79897 0.37231 0.0
H1333 H 0.85741 0.77112 0.38674 0.0
H1334 H 0.8275 0.77855 0.37419 0.0
H1335 H 0.77042 0.77443 0.40345 0.0
H1336 H 0.72944 0.84443 0.35164 0.0
H1337 H 0.7633 0.8398 0.36124 0.0
C1338 C 0.24518 0.07778 0.39404 0.0
C1339 C 0.24075 0.07886 0.4093 0.0
C1340 C 0.2378 0.05579 0.38709 0.0
C1341 C 0.19528 0.99068 0.39193 0.0
H1342 H 0.23495 0.98484 0.36104 0.0
C1343 C 0.18079 0.90032 0.36966 0.0
C1344 C 0.18056 0.89783 0.3541 0.0
C1345 C 0.18709 0.92243 0.37607 0.0
C1346 C 0.22361 0.98632 0.36955 0.0
H1347 H 0.22536 0.05762 0.42928 0.0
H1348 H 0.21348 0.01941 0.41733 0.0
H1349 H 0.249 0.02348 0.37321 0.0
H1350 H 0.18732 0.91644 0.33304 0.0
H1351 H 0.19855 0.95528 0.34423 0.0
H1352 H 0.17028 0.95325 0.38852 0.0
C1353 C 0.22212 0.03551 0.41062 0.0
C1354 C 0.23159 0.00843 0.37651 0.0
C1355 C 0.2293 0.05748 0.41754 0.0
C1356 C 0.18679 0.91778 0.34503 0.0
C1357 C 0.1935 0.94003 0.35144 0.0
C1358 C 0.18747 0.96852 0.38511 0.0
C1359 C 0.22602 0.03436 0.39528 0.0
C1360 C 0.21755 0.01087 0.38781 0.0
C1361 C 0.19374 0.94253 0.36701 0.0
C1362 C 0.20158 0.96615 0.37388 0.0
H1363 H 0.25425 0.09395 0.38741 0.0
H1364 H 0.24091 0.05559 0.37523 0.0
H1365 H 0.18373 0.99201 0.40036 0.0
H1366 H 0.17605 0.88514 0.37687 0.0
H1367 H 0.18734 0.92397 0.38811 0.0
C1368 C 0.50533 0.59617 0.26342 0.0
C1369 C 0.48007 0.58708 0.26514 0.0
C1370 C 0.5222 0.6179 0.27007 0.0
C1371 C 0.52832 0.65997 0.30009 0.0
H1372 H 0.58558 0.7052 0.27787 0.0
C1373 C 0.592 0.75697 0.32035 0.0
C1374 C 0.61733 0.76649 0.3186 0.0
C1375 C 0.57539 0.7349 0.31399 0.0
C1376 C 0.56984 0.69265 0.2843 0.0
H1377 H 0.45268 0.5938 0.27498 0.0
H1378 H 0.48211 0.63176 0.28654 0.0
H1379 H 0.55636 0.66703 0.26649 0.0
H1380 H 0.64505 0.76027 0.30869 0.0
H1381 H 0.61607 0.72171 0.29767 0.0
H1382 H 0.54178 0.68562 0.31789 0.0
C1383 C 0.4889 0.62191 0.28027 0.0
C1384 C 0.55309 0.67077 0.27777 0.0
C1385 C 0.47204 0.60018 0.27363 0.0
C1386 C 0.62567 0.75351 0.31024 0.0
C1387 C 0.60905 0.73143 0.30387 0.0
C1388 C 0.54508 0.68185 0.30662 0.0
C1389 C 0.51418 0.63103 0.27856 0.0
C1390 C 0.53211 0.65419 0.28557 0.0
C1391 C 0.58371 0.72186 0.30567 0.0
C1392 C 0.56601 0.69847 0.29879 0.0
H1393 H 0.51208 0.58631 0.25713 0.0
H1394 H 0.54154 0.62424 0.26873 0.0
H1395 H 0.51254 0.64743 0.30649 0.0
H1396 H 0.58492 0.76669 0.32649 0.0
H1397 H 0.55599 0.72824 0.31538 0.0
C1398 C 0.38708 0.86122 0.27669 0.0
C1399 C 0.40238 0.88259 0.26904 0.0
C1400 C 0.36605 0.8581 0.28396 0.0
C1401 C 0.32379 0.88277 0.28492 0.0
H1402 H 0.30154 0.84708 0.32188 0.0
C1403 C 0.24583 0.88083 0.31869 0.0
C1404 C 0.2268 0.85804 0.32268 0.0
C1405 C 0.26808 0.88386 0.31357 0.0
C1406 C 0.30752 0.857 0.31153 0.0
H1407 H 0.40813 0.91774 0.26344 0.0
H1408 H 0.37197 0.91265 0.27638 0.0
H1409 H 0.33889 0.85249 0.31004 0.0
H1410 H 0.21599 0.82047 0.32442 0.0
H1411 H 0.25525 0.82585 0.31575 0.0
H1412 H 0.29267 0.88757 0.28653 0.0
C1413 C 0.37564 0.89792 0.27642 0.0
C1414 C 0.32885 0.86003 0.30469 0.0
C1415 C 0.39645 0.90091 0.26902 0.0
C1416 C 0.23057 0.83833 0.32174 0.0
C1417 C 0.25299 0.84141 0.31675 0.0
C1418 C 0.30272 0.87998 0.29183 0.0
C1419 C 0.35999 0.87639 0.28388 0.0
C1420 C 0.33729 0.873 0.29128 0.0
C1421 C 0.27174 0.86413 0.31226 0.0
C1422 C 0.29436 0.86711 0.3052 0.0
H1423 H 0.39111 0.84672 0.27679 0.0
H1424 H 0.35432 0.84115 0.28938 0.0
H1425 H 0.32926 0.89233 0.27444 0.0
H1426 H 0.24327 0.89625 0.31921 0.0
H1427 H 0.28229 0.90161 0.31033 0.0
C1428 C 0.08088 0.49745 0.28506 0.0
C1429 C 0.0892 0.5035 0.27031 0.0
C1430 C 0.0873 0.48326 0.29358 0.0
C1431 C 0.1354 0.46765 0.29656 0.0
H1432 H 0.08827 0.41178 0.31858 0.0
C1433 C 0.15474 0.3938 0.31364 0.0
C1434 C 0.14693 0.38267 0.32758 0.0
C1435 C 0.14827 0.41038 0.30879 0.0
C1436 C 0.1017 0.42762 0.31274 0.0
H1437 H 0.11035 0.49919 0.25281 0.0
H1438 H 0.12156 0.47437 0.26768 0.0
H1439 H 0.07483 0.43665 0.30554 0.0
H1440 H 0.12645 0.38036 0.34749 0.0
H1441 H 0.11492 0.40961 0.33888 0.0
H1442 H 0.1622 0.45861 0.30351 0.0
C1443 C 0.11017 0.4807 0.27266 0.0
C1444 C 0.094 0.44175 0.30523 0.0
C1445 C 0.10356 0.49465 0.26411 0.0
C1446 C 0.13272 0.38872 0.3367 0.0
C1447 C 0.12606 0.40532 0.33176 0.0
C1448 C 0.1431 0.45367 0.3041 0.0
C1449 C 0.10241 0.47517 0.28754 0.0
C1450 C 0.11069 0.46148 0.29673 0.0
C1451 C 0.13379 0.41627 0.31772 0.0
C1452 C 0.12621 0.4331 0.31189 0.0
H1453 H 0.06964 0.50394 0.29005 0.0
H1454 H 0.08109 0.47923 0.30502 0.0
H1455 H 0.14874 0.48311 0.29037 0.0
H1456 H 0.16586 0.38967 0.30637 0.0
H1457 H 0.15419 0.41819 0.29782 0.0
C1458 C 0.39773 0.48414 0.27025 0.0
C1459 C 0.40307 0.50791 0.26831 0.0
C1460 C 0.37748 0.4682 0.2787 0.0
C1461 C 0.31715 0.45546 0.28959 0.0
H1462 H 0.32311 0.41948 0.3224 0.0
C1463 C 0.23235 0.39083 0.32286 0.0
C1464 C 0.23044 0.36902 0.32712 0.0
C1465 C 0.25461 0.40965 0.31787 0.0
C1466 C 0.32104 0.42916 0.31317 0.0
H1467 H 0.39148 0.53364 0.27335 0.0
H1468 H 0.35563 0.50552 0.28778 0.0
H1469 H 0.3596 0.44787 0.30866 0.0
H1470 H 0.24976 0.34933 0.32924 0.0
H1471 H 0.28849 0.38174 0.31992 0.0
H1472 H 0.2787 0.43615 0.29337 0.0
C1473 C 0.36729 0.49937 0.28296 0.0
C1474 C 0.34196 0.44546 0.30536 0.0
C1475 C 0.38775 0.51541 0.27477 0.0
C1476 C 0.25107 0.36627 0.32633 0.0
C1477 C 0.27327 0.38493 0.32107 0.0
C1478 C 0.29622 0.43887 0.29717 0.0
C1479 C 0.36206 0.47569 0.28505 0.0
C1480 C 0.34014 0.45868 0.2935 0.0
C1481 C 0.27519 0.40671 0.31645 0.0
C1482 C 0.29783 0.42542 0.30905 0.0
H1483 H 0.40938 0.47803 0.26541 0.0
H1484 H 0.37364 0.44993 0.28008 0.0
H1485 H 0.3153 0.46532 0.28038 0.0
H1486 H 0.21647 0.39315 0.32303 0.0
H1487 H 0.25546 0.42629 0.31478 0.0
C1488 C 0.4942 0.87147 0.26114 0.0
C1489 C 0.48086 0.88008 0.26901 0.0
C1490 C 0.51223 0.8685 0.26829 0.0
C1491 C 0.5333 0.85944 0.30451 0.0
H1492 H 0.59689 0.88795 0.28549 0.0
C1493 C 0.63844 0.882 0.31767 0.0
C1494 C 0.6347 0.85922 0.3213 0.0
C1495 C 0.61901 0.88478 0.31264 0.0
C1496 C 0.57927 0.88001 0.29097 0.0
H1497 H 0.476 0.89193 0.29079 0.0
H1498 H 0.50694 0.88594 0.30333 0.0
H1499 H 0.56385 0.89157 0.2738 0.0
H1500 H 0.60778 0.82138 0.32209 0.0
H1501 H 0.5736 0.82632 0.31381 0.0
H1502 H 0.54876 0.8475 0.32156 0.0
C1503 C 0.50338 0.8816 0.29158 0.0
C1504 C 0.56032 0.8819 0.28422 0.0
C1505 C 0.48557 0.88493 0.28437 0.0
C1506 C 0.61109 0.83924 0.31986 0.0
C1507 C 0.59154 0.84206 0.31505 0.0
C1508 C 0.55219 0.85718 0.31115 0.0
C1509 C 0.51714 0.8737 0.28355 0.0
C1510 C 0.53714 0.87163 0.29089 0.0
C1511 C 0.59541 0.86481 0.31113 0.0
C1512 C 0.57538 0.86751 0.30444 0.0
H1513 H 0.49076 0.86699 0.2494 0.0
H1514 H 0.52234 0.86206 0.26188 0.0
H1515 H 0.51557 0.8513 0.30986 0.0
H1516 H 0.65654 0.89764 0.31847 0.0
H1517 H 0.62248 0.90253 0.30972 0.0
C1518 C 0.10338 0.60335 0.25852 0.0
C1519 C 0.0917 0.58212 0.26693 0.0
C1520 C 0.10998 0.62543 0.2651 0.0
C1521 C 0.12674 0.65672 0.30066 0.0
H1522 H 0.10952 0.70064 0.28205 0.0
C1523 C 0.14447 0.74427 0.32954 0.0
C1524 C 0.15055 0.76422 0.32052 0.0
C1525 C 0.13758 0.722 0.3231 0.0
C1526 C 0.11488 0.6888 0.28729 0.0
H1527 H 0.07726 0.56752 0.2888 0.0
H1528 H 0.08955 0.60627 0.30037 0.0
H1529 H 0.09666 0.66185 0.2705 0.0
H1530 H 0.15487 0.77694 0.29778 0.0
H1531 H 0.14381 0.7384 0.28646 0.0
H1532 H 0.14557 0.68378 0.31722 0.0
C1533 C 0.09357 0.60567 0.28869 0.0
C1534 C 0.10735 0.66653 0.28069 0.0
C1535 C 0.08663 0.58353 0.28206 0.0
C1536 C 0.15007 0.76171 0.30496 0.0
C1537 C 0.14357 0.73958 0.29851 0.0
C1538 C 0.1346 0.67915 0.30715 0.0
C1539 C 0.10537 0.6268 0.28027 0.0
C1540 C 0.11317 0.65029 0.28734 0.0
C1541 C 0.13689 0.71933 0.30748 0.0
C1542 C 0.12875 0.69549 0.30055 0.0
H1543 H 0.108 0.60304 0.24692 0.0
H1544 H 0.11928 0.64154 0.25842 0.0
H1545 H 0.13168 0.64456 0.30589 0.0
H1546 H 0.14408 0.74561 0.34154 0.0
H1547 H 0.13213 0.70677 0.33037 0.0
C1548 C 0.84865 0.07599 0.39646 0.0
C1549 C 0.85277 0.07765 0.41197 0.0
C1550 C 0.8325 0.05404 0.38977 0.0
C1551 C 0.77906 0.99551 0.39702 0.0
H1552 H 0.79992 0.97493 0.36209 0.0
C1553 C 0.71896 0.90157 0.37107 0.0
C1554 C 0.71927 0.89928 0.35551 0.0
C1555 C 0.73543 0.92307 0.37814 0.0
C1556 C 0.79359 0.98051 0.37169 0.0
H1557 H 0.84293 0.05727 0.43257 0.0
H1558 H 0.81415 0.01909 0.42088 0.0
H1559 H 0.82798 0.01303 0.374 0.0
H1560 H 0.73634 0.91798 0.33513 0.0
H1561 H 0.76464 0.95565 0.34726 0.0
H1562 H 0.74446 0.96349 0.39454 0.0
C1563 C 0.82356 0.03488 0.41395 0.0
C1564 C 0.80977 0.00232 0.37855 0.0
C1565 C 0.83998 0.05679 0.42064 0.0
C1566 C 0.73612 0.91901 0.34713 0.0
C1567 C 0.75236 0.94064 0.35415 0.0
C1568 C 0.76274 0.97385 0.39004 0.0
C1569 C 0.81979 0.03328 0.39844 0.0
C1570 C 0.80267 0.01002 0.39128 0.0
C1571 C 0.75234 0.94296 0.36977 0.0
C1572 C 0.76977 0.96602 0.37727 0.0
H1573 H 0.8577 0.09171 0.38945 0.0
H1574 H 0.82967 0.05338 0.37782 0.0
H1575 H 0.77303 0.00116 0.40673 0.0
H1576 H 0.70626 0.88656 0.37784 0.0
H1577 H 0.73508 0.92393 0.39019 0.0
C1578 C 0.93752 0.76267 0.40781 0.0
C1579 C 0.93111 0.78067 0.40823 0.0
C1580 C 0.95813 0.76616 0.39988 0.0
C1581 C 0.01741 0.81283 0.38582 0.0
H1582 H 0.01292 0.76248 0.35994 0.0
C1583 C 0.10148 0.82484 0.35302 0.0
C1584 C 0.1047 0.8048 0.35227 0.0
C1585 C 0.07933 0.82242 0.35797 0.0
C1586 C 0.01461 0.77665 0.36723 0.0
H1587 H 0.94148 0.81657 0.40094 0.0
H1588 H 0.97771 0.82278 0.38723 0.0
H1589 H 0.97652 0.75713 0.37283 0.0
H1590 H 0.0876 0.7667 0.35631 0.0
H1591 H 0.04931 0.76247 0.3654 0.0
H1592 H 0.05559 0.83204 0.38074 0.0
C1593 C 0.96669 0.80594 0.39295 0.0
C1594 C 0.9937 0.77358 0.37458 0.0
C1595 C 0.94591 0.80233 0.40072 0.0
C1596 C 0.08542 0.78235 0.35657 0.0
C1597 C 0.06339 0.77994 0.36167 0.0
C1598 C 0.0384 0.8158 0.37861 0.0
C1599 C 0.97293 0.78782 0.39237 0.0
C1600 C 0.99492 0.79153 0.38407 0.0
C1601 C 0.06011 0.79999 0.36263 0.0
C1602 C 0.03736 0.79764 0.36934 0.0
H1603 H 0.92637 0.74574 0.41341 0.0
H1604 H 0.96262 0.75197 0.39976 0.0
H1605 H 0.01895 0.8269 0.39315 0.0
H1606 H 0.11624 0.84246 0.35008 0.0
H1607 H 0.07742 0.83821 0.35833 0.0
C1608 C 0.24763 0.16158 0.39225 0.0
C1609 C 0.24262 0.15727 0.40757 0.0
C1610 C 0.24036 0.17569 0.38438 0.0
C1611 C 0.19591 0.19689 0.38645 0.0
H1612 H 0.23741 0.2435 0.35698 0.0
C1613 C 0.18239 0.27389 0.36711 0.0
C1614 C 0.18415 0.27917 0.35184 0.0
C1615 C 0.18801 0.25694 0.37246 0.0
C1616 C 0.2255 0.23025 0.365 0.0
H1617 H 0.22667 0.16493 0.42672 0.0
H1618 H 0.21465 0.19012 0.41311 0.0
H1619 H 0.25148 0.21888 0.3696 0.0
H1620 H 0.19301 0.27088 0.3301 0.0
H1621 H 0.2032 0.24111 0.33955 0.0
H1622 H 0.17028 0.20877 0.38219 0.0
C1623 C 0.22373 0.18217 0.4071 0.0
C1624 C 0.23354 0.21621 0.37225 0.0
C1625 C 0.23094 0.16803 0.41496 0.0
C1626 C 0.19134 0.26695 0.34192 0.0
C1627 C 0.19732 0.25012 0.34731 0.0
C1628 C 0.18796 0.21098 0.37929 0.0
C1629 C 0.22797 0.18581 0.39168 0.0
C1630 C 0.21901 0.19973 0.38327 0.0
C1631 C 0.19572 0.24504 0.36265 0.0
C1632 C 0.20287 0.2281 0.36872 0.0
H1633 H 0.25691 0.15378 0.3863 0.0
H1634 H 0.24386 0.17813 0.37251 0.0
H1635 H 0.18401 0.1839 0.39459 0.0
H1636 H 0.17665 0.2829 0.37498 0.0
H1637 H 0.18688 0.25354 0.38434 0.0
C1638 C 0.61279 0.48316 0.73424 0.0
C1639 C 0.5984 0.49109 0.74154 0.0
C1640 C 0.63309 0.49903 0.72582 0.0
C1641 C 0.66003 0.55645 0.70575 0.0
H1642 H 0.72141 0.55749 0.71196 0.0
C1643 C 0.75286 0.63555 0.68764 0.0
C1644 C 0.77198 0.63137 0.68388 0.0
C1645 C 0.73028 0.61672 0.69225 0.0
C1646 C 0.70434 0.55715 0.7098 0.0
H1647 H 0.59387 0.52184 0.7456 0.0
H1648 H 0.62941 0.54964 0.73086 0.0
H1649 H 0.68493 0.52819 0.72506 0.0
H1650 H 0.78246 0.60418 0.68178 0.0
H1651 H 0.74269 0.57104 0.68914 0.0
H1652 H 0.67938 0.58538 0.69048 0.0
C1653 C 0.62489 0.53109 0.73163 0.0
C1654 C 0.68343 0.5404 0.7174 0.0
C1655 C 0.60471 0.51525 0.74019 0.0
C1656 C 0.7679 0.60786 0.68433 0.0
C1657 C 0.74519 0.58894 0.68878 0.0
C1658 C 0.6809 0.57306 0.69802 0.0
C1659 C 0.63933 0.52315 0.72439 0.0
C1660 C 0.66115 0.5401 0.71564 0.0
C1661 C 0.72631 0.59323 0.69323 0.0
C1662 C 0.70345 0.5739 0.70013 0.0
H1663 H 0.60848 0.46468 0.73518 0.0
H1664 H 0.64379 0.49237 0.72032 0.0
H1665 H 0.643 0.55639 0.704 0.0
H1666 H 0.75571 0.65359 0.68757 0.0
H1667 H 0.7164 0.62088 0.69577 0.0
C1668 C 0.49177 0.09363 0.7426 0.0
C1669 C 0.51644 0.1118 0.74276 0.0
C1670 C 0.47412 0.09699 0.73524 0.0
C1671 C 0.46682 0.13611 0.70723 0.0
H1672 H 0.40162 0.10708 0.72401 0.0
C1673 C 0.39135 0.15845 0.68916 0.0
C1674 C 0.36752 0.13887 0.68755 0.0
C1675 C 0.41032 0.15508 0.69451 0.0
C1676 C 0.41967 0.11511 0.71909 0.0
H1677 H 0.54191 0.14788 0.73546 0.0
H1678 H 0.51106 0.15413 0.72302 0.0
H1679 H 0.43292 0.1019 0.73648 0.0
H1680 H 0.34483 0.10052 0.6903 0.0
H1681 H 0.37782 0.09464 0.69983 0.0
H1682 H 0.4534 0.14991 0.69006 0.0
C1683 C 0.50533 0.13698 0.72823 0.0
C1684 C 0.43768 0.11208 0.72622 0.0
C1685 C 0.52305 0.13348 0.73544 0.0
C1686 C 0.36307 0.11589 0.69131 0.0
C1687 C 0.38192 0.11255 0.69682 0.0
C1688 C 0.44881 0.13939 0.70019 0.0
C1689 C 0.48058 0.11876 0.728 0.0
C1690 C 0.46151 0.1224 0.72038 0.0
C1691 C 0.40567 0.13215 0.69872 0.0
C1692 C 0.42499 0.12878 0.706 0.0
H1693 H 0.48617 0.07656 0.7479 0.0
H1694 H 0.45543 0.08229 0.73507 0.0
H1695 H 0.48479 0.14407 0.70223 0.0
H1696 H 0.39521 0.17646 0.68673 0.0
H1697 H 0.42838 0.17056 0.69596 0.0
C1698 C 0.9207 0.41444 0.72516 0.0
C1699 C 0.91189 0.41248 0.73979 0.0
C1700 C 0.91513 0.39389 0.71691 0.0
C1701 C 0.86776 0.33121 0.71396 0.0
H1702 H 0.91554 0.32128 0.69276 0.0
C1703 C 0.84744 0.23825 0.69611 0.0
C1704 C 0.85585 0.23502 0.6823 0.0
C1705 C 0.85429 0.26111 0.7013 0.0
C1706 C 0.90194 0.324 0.69838 0.0
H1707 H 0.89091 0.38768 0.75738 0.0
H1708 H 0.88114 0.35178 0.74296 0.0
H1709 H 0.92861 0.35932 0.70577 0.0
H1710 H 0.87803 0.25323 0.66302 0.0
H1711 H 0.89007 0.29364 0.67216 0.0
H1712 H 0.8411 0.29607 0.70673 0.0
C1713 C 0.89228 0.36918 0.73788 0.0
C1714 C 0.90944 0.34568 0.70588 0.0
C1715 C 0.89807 0.38969 0.74617 0.0
C1716 C 0.87119 0.25523 0.67369 0.0
C1717 C 0.87818 0.27829 0.67895 0.0
C1718 C 0.86026 0.30971 0.70642 0.0
C1719 C 0.90038 0.37108 0.72309 0.0
C1720 C 0.89249 0.34917 0.71406 0.0
C1721 C 0.86975 0.28141 0.69283 0.0
C1722 C 0.87735 0.30558 0.6989 0.0
H1723 H 0.93153 0.43186 0.72004 0.0
H1724 H 0.92159 0.3958 0.70553 0.0
H1725 H 0.85424 0.33369 0.71989 0.0
H1726 H 0.83551 0.22306 0.703 0.0
H1727 H 0.84781 0.26288 0.71215 0.0
C1728 C 0.15428 0.9434 0.59044 0.0
C1729 C 0.14504 0.92192 0.59852 0.0
C1730 C 0.17095 0.96529 0.59702 0.0
C1731 C 0.19407 0.99466 0.63366 0.0
H1732 H 0.24901 0.04145 0.61046 0.0
C1733 C 0.258 0.09115 0.65477 0.0
C1734 C 0.28327 0.10104 0.65237 0.0
C1735 C 0.24116 0.06935 0.6482 0.0
C1736 C 0.23387 0.02852 0.61712 0.0
H1737 H 0.14621 0.90659 0.61981 0.0
H1738 H 0.17534 0.94477 0.63128 0.0
H1739 H 0.2197 0.00322 0.59914 0.0
H1740 H 0.31054 0.09581 0.64093 0.0
H1741 H 0.28112 0.05774 0.62948 0.0
H1742 H 0.20846 0.01979 0.65171 0.0
C1743 C 0.16943 0.94474 0.61993 0.0
C1744 C 0.2169 0.0067 0.61058 0.0
C1745 C 0.15273 0.92286 0.61336 0.0
C1746 C 0.29124 0.08874 0.64305 0.0
C1747 C 0.27436 0.06694 0.63642 0.0
C1748 C 0.21101 0.01649 0.64018 0.0
C1749 C 0.1788 0.96623 0.61183 0.0
C1750 C 0.19679 0.98949 0.61877 0.0
C1751 C 0.24912 0.05694 0.63896 0.0
C1752 C 0.23113 0.03369 0.632 0.0
H1753 H 0.14843 0.94332 0.57906 0.0
H1754 H 0.17748 0.98152 0.59054 0.0
H1755 H 0.17867 0.98191 0.64024 0.0
H1756 H 0.25112 0.10033 0.66163 0.0
H1757 H 0.22184 0.06238 0.65018 0.0
C1758 C 0.06474 0.23493 0.60116 0.0
C1759 C 0.07186 0.21746 0.60064 0.0
C1760 C 0.04369 0.23064 0.6089 0.0
C1761 C 0.9985 0.18974 0.63712 0.0
H1762 H 0.95863 0.21454 0.62073 0.0
C1763 C 0.89726 0.15627 0.65312 0.0
C1764 C 0.89021 0.17365 0.65468 0.0
C1765 C 0.92108 0.16289 0.6487 0.0
C1766 C 0.96974 0.20777 0.62558 0.0
H1767 H 0.06228 0.18164 0.60761 0.0
H1768 H 0.02518 0.17378 0.62071 0.0
H1769 H 0.99636 0.22319 0.60829 0.0
H1770 H 0.9019 0.2113 0.65247 0.0
H1771 H 0.94358 0.22298 0.64468 0.0
H1772 H 0.97109 0.17355 0.65412 0.0
C1773 C 0.03618 0.19113 0.61555 0.0
C1774 C 0.99146 0.21276 0.61845 0.0
C1775 C 0.0574 0.19555 0.60796 0.0
C1776 C 0.90725 0.19773 0.65178 0.0
C1777 C 0.93095 0.20434 0.64718 0.0
C1778 C 0.97657 0.18451 0.64416 0.0
C1779 C 0.02902 0.20862 0.61616 0.0
C1780 C 0.00615 0.20376 0.62407 0.0
C1781 C 0.93796 0.18692 0.64527 0.0
C1782 C 0.96193 0.19342 0.63843 0.0
H1783 H 0.07571 0.25211 0.59579 0.0
H1784 H 0.03912 0.24475 0.60931 0.0
H1785 H 0.00948 0.18285 0.64197 0.0
H1786 H 0.88411 0.1375 0.65491 0.0
H1787 H 0.92586 0.14904 0.64718 0.0
C1788 C 0.77089 0.82752 0.5908 0.0
C1789 C 0.7596 0.83784 0.59911 0.0
C1790 C 0.77775 0.81231 0.59765 0.0
C1791 C 0.79548 0.79969 0.63364 0.0
H1792 H 0.77979 0.73875 0.61581 0.0
C1793 C 0.81396 0.7308 0.6635 0.0
C1794 C 0.82082 0.71722 0.65462 0.0
C1795 C 0.80709 0.74618 0.65687 0.0
C1796 C 0.78468 0.75589 0.62082 0.0
H1797 H 0.74584 0.83957 0.62098 0.0
H1798 H 0.75841 0.81341 0.63299 0.0
H1799 H 0.76594 0.76381 0.60379 0.0
H1800 H 0.82692 0.70951 0.63203 0.0
H1801 H 0.81578 0.73692 0.62042 0.0
H1802 H 0.81469 0.79213 0.6505 0.0
C1803 C 0.76206 0.8173 0.62122 0.0
C1804 C 0.77662 0.77013 0.61396 0.0
C1805 C 0.75495 0.83229 0.61434 0.0
C1806 C 0.82144 0.7197 0.63908 0.0
C1807 C 0.81491 0.73527 0.63245 0.0
C1808 C 0.80381 0.78558 0.64042 0.0
C1809 C 0.77367 0.80734 0.61295 0.0
C1810 C 0.78194 0.79213 0.62032 0.0
C1811 C 0.80719 0.74835 0.64124 0.0
C1812 C 0.79853 0.76352 0.63407 0.0
H1813 H 0.77505 0.83169 0.5791 0.0
H1814 H 0.78687 0.80497 0.59107 0.0
H1815 H 0.80003 0.81675 0.63865 0.0
H1816 H 0.81278 0.72873 0.67547 0.0
H1817 H 0.8009 0.75571 0.66396 0.0
C1818 C 0.04638 0.82778 0.59423 0.0
C1819 C 0.0693 0.84102 0.60123 0.0
C1820 C 0.02592 0.81138 0.60234 0.0
C1821 C 0.98316 0.78883 0.62371 0.0
H1822 H 0.98871 0.74709 0.65266 0.0
C1823 C 0.89954 0.72124 0.65734 0.0
C1824 C 0.89621 0.69802 0.65799 0.0
C1825 C 0.92194 0.74048 0.65278 0.0
C1826 C 0.98686 0.75862 0.64462 0.0
H1827 H 0.0888 0.8469 0.62219 0.0
H1828 H 0.05303 0.81869 0.63639 0.0
H1829 H 0.02495 0.77632 0.6392 0.0
H1830 H 0.91346 0.6766 0.65458 0.0
H1831 H 0.95242 0.70999 0.64636 0.0
H1832 H 0.94493 0.7705 0.62862 0.0
C1833 C 0.05088 0.82087 0.62461 0.0
C1834 C 0.00768 0.77553 0.63699 0.0
C1835 C 0.07134 0.83724 0.6165 0.0
C1836 C 0.91574 0.69442 0.65432 0.0
C1837 C 0.93808 0.7136 0.64971 0.0
C1838 C 0.96236 0.77191 0.6313 0.0
C1839 C 0.02789 0.80784 0.61765 0.0
C1840 C 0.00601 0.79061 0.62629 0.0
C1841 C 0.94128 0.73677 0.64855 0.0
C1842 C 0.96388 0.75637 0.64169 0.0
H1843 H 0.04412 0.83037 0.58252 0.0
H1844 H 0.00857 0.80137 0.59656 0.0
H1845 H 0.9813 0.80043 0.61572 0.0
H1846 H 0.88463 0.72443 0.65987 0.0
H1847 H 0.9239 0.75816 0.6522 0.0
C1848 C 0.1653 0.20947 0.59214 0.0
C1849 C 0.15166 0.21773 0.60003 0.0
C1850 C 0.18301 0.20607 0.59941 0.0
C1851 C 0.20193 0.19514 0.63599 0.0
H1852 H 0.26631 0.22278 0.61812 0.0
C1853 C 0.30601 0.21653 0.65142 0.0
C1854 C 0.30186 0.19374 0.65544 0.0
C1855 C 0.28696 0.21944 0.64579 0.0
C1856 C 0.24844 0.21505 0.62327 0.0
H1857 H 0.14628 0.22892 0.62191 0.0
H1858 H 0.17656 0.2222 0.63458 0.0
H1859 H 0.23427 0.22726 0.60572 0.0
H1860 H 0.27453 0.15604 0.65648 0.0
H1861 H 0.241 0.16123 0.64714 0.0
H1862 H 0.21616 0.18267 0.65347 0.0
C1863 C 0.17345 0.21835 0.62276 0.0
C1864 C 0.23006 0.21743 0.61611 0.0
C1865 C 0.156 0.2221 0.61546 0.0
C1866 C 0.27816 0.17391 0.6539 0.0
C1867 C 0.25898 0.17687 0.64848 0.0
C1868 C 0.22025 0.19241 0.64304 0.0
C1869 C 0.18729 0.2105 0.61479 0.0
C1870 C 0.20662 0.20757 0.62239 0.0
C1871 C 0.26332 0.19961 0.64407 0.0
C1872 C 0.24374 0.20247 0.63679 0.0
H1873 H 0.16221 0.20542 0.58034 0.0
H1874 H 0.19322 0.19974 0.593 0.0
H1875 H 0.18399 0.18727 0.64105 0.0
H1876 H 0.32416 0.23206 0.65234 0.0
H1877 H 0.29079 0.23719 0.64256 0.0
C1878 C 0.73957 0.92095 0.60256 0.0
C1879 C 0.75751 0.91422 0.60148 0.0
C1880 C 0.74432 0.94152 0.6105 0.0
C1881 C 0.78749 0.986 0.63806 0.0
H1882 H 0.76436 0.02636 0.62095 0.0
C1883 C 0.80516 0.07499 0.66565 0.0
C1884 C 0.81084 0.09403 0.65584 0.0
C1885 C 0.79731 0.05194 0.66007 0.0
C1886 C 0.77109 0.01537 0.62584 0.0
H1887 H 0.79449 0.92365 0.60764 0.0
H1888 H 0.80312 0.95993 0.62112 0.0
H1889 H 0.75336 0.98831 0.60919 0.0
H1890 H 0.81377 0.10422 0.63256 0.0
H1891 H 0.80067 0.06442 0.62287 0.0
H1892 H 0.80623 0.01375 0.6543 0.0
C1893 C 0.78512 0.94904 0.61626 0.0
C1894 C 0.76447 0.99334 0.61922 0.0
C1895 C 0.78027 0.92836 0.60846 0.0
C1896 C 0.80906 0.08978 0.64041 0.0
C1897 C 0.80145 0.06692 0.63485 0.0
C1898 C 0.79429 0.00817 0.64463 0.0
C1899 C 0.76722 0.95591 0.61737 0.0
C1900 C 0.77286 0.97852 0.62511 0.0
C1901 C 0.79516 0.04764 0.64459 0.0
C1902 C 0.7865 0.02328 0.63843 0.0
H1903 H 0.72177 0.91014 0.59742 0.0
H1904 H 0.72999 0.94607 0.61132 0.0
H1905 H 0.79393 0.97483 0.64305 0.0
H1906 H 0.80611 0.07771 0.67759 0.0
H1907 H 0.79245 0.03744 0.66787 0.0
C1908 C 0.49677 0.40103 0.74805 0.0
C1909 C 0.52217 0.41102 0.74623 0.0
C1910 C 0.48038 0.37886 0.74164 0.0
C1911 C 0.47535 0.33765 0.71139 0.0
H1912 H 0.41854 0.29101 0.73333 0.0
C1913 C 0.41153 0.24183 0.68885 0.0
C1914 C 0.38621 0.23194 0.69099 0.0
C1915 C 0.42824 0.26344 0.69573 0.0
C1916 C 0.43415 0.30394 0.72697 0.0
H1917 H 0.55017 0.40508 0.73649 0.0
H1918 H 0.52159 0.36657 0.7252 0.0
H1919 H 0.44738 0.32899 0.74513 0.0
H1920 H 0.35869 0.2371 0.70217 0.0
H1921 H 0.38779 0.27484 0.71402 0.0
H1922 H 0.46207 0.31275 0.69318 0.0
C1923 C 0.51435 0.37605 0.73144 0.0
C1924 C 0.45071 0.32571 0.73375 0.0
C1925 C 0.53074 0.39815 0.73791 0.0
C1926 C 0.37804 0.24414 0.70027 0.0
C1927 C 0.39476 0.26575 0.70715 0.0
C1928 C 0.45876 0.31592 0.70458 0.0
C1929 C 0.48896 0.36617 0.73318 0.0
C1930 C 0.47149 0.34285 0.72604 0.0
C1931 C 0.42009 0.2757 0.70496 0.0
C1932 C 0.4379 0.29878 0.71227 0.0
H1933 H 0.48948 0.41058 0.75417 0.0
H1934 H 0.46093 0.37192 0.74302 0.0
H1935 H 0.49098 0.3506 0.70505 0.0
H1936 H 0.41854 0.23277 0.68199 0.0
H1937 H 0.44761 0.27033 0.69397 0.0
C1938 C 0.60265 0.09508 0.73898 0.0
C1939 C 0.59656 0.11315 0.74083 0.0
C1940 C 0.62329 0.09942 0.73075 0.0
C1941 C 0.68359 0.14649 0.7194 0.0
H1942 H 0.67802 0.10241 0.68811 0.0
C1943 C 0.76895 0.16205 0.68665 0.0
C1944 C 0.77039 0.14171 0.68266 0.0
C1945 C 0.74694 0.15973 0.69181 0.0
C1946 C 0.68007 0.11477 0.69693 0.0
H1947 H 0.60748 0.15003 0.73575 0.0
H1948 H 0.64408 0.15785 0.7217 0.0
H1949 H 0.64156 0.09573 0.70152 0.0
H1950 H 0.75037 0.10304 0.68131 0.0
H1951 H 0.71226 0.09871 0.69082 0.0
H1952 H 0.7221 0.16489 0.71552 0.0
C1953 C 0.63266 0.14025 0.72647 0.0
C1954 C 0.65909 0.11097 0.70456 0.0
C1955 C 0.61172 0.13576 0.73445 0.0
C1956 C 0.7495 0.11902 0.68397 0.0
C1957 C 0.7276 0.11663 0.68936 0.0
C1958 C 0.70466 0.15005 0.712 0.0
C1959 C 0.63854 0.12207 0.72445 0.0
C1960 C 0.66066 0.12669 0.71594 0.0
C1961 C 0.72604 0.13692 0.69359 0.0
C1962 C 0.70329 0.13412 0.70072 0.0
H1963 H 0.5912 0.07745 0.7437 0.0
H1964 H 0.62752 0.08515 0.72947 0.0
H1965 H 0.68534 0.15879 0.72821 0.0
H1966 H 0.78502 0.17974 0.68613 0.0
H1967 H 0.7465 0.17586 0.69463 0.0
C1968 C 0.91593 0.50988 0.74396 0.0
C1969 C 0.90275 0.48497 0.7417 0.0
C1970 C 0.90828 0.52458 0.73721 0.0
C1971 C 0.87189 0.52712 0.70596 0.0
H1972 H 0.87165 0.57764 0.72942 0.0
C1973 C 0.83428 0.5874 0.68392 0.0
C1974 C 0.84851 0.6119 0.68742 0.0
C1975 C 0.83976 0.5708 0.6903 0.0
C1976 C 0.87181 0.56374 0.72268 0.0
H1977 H 0.871 0.45589 0.7308 0.0
H1978 H 0.85788 0.48162 0.71888 0.0
H1979 H 0.88383 0.55101 0.74104 0.0
H1980 H 0.87985 0.63817 0.70019 0.0
H1981 H 0.88941 0.60944 0.71107 0.0
H1982 H 0.86015 0.54011 0.68753 0.0
C1983 C 0.87426 0.48977 0.72573 0.0
C1984 C 0.8788 0.54852 0.72934 0.0
C1985 C 0.88181 0.47507 0.73254 0.0
C1986 C 0.86838 0.61945 0.69729 0.0
C1987 C 0.87381 0.60294 0.70362 0.0
C1988 C 0.86497 0.54244 0.69926 0.0
C1989 C 0.88737 0.51465 0.72804 0.0
C1990 C 0.87917 0.53024 0.72101 0.0
C1991 C 0.85946 0.57843 0.70033 0.0
C1992 C 0.86518 0.5611 0.70752 0.0
H1993 H 0.93231 0.51807 0.75079 0.0
H1994 H 0.91892 0.54376 0.73901 0.0
H1995 H 0.87217 0.51324 0.69926 0.0
H1996 H 0.81869 0.58097 0.67649 0.0
H1997 H 0.82828 0.55197 0.68764 0.0
C1998 C 0.47986 0.92664 0.21964 0.0
C1999 C 0.45603 0.90907 0.22369 0.0
C2000 C 0.48484 0.93608 0.20522 0.0
C2001 C 0.46079 0.92459 0.16645 0.0
H2002 H 0.50637 0.99255 0.16199 0.0
C2003 C 0.48003 0.97597 0.10993 0.0
C2004 C 0.50447 0.99365 0.10726 0.0
C2005 C 0.4732 0.96424 0.12374 0.0
C2006 C 0.4938 0.97349 0.16301 0.0
H2007 H 0.41878 0.8875 0.21559 0.0
H2008 H 0.42739 0.90442 0.1905 0.0
H2009 H 0.49609 0.97521 0.1868 0.0
H2010 H 0.54112 0.0116 0.11662 0.0
H2011 H 0.52928 0.99126 0.14054 0.0
H2012 H 0.45851 0.92306 0.14253 0.0
C2013 C 0.44229 0.91067 0.19846 0.0
C2014 C 0.4879 0.96352 0.17726 0.0
C2015 C 0.4373 0.90118 0.2129 0.0
C2016 C 0.52204 -0.00147 0.11844 0.0
C2017 C 0.51524 0.98688 0.13217 0.0
C2018 C 0.46667 0.93462 0.15213 0.0
C2019 C 0.46612 0.92833 0.19445 0.0
C2020 C 0.47155 0.9389 0.17919 0.0
C2021 C 0.49068 0.96997 0.13513 0.0
C2022 C 0.48349 0.95915 0.15025 0.0
H2023 H 0.49469 0.93336 0.22767 0.0
H2024 H 0.50348 0.9494 0.20249 0.0
H2025 H 0.44827 0.90552 0.1675 0.0
H2026 H 0.46605 0.97184 0.10157 0.0
H2027 H 0.45411 0.95133 0.12568 0.0
C2028 C 0.07764 0.54578 0.21187 0.0
C2029 C 0.06607 0.52747 0.22248 0.0
C2030 C 0.06993 0.54186 0.19702 0.0
C2031 C 0.03353 0.49449 0.16927 0.0
H2032 H 0.02618 0.54488 0.15065 0.0
C2033 C 0.97887 0.50791 0.1171 0.0
C2034 C 0.98411 0.49643 0.10554 0.0
C2035 C 0.99059 0.51192 0.13088 0.0
C2036 C 0.02804 0.5306 0.15571 0.0
H2037 H 0.03778 0.49052 0.22579 0.0
H2038 H 0.02411 0.48371 0.19983 0.0
H2039 H 0.04353 0.55096 0.17561 0.0
H2040 H 0.00564 0.47996 0.09942 0.0
H2041 H 0.02644 0.48732 0.1235 0.0
H2042 H 0.01721 0.47384 0.1495 0.0
C2043 C 0.03935 0.50101 0.20297 0.0
C2044 C 0.03827 0.53419 0.16994 0.0
C2045 C 0.04712 0.50492 0.21784 0.0
C2046 C 0.00136 0.48903 0.10808 0.0
C2047 C 0.01309 0.49303 0.1219 0.0
C2048 C 0.02326 0.49089 0.155 0.0
C2049 C 0.05045 0.51956 0.19245 0.0
C2050 C 0.0409 0.5161 0.17696 0.0
C2051 C 0.00786 0.50456 0.13344 0.0
C2052 C 0.02011 0.50881 0.14816 0.0
H2053 H 0.09264 0.56319 0.21507 0.0
H2054 H 0.07917 0.55637 0.18913 0.0
H2055 H 0.03556 0.4803 0.17432 0.0
H2056 H 0.9659 0.51408 0.11543 0.0
H2057 H 0.98592 0.52057 0.13961 0.0
C2058 C 0.45893 0.54926 0.21022 0.0
C2059 C 0.4521 0.53143 0.22115 0.0
C2060 C 0.46341 0.54508 0.1956 0.0
C2061 C 0.45412 0.49731 0.1688 0.0
H2062 H 0.51158 0.54884 0.14994 0.0
C2063 C 0.4815 0.4914 0.10791 0.0
C2064 C 0.50651 0.49984 0.10544 0.0
C2065 C 0.47351 0.49541 0.1216 0.0
C2066 C 0.49554 0.53423 0.15507 0.0
H2067 H 0.44401 0.49503 0.22524 0.0
H2068 H 0.45209 0.48777 0.19967 0.0
H2069 H 0.49976 0.55488 0.17466 0.0
H2070 H 0.54275 0.51958 0.11527 0.0
H2071 H 0.52881 0.52612 0.13917 0.0
H2072 H 0.45044 0.47642 0.14933 0.0
C2073 C 0.4537 0.5049 0.20238 0.0
C2074 C 0.48857 0.53779 0.16917 0.0
C2075 C 0.44913 0.50906 0.21703 0.0
C2076 C 0.52333 0.51256 0.11688 0.0
C2077 C 0.51537 0.51658 0.13052 0.0
C2078 C 0.46112 0.49374 0.15466 0.0
C2079 C 0.46124 0.523 0.19155 0.0
C2080 C 0.46789 0.51933 0.17627 0.0
C2081 C 0.49037 0.50802 0.13306 0.0
C2082 C 0.48206 0.5121 0.14771 0.0
H2083 H 0.46085 0.5665 0.21298 0.0
H2084 H 0.46867 0.55923 0.18746 0.0
H2085 H 0.43796 0.48281 0.1739 0.0
H2086 H 0.46806 0.48141 0.09935 0.0
H2087 H 0.45415 0.48878 0.12316 0.0
C2088 C 0.95188 0.45734 0.79146 0.0
C2089 C 0.93271 0.46105 0.78685 0.0
C2090 C 0.95949 0.46079 0.80632 0.0
C2091 C 0.96082 0.49268 0.84044 0.0
H2092 H 0.97555 0.44709 0.85922 0.0
C2093 C 0.99509 0.50325 0.9015 0.0
C2094 C 0.01451 0.4988 0.90396 0.0
C2095 C 0.98269 0.49741 0.88784 0.0
C2096 C 0.97168 0.46008 0.8541 0.0
H2097 H 0.90636 0.47111 0.79435 0.0
H2098 H 0.92001 0.47752 0.82034 0.0
H2099 H 0.95834 0.43927 0.83411 0.0
H2100 H 0.03582 0.48436 0.8941 0.0
H2101 H 0.01468 0.47478 0.87019 0.0
H2102 H 0.97471 0.51379 0.8603 0.0
C2103 C 0.92916 0.47203 0.81236 0.0
C2104 C 0.9618 0.45557 0.83974 0.0
C2105 C 0.92142 0.46843 0.79748 0.0
C2106 C 0.02115 0.48829 0.8925 0.0
C2107 C 0.00879 0.48248 0.87887 0.0
C2108 C 0.97082 0.49725 0.85481 0.0
C2109 C 0.94821 0.46814 0.81693 0.0
C2110 C 0.95669 0.47203 0.83265 0.0
C2111 C 0.98943 0.48697 0.87636 0.0
C2112 C 0.9768 0.48121 0.86168 0.0
H2113 H 0.96128 0.4521 0.78352 0.0
H2114 H 0.97453 0.45808 0.80947 0.0
H2115 H 0.95719 0.50575 0.8352 0.0
H2116 H 0.98967 0.51152 0.91007 0.0
H2117 H 0.96774 0.50095 0.88629 0.0
C2118 C 0.55214 0.49426 0.79121 0.0
C2119 C 0.54781 0.47098 0.78824 0.0
C2120 C 0.54757 0.50035 0.80537 0.0
C2121 C 0.51084 0.47331 0.83912 0.0
H2122 H 0.55504 0.53467 0.85743 0.0
C2123 C 0.52514 0.52496 0.89927 0.0
C2124 C 0.50116 0.52038 0.90175 0.0
C2125 C 0.53152 0.51887 0.88566 0.0
C2126 C 0.54259 0.5174 0.85251 0.0
H2127 H 0.53605 0.43615 0.7981 0.0
H2128 H 0.52778 0.4467 0.82267 0.0
H2129 H 0.56541 0.52428 0.83334 0.0
H2130 H 0.46499 0.50539 0.89192 0.0
H2131 H 0.47614 0.49493 0.86818 0.0
H2132 H 0.48803 0.4664 0.85826 0.0
C2133 C 0.53441 0.46014 0.81398 0.0
C2134 C 0.54842 0.51155 0.83864 0.0
C2135 C 0.5391 0.45408 0.79986 0.0
C2136 C 0.48369 0.50942 0.89032 0.0
C2137 C 0.49001 0.50318 0.87677 0.0
C2138 C 0.50493 0.47924 0.85291 0.0
C2139 C 0.53844 0.4833 0.81689 0.0
C2140 C 0.53258 0.48945 0.83176 0.0
C2141 C 0.51401 0.50788 0.87426 0.0
C2142 C 0.52067 0.50138 0.85975 0.0
H2143 H 0.55855 0.50766 0.7825 0.0
H2144 H 0.5506 0.51827 0.80718 0.0
H2145 H 0.49813 0.45623 0.83408 0.0
H2146 H 0.53909 0.53351 0.90779 0.0
H2147 H 0.55011 0.52255 0.88412 0.0
C2148 C 0.54864 0.06281 0.78944 0.0
C2149 C 0.54355 0.0813 0.78637 0.0
C2150 C 0.54418 0.05231 0.80359 0.0
C2151 C 0.53526 0.06218 0.84326 0.0
H2152 H 0.50527 0.99309 0.84568 0.0
C2153 C 0.50209 0.0103 0.89936 0.0
C2154 C 0.5041 0.98964 0.90116 0.0
C2155 C 0.50754 0.02232 0.88564 0.0
C2156 C 0.51401 0.01244 0.84527 0.0
H2157 H 0.53017 0.10352 0.79595 0.0
H2158 H 0.52221 0.08505 0.82063 0.0
H2159 H 0.51355 0.0123 0.8214 0.0
H2160 H 0.51463 0.9662 0.89015 0.0
H2161 H 0.52463 0.98731 0.86644 0.0
H2162 H 0.53593 0.06233 0.86716 0.0
C2163 C 0.52975 0.07874 0.81208 0.0
C2164 C 0.5187 0.02346 0.83129 0.0
C2165 C 0.53407 0.08915 0.79788 0.0
C2166 C 0.51242 0.98177 0.88906 0.0
C2167 C 0.51806 0.99387 0.87542 0.0
C2168 C 0.53071 0.05114 0.85728 0.0
C2169 C 0.53462 0.06008 0.81509 0.0
C2170 C 0.52946 0.04847 0.83008 0.0
C2171 C 0.51534 0.0141 0.8734 0.0
C2172 C 0.5201 0.02609 0.8585 0.0
H2173 H 0.55577 0.05618 0.78082 0.0
H2174 H 0.54841 0.03817 0.80555 0.0
H2175 H 0.54378 0.08151 0.84273 0.0
H2176 H 0.49558 0.01675 0.90843 0.0
H2177 H 0.50498 0.03767 0.88453 0.0
C2178 C 0.14835 0.26188 0.54973 0.0
C2179 C 0.12464 0.24544 0.55474 0.0
C2180 C 0.15229 0.27056 0.53508 0.0
C2181 C 0.12204 0.25881 0.49754 0.0
H2182 H 0.1713 0.32499 0.49031 0.0
C2183 C 0.1241 0.31187 0.44505 0.0
C2184 C 0.14684 0.32735 0.43853 0.0
C2185 C 0.12271 0.29975 0.45827 0.0
C2186 C 0.15771 0.30637 0.4921 0.0
H2187 H 0.08653 0.22506 0.54794 0.0
H2188 H 0.09318 0.24104 0.52282 0.0
H2189 H 0.1661 0.30862 0.51537 0.0
H2190 H 0.18595 0.34194 0.44043 0.0
H2191 H 0.18363 0.32097 0.46381 0.0
H2192 H 0.11304 0.25704 0.47431 0.0
C2193 C 0.10892 0.24686 0.53007 0.0
C2194 C 0.15472 0.29691 0.5065 0.0
C2195 C 0.10502 0.23797 0.54464 0.0
C2196 C 0.1682 0.32995 0.44521 0.0
C2197 C 0.16686 0.31812 0.45862 0.0
C2198 C 0.12483 0.26839 0.48319 0.0
C2199 C 0.13262 0.26328 0.52503 0.0
C2200 C 0.13666 0.27304 0.50949 0.0
C2201 C 0.1441 0.30316 0.4654 0.0
C2202 C 0.14255 0.29234 0.48033 0.0
H2203 H 0.16394 0.26835 0.55717 0.0
H2204 H 0.17086 0.28292 0.53164 0.0
H2205 H 0.10833 0.24022 0.49924 0.0
H2206 H 0.10739 0.30966 0.44011 0.0
H2207 H 0.10494 0.28852 0.46325 0.0
C2208 C 0.73976 0.88319 0.5449 0.0
C2209 C 0.72985 0.8641 0.55508 0.0
C2210 C 0.73153 0.87964 0.53015 0.0
C2211 C 0.69887 0.83234 0.50183 0.0
H2212 H 0.68668 0.87982 0.48334 0.0
C2213 C 0.64227 0.84056 0.44892 0.0
C2214 C 0.64919 0.83008 0.43759 0.0
C2215 C 0.65379 0.84563 0.46282 0.0
C2216 C 0.6899 0.86636 0.48837 0.0
H2217 H 0.70342 0.82638 0.55785 0.0
H2218 H 0.68891 0.82019 0.53211 0.0
H2219 H 0.70326 0.88652 0.50858 0.0
H2220 H 0.67363 0.81665 0.43196 0.0
H2221 H 0.6941 0.82596 0.45618 0.0
H2222 H 0.68475 0.81182 0.4818 0.0
C2223 C 0.70334 0.83781 0.53546 0.0
C2224 C 0.69966 0.87032 0.50276 0.0
C2225 C 0.71159 0.84136 0.5502 0.0
C2226 C 0.66802 0.82492 0.44043 0.0
C2227 C 0.67957 0.83002 0.45434 0.0
C2228 C 0.68908 0.82837 0.48744 0.0
C2229 C 0.71321 0.85692 0.52527 0.0
C2230 C 0.704 0.85323 0.50971 0.0
C2231 C 0.67252 0.84037 0.4657 0.0
C2232 C 0.68423 0.84521 0.48063 0.0
H2233 H 0.75415 0.90082 0.54828 0.0
H2234 H 0.73973 0.89463 0.52251 0.0
H2235 H 0.70232 0.81899 0.50681 0.0
H2236 H 0.62804 0.84501 0.44702 0.0
H2237 H 0.64774 0.85334 0.4714 0.0
C2238 C 0.14473 0.8729 0.55045 0.0
C2239 C 0.12069 0.86599 0.55474 0.0
C2240 C 0.1498 0.86896 0.53591 0.0
C2241 C 0.12225 0.83288 0.50206 0.0
H2242 H 0.18039 0.88368 0.48329 0.0
C2243 C 0.14981 0.82622 0.44121 0.0
C2244 C 0.17473 0.83388 0.43899 0.0
C2245 C 0.14178 0.83064 0.45477 0.0
C2246 C 0.16419 0.86925 0.4884 0.0
H2247 H 0.08301 0.8491 0.54713 0.0
H2248 H 0.0919 0.84206 0.52166 0.0
H2249 H 0.16886 0.88992 0.50808 0.0
H2250 H 0.21078 0.85273 0.44913 0.0
H2251 H 0.19678 0.86001 0.47279 0.0
H2252 H 0.11783 0.81209 0.4824 0.0
C2253 C 0.10679 0.85049 0.52962 0.0
C2254 C 0.15758 0.87282 0.50262 0.0
C2255 C 0.10171 0.85449 0.54421 0.0
C2256 C 0.19143 0.84631 0.45054 0.0
C2257 C 0.18343 0.85075 0.46405 0.0
C2258 C 0.1289 0.82928 0.48781 0.0
C2259 C 0.13096 0.85796 0.52528 0.0
C2260 C 0.1368 0.85455 0.50973 0.0
C2261 C 0.15852 0.84292 0.46635 0.0
C2262 C 0.1502 0.84729 0.48093 0.0
H2263 H 0.1597 0.88128 0.55837 0.0
H2264 H 0.16853 0.87442 0.53303 0.0
H2265 H 0.10621 0.81841 0.50727 0.0
H2266 H 0.13645 0.81646 0.43256 0.0
H2267 H 0.12249 0.82454 0.45615 0.0
C2268 C 0.61787 0.79256 0.12358 0.0
C2269 C 0.60077 0.79878 0.11833 0.0
C2270 C 0.62459 0.79543 0.13859 0.0
C2271 C 0.62807 0.829 0.17238 0.0
H2272 H 0.63552 0.77915 0.19173 0.0
C2273 C 0.66076 0.83647 0.23374 0.0
C2274 C 0.6787 0.82992 0.23614 0.0
C2275 C 0.64831 0.83152 0.2201 0.0
C2276 C 0.63364 0.79329 0.18647 0.0
H2277 H 0.57741 0.81308 0.12479 0.0
H2278 H 0.5895 0.81844 0.1511 0.0
H2279 H 0.61917 0.77286 0.16644 0.0
H2280 H 0.6972 0.81255 0.22626 0.0
H2281 H 0.67592 0.80436 0.20244 0.0
H2282 H 0.64311 0.84965 0.19232 0.0
C2283 C 0.59767 0.81134 0.14351 0.0
C2284 C 0.62427 0.78968 0.172 0.0
C2285 C 0.59082 0.80833 0.12845 0.0
C2286 C 0.68372 0.8181 0.2247 0.0
C2287 C 0.67127 0.81311 0.21111 0.0
C2288 C 0.63752 0.83265 0.18689 0.0
C2289 C 0.61448 0.80472 0.14874 0.0
C2290 C 0.62193 0.8077 0.16466 0.0
C2291 C 0.65347 0.8198 0.20863 0.0
C2292 C 0.64095 0.81504 0.19394 0.0
H2293 H 0.6263 0.78566 0.11605 0.0
H2294 H 0.63801 0.79068 0.14222 0.0
H2295 H 0.62656 0.84325 0.16698 0.0
H2296 H 0.6566 0.84574 0.24232 0.0
H2297 H 0.63459 0.83676 0.21856 0.0
C2298 C 0.18985 0.79536 0.12368 0.0
C2299 C 0.21369 0.80062 0.12009 0.0
C2300 C 0.1845 0.80035 0.13787 0.0
C2301 C 0.20604 0.81038 0.17684 0.0
H2302 H 0.16169 0.83541 0.18066 0.0
C2303 C 0.18207 0.83795 0.23351 0.0
C2304 C 0.15736 0.83133 0.23555 0.0
C2305 C 0.19026 0.83466 0.21968 0.0
C2306 C 0.17393 0.82822 0.17979 0.0
H2307 H 0.25067 0.81532 0.12858 0.0
H2308 H 0.24136 0.82434 0.15344 0.0
H2309 H 0.17394 0.82967 0.15598 0.0
H2310 H 0.12172 0.81494 0.22484 0.0
H2311 H 0.136 0.8094 0.20079 0.0
H2312 H 0.20585 0.80886 0.20075 0.0
C2313 C 0.22678 0.81615 0.14526 0.0
C2314 C 0.18097 0.82495 0.16564 0.0
C2315 C 0.23216 0.81122 0.13099 0.0
C2316 C 0.14097 0.82079 0.22357 0.0
C2317 C 0.14915 0.81759 0.20978 0.0
C2318 C 0.199 0.8137 0.19105 0.0
C2319 C 0.20286 0.81074 0.14885 0.0
C2320 C 0.19681 0.81567 0.16398 0.0
C2321 C 0.17393 0.82477 0.2076 0.0
C2322 C 0.18257 0.82232 0.19265 0.0
H2323 H 0.17528 0.78742 0.11547 0.0
H2324 H 0.16584 0.79569 0.14032 0.0
H2325 H 0.21811 0.80301 0.17593 0.0
H2326 H 0.19522 0.84627 0.24248 0.0
H2327 H 0.20949 0.84048 0.21832 0.0
C2328 C 0.21819 0.40297 0.1236 0.0
C2329 C 0.21269 0.42092 0.11973 0.0
C2330 C 0.21386 0.39356 0.13804 0.0
C2331 C 0.20457 0.4057 0.17706 0.0
H2332 H 0.17296 0.33666 0.18098 0.0
C2333 C 0.16799 0.35666 0.23369 0.0
C2334 C 0.16857 0.33539 0.23608 0.0
C2335 C 0.17485 0.36835 0.21987 0.0
C2336 C 0.18219 0.356 0.18017 0.0
H2337 H 0.19886 0.44345 0.12816 0.0
H2338 H 0.19124 0.42694 0.15341 0.0
H2339 H 0.18217 0.35458 0.15632 0.0
H2340 H 0.17824 0.31052 0.22624 0.0
H2341 H 0.19095 0.33117 0.20241 0.0
H2342 H 0.20482 0.40714 0.20094 0.0
C2343 C 0.19895 0.4202 0.14524 0.0
C2344 C 0.18739 0.36628 0.16597 0.0
C2345 C 0.2031 0.42949 0.13074 0.0
C2346 C 0.1772 0.32666 0.22463 0.0
C2347 C 0.18433 0.33845 0.21092 0.0
C2348 C 0.19956 0.39542 0.19131 0.0
C2349 C 0.20407 0.40196 0.14902 0.0
C2350 C 0.19866 0.39123 0.16422 0.0
C2351 C 0.18271 0.35915 0.20819 0.0
C2352 C 0.18833 0.3704 0.19307 0.0
H2353 H 0.22541 0.39583 0.11536 0.0
H2354 H 0.21824 0.37968 0.14062 0.0
H2355 H 0.21346 0.42501 0.17609 0.0
H2356 H 0.16128 0.36373 0.24229 0.0
H2357 H 0.17315 0.38411 0.2182 0.0
C2358 C 0.77228 0.56957 0.8782 0.0
C2359 C 0.79087 0.57757 0.88907 0.0
C2360 C 0.77736 0.57928 0.8638 0.0
C2361 C 0.82275 0.63269 0.84295 0.0
H2362 H 0.79512 0.59233 0.80799 0.0
C2363 C 0.85875 0.66841 0.78453 0.0
C2364 C 0.84157 0.6633 0.77306 0.0
C2365 C 0.85156 0.65667 0.79822 0.0
C2366 C 0.80278 0.60386 0.81765 0.0
H2367 H 0.82934 0.60231 0.89332 0.0
H2368 H 0.8383 0.61876 0.86824 0.0
H2369 H 0.7843 0.57457 0.83289 0.0
H2370 H 0.80343 0.64104 0.76685 0.0
H2371 H 0.79081 0.62039 0.79088 0.0
H2372 H 0.84131 0.66192 0.82783 0.0
C2373 C 0.8197 0.60518 0.87084 0.0
C2374 C 0.79656 0.5937 0.83192 0.0
C2375 C 0.81463 0.59551 0.8852 0.0
C2376 C 0.81713 0.64535 0.77543 0.0
C2377 C 0.8099 0.63353 0.7892 0.0
C2378 C 0.82898 0.64279 0.82875 0.0
C2379 C 0.80114 0.59727 0.85996 0.0
C2380 C 0.80672 0.60798 0.84475 0.0
C2381 C 0.82698 0.63945 0.80086 0.0
C2382 C 0.81934 0.62849 0.81591 0.0
H2383 H 0.75382 0.55561 0.88076 0.0
H2384 H 0.76258 0.5729 0.85575 0.0
H2385 H 0.83046 0.64434 0.85256 0.0
H2386 H 0.87784 0.68169 0.78295 0.0
H2387 H 0.86531 0.66121 0.80681 0.0
C2388 C 0.40751 0.21519 0.87914 0.0
C2389 C 0.39649 0.19627 0.8894 0.0
C2390 C 0.40003 0.21169 0.86424 0.0
C2391 C 0.36661 0.16472 0.83583 0.0
H2392 H 0.35605 0.21329 0.81741 0.0
C2393 C 0.31009 0.17449 0.7835 0.0
C2394 C 0.31644 0.16378 0.77201 0.0
C2395 C 0.3219 0.17928 0.7973 0.0
C2396 C 0.35884 0.19954 0.82241 0.0
H2397 H 0.36914 0.15882 0.8921 0.0
H2398 H 0.35594 0.15272 0.86609 0.0
H2399 H 0.37283 0.21966 0.84257 0.0
H2400 H 0.34008 0.14959 0.766 0.0
H2401 H 0.361 0.15836 0.79006 0.0
H2402 H 0.35181 0.14424 0.81584 0.0
C2403 C 0.37062 0.17017 0.86951 0.0
C2404 C 0.36872 0.20331 0.83676 0.0
C2405 C 0.37812 0.17367 0.88441 0.0
C2406 C 0.33492 0.15804 0.7746 0.0
C2407 C 0.34674 0.16284 0.78841 0.0
C2408 C 0.35671 0.16094 0.82147 0.0
C2409 C 0.38136 0.18919 0.8593 0.0
C2410 C 0.37241 0.1858 0.84369 0.0
C2411 C 0.34033 0.1735 0.79991 0.0
C2412 C 0.35239 0.17817 0.81471 0.0
H2413 H 0.42205 0.23269 0.8826 0.0
H2414 H 0.40891 0.22659 0.85658 0.0
H2415 H 0.36954 0.15104 0.84082 0.0
H2416 H 0.29614 0.17938 0.78178 0.0
H2417 H 0.31633 0.18723 0.806 0.0
C2418 C 0.76869 0.18456 0.87825 0.0
C2419 C 0.7879 0.19585 0.88865 0.0
C2420 C 0.77342 0.18049 0.8636 0.0
C2421 C 0.82351 0.20306 0.83629 0.0
H2422 H 0.78371 0.14254 0.81586 0.0
C2423 C 0.85692 0.1777 0.78368 0.0
C2424 C 0.84013 0.16542 0.77214 0.0
C2425 C 0.849 0.18181 0.7973 0.0
C2426 C 0.79478 0.15967 0.82133 0.0
H2427 H 0.82688 0.21056 0.89205 0.0
H2428 H 0.8351 0.20361 0.86658 0.0
H2429 H 0.77246 0.14841 0.84096 0.0
H2430 H 0.80179 0.14786 0.76586 0.0
H2431 H 0.78795 0.15536 0.78968 0.0
H2432 H 0.84592 0.21436 0.81681 0.0
C2433 C 0.81648 0.19836 0.86962 0.0
C2434 C 0.78835 0.163 0.83571 0.0
C2435 C 0.81177 0.20235 0.88422 0.0
C2436 C 0.8152 0.15751 0.7745 0.0
C2437 C 0.80724 0.1616 0.78818 0.0
C2438 C 0.82988 0.19977 0.82195 0.0
C2439 C 0.79744 0.18771 0.85909 0.0
C2440 C 0.80296 0.18458 0.84344 0.0
C2441 C 0.82408 0.17379 0.79974 0.0
C2442 C 0.81589 0.17788 0.81442 0.0
H2443 H 0.75012 0.1795 0.8813 0.0
H2444 H 0.75839 0.17232 0.85571 0.0
H2445 H 0.8348 0.22009 0.84183 0.0
H2446 H 0.87629 0.18432 0.78215 0.0
H2447 H 0.86242 0.19098 0.80602 0.0
C2448 C 0.28855 0.12817 0.45843 0.0
C2449 C 0.27075 0.13376 0.45367 0.0
C2450 C 0.2964 0.13178 0.47324 0.0
C2451 C 0.30065 0.16582 0.50707 0.0
H2452 H 0.3103 0.11724 0.52634 0.0
C2453 C 0.33263 0.1738 0.56849 0.0
C2454 C 0.35106 0.16798 0.5711 0.0
C2455 C 0.32058 0.16871 0.55472 0.0
C2456 C 0.30784 0.13103 0.52108 0.0
H2457 H 0.24729 0.14762 0.46073 0.0
H2458 H 0.26124 0.15415 0.48666 0.0
H2459 H 0.29355 0.11035 0.50113 0.0
H2460 H 0.37095 0.15187 0.56144 0.0
H2461 H 0.35034 0.14346 0.53736 0.0
H2462 H 0.31535 0.18668 0.52696 0.0
C2463 C 0.26917 0.14709 0.47886 0.0
C2464 C 0.29825 0.12709 0.50666 0.0
C2465 C 0.26125 0.14341 0.46402 0.0
C2466 C 0.35705 0.15684 0.55971 0.0
C2467 C 0.34501 0.15173 0.54598 0.0
C2468 C 0.31029 0.16979 0.52152 0.0
C2469 C 0.28668 0.14111 0.48364 0.0
C2470 C 0.29501 0.14462 0.49939 0.0
C2471 C 0.32666 0.15762 0.54333 0.0
C2472 C 0.31442 0.15262 0.52856 0.0
H2473 H 0.29654 0.12112 0.45067 0.0
H2474 H 0.3103 0.12748 0.47653 0.0
H2475 H 0.29846 0.17971 0.50171 0.0
H2476 H 0.32773 0.18256 0.57702 0.0
H2477 H 0.30641 0.17331 0.55304 0.0
C2478 C 0.89532 0.14667 0.46541 0.0
C2479 C 0.87698 0.13655 0.4544 0.0
C2480 C 0.89031 0.15291 0.47939 0.0
C2481 C 0.84785 0.16785 0.4984 0.0
H2482 H 0.87043 0.15178 0.53451 0.0
C2483 C 0.81509 0.17781 0.55658 0.0
C2484 C 0.83229 0.18649 0.56827 0.0
C2485 C 0.82093 0.17181 0.54279 0.0
C2486 C 0.86425 0.15667 0.52454 0.0
H2487 H 0.83914 0.12535 0.44934 0.0
H2488 H 0.83036 0.13613 0.47374 0.0
H2489 H 0.88015 0.14144 0.51024 0.0
H2490 H 0.86928 0.19587 0.57453 0.0
H2491 H 0.87949 0.1855 0.55047 0.0
H2492 H 0.8321 0.18323 0.5126 0.0
C2493 C 0.84863 0.1393 0.47157 0.0
C2494 C 0.8698 0.15072 0.51063 0.0
C2495 C 0.85358 0.13291 0.45764 0.0
C2496 C 0.85548 0.18895 0.56583 0.0
C2497 C 0.86133 0.18298 0.55203 0.0
C2498 C 0.84239 0.17389 0.51228 0.0
C2499 C 0.86692 0.14935 0.48261 0.0
C2500 C 0.86154 0.15612 0.4974 0.0
C2501 C 0.84414 0.17439 0.54031 0.0
C2502 C 0.85038 0.16826 0.52554 0.0
H2503 H 0.91348 0.14953 0.46328 0.0
H2504 H 0.90484 0.16079 0.48762 0.0
H2505 H 0.84157 0.17262 0.48841 0.0
H2506 H 0.79692 0.17525 0.55815 0.0
H2507 H 0.80707 0.16481 0.53412 0.0
C2508 C 0.88303 0.7354 0.45817 0.0
C2509 C 0.87787 0.75344 0.45388 0.0
C2510 C 0.87822 0.72629 0.47271 0.0
C2511 C 0.84038 0.72041 0.50568 0.0
H2512 H 0.8836 0.70287 0.52588 0.0
C2513 C 0.85201 0.68313 0.567 0.0
C2514 C 0.82762 0.66497 0.56924 0.0
C2515 C 0.85913 0.69577 0.5535 0.0
C2516 C 0.87146 0.70791 0.52048 0.0
H2517 H 0.86429 0.7765 0.46173 0.0
H2518 H 0.85589 0.76062 0.48702 0.0
H2519 H 0.89468 0.72166 0.50134 0.0
H2520 H 0.79145 0.64659 0.55922 0.0
H2521 H 0.80386 0.66821 0.53573 0.0
H2522 H 0.81726 0.70689 0.52483 0.0
C2523 C 0.86326 0.7532 0.47908 0.0
C2524 C 0.87767 0.71841 0.50631 0.0
C2525 C 0.86806 0.7623 0.46455 0.0
C2526 C 0.81045 0.66021 0.55781 0.0
C2527 C 0.81753 0.67284 0.54438 0.0
C2528 C 0.83418 0.70991 0.51982 0.0
C2529 C 0.86813 0.73496 0.48334 0.0
C2530 C 0.8621 0.72462 0.49867 0.0
C2531 C 0.84199 0.69065 0.54198 0.0
C2532 C 0.84949 0.70328 0.52734 0.0
H2533 H 0.89031 0.72794 0.45021 0.0
H2534 H 0.88187 0.71201 0.47552 0.0
H2535 H 0.82782 0.72472 0.50011 0.0
H2536 H 0.86572 0.68718 0.57554 0.0
H2537 H 0.87807 0.70954 0.5521 0.0
loop_
_geom_bond_atom_site_label_1
_geom_bond_atom_site_label_2
_geom_bond_distance
_geom_bond_site_symmetry_2
_ccdc_geom_bond_type
H0 C3 0.931 . S
H1 C6 0.928 . S
H2 C8 0.930 . S
C3 H0 0.931 . S
C3 C4 1.413 . S
C3 C5 1.360 . S
C4 C3 1.413 . S
C4 C8 1.429 . S
C5 C3 1.360 . S
C5 C6 1.372 . S
C6 H1 0.928 . S
C6 C5 1.372 . S
C6 C7 1.404 . S
C7 C6 1.404 . S
C7 C8 1.391 . S
C8 H2 0.930 . S
C8 C4 1.429 . S
C8 C7 1.391 . S
H9 C12 0.931 . S
H10 C15 0.928 . S
H11 C17 0.930 . S
C12 H9 0.931 . S
C12 C13 1.413 . S
C12 C14 1.360 . S
C13 C12 1.413 . S
C13 C17 1.429 . S
C14 C12 1.360 . S
C14 C15 1.372 . S
C15 H10 0.928 . S
C15 C14 1.372 . S
C15 C16 1.404 . S
C16 C15 1.404 . S
C16 C17 1.391 . S
C17 H11 0.930 . S
C17 C13 1.429 . S
C17 C16 1.391 . S
H18 C21 0.931 . S
H19 C24 0.928 . S
H20 C26 0.930 . S
C21 H18 0.931 . S
C21 C22 1.413 . S
C21 C23 1.360 . S
C22 C21 1.413 . S
C22 C26 1.429 . S
C23 C21 1.360 . S
C23 C24 1.372 . S
C24 H19 0.928 . S
C24 C23 1.372 . S
C24 C25 1.404 . S
C25 C24 1.404 . S
C25 C26 1.391 . S
C26 H20 0.930 . S
C26 C22 1.429 . S
C26 C25 1.391 . S
H27 C30 0.931 . S
H28 C33 0.928 . S
H29 C35 0.930 . S
C30 H27 0.931 . S
C30 C31 1.413 . S
C30 C32 1.360 . S
C31 C30 1.413 . S
C31 C35 1.429 . S
C32 C30 1.360 . S
C32 C33 1.372 . S
C33 H28 0.928 . S
C33 C32 1.372 . S
C33 C34 1.404 . S
C34 C33 1.404 . S
C34 C35 1.391 . S
C35 H29 0.930 . S
C35 C31 1.429 . S
C35 C34 1.391 . S
H36 C39 0.931 . S
H37 C42 0.928 . S
H38 C44 0.930 . S
C39 H36 0.931 . S
C39 C40 1.413 . S
C39 C41 1.360 . S
C40 C39 1.413 . S
C40 C44 1.429 . S
C41 C39 1.360 . S
C41 C42 1.372 . S
C42 H37 0.928 . S
C42 C41 1.372 . S
C42 C43 1.404 . S
C43 C42 1.404 . S
C43 C44 1.391 . S
C44 H38 0.930 . S
C44 C40 1.429 . S
C44 C43 1.391 . S
H45 C48 0.931 . S
H46 C51 0.928 . S
H47 C53 0.930 . S
C48 H45 0.931 . S
C48 C49 1.413 . S
C48 C50 1.360 . S
C49 C48 1.413 . S
C49 C53 1.429 . S
C50 C48 1.360 . S
C50 C51 1.372 . S
C51 H46 0.928 . S
C51 C50 1.372 . S
C51 C52 1.404 . S
C52 C51 1.404 . S
C52 C53 1.391 . S
C53 H47 0.930 . S
C53 C49 1.429 . S
C53 C52 1.391 . S
H54 C57 0.931 . S
H55 C60 0.928 . S
H56 C62 0.930 . S
C57 H54 0.931 . S
C57 C58 1.413 . S
C57 C59 1.360 . S
C58 C57 1.413 . S
C58 C62 1.429 . S
C59 C57 1.360 . S
C59 C60 1.372 . S
C60 H55 0.928 . S
C60 C59 1.372 . S
C60 C61 1.404 . S
C61 C60 1.404 . S
C61 C62 1.391 . S
C62 H56 0.930 . S
C62 C58 1.429 . S
C62 C61 1.391 . S
H63 C66 0.931 . S
H64 C69 0.928 . S
H65 C71 0.930 . S
C66 H63 0.931 . S
C66 C67 1.413 . S
C66 C68 1.360 . S
C67 C66 1.413 . S
C67 C71 1.429 . S
C68 C66 1.360 . S
C68 C69 1.372 . S
C69 H64 0.928 . S
C69 C68 1.372 . S
C69 C70 1.404 . S
C70 C69 1.404 . S
C70 C71 1.391 . S
C71 H65 0.930 . S
C71 C67 1.429 . S
C71 C70 1.391 . S
H72 C75 0.931 . S
H73 C78 0.928 . S
H74 C80 0.930 . S
C75 H72 0.931 . S
C75 C76 1.413 . S
C75 C77 1.360 . S
C76 C75 1.413 . S
C76 C80 1.429 . S
C77 C75 1.360 . S
C77 C78 1.372 . S
C78 H73 0.928 . S
C78 C77 1.372 . S
C78 C79 1.404 . S
C79 C78 1.404 . S
C79 C80 1.391 . S
C80 H74 0.930 . S
C80 C76 1.429 . S
C80 C79 1.391 . S
H81 C84 0.931 . S
H82 C87 0.928 . S
H83 C89 0.930 . S
C84 H81 0.931 . S
C84 C85 1.413 . S
C84 C86 1.360 . S
C85 C84 1.413 . S
C85 C89 1.429 . S
C86 C84 1.360 . S
C86 C87 1.372 . S
C87 H82 0.928 . S
C87 C86 1.372 . S
C87 C88 1.404 . S
C88 C87 1.404 . S
C88 C89 1.391 . S
C89 H83 0.930 . S
C89 C85 1.429 . S
C89 C88 1.391 . S
H90 C93 0.931 . S
H91 C96 0.928 . S
H92 C98 0.930 . S
C93 H90 0.931 . S
C93 C94 1.413 . S
C93 C95 1.360 . S
C94 C93 1.413 . S
C94 C98 1.429 . S
C95 C93 1.360 . S
C95 C96 1.372 . S
C96 H91 0.928 . S
C96 C95 1.372 . S
C96 C97 1.404 . S
C97 C96 1.404 . S
C97 C98 1.391 . S
C98 H92 0.930 . S
C98 C94 1.429 . S
C98 C97 1.391 . S
H99 C102 0.931 . S
H100 C105 0.928 . S
H101 C107 0.930 . S
C102 H99 0.931 . S
C102 C103 1.413 . S
C102 C104 1.360 . S
C103 C102 1.413 . S
C103 C107 1.429 . S
C104 C102 1.360 . S
C104 C105 1.372 . S
C105 H100 0.928 . S
C105 C104 1.372 . S
C105 C106 1.404 . S
C106 C105 1.404 . S
C106 C107 1.391 . S
C107 H101 0.930 . S
C107 C103 1.429 . S
C107 C106 1.391 . S
H108 C111 0.931 . S
H109 C114 0.928 . S
H110 C116 0.930 . S
C111 H108 0.931 . S
C111 C112 1.413 . S
C111 C113 1.360 . S
C112 C111 1.413 . S
C112 C116 1.429 . S
C113 C111 1.360 . S
C113 C114 1.372 . S
C114 H109 0.928 . S
C114 C113 1.372 . S
C114 C115 1.404 . S
C115 C114 1.404 . S
C115 C116 1.391 . S
C116 H110 0.930 . S
C116 C112 1.429 . S
C116 C115 1.391 . S
H117 C120 0.931 . S
H118 C123 0.928 . S
H119 C125 0.930 . S
C120 H117 0.931 . S
C120 C121 1.413 . S
C120 C122 1.360 . S
C121 C120 1.413 . S
C121 C125 1.429 . S
C122 C120 1.360 . S
C122 C123 1.372 . S
C123 H118 0.928 . S
C123 C122 1.372 . S
C123 C124 1.404 . S
C124 C123 1.404 . S
C124 C125 1.391 . S
C125 H119 0.930 . S
C125 C121 1.429 . S
C125 C124 1.391 . S
H126 C129 0.931 . S
H127 C132 0.928 . S
H128 C134 0.930 . S
C129 H126 0.931 . S
C129 C130 1.413 . S
C129 C131 1.360 . S
C130 C129 1.413 . S
C130 C134 1.429 . S
C131 C129 1.360 . S
C131 C132 1.372 . S
C132 H127 0.928 . S
C132 C131 1.372 . S
C132 C133 1.404 . S
C133 C132 1.404 . S
C133 C134 1.391 . S
C134 H128 0.930 . S
C134 C130 1.429 . S
C134 C133 1.391 . S
H135 C138 0.931 . S
H136 C141 0.928 . S
H137 C143 0.930 . S
C138 H135 0.931 . S
C138 C139 1.413 . S
C138 C140 1.360 . S
C139 C138 1.413 . S
C139 C143 1.429 . S
C140 C138 1.360 . S
C140 C141 1.372 . S
C141 H136 0.928 . S
C141 C140 1.372 . S
C141 C142 1.404 . S
C142 C141 1.404 . S
C142 C143 1.391 . S
C143 H137 0.930 . S
C143 C139 1.429 . S
C143 C142 1.391 . S
H144 C147 0.931 . S
H145 C150 0.928 . S
H146 C152 0.930 . S
C147 H144 0.931 . S
C147 C148 1.413 . S
C147 C149 1.360 . S
C148 C147 1.413 . S
C148 C152 1.429 . S
C149 C147 1.360 . S
C149 C150 1.372 . S
C150 H145 0.928 . S
C150 C149 1.372 . S
C150 C151 1.404 . S
C151 C150 1.404 . S
C151 C152 1.391 . S
C152 H146 0.930 . S
C152 C148 1.429 . S
C152 C151 1.391 . S
H153 C156 0.931 . S
H154 C159 0.928 . S
H155 C161 0.930 . S
C156 H153 0.931 . S
C156 C157 1.413 . S
C156 C158 1.360 . S
C157 C156 1.413 . S
C157 C161 1.429 . S
C158 C156 1.360 . S
C158 C159 1.372 . S
C159 H154 0.928 . S
C159 C158 1.372 . S
C159 C160 1.404 . S
C160 C159 1.404 . S
C160 C161 1.391 . S
C161 H155 0.930 . S
C161 C157 1.429 . S
C161 C160 1.391 . S
Gd162 N193 2.661 . S
Gd162 N199 2.601 . S
Gd162 O206 2.545 . S
Gd162 O207 2.606 1_545 S
Gd162 O209 2.429 . S
Gd162 O210 2.545 1_545 S
Gd162 O211 2.412 . S
Gd162 O213 2.362 1_554 S
Gd162 O214 2.324 1_545 S
Gd162 C221 2.828 . S
Gd163 N172 2.661 . S
Gd163 N176 2.601 . S
Gd163 O207 2.362 1_556 S
Gd163 O208 2.324 1_565 S
Gd163 O212 2.545 . S
Gd163 O213 2.606 1_565 S
Gd163 O215 2.429 . S
Gd163 O216 2.545 1_565 S
Gd163 O217 2.412 . S
Gd163 C230 2.828 . S
C164 C167 1.417 . S
C164 C169 1.431 . S
C164 C170 1.412 . S
C165 C168 1.437 . S
C165 C169 1.317 . S
C165 H184 0.929 . S
C166 C167 1.426 . S
C166 C168 1.413 . S
C166 N176 1.359 . S
C167 C164 1.417 . S
C167 C166 1.426 . S
C167 N172 1.350 . S
C168 C165 1.437 . S
C168 C166 1.413 . S
C168 C178 1.391 . S
C169 C164 1.431 . S
C169 C165 1.317 . S
C169 H180 0.930 . S
C170 C164 1.412 . S
C170 C171 1.355 . S
C170 H182 0.930 . S
C171 C170 1.355 . S
C171 C173 1.402 . S
C171 H183 0.930 . S
N172 Gd163 2.661 . S
N172 C167 1.350 . S
N172 C173 1.307 . S
C173 C171 1.402 . S
C173 N172 1.307 . S
C173 H174 0.930 . S
H174 C173 0.930 . S
C175 N176 1.334 . S
C175 C177 1.394 . S
C175 H179 0.930 . S
N176 Gd163 2.601 . S
N176 C166 1.359 . S
N176 C175 1.334 . S
C177 C175 1.394 . S
C177 C178 1.359 . S
C177 H189 0.930 . S
C178 C168 1.391 . S
C178 C177 1.359 . S
C178 H190 0.929 . S
H179 C175 0.930 . S
H180 C169 0.930 . S
H181 C198 0.930 . S
H182 C170 0.930 . S
H183 C171 0.930 . S
H184 C165 0.929 . S
H185 C203 0.930 . S
H186 C194 0.930 . S
H187 C195 0.930 . S
H188 C219 0.929 . S
H189 C177 0.930 . S
H190 C178 0.929 . S
H191 C220 0.930 . S
H192 C201 0.930 . S
N193 Gd162 2.661 . S
N193 C197 1.350 . S
N193 C198 1.307 . S
C194 H186 0.930 . S
C194 C195 1.355 . S
C194 C196 1.412 . S
C195 H187 0.930 . S
C195 C194 1.355 . S
C195 C198 1.402 . S
C196 C194 1.412 . S
C196 C197 1.417 . S
C196 C220 1.431 . S
C197 N193 1.350 . S
C197 C196 1.417 . S
C197 C200 1.426 . S
C198 H181 0.930 . S
C198 N193 1.307 . S
C198 C195 1.402 . S
N199 Gd162 2.601 . S
N199 C200 1.359 . S
N199 C203 1.334 . S
C200 C197 1.426 . S
C200 N199 1.359 . S
C200 C204 1.413 . S
C201 H192 0.930 . S
C201 C202 1.359 . S
C201 C203 1.394 . S
C202 C201 1.359 . S
C202 C204 1.391 . S
C202 H205 0.929 . S
C203 H185 0.930 . S
C203 N199 1.334 . S
C203 C201 1.394 . S
C204 C200 1.413 . S
C204 C202 1.391 . S
C204 C219 1.437 . S
H205 C202 0.929 . S
O206 Gd162 2.545 . S
O206 C221 1.258 . S
O207 Gd162 2.606 1_565 S
O207 Gd163 2.362 1_554 S
O207 C218 1.284 . S
O208 Gd163 2.324 1_545 S
O208 C228 1.254 . S
O209 Gd162 2.429 . S
O209 C228 1.268 1_554 S
O210 Gd162 2.545 1_565 S
O210 C218 1.250 . S
O211 Gd162 2.412 . S
O211 C221 1.252 . S
O212 Gd163 2.545 . S
O212 C230 1.258 . S
O213 Gd162 2.362 1_556 S
O213 Gd163 2.606 1_545 S
O213 C229 1.284 . S
O214 Gd162 2.324 1_565 S
O214 C237 1.254 . S
O215 Gd163 2.429 . S
O215 C237 1.268 1_556 S
O216 Gd163 2.545 1_545 S
O216 C229 1.250 . S
O217 Gd163 2.412 . S
O217 C230 1.252 . S
C218 O207 1.284 . S
C218 O210 1.250 . S
C219 H188 0.929 . S
C219 C204 1.437 . S
C219 C220 1.317 . S
C220 H191 0.930 . S
C220 C196 1.431 . S
C220 C219 1.317 . S
C221 Gd162 2.828 . S
C221 O206 1.258 . S
C221 O211 1.252 . S
C221 C222 1.497 . S
C222 C221 1.497 . S
C222 C223 1.395 . S
C222 C224 1.380 1_545 S
C223 C222 1.395 . S
C223 C226 1.398 . S
C223 H238 0.930 . S
C224 C222 1.380 1_565 S
C224 C225 1.391 . S
C224 H239 0.930 . S
C225 C224 1.391 . S
C225 C227 1.387 1_565 S
C226 C223 1.398 . S
C226 C227 1.380 . S
C226 H240 0.930 . S
C227 C225 1.387 1_545 S
C227 C226 1.380 . S
C227 H241 0.930 . S
C228 O208 1.254 . S
C228 O209 1.268 1_556 S
C229 O213 1.284 . S
C229 O216 1.250 . S
C230 Gd163 2.828 . S
C230 O212 1.258 . S
C230 O217 1.252 . S
C230 C231 1.497 . S
C231 C230 1.497 . S
C231 C232 1.395 . S
C231 C233 1.380 1_565 S
C232 C231 1.395 . S
C232 C235 1.398 . S
C232 H242 0.930 . S
C233 C231 1.380 1_545 S
C233 C234 1.391 . S
C233 H243 0.930 . S
C234 C233 1.391 . S
C234 C236 1.387 1_545 S
C235 C232 1.398 . S
C235 C236 1.380 . S
C235 H244 0.930 . S
C236 C234 1.387 1_565 S
C236 C235 1.380 . S
C236 H245 0.930 . S
C237 O214 1.254 . S
C237 O215 1.268 1_554 S
H238 C223 0.930 . S
H239 C224 0.930 . S
H240 C226 0.930 . S
H241 C227 0.930 . S
H242 C232 0.930 . S
H243 C233 0.930 . S
H244 C235 0.930 . S
H245 C236 0.930 . S
Gd246 N277 2.661 . S
Gd246 N283 2.601 . S
Gd246 O290 2.545 . S
Gd246 O291 2.606 1_655 S
Gd246 O293 2.429 . S
Gd246 O294 2.545 1_655 S
Gd246 O295 2.412 . S
Gd246 O297 2.362 1_554 S
Gd246 O298 2.324 1_655 S
Gd246 C305 2.828 . S
Gd247 N256 2.661 . S
Gd247 N260 2.601 . S
Gd247 O291 2.362 1_556 S
Gd247 O292 2.324 1_455 S
Gd247 O296 2.545 . S
Gd247 O297 2.606 1_455 S
Gd247 O299 2.429 . S
Gd247 O300 2.545 1_455 S
Gd247 O301 2.412 . S
Gd247 C314 2.828 . S
C248 C251 1.417 . S
C248 C253 1.431 . S
C248 C254 1.412 . S
C249 C252 1.437 . S
C249 C253 1.317 . S
C249 H268 0.929 . S
C250 C251 1.426 . S
C250 C252 1.413 . S
C250 N260 1.359 . S
C251 C248 1.417 . S
C251 C250 1.426 . S
C251 N256 1.350 . S
C252 C249 1.437 . S
C252 C250 1.413 . S
C252 C262 1.391 . S
C253 C248 1.431 . S
C253 C249 1.317 . S
C253 H264 0.930 . S
C254 C248 1.412 . S
C254 C255 1.355 . S
C254 H266 0.930 . S
C255 C254 1.355 . S
C255 C257 1.402 . S
C255 H267 0.930 . S
N256 Gd247 2.661 . S
N256 C251 1.350 . S
N256 C257 1.307 . S
C257 C255 1.402 . S
C257 N256 1.307 . S
C257 H258 0.930 . S
H258 C257 0.930 . S
C259 N260 1.334 . S
C259 C261 1.394 . S
C259 H263 0.930 . S
N260 Gd247 2.601 . S
N260 C250 1.359 . S
N260 C259 1.334 . S
C261 C259 1.394 . S
C261 C262 1.359 . S
C261 H273 0.930 . S
C262 C252 1.391 . S
C262 C261 1.359 . S
C262 H274 0.929 . S
H263 C259 0.930 . S
H264 C253 0.930 . S
H265 C282 0.930 . S
H266 C254 0.930 . S
H267 C255 0.930 . S
H268 C249 0.929 . S
H269 C287 0.930 . S
H270 C278 0.930 . S
H271 C279 0.930 . S
H272 C303 0.929 . S
H273 C261 0.930 . S
H274 C262 0.929 . S
H275 C304 0.930 . S
H276 C285 0.930 . S
N277 Gd246 2.661 . S
N277 C281 1.350 . S
N277 C282 1.307 . S
C278 H270 0.930 . S
C278 C279 1.355 . S
C278 C280 1.412 . S
C279 H271 0.930 . S
C279 C278 1.355 . S
C279 C282 1.402 . S
C280 C278 1.412 . S
C280 C281 1.417 . S
C280 C304 1.431 . S
C281 N277 1.350 . S
C281 C280 1.417 . S
C281 C284 1.426 . S
C282 H265 0.930 . S
C282 N277 1.307 . S
C282 C279 1.402 . S
N283 Gd246 2.601 . S
N283 C284 1.359 . S
N283 C287 1.334 . S
C284 C281 1.426 . S
C284 N283 1.359 . S
C284 C288 1.413 . S
C285 H276 0.930 . S
C285 C286 1.359 . S
C285 C287 1.394 . S
C286 C285 1.359 . S
C286 C288 1.391 . S
C286 H289 0.929 . S
C287 H269 0.930 . S
C287 N283 1.334 . S
C287 C285 1.394 . S
C288 C284 1.413 . S
C288 C286 1.391 . S
C288 C303 1.437 . S
H289 C286 0.929 . S
O290 Gd246 2.545 . S
O290 C305 1.258 . S
O291 Gd246 2.606 1_455 S
O291 Gd247 2.362 1_554 S
O291 C302 1.284 . S
O292 Gd247 2.324 1_655 S
O292 C312 1.254 . S
O293 Gd246 2.429 . S
O293 C312 1.268 1_554 S
O294 Gd246 2.545 1_455 S
O294 C302 1.250 . S
O295 Gd246 2.412 . S
O295 C305 1.252 . S
O296 Gd247 2.545 . S
O296 C314 1.258 . S
O297 Gd246 2.362 1_556 S
O297 Gd247 2.606 1_655 S
O297 C313 1.284 . S
O298 Gd246 2.324 1_455 S
O298 C321 1.254 . S
O299 Gd247 2.429 . S
O299 C321 1.268 1_556 S
O300 Gd247 2.545 1_655 S
O300 C313 1.250 . S
O301 Gd247 2.412 . S
O301 C314 1.252 . S
C302 O291 1.284 . S
C302 O294 1.250 . S
C303 H272 0.929 . S
C303 C288 1.437 . S
C303 C304 1.317 . S
C304 H275 0.930 . S
C304 C280 1.431 . S
C304 C303 1.317 . S
C305 Gd246 2.828 . S
C305 O290 1.258 . S
C305 O295 1.252 . S
C305 C306 1.497 . S
C306 C305 1.497 . S
C306 C307 1.395 . S
C306 C308 1.380 1_655 S
C307 C306 1.395 . S
C307 C310 1.398 . S
C307 H322 0.930 . S
C308 C306 1.380 1_455 S
C308 C309 1.391 . S
C308 H323 0.930 . S
C309 C308 1.391 . S
C309 C311 1.387 1_455 S
C310 C307 1.398 . S
C310 C311 1.380 . S
C310 H324 0.930 . S
C311 C309 1.387 1_655 S
C311 C310 1.380 . S
C311 H325 0.930 . S
C312 O292 1.254 . S
C312 O293 1.268 1_556 S
C313 O297 1.284 . S
C313 O300 1.250 . S
C314 Gd247 2.828 . S
C314 O296 1.258 . S
C314 O301 1.252 . S
C314 C315 1.497 . S
C315 C314 1.497 . S
C315 C316 1.395 . S
C315 C317 1.380 1_455 S
C316 C315 1.395 . S
C316 C319 1.398 . S
C316 H326 0.930 . S
C317 C315 1.380 1_655 S
C317 C318 1.391 . S
C317 H327 0.930 . S
C318 C317 1.391 . S
C318 C320 1.387 1_655 S
C319 C316 1.398 . S
C319 C320 1.380 . S
C319 H328 0.930 . S
C320 C318 1.387 1_455 S
C320 C319 1.380 . S
C320 H329 0.930 . S
C321 O298 1.254 . S
C321 O299 1.268 1_554 S
H322 C307 0.930 . S
H323 C308 0.930 . S
H324 C310 0.930 . S
H325 C311 0.930 . S
H326 C316 0.930 . S
H327 C317 0.930 . S
H328 C319 0.930 . S
H329 C320 0.930 . S
Gd330 N361 2.661 . S
Gd330 N367 2.601 . S
Gd330 O374 2.545 . S
Gd330 O375 2.606 . S
Gd330 O377 2.429 . S
Gd330 O378 2.545 . S
Gd330 O379 2.412 . S
Gd330 O381 2.362 1_556 S
Gd330 O382 2.324 . S
Gd330 C389 2.828 . S
Gd331 N340 2.661 . S
Gd331 N344 2.601 . S
Gd331 O375 2.362 1_554 S
Gd331 O376 2.324 . S
Gd331 O380 2.545 . S
Gd331 O381 2.606 . S
Gd331 O383 2.429 . S
Gd331 O384 2.545 . S
Gd331 O385 2.412 . S
Gd331 C398 2.828 . S
C332 C335 1.417 . S
C332 C337 1.431 . S
C332 C338 1.412 . S
C333 C336 1.437 . S
C333 C337 1.317 . S
C333 H352 0.929 . S
C334 C335 1.426 . S
C334 C336 1.413 . S
C334 N344 1.359 . S
C335 C332 1.417 . S
C335 C334 1.426 . S
C335 N340 1.350 . S
C336 C333 1.437 . S
C336 C334 1.413 . S
C336 C346 1.391 . S
C337 C332 1.431 . S
C337 C333 1.317 . S
C337 H348 0.930 . S
C338 C332 1.412 . S
C338 C339 1.355 . S
C338 H350 0.930 . S
C339 C338 1.355 . S
C339 C341 1.402 . S
C339 H351 0.930 . S
N340 Gd331 2.661 . S
N340 C335 1.350 . S
N340 C341 1.307 . S
C341 C339 1.402 . S
C341 N340 1.307 . S
C341 H342 0.930 . S
H342 C341 0.930 . S
C343 N344 1.334 . S
C343 C345 1.394 . S
C343 H347 0.930 . S
N344 Gd331 2.601 . S
N344 C334 1.359 . S
N344 C343 1.334 . S
C345 C343 1.394 . S
C345 C346 1.359 . S
C345 H357 0.930 . S
C346 C336 1.391 . S
C346 C345 1.359 . S
C346 H358 0.929 . S
H347 C343 0.930 . S
H348 C337 0.930 . S
H349 C366 0.930 . S
H350 C338 0.930 . S
H351 C339 0.930 . S
H352 C333 0.929 . S
H353 C371 0.930 . S
H354 C362 0.930 . S
H355 C363 0.930 . S
H356 C387 0.929 . S
H357 C345 0.930 . S
H358 C346 0.929 . S
H359 C388 0.930 . S
H360 C369 0.930 . S
N361 Gd330 2.661 . S
N361 C365 1.350 . S
N361 C366 1.307 . S
C362 H354 0.930 . S
C362 C363 1.355 . S
C362 C364 1.412 . S
C363 H355 0.930 . S
C363 C362 1.355 . S
C363 C366 1.402 . S
C364 C362 1.412 . S
C364 C365 1.417 . S
C364 C388 1.431 . S
C365 N361 1.350 . S
C365 C364 1.417 . S
C365 C368 1.426 . S
C366 H349 0.930 . S
C366 N361 1.307 . S
C366 C363 1.402 . S
N367 Gd330 2.601 . S
N367 C368 1.359 . S
N367 C371 1.334 . S
C368 C365 1.426 . S
C368 N367 1.359 . S
C368 C372 1.413 . S
C369 H360 0.930 . S
C369 C370 1.359 . S
C369 C371 1.394 . S
C370 C369 1.359 . S
C370 C372 1.391 . S
C370 H373 0.929 . S
C371 H353 0.930 . S
C371 N367 1.334 . S
C371 C369 1.394 . S
C372 C368 1.413 . S
C372 C370 1.391 . S
C372 C387 1.437 . S
H373 C370 0.929 . S
O374 Gd330 2.545 . S
O374 C389 1.258 . S
O375 Gd330 2.606 . S
O375 Gd331 2.362 1_556 S
O375 C386 1.284 . S
O376 Gd331 2.324 . S
O376 C396 1.254 . S
O377 Gd330 2.429 . S
O377 C396 1.268 1_556 S
O378 Gd330 2.545 . S
O378 C386 1.250 . S
O379 Gd330 2.412 . S
O379 C389 1.252 . S
O380 Gd331 2.545 . S
O380 C398 1.258 . S
O381 Gd330 2.362 1_554 S
O381 Gd331 2.606 . S
O381 C397 1.284 . S
O382 Gd330 2.324 . S
O382 C405 1.254 . S
O383 Gd331 2.429 . S
O383 C405 1.268 1_554 S
O384 Gd331 2.545 . S
O384 C397 1.250 . S
O385 Gd331 2.412 . S
O385 C398 1.252 . S
C386 O375 1.284 . S
C386 O378 1.250 . S
C387 H356 0.929 . S
C387 C372 1.437 . S
C387 C388 1.317 . S
C388 H359 0.930 . S
C388 C364 1.431 . S
C388 C387 1.317 . S
C389 Gd330 2.828 . S
C389 O374 1.258 . S
C389 O379 1.252 . S
C389 C390 1.497 . S
C390 C389 1.497 . S
C390 C391 1.395 . S
C390 C392 1.380 . S
C391 C390 1.395 . S
C391 C394 1.398 . S
C391 H406 0.930 . S
C392 C390 1.380 . S
C392 C393 1.391 . S
C392 H407 0.930 . S
C393 C392 1.391 . S
C393 C395 1.387 . S
C394 C391 1.398 . S
C394 C395 1.380 . S
C394 H408 0.930 . S
C395 C393 1.387 . S
C395 C394 1.380 . S
C395 H409 0.930 . S
C396 O376 1.254 . S
C396 O377 1.268 1_554 S
C397 O381 1.284 . S
C397 O384 1.250 . S
C398 Gd331 2.828 . S
C398 O380 1.258 . S
C398 O385 1.252 . S
C398 C399 1.497 . S
C399 C398 1.497 . S
C399 C400 1.395 . S
C399 C401 1.380 . S
C400 C399 1.395 . S
C400 C403 1.398 . S
C400 H410 0.930 . S
C401 C399 1.380 . S
C401 C402 1.391 . S
C401 H411 0.930 . S
C402 C401 1.391 . S
C402 C404 1.387 . S
C403 C400 1.398 . S
C403 C404 1.380 . S
C403 H412 0.930 . S
C404 C402 1.387 . S
C404 C403 1.380 . S
C404 H413 0.930 . S
C405 O382 1.254 . S
C405 O383 1.268 1_556 S
H406 C391 0.930 . S
H407 C392 0.930 . S
H408 C394 0.930 . S
H409 C395 0.930 . S
H410 C400 0.930 . S
H411 C401 0.930 . S
H412 C403 0.930 . S
H413 C404 0.930 . S
Gd414 N445 2.661 . S
Gd414 N451 2.601 . S
Gd414 O458 2.545 . S
Gd414 O459 2.606 . S
Gd414 O461 2.429 . S
Gd414 O462 2.545 . S
Gd414 O463 2.412 . S
Gd414 O465 2.362 . S
Gd414 O466 2.324 . S
Gd414 C473 2.828 . S
Gd415 N424 2.661 . S
Gd415 N428 2.601 . S
Gd415 O459 2.362 . S
Gd415 O460 2.324 . S
Gd415 O464 2.545 . S
Gd415 O465 2.606 . S
Gd415 O467 2.429 . S
Gd415 O468 2.545 . S
Gd415 O469 2.412 . S
Gd415 C482 2.828 . S
C416 C419 1.417 . S
C416 C421 1.431 . S
C416 C422 1.412 . S
C417 C420 1.437 . S
C417 C421 1.317 . S
C417 H436 0.929 . S
C418 C419 1.426 . S
C418 C420 1.413 . S
C418 N428 1.359 . S
C419 C416 1.417 . S
C419 C418 1.426 . S
C419 N424 1.350 . S
C420 C417 1.437 . S
C420 C418 1.413 . S
C420 C430 1.391 . S
C421 C416 1.431 . S
C421 C417 1.317 . S
C421 H432 0.930 . S
C422 C416 1.412 . S
C422 C423 1.355 . S
C422 H434 0.930 . S
C423 C422 1.355 . S
C423 C425 1.402 . S
C423 H435 0.930 . S
N424 Gd415 2.661 . S
N424 C419 1.350 . S
N424 C425 1.307 . S
C425 C423 1.402 . S
C425 N424 1.307 . S
C425 H426 0.930 . S
H426 C425 0.930 . S
C427 N428 1.334 . S
C427 C429 1.394 . S
C427 H431 0.930 . S
N428 Gd415 2.601 . S
N428 C418 1.359 . S
N428 C427 1.334 . S
C429 C427 1.394 . S
C429 C430 1.359 . S
C429 H441 0.930 . S
C430 C420 1.391 . S
C430 C429 1.359 . S
C430 H442 0.929 . S
H431 C427 0.930 . S
H432 C421 0.930 . S
H433 C450 0.930 . S
H434 C422 0.930 . S
H435 C423 0.930 . S
H436 C417 0.929 . S
H437 C455 0.930 . S
H438 C446 0.930 . S
H439 C447 0.930 . S
H440 C471 0.929 . S
H441 C429 0.930 . S
H442 C430 0.929 . S
H443 C472 0.930 . S
H444 C453 0.930 . S
N445 Gd414 2.661 . S
N445 C449 1.350 . S
N445 C450 1.307 . S
C446 H438 0.930 . S
C446 C447 1.355 . S
C446 C448 1.412 . S
C447 H439 0.930 . S
C447 C446 1.355 . S
C447 C450 1.402 . S
C448 C446 1.412 . S
C448 C449 1.417 . S
C448 C472 1.431 . S
C449 N445 1.350 . S
C449 C448 1.417 . S
C449 C452 1.426 . S
C450 H433 0.930 . S
C450 N445 1.307 . S
C450 C447 1.402 . S
N451 Gd414 2.601 . S
N451 C452 1.359 . S
N451 C455 1.334 . S
C452 C449 1.426 . S
C452 N451 1.359 . S
C452 C456 1.413 . S
C453 H444 0.930 . S
C453 C454 1.359 . S
C453 C455 1.394 . S
C454 C453 1.359 . S
C454 C456 1.391 . S
C454 H457 0.929 . S
C455 H437 0.930 . S
C455 N451 1.334 . S
C455 C453 1.394 . S
C456 C452 1.413 . S
C456 C454 1.391 . S
C456 C471 1.437 . S
H457 C454 0.929 . S
O458 Gd414 2.545 . S
O458 C473 1.258 . S
O459 Gd414 2.606 . S
O459 Gd415 2.362 . S
O459 C470 1.284 . S
O460 Gd415 2.324 . S
O460 C480 1.254 . S
O461 Gd414 2.429 . S
O461 C480 1.268 . S
O462 Gd414 2.545 . S
O462 C470 1.250 . S
O463 Gd414 2.412 . S
O463 C473 1.252 . S
O464 Gd415 2.545 . S
O464 C482 1.258 . S
O465 Gd414 2.362 . S
O465 Gd415 2.606 . S
O465 C481 1.284 . S
O466 Gd414 2.324 . S
O466 C489 1.254 . S
O467 Gd415 2.429 . S
O467 C489 1.268 . S
O468 Gd415 2.545 . S
O468 C481 1.250 . S
O469 Gd415 2.412 . S
O469 C482 1.252 . S
C470 O459 1.284 . S
C470 O462 1.250 . S
C471 H440 0.929 . S
C471 C456 1.437 . S
C471 C472 1.317 . S
C472 H443 0.930 . S
C472 C448 1.431 . S
C472 C471 1.317 . S
C473 Gd414 2.828 . S
C473 O458 1.258 . S
C473 O463 1.252 . S
C473 C474 1.497 . S
C474 C473 1.497 . S
C474 C475 1.395 . S
C474 C476 1.380 . S
C475 C474 1.395 . S
C475 C478 1.398 . S
C475 H490 0.930 . S
C476 C474 1.380 . S
C476 C477 1.391 . S
C476 H491 0.930 . S
C477 C476 1.391 . S
C477 C479 1.387 . S
C478 C475 1.398 . S
C478 C479 1.380 . S
C478 H492 0.930 . S
C479 C477 1.387 . S
C479 C478 1.380 . S
C479 H493 0.930 . S
C480 O460 1.254 . S
C480 O461 1.268 . S
C481 O465 1.284 . S
C481 O468 1.250 . S
C482 Gd415 2.828 . S
C482 O464 1.258 . S
C482 O469 1.252 . S
C482 C483 1.497 . S
C483 C482 1.497 . S
C483 C484 1.395 . S
C483 C485 1.380 . S
C484 C483 1.395 . S
C484 C487 1.398 . S
C484 H494 0.930 . S
C485 C483 1.380 . S
C485 C486 1.391 . S
C485 H495 0.930 . S
C486 C485 1.391 . S
C486 C488 1.387 . S
C487 C484 1.398 . S
C487 C488 1.380 . S
C487 H496 0.930 . S
C488 C486 1.387 . S
C488 C487 1.380 . S
C488 H497 0.930 . S
C489 O466 1.254 . S
C489 O467 1.268 . S
H490 C475 0.930 . S
H491 C476 0.930 . S
H492 C478 0.930 . S
H493 C479 0.930 . S
H494 C484 0.930 . S
H495 C485 0.930 . S
H496 C487 0.930 . S
H497 C488 0.930 . S
Gd498 N529 2.661 . S
Gd498 N535 2.601 . S
Gd498 O542 2.545 . S
Gd498 O543 2.606 . S
Gd498 O545 2.429 . S
Gd498 O546 2.545 . S
Gd498 O547 2.412 . S
Gd498 O549 2.362 . S
Gd498 O550 2.324 . S
Gd498 C557 2.828 . S
Gd499 N508 2.661 . S
Gd499 N512 2.601 . S
Gd499 O543 2.362 . S
Gd499 O544 2.324 . S
Gd499 O548 2.545 . S
Gd499 O549 2.606 . S
Gd499 O551 2.429 . S
Gd499 O552 2.545 . S
Gd499 O553 2.412 . S
Gd499 C566 2.828 . S
C500 C503 1.417 . S
C500 C505 1.431 . S
C500 C506 1.412 . S
C501 C504 1.437 . S
C501 C505 1.317 . S
C501 H520 0.929 . S
C502 C503 1.426 . S
C502 C504 1.413 . S
C502 N512 1.359 . S
C503 C500 1.417 . S
C503 C502 1.426 . S
C503 N508 1.350 . S
C504 C501 1.437 . S
C504 C502 1.413 . S
C504 C514 1.391 . S
C505 C500 1.431 . S
C505 C501 1.317 . S
C505 H516 0.930 . S
C506 C500 1.412 . S
C506 C507 1.355 . S
C506 H518 0.930 . S
C507 C506 1.355 . S
C507 C509 1.402 . S
C507 H519 0.930 . S
N508 Gd499 2.661 . S
N508 C503 1.350 . S
N508 C509 1.307 . S
C509 C507 1.402 . S
C509 N508 1.307 . S
C509 H510 0.930 . S
H510 C509 0.930 . S
C511 N512 1.334 . S
C511 C513 1.394 . S
C511 H515 0.930 . S
N512 Gd499 2.601 . S
N512 C502 1.359 . S
N512 C511 1.334 . S
C513 C511 1.394 . S
C513 C514 1.359 . S
C513 H525 0.930 . S
C514 C504 1.391 . S
C514 C513 1.359 . S
C514 H526 0.929 . S
H515 C511 0.930 . S
H516 C505 0.930 . S
H517 C534 0.930 . S
H518 C506 0.930 . S
H519 C507 0.930 . S
H520 C501 0.929 . S
H521 C539 0.930 . S
H522 C530 0.930 . S
H523 C531 0.930 . S
H524 C555 0.929 . S
H525 C513 0.930 . S
H526 C514 0.929 . S
H527 C556 0.930 . S
H528 C537 0.930 . S
N529 Gd498 2.661 . S
N529 C533 1.350 . S
N529 C534 1.307 . S
C530 H522 0.930 . S
C530 C531 1.355 . S
C530 C532 1.412 . S
C531 H523 0.930 . S
C531 C530 1.355 . S
C531 C534 1.402 . S
C532 C530 1.412 . S
C532 C533 1.417 . S
C532 C556 1.431 . S
C533 N529 1.350 . S
C533 C532 1.417 . S
C533 C536 1.426 . S
C534 H517 0.930 . S
C534 N529 1.307 . S
C534 C531 1.402 . S
N535 Gd498 2.601 . S
N535 C536 1.359 . S
N535 C539 1.334 . S
C536 C533 1.426 . S
C536 N535 1.359 . S
C536 C540 1.413 . S
C537 H528 0.930 . S
C537 C538 1.359 . S
C537 C539 1.394 . S
C538 C537 1.359 . S
C538 C540 1.391 . S
C538 H541 0.929 . S
C539 H521 0.930 . S
C539 N535 1.334 . S
C539 C537 1.394 . S
C540 C536 1.413 . S
C540 C538 1.391 . S
C540 C555 1.437 . S
H541 C538 0.929 . S
O542 Gd498 2.545 . S
O542 C557 1.258 . S
O543 Gd498 2.606 . S
O543 Gd499 2.362 . S
O543 C554 1.284 . S
O544 Gd499 2.324 . S
O544 C564 1.254 . S
O545 Gd498 2.429 . S
O545 C564 1.268 . S
O546 Gd498 2.545 . S
O546 C554 1.250 . S
O547 Gd498 2.412 . S
O547 C557 1.252 . S
O548 Gd499 2.545 . S
O548 C566 1.258 . S
O549 Gd498 2.362 . S
O549 Gd499 2.606 . S
O549 C565 1.284 . S
O550 Gd498 2.324 . S
O550 C573 1.254 . S
O551 Gd499 2.429 . S
O551 C573 1.268 . S
O552 Gd499 2.545 . S
O552 C565 1.250 . S
O553 Gd499 2.412 . S
O553 C566 1.252 . S
C554 O543 1.284 . S
C554 O546 1.250 . S
C555 H524 0.929 . S
C555 C540 1.437 . S
C555 C556 1.317 . S
C556 H527 0.930 . S
C556 C532 1.431 . S
C556 C555 1.317 . S
C557 Gd498 2.828 . S
C557 O542 1.258 . S
C557 O547 1.252 . S
C557 C558 1.497 . S
C558 C557 1.497 . S
C558 C559 1.395 . S
C558 C560 1.380 . S
C559 C558 1.395 . S
C559 C562 1.398 . S
C559 H574 0.930 . S
C560 C558 1.380 . S
C560 C561 1.391 . S
C560 H575 0.930 . S
C561 C560 1.391 . S
C561 C563 1.387 . S
C562 C559 1.398 . S
C562 C563 1.380 . S
C562 H576 0.930 . S
C563 C561 1.387 . S
C563 C562 1.380 . S
C563 H577 0.930 . S
C564 O544 1.254 . S
C564 O545 1.268 . S
C565 O549 1.284 . S
C565 O552 1.250 . S
C566 Gd499 2.828 . S
C566 O548 1.258 . S
C566 O553 1.252 . S
C566 C567 1.497 . S
C567 C566 1.497 . S
C567 C568 1.395 . S
C567 C569 1.380 . S
C568 C567 1.395 . S
C568 C571 1.398 . S
C568 H578 0.930 . S
C569 C567 1.380 . S
C569 C570 1.391 . S
C569 H579 0.930 . S
C570 C569 1.391 . S
C570 C572 1.387 . S
C571 C568 1.398 . S
C571 C572 1.380 . S
C571 H580 0.930 . S
C572 C570 1.387 . S
C572 C571 1.380 . S
C572 H581 0.930 . S
C573 O550 1.254 . S
C573 O551 1.268 . S
H574 C559 0.930 . S
H575 C560 0.930 . S
H576 C562 0.930 . S
H577 C563 0.930 . S
H578 C568 0.930 . S
H579 C569 0.930 . S
H580 C571 0.930 . S
H581 C572 0.930 . S
Gd582 N613 2.661 . S
Gd582 N619 2.601 . S
Gd582 O626 2.545 . S
Gd582 O627 2.606 . S
Gd582 O629 2.429 . S
Gd582 O630 2.545 . S
Gd582 O631 2.412 . S
Gd582 O633 2.362 . S
Gd582 O634 2.324 . S
Gd582 C641 2.828 . S
Gd583 N592 2.661 . S
Gd583 N596 2.601 . S
Gd583 O627 2.362 . S
Gd583 O628 2.324 . S
Gd583 O632 2.545 . S
Gd583 O633 2.606 . S
Gd583 O635 2.429 . S
Gd583 O636 2.545 . S
Gd583 O637 2.412 . S
Gd583 C650 2.828 . S
C584 C587 1.417 . S
C584 C589 1.431 . S
C584 C590 1.412 . S
C585 C588 1.437 . S
C585 C589 1.317 . S
C585 H604 0.929 . S
C586 C587 1.426 . S
C586 C588 1.413 . S
C586 N596 1.359 . S
C587 C584 1.417 . S
C587 C586 1.426 . S
C587 N592 1.350 . S
C588 C585 1.437 . S
C588 C586 1.413 . S
C588 C598 1.391 . S
C589 C584 1.431 . S
C589 C585 1.317 . S
C589 H600 0.930 . S
C590 C584 1.412 . S
C590 C591 1.355 . S
C590 H602 0.930 . S
C591 C590 1.355 . S
C591 C593 1.402 . S
C591 H603 0.930 . S
N592 Gd583 2.661 . S
N592 C587 1.350 . S
N592 C593 1.307 . S
C593 C591 1.402 . S
C593 N592 1.307 . S
C593 H594 0.930 . S
H594 C593 0.930 . S
C595 N596 1.334 . S
C595 C597 1.394 . S
C595 H599 0.930 . S
N596 Gd583 2.601 . S
N596 C586 1.359 . S
N596 C595 1.334 . S
C597 C595 1.394 . S
C597 C598 1.359 . S
C597 H609 0.930 . S
C598 C588 1.391 . S
C598 C597 1.359 . S
C598 H610 0.929 . S
H599 C595 0.930 . S
H600 C589 0.930 . S
H601 C618 0.930 . S
H602 C590 0.930 . S
H603 C591 0.930 . S
H604 C585 0.929 . S
H605 C623 0.930 . S
H606 C614 0.930 . S
H607 C615 0.930 . S
H608 C639 0.929 . S
H609 C597 0.930 . S
H610 C598 0.929 . S
H611 C640 0.930 . S
H612 C621 0.930 . S
N613 Gd582 2.661 . S
N613 C617 1.350 . S
N613 C618 1.307 . S
C614 H606 0.930 . S
C614 C615 1.355 . S
C614 C616 1.412 . S
C615 H607 0.930 . S
C615 C614 1.355 . S
C615 C618 1.402 . S
C616 C614 1.412 . S
C616 C617 1.417 . S
C616 C640 1.431 . S
C617 N613 1.350 . S
C617 C616 1.417 . S
C617 C620 1.426 . S
C618 H601 0.930 . S
C618 N613 1.307 . S
C618 C615 1.402 . S
N619 Gd582 2.601 . S
N619 C620 1.359 . S
N619 C623 1.334 . S
C620 C617 1.426 . S
C620 N619 1.359 . S
C620 C624 1.413 . S
C621 H612 0.930 . S
C621 C622 1.359 . S
C621 C623 1.394 . S
C622 C621 1.359 . S
C622 C624 1.391 . S
C622 H625 0.929 . S
C623 H605 0.930 . S
C623 N619 1.334 . S
C623 C621 1.394 . S
C624 C620 1.413 . S
C624 C622 1.391 . S
C624 C639 1.437 . S
H625 C622 0.929 . S
O626 Gd582 2.545 . S
O626 C641 1.258 . S
O627 Gd582 2.606 . S
O627 Gd583 2.362 . S
O627 C638 1.284 . S
O628 Gd583 2.324 . S
O628 C648 1.254 . S
O629 Gd582 2.429 . S
O629 C648 1.268 . S
O630 Gd582 2.545 . S
O630 C638 1.250 . S
O631 Gd582 2.412 . S
O631 C641 1.252 . S
O632 Gd583 2.545 . S
O632 C650 1.258 . S
O633 Gd582 2.362 . S
O633 Gd583 2.606 . S
O633 C649 1.284 . S
O634 Gd582 2.324 . S
O634 C657 1.254 . S
O635 Gd583 2.429 . S
O635 C657 1.268 . S
O636 Gd583 2.545 . S
O636 C649 1.250 . S
O637 Gd583 2.412 . S
O637 C650 1.252 . S
C638 O627 1.284 . S
C638 O630 1.250 . S
C639 H608 0.929 . S
C639 C624 1.437 . S
C639 C640 1.317 . S
C640 H611 0.930 . S
C640 C616 1.431 . S
C640 C639 1.317 . S
C641 Gd582 2.828 . S
C641 O626 1.258 . S
C641 O631 1.252 . S
C641 C642 1.497 . S
C642 C641 1.497 . S
C642 C643 1.395 . S
C642 C644 1.380 . S
C643 C642 1.395 . S
C643 C646 1.398 . S
C643 H658 0.930 . S
C644 C642 1.380 . S
C644 C645 1.391 . S
C644 H659 0.930 . S
C645 C644 1.391 . S
C645 C647 1.387 . S
C646 C643 1.398 . S
C646 C647 1.380 . S
C646 H660 0.930 . S
C647 C645 1.387 . S
C647 C646 1.380 . S
C647 H661 0.930 . S
C648 O628 1.254 . S
C648 O629 1.268 . S
C649 O633 1.284 . S
C649 O636 1.250 . S
C650 Gd583 2.828 . S
C650 O632 1.258 . S
C650 O637 1.252 . S
C650 C651 1.497 . S
C651 C650 1.497 . S
C651 C652 1.395 . S
C651 C653 1.380 . S
C652 C651 1.395 . S
C652 C655 1.398 . S
C652 H662 0.930 . S
C653 C651 1.380 . S
C653 C654 1.391 . S
C653 H663 0.930 . S
C654 C653 1.391 . S
C654 C656 1.387 . S
C655 C652 1.398 . S
C655 C656 1.380 . S
C655 H664 0.930 . S
C656 C654 1.387 . S
C656 C655 1.380 . S
C656 H665 0.930 . S
C657 O634 1.254 . S
C657 O635 1.268 . S
H658 C643 0.930 . S
H659 C644 0.930 . S
H660 C646 0.930 . S
H661 C647 0.930 . S
H662 C652 0.930 . S
H663 C653 0.930 . S
H664 C655 0.930 . S
H665 C656 0.930 . S
Gd666 N697 2.661 . S
Gd666 N703 2.601 . S
Gd666 O710 2.545 . S
Gd666 O711 2.606 . S
Gd666 O713 2.429 . S
Gd666 O714 2.545 . S
Gd666 O715 2.412 . S
Gd666 O717 2.362 . S
Gd666 O718 2.324 . S
Gd666 C725 2.828 . S
Gd667 N676 2.661 . S
Gd667 N680 2.601 . S
Gd667 O711 2.362 . S
Gd667 O712 2.324 . S
Gd667 O716 2.545 . S
Gd667 O717 2.606 . S
Gd667 O719 2.429 . S
Gd667 O720 2.545 . S
Gd667 O721 2.412 . S
Gd667 C734 2.828 . S
C668 C671 1.417 . S
C668 C673 1.431 . S
C668 C674 1.412 . S
C669 C672 1.437 . S
C669 C673 1.317 . S
C669 H688 0.929 . S
C670 C671 1.426 . S
C670 C672 1.413 . S
C670 N680 1.359 . S
C671 C668 1.417 . S
C671 C670 1.426 . S
C671 N676 1.350 . S
C672 C669 1.437 . S
C672 C670 1.413 . S
C672 C682 1.391 . S
C673 C668 1.431 . S
C673 C669 1.317 . S
C673 H684 0.930 . S
C674 C668 1.412 . S
C674 C675 1.355 . S
C674 H686 0.930 . S
C675 C674 1.355 . S
C675 C677 1.402 . S
C675 H687 0.930 . S
N676 Gd667 2.661 . S
N676 C671 1.350 . S
N676 C677 1.307 . S
C677 C675 1.402 . S
C677 N676 1.307 . S
C677 H678 0.930 . S
H678 C677 0.930 . S
C679 N680 1.334 . S
C679 C681 1.394 . S
C679 H683 0.930 . S
N680 Gd667 2.601 . S
N680 C670 1.359 . S
N680 C679 1.334 . S
C681 C679 1.394 . S
C681 C682 1.359 . S
C681 H693 0.930 . S
C682 C672 1.391 . S
C682 C681 1.359 . S
C682 H694 0.929 . S
H683 C679 0.930 . S
H684 C673 0.930 . S
H685 C702 0.930 . S
H686 C674 0.930 . S
H687 C675 0.930 . S
H688 C669 0.929 . S
H689 C707 0.930 . S
H690 C698 0.930 . S
H691 C699 0.930 . S
H692 C723 0.929 . S
H693 C681 0.930 . S
H694 C682 0.929 . S
H695 C724 0.930 . S
H696 C705 0.930 . S
N697 Gd666 2.661 . S
N697 C701 1.350 . S
N697 C702 1.307 . S
C698 H690 0.930 . S
C698 C699 1.355 . S
C698 C700 1.412 . S
C699 H691 0.930 . S
C699 C698 1.355 . S
C699 C702 1.402 . S
C700 C698 1.412 . S
C700 C701 1.417 . S
C700 C724 1.431 . S
C701 N697 1.350 . S
C701 C700 1.417 . S
C701 C704 1.426 . S
C702 H685 0.930 . S
C702 N697 1.307 . S
C702 C699 1.402 . S
N703 Gd666 2.601 . S
N703 C704 1.359 . S
N703 C707 1.334 . S
C704 C701 1.426 . S
C704 N703 1.359 . S
C704 C708 1.413 . S
C705 H696 0.930 . S
C705 C706 1.359 . S
C705 C707 1.394 . S
C706 C705 1.359 . S
C706 C708 1.391 . S
C706 H709 0.929 . S
C707 H689 0.930 . S
C707 N703 1.334 . S
C707 C705 1.394 . S
C708 C704 1.413 . S
C708 C706 1.391 . S
C708 C723 1.437 . S
H709 C706 0.929 . S
O710 Gd666 2.545 . S
O710 C725 1.258 . S
O711 Gd666 2.606 . S
O711 Gd667 2.362 . S
O711 C722 1.284 . S
O712 Gd667 2.324 . S
O712 C732 1.254 . S
O713 Gd666 2.429 . S
O713 C732 1.268 . S
O714 Gd666 2.545 . S
O714 C722 1.250 . S
O715 Gd666 2.412 . S
O715 C725 1.252 . S
O716 Gd667 2.545 . S
O716 C734 1.258 . S
O717 Gd666 2.362 . S
O717 Gd667 2.606 . S
O717 C733 1.284 . S
O718 Gd666 2.324 . S
O718 C741 1.254 . S
O719 Gd667 2.429 . S
O719 C741 1.268 . S
O720 Gd667 2.545 . S
O720 C733 1.250 . S
O721 Gd667 2.412 . S
O721 C734 1.252 . S
C722 O711 1.284 . S
C722 O714 1.250 . S
C723 H692 0.929 . S
C723 C708 1.437 . S
C723 C724 1.317 . S
C724 H695 0.930 . S
C724 C700 1.431 . S
C724 C723 1.317 . S
C725 Gd666 2.828 . S
C725 O710 1.258 . S
C725 O715 1.252 . S
C725 C726 1.497 . S
C726 C725 1.497 . S
C726 C727 1.395 . S
C726 C728 1.380 . S
C727 C726 1.395 . S
C727 C730 1.398 . S
C727 H742 0.930 . S
C728 C726 1.380 . S
C728 C729 1.391 . S
C728 H743 0.930 . S
C729 C728 1.391 . S
C729 C731 1.387 . S
C730 C727 1.398 . S
C730 C731 1.380 . S
C730 H744 0.930 . S
C731 C729 1.387 . S
C731 C730 1.380 . S
C731 H745 0.930 . S
C732 O712 1.254 . S
C732 O713 1.268 . S
C733 O717 1.284 . S
C733 O720 1.250 . S
C734 Gd667 2.828 . S
C734 O716 1.258 . S
C734 O721 1.252 . S
C734 C735 1.497 . S
C735 C734 1.497 . S
C735 C736 1.395 . S
C735 C737 1.380 . S
C736 C735 1.395 . S
C736 C739 1.398 . S
C736 H746 0.930 . S
C737 C735 1.380 . S
C737 C738 1.391 . S
C737 H747 0.930 . S
C738 C737 1.391 . S
C738 C740 1.387 . S
C739 C736 1.398 . S
C739 C740 1.380 . S
C739 H748 0.930 . S
C740 C738 1.387 . S
C740 C739 1.380 . S
C740 H749 0.930 . S
C741 O718 1.254 . S
C741 O719 1.268 . S
H742 C727 0.930 . S
H743 C728 0.930 . S
H744 C730 0.930 . S
H745 C731 0.930 . S
H746 C736 0.930 . S
H747 C737 0.930 . S
H748 C739 0.930 . S
H749 C740 0.930 . S
Gd750 N781 2.661 . S
Gd750 N787 2.601 . S
Gd750 O794 2.545 . S
Gd750 O795 2.606 . S
Gd750 O797 2.429 . S
Gd750 O798 2.545 . S
Gd750 O799 2.412 . S
Gd750 O801 2.362 . S
Gd750 O802 2.324 . S
Gd750 C809 2.828 . S
Gd751 N760 2.661 . S
Gd751 N764 2.601 . S
Gd751 O795 2.362 . S
Gd751 O796 2.324 . S
Gd751 O800 2.545 . S
Gd751 O801 2.606 . S
Gd751 O803 2.429 . S
Gd751 O804 2.545 . S
Gd751 O805 2.412 . S
Gd751 C818 2.828 . S
C752 C755 1.417 . S
C752 C757 1.431 . S
C752 C758 1.412 . S
C753 C756 1.437 . S
C753 C757 1.317 . S
C753 H772 0.929 . S
C754 C755 1.426 . S
C754 C756 1.413 . S
C754 N764 1.359 . S
C755 C752 1.417 . S
C755 C754 1.426 . S
C755 N760 1.350 . S
C756 C753 1.437 . S
C756 C754 1.413 . S
C756 C766 1.391 . S
C757 C752 1.431 . S
C757 C753 1.317 . S
C757 H768 0.930 . S
C758 C752 1.412 . S
C758 C759 1.355 . S
C758 H770 0.930 . S
C759 C758 1.355 . S
C759 C761 1.402 . S
C759 H771 0.930 . S
N760 Gd751 2.661 . S
N760 C755 1.350 . S
N760 C761 1.307 . S
C761 C759 1.402 . S
C761 N760 1.307 . S
C761 H762 0.930 . S
H762 C761 0.930 . S
C763 N764 1.334 . S
C763 C765 1.394 . S
C763 H767 0.930 . S
N764 Gd751 2.601 . S
N764 C754 1.359 . S
N764 C763 1.334 . S
C765 C763 1.394 . S
C765 C766 1.359 . S
C765 H777 0.930 . S
C766 C756 1.391 . S
C766 C765 1.359 . S
C766 H778 0.929 . S
H767 C763 0.930 . S
H768 C757 0.930 . S
H769 C786 0.930 . S
H770 C758 0.930 . S
H771 C759 0.930 . S
H772 C753 0.929 . S
H773 C791 0.930 . S
H774 C782 0.930 . S
H775 C783 0.930 . S
H776 C807 0.929 . S
H777 C765 0.930 . S
H778 C766 0.929 . S
H779 C808 0.930 . S
H780 C789 0.930 . S
N781 Gd750 2.661 . S
N781 C785 1.350 . S
N781 C786 1.307 . S
C782 H774 0.930 . S
C782 C783 1.355 . S
C782 C784 1.412 . S
C783 H775 0.930 . S
C783 C782 1.355 . S
C783 C786 1.402 . S
C784 C782 1.412 . S
C784 C785 1.417 . S
C784 C808 1.431 . S
C785 N781 1.350 . S
C785 C784 1.417 . S
C785 C788 1.426 . S
C786 H769 0.930 . S
C786 N781 1.307 . S
C786 C783 1.402 . S
N787 Gd750 2.601 . S
N787 C788 1.359 . S
N787 C791 1.334 . S
C788 C785 1.426 . S
C788 N787 1.359 . S
C788 C792 1.413 . S
C789 H780 0.930 . S
C789 C790 1.359 . S
C789 C791 1.394 . S
C790 C789 1.359 . S
C790 C792 1.391 . S
C790 H793 0.929 . S
C791 H773 0.930 . S
C791 N787 1.334 . S
C791 C789 1.394 . S
C792 C788 1.413 . S
C792 C790 1.391 . S
C792 C807 1.437 . S
H793 C790 0.929 . S
O794 Gd750 2.545 . S
O794 C809 1.258 . S
O795 Gd750 2.606 . S
O795 Gd751 2.362 . S
O795 C806 1.284 . S
O796 Gd751 2.324 . S
O796 C816 1.254 . S
O797 Gd750 2.429 . S
O797 C816 1.268 . S
O798 Gd750 2.545 . S
O798 C806 1.250 . S
O799 Gd750 2.412 . S
O799 C809 1.252 . S
O800 Gd751 2.545 . S
O800 C818 1.258 . S
O801 Gd750 2.362 . S
O801 Gd751 2.606 . S
O801 C817 1.284 . S
O802 Gd750 2.324 . S
O802 C825 1.254 . S
O803 Gd751 2.429 . S
O803 C825 1.268 . S
O804 Gd751 2.545 . S
O804 C817 1.250 . S
O805 Gd751 2.412 . S
O805 C818 1.252 . S
C806 O795 1.284 . S
C806 O798 1.250 . S
C807 H776 0.929 . S
C807 C792 1.437 . S
C807 C808 1.317 . S
C808 H779 0.930 . S
C808 C784 1.431 . S
C808 C807 1.317 . S
C809 Gd750 2.828 . S
C809 O794 1.258 . S
C809 O799 1.252 . S
C809 C810 1.497 . S
C810 C809 1.497 . S
C810 C811 1.395 . S
C810 C812 1.380 . S
C811 C810 1.395 . S
C811 C814 1.398 . S
C811 H826 0.930 . S
C812 C810 1.380 . S
C812 C813 1.391 . S
C812 H827 0.930 . S
C813 C812 1.391 . S
C813 C815 1.387 . S
C814 C811 1.398 . S
C814 C815 1.380 . S
C814 H828 0.930 . S
C815 C813 1.387 . S
C815 C814 1.380 . S
C815 H829 0.930 . S
C816 O796 1.254 . S
C816 O797 1.268 . S
C817 O801 1.284 . S
C817 O804 1.250 . S
C818 Gd751 2.828 . S
C818 O800 1.258 . S
C818 O805 1.252 . S
C818 C819 1.497 . S
C819 C818 1.497 . S
C819 C820 1.395 . S
C819 C821 1.380 . S
C820 C819 1.395 . S
C820 C823 1.398 . S
C820 H830 0.930 . S
C821 C819 1.380 . S
C821 C822 1.391 . S
C821 H831 0.930 . S
C822 C821 1.391 . S
C822 C824 1.387 . S
C823 C820 1.398 . S
C823 C824 1.380 . S
C823 H832 0.930 . S
C824 C822 1.387 . S
C824 C823 1.380 . S
C824 H833 0.930 . S
C825 O802 1.254 . S
C825 O803 1.268 . S
H826 C811 0.930 . S
H827 C812 0.930 . S
H828 C814 0.930 . S
H829 C815 0.930 . S
H830 C820 0.930 . S
H831 C821 0.930 . S
H832 C823 0.930 . S
H833 C824 0.930 . S
Gd834 N865 2.661 . S
Gd834 N871 2.601 . S
Gd834 O878 2.545 . S
Gd834 O879 2.606 . S
Gd834 O881 2.429 . S
Gd834 O882 2.545 . S
Gd834 O883 2.412 . S
Gd834 O885 2.362 . S
Gd834 O886 2.324 . S
Gd834 C893 2.828 . S
Gd835 N844 2.661 . S
Gd835 N848 2.601 . S
Gd835 O879 2.362 . S
Gd835 O880 2.324 . S
Gd835 O884 2.545 . S
Gd835 O885 2.606 . S
Gd835 O887 2.429 . S
Gd835 O888 2.545 . S
Gd835 O889 2.412 . S
Gd835 C902 2.828 . S
C836 C839 1.417 . S
C836 C841 1.431 . S
C836 C842 1.412 . S
C837 C840 1.437 . S
C837 C841 1.317 . S
C837 H856 0.929 . S
C838 C839 1.426 . S
C838 C840 1.413 . S
C838 N848 1.359 . S
C839 C836 1.417 . S
C839 C838 1.426 . S
C839 N844 1.350 . S
C840 C837 1.437 . S
C840 C838 1.413 . S
C840 C850 1.391 . S
C841 C836 1.431 . S
C841 C837 1.317 . S
C841 H852 0.930 . S
C842 C836 1.412 . S
C842 C843 1.355 . S
C842 H854 0.930 . S
C843 C842 1.355 . S
C843 C845 1.402 . S
C843 H855 0.930 . S
N844 Gd835 2.661 . S
N844 C839 1.350 . S
N844 C845 1.307 . S
C845 C843 1.402 . S
C845 N844 1.307 . S
C845 H846 0.930 . S
H846 C845 0.930 . S
C847 N848 1.334 . S
C847 C849 1.394 . S
C847 H851 0.930 . S
N848 Gd835 2.601 . S
N848 C838 1.359 . S
N848 C847 1.334 . S
C849 C847 1.394 . S
C849 C850 1.359 . S
C849 H861 0.930 . S
C850 C840 1.391 . S
C850 C849 1.359 . S
C850 H862 0.929 . S
H851 C847 0.930 . S
H852 C841 0.930 . S
H853 C870 0.930 . S
H854 C842 0.930 . S
H855 C843 0.930 . S
H856 C837 0.929 . S
H857 C875 0.930 . S
H858 C866 0.930 . S
H859 C867 0.930 . S
H860 C891 0.929 . S
H861 C849 0.930 . S
H862 C850 0.929 . S
H863 C892 0.930 . S
H864 C873 0.930 . S
N865 Gd834 2.661 . S
N865 C869 1.350 . S
N865 C870 1.307 . S
C866 H858 0.930 . S
C866 C867 1.355 . S
C866 C868 1.412 . S
C867 H859 0.930 . S
C867 C866 1.355 . S
C867 C870 1.402 . S
C868 C866 1.412 . S
C868 C869 1.417 . S
C868 C892 1.431 . S
C869 N865 1.350 . S
C869 C868 1.417 . S
C869 C872 1.426 . S
C870 H853 0.930 . S
C870 N865 1.307 . S
C870 C867 1.402 . S
N871 Gd834 2.601 . S
N871 C872 1.359 . S
N871 C875 1.334 . S
C872 C869 1.426 . S
C872 N871 1.359 . S
C872 C876 1.413 . S
C873 H864 0.930 . S
C873 C874 1.359 . S
C873 C875 1.394 . S
C874 C873 1.359 . S
C874 C876 1.391 . S
C874 H877 0.929 . S
C875 H857 0.930 . S
C875 N871 1.334 . S
C875 C873 1.394 . S
C876 C872 1.413 . S
C876 C874 1.391 . S
C876 C891 1.437 . S
H877 C874 0.929 . S
O878 Gd834 2.545 . S
O878 C893 1.258 . S
O879 Gd834 2.606 . S
O879 Gd835 2.362 . S
O879 C890 1.284 . S
O880 Gd835 2.324 . S
O880 C900 1.254 . S
O881 Gd834 2.429 . S
O881 C900 1.268 . S
O882 Gd834 2.545 . S
O882 C890 1.250 . S
O883 Gd834 2.412 . S
O883 C893 1.252 . S
O884 Gd835 2.545 . S
O884 C902 1.258 . S
O885 Gd834 2.362 . S
O885 Gd835 2.606 . S
O885 C901 1.284 . S
O886 Gd834 2.324 . S
O886 C909 1.254 . S
O887 Gd835 2.429 . S
O887 C909 1.268 . S
O888 Gd835 2.545 . S
O888 C901 1.250 . S
O889 Gd835 2.412 . S
O889 C902 1.252 . S
C890 O879 1.284 . S
C890 O882 1.250 . S
C891 H860 0.929 . S
C891 C876 1.437 . S
C891 C892 1.317 . S
C892 H863 0.930 . S
C892 C868 1.431 . S
C892 C891 1.317 . S
C893 Gd834 2.828 . S
C893 O878 1.258 . S
C893 O883 1.252 . S
C893 C894 1.497 . S
C894 C893 1.497 . S
C894 C895 1.395 . S
C894 C896 1.380 . S
C895 C894 1.395 . S
C895 C898 1.398 . S
C895 H910 0.930 . S
C896 C894 1.380 . S
C896 C897 1.391 . S
C896 H911 0.930 . S
C897 C896 1.391 . S
C897 C899 1.387 . S
C898 C895 1.398 . S
C898 C899 1.380 . S
C898 H912 0.930 . S
C899 C897 1.387 . S
C899 C898 1.380 . S
C899 H913 0.930 . S
C900 O880 1.254 . S
C900 O881 1.268 . S
C901 O885 1.284 . S
C901 O888 1.250 . S
C902 Gd835 2.828 . S
C902 O884 1.258 . S
C902 O889 1.252 . S
C902 C903 1.497 . S
C903 C902 1.497 . S
C903 C904 1.395 . S
C903 C905 1.380 . S
C904 C903 1.395 . S
C904 C907 1.398 . S
C904 H914 0.930 . S
C905 C903 1.380 . S
C905 C906 1.391 . S
C905 H915 0.930 . S
C906 C905 1.391 . S
C906 C908 1.387 . S
C907 C904 1.398 . S
C907 C908 1.380 . S
C907 H916 0.930 . S
C908 C906 1.387 . S
C908 C907 1.380 . S
C908 H917 0.930 . S
C909 O886 1.254 . S
C909 O887 1.268 . S
H910 C895 0.930 . S
H911 C896 0.930 . S
H912 C898 0.930 . S
H913 C899 0.930 . S
H914 C904 0.930 . S
H915 C905 0.930 . S
H916 C907 0.930 . S
H917 C908 0.930 . S
C918 C919 1.349 . S
C918 C920 1.327 . S
C918 H943 0.950 . S
C919 C918 1.349 . S
C919 C935 1.349 . S
C920 C918 1.327 . S
C920 C939 1.429 . S
C920 H944 0.950 . S
C921 C938 1.574 . S
C921 C940 1.368 . S
C921 H945 0.949 . S
H922 C926 0.949 . S
C923 C924 1.349 . S
C923 C925 1.327 . S
C923 H946 0.950 . S
C924 C923 1.349 . S
C924 C936 1.349 . S
C925 C923 1.327 . S
C925 C941 1.429 . S
C925 H947 0.950 . S
C926 H922 0.949 . S
C926 C934 1.574 . S
C926 C942 1.368 . S
H927 C935 0.950 . S
H928 C933 0.950 . S
H929 C934 0.949 . S
H930 C936 0.950 . S
H931 C937 0.950 . S
H932 C938 0.949 . S
C933 H928 0.950 . S
C933 C935 1.327 . S
C933 C939 1.429 . S
C934 C926 1.574 . S
C934 H929 0.949 . S
C934 C940 1.368 . S
C935 C919 1.349 . S
C935 H927 0.950 . S
C935 C933 1.327 . S
C936 C924 1.349 . S
C936 H930 0.950 . S
C936 C937 1.327 . S
C937 H931 0.950 . S
C937 C936 1.327 . S
C937 C941 1.429 . S
C938 C921 1.574 . S
C938 H932 0.949 . S
C938 C942 1.368 . S
C939 C920 1.429 . S
C939 C933 1.429 . S
C939 C940 1.523 . S
C940 C921 1.368 . S
C940 C934 1.368 . S
C940 C939 1.523 . S
C941 C925 1.429 . S
C941 C937 1.429 . S
C941 C942 1.523 . S
C942 C926 1.368 . S
C942 C938 1.368 . S
C942 C941 1.523 . S
H943 C918 0.950 . S
H944 C920 0.950 . S
H945 C921 0.949 . S
H946 C923 0.950 . S
H947 C925 0.950 . S
C948 C949 1.349 . S
C948 C950 1.327 . S
C948 H973 0.950 . S
C949 C948 1.349 . S
C949 C965 1.349 . S
C950 C948 1.327 . S
C950 C969 1.429 . S
C950 H974 0.950 . S
C951 C968 1.574 . S
C951 C970 1.368 . S
C951 H975 0.949 . S
H952 C956 0.949 . S
C953 C954 1.349 . S
C953 C955 1.327 . S
C953 H976 0.950 . S
C954 C953 1.349 . S
C954 C966 1.349 . S
C955 C953 1.327 . S
C955 C971 1.429 . S
C955 H977 0.950 . S
C956 H952 0.949 . S
C956 C964 1.574 . S
C956 C972 1.368 . S
H957 C965 0.950 . S
H958 C963 0.950 . S
H959 C964 0.949 . S
H960 C966 0.950 . S
H961 C967 0.950 . S
H962 C968 0.949 . S
C963 H958 0.950 . S
C963 C965 1.327 . S
C963 C969 1.429 . S
C964 C956 1.574 . S
C964 H959 0.949 . S
C964 C970 1.368 . S
C965 C949 1.349 . S
C965 H957 0.950 . S
C965 C963 1.327 . S
C966 C954 1.349 . S
C966 H960 0.950 . S
C966 C967 1.327 . S
C967 H961 0.950 . S
C967 C966 1.327 . S
C967 C971 1.429 . S
C968 C951 1.574 . S
C968 H962 0.949 . S
C968 C972 1.368 . S
C969 C950 1.429 . S
C969 C963 1.429 . S
C969 C970 1.523 . S
C970 C951 1.368 . S
C970 C964 1.368 . S
C970 C969 1.523 . S
C971 C955 1.429 . S
C971 C967 1.429 . S
C971 C972 1.523 . S
C972 C956 1.368 . S
C972 C968 1.368 . S
C972 C971 1.523 . S
H973 C948 0.950 . S
H974 C950 0.950 . S
H975 C951 0.949 . S
H976 C953 0.950 . S
H977 C955 0.950 . S
C978 C979 1.349 . S
C978 C980 1.327 . S
C978 H1003 0.950 . S
C979 C978 1.349 . S
C979 C995 1.349 . S
C980 C978 1.327 . S
C980 C999 1.429 . S
C980 H1004 0.950 . S
C981 C998 1.574 . S
C981 C1000 1.368 . S
C981 H1005 0.949 . S
H982 C986 0.949 . S
C983 C984 1.349 . S
C983 C985 1.327 . S
C983 H1006 0.952 . S
C984 C983 1.349 . S
C984 C996 1.349 . S
C985 C983 1.327 . S
C985 C1001 1.429 . S
C985 H1007 0.950 . S
C986 H982 0.949 . S
C986 C994 1.574 . S
C986 C1002 1.368 . S
H987 C995 0.950 . S
H988 C993 0.950 . S
H989 C994 0.949 . S
H990 C996 0.950 . S
H991 C997 0.950 . S
H992 C998 0.949 . S
C993 H988 0.950 . S
C993 C995 1.327 . S
C993 C999 1.429 . S
C994 C986 1.574 . S
C994 H989 0.949 . S
C994 C1000 1.368 . S
C995 C979 1.349 . S
C995 H987 0.950 . S
C995 C993 1.327 . S
C996 C984 1.349 . S
C996 H990 0.950 . S
C996 C997 1.327 . S
C997 H991 0.950 . S
C997 C996 1.327 . S
C997 C1001 1.429 . S
C998 C981 1.574 . S
C998 H992 0.949 . S
C998 C1002 1.368 . S
C999 C980 1.429 . S
C999 C993 1.429 . S
C999 C1000 1.523 . S
C1000 C981 1.368 . S
C1000 C994 1.368 . S
C1000 C999 1.523 . S
C1001 C985 1.429 . S
C1001 C997 1.429 . S
C1001 C1002 1.523 . S
C1002 C986 1.368 . S
C1002 C998 1.368 . S
C1002 C1001 1.523 . S
H1003 C978 0.950 . S
H1004 C980 0.950 . S
H1005 C981 0.949 . S
H1006 C983 0.952 . S
H1007 C985 0.950 . S
C1008 C1009 1.349 . S
C1008 C1010 1.327 . S
C1008 H1033 0.950 . S
C1009 C1008 1.349 . S
C1009 C1025 1.349 . S
C1010 C1008 1.327 . S
C1010 C1029 1.429 . S
C1010 H1034 0.950 . S
C1011 C1028 1.574 . S
C1011 C1030 1.368 . S
C1011 H1035 0.949 . S
H1012 C1016 0.949 . S
C1013 C1014 1.349 . S
C1013 C1015 1.327 . S
C1013 H1036 0.950 . S
C1014 C1013 1.349 . S
C1014 C1026 1.349 . S
C1015 C1013 1.327 . S
C1015 C1031 1.429 . S
C1015 H1037 0.950 . S
C1016 H1012 0.949 . S
C1016 C1024 1.574 . S
C1016 C1032 1.368 . S
H1017 C1025 0.950 . S
H1018 C1023 0.950 . S
H1019 C1024 0.949 . S
H1020 C1026 0.917 1_554 S
H1021 C1027 0.950 . S
H1022 C1028 0.949 . S
C1023 H1018 0.950 . S
C1023 C1025 1.327 . S
C1023 C1029 1.429 . S
C1024 C1016 1.574 . S
C1024 H1019 0.949 . S
C1024 C1030 1.368 . S
C1025 C1009 1.349 . S
C1025 H1017 0.950 . S
C1025 C1023 1.327 . S
C1026 C1014 1.349 . S
C1026 H1020 0.917 1_556 S
C1026 C1027 1.327 . S
C1027 H1021 0.950 . S
C1027 C1026 1.327 . S
C1027 C1031 1.429 . S
C1028 C1011 1.574 . S
C1028 H1022 0.949 . S
C1028 C1032 1.368 . S
C1029 C1010 1.429 . S
C1029 C1023 1.429 . S
C1029 C1030 1.523 . S
C1030 C1011 1.368 . S
C1030 C1024 1.368 . S
C1030 C1029 1.523 . S
C1031 C1015 1.429 . S
C1031 C1027 1.429 . S
C1031 C1032 1.523 . S
C1032 C1016 1.368 . S
C1032 C1028 1.368 . S
C1032 C1031 1.523 . S
H1033 C1008 0.950 . S
H1034 C1010 0.950 . S
H1035 C1011 0.949 . S
H1036 C1013 0.950 . S
H1037 C1015 0.950 . S
C1038 C1039 1.349 . S
C1038 C1040 1.327 . S
C1038 H1063 0.950 . S
C1039 C1038 1.349 . S
C1039 C1055 1.349 . S
C1040 C1038 1.327 . S
C1040 C1059 1.429 . S
C1040 H1064 0.950 . S
C1041 C1058 1.574 . S
C1041 C1060 1.368 . S
C1041 H1065 0.949 . S
H1042 C1046 0.949 . S
C1043 C1044 1.349 . S
C1043 C1045 1.327 . S
C1043 H1066 0.945 . S
C1044 C1043 1.349 . S
C1044 C1056 1.349 . S
C1045 C1043 1.327 . S
C1045 C1061 1.429 . S
C1045 H1067 0.950 . S
C1046 H1042 0.949 . S
C1046 C1054 1.574 . S
C1046 C1062 1.368 . S
H1047 C1055 0.950 . S
H1048 C1053 0.950 . S
H1049 C1054 0.949 . S
H1050 C1056 0.950 . S
H1051 C1057 0.950 . S
H1052 C1058 0.949 . S
C1053 H1048 0.950 . S
C1053 C1055 1.327 . S
C1053 C1059 1.429 . S
C1054 C1046 1.574 . S
C1054 H1049 0.949 . S
C1054 C1060 1.368 . S
C1055 C1039 1.349 . S
C1055 H1047 0.950 . S
C1055 C1053 1.327 . S
C1056 C1044 1.349 . S
C1056 H1050 0.950 . S
C1056 C1057 1.327 . S
C1057 H1051 0.950 . S
C1057 C1056 1.327 . S
C1057 C1061 1.429 . S
C1058 C1041 1.574 . S
C1058 H1052 0.949 . S
C1058 C1062 1.368 . S
C1059 C1040 1.429 . S
C1059 C1053 1.429 . S
C1059 C1060 1.523 . S
C1060 C1041 1.368 . S
C1060 C1054 1.368 . S
C1060 C1059 1.523 . S
C1061 C1045 1.429 . S
C1061 C1057 1.429 . S
C1061 C1062 1.523 . S
C1062 C1046 1.368 . S
C1062 C1058 1.368 . S
C1062 C1061 1.523 . S
H1063 C1038 0.950 . S
H1064 C1040 0.950 . S
H1065 C1041 0.949 . S
H1066 C1043 0.945 . S
H1067 C1045 0.950 . S
C1068 C1069 1.349 . S
C1068 C1070 1.327 . S
C1068 H1093 0.950 . S
C1069 C1068 1.349 . S
C1069 C1085 1.349 . S
C1070 C1068 1.327 . S
C1070 C1089 1.429 . S
C1070 H1094 0.950 . S
C1071 C1088 1.574 . S
C1071 C1090 1.368 . S
C1071 H1095 0.949 . S
H1072 C1076 0.949 . S
C1073 C1074 1.349 . S
C1073 C1075 1.327 . S
C1073 H1096 0.950 1_556 S
C1074 C1073 1.349 . S
C1074 C1086 1.349 . S
C1075 C1073 1.327 . S
C1075 C1091 1.429 . S
C1075 H1097 0.950 . S
C1076 H1072 0.949 . S
C1076 C1084 1.574 . S
C1076 C1092 1.368 . S
H1077 C1085 0.950 . S
H1078 C1083 0.950 . S
H1079 C1084 0.949 . S
H1080 C1086 0.950 . S
H1081 C1087 0.950 . S
H1082 C1088 0.949 . S
C1083 H1078 0.950 . S
C1083 C1085 1.327 . S
C1083 C1089 1.429 . S
C1084 C1076 1.574 . S
C1084 H1079 0.949 . S
C1084 C1090 1.368 . S
C1085 C1069 1.349 . S
C1085 H1077 0.950 . S
C1085 C1083 1.327 . S
C1086 C1074 1.349 . S
C1086 H1080 0.950 . S
C1086 C1087 1.327 . S
C1087 H1081 0.950 . S
C1087 C1086 1.327 . S
C1087 C1091 1.429 . S
C1088 C1071 1.574 . S
C1088 H1082 0.949 . S
C1088 C1092 1.368 . S
C1089 C1070 1.429 . S
C1089 C1083 1.429 . S
C1089 C1090 1.523 . S
C1090 C1071 1.368 . S
C1090 C1084 1.368 . S
C1090 C1089 1.523 . S
C1091 C1075 1.429 . S
C1091 C1087 1.429 . S
C1091 C1092 1.523 . S
C1092 C1076 1.368 . S
C1092 C1088 1.368 . S
C1092 C1091 1.523 . S
H1093 C1068 0.950 . S
H1094 C1070 0.950 . S
H1095 C1071 0.949 . S
H1096 C1073 0.950 1_554 S
H1097 C1075 0.950 . S
C1098 C1099 1.349 . S
C1098 C1100 1.327 . S
C1098 H1123 0.950 . S
C1099 C1098 1.349 . S
C1099 C1115 1.349 . S
C1100 C1098 1.327 . S
C1100 C1119 1.429 . S
C1100 H1124 0.950 . S
C1101 C1118 1.574 . S
C1101 C1120 1.368 . S
C1101 H1125 0.949 . S
H1102 C1106 0.949 . S
C1103 C1104 1.349 . S
C1103 C1105 1.327 . S
C1103 H1126 0.950 . S
C1104 C1103 1.349 . S
C1104 C1116 1.349 . S
C1105 C1103 1.327 . S
C1105 C1121 1.429 . S
C1105 H1127 0.950 . S
C1106 H1102 0.949 . S
C1106 C1114 1.574 . S
C1106 C1122 1.368 . S
H1107 C1115 0.950 . S
H1108 C1113 0.950 . S
H1109 C1114 0.949 . S
H1110 C1116 0.950 . S
H1111 C1117 0.950 . S
H1112 C1118 0.949 . S
C1113 H1108 0.950 . S
C1113 C1115 1.327 . S
C1113 C1119 1.429 . S
C1114 C1106 1.574 . S
C1114 H1109 0.949 . S
C1114 C1120 1.368 . S
C1115 C1099 1.349 . S
C1115 H1107 0.950 . S
C1115 C1113 1.327 . S
C1116 C1104 1.349 . S
C1116 H1110 0.950 . S
C1116 C1117 1.327 . S
C1117 H1111 0.950 . S
C1117 C1116 1.327 . S
C1117 C1121 1.429 . S
C1118 C1101 1.574 . S
C1118 H1112 0.949 . S
C1118 C1122 1.368 . S
C1119 C1100 1.429 . S
C1119 C1113 1.429 . S
C1119 C1120 1.523 . S
C1120 C1101 1.368 . S
C1120 C1114 1.368 . S
C1120 C1119 1.523 . S
C1121 C1105 1.429 . S
C1121 C1117 1.429 . S
C1121 C1122 1.523 . S
C1122 C1106 1.368 . S
C1122 C1118 1.368 . S
C1122 C1121 1.523 . S
H1123 C1098 0.950 . S
H1124 C1100 0.950 . S
H1125 C1101 0.949 . S
H1126 C1103 0.950 . S
H1127 C1105 0.950 . S
C1128 C1129 1.349 . S
C1128 C1130 1.327 . S
C1128 H1153 0.950 . S
C1129 C1128 1.349 . S
C1129 C1145 1.349 . S
C1130 C1128 1.327 . S
C1130 C1149 1.429 . S
C1130 H1154 0.950 . S
C1131 C1148 1.574 . S
C1131 C1150 1.368 . S
C1131 H1155 0.949 . S
H1132 C1136 0.949 . S
C1133 C1134 1.349 . S
C1133 C1135 1.327 . S
C1133 H1156 0.950 1_556 S
C1134 C1133 1.349 . S
C1134 C1146 1.349 . S
C1135 C1133 1.327 . S
C1135 C1151 1.429 . S
C1135 H1157 0.950 . S
C1136 H1132 0.949 . S
C1136 C1144 1.574 . S
C1136 C1152 1.368 . S
H1137 C1145 0.950 . S
H1138 C1143 0.950 . S
H1139 C1144 0.949 . S
H1140 C1146 0.950 . S
H1141 C1147 0.950 . S
H1142 C1148 0.949 . S
C1143 H1138 0.950 . S
C1143 C1145 1.327 . S
C1143 C1149 1.429 . S
C1144 C1136 1.574 . S
C1144 H1139 0.949 . S
C1144 C1150 1.368 . S
C1145 C1129 1.349 . S
C1145 H1137 0.950 . S
C1145 C1143 1.327 . S
C1146 C1134 1.349 . S
C1146 H1140 0.950 . S
C1146 C1147 1.327 . S
C1147 H1141 0.950 . S
C1147 C1146 1.327 . S
C1147 C1151 1.429 . S
C1148 C1131 1.574 . S
C1148 H1142 0.949 . S
C1148 C1152 1.368 . S
C1149 C1130 1.429 . S
C1149 C1143 1.429 . S
C1149 C1150 1.523 . S
C1150 C1131 1.368 . S
C1150 C1144 1.368 . S
C1150 C1149 1.523 . S
C1151 C1135 1.429 . S
C1151 C1147 1.429 . S
C1151 C1152 1.523 . S
C1152 C1136 1.368 . S
C1152 C1148 1.368 . S
C1152 C1151 1.523 . S
H1153 C1128 0.950 . S
H1154 C1130 0.950 . S
H1155 C1131 0.949 . S
H1156 C1133 0.950 1_554 S
H1157 C1135 0.950 . S
C1158 C1159 1.349 . S
C1158 C1160 1.327 . S
C1158 H1183 0.950 . S
C1159 C1158 1.349 . S
C1159 C1175 1.349 . S
C1160 C1158 1.327 . S
C1160 C1179 1.429 . S
C1160 H1184 0.950 . S
C1161 C1178 1.574 . S
C1161 C1180 1.368 . S
C1161 H1185 0.949 . S
H1162 C1166 0.949 . S
C1163 C1164 1.349 . S
C1163 C1165 1.327 . S
C1163 H1186 0.950 1_556 S
C1164 C1163 1.349 . S
C1164 C1176 1.349 . S
C1165 C1163 1.327 . S
C1165 C1181 1.429 . S
C1165 H1187 0.950 . S
C1166 H1162 0.949 . S
C1166 C1174 1.574 . S
C1166 C1182 1.368 . S
H1167 C1175 0.950 . S
H1168 C1173 0.950 . S
H1169 C1174 0.949 . S
H1170 C1176 0.950 . S
H1171 C1177 0.950 . S
H1172 C1178 0.949 . S
C1173 H1168 0.950 . S
C1173 C1175 1.327 . S
C1173 C1179 1.429 . S
C1174 C1166 1.574 . S
C1174 H1169 0.949 . S
C1174 C1180 1.368 . S
C1175 C1159 1.349 . S
C1175 H1167 0.950 . S
C1175 C1173 1.327 . S
C1176 C1164 1.349 . S
C1176 H1170 0.950 . S
C1176 C1177 1.327 . S
C1177 H1171 0.950 . S
C1177 C1176 1.327 . S
C1177 C1181 1.429 . S
C1178 C1161 1.574 . S
C1178 H1172 0.949 . S
C1178 C1182 1.368 . S
C1179 C1160 1.429 . S
C1179 C1173 1.429 . S
C1179 C1180 1.523 . S
C1180 C1161 1.368 . S
C1180 C1174 1.368 . S
C1180 C1179 1.523 . S
C1181 C1165 1.429 . S
C1181 C1177 1.429 . S
C1181 C1182 1.523 . S
C1182 C1166 1.368 . S
C1182 C1178 1.368 . S
C1182 C1181 1.523 . S
H1183 C1158 0.950 . S
H1184 C1160 0.950 . S
H1185 C1161 0.949 . S
H1186 C1163 0.950 1_554 S
H1187 C1165 0.950 . S
C1188 C1189 1.349 . S
C1188 C1190 1.327 . S
C1188 H1213 0.950 . S
C1189 C1188 1.349 . S
C1189 C1205 1.349 . S
C1190 C1188 1.327 . S
C1190 C1209 1.429 . S
C1190 H1214 0.950 . S
C1191 C1208 1.574 . S
C1191 C1210 1.368 . S
C1191 H1215 0.949 . S
H1192 C1196 0.949 . S
C1193 C1194 1.349 . S
C1193 C1195 1.327 . S
C1193 H1216 0.950 . S
C1194 C1193 1.349 . S
C1194 C1206 1.349 . S
C1195 C1193 1.327 . S
C1195 C1211 1.429 . S
C1195 H1217 0.950 . S
C1196 H1192 0.949 . S
C1196 C1204 1.574 . S
C1196 C1212 1.368 . S
H1197 C1205 0.950 . S
H1198 C1203 0.950 . S
H1199 C1204 0.949 . S
H1200 C1206 0.950 . S
H1201 C1207 0.950 . S
H1202 C1208 0.949 . S
C1203 H1198 0.950 . S
C1203 C1205 1.327 . S
C1203 C1209 1.429 . S
C1204 C1196 1.574 . S
C1204 H1199 0.949 . S
C1204 C1210 1.368 . S
C1205 C1189 1.349 . S
C1205 H1197 0.950 . S
C1205 C1203 1.327 . S
C1206 C1194 1.349 . S
C1206 H1200 0.950 . S
C1206 C1207 1.327 . S
C1207 H1201 0.950 . S
C1207 C1206 1.327 . S
C1207 C1211 1.429 . S
C1208 C1191 1.574 . S
C1208 H1202 0.949 . S
C1208 C1212 1.368 . S
C1209 C1190 1.429 . S
C1209 C1203 1.429 . S
C1209 C1210 1.523 . S
C1210 C1191 1.368 . S
C1210 C1204 1.368 . S
C1210 C1209 1.523 . S
C1211 C1195 1.429 . S
C1211 C1207 1.429 . S
C1211 C1212 1.523 . S
C1212 C1196 1.368 . S
C1212 C1208 1.368 . S
C1212 C1211 1.523 . S
H1213 C1188 0.950 . S
H1214 C1190 0.950 . S
H1215 C1191 0.949 . S
H1216 C1193 0.950 . S
H1217 C1195 0.950 . S
C1218 C1219 1.349 . S
C1218 C1220 1.327 . S
C1218 H1243 0.950 . S
C1219 C1218 1.349 . S
C1219 C1235 1.349 . S
C1220 C1218 1.327 . S
C1220 C1239 1.429 . S
C1220 H1244 0.950 . S
C1221 C1238 1.574 . S
C1221 C1240 1.368 . S
C1221 H1245 0.949 . S
H1222 C1226 0.949 . S
C1223 C1224 1.349 . S
C1223 C1225 1.327 . S
C1223 H1246 0.950 . S
C1224 C1223 1.349 . S
C1224 C1236 1.349 . S
C1225 C1223 1.327 . S
C1225 C1241 1.429 . S
C1225 H1247 0.950 . S
C1226 H1222 0.949 . S
C1226 C1234 1.574 . S
C1226 C1242 1.368 . S
H1227 C1235 0.950 . S
H1228 C1233 0.950 . S
H1229 C1234 0.949 . S
H1230 C1236 0.950 . S
H1231 C1237 0.950 . S
H1232 C1238 0.949 . S
C1233 H1228 0.950 . S
C1233 C1235 1.327 . S
C1233 C1239 1.429 . S
C1234 C1226 1.574 . S
C1234 H1229 0.949 . S
C1234 C1240 1.368 . S
C1235 C1219 1.349 . S
C1235 H1227 0.950 . S
C1235 C1233 1.327 . S
C1236 C1224 1.349 . S
C1236 H1230 0.950 . S
C1236 C1237 1.327 . S
C1237 H1231 0.950 . S
C1237 C1236 1.327 . S
C1237 C1241 1.429 . S
C1238 C1221 1.574 . S
C1238 H1232 0.949 . S
C1238 C1242 1.368 . S
C1239 C1220 1.429 . S
C1239 C1233 1.429 . S
C1239 C1240 1.523 . S
C1240 C1221 1.368 . S
C1240 C1234 1.368 . S
C1240 C1239 1.523 . S
C1241 C1225 1.429 . S
C1241 C1237 1.429 . S
C1241 C1242 1.523 . S
C1242 C1226 1.368 . S
C1242 C1238 1.368 . S
C1242 C1241 1.523 . S
H1243 C1218 0.950 . S
H1244 C1220 0.950 . S
H1245 C1221 0.949 . S
H1246 C1223 0.950 . S
H1247 C1225 0.950 . S
C1248 C1249 1.349 . S
C1248 C1250 1.327 . S
C1248 H1273 0.950 . S
C1249 C1248 1.349 . S
C1249 C1265 1.349 . S
C1250 C1248 1.327 . S
C1250 C1269 1.429 . S
C1250 H1274 0.950 . S
C1251 C1268 1.574 . S
C1251 C1270 1.368 . S
C1251 H1275 0.949 . S
H1252 C1256 0.949 . S
C1253 C1254 1.349 . S
C1253 C1255 1.327 . S
C1253 H1276 0.950 . S
C1254 C1253 1.349 . S
C1254 C1266 1.349 . S
C1255 C1253 1.327 . S
C1255 C1271 1.429 . S
C1255 H1277 0.950 . S
C1256 H1252 0.949 . S
C1256 C1264 1.574 . S
C1256 C1272 1.368 . S
H1257 C1265 0.950 . S
H1258 C1263 0.950 . S
H1259 C1264 0.949 . S
H1260 C1266 0.950 . S
H1261 C1267 0.950 . S
H1262 C1268 0.949 . S
C1263 H1258 0.950 . S
C1263 C1265 1.327 . S
C1263 C1269 1.429 . S
C1264 C1256 1.574 . S
C1264 H1259 0.949 . S
C1264 C1270 1.368 . S
C1265 C1249 1.349 . S
C1265 H1257 0.950 . S
C1265 C1263 1.327 . S
C1266 C1254 1.349 . S
C1266 H1260 0.950 . S
C1266 C1267 1.327 . S
C1267 H1261 0.950 . S
C1267 C1266 1.327 . S
C1267 C1271 1.429 . S
C1268 C1251 1.574 . S
C1268 H1262 0.949 . S
C1268 C1272 1.368 . S
C1269 C1250 1.429 . S
C1269 C1263 1.429 . S
C1269 C1270 1.523 . S
C1270 C1251 1.368 . S
C1270 C1264 1.368 . S
C1270 C1269 1.523 . S
C1271 C1255 1.429 . S
C1271 C1267 1.429 . S
C1271 C1272 1.523 . S
C1272 C1256 1.368 . S
C1272 C1268 1.368 . S
C1272 C1271 1.523 . S
H1273 C1248 0.950 . S
H1274 C1250 0.950 . S
H1275 C1251 0.949 . S
H1276 C1253 0.950 . S
H1277 C1255 0.950 . S
C1278 C1279 1.349 . S
C1278 C1280 1.327 . S
C1278 H1303 0.950 . S
C1279 C1278 1.349 . S
C1279 C1295 1.349 . S
C1280 C1278 1.327 . S
C1280 C1299 1.429 . S
C1280 H1304 0.950 . S
C1281 C1298 1.574 . S
C1281 C1300 1.368 1_455 S
C1281 H1305 0.949 1_455 S
H1282 C1286 0.949 . S
C1283 C1284 1.349 . S
C1283 C1285 1.327 . S
C1283 H1306 0.950 . S
C1284 C1283 1.349 . S
C1284 C1296 1.349 . S
C1285 C1283 1.327 . S
C1285 C1301 1.429 . S
C1285 H1307 0.950 . S
C1286 H1282 0.949 . S
C1286 C1294 1.574 . S
C1286 C1302 1.368 . S
H1287 C1295 0.950 . S
H1288 C1293 0.950 . S
H1289 C1294 0.949 1_655 S
H1290 C1296 0.950 . S
H1291 C1297 0.950 . S
H1292 C1298 0.949 . S
C1293 H1288 0.950 . S
C1293 C1295 1.327 . S
C1293 C1299 1.429 . S
C1294 C1286 1.574 . S
C1294 H1289 0.949 1_455 S
C1294 C1300 1.368 1_455 S
C1295 C1279 1.349 . S
C1295 H1287 0.950 . S
C1295 C1293 1.327 . S
C1296 C1284 1.349 . S
C1296 H1290 0.950 . S
C1296 C1297 1.327 . S
C1297 H1291 0.950 . S
C1297 C1296 1.327 . S
C1297 C1301 1.429 . S
C1298 C1281 1.574 . S
C1298 H1292 0.949 . S
C1298 C1302 1.368 . S
C1299 C1280 1.429 . S
C1299 C1293 1.429 . S
C1299 C1300 1.523 . S
C1300 C1281 1.368 1_655 S
C1300 C1294 1.368 1_655 S
C1300 C1299 1.523 . S
C1301 C1285 1.429 . S
C1301 C1297 1.429 . S
C1301 C1302 1.523 . S
C1302 C1286 1.368 . S
C1302 C1298 1.368 . S
C1302 C1301 1.523 . S
H1303 C1278 0.950 . S
H1304 C1280 0.950 . S
H1305 C1281 0.949 1_655 S
H1306 C1283 0.950 . S
H1307 C1285 0.950 . S
C1308 C1309 1.349 . S
C1308 C1310 1.327 . S
C1308 H1333 0.950 . S
C1309 C1308 1.349 . S
C1309 C1325 1.349 . S
C1310 C1308 1.327 . S
C1310 C1329 1.429 . S
C1310 H1334 0.950 . S
C1311 C1328 1.574 . S
C1311 C1330 1.368 . S
C1311 H1335 0.949 . S
H1312 C1316 0.949 . S
C1313 C1314 1.349 . S
C1313 C1315 1.327 . S
C1313 H1336 0.950 . S
C1314 C1313 1.349 . S
C1314 C1326 1.349 . S
C1315 C1313 1.327 . S
C1315 C1331 1.429 . S
C1315 H1337 0.950 . S
C1316 H1312 0.949 . S
C1316 C1324 1.574 . S
C1316 C1332 1.368 . S
H1317 C1325 0.950 . S
H1318 C1323 0.950 . S
H1319 C1324 0.949 . S
H1320 C1326 0.950 . S
H1321 C1327 0.950 . S
H1322 C1328 0.949 . S
C1323 H1318 0.950 . S
C1323 C1325 1.327 . S
C1323 C1329 1.429 . S
C1324 C1316 1.574 . S
C1324 H1319 0.949 . S
C1324 C1330 1.368 . S
C1325 C1309 1.349 . S
C1325 H1317 0.950 . S
C1325 C1323 1.327 . S
C1326 C1314 1.349 . S
C1326 H1320 0.950 . S
C1326 C1327 1.327 . S
C1327 H1321 0.950 . S
C1327 C1326 1.327 . S
C1327 C1331 1.429 . S
C1328 C1311 1.574 . S
C1328 H1322 0.949 . S
C1328 C1332 1.368 . S
C1329 C1310 1.429 . S
C1329 C1323 1.429 . S
C1329 C1330 1.523 . S
C1330 C1311 1.368 . S
C1330 C1324 1.368 . S
C1330 C1329 1.523 . S
C1331 C1315 1.429 . S
C1331 C1327 1.429 . S
C1331 C1332 1.523 . S
C1332 C1316 1.368 . S
C1332 C1328 1.368 . S
C1332 C1331 1.523 . S
H1333 C1308 0.950 . S
H1334 C1310 0.950 . S
H1335 C1311 0.949 . S
H1336 C1313 0.950 . S
H1337 C1315 0.950 . S
C1338 C1339 1.349 . S
C1338 C1340 1.327 . S
C1338 H1363 0.950 . S
C1339 C1338 1.349 . S
C1339 C1355 1.349 . S
C1340 C1338 1.327 . S
C1340 C1359 1.429 . S
C1340 H1364 0.950 . S
C1341 C1358 1.574 . S
C1341 C1360 1.368 1_565 S
C1341 H1365 0.949 . S
H1342 C1346 0.949 . S
C1343 C1344 1.349 . S
C1343 C1345 1.327 . S
C1343 H1366 0.950 . S
C1344 C1343 1.349 . S
C1344 C1356 1.349 . S
C1345 C1343 1.327 . S
C1345 C1361 1.429 . S
C1345 H1367 0.950 . S
C1346 H1342 0.949 . S
C1346 C1354 1.574 1_565 S
C1346 C1362 1.368 . S
H1347 C1355 0.950 . S
H1348 C1353 0.950 . S
H1349 C1354 0.949 . S
H1350 C1356 0.950 . S
H1351 C1357 0.950 . S
H1352 C1358 0.949 . S
C1353 H1348 0.950 . S
C1353 C1355 1.327 . S
C1353 C1359 1.429 . S
C1354 C1346 1.574 1_545 S
C1354 H1349 0.949 . S
C1354 C1360 1.368 . S
C1355 C1339 1.349 . S
C1355 H1347 0.950 . S
C1355 C1353 1.327 . S
C1356 C1344 1.349 . S
C1356 H1350 0.950 . S
C1356 C1357 1.327 . S
C1357 H1351 0.950 . S
C1357 C1356 1.327 . S
C1357 C1361 1.429 . S
C1358 C1341 1.574 . S
C1358 H1352 0.949 . S
C1358 C1362 1.368 . S
C1359 C1340 1.429 . S
C1359 C1353 1.429 . S
C1359 C1360 1.523 . S
C1360 C1341 1.368 1_545 S
C1360 C1354 1.368 . S
C1360 C1359 1.523 . S
C1361 C1345 1.429 . S
C1361 C1357 1.429 . S
C1361 C1362 1.523 . S
C1362 C1346 1.368 . S
C1362 C1358 1.368 . S
C1362 C1361 1.523 . S
H1363 C1338 0.950 . S
H1364 C1340 0.950 . S
H1365 C1341 0.949 . S
H1366 C1343 0.950 . S
H1367 C1345 0.950 . S
C1368 C1369 1.349 . S
C1368 C1370 1.327 . S
C1368 H1393 0.950 . S
C1369 C1368 1.349 . S
C1369 C1385 1.349 . S
C1370 C1368 1.327 . S
C1370 C1389 1.429 . S
C1370 H1394 0.950 . S
C1371 C1388 1.574 . S
C1371 C1390 1.368 . S
C1371 H1395 0.949 . S
H1372 C1376 0.949 . S
C1373 C1374 1.349 . S
C1373 C1375 1.327 . S
C1373 H1396 0.950 . S
C1374 C1373 1.349 . S
C1374 C1386 1.349 . S
C1375 C1373 1.327 . S
C1375 C1391 1.429 . S
C1375 H1397 0.950 . S
C1376 H1372 0.949 . S
C1376 C1384 1.574 . S
C1376 C1392 1.368 . S
H1377 C1385 0.950 . S
H1378 C1383 0.950 . S
H1379 C1384 0.949 . S
H1380 C1386 0.950 . S
H1381 C1387 0.950 . S
H1382 C1388 0.949 . S
C1383 H1378 0.950 . S
C1383 C1385 1.327 . S
C1383 C1389 1.429 . S
C1384 C1376 1.574 . S
C1384 H1379 0.949 . S
C1384 C1390 1.368 . S
C1385 C1369 1.349 . S
C1385 H1377 0.950 . S
C1385 C1383 1.327 . S
C1386 C1374 1.349 . S
C1386 H1380 0.950 . S
C1386 C1387 1.327 . S
C1387 H1381 0.950 . S
C1387 C1386 1.327 . S
C1387 C1391 1.429 . S
C1388 C1371 1.574 . S
C1388 H1382 0.949 . S
C1388 C1392 1.368 . S
C1389 C1370 1.429 . S
C1389 C1383 1.429 . S
C1389 C1390 1.523 . S
C1390 C1371 1.368 . S
C1390 C1384 1.368 . S
C1390 C1389 1.523 . S
C1391 C1375 1.429 . S
C1391 C1387 1.429 . S
C1391 C1392 1.523 . S
C1392 C1376 1.368 . S
C1392 C1388 1.368 . S
C1392 C1391 1.523 . S
H1393 C1368 0.950 . S
H1394 C1370 0.950 . S
H1395 C1371 0.949 . S
H1396 C1373 0.950 . S
H1397 C1375 0.950 . S
C1398 C1399 1.349 . S
C1398 C1400 1.327 . S
C1398 H1423 0.950 . S
C1399 C1398 1.349 . S
C1399 C1415 1.349 . S
C1400 C1398 1.327 . S
C1400 C1419 1.429 . S
C1400 H1424 0.950 . S
C1401 C1418 1.574 . S
C1401 C1420 1.368 . S
C1401 H1425 0.949 . S
H1402 C1406 0.949 . S
C1403 C1404 1.349 . S
C1403 C1405 1.327 . S
C1403 H1426 0.950 . S
C1404 C1403 1.349 . S
C1404 C1416 1.349 . S
C1405 C1403 1.327 . S
C1405 C1421 1.429 . S
C1405 H1427 0.950 . S
C1406 H1402 0.949 . S
C1406 C1414 1.574 . S
C1406 C1422 1.368 . S
H1407 C1415 0.950 . S
H1408 C1413 0.950 . S
H1409 C1414 0.949 . S
H1410 C1416 0.950 . S
H1411 C1417 0.950 . S
H1412 C1418 0.949 . S
C1413 H1408 0.950 . S
C1413 C1415 1.327 . S
C1413 C1419 1.429 . S
C1414 C1406 1.574 . S
C1414 H1409 0.949 . S
C1414 C1420 1.368 . S
C1415 C1399 1.349 . S
C1415 H1407 0.950 . S
C1415 C1413 1.327 . S
C1416 C1404 1.349 . S
C1416 H1410 0.950 . S
C1416 C1417 1.327 . S
C1417 H1411 0.950 . S
C1417 C1416 1.327 . S
C1417 C1421 1.429 . S
C1418 C1401 1.574 . S
C1418 H1412 0.949 . S
C1418 C1422 1.368 . S
C1419 C1400 1.429 . S
C1419 C1413 1.429 . S
C1419 C1420 1.523 . S
C1420 C1401 1.368 . S
C1420 C1414 1.368 . S
C1420 C1419 1.523 . S
C1421 C1405 1.429 . S
C1421 C1417 1.429 . S
C1421 C1422 1.523 . S
C1422 C1406 1.368 . S
C1422 C1418 1.368 . S
C1422 C1421 1.523 . S
H1423 C1398 0.950 . S
H1424 C1400 0.950 . S
H1425 C1401 0.949 . S
H1426 C1403 0.950 . S
H1427 C1405 0.950 . S
C1428 C1429 1.349 . S
C1428 C1430 1.327 . S
C1428 H1453 0.950 . S
C1429 C1428 1.349 . S
C1429 C1445 1.349 . S
C1430 C1428 1.327 . S
C1430 C1449 1.429 . S
C1430 H1454 0.950 . S
C1431 C1448 1.574 . S
C1431 C1450 1.368 . S
C1431 H1455 0.949 . S
H1432 C1436 0.949 . S
C1433 C1434 1.349 . S
C1433 C1435 1.327 . S
C1433 H1456 0.950 . S
C1434 C1433 1.349 . S
C1434 C1446 1.349 . S
C1435 C1433 1.327 . S
C1435 C1451 1.429 . S
C1435 H1457 0.950 . S
C1436 H1432 0.949 . S
C1436 C1444 1.574 . S
C1436 C1452 1.368 . S
H1437 C1445 0.950 . S
H1438 C1443 0.950 . S
H1439 C1444 0.949 . S
H1440 C1446 0.950 . S
H1441 C1447 0.950 . S
H1442 C1448 0.949 . S
C1443 H1438 0.950 . S
C1443 C1445 1.327 . S
C1443 C1449 1.429 . S
C1444 C1436 1.574 . S
C1444 H1439 0.949 . S
C1444 C1450 1.368 . S
C1445 C1429 1.349 . S
C1445 H1437 0.950 . S
C1445 C1443 1.327 . S
C1446 C1434 1.349 . S
C1446 H1440 0.950 . S
C1446 C1447 1.327 . S
C1447 H1441 0.950 . S
C1447 C1446 1.327 . S
C1447 C1451 1.429 . S
C1448 C1431 1.574 . S
C1448 H1442 0.949 . S
C1448 C1452 1.368 . S
C1449 C1430 1.429 . S
C1449 C1443 1.429 . S
C1449 C1450 1.523 . S
C1450 C1431 1.368 . S
C1450 C1444 1.368 . S
C1450 C1449 1.523 . S
C1451 C1435 1.429 . S
C1451 C1447 1.429 . S
C1451 C1452 1.523 . S
C1452 C1436 1.368 . S
C1452 C1448 1.368 . S
C1452 C1451 1.523 . S
H1453 C1428 0.950 . S
H1454 C1430 0.950 . S
H1455 C1431 0.949 . S
H1456 C1433 0.950 . S
H1457 C1435 0.950 . S
C1458 C1459 1.349 . S
C1458 C1460 1.327 . S
C1458 H1483 0.950 . S
C1459 C1458 1.349 . S
C1459 C1475 1.349 . S
C1460 C1458 1.327 . S
C1460 C1479 1.429 . S
C1460 H1484 0.950 . S
C1461 C1478 1.574 . S
C1461 C1480 1.368 . S
C1461 H1485 0.949 . S
H1462 C1466 0.949 . S
C1463 C1464 1.349 . S
C1463 C1465 1.327 . S
C1463 H1486 0.950 . S
C1464 C1463 1.349 . S
C1464 C1476 1.349 . S
C1465 C1463 1.327 . S
C1465 C1481 1.429 . S
C1465 H1487 0.950 . S
C1466 H1462 0.949 . S
C1466 C1474 1.574 . S
C1466 C1482 1.368 . S
H1467 C1475 0.950 . S
H1468 C1473 0.950 . S
H1469 C1474 0.949 . S
H1470 C1476 0.950 . S
H1471 C1477 0.950 . S
H1472 C1478 0.949 . S
C1473 H1468 0.950 . S
C1473 C1475 1.327 . S
C1473 C1479 1.429 . S
C1474 C1466 1.574 . S
C1474 H1469 0.949 . S
C1474 C1480 1.368 . S
C1475 C1459 1.349 . S
C1475 H1467 0.950 . S
C1475 C1473 1.327 . S
C1476 C1464 1.349 . S
C1476 H1470 0.950 . S
C1476 C1477 1.327 . S
C1477 H1471 0.950 . S
C1477 C1476 1.327 . S
C1477 C1481 1.429 . S
C1478 C1461 1.574 . S
C1478 H1472 0.949 . S
C1478 C1482 1.368 . S
C1479 C1460 1.429 . S
C1479 C1473 1.429 . S
C1479 C1480 1.523 . S
C1480 C1461 1.368 . S
C1480 C1474 1.368 . S
C1480 C1479 1.523 . S
C1481 C1465 1.429 . S
C1481 C1477 1.429 . S
C1481 C1482 1.523 . S
C1482 C1466 1.368 . S
C1482 C1478 1.368 . S
C1482 C1481 1.523 . S
H1483 C1458 0.950 . S
H1484 C1460 0.950 . S
H1485 C1461 0.949 . S
H1486 C1463 0.950 . S
H1487 C1465 0.950 . S
C1488 C1489 1.349 . S
C1488 C1490 1.327 . S
C1488 H1513 0.950 . S
C1489 C1488 1.349 . S
C1489 C1505 1.349 . S
C1490 C1488 1.327 . S
C1490 C1509 1.429 . S
C1490 H1514 0.950 . S
C1491 C1508 1.574 . S
C1491 C1510 1.368 . S
C1491 H1515 0.949 . S
H1492 C1496 0.949 . S
C1493 C1494 1.349 . S
C1493 C1495 1.327 . S
C1493 H1516 0.950 . S
C1494 C1493 1.349 . S
C1494 C1506 1.349 . S
C1495 C1493 1.327 . S
C1495 C1511 1.429 . S
C1495 H1517 0.950 . S
C1496 H1492 0.949 . S
C1496 C1504 1.574 . S
C1496 C1512 1.368 . S
H1497 C1505 0.950 . S
H1498 C1503 0.950 . S
H1499 C1504 0.949 . S
H1500 C1506 0.950 . S
H1501 C1507 0.950 . S
H1502 C1508 0.949 . S
C1503 H1498 0.950 . S
C1503 C1505 1.327 . S
C1503 C1509 1.429 . S
C1504 C1496 1.574 . S
C1504 H1499 0.949 . S
C1504 C1510 1.368 . S
C1505 C1489 1.349 . S
C1505 H1497 0.950 . S
C1505 C1503 1.327 . S
C1506 C1494 1.349 . S
C1506 H1500 0.950 . S
C1506 C1507 1.327 . S
C1507 H1501 0.950 . S
C1507 C1506 1.327 . S
C1507 C1511 1.429 . S
C1508 C1491 1.574 . S
C1508 H1502 0.949 . S
C1508 C1512 1.368 . S
C1509 C1490 1.429 . S
C1509 C1503 1.429 . S
C1509 C1510 1.523 . S
C1510 C1491 1.368 . S
C1510 C1504 1.368 . S
C1510 C1509 1.523 . S
C1511 C1495 1.429 . S
C1511 C1507 1.429 . S
C1511 C1512 1.523 . S
C1512 C1496 1.368 . S
C1512 C1508 1.368 . S
C1512 C1511 1.523 . S
H1513 C1488 0.950 . S
H1514 C1490 0.950 . S
H1515 C1491 0.949 . S
H1516 C1493 0.950 . S
H1517 C1495 0.950 . S
C1518 C1519 1.349 . S
C1518 C1520 1.327 . S
C1518 H1543 0.950 . S
C1519 C1518 1.349 . S
C1519 C1535 1.349 . S
C1520 C1518 1.327 . S
C1520 C1539 1.429 . S
C1520 H1544 0.950 . S
C1521 C1538 1.574 . S
C1521 C1540 1.368 . S
C1521 H1545 0.949 . S
H1522 C1526 0.949 . S
C1523 C1524 1.349 . S
C1523 C1525 1.327 . S
C1523 H1546 0.950 . S
C1524 C1523 1.349 . S
C1524 C1536 1.349 . S
C1525 C1523 1.327 . S
C1525 C1541 1.429 . S
C1525 H1547 0.950 . S
C1526 H1522 0.949 . S
C1526 C1534 1.574 . S
C1526 C1542 1.368 . S
H1527 C1535 0.950 . S
H1528 C1533 0.950 . S
H1529 C1534 0.949 . S
H1530 C1536 0.950 . S
H1531 C1537 0.950 . S
H1532 C1538 0.949 . S
C1533 H1528 0.950 . S
C1533 C1535 1.327 . S
C1533 C1539 1.429 . S
C1534 C1526 1.574 . S
C1534 H1529 0.949 . S
C1534 C1540 1.368 . S
C1535 C1519 1.349 . S
C1535 H1527 0.950 . S
C1535 C1533 1.327 . S
C1536 C1524 1.349 . S
C1536 H1530 0.950 . S
C1536 C1537 1.327 . S
C1537 H1531 0.950 . S
C1537 C1536 1.327 . S
C1537 C1541 1.429 . S
C1538 C1521 1.574 . S
C1538 H1532 0.949 . S
C1538 C1542 1.368 . S
C1539 C1520 1.429 . S
C1539 C1533 1.429 . S
C1539 C1540 1.523 . S
C1540 C1521 1.368 . S
C1540 C1534 1.368 . S
C1540 C1539 1.523 . S
C1541 C1525 1.429 . S
C1541 C1537 1.429 . S
C1541 C1542 1.523 . S
C1542 C1526 1.368 . S
C1542 C1538 1.368 . S
C1542 C1541 1.523 . S
H1543 C1518 0.950 . S
H1544 C1520 0.950 . S
H1545 C1521 0.949 . S
H1546 C1523 0.950 . S
H1547 C1525 0.950 . S
C1548 C1549 1.349 . S
C1548 C1550 1.327 . S
C1548 H1573 0.950 . S
C1549 C1548 1.349 . S
C1549 C1565 1.349 . S
C1550 C1548 1.327 . S
C1550 C1569 1.429 . S
C1550 H1574 0.950 . S
C1551 C1568 1.574 . S
C1551 C1570 1.368 1_565 S
C1551 H1575 0.950 1_565 S
H1552 C1556 0.949 . S
C1553 C1554 1.349 . S
C1553 C1555 1.327 . S
C1553 H1576 0.950 . S
C1554 C1553 1.349 . S
C1554 C1566 1.349 . S
C1555 C1553 1.327 . S
C1555 C1571 1.429 . S
C1555 H1577 0.950 . S
C1556 H1552 0.949 . S
C1556 C1564 1.574 1_565 S
C1556 C1572 1.368 . S
H1557 C1565 0.950 . S
H1558 C1563 0.950 . S
H1559 C1564 0.949 . S
H1560 C1566 0.950 . S
H1561 C1567 0.950 . S
H1562 C1568 0.949 . S
C1563 H1558 0.950 . S
C1563 C1565 1.327 . S
C1563 C1569 1.429 . S
C1564 C1556 1.574 1_545 S
C1564 H1559 0.949 . S
C1564 C1570 1.368 . S
C1565 C1549 1.349 . S
C1565 H1557 0.950 . S
C1565 C1563 1.327 . S
C1566 C1554 1.349 . S
C1566 H1560 0.950 . S
C1566 C1567 1.327 . S
C1567 H1561 0.950 . S
C1567 C1566 1.327 . S
C1567 C1571 1.429 . S
C1568 C1551 1.574 . S
C1568 H1562 0.949 . S
C1568 C1572 1.368 . S
C1569 C1550 1.429 . S
C1569 C1563 1.429 . S
C1569 C1570 1.523 . S
C1570 C1551 1.368 1_545 S
C1570 C1564 1.368 . S
C1570 C1569 1.523 . S
C1571 C1555 1.429 . S
C1571 C1567 1.429 . S
C1571 C1572 1.523 . S
C1572 C1556 1.368 . S
C1572 C1568 1.368 . S
C1572 C1571 1.523 . S
H1573 C1548 0.950 . S
H1574 C1550 0.950 . S
H1575 C1551 0.950 1_545 S
H1576 C1553 0.950 . S
H1577 C1555 0.950 . S
C1578 C1579 1.349 . S
C1578 C1580 1.327 . S
C1578 H1603 0.950 . S
C1579 C1578 1.349 . S
C1579 C1595 1.349 . S
C1580 C1578 1.327 . S
C1580 C1599 1.429 . S
C1580 H1604 0.950 . S
C1581 C1598 1.574 . S
C1581 C1600 1.368 1_455 S
C1581 H1605 0.949 . S
H1582 C1586 0.949 . S
C1583 C1584 1.349 . S
C1583 C1585 1.327 . S
C1583 H1606 0.950 . S
C1584 C1583 1.349 . S
C1584 C1596 1.349 . S
C1585 C1583 1.327 . S
C1585 C1601 1.429 . S
C1585 H1607 0.950 . S
C1586 H1582 0.949 . S
C1586 C1594 1.574 1_455 S
C1586 C1602 1.368 . S
H1587 C1595 0.950 . S
H1588 C1593 0.950 . S
H1589 C1594 0.949 . S
H1590 C1596 0.950 . S
H1591 C1597 0.950 . S
H1592 C1598 0.949 . S
C1593 H1588 0.950 . S
C1593 C1595 1.327 . S
C1593 C1599 1.429 . S
C1594 C1586 1.574 1_655 S
C1594 H1589 0.949 . S
C1594 C1600 1.368 . S
C1595 C1579 1.349 . S
C1595 H1587 0.950 . S
C1595 C1593 1.327 . S
C1596 C1584 1.349 . S
C1596 H1590 0.950 . S
C1596 C1597 1.327 . S
C1597 H1591 0.950 . S
C1597 C1596 1.327 . S
C1597 C1601 1.429 . S
C1598 C1581 1.574 . S
C1598 H1592 0.949 . S
C1598 C1602 1.368 . S
C1599 C1580 1.429 . S
C1599 C1593 1.429 . S
C1599 C1600 1.523 . S
C1600 C1581 1.368 1_655 S
C1600 C1594 1.368 . S
C1600 C1599 1.523 . S
C1601 C1585 1.429 . S
C1601 C1597 1.429 . S
C1601 C1602 1.523 . S
C1602 C1586 1.368 . S
C1602 C1598 1.368 . S
C1602 C1601 1.523 . S
H1603 C1578 0.950 . S
H1604 C1580 0.950 . S
H1605 C1581 0.949 . S
H1606 C1583 0.950 . S
H1607 C1585 0.950 . S
C1608 C1609 1.349 . S
C1608 C1610 1.327 . S
C1608 H1633 0.950 . S
C1609 C1608 1.349 . S
C1609 C1625 1.349 . S
C1610 C1608 1.327 . S
C1610 C1629 1.429 . S
C1610 H1634 0.950 . S
C1611 C1628 1.574 . S
C1611 C1630 1.368 . S
C1611 H1635 0.949 . S
H1612 C1616 0.949 . S
C1613 C1614 1.349 . S
C1613 C1615 1.327 . S
C1613 H1636 0.950 . S
C1614 C1613 1.349 . S
C1614 C1626 1.349 . S
C1615 C1613 1.327 . S
C1615 C1631 1.429 . S
C1615 H1637 0.950 . S
C1616 H1612 0.949 . S
C1616 C1624 1.574 . S
C1616 C1632 1.368 . S
H1617 C1625 0.950 . S
H1618 C1623 0.950 . S
H1619 C1624 0.949 . S
H1620 C1626 0.950 . S
H1621 C1627 0.950 . S
H1622 C1628 0.949 . S
C1623 H1618 0.950 . S
C1623 C1625 1.327 . S
C1623 C1629 1.429 . S
C1624 C1616 1.574 . S
C1624 H1619 0.949 . S
C1624 C1630 1.368 . S
C1625 C1609 1.349 . S
C1625 H1617 0.950 . S
C1625 C1623 1.327 . S
C1626 C1614 1.349 . S
C1626 H1620 0.950 . S
C1626 C1627 1.327 . S
C1627 H1621 0.950 . S
C1627 C1626 1.327 . S
C1627 C1631 1.429 . S
C1628 C1611 1.574 . S
C1628 H1622 0.949 . S
C1628 C1632 1.368 . S
C1629 C1610 1.429 . S
C1629 C1623 1.429 . S
C1629 C1630 1.523 . S
C1630 C1611 1.368 . S
C1630 C1624 1.368 . S
C1630 C1629 1.523 . S
C1631 C1615 1.429 . S
C1631 C1627 1.429 . S
C1631 C1632 1.523 . S
C1632 C1616 1.368 . S
C1632 C1628 1.368 . S
C1632 C1631 1.523 . S
H1633 C1608 0.950 . S
H1634 C1610 0.950 . S
H1635 C1611 0.949 . S
H1636 C1613 0.950 . S
H1637 C1615 0.950 . S
C1638 C1639 1.349 . S
C1638 C1640 1.327 . S
C1638 H1663 0.950 . S
C1639 C1638 1.349 . S
C1639 C1655 1.349 . S
C1640 C1638 1.327 . S
C1640 C1659 1.429 . S
C1640 H1664 0.950 . S
C1641 C1658 1.574 . S
C1641 C1660 1.368 . S
C1641 H1665 0.949 . S
H1642 C1646 0.949 . S
C1643 C1644 1.349 . S
C1643 C1645 1.327 . S
C1643 H1666 0.950 . S
C1644 C1643 1.349 . S
C1644 C1656 1.349 . S
C1645 C1643 1.327 . S
C1645 C1661 1.429 . S
C1645 H1667 0.950 . S
C1646 H1642 0.949 . S
C1646 C1654 1.574 . S
C1646 C1662 1.368 . S
H1647 C1655 0.950 . S
H1648 C1653 0.950 . S
H1649 C1654 0.949 . S
H1650 C1656 0.950 . S
H1651 C1657 0.950 . S
H1652 C1658 0.949 . S
C1653 H1648 0.950 . S
C1653 C1655 1.327 . S
C1653 C1659 1.429 . S
C1654 C1646 1.574 . S
C1654 H1649 0.949 . S
C1654 C1660 1.368 . S
C1655 C1639 1.349 . S
C1655 H1647 0.950 . S
C1655 C1653 1.327 . S
C1656 C1644 1.349 . S
C1656 H1650 0.950 . S
C1656 C1657 1.327 . S
C1657 H1651 0.950 . S
C1657 C1656 1.327 . S
C1657 C1661 1.429 . S
C1658 C1641 1.574 . S
C1658 H1652 0.949 . S
C1658 C1662 1.368 . S
C1659 C1640 1.429 . S
C1659 C1653 1.429 . S
C1659 C1660 1.523 . S
C1660 C1641 1.368 . S
C1660 C1654 1.368 . S
C1660 C1659 1.523 . S
C1661 C1645 1.429 . S
C1661 C1657 1.429 . S
C1661 C1662 1.523 . S
C1662 C1646 1.368 . S
C1662 C1658 1.368 . S
C1662 C1661 1.523 . S
H1663 C1638 0.950 . S
H1664 C1640 0.950 . S
H1665 C1641 0.949 . S
H1666 C1643 0.950 . S
H1667 C1645 0.950 . S
C1668 C1669 1.349 . S
C1668 C1670 1.327 . S
C1668 H1693 0.950 . S
C1669 C1668 1.349 . S
C1669 C1685 1.349 . S
C1670 C1668 1.327 . S
C1670 C1689 1.429 . S
C1670 H1694 0.950 . S
C1671 C1688 1.574 . S
C1671 C1690 1.368 . S
C1671 H1695 0.949 . S
H1672 C1676 0.949 . S
C1673 C1674 1.349 . S
C1673 C1675 1.327 . S
C1673 H1696 0.950 . S
C1674 C1673 1.349 . S
C1674 C1686 1.349 . S
C1675 C1673 1.327 . S
C1675 C1691 1.429 . S
C1675 H1697 0.950 . S
C1676 H1672 0.949 . S
C1676 C1684 1.574 . S
C1676 C1692 1.368 . S
H1677 C1685 0.950 . S
H1678 C1683 0.950 . S
H1679 C1684 0.949 . S
H1680 C1686 0.950 . S
H1681 C1687 0.950 . S
H1682 C1688 0.949 . S
C1683 H1678 0.950 . S
C1683 C1685 1.327 . S
C1683 C1689 1.429 . S
C1684 C1676 1.574 . S
C1684 H1679 0.949 . S
C1684 C1690 1.368 . S
C1685 C1669 1.349 . S
C1685 H1677 0.950 . S
C1685 C1683 1.327 . S
C1686 C1674 1.349 . S
C1686 H1680 0.950 . S
C1686 C1687 1.327 . S
C1687 H1681 0.950 . S
C1687 C1686 1.327 . S
C1687 C1691 1.429 . S
C1688 C1671 1.574 . S
C1688 H1682 0.949 . S
C1688 C1692 1.368 . S
C1689 C1670 1.429 . S
C1689 C1683 1.429 . S
C1689 C1690 1.523 . S
C1690 C1671 1.368 . S
C1690 C1684 1.368 . S
C1690 C1689 1.523 . S
C1691 C1675 1.429 . S
C1691 C1687 1.429 . S
C1691 C1692 1.523 . S
C1692 C1676 1.368 . S
C1692 C1688 1.368 . S
C1692 C1691 1.523 . S
H1693 C1668 0.950 . S
H1694 C1670 0.950 . S
H1695 C1671 0.949 . S
H1696 C1673 0.950 . S
H1697 C1675 0.950 . S
C1698 C1699 1.349 . S
C1698 C1700 1.327 . S
C1698 H1723 0.950 . S
C1699 C1698 1.349 . S
C1699 C1715 1.349 . S
C1700 C1698 1.327 . S
C1700 C1719 1.429 . S
C1700 H1724 0.950 . S
C1701 C1718 1.574 . S
C1701 C1720 1.368 . S
C1701 H1725 0.949 . S
H1702 C1706 0.949 . S
C1703 C1704 1.349 . S
C1703 C1705 1.327 . S
C1703 H1726 0.950 . S
C1704 C1703 1.349 . S
C1704 C1716 1.349 . S
C1705 C1703 1.327 . S
C1705 C1721 1.429 . S
C1705 H1727 0.950 . S
C1706 H1702 0.949 . S
C1706 C1714 1.574 . S
C1706 C1722 1.368 . S
H1707 C1715 0.950 . S
H1708 C1713 0.950 . S
H1709 C1714 0.949 . S
H1710 C1716 0.950 . S
H1711 C1717 0.950 . S
H1712 C1718 0.949 . S
C1713 H1708 0.950 . S
C1713 C1715 1.327 . S
C1713 C1719 1.429 . S
C1714 C1706 1.574 . S
C1714 H1709 0.949 . S
C1714 C1720 1.368 . S
C1715 C1699 1.349 . S
C1715 H1707 0.950 . S
C1715 C1713 1.327 . S
C1716 C1704 1.349 . S
C1716 H1710 0.950 . S
C1716 C1717 1.327 . S
C1717 H1711 0.950 . S
C1717 C1716 1.327 . S
C1717 C1721 1.429 . S
C1718 C1701 1.574 . S
C1718 H1712 0.949 . S
C1718 C1722 1.368 . S
C1719 C1700 1.429 . S
C1719 C1713 1.429 . S
C1719 C1720 1.523 . S
C1720 C1701 1.368 . S
C1720 C1714 1.368 . S
C1720 C1719 1.523 . S
C1721 C1705 1.429 . S
C1721 C1717 1.429 . S
C1721 C1722 1.523 . S
C1722 C1706 1.368 . S
C1722 C1718 1.368 . S
C1722 C1721 1.523 . S
H1723 C1698 0.950 . S
H1724 C1700 0.950 . S
H1725 C1701 0.949 . S
H1726 C1703 0.950 . S
H1727 C1705 0.950 . S
C1728 C1729 1.349 . S
C1728 C1730 1.327 . S
C1728 H1753 0.950 . S
C1729 C1728 1.349 . S
C1729 C1745 1.349 . S
C1730 C1728 1.327 . S
C1730 C1749 1.429 . S
C1730 H1754 0.950 . S
C1731 C1748 1.574 1_565 S
C1731 C1750 1.368 . S
C1731 H1755 0.949 . S
H1732 C1736 0.949 . S
C1733 C1734 1.349 . S
C1733 C1735 1.327 . S
C1733 H1756 0.950 . S
C1734 C1733 1.349 . S
C1734 C1746 1.349 . S
C1735 C1733 1.327 . S
C1735 C1751 1.429 . S
C1735 H1757 0.950 . S
C1736 H1732 0.949 . S
C1736 C1744 1.574 . S
C1736 C1752 1.368 . S
H1737 C1745 0.950 . S
H1738 C1743 0.950 . S
H1739 C1744 0.949 . S
H1740 C1746 0.950 . S
H1741 C1747 0.950 . S
H1742 C1748 0.949 . S
C1743 H1738 0.950 . S
C1743 C1745 1.327 . S
C1743 C1749 1.429 . S
C1744 C1736 1.574 . S
C1744 H1739 0.949 . S
C1744 C1750 1.368 1_545 S
C1745 C1729 1.349 . S
C1745 H1737 0.950 . S
C1745 C1743 1.327 . S
C1746 C1734 1.349 . S
C1746 H1740 0.950 . S
C1746 C1747 1.327 . S
C1747 H1741 0.950 . S
C1747 C1746 1.327 . S
C1747 C1751 1.429 . S
C1748 C1731 1.574 1_545 S
C1748 H1742 0.949 . S
C1748 C1752 1.368 . S
C1749 C1730 1.429 . S
C1749 C1743 1.429 . S
C1749 C1750 1.523 . S
C1750 C1731 1.368 . S
C1750 C1744 1.368 1_565 S
C1750 C1749 1.523 . S
C1751 C1735 1.429 . S
C1751 C1747 1.429 . S
C1751 C1752 1.523 . S
C1752 C1736 1.368 . S
C1752 C1748 1.368 . S
C1752 C1751 1.523 . S
H1753 C1728 0.950 . S
H1754 C1730 0.950 . S
H1755 C1731 0.949 . S
H1756 C1733 0.950 . S
H1757 C1735 0.950 . S
C1758 C1759 1.349 . S
C1758 C1760 1.327 . S
C1758 H1783 0.950 . S
C1759 C1758 1.349 . S
C1759 C1775 1.349 . S
C1760 C1758 1.327 . S
C1760 C1779 1.429 . S
C1760 H1784 0.950 . S
C1761 C1778 1.574 . S
C1761 C1780 1.368 1_655 S
C1761 H1785 0.947 1_655 S
H1762 C1766 0.949 . S
C1763 C1764 1.349 . S
C1763 C1765 1.327 . S
C1763 H1786 0.950 . S
C1764 C1763 1.349 . S
C1764 C1776 1.349 . S
C1765 C1763 1.327 . S
C1765 C1781 1.429 . S
C1765 H1787 0.950 . S
C1766 H1762 0.949 . S
C1766 C1774 1.574 . S
C1766 C1782 1.368 . S
H1767 C1775 0.950 . S
H1768 C1773 0.950 . S
H1769 C1774 0.949 1_455 S
H1770 C1776 0.950 . S
H1771 C1777 0.950 . S
H1772 C1778 0.949 . S
C1773 H1768 0.950 . S
C1773 C1775 1.327 . S
C1773 C1779 1.429 . S
C1774 C1766 1.574 . S
C1774 H1769 0.949 1_655 S
C1774 C1780 1.368 1_655 S
C1775 C1759 1.349 . S
C1775 H1767 0.950 . S
C1775 C1773 1.327 . S
C1776 C1764 1.349 . S
C1776 H1770 0.950 . S
C1776 C1777 1.327 . S
C1777 H1771 0.950 . S
C1777 C1776 1.327 . S
C1777 C1781 1.429 . S
C1778 C1761 1.574 . S
C1778 H1772 0.949 . S
C1778 C1782 1.368 . S
C1779 C1760 1.429 . S
C1779 C1773 1.429 . S
C1779 C1780 1.523 . S
C1780 C1761 1.368 1_455 S
C1780 C1774 1.368 1_455 S
C1780 C1779 1.523 . S
C1781 C1765 1.429 . S
C1781 C1777 1.429 . S
C1781 C1782 1.523 . S
C1782 C1766 1.368 . S
C1782 C1778 1.368 . S
C1782 C1781 1.523 . S
H1783 C1758 0.950 . S
H1784 C1760 0.950 . S
H1785 C1761 0.947 1_455 S
H1786 C1763 0.950 . S
H1787 C1765 0.950 . S
C1788 C1789 1.349 . S
C1788 C1790 1.327 . S
C1788 H1813 0.950 . S
C1789 C1788 1.349 . S
C1789 C1805 1.349 . S
C1790 C1788 1.327 . S
C1790 C1809 1.429 . S
C1790 H1814 0.950 . S
C1791 C1808 1.574 . S
C1791 C1810 1.368 . S
C1791 H1815 0.949 . S
H1792 C1796 0.949 . S
C1793 C1794 1.349 . S
C1793 C1795 1.327 . S
C1793 H1816 0.950 . S
C1794 C1793 1.349 . S
C1794 C1806 1.349 . S
C1795 C1793 1.327 . S
C1795 C1811 1.429 . S
C1795 H1817 0.950 . S
C1796 H1792 0.949 . S
C1796 C1804 1.574 . S
C1796 C1812 1.368 . S
H1797 C1805 0.950 . S
H1798 C1803 0.950 . S
H1799 C1804 0.949 . S
H1800 C1806 0.950 . S
H1801 C1807 0.950 . S
H1802 C1808 0.949 . S
C1803 H1798 0.950 . S
C1803 C1805 1.327 . S
C1803 C1809 1.429 . S
C1804 C1796 1.574 . S
C1804 H1799 0.949 . S
C1804 C1810 1.368 . S
C1805 C1789 1.349 . S
C1805 H1797 0.950 . S
C1805 C1803 1.327 . S
C1806 C1794 1.349 . S
C1806 H1800 0.950 . S
C1806 C1807 1.327 . S
C1807 H1801 0.950 . S
C1807 C1806 1.327 . S
C1807 C1811 1.429 . S
C1808 C1791 1.574 . S
C1808 H1802 0.949 . S
C1808 C1812 1.368 . S
C1809 C1790 1.429 . S
C1809 C1803 1.429 . S
C1809 C1810 1.523 . S
C1810 C1791 1.368 . S
C1810 C1804 1.368 . S
C1810 C1809 1.523 . S
C1811 C1795 1.429 . S
C1811 C1807 1.429 . S
C1811 C1812 1.523 . S
C1812 C1796 1.368 . S
C1812 C1808 1.368 . S
C1812 C1811 1.523 . S
H1813 C1788 0.950 . S
H1814 C1790 0.950 . S
H1815 C1791 0.949 . S
H1816 C1793 0.950 . S
H1817 C1795 0.950 . S
C1818 C1819 1.349 . S
C1818 C1820 1.327 . S
C1818 H1843 0.950 . S
C1819 C1818 1.349 . S
C1819 C1835 1.349 . S
C1820 C1818 1.327 . S
C1820 C1839 1.429 . S
C1820 H1844 0.950 . S
C1821 C1838 1.574 1_455 S
C1821 C1840 1.368 . S
C1821 H1845 0.949 . S
H1822 C1826 0.949 . S
C1823 C1824 1.349 . S
C1823 C1825 1.327 . S
C1823 H1846 0.950 . S
C1824 C1823 1.349 . S
C1824 C1836 1.349 . S
C1825 C1823 1.327 . S
C1825 C1841 1.429 . S
C1825 H1847 0.950 . S
C1826 H1822 0.949 . S
C1826 C1834 1.574 . S
C1826 C1842 1.368 . S
H1827 C1835 0.950 . S
H1828 C1833 0.950 . S
H1829 C1834 0.949 . S
H1830 C1836 0.950 . S
H1831 C1837 0.950 . S
H1832 C1838 0.949 . S
C1833 H1828 0.950 . S
C1833 C1835 1.327 . S
C1833 C1839 1.429 . S
C1834 C1826 1.574 . S
C1834 H1829 0.949 . S
C1834 C1840 1.368 1_655 S
C1835 C1819 1.349 . S
C1835 H1827 0.950 . S
C1835 C1833 1.327 . S
C1836 C1824 1.349 . S
C1836 H1830 0.950 . S
C1836 C1837 1.327 . S
C1837 H1831 0.950 . S
C1837 C1836 1.327 . S
C1837 C1841 1.429 . S
C1838 C1821 1.574 1_655 S
C1838 H1832 0.949 . S
C1838 C1842 1.368 . S
C1839 C1820 1.429 . S
C1839 C1833 1.429 . S
C1839 C1840 1.523 . S
C1840 C1821 1.368 . S
C1840 C1834 1.368 1_455 S
C1840 C1839 1.523 . S
C1841 C1825 1.429 . S
C1841 C1837 1.429 . S
C1841 C1842 1.523 . S
C1842 C1826 1.368 . S
C1842 C1838 1.368 . S
C1842 C1841 1.523 . S
H1843 C1818 0.950 . S
H1844 C1820 0.950 . S
H1845 C1821 0.949 . S
H1846 C1823 0.950 . S
H1847 C1825 0.950 . S
C1848 C1849 1.349 . S
C1848 C1850 1.327 . S
C1848 H1873 0.950 . S
C1849 C1848 1.349 . S
C1849 C1865 1.349 . S
C1850 C1848 1.327 . S
C1850 C1869 1.429 . S
C1850 H1874 0.950 . S
C1851 C1868 1.574 . S
C1851 C1870 1.368 . S
C1851 H1875 0.949 . S
H1852 C1856 0.949 . S
C1853 C1854 1.349 . S
C1853 C1855 1.327 . S
C1853 H1876 0.950 . S
C1854 C1853 1.349 . S
C1854 C1866 1.349 . S
C1855 C1853 1.327 . S
C1855 C1871 1.429 . S
C1855 H1877 0.950 . S
C1856 H1852 0.949 . S
C1856 C1864 1.574 . S
C1856 C1872 1.368 . S
H1857 C1865 0.950 . S
H1858 C1863 0.950 . S
H1859 C1864 0.949 . S
H1860 C1866 0.950 . S
H1861 C1867 0.950 . S
H1862 C1868 0.949 . S
C1863 H1858 0.950 . S
C1863 C1865 1.327 . S
C1863 C1869 1.429 . S
C1864 C1856 1.574 . S
C1864 H1859 0.949 . S
C1864 C1870 1.368 . S
C1865 C1849 1.349 . S
C1865 H1857 0.950 . S
C1865 C1863 1.327 . S
C1866 C1854 1.349 . S
C1866 H1860 0.950 . S
C1866 C1867 1.327 . S
C1867 H1861 0.950 . S
C1867 C1866 1.327 . S
C1867 C1871 1.429 . S
C1868 C1851 1.574 . S
C1868 H1862 0.949 . S
C1868 C1872 1.368 . S
C1869 C1850 1.429 . S
C1869 C1863 1.429 . S
C1869 C1870 1.523 . S
C1870 C1851 1.368 . S
C1870 C1864 1.368 . S
C1870 C1869 1.523 . S
C1871 C1855 1.429 . S
C1871 C1867 1.429 . S
C1871 C1872 1.523 . S
C1872 C1856 1.368 . S
C1872 C1868 1.368 . S
C1872 C1871 1.523 . S
H1873 C1848 0.950 . S
H1874 C1850 0.950 . S
H1875 C1851 0.949 . S
H1876 C1853 0.950 . S
H1877 C1855 0.950 . S
C1878 C1879 1.349 . S
C1878 C1880 1.327 . S
C1878 H1903 0.950 . S
C1879 C1878 1.349 . S
C1879 C1895 1.349 . S
C1880 C1878 1.327 . S
C1880 C1899 1.429 . S
C1880 H1904 0.950 . S
C1881 C1898 1.574 1_565 S
C1881 C1900 1.368 . S
C1881 H1905 0.949 . S
H1882 C1886 0.949 . S
C1883 C1884 1.349 . S
C1883 C1885 1.327 . S
C1883 H1906 0.950 . S
C1884 C1883 1.349 . S
C1884 C1896 1.349 . S
C1885 C1883 1.327 . S
C1885 C1901 1.429 . S
C1885 H1907 0.950 . S
C1886 H1882 0.949 . S
C1886 C1894 1.574 1_545 S
C1886 C1902 1.368 . S
H1887 C1895 0.950 . S
H1888 C1893 0.950 . S
H1889 C1894 0.949 . S
H1890 C1896 0.950 . S
H1891 C1897 0.950 . S
H1892 C1898 0.949 . S
C1893 H1888 0.950 . S
C1893 C1895 1.327 . S
C1893 C1899 1.429 . S
C1894 C1886 1.574 1_565 S
C1894 H1889 0.949 . S
C1894 C1900 1.368 . S
C1895 C1879 1.349 . S
C1895 H1887 0.950 . S
C1895 C1893 1.327 . S
C1896 C1884 1.349 . S
C1896 H1890 0.950 . S
C1896 C1897 1.327 . S
C1897 H1891 0.950 . S
C1897 C1896 1.327 . S
C1897 C1901 1.429 . S
C1898 C1881 1.574 1_545 S
C1898 H1892 0.949 . S
C1898 C1902 1.368 . S
C1899 C1880 1.429 . S
C1899 C1893 1.429 . S
C1899 C1900 1.523 . S
C1900 C1881 1.368 . S
C1900 C1894 1.368 . S
C1900 C1899 1.523 . S
C1901 C1885 1.429 . S
C1901 C1897 1.429 . S
C1901 C1902 1.523 . S
C1902 C1886 1.368 . S
C1902 C1898 1.368 . S
C1902 C1901 1.523 . S
H1903 C1878 0.950 . S
H1904 C1880 0.950 . S
H1905 C1881 0.949 . S
H1906 C1883 0.950 . S
H1907 C1885 0.950 . S
C1908 C1909 1.349 . S
C1908 C1910 1.327 . S
C1908 H1933 0.950 . S
C1909 C1908 1.349 . S
C1909 C1925 1.349 . S
C1910 C1908 1.327 . S
C1910 C1929 1.429 . S
C1910 H1934 0.950 . S
C1911 C1928 1.574 . S
C1911 C1930 1.368 . S
C1911 H1935 0.949 . S
H1912 C1916 0.949 . S
C1913 C1914 1.349 . S
C1913 C1915 1.327 . S
C1913 H1936 0.950 . S
C1914 C1913 1.349 . S
C1914 C1926 1.349 . S
C1915 C1913 1.327 . S
C1915 C1931 1.429 . S
C1915 H1937 0.950 . S
C1916 H1912 0.949 . S
C1916 C1924 1.574 . S
C1916 C1932 1.368 . S
H1917 C1925 0.950 . S
H1918 C1923 0.950 . S
H1919 C1924 0.949 . S
H1920 C1926 0.950 . S
H1921 C1927 0.950 . S
H1922 C1928 0.949 . S
C1923 H1918 0.950 . S
C1923 C1925 1.327 . S
C1923 C1929 1.429 . S
C1924 C1916 1.574 . S
C1924 H1919 0.949 . S
C1924 C1930 1.368 . S
C1925 C1909 1.349 . S
C1925 H1917 0.950 . S
C1925 C1923 1.327 . S
C1926 C1914 1.349 . S
C1926 H1920 0.950 . S
C1926 C1927 1.327 . S
C1927 H1921 0.950 . S
C1927 C1926 1.327 . S
C1927 C1931 1.429 . S
C1928 C1911 1.574 . S
C1928 H1922 0.949 . S
C1928 C1932 1.368 . S
C1929 C1910 1.429 . S
C1929 C1923 1.429 . S
C1929 C1930 1.523 . S
C1930 C1911 1.368 . S
C1930 C1924 1.368 . S
C1930 C1929 1.523 . S
C1931 C1915 1.429 . S
C1931 C1927 1.429 . S
C1931 C1932 1.523 . S
C1932 C1916 1.368 . S
C1932 C1928 1.368 . S
C1932 C1931 1.523 . S
H1933 C1908 0.950 . S
H1934 C1910 0.950 . S
H1935 C1911 0.949 . S
H1936 C1913 0.950 . S
H1937 C1915 0.950 . S
C1938 C1939 1.349 . S
C1938 C1940 1.327 . S
C1938 H1963 0.950 . S
C1939 C1938 1.349 . S
C1939 C1955 1.349 . S
C1940 C1938 1.327 . S
C1940 C1959 1.429 . S
C1940 H1964 0.950 . S
C1941 C1958 1.574 . S
C1941 C1960 1.368 . S
C1941 H1965 0.949 . S
H1942 C1946 0.949 . S
C1943 C1944 1.349 . S
C1943 C1945 1.327 . S
C1943 H1966 0.950 . S
C1944 C1943 1.349 . S
C1944 C1956 1.349 . S
C1945 C1943 1.327 . S
C1945 C1961 1.429 . S
C1945 H1967 0.950 . S
C1946 H1942 0.949 . S
C1946 C1954 1.574 . S
C1946 C1962 1.368 . S
H1947 C1955 0.950 . S
H1948 C1953 0.950 . S
H1949 C1954 0.949 . S
H1950 C1956 0.950 . S
H1951 C1957 0.950 . S
H1952 C1958 0.949 . S
C1953 H1948 0.950 . S
C1953 C1955 1.327 . S
C1953 C1959 1.429 . S
C1954 C1946 1.574 . S
C1954 H1949 0.949 . S
C1954 C1960 1.368 . S
C1955 C1939 1.349 . S
C1955 H1947 0.950 . S
C1955 C1953 1.327 . S
C1956 C1944 1.349 . S
C1956 H1950 0.950 . S
C1956 C1957 1.327 . S
C1957 H1951 0.950 . S
C1957 C1956 1.327 . S
C1957 C1961 1.429 . S
C1958 C1941 1.574 . S
C1958 H1952 0.949 . S
C1958 C1962 1.368 . S
C1959 C1940 1.429 . S
C1959 C1953 1.429 . S
C1959 C1960 1.523 . S
C1960 C1941 1.368 . S
C1960 C1954 1.368 . S
C1960 C1959 1.523 . S
C1961 C1945 1.429 . S
C1961 C1957 1.429 . S
C1961 C1962 1.523 . S
C1962 C1946 1.368 . S
C1962 C1958 1.368 . S
C1962 C1961 1.523 . S
H1963 C1938 0.950 . S
H1964 C1940 0.950 . S
H1965 C1941 0.949 . S
H1966 C1943 0.950 . S
H1967 C1945 0.950 . S
C1968 C1969 1.349 . S
C1968 C1970 1.327 . S
C1968 H1993 0.950 . S
C1969 C1968 1.349 . S
C1969 C1985 1.349 . S
C1970 C1968 1.327 . S
C1970 C1989 1.429 . S
C1970 H1994 0.950 . S
C1971 C1988 1.574 . S
C1971 C1990 1.368 . S
C1971 H1995 0.949 . S
H1972 C1976 0.949 . S
C1973 C1974 1.349 . S
C1973 C1975 1.327 . S
C1973 H1996 0.950 . S
C1974 C1973 1.349 . S
C1974 C1986 1.349 . S
C1975 C1973 1.327 . S
C1975 C1991 1.429 . S
C1975 H1997 0.950 . S
C1976 H1972 0.949 . S
C1976 C1984 1.574 . S
C1976 C1992 1.368 . S
H1977 C1985 0.950 . S
H1978 C1983 0.950 . S
H1979 C1984 0.949 . S
H1980 C1986 0.950 . S
H1981 C1987 0.950 . S
H1982 C1988 0.949 . S
C1983 H1978 0.950 . S
C1983 C1985 1.327 . S
C1983 C1989 1.429 . S
C1984 C1976 1.574 . S
C1984 H1979 0.949 . S
C1984 C1990 1.368 . S
C1985 C1969 1.349 . S
C1985 H1977 0.950 . S
C1985 C1983 1.327 . S
C1986 C1974 1.349 . S
C1986 H1980 0.950 . S
C1986 C1987 1.327 . S
C1987 H1981 0.950 . S
C1987 C1986 1.327 . S
C1987 C1991 1.429 . S
C1988 C1971 1.574 . S
C1988 H1982 0.949 . S
C1988 C1992 1.368 . S
C1989 C1970 1.429 . S
C1989 C1983 1.429 . S
C1989 C1990 1.523 . S
C1990 C1971 1.368 . S
C1990 C1984 1.368 . S
C1990 C1989 1.523 . S
C1991 C1975 1.429 . S
C1991 C1987 1.429 . S
C1991 C1992 1.523 . S
C1992 C1976 1.368 . S
C1992 C1988 1.368 . S
C1992 C1991 1.523 . S
H1993 C1968 0.950 . S
H1994 C1970 0.950 . S
H1995 C1971 0.949 . S
H1996 C1973 0.950 . S
H1997 C1975 0.950 . S
C1998 C1999 1.349 . S
C1998 C2000 1.327 . S
C1998 H2023 0.950 . S
C1999 C1998 1.349 . S
C1999 C2015 1.349 . S
C2000 C1998 1.327 . S
C2000 C2019 1.429 . S
C2000 H2024 0.950 . S
C2001 C2018 1.574 . S
C2001 C2020 1.368 . S
C2001 H2025 0.949 . S
H2002 C2006 0.949 . S
C2003 C2004 1.349 . S
C2003 C2005 1.327 . S
C2003 H2026 0.950 . S
C2004 C2003 1.349 . S
C2004 C2016 1.349 . S
C2005 C2003 1.327 . S
C2005 C2021 1.429 . S
C2005 H2027 0.950 . S
C2006 H2002 0.949 . S
C2006 C2014 1.574 . S
C2006 C2022 1.368 . S
H2007 C2015 0.950 . S
H2008 C2013 0.950 . S
H2009 C2014 0.949 . S
H2010 C2016 0.950 1_545 S
H2011 C2017 0.950 . S
H2012 C2018 0.949 . S
C2013 H2008 0.950 . S
C2013 C2015 1.327 . S
C2013 C2019 1.429 . S
C2014 C2006 1.574 . S
C2014 H2009 0.949 . S
C2014 C2020 1.368 . S
C2015 C1999 1.349 . S
C2015 H2007 0.950 . S
C2015 C2013 1.327 . S
C2016 C2004 1.349 . S
C2016 H2010 0.950 1_565 S
C2016 C2017 1.327 . S
C2017 H2011 0.950 . S
C2017 C2016 1.327 . S
C2017 C2021 1.429 . S
C2018 C2001 1.574 . S
C2018 H2012 0.949 . S
C2018 C2022 1.368 . S
C2019 C2000 1.429 . S
C2019 C2013 1.429 . S
C2019 C2020 1.523 . S
C2020 C2001 1.368 . S
C2020 C2014 1.368 . S
C2020 C2019 1.523 . S
C2021 C2005 1.429 . S
C2021 C2017 1.429 . S
C2021 C2022 1.523 . S
C2022 C2006 1.368 . S
C2022 C2018 1.368 . S
C2022 C2021 1.523 . S
H2023 C1998 0.950 . S
H2024 C2000 0.950 . S
H2025 C2001 0.949 . S
H2026 C2003 0.950 . S
H2027 C2005 0.950 . S
C2028 C2029 1.349 . S
C2028 C2030 1.327 . S
C2028 H2053 0.950 . S
C2029 C2028 1.349 . S
C2029 C2045 1.349 . S
C2030 C2028 1.327 . S
C2030 C2049 1.429 . S
C2030 H2054 0.950 . S
C2031 C2048 1.574 . S
C2031 C2050 1.368 . S
C2031 H2055 0.949 . S
H2032 C2036 0.949 . S
C2033 C2034 1.349 . S
C2033 C2035 1.327 . S
C2033 H2056 0.950 1_455 S
C2034 C2033 1.349 . S
C2034 C2046 1.349 . S
C2035 C2033 1.327 . S
C2035 C2051 1.429 . S
C2035 H2057 0.952 . S
C2036 H2032 0.949 . S
C2036 C2044 1.574 . S
C2036 C2052 1.368 . S
H2037 C2045 0.950 . S
H2038 C2043 0.950 . S
H2039 C2044 0.949 . S
H2040 C2046 0.950 . S
H2041 C2047 0.950 . S
H2042 C2048 0.949 . S
C2043 H2038 0.950 . S
C2043 C2045 1.327 . S
C2043 C2049 1.429 . S
C2044 C2036 1.574 . S
C2044 H2039 0.949 . S
C2044 C2050 1.368 . S
C2045 C2029 1.349 . S
C2045 H2037 0.950 . S
C2045 C2043 1.327 . S
C2046 C2034 1.349 . S
C2046 H2040 0.950 . S
C2046 C2047 1.327 . S
C2047 H2041 0.950 . S
C2047 C2046 1.327 . S
C2047 C2051 1.429 . S
C2048 C2031 1.574 . S
C2048 H2042 0.949 . S
C2048 C2052 1.368 . S
C2049 C2030 1.429 . S
C2049 C2043 1.429 . S
C2049 C2050 1.523 . S
C2050 C2031 1.368 . S
C2050 C2044 1.368 . S
C2050 C2049 1.523 . S
C2051 C2035 1.429 . S
C2051 C2047 1.429 . S
C2051 C2052 1.523 . S
C2052 C2036 1.368 . S
C2052 C2048 1.368 . S
C2052 C2051 1.523 . S
H2053 C2028 0.950 . S
H2054 C2030 0.950 . S
H2055 C2031 0.949 . S
H2056 C2033 0.950 1_655 S
H2057 C2035 0.952 . S
C2058 C2059 1.349 . S
C2058 C2060 1.327 . S
C2058 H2083 0.950 . S
C2059 C2058 1.349 . S
C2059 C2075 1.349 . S
C2060 C2058 1.327 . S
C2060 C2079 1.429 . S
C2060 H2084 0.950 . S
C2061 C2078 1.574 . S
C2061 C2080 1.368 . S
C2061 H2085 0.949 . S
H2062 C2066 0.949 . S
C2063 C2064 1.349 . S
C2063 C2065 1.327 . S
C2063 H2086 0.950 . S
C2064 C2063 1.349 . S
C2064 C2076 1.349 . S
C2065 C2063 1.327 . S
C2065 C2081 1.429 . S
C2065 H2087 0.950 . S
C2066 H2062 0.949 . S
C2066 C2074 1.574 . S
C2066 C2082 1.368 . S
H2067 C2075 0.950 . S
H2068 C2073 0.950 . S
H2069 C2074 0.949 . S
H2070 C2076 0.950 . S
H2071 C2077 0.950 . S
H2072 C2078 0.949 . S
C2073 H2068 0.950 . S
C2073 C2075 1.327 . S
C2073 C2079 1.429 . S
C2074 C2066 1.574 . S
C2074 H2069 0.949 . S
C2074 C2080 1.368 . S
C2075 C2059 1.349 . S
C2075 H2067 0.950 . S
C2075 C2073 1.327 . S
C2076 C2064 1.349 . S
C2076 H2070 0.950 . S
C2076 C2077 1.327 . S
C2077 H2071 0.950 . S
C2077 C2076 1.327 . S
C2077 C2081 1.429 . S
C2078 C2061 1.574 . S
C2078 H2072 0.949 . S
C2078 C2082 1.368 . S
C2079 C2060 1.429 . S
C2079 C2073 1.429 . S
C2079 C2080 1.523 . S
C2080 C2061 1.368 . S
C2080 C2074 1.368 . S
C2080 C2079 1.523 . S
C2081 C2065 1.429 . S
C2081 C2077 1.429 . S
C2081 C2082 1.523 . S
C2082 C2066 1.368 . S
C2082 C2078 1.368 . S
C2082 C2081 1.523 . S
H2083 C2058 0.950 . S
H2084 C2060 0.950 . S
H2085 C2061 0.949 . S
H2086 C2063 0.950 . S
H2087 C2065 0.950 . S
C2088 C2089 1.349 . S
C2088 C2090 1.327 . S
C2088 H2113 0.950 . S
C2089 C2088 1.349 . S
C2089 C2105 1.349 . S
C2090 C2088 1.327 . S
C2090 C2109 1.429 . S
C2090 H2114 0.950 . S
C2091 C2108 1.574 . S
C2091 C2110 1.368 . S
C2091 H2115 0.949 . S
H2092 C2096 0.949 . S
C2093 C2094 1.349 . S
C2093 C2095 1.327 . S
C2093 H2116 0.950 . S
C2094 C2093 1.349 . S
C2094 C2106 1.349 . S
C2095 C2093 1.327 . S
C2095 C2111 1.429 . S
C2095 H2117 0.950 . S
C2096 H2092 0.949 . S
C2096 C2104 1.574 . S
C2096 C2112 1.368 . S
H2097 C2105 0.950 . S
H2098 C2103 0.950 . S
H2099 C2104 0.949 . S
H2100 C2106 0.950 . S
H2101 C2107 0.950 . S
H2102 C2108 0.949 . S
C2103 H2098 0.950 . S
C2103 C2105 1.327 . S
C2103 C2109 1.429 . S
C2104 C2096 1.574 . S
C2104 H2099 0.949 . S
C2104 C2110 1.368 . S
C2105 C2089 1.349 . S
C2105 H2097 0.950 . S
C2105 C2103 1.327 . S
C2106 C2094 1.349 . S
C2106 H2100 0.950 . S
C2106 C2107 1.327 . S
C2107 H2101 0.950 . S
C2107 C2106 1.327 . S
C2107 C2111 1.429 . S
C2108 C2091 1.574 . S
C2108 H2102 0.949 . S
C2108 C2112 1.368 . S
C2109 C2090 1.429 . S
C2109 C2103 1.429 . S
C2109 C2110 1.523 . S
C2110 C2091 1.368 . S
C2110 C2104 1.368 . S
C2110 C2109 1.523 . S
C2111 C2095 1.429 . S
C2111 C2107 1.429 . S
C2111 C2112 1.523 . S
C2112 C2096 1.368 . S
C2112 C2108 1.368 . S
C2112 C2111 1.523 . S
H2113 C2088 0.950 . S
H2114 C2090 0.950 . S
H2115 C2091 0.949 . S
H2116 C2093 0.950 . S
H2117 C2095 0.950 . S
C2118 C2119 1.349 . S
C2118 C2120 1.327 . S
C2118 H2143 0.950 . S
C2119 C2118 1.349 . S
C2119 C2135 1.349 . S
C2120 C2118 1.327 . S
C2120 C2139 1.429 . S
C2120 H2144 0.950 . S
C2121 C2138 1.574 . S
C2121 C2140 1.368 . S
C2121 H2145 0.949 . S
H2122 C2126 0.949 . S
C2123 C2124 1.349 . S
C2123 C2125 1.327 . S
C2123 H2146 0.950 . S
C2124 C2123 1.349 . S
C2124 C2136 1.349 . S
C2125 C2123 1.327 . S
C2125 C2141 1.429 . S
C2125 H2147 0.950 . S
C2126 H2122 0.949 . S
C2126 C2134 1.574 . S
C2126 C2142 1.368 . S
H2127 C2135 0.950 . S
H2128 C2133 0.950 . S
H2129 C2134 0.949 . S
H2130 C2136 0.950 . S
H2131 C2137 0.950 . S
H2132 C2138 0.949 . S
C2133 H2128 0.950 . S
C2133 C2135 1.327 . S
C2133 C2139 1.429 . S
C2134 C2126 1.574 . S
C2134 H2129 0.949 . S
C2134 C2140 1.368 . S
C2135 C2119 1.349 . S
C2135 H2127 0.950 . S
C2135 C2133 1.327 . S
C2136 C2124 1.349 . S
C2136 H2130 0.950 . S
C2136 C2137 1.327 . S
C2137 H2131 0.950 . S
C2137 C2136 1.327 . S
C2137 C2141 1.429 . S
C2138 C2121 1.574 . S
C2138 H2132 0.949 . S
C2138 C2142 1.368 . S
C2139 C2120 1.429 . S
C2139 C2133 1.429 . S
C2139 C2140 1.523 . S
C2140 C2121 1.368 . S
C2140 C2134 1.368 . S
C2140 C2139 1.523 . S
C2141 C2125 1.429 . S
C2141 C2137 1.429 . S
C2141 C2142 1.523 . S
C2142 C2126 1.368 . S
C2142 C2138 1.368 . S
C2142 C2141 1.523 . S
H2143 C2118 0.950 . S
H2144 C2120 0.950 . S
H2145 C2121 0.949 . S
H2146 C2123 0.950 . S
H2147 C2125 0.950 . S
C2148 C2149 1.349 . S
C2148 C2150 1.327 . S
C2148 H2173 0.950 . S
C2149 C2148 1.349 . S
C2149 C2165 1.349 . S
C2150 C2148 1.327 . S
C2150 C2169 1.429 . S
C2150 H2174 0.950 . S
C2151 C2168 1.574 . S
C2151 C2170 1.368 . S
C2151 H2175 0.949 . S
H2152 C2156 0.949 . S
C2153 C2154 1.349 . S
C2153 C2155 1.327 . S
C2153 H2176 0.950 . S
C2154 C2153 1.349 . S
C2154 C2166 1.349 . S
C2155 C2153 1.327 . S
C2155 C2171 1.429 . S
C2155 H2177 0.950 . S
C2156 H2152 0.949 . S
C2156 C2164 1.574 . S
C2156 C2172 1.368 . S
H2157 C2165 0.950 . S
H2158 C2163 0.950 . S
H2159 C2164 0.949 . S
H2160 C2166 0.950 . S
H2161 C2167 0.950 . S
H2162 C2168 0.949 . S
C2163 H2158 0.950 . S
C2163 C2165 1.327 . S
C2163 C2169 1.429 . S
C2164 C2156 1.574 . S
C2164 H2159 0.949 . S
C2164 C2170 1.368 . S
C2165 C2149 1.349 . S
C2165 H2157 0.950 . S
C2165 C2163 1.327 . S
C2166 C2154 1.349 . S
C2166 H2160 0.950 . S
C2166 C2167 1.327 . S
C2167 H2161 0.950 . S
C2167 C2166 1.327 . S
C2167 C2171 1.429 . S
C2168 C2151 1.574 . S
C2168 H2162 0.949 . S
C2168 C2172 1.368 . S
C2169 C2150 1.429 . S
C2169 C2163 1.429 . S
C2169 C2170 1.523 . S
C2170 C2151 1.368 . S
C2170 C2164 1.368 . S
C2170 C2169 1.523 . S
C2171 C2155 1.429 . S
C2171 C2167 1.429 . S
C2171 C2172 1.523 . S
C2172 C2156 1.368 . S
C2172 C2168 1.368 . S
C2172 C2171 1.523 . S
H2173 C2148 0.950 . S
H2174 C2150 0.950 . S
H2175 C2151 0.949 . S
H2176 C2153 0.950 . S
H2177 C2155 0.950 . S
C2178 C2179 1.349 . S
C2178 C2180 1.327 . S
C2178 H2203 0.950 . S
C2179 C2178 1.349 . S
C2179 C2195 1.349 . S
C2180 C2178 1.327 . S
C2180 C2199 1.429 . S
C2180 H2204 0.950 . S
C2181 C2198 1.574 . S
C2181 C2200 1.368 . S
C2181 H2205 0.949 . S
H2182 C2186 0.949 . S
C2183 C2184 1.349 . S
C2183 C2185 1.327 . S
C2183 H2206 0.950 . S
C2184 C2183 1.349 . S
C2184 C2196 1.349 . S
C2185 C2183 1.327 . S
C2185 C2201 1.429 . S
C2185 H2207 0.950 . S
C2186 H2182 0.949 . S
C2186 C2194 1.574 . S
C2186 C2202 1.368 . S
H2187 C2195 0.950 . S
H2188 C2193 0.950 . S
H2189 C2194 0.949 . S
H2190 C2196 0.950 . S
H2191 C2197 0.950 . S
H2192 C2198 0.949 . S
C2193 H2188 0.950 . S
C2193 C2195 1.327 . S
C2193 C2199 1.429 . S
C2194 C2186 1.574 . S
C2194 H2189 0.949 . S
C2194 C2200 1.368 . S
C2195 C2179 1.349 . S
C2195 H2187 0.950 . S
C2195 C2193 1.327 . S
C2196 C2184 1.349 . S
C2196 H2190 0.950 . S
C2196 C2197 1.327 . S
C2197 H2191 0.950 . S
C2197 C2196 1.327 . S
C2197 C2201 1.429 . S
C2198 C2181 1.574 . S
C2198 H2192 0.949 . S
C2198 C2202 1.368 . S
C2199 C2180 1.429 . S
C2199 C2193 1.429 . S
C2199 C2200 1.523 . S
C2200 C2181 1.368 . S
C2200 C2194 1.368 . S
C2200 C2199 1.523 . S
C2201 C2185 1.429 . S
C2201 C2197 1.429 . S
C2201 C2202 1.523 . S
C2202 C2186 1.368 . S
C2202 C2198 1.368 . S
C2202 C2201 1.523 . S
H2203 C2178 0.950 . S
H2204 C2180 0.950 . S
H2205 C2181 0.949 . S
H2206 C2183 0.950 . S
H2207 C2185 0.950 . S
C2208 C2209 1.349 . S
C2208 C2210 1.327 . S
C2208 H2233 0.950 . S
C2209 C2208 1.349 . S
C2209 C2225 1.349 . S
C2210 C2208 1.327 . S
C2210 C2229 1.429 . S
C2210 H2234 0.950 . S
C2211 C2228 1.574 . S
C2211 C2230 1.368 . S
C2211 H2235 0.949 . S
H2212 C2216 0.949 . S
C2213 C2214 1.349 . S
C2213 C2215 1.327 . S
C2213 H2236 0.950 . S
C2214 C2213 1.349 . S
C2214 C2226 1.349 . S
C2215 C2213 1.327 . S
C2215 C2231 1.429 . S
C2215 H2237 0.950 . S
C2216 H2212 0.949 . S
C2216 C2224 1.574 . S
C2216 C2232 1.368 . S
H2217 C2225 0.950 . S
H2218 C2223 0.950 . S
H2219 C2224 0.949 . S
H2220 C2226 0.950 . S
H2221 C2227 0.950 . S
H2222 C2228 0.949 . S
C2223 H2218 0.950 . S
C2223 C2225 1.327 . S
C2223 C2229 1.429 . S
C2224 C2216 1.574 . S
C2224 H2219 0.949 . S
C2224 C2230 1.368 . S
C2225 C2209 1.349 . S
C2225 H2217 0.950 . S
C2225 C2223 1.327 . S
C2226 C2214 1.349 . S
C2226 H2220 0.950 . S
C2226 C2227 1.327 . S
C2227 H2221 0.950 . S
C2227 C2226 1.327 . S
C2227 C2231 1.429 . S
C2228 C2211 1.574 . S
C2228 H2222 0.949 . S
C2228 C2232 1.368 . S
C2229 C2210 1.429 . S
C2229 C2223 1.429 . S
C2229 C2230 1.523 . S
C2230 C2211 1.368 . S
C2230 C2224 1.368 . S
C2230 C2229 1.523 . S
C2231 C2215 1.429 . S
C2231 C2227 1.429 . S
C2231 C2232 1.523 . S
C2232 C2216 1.368 . S
C2232 C2228 1.368 . S
C2232 C2231 1.523 . S
H2233 C2208 0.950 . S
H2234 C2210 0.950 . S
H2235 C2211 0.949 . S
H2236 C2213 0.950 . S
H2237 C2215 0.950 . S
C2238 C2239 1.349 . S
C2238 C2240 1.327 . S
C2238 H2263 0.950 . S
C2239 C2238 1.349 . S
C2239 C2255 1.349 . S
C2240 C2238 1.327 . S
C2240 C2259 1.429 . S
C2240 H2264 0.950 . S
C2241 C2258 1.574 . S
C2241 C2260 1.368 . S
C2241 H2265 0.949 . S
H2242 C2246 0.949 . S
C2243 C2244 1.349 . S
C2243 C2245 1.327 . S
C2243 H2266 0.950 . S
C2244 C2243 1.349 . S
C2244 C2256 1.349 . S
C2245 C2243 1.327 . S
C2245 C2261 1.429 . S
C2245 H2267 0.950 . S
C2246 H2242 0.949 . S
C2246 C2254 1.574 . S
C2246 C2262 1.368 . S
H2247 C2255 0.950 . S
H2248 C2253 0.950 . S
H2249 C2254 0.949 . S
H2250 C2256 0.950 . S
H2251 C2257 0.950 . S
H2252 C2258 0.949 . S
C2253 H2248 0.950 . S
C2253 C2255 1.327 . S
C2253 C2259 1.429 . S
C2254 C2246 1.574 . S
C2254 H2249 0.949 . S
C2254 C2260 1.368 . S
C2255 C2239 1.349 . S
C2255 H2247 0.950 . S
C2255 C2253 1.327 . S
C2256 C2244 1.349 . S
C2256 H2250 0.950 . S
C2256 C2257 1.327 . S
C2257 H2251 0.950 . S
C2257 C2256 1.327 . S
C2257 C2261 1.429 . S
C2258 C2241 1.574 . S
C2258 H2252 0.949 . S
C2258 C2262 1.368 . S
C2259 C2240 1.429 . S
C2259 C2253 1.429 . S
C2259 C2260 1.523 . S
C2260 C2241 1.368 . S
C2260 C2254 1.368 . S
C2260 C2259 1.523 . S
C2261 C2245 1.429 . S
C2261 C2257 1.429 . S
C2261 C2262 1.523 . S
C2262 C2246 1.368 . S
C2262 C2258 1.368 . S
C2262 C2261 1.523 . S
H2263 C2238 0.950 . S
H2264 C2240 0.950 . S
H2265 C2241 0.949 . S
H2266 C2243 0.950 . S
H2267 C2245 0.950 . S
C2268 C2269 1.349 . S
C2268 C2270 1.327 . S
C2268 H2293 0.950 . S
C2269 C2268 1.349 . S
C2269 C2285 1.349 . S
C2270 C2268 1.327 . S
C2270 C2289 1.429 . S
C2270 H2294 0.950 . S
C2271 C2288 1.574 . S
C2271 C2290 1.368 . S
C2271 H2295 0.949 . S
H2272 C2276 0.949 . S
C2273 C2274 1.349 . S
C2273 C2275 1.327 . S
C2273 H2296 0.950 . S
C2274 C2273 1.349 . S
C2274 C2286 1.349 . S
C2275 C2273 1.327 . S
C2275 C2291 1.429 . S
C2275 H2297 0.950 . S
C2276 H2272 0.949 . S
C2276 C2284 1.574 . S
C2276 C2292 1.368 . S
H2277 C2285 0.950 . S
H2278 C2283 0.950 . S
H2279 C2284 0.949 . S
H2280 C2286 0.950 . S
H2281 C2287 0.950 . S
H2282 C2288 0.949 . S
C2283 H2278 0.950 . S
C2283 C2285 1.327 . S
C2283 C2289 1.429 . S
C2284 C2276 1.574 . S
C2284 H2279 0.949 . S
C2284 C2290 1.368 . S
C2285 C2269 1.349 . S
C2285 H2277 0.950 . S
C2285 C2283 1.327 . S
C2286 C2274 1.349 . S
C2286 H2280 0.950 . S
C2286 C2287 1.327 . S
C2287 H2281 0.950 . S
C2287 C2286 1.327 . S
C2287 C2291 1.429 . S
C2288 C2271 1.574 . S
C2288 H2282 0.949 . S
C2288 C2292 1.368 . S
C2289 C2270 1.429 . S
C2289 C2283 1.429 . S
C2289 C2290 1.523 . S
C2290 C2271 1.368 . S
C2290 C2284 1.368 . S
C2290 C2289 1.523 . S
C2291 C2275 1.429 . S
C2291 C2287 1.429 . S
C2291 C2292 1.523 . S
C2292 C2276 1.368 . S
C2292 C2288 1.368 . S
C2292 C2291 1.523 . S
H2293 C2268 0.950 . S
H2294 C2270 0.950 . S
H2295 C2271 0.949 . S
H2296 C2273 0.950 . S
H2297 C2275 0.950 . S
C2298 C2299 1.349 . S
C2298 C2300 1.327 . S
C2298 H2323 0.950 . S
C2299 C2298 1.349 . S
C2299 C2315 1.349 . S
C2300 C2298 1.327 . S
C2300 C2319 1.429 . S
C2300 H2324 0.950 . S
C2301 C2318 1.574 . S
C2301 C2320 1.368 . S
C2301 H2325 0.949 . S
H2302 C2306 0.949 . S
C2303 C2304 1.349 . S
C2303 C2305 1.327 . S
C2303 H2326 0.950 . S
C2304 C2303 1.349 . S
C2304 C2316 1.349 . S
C2305 C2303 1.327 . S
C2305 C2321 1.429 . S
C2305 H2327 0.950 . S
C2306 H2302 0.949 . S
C2306 C2314 1.574 . S
C2306 C2322 1.368 . S
H2307 C2315 0.950 . S
H2308 C2313 0.950 . S
H2309 C2314 0.949 . S
H2310 C2316 0.950 . S
H2311 C2317 0.950 . S
H2312 C2318 0.949 . S
C2313 H2308 0.950 . S
C2313 C2315 1.327 . S
C2313 C2319 1.429 . S
C2314 C2306 1.574 . S
C2314 H2309 0.949 . S
C2314 C2320 1.368 . S
C2315 C2299 1.349 . S
C2315 H2307 0.950 . S
C2315 C2313 1.327 . S
C2316 C2304 1.349 . S
C2316 H2310 0.950 . S
C2316 C2317 1.327 . S
C2317 H2311 0.950 . S
C2317 C2316 1.327 . S
C2317 C2321 1.429 . S
C2318 C2301 1.574 . S
C2318 H2312 0.949 . S
C2318 C2322 1.368 . S
C2319 C2300 1.429 . S
C2319 C2313 1.429 . S
C2319 C2320 1.523 . S
C2320 C2301 1.368 . S
C2320 C2314 1.368 . S
C2320 C2319 1.523 . S
C2321 C2305 1.429 . S
C2321 C2317 1.429 . S
C2321 C2322 1.523 . S
C2322 C2306 1.368 . S
C2322 C2318 1.368 . S
C2322 C2321 1.523 . S
H2323 C2298 0.950 . S
H2324 C2300 0.950 . S
H2325 C2301 0.949 . S
H2326 C2303 0.950 . S
H2327 C2305 0.950 . S
C2328 C2329 1.349 . S
C2328 C2330 1.327 . S
C2328 H2353 0.950 . S
C2329 C2328 1.349 . S
C2329 C2345 1.349 . S
C2330 C2328 1.327 . S
C2330 C2349 1.429 . S
C2330 H2354 0.950 . S
C2331 C2348 1.574 . S
C2331 C2350 1.368 . S
C2331 H2355 0.949 . S
H2332 C2336 0.949 . S
C2333 C2334 1.349 . S
C2333 C2335 1.327 . S
C2333 H2356 0.950 . S
C2334 C2333 1.349 . S
C2334 C2346 1.349 . S
C2335 C2333 1.327 . S
C2335 C2351 1.429 . S
C2335 H2357 0.950 . S
C2336 H2332 0.949 . S
C2336 C2344 1.574 . S
C2336 C2352 1.368 . S
H2337 C2345 0.950 . S
H2338 C2343 0.950 . S
H2339 C2344 0.949 . S
H2340 C2346 0.950 . S
H2341 C2347 0.950 . S
H2342 C2348 0.949 . S
C2343 H2338 0.950 . S
C2343 C2345 1.327 . S
C2343 C2349 1.429 . S
C2344 C2336 1.574 . S
C2344 H2339 0.949 . S
C2344 C2350 1.368 . S
C2345 C2329 1.349 . S
C2345 H2337 0.950 . S
C2345 C2343 1.327 . S
C2346 C2334 1.349 . S
C2346 H2340 0.950 . S
C2346 C2347 1.327 . S
C2347 H2341 0.950 . S
C2347 C2346 1.327 . S
C2347 C2351 1.429 . S
C2348 C2331 1.574 . S
C2348 H2342 0.949 . S
C2348 C2352 1.368 . S
C2349 C2330 1.429 . S
C2349 C2343 1.429 . S
C2349 C2350 1.523 . S
C2350 C2331 1.368 . S
C2350 C2344 1.368 . S
C2350 C2349 1.523 . S
C2351 C2335 1.429 . S
C2351 C2347 1.429 . S
C2351 C2352 1.523 . S
C2352 C2336 1.368 . S
C2352 C2348 1.368 . S
C2352 C2351 1.523 . S
H2353 C2328 0.950 . S
H2354 C2330 0.950 . S
H2355 C2331 0.949 . S
H2356 C2333 0.950 . S
H2357 C2335 0.950 . S
C2358 C2359 1.349 . S
C2358 C2360 1.327 . S
C2358 H2383 0.950 . S
C2359 C2358 1.349 . S
C2359 C2375 1.349 . S
C2360 C2358 1.327 . S
C2360 C2379 1.429 . S
C2360 H2384 0.950 . S
C2361 C2378 1.574 . S
C2361 C2380 1.368 . S
C2361 H2385 0.949 . S
H2362 C2366 0.949 . S
C2363 C2364 1.349 . S
C2363 C2365 1.327 . S
C2363 H2386 0.950 . S
C2364 C2363 1.349 . S
C2364 C2376 1.349 . S
C2365 C2363 1.327 . S
C2365 C2381 1.429 . S
C2365 H2387 0.950 . S
C2366 H2362 0.949 . S
C2366 C2374 1.574 . S
C2366 C2382 1.368 . S
H2367 C2375 0.950 . S
H2368 C2373 0.950 . S
H2369 C2374 0.949 . S
H2370 C2376 0.950 . S
H2371 C2377 0.950 . S
H2372 C2378 0.949 . S
C2373 H2368 0.950 . S
C2373 C2375 1.327 . S
C2373 C2379 1.429 . S
C2374 C2366 1.574 . S
C2374 H2369 0.949 . S
C2374 C2380 1.368 . S
C2375 C2359 1.349 . S
C2375 H2367 0.950 . S
C2375 C2373 1.327 . S
C2376 C2364 1.349 . S
C2376 H2370 0.950 . S
C2376 C2377 1.327 . S
C2377 H2371 0.950 . S
C2377 C2376 1.327 . S
C2377 C2381 1.429 . S
C2378 C2361 1.574 . S
C2378 H2372 0.949 . S
C2378 C2382 1.368 . S
C2379 C2360 1.429 . S
C2379 C2373 1.429 . S
C2379 C2380 1.523 . S
C2380 C2361 1.368 . S
C2380 C2374 1.368 . S
C2380 C2379 1.523 . S
C2381 C2365 1.429 . S
C2381 C2377 1.429 . S
C2381 C2382 1.523 . S
C2382 C2366 1.368 . S
C2382 C2378 1.368 . S
C2382 C2381 1.523 . S
H2383 C2358 0.950 . S
H2384 C2360 0.950 . S
H2385 C2361 0.949 . S
H2386 C2363 0.950 . S
H2387 C2365 0.950 . S
C2388 C2389 1.349 . S
C2388 C2390 1.327 . S
C2388 H2413 0.950 . S
C2389 C2388 1.349 . S
C2389 C2405 1.349 . S
C2390 C2388 1.327 . S
C2390 C2409 1.429 . S
C2390 H2414 0.950 . S
C2391 C2408 1.574 . S
C2391 C2410 1.368 . S
C2391 H2415 0.949 . S
H2392 C2396 0.949 . S
C2393 C2394 1.349 . S
C2393 C2395 1.327 . S
C2393 H2416 0.950 . S
C2394 C2393 1.349 . S
C2394 C2406 1.349 . S
C2395 C2393 1.327 . S
C2395 C2411 1.429 . S
C2395 H2417 0.950 . S
C2396 H2392 0.949 . S
C2396 C2404 1.574 . S
C2396 C2412 1.368 . S
H2397 C2405 0.950 . S
H2398 C2403 0.950 . S
H2399 C2404 0.949 . S
H2400 C2406 0.950 . S
H2401 C2407 0.950 . S
H2402 C2408 0.949 . S
C2403 H2398 0.950 . S
C2403 C2405 1.327 . S
C2403 C2409 1.429 . S
C2404 C2396 1.574 . S
C2404 H2399 0.949 . S
C2404 C2410 1.368 . S
C2405 C2389 1.349 . S
C2405 H2397 0.950 . S
C2405 C2403 1.327 . S
C2406 C2394 1.349 . S
C2406 H2400 0.950 . S
C2406 C2407 1.327 . S
C2407 H2401 0.950 . S
C2407 C2406 1.327 . S
C2407 C2411 1.429 . S
C2408 C2391 1.574 . S
C2408 H2402 0.949 . S
C2408 C2412 1.368 . S
C2409 C2390 1.429 . S
C2409 C2403 1.429 . S
C2409 C2410 1.523 . S
C2410 C2391 1.368 . S
C2410 C2404 1.368 . S
C2410 C2409 1.523 . S
C2411 C2395 1.429 . S
C2411 C2407 1.429 . S
C2411 C2412 1.523 . S
C2412 C2396 1.368 . S
C2412 C2408 1.368 . S
C2412 C2411 1.523 . S
H2413 C2388 0.950 . S
H2414 C2390 0.950 . S
H2415 C2391 0.949 . S
H2416 C2393 0.950 . S
H2417 C2395 0.950 . S
C2418 C2419 1.349 . S
C2418 C2420 1.327 . S
C2418 H2443 0.950 . S
C2419 C2418 1.349 . S
C2419 C2435 1.349 . S
C2420 C2418 1.327 . S
C2420 C2439 1.429 . S
C2420 H2444 0.950 . S
C2421 C2438 1.574 . S
C2421 C2440 1.368 . S
C2421 H2445 0.949 . S
H2422 C2426 0.949 . S
C2423 C2424 1.349 . S
C2423 C2425 1.327 . S
C2423 H2446 0.950 . S
C2424 C2423 1.349 . S
C2424 C2436 1.349 . S
C2425 C2423 1.327 . S
C2425 C2441 1.429 . S
C2425 H2447 0.950 . S
C2426 H2422 0.949 . S
C2426 C2434 1.574 . S
C2426 C2442 1.368 . S
H2427 C2435 0.950 . S
H2428 C2433 0.950 . S
H2429 C2434 0.949 . S
H2430 C2436 0.950 . S
H2431 C2437 0.950 . S
H2432 C2438 0.949 . S
C2433 H2428 0.950 . S
C2433 C2435 1.327 . S
C2433 C2439 1.429 . S
C2434 C2426 1.574 . S
C2434 H2429 0.949 . S
C2434 C2440 1.368 . S
C2435 C2419 1.349 . S
C2435 H2427 0.950 . S
C2435 C2433 1.327 . S
C2436 C2424 1.349 . S
C2436 H2430 0.950 . S
C2436 C2437 1.327 . S
C2437 H2431 0.950 . S
C2437 C2436 1.327 . S
C2437 C2441 1.429 . S
C2438 C2421 1.574 . S
C2438 H2432 0.949 . S
C2438 C2442 1.368 . S
C2439 C2420 1.429 . S
C2439 C2433 1.429 . S
C2439 C2440 1.523 . S
C2440 C2421 1.368 . S
C2440 C2434 1.368 . S
C2440 C2439 1.523 . S
C2441 C2425 1.429 . S
C2441 C2437 1.429 . S
C2441 C2442 1.523 . S
C2442 C2426 1.368 . S
C2442 C2438 1.368 . S
C2442 C2441 1.523 . S
H2443 C2418 0.950 . S
H2444 C2420 0.950 . S
H2445 C2421 0.949 . S
H2446 C2423 0.950 . S
H2447 C2425 0.950 . S
C2448 C2449 1.349 . S
C2448 C2450 1.327 . S
C2448 H2473 0.950 . S
C2449 C2448 1.349 . S
C2449 C2465 1.349 . S
C2450 C2448 1.327 . S
C2450 C2469 1.429 . S
C2450 H2474 0.950 . S
C2451 C2468 1.574 . S
C2451 C2470 1.368 . S
C2451 H2475 0.949 . S
H2452 C2456 0.949 . S
C2453 C2454 1.349 . S
C2453 C2455 1.327 . S
C2453 H2476 0.950 . S
C2454 C2453 1.349 . S
C2454 C2466 1.349 . S
C2455 C2453 1.327 . S
C2455 C2471 1.429 . S
C2455 H2477 0.950 . S
C2456 H2452 0.949 . S
C2456 C2464 1.574 . S
C2456 C2472 1.368 . S
H2457 C2465 0.950 . S
H2458 C2463 0.950 . S
H2459 C2464 0.949 . S
H2460 C2466 0.950 . S
H2461 C2467 0.950 . S
H2462 C2468 0.949 . S
C2463 H2458 0.950 . S
C2463 C2465 1.327 . S
C2463 C2469 1.429 . S
C2464 C2456 1.574 . S
C2464 H2459 0.949 . S
C2464 C2470 1.368 . S
C2465 C2449 1.349 . S
C2465 H2457 0.950 . S
C2465 C2463 1.327 . S
C2466 C2454 1.349 . S
C2466 H2460 0.950 . S
C2466 C2467 1.327 . S
C2467 H2461 0.950 . S
C2467 C2466 1.327 . S
C2467 C2471 1.429 . S
C2468 C2451 1.574 . S
C2468 H2462 0.949 . S
C2468 C2472 1.368 . S
C2469 C2450 1.429 . S
C2469 C2463 1.429 . S
C2469 C2470 1.523 . S
C2470 C2451 1.368 . S
C2470 C2464 1.368 . S
C2470 C2469 1.523 . S
C2471 C2455 1.429 . S
C2471 C2467 1.429 . S
C2471 C2472 1.523 . S
C2472 C2456 1.368 . S
C2472 C2468 1.368 . S
C2472 C2471 1.523 . S
H2473 C2448 0.950 . S
H2474 C2450 0.950 . S
H2475 C2451 0.949 . S
H2476 C2453 0.950 . S
H2477 C2455 0.950 . S
C2478 C2479 1.349 . S
C2478 C2480 1.327 . S
C2478 H2503 0.950 . S
C2479 C2478 1.349 . S
C2479 C2495 1.349 . S
C2480 C2478 1.327 . S
C2480 C2499 1.429 . S
C2480 H2504 0.950 . S
C2481 C2498 1.574 . S
C2481 C2500 1.368 . S
C2481 H2505 0.949 . S
H2482 C2486 0.949 . S
C2483 C2484 1.349 . S
C2483 C2485 1.327 . S
C2483 H2506 0.950 . S
C2484 C2483 1.349 . S
C2484 C2496 1.349 . S
C2485 C2483 1.327 . S
C2485 C2501 1.429 . S
C2485 H2507 0.950 . S
C2486 H2482 0.949 . S
C2486 C2494 1.574 . S
C2486 C2502 1.368 . S
H2487 C2495 0.950 . S
H2488 C2493 0.950 . S
H2489 C2494 0.949 . S
H2490 C2496 0.950 . S
H2491 C2497 0.950 . S
H2492 C2498 0.949 . S
C2493 H2488 0.950 . S
C2493 C2495 1.327 . S
C2493 C2499 1.429 . S
C2494 C2486 1.574 . S
C2494 H2489 0.949 . S
C2494 C2500 1.368 . S
C2495 C2479 1.349 . S
C2495 H2487 0.950 . S
C2495 C2493 1.327 . S
C2496 C2484 1.349 . S
C2496 H2490 0.950 . S
C2496 C2497 1.327 . S
C2497 H2491 0.950 . S
C2497 C2496 1.327 . S
C2497 C2501 1.429 . S
C2498 C2481 1.574 . S
C2498 H2492 0.949 . S
C2498 C2502 1.368 . S
C2499 C2480 1.429 . S
C2499 C2493 1.429 . S
C2499 C2500 1.523 . S
C2500 C2481 1.368 . S
C2500 C2494 1.368 . S
C2500 C2499 1.523 . S
C2501 C2485 1.429 . S
C2501 C2497 1.429 . S
C2501 C2502 1.523 . S
C2502 C2486 1.368 . S
C2502 C2498 1.368 . S
C2502 C2501 1.523 . S
H2503 C2478 0.950 . S
H2504 C2480 0.950 . S
H2505 C2481 0.949 . S
H2506 C2483 0.950 . S
H2507 C2485 0.950 . S
C2508 C2509 1.349 . S
C2508 C2510 1.327 . S
C2508 H2533 0.950 . S
C2509 C2508 1.349 . S
C2509 C2525 1.349 . S
C2510 C2508 1.327 . S
C2510 C2529 1.429 . S
C2510 H2534 0.950 . S
C2511 C2528 1.574 . S
C2511 C2530 1.368 . S
C2511 H2535 0.949 . S
H2512 C2516 0.949 . S
C2513 C2514 1.349 . S
C2513 C2515 1.327 . S
C2513 H2536 0.950 . S
C2514 C2513 1.349 . S
C2514 C2526 1.349 . S
C2515 C2513 1.327 . S
C2515 C2531 1.429 . S
C2515 H2537 0.950 . S
C2516 H2512 0.949 . S
C2516 C2524 1.574 . S
C2516 C2532 1.368 . S
H2517 C2525 0.950 . S
H2518 C2523 0.950 . S
H2519 C2524 0.949 . S
H2520 C2526 0.950 . S
H2521 C2527 0.950 . S
H2522 C2528 0.949 . S
C2523 H2518 0.950 . S
C2523 C2525 1.327 . S
C2523 C2529 1.429 . S
C2524 C2516 1.574 . S
C2524 H2519 0.949 . S
C2524 C2530 1.368 . S
C2525 C2509 1.349 . S
C2525 H2517 0.950 . S
C2525 C2523 1.327 . S
C2526 C2514 1.349 . S
C2526 H2520 0.950 . S
C2526 C2527 1.327 . S
C2527 H2521 0.950 . S
C2527 C2526 1.327 . S
C2527 C2531 1.429 . S
C2528 C2511 1.574 . S
C2528 H2522 0.949 . S
C2528 C2532 1.368 . S
C2529 C2510 1.429 . S
C2529 C2523 1.429 . S
C2529 C2530 1.523 . S
C2530 C2511 1.368 . S
C2530 C2524 1.368 . S
C2530 C2529 1.523 . S
C2531 C2515 1.429 . S
C2531 C2527 1.429 . S
C2531 C2532 1.523 . S
C2532 C2516 1.368 . S
C2532 C2528 1.368 . S
C2532 C2531 1.523 . S
H2533 C2508 0.950 . S
H2534 C2510 0.950 . S
H2535 C2511 0.949 . S
H2536 C2513 0.950 . S
H2537 C2515 0.950 . S
C919 C124 1.406 . S
C924 C218 1.329 . S
C949 C130 1.466 . S
C954 C302 1.392 . S
C979 C115 1.441 . S
C984 C396 1.406 . S
C1009 C106 1.413 . S
C1014 C312 1.380 . S
C1044 C386 1.330 . S
C1039 C85 1.406 . S
C1069 C97 1.367 . S
C1074 C228 1.334 . S
C1104 C229 1.356 . S
C1099 C103 1.435 . S
C1134 C313 1.364 . S
C1129 C88 1.436 . S
C1159 C94 1.439 . S
C1164 C405 1.405 . S
C1189 C121 1.411 . S
C1194 C321 1.379 . S
C1219 C133 1.377 . S
C1224 C397 1.302 . S
C1254 C237 1.361 . S
C1249 C112 1.395 . S
C1284 C470 1.329 . S
C1279 C16 1.406 . S
C1309 C22 1.466 . S
C1314 C554 1.392 . S
C1339 C7 1.441 . S
C1344 C648 1.406 . S
C1369 C160 1.413 . S
C1374 C564 1.380 . S
C1399 C139 1.406 . S
C1404 C638 1.330 . S
C1429 C151 1.367 . S
C1434 C480 1.334 . S
C1459 C157 1.435 . S
C1464 C481 1.356 . S
C1489 C142 1.436 . S
C1494 C565 1.364 . S
C1524 C657 1.405 . S
C1519 C148 1.439 . S
C1549 C13 1.411 . S
C1554 C573 1.379 . S
C1584 C649 1.302 . S
C1579 C25 1.376 . S
C1609 C4 1.395 . S
C1614 C489 1.362 . S
C1644 C722 1.329 . S
C1639 C70 1.406 . S
C1669 C76 1.466 . S
C1674 C806 1.392 . S
C1704 C900 1.407 . S
C1699 C61 1.441 . S
C1734 C816 1.380 . S
C1729 C52 1.413 . S
C1764 C890 1.330 . S
C1759 C31 1.406 . S
C1789 C43 1.367 . S
C1794 C732 1.334 . S
C1819 C49 1.435 . S
C1824 C733 1.356 . S
C1849 C34 1.437 . S
C1854 C817 1.364 . S
C1884 C909 1.405 . S
C1879 C40 1.439 . S
C1909 C67 1.411 . S
C1914 C825 1.379 . S
C1939 C79 1.377 . S
C1944 C901 1.303 . S
C1969 C58 1.395 . S
C1974 C741 1.361 . S
C1999 C140 1.453 . S
C2004 C225 1.334 . S
C2034 C309 1.355 . S
C2029 C149 1.492 . S
C2059 C158 1.488 . S
C2064 C402 1.356 . S
C2089 C59 1.515 . S
C2094 C318 1.375 . S
C2119 C68 1.466 . S
C2124 C393 1.337 . S
C2154 C234 1.334 . S
C2149 C77 1.452 . S
C2179 C32 1.452 . S
C2184 C477 1.334 . S
C2209 C41 1.492 . S
C2214 C561 1.355 . S
C2239 C50 1.488 . S
C2244 C654 1.356 . S
C2269 C113 1.515 . S
C2274 C570 1.376 . S
C2304 C645 1.336 . S
C2299 C122 1.465 . S
C2329 C131 1.453 . S
C2334 C486 1.335 . S
C2359 C86 1.453 . S
C2364 C729 1.334 . S
C2389 C95 1.492 . S
C2394 C813 1.355 . S
C2424 C906 1.357 . S
C2419 C104 1.489 . S
C2449 C5 1.515 . S
C2454 C822 1.376 . S
C2479 C14 1.465 . S
C2484 C897 1.336 . S
C2509 C23 1.453 . S
C2514 C738 1.334 . S
