# Generated by pormake.
# Topology rtl, (3,6)-cn, num edge types: 1
# Building blocks:
#     Node 0, Type 0, BuildingBlock: ESEHIV_clean_linker_0, # of connection points: 3
#     Node 1, Type 0, BuildingBlock: ESEHIV_clean_linker_0, # of connection points: 3
#     Node 2, Type 0, BuildingBlock: ESEHIV_clean_linker_0, # of connection points: 3
#     Node 3, Type 0, BuildingBlock: ESEHIV_clean_linker_0, # of connection points: 3
#     Node 4, Type 1, BuildingBlock: KUMJIN_clean_sbu_1, # of connection points: 6
#     Node 5, Type 1, BuildingBlock: KUMJIN_clean_sbu_1, # of connection points: 6
#     Edge 6, Type (0, 1), BuildingBlock: KIFKEQ_clean_linker_1, # of connection points: 2
#     Edge 7, Type (0, 1), BuildingBlock: KIFKEQ_clean_linker_1, # of connection points: 2
#     Edge 8, Type (0, 1), BuildingBlock: KIFKEQ_clean_linker_1, # of connection points: 2
#     Edge 9, Type (0, 1), BuildingBlock: KIFKEQ_clean_linker_1, # of connection points: 2
#     Edge 10, Type (0, 1), BuildingBlock: KIFKEQ_clean_linker_1, # of connection points: 2
#     Edge 11, Type (0, 1), BuildingBlock: KIFKEQ_clean_linker_1, # of connection points: 2
#     Edge 12, Type (0, 1), BuildingBlock: KIFKEQ_clean_linker_1, # of connection points: 2
#     Edge 13, Type (0, 1), BuildingBlock: KIFKEQ_clean_linker_1, # of connection points: 2
#     Edge 14, Type (0, 1), BuildingBlock: KIFKEQ_clean_linker_1, # of connection points: 2
#     Edge 15, Type (0, 1), BuildingBlock: KIFKEQ_clean_linker_1, # of connection points: 2
#     Edge 16, Type (0, 1), BuildingBlock: KIFKEQ_clean_linker_1, # of connection points: 2
#     Edge 17, Type (0, 1), BuildingBlock: KIFKEQ_clean_linker_1, # of connection points: 2
# Relax obj value: 0.018
# Max RMSD: 0.116
# Mean RMSD: 0.069
data_MOF--net-rtl--node1-KUMJIN_clean_sbu_1--node2-ESEHIV_clean_linker_0--edge1-KIFKEQ_clean_linker_1
_symmetry_space_group_name_H-M    P1
_symmetry_Int_Tables_number       1
_symmetry_cell_setting            triclinic
loop_
_symmetry_equiv_pos_as_xyz
'x, y, z'
_cell_length_a     31.206806
_cell_length_b     31.959452
_cell_length_c     28.439676
_cell_angle_alpha  77.532303
_cell_angle_beta   99.46017
_cell_angle_gamma 91.042815
loop_
_atom_site_label
_atom_site_type_symbol
_atom_site_fract_x
_atom_site_fract_y
_atom_site_fract_z
_atom_type_partial_charge
H0 H 0.15228 0.8917 0.00926 0.0
H1 H 0.24084 0.79551 0.10316 0.0
H2 H 0.23796 0.82365 0.94753 0.0
C3 C 0.17775 0.86778 0.01417 0.0
C4 C 0.19302 0.86021 0.97309 0.0
C5 C 0.19472 0.84473 0.06133 0.0
C6 C 0.22835 0.81433 0.06714 0.0
C7 C 0.24394 0.80631 0.0261 0.0
C8 C 0.22643 0.82987 0.97936 0.0
H9 H 0.63924 0.63392 0.64106 0.0
H10 H 0.71678 0.71908 0.55276 0.0
H11 H 0.71284 0.73144 0.70009 0.0
C12 C 0.66114 0.66071 0.63682 0.0
C13 C 0.67466 0.68061 0.67613 0.0
C14 C 0.67608 0.67462 0.59229 0.0
C15 C 0.70473 0.70897 0.58701 0.0
C16 C 0.718 0.73019 0.62537 0.0
C17 C 0.7027 0.71573 0.67002 0.0
H18 H 0.85385 0.11174 0.07813 0.0
H19 H 0.77573 0.1859 0.14205 0.0
H20 H 0.76402 0.20741 0.98556 0.0
C21 C 0.82881 0.136 0.07378 0.0
C22 C 0.80959 0.15752 0.02676 0.0
C23 C 0.81673 0.14618 0.11536 0.0
C24 C 0.78494 0.17803 0.1098 0.0
C25 C 0.76596 0.20068 0.06318 0.0
C26 C 0.77827 0.19003 0.02169 0.0
H27 H 0.37744 0.38029 0.44784 0.0
H28 H 0.29421 0.29895 0.53245 0.0
H29 H 0.29708 0.28927 0.38414 0.0
C30 C 0.35384 0.35492 0.45096 0.0
C31 C 0.3394 0.33631 0.4108 0.0
C32 C 0.33751 0.34174 0.49476 0.0
C33 C 0.30645 0.30946 0.49835 0.0
C34 C 0.29166 0.29007 0.45883 0.0
C35 C 0.30881 0.3033 0.4152 0.0
Eu36 Eu 0.03966 0.96005 0.52451 0.0
C37 C 0.93533 0.13189 0.47875 0.0
N38 N 0.97305 0.12209 0.51073 0.0
C39 C 1.00224 0.19002 0.4782 0.0
C40 C 0.93011 0.17116 0.44421 0.0
C41 C 0.00608 0.15056 0.51147 0.0
C42 C 0.96418 0.20029 0.44423 0.0
C43 C 0.8633 0.11093 0.44612 0.0
C44 C 0.90245 0.10184 0.47952 0.0
C45 C 0.85815 0.14986 0.41142 0.0
C46 C 0.89143 0.17988 0.41048 0.0
Eu47 Eu 0.97798 0.0539 0.56352 0.0
N48 N 0.9088 0.06376 0.51266 0.0
C49 C 0.83027 0.08077 0.44882 0.0
C50 C 0.87541 0.03581 0.51765 0.0
C51 C 0.8361 0.04341 0.48529 0.0
H52 H 0.0352 0.14296 0.53818 0.0
H53 H 0.81007 0.02069 0.48894 0.0
H54 H 0.98803 0.87049 0.56547 0.0
H55 H 0.2094 0.0034 0.57682 0.0
H56 H 0.87808 0.00815 0.54718 0.0
H57 H 0.79973 0.08656 0.42384 0.0
H58 H 0.13846 0.00855 0.52389 0.0
H59 H 0.02861 0.21247 0.47876 0.0
H60 H 0.82841 0.15718 0.38529 0.0
H61 H 0.88693 0.20978 0.3835 0.0
H62 H 1.00097 0.80524 0.63145 0.0
H63 H 0.9614 0.2308 0.41828 0.0
H64 H 0.22519 0.94422 0.64957 0.0
N65 N 0.0503 0.89578 0.58435 0.0
C66 C 0.08969 0.88991 0.6138 0.0
C67 C 0.02611 0.82885 0.62697 0.0
C68 C 0.09836 0.85337 0.65209 0.0
C69 C 0.0188 0.8658 0.58981 0.0
C70 C 0.06597 0.82271 0.65841 0.0
N71 N 0.1113 0.95661 0.56959 0.0
C72 C 0.14345 0.98431 0.5571 0.0
C73 C 0.16173 0.91628 0.63707 0.0
C74 C 0.12075 0.92145 0.60667 0.0
C75 C 0.19332 0.94705 0.62713 0.0
C76 C 0.18443 0.98068 0.58633 0.0
H77 H 0.07139 0.79422 0.68744 0.0
H78 H 0.14578 0.82121 0.71306 0.0
H79 H 0.20137 0.87605 0.69967 0.0
O80 O 0.07386 0.95987 0.46321 0.0
O81 O 0.0315 0.95442 0.6035 0.0
O82 O 0.03868 0.02335 0.61302 0.0
O83 O 0.03922 0.90394 0.49229 0.0
O84 O 0.06326 0.02881 0.50325 0.0
O85 O 0.05055 0.06078 0.56535 0.0
O86 O 0.94104 0.04953 0.62345 0.0
O87 O 0.9831 0.05951 0.48364 0.0
O88 O 0.97918 0.99018 0.47409 0.0
O89 O 0.97717 0.10646 0.60126 0.0
O90 O 0.95186 0.9859 0.58219 0.0
O91 O 0.96728 0.95122 0.52298 0.0
C92 C 0.04432 0.98212 0.63042 0.0
C93 C 0.03901 0.92031 0.40762 0.0
C94 C 0.04494 0.91141 0.32578 0.0
C95 C 0.99966 0.9179 0.31235 0.0
C96 C 0.99395 0.92667 0.3934 0.0
C97 C 0.97447 0.92554 0.34596 0.0
C98 C 0.06441 0.91269 0.37379 0.0
C99 C 0.07122 0.05869 0.52905 0.0
C100 C 0.05968 0.92249 0.45734 0.0
C101 C 0.13865 0.84889 0.68319 0.0
C102 C 0.17023 0.88024 0.67571 0.0
C103 C 0.97162 0.03127 0.45696 0.0
C104 C 0.97328 0.0845 0.68487 0.0
C105 C 0.9634 0.08961 0.76691 0.0
C106 C 0.00806 0.08061 0.7831 0.0
C107 C 0.01771 0.07575 0.70182 0.0
C108 C 0.94623 0.09141 0.71745 0.0
C109 C 0.0349 0.07367 0.75073 0.0
C110 C 0.94504 0.95511 0.55748 0.0
C111 C 0.95494 0.08578 0.6335 0.0
H112 H 0.98354 0.91646 0.276 0.0
H113 H 0.9738 0.93235 0.41902 0.0
H114 H 0.93969 0.93042 0.33526 0.0
H115 H 0.09927 0.90835 0.38471 0.0
H116 H 0.02246 0.0796 0.82068 0.0
H117 H 0.03915 0.07075 0.67721 0.0
H118 H 0.91183 0.09769 0.70435 0.0
H119 H 0.06922 0.06693 0.76352 0.0
Eu120 Eu 0.46081 0.48911 0.99623 0.0
C121 C 0.64464 0.55866 0.05483 0.0
N122 N 0.6282 0.52133 0.07725 0.0
C123 C 0.69457 0.48398 0.07936 0.0
C124 C 0.68678 0.55972 0.04278 0.0
C125 C 0.65254 0.48441 0.09027 0.0
C126 C 0.71172 0.52175 0.0553 0.0
C127 C 0.63462 0.63454 0.01824 0.0
C128 C 0.61858 0.5956 0.04236 0.0
C129 C 0.67649 0.63563 0.00598 0.0
C130 C 0.70247 0.59835 0.01821 0.0
Eu131 Eu 0.55649 0.5245 0.0924 0.0
N132 N 0.57757 0.59339 0.05341 0.0
C133 C 0.60822 0.67139 0.00747 0.0
C134 C 0.55306 0.62988 0.04601 0.0
C135 C 0.56757 0.66915 0.02213 0.0
H136 H 0.63969 0.45544 0.10973 0.0
H137 H 0.54762 0.69782 0.01566 0.0
H138 H 0.3769 0.55668 0.98209 0.0
H139 H 0.47241 0.31526 0.0694 0.0
H140 H 0.52288 0.62949 0.05957 0.0
H141 H 0.61937 0.70191 0.98902 0.0
H142 H 0.4953 0.3844 0.02535 0.0
H143 H 0.71374 0.45456 0.08959 0.0
H144 H 0.68917 0.66523 0.98721 0.0
H145 H 0.73469 0.59974 0.00847 0.0
H146 H 0.30357 0.55602 0.00449 0.0
H147 H 0.74423 0.52128 0.04667 0.0
H148 H 0.40195 0.3097 0.09907 0.0
N149 N 0.38964 0.49076 0.01349 0.0
C150 C 0.37411 0.45299 0.03603 0.0
C151 C 0.32315 0.52689 0.0138 0.0
C152 C 0.33245 0.45106 0.04941 0.0
C153 C 0.36477 0.52732 1.00157 0.0
C154 C 0.30699 0.48865 0.03805 0.0
N155 N 0.44123 0.41951 0.0349 0.0
C156 C 0.46586 0.38337 0.04048 0.0
C157 C 0.38563 0.37705 0.07148 0.0
C158 C 0.40072 0.41648 0.04736 0.0
C159 C 0.41237 0.34057 0.08069 0.0
C160 C 0.45231 0.34364 0.06434 0.0
H161 H 0.27481 0.48846 0.04773 0.0
H162 H 0.28594 0.40993 0.08494 0.0
H163 H 0.33232 0.34513 0.10397 0.0
O164 O 0.46329 0.45732 0.93584 0.0
O165 O 0.44955 0.48662 0.07391 0.0
O166 O 0.5161 0.46763 0.1206 0.0
O167 O 0.41203 0.50334 0.93026 0.0
O168 O 0.52692 0.45532 0.00971 0.0
O169 O 0.55548 0.45418 0.09032 0.0
O170 O 0.5527 0.55652 0.15232 0.0
O171 O 0.56781 0.52792 0.01451 0.0
O172 O 0.50106 0.54595 0.96761 0.0
O173 O 0.60467 0.51099 0.15889 0.0
O174 O 0.49072 0.55894 0.07851 0.0
O175 O 0.4615 0.55949 0.99815 0.0
C176 C 0.47352 0.46725 0.11484 0.0
C177 C 0.43656 0.49844 0.85754 0.0
C178 C 0.43123 0.49318 0.77226 0.0
C179 C 0.44712 0.53513 0.76141 0.0
C180 C 0.45235 0.5401 0.84589 0.0
C181 C 0.45778 0.55822 0.79807 0.0
C182 C 0.42642 0.475 0.82087 0.0
C183 C 0.55363 0.43919 0.05041 0.0
C184 C 0.43037 0.47909 0.90772 0.0
C185 C 0.31777 0.41198 0.07416 0.0
C186 C 0.34426 0.3751 0.08514 0.0
C187 C 0.54364 0.54694 0.97352 0.0
C188 C 0.57907 0.5158 0.23099 0.0
C189 C 0.58429 0.52082 0.31634 0.0
C190 C 0.56835 0.47887 0.327 0.0
C191 C 0.56321 0.47415 0.24246 0.0
C192 C 0.58915 0.53913 0.26777 0.0
C193 C 0.55768 0.45592 0.29021 0.0
C194 C 0.46366 0.5747 0.03796 0.0
C195 C 0.58563 0.53515 0.18094 0.0
H196 H 0.45057 0.55053 0.72443 0.0
H197 H 0.46007 0.55867 0.87366 0.0
H198 H 0.46983 0.59047 0.78927 0.0
H199 H 0.41497 0.44254 0.83045 0.0
H200 H 0.56487 0.46334 0.36394 0.0
H201 H 0.55554 0.45565 0.21461 0.0
H202 H 0.60064 0.57158 0.2583 0.0
H203 H 0.54558 0.42368 0.29887 0.0
H204 H 0.28806 0.21314 0.42985 0.0
H205 H 0.21813 0.29192 0.49855 0.0
H206 H 0.23507 0.15628 0.44493 0.0
H207 H 0.16548 0.23557 0.51343 0.0
H208 H 0.11279 0.1097 0.58699 0.0
H209 H 0.16532 0.16512 0.56687 0.0
H210 H 0.15819 0.1368 0.42401 0.0
H211 H 0.10557 0.08082 0.4444 0.0
C212 C 0.26111 0.21852 0.44757 0.0
C213 C 0.25767 0.25679 0.46363 0.0
C214 C 0.23078 0.18597 0.45624 0.0
C215 C 0.19641 0.19109 0.4811 0.0
C216 C 0.19215 0.23007 0.49534 0.0
C217 C 0.22233 0.26244 0.48672 0.0
C218 C 0.12233 0.11527 0.55124 0.0
C219 C 0.10465 0.09111 0.51714 0.0
C220 C 0.15235 0.1472 0.53961 0.0
C221 C 0.16563 0.1558 0.49359 0.0
C222 C 0.14881 0.13088 0.45985 0.0
C223 C 0.1186 0.09889 0.47149 0.0
H224 H 0.31987 0.78858 0.09152 0.0
H225 H 0.24121 0.74551 0.97192 0.0
H226 H 0.37503 0.73374 0.09553 0.0
H227 H 0.2957 0.69087 0.97606 0.0
H228 H 0.42008 0.63043 0.95864 0.0
H229 H 0.36831 0.68682 0.95777 0.0
H230 H 0.38812 0.65608 0.11547 0.0
H231 H 0.44048 0.59998 0.11633 0.0
C232 C 0.31424 0.76717 0.06644 0.0
C233 C 0.27654 0.77171 0.031 0.0
C234 C 0.34575 0.73579 0.06869 0.0
C235 C 0.34004 0.70831 0.03564 0.0
C236 C 0.3017 0.71221 1.0012 0.0
C237 C 0.2704 0.74348 0.99891 0.0
C238 C 0.41347 0.63576 0.99313 0.0
C239 C 0.43405 0.61048 0.03752 0.0
C240 C 0.38365 0.66796 0.99266 0.0
C241 C 0.37371 0.67567 0.03657 0.0
C242 C 0.39526 0.65119 0.08103 0.0
C243 C 0.42517 0.61896 0.08149 0.0
H244 H 0.7175 0.79478 0.54447 0.0
H245 H 0.78783 0.74833 0.6902 0.0
H246 H 0.77142 0.84995 0.52932 0.0
H247 H 0.84145 0.80438 0.67516 0.0
H248 H 0.90674 0.93706 0.63948 0.0
H249 H 0.8503 0.88475 0.65785 0.0
H250 H 0.84937 0.84966 0.51936 0.0
H251 H 0.9055 0.90185 0.50088 0.0
C252 C 0.74445 0.7963 0.57334 0.0
C253 C 0.74856 0.76664 0.61837 0.0
C254 C 0.77534 0.82801 0.56462 0.0
C255 C 0.81097 0.83123 0.60082 0.0
C256 C 0.81422 0.80283 0.64661 0.0
C257 C 0.78341 0.77079 0.65526 0.0
C258 C 0.89437 0.91827 0.61289 0.0
C259 C 0.91058 0.92367 0.56867 0.0
C260 C 0.86225 0.88814 0.62357 0.0
C261 C 0.84527 0.86318 0.59 0.0
C262 C 0.86141 0.86875 0.54574 0.0
C263 C 0.89378 0.89849 0.53529 0.0
H264 H 0.77234 0.26309 0.11577 0.0
H265 H 0.68891 0.21919 0.99986 0.0
H266 H 0.71985 0.31963 0.11164 0.0
H267 H 0.63609 0.27615 0.99563 0.0
H268 H 0.57585 0.41257 0.97235 0.0
H269 H 0.62656 0.35488 0.97366 0.0
H270 H 0.64725 0.32578 0.13135 0.0
H271 H 0.59687 0.38353 0.13007 0.0
C272 C 0.74259 0.26534 0.08961 0.0
C273 C 0.73456 0.23633 0.05852 0.0
C274 C 0.71248 0.29774 0.08728 0.0
C275 C 0.67356 0.30209 0.05371 0.0
C276 C 0.6659 0.27377 0.02172 0.0
C277 C 0.69612 0.2412 0.0241 0.0
C278 C 0.59103 0.39366 0.00729 0.0
C279 C 0.58273 0.40291 0.05114 0.0
C280 C 0.61998 0.36054 0.00801 0.0
C281 C 0.64121 0.33599 0.05259 0.0
C282 C 0.63205 0.34464 0.09639 0.0
C283 C 0.60308 0.37764 0.09567 0.0
H284 H 0.23625 0.85134 0.15263 0.0
H285 H 0.10882 0.85252 0.06564 0.0
H286 H 0.20306 0.86779 0.21921 0.0
H287 H 0.07612 0.86938 0.1313 0.0
H288 H 0.0373 0.95067 0.2294 0.0
H289 H 0.07594 0.93328 0.16821 0.0
H290 H 0.15173 0.83661 0.27865 0.0
H291 H 0.11252 0.85361 0.34019 0.0
C292 C 0.20124 0.85472 0.1479 0.0
C293 C 0.17524 0.85138 0.10355 0.0
C294 C 0.18229 0.8642 0.1859 0.0
C295 C 0.13708 0.87063 0.18006 0.0
C296 C 0.11113 0.8657 0.13642 0.0
C297 C 0.12992 0.85606 0.09878 0.0
C298 C 0.06205 0.92557 0.24072 0.0
C299 C 0.07134 0.90311 0.28958 0.0
C300 C 0.08425 0.91567 0.20566 0.0
C301 C 0.11646 0.88319 0.21855 0.0
C302 C 0.12716 0.86189 0.26772 0.0
C303 C 0.10474 0.87169 0.30291 0.0
H304 H 0.67685 0.59768 0.72598 0.0
H305 H 0.63847 0.72498 0.73286 0.0
H306 H 0.64734 0.56802 0.8002 0.0
H307 H 0.60892 0.69521 0.80776 0.0
H308 H 0.51114 0.61296 0.89815 0.0
H309 H 0.54588 0.64778 0.82905 0.0
H310 H 0.6603 0.56777 0.88915 0.0
H311 H 0.6252 0.5323 0.95738 0.0
C312 C 0.66231 0.61934 0.74363 0.0
C313 C 0.65977 0.66361 0.72353 0.0
C314 C 0.64568 0.6024 0.78633 0.0
C315 C 0.62574 0.62926 0.80983 0.0
C316 C 0.62383 0.6737 0.79025 0.0
C317 C 0.64101 0.69076 0.74769 0.0
C318 C 0.54361 0.60271 0.8964 0.0
C319 C 0.56519 0.5695 0.9328 0.0
C320 C 0.56373 0.62302 0.8572 0.0
C321 C 0.60577 0.6104 0.85353 0.0
C322 C 0.62771 0.5779 0.89065 0.0
C323 C 0.60769 0.55776 0.92988 0.0
H324 H 0.78026 0.10761 0.19438 0.0
H325 H 0.90382 0.13929 0.14747 0.0
H326 H 0.81789 0.07771 0.27742 0.0
H327 H 0.94131 0.10988 0.23042 0.0
H328 H 0.97898 0.10865 0.39675 0.0
H329 H 0.94092 0.1343 0.31339 0.0
H330 H 0.87454 0.01397 0.32041 0.0
H331 H 0.9127 0.98815 0.40401 0.0
C332 C 0.81543 0.10791 0.20187 0.0
C333 C 0.83923 0.12559 0.16469 0.0
C334 C 0.83688 0.09072 0.24914 0.0
C335 C 0.88238 0.0917 0.2601 0.0
C336 C 0.90616 0.109 0.22282 0.0
C337 C 0.88479 0.12549 0.17543 0.0
C338 C 0.95627 0.08769 0.38046 0.0
C339 C 0.94894 0.04634 0.40656 0.0
C340 C 0.93474 0.10227 0.33279 0.0
C341 C 0.90506 0.07597 0.3106 0.0
C342 C 0.89728 0.0348 0.33687 0.0
C343 C 0.91932 0.01996 0.38439 0.0
H344 H 0.42069 0.35623 0.53481 0.0
H345 H 0.28694 0.3742 0.54834 0.0
H346 H 0.44445 0.39041 0.60335 0.0
H347 H 0.31024 0.40991 0.61549 0.0
H348 H 0.36337 0.43814 0.76201 0.0
H349 H 0.34278 0.39925 0.69753 0.0
H350 H 0.44825 0.45687 0.62629 0.0
H351 H 0.4709 0.49315 0.6928 0.0
C352 C 0.39641 0.36786 0.55229 0.0
C353 C 0.35202 0.36249 0.53642 0.0
C354 C 0.40994 0.38764 0.59144 0.0
C355 C 0.37933 0.40305 0.61519 0.0
C356 C 0.33486 0.39772 0.59895 0.0
C357 C 0.32141 0.37744 0.56027 0.0
C358 C 0.38278 0.44192 0.73317 0.0
C359 C 0.41888 0.46893 0.73285 0.0
C360 C 0.37047 0.42008 0.6956 0.0
C361 C 0.39356 0.42504 0.65626 0.0
C362 C 0.42988 0.45178 0.65613 0.0
C363 C 0.44251 0.47321 0.69403 0.0
H364 H 0.72736 0.64287 0.53885 0.0
H365 H 0.59343 0.65738 0.55377 0.0
H366 H 0.70478 0.60604 0.47246 0.0
H367 H 0.5703 0.62233 0.48586 0.0
H368 H 0.54496 0.52012 0.39625 0.0
H369 H 0.56747 0.55633 0.46279 0.0
H370 H 0.67209 0.61529 0.39093 0.0
H371 H 0.65181 0.5763 0.32654 0.0
C372 C 0.693 0.63857 0.5274 0.0
C373 C 0.66213 0.65288 0.55138 0.0
C374 C 0.67994 0.61768 0.48914 0.0
C375 C 0.63559 0.61119 0.47341 0.0
C376 C 0.60474 0.62594 0.49737 0.0
C377 C 0.6179 0.64624 0.53614 0.0
C378 C 0.57317 0.54029 0.39491 0.0
C379 C 0.59662 0.54494 0.35589 0.0
C380 C 0.58571 0.56171 0.43284 0.0
C381 C 0.62172 0.58888 0.43253 0.0
C382 C 0.64466 0.59413 0.39305 0.0
C383 C 0.6325 0.57225 0.35549 0.0
H384 H 0.82034 0.07831 0.00869 0.0
H385 H 0.83237 0.21305 0.94756 0.0
H386 H 0.85196 0.06047 0.94242 0.0
H387 H 0.86485 0.19537 0.88166 0.0
H388 H 0.8985 0.15032 0.75118 0.0
H389 H 0.855 0.16532 0.80978 0.0
H390 H 0.92276 0.06304 0.92039 0.0
H391 H 0.96458 0.04685 0.86141 0.0
C392 C 0.82963 0.10411 0.98089 0.0
C393 C 0.82421 0.14705 0.98347 0.0
C394 C 0.84789 0.09392 0.94302 0.0
C395 C 0.86149 0.12645 0.90697 0.0
C396 C 0.85438 0.16948 0.90848 0.0
C397 C 0.83581 0.17967 0.94627 0.0
C398 C 0.90353 0.13056 0.78778 0.0
C399 C 0.93521 0.09751 0.80165 0.0
C400 C 0.87893 0.13948 0.82153 0.0
C401 C 0.88542 0.11552 0.8699 0.0
C402 C 0.91644 0.08187 0.88335 0.0
C403 C 0.94091 0.07293 0.84966 0.0
H404 H 0.37332 0.2912 0.35315 0.0
H405 H 0.34151 0.41951 0.36311 0.0
H406 H 0.40397 0.32044 0.27878 0.0
H407 H 0.37197 0.4486 0.28937 0.0
H408 H 0.39283 0.48418 0.13155 0.0
H409 H 0.35725 0.4495 0.19972 0.0
H410 H 0.4694 0.36611 0.25868 0.0
H411 H 0.50472 0.40029 0.1897 0.0
C412 C 0.37251 0.32555 0.33914 0.0
C413 C 0.35527 0.35312 0.36396 0.0
C414 C 0.39029 0.34228 0.29689 0.0
C415 C 0.3904 0.38682 0.2783 0.0
C416 C 0.37205 0.41416 0.30252 0.0
C417 C 0.35489 0.39753 0.34492 0.0
C418 C 0.40974 0.45816 0.15879 0.0
C419 C 0.45176 0.44525 0.1556 0.0
C420 C 0.38945 0.43847 0.19796 0.0
C421 C 0.41062 0.40524 0.2347 0.0
C422 C 0.45218 0.39146 0.23078 0.0
C423 C 0.4726 0.41137 0.19166 0.0
H424 H 0.2316 0.8992 0.89548 0.0
H425 H 0.10635 0.86859 0.9386 0.0
H426 H 0.19565 0.93062 0.81221 0.0
H427 H 0.07062 0.90015 0.85582 0.0
H428 H 0.03132 0.9065 0.69071 0.0
H429 H 0.06838 0.87883 0.77395 0.0
H430 H 0.14341 0.99422 0.76745 0.0
H431 H 0.10649 0.02181 0.68364 0.0
C432 C 0.19645 0.89942 0.88717 0.0
C433 C 0.17172 0.88156 0.92342 0.0
C434 C 0.17594 0.91759 0.83976 0.0
C435 C 0.13044 0.91763 0.82773 0.0
C436 C 0.10577 0.90022 0.86411 0.0
C437 C 0.12619 0.88253 0.91152 0.0
C438 C 0.05574 0.92592 0.70709 0.0
C439 C 0.06601 0.96629 0.68102 0.0
C440 C 0.07672 0.91022 0.75473 0.0
C441 C 0.10857 0.93452 0.77708 0.0
C442 C 0.11908 0.97484 0.75089 0.0
C443 C 0.09774 0.99074 0.70328 0.0
loop_
_geom_bond_atom_site_label_1
_geom_bond_atom_site_label_2
_geom_bond_distance
_geom_bond_site_symmetry_2
_ccdc_geom_bond_type
H0 C3 0.931 . S
H1 C6 0.928 . S
H2 C8 0.930 . S
C3 H0 0.931 . S
C3 C4 1.413 1_554 S
C3 C5 1.360 . S
C4 C3 1.413 1_556 S
C4 C8 1.429 . S
C5 C3 1.360 . S
C5 C6 1.372 . S
C6 H1 0.928 . S
C6 C5 1.372 . S
C6 C7 1.404 . S
C7 C6 1.404 . S
C7 C8 1.391 1_554 S
C8 H2 0.930 . S
C8 C4 1.429 . S
C8 C7 1.391 1_556 S
H9 C12 0.931 . S
H10 C15 0.928 . S
H11 C17 0.930 . S
C12 H9 0.931 . S
C12 C13 1.413 . S
C12 C14 1.360 . S
C13 C12 1.413 . S
C13 C17 1.429 . S
C14 C12 1.360 . S
C14 C15 1.372 . S
C15 H10 0.928 . S
C15 C14 1.372 . S
C15 C16 1.404 . S
C16 C15 1.404 . S
C16 C17 1.391 . S
C17 H11 0.930 . S
C17 C13 1.429 . S
C17 C16 1.391 . S
H18 C21 0.931 . S
H19 C24 0.928 . S
H20 C26 0.930 1_556 S
C21 H18 0.931 . S
C21 C22 1.413 . S
C21 C23 1.360 . S
C22 C21 1.413 . S
C22 C26 1.429 . S
C23 C21 1.360 . S
C23 C24 1.372 . S
C24 H19 0.928 . S
C24 C23 1.372 . S
C24 C25 1.404 . S
C25 C24 1.404 . S
C25 C26 1.391 . S
C26 H20 0.930 1_554 S
C26 C22 1.429 . S
C26 C25 1.391 . S
H27 C30 0.931 . S
H28 C33 0.928 . S
H29 C35 0.930 . S
C30 H27 0.931 . S
C30 C31 1.413 . S
C30 C32 1.360 . S
C31 C30 1.413 . S
C31 C35 1.429 . S
C32 C30 1.360 . S
C32 C33 1.372 . S
C33 H28 0.928 . S
C33 C32 1.372 . S
C33 C34 1.404 . S
C34 C33 1.404 . S
C34 C35 1.391 . S
C35 H29 0.930 . S
C35 C31 1.429 . S
C35 C34 1.391 . S
Eu36 N65 2.600 . S
Eu36 N71 2.562 . S
Eu36 O80 2.462 . S
Eu36 O81 2.373 . S
Eu36 O83 2.432 . S
Eu36 O84 2.291 1_565 S
Eu36 O88 2.334 1_455 S
Eu36 O91 2.372 1_455 S
Eu36 C100 2.787 . S
C37 N38 1.365 . S
C37 C40 1.405 . S
C37 C44 1.448 . S
N38 C37 1.365 . S
N38 C41 1.319 . S
N38 Eu47 2.600 . S
C39 C41 1.397 . S
C39 C42 1.367 . S
C39 H59 0.931 1_655 S
C40 C37 1.405 . S
C40 C42 1.403 . S
C40 C46 1.439 . S
C41 N38 1.319 . S
C41 C39 1.397 . S
C41 H52 0.930 1_655 S
C42 C39 1.367 . S
C42 C40 1.403 . S
C42 H63 0.929 . S
C43 C44 1.430 . S
C43 C45 1.387 . S
C43 C49 1.404 . S
C44 C37 1.448 . S
C44 C43 1.430 . S
C44 N48 1.351 . S
C45 C43 1.387 . S
C45 C46 1.374 . S
C45 H60 0.931 . S
C46 C40 1.439 . S
C46 C45 1.374 . S
C46 H61 0.931 . S
Eu47 N38 2.600 . S
Eu47 N48 2.562 . S
Eu47 O82 2.335 1_655 S
Eu47 O85 2.372 1_655 S
Eu47 O86 2.462 . S
Eu47 O87 2.373 . S
Eu47 O89 2.432 . S
Eu47 O90 2.291 1_545 S
Eu47 C111 2.787 . S
N48 C44 1.351 . S
N48 Eu47 2.562 . S
N48 C50 1.325 . S
C49 C43 1.404 . S
C49 C51 1.366 . S
C49 H57 0.930 . S
C50 N48 1.325 . S
C50 C51 1.416 . S
C50 H56 0.929 . S
C51 C49 1.366 . S
C51 C50 1.416 . S
C51 H53 0.930 . S
H52 C41 0.930 1_455 S
H53 C51 0.930 . S
H54 C69 0.930 1_655 S
H55 C76 0.930 . S
H56 C50 0.929 . S
H57 C49 0.930 . S
H58 C72 0.929 . S
H59 C39 0.931 1_455 S
H60 C45 0.931 . S
H61 C46 0.931 . S
H62 C67 0.931 1_655 S
H63 C42 0.929 . S
H64 C75 0.930 . S
N65 Eu36 2.600 . S
N65 C66 1.365 . S
N65 C69 1.319 . S
C66 N65 1.365 . S
C66 C68 1.405 . S
C66 C74 1.448 . S
C67 H62 0.931 1_455 S
C67 C69 1.397 . S
C67 C70 1.367 . S
C68 C66 1.405 . S
C68 C70 1.403 . S
C68 C101 1.439 . S
C69 H54 0.930 1_455 S
C69 N65 1.319 . S
C69 C67 1.397 . S
C70 C67 1.367 . S
C70 C68 1.403 . S
C70 H77 0.929 . S
N71 Eu36 2.562 . S
N71 C72 1.325 . S
N71 C74 1.351 . S
C72 H58 0.929 . S
C72 N71 1.325 . S
C72 C76 1.416 . S
C73 C74 1.430 . S
C73 C75 1.404 . S
C73 C102 1.387 . S
C74 C66 1.448 . S
C74 N71 1.351 . S
C74 C73 1.430 . S
C75 H64 0.930 . S
C75 C73 1.404 . S
C75 C76 1.366 . S
C76 H55 0.930 . S
C76 C72 1.416 . S
C76 C75 1.366 . S
H77 C70 0.929 . S
H78 C101 0.931 . S
H79 C102 0.931 . S
O80 Eu36 2.462 . S
O80 C100 1.252 . S
O81 Eu36 2.373 . S
O81 C92 1.249 . S
O82 Eu47 2.335 1_455 S
O82 C92 1.264 1_545 S
O83 Eu36 2.432 . S
O83 C100 1.268 . S
O84 Eu36 2.291 1_545 S
O84 C99 1.255 . S
O85 Eu47 2.372 1_455 S
O85 C99 1.257 . S
O86 Eu47 2.462 . S
O86 C111 1.252 . S
O87 Eu47 2.373 . S
O87 C103 1.249 . S
O88 Eu36 2.334 1_655 S
O88 C103 1.265 1_565 S
O89 Eu47 2.432 . S
O89 C111 1.268 . S
O90 Eu47 2.291 1_565 S
O90 C110 1.255 . S
O91 Eu36 2.372 1_655 S
O91 C110 1.257 . S
C92 O81 1.249 . S
C92 O82 1.264 1_565 S
C93 C96 1.382 . S
C93 C98 1.390 . S
C93 C100 1.506 . S
C94 C95 1.398 . S
C94 C98 1.392 . S
C95 C94 1.398 . S
C95 C97 1.372 . S
C95 H112 0.931 . S
C96 C93 1.382 . S
C96 C97 1.390 . S
C96 H113 0.931 . S
C97 C95 1.372 . S
C97 C96 1.390 . S
C97 H114 0.929 . S
C98 C93 1.390 . S
C98 C94 1.392 . S
C98 H115 0.930 . S
C99 O84 1.255 . S
C99 O85 1.257 . S
C100 Eu36 2.787 . S
C100 O80 1.252 . S
C100 O83 1.268 . S
C100 C93 1.506 . S
C101 C68 1.439 . S
C101 H78 0.931 . S
C101 C102 1.374 . S
C102 C73 1.387 . S
C102 H79 0.931 . S
C102 C101 1.374 . S
C103 O87 1.249 . S
C103 O88 1.265 1_545 S
C104 C107 1.382 . S
C104 C108 1.390 . S
C104 C111 1.506 . S
C105 C106 1.398 . S
C105 C108 1.392 . S
C106 C105 1.398 . S
C106 C109 1.372 . S
C106 H116 0.931 . S
C107 C104 1.382 . S
C107 C109 1.390 . S
C107 H117 0.931 . S
C108 C104 1.390 . S
C108 C105 1.392 . S
C108 H118 0.930 . S
C109 C106 1.372 . S
C109 C107 1.390 . S
C109 H119 0.929 . S
C110 O90 1.255 . S
C110 O91 1.257 . S
C111 Eu47 2.787 . S
C111 O86 1.252 . S
C111 O89 1.268 . S
C111 C104 1.506 . S
H112 C95 0.931 . S
H113 C96 0.931 . S
H114 C97 0.929 . S
H115 C98 0.930 . S
H116 C106 0.931 . S
H117 C107 0.931 . S
H118 C108 0.930 . S
H119 C109 0.929 . S
Eu120 N149 2.601 . S
Eu120 N155 2.562 1_556 S
Eu120 O164 2.462 . S
Eu120 O165 2.373 1_556 S
Eu120 O167 2.432 . S
Eu120 O168 2.291 1_556 S
Eu120 O172 2.335 . S
Eu120 O175 2.372 1_556 S
Eu120 C184 2.787 . S
C121 N122 1.365 . S
C121 C124 1.405 . S
C121 C128 1.448 . S
N122 C121 1.365 . S
N122 C125 1.319 . S
N122 Eu131 2.600 . S
C123 C125 1.397 . S
C123 C126 1.367 . S
C123 H143 0.931 . S
C124 C121 1.405 . S
C124 C126 1.403 . S
C124 C130 1.439 . S
C125 N122 1.319 . S
C125 C123 1.397 . S
C125 H136 0.930 . S
C126 C123 1.367 . S
C126 C124 1.403 . S
C126 H147 0.929 . S
C127 C128 1.430 . S
C127 C129 1.387 . S
C127 C133 1.404 . S
C128 C121 1.448 . S
C128 C127 1.430 . S
C128 N132 1.351 . S
C129 C127 1.387 . S
C129 C130 1.374 . S
C129 H144 0.931 . S
C130 C124 1.439 . S
C130 C129 1.374 . S
C130 H145 0.931 . S
Eu131 N122 2.600 . S
Eu131 N132 2.562 . S
Eu131 O166 2.335 . S
Eu131 O169 2.372 . S
Eu131 O170 2.462 . S
Eu131 O171 2.373 . S
Eu131 O173 2.432 . S
Eu131 O174 2.291 . S
Eu131 C195 2.787 . S
N132 C128 1.351 . S
N132 Eu131 2.562 . S
N132 C134 1.325 . S
C133 C127 1.404 . S
C133 C135 1.366 . S
C133 H141 0.930 . S
C134 N132 1.325 . S
C134 C135 1.416 . S
C134 H140 0.929 . S
C135 C133 1.366 . S
C135 C134 1.416 . S
C135 H137 0.930 . S
H136 C125 0.930 . S
H137 C135 0.930 . S
H138 C153 0.930 . S
H139 C160 0.930 . S
H140 C134 0.929 . S
H141 C133 0.930 . S
H142 C156 0.929 . S
H143 C123 0.931 . S
H144 C129 0.931 . S
H145 C130 0.931 . S
H146 C151 0.931 . S
H147 C126 0.929 . S
H148 C159 0.930 . S
N149 Eu120 2.601 . S
N149 C150 1.364 1_556 S
N149 C153 1.319 . S
C150 N149 1.364 1_554 S
C150 C152 1.405 . S
C150 C158 1.448 . S
C151 H146 0.931 . S
C151 C153 1.397 . S
C151 C154 1.367 1_556 S
C152 C150 1.405 . S
C152 C154 1.403 . S
C152 C185 1.439 . S
C153 H138 0.930 . S
C153 N149 1.319 . S
C153 C151 1.397 . S
C154 C151 1.367 1_554 S
C154 C152 1.403 . S
C154 H161 0.929 . S
N155 Eu120 2.562 1_554 S
N155 C156 1.325 . S
N155 C158 1.351 . S
C156 H142 0.929 . S
C156 N155 1.325 . S
C156 C160 1.416 . S
C157 C158 1.430 . S
C157 C159 1.404 . S
C157 C186 1.387 . S
C158 C150 1.448 . S
C158 N155 1.351 . S
C158 C157 1.430 . S
C159 H148 0.930 . S
C159 C157 1.404 . S
C159 C160 1.366 . S
C160 H139 0.930 . S
C160 C156 1.416 . S
C160 C159 1.366 . S
H161 C154 0.929 . S
H162 C185 0.931 . S
H163 C186 0.931 . S
O164 Eu120 2.462 . S
O164 C184 1.252 . S
O165 Eu120 2.373 1_554 S
O165 C176 1.249 . S
O166 Eu131 2.335 . S
O166 C176 1.264 . S
O167 Eu120 2.432 . S
O167 C184 1.268 . S
O168 Eu120 2.291 1_554 S
O168 C183 1.255 . S
O169 Eu131 2.372 . S
O169 C183 1.257 . S
O170 Eu131 2.462 . S
O170 C195 1.252 . S
O171 Eu131 2.373 . S
O171 C187 1.249 1_554 S
O172 Eu120 2.335 . S
O172 C187 1.264 . S
O173 Eu131 2.432 . S
O173 C195 1.268 . S
O174 Eu131 2.291 . S
O174 C194 1.255 . S
O175 Eu120 2.372 1_554 S
O175 C194 1.257 . S
C176 O165 1.249 . S
C176 O166 1.264 . S
C177 C180 1.382 . S
C177 C182 1.390 . S
C177 C184 1.506 . S
C178 C179 1.398 . S
C178 C182 1.392 . S
C179 C178 1.398 . S
C179 C181 1.372 . S
C179 H196 0.931 . S
C180 C177 1.382 . S
C180 C181 1.390 . S
C180 H197 0.931 . S
C181 C179 1.372 . S
C181 C180 1.390 . S
C181 H198 0.929 . S
C182 C177 1.390 . S
C182 C178 1.392 . S
C182 H199 0.930 . S
C183 O168 1.255 . S
C183 O169 1.257 . S
C184 Eu120 2.787 . S
C184 O164 1.252 . S
C184 O167 1.268 . S
C184 C177 1.506 . S
C185 C152 1.439 . S
C185 H162 0.931 . S
C185 C186 1.374 . S
C186 C157 1.387 . S
C186 H163 0.931 . S
C186 C185 1.374 . S
C187 O171 1.249 1_556 S
C187 O172 1.264 . S
C188 C191 1.382 . S
C188 C192 1.390 . S
C188 C195 1.506 . S
C189 C190 1.398 . S
C189 C192 1.392 . S
C190 C189 1.398 . S
C190 C193 1.372 . S
C190 H200 0.931 . S
C191 C188 1.382 . S
C191 C193 1.390 . S
C191 H201 0.931 . S
C192 C188 1.390 . S
C192 C189 1.392 . S
C192 H202 0.930 . S
C193 C190 1.372 . S
C193 C191 1.390 . S
C193 H203 0.929 . S
C194 O174 1.255 . S
C194 O175 1.257 . S
C195 Eu131 2.787 . S
C195 O170 1.252 . S
C195 O173 1.268 . S
C195 C188 1.506 . S
H196 C179 0.931 . S
H197 C180 0.931 . S
H198 C181 0.929 . S
H199 C182 0.930 . S
H200 C190 0.931 . S
H201 C191 0.931 . S
H202 C192 0.930 . S
H203 C193 0.929 . S
H204 C212 0.950 . S
H205 C217 0.950 . S
H206 C214 0.950 . S
H207 C216 0.950 . S
H208 C218 0.950 . S
H209 C220 0.950 . S
H210 C222 0.950 . S
H211 C223 0.950 . S
C212 H204 0.950 . S
C212 C213 1.386 . S
C212 C214 1.391 . S
C213 C212 1.386 . S
C213 C217 1.393 . S
C214 H206 0.950 . S
C214 C212 1.391 . S
C214 C215 1.400 . S
C215 C214 1.400 . S
C215 C216 1.398 . S
C215 C221 1.491 . S
C216 H207 0.950 . S
C216 C215 1.398 . S
C216 C217 1.391 . S
C217 H205 0.950 . S
C217 C213 1.393 . S
C217 C216 1.391 . S
C218 H208 0.950 . S
C218 C219 1.386 . S
C218 C220 1.391 . S
C219 C218 1.386 . S
C219 C223 1.393 . S
C220 H209 0.950 . S
C220 C218 1.391 . S
C220 C221 1.400 . S
C221 C215 1.491 . S
C221 C220 1.400 . S
C221 C222 1.398 . S
C222 H210 0.950 . S
C222 C221 1.398 . S
C222 C223 1.391 . S
C223 H211 0.950 . S
C223 C219 1.393 . S
C223 C222 1.391 . S
H224 C232 0.950 . S
H225 C237 0.950 1_556 S
H226 C234 0.950 . S
H227 C236 0.950 1_556 S
H228 C238 0.950 1_556 S
H229 C240 0.950 1_556 S
H230 C242 0.950 . S
H231 C243 0.950 . S
C232 H224 0.950 . S
C232 C233 1.386 . S
C232 C234 1.391 . S
C233 C232 1.386 . S
C233 C237 1.393 . S
C234 H226 0.950 . S
C234 C232 1.391 . S
C234 C235 1.400 . S
C235 C234 1.400 . S
C235 C236 1.398 . S
C235 C241 1.491 . S
C236 H227 0.950 1_554 S
C236 C235 1.398 . S
C236 C237 1.391 . S
C237 H225 0.950 1_554 S
C237 C233 1.393 . S
C237 C236 1.391 . S
C238 H228 0.950 1_554 S
C238 C239 1.386 . S
C238 C240 1.391 . S
C239 C238 1.386 . S
C239 C243 1.393 . S
C240 H229 0.950 1_554 S
C240 C238 1.391 . S
C240 C241 1.400 . S
C241 C235 1.491 . S
C241 C240 1.400 . S
C241 C242 1.398 . S
C242 H230 0.950 . S
C242 C241 1.398 . S
C242 C243 1.391 . S
C243 H231 0.950 . S
C243 C239 1.393 . S
C243 C242 1.391 . S
H244 C252 0.950 . S
H245 C257 0.950 . S
H246 C254 0.950 . S
H247 C256 0.950 . S
H248 C258 0.950 . S
H249 C260 0.950 . S
H250 C262 0.950 . S
H251 C263 0.950 . S
C252 H244 0.950 . S
C252 C253 1.386 . S
C252 C254 1.391 . S
C253 C252 1.386 . S
C253 C257 1.393 . S
C254 H246 0.950 . S
C254 C252 1.391 . S
C254 C255 1.400 . S
C255 C254 1.400 . S
C255 C256 1.398 . S
C255 C261 1.491 . S
C256 H247 0.950 . S
C256 C255 1.398 . S
C256 C257 1.391 . S
C257 H245 0.950 . S
C257 C253 1.393 . S
C257 C256 1.391 . S
C258 H248 0.950 . S
C258 C259 1.386 . S
C258 C260 1.391 . S
C259 C258 1.386 . S
C259 C263 1.393 . S
C260 H249 0.950 . S
C260 C258 1.391 . S
C260 C261 1.400 . S
C261 C255 1.491 . S
C261 C260 1.400 . S
C261 C262 1.398 . S
C262 H250 0.950 . S
C262 C261 1.398 . S
C262 C263 1.391 . S
C263 H251 0.950 . S
C263 C259 1.393 . S
C263 C262 1.391 . S
H264 C272 0.950 . S
H265 C277 0.950 1_556 S
H266 C274 0.950 . S
H267 C276 0.950 1_556 S
H268 C278 0.950 1_556 S
H269 C280 0.950 1_556 S
H270 C282 0.950 . S
H271 C283 0.950 . S
C272 H264 0.950 . S
C272 C273 1.386 . S
C272 C274 1.391 . S
C273 C272 1.386 . S
C273 C277 1.393 . S
C274 H266 0.950 . S
C274 C272 1.391 . S
C274 C275 1.400 . S
C275 C274 1.400 . S
C275 C276 1.398 . S
C275 C281 1.491 . S
C276 H267 0.950 1_554 S
C276 C275 1.398 . S
C276 C277 1.391 . S
C277 H265 0.950 1_554 S
C277 C273 1.393 . S
C277 C276 1.391 . S
C278 H268 0.950 1_554 S
C278 C279 1.386 . S
C278 C280 1.391 . S
C279 C278 1.386 . S
C279 C283 1.393 . S
C280 H269 0.950 1_554 S
C280 C278 1.391 . S
C280 C281 1.400 . S
C281 C275 1.491 . S
C281 C280 1.400 . S
C281 C282 1.398 . S
C282 H270 0.950 . S
C282 C281 1.398 . S
C282 C283 1.391 . S
C283 H271 0.950 . S
C283 C279 1.393 . S
C283 C282 1.391 . S
H284 C292 0.950 . S
H285 C297 0.950 . S
H286 C294 0.950 . S
H287 C296 0.950 . S
H288 C298 0.950 . S
H289 C300 0.950 . S
H290 C302 0.950 . S
H291 C303 0.950 . S
C292 H284 0.950 . S
C292 C293 1.386 . S
C292 C294 1.391 . S
C293 C292 1.386 . S
C293 C297 1.393 . S
C294 H286 0.950 . S
C294 C292 1.391 . S
C294 C295 1.400 . S
C295 C294 1.400 . S
C295 C296 1.398 . S
C295 C301 1.491 . S
C296 H287 0.950 . S
C296 C295 1.398 . S
C296 C297 1.391 . S
C297 H285 0.950 . S
C297 C293 1.393 . S
C297 C296 1.391 . S
C298 H288 0.950 . S
C298 C299 1.386 . S
C298 C300 1.391 . S
C299 C298 1.386 . S
C299 C303 1.393 . S
C300 H289 0.950 . S
C300 C298 1.391 . S
C300 C301 1.400 . S
C301 C295 1.491 . S
C301 C300 1.400 . S
C301 C302 1.398 . S
C302 H290 0.950 . S
C302 C301 1.398 . S
C302 C303 1.391 . S
C303 H291 0.950 . S
C303 C299 1.393 . S
C303 C302 1.391 . S
H304 C312 0.950 . S
H305 C317 0.950 . S
H306 C314 0.950 . S
H307 C316 0.950 . S
H308 C318 0.950 . S
H309 C320 0.950 . S
H310 C322 0.950 . S
H311 C323 0.950 . S
C312 H304 0.950 . S
C312 C313 1.386 . S
C312 C314 1.391 . S
C313 C312 1.386 . S
C313 C317 1.393 . S
C314 H306 0.950 . S
C314 C312 1.391 . S
C314 C315 1.400 . S
C315 C314 1.400 . S
C315 C316 1.398 . S
C315 C321 1.491 . S
C316 H307 0.950 . S
C316 C315 1.398 . S
C316 C317 1.391 . S
C317 H305 0.950 . S
C317 C313 1.393 . S
C317 C316 1.391 . S
C318 H308 0.950 . S
C318 C319 1.386 . S
C318 C320 1.391 . S
C319 C318 1.386 . S
C319 C323 1.393 . S
C320 H309 0.950 . S
C320 C318 1.391 . S
C320 C321 1.400 . S
C321 C315 1.491 . S
C321 C320 1.400 . S
C321 C322 1.398 . S
C322 H310 0.950 . S
C322 C321 1.398 . S
C322 C323 1.391 . S
C323 H311 0.950 . S
C323 C319 1.393 . S
C323 C322 1.391 . S
H324 C332 0.950 . S
H325 C337 0.950 . S
H326 C334 0.950 . S
H327 C336 0.950 . S
H328 C338 0.950 . S
H329 C340 0.950 . S
H330 C342 0.950 . S
H331 C343 0.950 1_565 S
C332 H324 0.950 . S
C332 C333 1.386 . S
C332 C334 1.391 . S
C333 C332 1.386 . S
C333 C337 1.393 . S
C334 H326 0.950 . S
C334 C332 1.391 . S
C334 C335 1.400 . S
C335 C334 1.400 . S
C335 C336 1.398 . S
C335 C341 1.491 . S
C336 H327 0.950 . S
C336 C335 1.398 . S
C336 C337 1.391 . S
C337 H325 0.950 . S
C337 C333 1.393 . S
C337 C336 1.391 . S
C338 H328 0.950 . S
C338 C339 1.386 . S
C338 C340 1.391 . S
C339 C338 1.386 . S
C339 C343 1.393 . S
C340 H329 0.950 . S
C340 C338 1.391 . S
C340 C341 1.400 . S
C341 C335 1.491 . S
C341 C340 1.400 . S
C341 C342 1.398 . S
C342 H330 0.950 . S
C342 C341 1.398 . S
C342 C343 1.391 . S
C343 H331 0.950 1_545 S
C343 C339 1.393 . S
C343 C342 1.391 . S
H344 C352 0.950 . S
H345 C357 0.950 . S
H346 C354 0.950 . S
H347 C356 0.950 . S
H348 C358 0.950 . S
H349 C360 0.950 . S
H350 C362 0.950 . S
H351 C363 0.950 . S
C352 H344 0.950 . S
C352 C353 1.386 . S
C352 C354 1.391 . S
C353 C352 1.386 . S
C353 C357 1.393 . S
C354 H346 0.950 . S
C354 C352 1.391 . S
C354 C355 1.400 . S
C355 C354 1.400 . S
C355 C356 1.398 . S
C355 C361 1.491 . S
C356 H347 0.950 . S
C356 C355 1.398 . S
C356 C357 1.391 . S
C357 H345 0.950 . S
C357 C353 1.393 . S
C357 C356 1.391 . S
C358 H348 0.950 . S
C358 C359 1.386 . S
C358 C360 1.391 . S
C359 C358 1.386 . S
C359 C363 1.393 . S
C360 H349 0.950 . S
C360 C358 1.391 . S
C360 C361 1.400 . S
C361 C355 1.491 . S
C361 C360 1.400 . S
C361 C362 1.398 . S
C362 H350 0.950 . S
C362 C361 1.398 . S
C362 C363 1.391 . S
C363 H351 0.950 . S
C363 C359 1.393 . S
C363 C362 1.391 . S
H364 C372 0.950 . S
H365 C377 0.950 . S
H366 C374 0.950 . S
H367 C376 0.950 . S
H368 C378 0.950 . S
H369 C380 0.950 . S
H370 C382 0.950 . S
H371 C383 0.950 . S
C372 H364 0.950 . S
C372 C373 1.386 . S
C372 C374 1.391 . S
C373 C372 1.386 . S
C373 C377 1.393 . S
C374 H366 0.950 . S
C374 C372 1.391 . S
C374 C375 1.400 . S
C375 C374 1.400 . S
C375 C376 1.398 . S
C375 C381 1.491 . S
C376 H367 0.950 . S
C376 C375 1.398 . S
C376 C377 1.391 . S
C377 H365 0.950 . S
C377 C373 1.393 . S
C377 C376 1.391 . S
C378 H368 0.950 . S
C378 C379 1.386 . S
C378 C380 1.391 . S
C379 C378 1.386 . S
C379 C383 1.393 . S
C380 H369 0.950 . S
C380 C378 1.391 . S
C380 C381 1.400 . S
C381 C375 1.491 . S
C381 C380 1.400 . S
C381 C382 1.398 . S
C382 H370 0.950 . S
C382 C381 1.398 . S
C382 C383 1.391 . S
C383 H371 0.950 . S
C383 C379 1.393 . S
C383 C382 1.391 . S
H384 C392 0.950 1_554 S
H385 C397 0.950 . S
H386 C394 0.950 . S
H387 C396 0.950 . S
H388 C398 0.950 . S
H389 C400 0.950 . S
H390 C402 0.950 . S
H391 C403 0.950 . S
C392 H384 0.950 1_556 S
C392 C393 1.386 . S
C392 C394 1.391 . S
C393 C392 1.386 . S
C393 C397 1.393 . S
C394 H386 0.950 . S
C394 C392 1.391 . S
C394 C395 1.400 . S
C395 C394 1.400 . S
C395 C396 1.398 . S
C395 C401 1.491 . S
C396 H387 0.950 . S
C396 C395 1.398 . S
C396 C397 1.391 . S
C397 H385 0.950 . S
C397 C393 1.393 . S
C397 C396 1.391 . S
C398 H388 0.950 . S
C398 C399 1.386 . S
C398 C400 1.391 . S
C399 C398 1.386 . S
C399 C403 1.393 . S
C400 H389 0.950 . S
C400 C398 1.391 . S
C400 C401 1.400 . S
C401 C395 1.491 . S
C401 C400 1.400 . S
C401 C402 1.398 . S
C402 H390 0.950 . S
C402 C401 1.398 . S
C402 C403 1.391 . S
C403 H391 0.950 . S
C403 C399 1.393 . S
C403 C402 1.391 . S
H404 C412 0.950 . S
H405 C417 0.950 . S
H406 C414 0.950 . S
H407 C416 0.950 . S
H408 C418 0.950 . S
H409 C420 0.950 . S
H410 C422 0.950 . S
H411 C423 0.950 . S
C412 H404 0.950 . S
C412 C413 1.386 . S
C412 C414 1.391 . S
C413 C412 1.386 . S
C413 C417 1.393 . S
C414 H406 0.950 . S
C414 C412 1.391 . S
C414 C415 1.400 . S
C415 C414 1.400 . S
C415 C416 1.398 . S
C415 C421 1.491 . S
C416 H407 0.950 . S
C416 C415 1.398 . S
C416 C417 1.391 . S
C417 H405 0.950 . S
C417 C413 1.393 . S
C417 C416 1.391 . S
C418 H408 0.950 . S
C418 C419 1.386 . S
C418 C420 1.391 . S
C419 C418 1.386 . S
C419 C423 1.393 . S
C420 H409 0.950 . S
C420 C418 1.391 . S
C420 C421 1.400 . S
C421 C415 1.491 . S
C421 C420 1.400 . S
C421 C422 1.398 . S
C422 H410 0.950 . S
C422 C421 1.398 . S
C422 C423 1.391 . S
C423 H411 0.950 . S
C423 C419 1.393 . S
C423 C422 1.391 . S
H424 C432 0.950 . S
H425 C437 0.950 . S
H426 C434 0.950 . S
H427 C436 0.950 . S
H428 C438 0.950 . S
H429 C440 0.950 . S
H430 C442 0.950 . S
H431 C443 0.950 1_545 S
C432 H424 0.950 . S
C432 C433 1.386 . S
C432 C434 1.391 . S
C433 C432 1.386 . S
C433 C437 1.393 . S
C434 H426 0.950 . S
C434 C432 1.391 . S
C434 C435 1.400 . S
C435 C434 1.400 . S
C435 C436 1.398 . S
C435 C441 1.491 . S
C436 H427 0.950 . S
C436 C435 1.398 . S
C436 C437 1.391 . S
C437 H425 0.950 . S
C437 C433 1.393 . S
C437 C436 1.391 . S
C438 H428 0.950 . S
C438 C439 1.386 . S
C438 C440 1.391 . S
C439 C438 1.386 . S
C439 C443 1.393 . S
C440 H429 0.950 . S
C440 C438 1.391 . S
C440 C441 1.400 . S
C441 C435 1.491 . S
C441 C440 1.400 . S
C441 C442 1.398 . S
C442 H430 0.950 . S
C442 C441 1.398 . S
C442 C443 1.391 . S
C443 H431 0.950 1_565 S
C443 C439 1.393 . S
C443 C442 1.391 . S
C219 C99 1.558 . S
C213 C34 1.565 . S
C233 C7 1.547 . S
C239 C194 1.529 . S
C253 C16 1.572 . S
C259 C110 1.542 . S
C273 C25 1.544 . S
C279 C183 1.533 . S
C299 C94 1.345 . S
C293 C5 1.528 . S
C319 C187 1.564 . S
C313 C13 1.564 . S
C333 C23 1.537 . S
C339 C103 1.552 . S
C353 C32 1.520 . S
C359 C178 1.376 . S
C379 C189 1.382 . S
C373 C14 1.516 . S
C399 C105 1.347 . S
C393 C22 1.527 1_556 S
C419 C176 1.563 . S
C413 C31 1.562 . S
C433 C4 1.535 . S
C439 C92 1.547 . S
