# Generated by pormake.
# Topology anh, (6,3)-cn, num edge types: 1
# Building blocks:
#     Node 0, Type 0, BuildingBlock: HISSIN_clean_sbu_0, # of connection points: 6
#     Node 1, Type 0, BuildingBlock: HISSIN_clean_sbu_0, # of connection points: 6
#     Node 2, Type 0, BuildingBlock: HISSIN_clean_sbu_0, # of connection points: 6
#     Node 3, Type 1, BuildingBlock: KAKCAD_clean_linker_0, # of connection points: 3
#     Node 4, Type 1, BuildingBlock: KAKCAD_clean_linker_0, # of connection points: 3
#     Node 5, Type 1, BuildingBlock: KAKCAD_clean_linker_0, # of connection points: 3
#     Node 6, Type 1, BuildingBlock: KAKCAD_clean_linker_0, # of connection points: 3
#     Node 7, Type 1, BuildingBlock: KAKCAD_clean_linker_0, # of connection points: 3
#     Node 8, Type 1, BuildingBlock: KAKCAD_clean_linker_0, # of connection points: 3
#     Edge 9, Type (0, 1), BuildingBlock: ZUJKAS_clean_linker_0, # of connection points: 2
#     Edge 10, Type (0, 1), BuildingBlock: ZUJKAS_clean_linker_0, # of connection points: 2
#     Edge 11, Type (0, 1), BuildingBlock: ZUJKAS_clean_linker_0, # of connection points: 2
#     Edge 12, Type (0, 1), BuildingBlock: ZUJKAS_clean_linker_0, # of connection points: 2
#     Edge 13, Type (0, 1), BuildingBlock: ZUJKAS_clean_linker_0, # of connection points: 2
#     Edge 14, Type (0, 1), BuildingBlock: ZUJKAS_clean_linker_0, # of connection points: 2
#     Edge 15, Type (0, 1), BuildingBlock: ZUJKAS_clean_linker_0, # of connection points: 2
#     Edge 16, Type (0, 1), BuildingBlock: ZUJKAS_clean_linker_0, # of connection points: 2
#     Edge 17, Type (0, 1), BuildingBlock: ZUJKAS_clean_linker_0, # of connection points: 2
#     Edge 18, Type (0, 1), BuildingBlock: ZUJKAS_clean_linker_0, # of connection points: 2
#     Edge 19, Type (0, 1), BuildingBlock: ZUJKAS_clean_linker_0, # of connection points: 2
#     Edge 20, Type (0, 1), BuildingBlock: ZUJKAS_clean_linker_0, # of connection points: 2
#     Edge 21, Type (0, 1), BuildingBlock: ZUJKAS_clean_linker_0, # of connection points: 2
#     Edge 22, Type (0, 1), BuildingBlock: ZUJKAS_clean_linker_0, # of connection points: 2
#     Edge 23, Type (0, 1), BuildingBlock: ZUJKAS_clean_linker_0, # of connection points: 2
#     Edge 24, Type (0, 1), BuildingBlock: ZUJKAS_clean_linker_0, # of connection points: 2
#     Edge 25, Type (0, 1), BuildingBlock: ZUJKAS_clean_linker_0, # of connection points: 2
#     Edge 26, Type (0, 1), BuildingBlock: ZUJKAS_clean_linker_0, # of connection points: 2
# Relax obj value: 0.200
# Max RMSD: 0.183
# Mean RMSD: 0.149
data_MOF--net-anh--node1-HISSIN_clean_sbu_0--node2-KAKCAD_clean_linker_0--edge1-ZUJKAS_clean_linker_0
_symmetry_space_group_name_H-M    P1
_symmetry_Int_Tables_number       1
_symmetry_cell_setting            triclinic
loop_
_symmetry_equiv_pos_as_xyz
'x, y, z'
_cell_length_a     45.581459
_cell_length_b     45.496071
_cell_length_c     83.76966
_cell_angle_alpha  92.699687
_cell_angle_beta   90.291346
_cell_angle_gamma 119.85863
loop_
_atom_site_label
_atom_site_type_symbol
_atom_site_fract_x
_atom_site_fract_y
_atom_site_fract_z
_atom_type_partial_charge
Eu0 Eu 1.05713 0.50226 0.16024 0.0
Eu1 Eu 0.09544 0.58438 0.16668 0.0
C2 C 0.07294 0.53641 0.19633 0.0
C3 C 0.99681 0.41039 0.14582 0.0
C4 C 0.97311 0.4181 0.13942 0.0
C5 C 0.96037 0.35117 0.13748 0.0
C6 C 0.94271 0.39223 0.13243 0.0
C7 C 0.9907 0.37704 0.14448 0.0
C8 C 0.93569 0.35836 0.13175 0.0
C9 C 1.02729 0.4366 0.15448 0.0
O10 O 0.13971 0.57372 0.16679 0.0
O11 O 0.11258 0.51826 0.15687 0.0
C12 C 0.14067 0.5466 0.16112 0.0
O13 O 1.05518 0.52368 0.1367 0.0
O14 O 0.13647 0.63296 0.17696 0.0
O15 O 0.09477 0.63106 0.16353 0.0
O16 O 0.10304 0.5752 0.14096 0.0
C17 C 0.07998 0.55147 0.13124 0.0
O18 O 1.01242 0.51174 0.16177 0.0
O19 O 1.04084 0.56952 0.15987 0.0
O20 O 0.07585 0.56405 0.19064 0.0
O21 O 1.051 0.45839 0.14573 0.0
O22 O 1.02235 0.45105 0.1672 0.0
O23 O 0.07179 0.5121 0.18673 0.0
C24 C 0.14817 0.68035 0.16183 0.0
C25 C 0.14155 0.68423 0.14586 0.0
C26 C 0.19736 0.73681 0.16284 0.0
C27 C 0.16218 0.71459 0.13861 0.0
C28 C 0.17655 0.70664 0.17014 0.0
C29 C 0.18998 0.74133 0.14712 0.0
C30 C 0.12447 0.65038 0.17037 0.0
C31 C 1.01223 0.5403 0.15993 0.0
H32 H 0.9777 0.4439 0.14027 0.0
H33 H 0.95553 0.32531 0.13735 0.0
H34 H 0.92426 0.39853 0.12802 0.0
H35 H 1.00889 0.37081 0.14933 0.0
H36 H 0.11992 0.66422 0.1391 0.0
H37 H 0.21838 0.7572 0.16977 0.0
H38 H 0.15608 0.71739 0.12646 0.0
H39 H 0.18203 0.70426 0.18246 0.0
Eu40 Eu 0.57448 1.01628 0.49385 0.0
Eu41 Eu 0.53301 0.05664 0.49698 0.0
C42 C 0.55655 1.03566 0.52799 0.0
C43 C 0.60691 0.95298 0.48475 0.0
C44 C 0.59791 0.92489 0.49394 0.0
C45 C 0.62367 0.92641 0.46357 0.0
C46 C 0.60262 0.89832 0.48821 0.0
C47 C 0.6189 0.95303 0.4693 0.0
C48 C 0.61669 0.89935 0.4732 0.0
C49 C 0.60803 0.98363 0.49215 0.0
O50 O 0.58858 0.09928 0.49919 0.0
O51 O 0.61473 0.07073 0.48933 0.0
C52 C 0.61571 0.09948 0.49358 0.0
O53 O 0.55338 1.01265 0.46907 0.0
O54 O 0.52031 0.08984 0.5112 0.0
O55 O 0.49931 0.07289 0.48706 0.0
O56 O 0.55165 0.06179 0.47194 0.0
C57 C 0.55215 1.03788 0.46282 0.0
O58 O 0.51924 0.97338 0.49429 0.0
O59 O 0.49055 1.00241 0.49075 0.0
O60 O 0.53034 1.03453 0.52087 0.0
O61 O 0.61294 1.00777 0.48285 0.0
O62 O 0.58659 0.97957 0.5033 0.0
O63 O 0.58135 1.0375 0.51944 0.0
C64 C 0.52259 0.13077 0.49494 0.0
C65 C 0.54871 0.14244 0.48395 0.0
C66 C 0.54138 0.18899 0.50399 0.0
C67 C 0.57188 0.17698 0.48349 0.0
C68 C 0.51822 0.1543 0.5045 0.0
C69 C 0.56942 0.20048 0.49405 0.0
C70 C 0.50599 0.09511 0.49898 0.0
C71 C 0.49069 0.97354 0.49159 0.0
H72 H 0.58895 0.92427 0.50594 0.0
H73 H 0.63431 0.92778 0.45191 0.0
H74 H 0.59751 0.87819 0.49608 0.0
H75 H 0.62615 0.97437 0.46192 0.0
H76 H 0.55295 0.12471 0.47663 0.0
H77 H 0.53848 0.20662 0.51205 0.0
H78 H 0.59327 0.18484 0.47581 0.0
H79 H 0.49845 0.14576 0.51315 0.0
Eu80 Eu 0.53231 0.50751 0.82629 0.0
Eu81 Eu 0.61383 0.55132 0.83142 0.0
C82 C 0.56665 0.52762 0.86162 0.0
C83 C 0.44272 0.48122 0.8134 0.0
C84 C 0.45353 0.51382 0.80822 0.0
C85 C 0.38483 0.46471 0.80615 0.0
C86 C 0.42996 0.52214 0.80247 0.0
C87 C 0.40845 0.45645 0.81195 0.0
C88 C 0.39524 0.49793 0.80182 0.0
C89 C 0.46688 0.47364 0.82108 0.0
O90 O 0.60367 0.49654 0.83092 0.0
O91 O 0.54748 0.46699 0.82291 0.0
C92 C 0.57619 0.4678 0.8262 0.0
O93 O 0.55394 0.52904 0.80254 0.0
O94 O 0.66156 0.56082 0.84263 0.0
O95 O 0.66078 0.59701 0.8269 0.0
O96 O 0.60477 0.53157 0.80591 0.0
C97 C 0.58142 0.53105 0.79657 0.0
O98 O 0.54243 0.56206 0.82938 0.0
O99 O 0.5988 0.58991 0.82399 0.0
O100 O 0.59268 0.55312 0.85543 0.0
O101 O 0.48825 0.4711 0.81164 0.0
O102 O 0.48145 0.49153 0.83432 0.0
O103 O 0.54309 0.50303 0.85231 0.0
C104 C 0.71024 0.59254 0.82737 0.0
C105 C 0.71558 0.59872 0.81104 0.0
C106 C 0.76715 0.60181 0.83046 0.0
C107 C 0.74694 0.60746 0.8046 0.0
C108 C 0.73599 0.59341 0.83691 0.0
C109 C 0.77323 0.60974 0.81434 0.0
C110 C 0.67947 0.58832 0.835 0.0
C111 C 0.57014 0.59001 0.82583 0.0
H112 H 0.48003 0.53318 0.80921 0.0
H113 H 0.35829 0.44546 0.80561 0.0
H114 H 0.43877 0.54805 0.79945 0.0
H115 H 0.39984 0.43109 0.81578 0.0
H116 H 0.696 0.59797 0.80336 0.0
H117 H 0.7871 0.60386 0.83833 0.0
H118 H 0.75092 0.61326 0.79213 0.0
H119 H 0.73245 0.5889 0.84953 0.0
C120 C 0.57195 0.11328 0.28802 0.0
C121 C 0.54565 0.0855 0.29528 0.0
C122 C 0.56922 0.11819 0.27184 0.0
C123 C 0.54018 0.09532 0.26259 0.0
C124 C 0.51385 0.06766 0.26991 0.0
C125 C 0.51651 0.06287 0.28607 0.0
C126 C 0.53779 0.0992 0.24519 0.0
C127 C 0.5659 0.10795 0.23558 0.0
C128 C 0.56273 0.10794 0.21893 0.0
C129 C 0.53149 0.0998 0.21188 0.0
C130 C 0.5032 0.09131 0.22122 0.0
C131 C 0.50668 0.09152 0.2379 0.0
C132 C 0.46945 0.07775 0.21319 0.0
C133 C 0.46589 0.09118 0.19897 0.0
C134 C 0.44175 0.04794 0.2183 0.0
C135 C 0.41249 1.03016 0.20863 0.0
C136 C 0.41045 1.04164 0.1936 0.0
C137 C 0.59148 0.11494 0.20863 0.0
C138 C 0.62302 0.14427 0.2116 0.0
C139 C 0.5869 0.09315 0.19522 0.0
C140 C 0.61302 0.10116 0.18464 0.0
C141 C 0.64422 0.13127 0.18719 0.0
C142 C 0.64909 0.15247 0.20093 0.0
C143 C 0.43664 0.0732 0.18922 0.0
H144 H 0.59454 0.13137 0.29488 0.0
H145 H 0.5898 0.13993 0.2666 0.0
H146 H 0.49146 0.0491 0.26307 0.0
H147 H 0.49606 1.04093 0.29126 0.0
H148 H 0.58978 0.11301 0.24094 0.0
H149 H 0.48494 0.085 0.24519 0.0
H150 H 0.52899 0.09888 0.19896 0.0
H151 H 0.48657 0.11451 0.19489 0.0
H152 H 0.44355 1.03681 0.22915 0.0
H153 H 0.39232 1.00618 0.21243 0.0
H154 H 0.62706 0.16154 0.2218 0.0
H155 H 0.56291 0.07005 0.19283 0.0
H156 H 0.43567 0.08274 0.17774 0.0
H157 H 0.67262 0.17612 0.20316 0.0
H158 H 0.60864 0.08397 0.17436 0.0
C159 C 0.68367 0.60891 0.62452 0.0
C160 C 0.69702 0.59968 0.63726 0.0
C161 C 0.69994 0.61681 0.60997 0.0
C162 C 0.73001 0.61579 0.60781 0.0
C163 C 0.74343 0.60667 0.62056 0.0
C164 C 0.72712 0.59872 0.63512 0.0
C165 C 0.74664 0.62321 0.59213 0.0
C166 C 0.74822 0.64944 0.5833 0.0
C167 C 0.7608 0.65452 0.5678 0.0
C168 C 0.77342 0.63406 0.56148 0.0
C169 C 0.77162 0.60734 0.56995 0.0
C170 C 0.75851 0.60234 0.58538 0.0
C171 C 0.77919 0.58214 0.56185 0.0
C172 C 0.76972 0.57213 0.54563 0.0
C173 C 0.79339 0.56604 0.57037 0.0
C174 C 0.79637 0.5394 0.56303 0.0
C175 C 0.78561 0.52871 0.54699 0.0
C176 C 0.75661 0.67771 0.5573 0.0
C177 C 0.72636 0.67885 0.55734 0.0
C178 C 0.78088 0.69584 0.54598 0.0
C179 C 0.77426 0.71318 0.53444 0.0
C180 C 0.74336 0.71303 0.53407 0.0
C181 C 0.71992 0.69645 0.54593 0.0
C182 C 0.77314 0.54598 0.53828 0.0
H183 H 0.66027 0.6094 0.6257 0.0
H184 H 0.68851 0.62302 0.60028 0.0
H185 H 0.76671 0.60595 0.61932 0.0
H186 H 0.73833 0.59219 0.64478 0.0
H187 H 0.73895 0.66552 0.58837 0.0
H188 H 0.75548 0.58085 0.59174 0.0
H189 H 0.78288 0.63766 0.54949 0.0
H190 H 0.75784 0.58315 0.53873 0.0
H191 H 0.80135 0.5734 0.58281 0.0
H192 H 0.80607 0.52646 0.57001 0.0
H193 H 0.70688 0.66491 0.56573 0.0
H194 H 0.80465 0.69587 0.54575 0.0
H195 H 0.76385 0.5378 0.52603 0.0
H196 H 0.69623 0.69656 0.54628 0.0
H197 H 0.79291 0.7257 0.5255 0.0
C198 C 0.16559 0.66527 0.96428 0.0
C199 C 0.13209 0.64961 0.96942 0.0
C200 C 0.17325 0.67751 0.94898 0.0
C201 C 0.1476 0.67439 0.93847 0.0
C202 C 0.11416 0.65912 0.94369 0.0
C203 C 0.10649 0.64686 0.95898 0.0
C204 C 0.15542 0.68552 0.92188 0.0
C205 C 0.17674 0.67764 0.91281 0.0
C206 C 0.1824 0.68581 0.89677 0.0
C207 C 0.1669 0.70218 0.88981 0.0
C208 C 0.14485 0.70948 0.89848 0.0
C209 C 0.13967 0.7016 0.91462 0.0
C210 C 0.12317 0.71954 0.88971 0.0
C211 C 0.13635 0.74221 0.87737 0.0
C212 C 0.08804 0.70183 0.89169 0.0
C213 C 1.06641 0.70423 0.88067 0.0
C214 C 0.07946 0.7243 0.86745 0.0
C215 C 0.20037 0.67315 0.88645 0.0
C216 C 0.22518 0.69481 0.87619 0.0
C217 C 0.1898 0.63841 0.88543 0.0
C218 C 0.20294 0.62532 0.87395 0.0
C219 C 0.22727 0.64678 0.86338 0.0
C220 C 0.23871 0.6818 0.86484 0.0
C221 C 0.11464 0.74457 0.86631 0.0
H222 H 0.18586 0.66749 0.97196 0.0
H223 H 0.19928 0.68932 0.94536 0.0
H224 H 0.09372 0.65589 0.93581 0.0
H225 H 0.08049 0.63527 0.96264 0.0
H226 H 0.18787 0.66391 0.91799 0.0
H227 H 0.12266 0.7072 0.92139 0.0
H228 H 0.1697 0.70646 0.87714 0.0
H229 H 0.16338 0.75651 0.8757 0.0
H230 H 0.07701 0.68403 0.90099 0.0
H231 H 1.03934 0.68888 0.882 0.0
H232 H 0.23365 0.72172 0.87678 0.0
H233 H 0.17017 0.62111 0.893 0.0
H234 H 0.12535 0.7604 0.85629 0.0
H235 H 0.25792 0.69918 0.85714 0.0
H236 H 0.19308 0.59816 0.87303 0.0
C237 C 1.02167 0.51283 0.37654 0.0
C238 C 1.05191 0.52123 0.36869 0.0
C239 C 1.0209 0.51432 0.39331 0.0
C240 C 1.05033 0.52422 0.40276 0.0
C241 C 0.08045 0.53225 0.3949 0.0
C242 C 0.08126 0.53088 0.37816 0.0
C243 C 1.04991 0.52669 0.4207 0.0
C244 C 1.02218 0.5027 0.42903 0.0
C245 C 1.02158 0.50431 0.44588 0.0
C246 C 1.05016 0.53138 0.45455 0.0
C247 C 0.07852 0.55616 0.44633 0.0
C248 C 0.07755 0.55315 0.4295 0.0
C249 C 0.11001 0.5857 0.45442 0.0
C250 C 0.10881 0.6112 0.46415 0.0
C251 C 0.1423 0.59157 0.45008 0.0
C252 C 0.1721 0.62201 0.45478 0.0
C253 C 0.17109 0.64828 0.46398 0.0
C254 C 0.99052 0.47686 0.45363 0.0
C255 C 0.95792 0.47018 0.44884 0.0
C256 C 0.99234 0.45385 0.46373 0.0
C257 C 0.96262 0.42464 0.4684 0.0
C258 C 0.92995 0.4176 0.46333 0.0
C259 C 0.92834 0.44142 0.45369 0.0
C260 C 0.13878 0.64198 0.4688 0.0
H261 H 0.99841 0.50485 0.36974 0.0
H262 H 0.99726 0.50821 0.39885 0.0
H263 H 0.10357 0.5395 0.40168 0.0
H264 H 0.10516 0.53797 0.37268 0.0
H265 H 1.00105 0.48189 0.42233 0.0
H266 H 0.09853 0.57226 0.42314 0.0
H267 H 1.05032 0.53312 0.46749 0.0
H268 H 0.08457 0.60807 0.46755 0.0
H269 H 0.14446 0.57287 0.44245 0.0
H270 H 0.19592 0.62541 0.45054 0.0
H271 H 0.95529 0.4869 0.4409 0.0
H272 H 1.01681 0.45762 0.46747 0.0
H273 H 0.1365 0.66103 0.47604 0.0
H274 H 0.90409 0.43721 0.4493 0.0
H275 H 0.96532 0.40737 0.47593 0.0
C276 C 0.54664 0.99691 0.70847 0.0
C277 C 0.56982 1.02576 0.70059 0.0
C278 C 0.54776 0.99651 0.7252 0.0
C279 C 0.57185 1.02508 0.73452 0.0
C280 C 0.59507 0.05391 0.72665 0.0
C281 C 0.59418 0.05418 0.70992 0.0
C282 C 0.57231 1.0251 0.7524 0.0
C283 C 0.56907 0.99698 0.76019 0.0
C284 C 0.56892 0.9961 0.77703 0.0
C285 C 0.57219 1.02504 0.78618 0.0
C286 C 0.57563 0.05393 0.77845 0.0
C287 C 0.5757 0.05323 0.76163 0.0
C288 C 0.57903 0.08556 0.78708 0.0
C289 C 0.55301 0.08475 0.7964 0.0
C290 C 0.60586 0.11775 0.78351 0.0
C291 C 0.60624 0.14792 0.78857 0.0
C292 C 0.5796 0.14732 0.79733 0.0
C293 C 0.56554 0.96449 0.78427 0.0
C294 C 0.54324 0.93203 0.77702 0.0
C295 C 0.58663 0.96602 0.79706 0.0
C296 C 0.58648 0.93639 0.80183 0.0
C297 C 0.56531 0.90419 0.79395 0.0
C298 C 0.5432 0.90268 0.7817 0.0
C299 C 0.55322 0.11508 0.80139 0.0
H300 H 0.52774 0.97446 0.70168 0.0
H301 H 0.52934 0.97398 0.73085 0.0
H302 H 0.61412 0.07627 0.73343 0.0
H303 H 0.61226 0.07693 0.70429 0.0
H304 H 0.56749 0.97581 0.75297 0.0
H305 H 0.57759 0.07466 0.75561 0.0
H306 H 0.57205 1.0251 0.7991 0.0
H307 H 0.53162 0.06058 0.79917 0.0
H308 H 0.62613 0.11954 0.77617 0.0
H309 H 0.62688 0.17174 0.78493 0.0
H310 H 0.52602 0.92929 0.76737 0.0
H311 H 0.60434 0.99032 0.80294 0.0
H312 H 0.53235 0.11315 0.80826 0.0
H313 H 0.52573 0.87862 0.77555 0.0
H314 H 0.60397 0.93899 0.81132 0.0
C315 C 0.57708 0.51202 0.04345 0.0
C316 C 0.56802 0.53255 0.03503 0.0
C317 C 0.57861 0.51379 0.06024 0.0
C318 C 0.57117 0.53619 0.06913 0.0
C319 C 0.56227 0.55684 0.0607 0.0
C320 C 0.56068 0.55502 0.04393 0.0
C321 C 0.57252 0.538 0.08708 0.0
C322 C 0.59819 0.53612 0.09556 0.0
C323 C 0.6002 0.53798 0.11242 0.0
C324 C 0.57524 0.54214 0.12096 0.0
C325 C 0.54886 0.54414 0.1126 0.0
C326 C 0.54814 0.54175 0.09573 0.0
C327 C 0.52133 0.54874 0.12055 0.0
C328 C 0.50034 0.52723 0.1322 0.0
C329 C 0.51268 0.5721 0.11464 0.0
C330 C 0.48347 0.57282 0.11944 0.0
C331 C 0.46137 0.55025 0.13046 0.0
C332 C 0.629 0.53547 0.12025 0.0
C333 C 0.63572 0.50958 0.11489 0.0
C334 C 0.65286 0.56098 0.13109 0.0
C335 C 0.68291 0.56118 0.13587 0.0
C336 C 0.69007 0.53569 0.1301 0.0
C337 C 0.66542 0.50961 0.11972 0.0
C338 C 0.4709 0.52801 0.13708 0.0
H339 H 0.58246 0.49407 0.03707 0.0
H340 H 0.58507 0.49712 0.06625 0.0
H341 H 0.55696 0.57486 0.06706 0.0
H342 H 0.5542 0.57169 0.03793 0.0
H343 H 0.61744 0.53397 0.08891 0.0
H344 H 0.52777 0.54214 0.0892 0.0
H345 H 0.57633 0.54381 0.13391 0.0
H346 H 0.50572 0.50862 0.13695 0.0
H347 H 0.52816 0.58942 0.1058 0.0
H348 H 0.47806 0.59107 0.11431 0.0
H349 H 0.61827 0.48955 0.10646 0.0
H350 H 0.64904 0.58164 0.13536 0.0
H351 H 0.45486 0.51012 0.14559 0.0
H352 H 0.66955 0.48964 0.11473 0.0
H353 H 0.70071 0.5816 0.14402 0.0
H354 H 0.15251 0.49741 0.14721 0.0
H355 H 0.20613 0.49882 0.1431 0.0
H356 H 0.25987 0.59923 0.16606 0.0
H357 H 0.20599 0.59835 0.16982 0.0
H358 H 0.29418 0.59765 0.14134 0.0
H359 H 0.26353 0.48268 0.173 0.0
H360 H 0.2333 0.47344 0.15706 0.0
H361 H 0.23696 0.50163 0.17379 0.0
C362 C 0.1756 0.51985 0.15153 0.0
C363 C 0.17431 0.54767 0.15902 0.0
C364 C 0.20659 0.52049 0.14926 0.0
C365 C 0.23774 0.54877 0.15457 0.0
C366 C 0.2366 0.57681 0.16189 0.0
H367 H 0.42825 0.539 0.15941 0.0
H368 H 0.37593 0.53967 0.16555 0.0
C369 C 0.20551 0.57627 0.1641 0.0
C370 C 0.2712 0.5494 0.15205 0.0
H371 H 0.31179 0.50344 0.15654 0.0
C372 C 0.2979 0.57702 0.14477 0.0
C373 C 0.27716 0.52305 0.15671 0.0
C374 C 0.25136 0.49373 0.16573 0.0
C375 C 0.32926 0.5786 0.14168 0.0
C376 C 0.33452 0.55138 0.14555 0.0
C377 C 0.3082 0.52422 0.15325 0.0
C378 C 0.36687 0.55061 0.14173 0.0
C379 C 0.35678 0.61011 0.13462 0.0
C380 C 0.37967 0.55569 0.1262 0.0
C381 C 0.40981 0.55545 0.12267 0.0
C382 C 0.42841 0.54965 0.13445 0.0
C383 C 0.41505 0.54353 0.14991 0.0
C384 C 0.38491 0.544 0.15347 0.0
H385 H 0.35343 0.63237 0.13737 0.0
H386 H 0.38225 0.61629 0.13917 0.0
H387 H 0.35565 0.60596 0.12142 0.0
H388 H 0.36613 0.55955 0.11663 0.0
H389 H 0.41825 0.55933 0.1105 0.0
H390 H 0.62762 0.16576 0.49767 0.0
H391 H 0.67957 0.21915 0.49287 0.0
H392 H 0.73012 0.16304 0.48033 0.0
H393 H 0.67828 0.10986 0.48463 0.0
H394 H 0.74263 0.25289 0.50541 0.0
H395 H 0.7541 0.21898 0.4425 0.0
H396 H 0.71672 0.19372 0.45356 0.0
H397 H 0.75334 0.1887 0.45566 0.0
C398 C 0.64972 0.16466 0.49384 0.0
C399 C 0.64812 0.13291 0.49145 0.0
C400 C 0.6797 0.19548 0.49109 0.0
C401 C 0.70925 0.1958 0.48578 0.0
C402 C 0.70786 0.16413 0.48385 0.0
H403 H 0.91892 0.35201 0.46512 0.0
H404 H 0.86653 0.29991 0.47081 0.0
C405 C 0.67794 0.1334 0.4865 0.0
C406 C 0.74143 0.22885 0.48247 0.0
H407 H 0.80245 0.26758 0.45458 0.0
C408 C 0.7554 0.256 0.4942 0.0
C409 C 0.75883 0.23379 0.46788 0.0
C410 C 0.74481 0.2074 0.45412 0.0
C411 C 0.78602 0.28677 0.49199 0.0
C412 C 0.80357 0.29142 0.47751 0.0
C413 C 0.78956 0.26444 0.46575 0.0
C414 C 0.83619 0.32397 0.47431 0.0
C415 C 0.79992 0.3138 0.50546 0.0
C416 C 0.83739 0.35554 0.47421 0.0
C417 C 0.8675 0.38557 0.47084 0.0
C418 C 0.89782 0.38539 0.46755 0.0
C419 C 0.89659 0.35374 0.46778 0.0
C420 C 0.86633 0.32362 0.47094 0.0
H421 H 0.78959 0.30312 0.51712 0.0
H422 H 0.82796 0.32655 0.50641 0.0
H423 H 0.79279 0.33327 0.5031 0.0
H424 H 0.81478 0.35698 0.47652 0.0
H425 H 0.867 0.40912 0.47092 0.0
H426 H 0.51737 0.60319 0.8305 0.0
H427 H 0.5161 0.65548 0.82623 0.0
H428 H 0.61884 0.70269 0.81062 0.0
H429 H 0.62061 0.65096 0.8154 0.0
H430 H 0.61295 0.74794 0.82798 0.0
H431 H 0.50174 0.68992 0.78622 0.0
H432 H 0.49195 0.67134 0.80524 0.0
H433 H 0.52165 0.66668 0.79276 0.0
C434 C 0.53977 0.62464 0.82615 0.0
C435 C 0.56908 0.62232 0.82331 0.0
C436 C 0.53891 0.65473 0.82353 0.0
C437 C 0.56711 0.68351 0.81768 0.0
C438 C 0.59651 0.68127 0.81504 0.0
H439 H 0.55892 0.85151 0.77354 0.0
H440 H 0.55975 0.80005 0.77976 0.0
C441 C 0.59748 0.65135 0.81778 0.0
C442 C 0.56643 0.71596 0.81454 0.0
H443 H 0.5215 0.74708 0.7954 0.0
C444 C 0.59287 0.74755 0.82082 0.0
C445 C 0.54072 0.71636 0.80499 0.0
C446 C 0.51262 0.68433 0.79677 0.0
C447 C 0.59424 0.77876 0.818 0.0
C448 C 0.56794 0.77904 0.8089 0.0
C449 C 0.54163 0.74748 0.80253 0.0
C450 C 0.56776 0.81155 0.8053 0.0
C451 C 0.62469 0.81124 0.82442 0.0
C452 C 0.57173 0.83604 0.81744 0.0
C453 C 0.57143 0.86602 0.81385 0.0
C454 C 0.56652 0.87245 0.79801 0.0
C455 C 0.56228 0.84774 0.78593 0.0
C456 C 0.56286 0.818 0.7895 0.0
H457 H 0.64676 0.80769 0.82664 0.0
H458 H 0.63216 0.8318 0.81602 0.0
H459 H 0.61854 0.81949 0.83598 0.0
H460 H 0.57456 0.83182 0.82982 0.0
H461 H 0.5743 0.88383 0.8236 0.0
H462 H 0.94678 0.48509 0.15722 0.0
H463 H 0.89336 0.48474 0.15255 0.0
H464 H 0.94789 0.5939 0.1526 0.0
H465 H 1.00122 0.59438 0.15694 0.0
H466 H 0.85904 0.5093 0.16896 0.0
H467 H 0.89298 0.57412 0.11221 0.0
H468 H 0.91839 0.55884 0.12133 0.0
H469 H 0.9224 0.59879 0.12829 0.0
C470 C 0.94755 0.50911 0.1562 0.0
C471 C 0.97889 0.53976 0.15741 0.0
C472 C 0.91673 0.50888 0.15351 0.0
C473 C 0.91597 0.53924 0.15181 0.0
C474 C 0.94721 0.56988 0.15333 0.0
H475 H 0.75502 0.59123 0.13527 0.0
H476 H 0.80818 0.59191 0.14102 0.0
C477 C 0.97799 0.57013 0.15598 0.0
C478 C 0.88276 0.53893 0.14878 0.0
H479 H 0.84287 0.56747 0.12403 0.0
C480 C 0.85562 0.5219 0.15905 0.0
C481 C 0.87753 0.55532 0.1359 0.0
C482 C 0.90422 0.57251 0.12371 0.0
C483 C 0.82438 0.52142 0.15707 0.0
C484 C 0.8192 0.53786 0.14421 0.0
C485 C 0.84633 0.5549 0.13395 0.0
C486 C 0.78594 0.53737 0.14109 0.0
C487 C 0.79752 0.50399 0.16916 0.0
C488 C 0.75496 0.50662 0.13904 0.0
C489 C 0.72425 0.50616 0.13581 0.0
C490 C 0.72311 0.53644 0.13438 0.0
C491 C 0.7542 0.56725 0.13647 0.0
C492 C 0.78498 0.56768 0.13965 0.0
H493 H 0.80858 0.50206 0.18064 0.0
H494 H 0.78338 0.51767 0.17157 0.0
H495 H 0.77933 0.47783 0.16442 0.0
H496 H 0.75445 0.48267 0.13969 0.0
H497 H 0.70125 0.48177 0.13447 0.0
H498 H 0.42573 0.96245 0.48634 0.0
H499 H 0.37247 0.90847 0.48251 0.0
H500 H 0.42664 0.85403 0.48713 0.0
H501 H 0.47984 0.90786 0.49127 0.0
H502 H 0.34855 0.85729 0.46036 0.0
H503 H 0.35328 0.80345 0.51746 0.0
H504 H 0.38198 0.84718 0.51354 0.0
H505 H 0.38984 0.81418 0.50584 0.0
C506 C 0.42646 0.93906 0.48666 0.0
C507 C 0.45761 0.94007 0.48929 0.0
C508 C 0.3957 0.90792 0.48442 0.0
C509 C 0.39473 0.87646 0.4848 0.0
C510 C 0.4259 0.87745 0.4872 0.0
H511 H 0.23642 0.6608 0.47039 0.0
H512 H 0.28874 0.71513 0.47509 0.0
C513 C 0.45666 0.90857 0.48947 0.0
C514 C 0.36146 0.84299 0.48229 0.0
H515 H 0.3112 0.76566 0.49821 0.0
C516 C 0.34043 0.83745 0.46875 0.0
C517 C 0.35015 0.81647 0.49307 0.0
C518 C 0.36979 0.82066 0.50837 0.0
C519 C 0.30954 0.80657 0.46554 0.0
C520 C 0.29832 0.78 0.47629 0.0
C521 C 0.3193 0.78555 0.48985 0.0
C522 C 0.2654 0.7463 0.47359 0.0
C523 C 0.28974 0.80238 0.4503 0.0
C524 C 0.23387 0.74469 0.47144 0.0
C525 C 0.20354 0.71329 0.46865 0.0
C526 C 0.20342 0.68211 0.46793 0.0
C527 C 0.23497 0.68383 0.47049 0.0
C528 C 0.26522 0.7152 0.47332 0.0
H529 H 0.3059 0.8202 0.44132 0.0
H530 H 0.27824 0.77606 0.44494 0.0
H531 H 0.26909 0.80789 0.453 0.0
H532 H 0.23258 0.76783 0.47194 0.0
H533 H 0.18023 0.71363 0.4667 0.0
H534 H 0.52372 0.403 0.81836 0.0
H535 H 0.52513 0.35014 0.81451 0.0
H536 H 0.63266 0.4046 0.82473 0.0
H537 H 0.63126 0.4576 0.82899 0.0
H538 H 0.55414 0.32846 0.79367 0.0
H539 H 0.60737 0.32824 0.85311 0.0
H540 H 0.59294 0.35752 0.84881 0.0
H541 H 0.63414 0.36574 0.84284 0.0
C542 C 0.54776 0.40392 0.81995 0.0
C543 C 0.57735 0.43507 0.82415 0.0
C544 C 0.54853 0.37337 0.81767 0.0
C545 C 0.57887 0.37257 0.81955 0.0
C546 C 0.60857 0.40373 0.82361 0.0
H547 H 0.63323 0.21186 0.80567 0.0
H548 H 0.63259 0.26495 0.81077 0.0
C549 C 0.6078 0.43436 0.82595 0.0
C550 C 0.5793 0.33944 0.81679 0.0
H551 H 0.6037 0.28695 0.83349 0.0
C552 C 0.56485 0.31945 0.80248 0.0
C553 C 0.59322 0.32701 0.82812 0.0
C554 C 0.60749 0.34554 0.84414 0.0
C555 C 0.56446 0.28839 0.79911 0.0
C556 C 0.5784 0.276 0.81043 0.0
C557 C 0.59296 0.296 0.82471 0.0
C558 C 0.57839 0.24271 0.8076 0.0
C559 C 0.54986 0.26959 0.78317 0.0
C560 C 0.54815 0.21162 0.80439 0.0
C561 C 0.54843 0.1809 0.80141 0.0
C562 C 0.57898 0.18 0.80153 0.0
C563 C 0.60913 0.21109 0.80514 0.0
C564 C 0.6088 0.24174 0.80819 0.0
H565 H 0.54913 0.28652 0.77423 0.0
H566 H 0.56475 0.25809 0.77835 0.0
H567 H 0.52352 0.24891 0.78469 0.0
H568 H 0.52411 0.21101 0.80419 0.0
H569 H 0.52458 0.15793 0.79863 0.0
H570 H 0.58472 0.83087 0.47715 0.0
H571 H 0.61231 0.79666 0.4784 0.0
H572 H 0.70392 0.87913 0.46114 0.0
H573 H 0.67702 0.91389 0.46032 0.0
H574 H 0.6566 0.7782 0.45797 0.0
H575 H 0.72076 0.87082 0.50994 0.0
H576 H 0.68336 0.86625 0.50006 0.0
H577 H 0.72346 0.88769 0.49068 0.0
C578 C 0.61043 0.84137 0.47319 0.0
C579 C 0.62893 0.87534 0.46902 0.0
C580 C 0.62604 0.8217 0.47376 0.0
C581 C 0.66025 0.8357 0.47011 0.0
C582 C 0.67751 0.86806 0.46407 0.0
H583 H 0.78574 0.77303 0.52049 0.0
H584 H 0.77067 0.80183 0.5009 0.0
C585 C 0.66199 0.88782 0.46356 0.0
C586 C 0.67921 0.81957 0.47583 0.0
H587 H 0.72979 0.82485 0.50719 0.0
C588 C 0.6731 0.78856 0.46856 0.0
C589 C 0.70069 0.83331 0.48965 0.0
C590 C 0.70745 0.86623 0.49816 0.0
C591 C 0.68732 0.77038 0.47507 0.0
C592 C 0.70731 0.78326 0.48941 0.0
C593 C 0.7146 0.81505 0.49618 0.0
C594 C 0.71781 0.76296 0.49872 0.0
C595 C 0.68044 0.73744 0.46663 0.0
C596 C 0.69326 0.73131 0.50382 0.0
C597 C 0.70188 0.7146 0.51484 0.0
C598 C 0.73512 0.72953 0.52127 0.0
C599 C 0.75996 0.7607 0.51572 0.0
C600 C 0.75137 0.77723 0.50454 0.0
H601 H 0.67692 0.7379 0.45352 0.0
H602 H 0.7013 0.73207 0.46883 0.0
H603 H 0.65666 0.71636 0.47102 0.0
H604 H 0.66703 0.72015 0.49987 0.0
H605 H 0.68225 0.69029 0.51858 0.0
H606 H 0.81688 0.58603 0.81875 0.0
H607 H 0.87796 0.61736 0.81548 0.0
H608 H 0.86946 0.6966 0.79333 0.0
H609 H 0.80822 0.66572 0.79699 0.0
H610 H 0.92614 0.65008 0.7908 0.0
H611 H 0.92092 0.74122 0.8362 0.0
H612 H 0.8842 0.70036 0.8313 0.0
H613 H 0.89862 0.73308 0.81729 0.0
C614 C 0.82792 0.60974 0.81285 0.0
C615 C 0.80798 0.62381 0.80845 0.0
C616 C 0.86276 0.62749 0.81085 0.0
C617 C 0.87821 0.65957 0.80444 0.0
C618 C 0.85798 0.67206 0.79848 0.0
H619 H 0.07864 0.77478 0.85094 0.0
H620 H 1.03768 0.76768 0.82973 0.0
C621 C 0.82301 0.65429 0.8005 0.0
C622 C 0.91521 0.68155 0.80683 0.0
H623 H 0.97134 0.74043 0.83447 0.0
C624 C 0.93641 0.67065 0.79996 0.0
C625 C 0.92868 0.70876 0.81861 0.0
C626 C 0.90708 0.72166 0.82637 0.0
C627 C 0.96977 0.68383 0.80578 0.0
C628 C 0.98171 0.70784 0.81898 0.0
C629 C 0.96197 0.72175 0.82445 0.0
C630 C 1.01014 0.71279 0.82953 0.0
C631 C 0.99109 0.67024 0.79845 0.0
C632 C 1.0081 0.68437 0.83645 0.0
C633 C 1.03102 0.68837 0.84853 0.0
C634 C 1.05637 0.7209 0.85412 0.0
C635 C 1.05925 0.74943 0.84686 0.0
C636 C 1.03604 0.7454 0.83473 0.0
H637 H 0.98553 0.66473 0.78538 0.0
H638 H 1.01855 0.68838 0.80051 0.0
H639 H 0.98481 0.64601 0.8038 0.0
H640 H 0.98777 0.65902 0.83302 0.0
H641 H 1.02858 0.66588 0.85369 0.0
H642 H 0.16581 0.77741 0.13217 0.0
H643 H 0.19781 0.83759 0.12647 0.0
H644 H 0.29012 0.84136 0.14199 0.0
H645 H 0.25849 0.78143 0.14732 0.0
H646 H 0.22814 0.88293 0.15059 0.0
H647 H 0.32539 0.90603 0.10691 0.0
H648 H 0.28793 0.86482 0.10809 0.0
H649 H 0.32505 0.87677 0.12056 0.0
C650 C 0.19312 0.79083 0.13372 0.0
C651 C 0.20972 0.77496 0.14034 0.0
C652 C 0.21134 0.82518 0.13047 0.0
C653 C 0.24642 0.84397 0.13361 0.0
C654 C 0.26324 0.82733 0.13905 0.0
H655 H 0.39023 0.97551 0.18694 0.0
H656 H 0.34786 0.93628 0.16723 0.0
C657 C 0.24508 0.79315 0.14234 0.0
C658 C 0.26456 0.88156 0.13469 0.0
H659 H 0.3448 0.947 0.13105 0.0
C660 C 0.25305 0.89749 0.14572 0.0
C661 C 0.29677 0.90082 0.12814 0.0
C662 C 0.30922 0.88615 0.11512 0.0
C663 C 0.27495 0.93039 0.15225 0.0
C664 C 0.3089 0.94744 0.14755 0.0
C665 C 0.3188 0.93356 0.1348 0.0
C666 C 0.3356 0.97308 0.15859 0.0
C667 C 0.26306 0.94491 0.1656 0.0
C668 C 0.34256 1.0068 0.16028 0.0
C669 C 0.36682 1.02945 0.17174 0.0
C670 C 0.3839 1.01834 0.18171 0.0
C671 C 0.3769 0.98462 0.17976 0.0
C672 C 0.35304 0.96229 0.16834 0.0
H673 H 0.23521 0.92988 0.16689 0.0
H674 H 0.27565 0.9453 0.17705 0.0
H675 H 0.27017 0.97147 0.16337 0.0
H676 H 0.32915 1.01543 0.15285 0.0
H677 H 0.37196 0.05541 0.17295 0.0
H678 H 0.60896 0.24277 0.47109 0.0
H679 H 0.66022 0.29848 0.47551 0.0
H680 H 0.64623 0.29298 0.52637 0.0
H681 H 0.59613 0.23721 0.52219 0.0
H682 H 0.66473 0.35693 0.49123 0.0
H683 H 0.74506 0.31769 0.52348 0.0
H684 H 0.71111 0.28933 0.50953 0.0
H685 H 0.70206 0.29783 0.52953 0.0
C686 C 0.61695 0.25341 0.48322 0.0
C687 C 0.59836 0.23561 0.49629 0.0
C688 C 0.64623 0.28512 0.4857 0.0
C689 C 0.65745 0.29929 0.50128 0.0
C690 C 0.63852 0.28198 0.51428 0.0
H691 H 0.75869 0.46809 0.56069 0.0
H692 H 0.73727 0.41266 0.54676 0.0
C693 C 0.60943 0.2504 0.51183 0.0
C694 C 0.68748 0.3333 0.50419 0.0
H695 H 0.75962 0.37583 0.52757 0.0
C696 C 0.68604 0.36123 0.4988 0.0
C697 C 0.71519 0.33856 0.514 0.0
C698 C 0.71875 0.30927 0.51936 0.0
C699 C 0.70995 0.39441 0.50422 0.0
C700 C 0.7364 0.39961 0.515 0.0
C701 C 0.73931 0.37174 0.51935 0.0
C702 C 0.75726 0.4327 0.52389 0.0
C703 C 0.70497 0.42327 0.49942 0.0
C704 C 0.77751 0.46227 0.51588 0.0
C705 C 0.78967 0.4941 0.52383 0.0
C706 C 0.78206 0.49663 0.53992 0.0
C707 C 0.7651 0.46696 0.54832 0.0
C708 C 0.75273 0.43523 0.54035 0.0
H709 H 0.68037 0.41414 0.49293 0.0
H710 H 0.70611 0.43924 0.51011 0.0
H711 H 0.72545 0.43952 0.49144 0.0
H712 H 0.78191 0.46078 0.50326 0.0
H713 H 0.80311 0.51666 0.51715 0.0
H714 H 0.39555 0.54011 0.77922 0.0
H715 H 0.35998 0.56658 0.77864 0.0
H716 H 0.30365 0.50756 0.8178 0.0
H717 H 0.33844 0.48103 0.81834 0.0
H718 H 0.26323 0.51685 0.79642 0.0
H719 H 0.38051 0.63912 0.8139 0.0
H720 H 0.37927 0.61825 0.79496 0.0
H721 H 0.38012 0.59928 0.81315 0.0
C722 C 0.37509 0.53236 0.78747 0.0
C723 C 0.37001 0.50877 0.79895 0.0
C724 C 0.35487 0.5475 0.78713 0.0
C725 C 0.32968 0.53953 0.79839 0.0
C726 C 0.32293 0.51406 0.80897 0.0
H727 H 0.24077 0.59483 0.86555 0.0
H728 H 0.26123 0.57084 0.84481 0.0
C729 C 0.34285 0.49882 0.80925 0.0
C730 C 0.31304 0.5601 0.80095 0.0
H731 H 0.32876 0.63544 0.81922 0.0
C732 C 0.27752 0.54314 0.80093 0.0
C733 C 0.33178 0.59449 0.80679 0.0
C734 C 0.37001 0.61397 0.80732 0.0
C735 C 0.26043 0.55856 0.80804 0.0
C736 C 0.27937 0.59165 0.8152 0.0
C737 C 0.31452 0.60995 0.8137 0.0
C738 C 0.26427 0.60493 0.82693 0.0
C739 C 0.22243 0.53856 0.80894 0.0
C740 C 0.25956 0.63222 0.82368 0.0
C741 C 0.24729 0.64574 0.83547 0.0
C742 C 0.24018 0.63251 0.85075 0.0
C743 C 0.24527 0.60524 0.85387 0.0
C744 C 0.25703 0.59152 0.84205 0.0
H745 H 0.21101 0.51733 0.79964 0.0
H746 H 0.21564 0.52768 0.82084 0.0
H747 H 0.21135 0.55523 0.80753 0.0
H748 H 0.26537 0.643 0.81208 0.0
H749 H 0.24318 0.66637 0.83256 0.0
H750 H 0.91792 0.30004 0.11327 0.0
H751 H 0.8618 0.24899 0.1109 0.0
H752 H 0.82065 0.3017 0.13854 0.0
H753 H 0.87591 0.35233 0.14069 0.0
H754 H 0.83179 0.21477 0.13512 0.0
H755 H 0.74314 0.24784 0.10826 0.0
H756 H 0.78831 0.27385 0.10624 0.0
H757 H 0.76769 0.28062 0.12324 0.0
C758 C 0.89659 0.3009 0.11842 0.0
C759 C 0.90131 0.33014 0.1272 0.0
C760 C 0.86457 0.2718 0.117 0.0
C761 C 0.83682 0.27155 0.12435 0.0
C762 C 0.84125 0.30144 0.13228 0.0
H763 H 0.71272 0.16217 0.19256 0.0
H764 H 0.75652 0.18663 0.17298 0.0
C765 C 0.87306 0.33048 0.13359 0.0
C766 C 0.80506 0.23925 0.12649 0.0
H767 H 0.72122 0.21066 0.13141 0.0
C768 C 0.80739 0.21328 0.13379 0.0
C769 C 0.77294 0.23637 0.12431 0.0
C770 C 0.76795 0.26108 0.11489 0.0
C771 C 0.77928 0.18704 0.1408 0.0
C772 C 0.7485 0.1875 0.14093 0.0
C773 C 0.74509 0.21081 0.13179 0.0
C774 C 0.72181 0.1682 0.15237 0.0
C775 C 0.7834 0.16014 0.1487 0.0
C776 C 0.68758 0.15009 0.1474 0.0
C777 C 0.66233 0.1369 0.15868 0.0
C778 C 0.6709 0.14161 0.17515 0.0
C779 C 0.70523 0.15847 0.18001 0.0
C780 C 0.73037 0.1719 0.16876 0.0
H781 H 0.80088 0.15421 0.14191 0.0
H782 H 0.79483 0.16981 0.16089 0.0
H783 H 0.75881 0.13638 0.14961 0.0
H784 H 0.68035 0.14724 0.13484 0.0
H785 H 0.63614 0.12444 0.15451 0.0
H786 H 0.12814 0.60598 0.11636 0.0
H787 H 0.13201 0.61565 0.08792 0.0
H788 H 1.04123 0.51921 0.07817 0.0
H789 H 1.03687 0.50923 0.10683 0.0
H790 H 0.13653 0.57382 0.06263 0.0
H791 H 1.023 0.58866 0.05589 0.0
H792 H 1.0425 0.59166 0.07517 0.0
H793 H 1.01711 0.55099 0.06485 0.0
C794 C 0.10889 0.58673 0.10823 0.0
C795 C 0.08213 0.55681 0.11389 0.0
C796 C 0.1112 0.59234 0.09196 0.0
C797 C 0.08677 0.56831 0.08099 0.0
C798 C 1.06008 0.53827 0.0865 0.0
H799 H 0.07783 0.58967 0.97776 0.0
H800 H 1.06518 0.56675 0.00432 0.0
C801 C 1.05773 0.53256 0.10286 0.0
C802 C 0.08995 0.575 0.06379 0.0
H803 H 1.05538 0.59578 0.0331 0.0
C804 C 0.11865 0.57834 0.05612 0.0
C805 C 1.06647 0.5807 0.05535 0.0
C806 C 1.03559 0.57808 0.06319 0.0
C807 C 0.12494 0.588 0.0403 0.0
C808 C 0.10221 0.59509 0.03206 0.0
C809 C 0.07281 0.59048 0.03951 0.0
C810 C 0.10951 0.60902 0.01603 0.0
C811 C 0.15596 0.59073 0.03256 0.0
C812 C 0.13825 0.64066 0.01393 0.0
C813 C 0.14544 0.65391 -0.00117 0.0
C814 C 0.12391 0.63584 0.98555 0.0
C815 C 0.09477 0.60438 0.98777 0.0
C816 C 0.08758 0.59114 0.0029 0.0
H817 H 0.16513 0.57541 0.03857 0.0
H818 H 0.15077 0.58223 0.0197 0.0
H819 H 0.17657 0.61762 0.03349 0.0
H820 H 0.15506 0.65521 0.024 0.0
H821 H 0.16771 0.67849 -0.0024 0.0
H822 H 0.5607 0.9979 0.43988 0.0
H823 H 0.56385 1.00437 0.41094 0.0
H824 H 0.54787 0.08994 0.41728 0.0
H825 H 0.54527 0.08413 0.44607 0.0
H826 H 0.51663 1.00158 0.38948 0.0
H827 H 0.63218 0.12808 0.39082 0.0
H828 H 0.61926 0.10214 0.40789 0.0
H829 H 0.60035 0.12754 0.4035 0.0
C830 C 0.55791 1.01812 0.4351 0.0
C831 C 0.55295 1.04063 0.44529 0.0
C832 C 0.55977 1.0218 0.41859 0.0
C833 C 0.55682 0.04808 0.41202 0.0
C834 C 0.55114 0.07007 0.42214 0.0
H835 H 0.4975 0.06782 0.31781 0.0
H836 H 0.50179 0.05693 0.34577 0.0
C837 C 0.54941 0.06652 0.4386 0.0
C838 C 0.55855 0.05208 0.39456 0.0
H839 H 0.59814 0.11027 0.36654 0.0
C840 C 0.5347 1.02519 0.38443 0.0
C841 C 0.58254 0.08267 0.38796 0.0
C842 C 0.61026 0.11162 0.39809 0.0
C843 C 0.5332 1.02863 0.36793 0.0
C844 C 0.55571 0.06005 0.3615 0.0
C845 C 0.58057 0.08638 0.37153 0.0
C846 C 0.55321 0.06649 0.34452 0.0
C847 C 0.50751 0.99861 0.35756 0.0
C848 C 0.5811 0.07662 0.33469 0.0
C849 C 0.57881 0.08315 0.31872 0.0
C850 C 0.54859 0.07973 0.31235 0.0
C851 C 0.52091 0.07009 0.32231 0.0
C852 C 0.52327 0.06373 0.33827 0.0
H853 H 0.49995 0.9743 0.36318 0.0
H854 H 0.48445 1.00069 0.35593 0.0
H855 H 0.5175 0.99774 0.34559 0.0
H856 H 0.60452 0.07913 0.33933 0.0
H857 H 0.60047 0.09028 0.3113 0.0
H858 H 0.63747 0.53988 0.78112 0.0
H859 H 0.65022 0.55097 0.75312 0.0
H860 H 0.5534 0.54375 0.7447 0.0
H861 H 0.54017 0.53251 0.77293 0.0
H862 H 0.57404 0.50756 0.72082 0.0
H863 H 0.6711 0.64269 0.73394 0.0
H864 H 0.67585 0.61332 0.7458 0.0
H865 H 0.63918 0.61805 0.74793 0.0
C866 C 0.61869 0.54043 0.77337 0.0
C867 C 0.58782 0.53548 0.77931 0.0
C868 C 0.62613 0.54692 0.75736 0.0
C869 C 0.60296 0.54864 0.74695 0.0
C870 C 0.57166 0.54269 0.75263 0.0
H871 H 0.6683 0.6322 0.65343 0.0
H872 H 0.64071 0.61874 0.67917 0.0
C873 C 0.56418 0.5363 0.76873 0.0
C874 C 0.61203 0.55712 0.73021 0.0
H875 H 0.67087 0.61899 0.70791 0.0
C876 C 0.59491 0.53203 0.71792 0.0
C877 C 0.63898 0.58921 0.72651 0.0
C878 C 0.6572 0.61753 0.7392 0.0
C879 C 0.60513 0.53775 0.70203 0.0
C880 C 0.63337 0.5692 0.69848 0.0
C881 C 0.64942 0.59479 0.71069 0.0
C882 C 0.64774 0.5757 0.68236 0.0
C883 C 0.58579 0.51003 0.68922 0.0
C884 C 0.66098 0.55606 0.67568 0.0
C885 C 0.67669 0.56364 0.66098 0.0
C886 C 0.67961 0.59113 0.65271 0.0
C887 C 0.6661 0.61061 0.6594 0.0
C888 C 0.65045 0.60305 0.67413 0.0
H889 H 0.55971 0.4921 0.69289 0.0
H890 H 0.58428 0.52078 0.67782 0.0
H891 H 0.59903 0.49539 0.68704 0.0
H892 H 0.65977 0.53527 0.68199 0.0
H893 H 0.68655 0.54796 0.65608 0.0
H894 H 0.50641 1.02317 0.54918 0.0
H895 H 0.50919 1.02168 0.57834 0.0
H896 H 0.61301 0.04508 0.57632 0.0
H897 H 0.61046 0.04641 0.54716 0.0
H898 H 0.52836 0.97866 0.59661 0.0
H899 H 0.6128 0.11724 0.60982 0.0
H900 H 0.5884 0.10012 0.59127 0.0
H901 H 0.62591 0.09746 0.59455 0.0
C902 C 0.5299 1.0281 0.55491 0.0
C903 C 0.55824 1.035 0.54576 0.0
C904 C 0.53141 1.02717 0.5716 0.0
C905 C 0.56138 1.03357 0.57956 0.0
C906 C 0.58971 1.04045 0.57048 0.0
H907 H 0.62271 0.05051 0.68008 0.0
H908 H 0.62028 0.05139 0.6509 0.0
C909 C 0.58815 1.04106 0.55378 0.0
C910 C 0.56284 1.03248 0.5973 0.0
H911 H 0.5989 0.08207 0.6316 0.0
C912 C 0.54369 1.00126 0.60429 0.0
C913 C 0.58305 0.06192 0.60729 0.0
C914 C 0.6036 0.09621 0.60045 0.0
C915 C 0.5446 0.99857 0.62095 0.0
C916 C 0.56443 1.02814 0.63103 0.0
C917 C 0.58364 0.05937 0.62398 0.0
C918 C 0.56569 1.02729 0.64886 0.0
C919 C 0.52504 0.96384 0.6275 0.0
C920 C 0.53591 1.01388 0.65761 0.0
C921 C 0.53723 1.01312 0.67431 0.0
C922 C 0.56843 1.02632 0.68275 0.0
C923 C 0.59826 1.04031 0.67401 0.0
C924 C 0.59689 1.04076 0.65729 0.0
H925 H 0.5203 0.94347 0.61827 0.0
H926 H 0.53872 0.96138 0.6379 0.0
H927 H 0.50011 0.95965 0.63144 0.0
H928 H 0.51156 1.0043 0.65154 0.0
H929 H 0.5138 1.00276 0.68065 0.0
H930 H 0.6123 0.57355 0.88408 0.0
H931 H 0.61014 0.57214 0.91312 0.0
H932 H 0.51422 0.47906 0.9089 0.0
H933 H 0.51643 0.47994 0.87965 0.0
H934 H 0.56521 0.57397 0.93361 0.0
H935 H 0.56749 0.45404 0.93896 0.0
H936 H 0.57666 0.47577 0.9206 0.0
H937 H 0.53357 0.44996 0.92633 0.0
C938 C 0.59069 0.55264 0.88925 0.0
C939 C 0.56459 0.52674 0.87941 0.0
C940 C 0.5895 0.55192 0.90594 0.0
C941 C 0.56229 0.52526 0.91331 0.0
C942 C 0.53589 0.49955 0.90356 0.0
H943 H 0.52115 0.53509 0.01517 0.0
H944 H 0.51888 0.53292 0.98593 0.0
C945 C 0.53708 0.50021 0.8868 0.0
C946 C 0.56161 0.52496 0.93117 0.0
H947 H 0.5595 0.47901 0.96279 0.0
C948 C 0.56389 0.55314 0.93997 0.0
C949 C 0.5604 0.49806 0.93956 0.0
C950 C 0.55971 0.46787 0.93092 0.0
C951 C 0.56483 0.55513 0.95682 0.0
C952 C 0.56282 0.52789 0.96521 0.0
C953 C 0.56074 0.49978 0.95642 0.0
C954 C 0.56369 0.52847 0.98309 0.0
C955 C 0.56895 0.58689 0.96546 0.0
C956 C 0.58905 0.52572 0.99136 0.0
C957 C 0.59038 0.52687 0.00814 0.0
C958 C 0.56628 0.53068 0.0171 0.0
C959 C 0.54057 0.53285 0.00874 0.0
C960 C 0.53922 0.53161 0.99198 0.0
H961 H 0.57921 0.60863 0.9576 0.0
H962 H 0.54388 0.58223 0.96943 0.0
H963 H 0.58607 0.59411 0.97618 0.0
H964 H 0.60821 0.52321 0.98483 0.0
H965 H 0.61073 0.52542 0.01409 0.0
H966 H 0.08242 0.58476 0.21972 0.0
H967 H 0.079 0.5796 0.24862 0.0
H968 H 1.05564 0.47555 0.24225 0.0
H969 H 1.05902 0.48043 0.21315 0.0
H970 H 1.01247 0.4869 0.26394 0.0
H971 H 0.14878 0.57444 0.27863 0.0
H972 H 0.12933 0.59141 0.26612 0.0
H973 H 0.13317 0.5558 0.25871 0.0
C974 C 0.07664 0.56072 0.22439 0.0
C975 C 0.07112 0.53303 0.214 0.0
C976 C 0.07485 0.55789 0.24098 0.0
C977 C 0.06746 0.52732 0.24767 0.0
C978 C 1.06156 0.49946 0.23738 0.0
H979 H 0.08878 0.5019 0.34925 0.0
H980 H 0.09191 0.50216 0.32013 0.0
C981 C 1.06359 0.50233 0.22073 0.0
C982 C 1.0654 0.5245 0.26538 0.0
H983 H 0.11178 0.55748 0.30044 0.0
C984 C 1.03422 0.5022 0.27191 0.0
C985 C 0.09382 0.54422 0.27582 0.0
C986 C 0.12828 0.56763 0.26951 0.0
C987 C 1.03052 0.49975 0.28858 0.0
C988 C 1.0587 0.52029 0.29904 0.0
C989 C 0.09008 0.54194 0.29248 0.0
C990 C 1.05621 0.51971 0.31682 0.0
C991 C 0.99653 0.47495 0.29486 0.0
C992 C 1.03532 0.5298 0.32478 0.0
C993 C 1.03372 0.53006 0.34151 0.0
C994 C 1.05303 0.52027 0.35075 0.0
C995 C 0.07388 0.51011 0.34268 0.0
C996 C 0.07558 0.51002 0.32596 0.0
H997 H 0.98004 0.45543 0.28548 0.0
H998 H 0.99948 0.46198 0.30514 0.0
H999 H 0.98355 0.4889 0.29905 0.0
H1000 H 1.02063 0.53806 0.31805 0.0
H1001 H 1.01787 0.53869 0.3472 0.0
loop_
_geom_bond_atom_site_label_1
_geom_bond_atom_site_label_2
_geom_bond_distance
_geom_bond_site_symmetry_2
_ccdc_geom_bond_type
Eu0 C9 2.828 . S
Eu0 O11 2.392 1_655 S
Eu0 O13 2.418 . S
Eu0 O18 2.373 . S
Eu0 O21 2.488 . S
Eu0 O22 2.471 . S
Eu0 O23 2.349 . S
Eu1 O10 2.373 . S
Eu1 O14 2.488 . S
Eu1 O15 2.471 . S
Eu1 O16 2.349 . S
Eu1 O19 2.392 1_455 S
Eu1 O20 2.418 . S
Eu1 C30 2.828 . S
C2 O20 1.244 . S
C2 O23 1.265 1_455 S
C3 C4 1.379 . S
C3 C7 1.373 . S
C3 C9 1.505 . S
C4 C3 1.379 . S
C4 C6 1.369 . S
C4 H32 0.930 . S
C5 C7 1.383 . S
C5 C8 1.382 . S
C5 H33 0.930 . S
C6 C4 1.369 . S
C6 C8 1.392 . S
C6 H34 0.930 . S
C7 C3 1.373 . S
C7 C5 1.383 . S
C7 H35 0.931 . S
C8 C5 1.382 . S
C8 C6 1.392 . S
C9 Eu0 2.828 . S
C9 C3 1.505 . S
C9 O21 1.249 . S
C9 O22 1.244 . S
O10 Eu1 2.373 . S
O10 C12 1.258 . S
O11 Eu0 2.392 1_455 S
O11 C12 1.242 . S
C12 O10 1.258 . S
C12 O11 1.242 . S
O13 Eu0 2.418 . S
O13 C17 1.244 1_655 S
O14 Eu1 2.488 . S
O14 C30 1.249 . S
O15 Eu1 2.471 . S
O15 C30 1.244 . S
O16 Eu1 2.349 . S
O16 C17 1.265 . S
C17 O13 1.244 1_455 S
C17 O16 1.265 . S
O18 Eu0 2.373 . S
O18 C31 1.258 . S
O19 Eu1 2.392 1_655 S
O19 C31 1.242 . S
O20 Eu1 2.418 . S
O20 C2 1.244 . S
O21 Eu0 2.488 . S
O21 C9 1.249 . S
O22 Eu0 2.471 . S
O22 C9 1.244 . S
O23 Eu0 2.349 . S
O23 C2 1.265 1_655 S
C24 C25 1.379 . S
C24 C28 1.373 . S
C24 C30 1.505 . S
C25 C24 1.379 . S
C25 C27 1.369 . S
C25 H36 0.930 . S
C26 C28 1.383 . S
C26 C29 1.382 . S
C26 H37 0.930 . S
C27 C25 1.369 . S
C27 C29 1.392 . S
C27 H38 0.930 . S
C28 C24 1.373 . S
C28 C26 1.383 . S
C28 H39 0.931 . S
C29 C26 1.382 . S
C29 C27 1.392 . S
C30 Eu1 2.828 . S
C30 O14 1.249 . S
C30 O15 1.244 . S
C30 C24 1.505 . S
C31 O18 1.258 . S
C31 O19 1.242 . S
H32 C4 0.930 . S
H33 C5 0.930 . S
H34 C6 0.930 . S
H35 C7 0.931 . S
H36 C25 0.930 . S
H37 C26 0.930 . S
H38 C27 0.930 . S
H39 C28 0.931 . S
Eu40 C49 2.828 . S
Eu40 O51 2.392 1_565 S
Eu40 O53 2.418 . S
Eu40 O58 2.373 . S
Eu40 O61 2.488 . S
Eu40 O62 2.471 . S
Eu40 O63 2.349 1_565 S
Eu41 O50 2.373 . S
Eu41 O54 2.488 . S
Eu41 O55 2.471 . S
Eu41 O56 2.349 . S
Eu41 O59 2.392 1_545 S
Eu41 O60 2.418 . S
Eu41 C70 2.828 . S
C42 O60 1.244 . S
C42 O63 1.265 . S
C43 C44 1.379 . S
C43 C47 1.373 . S
C43 C49 1.505 . S
C44 C43 1.379 . S
C44 C46 1.369 . S
C44 H72 0.930 . S
C45 C47 1.383 . S
C45 C48 1.382 . S
C45 H73 0.930 . S
C46 C44 1.369 . S
C46 C48 1.392 . S
C46 H74 0.930 . S
C47 C43 1.373 . S
C47 C45 1.383 . S
C47 H75 0.931 . S
C48 C45 1.382 . S
C48 C46 1.392 . S
C49 Eu40 2.828 . S
C49 C43 1.505 . S
C49 O61 1.249 . S
C49 O62 1.244 . S
O50 Eu41 2.373 . S
O50 C52 1.258 . S
O51 Eu40 2.392 1_545 S
O51 C52 1.242 . S
C52 O50 1.258 . S
C52 O51 1.242 . S
O53 Eu40 2.418 . S
O53 C57 1.244 1_565 S
O54 Eu41 2.488 . S
O54 C70 1.249 . S
O55 Eu41 2.471 . S
O55 C70 1.244 . S
O56 Eu41 2.349 . S
O56 C57 1.265 . S
C57 O53 1.244 1_545 S
C57 O56 1.265 . S
O58 Eu40 2.373 . S
O58 C71 1.258 . S
O59 Eu41 2.392 1_565 S
O59 C71 1.242 . S
O60 Eu41 2.418 . S
O60 C42 1.244 . S
O61 Eu40 2.488 . S
O61 C49 1.249 . S
O62 Eu40 2.471 . S
O62 C49 1.244 . S
O63 Eu40 2.349 1_545 S
O63 C42 1.265 . S
C64 C65 1.379 . S
C64 C68 1.373 . S
C64 C70 1.505 . S
C65 C64 1.379 . S
C65 C67 1.369 . S
C65 H76 0.930 . S
C66 C68 1.383 . S
C66 C69 1.382 . S
C66 H77 0.930 . S
C67 C65 1.369 . S
C67 C69 1.392 . S
C67 H78 0.930 . S
C68 C64 1.373 . S
C68 C66 1.383 . S
C68 H79 0.931 . S
C69 C66 1.382 . S
C69 C67 1.392 . S
C70 Eu41 2.828 . S
C70 O54 1.249 . S
C70 O55 1.244 . S
C70 C64 1.505 . S
C71 O58 1.258 . S
C71 O59 1.242 . S
H72 C44 0.930 . S
H73 C45 0.930 . S
H74 C46 0.930 . S
H75 C47 0.931 . S
H76 C65 0.930 . S
H77 C66 0.930 . S
H78 C67 0.930 . S
H79 C68 0.931 . S
Eu80 C89 2.828 . S
Eu80 O91 2.392 . S
Eu80 O93 2.418 . S
Eu80 O98 2.373 . S
Eu80 O101 2.488 . S
Eu80 O102 2.471 . S
Eu80 O103 2.349 . S
Eu81 O90 2.373 . S
Eu81 O94 2.488 . S
Eu81 O95 2.471 . S
Eu81 O96 2.349 . S
Eu81 O99 2.392 . S
Eu81 O100 2.418 . S
Eu81 C110 2.828 . S
C82 O100 1.244 . S
C82 O103 1.265 . S
C83 C84 1.379 . S
C83 C87 1.373 . S
C83 C89 1.505 . S
C84 C83 1.379 . S
C84 C86 1.369 . S
C84 H112 0.930 . S
C85 C87 1.383 . S
C85 C88 1.382 . S
C85 H113 0.930 . S
C86 C84 1.369 . S
C86 C88 1.392 . S
C86 H114 0.930 . S
C87 C83 1.373 . S
C87 C85 1.383 . S
C87 H115 0.931 . S
C88 C85 1.382 . S
C88 C86 1.392 . S
C89 Eu80 2.828 . S
C89 C83 1.505 . S
C89 O101 1.249 . S
C89 O102 1.244 . S
O90 Eu81 2.373 . S
O90 C92 1.258 . S
O91 Eu80 2.392 . S
O91 C92 1.242 . S
C92 O90 1.258 . S
C92 O91 1.242 . S
O93 Eu80 2.418 . S
O93 C97 1.244 . S
O94 Eu81 2.488 . S
O94 C110 1.249 . S
O95 Eu81 2.471 . S
O95 C110 1.244 . S
O96 Eu81 2.349 . S
O96 C97 1.265 . S
C97 O93 1.244 . S
C97 O96 1.265 . S
O98 Eu80 2.373 . S
O98 C111 1.258 . S
O99 Eu81 2.392 . S
O99 C111 1.242 . S
O100 Eu81 2.418 . S
O100 C82 1.244 . S
O101 Eu80 2.488 . S
O101 C89 1.249 . S
O102 Eu80 2.471 . S
O102 C89 1.244 . S
O103 Eu80 2.349 . S
O103 C82 1.265 . S
C104 C105 1.379 . S
C104 C108 1.373 . S
C104 C110 1.505 . S
C105 C104 1.379 . S
C105 C107 1.369 . S
C105 H116 0.930 . S
C106 C108 1.383 . S
C106 C109 1.382 . S
C106 H117 0.930 . S
C107 C105 1.369 . S
C107 C109 1.392 . S
C107 H118 0.930 . S
C108 C104 1.373 . S
C108 C106 1.383 . S
C108 H119 0.931 . S
C109 C106 1.382 . S
C109 C107 1.392 . S
C110 Eu81 2.828 . S
C110 O94 1.249 . S
C110 O95 1.244 . S
C110 C104 1.505 . S
C111 O98 1.258 . S
C111 O99 1.242 . S
H112 C84 0.930 . S
H113 C85 0.930 . S
H114 C86 0.930 . S
H115 C87 0.931 . S
H116 C105 0.930 . S
H117 C106 0.930 . S
H118 C107 0.930 . S
H119 C108 0.931 . S
C120 C121 1.386 . S
C120 C122 1.397 . S
C120 H144 0.931 . S
C121 C120 1.386 . S
C121 C125 1.387 1_545 S
C122 C120 1.397 . S
C122 C123 1.384 . S
C122 H145 0.930 . S
C123 C122 1.384 . S
C123 C124 1.376 . S
C123 C126 1.481 . S
C124 C123 1.376 . S
C124 C125 1.388 1_545 S
C124 H146 0.930 1_545 S
C125 C121 1.387 1_565 S
C125 C124 1.388 1_565 S
C125 H147 0.942 . S
C126 C123 1.481 . S
C126 C127 1.387 . S
C126 C131 1.390 . S
C127 C126 1.387 . S
C127 C128 1.401 . S
C127 H148 0.930 . S
C128 C127 1.401 . S
C128 C129 1.376 . S
C128 C137 1.511 . S
C129 C128 1.376 . S
C129 C130 1.392 . S
C129 H150 0.931 . S
C130 C129 1.392 . S
C130 C131 1.361 . S
C130 C132 1.500 1_545 S
C131 C126 1.390 . S
C131 C130 1.361 . S
C131 H149 0.931 1_545 S
C132 C130 1.500 1_565 S
C132 C133 1.371 . S
C132 C134 1.365 . S
C133 C132 1.371 . S
C133 C143 1.386 . S
C133 H151 0.931 . S
C134 C132 1.365 . S
C134 C135 1.409 . S
C134 H152 0.929 . S
C135 C134 1.409 . S
C135 C136 1.380 . S
C135 H153 0.930 . S
C136 C135 1.380 . S
C136 C143 1.357 . S
C137 C128 1.511 . S
C137 C138 1.341 . S
C137 C139 1.371 . S
C138 C137 1.341 . S
C138 C142 1.394 . S
C138 H154 0.930 . S
C139 C137 1.371 . S
C139 C140 1.392 . S
C139 H155 0.931 . S
C140 C139 1.392 . S
C140 C141 1.331 . S
C140 H158 0.932 . S
C141 C140 1.331 . S
C141 C142 1.336 . S
C142 C138 1.394 . S
C142 C141 1.336 . S
C142 H157 0.929 . S
C143 C133 1.386 . S
C143 C136 1.357 . S
C143 H156 0.928 . S
H144 C120 0.931 . S
H145 C122 0.930 . S
H146 C124 0.930 1_565 S
H147 C125 0.942 . S
H148 C127 0.930 . S
H149 C131 0.931 1_565 S
H150 C129 0.931 . S
H151 C133 0.931 . S
H152 C134 0.929 . S
H153 C135 0.930 . S
H154 C138 0.930 . S
H155 C139 0.931 . S
H156 C143 0.928 . S
H157 C142 0.929 . S
H158 C140 0.932 . S
C159 C160 1.386 . S
C159 C161 1.397 . S
C159 H183 0.931 . S
C160 C159 1.386 . S
C160 C164 1.397 . S
C161 C159 1.397 . S
C161 C162 1.384 . S
C161 H184 0.930 . S
C162 C161 1.384 . S
C162 C163 1.377 . S
C162 C165 1.481 . S
C163 C162 1.377 . S
C163 C164 1.389 . S
C163 H185 0.929 . S
C164 C160 1.397 . S
C164 C163 1.389 . S
C164 H186 0.931 . S
C165 C162 1.481 . S
C165 C166 1.387 . S
C165 C170 1.390 . S
C166 C165 1.387 . S
C166 C167 1.401 . S
C166 H187 0.930 . S
C167 C166 1.401 . S
C167 C168 1.376 . S
C167 C176 1.511 . S
C168 C167 1.376 . S
C168 C169 1.392 . S
C168 H189 0.931 . S
C169 C168 1.392 . S
C169 C170 1.361 . S
C169 C171 1.500 . S
C170 C165 1.390 . S
C170 C169 1.361 . S
C170 H188 0.931 . S
C171 C169 1.500 . S
C171 C172 1.371 . S
C171 C173 1.365 . S
C172 C171 1.371 . S
C172 C182 1.386 . S
C172 H190 0.931 . S
C173 C171 1.365 . S
C173 C174 1.409 . S
C173 H191 0.929 . S
C174 C173 1.409 . S
C174 C175 1.380 . S
C174 H192 0.930 . S
C175 C174 1.380 . S
C175 C182 1.357 . S
C176 C167 1.511 . S
C176 C177 1.341 . S
C176 C178 1.371 . S
C177 C176 1.341 . S
C177 C181 1.394 . S
C177 H193 0.930 . S
C178 C176 1.371 . S
C178 C179 1.392 . S
C178 H194 0.931 . S
C179 C178 1.392 . S
C179 C180 1.331 . S
C179 H197 0.932 . S
C180 C179 1.331 . S
C180 C181 1.336 . S
C181 C177 1.394 . S
C181 C180 1.336 . S
C181 H196 0.929 . S
C182 C172 1.386 . S
C182 C175 1.357 . S
C182 H195 0.928 . S
H183 C159 0.931 . S
H184 C161 0.930 . S
H185 C163 0.929 . S
H186 C164 0.931 . S
H187 C166 0.930 . S
H188 C170 0.931 . S
H189 C168 0.931 . S
H190 C172 0.931 . S
H191 C173 0.929 . S
H192 C174 0.930 . S
H193 C177 0.930 . S
H194 C178 0.931 . S
H195 C182 0.928 . S
H196 C181 0.929 . S
H197 C179 0.932 . S
C198 C199 1.386 . S
C198 C200 1.397 . S
C198 H222 0.931 . S
C199 C198 1.386 . S
C199 C203 1.397 . S
C200 C198 1.397 . S
C200 C201 1.384 . S
C200 H223 0.930 . S
C201 C200 1.384 . S
C201 C202 1.377 . S
C201 C204 1.481 . S
C202 C201 1.377 . S
C202 C203 1.389 . S
C202 H224 0.929 1_455 S
C203 C199 1.397 . S
C203 C202 1.389 . S
C203 H225 0.931 1_455 S
C204 C201 1.481 . S
C204 C205 1.387 . S
C204 C209 1.390 . S
C205 C204 1.387 . S
C205 C206 1.401 . S
C205 H226 0.930 . S
C206 C205 1.401 . S
C206 C207 1.376 . S
C206 C215 1.511 . S
C207 C206 1.376 . S
C207 C208 1.392 . S
C207 H228 0.931 . S
C208 C207 1.392 . S
C208 C209 1.361 . S
C208 C210 1.500 1_455 S
C209 C204 1.390 . S
C209 C208 1.361 . S
C209 H227 0.931 1_455 S
C210 C208 1.500 1_655 S
C210 C211 1.371 . S
C210 C212 1.365 . S
C211 C210 1.371 . S
C211 C221 1.386 . S
C211 H229 0.931 1_655 S
C212 C210 1.365 . S
C212 C213 1.409 . S
C212 H230 0.929 . S
C213 C212 1.409 . S
C213 C214 1.380 . S
C213 H231 0.930 . S
C214 C213 1.380 . S
C214 C221 1.357 . S
C215 C206 1.511 . S
C215 C216 1.341 . S
C215 C217 1.371 . S
C216 C215 1.341 . S
C216 C220 1.394 . S
C216 H232 0.930 . S
C217 C215 1.371 . S
C217 C218 1.392 . S
C217 H233 0.931 . S
C218 C217 1.392 . S
C218 C219 1.331 . S
C218 H236 0.932 . S
C219 C218 1.331 . S
C219 C220 1.336 . S
C220 C216 1.394 . S
C220 C219 1.336 . S
C220 H235 0.929 . S
C221 C211 1.386 . S
C221 C214 1.357 . S
C221 H234 0.928 . S
H222 C198 0.931 . S
H223 C200 0.930 . S
H224 C202 0.929 1_655 S
H225 C203 0.931 1_655 S
H226 C205 0.930 . S
H227 C209 0.931 1_655 S
H228 C207 0.931 . S
H229 C211 0.931 1_455 S
H230 C212 0.929 . S
H231 C213 0.930 . S
H232 C216 0.930 . S
H233 C217 0.931 . S
H234 C221 0.928 . S
H235 C220 0.929 . S
H236 C218 0.932 . S
C237 C238 1.386 1_655 S
C237 C239 1.397 . S
C237 H261 0.931 . S
C238 C237 1.386 1_455 S
C238 C242 1.397 . S
C239 C237 1.397 . S
C239 C240 1.384 1_655 S
C239 H262 0.930 . S
C240 C239 1.384 1_455 S
C240 C241 1.377 . S
C240 C243 1.481 . S
C241 C240 1.377 . S
C241 C242 1.389 . S
C241 H263 0.929 . S
C242 C238 1.397 . S
C242 C241 1.389 . S
C242 H264 0.931 . S
C243 C240 1.481 . S
C243 C244 1.387 1_455 S
C243 C248 1.390 . S
C244 C243 1.387 1_655 S
C244 C245 1.401 . S
C244 H265 0.930 . S
C245 C244 1.401 . S
C245 C246 1.376 1_655 S
C245 C254 1.511 . S
C246 C245 1.376 1_455 S
C246 C247 1.392 . S
C246 H267 0.931 . S
C247 C246 1.392 . S
C247 C248 1.361 . S
C247 C249 1.500 . S
C248 C243 1.390 . S
C248 C247 1.361 . S
C248 H266 0.931 . S
C249 C247 1.500 . S
C249 C250 1.371 . S
C249 C251 1.365 . S
C250 C249 1.371 . S
C250 C260 1.386 . S
C250 H268 0.931 . S
C251 C249 1.365 . S
C251 C252 1.409 . S
C251 H269 0.929 . S
C252 C251 1.409 . S
C252 C253 1.380 . S
C252 H270 0.930 . S
C253 C252 1.380 . S
C253 C260 1.357 . S
C254 C245 1.511 . S
C254 C255 1.341 . S
C254 C256 1.371 . S
C255 C254 1.341 . S
C255 C259 1.394 . S
C255 H271 0.930 . S
C256 C254 1.371 . S
C256 C257 1.392 . S
C256 H272 0.931 . S
C257 C256 1.392 . S
C257 C258 1.331 . S
C257 H275 0.932 . S
C258 C257 1.331 . S
C258 C259 1.336 . S
C259 C255 1.394 . S
C259 C258 1.336 . S
C259 H274 0.929 . S
C260 C250 1.386 . S
C260 C253 1.357 . S
C260 H273 0.928 . S
H261 C237 0.931 . S
H262 C239 0.930 . S
H263 C241 0.929 . S
H264 C242 0.931 . S
H265 C244 0.930 . S
H266 C248 0.931 . S
H267 C246 0.931 . S
H268 C250 0.931 . S
H269 C251 0.929 . S
H270 C252 0.930 . S
H271 C255 0.930 . S
H272 C256 0.931 . S
H273 C260 0.928 . S
H274 C259 0.929 . S
H275 C257 0.932 . S
C276 C277 1.386 1_565 S
C276 C278 1.397 . S
C276 H300 0.931 . S
C277 C276 1.386 1_545 S
C277 C281 1.397 . S
C278 C276 1.397 . S
C278 C279 1.384 1_565 S
C278 H301 0.930 . S
C279 C278 1.384 1_545 S
C279 C280 1.377 . S
C279 C282 1.481 . S
C280 C279 1.377 . S
C280 C281 1.389 . S
C280 H302 0.929 . S
C281 C277 1.397 . S
C281 C280 1.389 . S
C281 H303 0.931 . S
C282 C279 1.481 . S
C282 C283 1.387 1_545 S
C282 C287 1.390 . S
C283 C282 1.387 1_565 S
C283 C284 1.401 . S
C283 H304 0.930 . S
C284 C283 1.401 . S
C284 C285 1.376 1_565 S
C284 C293 1.511 . S
C285 C284 1.376 1_545 S
C285 C286 1.392 . S
C285 H306 0.931 . S
C286 C285 1.392 . S
C286 C287 1.361 . S
C286 C288 1.500 . S
C287 C282 1.390 . S
C287 C286 1.361 . S
C287 H305 0.931 . S
C288 C286 1.500 . S
C288 C289 1.371 . S
C288 C290 1.365 . S
C289 C288 1.371 . S
C289 C299 1.386 . S
C289 H307 0.931 . S
C290 C288 1.365 . S
C290 C291 1.409 . S
C290 H308 0.929 . S
C291 C290 1.409 . S
C291 C292 1.380 . S
C291 H309 0.930 . S
C292 C291 1.380 . S
C292 C299 1.357 . S
C293 C284 1.511 . S
C293 C294 1.341 . S
C293 C295 1.371 . S
C294 C293 1.341 . S
C294 C298 1.394 . S
C294 H310 0.930 . S
C295 C293 1.371 . S
C295 C296 1.392 . S
C295 H311 0.931 . S
C296 C295 1.392 . S
C296 C297 1.331 . S
C296 H314 0.932 . S
C297 C296 1.331 . S
C297 C298 1.336 . S
C298 C294 1.394 . S
C298 C297 1.336 . S
C298 H313 0.929 . S
C299 C289 1.386 . S
C299 C292 1.357 . S
C299 H312 0.928 . S
H300 C276 0.931 . S
H301 C278 0.930 . S
H302 C280 0.929 . S
H303 C281 0.931 . S
H304 C283 0.930 . S
H305 C287 0.931 . S
H306 C285 0.931 . S
H307 C289 0.931 . S
H308 C290 0.929 . S
H309 C291 0.930 . S
H310 C294 0.930 . S
H311 C295 0.931 . S
H312 C299 0.928 . S
H313 C298 0.929 . S
H314 C296 0.932 . S
C315 C316 1.386 . S
C315 C317 1.397 . S
C315 H339 0.931 . S
C316 C315 1.386 . S
C316 C320 1.397 . S
C317 C315 1.397 . S
C317 C318 1.384 . S
C317 H340 0.930 . S
C318 C317 1.384 . S
C318 C319 1.377 . S
C318 C321 1.481 . S
C319 C318 1.377 . S
C319 C320 1.389 . S
C319 H341 0.929 . S
C320 C316 1.397 . S
C320 C319 1.389 . S
C320 H342 0.931 . S
C321 C318 1.481 . S
C321 C322 1.387 . S
C321 C326 1.390 . S
C322 C321 1.387 . S
C322 C323 1.401 . S
C322 H343 0.930 . S
C323 C322 1.401 . S
C323 C324 1.376 . S
C323 C332 1.511 . S
C324 C323 1.376 . S
C324 C325 1.392 . S
C324 H345 0.931 . S
C325 C324 1.392 . S
C325 C326 1.361 . S
C325 C327 1.500 . S
C326 C321 1.390 . S
C326 C325 1.361 . S
C326 H344 0.931 . S
C327 C325 1.500 . S
C327 C328 1.371 . S
C327 C329 1.365 . S
C328 C327 1.371 . S
C328 C338 1.386 . S
C328 H346 0.931 . S
C329 C327 1.365 . S
C329 C330 1.409 . S
C329 H347 0.929 . S
C330 C329 1.409 . S
C330 C331 1.380 . S
C330 H348 0.930 . S
C331 C330 1.380 . S
C331 C338 1.357 . S
C332 C323 1.511 . S
C332 C333 1.341 . S
C332 C334 1.371 . S
C333 C332 1.341 . S
C333 C337 1.394 . S
C333 H349 0.930 . S
C334 C332 1.371 . S
C334 C335 1.392 . S
C334 H350 0.931 . S
C335 C334 1.392 . S
C335 C336 1.331 . S
C335 H353 0.932 . S
C336 C335 1.331 . S
C336 C337 1.336 . S
C337 C333 1.394 . S
C337 C336 1.336 . S
C337 H352 0.929 . S
C338 C328 1.386 . S
C338 C331 1.357 . S
C338 H351 0.928 . S
H339 C315 0.931 . S
H340 C317 0.930 . S
H341 C319 0.929 . S
H342 C320 0.931 . S
H343 C322 0.930 . S
H344 C326 0.931 . S
H345 C324 0.931 . S
H346 C328 0.931 . S
H347 C329 0.929 . S
H348 C330 0.930 . S
H349 C333 0.930 . S
H350 C334 0.931 . S
H351 C338 0.928 . S
H352 C337 0.929 . S
H353 C335 0.932 . S
H354 C362 0.929 . S
H355 C364 0.930 . S
H356 C366 0.930 . S
H357 C369 0.929 . S
H358 C372 0.930 . S
H359 C374 0.960 . S
H360 C374 0.960 . S
H361 C374 0.960 . S
C362 H354 0.929 . S
C362 C363 1.377 . S
C362 C364 1.384 . S
C363 C362 1.377 . S
C363 C369 1.390 . S
C364 H355 0.930 . S
C364 C362 1.384 . S
C364 C365 1.372 . S
C365 C364 1.372 . S
C365 C366 1.400 . S
C365 C370 1.490 . S
C366 H356 0.930 . S
C366 C365 1.400 . S
C366 C369 1.386 . S
H367 C383 0.930 . S
H368 C384 0.931 . S
C369 H357 0.929 . S
C369 C363 1.390 . S
C369 C366 1.386 . S
C370 C365 1.490 . S
C370 C372 1.395 . S
C370 C373 1.403 . S
H371 C377 0.930 . S
C372 H358 0.930 . S
C372 C370 1.395 . S
C372 C375 1.403 . S
C373 C370 1.403 . S
C373 C374 1.524 . S
C373 C377 1.400 . S
C374 H359 0.960 . S
C374 H360 0.960 . S
C374 H361 0.960 . S
C374 C373 1.524 . S
C375 C372 1.403 . S
C375 C376 1.392 . S
C375 C379 1.495 . S
C376 C375 1.392 . S
C376 C377 1.385 . S
C376 C378 1.478 . S
C377 H371 0.930 . S
C377 C373 1.400 . S
C377 C376 1.385 . S
C378 C376 1.478 . S
C378 C380 1.381 . S
C378 C384 1.383 . S
C379 C375 1.495 . S
C379 H385 0.959 . S
C379 H386 0.961 . S
C379 H387 0.960 . S
C380 C378 1.381 . S
C380 C381 1.394 . S
C380 H388 0.930 . S
C381 C380 1.394 . S
C381 C382 1.383 . S
C381 H389 0.929 . S
C382 C381 1.383 . S
C382 C383 1.377 . S
C383 H367 0.930 . S
C383 C382 1.377 . S
C383 C384 1.379 . S
C384 H368 0.931 . S
C384 C378 1.383 . S
C384 C383 1.379 . S
H385 C379 0.959 . S
H386 C379 0.961 . S
H387 C379 0.960 . S
H388 C380 0.930 . S
H389 C381 0.929 . S
H390 C398 0.929 . S
H391 C400 0.930 . S
H392 C402 0.930 . S
H393 C405 0.929 . S
H394 C408 0.930 . S
H395 C410 0.960 . S
H396 C410 0.960 . S
H397 C410 0.960 . S
C398 H390 0.929 . S
C398 C399 1.377 . S
C398 C400 1.384 . S
C399 C398 1.377 . S
C399 C405 1.390 . S
C400 H391 0.930 . S
C400 C398 1.384 . S
C400 C401 1.372 . S
C401 C400 1.372 . S
C401 C402 1.400 . S
C401 C406 1.490 . S
C402 H392 0.930 . S
C402 C401 1.400 . S
C402 C405 1.386 . S
H403 C419 0.930 . S
H404 C420 0.931 . S
C405 H393 0.929 . S
C405 C399 1.390 . S
C405 C402 1.386 . S
C406 C401 1.490 . S
C406 C408 1.395 . S
C406 C409 1.403 . S
H407 C413 0.930 . S
C408 H394 0.930 . S
C408 C406 1.395 . S
C408 C411 1.403 . S
C409 C406 1.403 . S
C409 C410 1.524 . S
C409 C413 1.400 . S
C410 H395 0.960 . S
C410 H396 0.960 . S
C410 H397 0.960 . S
C410 C409 1.524 . S
C411 C408 1.403 . S
C411 C412 1.392 . S
C411 C415 1.495 . S
C412 C411 1.392 . S
C412 C413 1.385 . S
C412 C414 1.478 . S
C413 H407 0.930 . S
C413 C409 1.400 . S
C413 C412 1.385 . S
C414 C412 1.478 . S
C414 C416 1.381 . S
C414 C420 1.383 . S
C415 C411 1.495 . S
C415 H421 0.959 . S
C415 H422 0.961 . S
C415 H423 0.960 . S
C416 C414 1.381 . S
C416 C417 1.394 . S
C416 H424 0.930 . S
C417 C416 1.394 . S
C417 C418 1.383 . S
C417 H425 0.929 . S
C418 C417 1.383 . S
C418 C419 1.377 . S
C419 H403 0.930 . S
C419 C418 1.377 . S
C419 C420 1.379 . S
C420 H404 0.931 . S
C420 C414 1.383 . S
C420 C419 1.379 . S
H421 C415 0.959 . S
H422 C415 0.961 . S
H423 C415 0.960 . S
H424 C416 0.930 . S
H425 C417 0.929 . S
H426 C434 0.929 . S
H427 C436 0.930 . S
H428 C438 0.930 . S
H429 C441 0.929 . S
H430 C444 0.930 . S
H431 C446 0.960 . S
H432 C446 0.960 . S
H433 C446 0.960 . S
C434 H426 0.929 . S
C434 C435 1.377 . S
C434 C436 1.384 . S
C435 C434 1.377 . S
C435 C441 1.390 . S
C436 H427 0.930 . S
C436 C434 1.384 . S
C436 C437 1.372 . S
C437 C436 1.372 . S
C437 C438 1.400 . S
C437 C442 1.490 . S
C438 H428 0.930 . S
C438 C437 1.400 . S
C438 C441 1.386 . S
H439 C455 0.930 . S
H440 C456 0.931 . S
C441 H429 0.929 . S
C441 C435 1.390 . S
C441 C438 1.386 . S
C442 C437 1.490 . S
C442 C444 1.395 . S
C442 C445 1.403 . S
H443 C449 0.930 . S
C444 H430 0.930 . S
C444 C442 1.395 . S
C444 C447 1.403 . S
C445 C442 1.403 . S
C445 C446 1.524 . S
C445 C449 1.400 . S
C446 H431 0.960 . S
C446 H432 0.960 . S
C446 H433 0.960 . S
C446 C445 1.524 . S
C447 C444 1.403 . S
C447 C448 1.392 . S
C447 C451 1.495 . S
C448 C447 1.392 . S
C448 C449 1.385 . S
C448 C450 1.478 . S
C449 H443 0.930 . S
C449 C445 1.400 . S
C449 C448 1.385 . S
C450 C448 1.478 . S
C450 C452 1.381 . S
C450 C456 1.383 . S
C451 C447 1.495 . S
C451 H457 0.959 . S
C451 H458 0.961 . S
C451 H459 0.960 . S
C452 C450 1.381 . S
C452 C453 1.394 . S
C452 H460 0.930 . S
C453 C452 1.394 . S
C453 C454 1.383 . S
C453 H461 0.929 . S
C454 C453 1.383 . S
C454 C455 1.377 . S
C455 H439 0.930 . S
C455 C454 1.377 . S
C455 C456 1.379 . S
C456 H440 0.931 . S
C456 C450 1.383 . S
C456 C455 1.379 . S
H457 C451 0.959 . S
H458 C451 0.961 . S
H459 C451 0.960 . S
H460 C452 0.930 . S
H461 C453 0.929 . S
H462 C470 0.929 . S
H463 C472 0.930 . S
H464 C474 0.930 . S
H465 C477 0.929 . S
H466 C480 0.930 . S
H467 C482 0.960 . S
H468 C482 0.960 . S
H469 C482 0.960 . S
C470 H462 0.929 . S
C470 C471 1.377 . S
C470 C472 1.384 . S
C471 C470 1.377 . S
C471 C477 1.390 . S
C472 H463 0.930 . S
C472 C470 1.384 . S
C472 C473 1.372 . S
C473 C472 1.372 . S
C473 C474 1.400 . S
C473 C478 1.490 . S
C474 H464 0.930 . S
C474 C473 1.400 . S
C474 C477 1.386 . S
H475 C491 0.930 . S
H476 C492 0.931 . S
C477 H465 0.929 . S
C477 C471 1.390 . S
C477 C474 1.386 . S
C478 C473 1.490 . S
C478 C480 1.395 . S
C478 C481 1.403 . S
H479 C485 0.930 . S
C480 H466 0.930 . S
C480 C478 1.395 . S
C480 C483 1.403 . S
C481 C478 1.403 . S
C481 C482 1.524 . S
C481 C485 1.400 . S
C482 H467 0.960 . S
C482 H468 0.960 . S
C482 H469 0.960 . S
C482 C481 1.524 . S
C483 C480 1.403 . S
C483 C484 1.392 . S
C483 C487 1.495 . S
C484 C483 1.392 . S
C484 C485 1.385 . S
C484 C486 1.478 . S
C485 H479 0.930 . S
C485 C481 1.400 . S
C485 C484 1.385 . S
C486 C484 1.478 . S
C486 C488 1.381 . S
C486 C492 1.383 . S
C487 C483 1.495 . S
C487 H493 0.959 . S
C487 H494 0.961 . S
C487 H495 0.960 . S
C488 C486 1.381 . S
C488 C489 1.394 . S
C488 H496 0.930 . S
C489 C488 1.394 . S
C489 C490 1.383 . S
C489 H497 0.929 . S
C490 C489 1.383 . S
C490 C491 1.377 . S
C491 H475 0.930 . S
C491 C490 1.377 . S
C491 C492 1.379 . S
C492 H476 0.931 . S
C492 C486 1.383 . S
C492 C491 1.379 . S
H493 C487 0.959 . S
H494 C487 0.961 . S
H495 C487 0.960 . S
H496 C488 0.930 . S
H497 C489 0.929 . S
H498 C506 0.929 . S
H499 C508 0.930 . S
H500 C510 0.930 . S
H501 C513 0.929 . S
H502 C516 0.930 . S
H503 C518 0.960 . S
H504 C518 0.960 . S
H505 C518 0.960 . S
C506 H498 0.929 . S
C506 C507 1.377 . S
C506 C508 1.384 . S
C507 C506 1.377 . S
C507 C513 1.390 . S
C508 H499 0.930 . S
C508 C506 1.384 . S
C508 C509 1.372 . S
C509 C508 1.372 . S
C509 C510 1.400 . S
C509 C514 1.490 . S
C510 H500 0.930 . S
C510 C509 1.400 . S
C510 C513 1.386 . S
H511 C527 0.930 . S
H512 C528 0.931 . S
C513 H501 0.929 . S
C513 C507 1.390 . S
C513 C510 1.386 . S
C514 C509 1.490 . S
C514 C516 1.395 . S
C514 C517 1.403 . S
H515 C521 0.930 . S
C516 H502 0.930 . S
C516 C514 1.395 . S
C516 C519 1.403 . S
C517 C514 1.403 . S
C517 C518 1.524 . S
C517 C521 1.400 . S
C518 H503 0.960 . S
C518 H504 0.960 . S
C518 H505 0.960 . S
C518 C517 1.524 . S
C519 C516 1.403 . S
C519 C520 1.392 . S
C519 C523 1.495 . S
C520 C519 1.392 . S
C520 C521 1.385 . S
C520 C522 1.478 . S
C521 H515 0.930 . S
C521 C517 1.400 . S
C521 C520 1.385 . S
C522 C520 1.478 . S
C522 C524 1.381 . S
C522 C528 1.383 . S
C523 C519 1.495 . S
C523 H529 0.959 . S
C523 H530 0.961 . S
C523 H531 0.960 . S
C524 C522 1.381 . S
C524 C525 1.394 . S
C524 H532 0.930 . S
C525 C524 1.394 . S
C525 C526 1.383 . S
C525 H533 0.929 . S
C526 C525 1.383 . S
C526 C527 1.377 . S
C527 H511 0.930 . S
C527 C526 1.377 . S
C527 C528 1.379 . S
C528 H512 0.931 . S
C528 C522 1.383 . S
C528 C527 1.379 . S
H529 C523 0.959 . S
H530 C523 0.961 . S
H531 C523 0.960 . S
H532 C524 0.930 . S
H533 C525 0.929 . S
H534 C542 0.929 . S
H535 C544 0.930 . S
H536 C546 0.930 . S
H537 C549 0.929 . S
H538 C552 0.930 . S
H539 C554 0.960 . S
H540 C554 0.960 . S
H541 C554 0.960 . S
C542 H534 0.929 . S
C542 C543 1.377 . S
C542 C544 1.384 . S
C543 C542 1.377 . S
C543 C549 1.390 . S
C544 H535 0.930 . S
C544 C542 1.384 . S
C544 C545 1.372 . S
C545 C544 1.372 . S
C545 C546 1.400 . S
C545 C550 1.490 . S
C546 H536 0.930 . S
C546 C545 1.400 . S
C546 C549 1.386 . S
H547 C563 0.930 . S
H548 C564 0.931 . S
C549 H537 0.929 . S
C549 C543 1.390 . S
C549 C546 1.386 . S
C550 C545 1.490 . S
C550 C552 1.395 . S
C550 C553 1.403 . S
H551 C557 0.930 . S
C552 H538 0.930 . S
C552 C550 1.395 . S
C552 C555 1.403 . S
C553 C550 1.403 . S
C553 C554 1.524 . S
C553 C557 1.400 . S
C554 H539 0.960 . S
C554 H540 0.960 . S
C554 H541 0.960 . S
C554 C553 1.524 . S
C555 C552 1.403 . S
C555 C556 1.392 . S
C555 C559 1.495 . S
C556 C555 1.392 . S
C556 C557 1.385 . S
C556 C558 1.478 . S
C557 H551 0.930 . S
C557 C553 1.400 . S
C557 C556 1.385 . S
C558 C556 1.478 . S
C558 C560 1.381 . S
C558 C564 1.383 . S
C559 C555 1.495 . S
C559 H565 0.959 . S
C559 H566 0.961 . S
C559 H567 0.960 . S
C560 C558 1.381 . S
C560 C561 1.394 . S
C560 H568 0.930 . S
C561 C560 1.394 . S
C561 C562 1.383 . S
C561 H569 0.929 . S
C562 C561 1.383 . S
C562 C563 1.377 . S
C563 H547 0.930 . S
C563 C562 1.377 . S
C563 C564 1.379 . S
C564 H548 0.931 . S
C564 C558 1.383 . S
C564 C563 1.379 . S
H565 C559 0.959 . S
H566 C559 0.961 . S
H567 C559 0.960 . S
H568 C560 0.930 . S
H569 C561 0.929 . S
H570 C578 0.929 . S
H571 C580 0.930 . S
H572 C582 0.930 . S
H573 C585 0.929 . S
H574 C588 0.930 . S
H575 C590 0.960 . S
H576 C590 0.960 . S
H577 C590 0.960 . S
C578 H570 0.929 . S
C578 C579 1.377 . S
C578 C580 1.384 . S
C579 C578 1.377 . S
C579 C585 1.390 . S
C580 H571 0.930 . S
C580 C578 1.384 . S
C580 C581 1.372 . S
C581 C580 1.372 . S
C581 C582 1.400 . S
C581 C586 1.490 . S
C582 H572 0.930 . S
C582 C581 1.400 . S
C582 C585 1.386 . S
H583 C599 0.930 . S
H584 C600 0.931 . S
C585 H573 0.929 . S
C585 C579 1.390 . S
C585 C582 1.386 . S
C586 C581 1.490 . S
C586 C588 1.395 . S
C586 C589 1.403 . S
H587 C593 0.930 . S
C588 H574 0.930 . S
C588 C586 1.395 . S
C588 C591 1.403 . S
C589 C586 1.403 . S
C589 C590 1.524 . S
C589 C593 1.400 . S
C590 H575 0.960 . S
C590 H576 0.960 . S
C590 H577 0.960 . S
C590 C589 1.524 . S
C591 C588 1.403 . S
C591 C592 1.392 . S
C591 C595 1.495 . S
C592 C591 1.392 . S
C592 C593 1.385 . S
C592 C594 1.478 . S
C593 H587 0.930 . S
C593 C589 1.400 . S
C593 C592 1.385 . S
C594 C592 1.478 . S
C594 C596 1.381 . S
C594 C600 1.383 . S
C595 C591 1.495 . S
C595 H601 0.959 . S
C595 H602 0.961 . S
C595 H603 0.960 . S
C596 C594 1.381 . S
C596 C597 1.394 . S
C596 H604 0.930 . S
C597 C596 1.394 . S
C597 C598 1.383 . S
C597 H605 0.929 . S
C598 C597 1.383 . S
C598 C599 1.377 . S
C599 H583 0.930 . S
C599 C598 1.377 . S
C599 C600 1.379 . S
C600 H584 0.931 . S
C600 C594 1.383 . S
C600 C599 1.379 . S
H601 C595 0.959 . S
H602 C595 0.961 . S
H603 C595 0.960 . S
H604 C596 0.930 . S
H605 C597 0.929 . S
H606 C614 0.929 . S
H607 C616 0.930 . S
H608 C618 0.930 . S
H609 C621 0.929 . S
H610 C624 0.930 . S
H611 C626 0.960 . S
H612 C626 0.960 . S
H613 C626 0.960 . S
C614 H606 0.929 . S
C614 C615 1.377 . S
C614 C616 1.384 . S
C615 C614 1.377 . S
C615 C621 1.390 . S
C616 H607 0.930 . S
C616 C614 1.384 . S
C616 C617 1.372 . S
C617 C616 1.372 . S
C617 C618 1.400 . S
C617 C622 1.490 . S
C618 H608 0.930 . S
C618 C617 1.400 . S
C618 C621 1.386 . S
H619 C635 0.930 . S
H620 C636 0.931 . S
C621 H609 0.929 . S
C621 C615 1.390 . S
C621 C618 1.386 . S
C622 C617 1.490 . S
C622 C624 1.395 . S
C622 C625 1.403 . S
H623 C629 0.930 . S
C624 H610 0.930 . S
C624 C622 1.395 . S
C624 C627 1.403 . S
C625 C622 1.403 . S
C625 C626 1.524 . S
C625 C629 1.400 . S
C626 H611 0.960 . S
C626 H612 0.960 . S
C626 H613 0.960 . S
C626 C625 1.524 . S
C627 C624 1.403 . S
C627 C628 1.392 . S
C627 C631 1.495 . S
C628 C627 1.392 . S
C628 C629 1.385 . S
C628 C630 1.478 . S
C629 H623 0.930 . S
C629 C625 1.400 . S
C629 C628 1.385 . S
C630 C628 1.478 . S
C630 C632 1.381 . S
C630 C636 1.383 . S
C631 C627 1.495 . S
C631 H637 0.959 . S
C631 H638 0.961 . S
C631 H639 0.960 . S
C632 C630 1.381 . S
C632 C633 1.394 . S
C632 H640 0.930 . S
C633 C632 1.394 . S
C633 C634 1.383 . S
C633 H641 0.929 . S
C634 C633 1.383 . S
C634 C635 1.377 . S
C635 H619 0.930 . S
C635 C634 1.377 . S
C635 C636 1.379 . S
C636 H620 0.931 . S
C636 C630 1.383 . S
C636 C635 1.379 . S
H637 C631 0.959 . S
H638 C631 0.961 . S
H639 C631 0.960 . S
H640 C632 0.930 . S
H641 C633 0.929 . S
H642 C650 0.929 . S
H643 C652 0.930 . S
H644 C654 0.930 . S
H645 C657 0.929 . S
H646 C660 0.930 . S
H647 C662 0.960 . S
H648 C662 0.960 . S
H649 C662 0.960 . S
C650 H642 0.929 . S
C650 C651 1.377 . S
C650 C652 1.384 . S
C651 C650 1.377 . S
C651 C657 1.390 . S
C652 H643 0.930 . S
C652 C650 1.384 . S
C652 C653 1.372 . S
C653 C652 1.372 . S
C653 C654 1.400 . S
C653 C658 1.490 . S
C654 H644 0.930 . S
C654 C653 1.400 . S
C654 C657 1.386 . S
H655 C671 0.930 . S
H656 C672 0.931 . S
C657 H645 0.929 . S
C657 C651 1.390 . S
C657 C654 1.386 . S
C658 C653 1.490 . S
C658 C660 1.395 . S
C658 C661 1.403 . S
H659 C665 0.930 . S
C660 H646 0.930 . S
C660 C658 1.395 . S
C660 C663 1.403 . S
C661 C658 1.403 . S
C661 C662 1.524 . S
C661 C665 1.400 . S
C662 H647 0.960 . S
C662 H648 0.960 . S
C662 H649 0.960 . S
C662 C661 1.524 . S
C663 C660 1.403 . S
C663 C664 1.392 . S
C663 C667 1.495 . S
C664 C663 1.392 . S
C664 C665 1.385 . S
C664 C666 1.478 . S
C665 H659 0.930 . S
C665 C661 1.400 . S
C665 C664 1.385 . S
C666 C664 1.478 . S
C666 C668 1.381 . S
C666 C672 1.383 . S
C667 C663 1.495 . S
C667 H673 0.959 . S
C667 H674 0.961 . S
C667 H675 0.960 . S
C668 C666 1.381 . S
C668 C669 1.394 . S
C668 H676 0.930 . S
C669 C668 1.394 . S
C669 C670 1.383 . S
C669 H677 0.929 . S
C670 C669 1.383 . S
C670 C671 1.377 . S
C671 H655 0.930 . S
C671 C670 1.377 . S
C671 C672 1.379 . S
C672 H656 0.931 . S
C672 C666 1.383 . S
C672 C671 1.379 . S
H673 C667 0.959 . S
H674 C667 0.961 . S
H675 C667 0.960 . S
H676 C668 0.930 . S
H677 C669 0.929 . S
H678 C686 0.929 . S
H679 C688 0.930 . S
H680 C690 0.930 . S
H681 C693 0.929 . S
H682 C696 0.930 . S
H683 C698 0.960 . S
H684 C698 0.960 . S
H685 C698 0.960 . S
C686 H678 0.929 . S
C686 C687 1.377 . S
C686 C688 1.384 . S
C687 C686 1.377 . S
C687 C693 1.390 . S
C688 H679 0.930 . S
C688 C686 1.384 . S
C688 C689 1.372 . S
C689 C688 1.372 . S
C689 C690 1.400 . S
C689 C694 1.490 . S
C690 H680 0.930 . S
C690 C689 1.400 . S
C690 C693 1.386 . S
H691 C707 0.930 . S
H692 C708 0.931 . S
C693 H681 0.929 . S
C693 C687 1.390 . S
C693 C690 1.386 . S
C694 C689 1.490 . S
C694 C696 1.395 . S
C694 C697 1.403 . S
H695 C701 0.930 . S
C696 H682 0.930 . S
C696 C694 1.395 . S
C696 C699 1.403 . S
C697 C694 1.403 . S
C697 C698 1.524 . S
C697 C701 1.400 . S
C698 H683 0.960 . S
C698 H684 0.960 . S
C698 H685 0.960 . S
C698 C697 1.524 . S
C699 C696 1.403 . S
C699 C700 1.392 . S
C699 C703 1.495 . S
C700 C699 1.392 . S
C700 C701 1.385 . S
C700 C702 1.478 . S
C701 H695 0.930 . S
C701 C697 1.400 . S
C701 C700 1.385 . S
C702 C700 1.478 . S
C702 C704 1.381 . S
C702 C708 1.383 . S
C703 C699 1.495 . S
C703 H709 0.959 . S
C703 H710 0.961 . S
C703 H711 0.960 . S
C704 C702 1.381 . S
C704 C705 1.394 . S
C704 H712 0.930 . S
C705 C704 1.394 . S
C705 C706 1.383 . S
C705 H713 0.929 . S
C706 C705 1.383 . S
C706 C707 1.377 . S
C707 H691 0.930 . S
C707 C706 1.377 . S
C707 C708 1.379 . S
C708 H692 0.931 . S
C708 C702 1.383 . S
C708 C707 1.379 . S
H709 C703 0.959 . S
H710 C703 0.961 . S
H711 C703 0.960 . S
H712 C704 0.930 . S
H713 C705 0.929 . S
H714 C722 0.929 . S
H715 C724 0.930 . S
H716 C726 0.930 . S
H717 C729 0.929 . S
H718 C732 0.930 . S
H719 C734 0.960 . S
H720 C734 0.960 . S
H721 C734 0.960 . S
C722 H714 0.929 . S
C722 C723 1.377 . S
C722 C724 1.384 . S
C723 C722 1.377 . S
C723 C729 1.390 . S
C724 H715 0.930 . S
C724 C722 1.384 . S
C724 C725 1.372 . S
C725 C724 1.372 . S
C725 C726 1.400 . S
C725 C730 1.490 . S
C726 H716 0.930 . S
C726 C725 1.400 . S
C726 C729 1.386 . S
H727 C743 0.930 . S
H728 C744 0.931 . S
C729 H717 0.929 . S
C729 C723 1.390 . S
C729 C726 1.386 . S
C730 C725 1.490 . S
C730 C732 1.395 . S
C730 C733 1.403 . S
H731 C737 0.930 . S
C732 H718 0.930 . S
C732 C730 1.395 . S
C732 C735 1.403 . S
C733 C730 1.403 . S
C733 C734 1.524 . S
C733 C737 1.400 . S
C734 H719 0.960 . S
C734 H720 0.960 . S
C734 H721 0.960 . S
C734 C733 1.524 . S
C735 C732 1.403 . S
C735 C736 1.392 . S
C735 C739 1.495 . S
C736 C735 1.392 . S
C736 C737 1.385 . S
C736 C738 1.478 . S
C737 H731 0.930 . S
C737 C733 1.400 . S
C737 C736 1.385 . S
C738 C736 1.478 . S
C738 C740 1.381 . S
C738 C744 1.383 . S
C739 C735 1.495 . S
C739 H745 0.959 . S
C739 H746 0.961 . S
C739 H747 0.960 . S
C740 C738 1.381 . S
C740 C741 1.394 . S
C740 H748 0.930 . S
C741 C740 1.394 . S
C741 C742 1.383 . S
C741 H749 0.929 . S
C742 C741 1.383 . S
C742 C743 1.377 . S
C743 H727 0.930 . S
C743 C742 1.377 . S
C743 C744 1.379 . S
C744 H728 0.931 . S
C744 C738 1.383 . S
C744 C743 1.379 . S
H745 C739 0.959 . S
H746 C739 0.961 . S
H747 C739 0.960 . S
H748 C740 0.930 . S
H749 C741 0.929 . S
H750 C758 0.929 . S
H751 C760 0.930 . S
H752 C762 0.930 . S
H753 C765 0.929 . S
H754 C768 0.930 . S
H755 C770 0.960 . S
H756 C770 0.960 . S
H757 C770 0.960 . S
C758 H750 0.929 . S
C758 C759 1.377 . S
C758 C760 1.384 . S
C759 C758 1.377 . S
C759 C765 1.390 . S
C760 H751 0.930 . S
C760 C758 1.384 . S
C760 C761 1.372 . S
C761 C760 1.372 . S
C761 C762 1.400 . S
C761 C766 1.490 . S
C762 H752 0.930 . S
C762 C761 1.400 . S
C762 C765 1.386 . S
H763 C779 0.930 . S
H764 C780 0.931 . S
C765 H753 0.929 . S
C765 C759 1.390 . S
C765 C762 1.386 . S
C766 C761 1.490 . S
C766 C768 1.395 . S
C766 C769 1.403 . S
H767 C773 0.930 . S
C768 H754 0.930 . S
C768 C766 1.395 . S
C768 C771 1.403 . S
C769 C766 1.403 . S
C769 C770 1.524 . S
C769 C773 1.400 . S
C770 H755 0.960 . S
C770 H756 0.960 . S
C770 H757 0.960 . S
C770 C769 1.524 . S
C771 C768 1.403 . S
C771 C772 1.392 . S
C771 C775 1.495 . S
C772 C771 1.392 . S
C772 C773 1.385 . S
C772 C774 1.478 . S
C773 H767 0.930 . S
C773 C769 1.400 . S
C773 C772 1.385 . S
C774 C772 1.478 . S
C774 C776 1.381 . S
C774 C780 1.383 . S
C775 C771 1.495 . S
C775 H781 0.959 . S
C775 H782 0.961 . S
C775 H783 0.960 . S
C776 C774 1.381 . S
C776 C777 1.394 . S
C776 H784 0.930 . S
C777 C776 1.394 . S
C777 C778 1.383 . S
C777 H785 0.929 . S
C778 C777 1.383 . S
C778 C779 1.377 . S
C779 H763 0.930 . S
C779 C778 1.377 . S
C779 C780 1.379 . S
C780 H764 0.931 . S
C780 C774 1.383 . S
C780 C779 1.379 . S
H781 C775 0.959 . S
H782 C775 0.961 . S
H783 C775 0.960 . S
H784 C776 0.930 . S
H785 C777 0.929 . S
H786 C794 0.929 . S
H787 C796 0.930 . S
H788 C798 0.930 . S
H789 C801 0.929 . S
H790 C804 0.930 . S
H791 C806 0.960 . S
H792 C806 0.960 . S
H793 C806 0.960 . S
C794 H786 0.929 . S
C794 C795 1.377 . S
C794 C796 1.384 . S
C795 C794 1.377 . S
C795 C801 1.390 1_455 S
C796 H787 0.930 . S
C796 C794 1.384 . S
C796 C797 1.372 . S
C797 C796 1.372 . S
C797 C798 1.400 1_455 S
C797 C802 1.490 . S
C798 H788 0.930 . S
C798 C797 1.400 1_655 S
C798 C801 1.386 . S
H799 C815 0.930 1_655 S
H800 C816 0.931 1_655 S
C801 H789 0.929 . S
C801 C795 1.390 1_655 S
C801 C798 1.386 . S
C802 C797 1.490 . S
C802 C804 1.395 . S
C802 C805 1.403 1_455 S
H803 C809 0.930 1_655 S
C804 H790 0.930 . S
C804 C802 1.395 . S
C804 C807 1.403 . S
C805 C802 1.403 1_655 S
C805 C806 1.524 . S
C805 C809 1.400 1_655 S
C806 H791 0.960 . S
C806 H792 0.960 . S
C806 H793 0.960 . S
C806 C805 1.524 . S
C807 C804 1.403 . S
C807 C808 1.392 . S
C807 C811 1.495 . S
C808 C807 1.392 . S
C808 C809 1.385 . S
C808 C810 1.478 . S
C809 H803 0.930 1_455 S
C809 C805 1.400 1_455 S
C809 C808 1.385 . S
C810 C808 1.478 . S
C810 C812 1.381 . S
C810 C816 1.383 . S
C811 C807 1.495 . S
C811 H817 0.959 . S
C811 H818 0.961 . S
C811 H819 0.960 . S
C812 C810 1.381 . S
C812 C813 1.394 1_554 S
C812 H820 0.930 . S
C813 C812 1.394 1_556 S
C813 C814 1.383 . S
C813 H821 0.929 . S
C814 C813 1.383 . S
C814 C815 1.377 . S
C815 H799 0.930 1_455 S
C815 C814 1.377 . S
C815 C816 1.379 1_556 S
C816 H800 0.931 1_455 S
C816 C810 1.383 . S
C816 C815 1.379 1_554 S
H817 C811 0.959 . S
H818 C811 0.961 . S
H819 C811 0.960 . S
H820 C812 0.930 . S
H821 C813 0.929 . S
H822 C830 0.929 . S
H823 C832 0.930 . S
H824 C834 0.930 . S
H825 C837 0.929 . S
H826 C840 0.930 . S
H827 C842 0.960 1_565 S
H828 C842 0.960 . S
H829 C842 0.960 1_565 S
C830 H822 0.929 . S
C830 C831 1.377 . S
C830 C832 1.384 . S
C831 C830 1.377 . S
C831 C837 1.390 1_545 S
C832 H823 0.930 . S
C832 C830 1.384 . S
C832 C833 1.372 . S
C833 C832 1.372 . S
C833 C834 1.400 1_545 S
C833 C838 1.490 . S
C834 H824 0.930 . S
C834 C833 1.400 1_565 S
C834 C837 1.386 . S
H835 C851 0.930 . S
H836 C852 0.931 . S
C837 H825 0.929 . S
C837 C831 1.390 1_565 S
C837 C834 1.386 . S
C838 C833 1.490 . S
C838 C840 1.395 . S
C838 C841 1.403 . S
H839 C845 0.930 . S
C840 H826 0.930 . S
C840 C838 1.395 . S
C840 C843 1.403 . S
C841 C838 1.403 . S
C841 C842 1.524 . S
C841 C845 1.400 . S
C842 H827 0.960 1_545 S
C842 H828 0.960 . S
C842 H829 0.960 1_545 S
C842 C841 1.524 . S
C843 C840 1.403 . S
C843 C844 1.392 . S
C843 C847 1.495 . S
C844 C843 1.392 . S
C844 C845 1.385 . S
C844 C846 1.478 . S
C845 H839 0.930 . S
C845 C841 1.400 . S
C845 C844 1.385 . S
C846 C844 1.478 . S
C846 C848 1.381 . S
C846 C852 1.383 1_545 S
C847 C843 1.495 . S
C847 H853 0.959 . S
C847 H854 0.961 . S
C847 H855 0.960 . S
C848 C846 1.381 . S
C848 C849 1.394 . S
C848 H856 0.930 . S
C849 C848 1.394 . S
C849 C850 1.383 . S
C849 H857 0.929 . S
C850 C849 1.383 . S
C850 C851 1.377 1_545 S
C851 H835 0.930 . S
C851 C850 1.377 1_565 S
C851 C852 1.379 . S
C852 H836 0.931 . S
C852 C846 1.383 1_565 S
C852 C851 1.379 . S
H853 C847 0.959 . S
H854 C847 0.961 . S
H855 C847 0.960 . S
H856 C848 0.930 . S
H857 C849 0.929 . S
H858 C866 0.929 . S
H859 C868 0.930 . S
H860 C870 0.930 . S
H861 C873 0.929 . S
H862 C876 0.930 . S
H863 C878 0.960 . S
H864 C878 0.960 . S
H865 C878 0.960 . S
C866 H858 0.929 . S
C866 C867 1.377 . S
C866 C868 1.384 . S
C867 C866 1.377 . S
C867 C873 1.390 . S
C868 H859 0.930 . S
C868 C866 1.384 . S
C868 C869 1.372 . S
C869 C868 1.372 . S
C869 C870 1.400 . S
C869 C874 1.490 . S
C870 H860 0.930 . S
C870 C869 1.400 . S
C870 C873 1.386 . S
H871 C887 0.930 . S
H872 C888 0.931 . S
C873 H861 0.929 . S
C873 C867 1.390 . S
C873 C870 1.386 . S
C874 C869 1.490 . S
C874 C876 1.395 . S
C874 C877 1.403 . S
H875 C881 0.930 . S
C876 H862 0.930 . S
C876 C874 1.395 . S
C876 C879 1.403 . S
C877 C874 1.403 . S
C877 C878 1.524 . S
C877 C881 1.400 . S
C878 H863 0.960 . S
C878 H864 0.960 . S
C878 H865 0.960 . S
C878 C877 1.524 . S
C879 C876 1.403 . S
C879 C880 1.392 . S
C879 C883 1.495 . S
C880 C879 1.392 . S
C880 C881 1.385 . S
C880 C882 1.478 . S
C881 H875 0.930 . S
C881 C877 1.400 . S
C881 C880 1.385 . S
C882 C880 1.478 . S
C882 C884 1.381 . S
C882 C888 1.383 . S
C883 C879 1.495 . S
C883 H889 0.959 . S
C883 H890 0.961 . S
C883 H891 0.960 . S
C884 C882 1.381 . S
C884 C885 1.394 . S
C884 H892 0.930 . S
C885 C884 1.394 . S
C885 C886 1.383 . S
C885 H893 0.929 . S
C886 C885 1.383 . S
C886 C887 1.377 . S
C887 H871 0.930 . S
C887 C886 1.377 . S
C887 C888 1.379 . S
C888 H872 0.931 . S
C888 C882 1.383 . S
C888 C887 1.379 . S
H889 C883 0.959 . S
H890 C883 0.961 . S
H891 C883 0.960 . S
H892 C884 0.930 . S
H893 C885 0.929 . S
H894 C902 0.929 1_565 S
H895 C904 0.930 1_565 S
H896 C906 0.930 . S
H897 C909 0.929 . S
H898 C912 0.930 . S
H899 C914 0.960 . S
H900 C914 0.960 . S
H901 C914 0.960 . S
C902 H894 0.929 1_545 S
C902 C903 1.377 . S
C902 C904 1.384 . S
C903 C902 1.377 . S
C903 C909 1.390 . S
C904 H895 0.930 1_545 S
C904 C902 1.384 . S
C904 C905 1.372 . S
C905 C904 1.372 . S
C905 C906 1.400 . S
C905 C910 1.490 . S
C906 H896 0.930 . S
C906 C905 1.400 . S
C906 C909 1.386 . S
H907 C923 0.930 . S
H908 C924 0.931 . S
C909 H897 0.929 . S
C909 C903 1.390 . S
C909 C906 1.386 . S
C910 C905 1.490 . S
C910 C912 1.395 1_545 S
C910 C913 1.403 . S
H911 C917 0.930 . S
C912 H898 0.930 . S
C912 C910 1.395 1_565 S
C912 C915 1.403 . S
C913 C910 1.403 . S
C913 C914 1.524 . S
C913 C917 1.400 . S
C914 H899 0.960 . S
C914 H900 0.960 . S
C914 H901 0.960 . S
C914 C913 1.524 . S
C915 C912 1.403 . S
C915 C916 1.392 1_565 S
C915 C919 1.495 . S
C916 C915 1.392 1_545 S
C916 C917 1.385 . S
C916 C918 1.478 . S
C917 H911 0.930 . S
C917 C913 1.400 . S
C917 C916 1.385 . S
C918 C916 1.478 . S
C918 C920 1.381 . S
C918 C924 1.383 . S
C919 C915 1.495 . S
C919 H925 0.959 . S
C919 H926 0.961 . S
C919 H927 0.960 . S
C920 C918 1.381 . S
C920 C921 1.394 . S
C920 H928 0.930 1_545 S
C921 C920 1.394 . S
C921 C922 1.383 . S
C921 H929 0.929 . S
C922 C921 1.383 . S
C922 C923 1.377 . S
C923 H907 0.930 . S
C923 C922 1.377 . S
C923 C924 1.379 . S
C924 H908 0.931 . S
C924 C918 1.383 . S
C924 C923 1.379 . S
H925 C919 0.959 . S
H926 C919 0.961 . S
H927 C919 0.960 . S
H928 C920 0.930 1_565 S
H929 C921 0.929 . S
H930 C938 0.929 . S
H931 C940 0.930 . S
H932 C942 0.930 . S
H933 C945 0.929 . S
H934 C948 0.930 . S
H935 C950 0.960 . S
H936 C950 0.960 . S
H937 C950 0.960 . S
C938 H930 0.929 . S
C938 C939 1.377 . S
C938 C940 1.384 . S
C939 C938 1.377 . S
C939 C945 1.390 . S
C940 H931 0.930 . S
C940 C938 1.384 . S
C940 C941 1.372 . S
C941 C940 1.372 . S
C941 C942 1.400 . S
C941 C946 1.490 . S
C942 H932 0.930 . S
C942 C941 1.400 . S
C942 C945 1.386 . S
H943 C959 0.930 . S
H944 C960 0.931 . S
C945 H933 0.929 . S
C945 C939 1.390 . S
C945 C942 1.386 . S
C946 C941 1.490 . S
C946 C948 1.395 . S
C946 C949 1.403 . S
H947 C953 0.930 . S
C948 H934 0.930 . S
C948 C946 1.395 . S
C948 C951 1.403 . S
C949 C946 1.403 . S
C949 C950 1.524 . S
C949 C953 1.400 . S
C950 H935 0.960 . S
C950 H936 0.960 . S
C950 H937 0.960 . S
C950 C949 1.524 . S
C951 C948 1.403 . S
C951 C952 1.392 . S
C951 C955 1.495 . S
C952 C951 1.392 . S
C952 C953 1.385 . S
C952 C954 1.478 . S
C953 H947 0.930 . S
C953 C949 1.400 . S
C953 C952 1.385 . S
C954 C952 1.478 . S
C954 C956 1.381 . S
C954 C960 1.383 . S
C955 C951 1.495 . S
C955 H961 0.959 . S
C955 H962 0.961 . S
C955 H963 0.960 . S
C956 C954 1.381 . S
C956 C957 1.394 1_556 S
C956 H964 0.930 . S
C957 C956 1.394 1_554 S
C957 C958 1.383 . S
C957 H965 0.929 . S
C958 C957 1.383 . S
C958 C959 1.377 . S
C959 H943 0.930 . S
C959 C958 1.377 . S
C959 C960 1.379 1_554 S
C960 H944 0.931 . S
C960 C954 1.383 . S
C960 C959 1.379 1_556 S
H961 C955 0.959 . S
H962 C955 0.961 . S
H963 C955 0.960 . S
H964 C956 0.930 . S
H965 C957 0.929 . S
H966 C974 0.926 1_655 S
H967 C976 0.909 1_655 S
H968 C978 0.930 . S
H969 C981 0.929 . S
H970 C984 0.930 . S
H971 C986 0.960 . S
H972 C986 0.960 . S
H973 C986 0.960 . S
C974 H966 0.926 1_455 S
C974 C975 1.380 . S
C974 C976 1.383 . S
C975 C974 1.380 . S
C975 C981 1.390 . S
C976 H967 0.909 1_455 S
C976 C974 1.383 . S
C976 C977 1.395 . S
C977 C976 1.395 . S
C977 C978 1.400 . S
C977 C982 1.490 . S
C978 H968 0.930 . S
C978 C977 1.400 . S
C978 C981 1.386 . S
H979 C995 0.930 . S
H980 C996 0.931 . S
C981 H969 0.929 . S
C981 C975 1.390 . S
C981 C978 1.386 . S
C982 C977 1.490 . S
C982 C984 1.395 1_455 S
C982 C985 1.403 . S
H983 C989 0.930 . S
C984 H970 0.930 . S
C984 C982 1.395 1_655 S
C984 C987 1.403 . S
C985 C982 1.403 . S
C985 C986 1.524 . S
C985 C989 1.400 . S
C986 H971 0.960 . S
C986 H972 0.960 . S
C986 H973 0.960 . S
C986 C985 1.524 . S
C987 C984 1.403 . S
C987 C988 1.392 1_655 S
C987 C991 1.495 . S
C988 C987 1.392 1_455 S
C988 C989 1.385 . S
C988 C990 1.478 . S
C989 H983 0.930 . S
C989 C985 1.400 . S
C989 C988 1.385 . S
C990 C988 1.478 . S
C990 C992 1.381 . S
C990 C996 1.383 . S
C991 C987 1.495 . S
C991 H997 0.959 . S
C991 H998 0.961 . S
C991 H999 0.960 . S
C992 C990 1.381 . S
C992 C993 1.394 . S
C992 H1000 0.930 . S
C993 C992 1.394 . S
C993 C994 1.383 . S
C993 H1001 0.929 . S
C994 C993 1.383 . S
C994 C995 1.377 . S
C995 H979 0.930 . S
C995 C994 1.377 . S
C995 C996 1.379 . S
C996 H980 0.931 . S
C996 C990 1.383 . S
C996 C995 1.379 . S
H997 C991 0.959 . S
H998 C991 0.961 . S
H999 C991 0.960 . S
H1000 C992 0.930 . S
H1001 C993 0.929 . S
C363 C12 2.874 . S
C382 C331 2.822 . S
C399 C52 2.857 . S
C418 C258 2.822 . S
C435 C111 2.924 . S
C454 C297 2.889 . S
C471 C31 3.072 . S
C490 C336 3.027 . S
C526 C253 3.031 . S
C507 C71 3.089 . S
C562 C292 2.958 . S
C543 C92 3.017 . S
C579 C48 0.403 . S
C598 C180 0.378 . S
C615 C109 0.430 . S
C634 C214 0.372 . S
C651 C29 0.408 . S
C670 C136 0.301 . S
C706 C175 0.268 . S
C687 C69 0.352 . S
C742 C219 0.329 . S
C723 C88 0.238 . S
C759 C8 0.270 . S
C778 C141 0.307 . S
C814 C199 1.101 . S
C795 C17 1.089 . S
C831 C57 1.088 . S
C850 C121 1.095 . S
C867 C97 1.095 . S
C886 C160 1.099 . S
C922 C277 1.768 . S
C903 C42 1.706 . S
C958 C316 1.766 . S
C939 C82 1.719 . S
C975 C2 1.720 . S
C994 C238 1.770 . S
