# Generated by pormake.
# Topology pyr, (3,6)-cn, num edge types: 1
# Building blocks:
#     Node 0, Type 0, BuildingBlock: BETDIP_clean_linker_0, # of connection points: 3
#     Node 1, Type 0, BuildingBlock: BETDIP_clean_linker_0, # of connection points: 3
#     Node 2, Type 0, BuildingBlock: BETDIP_clean_linker_0, # of connection points: 3
#     Node 3, Type 0, BuildingBlock: BETDIP_clean_linker_0, # of connection points: 3
#     Node 4, Type 0, BuildingBlock: BETDIP_clean_linker_0, # of connection points: 3
#     Node 5, Type 0, BuildingBlock: BETDIP_clean_linker_0, # of connection points: 3
#     Node 6, Type 0, BuildingBlock: BETDIP_clean_linker_0, # of connection points: 3
#     Node 7, Type 0, BuildingBlock: BETDIP_clean_linker_0, # of connection points: 3
#     Node 8, Type 1, BuildingBlock: INOVEN_clean_sbu_0, # of connection points: 6
#     Node 9, Type 1, BuildingBlock: INOVEN_clean_sbu_0, # of connection points: 6
#     Node 10, Type 1, BuildingBlock: INOVEN_clean_sbu_0, # of connection points: 6
#     Node 11, Type 1, BuildingBlock: INOVEN_clean_sbu_0, # of connection points: 6
#     Edge 12, Type (0, 1), BuildingBlock: AJUNOK_clean_linker_0, # of connection points: 2
#     Edge 13, Type (0, 1), BuildingBlock: AJUNOK_clean_linker_0, # of connection points: 2
#     Edge 14, Type (0, 1), BuildingBlock: AJUNOK_clean_linker_0, # of connection points: 2
#     Edge 15, Type (0, 1), BuildingBlock: AJUNOK_clean_linker_0, # of connection points: 2
#     Edge 16, Type (0, 1), BuildingBlock: AJUNOK_clean_linker_0, # of connection points: 2
#     Edge 17, Type (0, 1), BuildingBlock: AJUNOK_clean_linker_0, # of connection points: 2
#     Edge 18, Type (0, 1), BuildingBlock: AJUNOK_clean_linker_0, # of connection points: 2
#     Edge 19, Type (0, 1), BuildingBlock: AJUNOK_clean_linker_0, # of connection points: 2
#     Edge 20, Type (0, 1), BuildingBlock: AJUNOK_clean_linker_0, # of connection points: 2
#     Edge 21, Type (0, 1), BuildingBlock: AJUNOK_clean_linker_0, # of connection points: 2
#     Edge 22, Type (0, 1), BuildingBlock: AJUNOK_clean_linker_0, # of connection points: 2
#     Edge 23, Type (0, 1), BuildingBlock: AJUNOK_clean_linker_0, # of connection points: 2
#     Edge 24, Type (0, 1), BuildingBlock: AJUNOK_clean_linker_0, # of connection points: 2
#     Edge 25, Type (0, 1), BuildingBlock: AJUNOK_clean_linker_0, # of connection points: 2
#     Edge 26, Type (0, 1), BuildingBlock: AJUNOK_clean_linker_0, # of connection points: 2
#     Edge 27, Type (0, 1), BuildingBlock: AJUNOK_clean_linker_0, # of connection points: 2
#     Edge 28, Type (0, 1), BuildingBlock: AJUNOK_clean_linker_0, # of connection points: 2
#     Edge 29, Type (0, 1), BuildingBlock: AJUNOK_clean_linker_0, # of connection points: 2
#     Edge 30, Type (0, 1), BuildingBlock: AJUNOK_clean_linker_0, # of connection points: 2
#     Edge 31, Type (0, 1), BuildingBlock: AJUNOK_clean_linker_0, # of connection points: 2
#     Edge 32, Type (0, 1), BuildingBlock: AJUNOK_clean_linker_0, # of connection points: 2
#     Edge 33, Type (0, 1), BuildingBlock: AJUNOK_clean_linker_0, # of connection points: 2
#     Edge 34, Type (0, 1), BuildingBlock: AJUNOK_clean_linker_0, # of connection points: 2
#     Edge 35, Type (0, 1), BuildingBlock: AJUNOK_clean_linker_0, # of connection points: 2
# Relax obj value: 0.182
# Max RMSD: 0.177
# Mean RMSD: 0.139
data_MOF--net-pyr--node1-INOVEN_clean_sbu_0--node2-BETDIP_clean_linker_0--edge1-AJUNOK_clean_linker_0
_symmetry_space_group_name_H-M    P1
_symmetry_Int_Tables_number       1
_symmetry_cell_setting            triclinic
loop_
_symmetry_equiv_pos_as_xyz
'x, y, z'
_cell_length_a     28.131464
_cell_length_b     29.183239
_cell_length_c     27.620849
_cell_angle_alpha  92.413282
_cell_angle_beta   86.63454
_cell_angle_gamma 108.6198
loop_
_atom_site_label
_atom_site_type_symbol
_atom_site_fract_x
_atom_site_fract_y
_atom_site_fract_z
_atom_type_partial_charge
H0 H 0.38185 0.37377 0.29046 0.0
H1 H 0.44685 0.32721 0.16279 0.0
H2 H 0.46188 0.27136 0.30071 0.0
H3 H 0.40062 0.44887 0.24267 0.0
C4 C 0.38143 0.42456 0.21397 0.0
C5 C 0.40674 0.35503 0.27474 0.0
C6 C 0.42048 0.32232 0.30253 0.0
C7 C 0.41911 0.35886 0.22477 0.0
C8 C 0.443 0.32793 0.20202 0.0
C9 C 0.45797 0.29562 0.22912 0.0
C10 C 0.44978 0.29581 0.27972 0.0
N11 N 0.40039 0.38739 0.19544 0.0
H12 H 0.16163 0.86861 0.74161 0.0
H13 H 0.16923 0.78152 0.61355 0.0
H14 H 0.30325 0.8557 0.68802 0.0
H15 H 0.09484 0.80222 0.59612 0.0
C16 C 0.09045 0.82499 0.62705 0.0
C17 C 0.18353 0.85432 0.7151 0.0
C18 C 0.2356 0.8667 0.71839 0.0
C19 C 0.15974 0.82492 0.67666 0.0
C20 C 0.18778 0.80592 0.6423 0.0
C21 C 0.23978 0.81771 0.64591 0.0
C22 C 0.26341 0.84847 0.6837 0.0
N23 N 0.10802 0.81702 0.67176 0.0
H24 H 0.74521 0.47681 0.87895 0.0
H25 H 0.61878 0.34603 0.86912 0.0
H26 H 0.7434 0.35207 0.95603 0.0
H27 H 0.60685 0.38168 0.79395 0.0
C28 C 0.62596 0.42041 0.79528 0.0
C29 C 0.7266 0.43964 0.88899 0.0
C30 C 0.74839 0.41868 0.92332 0.0
C31 C 0.68114 0.41371 0.86693 0.0
C32 C 0.65499 0.36554 0.88318 0.0
C33 C 0.67544 0.34339 0.91893 0.0
C34 C 0.72383 0.36987 0.9347 0.0
N35 N 0.66354 0.43908 0.83091 0.0
H36 H 0.80484 0.65339 0.37622 0.0
H37 H 0.93291 0.78218 0.35742 0.0
H38 H 0.82018 0.77817 0.47014 0.0
H39 H 0.94582 0.74813 0.28519 0.0
C40 C 0.92548 0.70971 0.28411 0.0
C41 C 0.8251 0.69034 0.38684 0.0
C42 C 0.80729 0.71193 0.42762 0.0
C43 C 0.86955 0.71538 0.35999 0.0
C44 C 0.89742 0.76301 0.37553 0.0
C45 C 0.88031 0.78526 0.41646 0.0
C46 C 0.83438 0.76005 0.44039 0.0
N47 N 0.88548 0.69019 0.31951 0.0
H48 H 0.60365 0.80466 0.9724 0.0
H49 H 0.66274 0.74149 0.84951 0.0
H50 H 0.63274 0.87582 0.83623 0.0
H51 H 0.63661 0.66835 0.90645 0.0
C52 C 0.6599 0.69651 0.92975 0.0
C53 C 0.61377 0.80433 0.93394 0.0
C54 C 0.61185 0.84223 0.90514 0.0
C55 C 0.63201 0.76779 0.91417 0.0
C56 C 0.64712 0.76867 0.86477 0.0
C57 C 0.64886 0.80806 0.83642 0.0
C58 C 0.62931 0.84382 0.8565 0.0
N59 N 0.64242 0.73545 0.94597 0.0
H60 H 0.88269 0.28103 0.37672 0.0
H61 H 0.85307 0.31521 0.52605 0.0
H62 H 0.77797 0.35787 0.41466 0.0
H63 H 0.90537 0.27798 0.54246 0.0
C64 C 0.91298 0.25811 0.51054 0.0
C65 C 0.86554 0.30013 0.40322 0.0
C66 C 0.82835 0.31893 0.38951 0.0
C67 C 0.87613 0.29967 0.45203 0.0
C68 C 0.84917 0.31855 0.48781 0.0
C69 C 0.81376 0.33921 0.47401 0.0
C70 C 0.80612 0.34234 0.42479 0.0
N71 N 0.90793 0.27297 0.46352 0.0
H72 H 0.31459 0.67471 0.24587 0.0
H73 H 0.44733 0.79943 0.25704 0.0
H74 H 0.3367 0.79622 0.15433 0.0
H75 H 0.47431 0.72559 0.28884 0.0
C76 C 0.44238 0.71115 0.31406 0.0
C77 C 0.33707 0.71015 0.23357 0.0
C78 C 0.32079 0.73071 0.19435 0.0
C79 C 0.38249 0.73403 0.25708 0.0
C80 C 0.41264 0.78048 0.23984 0.0
C81 C 0.39715 0.80284 0.20096 0.0
C82 C 0.35058 0.77778 0.1806 0.0
N83 N 0.39386 0.71154 0.29941 0.0
H84 H 0.1189 0.34314 0.74852 0.0
H85 H 0.24186 0.47693 0.74726 0.0
H86 H 0.24729 0.36008 0.64936 0.0
H87 H 0.21443 0.46764 0.83678 0.0
C88 C 0.17493 0.46169 0.83143 0.0
C89 C 0.1556 0.36453 0.7342 0.0
C90 C 0.17972 0.34532 0.69579 0.0
C91 C 0.17822 0.4114 0.75428 0.0
C92 C 0.22502 0.44023 0.73381 0.0
C93 C 0.24964 0.42202 0.69518 0.0
C94 C 0.2274 0.3743 0.67785 0.0
N95 N 0.15171 0.42952 0.7927 0.0
Gd96 Gd 0.06846 0.07645 0.51584 0.0
Gd97 Gd 1.00101 1.04508 0.6046 0.0
C98 C 0.08891 0.14907 0.61056 0.0
C99 C 0.12367 0.12662 0.44713 0.0
C100 C 0.16811 0.17005 0.44853 0.0
C101 C 0.20668 0.17295 0.47993 0.0
C102 C 0.17425 0.20709 0.41583 0.0
C103 C 0.26074 0.24326 0.43826 0.0
C104 C 0.22034 0.24379 0.41094 0.0
C105 C 0.25293 0.20906 0.47442 0.0
C106 C 0.09187 1.01086 0.56662 0.0
C107 C 0.98254 0.97441 0.50946 0.0
C108 C 0.95054 1.0156 0.68407 0.0
C109 C 0.90208 0.97725 0.69206 0.0
C110 C 0.85979 0.98983 0.70894 0.0
C111 C 0.89683 0.92842 0.68086 0.0
C112 C 0.80877 0.9052 0.7074 0.0
C113 C 0.85056 0.89268 0.68872 0.0
C114 C 0.8135 0.95415 0.71638 0.0
C115 C 0.96257 0.08499 0.53604 0.0
O116 O 0.10581 0.13811 0.56735 0.0
O117 O 0.04932 0.11845 0.63306 0.0
O118 O 0.1299 0.08741 0.46278 0.0
O119 O 0.0806 0.13185 0.46186 0.0
O120 O 0.09667 1.01343 0.51989 0.0
O121 O 0.07783 1.04509 0.5853 0.0
O122 O 0.98105 0.97693 0.55751 0.0
O123 O 1.00648 1.01341 0.48399 0.0
O124 O 0.94849 1.05359 0.66199 0.0
O125 O 0.98884 1.00186 0.66875 0.0
O126 O 0.93694 1.04718 0.56017 0.0
O127 O 1.00676 0.09823 0.54952 0.0
H128 H 0.20239 0.14538 0.5064 0.0
H129 H 0.14469 0.20585 0.39187 0.0
H130 H 0.22598 0.26953 0.38229 0.0
H131 H 0.28384 0.20776 0.49535 0.0
H132 H 0.86275 1.02723 0.71726 0.0
H133 H 0.92853 0.91759 0.66691 0.0
H134 H 0.84784 0.85509 0.68204 0.0
H135 H 0.78214 0.96464 0.73195 0.0
Gd136 Gd 0.57996 0.07921 0.08892 0.0
Gd137 Gd 0.49918 0.06885 1.03713 0.0
C138 C 0.51364 0.13945 0.12958 0.0
C139 C 0.66628 0.09603 0.12607 0.0
C140 C 0.69712 0.13552 0.15674 0.0
C141 C 0.7043 0.12537 0.20442 0.0
C142 C 0.71511 0.18365 0.14126 0.0
C143 C 0.7426 0.21086 0.22205 0.0
C144 C 0.73798 0.22122 0.17382 0.0
C145 C 0.7266 0.16273 0.23685 0.0
C146 C 0.5016 1.00093 0.12295 0.0
C147 C 0.56715 1.00883 0.99515 0.0
C148 C 0.4121 0.05619 1.00302 0.0
C149 C 0.3834 1.02666 0.96399 0.0
C150 C 0.36297 1.04914 0.93064 0.0
C151 C 0.37967 0.97769 0.95712 0.0
C152 C 0.33617 0.9745 0.8833 0.0
C153 C 0.35569 0.9516 0.9171 0.0
C154 C 0.33967 1.02326 0.89036 0.0
C155 C 0.57744 0.14523 1.00092 0.0
O156 O 0.56084 0.14232 0.12268 0.0
O157 O 0.47978 0.10572 0.10601 0.0
O158 O 0.62401 0.07023 0.14697 0.0
O159 O 0.66144 0.10551 0.08114 0.0
O160 O 0.52885 1.03595 0.14961 0.0
O161 O 0.51445 1.01114 0.07879 0.0
O162 O 0.5206 1.0095 0.99655 0.0
O163 O 0.59961 1.03947 1.02296 0.0
O164 O 0.45277 0.08967 0.98847 0.0
O165 O 0.41851 1.03382 1.04082 0.0
O166 O 0.54906 0.11004 0.9752 0.0
O167 O 0.56547 0.13638 1.04564 0.0
H168 H 0.69084 0.0886 0.21714 0.0
H169 H 0.71023 0.19243 0.1046 0.0
H170 H 0.7504 0.25825 0.16192 0.0
H171 H 0.73035 0.15419 0.27396 0.0
H172 H 0.366 0.08702 0.93525 0.0
H173 H 0.39594 0.95986 0.98205 0.0
H174 H 0.35327 0.91392 0.91196 0.0
H175 H 0.32436 1.04124 0.86471 0.0
Gd176 Gd 0.51869 0.52558 0.53163 0.0
Gd177 Gd 0.53122 0.61209 0.59427 0.0
C178 C 0.56758 0.52955 0.64028 0.0
C179 C 0.53404 0.4513 0.48949 0.0
C180 C 0.5738 0.43065 0.49998 0.0
C181 C 0.56266 0.38933 0.52842 0.0
C182 C 0.62415 0.45534 0.48648 0.0
C183 C 0.6515 0.3981 0.52961 0.0
C184 C 0.66241 0.4392 0.501 0.0
C185 C 0.60121 0.37316 0.54309 0.0
C186 C 0.43202 0.52616 0.58119 0.0
C187 C 0.49241 0.61124 0.48213 0.0
C188 C 0.50434 0.67477 0.64749 0.0
C189 C 0.46278 0.693 0.63962 0.0
C190 C 0.46536 0.7402 0.65402 0.0
C191 C 0.42291 0.66484 0.61216 0.0
C192 C 0.38795 0.73063 0.61373 0.0
C193 C 0.38548 0.68328 0.59977 0.0
C194 C 0.42802 0.75889 0.6413 0.0
C195 C 0.62076 0.62902 0.5444 0.0
O196 O 0.55554 0.50684 0.59767 0.0
O197 O 0.56181 0.57268 0.64867 0.0
O198 O 0.4993 0.44759 0.52399 0.0
O199 O 0.54912 0.494 0.47002 0.0
O200 O 0.43467 0.51273 0.53595 0.0
O201 O 0.47573 0.53879 0.59694 0.0
O202 O 0.49138 0.62765 0.52786 0.0
O203 O 0.50784 0.57329 0.47282 0.0
O204 O 0.54047 0.68683 0.614 0.0
O205 O 0.49166 0.62914 0.65867 0.0
O206 O 0.61172 0.65623 0.57948 0.0
O207 O 0.58323 0.59119 0.53991 0.0
H208 H 0.52421 0.36985 0.53974 0.0
H209 H 0.63433 0.48743 0.46481 0.0
H210 H 0.70054 0.45808 0.48822 0.0
H211 H 0.59172 0.34084 0.56437 0.0
H212 H 0.49638 0.76264 0.67457 0.0
H213 H 0.42129 0.62879 0.59967 0.0
H214 H 0.3547 0.66069 0.5791 0.0
H215 H 0.42993 0.79507 0.65387 0.0
Gd216 Gd 0.03297 0.52842 0.0831 0.0
Gd217 Gd 0.03745 0.62589 1.02587 0.0
C218 C 0.12935 0.63036 0.09599 0.0
C219 C 0.05727 0.4542 0.1045 0.0
C220 C 0.10478 0.44932 0.11938 0.0
C221 C 0.10451 0.42125 0.15945 0.0
C222 C 0.15088 0.47509 0.09615 0.0
C223 C 0.19545 0.44364 0.15204 0.0
C224 C 0.19591 0.47224 0.11241 0.0
C225 C 0.14956 0.41829 0.17559 0.0
C226 C 0.98798 0.58506 0.13748 0.0
C227 C 0.94071 0.52397 1.01504 0.0
C228 C 1.00924 0.69763 1.00252 0.0
C229 C 0.95874 0.69926 0.99266 0.0
C230 C 0.95287 0.73098 0.95841 0.0
C231 C 0.91576 0.66686 1.01524 0.0
C232 C 0.86171 0.69767 0.9693 0.0
C233 C 0.86778 0.66611 1.00371 0.0
C234 C 0.90473 0.73042 0.94702 0.0
C235 C 0.08121 0.56807 0.97134 0.0
O236 O 0.10779 0.58335 0.10456 0.0
O237 O 0.10957 0.6549 0.06749 0.0
O238 O 0.03547 0.47673 0.13603 0.0
O239 O 0.05633 0.46689 0.05963 0.0
O240 O 0.98843 0.54293 0.15063 0.0
O241 O 1.00891 0.59196 0.09536 0.0
O242 O 0.96159 0.57109 1.00722 0.0
O243 O 0.96156 0.49921 1.04174 0.0
O244 O 0.0281 0.67284 0.97075 0.0
O245 O 1.01624 0.68922 1.04733 0.0
O246 O 0.07909 0.60921 0.95697 0.0
O247 O 0.06154 0.56238 1.01391 0.0
H248 H 0.06947 0.40188 0.1784 0.0
H249 H 0.15218 0.49768 0.06567 0.0
H250 H 0.23103 0.49183 0.09371 0.0
H251 H 0.14868 0.39628 0.20647 0.0
H252 H 0.98548 0.75583 0.94013 0.0
H253 H 0.91922 0.64179 1.04161 0.0
H254 H 0.83534 0.64104 1.02198 0.0
H255 H 0.90107 0.75504 0.92027 0.0
C256 C 0.37474 0.25595 0.35845 0.0
C257 C 0.39291 0.30605 0.34984 0.0
C258 C 0.33535 0.23671 0.39219 0.0
C259 C 0.31187 0.2665 0.41803 0.0
H260 H 0.38694 0.23031 0.33576 0.0
H261 H 0.31974 0.19769 0.39424 0.0
S262 S 0.35364 0.40019 0.42051 0.0
N263 N 0.39225 0.38578 0.37974 0.0
N264 N 0.3147 0.34844 0.44059 0.0
C265 C 0.33285 0.3167 0.41442 0.0
C266 C 0.3744 0.33673 0.38105 0.0
C267 C 0.24331 0.88189 0.80726 0.0
C268 C 0.26094 0.89592 0.75976 0.0
C269 C 0.26846 0.90716 0.84722 0.0
C270 C 0.31158 0.94746 0.84076 0.0
H271 H 0.2104 0.85065 0.81353 0.0
H272 H 0.25387 0.89545 0.88339 0.0
S273 S 0.37345 0.99825 0.72402 0.0
N274 N 0.3244 0.95226 0.70844 0.0
N275 N 0.3717 0.99989 0.78394 0.0
C276 C 0.32972 0.96187 0.79358 0.0
C277 C 0.30438 0.93599 0.7529 0.0
C278 C 0.58094 0.42729 0.71938 0.0
C279 C 0.6136 0.45086 0.75637 0.0
C280 C 0.56748 0.45272 0.68235 0.0
C281 C 0.58486 0.50381 0.68012 0.0
H282 H 0.56537 0.3882 0.71886 0.0
H283 H 0.54219 0.43183 0.65553 0.0
S284 S 0.6731 0.58434 0.76643 0.0
N285 N 0.6646 0.52959 0.78652 0.0
N286 N 0.63847 0.57698 0.7186 0.0
C287 C 0.61775 0.52812 0.71678 0.0
C288 C 0.63226 0.50199 0.75416 0.0
C289 C 0.91448 0.62859 0.24034 0.0
C290 C 0.93972 0.67869 0.24442 0.0
C291 C 0.92926 0.5993 0.20436 0.0
C292 C 0.96947 0.61867 0.17032 0.0
H293 H 0.88357 0.61153 0.2656 0.0
H294 H 0.90938 0.5608 0.20368 0.0
S295 S 0.04997 0.74695 0.16688 0.0
N296 N 1.00799 0.74601 0.21156 0.0
N297 N 0.03601 0.69083 0.14525 0.0
C298 C 0.99494 0.66858 0.17393 0.0
C299 C 0.97999 0.69849 0.21056 0.0
C300 C 0.4538 0.20842 0.21973 0.0
C301 C 0.47471 0.25666 0.20442 0.0
C302 C 0.46627 0.17034 0.19535 0.0
C303 C 0.50026 0.17923 0.15506 0.0
H304 H 0.42661 0.19974 0.25013 0.0
H305 H 0.44935 0.13384 0.20813 0.0
S306 S 0.56214 0.29738 0.09767 0.0
N307 N 0.52994 0.31029 0.14516 0.0
N308 N 0.5517 0.23843 0.09855 0.0
C309 C 0.52072 0.22679 0.13883 0.0
C310 C 0.50832 0.26558 0.16365 0.0
C311 C 0.0531 0.8914 0.62922 0.0
C312 C 0.09378 0.87483 0.61654 0.0
C313 C 0.05417 0.93767 0.61651 0.0
C314 C 0.09618 0.96897 0.59162 0.0
H315 H 1.01941 0.86769 0.64703 0.0
H316 H 1.02045 0.94705 0.623 0.0
S317 S 0.21543 0.9449 0.55741 0.0
N318 N 0.17933 0.89448 0.5826 0.0
N319 N 0.18145 0.98191 0.55929 0.0
C320 C 0.13833 0.95374 0.58165 0.0
C321 C 0.13714 0.90651 0.59411 0.0
C322 C 0.83711 0.48074 0.92217 0.0
C323 C 0.79681 0.4471 0.94779 0.0
C324 C 0.88292 0.50579 0.94414 0.0
C325 C 0.89129 0.49788 0.99259 0.0
H326 H 0.83375 0.48725 0.88443 0.0
H327 H 0.91255 0.53079 0.92253 0.0
S328 S 0.79679 0.41946 0.07836 0.0
N329 N 0.76758 0.41254 1.02713 0.0
N330 N 0.85384 0.45692 0.06657 0.0
C331 C 0.85124 0.46544 1.01896 0.0
C332 C 0.80422 0.44088 0.99715 0.0
C333 C 0.71684 0.65542 0.43659 0.0
C334 C 0.76121 0.68474 0.45803 0.0
C335 C 0.67193 0.63439 0.46479 0.0
C336 C 0.66956 0.64225 0.51543 0.0
H337 H 0.71612 0.65039 0.39755 0.0
H338 H 0.63827 0.61416 0.44653 0.0
S339 S 0.7764 0.70878 0.59053 0.0
N340 N 0.80072 0.71392 0.53441 0.0
N341 N 0.71658 0.67702 0.58624 0.0
C342 C 0.71413 0.66906 0.53744 0.0
C343 C 0.75978 0.68955 0.50914 0.0
C344 C 0.32447 0.4731 0.20272 0.0
C345 C 0.33428 0.42882 0.19672 0.0
C346 C 0.27958 0.47803 0.1877 0.0
C347 C 0.2427 0.43842 0.16743 0.0
H348 H 0.35183 0.5042 0.21883 0.0
H349 H 0.27335 0.51275 0.1925 0.0
S350 S 0.24878 0.31435 0.14577 0.0
N351 N 0.30263 0.34439 0.16982 0.0
N352 N 0.21808 0.35374 0.14267 0.0
C353 C 0.25167 0.39393 0.16183 0.0
C354 C 0.29757 0.38906 0.17623 0.0
C355 C 0.61744 0.25408 0.91342 0.0
C356 C 0.64839 0.29317 0.94089 0.0
C357 C 0.59548 0.20688 0.93262 0.0
C358 C 0.60308 0.19559 0.98047 0.0
H359 H 0.61072 0.25957 0.87625 0.0
H360 H 0.57207 0.17887 0.90947 0.0
S361 S 0.68029 0.28313 0.0689 0.0
N362 N 0.6825 0.31588 1.02107 0.0
N363 N 0.64544 0.22773 0.05409 0.0
C364 C 0.63393 0.2339 1.00823 0.0
C365 C 0.65525 0.28215 0.98941 0.0
C366 C 0.92579 0.87621 0.41188 0.0
C367 C 0.91102 0.83306 0.4381 0.0
C368 C 0.94931 0.92172 0.43467 0.0
C369 C 0.95876 0.92598 0.48468 0.0
H370 H 0.91776 0.87498 0.37389 0.0
H371 H 0.95915 0.95386 0.41312 0.0
S372 S 0.93202 0.82278 0.56807 0.0
N373 N 0.91158 0.79723 0.51561 0.0
N374 N 0.95409 0.88135 0.55836 0.0
C375 C 0.9455 0.88259 0.5106 0.0
C376 C 0.92219 0.83666 0.48739 0.0
C377 C 0.25886 0.74249 0.62502 0.0
C378 C 0.26932 0.79199 0.61701 0.0
C379 C 0.29685 0.72114 0.61894 0.0
C380 C 0.34611 0.74881 0.60451 0.0
H381 H 0.22305 0.72167 0.64171 0.0
H382 H 0.28874 0.68429 0.63046 0.0
S383 S 0.38788 0.87576 0.56483 0.0
N384 N 0.3286 0.86513 0.58369 0.0
N385 N 0.40018 0.82472 0.5714 0.0
C386 C 0.35485 0.79624 0.58937 0.0
C387 C 0.3162 0.81792 0.59563 0.0
C388 C 0.7316 0.81434 0.7953 0.0
C389 C 0.68348 0.81905 0.79265 0.0
C390 C 0.77101 0.8381 0.76321 0.0
C391 C 0.76401 0.86789 0.72761 0.0
H392 H 0.74063 0.79632 0.82527 0.0
H393 H 0.80829 0.83712 0.76973 0.0
S394 S 0.64296 0.88142 0.69651 0.0
N395 N 0.62875 0.84696 0.74464 0.0
N396 N 0.70393 0.89322 0.68488 0.0
C397 C 0.7151 0.86826 0.72059 0.0
C398 C 0.67455 0.84342 0.75301 0.0
C399 C 0.83468 0.3014 0.30003 0.0
C400 C 0.80468 0.30324 0.3423 0.0
C401 C 0.81366 0.27474 0.25872 0.0
C402 C 0.76208 0.24947 0.25851 0.0
H403 H 0.87505 0.31801 0.30001 0.0
H404 H 0.8383 0.27097 0.22824 0.0
S405 S 0.66582 0.24758 0.35628 0.0
N406 N 0.71937 0.28057 0.37892 0.0
N407 N 0.68051 0.23225 0.3006 0.0
C408 C 0.73104 0.25459 0.29845 0.0
C409 C 0.75217 0.28117 0.34058 0.0
C410 C 0.48999 0.66232 0.35421 0.0
C411 C 0.45095 0.68346 0.35747 0.0
C412 C 0.50195 0.63866 0.39372 0.0
C413 C 0.47702 0.63598 0.44008 0.0
H414 H 0.51181 0.66394 0.32031 0.0
H415 H 0.53219 0.62325 0.38803 0.0
S416 S 0.37186 0.6856 0.46964 0.0
N417 N 0.38676 0.69902 0.412 0.0
N418 N 0.41034 0.65707 0.48604 0.0
C419 C 0.43801 0.65724 0.44411 0.0
C420 C 0.42477 0.68012 0.40322 0.0
C421 C 0.16616 0.49855 0.91473 0.0
C422 C 0.14623 0.48327 0.86874 0.0
C423 C 0.14307 0.52282 0.94945 0.0
C424 C 0.09947 0.5337 0.9394 0.0
H425 H 0.20066 0.49257 0.92364 0.0
H426 H 0.16098 0.53534 0.98334 0.0
S427 S 0.03128 0.50145 0.82541 0.0
N428 N 0.07879 0.47987 0.81629 0.0
N429 N 0.03676 0.5266 0.88039 0.0
C430 C 0.07866 0.51795 0.89404 0.0
C431 C 0.10152 0.4924 0.85911 0.0
C432 C 0.5593 0.89768 0.91435 0.0
C433 C 0.60077 0.88488 0.9277 0.0
C434 C 0.54918 0.93855 0.93539 0.0
C435 C 0.58094 0.96865 0.96956 0.0
H436 H 0.53418 0.87554 0.88806 0.0
H437 H 0.51606 0.94637 0.92508 0.0
S438 S 0.6964 0.95159 1.01389 0.0
N439 N 0.6747 0.90588 0.97533 0.0
N440 N 0.65679 0.98288 1.01432 0.0
C441 C 0.62343 0.95667 0.98193 0.0
C442 C 0.63306 0.91475 0.96114 0.0
C443 C 0.93834 0.18792 0.47644 0.0
C444 C 0.92189 0.21161 0.51635 0.0
C445 C 0.94825 0.14441 0.48214 0.0
C446 C 0.94056 0.12276 0.52748 0.0
H447 H 0.94524 0.20377 0.44092 0.0
H448 H 0.96365 0.12853 0.45142 0.0
S449 S 0.89718 0.16953 0.64281 0.0
N450 N 0.89798 0.20989 0.60236 0.0
N451 N 0.91541 0.12748 0.61272 0.0
C452 C 0.92263 0.14519 0.56719 0.0
C453 C 0.91359 0.18985 0.56168 0.0
C454 C 0.22949 0.67292 0.19296 0.0
C455 C 0.27235 0.70417 0.16811 0.0
C456 C 0.18406 0.64928 0.16956 0.0
C457 C 0.17819 0.65632 0.1202 0.0
H458 H 0.23052 0.66701 0.23125 0.0
H459 H 0.15278 0.62584 0.19073 0.0
S460 S 0.27894 0.7289 1.0359 0.0
N461 N 0.30595 0.73556 0.08835 0.0
N462 N 0.22037 0.69433 1.04647 0.0
C463 C 0.22046 0.68669 0.09464 0.0
C464 C 0.26725 0.70965 0.11791 0.0
C465 C 0.34102 0.43836 0.66899 0.0
C466 C 0.29757 0.45267 0.67053 0.0
C467 C 0.38474 0.46339 0.64134 0.0
C468 C 0.38641 0.50288 0.61286 0.0
H469 H 0.34093 0.40709 0.68881 0.0
H470 H 0.41702 0.45073 0.64103 0.0
S471 S 0.28265 0.55419 0.60323 0.0
N472 N 0.25954 0.50958 0.64152 0.0
N473 N 0.34033 0.55449 0.58745 0.0
C474 C 0.34326 0.51741 0.61389 0.0
C475 C 0.29929 0.49291 0.64326 0.0
C476 C 0.74868 0.73943 0.95277 0.0
C477 C 0.71115 0.69636 0.93973 0.0
C478 C 0.79757 0.73975 0.96112 0.0
C479 C 0.81051 0.69691 0.95753 0.0
H480 H 0.74048 0.77329 0.95609 0.0
H481 H 0.82522 0.77362 0.97137 0.0
S482 S 0.7266 0.57514 0.92223 0.0
N483 N 0.69081 0.6103 0.92159 0.0
N484 N 0.7823 0.61065 0.93822 0.0
C485 C 0.77348 0.65376 0.94393 0.0
C486 C 0.72397 0.6536 0.93473 0.0
C487 C 0.44696 0.8938 0.21133 0.0
C488 C 0.42741 0.85269 0.1808 0.0
C489 C 0.47015 0.94099 0.19255 0.0
C490 C 0.47537 0.95005 0.1421 0.0
H491 H 0.44317 0.88979 0.2503 0.0
H492 H 0.48393 0.97085 0.2181 0.0
S493 S 0.43435 0.85507 1.04563 0.0
N494 N 0.4182 0.82491 0.09648 0.0
N495 N 0.46036 0.91229 0.0621 0.0
C496 C 0.45691 0.90917 0.11119 0.0
C497 C 0.43351 0.86121 0.13018 0.0
C498 C 0.13057 0.25542 0.70286 0.0
C499 C 0.15544 0.29546 0.67362 0.0
C500 C 0.10946 0.20833 0.68261 0.0
C501 C 0.11277 0.19886 0.6322 0.0
H502 H 0.12797 0.2603 0.74189 0.0
H503 H 0.09086 0.17901 0.70678 0.0
S504 S 0.16826 0.2915 0.53874 0.0
N505 N 0.17731 0.32242 0.59067 0.0
N506 N 0.13974 0.23471 0.55329 0.0
C507 C 0.13657 0.23871 0.60251 0.0
C508 C 0.15729 0.2866 0.62295 0.0
C509 C 0.72681 0.31462 0.50738 0.0
C510 C 0.77579 0.34731 0.50903 0.0
C511 C 0.68537 0.32948 0.52112 0.0
C512 C 0.69203 0.37737 0.53714 0.0
H513 H 0.72035 0.27941 0.48974 0.0
H514 H 0.64838 0.3052 0.51334 0.0
S515 S 0.81308 0.4706 0.56367 0.0
N516 N 0.82921 0.425 0.53845 0.0
N517 N 0.75102 0.45275 0.56652 0.0
C518 C 0.74089 0.40734 0.54696 0.0
C519 C 0.78309 0.39235 0.5322 0.0
loop_
_geom_bond_atom_site_label_1
_geom_bond_atom_site_label_2
_geom_bond_distance
_geom_bond_site_symmetry_2
_ccdc_geom_bond_type
H0 C5 0.930 . S
H1 C8 0.930 . S
H2 C10 0.930 . S
H3 C4 1.016 . S
C4 H3 1.016 . S
C4 N11 1.286 . S
C5 H0 0.930 . S
C5 C6 1.397 . S
C5 C7 1.361 . S
C6 C5 1.397 . S
C6 C10 1.390 . S
C7 C5 1.361 . S
C7 C8 1.393 . S
C7 N11 1.413 . S
C8 H1 0.930 . S
C8 C7 1.393 . S
C8 C9 1.399 . S
C9 C8 1.399 . S
C9 C10 1.381 . S
C10 H2 0.930 . S
C10 C6 1.390 . S
C10 C9 1.381 . S
N11 C4 1.286 . S
N11 C7 1.413 . S
H12 C17 0.930 . S
H13 C20 0.930 . S
H14 C22 0.930 . S
H15 C16 1.016 . S
C16 H15 1.016 . S
C16 N23 1.286 . S
C17 H12 0.930 . S
C17 C18 1.397 . S
C17 C19 1.361 . S
C18 C17 1.397 . S
C18 C22 1.390 . S
C19 C17 1.361 . S
C19 C20 1.393 . S
C19 N23 1.413 . S
C20 H13 0.930 . S
C20 C19 1.393 . S
C20 C21 1.399 . S
C21 C20 1.399 . S
C21 C22 1.381 . S
C22 H14 0.930 . S
C22 C18 1.390 . S
C22 C21 1.381 . S
N23 C16 1.286 . S
N23 C19 1.413 . S
H24 C29 0.930 . S
H25 C32 0.930 . S
H26 C34 0.930 . S
H27 C28 1.016 . S
C28 H27 1.016 . S
C28 N35 1.286 . S
C29 H24 0.930 . S
C29 C30 1.397 . S
C29 C31 1.361 . S
C30 C29 1.397 . S
C30 C34 1.390 . S
C31 C29 1.361 . S
C31 C32 1.393 . S
C31 N35 1.413 . S
C32 H25 0.930 . S
C32 C31 1.393 . S
C32 C33 1.399 . S
C33 C32 1.399 . S
C33 C34 1.381 . S
C34 H26 0.930 . S
C34 C30 1.390 . S
C34 C33 1.381 . S
N35 C28 1.286 . S
N35 C31 1.413 . S
H36 C41 0.930 . S
H37 C44 0.930 . S
H38 C46 0.930 . S
H39 C40 1.016 . S
C40 H39 1.016 . S
C40 N47 1.286 . S
C41 H36 0.930 . S
C41 C42 1.397 . S
C41 C43 1.361 . S
C42 C41 1.397 . S
C42 C46 1.390 . S
C43 C41 1.361 . S
C43 C44 1.393 . S
C43 N47 1.413 . S
C44 H37 0.930 . S
C44 C43 1.393 . S
C44 C45 1.399 . S
C45 C44 1.399 . S
C45 C46 1.381 . S
C46 H38 0.930 . S
C46 C42 1.390 . S
C46 C45 1.381 . S
N47 C40 1.286 . S
N47 C43 1.413 . S
H48 C53 0.930 . S
H49 C56 0.930 . S
H50 C58 0.930 . S
H51 C52 1.016 . S
C52 H51 1.016 . S
C52 N59 1.286 . S
C53 H48 0.930 . S
C53 C54 1.397 . S
C53 C55 1.361 . S
C54 C53 1.397 . S
C54 C58 1.390 . S
C55 C53 1.361 . S
C55 C56 1.393 . S
C55 N59 1.413 . S
C56 H49 0.930 . S
C56 C55 1.393 . S
C56 C57 1.399 . S
C57 C56 1.399 . S
C57 C58 1.381 . S
C58 H50 0.930 . S
C58 C54 1.390 . S
C58 C57 1.381 . S
N59 C52 1.286 . S
N59 C55 1.413 . S
H60 C65 0.930 . S
H61 C68 0.930 . S
H62 C70 0.930 . S
H63 C64 1.016 . S
C64 H63 1.016 . S
C64 N71 1.286 . S
C65 H60 0.930 . S
C65 C66 1.397 . S
C65 C67 1.361 . S
C66 C65 1.397 . S
C66 C70 1.390 . S
C67 C65 1.361 . S
C67 C68 1.393 . S
C67 N71 1.413 . S
C68 H61 0.930 . S
C68 C67 1.393 . S
C68 C69 1.399 . S
C69 C68 1.399 . S
C69 C70 1.381 . S
C70 H62 0.930 . S
C70 C66 1.390 . S
C70 C69 1.381 . S
N71 C64 1.286 . S
N71 C67 1.413 . S
H72 C77 0.930 . S
H73 C80 0.930 . S
H74 C82 0.930 . S
H75 C76 1.016 . S
C76 H75 1.016 . S
C76 N83 1.286 . S
C77 H72 0.930 . S
C77 C78 1.397 . S
C77 C79 1.361 . S
C78 C77 1.397 . S
C78 C82 1.390 . S
C79 C77 1.361 . S
C79 C80 1.393 . S
C79 N83 1.413 . S
C80 H73 0.930 . S
C80 C79 1.393 . S
C80 C81 1.399 . S
C81 C80 1.399 . S
C81 C82 1.381 . S
C82 H74 0.930 . S
C82 C78 1.390 . S
C82 C81 1.381 . S
N83 C76 1.286 . S
N83 C79 1.413 . S
H84 C89 0.930 . S
H85 C92 0.930 . S
H86 C94 0.930 . S
H87 C88 1.016 . S
C88 H87 1.016 . S
C88 N95 1.286 . S
C89 H84 0.930 . S
C89 C90 1.397 . S
C89 C91 1.361 . S
C90 C89 1.397 . S
C90 C94 1.390 . S
C91 C89 1.361 . S
C91 C92 1.393 . S
C91 N95 1.413 . S
C92 H85 0.930 . S
C92 C91 1.393 . S
C92 C93 1.399 . S
C93 C92 1.399 . S
C93 C94 1.381 . S
C94 H86 0.930 . S
C94 C90 1.390 . S
C94 C93 1.381 . S
N95 C88 1.286 . S
N95 C91 1.413 . S
Gd96 C99 2.818 . S
Gd96 O116 2.377 . S
Gd96 O118 2.448 . S
Gd96 O119 2.506 . S
Gd96 O120 2.435 1_545 S
Gd96 O121 2.717 1_545 S
Gd96 O123 2.395 1_445 S
Gd96 O127 2.327 1_455 S
Gd97 C108 2.818 1_545 S
Gd97 O117 2.395 1_655 S
Gd97 O121 2.327 1_645 S
Gd97 O122 2.377 1_545 S
Gd97 O124 2.448 1_545 S
Gd97 O125 2.506 1_545 S
Gd97 O126 2.435 . S
Gd97 O127 2.717 . S
C98 O116 1.240 . S
C98 O117 1.240 . S
C99 Gd96 2.818 . S
C99 C100 1.510 . S
C99 O118 1.249 . S
C99 O119 1.252 . S
C100 C99 1.510 . S
C100 C101 1.404 . S
C100 C102 1.352 . S
C101 C100 1.404 . S
C101 C105 1.389 . S
C101 H128 0.930 . S
C102 C100 1.352 . S
C102 C104 1.374 . S
C102 H129 0.931 . S
C103 C104 1.359 . S
C103 C105 1.364 . S
C104 C102 1.374 . S
C104 C103 1.359 . S
C104 H130 0.931 . S
C105 C101 1.389 . S
C105 C103 1.364 . S
C105 H131 0.931 . S
C106 O120 1.256 . S
C106 O121 1.257 . S
C107 O122 1.240 . S
C107 O123 1.240 . S
C108 Gd97 2.818 1_565 S
C108 C109 1.510 . S
C108 O124 1.249 . S
C108 O125 1.252 . S
C109 C108 1.510 . S
C109 C110 1.404 . S
C109 C111 1.352 . S
C110 C109 1.404 . S
C110 C114 1.389 . S
C110 H132 0.930 . S
C111 C109 1.352 . S
C111 C113 1.374 . S
C111 H133 0.931 . S
C112 C113 1.359 . S
C112 C114 1.364 . S
C113 C111 1.374 . S
C113 C112 1.359 . S
C113 H134 0.931 . S
C114 C110 1.389 . S
C114 C112 1.364 . S
C114 H135 0.931 . S
C115 O126 1.256 . S
C115 O127 1.257 . S
O116 Gd96 2.377 . S
O116 C98 1.240 . S
O117 Gd97 2.395 1_455 S
O117 C98 1.240 . S
O118 Gd96 2.448 . S
O118 C99 1.249 . S
O119 Gd96 2.506 . S
O119 C99 1.252 . S
O120 Gd96 2.435 1_565 S
O120 C106 1.256 . S
O121 Gd96 2.717 1_565 S
O121 Gd97 2.327 1_465 S
O121 C106 1.257 . S
O122 Gd97 2.377 1_565 S
O122 C107 1.240 . S
O123 Gd96 2.395 1_665 S
O123 C107 1.240 . S
O124 Gd97 2.448 1_565 S
O124 C108 1.249 . S
O125 Gd97 2.506 1_565 S
O125 C108 1.252 . S
O126 Gd97 2.435 . S
O126 C115 1.256 . S
O127 Gd96 2.327 1_655 S
O127 Gd97 2.717 . S
O127 C115 1.257 . S
H128 C101 0.930 . S
H129 C102 0.931 . S
H130 C104 0.931 . S
H131 C105 0.931 . S
H132 C110 0.930 . S
H133 C111 0.931 . S
H134 C113 0.931 . S
H135 C114 0.931 . S
Gd136 C139 2.818 . S
Gd136 O156 2.377 . S
Gd136 O158 2.448 . S
Gd136 O159 2.506 . S
Gd136 O160 2.435 1_545 S
Gd136 O161 2.717 1_545 S
Gd136 O163 2.395 1_544 S
Gd136 O167 2.327 1_554 S
Gd137 C148 2.818 1_545 S
Gd137 O157 2.395 1_556 S
Gd137 O161 2.327 1_546 S
Gd137 O162 2.377 1_545 S
Gd137 O164 2.448 1_545 S
Gd137 O165 2.506 1_545 S
Gd137 O166 2.435 . S
Gd137 O167 2.717 . S
C138 O156 1.240 . S
C138 O157 1.240 . S
C139 Gd136 2.818 . S
C139 C140 1.510 . S
C139 O158 1.249 . S
C139 O159 1.252 . S
C140 C139 1.510 . S
C140 C141 1.404 . S
C140 C142 1.352 . S
C141 C140 1.404 . S
C141 C145 1.389 . S
C141 H168 0.930 . S
C142 C140 1.352 . S
C142 C144 1.374 . S
C142 H169 0.931 . S
C143 C144 1.359 . S
C143 C145 1.364 . S
C144 C142 1.374 . S
C144 C143 1.359 . S
C144 H170 0.931 . S
C145 C141 1.389 . S
C145 C143 1.364 . S
C145 H171 0.931 . S
C146 O160 1.256 . S
C146 O161 1.257 . S
C147 O162 1.240 . S
C147 O163 1.240 . S
C148 Gd137 2.818 1_565 S
C148 C149 1.510 . S
C148 O164 1.249 . S
C148 O165 1.252 . S
C149 C148 1.510 . S
C149 C150 1.404 . S
C149 C151 1.352 . S
C150 C149 1.404 . S
C150 C154 1.389 . S
C150 H172 0.930 . S
C151 C149 1.352 . S
C151 C153 1.374 . S
C151 H173 0.931 . S
C152 C153 1.359 . S
C152 C154 1.364 . S
C153 C151 1.374 . S
C153 C152 1.359 . S
C153 H174 0.931 . S
C154 C150 1.389 . S
C154 C152 1.364 . S
C154 H175 0.931 . S
C155 O166 1.256 . S
C155 O167 1.257 . S
O156 Gd136 2.377 . S
O156 C138 1.240 . S
O157 Gd137 2.395 1_554 S
O157 C138 1.240 . S
O158 Gd136 2.448 . S
O158 C139 1.249 . S
O159 Gd136 2.506 . S
O159 C139 1.252 . S
O160 Gd136 2.435 1_565 S
O160 C146 1.256 . S
O161 Gd136 2.717 1_565 S
O161 Gd137 2.327 1_564 S
O161 C146 1.257 . S
O162 Gd137 2.377 1_565 S
O162 C147 1.240 . S
O163 Gd136 2.395 1_566 S
O163 C147 1.240 . S
O164 Gd137 2.448 1_565 S
O164 C148 1.249 . S
O165 Gd137 2.506 1_565 S
O165 C148 1.252 . S
O166 Gd137 2.435 . S
O166 C155 1.256 . S
O167 Gd136 2.327 1_556 S
O167 Gd137 2.717 . S
O167 C155 1.257 . S
H168 C141 0.930 . S
H169 C142 0.931 . S
H170 C144 0.931 . S
H171 C145 0.931 . S
H172 C150 0.930 . S
H173 C151 0.931 . S
H174 C153 0.931 . S
H175 C154 0.931 . S
Gd176 C179 2.818 . S
Gd176 O196 2.377 . S
Gd176 O198 2.448 . S
Gd176 O199 2.506 . S
Gd176 O200 2.435 . S
Gd176 O201 2.717 . S
Gd176 O203 2.395 . S
Gd176 O207 2.327 . S
Gd177 C188 2.818 . S
Gd177 O197 2.395 . S
Gd177 O201 2.327 . S
Gd177 O202 2.377 . S
Gd177 O204 2.448 . S
Gd177 O205 2.506 . S
Gd177 O206 2.435 . S
Gd177 O207 2.717 . S
C178 O196 1.240 . S
C178 O197 1.240 . S
C179 Gd176 2.818 . S
C179 C180 1.510 . S
C179 O198 1.249 . S
C179 O199 1.252 . S
C180 C179 1.510 . S
C180 C181 1.404 . S
C180 C182 1.352 . S
C181 C180 1.404 . S
C181 C185 1.389 . S
C181 H208 0.930 . S
C182 C180 1.352 . S
C182 C184 1.374 . S
C182 H209 0.931 . S
C183 C184 1.359 . S
C183 C185 1.364 . S
C184 C182 1.374 . S
C184 C183 1.359 . S
C184 H210 0.931 . S
C185 C181 1.389 . S
C185 C183 1.364 . S
C185 H211 0.931 . S
C186 O200 1.256 . S
C186 O201 1.257 . S
C187 O202 1.240 . S
C187 O203 1.240 . S
C188 Gd177 2.818 . S
C188 C189 1.510 . S
C188 O204 1.249 . S
C188 O205 1.252 . S
C189 C188 1.510 . S
C189 C190 1.404 . S
C189 C191 1.352 . S
C190 C189 1.404 . S
C190 C194 1.389 . S
C190 H212 0.930 . S
C191 C189 1.352 . S
C191 C193 1.374 . S
C191 H213 0.931 . S
C192 C193 1.359 . S
C192 C194 1.364 . S
C193 C191 1.374 . S
C193 C192 1.359 . S
C193 H214 0.931 . S
C194 C190 1.389 . S
C194 C192 1.364 . S
C194 H215 0.931 . S
C195 O206 1.256 . S
C195 O207 1.257 . S
O196 Gd176 2.377 . S
O196 C178 1.240 . S
O197 Gd177 2.395 . S
O197 C178 1.240 . S
O198 Gd176 2.448 . S
O198 C179 1.249 . S
O199 Gd176 2.506 . S
O199 C179 1.252 . S
O200 Gd176 2.435 . S
O200 C186 1.256 . S
O201 Gd176 2.717 . S
O201 Gd177 2.327 . S
O201 C186 1.257 . S
O202 Gd177 2.377 . S
O202 C187 1.240 . S
O203 Gd176 2.395 . S
O203 C187 1.240 . S
O204 Gd177 2.448 . S
O204 C188 1.249 . S
O205 Gd177 2.506 . S
O205 C188 1.252 . S
O206 Gd177 2.435 . S
O206 C195 1.256 . S
O207 Gd176 2.327 . S
O207 Gd177 2.717 . S
O207 C195 1.257 . S
H208 C181 0.930 . S
H209 C182 0.931 . S
H210 C184 0.931 . S
H211 C185 0.931 . S
H212 C190 0.930 . S
H213 C191 0.931 . S
H214 C193 0.931 . S
H215 C194 0.931 . S
Gd216 C219 2.818 . S
Gd216 O236 2.377 . S
Gd216 O238 2.448 . S
Gd216 O239 2.506 . S
Gd216 O240 2.435 1_455 S
Gd216 O241 2.717 1_455 S
Gd216 O243 2.386 1_454 S
Gd216 O247 2.327 1_554 S
Gd217 C228 2.818 1_455 S
Gd217 O237 2.395 1_556 S
Gd217 O241 2.327 1_456 S
Gd217 O242 2.377 1_455 S
Gd217 O244 2.448 1_455 S
Gd217 O245 2.506 1_455 S
Gd217 O246 2.435 . S
Gd217 O247 2.717 . S
C218 O236 1.240 . S
C218 O237 1.240 . S
C219 Gd216 2.818 . S
C219 C220 1.510 . S
C219 O238 1.249 . S
C219 O239 1.252 . S
C220 C219 1.510 . S
C220 C221 1.404 . S
C220 C222 1.352 . S
C221 C220 1.404 . S
C221 C225 1.389 . S
C221 H248 0.930 . S
C222 C220 1.352 . S
C222 C224 1.374 . S
C222 H249 0.931 . S
C223 C224 1.359 . S
C223 C225 1.364 . S
C224 C222 1.374 . S
C224 C223 1.359 . S
C224 H250 0.931 . S
C225 C221 1.389 . S
C225 C223 1.364 . S
C225 H251 0.931 . S
C226 O240 1.256 . S
C226 O241 1.257 . S
C227 O242 1.240 . S
C227 O243 1.253 . S
C228 Gd217 2.818 1_655 S
C228 C229 1.510 . S
C228 O244 1.249 . S
C228 O245 1.252 . S
C229 C228 1.510 . S
C229 C230 1.404 . S
C229 C231 1.352 . S
C230 C229 1.404 . S
C230 C234 1.389 . S
C230 H252 0.930 . S
C231 C229 1.352 . S
C231 C233 1.374 . S
C231 H253 0.931 . S
C232 C233 1.359 . S
C232 C234 1.364 . S
C233 C231 1.374 . S
C233 C232 1.359 . S
C233 H254 0.931 . S
C234 C230 1.389 . S
C234 C232 1.364 . S
C234 H255 0.931 . S
C235 O246 1.256 . S
C235 O247 1.257 . S
O236 Gd216 2.377 . S
O236 C218 1.240 . S
O237 Gd217 2.395 1_554 S
O237 C218 1.240 . S
O238 Gd216 2.448 . S
O238 C219 1.249 . S
O239 Gd216 2.506 . S
O239 C219 1.252 . S
O240 Gd216 2.435 1_655 S
O240 C226 1.256 . S
O241 Gd216 2.717 1_655 S
O241 Gd217 2.327 1_654 S
O241 C226 1.257 . S
O242 Gd217 2.377 1_655 S
O242 C227 1.240 . S
O243 Gd216 2.386 1_656 S
O243 C227 1.253 . S
O244 Gd217 2.448 1_655 S
O244 C228 1.249 . S
O245 Gd217 2.506 1_655 S
O245 C228 1.252 . S
O246 Gd217 2.435 . S
O246 C235 1.256 . S
O247 Gd216 2.327 1_556 S
O247 Gd217 2.717 . S
O247 C235 1.257 . S
H248 C221 0.930 . S
H249 C222 0.931 . S
H250 C224 0.931 . S
H251 C225 0.931 . S
H252 C230 0.930 . S
H253 C231 0.931 . S
H254 C233 0.931 . S
H255 C234 0.931 . S
C256 C257 1.369 . S
C256 C258 1.419 . S
C256 H260 0.930 . S
C257 C256 1.369 . S
C257 C266 1.429 . S
C258 C256 1.419 . S
C258 C259 1.363 . S
C258 H261 0.929 . S
C259 C258 1.363 . S
C259 C265 1.428 . S
H260 C256 0.930 . S
H261 C258 0.929 . S
S262 N263 1.613 . S
S262 N264 1.610 . S
N263 S262 1.613 . S
N263 C266 1.350 . S
N264 S262 1.610 . S
N264 C265 1.351 . S
C265 C259 1.428 . S
C265 N264 1.351 . S
C265 C266 1.434 . S
C266 C257 1.429 . S
C266 N263 1.350 . S
C266 C265 1.434 . S
C267 C268 1.369 . S
C267 C269 1.419 . S
C267 H271 0.930 . S
C268 C267 1.369 . S
C268 C277 1.429 . S
C269 C267 1.419 . S
C269 C270 1.363 . S
C269 H272 0.929 . S
C270 C269 1.363 . S
C270 C276 1.428 . S
H271 C267 0.930 . S
H272 C269 0.929 . S
S273 N274 1.613 . S
S273 N275 1.610 . S
N274 S273 1.613 . S
N274 C277 1.350 . S
N275 S273 1.610 . S
N275 C276 1.351 . S
C276 C270 1.428 . S
C276 N275 1.351 . S
C276 C277 1.434 . S
C277 C268 1.429 . S
C277 N274 1.350 . S
C277 C276 1.434 . S
C278 C279 1.369 . S
C278 C280 1.419 . S
C278 H282 0.930 . S
C279 C278 1.369 . S
C279 C288 1.429 . S
C280 C278 1.419 . S
C280 C281 1.363 . S
C280 H283 0.929 . S
C281 C280 1.363 . S
C281 C287 1.428 . S
H282 C278 0.930 . S
H283 C280 0.929 . S
S284 N285 1.613 . S
S284 N286 1.610 . S
N285 S284 1.613 . S
N285 C288 1.350 . S
N286 S284 1.610 . S
N286 C287 1.351 . S
C287 C281 1.428 . S
C287 N286 1.351 . S
C287 C288 1.434 . S
C288 C279 1.429 . S
C288 N285 1.350 . S
C288 C287 1.434 . S
C289 C290 1.369 . S
C289 C291 1.419 . S
C289 H293 0.930 . S
C290 C289 1.369 . S
C290 C299 1.429 . S
C291 C289 1.419 . S
C291 C292 1.363 . S
C291 H294 0.929 . S
C292 C291 1.363 . S
C292 C298 1.428 . S
H293 C289 0.930 . S
H294 C291 0.929 . S
S295 N296 1.613 . S
S295 N297 1.610 . S
N296 S295 1.613 . S
N296 C299 1.350 . S
N297 S295 1.610 . S
N297 C298 1.351 . S
C298 C292 1.428 . S
C298 N297 1.351 . S
C298 C299 1.434 . S
C299 C290 1.429 . S
C299 N296 1.350 . S
C299 C298 1.434 . S
C300 C301 1.369 . S
C300 C302 1.419 . S
C300 H304 0.930 . S
C301 C300 1.369 . S
C301 C310 1.429 . S
C302 C300 1.419 . S
C302 C303 1.363 . S
C302 H305 0.929 . S
C303 C302 1.363 . S
C303 C309 1.428 . S
H304 C300 0.930 . S
H305 C302 0.929 . S
S306 N307 1.613 . S
S306 N308 1.610 . S
N307 S306 1.613 . S
N307 C310 1.350 . S
N308 S306 1.610 . S
N308 C309 1.351 . S
C309 C303 1.428 . S
C309 N308 1.351 . S
C309 C310 1.434 . S
C310 C301 1.429 . S
C310 N307 1.350 . S
C310 C309 1.434 . S
C311 C312 1.369 . S
C311 C313 1.419 . S
C311 H315 0.930 . S
C312 C311 1.369 . S
C312 C321 1.429 . S
C313 C311 1.419 . S
C313 C314 1.363 . S
C313 H316 0.929 . S
C314 C313 1.363 . S
C314 C320 1.428 . S
H315 C311 0.930 . S
H316 C313 0.929 . S
S317 N318 1.613 . S
S317 N319 1.610 . S
N318 S317 1.613 . S
N318 C321 1.350 . S
N319 S317 1.610 . S
N319 C320 1.351 . S
C320 C314 1.428 . S
C320 N319 1.351 . S
C320 C321 1.434 . S
C321 C312 1.429 . S
C321 N318 1.350 . S
C321 C320 1.434 . S
C322 C323 1.369 . S
C322 C324 1.419 . S
C322 H326 0.930 . S
C323 C322 1.369 . S
C323 C332 1.429 . S
C324 C322 1.419 . S
C324 C325 1.363 . S
C324 H327 0.929 . S
C325 C324 1.363 . S
C325 C331 1.428 . S
H326 C322 0.930 . S
H327 C324 0.929 . S
S328 N329 1.613 1_554 S
S328 N330 1.610 . S
N329 S328 1.613 1_556 S
N329 C332 1.350 . S
N330 S328 1.610 . S
N330 C331 1.351 1_554 S
C331 C325 1.428 . S
C331 N330 1.351 1_556 S
C331 C332 1.434 . S
C332 C323 1.429 . S
C332 N329 1.350 . S
C332 C331 1.434 . S
C333 C334 1.369 . S
C333 C335 1.419 . S
C333 H337 0.930 . S
C334 C333 1.369 . S
C334 C343 1.429 . S
C335 C333 1.419 . S
C335 C336 1.363 . S
C335 H338 0.929 . S
C336 C335 1.363 . S
C336 C342 1.428 . S
H337 C333 0.930 . S
H338 C335 0.929 . S
S339 N340 1.613 . S
S339 N341 1.610 . S
N340 S339 1.613 . S
N340 C343 1.350 . S
N341 S339 1.610 . S
N341 C342 1.351 . S
C342 C336 1.428 . S
C342 N341 1.351 . S
C342 C343 1.434 . S
C343 C334 1.429 . S
C343 N340 1.350 . S
C343 C342 1.434 . S
C344 C345 1.369 . S
C344 C346 1.419 . S
C344 H348 0.930 . S
C345 C344 1.369 . S
C345 C354 1.429 . S
C346 C344 1.419 . S
C346 C347 1.363 . S
C346 H349 0.929 . S
C347 C346 1.363 . S
C347 C353 1.428 . S
H348 C344 0.930 . S
H349 C346 0.929 . S
S350 N351 1.613 . S
S350 N352 1.610 . S
N351 S350 1.613 . S
N351 C354 1.350 . S
N352 S350 1.610 . S
N352 C353 1.351 . S
C353 C347 1.428 . S
C353 N352 1.351 . S
C353 C354 1.434 . S
C354 C345 1.429 . S
C354 N351 1.350 . S
C354 C353 1.434 . S
C355 C356 1.369 . S
C355 C357 1.419 . S
C355 H359 0.930 . S
C356 C355 1.369 . S
C356 C365 1.429 . S
C357 C355 1.419 . S
C357 C358 1.363 . S
C357 H360 0.929 . S
C358 C357 1.363 . S
C358 C364 1.428 . S
H359 C355 0.930 . S
H360 C357 0.929 . S
S361 N362 1.613 1_554 S
S361 N363 1.610 . S
N362 S361 1.613 1_556 S
N362 C365 1.350 . S
N363 S361 1.610 . S
N363 C364 1.351 1_554 S
C364 C358 1.428 . S
C364 N363 1.351 1_556 S
C364 C365 1.434 . S
C365 C356 1.429 . S
C365 N362 1.350 . S
C365 C364 1.434 . S
C366 C367 1.369 . S
C366 C368 1.419 . S
C366 H370 0.930 . S
C367 C366 1.369 . S
C367 C376 1.429 . S
C368 C366 1.419 . S
C368 C369 1.363 . S
C368 H371 0.929 . S
C369 C368 1.363 . S
C369 C375 1.428 . S
H370 C366 0.930 . S
H371 C368 0.929 . S
S372 N373 1.613 . S
S372 N374 1.610 . S
N373 S372 1.613 . S
N373 C376 1.350 . S
N374 S372 1.610 . S
N374 C375 1.351 . S
C375 C369 1.428 . S
C375 N374 1.351 . S
C375 C376 1.434 . S
C376 C367 1.429 . S
C376 N373 1.350 . S
C376 C375 1.434 . S
C377 C378 1.369 . S
C377 C379 1.419 . S
C377 H381 0.930 . S
C378 C377 1.369 . S
C378 C387 1.429 . S
C379 C377 1.419 . S
C379 C380 1.363 . S
C379 H382 0.929 . S
C380 C379 1.363 . S
C380 C386 1.428 . S
H381 C377 0.930 . S
H382 C379 0.929 . S
S383 N384 1.613 . S
S383 N385 1.610 . S
N384 S383 1.613 . S
N384 C387 1.350 . S
N385 S383 1.610 . S
N385 C386 1.351 . S
C386 C380 1.428 . S
C386 N385 1.351 . S
C386 C387 1.434 . S
C387 C378 1.429 . S
C387 N384 1.350 . S
C387 C386 1.434 . S
C388 C389 1.369 . S
C388 C390 1.419 . S
C388 H392 0.930 . S
C389 C388 1.369 . S
C389 C398 1.429 . S
C390 C388 1.419 . S
C390 C391 1.363 . S
C390 H393 0.929 . S
C391 C390 1.363 . S
C391 C397 1.428 . S
H392 C388 0.930 . S
H393 C390 0.929 . S
S394 N395 1.613 . S
S394 N396 1.610 . S
N395 S394 1.613 . S
N395 C398 1.350 . S
N396 S394 1.610 . S
N396 C397 1.351 . S
C397 C391 1.428 . S
C397 N396 1.351 . S
C397 C398 1.434 . S
C398 C389 1.429 . S
C398 N395 1.350 . S
C398 C397 1.434 . S
C399 C400 1.369 . S
C399 C401 1.419 . S
C399 H403 0.930 . S
C400 C399 1.369 . S
C400 C409 1.429 . S
C401 C399 1.419 . S
C401 C402 1.363 . S
C401 H404 0.929 . S
C402 C401 1.363 . S
C402 C408 1.428 . S
H403 C399 0.930 . S
H404 C401 0.929 . S
S405 N406 1.613 . S
S405 N407 1.610 . S
N406 S405 1.613 . S
N406 C409 1.350 . S
N407 S405 1.610 . S
N407 C408 1.351 . S
C408 C402 1.428 . S
C408 N407 1.351 . S
C408 C409 1.434 . S
C409 C400 1.429 . S
C409 N406 1.350 . S
C409 C408 1.434 . S
C410 C411 1.369 . S
C410 C412 1.419 . S
C410 H414 0.930 . S
C411 C410 1.369 . S
C411 C420 1.429 . S
C412 C410 1.419 . S
C412 C413 1.363 . S
C412 H415 0.929 . S
C413 C412 1.363 . S
C413 C419 1.428 . S
H414 C410 0.930 . S
H415 C412 0.929 . S
S416 N417 1.613 . S
S416 N418 1.610 . S
N417 S416 1.613 . S
N417 C420 1.350 . S
N418 S416 1.610 . S
N418 C419 1.351 . S
C419 C413 1.428 . S
C419 N418 1.351 . S
C419 C420 1.434 . S
C420 C411 1.429 . S
C420 N417 1.350 . S
C420 C419 1.434 . S
C421 C422 1.369 . S
C421 C423 1.419 . S
C421 H425 0.930 . S
C422 C421 1.369 . S
C422 C431 1.429 . S
C423 C421 1.419 . S
C423 C424 1.363 . S
C423 H426 0.929 . S
C424 C423 1.363 . S
C424 C430 1.428 . S
H425 C421 0.930 . S
H426 C423 0.929 . S
S427 N428 1.613 . S
S427 N429 1.610 . S
N428 S427 1.613 . S
N428 C431 1.350 . S
N429 S427 1.610 . S
N429 C430 1.351 . S
C430 C424 1.428 . S
C430 N429 1.351 . S
C430 C431 1.434 . S
C431 C422 1.429 . S
C431 N428 1.350 . S
C431 C430 1.434 . S
C432 C433 1.369 . S
C432 C434 1.419 . S
C432 H436 0.930 . S
C433 C432 1.369 . S
C433 C442 1.429 . S
C434 C432 1.419 . S
C434 C435 1.363 . S
C434 H437 0.929 . S
C435 C434 1.363 . S
C435 C441 1.428 . S
H436 C432 0.930 . S
H437 C434 0.929 . S
S438 N439 1.613 . S
S438 N440 1.610 . S
N439 S438 1.613 . S
N439 C442 1.350 . S
N440 S438 1.610 . S
N440 C441 1.351 . S
C441 C435 1.428 . S
C441 N440 1.351 . S
C441 C442 1.434 . S
C442 C433 1.429 . S
C442 N439 1.350 . S
C442 C441 1.434 . S
C443 C444 1.369 . S
C443 C445 1.419 . S
C443 H447 0.930 . S
C444 C443 1.369 . S
C444 C453 1.429 . S
C445 C443 1.419 . S
C445 C446 1.363 . S
C445 H448 0.929 . S
C446 C445 1.363 . S
C446 C452 1.428 . S
H447 C443 0.930 . S
H448 C445 0.929 . S
S449 N450 1.613 . S
S449 N451 1.610 . S
N450 S449 1.613 . S
N450 C453 1.350 . S
N451 S449 1.610 . S
N451 C452 1.351 . S
C452 C446 1.428 . S
C452 N451 1.351 . S
C452 C453 1.434 . S
C453 C444 1.429 . S
C453 N450 1.350 . S
C453 C452 1.434 . S
C454 C455 1.369 . S
C454 C456 1.419 . S
C454 H458 0.930 . S
C455 C454 1.369 . S
C455 C464 1.429 . S
C456 C454 1.419 . S
C456 C457 1.363 . S
C456 H459 0.929 . S
C457 C456 1.363 . S
C457 C463 1.428 . S
H458 C454 0.930 . S
H459 C456 0.929 . S
S460 N461 1.613 . S
S460 N462 1.610 . S
N461 S460 1.613 . S
N461 C464 1.350 . S
N462 S460 1.610 . S
N462 C463 1.351 . S
C463 C457 1.428 . S
C463 N462 1.351 . S
C463 C464 1.434 . S
C464 C455 1.429 . S
C464 N461 1.350 . S
C464 C463 1.434 . S
C465 C466 1.369 . S
C465 C467 1.419 . S
C465 H469 0.930 . S
C466 C465 1.369 . S
C466 C475 1.429 . S
C467 C465 1.419 . S
C467 C468 1.363 . S
C467 H470 0.929 . S
C468 C467 1.363 . S
C468 C474 1.428 . S
H469 C465 0.930 . S
H470 C467 0.929 . S
S471 N472 1.613 . S
S471 N473 1.610 . S
N472 S471 1.613 . S
N472 C475 1.350 . S
N473 S471 1.610 . S
N473 C474 1.351 . S
C474 C468 1.428 . S
C474 N473 1.351 . S
C474 C475 1.434 . S
C475 C466 1.429 . S
C475 N472 1.350 . S
C475 C474 1.434 . S
C476 C477 1.369 . S
C476 C478 1.419 . S
C476 H480 0.930 . S
C477 C476 1.369 . S
C477 C486 1.429 . S
C478 C476 1.419 . S
C478 C479 1.363 . S
C478 H481 0.929 . S
C479 C478 1.363 . S
C479 C485 1.428 . S
H480 C476 0.930 . S
H481 C478 0.929 . S
S482 N483 1.613 . S
S482 N484 1.610 . S
N483 S482 1.613 . S
N483 C486 1.350 . S
N484 S482 1.610 . S
N484 C485 1.351 . S
C485 C479 1.428 . S
C485 N484 1.351 . S
C485 C486 1.434 . S
C486 C477 1.429 . S
C486 N483 1.350 . S
C486 C485 1.434 . S
C487 C488 1.369 . S
C487 C489 1.419 . S
C487 H491 0.930 . S
C488 C487 1.369 . S
C488 C497 1.429 . S
C489 C487 1.419 . S
C489 C490 1.363 . S
C489 H492 0.929 . S
C490 C489 1.363 . S
C490 C496 1.428 . S
H491 C487 0.930 . S
H492 C489 0.929 . S
S493 N494 1.613 . S
S493 N495 1.610 . S
N494 S493 1.613 . S
N494 C497 1.350 . S
N495 S493 1.610 . S
N495 C496 1.351 . S
C496 C490 1.428 . S
C496 N495 1.351 . S
C496 C497 1.434 . S
C497 C488 1.429 . S
C497 N494 1.350 . S
C497 C496 1.434 . S
C498 C499 1.369 . S
C498 C500 1.419 . S
C498 H502 0.930 . S
C499 C498 1.369 . S
C499 C508 1.429 . S
C500 C498 1.419 . S
C500 C501 1.363 . S
C500 H503 0.929 . S
C501 C500 1.363 . S
C501 C507 1.428 . S
H502 C498 0.930 . S
H503 C500 0.929 . S
S504 N505 1.613 . S
S504 N506 1.610 . S
N505 S504 1.613 . S
N505 C508 1.350 . S
N506 S504 1.610 . S
N506 C507 1.351 . S
C507 C501 1.428 . S
C507 N506 1.351 . S
C507 C508 1.434 . S
C508 C499 1.429 . S
C508 N505 1.350 . S
C508 C507 1.434 . S
C509 C510 1.369 . S
C509 C511 1.419 . S
C509 H513 0.930 . S
C510 C509 1.369 . S
C510 C519 1.429 . S
C511 C509 1.419 . S
C511 C512 1.363 . S
C511 H514 0.929 . S
C512 C511 1.363 . S
C512 C518 1.428 . S
H513 C509 0.930 . S
H514 C511 0.929 . S
S515 N516 1.613 . S
S515 N517 1.610 . S
N516 S515 1.613 . S
N516 C519 1.350 . S
N517 S515 1.610 . S
N517 C518 1.351 . S
C518 C512 1.428 . S
C518 N517 1.351 . S
C518 C519 1.434 . S
C519 C510 1.429 . S
C519 N516 1.350 . S
C519 C518 1.434 . S
C257 C6 1.060 . S
C259 C103 1.093 . S
C268 C18 1.285 . S
C270 C152 1.272 . S
C281 C178 2.577 . S
C279 C28 2.629 . S
C290 C40 1.959 . S
C292 C226 1.917 . S
C303 C138 2.225 . S
C301 C9 2.061 . S
C314 C106 1.005 . S
C312 C16 0.992 . S
C325 C227 1.937 . S
C323 C30 1.958 . S
C336 C195 1.450 . S
C334 C42 1.476 . S
C345 C4 1.505 . S
C347 C223 1.555 . S
C358 C155 2.517 . S
C356 C33 2.588 . S
C367 C45 2.108 . S
C369 C107 2.104 . S
C378 C21 1.238 . S
C380 C192 1.281 . S
C391 C112 1.101 . S
C389 C57 1.093 . S
C400 C66 1.320 . S
C402 C143 1.310 . S
C411 C76 2.678 . S
C413 C187 2.618 . S
C422 C88 1.900 . S
C424 C235 1.867 . S
C433 C54 2.054 . S
C435 C147 2.222 . S
C446 C115 1.108 . S
C444 C64 1.130 . S
C457 C218 1.862 . S
C455 C78 1.902 . S
C468 C186 1.497 . S
C466 C93 1.520 . S
C477 C52 1.472 . S
C479 C232 1.582 . S
C490 C146 2.503 . S
C488 C81 2.579 . S
C501 C98 2.089 . S
C499 C90 2.088 . S
C510 C69 1.223 . S
C512 C183 1.276 . S
