# Generated by pormake.
# Topology anh, (6,3)-cn, num edge types: 1
# Building blocks:
#     Node 0, Type 0, BuildingBlock: BETDEL_clean_sbu_0, # of connection points: 6
#     Node 1, Type 0, BuildingBlock: BETDEL_clean_sbu_0, # of connection points: 6
#     Node 2, Type 0, BuildingBlock: BETDEL_clean_sbu_0, # of connection points: 6
#     Node 3, Type 1, BuildingBlock: BETDIP_clean_linker_0, # of connection points: 3
#     Node 4, Type 1, BuildingBlock: BETDIP_clean_linker_0, # of connection points: 3
#     Node 5, Type 1, BuildingBlock: BETDIP_clean_linker_0, # of connection points: 3
#     Node 6, Type 1, BuildingBlock: BETDIP_clean_linker_0, # of connection points: 3
#     Node 7, Type 1, BuildingBlock: BETDIP_clean_linker_0, # of connection points: 3
#     Node 8, Type 1, BuildingBlock: BETDIP_clean_linker_0, # of connection points: 3
#     Edge 9, Type (0, 1), BuildingBlock: XUDNAN_clean_linker_2, # of connection points: 2
#     Edge 10, Type (0, 1), BuildingBlock: XUDNAN_clean_linker_2, # of connection points: 2
#     Edge 11, Type (0, 1), BuildingBlock: XUDNAN_clean_linker_2, # of connection points: 2
#     Edge 12, Type (0, 1), BuildingBlock: XUDNAN_clean_linker_2, # of connection points: 2
#     Edge 13, Type (0, 1), BuildingBlock: XUDNAN_clean_linker_2, # of connection points: 2
#     Edge 14, Type (0, 1), BuildingBlock: XUDNAN_clean_linker_2, # of connection points: 2
#     Edge 15, Type (0, 1), BuildingBlock: XUDNAN_clean_linker_2, # of connection points: 2
#     Edge 16, Type (0, 1), BuildingBlock: XUDNAN_clean_linker_2, # of connection points: 2
#     Edge 17, Type (0, 1), BuildingBlock: XUDNAN_clean_linker_2, # of connection points: 2
#     Edge 18, Type (0, 1), BuildingBlock: XUDNAN_clean_linker_2, # of connection points: 2
#     Edge 19, Type (0, 1), BuildingBlock: XUDNAN_clean_linker_2, # of connection points: 2
#     Edge 20, Type (0, 1), BuildingBlock: XUDNAN_clean_linker_2, # of connection points: 2
#     Edge 21, Type (0, 1), BuildingBlock: XUDNAN_clean_linker_2, # of connection points: 2
#     Edge 22, Type (0, 1), BuildingBlock: XUDNAN_clean_linker_2, # of connection points: 2
#     Edge 23, Type (0, 1), BuildingBlock: XUDNAN_clean_linker_2, # of connection points: 2
#     Edge 24, Type (0, 1), BuildingBlock: XUDNAN_clean_linker_2, # of connection points: 2
#     Edge 25, Type (0, 1), BuildingBlock: XUDNAN_clean_linker_2, # of connection points: 2
#     Edge 26, Type (0, 1), BuildingBlock: XUDNAN_clean_linker_2, # of connection points: 2
# Relax obj value: 0.107
# Max RMSD: 0.163
# Mean RMSD: 0.118
data_MOF--net-anh--node1-BETDEL_clean_sbu_0--node2-BETDIP_clean_linker_0--edge1-XUDNAN_clean_linker_2
_symmetry_space_group_name_H-M    P1
_symmetry_Int_Tables_number       1
_symmetry_cell_setting            triclinic
loop_
_symmetry_equiv_pos_as_xyz
'x, y, z'
_cell_length_a     30.206603
_cell_length_b     29.84417
_cell_length_c     47.906209
_cell_angle_alpha  91.297897
_cell_angle_beta   90.362311
_cell_angle_gamma 119.43611
loop_
_atom_site_label
_atom_site_type_symbol
_atom_site_fract_x
_atom_site_fract_y
_atom_site_fract_z
_atom_type_partial_charge
Dy0 Dy 0.10678 0.52371 0.1686 0.0
C1 C 0.99109 0.61676 0.17817 0.0
C2 C 0.17781 0.494 0.16858 0.0
Dy3 Dy 0.05359 0.58071 0.16268 0.0
O4 O 0.16221 0.50751 0.19058 0.0
O5 O 0.15227 0.49375 0.14663 0.0
O6 O 0.06643 0.49433 0.20857 0.0
O7 O 0.09265 0.57133 0.19804 0.0
C8 C 0.06985 0.53793 0.21612 0.0
C9 C 0.06678 0.56004 0.11012 0.0
O10 O 0.13012 0.65061 0.16733 0.0
O11 O 0.17407 0.60562 0.1663 0.0
O12 O 0.02687 0.63801 0.16002 0.0
O13 O 0.99148 0.57724 0.18862 0.0
O14 O 0.04516 0.58668 0.11726 0.0
O15 O 0.08194 0.54612 0.13129 0.0
O16 O 0.03062 0.45342 0.15966 0.0
O17 O 0.98751 0.49906 0.16352 0.0
C18 C 0.17349 0.64991 0.16683 0.0
C19 C 0.98742 0.45469 0.16083 0.0
Dy20 Dy 0.44628 1.00734 0.49542 0.0
C21 C 0.66207 0.14662 0.51678 0.0
C22 C 0.34841 0.93518 0.48939 0.0
Dy23 Dy 0.56951 0.07814 0.49609 0.0
O24 O 0.37917 0.93748 0.50895 0.0
O25 O 0.37121 0.97272 0.47208 0.0
O26 O 0.43946 1.00984 0.54301 0.0
O27 O 0.50783 0.04766 0.52371 0.0
C28 C 0.48804 0.03829 0.54707 0.0
C29 C 0.53191 0.04873 0.44363 0.0
O30 O 0.55712 1.00161 0.50975 0.0
O31 O 0.47618 0.95119 0.48972 0.0
O32 O 0.65258 0.10509 0.50246 0.0
O33 O 0.62114 0.14993 0.5195 0.0
O34 O 0.58009 0.07841 0.44941 0.0
O35 O 0.50825 0.03732 0.4662 0.0
O36 O 0.45348 0.08569 0.48995 0.0
O37 O 0.5425 0.13644 0.4951 0.0
C38 C 0.51876 0.95626 0.50126 0.0
C39 C 0.49628 0.13105 0.49193 0.0
Dy40 Dy 0.59812 0.57716 0.8302 0.0
C41 C 0.51422 0.36827 0.84327 0.0
C42 C 0.62279 0.67764 0.83094 0.0
Dy43 Dy 0.54388 0.46504 0.82712 0.0
O44 O 0.6206 0.65162 0.85251 0.0
O45 O 0.61449 0.6495 0.80836 0.0
O46 O 0.62489 0.57272 0.87324 0.0
O47 O 0.5509 0.51881 0.85999 0.0
C48 C 0.58272 0.53281 0.87993 0.0
C49 C 0.55978 0.49191 0.7735 0.0
O50 O 0.47382 0.47301 0.83104 0.0
O51 O 0.51659 0.5606 0.82387 0.0
O52 O 0.48754 0.3807 0.82701 0.0
O53 O 0.55581 0.40903 0.85138 0.0
O54 O 0.53921 0.44522 0.78205 0.0
O55 O 0.57387 0.52326 0.79432 0.0
O56 O 0.66871 0.57012 0.82331 0.0
O57 O 0.62521 0.48542 0.83562 0.0
C58 C 0.47359 0.51658 0.82667 0.0
C59 C 0.66867 0.52751 0.83066 0.0
H60 H 0.54174 1.00776 0.16171 0.0
H61 H 0.60529 0.09446 0.23878 0.0
H62 H 0.46757 0.94909 0.23973 0.0
H63 H 0.68231 0.11128 0.21429 0.0
C64 C 0.67256 0.12519 0.19575 0.0
C65 C 0.54082 1.01126 0.18422 0.0
C66 C 0.50024 0.97178 0.19911 0.0
C67 C 0.58067 0.05492 0.19856 0.0
C68 C 0.57708 0.06008 0.22764 0.0
C69 C 0.53632 0.02214 0.24244 0.0
C70 C 0.49937 0.97769 0.22823 0.0
N71 N 0.62236 0.0946 0.18368 0.0
H72 H 0.52218 0.50764 0.49205 0.0
H73 H 0.52949 0.59336 0.56695 0.0
H74 H 0.53984 0.4566 0.57325 0.0
H75 H 0.46385 0.59595 0.53308 0.0
C76 C 0.49465 0.61665 0.51874 0.0
C77 C 0.52678 0.51221 0.51451 0.0
C78 C 0.52912 0.47391 0.53069 0.0
C79 C 0.52767 0.55588 0.52743 0.0
C80 C 0.53068 0.56122 0.55673 0.0
C81 C 0.53423 0.52474 0.57295 0.0
C82 C 0.53538 0.48286 0.55989 0.0
N83 N 0.52522 0.59415 0.51103 0.0
H84 H 0.02835 0.53378 0.82586 0.0
H85 H 0.11916 0.53311 0.89575 0.0
H86 H 0.98355 0.53968 0.91086 0.0
H87 H 0.18368 0.58392 0.86773 0.0
C88 C 0.17076 0.55824 0.84941 0.0
C89 C 0.03576 0.53624 0.84814 0.0
C90 C 0.99953 0.53642 0.86709 0.0
C91 C 0.08095 0.53754 0.85839 0.0
C92 C 0.08733 0.53607 0.8874 0.0
C93 C 0.05296 0.53756 0.90616 0.0
C94 C 1.0104 0.53945 0.89601 0.0
N95 N 0.11874 0.53765 0.84008 0.0
H96 H 0.05138 0.56849 0.49713 0.0
H97 H 0.98199 0.49313 0.41917 0.0
H98 H 0.14436 0.58841 0.4268 0.0
H99 H 0.89844 0.48912 0.45123 0.0
C100 C 0.91826 0.47144 0.4611 0.0
C101 C 0.05574 0.55664 0.47621 0.0
C102 C 0.10175 0.5841 0.46288 0.0
C103 C 1.01256 0.52267 0.46075 0.0
C104 C 1.01616 0.51455 0.4319 0.0
C105 C 0.06392 0.53939 0.41918 0.0
C106 C 0.10735 0.56776 0.43625 0.0
N107 N 0.96562 0.5038 0.47416 0.0
H108 H 0.58397 0.06248 0.81975 0.0
H109 H 0.61421 1.01298 0.7406 0.0
H110 H 0.58872 0.14242 0.74577 0.0
H111 H 0.54005 0.9781 0.82587 0.0
C112 C 0.55895 0.96094 0.81426 0.0
C113 C 0.59113 0.06784 0.79763 0.0
C114 C 0.58725 0.10718 0.78471 0.0
C115 C 0.59974 0.03314 0.78151 0.0
C116 C 0.60885 0.04071 0.75304 0.0
C117 C 0.60544 0.08041 0.74007 0.0
C118 C 0.595 0.1139 0.75601 0.0
N119 N 0.59259 0.98661 0.79236 0.0
H120 H 0.55508 0.56212 0.1578 0.0
H121 H 0.6076 0.50598 0.09055 0.0
H122 H 0.46737 0.50722 0.08051 0.0
H123 H 0.61114 0.4587 0.14861 0.0
C124 C 0.6377 0.49893 0.14503 0.0
C125 C 0.54809 0.54483 0.13701 0.0
C126 C 0.50476 0.5346 0.12129 0.0
C127 C 0.58224 0.5306 0.12683 0.0
C128 C 0.57859 0.51344 0.09903 0.0
C129 C 0.5382 0.50755 0.08199 0.0
C130 C 0.49999 0.51546 0.09354 0.0
N131 N 0.62118 0.53555 0.14491 0.0
H132 H 0.23288 0.50694 0.12226 0.0
H133 H 0.23714 0.49838 0.2125 0.0
H134 H 0.32788 0.5225 0.21092 0.0
H135 H 0.30947 0.45332 0.10712 0.0
H136 H 0.34151 0.49464 0.07857 0.0
H137 H 0.27823 0.48066 0.08717 0.0
H138 H 0.30919 0.57846 0.09272 0.0
H139 H 0.37272 0.59269 0.08414 0.0
H140 H 0.3616 0.61781 0.1163 0.0
H141 H 0.41091 0.5329 0.19874 0.0
H142 H 0.48262 0.53098 0.17758 0.0
H143 H 0.43115 0.54999 0.09564 0.0
C144 C 0.25282 0.50958 0.14163 0.0
C145 C 0.2283 0.49969 0.16742 0.0
C146 C 0.25548 0.50468 0.19249 0.0
C147 C 0.30697 0.51918 0.19184 0.0
C148 C 0.3303 0.52938 0.16603 0.0
C149 C 0.3043 0.52514 0.14142 0.0
C150 C 0.3375 0.53543 0.11635 0.0
C151 C 0.31537 0.48821 0.09613 0.0
C152 C 0.34574 0.58401 0.10152 0.0
C153 C 0.38563 0.54371 0.13066 0.0
C154 C 0.38066 0.54025 0.15928 0.0
C155 C 0.41644 0.53791 0.17649 0.0
C156 C 0.45771 0.53741 0.16403 0.0
C157 C 0.46394 0.54113 0.13458 0.0
C158 C 0.42809 0.54646 0.11803 0.0
H159 H 0.68145 0.2429 0.5277 0.0
H160 H 0.75418 0.15092 0.51188 0.0
H161 H 0.83495 0.23015 0.50306 0.0
H162 H 0.72387 0.3092 0.47131 0.0
H163 H 0.73252 0.37009 0.48447 0.0
H164 H 0.68678 0.31159 0.50007 0.0
H165 H 0.72993 0.3446 0.5487 0.0
H166 H 0.77515 0.4044 0.53358 0.0
H167 H 0.79715 0.36789 0.55306 0.0
H168 H 0.90049 0.31474 0.48653 0.0
H169 H 0.94724 0.39931 0.46431 0.0
H170 H 0.82581 0.43149 0.48434 0.0
C171 C 0.7151 0.23967 0.52389 0.0
C172 C 0.71233 0.19136 0.52071 0.0
C173 C 0.75629 0.18804 0.51476 0.0
C174 C 0.8021 0.23275 0.5097 0.0
C175 C 0.80245 0.27968 0.51049 0.0
C176 C 0.76006 0.28345 0.51764 0.0
C177 C 0.76626 0.33556 0.51126 0.0
C178 C 0.72492 0.33127 0.49055 0.0
C179 C 0.76722 0.36486 0.53826 0.0
C180 C 0.81765 0.35961 0.49804 0.0
C181 C 0.83862 0.32752 0.49861 0.0
C182 C 0.88486 0.34051 0.48633 0.0
C183 C 0.91068 0.38798 0.47352 0.0
C184 C 0.8891 0.42052 0.47243 0.0
C185 C 0.84222 0.40636 0.48471 0.0
H186 H 0.58995 0.71711 0.79009 0.0
H187 H 0.63627 0.73625 0.87748 0.0
H188 H 0.60928 0.80136 0.88411 0.0
H189 H 0.63308 0.84574 0.7767 0.0
H190 H 0.58011 0.83444 0.75433 0.0
H191 H 0.59784 0.78544 0.75743 0.0
H192 H 0.50606 0.72077 0.77203 0.0
H193 H 0.48842 0.77013 0.76925 0.0
H194 H 0.47875 0.73656 0.80139 0.0
H195 H 0.58098 0.86539 0.88131 0.0
H196 H 0.56757 0.93704 0.86705 0.0
H197 H 0.54336 0.87938 0.78131 0.0
C198 C 0.59502 0.73563 0.81048 0.0
C199 C 0.61569 0.72249 0.83321 0.0
C200 C 0.621 0.74653 0.85976 0.0
C201 C 0.60497 0.78274 0.86385 0.0
C202 C 0.58345 0.79394 0.84122 0.0
C203 C 0.57902 0.77172 0.81496 0.0
C204 C 0.55828 0.79367 0.79373 0.0
C205 C 0.59453 0.81621 0.76912 0.0
C206 C 0.5047 0.75285 0.78351 0.0
C207 C 0.55621 0.83485 0.81176 0.0
C208 C 0.56827 0.83241 0.83937 0.0
C209 C 0.57089 0.86755 0.85987 0.0
C210 C 0.56315 0.90783 0.8517 0.0
C211 C 0.5547 0.91294 0.82331 0.0
C212 C 0.54962 0.87548 0.80321 0.0
H213 H 0.90516 0.56018 0.20687 0.0
H214 H 0.97146 0.67568 0.14353 0.0
H215 H 0.88579 0.65463 0.12729 0.0
H216 H 0.80858 0.46762 0.16594 0.0
H217 H 0.76066 0.44428 0.19231 0.0
H218 H 0.82677 0.47319 0.20231 0.0
H219 H 0.81898 0.53971 0.23464 0.0
H220 H 0.75238 0.51 0.22541 0.0
H221 H 0.79325 0.57794 0.22073 0.0
H222 H 0.79609 0.61457 0.11403 0.0
H223 H 0.70261 0.5677 0.10975 0.0
H224 H 0.6937 0.47614 0.18074 0.0
C225 C 0.90161 0.58271 0.19048 0.0
C226 C 0.94451 0.61964 0.17644 0.0
C227 C 0.93882 0.64777 0.15473 0.0
C228 C 0.89042 0.63556 0.14511 0.0
C229 C 0.84883 0.59596 0.15787 0.0
C230 C 0.85365 0.57083 0.18055 0.0
C231 C 0.80264 0.52827 0.18964 0.0
C232 C 0.79954 0.47524 0.18739 0.0
C233 C 0.79111 0.53967 0.21936 0.0
C234 C 0.76858 0.53296 0.1681 0.0
C235 C 0.79627 0.57212 0.14995 0.0
C236 C 0.77377 0.58424 0.12823 0.0
C237 C 0.72102 0.55732 0.12585 0.0
C238 C 0.69206 0.5187 0.14489 0.0
C239 C 0.71574 0.50515 0.16578 0.0
H240 H 0.30789 0.8541 0.52241 0.0
H241 H 0.27677 0.91631 0.44853 0.0
H242 H 0.19767 0.83346 0.4399 0.0
H243 H 0.28455 0.74409 0.49245 0.0
H244 H 0.25643 0.70327 0.52174 0.0
H245 H 0.30037 0.77045 0.52767 0.0
H246 H 0.23338 0.78093 0.55635 0.0
H247 H 0.18921 0.71323 0.55089 0.0
H248 H 0.17127 0.76023 0.54124 0.0
H249 H 0.13183 0.74339 0.43546 0.0
H250 H 0.08707 0.64908 0.43189 0.0
H251 H 0.1687 0.64297 0.50517 0.0
C252 C 0.28338 0.85102 0.50501 0.0
C253 C 0.2975 0.89129 0.48623 0.0
C254 C 0.26568 0.88579 0.46328 0.0
C255 C 0.22079 0.83914 0.4584 0.0
C256 C 0.20911 0.79923 0.47671 0.0
C257 C 0.23959 0.80466 0.49955 0.0
C258 C 0.22462 0.75372 0.51279 0.0
C259 C 0.26914 0.74226 0.51367 0.0
C260 C 0.20333 0.75193 0.54205 0.0
C261 C 0.18335 0.71811 0.49249 0.0
C262 C 0.17356 0.74552 0.4727 0.0
C263 C 0.13904 0.72159 0.45082 0.0
C264 C 0.11473 0.66827 0.44867 0.0
C265 C 0.12679 0.63977 0.46755 0.0
C266 C 0.16004 0.66452 0.4903 0.0
H267 H 0.586 0.34391 0.85819 0.0
H268 H 0.43069 0.27817 0.82718 0.0
H269 H 0.42891 0.19592 0.81677 0.0
H270 H 0.62577 0.29841 0.80542 0.0
H271 H 0.6694 0.28601 0.82516 0.0
H272 H 0.65447 0.33418 0.8375 0.0
H273 H 0.62586 0.28839 0.88458 0.0
H274 H 0.6409 0.2399 0.87242 0.0
H275 H 0.57816 0.22131 0.88485 0.0
H276 H 0.44867 0.12918 0.8013 0.0
H277 H 0.48897 0.0814 0.78123 0.0
H278 H 0.6329 0.19105 0.82028 0.0
C279 C 0.55076 0.3113 0.85059 0.0
C280 C 0.50796 0.31656 0.84407 0.0
C281 C 0.4633 0.27415 0.83289 0.0
C282 C 0.46204 0.22744 0.82692 0.0
C283 C 0.50577 0.22416 0.8323 0.0
C284 C 0.54933 0.26489 0.84401 0.0
C285 C 0.59371 0.25465 0.84333 0.0
C286 C 0.63841 0.29574 0.82687 0.0
C287 C 0.61064 0.2508 0.87307 0.0
C288 C 0.56896 0.20294 0.82805 0.0
C289 C 0.51792 0.18558 0.82252 0.0
C290 C 0.48815 0.14158 0.80609 0.0
C291 C 0.51127 0.11499 0.79466 0.0
C292 C 0.56353 0.13294 0.79953 0.0
C293 C 0.5926 0.1766 0.81685 0.0
H294 H 0.48734 0.86776 0.46783 0.0
H295 H 0.55981 0.93928 0.5474 0.0
H296 H 0.56755 0.86306 0.55838 0.0
H297 H 0.41566 0.73878 0.48905 0.0
H298 H 0.42702 0.70998 0.4584 0.0
H299 H 0.42854 0.77084 0.4562 0.0
H300 H 0.51918 0.81145 0.43638 0.0
H301 H 0.51812 0.7507 0.43871 0.0
H302 H 0.56855 0.80763 0.45569 0.0
H303 H 0.56324 0.77794 0.56238 0.0
H304 H 0.5463 0.68808 0.55923 0.0
H305 H 0.48009 0.67028 0.47648 0.0
C306 C 0.50486 0.8672 0.48751 0.0
C307 C 0.52295 0.90955 0.50683 0.0
C308 C 0.54608 0.9076 0.53223 0.0
C309 C 0.55067 0.86441 0.53865 0.0
C310 C 0.53297 0.82354 0.51921 0.0
C311 C 0.51092 0.82456 0.49403 0.0
C312 C 0.49549 0.77521 0.47691 0.0
C313 C 0.43827 0.74703 0.46974 0.0
C314 C 0.52721 0.78695 0.45034 0.0
C315 C 0.50938 0.74518 0.49717 0.0
C316 C 0.5319 0.77446 0.5212 0.0
C317 C 0.54647 0.75497 0.54349 0.0
C318 C 0.53699 0.70398 0.54148 0.0
C319 C 0.5133 0.67282 0.51738 0.0
C320 C 0.49971 0.69386 0.4948 0.0
H321 H 0.77094 0.58774 0.81173 0.0
H322 H 0.67593 0.46206 0.86563 0.0
H323 H 0.74786 0.44977 0.87684 0.0
H324 H 0.84564 0.52839 0.78593 0.0
H325 H 0.90544 0.58755 0.78551 0.0
H326 H 0.84663 0.58844 0.78052 0.0
H327 H 0.87056 0.65412 0.82172 0.0
H328 H 0.92965 0.65389 0.82664 0.0
H329 H 0.88677 0.63947 0.85531 0.0
H330 H 0.82579 0.44594 0.8817 0.0
H331 H 0.91218 0.45878 0.88524 0.0
H332 H 0.96608 0.58958 0.83119 0.0
C333 C 0.76549 0.55786 0.82595 0.0
C334 C 0.71661 0.52537 0.83734 0.0
C335 C 0.71186 0.48694 0.85596 0.0
C336 C 0.75285 0.47951 0.86263 0.0
C337 C 0.79957 0.51068 0.85069 0.0
C338 C 0.80689 0.54956 0.833 0.0
C339 C 0.86248 0.57725 0.82372 0.0
C340 C 0.86521 0.57 0.79203 0.0
C341 C 0.88893 0.6346 0.83237 0.0
C342 C 0.88488 0.54865 0.83971 0.0
C343 C 0.84688 0.5097 0.8545 0.0
C344 C 0.85603 0.4766 0.87042 0.0
C345 C 0.90549 0.48417 0.87222 0.0
C346 C 0.94659 0.52534 0.85879 0.0
C347 C 0.93577 0.55754 0.84166 0.0
H348 H 0.26859 0.67945 0.19136 0.0
H349 H 0.18797 0.73582 0.14067 0.0
H350 H 0.26544 0.82081 0.13916 0.0
H351 H 0.33595 0.79503 0.23338 0.0
H352 H 0.39362 0.79144 0.2365 0.0
H353 H 0.33351 0.73344 0.23129 0.0
H354 H 0.36855 0.70941 0.18769 0.0
H355 H 0.42868 0.76768 0.19264 0.0
H356 H 0.3944 0.75423 0.15982 0.0
H357 H 0.3521 0.90125 0.14344 0.0
H358 H 0.43628 0.97297 0.15873 0.0
H359 H 0.46003 0.86828 0.20971 0.0
C360 C 0.26755 0.7095 0.17962 0.0
C361 C 0.222 0.70045 0.1658 0.0
C362 C 0.22215 0.74144 0.15131 0.0
C363 C 0.26621 0.78996 0.15021 0.0
C364 C 0.31033 0.79783 0.16406 0.0
C365 C 0.3112 0.75898 0.17887 0.0
C366 C 0.36248 0.77914 0.19383 0.0
C367 C 0.35598 0.77449 0.22563 0.0
C368 C 0.39016 0.75093 0.18284 0.0
C369 C 0.38979 0.83534 0.18546 0.0
C370 C 0.35943 0.84495 0.16771 0.0
C371 C 0.37619 0.89402 0.15729 0.0
C372 C 0.42438 0.93458 0.16587 0.0
C373 C 0.45526 0.92646 0.18515 0.0
C374 C 0.4377 0.87572 0.19466 0.0
H375 H 0.48223 0.18386 0.5353 0.0
H376 H 0.50913 0.18925 0.44651 0.0
H377 H 0.51852 0.27667 0.44569 0.0
H378 H 0.41039 0.25341 0.5362 0.0
H379 H 0.43928 0.28693 0.56876 0.0
H380 H 0.43186 0.22411 0.56153 0.0
H381 H 0.52851 0.26118 0.57039 0.0
H382 H 0.53631 0.32431 0.57709 0.0
H383 H 0.57311 0.31482 0.55052 0.0
H384 H 0.53282 0.36833 0.45612 0.0
H385 H 0.54383 0.4504 0.47559 0.0
H386 H 0.49869 0.38005 0.55666 0.0
C387 C 0.48868 0.20299 0.51558 0.0
C388 C 0.49374 0.17943 0.49079 0.0
C389 C 0.50406 0.20629 0.46557 0.0
C390 C 0.50978 0.25609 0.46498 0.0
C391 C 0.50531 0.27877 0.48987 0.0
C392 C 0.49439 0.25269 0.51465 0.0
C393 C 0.49312 0.28604 0.53866 0.0
C394 C 0.44052 0.26114 0.55206 0.0
C395 C 0.53525 0.29723 0.56045 0.0
C396 C 0.50409 0.3345 0.52353 0.0
C397 C 0.51202 0.3302 0.49554 0.0
C398 C 0.52585 0.37164 0.478 0.0
C399 C 0.53167 0.41842 0.48936 0.0
C400 C 0.52286 0.42376 0.51809 0.0
C401 C 0.5079 0.37998 0.53494 0.0
H402 H 0.41292 0.51893 0.86885 0.0
H403 H 0.42368 0.51568 0.77887 0.0
H404 H 0.34321 0.5186 0.77403 0.0
H405 H 0.27353 0.44182 0.87189 0.0
H406 H 0.26952 0.47955 0.90066 0.0
H407 H 0.32547 0.4731 0.89685 0.0
H408 H 0.38183 0.57231 0.89722 0.0
H409 H 0.32615 0.579 0.90122 0.0
H410 H 0.36816 0.60895 0.87261 0.0
H411 H 0.25971 0.52295 0.77956 0.0
H412 H 0.1889 0.53726 0.79501 0.0
H413 H 0.23649 0.54303 0.88105 0.0
C414 C 0.39789 0.5182 0.84815 0.0
C415 C 0.42418 0.51639 0.82418 0.0
C416 C 0.40386 0.51652 0.79747 0.0
C417 C 0.35808 0.51808 0.79456 0.0
C418 C 0.33288 0.51986 0.81859 0.0
C419 C 0.35244 0.52032 0.8449 0.0
C420 C 0.31981 0.5253 0.86743 0.0
C421 C 0.29566 0.47708 0.88526 0.0
C422 C 0.35084 0.57431 0.88568 0.0
C423 C 0.27967 0.52891 0.84983 0.0
C424 C 0.2869 0.52448 0.82168 0.0
C425 C 0.2539 0.5264 0.80159 0.0
C426 C 0.21346 0.53417 0.8105 0.0
C427 C 0.20694 0.541 0.83921 0.0
C428 C 0.24036 0.53773 0.85894 0.0
H429 H 0.95888 0.36239 0.18711 0.0
H430 H 0.90056 0.43748 0.13368 0.0
H431 H 0.81505 0.36042 0.13415 0.0
H432 H 0.8795 0.23015 0.15988 0.0
H433 H 0.86956 0.20235 0.19384 0.0
H434 H 0.9271 0.26135 0.18719 0.0
H435 H 0.90916 0.30613 0.22903 0.0
H436 H 0.85156 0.24735 0.23579 0.0
H437 H 0.84935 0.30577 0.2303 0.0
H438 H 0.73367 0.27315 0.14093 0.0
H439 H 0.66478 0.18897 0.15672 0.0
H440 H 0.77415 0.17352 0.20867 0.0
C441 C 0.92833 0.36212 0.17503 0.0
C442 C 0.93696 0.40588 0.15981 0.0
C443 C 0.89528 0.40443 0.14518 0.0
C444 C 0.8464 0.36064 0.14533 0.0
C445 C 0.83893 0.31831 0.16068 0.0
C446 C 0.87874 0.31899 0.17554 0.0
C447 C 0.85973 0.2702 0.19216 0.0
C448 C 0.88551 0.23918 0.18269 0.0
C449 C 0.86794 0.28315 0.22368 0.0
C450 C 0.80334 0.24191 0.18423 0.0
C451 C 0.79205 0.2699 0.16576 0.0
C452 C 0.74231 0.25111 0.15544 0.0
C453 C 0.70327 0.20303 0.16443 0.0
C454 C 0.71377 0.17427 0.18391 0.0
C455 C 0.76472 0.19435 0.19372 0.0
H456 H 0.07279 0.61895 0.06684 0.0
H457 H 0.07764 0.48059 0.08697 0.0
H458 H 0.0799 0.46182 0.0363 0.0
H459 H 0.99227 0.57293 0.01002 0.0
H460 H 0.02462 0.62982 0.9896 0.0
H461 H 0.02972 0.63519 0.02707 0.0
H462 H 0.12801 0.68086 0.02469 0.0
H463 H 0.1233 0.67633 0.98709 0.0
H464 H 0.15772 0.65055 0.00539 0.0
H465 H 0.07333 0.45502 0.98297 0.0
H466 H 0.06185 0.46202 0.93229 0.0
H467 H 0.06096 0.60506 0.9481 0.0
C468 C 0.07512 0.58507 0.0606 0.0
C469 C 0.07476 0.55097 0.08064 0.0
C470 C 0.07815 0.50724 0.07182 0.0
C471 C 0.07936 0.49635 0.04315 0.0
C472 C 0.07825 0.53025 0.02383 0.0
C473 C 0.07714 0.57423 0.0323 0.0
C474 C 0.07468 0.60385 0.00766 0.0
C475 C 0.0275 0.6108 0.00866 0.0
C476 C 0.12384 0.65598 0.00612 0.0
C477 C 0.07096 0.56797 0.98388 0.0
C478 C 0.07434 0.52633 0.9935 0.0
C479 C 0.07117 0.48772 0.97528 0.0
C480 C 0.06454 0.49193 0.9466 0.0
C481 C 0.06034 0.53396 0.93648 0.0
C482 C 0.0637 0.5724 0.95539 0.0
H483 H 0.51436 0.97168 0.40601 0.0
H484 H 0.50864 0.11302 0.41692 0.0
H485 H 0.50199 0.11789 0.36574 0.0
H486 H 0.59138 1.00514 0.35143 0.0
H487 H 0.56125 0.945 0.3317 0.0
H488 H 0.55414 0.94541 0.36891 0.0
H489 H 0.45614 0.89757 0.36318 0.0
H490 H 0.46272 0.89536 0.32586 0.0
H491 H 0.42632 0.92286 0.34055 0.0
H492 H 0.51489 0.11742 0.31434 0.0
H493 H 0.53143 0.10379 0.26525 0.0
H494 H 0.52438 0.96012 0.28666 0.0
C495 C 0.50879 1.00193 0.39754 0.0
C496 C 0.51052 0.04127 0.4152 0.0
C497 C 0.50577 0.08183 0.40361 0.0
C498 C 0.50242 0.08506 0.37458 0.0
C499 C 0.50328 0.04702 0.35752 0.0
C500 C 0.50467 1.00524 0.36853 0.0
C501 C 0.50895 0.97177 0.34552 0.0
C502 C 0.55678 0.96657 0.34965 0.0
C503 C 0.46066 0.91875 0.34367 0.0
C504 C 0.51311 1.00302 0.32015 0.0
C505 C 0.50945 0.04612 0.32755 0.0
C506 C 0.51649 0.08314 0.30819 0.0
C507 C 0.52648 0.07544 0.28046 0.0
C508 C 0.52908 0.03096 0.27227 0.0
C509 C 0.52208 0.99422 0.29239 0.0
H510 H 0.61973 0.56641 0.73486 0.0
H511 H 0.46947 0.43689 0.7481 0.0
H512 H 0.44483 0.43998 0.69974 0.0
H513 H 0.57403 0.63192 0.68337 0.0
H514 H 0.62933 0.65286 0.66206 0.0
H515 H 0.63426 0.64706 0.69921 0.0
H516 H 0.67125 0.58615 0.69024 0.0
H517 H 0.66642 0.59182 0.65318 0.0
H518 H 0.63612 0.52914 0.66832 0.0
H519 H 0.43796 0.4477 0.65005 0.0
H520 H 0.44989 0.46048 0.59949 0.0
H521 H 0.60361 0.58505 0.6149 0.0
C522 C 0.58133 0.53989 0.72763 0.0
C523 C 0.54638 0.50149 0.7453 0.0
C524 C 0.49684 0.46657 0.73498 0.0
C525 C 0.48227 0.46814 0.70753 0.0
C526 C 0.51752 0.50512 0.69036 0.0
C527 C 0.56594 0.54076 0.69978 0.0
C528 C 0.59694 0.57352 0.67571 0.0
C529 C 0.60939 0.62968 0.68037 0.0
C530 C 0.64555 0.5699 0.67163 0.0
C531 C 0.55939 0.5481 0.6513 0.0
C532 C 0.51343 0.50968 0.66065 0.0
C533 C 0.47335 0.47832 0.64245 0.0
C534 C 0.48043 0.48576 0.61381 0.0
C535 C 0.52724 0.52399 0.60351 0.0
C536 C 0.56713 0.55624 0.62244 0.0
H537 H 0.46422 0.97999 0.59324 0.0
H538 H 0.57031 0.12932 0.56178 0.0
H539 H 0.61798 0.15332 0.60672 0.0
H540 H 0.45798 0.02375 0.66195 0.0
H541 H 0.45408 0.96863 0.67888 0.0
H542 H 0.43052 0.96225 0.6436 0.0
H543 H 0.48895 0.92598 0.62779 0.0
H544 H 0.51298 0.9328 0.66306 0.0
H545 H 0.55638 0.96287 0.63502 0.0
H546 H 0.64954 0.16361 0.65558 0.0
H547 H 0.66318 0.15969 0.70632 0.0
H548 H 0.5381 1.00291 0.70593 0.0
C549 C 0.49768 0.01758 0.59592 0.0
C550 C 0.51492 0.05265 0.57405 0.0
C551 C 0.55829 0.10153 0.57804 0.0
C552 C 0.58511 0.11553 0.60353 0.0
C553 C 0.56785 0.0799 0.62465 0.0
C554 C 0.52513 0.03191 0.6212 0.0
C555 C 0.51369 1.00166 0.64765 0.0
C556 C 0.46096 0.98833 0.65866 0.0
C557 C 0.5183 0.95295 0.6431 0.0
C558 C 0.55599 0.04076 0.66661 0.0
C559 C 0.58689 0.08551 0.65288 0.0
C560 C 0.62629 0.12853 0.66653 0.0
C561 C 0.63383 0.12606 0.69517 0.0
C562 C 0.60239 0.08075 0.70953 0.0
C563 C 0.56355 0.0374 0.69503 0.0
H564 H 0.63465 0.58421 0.9275 0.0
H565 H 0.49954 0.44611 0.89769 0.0
H566 H 0.47482 0.42165 0.94661 0.0
H567 H 0.66322 0.53265 0.98772 0.0
H568 H 0.68169 0.58951 0.00939 0.0
H569 H 0.68959 0.59485 0.97216 0.0
H570 H 0.63595 0.64098 0.97002 0.0
H571 H 0.62824 0.63602 0.00726 0.0
H572 H 0.57313 0.61047 0.98437 0.0
H573 H 0.4631 0.41487 -0.001 0.0
H574 H 0.46575 0.42649 0.0506 0.0
H575 H 0.60899 0.56832 0.04543 0.0
C576 C 0.60023 0.54844 0.93127 0.0
C577 C 0.56918 0.51665 0.90893 0.0
C578 C 0.52389 0.47075 0.91463 0.0
C579 C 0.50961 0.45662 0.94228 0.0
C580 C 0.54091 0.48906 0.96389 0.0
C581 C 0.58519 0.53414 0.95866 0.0
C582 C 0.61087 0.56365 0.98546 0.0
C583 C 0.66452 0.57053 0.98887 0.0
C584 C 0.6121 0.61585 0.98685 0.0
C585 C 0.57495 0.52747 0.00664 0.0
C586 C 0.53447 0.48492 0.99385 0.0
C587 C 0.49491 0.44771 0.00923 0.0
C588 C 0.49667 0.45448 0.03841 0.0
C589 C 0.53802 0.49767 0.05171 0.0
C590 C 0.57769 0.53429 0.03565 0.0
H591 H 1.00962 0.47278 0.25569 0.0
H592 H 0.12349 0.6315 0.24238 0.0
H593 H 0.12922 0.64982 0.29312 0.0
H594 H 0.94975 0.50604 0.3171 0.0
H595 H 0.93594 0.44759 0.33426 0.0
H596 H 0.93503 0.44882 0.29664 0.0
H597 H 0.99994 0.41583 0.29509 0.0
H598 H 1.00179 0.41534 0.3326 0.0
H599 H 0.05983 0.45153 0.31382 0.0
H600 H 0.13203 0.64787 0.3441 0.0
H601 H 0.12638 0.62967 0.39355 0.0
H602 H 1.00903 0.47143 0.37542 0.0
C603 C 0.0346 0.51167 0.26353 0.0
C604 C 0.06616 0.55081 0.24538 0.0
C605 C 0.09871 0.60123 0.25606 0.0
C606 C 0.10226 0.61193 0.2848 0.0
C607 C 0.07198 0.57207 0.30229 0.0
C608 C 0.03778 0.52328 0.29215 0.0
C609 C 1.01134 0.48712 0.31577 0.0
C610 C 0.95465 0.47146 0.31595 0.0
C611 C 1.01872 0.43968 0.31421 0.0
C612 C 0.03939 0.52206 0.34068 0.0
C613 C 0.0733 0.57108 0.33228 0.0
C614 C 0.10521 0.60982 0.35101 0.0
C615 C 0.10213 0.59853 0.37921 0.0
C616 C 0.06781 0.54849 0.38866 0.0
C617 C 0.03569 0.50989 0.36898 0.0
loop_
_geom_bond_atom_site_label_1
_geom_bond_atom_site_label_2
_geom_bond_distance
_geom_bond_site_symmetry_2
_ccdc_geom_bond_type
Dy0 O4 2.398 . S
Dy0 O5 2.491 . S
Dy0 O6 2.403 . S
Dy0 O7 2.664 . S
Dy0 O11 2.326 . S
Dy0 O15 2.310 . S
Dy0 O16 2.351 . S
C1 O12 1.185 . S
C1 O13 1.355 . S
C2 O4 1.185 . S
C2 O5 1.355 . S
Dy3 O7 2.310 . S
Dy3 O10 2.351 . S
Dy3 O12 2.398 1_455 S
Dy3 O13 2.491 1_455 S
Dy3 O14 2.403 . S
Dy3 O15 2.664 . S
Dy3 O17 2.326 1_455 S
O4 Dy0 2.398 . S
O4 C2 1.185 . S
O5 Dy0 2.491 . S
O5 C2 1.355 . S
O6 Dy0 2.403 . S
O6 C8 1.254 . S
O7 Dy0 2.664 . S
O7 Dy3 2.310 . S
O7 C8 1.268 . S
C8 O6 1.254 . S
C8 O7 1.268 . S
C9 O14 1.254 . S
C9 O15 1.268 . S
O10 Dy3 2.351 . S
O10 C18 1.249 . S
O11 Dy0 2.326 . S
O11 C18 1.267 . S
O12 C1 1.185 . S
O12 Dy3 2.398 1_655 S
O13 C1 1.355 . S
O13 Dy3 2.491 1_655 S
O14 Dy3 2.403 . S
O14 C9 1.254 . S
O15 Dy0 2.310 . S
O15 Dy3 2.664 . S
O15 C9 1.268 . S
O16 Dy0 2.351 . S
O16 C19 1.249 1_455 S
O17 Dy3 2.326 1_655 S
O17 C19 1.267 . S
C18 O10 1.249 . S
C18 O11 1.267 . S
C19 O16 1.249 1_655 S
C19 O17 1.267 . S
Dy20 O24 2.398 . S
Dy20 O25 2.491 . S
Dy20 O26 2.403 . S
Dy20 O27 2.664 1_565 S
Dy20 O31 2.326 . S
Dy20 O35 2.310 1_565 S
Dy20 O36 2.351 1_565 S
C21 O32 1.185 . S
C21 O33 1.355 . S
C22 O24 1.185 . S
C22 O25 1.355 . S
Dy23 O27 2.310 . S
Dy23 O30 2.351 1_545 S
Dy23 O32 2.398 . S
Dy23 O33 2.491 . S
Dy23 O34 2.403 . S
Dy23 O35 2.664 . S
Dy23 O37 2.326 . S
O24 Dy20 2.398 . S
O24 C22 1.185 . S
O25 Dy20 2.491 . S
O25 C22 1.355 . S
O26 Dy20 2.403 . S
O26 C28 1.254 1_565 S
O27 Dy20 2.664 1_545 S
O27 Dy23 2.310 . S
O27 C28 1.268 . S
C28 O26 1.254 1_545 S
C28 O27 1.268 . S
C29 O34 1.254 . S
C29 O35 1.268 . S
O30 Dy23 2.351 1_565 S
O30 C38 1.249 . S
O31 Dy20 2.326 . S
O31 C38 1.267 . S
O32 C21 1.185 . S
O32 Dy23 2.398 . S
O33 C21 1.355 . S
O33 Dy23 2.491 . S
O34 Dy23 2.403 . S
O34 C29 1.254 . S
O35 Dy20 2.310 1_545 S
O35 Dy23 2.664 . S
O35 C29 1.268 . S
O36 Dy20 2.351 1_545 S
O36 C39 1.249 . S
O37 Dy23 2.326 . S
O37 C39 1.267 . S
C38 O30 1.249 . S
C38 O31 1.267 . S
C39 O36 1.249 . S
C39 O37 1.267 . S
Dy40 O44 2.398 . S
Dy40 O45 2.491 . S
Dy40 O46 2.403 . S
Dy40 O47 2.664 . S
Dy40 O51 2.326 . S
Dy40 O55 2.310 . S
Dy40 O56 2.351 . S
C41 O52 1.185 . S
C41 O53 1.355 . S
C42 O44 1.185 . S
C42 O45 1.355 . S
Dy43 O47 2.310 . S
Dy43 O50 2.351 . S
Dy43 O52 2.398 . S
Dy43 O53 2.491 . S
Dy43 O54 2.403 . S
Dy43 O55 2.664 . S
Dy43 O57 2.326 . S
O44 Dy40 2.398 . S
O44 C42 1.185 . S
O45 Dy40 2.491 . S
O45 C42 1.355 . S
O46 Dy40 2.403 . S
O46 C48 1.254 . S
O47 Dy40 2.664 . S
O47 Dy43 2.310 . S
O47 C48 1.268 . S
C48 O46 1.254 . S
C48 O47 1.268 . S
C49 O54 1.254 . S
C49 O55 1.268 . S
O50 Dy43 2.351 . S
O50 C58 1.249 . S
O51 Dy40 2.326 . S
O51 C58 1.267 . S
O52 C41 1.185 . S
O52 Dy43 2.398 . S
O53 C41 1.355 . S
O53 Dy43 2.491 . S
O54 Dy43 2.403 . S
O54 C49 1.254 . S
O55 Dy40 2.310 . S
O55 Dy43 2.664 . S
O55 C49 1.268 . S
O56 Dy40 2.351 . S
O56 C59 1.249 . S
O57 Dy43 2.326 . S
O57 C59 1.267 . S
C58 O50 1.249 . S
C58 O51 1.267 . S
C59 O56 1.249 . S
C59 O57 1.267 . S
H60 C65 0.930 . S
H61 C68 0.930 . S
H62 C70 0.930 . S
H63 C64 1.016 . S
C64 H63 1.016 . S
C64 N71 1.286 . S
C65 H60 0.930 . S
C65 C66 1.397 . S
C65 C67 1.361 1_565 S
C66 C65 1.397 . S
C66 C70 1.390 . S
C67 C65 1.361 1_545 S
C67 C68 1.393 . S
C67 N71 1.413 . S
C68 H61 0.930 . S
C68 C67 1.393 . S
C68 C69 1.399 . S
C69 C68 1.399 . S
C69 C70 1.381 1_545 S
C70 H62 0.930 . S
C70 C66 1.390 . S
C70 C69 1.381 1_565 S
N71 C64 1.286 . S
N71 C67 1.413 . S
H72 C77 0.930 . S
H73 C80 0.930 . S
H74 C82 0.930 . S
H75 C76 1.016 . S
C76 H75 1.016 . S
C76 N83 1.286 . S
C77 H72 0.930 . S
C77 C78 1.397 . S
C77 C79 1.361 . S
C78 C77 1.397 . S
C78 C82 1.390 . S
C79 C77 1.361 . S
C79 C80 1.393 . S
C79 N83 1.413 . S
C80 H73 0.930 . S
C80 C79 1.393 . S
C80 C81 1.399 . S
C81 C80 1.399 . S
C81 C82 1.381 . S
C82 H74 0.930 . S
C82 C78 1.390 . S
C82 C81 1.381 . S
N83 C76 1.286 . S
N83 C79 1.413 . S
H84 C89 0.930 . S
H85 C92 0.930 . S
H86 C94 0.930 1_655 S
H87 C88 1.016 . S
C88 H87 1.016 . S
C88 N95 1.286 . S
C89 H84 0.930 . S
C89 C90 1.397 1_455 S
C89 C91 1.361 . S
C90 C89 1.397 1_655 S
C90 C94 1.390 1_655 S
C91 C89 1.361 . S
C91 C92 1.393 . S
C91 N95 1.413 . S
C92 H85 0.930 . S
C92 C91 1.393 . S
C92 C93 1.399 . S
C93 C92 1.399 . S
C93 C94 1.381 . S
C94 H86 0.930 1_455 S
C94 C90 1.390 1_455 S
C94 C93 1.381 . S
N95 C88 1.286 . S
N95 C91 1.413 . S
H96 C101 0.930 . S
H97 C104 0.930 . S
H98 C106 0.930 . S
H99 C100 1.016 . S
C100 H99 1.016 . S
C100 N107 1.286 . S
C101 H96 0.930 . S
C101 C102 1.397 . S
C101 C103 1.361 1_455 S
C102 C101 1.397 . S
C102 C106 1.390 . S
C103 C101 1.361 1_655 S
C103 C104 1.393 . S
C103 N107 1.413 . S
C104 H97 0.930 . S
C104 C103 1.393 . S
C104 C105 1.399 1_655 S
C105 C104 1.399 1_455 S
C105 C106 1.381 . S
C106 H98 0.930 . S
C106 C102 1.390 . S
C106 C105 1.381 . S
N107 C100 1.286 . S
N107 C103 1.413 . S
H108 C113 0.930 . S
H109 C116 0.930 1_565 S
H110 C118 0.930 . S
H111 C112 1.016 . S
C112 H111 1.016 . S
C112 N119 1.286 . S
C113 H108 0.930 . S
C113 C114 1.397 . S
C113 C115 1.361 . S
C114 C113 1.397 . S
C114 C118 1.390 . S
C115 C113 1.361 . S
C115 C116 1.393 . S
C115 N119 1.413 1_545 S
C116 H109 0.930 1_545 S
C116 C115 1.393 . S
C116 C117 1.399 . S
C117 C116 1.399 . S
C117 C118 1.381 . S
C118 H110 0.930 . S
C118 C114 1.390 . S
C118 C117 1.381 . S
N119 C112 1.286 . S
N119 C115 1.413 1_565 S
H120 C125 0.930 . S
H121 C128 0.930 . S
H122 C130 0.930 . S
H123 C124 1.016 . S
C124 H123 1.016 . S
C124 N131 1.286 . S
C125 H120 0.930 . S
C125 C126 1.397 . S
C125 C127 1.361 . S
C126 C125 1.397 . S
C126 C130 1.390 . S
C127 C125 1.361 . S
C127 C128 1.393 . S
C127 N131 1.413 . S
C128 H121 0.930 . S
C128 C127 1.393 . S
C128 C129 1.399 . S
C129 C128 1.399 . S
C129 C130 1.381 . S
C130 H122 0.930 . S
C130 C126 1.390 . S
C130 C129 1.381 . S
N131 C124 1.286 . S
N131 C127 1.413 . S
H132 C144 0.930 . S
H133 C146 0.930 . S
H134 C147 0.930 . S
H135 C151 0.959 . S
H136 C151 0.959 . S
H137 C151 0.961 . S
H138 C152 0.960 . S
H139 C152 0.961 . S
H140 C152 0.959 . S
H141 C155 0.929 . S
H142 C156 0.931 . S
H143 C158 0.930 . S
C144 H132 0.930 . S
C144 C145 1.399 . S
C144 C149 1.399 . S
C145 C144 1.399 . S
C145 C146 1.376 . S
C146 H133 0.930 . S
C146 C145 1.376 . S
C146 C147 1.388 . S
C147 H134 0.930 . S
C147 C146 1.388 . S
C147 C148 1.390 . S
C148 C147 1.390 . S
C148 C149 1.394 . S
C148 C154 1.465 . S
C149 C144 1.399 . S
C149 C148 1.394 . S
C149 C150 1.516 . S
C150 C149 1.516 . S
C150 C151 1.502 . S
C150 C152 1.561 . S
C150 C153 1.526 . S
C151 H135 0.959 . S
C151 H136 0.959 . S
C151 H137 0.961 . S
C151 C150 1.502 . S
C152 H138 0.960 . S
C152 H139 0.961 . S
C152 H140 0.959 . S
C152 C150 1.561 . S
C153 C150 1.526 . S
C153 C154 1.396 . S
C153 C158 1.390 . S
C154 C148 1.465 . S
C154 C153 1.396 . S
C154 C155 1.399 . S
C155 H141 0.929 . S
C155 C154 1.399 . S
C155 C156 1.385 . S
C156 H142 0.931 . S
C156 C155 1.385 . S
C156 C157 1.389 . S
C157 C156 1.389 . S
C157 C158 1.387 . S
C158 H143 0.930 . S
C158 C153 1.390 . S
C158 C157 1.387 . S
H159 C171 0.930 . S
H160 C173 0.930 . S
H161 C174 0.930 . S
H162 C178 0.959 . S
H163 C178 0.959 . S
H164 C178 0.961 . S
H165 C179 0.960 . S
H166 C179 0.961 . S
H167 C179 0.959 . S
H168 C182 0.929 . S
H169 C183 0.931 . S
H170 C185 0.930 . S
C171 H159 0.930 . S
C171 C172 1.399 . S
C171 C176 1.399 . S
C172 C171 1.399 . S
C172 C173 1.376 . S
C173 H160 0.930 . S
C173 C172 1.376 . S
C173 C174 1.388 . S
C174 H161 0.930 . S
C174 C173 1.388 . S
C174 C175 1.390 . S
C175 C174 1.390 . S
C175 C176 1.394 . S
C175 C181 1.465 . S
C176 C171 1.399 . S
C176 C175 1.394 . S
C176 C177 1.516 . S
C177 C176 1.516 . S
C177 C178 1.502 . S
C177 C179 1.561 . S
C177 C180 1.526 . S
C178 H162 0.959 . S
C178 H163 0.959 . S
C178 H164 0.961 . S
C178 C177 1.502 . S
C179 H165 0.960 . S
C179 H166 0.961 . S
C179 H167 0.959 . S
C179 C177 1.561 . S
C180 C177 1.526 . S
C180 C181 1.396 . S
C180 C185 1.390 . S
C181 C175 1.465 . S
C181 C180 1.396 . S
C181 C182 1.399 . S
C182 H168 0.929 . S
C182 C181 1.399 . S
C182 C183 1.385 . S
C183 H169 0.931 . S
C183 C182 1.385 . S
C183 C184 1.389 . S
C184 C183 1.389 . S
C184 C185 1.387 . S
C185 H170 0.930 . S
C185 C180 1.390 . S
C185 C184 1.387 . S
H186 C198 0.930 . S
H187 C200 0.930 . S
H188 C201 0.930 . S
H189 C205 0.959 . S
H190 C205 0.959 . S
H191 C205 0.961 . S
H192 C206 0.960 . S
H193 C206 0.961 . S
H194 C206 0.959 . S
H195 C209 0.929 . S
H196 C210 0.931 . S
H197 C212 0.930 . S
C198 H186 0.930 . S
C198 C199 1.399 . S
C198 C203 1.399 . S
C199 C198 1.399 . S
C199 C200 1.376 . S
C200 H187 0.930 . S
C200 C199 1.376 . S
C200 C201 1.388 . S
C201 H188 0.930 . S
C201 C200 1.388 . S
C201 C202 1.390 . S
C202 C201 1.390 . S
C202 C203 1.394 . S
C202 C208 1.465 . S
C203 C198 1.399 . S
C203 C202 1.394 . S
C203 C204 1.516 . S
C204 C203 1.516 . S
C204 C205 1.502 . S
C204 C206 1.561 . S
C204 C207 1.526 . S
C205 H189 0.959 . S
C205 H190 0.959 . S
C205 H191 0.961 . S
C205 C204 1.502 . S
C206 H192 0.960 . S
C206 H193 0.961 . S
C206 H194 0.959 . S
C206 C204 1.561 . S
C207 C204 1.526 . S
C207 C208 1.396 . S
C207 C212 1.390 . S
C208 C202 1.465 . S
C208 C207 1.396 . S
C208 C209 1.399 . S
C209 H195 0.929 . S
C209 C208 1.399 . S
C209 C210 1.385 . S
C210 H196 0.931 . S
C210 C209 1.385 . S
C210 C211 1.389 . S
C211 C210 1.389 . S
C211 C212 1.387 . S
C212 H197 0.930 . S
C212 C207 1.390 . S
C212 C211 1.387 . S
H213 C225 0.930 . S
H214 C227 0.930 . S
H215 C228 0.930 . S
H216 C232 0.959 . S
H217 C232 0.959 . S
H218 C232 0.961 . S
H219 C233 0.960 . S
H220 C233 0.961 . S
H221 C233 0.959 . S
H222 C236 0.929 . S
H223 C237 0.931 . S
H224 C239 0.930 . S
C225 H213 0.930 . S
C225 C226 1.399 . S
C225 C230 1.399 . S
C226 C225 1.399 . S
C226 C227 1.376 . S
C227 H214 0.930 . S
C227 C226 1.376 . S
C227 C228 1.388 . S
C228 H215 0.930 . S
C228 C227 1.388 . S
C228 C229 1.390 . S
C229 C228 1.390 . S
C229 C230 1.394 . S
C229 C235 1.465 . S
C230 C225 1.399 . S
C230 C229 1.394 . S
C230 C231 1.516 . S
C231 C230 1.516 . S
C231 C232 1.502 . S
C231 C233 1.561 . S
C231 C234 1.526 . S
C232 H216 0.959 . S
C232 H217 0.959 . S
C232 H218 0.961 . S
C232 C231 1.502 . S
C233 H219 0.960 . S
C233 H220 0.961 . S
C233 H221 0.959 . S
C233 C231 1.561 . S
C234 C231 1.526 . S
C234 C235 1.396 . S
C234 C239 1.390 . S
C235 C229 1.465 . S
C235 C234 1.396 . S
C235 C236 1.399 . S
C236 H222 0.929 . S
C236 C235 1.399 . S
C236 C237 1.385 . S
C237 H223 0.931 . S
C237 C236 1.385 . S
C237 C238 1.389 . S
C238 C237 1.389 . S
C238 C239 1.387 . S
C239 H224 0.930 . S
C239 C234 1.390 . S
C239 C238 1.387 . S
H240 C252 0.930 . S
H241 C254 0.930 . S
H242 C255 0.930 . S
H243 C259 0.959 . S
H244 C259 0.959 . S
H245 C259 0.961 . S
H246 C260 0.960 . S
H247 C260 0.961 . S
H248 C260 0.959 . S
H249 C263 0.929 . S
H250 C264 0.931 . S
H251 C266 0.930 . S
C252 H240 0.930 . S
C252 C253 1.399 . S
C252 C257 1.399 . S
C253 C252 1.399 . S
C253 C254 1.376 . S
C254 H241 0.930 . S
C254 C253 1.376 . S
C254 C255 1.388 . S
C255 H242 0.930 . S
C255 C254 1.388 . S
C255 C256 1.390 . S
C256 C255 1.390 . S
C256 C257 1.394 . S
C256 C262 1.465 . S
C257 C252 1.399 . S
C257 C256 1.394 . S
C257 C258 1.516 . S
C258 C257 1.516 . S
C258 C259 1.502 . S
C258 C260 1.561 . S
C258 C261 1.526 . S
C259 H243 0.959 . S
C259 H244 0.959 . S
C259 H245 0.961 . S
C259 C258 1.502 . S
C260 H246 0.960 . S
C260 H247 0.961 . S
C260 H248 0.959 . S
C260 C258 1.561 . S
C261 C258 1.526 . S
C261 C262 1.396 . S
C261 C266 1.390 . S
C262 C256 1.465 . S
C262 C261 1.396 . S
C262 C263 1.399 . S
C263 H249 0.929 . S
C263 C262 1.399 . S
C263 C264 1.385 . S
C264 H250 0.931 . S
C264 C263 1.385 . S
C264 C265 1.389 . S
C265 C264 1.389 . S
C265 C266 1.387 . S
C266 H251 0.930 . S
C266 C261 1.390 . S
C266 C265 1.387 . S
H267 C279 0.930 . S
H268 C281 0.930 . S
H269 C282 0.930 . S
H270 C286 0.959 . S
H271 C286 0.959 . S
H272 C286 0.961 . S
H273 C287 0.960 . S
H274 C287 0.961 . S
H275 C287 0.959 . S
H276 C290 0.929 . S
H277 C291 0.931 . S
H278 C293 0.930 . S
C279 H267 0.930 . S
C279 C280 1.399 . S
C279 C284 1.399 . S
C280 C279 1.399 . S
C280 C281 1.376 . S
C281 H268 0.930 . S
C281 C280 1.376 . S
C281 C282 1.388 . S
C282 H269 0.930 . S
C282 C281 1.388 . S
C282 C283 1.390 . S
C283 C282 1.390 . S
C283 C284 1.394 . S
C283 C289 1.465 . S
C284 C279 1.399 . S
C284 C283 1.394 . S
C284 C285 1.516 . S
C285 C284 1.516 . S
C285 C286 1.502 . S
C285 C287 1.561 . S
C285 C288 1.526 . S
C286 H270 0.959 . S
C286 H271 0.959 . S
C286 H272 0.961 . S
C286 C285 1.502 . S
C287 H273 0.960 . S
C287 H274 0.961 . S
C287 H275 0.959 . S
C287 C285 1.561 . S
C288 C285 1.526 . S
C288 C289 1.396 . S
C288 C293 1.390 . S
C289 C283 1.465 . S
C289 C288 1.396 . S
C289 C290 1.399 . S
C290 H276 0.929 . S
C290 C289 1.399 . S
C290 C291 1.385 . S
C291 H277 0.931 . S
C291 C290 1.385 . S
C291 C292 1.389 . S
C292 C291 1.389 . S
C292 C293 1.387 . S
C293 H278 0.930 . S
C293 C288 1.390 . S
C293 C292 1.387 . S
H294 C306 0.930 . S
H295 C308 0.930 . S
H296 C309 0.930 . S
H297 C313 0.959 . S
H298 C313 0.959 . S
H299 C313 0.961 . S
H300 C314 0.960 . S
H301 C314 0.961 . S
H302 C314 0.959 . S
H303 C317 0.929 . S
H304 C318 0.931 . S
H305 C320 0.930 . S
C306 H294 0.930 . S
C306 C307 1.399 . S
C306 C311 1.399 . S
C307 C306 1.399 . S
C307 C308 1.376 . S
C308 H295 0.930 . S
C308 C307 1.376 . S
C308 C309 1.388 . S
C309 H296 0.930 . S
C309 C308 1.388 . S
C309 C310 1.390 . S
C310 C309 1.390 . S
C310 C311 1.394 . S
C310 C316 1.465 . S
C311 C306 1.399 . S
C311 C310 1.394 . S
C311 C312 1.516 . S
C312 C311 1.516 . S
C312 C313 1.502 . S
C312 C314 1.561 . S
C312 C315 1.526 . S
C313 H297 0.959 . S
C313 H298 0.959 . S
C313 H299 0.961 . S
C313 C312 1.502 . S
C314 H300 0.960 . S
C314 H301 0.961 . S
C314 H302 0.959 . S
C314 C312 1.561 . S
C315 C312 1.526 . S
C315 C316 1.396 . S
C315 C320 1.390 . S
C316 C310 1.465 . S
C316 C315 1.396 . S
C316 C317 1.399 . S
C317 H303 0.929 . S
C317 C316 1.399 . S
C317 C318 1.385 . S
C318 H304 0.931 . S
C318 C317 1.385 . S
C318 C319 1.389 . S
C319 C318 1.389 . S
C319 C320 1.387 . S
C320 H305 0.930 . S
C320 C315 1.390 . S
C320 C319 1.387 . S
H321 C333 0.930 . S
H322 C335 0.930 . S
H323 C336 0.930 . S
H324 C340 0.959 . S
H325 C340 0.959 . S
H326 C340 0.961 . S
H327 C341 0.960 . S
H328 C341 0.961 . S
H329 C341 0.959 . S
H330 C344 0.929 . S
H331 C345 0.931 . S
H332 C347 0.930 . S
C333 H321 0.930 . S
C333 C334 1.399 . S
C333 C338 1.399 . S
C334 C333 1.399 . S
C334 C335 1.376 . S
C335 H322 0.930 . S
C335 C334 1.376 . S
C335 C336 1.388 . S
C336 H323 0.930 . S
C336 C335 1.388 . S
C336 C337 1.390 . S
C337 C336 1.390 . S
C337 C338 1.394 . S
C337 C343 1.465 . S
C338 C333 1.399 . S
C338 C337 1.394 . S
C338 C339 1.516 . S
C339 C338 1.516 . S
C339 C340 1.502 . S
C339 C341 1.561 . S
C339 C342 1.526 . S
C340 H324 0.959 . S
C340 H325 0.959 . S
C340 H326 0.961 . S
C340 C339 1.502 . S
C341 H327 0.960 . S
C341 H328 0.961 . S
C341 H329 0.959 . S
C341 C339 1.561 . S
C342 C339 1.526 . S
C342 C343 1.396 . S
C342 C347 1.390 . S
C343 C337 1.465 . S
C343 C342 1.396 . S
C343 C344 1.399 . S
C344 H330 0.929 . S
C344 C343 1.399 . S
C344 C345 1.385 . S
C345 H331 0.931 . S
C345 C344 1.385 . S
C345 C346 1.389 . S
C346 C345 1.389 . S
C346 C347 1.387 . S
C347 H332 0.930 . S
C347 C342 1.390 . S
C347 C346 1.387 . S
H348 C360 0.930 . S
H349 C362 0.930 . S
H350 C363 0.930 . S
H351 C367 0.959 . S
H352 C367 0.959 . S
H353 C367 0.961 . S
H354 C368 0.960 . S
H355 C368 0.961 . S
H356 C368 0.959 . S
H357 C371 0.929 . S
H358 C372 0.931 . S
H359 C374 0.930 . S
C360 H348 0.930 . S
C360 C361 1.399 . S
C360 C365 1.399 . S
C361 C360 1.399 . S
C361 C362 1.376 . S
C362 H349 0.930 . S
C362 C361 1.376 . S
C362 C363 1.388 . S
C363 H350 0.930 . S
C363 C362 1.388 . S
C363 C364 1.390 . S
C364 C363 1.390 . S
C364 C365 1.394 . S
C364 C370 1.465 . S
C365 C360 1.399 . S
C365 C364 1.394 . S
C365 C366 1.516 . S
C366 C365 1.516 . S
C366 C367 1.502 . S
C366 C368 1.561 . S
C366 C369 1.526 . S
C367 H351 0.959 . S
C367 H352 0.959 . S
C367 H353 0.961 . S
C367 C366 1.502 . S
C368 H354 0.960 . S
C368 H355 0.961 . S
C368 H356 0.959 . S
C368 C366 1.561 . S
C369 C366 1.526 . S
C369 C370 1.396 . S
C369 C374 1.390 . S
C370 C364 1.465 . S
C370 C369 1.396 . S
C370 C371 1.399 . S
C371 H357 0.929 . S
C371 C370 1.399 . S
C371 C372 1.385 . S
C372 H358 0.931 . S
C372 C371 1.385 . S
C372 C373 1.389 . S
C373 C372 1.389 . S
C373 C374 1.387 . S
C374 H359 0.930 . S
C374 C369 1.390 . S
C374 C373 1.387 . S
H375 C387 0.930 . S
H376 C389 0.930 . S
H377 C390 0.930 . S
H378 C394 0.959 . S
H379 C394 0.959 . S
H380 C394 0.961 . S
H381 C395 0.960 . S
H382 C395 0.961 . S
H383 C395 0.959 . S
H384 C398 0.929 . S
H385 C399 0.931 . S
H386 C401 0.930 . S
C387 H375 0.930 . S
C387 C388 1.399 . S
C387 C392 1.399 . S
C388 C387 1.399 . S
C388 C389 1.376 . S
C389 H376 0.930 . S
C389 C388 1.376 . S
C389 C390 1.388 . S
C390 H377 0.930 . S
C390 C389 1.388 . S
C390 C391 1.390 . S
C391 C390 1.390 . S
C391 C392 1.394 . S
C391 C397 1.465 . S
C392 C387 1.399 . S
C392 C391 1.394 . S
C392 C393 1.516 . S
C393 C392 1.516 . S
C393 C394 1.502 . S
C393 C395 1.561 . S
C393 C396 1.526 . S
C394 H378 0.959 . S
C394 H379 0.959 . S
C394 H380 0.961 . S
C394 C393 1.502 . S
C395 H381 0.960 . S
C395 H382 0.961 . S
C395 H383 0.959 . S
C395 C393 1.561 . S
C396 C393 1.526 . S
C396 C397 1.396 . S
C396 C401 1.390 . S
C397 C391 1.465 . S
C397 C396 1.396 . S
C397 C398 1.399 . S
C398 H384 0.929 . S
C398 C397 1.399 . S
C398 C399 1.385 . S
C399 H385 0.931 . S
C399 C398 1.385 . S
C399 C400 1.389 . S
C400 C399 1.389 . S
C400 C401 1.387 . S
C401 H386 0.930 . S
C401 C396 1.390 . S
C401 C400 1.387 . S
H402 C414 0.930 . S
H403 C416 0.930 . S
H404 C417 0.930 . S
H405 C421 0.959 . S
H406 C421 0.959 . S
H407 C421 0.961 . S
H408 C422 0.960 . S
H409 C422 0.961 . S
H410 C422 0.959 . S
H411 C425 0.929 . S
H412 C426 0.931 . S
H413 C428 0.930 . S
C414 H402 0.930 . S
C414 C415 1.399 . S
C414 C419 1.399 . S
C415 C414 1.399 . S
C415 C416 1.376 . S
C416 H403 0.930 . S
C416 C415 1.376 . S
C416 C417 1.388 . S
C417 H404 0.930 . S
C417 C416 1.388 . S
C417 C418 1.390 . S
C418 C417 1.390 . S
C418 C419 1.394 . S
C418 C424 1.465 . S
C419 C414 1.399 . S
C419 C418 1.394 . S
C419 C420 1.516 . S
C420 C419 1.516 . S
C420 C421 1.502 . S
C420 C422 1.561 . S
C420 C423 1.526 . S
C421 H405 0.959 . S
C421 H406 0.959 . S
C421 H407 0.961 . S
C421 C420 1.502 . S
C422 H408 0.960 . S
C422 H409 0.961 . S
C422 H410 0.959 . S
C422 C420 1.561 . S
C423 C420 1.526 . S
C423 C424 1.396 . S
C423 C428 1.390 . S
C424 C418 1.465 . S
C424 C423 1.396 . S
C424 C425 1.399 . S
C425 H411 0.929 . S
C425 C424 1.399 . S
C425 C426 1.385 . S
C426 H412 0.931 . S
C426 C425 1.385 . S
C426 C427 1.389 . S
C427 C426 1.389 . S
C427 C428 1.387 . S
C428 H413 0.930 . S
C428 C423 1.390 . S
C428 C427 1.387 . S
H429 C441 0.930 . S
H430 C443 0.930 . S
H431 C444 0.930 . S
H432 C448 0.959 . S
H433 C448 0.959 . S
H434 C448 0.961 . S
H435 C449 0.960 . S
H436 C449 0.961 . S
H437 C449 0.959 . S
H438 C452 0.929 . S
H439 C453 0.931 . S
H440 C455 0.930 . S
C441 H429 0.930 . S
C441 C442 1.399 . S
C441 C446 1.399 . S
C442 C441 1.399 . S
C442 C443 1.376 . S
C443 H430 0.930 . S
C443 C442 1.376 . S
C443 C444 1.388 . S
C444 H431 0.930 . S
C444 C443 1.388 . S
C444 C445 1.390 . S
C445 C444 1.390 . S
C445 C446 1.394 . S
C445 C451 1.465 . S
C446 C441 1.399 . S
C446 C445 1.394 . S
C446 C447 1.516 . S
C447 C446 1.516 . S
C447 C448 1.502 . S
C447 C449 1.561 . S
C447 C450 1.526 . S
C448 H432 0.959 . S
C448 H433 0.959 . S
C448 H434 0.961 . S
C448 C447 1.502 . S
C449 H435 0.960 . S
C449 H436 0.961 . S
C449 H437 0.959 . S
C449 C447 1.561 . S
C450 C447 1.526 . S
C450 C451 1.396 . S
C450 C455 1.390 . S
C451 C445 1.465 . S
C451 C450 1.396 . S
C451 C452 1.399 . S
C452 H438 0.929 . S
C452 C451 1.399 . S
C452 C453 1.385 . S
C453 H439 0.931 . S
C453 C452 1.385 . S
C453 C454 1.389 . S
C454 C453 1.389 . S
C454 C455 1.387 . S
C455 H440 0.930 . S
C455 C450 1.390 . S
C455 C454 1.387 . S
H456 C468 0.930 . S
H457 C470 0.930 . S
H458 C471 0.930 . S
H459 C475 0.959 1_655 S
H460 C475 0.959 . S
H461 C475 0.961 . S
H462 C476 0.960 . S
H463 C476 0.961 . S
H464 C476 0.959 . S
H465 C479 0.929 . S
H466 C480 0.931 . S
H467 C482 0.930 . S
C468 H456 0.930 . S
C468 C469 1.399 . S
C468 C473 1.399 . S
C469 C468 1.399 . S
C469 C470 1.376 . S
C470 H457 0.930 . S
C470 C469 1.376 . S
C470 C471 1.388 . S
C471 H458 0.930 . S
C471 C470 1.388 . S
C471 C472 1.390 . S
C472 C471 1.390 . S
C472 C473 1.394 . S
C472 C478 1.465 1_554 S
C473 C468 1.399 . S
C473 C472 1.394 . S
C473 C474 1.516 . S
C474 C473 1.516 . S
C474 C475 1.502 . S
C474 C476 1.561 . S
C474 C477 1.526 1_554 S
C475 H459 0.959 1_455 S
C475 H460 0.959 . S
C475 H461 0.961 . S
C475 C474 1.502 . S
C476 H462 0.960 . S
C476 H463 0.961 . S
C476 H464 0.959 . S
C476 C474 1.561 . S
C477 C474 1.526 1_556 S
C477 C478 1.396 . S
C477 C482 1.390 . S
C478 C472 1.465 1_556 S
C478 C477 1.396 . S
C478 C479 1.399 . S
C479 H465 0.929 . S
C479 C478 1.399 . S
C479 C480 1.385 . S
C480 H466 0.931 . S
C480 C479 1.385 . S
C480 C481 1.389 . S
C481 C480 1.389 . S
C481 C482 1.387 . S
C482 H467 0.930 . S
C482 C477 1.390 . S
C482 C481 1.387 . S
H483 C495 0.930 . S
H484 C497 0.930 . S
H485 C498 0.930 . S
H486 C502 0.959 . S
H487 C502 0.959 . S
H488 C502 0.961 . S
H489 C503 0.960 . S
H490 C503 0.961 . S
H491 C503 0.959 . S
H492 C506 0.929 . S
H493 C507 0.931 . S
H494 C509 0.930 . S
C495 H483 0.930 . S
C495 C496 1.399 1_565 S
C495 C500 1.399 . S
C496 C495 1.399 1_545 S
C496 C497 1.376 . S
C497 H484 0.930 . S
C497 C496 1.376 . S
C497 C498 1.388 . S
C498 H485 0.930 . S
C498 C497 1.388 . S
C498 C499 1.390 . S
C499 C498 1.390 . S
C499 C500 1.394 1_545 S
C499 C505 1.465 . S
C500 C495 1.399 . S
C500 C499 1.394 1_565 S
C500 C501 1.516 . S
C501 C500 1.516 . S
C501 C502 1.502 . S
C501 C503 1.561 . S
C501 C504 1.526 . S
C502 H486 0.959 . S
C502 H487 0.959 . S
C502 H488 0.961 . S
C502 C501 1.502 . S
C503 H489 0.960 . S
C503 H490 0.961 . S
C503 H491 0.959 . S
C503 C501 1.561 . S
C504 C501 1.526 . S
C504 C505 1.396 1_565 S
C504 C509 1.390 . S
C505 C499 1.465 . S
C505 C504 1.396 1_545 S
C505 C506 1.399 . S
C506 H492 0.929 . S
C506 C505 1.399 . S
C506 C507 1.385 . S
C507 H493 0.931 . S
C507 C506 1.385 . S
C507 C508 1.389 . S
C508 C507 1.389 . S
C508 C509 1.387 1_545 S
C509 H494 0.930 . S
C509 C504 1.390 . S
C509 C508 1.387 1_565 S
H510 C522 0.930 . S
H511 C524 0.930 . S
H512 C525 0.930 . S
H513 C529 0.959 . S
H514 C529 0.959 . S
H515 C529 0.961 . S
H516 C530 0.960 . S
H517 C530 0.961 . S
H518 C530 0.959 . S
H519 C533 0.929 . S
H520 C534 0.931 . S
H521 C536 0.930 . S
C522 H510 0.930 . S
C522 C523 1.399 . S
C522 C527 1.399 . S
C523 C522 1.399 . S
C523 C524 1.376 . S
C524 H511 0.930 . S
C524 C523 1.376 . S
C524 C525 1.388 . S
C525 H512 0.930 . S
C525 C524 1.388 . S
C525 C526 1.390 . S
C526 C525 1.390 . S
C526 C527 1.394 . S
C526 C532 1.465 . S
C527 C522 1.399 . S
C527 C526 1.394 . S
C527 C528 1.516 . S
C528 C527 1.516 . S
C528 C529 1.502 . S
C528 C530 1.561 . S
C528 C531 1.526 . S
C529 H513 0.959 . S
C529 H514 0.959 . S
C529 H515 0.961 . S
C529 C528 1.502 . S
C530 H516 0.960 . S
C530 H517 0.961 . S
C530 H518 0.959 . S
C530 C528 1.561 . S
C531 C528 1.526 . S
C531 C532 1.396 . S
C531 C536 1.390 . S
C532 C526 1.465 . S
C532 C531 1.396 . S
C532 C533 1.399 . S
C533 H519 0.929 . S
C533 C532 1.399 . S
C533 C534 1.385 . S
C534 H520 0.931 . S
C534 C533 1.385 . S
C534 C535 1.389 . S
C535 C534 1.389 . S
C535 C536 1.387 . S
C536 H521 0.930 . S
C536 C531 1.390 . S
C536 C535 1.387 . S
H537 C549 0.916 1_565 S
H538 C551 0.930 . S
H539 C552 0.930 . S
H540 C556 0.959 . S
H541 C556 0.959 . S
H542 C556 0.961 . S
H543 C557 0.960 . S
H544 C557 0.961 . S
H545 C557 0.959 . S
H546 C560 0.929 . S
H547 C561 0.931 . S
H548 C563 0.930 1_565 S
C549 H537 0.916 1_545 S
C549 C550 1.414 . S
C549 C554 1.398 . S
C550 C549 1.414 . S
C550 C551 1.376 . S
C551 H538 0.930 . S
C551 C550 1.376 . S
C551 C552 1.388 . S
C552 H539 0.930 . S
C552 C551 1.388 . S
C552 C553 1.390 . S
C553 C552 1.390 . S
C553 C554 1.394 . S
C553 C559 1.465 . S
C554 C549 1.398 . S
C554 C553 1.394 . S
C554 C555 1.516 1_545 S
C555 C554 1.516 1_565 S
C555 C556 1.502 . S
C555 C557 1.561 . S
C555 C558 1.526 1_565 S
C556 H540 0.959 . S
C556 H541 0.959 . S
C556 H542 0.961 . S
C556 C555 1.502 . S
C557 H543 0.960 . S
C557 H544 0.961 . S
C557 H545 0.959 . S
C557 C555 1.561 . S
C558 C555 1.526 1_545 S
C558 C559 1.396 . S
C558 C563 1.390 . S
C559 C553 1.465 . S
C559 C558 1.396 . S
C559 C560 1.399 . S
C560 H546 0.929 . S
C560 C559 1.399 . S
C560 C561 1.385 . S
C561 H547 0.931 . S
C561 C560 1.385 . S
C561 C562 1.389 . S
C562 C561 1.389 . S
C562 C563 1.387 . S
C563 H548 0.930 1_545 S
C563 C558 1.390 . S
C563 C562 1.387 . S
H564 C576 0.930 . S
H565 C578 0.930 . S
H566 C579 0.930 . S
H567 C583 0.959 . S
H568 C583 0.959 1_554 S
H569 C583 0.961 . S
H570 C584 0.960 . S
H571 C584 0.961 1_554 S
H572 C584 0.959 . S
H573 C587 0.929 . S
H574 C588 0.931 . S
H575 C590 0.930 . S
C576 H564 0.930 . S
C576 C577 1.399 . S
C576 C581 1.399 . S
C577 C576 1.399 . S
C577 C578 1.376 . S
C578 H565 0.930 . S
C578 C577 1.376 . S
C578 C579 1.388 . S
C579 H566 0.930 . S
C579 C578 1.388 . S
C579 C580 1.390 . S
C580 C579 1.390 . S
C580 C581 1.394 . S
C580 C586 1.465 1_556 S
C581 C576 1.399 . S
C581 C580 1.394 . S
C581 C582 1.516 . S
C582 C581 1.516 . S
C582 C583 1.502 . S
C582 C584 1.561 . S
C582 C585 1.526 1_556 S
C583 H567 0.959 . S
C583 H568 0.959 1_556 S
C583 H569 0.961 . S
C583 C582 1.502 . S
C584 H570 0.960 . S
C584 H571 0.961 1_556 S
C584 H572 0.959 . S
C584 C582 1.561 . S
C585 C582 1.526 1_554 S
C585 C586 1.396 . S
C585 C590 1.390 . S
C586 C580 1.465 1_554 S
C586 C585 1.396 . S
C586 C587 1.399 . S
C587 H573 0.929 . S
C587 C586 1.399 . S
C587 C588 1.385 . S
C588 H574 0.931 . S
C588 C587 1.385 . S
C588 C589 1.389 . S
C589 C588 1.389 . S
C589 C590 1.387 . S
C590 H575 0.930 . S
C590 C585 1.390 . S
C590 C589 1.387 . S
H591 C603 0.930 1_655 S
H592 C605 0.930 . S
H593 C606 0.930 . S
H594 C610 0.959 . S
H595 C610 0.959 . S
H596 C610 0.961 . S
H597 C611 0.960 . S
H598 C611 0.961 . S
H599 C611 0.959 1_455 S
H600 C614 0.929 . S
H601 C615 0.931 . S
H602 C617 0.922 1_655 S
C603 H591 0.930 1_455 S
C603 C604 1.399 . S
C603 C608 1.399 . S
C604 C603 1.399 . S
C604 C605 1.376 . S
C605 H592 0.930 . S
C605 C604 1.376 . S
C605 C606 1.388 . S
C606 H593 0.930 . S
C606 C605 1.388 . S
C606 C607 1.390 . S
C607 C606 1.390 . S
C607 C608 1.394 . S
C607 C613 1.465 . S
C608 C603 1.399 . S
C608 C607 1.394 . S
C608 C609 1.516 1_455 S
C609 C608 1.516 1_655 S
C609 C610 1.502 . S
C609 C611 1.561 . S
C609 C612 1.526 1_655 S
C610 H594 0.959 . S
C610 H595 0.959 . S
C610 H596 0.961 . S
C610 C609 1.502 . S
C611 H597 0.960 . S
C611 H598 0.961 . S
C611 H599 0.959 1_655 S
C611 C609 1.561 . S
C612 C609 1.526 1_455 S
C612 C613 1.396 . S
C612 C617 1.394 . S
C613 C607 1.465 . S
C613 C612 1.396 . S
C613 C614 1.399 . S
C614 H600 0.929 . S
C614 C613 1.399 . S
C614 C615 1.385 . S
C615 H601 0.931 . S
C615 C614 1.385 . S
C615 C616 1.389 . S
C616 C615 1.389 . S
C616 C617 1.391 . S
C617 H602 0.922 1_455 S
C617 C612 1.394 . S
C617 C616 1.391 . S
C145 C2 1.311 . S
C157 C126 1.313 . S
C172 C21 1.029 . S
C184 C100 1.057 . S
C199 C42 1.146 . S
C211 C112 1.160 . S
C226 C1 0.769 . S
C238 C124 0.741 . S
C265 C102 0.953 . S
C253 C22 0.969 . S
C292 C114 0.896 . S
C280 C41 0.886 . S
C307 C38 1.898 . S
C319 C76 1.845 . S
C334 C59 2.175 . S
C346 C90 2.133 . S
C361 C18 1.786 . S
C373 C66 1.774 . S
C400 C78 1.844 . S
C388 C39 1.847 . S
C427 C88 1.615 . S
C415 C58 1.667 . S
C442 C19 2.002 . S
C454 C64 1.932 . S
C481 C93 1.591 . S
C469 C9 1.567 . S
C496 C29 1.551 . S
C508 C69 1.624 . S
C523 C49 1.498 . S
C535 C81 1.557 . S
C562 C117 1.492 . S
C550 C28 1.505 . S
C589 C129 1.469 . S
C577 C48 1.438 . S
C604 C8 1.395 . S
C616 C105 1.426 . S
