# Generated by pormake.
# Topology pyr, (3,6)-cn, num edge types: 1
# Building blocks:
#     Node 0, Type 0, BuildingBlock: BETDAH_clean_linker_0, # of connection points: 3
#     Node 1, Type 0, BuildingBlock: BETDAH_clean_linker_0, # of connection points: 3
#     Node 2, Type 0, BuildingBlock: BETDAH_clean_linker_0, # of connection points: 3
#     Node 3, Type 0, BuildingBlock: BETDAH_clean_linker_0, # of connection points: 3
#     Node 4, Type 0, BuildingBlock: BETDAH_clean_linker_0, # of connection points: 3
#     Node 5, Type 0, BuildingBlock: BETDAH_clean_linker_0, # of connection points: 3
#     Node 6, Type 0, BuildingBlock: BETDAH_clean_linker_0, # of connection points: 3
#     Node 7, Type 0, BuildingBlock: BETDAH_clean_linker_0, # of connection points: 3
#     Node 8, Type 1, BuildingBlock: MIFKUJ_clean_sbu_0, # of connection points: 6
#     Node 9, Type 1, BuildingBlock: MIFKUJ_clean_sbu_0, # of connection points: 6
#     Node 10, Type 1, BuildingBlock: MIFKUJ_clean_sbu_0, # of connection points: 6
#     Node 11, Type 1, BuildingBlock: MIFKUJ_clean_sbu_0, # of connection points: 6
#     Edge 12, Type (0, 1), BuildingBlock: XIVTED_clean_linker_0, # of connection points: 2
#     Edge 13, Type (0, 1), BuildingBlock: XIVTED_clean_linker_0, # of connection points: 2
#     Edge 14, Type (0, 1), BuildingBlock: XIVTED_clean_linker_0, # of connection points: 2
#     Edge 15, Type (0, 1), BuildingBlock: XIVTED_clean_linker_0, # of connection points: 2
#     Edge 16, Type (0, 1), BuildingBlock: XIVTED_clean_linker_0, # of connection points: 2
#     Edge 17, Type (0, 1), BuildingBlock: XIVTED_clean_linker_0, # of connection points: 2
#     Edge 18, Type (0, 1), BuildingBlock: XIVTED_clean_linker_0, # of connection points: 2
#     Edge 19, Type (0, 1), BuildingBlock: XIVTED_clean_linker_0, # of connection points: 2
#     Edge 20, Type (0, 1), BuildingBlock: XIVTED_clean_linker_0, # of connection points: 2
#     Edge 21, Type (0, 1), BuildingBlock: XIVTED_clean_linker_0, # of connection points: 2
#     Edge 22, Type (0, 1), BuildingBlock: XIVTED_clean_linker_0, # of connection points: 2
#     Edge 23, Type (0, 1), BuildingBlock: XIVTED_clean_linker_0, # of connection points: 2
#     Edge 24, Type (0, 1), BuildingBlock: XIVTED_clean_linker_0, # of connection points: 2
#     Edge 25, Type (0, 1), BuildingBlock: XIVTED_clean_linker_0, # of connection points: 2
#     Edge 26, Type (0, 1), BuildingBlock: XIVTED_clean_linker_0, # of connection points: 2
#     Edge 27, Type (0, 1), BuildingBlock: XIVTED_clean_linker_0, # of connection points: 2
#     Edge 28, Type (0, 1), BuildingBlock: XIVTED_clean_linker_0, # of connection points: 2
#     Edge 29, Type (0, 1), BuildingBlock: XIVTED_clean_linker_0, # of connection points: 2
#     Edge 30, Type (0, 1), BuildingBlock: XIVTED_clean_linker_0, # of connection points: 2
#     Edge 31, Type (0, 1), BuildingBlock: XIVTED_clean_linker_0, # of connection points: 2
#     Edge 32, Type (0, 1), BuildingBlock: XIVTED_clean_linker_0, # of connection points: 2
#     Edge 33, Type (0, 1), BuildingBlock: XIVTED_clean_linker_0, # of connection points: 2
#     Edge 34, Type (0, 1), BuildingBlock: XIVTED_clean_linker_0, # of connection points: 2
#     Edge 35, Type (0, 1), BuildingBlock: XIVTED_clean_linker_0, # of connection points: 2
# Relax obj value: 0.056
# Max RMSD: 0.192
# Mean RMSD: 0.126
data_MOF--net-pyr--node1-MIFKUJ_clean_sbu_0--node2-BETDAH_clean_linker_0--edge1-XIVTED_clean_linker_0
_symmetry_space_group_name_H-M    P1
_symmetry_Int_Tables_number       1
_symmetry_cell_setting            triclinic
loop_
_symmetry_equiv_pos_as_xyz
'x, y, z'
_cell_length_a     38.60929
_cell_length_b     34.860173
_cell_length_c     38.658234
_cell_angle_alpha  86.327294
_cell_angle_beta   88.564506
_cell_angle_gamma 103.51005
loop_
_atom_site_label
_atom_site_type_symbol
_atom_site_fract_x
_atom_site_fract_y
_atom_site_fract_z
_atom_type_partial_charge
H0 H 0.217 0.12353 0.23564 0.0
H1 H 0.25676 0.21996 0.15924 0.0
H2 H 0.17463 0.22765 0.23324 0.0
C3 C 0.21675 0.15273 0.2244 0.0
C4 C 0.19333 0.17372 0.2385 0.0
C5 C 0.23974 0.16899 0.19576 0.0
C6 C 0.23861 0.20633 0.18078 0.0
C7 C 0.21479 0.22706 0.19357 0.0
C8 C 0.19211 0.21084 0.22251 0.0
N9 N 0.21565 0.26482 0.17721 0.0
C10 C 0.18982 0.28606 0.18155 0.0
H11 H 0.40433 0.83883 0.75492 0.0
H12 H 0.33529 0.91594 0.77489 0.0
H13 H 0.3202 0.8478 0.68563 0.0
C14 C 0.38169 0.85069 0.74801 0.0
C15 C 0.36329 0.83922 0.71788 0.0
C16 C 0.37184 0.87824 0.76887 0.0
C17 C 0.3436 0.89495 0.75896 0.0
C18 C 0.32519 0.8845 0.72902 0.0
C19 C 0.33489 0.85646 0.70847 0.0
N20 N 0.29708 0.90308 0.72092 0.0
C21 C 0.27452 0.89559 0.69344 0.0
H22 H 0.71214 0.36032 0.91102 0.0
H23 H 0.74705 0.437 0.81889 0.0
H24 H 0.64522 0.35412 0.82309 0.0
C25 C 0.70711 0.37147 0.88527 0.0
C26 C 0.67543 0.35409 0.86947 0.0
C27 C 0.73332 0.4012 0.86723 0.0
C28 C 0.72721 0.41393 0.83324 0.0
C29 C 0.69532 0.39791 0.81755 0.0
C30 C 0.66939 0.36769 0.8356 0.0
N31 N 0.69127 0.41141 0.78289 0.0
C32 C 0.65922 0.41587 0.76968 0.0
H33 H 0.77173 0.72081 0.38759 0.0
H34 H 0.84842 0.7175 0.30548 0.0
H35 H 0.75238 0.62536 0.3204 0.0
C36 C 0.78021 0.70627 0.36605 0.0
C37 C 0.7582 0.671 0.35642 0.0
C38 C 0.81261 0.72357 0.34769 0.0
C39 C 0.82364 0.7043 0.31991 0.0
C40 C 0.80151 0.66883 0.31003 0.0
C41 C 0.76907 0.65272 0.32822 0.0
N42 N 0.80975 0.64878 0.28128 0.0
C43 C 0.8423 0.65566 0.26304 0.0
H44 H 0.89463 0.83721 0.78819 0.0
H45 H 0.80095 0.79587 0.85581 0.0
H46 H 0.79344 0.85715 0.75774 0.0
C47 C 0.86637 0.83387 0.79359 0.0
C48 C 0.84614 0.84959 0.76911 0.0
C49 C 0.85052 0.81426 0.82503 0.0
C50 C 0.81407 0.81155 0.83217 0.0
C51 C 0.79379 0.8274 0.80804 0.0
C52 C 0.80971 0.84603 0.77657 0.0
N53 N 0.75673 0.82224 0.81423 0.0
C54 C 0.74342 0.84553 0.83645 0.0
H55 H 0.71903 0.15368 0.328 0.0
H56 H 0.72973 0.22306 0.41677 0.0
H57 H 0.64405 0.22456 0.34832 0.0
C58 C 0.70996 0.17439 0.34368 0.0
C59 C 0.67982 0.18815 0.33406 0.0
C60 C 0.72803 0.18637 0.37364 0.0
C61 C 0.71561 0.2126 0.39404 0.0
C62 C 0.68522 0.22595 0.3855 0.0
C63 C 0.66704 0.21349 0.35555 0.0
N64 N 0.67509 0.25323 0.40711 0.0
C65 C 0.64199 0.26244 0.40894 0.0
H66 H 0.33316 0.73934 0.1638 0.0
H67 H 0.32006 0.61884 0.20445 0.0
H68 H 0.42048 0.70173 0.21185 0.0
C69 C 0.34382 0.71666 0.17725 0.0
C70 C 0.3794 0.72561 0.18738 0.0
C71 C 0.32206 0.6784 0.18356 0.0
C72 C 0.33617 0.64882 0.20022 0.0
C73 C 0.37145 0.65735 0.21055 0.0
C74 C 0.39303 0.69563 0.20419 0.0
N75 N 0.38601 0.62638 0.22446 0.0
C76 C 0.39063 0.62097 0.25975 0.0
H77 H 0.1669 0.33203 0.65993 0.0
H78 H 0.14255 0.40911 0.73456 0.0
H79 H 0.06877 0.29792 0.72121 0.0
C80 C 0.14897 0.33823 0.67972 0.0
C81 C 0.11701 0.31037 0.68879 0.0
C82 C 0.15832 0.37389 0.69587 0.0
C83 C 0.13539 0.38164 0.72197 0.0
C84 C 0.10276 0.35432 0.73088 0.0
C85 C 0.09367 0.31905 0.71396 0.0
N86 N 0.07826 0.36124 0.75644 0.0
C87 C 0.08566 0.39088 0.77952 0.0
Zn88 Zn 0.0405 0.00203 0.51699 0.0
Zn89 Zn 0.97634 0.03291 0.48608 0.0
C90 C 0.07575 0.07152 0.54959 0.0
O91 O 0.10394 0.05997 0.53875 0.0
C92 C 0.92863 0.96687 0.46244 0.0
O93 O 0.90753 0.98177 0.48208 0.0
O94 O 0.07925 0.97598 0.53426 0.0
O95 O 0.99326 0.9654 0.53123 0.0
O96 O 0.96979 0.01628 0.53738 0.0
C97 C 0.075 0.9543 0.5625 0.0
O98 O 0.04446 0.94779 0.58021 0.0
O99 O 0.04499 0.05175 0.54262 0.0
C100 C 0.93537 0.07411 0.44336 0.0
O101 O 0.95541 0.06425 0.41909 0.0
O102 O 0.93999 0.06468 0.47495 0.0
O103 O 0.02326 0.06544 0.46515 0.0
O104 O 0.05131 0.01715 0.46628 0.0
O105 O 0.96171 0.98345 0.46008 0.0
C106 C 0.97174 0.98135 0.54717 0.0
C107 C 0.04692 0.04972 0.45264 0.0
Zn108 Zn 0.55718 0.0167 0.01718 0.0
Zn109 Zn 0.50651 0.06603 0.06931 0.0
C110 C 0.50737 0.96098 0.98059 0.0
O111 O 0.52393 0.93626 0.99622 0.0
C112 C 0.56724 0.09179 0.11406 0.0
O113 O 0.58707 0.0967 0.08528 0.0
O114 O 0.59609 0.99322 0.99812 0.0
O115 O 0.5728 0.0755 0.00606 0.0
O116 O 0.53207 0.10279 0.02956 0.0
C117 C 0.60605 0.00261 0.96649 0.0
O118 O 0.59195 0.0282 0.9488 0.0
O119 O 0.51565 0.99718 0.98718 0.0
C120 C 0.44404 0.06649 0.10782 0.0
O121 O 0.4581 0.0432 0.12832 0.0
O122 O 0.46021 0.08078 0.07914 0.0
O123 O 0.49272 0.00731 0.065 0.0
O124 O 0.54522 0.99337 0.06637 0.0
O125 O 0.53378 0.07816 0.11295 0.0
C126 C 0.5588 0.10479 0.00904 0.0
C127 C 0.5127 0.98572 0.07662 0.0
Zn128 Zn 0.47843 0.49185 0.53187 0.0
Zn129 Zn 0.46193 0.5623 0.57321 0.0
C130 C 0.52744 0.53657 0.48231 0.0
O131 O 0.50254 0.51667 0.46342 0.0
C132 C 0.40532 0.52352 0.62031 0.0
O133 O 0.4276 0.54247 0.64208 0.0
O134 O 0.48369 0.4437 0.50693 0.0
O135 O 0.47945 0.4794 0.58344 0.0
O136 O 0.50104 0.54101 0.59595 0.0
C137 C 0.49168 0.41345 0.52173 0.0
O138 O 0.49316 0.41058 0.55566 0.0
O139 O 0.52323 0.53223 0.51519 0.0
C140 C 0.43852 0.6335 0.58226 0.0
O141 O 0.42098 0.62237 0.55452 0.0
O142 O 0.45957 0.61332 0.5944 0.0
O143 O 0.46311 0.57251 0.52108 0.0
O144 O 0.43684 0.51091 0.51273 0.0
O145 O 0.41478 0.5259 0.58834 0.0
C146 C 0.49775 0.50408 0.60267 0.0
C147 C 0.44352 0.54752 0.50296 0.0
Zn148 Zn 0.00879 0.59501 1.00208 0.0
Zn149 Zn 0.03237 0.53481 0.05502 0.0
C150 C 0.96222 0.54459 0.9621 0.0
O151 O 0.98679 0.56395 0.93912 0.0
C152 C 0.07773 0.58558 0.09627 0.0
O153 O 0.053 0.56569 0.11887 0.0
O154 O -0.00024 0.64174 0.9733 0.0
O155 O 0.0071 0.60911 0.05222 0.0
O156 O 0.98758 0.54751 0.07313 0.0
C157 C 0.97293 0.65432 0.98293 0.0
O158 O 0.95475 0.63808 0.01148 0.0
O159 O 0.96562 0.55187 0.99381 0.0
C160 C 0.07408 0.48651 0.08307 0.0
O161 O 0.09664 0.51141 0.06148 0.0
O162 O 0.04172 0.48887 0.08489 0.0
O163 O 0.03533 0.51907 0.00634 0.0
O164 O 0.05121 0.57879 0.98001 0.0
O165 O 0.07383 0.57998 0.06425 0.0
C166 C 0.98915 0.58409 0.0752 0.0
C167 C 0.05051 0.54205 0.98078 0.0
H168 H 0.12436 0.17733 0.25548 0.0
H169 H 0.10883 0.03454 0.42762 0.0
H170 H 0.21219 0.1328 0.29505 0.0
H171 H 0.03543 0.10887 0.40736 0.0
H172 H 0.14453 0.06593 0.37596 0.0
H173 H 0.08895 0.14881 0.30835 0.0
C174 C 0.13631 0.16179 0.27527 0.0
C175 C 0.17129 0.15722 0.27054 0.0
C176 C 0.12068 0.07548 0.38289 0.0
C177 C 0.13068 0.12401 0.33077 0.0
C178 C 0.10022 0.05748 0.41231 0.0
C179 C 0.06912 0.06912 0.42183 0.0
C180 C 0.10976 0.10501 0.36253 0.0
C181 C 0.05932 0.09911 0.40105 0.0
C182 C 0.11601 0.1454 0.30537 0.0
C183 C 0.18512 0.13633 0.29702 0.0
N184 N 0.07947 0.11588 0.37222 0.0
N185 N 0.16474 0.12036 0.32583 0.0
H186 H 0.39513 0.83022 0.81763 0.0
H187 H 0.47396 0.00597 0.93832 0.0
H188 H 0.39154 0.95189 0.79384 0.0
H189 H 0.48629 0.88662 0.95768 0.0
H190 H 0.43945 0.98539 0.88783 0.0
H191 H 0.4255 0.84934 0.87082 0.0
C192 C 0.40091 0.86099 0.82345 0.0
C193 C 0.39077 0.88948 0.80112 0.0
C194 C 0.44954 0.96364 0.90322 0.0
C195 C 0.42509 0.91148 0.86233 0.0
C196 C 0.46913 0.97534 0.93218 0.0
C197 C 0.48323 0.94804 0.95222 0.0
C198 C 0.44393 0.92433 0.89416 0.0
C199 C 0.47607 0.90874 0.94294 0.0
C200 C 0.41802 0.87184 0.85398 0.0
C201 C 0.39842 0.9288 0.81042 0.0
N202 N 0.45708 0.89811 0.91451 0.0
N203 N 0.41512 0.93861 0.84024 0.0
H204 H 0.64354 0.48702 0.76623 0.0
H205 H 0.49664 0.42729 0.62428 0.0
H206 H 0.61015 0.36937 0.732 0.0
H207 H 0.54219 0.5477 0.64762 0.0
H208 H 0.53157 0.40417 0.66939 0.0
H209 H 0.59979 0.50814 0.72919 0.0
C210 C 0.62641 0.46553 0.7513 0.0
C211 C 0.63003 0.4265 0.75205 0.0
C212 C 0.53381 0.43563 0.66475 0.0
C213 C 0.58058 0.45031 0.70933 0.0
C214 C 0.5139 0.44892 0.63891 0.0
C215 C 0.51682 0.48961 0.63172 0.0
C216 C 0.55677 0.46316 0.68372 0.0
C217 C 0.53927 0.51611 0.652 0.0
C218 C 0.60165 0.47758 0.73005 0.0
C219 C 0.60778 0.39971 0.73211 0.0
N220 N 0.55851 0.50243 0.67692 0.0
N221 N 0.58404 0.41217 0.71133 0.0
H222 H 0.86934 0.7037 0.20594 0.0
H223 H 0.96266 0.54148 0.1358 0.0
H224 H 0.87967 0.59992 0.26757 0.0
H225 H 0.97622 0.65731 0.08311 0.0
H226 H 0.93283 0.56334 0.18456 0.0
H227 H 0.91016 0.68938 0.16129 0.0
C228 C 0.88106 0.67853 0.21038 0.0
C229 C 0.8717 0.65309 0.24035 0.0
C230 C 0.9425 0.58411 0.16245 0.0
C231 C 0.91708 0.63577 0.18938 0.0
C232 C 0.95936 0.57155 0.13447 0.0
C233 C 0.97172 0.5975 0.10519 0.0
C234 C 0.93747 0.62281 0.16109 0.0
C235 C 0.967 0.63627 0.10513 0.0
C236 C 0.90408 0.67019 0.18489 0.0
C237 C 0.88672 0.62039 0.24482 0.0
N238 N 0.94994 0.64765 0.13251 0.0
N239 N 0.90839 0.61238 0.21942 0.0
H240 H 0.27964 0.12653 0.23293 0.0
H241 H 0.40463 0.10921 0.0704 0.0
H242 H 0.26043 0.16415 0.12799 0.0
H243 H 0.40826 0.04877 0.17081 0.0
H244 H 0.35178 0.1298 0.09087 0.0
H245 H 0.32644 0.09722 0.2106 0.0
C246 C 0.28487 0.12816 0.20515 0.0
C247 C 0.26617 0.14811 0.18234 0.0
C248 C 0.36401 0.11179 0.10833 0.0
C249 C 0.32032 0.1153 0.15665 0.0
C250 C 0.39423 0.10012 0.09669 0.0
C251 C 0.411 0.07745 0.119 0.0
C252 C 0.3507 0.10102 0.14262 0.0
C253 C 0.39626 0.06635 0.15274 0.0
C254 C 0.31178 0.11161 0.19243 0.0
C255 C 0.27461 0.14978 0.14662 0.0
N256 N 0.36713 0.0785 0.16361 0.0
N257 N 0.30125 0.1339 0.13491 0.0
H258 H 0.20692 0.8523 0.7004 0.0
H259 H 0.14504 0.9721 0.53894 0.0
H260 H 0.27988 0.93715 0.63128 0.0
H261 H 0.07306 0.90165 0.61853 0.0
H262 H 0.19463 0.95065 0.56609 0.0
H263 H 0.15767 0.86032 0.66392 0.0
C264 C 0.21256 0.87186 0.67697 0.0
C265 C 0.24721 0.89393 0.66847 0.0
C266 C 0.16793 0.93963 0.57741 0.0
C267 C 0.19128 0.90412 0.62722 0.0
C268 C 0.13958 0.95181 0.56191 0.0
C269 C 0.10485 0.93898 0.57668 0.0
C270 C 0.1615 0.91428 0.60783 0.0
C271 C 0.09941 0.91264 0.60641 0.0
C272 C 0.1845 0.87671 0.65633 0.0
C273 C 0.25336 0.91941 0.63834 0.0
N274 N 0.12743 0.90136 0.62109 0.0
N275 N 0.22557 0.92411 0.61887 0.0
H276 H 0.74382 0.42222 0.93413 0.0
H277 H 0.95225 0.51507 0.89869 0.0
H278 H 0.80067 0.41848 0.83731 0.0
H279 H 0.89877 0.51298 0.99844 0.0
H280 H 0.8973 0.47615 0.87714 0.0
H281 H 0.80041 0.45208 0.95948 0.0
C282 C 0.76822 0.4274 0.91828 0.0
C283 C 0.76746 0.41819 0.88343 0.0
C284 C 0.89753 0.48392 0.90382 0.0
C285 C 0.83221 0.45256 0.91217 0.0
C286 C 0.92895 0.50618 0.91616 0.0
C287 C 0.92998 0.51758 0.95033 0.0
C288 C 0.86672 0.47316 0.92568 0.0
C289 C 0.89908 0.50489 0.97188 0.0
C290 C 0.80048 0.44456 0.93274 0.0
C291 C 0.79986 0.42584 0.86405 0.0
N292 N 0.86854 0.48364 0.95909 0.0
N293 N 0.83083 0.4427 0.87863 0.0
H294 H 0.69401 0.64026 0.32877 0.0
H295 H 0.58895 0.57421 0.51229 0.0
H296 H 0.74326 0.66282 0.42674 0.0
H297 H 0.54163 0.55432 0.41304 0.0
H298 H 0.64499 0.60978 0.4821 0.0
H299 H 0.63733 0.61085 0.35981 0.0
C300 C 0.69292 0.63885 0.35686 0.0
C301 C 0.72348 0.65375 0.37519 0.0
C302 C 0.62224 0.5978 0.46699 0.0
C303 C 0.65845 0.62041 0.41104 0.0
C304 C 0.59024 0.57759 0.48421 0.0
C305 C 0.56065 0.56102 0.46515 0.0
C306 C 0.62455 0.60139 0.43052 0.0
C307 C 0.56381 0.56631 0.42882 0.0
C308 C 0.66047 0.62228 0.3746 0.0
C309 C 0.7203 0.65187 0.41158 0.0
N310 N 0.59518 0.58582 0.41274 0.0
N311 N 0.68839 0.63532 0.42834 0.0
H312 H 0.12095 0.2707 0.16329 0.0
H313 H 0.1403 0.49562 0.10745 0.0
H314 H 0.20781 0.36289 0.19316 0.0
H315 H 0.03784 0.41276 0.11023 0.0
H316 H 0.16422 0.44693 0.14098 0.0
H317 H 0.0878 0.32093 0.14682 0.0
C318 C 0.13247 0.30147 0.16729 0.0
C319 C 0.16686 0.31308 0.17956 0.0
C320 C 0.13638 0.43939 0.13467 0.0
C321 C 0.13004 0.37029 0.16008 0.0
C322 C 0.12279 0.4671 0.1153 0.0
C323 C 0.08721 0.4579 0.10575 0.0
C324 C 0.11447 0.40177 0.14396 0.0
C325 C 0.0655 0.4208 0.11702 0.0
C326 C 0.11371 0.33006 0.15782 0.0
C327 C 0.18118 0.35305 0.18387 0.0
N328 N 0.07966 0.39369 0.13508 0.0
N329 N 0.1629 0.38037 0.17365 0.0
H330 H 0.64469 0.34812 0.93458 0.0
H331 H 0.59963 0.11432 0.9489 0.0
H332 H 0.65204 0.28078 0.84611 0.0
H333 H 0.55087 0.17944 0.01931 0.0
H334 H 0.62285 0.17554 0.91272 0.0
H335 H 0.61265 0.28725 0.96772 0.0
C336 C 0.63894 0.32055 0.92202 0.0
C337 C 0.65082 0.31929 0.88762 0.0
C338 C 0.60691 0.17636 0.936 0.0
C339 C 0.61524 0.24972 0.92545 0.0
C340 C 0.5939 0.14151 0.95682 0.0
C341 C 0.5734 0.1418 0.98727 0.0
C342 C 0.59994 0.21192 0.94597 0.0
C343 C 0.56654 0.17787 0.99605 0.0
C344 C 0.62077 0.28591 0.94089 0.0
C345 C 0.64298 0.28293 0.87249 0.0
N346 N 0.58008 0.2116 0.97567 0.0
N347 N 0.62613 0.24942 0.89168 0.0
H348 H 0.8845 0.74679 0.35927 0.0
H349 H 0.85877 0.93704 0.45074 0.0
H350 H 0.7879 0.78875 0.35861 0.0
H351 H 0.9636 0.91881 0.42834 0.0
H352 H 0.83302 0.88073 0.41818 0.0
H353 H 0.9153 0.80842 0.38406 0.0
C354 C 0.86999 0.76921 0.36381 0.0
C355 C 0.83349 0.76246 0.35748 0.0
C356 C 0.86169 0.88901 0.42015 0.0
C357 C 0.86813 0.83228 0.38605 0.0
C358 C 0.87643 0.92112 0.43898 0.0
C359 C 0.9134 0.93259 0.4424 0.0
C360 C 0.88393 0.86765 0.40482 0.0
C361 C 0.93493 0.91091 0.42632 0.0
C362 C 0.88747 0.8042 0.37808 0.0
C363 C 0.81587 0.79238 0.36383 0.0
N364 N 0.91984 0.8792 0.40839 0.0
N365 N 0.83321 0.82566 0.37807 0.0
H366 H 0.36499 0.83655 0.64661 0.0
H367 H 0.45586 0.65248 0.64836 0.0
H368 H 0.38631 0.7734 0.74046 0.0
H369 H 0.4028 0.68898 0.55948 0.0
H370 H 0.43807 0.70326 0.68074 0.0
H371 H 0.38472 0.78802 0.61269 0.0
C372 C 0.37355 0.81244 0.66016 0.0
C373 C 0.37409 0.80937 0.69658 0.0
C374 C 0.43044 0.70024 0.6541 0.0
C375 C 0.3975 0.75423 0.65775 0.0
C376 C 0.44079 0.67143 0.63552 0.0
C377 C 0.43072 0.66637 0.60117 0.0
C378 C 0.41017 0.72451 0.63816 0.0
C379 C 0.41102 0.69172 0.58596 0.0
C380 C 0.38505 0.7849 0.64073 0.0
C381 C 0.38609 0.77768 0.7125 0.0
N382 N 0.40139 0.7197 0.60454 0.0
N383 N 0.39743 0.75156 0.69303 0.0
H384 H 0.83753 0.91806 0.73509 0.0
H385 H 0.97088 0.90725 0.57588 0.0
H386 H 0.89281 0.82464 0.72648 0.0
H387 H 0.92554 0.00764 0.58961 0.0
H388 H 0.93902 0.87452 0.62897 0.0
H389 H 0.86609 0.9493 0.67979 0.0
C390 C 0.85554 0.90404 0.72147 0.0
C391 C 0.86294 0.8688 0.73548 0.0
C392 C 0.93598 0.90369 0.62037 0.0
C393 C 0.89579 0.9044 0.67233 0.0
C394 C 0.95417 0.92242 0.59 0.0
C395 C 0.95113 0.96043 0.57838 0.0
C396 C 0.91441 0.92296 0.63927 0.0
C397 C 0.92882 0.97843 0.59767 0.0
C398 C 0.87195 0.92196 0.69001 0.0
C399 C 0.88674 0.8521 0.71689 0.0
N400 N 0.91138 0.95957 0.62721 0.0
N401 N 0.90229 0.87003 0.6863 0.0
H402 H 0.71262 0.18608 0.27108 0.0
H403 H 0.53312 0.09177 0.17724 0.0
H404 H 0.6083 0.16333 0.32182 0.0
H405 H 0.63764 0.12215 0.12618 0.0
H406 H 0.55975 0.11656 0.23063 0.0
H407 H 0.6852 0.16231 0.21798 0.0
C408 C 0.68387 0.17602 0.27104 0.0
C409 C 0.66274 0.17636 0.30107 0.0
C410 C 0.57685 0.11776 0.20776 0.0
C411 C 0.63101 0.14914 0.24005 0.0
C412 C 0.56169 0.10347 0.17726 0.0
C413 C 0.58318 0.10486 0.14709 0.0
C414 C 0.61379 0.13349 0.2082 0.0
C415 C 0.62 0.12046 0.14873 0.0
C416 C 0.6682 0.16255 0.24063 0.0
C417 C 0.62558 0.1637 0.29925 0.0
N418 N 0.6341 0.13415 0.17871 0.0
N419 N 0.61089 0.15037 0.2693 0.0
H420 H 0.36337 0.55173 0.29603 0.0
H421 H 0.46001 0.62196 0.47004 0.0
H422 H 0.42821 0.66901 0.30503 0.0
H423 H 0.40222 0.50214 0.45712 0.0
H424 H 0.44478 0.64136 0.41153 0.0
H425 H 0.37341 0.53455 0.35683 0.0
C426 C 0.37957 0.57387 0.31107 0.0
C427 C 0.39507 0.61168 0.29595 0.0
C428 C 0.4353 0.61087 0.42157 0.0
C429 C 0.40689 0.59249 0.36512 0.0
C430 C 0.44391 0.59976 0.45502 0.0
C431 C 0.4325 0.56029 0.46851 0.0
C432 C 0.41505 0.58234 0.40143 0.0
C433 C 0.41171 0.53286 0.4478 0.0
C434 C 0.38536 0.56412 0.34566 0.0
C435 C 0.41587 0.63949 0.3161 0.0
N436 N 0.40377 0.54438 0.4153 0.0
N437 N 0.4213 0.62931 0.34975 0.0
H438 H 0.0757 0.46558 0.77514 0.0
H439 H 0.07027 0.47215 0.98096 0.0
H440 H 0.1019 0.37678 0.84557 0.0
H441 H 0.06105 0.57154 0.91235 0.0
H442 H 0.08543 0.43902 0.93117 0.0
H443 H 0.07367 0.50713 0.82397 0.0
C444 C 0.08162 0.45526 0.80086 0.0
C445 C 0.08907 0.418 0.80664 0.0
C446 C 0.08047 0.46823 0.92687 0.0
C447 C 0.08626 0.46462 0.86239 0.0
C448 C 0.07174 0.48719 0.95536 0.0
C449 C 0.06409 0.52457 0.95081 0.0
C450 C 0.08109 0.4864 0.8933 0.0
C451 C 0.06674 0.54273 0.91703 0.0
C452 C 0.0804 0.47884 0.82868 0.0
C453 C 0.09619 0.40551 0.84024 0.0
N454 N 0.07455 0.52323 0.88948 0.0
N455 N 0.09433 0.42862 0.86691 0.0
H456 H 0.72273 0.83212 0.90443 0.0
H457 H 0.63521 0.01915 0.90059 0.0
H458 H 0.7284 0.91458 0.81544 0.0
H459 H 0.63284 0.94052 0.99201 0.0
H460 H 0.67215 0.98308 0.87017 0.0
H461 H 0.69246 0.87303 0.93823 0.0
C462 C 0.71778 0.85909 0.89223 0.0
C463 C 0.72783 0.87031 0.85737 0.0
C464 C 0.66377 0.9738 0.89695 0.0
C465 C 0.69329 0.91685 0.89533 0.0
C466 C 0.64264 0.99442 0.91437 0.0
C467 C 0.63074 0.98273 0.94887 0.0
C468 C 0.67297 0.94102 0.91402 0.0
C469 C 0.64137 0.95054 0.9654 0.0
C470 C 0.70054 0.88236 0.9114 0.0
C471 C 0.72093 0.90519 0.8424 0.0
N472 N 0.66169 0.93063 0.94775 0.0
N473 N 0.70391 0.9272 0.86143 0.0
H474 H 0.78273 0.17555 0.33134 0.0
H475 H 0.88578 0.09382 0.48655 0.0
H476 H 0.74593 0.16345 0.43875 0.0
H477 H 0.91849 0.09826 0.37846 0.0
H478 H 0.83624 0.12276 0.46983 0.0
H479 H 0.83409 0.15005 0.34834 0.0
C480 C 0.78534 0.16738 0.35849 0.0
C481 C 0.75983 0.17157 0.38363 0.0
C482 C 0.85431 0.11751 0.44977 0.0
C483 C 0.81893 0.14276 0.40334 0.0
C484 C 0.88268 0.10106 0.45931 0.0
C485 C 0.90631 0.09349 0.43387 0.0
C486 C 0.84951 0.12653 0.41453 0.0
C487 C 0.90091 0.10348 0.39897 0.0
C488 C 0.81482 0.15303 0.3682 0.0
C489 C 0.76506 0.16117 0.4185 0.0
N490 N 0.87306 0.11938 0.39034 0.0
N491 N 0.79394 0.1472 0.42729 0.0
H492 H 0.26161 0.63754 0.21982 0.0
H493 H 0.13741 0.62591 0.05762 0.0
H494 H 0.2985 0.69782 0.12006 0.0
H495 H 0.0969 0.59419 0.16327 0.0
H496 H 0.19656 0.653 0.07934 0.0
H497 H 0.20099 0.62052 0.19899 0.0
C498 C 0.25688 0.64719 0.19353 0.0
C499 C 0.28504 0.66901 0.1716 0.0
C500 C 0.17458 0.64052 0.09774 0.0
C501 C 0.21586 0.64971 0.14753 0.0
C502 C 0.14081 0.62515 0.08536 0.0
C503 C 0.11221 0.60746 0.10864 0.0
C504 C 0.1798 0.63776 0.13358 0.0
C505 C 0.11817 0.6073 0.14432 0.0
C506 C 0.22228 0.63773 0.18171 0.0
C507 C 0.27744 0.68117 0.13787 0.0
N508 N 0.15135 0.62175 0.15566 0.0
N509 N 0.24361 0.67107 0.12675 0.0
H510 H 0.18366 0.39969 0.63007 0.0
H511 H 0.37677 0.51214 0.68684 0.0
H512 H 0.21081 0.41163 0.73701 0.0
H513 H 0.35034 0.48779 0.58135 0.0
H514 H 0.31536 0.47996 0.70588 0.0
H515 H 0.24333 0.43793 0.61189 0.0
C516 C 0.2022 0.4107 0.64973 0.0
C517 C 0.19248 0.40215 0.68509 0.0
C518 C 0.32303 0.48166 0.67858 0.0
C519 C 0.26102 0.44582 0.66449 0.0
C520 C 0.35811 0.49992 0.66768 0.0
C521 C 0.36876 0.50256 0.63243 0.0
C522 C 0.29839 0.46607 0.65404 0.0
C523 C 0.3434 0.48632 0.60878 0.0
C524 C 0.23629 0.43247 0.63935 0.0
C525 C 0.21728 0.41765 0.70949 0.0
N526 N 0.30943 0.46883 0.62002 0.0
N527 N 0.25061 0.43848 0.69873 0.0
H528 H 0.84715 0.80973 0.89646 0.0
H529 H 0.99388 0.68165 0.91573 0.0
H530 H 0.90202 0.77475 0.80948 0.0
H531 H 0.92153 0.69303 0.99933 0.0
H532 H 0.967 0.72464 0.87784 0.0
H533 H 0.8801 0.77499 0.93581 0.0
C534 C 0.86609 0.79479 0.88559 0.0
C535 C 0.87165 0.79513 0.84951 0.0
C536 C 0.95719 0.71792 0.90455 0.0
C537 C 0.90986 0.75579 0.89449 0.0
C538 C 0.97264 0.69355 0.92624 0.0
C539 C 0.95975 0.68351 0.96068 0.0
C540 C 0.92882 0.73254 0.91746 0.0
C541 C 0.93212 0.69974 0.97288 0.0
C542 C 0.88503 0.77514 0.90809 0.0
C543 C 0.89711 0.77584 0.83704 0.0
N544 N 0.91749 0.72332 0.95126 0.0
N545 N 0.91516 0.7569 0.85947 0.0
H546 H 0.3627 0.79709 0.193 0.0
H547 H 0.54203 0.92257 0.09383 0.0
H548 H 0.44845 0.74534 0.16092 0.0
H549 H 0.44668 0.96515 0.10869 0.0
H550 H 0.51254 0.8604 0.12657 0.0
H551 H 0.39787 0.86201 0.1709 0.0
C552 C 0.38904 0.79944 0.18147 0.0
C553 C 0.40245 0.76566 0.17836 0.0
C554 C 0.49825 0.88354 0.12283 0.0
C555 C 0.44296 0.83998 0.15305 0.0
C556 C 0.51507 0.91903 0.10423 0.0
C557 C 0.49669 0.94901 0.09828 0.0
C558 C 0.46298 0.87821 0.13577 0.0
C559 C 0.46181 0.9428 0.11239 0.0
C560 C 0.40915 0.83652 0.16891 0.0
C561 C 0.43709 0.7706 0.16391 0.0
N562 N 0.44609 0.90812 0.13033 0.0
N563 N 0.45605 0.80704 0.15145 0.0
H564 H 0.16215 0.26268 0.6766 0.0
H565 H 0.02395 0.10691 0.5735 0.0
H566 H 0.05364 0.27127 0.66258 0.0
H567 H 0.13712 0.11445 0.57476 0.0
H568 H 0.03218 0.1633 0.60985 0.0
H569 H 0.15107 0.20392 0.64394 0.0
C570 C 0.13592 0.25216 0.66661 0.0
C571 C 0.10893 0.27231 0.6719 0.0
C572 C 0.05515 0.15255 0.60212 0.0
C573 C 0.09591 0.20455 0.63448 0.0
C574 C 0.0505 0.1204 0.58136 0.0
C575 C 0.07992 0.10597 0.57097 0.0
C576 C 0.0894 0.17014 0.61273 0.0
C577 C 0.11367 0.12457 0.58198 0.0
C578 C 0.12958 0.21851 0.64798 0.0
C579 C 0.0752 0.25666 0.6591 0.0
N580 N 0.11743 0.15556 0.60225 0.0
N581 N 0.06968 0.2238 0.64075 0.0
H582 H 0.59619 0.23318 0.4628 0.0
H583 H 0.50804 0.41978 0.4517 0.0
H584 H 0.61902 0.32398 0.37896 0.0
H585 H 0.50586 0.34281 0.54416 0.0
H586 H 0.53761 0.37722 0.41963 0.0
H587 H 0.55168 0.26487 0.48731 0.0
C588 C 0.59102 0.25925 0.44911 0.0
C589 C 0.61085 0.276 0.41883 0.0
C590 C 0.53025 0.36941 0.44683 0.0
C591 C 0.56084 0.31293 0.44695 0.0
C592 C 0.51322 0.39359 0.46516 0.0
C593 C 0.50473 0.38507 0.50081 0.0
C594 C 0.53866 0.33633 0.4642 0.0
C595 C 0.51216 0.35075 0.51681 0.0
C596 C 0.56589 0.27752 0.46321 0.0
C597 C 0.60386 0.31012 0.40226 0.0
N598 N 0.5289 0.32783 0.49847 0.0
N599 N 0.57957 0.32774 0.4167 0.0
loop_
_geom_bond_atom_site_label_1
_geom_bond_atom_site_label_2
_geom_bond_distance
_geom_bond_site_symmetry_2
_ccdc_geom_bond_type
H0 C3 0.929 . S
H1 C6 0.929 . S
H2 C8 0.930 . S
C3 H0 0.929 . S
C3 C4 1.398 . S
C3 C5 1.396 . S
C4 C3 1.398 . S
C4 C8 1.407 . S
C5 C3 1.396 . S
C5 C6 1.394 . S
C6 H1 0.929 . S
C6 C5 1.394 . S
C6 C7 1.382 . S
C7 C6 1.382 . S
C7 C8 1.392 . S
C7 N9 1.420 . S
C8 H2 0.930 . S
C8 C4 1.407 . S
C8 C7 1.392 . S
N9 C7 1.420 . S
N9 C10 1.244 . S
C10 N9 1.244 . S
H11 C14 0.929 . S
H12 C17 0.929 . S
H13 C19 0.930 . S
C14 H11 0.929 . S
C14 C15 1.398 . S
C14 C16 1.396 . S
C15 C14 1.398 . S
C15 C19 1.407 . S
C16 C14 1.396 . S
C16 C17 1.394 . S
C17 H12 0.929 . S
C17 C16 1.394 . S
C17 C18 1.382 . S
C18 C17 1.382 . S
C18 C19 1.392 . S
C18 N20 1.420 . S
C19 H13 0.930 . S
C19 C15 1.407 . S
C19 C18 1.392 . S
N20 C18 1.420 . S
N20 C21 1.244 . S
C21 N20 1.244 . S
H22 C25 0.929 . S
H23 C28 0.929 . S
H24 C30 0.930 . S
C25 H22 0.929 . S
C25 C26 1.398 . S
C25 C27 1.396 . S
C26 C25 1.398 . S
C26 C30 1.407 . S
C27 C25 1.396 . S
C27 C28 1.394 . S
C28 H23 0.929 . S
C28 C27 1.394 . S
C28 C29 1.382 . S
C29 C28 1.382 . S
C29 C30 1.392 . S
C29 N31 1.420 . S
C30 H24 0.930 . S
C30 C26 1.407 . S
C30 C29 1.392 . S
N31 C29 1.420 . S
N31 C32 1.244 . S
C32 N31 1.244 . S
H33 C36 0.929 . S
H34 C39 0.929 . S
H35 C41 0.930 . S
C36 H33 0.929 . S
C36 C37 1.398 . S
C36 C38 1.396 . S
C37 C36 1.398 . S
C37 C41 1.407 . S
C38 C36 1.396 . S
C38 C39 1.394 . S
C39 H34 0.929 . S
C39 C38 1.394 . S
C39 C40 1.382 . S
C40 C39 1.382 . S
C40 C41 1.392 . S
C40 N42 1.420 . S
C41 H35 0.930 . S
C41 C37 1.407 . S
C41 C40 1.392 . S
N42 C40 1.420 . S
N42 C43 1.244 . S
C43 N42 1.244 . S
H44 C47 0.929 . S
H45 C50 0.929 . S
H46 C52 0.930 . S
C47 H44 0.929 . S
C47 C48 1.398 . S
C47 C49 1.396 . S
C48 C47 1.398 . S
C48 C52 1.407 . S
C49 C47 1.396 . S
C49 C50 1.394 . S
C50 H45 0.929 . S
C50 C49 1.394 . S
C50 C51 1.382 . S
C51 C50 1.382 . S
C51 C52 1.392 . S
C51 N53 1.420 . S
C52 H46 0.930 . S
C52 C48 1.407 . S
C52 C51 1.392 . S
N53 C51 1.420 . S
N53 C54 1.244 . S
C54 N53 1.244 . S
H55 C58 0.929 . S
H56 C61 0.929 . S
H57 C63 0.930 . S
C58 H55 0.929 . S
C58 C59 1.398 . S
C58 C60 1.396 . S
C59 C58 1.398 . S
C59 C63 1.407 . S
C60 C58 1.396 . S
C60 C61 1.394 . S
C61 H56 0.929 . S
C61 C60 1.394 . S
C61 C62 1.382 . S
C62 C61 1.382 . S
C62 C63 1.392 . S
C62 N64 1.420 . S
C63 H57 0.930 . S
C63 C59 1.407 . S
C63 C62 1.392 . S
N64 C62 1.420 . S
N64 C65 1.244 . S
C65 N64 1.244 . S
H66 C69 0.929 . S
H67 C72 0.929 . S
H68 C74 0.930 . S
C69 H66 0.929 . S
C69 C70 1.398 . S
C69 C71 1.396 . S
C70 C69 1.398 . S
C70 C74 1.407 . S
C71 C69 1.396 . S
C71 C72 1.394 . S
C72 H67 0.929 . S
C72 C71 1.394 . S
C72 C73 1.382 . S
C73 C72 1.382 . S
C73 C74 1.392 . S
C73 N75 1.420 . S
C74 H68 0.930 . S
C74 C70 1.407 . S
C74 C73 1.392 . S
N75 C73 1.420 . S
N75 C76 1.244 . S
C76 N75 1.244 . S
H77 C80 0.929 . S
H78 C83 0.929 . S
H79 C85 0.930 . S
C80 H77 0.929 . S
C80 C81 1.398 . S
C80 C82 1.396 . S
C81 C80 1.398 . S
C81 C85 1.407 . S
C82 C80 1.396 . S
C82 C83 1.394 . S
C83 H78 0.929 . S
C83 C82 1.394 . S
C83 C84 1.382 . S
C84 C83 1.382 . S
C84 C85 1.392 . S
C84 N86 1.420 . S
C85 H79 0.930 . S
C85 C81 1.407 . S
C85 C84 1.392 . S
N86 C84 1.420 . S
N86 C87 1.244 . S
C87 N86 1.244 . S
Zn88 O94 1.988 . S
Zn88 O95 1.965 1_545 S
Zn88 O99 2.024 . S
Zn88 O104 1.969 . S
Zn89 O96 1.969 1_545 S
Zn89 O102 1.969 . S
Zn89 O103 1.965 1_655 S
Zn89 O105 2.024 1_545 S
C90 O91 1.229 . S
C90 O99 1.058 . S
O91 C90 1.229 . S
C92 O93 1.229 . S
C92 O105 1.058 . S
O93 C92 1.229 . S
O94 Zn88 1.988 . S
O94 C97 1.260 1_545 S
O95 Zn88 1.965 1_565 S
O95 C106 1.260 1_455 S
O96 Zn89 1.969 1_565 S
O96 C106 1.258 . S
C97 O94 1.260 1_565 S
C97 O98 1.228 . S
O98 C97 1.228 . S
O99 Zn88 2.024 . S
O99 C90 1.058 . S
C100 O101 1.228 . S
C100 O102 1.267 . S
O101 C100 1.228 . S
O102 Zn89 1.969 . S
O102 C100 1.267 . S
O103 Zn89 1.965 1_455 S
O103 C107 1.260 . S
O104 Zn88 1.969 . S
O104 C107 1.258 . S
O105 Zn89 2.024 1_565 S
O105 C92 1.058 . S
C106 O95 1.260 1_655 S
C106 O96 1.258 . S
C107 O103 1.260 . S
C107 O104 1.258 . S
Zn108 O114 1.969 . S
Zn108 O115 1.962 1_566 S
Zn108 O119 2.028 . S
Zn108 O124 1.964 1_556 S
Zn109 O116 1.969 . S
Zn109 O122 1.969 . S
Zn109 O123 1.955 1_545 S
Zn109 O125 2.024 . S
C110 O111 1.229 . S
C110 O119 1.058 . S
O111 C110 1.229 . S
C112 O113 1.229 . S
C112 O125 1.058 . S
O113 C112 1.229 . S
O114 Zn108 1.969 . S
O114 C117 1.266 . S
O115 Zn108 1.962 1_544 S
O115 C126 1.260 . S
O116 Zn109 1.969 . S
O116 C126 1.258 . S
C117 O114 1.266 . S
C117 O118 1.228 . S
O118 C117 1.228 . S
O119 Zn108 2.028 . S
O119 C110 1.058 . S
C120 O121 1.228 . S
C120 O122 1.267 . S
O121 C120 1.228 . S
O122 Zn109 1.969 . S
O122 C120 1.267 . S
O123 Zn109 1.955 1_565 S
O123 C127 1.271 . S
O124 Zn108 1.964 1_554 S
O124 C127 1.258 . S
O125 Zn109 2.024 . S
O125 C112 1.058 . S
C126 O115 1.260 . S
C126 O116 1.258 . S
C127 O123 1.271 . S
C127 O124 1.258 . S
Zn128 O134 1.969 . S
Zn128 O135 1.965 . S
Zn128 O139 2.024 . S
Zn128 O144 1.969 . S
Zn129 O136 1.969 . S
Zn129 O142 1.969 . S
Zn129 O143 1.965 . S
Zn129 O145 2.024 . S
C130 O131 1.229 . S
C130 O139 1.058 . S
O131 C130 1.229 . S
C132 O133 1.229 . S
C132 O145 1.058 . S
O133 C132 1.229 . S
O134 Zn128 1.969 . S
O134 C137 1.267 . S
O135 Zn128 1.965 . S
O135 C146 1.260 . S
O136 Zn129 1.969 . S
O136 C146 1.258 . S
C137 O134 1.267 . S
C137 O138 1.228 . S
O138 C137 1.228 . S
O139 Zn128 2.024 . S
O139 C130 1.058 . S
C140 O141 1.228 . S
C140 O142 1.267 . S
O141 C140 1.228 . S
O142 Zn129 1.969 . S
O142 C140 1.267 . S
O143 Zn129 1.965 . S
O143 C147 1.260 . S
O144 Zn128 1.969 . S
O144 C147 1.258 . S
O145 Zn129 2.024 . S
O145 C132 1.058 . S
C146 O135 1.260 . S
C146 O136 1.258 . S
C147 O143 1.260 . S
C147 O144 1.258 . S
Zn148 O154 1.969 . S
Zn148 O155 1.965 1_556 S
Zn148 O159 2.024 . S
Zn148 O164 1.969 1_655 S
Zn149 O156 1.969 . S
Zn149 O162 1.969 . S
Zn149 O163 1.965 1_554 S
Zn149 O165 2.024 . S
C150 O151 1.229 . S
C150 O159 1.058 . S
O151 C150 1.229 . S
C152 O153 1.229 . S
C152 O165 1.058 . S
O153 C152 1.229 . S
O154 Zn148 1.969 . S
O154 C157 1.267 . S
O155 Zn148 1.965 1_554 S
O155 C166 1.260 . S
O156 Zn149 1.969 . S
O156 C166 1.258 1_455 S
C157 O154 1.267 . S
C157 O158 1.228 . S
O158 C157 1.228 . S
O159 Zn148 2.024 . S
O159 C150 1.058 . S
C160 O161 1.228 . S
C160 O162 1.267 . S
O161 C160 1.228 . S
O162 Zn149 1.969 . S
O162 C160 1.267 . S
O163 Zn149 1.965 1_556 S
O163 C167 1.260 . S
O164 Zn148 1.969 1_455 S
O164 C167 1.258 . S
O165 Zn149 2.024 . S
O165 C152 1.058 . S
C166 O155 1.260 . S
C166 O156 1.258 1_655 S
C167 O163 1.260 . S
C167 O164 1.258 . S
H168 C174 0.930 . S
H169 C178 0.930 . S
H170 C183 0.929 . S
H171 C181 0.929 . S
H172 C176 0.929 . S
H173 C182 0.929 . S
C174 H168 0.930 . S
C174 C175 1.367 . S
C174 C182 1.378 . S
C175 C174 1.367 . S
C175 C183 1.433 . S
C176 H172 0.929 . S
C176 C178 1.378 . S
C176 C180 1.350 . S
C177 C180 1.463 . S
C177 C182 1.350 . S
C177 N185 1.427 . S
C178 H169 0.930 . S
C178 C176 1.378 . S
C178 C179 1.367 . S
C179 C178 1.367 . S
C179 C181 1.433 . S
C180 C176 1.350 . S
C180 C177 1.463 . S
C180 N184 1.427 . S
C181 H171 0.929 . S
C181 C179 1.433 . S
C181 N184 1.384 . S
C182 H173 0.929 . S
C182 C174 1.378 . S
C182 C177 1.350 . S
C183 H170 0.929 . S
C183 C175 1.433 . S
C183 N185 1.384 . S
N184 C180 1.427 . S
N184 C181 1.384 . S
N185 C177 1.427 . S
N185 C183 1.384 . S
H186 C192 0.930 . S
H187 C196 0.930 1_545 S
H188 C201 0.929 . S
H189 C199 0.929 . S
H190 C194 0.929 . S
H191 C200 0.929 . S
C192 H186 0.930 . S
C192 C193 1.367 . S
C192 C200 1.378 . S
C193 C192 1.367 . S
C193 C201 1.433 . S
C194 H190 0.929 . S
C194 C196 1.378 . S
C194 C198 1.350 . S
C195 C198 1.463 . S
C195 C200 1.350 . S
C195 N203 1.427 . S
C196 H187 0.930 1_565 S
C196 C194 1.378 . S
C196 C197 1.367 . S
C197 C196 1.367 . S
C197 C199 1.433 . S
C198 C194 1.350 . S
C198 C195 1.463 . S
C198 N202 1.427 . S
C199 H189 0.929 . S
C199 C197 1.433 . S
C199 N202 1.384 . S
C200 H191 0.929 . S
C200 C192 1.378 . S
C200 C195 1.350 . S
C201 H188 0.929 . S
C201 C193 1.433 . S
C201 N203 1.384 . S
N202 C198 1.427 . S
N202 C199 1.384 . S
N203 C195 1.427 . S
N203 C201 1.384 . S
H204 C210 0.930 . S
H205 C214 0.930 . S
H206 C219 0.929 . S
H207 C217 0.929 . S
H208 C212 0.929 . S
H209 C218 0.929 . S
C210 H204 0.930 . S
C210 C211 1.367 . S
C210 C218 1.378 . S
C211 C210 1.367 . S
C211 C219 1.433 . S
C212 H208 0.929 . S
C212 C214 1.378 . S
C212 C216 1.350 . S
C213 C216 1.463 . S
C213 C218 1.350 . S
C213 N221 1.427 . S
C214 H205 0.930 . S
C214 C212 1.378 . S
C214 C215 1.367 . S
C215 C214 1.367 . S
C215 C217 1.433 . S
C216 C212 1.350 . S
C216 C213 1.463 . S
C216 N220 1.427 . S
C217 H207 0.929 . S
C217 C215 1.433 . S
C217 N220 1.384 . S
C218 H209 0.929 . S
C218 C210 1.378 . S
C218 C213 1.350 . S
C219 H206 0.929 . S
C219 C211 1.433 . S
C219 N221 1.384 . S
N220 C216 1.427 . S
N220 C217 1.384 . S
N221 C213 1.427 . S
N221 C219 1.384 . S
H222 C228 0.930 . S
H223 C232 0.930 . S
H224 C237 0.929 . S
H225 C235 0.929 . S
H226 C230 0.929 . S
H227 C236 0.929 . S
C228 H222 0.930 . S
C228 C229 1.367 . S
C228 C236 1.378 . S
C229 C228 1.367 . S
C229 C237 1.433 . S
C230 H226 0.929 . S
C230 C232 1.378 . S
C230 C234 1.350 . S
C231 C234 1.463 . S
C231 C236 1.350 . S
C231 N239 1.427 . S
C232 H223 0.930 . S
C232 C230 1.378 . S
C232 C233 1.367 . S
C233 C232 1.367 . S
C233 C235 1.433 . S
C234 C230 1.350 . S
C234 C231 1.463 . S
C234 N238 1.427 . S
C235 H225 0.929 . S
C235 C233 1.433 . S
C235 N238 1.384 . S
C236 H227 0.929 . S
C236 C228 1.378 . S
C236 C231 1.350 . S
C237 H224 0.929 . S
C237 C229 1.433 . S
C237 N239 1.384 . S
N238 C234 1.427 . S
N238 C235 1.384 . S
N239 C231 1.427 . S
N239 C237 1.384 . S
H240 C246 0.930 . S
H241 C250 0.930 . S
H242 C255 0.929 . S
H243 C253 0.929 . S
H244 C248 0.929 . S
H245 C254 0.929 . S
C246 H240 0.930 . S
C246 C247 1.367 . S
C246 C254 1.378 . S
C247 C246 1.367 . S
C247 C255 1.433 . S
C248 H244 0.929 . S
C248 C250 1.378 . S
C248 C252 1.350 . S
C249 C252 1.463 . S
C249 C254 1.350 . S
C249 N257 1.427 . S
C250 H241 0.930 . S
C250 C248 1.378 . S
C250 C251 1.367 . S
C251 C250 1.367 . S
C251 C253 1.433 . S
C252 C248 1.350 . S
C252 C249 1.463 . S
C252 N256 1.427 . S
C253 H243 0.929 . S
C253 C251 1.433 . S
C253 N256 1.384 . S
C254 H245 0.929 . S
C254 C246 1.378 . S
C254 C249 1.350 . S
C255 H242 0.929 . S
C255 C247 1.433 . S
C255 N257 1.384 . S
N256 C252 1.427 . S
N256 C253 1.384 . S
N257 C249 1.427 . S
N257 C255 1.384 . S
H258 C264 0.930 . S
H259 C268 0.930 1_545 S
H260 C273 0.929 . S
H261 C271 0.929 . S
H262 C266 0.929 . S
H263 C272 0.929 . S
C264 H258 0.930 . S
C264 C265 1.367 . S
C264 C272 1.378 . S
C265 C264 1.367 . S
C265 C273 1.433 . S
C266 H262 0.929 . S
C266 C268 1.378 . S
C266 C270 1.350 . S
C267 C270 1.463 . S
C267 C272 1.350 . S
C267 N275 1.427 . S
C268 H259 0.930 1_565 S
C268 C266 1.378 . S
C268 C269 1.367 . S
C269 C268 1.367 . S
C269 C271 1.433 . S
C270 C266 1.350 . S
C270 C267 1.463 . S
C270 N274 1.427 . S
C271 H261 0.929 . S
C271 C269 1.433 . S
C271 N274 1.384 . S
C272 H263 0.929 . S
C272 C264 1.378 . S
C272 C267 1.350 . S
C273 H260 0.929 . S
C273 C265 1.433 . S
C273 N275 1.384 . S
N274 C270 1.427 . S
N274 C271 1.384 . S
N275 C267 1.427 . S
N275 C273 1.384 . S
H276 C282 0.930 . S
H277 C286 0.930 . S
H278 C291 0.929 . S
H279 C289 0.929 . S
H280 C284 0.929 . S
H281 C290 0.929 . S
C282 H276 0.930 . S
C282 C283 1.367 . S
C282 C290 1.378 . S
C283 C282 1.367 . S
C283 C291 1.433 . S
C284 H280 0.929 . S
C284 C286 1.378 . S
C284 C288 1.350 . S
C285 C288 1.463 . S
C285 C290 1.350 . S
C285 N293 1.427 . S
C286 H277 0.930 . S
C286 C284 1.378 . S
C286 C287 1.367 . S
C287 C286 1.367 . S
C287 C289 1.433 . S
C288 C284 1.350 . S
C288 C285 1.463 . S
C288 N292 1.427 . S
C289 H279 0.929 . S
C289 C287 1.433 . S
C289 N292 1.384 . S
C290 H281 0.929 . S
C290 C282 1.378 . S
C290 C285 1.350 . S
C291 H278 0.929 . S
C291 C283 1.433 . S
C291 N293 1.384 . S
N292 C288 1.427 . S
N292 C289 1.384 . S
N293 C285 1.427 . S
N293 C291 1.384 . S
H294 C300 0.930 . S
H295 C304 0.930 . S
H296 C309 0.929 . S
H297 C307 0.929 . S
H298 C302 0.929 . S
H299 C308 0.929 . S
C300 H294 0.930 . S
C300 C301 1.367 . S
C300 C308 1.378 . S
C301 C300 1.367 . S
C301 C309 1.433 . S
C302 H298 0.929 . S
C302 C304 1.378 . S
C302 C306 1.350 . S
C303 C306 1.463 . S
C303 C308 1.350 . S
C303 N311 1.427 . S
C304 H295 0.930 . S
C304 C302 1.378 . S
C304 C305 1.367 . S
C305 C304 1.367 . S
C305 C307 1.433 . S
C306 C302 1.350 . S
C306 C303 1.463 . S
C306 N310 1.427 . S
C307 H297 0.929 . S
C307 C305 1.433 . S
C307 N310 1.384 . S
C308 H299 0.929 . S
C308 C300 1.378 . S
C308 C303 1.350 . S
C309 H296 0.929 . S
C309 C301 1.433 . S
C309 N311 1.384 . S
N310 C306 1.427 . S
N310 C307 1.384 . S
N311 C303 1.427 . S
N311 C309 1.384 . S
H312 C318 0.930 . S
H313 C322 0.930 . S
H314 C327 0.929 . S
H315 C325 0.929 . S
H316 C320 0.929 . S
H317 C326 0.929 . S
C318 H312 0.930 . S
C318 C319 1.367 . S
C318 C326 1.378 . S
C319 C318 1.367 . S
C319 C327 1.433 . S
C320 H316 0.929 . S
C320 C322 1.378 . S
C320 C324 1.350 . S
C321 C324 1.463 . S
C321 C326 1.350 . S
C321 N329 1.427 . S
C322 H313 0.930 . S
C322 C320 1.378 . S
C322 C323 1.367 . S
C323 C322 1.367 . S
C323 C325 1.433 . S
C324 C320 1.350 . S
C324 C321 1.463 . S
C324 N328 1.427 . S
C325 H315 0.929 . S
C325 C323 1.433 . S
C325 N328 1.384 . S
C326 H317 0.929 . S
C326 C318 1.378 . S
C326 C321 1.350 . S
C327 H314 0.929 . S
C327 C319 1.433 . S
C327 N329 1.384 . S
N328 C324 1.427 . S
N328 C325 1.384 . S
N329 C321 1.427 . S
N329 C327 1.384 . S
H330 C336 0.930 . S
H331 C340 0.930 . S
H332 C345 0.929 . S
H333 C343 0.929 1_554 S
H334 C338 0.929 . S
H335 C344 0.929 . S
C336 H330 0.930 . S
C336 C337 1.367 . S
C336 C344 1.378 . S
C337 C336 1.367 . S
C337 C345 1.433 . S
C338 H334 0.929 . S
C338 C340 1.378 . S
C338 C342 1.350 . S
C339 C342 1.463 . S
C339 C344 1.350 . S
C339 N347 1.427 . S
C340 H331 0.930 . S
C340 C338 1.378 . S
C340 C341 1.367 . S
C341 C340 1.367 . S
C341 C343 1.433 . S
C342 C338 1.350 . S
C342 C339 1.463 . S
C342 N346 1.427 . S
C343 H333 0.929 1_556 S
C343 C341 1.433 . S
C343 N346 1.384 . S
C344 H335 0.929 . S
C344 C336 1.378 . S
C344 C339 1.350 . S
C345 H332 0.929 . S
C345 C337 1.433 . S
C345 N347 1.384 . S
N346 C342 1.427 . S
N346 C343 1.384 . S
N347 C339 1.427 . S
N347 C345 1.384 . S
H348 C354 0.930 . S
H349 C358 0.930 . S
H350 C363 0.929 . S
H351 C361 0.929 . S
H352 C356 0.929 . S
H353 C362 0.929 . S
C354 H348 0.930 . S
C354 C355 1.367 . S
C354 C362 1.378 . S
C355 C354 1.367 . S
C355 C363 1.433 . S
C356 H352 0.929 . S
C356 C358 1.378 . S
C356 C360 1.350 . S
C357 C360 1.463 . S
C357 C362 1.350 . S
C357 N365 1.427 . S
C358 H349 0.930 . S
C358 C356 1.378 . S
C358 C359 1.367 . S
C359 C358 1.367 . S
C359 C361 1.433 . S
C360 C356 1.350 . S
C360 C357 1.463 . S
C360 N364 1.427 . S
C361 H351 0.929 . S
C361 C359 1.433 . S
C361 N364 1.384 . S
C362 H353 0.929 . S
C362 C354 1.378 . S
C362 C357 1.350 . S
C363 H350 0.929 . S
C363 C355 1.433 . S
C363 N365 1.384 . S
N364 C360 1.427 . S
N364 C361 1.384 . S
N365 C357 1.427 . S
N365 C363 1.384 . S
H366 C372 0.930 . S
H367 C376 0.930 . S
H368 C381 0.929 . S
H369 C379 0.929 . S
H370 C374 0.929 . S
H371 C380 0.929 . S
C372 H366 0.930 . S
C372 C373 1.367 . S
C372 C380 1.378 . S
C373 C372 1.367 . S
C373 C381 1.433 . S
C374 H370 0.929 . S
C374 C376 1.378 . S
C374 C378 1.350 . S
C375 C378 1.463 . S
C375 C380 1.350 . S
C375 N383 1.427 . S
C376 H367 0.930 . S
C376 C374 1.378 . S
C376 C377 1.367 . S
C377 C376 1.367 . S
C377 C379 1.433 . S
C378 C374 1.350 . S
C378 C375 1.463 . S
C378 N382 1.427 . S
C379 H369 0.929 . S
C379 C377 1.433 . S
C379 N382 1.384 . S
C380 H371 0.929 . S
C380 C372 1.378 . S
C380 C375 1.350 . S
C381 H368 0.929 . S
C381 C373 1.433 . S
C381 N383 1.384 . S
N382 C378 1.427 . S
N382 C379 1.384 . S
N383 C375 1.427 . S
N383 C381 1.384 . S
H384 C390 0.930 . S
H385 C394 0.930 . S
H386 C399 0.929 . S
H387 C397 0.915 1_545 S
H388 C392 0.929 . S
H389 C398 0.929 . S
C390 H384 0.930 . S
C390 C391 1.367 . S
C390 C398 1.378 . S
C391 C390 1.367 . S
C391 C399 1.433 . S
C392 H388 0.929 . S
C392 C394 1.378 . S
C392 C396 1.350 . S
C393 C396 1.463 . S
C393 C398 1.350 . S
C393 N401 1.427 . S
C394 H385 0.930 . S
C394 C392 1.378 . S
C394 C395 1.367 . S
C395 C394 1.367 . S
C395 C397 1.433 . S
C396 C392 1.350 . S
C396 C393 1.463 . S
C396 N400 1.427 . S
C397 H387 0.915 1_565 S
C397 C395 1.433 . S
C397 N400 1.384 . S
C398 H389 0.929 . S
C398 C390 1.378 . S
C398 C393 1.350 . S
C399 H386 0.929 . S
C399 C391 1.433 . S
C399 N401 1.384 . S
N400 C396 1.427 . S
N400 C397 1.384 . S
N401 C393 1.427 . S
N401 C399 1.384 . S
H402 C408 0.930 . S
H403 C412 0.930 . S
H404 C417 0.929 . S
H405 C415 0.929 . S
H406 C410 0.929 . S
H407 C416 0.929 . S
C408 H402 0.930 . S
C408 C409 1.367 . S
C408 C416 1.378 . S
C409 C408 1.367 . S
C409 C417 1.433 . S
C410 H406 0.929 . S
C410 C412 1.378 . S
C410 C414 1.350 . S
C411 C414 1.463 . S
C411 C416 1.350 . S
C411 N419 1.427 . S
C412 H403 0.930 . S
C412 C410 1.378 . S
C412 C413 1.367 . S
C413 C412 1.367 . S
C413 C415 1.433 . S
C414 C410 1.350 . S
C414 C411 1.463 . S
C414 N418 1.427 . S
C415 H405 0.929 . S
C415 C413 1.433 . S
C415 N418 1.384 . S
C416 H407 0.929 . S
C416 C408 1.378 . S
C416 C411 1.350 . S
C417 H404 0.929 . S
C417 C409 1.433 . S
C417 N419 1.384 . S
N418 C414 1.427 . S
N418 C415 1.384 . S
N419 C411 1.427 . S
N419 C417 1.384 . S
H420 C426 0.930 . S
H421 C430 0.930 . S
H422 C435 0.929 . S
H423 C433 0.929 . S
H424 C428 0.929 . S
H425 C434 0.929 . S
C426 H420 0.930 . S
C426 C427 1.367 . S
C426 C434 1.378 . S
C427 C426 1.367 . S
C427 C435 1.433 . S
C428 H424 0.929 . S
C428 C430 1.378 . S
C428 C432 1.350 . S
C429 C432 1.463 . S
C429 C434 1.350 . S
C429 N437 1.427 . S
C430 H421 0.930 . S
C430 C428 1.378 . S
C430 C431 1.367 . S
C431 C430 1.367 . S
C431 C433 1.433 . S
C432 C428 1.350 . S
C432 C429 1.463 . S
C432 N436 1.427 . S
C433 H423 0.929 . S
C433 C431 1.433 . S
C433 N436 1.384 . S
C434 H425 0.929 . S
C434 C426 1.378 . S
C434 C429 1.350 . S
C435 H422 0.929 . S
C435 C427 1.433 . S
C435 N437 1.384 . S
N436 C432 1.427 . S
N436 C433 1.384 . S
N437 C429 1.427 . S
N437 C435 1.384 . S
H438 C444 0.930 . S
H439 C448 0.930 . S
H440 C453 0.929 . S
H441 C451 0.929 . S
H442 C446 0.929 . S
H443 C452 0.929 . S
C444 H438 0.930 . S
C444 C445 1.367 . S
C444 C452 1.378 . S
C445 C444 1.367 . S
C445 C453 1.433 . S
C446 H442 0.929 . S
C446 C448 1.378 . S
C446 C450 1.350 . S
C447 C450 1.463 . S
C447 C452 1.350 . S
C447 N455 1.427 . S
C448 H439 0.930 . S
C448 C446 1.378 . S
C448 C449 1.367 . S
C449 C448 1.367 . S
C449 C451 1.433 . S
C450 C446 1.350 . S
C450 C447 1.463 . S
C450 N454 1.427 . S
C451 H441 0.929 . S
C451 C449 1.433 . S
C451 N454 1.384 . S
C452 H443 0.929 . S
C452 C444 1.378 . S
C452 C447 1.350 . S
C453 H440 0.929 . S
C453 C445 1.433 . S
C453 N455 1.384 . S
N454 C450 1.427 . S
N454 C451 1.384 . S
N455 C447 1.427 . S
N455 C453 1.384 . S
H456 C462 0.930 . S
H457 C466 0.930 . S
H458 C471 0.929 . S
H459 C469 0.929 . S
H460 C464 0.929 . S
H461 C470 0.929 . S
C462 H456 0.930 . S
C462 C463 1.367 . S
C462 C470 1.378 . S
C463 C462 1.367 . S
C463 C471 1.433 . S
C464 H460 0.929 . S
C464 C466 1.378 . S
C464 C468 1.350 . S
C465 C468 1.463 . S
C465 C470 1.350 . S
C465 N473 1.427 . S
C466 H457 0.930 . S
C466 C464 1.378 . S
C466 C467 1.367 . S
C467 C466 1.367 . S
C467 C469 1.433 . S
C468 C464 1.350 . S
C468 C465 1.463 . S
C468 N472 1.427 . S
C469 H459 0.929 . S
C469 C467 1.433 . S
C469 N472 1.384 . S
C470 H461 0.929 . S
C470 C462 1.378 . S
C470 C465 1.350 . S
C471 H458 0.929 . S
C471 C463 1.433 . S
C471 N473 1.384 . S
N472 C468 1.427 . S
N472 C469 1.384 . S
N473 C465 1.427 . S
N473 C471 1.384 . S
H474 C480 0.930 . S
H475 C484 0.930 . S
H476 C489 0.929 . S
H477 C487 0.929 . S
H478 C482 0.929 . S
H479 C488 0.929 . S
C480 H474 0.930 . S
C480 C481 1.367 . S
C480 C488 1.378 . S
C481 C480 1.367 . S
C481 C489 1.433 . S
C482 H478 0.929 . S
C482 C484 1.378 . S
C482 C486 1.350 . S
C483 C486 1.463 . S
C483 C488 1.350 . S
C483 N491 1.427 . S
C484 H475 0.930 . S
C484 C482 1.378 . S
C484 C485 1.367 . S
C485 C484 1.367 . S
C485 C487 1.433 . S
C486 C482 1.350 . S
C486 C483 1.463 . S
C486 N490 1.427 . S
C487 H477 0.929 . S
C487 C485 1.433 . S
C487 N490 1.384 . S
C488 H479 0.929 . S
C488 C480 1.378 . S
C488 C483 1.350 . S
C489 H476 0.929 . S
C489 C481 1.433 . S
C489 N491 1.384 . S
N490 C486 1.427 . S
N490 C487 1.384 . S
N491 C483 1.427 . S
N491 C489 1.384 . S
H492 C498 0.930 . S
H493 C502 0.930 . S
H494 C507 0.929 . S
H495 C505 0.929 . S
H496 C500 0.929 . S
H497 C506 0.929 . S
C498 H492 0.930 . S
C498 C499 1.367 . S
C498 C506 1.378 . S
C499 C498 1.367 . S
C499 C507 1.433 . S
C500 H496 0.929 . S
C500 C502 1.378 . S
C500 C504 1.350 . S
C501 C504 1.463 . S
C501 C506 1.350 . S
C501 N509 1.427 . S
C502 H493 0.930 . S
C502 C500 1.378 . S
C502 C503 1.367 . S
C503 C502 1.367 . S
C503 C505 1.433 . S
C504 C500 1.350 . S
C504 C501 1.463 . S
C504 N508 1.427 . S
C505 H495 0.929 . S
C505 C503 1.433 . S
C505 N508 1.384 . S
C506 H497 0.929 . S
C506 C498 1.378 . S
C506 C501 1.350 . S
C507 H494 0.929 . S
C507 C499 1.433 . S
C507 N509 1.384 . S
N508 C504 1.427 . S
N508 C505 1.384 . S
N509 C501 1.427 . S
N509 C507 1.384 . S
H510 C516 0.930 . S
H511 C520 0.930 . S
H512 C525 0.929 . S
H513 C523 0.929 . S
H514 C518 0.929 . S
H515 C524 0.929 . S
C516 H510 0.930 . S
C516 C517 1.367 . S
C516 C524 1.378 . S
C517 C516 1.367 . S
C517 C525 1.433 . S
C518 H514 0.929 . S
C518 C520 1.378 . S
C518 C522 1.350 . S
C519 C522 1.463 . S
C519 C524 1.350 . S
C519 N527 1.427 . S
C520 H511 0.930 . S
C520 C518 1.378 . S
C520 C521 1.367 . S
C521 C520 1.367 . S
C521 C523 1.433 . S
C522 C518 1.350 . S
C522 C519 1.463 . S
C522 N526 1.427 . S
C523 H513 0.929 . S
C523 C521 1.433 . S
C523 N526 1.384 . S
C524 H515 0.929 . S
C524 C516 1.378 . S
C524 C519 1.350 . S
C525 H512 0.929 . S
C525 C517 1.433 . S
C525 N527 1.384 . S
N526 C522 1.427 . S
N526 C523 1.384 . S
N527 C519 1.427 . S
N527 C525 1.384 . S
H528 C534 0.930 . S
H529 C538 0.930 . S
H530 C543 0.929 . S
H531 C541 0.929 . S
H532 C536 0.929 . S
H533 C542 0.929 . S
C534 H528 0.930 . S
C534 C535 1.367 . S
C534 C542 1.378 . S
C535 C534 1.367 . S
C535 C543 1.433 . S
C536 H532 0.929 . S
C536 C538 1.378 . S
C536 C540 1.350 . S
C537 C540 1.463 . S
C537 C542 1.350 . S
C537 N545 1.427 . S
C538 H529 0.930 . S
C538 C536 1.378 . S
C538 C539 1.367 . S
C539 C538 1.367 . S
C539 C541 1.433 . S
C540 C536 1.350 . S
C540 C537 1.463 . S
C540 N544 1.427 . S
C541 H531 0.929 . S
C541 C539 1.433 . S
C541 N544 1.384 . S
C542 H533 0.929 . S
C542 C534 1.378 . S
C542 C537 1.350 . S
C543 H530 0.929 . S
C543 C535 1.433 . S
C543 N545 1.384 . S
N544 C540 1.427 . S
N544 C541 1.384 . S
N545 C537 1.427 . S
N545 C543 1.384 . S
H546 C552 0.930 . S
H547 C556 0.930 . S
H548 C561 0.929 . S
H549 C559 0.929 . S
H550 C554 0.929 . S
H551 C560 0.929 . S
C552 H546 0.930 . S
C552 C553 1.367 . S
C552 C560 1.378 . S
C553 C552 1.367 . S
C553 C561 1.433 . S
C554 H550 0.929 . S
C554 C556 1.378 . S
C554 C558 1.350 . S
C555 C558 1.463 . S
C555 C560 1.350 . S
C555 N563 1.427 . S
C556 H547 0.930 . S
C556 C554 1.378 . S
C556 C557 1.367 . S
C557 C556 1.367 . S
C557 C559 1.433 . S
C558 C554 1.350 . S
C558 C555 1.463 . S
C558 N562 1.427 . S
C559 H549 0.929 . S
C559 C557 1.433 . S
C559 N562 1.384 . S
C560 H551 0.929 . S
C560 C552 1.378 . S
C560 C555 1.350 . S
C561 H548 0.929 . S
C561 C553 1.433 . S
C561 N563 1.384 . S
N562 C558 1.427 . S
N562 C559 1.384 . S
N563 C555 1.427 . S
N563 C561 1.384 . S
H564 C570 0.930 . S
H565 C574 0.930 . S
H566 C579 0.929 . S
H567 C577 0.929 . S
H568 C572 0.929 . S
H569 C578 0.929 . S
C570 H564 0.930 . S
C570 C571 1.367 . S
C570 C578 1.378 . S
C571 C570 1.367 . S
C571 C579 1.433 . S
C572 H568 0.929 . S
C572 C574 1.378 . S
C572 C576 1.350 . S
C573 C576 1.463 . S
C573 C578 1.350 . S
C573 N581 1.427 . S
C574 H565 0.930 . S
C574 C572 1.378 . S
C574 C575 1.367 . S
C575 C574 1.367 . S
C575 C577 1.433 . S
C576 C572 1.350 . S
C576 C573 1.463 . S
C576 N580 1.427 . S
C577 H567 0.929 . S
C577 C575 1.433 . S
C577 N580 1.384 . S
C578 H569 0.929 . S
C578 C570 1.378 . S
C578 C573 1.350 . S
C579 H566 0.929 . S
C579 C571 1.433 . S
C579 N581 1.384 . S
N580 C576 1.427 . S
N580 C577 1.384 . S
N581 C573 1.427 . S
N581 C579 1.384 . S
H582 C588 0.930 . S
H583 C592 0.930 . S
H584 C597 0.929 . S
H585 C595 0.929 . S
H586 C590 0.929 . S
H587 C596 0.929 . S
C588 H582 0.930 . S
C588 C589 1.367 . S
C588 C596 1.378 . S
C589 C588 1.367 . S
C589 C597 1.433 . S
C590 H586 0.929 . S
C590 C592 1.378 . S
C590 C594 1.350 . S
C591 C594 1.463 . S
C591 C596 1.350 . S
C591 N599 1.427 . S
C592 H583 0.930 . S
C592 C590 1.378 . S
C592 C593 1.367 . S
C593 C592 1.367 . S
C593 C595 1.433 . S
C594 C590 1.350 . S
C594 C591 1.463 . S
C594 N598 1.427 . S
C595 H585 0.929 . S
C595 C593 1.433 . S
C595 N598 1.384 . S
C596 H587 0.929 . S
C596 C588 1.378 . S
C596 C591 1.350 . S
C597 H584 0.929 . S
C597 C589 1.433 . S
C597 N599 1.384 . S
N598 C594 1.427 . S
N598 C595 1.384 . S
N599 C591 1.427 . S
N599 C597 1.384 . S
C175 C4 1.613 . S
C179 C107 1.602 . S
C193 C16 1.527 . S
C197 C110 1.478 . S
C215 C146 1.349 . S
C211 C32 1.375 . S
C229 C43 1.534 . S
C233 C166 1.528 . S
C251 C120 2.085 . S
C247 C5 2.097 . S
C269 C97 1.276 . S
C265 C21 1.308 . S
C287 C150 1.424 . S
C283 C27 1.490 . S
C305 C130 1.278 . S
C301 C37 1.367 . S
C319 C10 1.375 . S
C323 C160 1.307 . S
C341 C126 1.771 1_556 S
C337 C26 1.793 . S
C355 C38 1.443 . S
C359 C92 1.397 . S
C373 C15 1.476 . S
C377 C140 1.420 . S
C395 C106 1.688 . S
C391 C48 1.694 . S
C409 C59 1.338 . S
C413 C112 1.283 . S
C427 C76 1.680 . S
C431 C147 1.655 . S
C445 C87 1.379 . S
C449 C167 1.348 . S
C463 C54 1.529 . S
C467 C117 1.490 . S
C485 C100 1.940 . S
C481 C60 1.937 . S
C503 C152 1.426 . S
C499 C71 1.550 . S
C521 C132 1.248 . S
C517 C82 1.292 . S
C535 C49 1.611 . S
C539 C157 1.532 . S
C557 C127 1.382 . S
C553 C70 1.402 . S
C575 C90 1.711 . S
C571 C81 1.758 . S
C589 C65 1.318 . S
C593 C137 1.286 . S
