# Generated by pormake.
# Topology wbl, (4,4)-cn, num edge types: 1
# Building blocks:
#     Node 0, Type 0, BuildingBlock: NAWXER_clean_linker_0, # of connection points: 4
#     Node 1, Type 0, BuildingBlock: NAWXER_clean_linker_0, # of connection points: 4
#     Node 2, Type 0, BuildingBlock: NAWXER_clean_linker_0, # of connection points: 4
#     Node 3, Type 0, BuildingBlock: NAWXER_clean_linker_0, # of connection points: 4
#     Node 4, Type 0, BuildingBlock: NAWXER_clean_linker_0, # of connection points: 4
#     Node 5, Type 0, BuildingBlock: NAWXER_clean_linker_0, # of connection points: 4
#     Node 6, Type 0, BuildingBlock: NAWXER_clean_linker_0, # of connection points: 4
#     Node 7, Type 0, BuildingBlock: NAWXER_clean_linker_0, # of connection points: 4
#     Node 8, Type 1, BuildingBlock: TATPOV_clean_sbu_0, # of connection points: 4
#     Node 9, Type 1, BuildingBlock: TATPOV_clean_sbu_0, # of connection points: 4
#     Node 10, Type 1, BuildingBlock: TATPOV_clean_sbu_0, # of connection points: 4
#     Node 11, Type 1, BuildingBlock: TATPOV_clean_sbu_0, # of connection points: 4
#     Node 12, Type 1, BuildingBlock: TATPOV_clean_sbu_0, # of connection points: 4
#     Node 13, Type 1, BuildingBlock: TATPOV_clean_sbu_0, # of connection points: 4
#     Node 14, Type 1, BuildingBlock: TATPOV_clean_sbu_0, # of connection points: 4
#     Node 15, Type 1, BuildingBlock: TATPOV_clean_sbu_0, # of connection points: 4
#     Edge 16, Type (0, 1), BuildingBlock: TEMPAE_clean_linker_10, # of connection points: 2
#     Edge 17, Type (0, 1), BuildingBlock: TEMPAE_clean_linker_10, # of connection points: 2
#     Edge 18, Type (0, 1), BuildingBlock: TEMPAE_clean_linker_10, # of connection points: 2
#     Edge 19, Type (0, 1), BuildingBlock: TEMPAE_clean_linker_10, # of connection points: 2
#     Edge 20, Type (0, 1), BuildingBlock: TEMPAE_clean_linker_10, # of connection points: 2
#     Edge 21, Type (0, 1), BuildingBlock: TEMPAE_clean_linker_10, # of connection points: 2
#     Edge 22, Type (0, 1), BuildingBlock: TEMPAE_clean_linker_10, # of connection points: 2
#     Edge 23, Type (0, 1), BuildingBlock: TEMPAE_clean_linker_10, # of connection points: 2
#     Edge 24, Type (0, 1), BuildingBlock: TEMPAE_clean_linker_10, # of connection points: 2
#     Edge 25, Type (0, 1), BuildingBlock: TEMPAE_clean_linker_10, # of connection points: 2
#     Edge 26, Type (0, 1), BuildingBlock: TEMPAE_clean_linker_10, # of connection points: 2
#     Edge 27, Type (0, 1), BuildingBlock: TEMPAE_clean_linker_10, # of connection points: 2
#     Edge 28, Type (0, 1), BuildingBlock: TEMPAE_clean_linker_10, # of connection points: 2
#     Edge 29, Type (0, 1), BuildingBlock: TEMPAE_clean_linker_10, # of connection points: 2
#     Edge 30, Type (0, 1), BuildingBlock: TEMPAE_clean_linker_10, # of connection points: 2
#     Edge 31, Type (0, 1), BuildingBlock: TEMPAE_clean_linker_10, # of connection points: 2
#     Edge 32, Type (0, 1), BuildingBlock: TEMPAE_clean_linker_10, # of connection points: 2
#     Edge 33, Type (0, 1), BuildingBlock: TEMPAE_clean_linker_10, # of connection points: 2
#     Edge 34, Type (0, 1), BuildingBlock: TEMPAE_clean_linker_10, # of connection points: 2
#     Edge 35, Type (0, 1), BuildingBlock: TEMPAE_clean_linker_10, # of connection points: 2
#     Edge 36, Type (0, 1), BuildingBlock: TEMPAE_clean_linker_10, # of connection points: 2
#     Edge 37, Type (0, 1), BuildingBlock: TEMPAE_clean_linker_10, # of connection points: 2
#     Edge 38, Type (0, 1), BuildingBlock: TEMPAE_clean_linker_10, # of connection points: 2
#     Edge 39, Type (0, 1), BuildingBlock: TEMPAE_clean_linker_10, # of connection points: 2
#     Edge 40, Type (0, 1), BuildingBlock: TEMPAE_clean_linker_10, # of connection points: 2
#     Edge 41, Type (0, 1), BuildingBlock: TEMPAE_clean_linker_10, # of connection points: 2
#     Edge 42, Type (0, 1), BuildingBlock: TEMPAE_clean_linker_10, # of connection points: 2
#     Edge 43, Type (0, 1), BuildingBlock: TEMPAE_clean_linker_10, # of connection points: 2
#     Edge 44, Type (0, 1), BuildingBlock: TEMPAE_clean_linker_10, # of connection points: 2
#     Edge 45, Type (0, 1), BuildingBlock: TEMPAE_clean_linker_10, # of connection points: 2
#     Edge 46, Type (0, 1), BuildingBlock: TEMPAE_clean_linker_10, # of connection points: 2
#     Edge 47, Type (0, 1), BuildingBlock: TEMPAE_clean_linker_10, # of connection points: 2
# Relax obj value: 0.173
# Max RMSD: 0.171
# Mean RMSD: 0.138
data_MOF--net-wbl--node1-TATPOV_clean_sbu_0--node2-NAWXER_clean_linker_0--edge1-TEMPAE_clean_linker_10
_symmetry_space_group_name_H-M    P1
_symmetry_Int_Tables_number       1
_symmetry_cell_setting            triclinic
loop_
_symmetry_equiv_pos_as_xyz
'x, y, z'
_cell_length_a     45.199165
_cell_length_b     45.220238
_cell_length_c     77.017547
_cell_angle_alpha  91.35846
_cell_angle_beta   91.413129
_cell_angle_gamma 89.998969
loop_
_atom_site_label
_atom_site_type_symbol
_atom_site_fract_x
_atom_site_fract_y
_atom_site_fract_z
_atom_type_partial_charge
C0 C 0.12441 0.96277 0.38369 0.0
C1 C 0.1439 0.97178 0.3973 0.0
C2 C 0.11041 0.98369 0.37327 0.0
C3 C 0.11579 0.01402 0.37618 0.0
C4 C 0.14955 0.00213 0.40005 0.0
C5 C 0.13541 0.02306 0.38967 0.0
C6 C 0.0988 0.03632 0.36635 0.0
C7 C 0.1585 0.99154 0.3288 0.0
C8 C 0.1433 0.97145 0.31753 0.0
C9 C 0.14306 0.01267 0.3385 0.0
C10 C 0.11214 0.01439 0.33702 0.0
C11 C 0.11233 0.97394 0.31568 0.0
C12 C 0.09695 0.9954 0.32522 0.0
C13 C 0.09558 0.03544 0.34807 0.0
C14 C 0.01629 0.14254 0.33596 0.0
C15 C -0.00163 0.13057 0.32233 0.0
C16 C 0.0375 0.12512 0.34436 0.0
C17 C 0.04047 0.09497 0.33985 0.0
C18 C 0.00297 0.10093 0.31704 0.0
C19 C 0.02359 0.08333 0.32577 0.0
C20 C 0.06098 0.07527 0.34954 0.0
C21 C -0.00128 0.1105 0.3902 0.0
C22 C 0.0127 0.12999 0.4023 0.0
C23 C 0.01547 0.09327 0.3788 0.0
C24 C 0.04648 0.09523 0.37934 0.0
C25 C 0.04374 0.13196 0.40276 0.0
C26 C 0.0605 0.11447 0.39149 0.0
C27 C 0.06441 0.07617 0.36786 0.0
H28 H 0.11975 0.93954 0.38121 0.0
H29 H 0.0947 0.97615 0.36329 0.0
H30 H 0.1642 0.00972 0.41057 0.0
H31 H 0.13953 0.04636 0.3923 0.0
H32 H 0.18238 0.99088 0.33023 0.0
H33 H 0.15527 0.02754 0.34728 0.0
H34 H 0.09982 0.95873 0.30728 0.0
H35 H 0.07305 0.99647 0.32387 0.0
H36 H 0.01357 0.16521 0.34047 0.0
H37 H 0.05126 0.13524 0.35455 0.0
H38 H 0.9905 0.09111 0.30619 0.0
H39 H 0.02588 0.06036 0.3217 0.0
H40 H 0.97482 0.10861 0.38957 0.0
H41 H 0.00427 0.07817 0.3697 0.0
H42 H 0.05506 0.14652 0.41211 0.0
H43 H 0.08442 0.11601 0.39221 0.0
N44 N 0.08327 0.0568 0.37553 0.0
N45 N 0.07667 0.05479 0.34036 0.0
C46 C 0.91541 0.50758 0.63378 0.0
C47 C 0.92484 0.49009 0.64775 0.0
C48 C 0.93585 0.52405 0.62463 0.0
C49 C 0.96614 0.52316 0.6292 0.0
C50 C 0.95518 0.4894 0.65227 0.0
C51 C 0.97552 0.50591 0.64319 0.0
C52 C 0.98824 0.54064 0.61991 0.0
C53 C 0.95476 0.47132 0.58261 0.0
C54 C 0.94064 0.48159 0.56742 0.0
C55 C 0.97094 0.49053 0.59356 0.0
C56 C 0.97261 0.52073 0.58996 0.0
C57 C 0.94295 0.51176 0.56357 0.0
C58 C 0.95893 0.53114 0.57473 0.0
C59 C 0.99006 0.54095 0.6016 0.0
C60 C 0.10524 0.60536 0.59162 0.0
C61 C 0.09751 0.62229 0.5771 0.0
C62 C 0.08373 0.5897 0.60033 0.0
C63 C 0.05376 0.59136 0.59513 0.0
C64 C 0.06759 0.62306 0.57155 0.0
C65 C 0.046 0.6078 0.58048 0.0
C66 C 0.03063 0.57476 0.60421 0.0
C67 C 0.06997 0.63592 0.6465 0.0
C68 C 0.08842 0.62007 0.65801 0.0
C69 C 0.0509 0.62099 0.63471 0.0
C70 C 0.04962 0.59003 0.63442 0.0
C71 C 0.08715 0.58895 0.65741 0.0
C72 C 0.06762 0.57414 0.64594 0.0
C73 C 0.02913 0.57383 0.62249 0.0
H74 H 0.89218 0.50895 0.63011 0.0
H75 H 0.92797 0.53771 0.61412 0.0
H76 H 0.96334 0.4758 0.66273 0.0
H77 H -0.00125 0.50486 0.64696 0.0
H78 H 0.95313 0.44838 0.58619 0.0
H79 H 0.98224 0.48163 0.60484 0.0
H80 H 0.93268 0.52033 0.55188 0.0
H81 H 0.96044 0.55428 0.57152 0.0
H82 H 0.12794 0.60427 0.5964 0.0
H83 H 0.09074 0.57604 0.61101 0.0
H84 H 0.0608 0.63518 0.56018 0.0
H85 H 0.02315 0.60893 0.57595 0.0
H86 H 0.06985 0.65986 0.64676 0.0
H87 H 0.03684 0.63358 0.62601 0.0
H88 H 0.10144 0.57587 0.6657 0.0
H89 H 0.06693 0.55018 0.64582 0.0
N90 N 0.00809 0.55685 0.62961 0.0
N91 N 0.01092 0.55829 0.59446 0.0
C92 C 0.56634 0.38059 0.8736 0.0
C93 C 0.58557 0.39108 0.88702 0.0
C94 C 0.54792 0.40021 0.86457 0.0
C95 C 0.54853 0.43061 0.86882 0.0
C96 C 0.58594 0.4215 0.89122 0.0
C97 C 0.56757 0.44097 0.88227 0.0
C98 C 0.52851 0.45189 0.86014 0.0
C99 C 0.59035 0.41816 0.81984 0.0
C100 C 0.57745 0.40702 0.80417 0.0
C101 C 0.5735 0.43365 0.83192 0.0
C102 C 0.5429 0.43714 0.82919 0.0
C103 C 0.54693 0.41143 0.80117 0.0
C104 C 0.52986 0.42624 0.81356 0.0
C105 C 0.52488 0.4541 0.84184 0.0
C106 C 0.46323 0.56936 0.83504 0.0
C107 C 0.43463 0.56346 0.82821 0.0
C108 C 0.48168 0.54629 0.84019 0.0
C109 C 0.47201 0.51689 0.83855 0.0
C110 C 0.42533 0.53381 0.82616 0.0
C111 C 0.44394 0.51069 0.83126 0.0
C112 C 0.49023 0.49319 0.84609 0.0
C113 C 0.43385 0.52897 0.88924 0.0
C114 C 0.44942 0.5522 0.89787 0.0
C115 C 0.44854 0.5089 0.87842 0.0
C116 C 0.47911 0.51135 0.8763 0.0
C117 C 0.4802 0.55435 0.8957 0.0
C118 C 0.49493 0.5339 0.88515 0.0
C119 C 0.49435 0.4913 0.86415 0.0
H120 H 0.56556 0.35726 0.8701 0.0
H121 H 0.53298 0.39162 0.85446 0.0
H122 H 0.59999 0.43024 0.90172 0.0
H123 H 0.56823 0.46428 0.88589 0.0
H124 H 0.61359 0.4149 0.82293 0.0
H125 H 0.58465 0.4431 0.84334 0.0
H126 H 0.53619 0.40378 0.78917 0.0
H127 H 0.50642 0.42926 0.81091 0.0
H128 H 0.47133 0.59184 0.83647 0.0
H129 H 0.50334 0.55142 0.84583 0.0
H130 H 0.40336 0.52851 0.82109 0.0
H131 H 0.43605 0.48809 0.83011 0.0
H132 H 0.4103 0.52616 0.89084 0.0
H133 H 0.43605 0.49151 0.87167 0.0
H134 H 0.49289 0.57219 0.90184 0.0
H135 H 0.51854 0.53621 0.88347 0.0
N136 N 0.51327 0.47083 0.87056 0.0
N137 N 0.5056 0.47463 0.83552 0.0
C138 C 0.49059 0.90409 0.08201 0.0
C139 C 0.4699 0.91757 0.07083 0.0
C140 C 0.51261 0.92091 0.09054 0.0
C141 C 0.51435 0.95148 0.088 0.0
C142 C 0.47171 0.94817 0.06825 0.0
C143 C 0.49399 0.96496 0.07665 0.0
C144 C 0.53765 0.96928 0.097 0.0
C145 C 0.47282 0.94618 0.13785 0.0
C146 C 0.48422 0.92748 0.15074 0.0
C147 C 0.49162 0.95929 0.12614 0.0
C148 C 0.52222 0.95388 0.12698 0.0
C149 C 0.5149 0.92214 0.15154 0.0
C150 C 0.53372 0.93541 0.13986 0.0
C151 C 0.54243 0.96886 0.11517 0.0
C152 C 0.62812 0.06752 0.12893 0.0
C153 C 0.64572 0.05525 0.14223 0.0
C154 C 0.60838 0.04988 0.11908 0.0
C155 C 0.60631 0.01944 0.12205 0.0
C156 C 0.64372 0.02473 0.14512 0.0
C157 C 0.62411 0.00703 0.13516 0.0
C158 C 0.58381 0.00099 0.11267 0.0
C159 C 0.64643 0.03395 0.07372 0.0
C160 C 0.63344 0.05569 0.06325 0.0
C161 C 0.62874 0.01556 0.08349 0.0
C162 C 0.5978 0.0186 0.0829 0.0
C163 C 0.60243 0.05769 0.06206 0.0
C164 C 0.58475 0.03911 0.07169 0.0
C165 C 0.57896 0.00149 0.09447 0.0
H166 H 0.48958 0.88055 0.08424 0.0
H167 H 0.5284 0.91002 0.09905 0.0
H168 H 0.45617 0.95898 0.05955 0.0
H169 H 0.49513 0.9885 0.07446 0.0
H170 H 0.44942 0.95128 0.13707 0.0
H171 H 0.48231 0.9742 0.11665 0.0
H172 H 0.52441 0.9076 0.16115 0.0
H173 H 0.55728 0.93111 0.14082 0.0
H174 H 0.62928 0.09091 0.12628 0.0
H175 H 0.5942 0.06025 0.10946 0.0
H176 H 0.6566 0.01467 0.15545 0.0
H177 H 0.62254 0.98368 0.13785 0.0
H178 H 0.67028 0.03201 0.07491 0.0
H179 H 0.63924 -0.00049 0.09184 0.0
H180 H 0.59187 0.07406 0.05395 0.0
H181 H 0.56092 0.04162 0.07094 0.0
N182 N 0.55593 0.98573 0.08732 0.0
N183 N 0.56545 0.98457 0.1223 0.0
C184 C 0.04191 0.64318 0.88947 0.0
C185 C 0.05488 0.63414 0.87377 0.0
C186 C 0.02365 0.62386 0.89832 0.0
C187 C 0.01856 0.59491 0.89184 0.0
C188 C 0.04865 0.60558 0.86702 0.0
C189 C 0.03085 0.58624 0.87596 0.0
C190 C 0.00015 0.57333 0.90105 0.0
C191 C 0.07583 0.597 0.93674 0.0
C192 C 0.06784 0.61129 0.95236 0.0
C193 C 0.05462 0.58271 0.92615 0.0
C194 C 0.02474 0.58313 0.93063 0.0
C195 C 0.03801 0.61071 0.95717 0.0
C196 C 0.01665 0.59663 0.94641 0.0
C197 C 0.00223 0.56857 0.91913 0.0
C198 C 0.93708 0.45346 0.92611 0.0
C199 C 0.92143 0.45924 0.9414 0.0
C200 C 0.95218 0.4761 0.91802 0.0
C201 C 0.95107 0.50531 0.92463 0.0
C202 C 0.92157 0.4883 0.94842 0.0
C203 C 0.93616 0.51105 0.9401 0.0
C204 C 0.9665 0.52972 0.91603 0.0
C205 C 0.90219 0.48921 0.87666 0.0
C206 C 0.91639 0.4772 0.86204 0.0
C207 C 0.91739 0.50847 0.88824 0.0
C208 C 0.94715 0.51559 0.88551 0.0
C209 C 0.94566 0.48563 0.85894 0.0
C210 C 0.96084 0.50459 0.87054 0.0
C211 C 0.96467 0.53433 0.89793 0.0
H212 H 0.04614 0.66501 0.89505 0.0
H213 H 0.01368 0.63153 0.91024 0.0
H214 H 0.05743 0.59809 0.85473 0.0
H215 H 0.02697 0.56424 0.87049 0.0
H216 H 0.09846 0.5973 0.93245 0.0
H217 H 0.06157 0.57159 0.91433 0.0
H218 H 0.03117 0.6211 0.96923 0.0
H219 H 0.99376 0.59665 0.95027 0.0
H220 H 0.93747 0.4315 0.92021 0.0
H221 H 0.9646 0.47072 0.90653 0.0
H222 H 0.91057 0.49355 0.96043 0.0
H223 H 0.93561 0.53323 0.94572 0.0
H224 H 0.87962 0.48316 0.87938 0.0
H225 H 0.90611 0.51734 0.89946 0.0
H226 H 0.95697 0.47737 0.84758 0.0
H227 H 0.98364 0.51012 0.868 0.0
N228 N 0.98156 0.55587 0.89125 0.0
N229 N 0.98506 0.54725 0.92593 0.0
C230 C 0.41321 0.52087 0.12701 0.0
C231 C 0.42481 0.54008 0.11477 0.0
C232 C 0.43198 0.50671 0.1389 0.0
C233 C 0.46266 0.51169 0.13886 0.0
C234 C 0.45559 0.54466 0.11467 0.0
C235 C 0.47431 0.53044 0.12649 0.0
C236 C 0.48296 0.49703 0.15133 0.0
C237 C 0.42925 0.56123 0.18192 0.0
C238 C 0.41328 0.54956 0.19554 0.0
C239 C 0.45045 0.54413 0.17352 0.0
C240 C 0.45531 0.51457 0.17811 0.0
C241 C 0.41863 0.52037 0.20057 0.0
C242 C 0.43941 0.50294 0.19184 0.0
C243 C 0.47837 0.49657 0.16946 0.0
C244 C 0.59148 0.44451 0.19706 0.0
C245 C 0.58227 0.41919 0.20568 0.0
C246 C 0.57149 0.4602 0.18669 0.0
C247 C 0.5419 0.451 0.18487 0.0
C248 C 0.55243 0.41046 0.20419 0.0
C249 C 0.53232 0.42646 0.194 0.0
C250 C 0.52131 0.46644 0.173 0.0
C251 C 0.57475 0.4082 0.13597 0.0
C252 C 0.59664 0.42491 0.12791 0.0
C253 C 0.55254 0.42219 0.14542 0.0
C254 C 0.55151 0.45311 0.14676 0.0
C255 C 0.59603 0.45595 0.12994 0.0
C256 C 0.57342 0.4699 0.13906 0.0
C257 C 0.52646 0.46804 0.1551 0.0
H258 H 0.38967 0.51648 0.12726 0.0
H259 H 0.42256 0.49178 0.14806 0.0
H260 H 0.46526 0.55963 0.10562 0.0
H261 H 0.49791 0.53454 0.12619 0.0
H262 H 0.42606 0.58398 0.17818 0.0
H263 H 0.46345 0.55435 0.16369 0.0
H264 H 0.40681 0.51115 0.21125 0.0
H265 H 0.44315 0.48043 0.19587 0.0
H266 H 0.61439 0.45155 0.19786 0.0
H267 H 0.57922 0.47928 0.17985 0.0
H268 H 0.54478 0.39108 0.21077 0.0
H269 H 0.50952 0.41913 0.19278 0.0
H270 H 0.57406 0.38434 0.13449 0.0
H271 H 0.53554 0.40893 0.15116 0.0
H272 H 0.61283 0.46958 0.12433 0.0
H273 H 0.57294 0.49383 0.14004 0.0
N274 N 0.50708 0.48309 0.14491 0.0
N275 N 0.49753 0.48085 0.17959 0.0
C276 C 0.50845 0.90121 0.3899 0.0
C277 C 0.48916 0.90971 0.37632 0.0
C278 C 0.52586 0.92232 0.39893 0.0
C279 C 0.52401 0.95231 0.39463 0.0
C280 C 0.48814 0.93961 0.37172 0.0
C281 C 0.50545 0.96065 0.38075 0.0
C282 C 0.54142 0.97523 0.40436 0.0
C283 C 0.47622 0.93861 0.4404 0.0
C284 C 0.48817 0.92498 0.45525 0.0
C285 C 0.49381 0.95608 0.43014 0.0
C286 C 0.52415 0.95947 0.43399 0.0
C287 C 0.51837 0.92939 0.4595 0.0
C288 C 0.53616 0.9465 0.44897 0.0
C289 C 0.54297 0.97741 0.42273 0.0
C290 C 0.60374 0.09321 0.43685 0.0
C291 C 0.62834 0.08536 0.44731 0.0
C292 C 0.5864 0.07142 0.42843 0.0
C293 C 0.59323 0.04142 0.43042 0.0
C294 C 0.6347 0.05516 0.44947 0.0
C295 C 0.61709 0.03341 0.44125 0.0
C296 C 0.57593 0.01833 0.42098 0.0
C297 C 0.63206 0.06447 0.38235 0.0
C298 C 0.61571 0.07746 0.36876 0.0
C299 C 0.61858 0.04466 0.39337 0.0
C300 C 0.58832 0.03793 0.39124 0.0
C301 C 0.58559 0.07031 0.36648 0.0
C302 C 0.57207 0.05071 0.37758 0.0
C303 C 0.57346 0.01688 0.40267 0.0
H304 H 0.50975 0.87834 0.39372 0.0
H305 H 0.54059 0.91524 0.40932 0.0
H306 H 0.47402 0.94676 0.36105 0.0
H307 H 0.50395 0.9836 0.37706 0.0
H308 H 0.45326 0.9355 0.43645 0.0
H309 H 0.4836 0.9668 0.41909 0.0
H310 H 0.52828 0.91977 0.47099 0.0
H311 H 0.55939 0.94932 0.45242 0.0
H312 H 0.5978 0.11618 0.43518 0.0
H313 H 0.56774 0.07796 0.4203 0.0
H314 H 0.65371 0.04824 0.45718 0.0
H315 H 0.62264 0.01032 0.4429 0.0
H316 H 0.65544 0.06915 0.38421 0.0
H317 H 0.63193 0.03432 0.40338 0.0
H318 H 0.57237 0.0801 0.35619 0.0
H319 H 0.54877 0.04572 0.37558 0.0
N320 N 0.55634 0.99532 0.39509 0.0
N321 N 0.5606 -0.00139 0.43034 0.0
C322 C 0.17532 0.0024 0.63934 0.0
C323 C 0.16609 0.98648 0.62425 0.0
C324 C 0.15452 0.01693 0.64972 0.0
C325 C 0.12419 0.01531 0.64527 0.0
C326 C 0.13573 0.98475 0.62001 0.0
C327 C 0.11508 -0.00091 0.63034 0.0
C328 C 0.10164 0.03185 0.65518 0.0
C329 C 0.13929 0.96501 0.69159 0.0
C330 C 0.14999 0.97595 0.70782 0.0
C331 C 0.12297 0.98303 0.68046 0.0
C332 C 0.11793 0.01286 0.68491 0.0
C333 C 0.14447 0.00572 0.71241 0.0
C334 C 0.1286 0.02395 0.70107 0.0
C335 C 0.09948 0.03183 0.67352 0.0
C336 C 0.98108 0.09137 0.68263 0.0
C337 C 0.98719 0.11129 0.69656 0.0
C338 C 0.00376 0.07519 0.67499 0.0
C339 C 0.03329 0.07929 0.68063 0.0
C340 C 0.01664 0.11405 0.70285 0.0
C341 C 0.03946 0.09822 0.69493 0.0
C342 C 0.05763 0.06397 0.67155 0.0
C343 C 0.01714 0.1261 0.63258 0.0
C344 C -0.00208 0.11053 0.62092 0.0
C345 C 0.0374 0.11097 0.6431 0.0
C346 C 0.03926 0.08007 0.64192 0.0
C347 C 0.00011 0.07946 0.61982 0.0
C348 C 0.02091 0.06446 0.63001 0.0
C349 C 0.05982 0.06374 0.65332 0.0
H350 H 0.1986 0.00423 0.64286 0.0
H351 H 0.16216 0.02984 0.66097 0.0
H352 H 0.12787 0.97221 0.60865 0.0
H353 H 0.09183 -0.00248 0.62664 0.0
H354 H 0.1434 0.94239 0.68741 0.0
H355 H 0.11393 0.97336 0.66849 0.0
H356 H 0.15187 0.01483 0.7249 0.0
H357 H 0.12449 0.04672 0.70499 0.0
H358 H 0.95883 0.08867 0.67729 0.0
H359 H -0.00182 0.05973 0.66447 0.0
H360 H 0.02214 0.12855 0.71385 0.0
H361 H 0.06201 0.10126 0.69974 0.0
H362 H 0.01674 0.15001 0.63356 0.0
H363 H 0.05167 0.12336 0.65214 0.0
H364 H 0.98541 0.06652 0.61134 0.0
H365 H 0.022 0.04055 0.62901 0.0
N366 N 0.08157 0.04767 0.64586 0.0
N367 N 0.07767 0.04817 0.68099 0.0
Zn368 Zn 0.30088 0.74984 0.97881 0.0
Zn369 Zn 0.3087 0.71418 0.00673 0.0
O370 O 0.26406 0.71113 0.00288 0.0
O371 O 0.25731 0.73863 0.97986 0.0
O372 O 0.31854 0.68903 0.02724 0.0
O373 O 0.31819 0.78443 0.99283 0.0
O374 O 0.32482 0.7546 0.01475 0.0
C375 C 0.247 0.72184 0.99123 0.0
C376 C 0.33786 0.69946 0.97187 0.0
O377 O 0.33144 0.6934 0.98738 0.0
O378 O 0.32846 0.72308 0.96513 0.0
C379 C 0.31197 0.66175 0.02775 0.0
O380 O 0.29656 0.64954 0.01478 0.0
C381 C 0.32732 0.78007 0.00823 0.0
Zn382 Zn 0.30302 0.75741 0.28511 0.0
Zn383 Zn 0.33004 0.78925 0.26003 0.0
O384 O 0.29054 0.81078 0.26255 0.0
O385 O 0.26752 0.78476 0.28194 0.0
O386 O 0.35131 0.80981 0.24106 0.0
O387 O 0.3075 0.7196 0.27049 0.0
O388 O 0.33 0.74635 0.2513 0.0
C389 C 0.2681 0.80654 0.27187 0.0
C390 C 0.35687 0.78826 0.29674 0.0
O391 O 0.35678 0.79666 0.2811 0.0
O392 O 0.3367 0.77117 0.30178 0.0
C393 C 0.3517 0.83768 0.2393 0.0
O394 O 0.33676 0.85461 0.25007 0.0
C395 C 0.32093 0.72138 0.25631 0.0
Zn396 Zn 0.27369 0.77166 0.48568 0.0
Zn397 Zn 0.26705 0.81055 0.51276 0.0
O398 O 0.3117 0.81236 0.50926 0.0
O399 O 0.31794 0.7802 0.48773 0.0
O400 O 0.25916 0.83746 0.53328 0.0
O401 O 0.25316 0.73954 0.49905 0.0
O402 O 0.24928 0.77167 0.52076 0.0
C403 C 0.32855 0.79929 0.49851 0.0
C404 C 0.23916 0.82337 0.47699 0.0
O405 O 0.24414 0.83028 0.49293 0.0
O406 O 0.24903 0.79925 0.47071 0.0
C407 C 0.27351 0.8606 0.53795 0.0
O408 O 0.29646 0.86863 0.52904 0.0
C409 C 0.24467 0.7459 0.51424 0.0
Zn410 Zn 0.28258 0.75543 0.75351 0.0
Zn411 Zn 0.24149 0.75238 0.77855 0.0
O412 O 0.24331 0.79708 0.7746 0.0
O413 O 0.27563 0.79967 0.75375 0.0
O414 O 0.212 0.74705 0.79755 0.0
O415 O 0.31313 0.73625 0.76909 0.0
O416 O 0.27833 0.73091 0.78825 0.0
C417 C 0.25741 0.81225 0.76377 0.0
C418 C 0.23034 0.72309 0.74262 0.0
O419 O 0.22193 0.73097 0.75768 0.0
O420 O 0.2561 0.72948 0.73775 0.0
C421 C 0.18432 0.74613 0.79419 0.0
O422 O 0.17469 0.75083 0.77826 0.0
C423 C 0.30475 0.72638 0.78341 0.0
Zn424 Zn 0.79885 0.25432 0.53679 0.0
Zn425 Zn 0.83768 0.24715 0.51021 0.0
O426 O 0.83813 0.29199 0.51367 0.0
O427 O 0.80926 0.29804 0.53614 0.0
O428 O 0.86531 0.23851 0.49054 0.0
O429 O 0.76605 0.23686 0.52135 0.0
O430 O 0.79894 0.22836 0.50121 0.0
C431 C 0.82626 0.30879 0.52503 0.0
C432 C 0.84981 0.21938 0.54581 0.0
O433 O 0.8573 0.22622 0.53061 0.0
O434 O 0.82487 0.22722 0.55151 0.0
C435 C 0.89304 0.2357 0.49316 0.0
O436 O 0.90423 0.24033 0.5089 0.0
C437 C 0.77263 0.22622 0.50658 0.0
Zn438 Zn 0.79208 0.27112 0.77042 0.0
Zn439 Zn 0.80124 0.30662 0.74349 0.0
O440 O 0.75577 0.30651 0.74441 0.0
O441 O 0.74828 0.27503 0.76524 0.0
O442 O 0.812 0.33215 0.72348 0.0
O443 O 0.8172 0.239 0.75981 0.0
O444 O 0.82266 0.26766 0.73741 0.0
C445 C 0.73812 0.29274 0.75406 0.0
C446 C 0.8212 0.32543 0.78053 0.0
O447 O 0.81938 0.3298 0.76426 0.0
O448 O 0.81113 0.30179 0.78662 0.0
C449 C 0.8028 0.35845 0.7215 0.0
O450 O 0.78352 0.36952 0.73237 0.0
C451 C 0.82786 0.24345 0.74506 0.0
Zn452 Zn 0.78117 0.28072 0.03488 0.0
Zn453 Zn 0.7386 0.28781 0.00959 0.0
O454 O 0.73701 0.24324 0.01293 0.0
O455 O 0.77073 0.23668 0.03361 0.0
O456 O 0.70827 0.29595 0.99075 0.0
O457 O 0.81146 0.29954 0.01948 0.0
O458 O 0.77624 0.30531 0.99962 0.0
C459 C 0.75073 0.22627 0.02335 0.0
C460 C 0.7321 0.31674 0.04582 0.0
O461 O 0.72231 0.31051 0.03052 0.0
O462 O 0.75729 0.30753 0.05086 0.0
C463 C 0.7105 0.28586 0.97529 0.0
O464 O 0.73269 0.26826 0.97154 0.0
C465 C 0.80303 0.30878 0.00477 0.0
Zn466 Zn 0.79178 0.24702 0.2327 0.0
Zn467 Zn 0.76021 0.22433 0.25909 0.0
O468 O 0.73995 0.26444 0.25556 0.0
O469 O 0.76614 0.28377 0.23491 0.0
O470 O 0.73898 0.20465 0.27851 0.0
O471 O 0.8297 0.24128 0.24681 0.0
O472 O 0.80325 0.22462 0.26813 0.0
C473 C 0.74477 0.28547 0.24526 0.0
C474 C 0.75969 0.19408 0.22284 0.0
O475 O 0.75201 0.19565 0.23863 0.0
O476 O 0.77676 0.21345 0.21694 0.0
C477 C 0.71322 0.21095 0.28373 0.0
O478 O 0.69845 0.23267 0.27652 0.0
C479 C 0.82824 0.23112 0.26195 0.0
C480 C 0.18338 0.93316 0.31675 0.0
C481 C 0.15963 0.94735 0.30833 0.0
C482 C 0.19901 0.91031 0.30848 0.0
C483 C 0.19039 0.90086 0.29144 0.0
C484 C 0.16632 0.91482 0.28286 0.0
C485 C 0.15135 0.93804 0.29136 0.0
C486 C 0.22471 0.89615 0.31807 0.0
C487 C 0.1563 0.90509 0.26478 0.0
C488 C 0.25098 0.85867 0.26848 0.0
C489 C 0.24487 0.82955 0.27319 0.0
C490 C 0.23232 0.88209 0.27335 0.0
C491 C 0.2067 0.87614 0.28289 0.0
C492 C 0.19901 0.8465 0.28626 0.0
C493 C 0.21833 0.82357 0.28149 0.0
C494 C 0.24144 0.91337 0.26961 0.0
C495 C 0.17152 0.83915 0.29603 0.0
H496 H 0.18958 0.93959 0.32999 0.0
H497 H 0.13327 0.94903 0.28464 0.0
H498 H 0.22002 0.87237 0.31994 0.0
H499 H 0.245 0.8975 0.3103 0.0
H500 H 0.22926 0.90682 0.331 0.0
H501 H 0.137 0.91801 0.25996 0.0
H502 H 0.17467 0.90754 0.25564 0.0
H503 H 0.15019 0.88131 0.26463 0.0
H504 H 0.27145 0.86353 0.26206 0.0
H505 H 0.2133 0.80108 0.28501 0.0
H506 H 0.24938 0.92451 0.28185 0.0
H507 H 0.22234 0.92624 0.26456 0.0
H508 H 0.25945 0.91406 0.26007 0.0
H509 H 0.1748 0.84564 0.30992 0.0
H510 H 0.16628 0.81515 0.29519 0.0
H511 H 0.15222 0.85171 0.29093 0.0
C512 C 0.1492 0.62746 0.56599 0.0
C513 C 0.12053 0.639 0.5678 0.0
C514 C 0.17122 0.6433 0.55761 0.0
C515 C 0.16429 0.67109 0.5505 0.0
C516 C 0.13537 0.68272 0.55204 0.0
C517 C 0.11398 0.66672 0.56081 0.0
C518 C 0.20193 0.63037 0.55646 0.0
C519 C 0.127 0.71214 0.54444 0.0
C520 C 0.22358 0.72803 0.54183 0.0
C521 C 0.22687 0.7245 0.52383 0.0
C522 C 0.20421 0.70992 0.5508 0.0
C523 C 0.18724 0.68821 0.5415 0.0
C524 C 0.19109 0.68399 0.52342 0.0
C525 C 0.21109 0.70199 0.51483 0.0
C526 C 0.20125 0.71464 0.57016 0.0
C527 C 0.17306 0.66141 0.51299 0.0
H528 H 0.15447 0.60586 0.571 0.0
H529 H 0.09217 0.6762 0.56238 0.0
H530 H 0.2078 0.62707 0.54265 0.0
H531 H 0.21836 0.64599 0.56246 0.0
H532 H 0.20393 0.60884 0.56304 0.0
H533 H 0.10326 0.71754 0.54615 0.0
H534 H 0.14057 0.73002 0.55071 0.0
H535 H 0.13165 0.71198 0.53035 0.0
H536 H 0.23585 0.74527 0.54887 0.0
H537 H 0.21336 0.69929 0.5009 0.0
H538 H 0.20388 0.69333 0.57688 0.0
H539 H 0.17882 0.72316 0.57298 0.0
H540 H 0.21784 0.7306 0.57569 0.0
H541 H 0.17533 0.63928 0.51878 0.0
H542 H 0.17977 0.6598 0.49922 0.0
H543 H 0.14929 0.66749 0.5133 0.0
C544 C 0.41355 0.61401 0.83391 0.0
C545 C 0.41465 0.58824 0.82341 0.0
C546 C 0.3957 0.63807 0.82919 0.0
C547 C 0.37833 0.63621 0.81368 0.0
C548 C 0.37875 0.61 0.80324 0.0
C549 C 0.39699 0.58639 0.8082 0.0
C550 C 0.39584 0.66564 0.84065 0.0
C551 C 0.36036 0.60709 0.78665 0.0
C552 C 0.31302 0.68726 0.80547 0.0
C553 C 0.3246 0.70651 0.79332 0.0
C554 C 0.33057 0.66488 0.81275 0.0
C555 C 0.36046 0.66196 0.80792 0.0
C556 C 0.37274 0.68247 0.7965 0.0
C557 C 0.35463 0.70439 0.78928 0.0
C558 C 0.31666 0.64338 0.82484 0.0
C559 C 0.40467 0.68039 0.79126 0.0
H560 H 0.42668 0.6154 0.84587 0.0
H561 H 0.3979 0.5667 0.79992 0.0
H562 H 0.4043 0.6846 0.83334 0.0
H563 H 0.37298 0.67124 0.84448 0.0
H564 H 0.4098 0.66316 0.8526 0.0
H565 H 0.36209 0.58474 0.78045 0.0
H566 H 0.33675 0.61161 0.78931 0.0
H567 H 0.36764 0.6237 0.77727 0.0
H568 H 0.28982 0.68867 0.80864 0.0
H569 H 0.36381 0.71933 0.78001 0.0
H570 H 0.33061 0.641 0.83678 0.0
H571 H 0.3151 0.62123 0.81836 0.0
H572 H 0.2941 0.65035 0.82863 0.0
H573 H 0.41945 0.67907 0.80294 0.0
H574 H 0.41151 0.69958 0.78356 0.0
H575 H 0.40798 0.65989 0.78335 0.0
C576 C 0.41707 0.90811 0.06194 0.0
C577 C 0.44686 0.89953 0.06166 0.0
C578 C 0.39501 0.89061 0.05367 0.0
C579 C 0.40312 0.86421 0.04475 0.0
C580 C 0.43325 0.85574 0.04423 0.0
C581 C 0.45474 0.87343 0.05279 0.0
C582 C 0.36307 0.90009 0.05467 0.0
C583 C 0.44281 0.82795 0.03465 0.0
C584 C 0.35004 0.80056 0.03589 0.0
C585 C 0.34328 0.80378 0.01816 0.0
C586 C 0.36825 0.82104 0.04497 0.0
C587 C 0.38026 0.84508 0.03605 0.0
C588 C 0.37244 0.84922 0.01837 0.0
C589 C 0.35386 0.8286 0.00966 0.0
C590 C 0.37575 0.81617 0.06391 0.0
C591 C 0.38499 0.87448 0.00839 0.0
H592 H 0.411 0.9282 0.06894 0.0
H593 H 0.47783 0.867 0.05242 0.0
H594 H 0.35335 0.90242 0.04141 0.0
H595 H 0.35009 0.88288 0.06115 0.0
H596 H 0.36051 0.9214 0.06195 0.0
H597 H 0.46721 0.82494 0.03513 0.0
H598 H 0.4324 0.80834 0.04037 0.0
H599 H 0.43528 0.82862 0.02084 0.0
H600 H 0.34171 0.78158 0.04259 0.0
H601 H 0.34875 0.83125 0.99596 0.0
H602 H 0.37241 0.83685 0.07165 0.0
H603 H 0.39942 0.81001 0.06539 0.0
H604 H 0.36214 0.79836 0.06939 0.0
H605 H 0.38175 0.89577 0.01553 0.0
H606 H 0.3747 0.87611 0.9952 0.0
H607 H 0.40918 0.87131 0.00705 0.0
C608 C 0.11953 0.61636 0.96445 0.0
C609 C 0.09064 0.62754 0.96308 0.0
C610 C 0.14258 0.63345 0.97186 0.0
C611 C 0.13647 0.66216 0.97856 0.0
C612 C 0.10695 0.67256 0.97868 0.0
C613 C 0.08438 0.65526 0.97073 0.0
C614 C 0.17379 0.62152 0.9714 0.0
C615 C 0.09942 0.70263 0.98626 0.0
C616 C 0.20285 0.69577 0.0027 0.0
C617 C 0.21601 0.71146 0.98941 0.0
C618 C 0.17548 0.68149 0.99986 0.0
C619 C 0.16152 0.68232 0.98322 0.0
C620 C 0.17381 0.69967 0.97014 0.0
C621 C 0.20071 0.71432 0.97348 0.0
C622 C 0.16247 0.66414 0.01433 0.0
C623 C 0.15982 0.70089 0.95215 0.0
H624 H 0.1244 0.59456 0.95909 0.0
H625 H 0.06214 0.66413 0.96979 0.0
H626 H 0.18719 0.63515 0.96272 0.0
H627 H 0.18439 0.6229 0.98453 0.0
H628 H 0.17455 0.59816 0.96663 0.0
H629 H 0.07536 0.70486 0.98858 0.0
H630 H 0.11182 0.70685 0.99869 0.0
H631 H 0.10587 0.71996 0.97713 0.0
H632 H 0.21438 0.69377 0.01512 0.0
H633 H 0.21066 0.72645 0.96315 0.0
H634 H 0.16666 0.64022 0.01204 0.0
H635 H 0.13814 0.66731 0.01471 0.0
H636 H 0.17239 0.67067 0.02719 0.0
H637 H 0.16082 0.67866 0.94575 0.0
H638 H 0.17109 0.71693 0.94383 0.0
H639 H 0.13616 0.70712 0.9529 0.0
C640 C 0.36975 0.58332 0.19644 0.0
C641 C 0.39293 0.56898 0.20522 0.0
C642 C 0.35335 0.60556 0.2048 0.0
C643 C 0.36102 0.61414 0.22213 0.0
C644 C 0.38343 0.59858 0.2313 0.0
C645 C 0.39895 0.5759 0.22274 0.0
C646 C 0.32908 0.62106 0.19474 0.0
C647 C 0.39266 0.60738 0.24967 0.0
C648 C 0.35252 0.69497 0.23495 0.0
C649 C 0.32889 0.69424 0.24638 0.0
C650 C 0.36282 0.66908 0.22681 0.0
C651 C 0.34869 0.64181 0.22983 0.0
C652 C 0.32394 0.64106 0.24073 0.0
C653 C 0.31455 0.66728 0.24908 0.0
C654 C 0.38959 0.6708 0.21549 0.0
C655 C 0.30783 0.61251 0.24384 0.0
H656 H 0.36512 0.57777 0.18287 0.0
H657 H 0.41709 0.5649 0.22942 0.0
H658 H 0.30926 0.6241 0.20282 0.0
H659 H 0.33679 0.64334 0.19117 0.0
H660 H 0.32257 0.60863 0.18263 0.0
H661 H 0.40838 0.59131 0.2555 0.0
H662 H 0.40348 0.62942 0.24973 0.0
H663 H 0.37307 0.60929 0.25801 0.0
H664 H 0.36385 0.71568 0.23287 0.0
H665 H 0.29615 0.66663 0.25784 0.0
H666 H 0.38412 0.66197 0.20224 0.0
H667 H 0.40769 0.65695 0.22092 0.0
H668 H 0.39791 0.69379 0.21441 0.0
H669 H 0.30196 0.60121 0.23127 0.0
H670 H 0.28731 0.61614 0.25125 0.0
H671 H 0.32248 0.59737 0.25122 0.0
C672 C 0.48015 0.87992 0.47332 0.0
C673 C 0.46906 0.90589 0.46588 0.0
C674 C 0.46138 0.86034 0.48175 0.0
C675 C 0.43068 0.86639 0.48225 0.0
C676 C 0.41962 0.89316 0.47548 0.0
C677 C 0.43899 0.91277 0.46772 0.0
C678 C 0.47424 0.83262 0.48943 0.0
C679 C 0.38698 0.90045 0.47558 0.0
C680 C 0.37257 0.80631 0.48021 0.0
C681 C 0.35897 0.81057 0.49626 0.0
C682 C 0.39735 0.82299 0.4759 0.0
C683 C 0.40942 0.8438 0.48814 0.0
C684 C 0.39782 0.8458 0.50504 0.0
C685 C 0.37239 0.82949 0.50883 0.0
C686 C 0.40873 0.82037 0.45764 0.0
C687 C 0.41091 0.86671 0.51873 0.0
H688 H 0.50328 0.87422 0.47202 0.0
H689 H 0.4303 0.93324 0.46264 0.0
H690 H 0.46416 0.82804 0.50208 0.0
H691 H 0.46937 0.81346 0.48056 0.0
H692 H 0.49863 0.83425 0.49136 0.0
H693 H 0.38204 0.92239 0.47 0.0
H694 H 0.37435 0.88335 0.46794 0.0
H695 H 0.37883 0.90036 0.48904 0.0
H696 H 0.36243 0.79171 0.47041 0.0
H697 H 0.36224 0.83264 0.52135 0.0
H698 H 0.43311 0.81772 0.45788 0.0
H699 H 0.4035 0.84096 0.45063 0.0
H700 H 0.3987 0.80139 0.4502 0.0
H701 H 0.43545 0.86652 0.51842 0.0
H702 H 0.40393 0.86095 0.53196 0.0
H703 H 0.40342 0.88958 0.51614 0.0
C704 C 0.15868 0.9261 0.72057 0.0
C705 C 0.16648 0.95608 0.71984 0.0
C706 C 0.17556 0.90628 0.73038 0.0
C707 C 0.20039 0.91676 0.74025 0.0
C708 C 0.20728 0.9473 0.74058 0.0
C709 C 0.19051 0.96656 0.73017 0.0
C710 C 0.16749 0.87382 0.72953 0.0
C711 C 0.23298 0.95951 0.75139 0.0
C712 C 0.22739 0.85756 0.77071 0.0
C713 C 0.24851 0.84322 0.76045 0.0
C714 C 0.21348 0.8836 0.76514 0.0
C715 C 0.22037 0.89501 0.74876 0.0
C716 C 0.24357 0.88217 0.73914 0.0
C717 C 0.25761 0.85668 0.74523 0.0
C718 C 0.18979 0.89747 0.77613 0.0
C719 C 0.25154 0.89345 0.72155 0.0
H720 H 0.13956 0.91789 0.71319 0.0
H721 H 0.19686 0.98962 0.72975 0.0
H722 H 0.18604 0.86082 0.72404 0.0
H723 H 0.16376 0.86569 0.74276 0.0
H724 H 0.14727 0.86936 0.72139 0.0
H725 H 0.23159 0.98392 0.75314 0.0
H726 H 0.23394 0.94935 0.76437 0.0
H727 H 0.25399 0.95416 0.74488 0.0
H728 H 0.22052 0.84761 0.78263 0.0
H729 H 0.27413 0.84601 0.73726 0.0
H730 H 0.16768 0.89088 0.77079 0.0
H731 H 0.19112 0.92197 0.77594 0.0
H732 H 0.19157 0.89028 0.78981 0.0
H733 H 0.23314 0.88858 0.7121 0.0
H734 H 0.27203 0.88304 0.71659 0.0
H735 H 0.25466 0.91777 0.72212 0.0
C736 C 0.62598 0.3979 0.78982 0.0
C737 C 0.59597 0.39064 0.79133 0.0
C738 C 0.64503 0.38 0.78011 0.0
C739 C 0.63358 0.35495 0.77082 0.0
C740 C 0.60279 0.34925 0.77072 0.0
C741 C 0.58444 0.36674 0.78129 0.0
C742 C 0.6778 0.38685 0.78081 0.0
C743 C 0.58928 0.32385 0.76024 0.0
C744 C 0.69465 0.32273 0.74361 0.0
C745 C 0.70676 0.3021 0.75512 0.0
C746 C 0.66832 0.33782 0.7475 0.0
C747 C 0.65466 0.33293 0.76354 0.0
C748 C 0.6651 0.30998 0.77425 0.0
C749 C 0.69066 0.29444 0.76971 0.0
C750 C 0.65651 0.36055 0.73511 0.0
C751 C 0.6513 0.30396 0.79149 0.0
H752 H 0.635 0.4171 0.79677 0.0
H753 H 0.56131 0.36079 0.78214 0.0
H754 H 0.69014 0.36806 0.78654 0.0
H755 H 0.68601 0.3898 0.76753 0.0
H756 H 0.68307 0.40716 0.78868 0.0
H757 H 0.56601 0.32881 0.75634 0.0
H758 H 0.60198 0.31875 0.74839 0.0
H759 H 0.58905 0.30382 0.76827 0.0
H760 H 0.70656 0.32836 0.7321 0.0
H761 H 0.69948 0.27818 0.77855 0.0
H762 H 0.66462 0.3828 0.73928 0.0
H763 H 0.63194 0.36105 0.735 0.0
H764 H 0.66404 0.35602 0.72168 0.0
H765 H 0.65446 0.32347 0.80037 0.0
H766 H 0.66113 0.28433 0.79784 0.0
H767 H 0.62717 0.30028 0.78973 0.0
C768 C 0.646 0.10793 0.05697 0.0
C769 C 0.65214 0.07775 0.05473 0.0
C770 C 0.66432 0.12944 0.05006 0.0
C771 C 0.68925 0.12056 0.04043 0.0
C772 C 0.69517 0.09007 0.03772 0.0
C773 C 0.67668 0.06897 0.04508 0.0
C774 C 0.65741 0.16173 0.05347 0.0
C775 C 0.7212 0.07979 0.02727 0.0
C776 C 0.71823 0.18353 0.01408 0.0
C777 C 0.73991 0.19563 0.02552 0.0
C778 C 0.70312 0.1575 0.01808 0.0
C779 C 0.70957 0.14354 0.03399 0.0
C780 C 0.73301 0.15434 0.0449 0.0
C781 C 0.74806 0.18011 0.04047 0.0
C782 C 0.67878 0.14626 0.00588 0.0
C783 C 0.74052 0.14022 0.06203 0.0
H784 H 0.62728 0.11477 0.06464 0.0
H785 H 0.68135 0.0456 0.04326 0.0
H786 H 0.67615 0.17246 0.06076 0.0
H787 H 0.65457 0.17331 0.041 0.0
H788 H 0.63701 0.16489 0.06105 0.0
H789 H 0.7215 0.05538 0.02529 0.0
H790 H 0.72068 0.09029 0.01439 0.0
H791 H 0.74214 0.08668 0.03401 0.0
H792 H 0.712 0.19517 0.0024 0.0
H793 H 0.76485 0.18917 0.04937 0.0
H794 H 0.65698 0.15179 0.01141 0.0
H795 H 0.67991 0.12184 0.00429 0.0
H796 H 0.67993 0.15626 0.99288 0.0
H797 H 0.72243 0.14464 0.07123 0.0
H798 H 0.76151 0.14895 0.06796 0.0
H799 H 0.74247 0.11589 0.06036 0.0
C800 C 0.94801 0.13497 0.3081 0.0
C801 C 0.97451 0.14852 0.31394 0.0
C802 C 0.92547 0.1512 0.29994 0.0
C803 C 0.92891 0.18205 0.29808 0.0
C804 C 0.95515 0.19614 0.30432 0.0
C805 C 0.97783 0.17916 0.31192 0.0
C806 C 0.898 0.13521 0.29319 0.0
C807 C 0.95927 0.22913 0.30294 0.0
C808 C 0.88097 0.21509 0.26246 0.0
C809 C 0.85566 0.22325 0.27159 0.0
C810 C 0.90555 0.20269 0.27105 0.0
C811 C 0.90509 0.19918 0.28925 0.0
C812 C 0.88045 0.20936 0.29869 0.0
C813 C 0.85578 0.22085 0.2897 0.0
C814 C 0.93107 0.19146 0.26045 0.0
C815 C 0.87955 0.20687 0.31818 0.0
H816 H 0.94466 0.11156 0.30999 0.0
H817 H -0.00175 0.18995 0.31613 0.0
H818 H 0.87828 0.14384 0.29993 0.0
H819 H 0.89457 0.13924 0.27913 0.0
H820 H 0.89929 0.11095 0.29507 0.0
H821 H 0.98017 0.23697 0.30941 0.0
H822 H 0.95953 0.23523 0.28909 0.0
H823 H 0.94043 0.24099 0.30891 0.0
H824 H 0.88088 0.21669 0.24844 0.0
H825 H 0.83632 0.22736 0.2968 0.0
H826 H 0.93186 0.16695 0.26087 0.0
H827 H 0.95239 0.19992 0.26599 0.0
H828 H 0.92909 0.19797 0.24665 0.0
H829 H 0.87705 0.18332 0.32159 0.0
H830 H 0.86087 0.21956 0.32378 0.0
H831 H 0.90057 0.21498 0.32434 0.0
C832 C 0.89583 0.46888 0.54864 0.0
C833 C 0.92323 0.46064 0.55604 0.0
C834 C 0.87749 0.44785 0.54002 0.0
C835 C 0.88646 0.41787 0.53925 0.0
C836 C 0.91489 0.40987 0.54567 0.0
C837 C 0.93308 0.43144 0.55369 0.0
C838 C 0.84785 0.45745 0.53268 0.0
C839 C 0.92537 0.37812 0.54519 0.0
C840 C 0.83276 0.35477 0.5431 0.0
C841 C 0.83588 0.33997 0.52704 0.0
C842 C 0.84752 0.38147 0.54682 0.0
C843 C 0.86517 0.3941 0.53399 0.0
C844 C 0.86583 0.38092 0.51715 0.0
C845 C 0.85153 0.35369 0.51393 0.0
C846 C 0.84643 0.3946 0.56502 0.0
C847 C 0.88327 0.39446 0.50289 0.0
H848 H 0.88803 0.4914 0.55029 0.0
H849 H 0.95468 0.42511 0.55878 0.0
H850 H 0.84254 0.44558 0.52021 0.0
H851 H 0.8303 0.45212 0.54192 0.0
H852 H 0.84725 0.48165 0.53051 0.0
H853 H 0.94855 0.37584 0.55012 0.0
H854 H 0.91088 0.36452 0.55327 0.0
H855 H 0.92391 0.36888 0.53174 0.0
H856 H 0.82059 0.34442 0.55328 0.0
H857 H 0.85364 0.34258 0.5014 0.0
H858 H 0.841 0.41848 0.56467 0.0
H859 H 0.86851 0.39253 0.57151 0.0
H860 H 0.82987 0.38343 0.57304 0.0
H861 H 0.88109 0.41892 0.50321 0.0
H862 H 0.87595 0.38582 0.48986 0.0
H863 H 0.90706 0.3891 0.50478 0.0
C864 C 0.65429 0.13449 0.44697 0.0
C865 C 0.64766 0.10849 0.45571 0.0
C866 C 0.6733 0.15597 0.45452 0.0
C867 C 0.6865 0.15103 0.47104 0.0
C868 C 0.67974 0.12502 0.48001 0.0
C869 C 0.66016 0.10425 0.47232 0.0
C870 C 0.67965 0.18369 0.44471 0.0
C871 C 0.69365 0.11882 0.49759 0.0
C872 C 0.7593 0.18802 0.48385 0.0
C873 C 0.75028 0.20925 0.49618 0.0
C874 C 0.73865 0.16936 0.47524 0.0
C875 C 0.70821 0.17248 0.4788 0.0
C876 C 0.69883 0.19485 0.49059 0.0
C877 C 0.72004 0.21278 0.4993 0.0
C878 C 0.74954 0.14544 0.46297 0.0
C879 C 0.66649 0.19928 0.49437 0.0
H880 H 0.64513 0.13784 0.43403 0.0
H881 H 0.65472 0.08458 0.47935 0.0
H882 H 0.67543 0.20355 0.45302 0.0
H883 H 0.70333 0.18422 0.44127 0.0
H884 H 0.66596 0.18516 0.43258 0.0
H885 H 0.6861 0.09748 0.50281 0.0
H886 H 0.7181 0.1182 0.49664 0.0
H887 H 0.68821 0.13682 0.50701 0.0
H888 H 0.78266 0.1851 0.48145 0.0
H889 H 0.71296 0.22934 0.50872 0.0
H890 H 0.73797 0.14685 0.45015 0.0
H891 H 0.74446 0.1234 0.4682 0.0
H892 H 0.77377 0.14685 0.46101 0.0
H893 H 0.65339 0.20109 0.48207 0.0
H894 H 0.66266 0.2194 0.50257 0.0
H895 H 0.658 0.17983 0.50122 0.0
C896 C 0.93428 0.11806 0.70527 0.0
C897 C 0.96303 0.12956 0.70412 0.0
C898 C 0.91098 0.13556 0.71145 0.0
C899 C 0.91666 0.16505 0.71707 0.0
C900 C 0.94567 0.17666 0.71632 0.0
C901 C 0.96839 0.15892 0.70967 0.0
C902 C 0.88023 0.12254 0.71184 0.0
C903 C 0.95269 0.20788 0.7225 0.0
C904 C 0.85479 0.22172 0.71975 0.0
C905 C 0.84864 0.2217 0.73751 0.0
C906 C 0.87623 0.20266 0.7128 0.0
C907 C 0.89236 0.18374 0.72396 0.0
C908 C 0.88596 0.18337 0.74184 0.0
C909 C 0.86394 0.20211 0.74836 0.0
C910 C 0.88197 0.20313 0.69358 0.0
C911 C 0.90311 0.16397 0.75422 0.0
H912 H 0.92989 0.09527 0.70137 0.0
H913 H 0.9903 0.1683 0.70856 0.0
H914 H 0.87245 0.12246 0.72538 0.0
H915 H 0.86455 0.13639 0.70426 0.0
H916 H 0.87931 0.09955 0.70643 0.0
H917 H 0.9766 0.21319 0.72164 0.0
H918 H 0.93989 0.22386 0.71461 0.0
H919 H 0.94604 0.21114 0.73619 0.0
H920 H 0.84293 0.23674 0.71131 0.0
H921 H 0.8595 0.2022 0.76213 0.0
H922 H 0.88035 0.18041 0.68786 0.0
H923 H 0.90476 0.21115 0.69146 0.0
H924 H 0.86616 0.21761 0.6865 0.0
H925 H 0.90166 0.1405 0.74979 0.0
H926 H 0.89495 0.16582 0.76769 0.0
H927 H 0.92686 0.17025 0.75439 0.0
C928 C 0.91596 0.40606 0.94999 0.0
C929 C 0.905 0.43516 0.94997 0.0
C930 C 0.90055 0.38328 0.95796 0.0
C931 C 0.8739 0.38981 0.9665 0.0
C932 C 0.86274 0.41906 0.96661 0.0
C933 C 0.87818 0.44123 0.95817 0.0
C934 C 0.91287 0.35224 0.95731 0.0
C935 C 0.83456 0.42702 0.97578 0.0
C936 C 0.81718 0.33109 0.9767 0.0
C937 C 0.82339 0.32644 0.99436 0.0
C938 C 0.83438 0.3506 0.96722 0.0
C939 C 0.85788 0.36632 0.97572 0.0
C940 C 0.86481 0.36101 0.9934 0.0
C941 C 0.84769 0.34088 0.00245 0.0
C942 C 0.82677 0.3551 0.94827 0.0
C943 C 0.88934 0.37771 0.00302 0.0
H944 H 0.93684 0.40106 0.94397 0.0
H945 H 0.86905 0.46337 0.95793 0.0
H946 H 0.91867 0.34508 0.97064 0.0
H947 H 0.89589 0.33664 0.95189 0.0
H948 H 0.93292 0.35048 0.94929 0.0
H949 H 0.82919 0.45093 0.97497 0.0
H950 H 0.81576 0.41408 0.97002 0.0
H951 H 0.83664 0.42126 0.98968 0.0
H952 H 0.79854 0.31986 0.97035 0.0
H953 H 0.8525 0.33756 0.01612 0.0
H954 H 0.84691 0.35293 0.94038 0.0
H955 H 0.81801 0.37777 0.94651 0.0
H956 H 0.80993 0.33902 0.94316 0.0
H957 H 0.91036 0.37543 0.99598 0.0
H958 H 0.89294 0.36988 0.01647 0.0
H959 H 0.88383 0.40162 0.00366 0.0
C960 C 0.62477 0.41397 0.22693 0.0
C961 C 0.60428 0.40089 0.21512 0.0
C962 C 0.64751 0.39718 0.23461 0.0
C963 C 0.65014 0.36679 0.23006 0.0
C964 C 0.6289 0.35332 0.21856 0.0
C965 C 0.6061 0.37051 0.21134 0.0
C966 C 0.66931 0.41217 0.2471 0.0
C967 C 0.63112 0.32108 0.21317 0.0
C968 C 0.72501 0.32928 0.2296 0.0
C969 C 0.72306 0.30991 0.2435 0.0
C970 C 0.70196 0.34889 0.22559 0.0
C971 C 0.67646 0.34955 0.2359 0.0
C972 C 0.67525 0.33166 0.25071 0.0
C973 C 0.69849 0.31187 0.25427 0.0
C974 C 0.70409 0.36746 0.20961 0.0
C975 C 0.64874 0.33227 0.26224 0.0
H976 H 0.6232 0.43744 0.22997 0.0
H977 H 0.59046 0.36043 0.20208 0.0
H978 H 0.67241 0.39894 0.25896 0.0
H979 H 0.69117 0.41377 0.24095 0.0
H980 H 0.66208 0.43481 0.25096 0.0
H981 H 0.61198 0.31363 0.20486 0.0
H982 H 0.65169 0.31737 0.20585 0.0
H983 H 0.63243 0.30707 0.22479 0.0
H984 H 0.74391 0.32808 0.22121 0.0
H985 H 0.69685 0.29716 0.26512 0.0
H986 H 0.69953 0.39101 0.21287 0.0
H987 H 0.68715 0.36004 0.19978 0.0
H988 H 0.72621 0.36589 0.20368 0.0
H989 H 0.6423 0.35541 0.26543 0.0
H990 H 0.65303 0.32044 0.27453 0.0
H991 H 0.62964 0.32159 0.25529 0.0
C992 C 0.18754 0.95127 0.4137 0.0
C993 C 0.15742 0.94964 0.40898 0.0
C994 C 0.20045 0.93056 0.42486 0.0
C995 C 0.18275 0.90783 0.43154 0.0
C996 C 0.15231 0.90616 0.42688 0.0
C997 C 0.14003 0.92704 0.41561 0.0
C998 C 0.23307 0.93289 0.42943 0.0
C999 C 0.13269 0.88239 0.43384 0.0
C1000 C 0.22142 0.83872 0.4475 0.0
C1001 C 0.22325 0.84425 0.46551 0.0
C1002 C 0.20813 0.85914 0.43632 0.0
C1003 C 0.19617 0.88565 0.4433 0.0
C1004 C 0.19739 0.89113 0.46148 0.0
C1005 C 0.21099 0.8704 0.47237 0.0
C1006 C 0.20734 0.85259 0.41699 0.0
C1007 C 0.18464 0.91906 0.46941 0.0
H1008 H 0.20109 0.96856 0.40848 0.0
H1009 H 0.11664 0.92597 0.41219 0.0
H1010 H 0.23633 0.93546 0.44371 0.0
H1011 H 0.24452 0.91226 0.42535 0.0
H1012 H 0.24372 0.95187 0.42315 0.0
H1013 H 0.10941 0.88428 0.42904 0.0
H1014 H 0.14119 0.86023 0.43001 0.0
H1015 H 0.13302 0.88369 0.44825 0.0
H1016 H 0.23089 0.81864 0.44206 0.0
H1017 H 0.21225 0.87485 0.48626 0.0
H1018 H 0.21961 0.86997 0.41021 0.0
H1019 H 0.18417 0.85292 0.4119 0.0
H1020 H 0.21722 0.83075 0.41366 0.0
H1021 H 0.19629 0.93863 0.46448 0.0
H1022 H 0.18656 0.91956 0.48382 0.0
H1023 H 0.16095 0.92116 0.46553 0.0
C1024 C 0.12277 0.66219 0.66625 0.0
C1025 C 0.10882 0.63574 0.67064 0.0
C1026 C 0.14216 0.67696 0.67803 0.0
C1027 C 0.14847 0.66454 0.6944 0.0
C1028 C 0.13469 0.63782 0.69891 0.0
C1029 C 0.11468 0.62404 0.68712 0.0
C1030 C 0.15595 0.70581 0.67294 0.0
C1031 C 0.14125 0.62364 0.71615 0.0
C1032 C 0.21994 0.68807 0.71768 0.0
C1033 C 0.2095 0.70759 0.73052 0.0
C1034 C 0.20025 0.67354 0.70597 0.0
C1035 C 0.16954 0.67945 0.70684 0.0
C1036 C 0.15894 0.69943 0.71967 0.0
C1037 C 0.17904 0.71293 0.73154 0.0
C1038 C 0.21226 0.65171 0.69279 0.0
C1039 C 0.12645 0.70688 0.72071 0.0
H1040 H 0.11888 0.67127 0.65351 0.0
H1041 H 0.10355 0.60406 0.69089 0.0
H1042 H 0.15131 0.72331 0.68285 0.0
H1043 H 0.18033 0.70339 0.67244 0.0
H1044 H 0.14757 0.71327 0.66009 0.0
H1045 H 0.12953 0.60222 0.71738 0.0
H1046 H 0.1654 0.61974 0.71775 0.0
H1047 H 0.13461 0.63868 0.72694 0.0
H1048 H 0.24349 0.68382 0.71696 0.0
H1049 H 0.17097 0.72829 0.74135 0.0
H1050 H 0.20692 0.65913 0.67945 0.0
H1051 H 0.20159 0.62982 0.69421 0.0
H1052 H 0.23662 0.64896 0.69418 0.0
H1053 H 0.11834 0.71573 0.70815 0.0
H1054 H 0.12194 0.72345 0.73119 0.0
H1055 H 0.11348 0.68662 0.72309 0.0
C1056 C 0.44709 0.58618 0.92413 0.0
C1057 C 0.43358 0.57425 0.90891 0.0
C1058 C 0.43252 0.60721 0.93452 0.0
C1059 C 0.40341 0.61598 0.92984 0.0
C1060 C 0.3895 0.60391 0.91462 0.0
C1061 C 0.40488 0.58353 0.90422 0.0
C1062 C 0.44827 0.62004 0.9505 0.0
C1063 C 0.35828 0.61239 0.90935 0.0
C1064 C 0.35529 0.64818 0.96526 0.0
C1065 C 0.35548 0.67835 0.96148 0.0
C1066 C 0.37072 0.62761 0.95502 0.0
C1067 C 0.38735 0.63759 0.94096 0.0
C1068 C 0.38821 0.66813 0.93735 0.0
C1069 C 0.37192 0.68813 0.94753 0.0
C1070 C 0.3687 0.59514 0.95901 0.0
C1071 C 0.40631 0.67966 0.92274 0.0
H1072 H 0.46902 0.57889 0.92808 0.0
H1073 H 0.39441 0.57504 0.89232 0.0
H1074 H 0.44865 0.64454 0.94996 0.0
H1075 H 0.43617 0.61419 0.96229 0.0
H1076 H 0.47139 0.61194 0.95187 0.0
H1077 H 0.3503 0.60026 0.89743 0.0
H1078 H 0.34302 0.60774 0.92003 0.0
H1079 H 0.35708 0.63646 0.90699 0.0
H1080 H 0.34239 0.64053 0.97596 0.0
H1081 H 0.37226 0.71148 0.94467 0.0
H1082 H 0.3911 0.58606 0.96168 0.0
H1083 H 0.35926 0.58273 0.94756 0.0
H1084 H 0.35472 0.59102 0.97037 0.0
H1085 H 0.42968 0.6725 0.92435 0.0
H1086 H 0.40572 0.70418 0.92216 0.0
H1087 H 0.3979 0.6703 0.91013 0.0
C1088 C 0.47307 0.9123 0.18104 0.0
C1089 C 0.46424 0.91411 0.1635 0.0
C1090 C 0.45443 0.89995 0.19324 0.0
C1091 C 0.42613 0.88936 0.18783 0.0
C1092 C 0.41699 0.89122 0.17018 0.0
C1093 C 0.43619 0.90345 0.15822 0.0
C1094 C 0.46503 0.89823 0.21194 0.0
C1095 C 0.38694 0.88021 0.16392 0.0
C1096 C 0.38924 0.83304 0.21604 0.0
C1097 C 0.36993 0.85085 0.22573 0.0
C1098 C 0.40749 0.84526 0.20359 0.0
C1099 C 0.40626 0.87601 0.20064 0.0
C1100 C 0.38649 0.89405 0.21016 0.0
C1101 C 0.36864 0.88127 0.22265 0.0
C1102 C 0.42843 0.82532 0.19379 0.0
C1103 C 0.38438 0.9269 0.20726 0.0
H1104 H 0.49448 0.92092 0.18531 0.0
H1105 H 0.42932 0.90437 0.14466 0.0
H1106 H 0.44982 0.91077 0.22047 0.0
H1107 H 0.46485 0.8749 0.21609 0.0
H1108 H 0.48775 0.90722 0.21402 0.0
H1109 H 0.38293 0.88385 0.14985 0.0
H1110 H 0.38492 0.85621 0.16633 0.0
H1111 H 0.36934 0.89162 0.1713 0.0
H1112 H 0.39046 0.80952 0.21835 0.0
H1113 H 0.35372 0.89518 0.23002 0.0
H1114 H 0.4516 0.83255 0.19644 0.0
H1115 H 0.42414 0.82693 0.1796 0.0
H1116 H 0.42635 0.80179 0.19742 0.0
H1117 H 0.40603 0.93755 0.21037 0.0
H1118 H 0.36726 0.93769 0.21534 0.0
H1119 H 0.37902 0.93101 0.19338 0.0
C1120 C 0.0687 0.68451 0.86313 0.0
C1121 C 0.07474 0.65414 0.86426 0.0
C1122 C 0.08631 0.70293 0.85315 0.0
C1123 C 0.11017 0.6906 0.84386 0.0
C1124 C 0.11688 0.66019 0.84537 0.0
C1125 C 0.09936 0.64247 0.8557 0.0
C1126 C 0.07887 0.73539 0.85215 0.0
C1127 C 0.14203 0.64607 0.83561 0.0
C1128 C 0.13601 0.72413 0.8022 0.0
C1129 C 0.16371 0.7357 0.80739 0.0
C1130 C 0.11779 0.71044 0.81412 0.0
C1131 C 0.12723 0.7088 0.83174 0.0
C1132 C 0.15434 0.72207 0.83727 0.0
C1133 C 0.17244 0.73508 0.82499 0.0
C1134 C 0.08925 0.69621 0.80763 0.0
C1135 C 0.16483 0.72141 0.85602 0.0
H1136 H 0.04969 0.69377 0.8696 0.0
H1137 H 0.10477 0.61925 0.85687 0.0
H1138 H 0.099 0.74902 0.85468 0.0
H1139 H 0.07051 0.74037 0.83888 0.0
H1140 H 0.06178 0.74215 0.86158 0.0
H1141 H 0.14463 0.62221 0.83841 0.0
H1142 H 0.1381 0.64834 0.82142 0.0
H1143 H 0.16314 0.65753 0.83905 0.0
H1144 H 0.12912 0.72446 0.78862 0.0
H1145 H 0.19371 0.74424 0.82911 0.0
H1146 H 0.07053 0.70385 0.81562 0.0
H1147 H 0.09086 0.67185 0.80888 0.0
H1148 H 0.08411 0.70116 0.79382 0.0
H1149 H 0.14679 0.72832 0.86474 0.0
H1150 H 0.18426 0.73604 0.85863 0.0
H1151 H 0.17113 0.6985 0.85937 0.0
C1152 C 0.41363 0.559 0.085 0.0
C1153 C 0.40504 0.55557 0.10222 0.0
C1154 C 0.39631 0.57527 0.07328 0.0
C1155 C 0.36954 0.58821 0.07883 0.0
C1156 C 0.36017 0.584 0.096 0.0
C1157 C 0.3781 0.56782 0.10752 0.0
C1158 C 0.40711 0.57929 0.05508 0.0
C1159 C 0.33164 0.59727 0.10235 0.0
C1160 C 0.34474 0.65568 0.05405 0.0
C1161 C 0.32432 0.64342 0.04189 0.0
C1162 C 0.35893 0.63809 0.06648 0.0
C1163 C 0.35236 0.60751 0.06689 0.0
C1164 C 0.33086 0.59521 0.05515 0.0
C1165 C 0.31717 0.6133 0.04272 0.0
C1166 C 0.38184 0.65203 0.07872 0.0
C1167 C 0.32302 0.56277 0.05534 0.0
H1168 H 0.4341 0.5491 0.08069 0.0
H1169 H 0.3714 0.56552 0.12084 0.0
H1170 H 0.38999 0.57169 0.04541 0.0
H1171 H 0.41111 0.6031 0.05288 0.0
H1172 H 0.42791 0.56695 0.05263 0.0
H1173 H 0.3263 0.58994 0.11558 0.0
H1174 H 0.33333 0.62176 0.10263 0.0
H1175 H 0.31303 0.59116 0.09331 0.0
H1176 H 0.35038 0.67893 0.05355 0.0
H1177 H 0.3013 0.60367 0.03345 0.0
H1178 H 0.4039 0.64235 0.07612 0.0
H1179 H 0.37666 0.64725 0.09238 0.0
H1180 H 0.38322 0.67639 0.07736 0.0
H1181 H 0.34237 0.54935 0.05139 0.0
H1182 H 0.30404 0.55719 0.04642 0.0
H1183 H 0.31745 0.55627 0.06867 0.0
C1184 C 0.48159 0.86018 0.36146 0.0
C1185 C 0.47016 0.88768 0.3668 0.0
C1186 C 0.46436 0.8403 0.35122 0.0
C1187 C 0.43516 0.84825 0.34617 0.0
C1188 C 0.42314 0.87544 0.35214 0.0
C1189 C 0.44075 0.89475 0.36243 0.0
C1190 C 0.47782 0.8114 0.3452 0.0
C1191 C 0.39206 0.88471 0.34707 0.0
C1192 C 0.40064 0.82047 0.30364 0.0
C1193 C 0.37936 0.80048 0.30927 0.0
C1194 C 0.41985 0.83515 0.31549 0.0
C1195 C 0.4179 0.82961 0.33343 0.0
C1196 C 0.39763 0.80828 0.33914 0.0
C1197 C 0.3785 0.79398 0.32698 0.0
C1198 C 0.44119 0.85776 0.30887 0.0
C1199 C 0.39519 0.80157 0.35816 0.0
H1200 H 0.50434 0.85464 0.36475 0.0
H1201 H 0.43161 0.9157 0.36685 0.0
H1202 H 0.46255 0.79276 0.34751 0.0
H1203 H 0.48141 0.8119 0.33101 0.0
H1204 H 0.49937 0.80699 0.35189 0.0
H1205 H 0.38546 0.90572 0.35366 0.0
H1206 H 0.3904 0.88768 0.33282 0.0
H1207 H 0.37603 0.86723 0.35032 0.0
H1208 H 0.40166 0.8255 0.28998 0.0
H1209 H 0.36227 0.77843 0.33144 0.0
H1210 H 0.46394 0.85335 0.31388 0.0
H1211 H 0.43486 0.88015 0.31368 0.0
H1212 H 0.44147 0.85788 0.29446 0.0
H1213 H 0.41742 0.79759 0.36408 0.0
H1214 H 0.38101 0.78197 0.36025 0.0
H1215 H 0.38553 0.82089 0.36512 0.0
C1216 C 0.1842 0.97379 0.59464 0.0
C1217 C 0.18767 0.97169 0.61271 0.0
C1218 C 0.20183 0.95715 0.58336 0.0
C1219 C 0.22364 0.93801 0.5903 0.0
C1220 C 0.22851 0.93712 0.60852 0.0
C1221 C 0.2104 0.954 0.61955 0.0
C1222 C 0.19597 0.95887 0.56401 0.0
C1223 C 0.25175 0.91719 0.61639 0.0
C1224 C 0.23763 0.87075 0.5615 0.0
C1225 C 0.26284 0.87928 0.55259 0.0
C1226 C 0.22546 0.88917 0.57434 0.0
C1227 C 0.23888 0.91681 0.57847 0.0
C1228 C 0.26511 0.92501 0.57013 0.0
C1229 C 0.27677 0.90615 0.55723 0.0
C1230 C 0.19744 0.87959 0.58291 0.0
C1231 C 0.28018 0.95418 0.57434 0.0
H1232 H 0.16706 0.98796 0.58931 0.0
H1233 H 0.21316 0.9523 0.63351 0.0
H1234 H 0.21685 0.96304 0.55721 0.0
H1235 H 0.18702 0.93741 0.55895 0.0
H1236 H 0.17988 0.97655 0.56068 0.0
H1237 H 0.25555 0.92205 0.63047 0.0
H1238 H 0.2446 0.8938 0.61473 0.0
H1239 H 0.27301 0.91948 0.60965 0.0
H1240 H 0.22681 0.84994 0.55812 0.0
H1241 H 0.29637 0.91283 0.55051 0.0
H1242 H 0.17905 0.89466 0.57926 0.0
H1243 H 0.20028 0.88101 0.59725 0.0
H1244 H 0.19091 0.85662 0.57909 0.0
H1245 H 0.26611 0.97254 0.56958 0.0
H1246 H 0.30216 0.95573 0.56827 0.0
H1247 H 0.2831 0.95743 0.5886 0.0
C1248 C 0.63362 0.37875 0.90196 0.0
C1249 C 0.60452 0.37063 0.89724 0.0
C1250 C 0.65059 0.36186 0.91352 0.0
C1251 C 0.63826 0.33604 0.92047 0.0
C1252 C 0.60954 0.32674 0.91498 0.0
C1253 C 0.59294 0.34421 0.90344 0.0
C1254 C 0.68119 0.3725 0.91898 0.0
C1255 C 0.59576 0.29919 0.92196 0.0
C1256 C 0.69286 0.28626 0.94414 0.0
C1257 C 0.68998 0.29626 0.96141 0.0
C1258 C 0.67527 0.29807 0.93069 0.0
C1259 C 0.6545 0.32054 0.93462 0.0
C1260 C 0.65074 0.32991 0.95209 0.0
C1261 C 0.66843 0.3176 0.96527 0.0
C1262 C 0.67966 0.2873 0.91224 0.0
C1263 C 0.62886 0.35386 0.95682 0.0
H1264 H 0.64289 0.39883 0.89693 0.0
H1265 H 0.57042 0.33787 0.89991 0.0
H1266 H 0.6815 0.37898 0.93297 0.0
H1267 H 0.69756 0.35446 0.91728 0.0
H1268 H 0.68832 0.39179 0.91145 0.0
H1269 H 0.57495 0.29298 0.91481 0.0
H1270 H 0.61143 0.28035 0.92118 0.0
H1271 H 0.59069 0.3029 0.93586 0.0
H1272 H 0.70932 0.26965 0.94105 0.0
H1273 H 0.66593 0.3254 0.97857 0.0
H1274 H 0.68958 0.3052 0.90468 0.0
H1275 H 0.65806 0.28154 0.90588 0.0
H1276 H 0.69439 0.26766 0.91155 0.0
H1277 H 0.63552 0.37498 0.951 0.0
H1278 H 0.62741 0.35743 0.9711 0.0
H1279 H 0.60652 0.34815 0.95148 0.0
C1280 C 0.65442 0.10208 0.15951 0.0
C1281 C 0.66486 0.07449 0.15364 0.0
C1282 C 0.67175 0.12034 0.17062 0.0
C1283 C 0.70015 0.11067 0.17615 0.0
C1284 C 0.71092 0.0829 0.17028 0.0
C1285 C 0.69315 0.06514 0.15905 0.0
C1286 C 0.65951 0.14986 0.17658 0.0
C1287 C 0.74109 0.0719 0.17596 0.0
C1288 C 0.75154 0.17154 0.19312 0.0
C1289 C 0.74709 0.1707 0.21107 0.0
C1290 C 0.73727 0.15136 0.18162 0.0
C1291 C 0.71826 0.12972 0.18825 0.0
C1292 C 0.71476 0.12786 0.2064 0.0
C1293 C 0.72915 0.14843 0.2176 0.0
C1294 C 0.74148 0.15407 0.16233 0.0
C1295 C 0.69485 0.10489 0.21395 0.0
H1296 H 0.63238 0.10923 0.15567 0.0
H1297 H 0.70147 0.04398 0.15442 0.0
H1298 H 0.65778 0.1505 0.19093 0.0
H1299 H 0.67474 0.16791 0.17311 0.0
H1300 H 0.6373 0.15439 0.17074 0.0
H1301 H 0.74626 0.04983 0.17015 0.0
H1302 H 0.75838 0.08779 0.17222 0.0
H1303 H 0.74233 0.0704 0.19032 0.0
H1304 H 0.76542 0.18861 0.18795 0.0
H1305 H 0.72576 0.14746 0.23146 0.0
H1306 H 0.72036 0.16105 0.15601 0.0
H1307 H 0.74754 0.13235 0.15644 0.0
H1308 H 0.75886 0.17044 0.15936 0.0
H1309 H 0.67152 0.10937 0.21005 0.0
H1310 H 0.69654 0.10473 0.22836 0.0
H1311 H 0.70046 0.08253 0.20878 0.0
C1312 C 0.97328 0.13355 0.42441 0.0
C1313 C 0.99502 0.14745 0.41483 0.0
C1314 C 0.95706 0.14945 0.43679 0.0
C1315 C 0.96245 0.18009 0.43949 0.0
C1316 C 0.98404 0.19436 0.42964 0.0
C1317 C 0.00026 0.1778 0.4175 0.0
C1318 C 0.9345 0.13334 0.44721 0.0
C1319 C 0.99007 0.22707 0.43196 0.0
C1320 C 0.9012 0.22269 0.46186 0.0
C1321 C 0.91193 0.22414 0.47911 0.0
C1322 C 0.91792 0.20941 0.44868 0.0
C1323 C 0.94582 0.19691 0.45291 0.0
C1324 C 0.95711 0.19903 0.4702 0.0
C1325 C 0.94012 0.21281 0.48307 0.0
C1326 C 0.90537 0.208 0.43033 0.0
C1327 C 0.98664 0.1857 0.47526 0.0
H1328 H 0.96946 0.11001 0.42249 0.0
H1329 H 0.01691 0.18861 0.40998 0.0
H1330 H 0.94044 0.1353 0.46125 0.0
H1331 H 0.91237 0.14355 0.44536 0.0
H1332 H 0.93291 0.1095 0.44348 0.0
H1333 H 0.00686 0.23501 0.42286 0.0
H1334 H 0.96932 0.23976 0.42988 0.0
H1335 H -0.00196 0.23202 0.44546 0.0
H1336 H 0.87951 0.23157 0.45868 0.0
H1337 H 0.94854 0.21376 0.49637 0.0
H1338 H 0.90077 0.18465 0.42641 0.0
H1339 H 0.92169 0.21662 0.42118 0.0
H1340 H 0.88453 0.22085 0.42892 0.0
H1341 H 0.98583 0.16136 0.47309 0.0
H1342 H 0.99287 0.19042 0.48909 0.0
H1343 H 0.00427 0.19434 0.46698 0.0
C1344 C 0.88012 0.45708 0.64909 0.0
C1345 C 0.90336 0.47256 0.65766 0.0
C1346 C 0.86087 0.43912 0.6583 0.0
C1347 C 0.8651 0.43638 0.67647 0.0
C1348 C 0.88801 0.45254 0.68524 0.0
C1349 C 0.90669 0.47053 0.67576 0.0
C1350 C 0.83652 0.42246 0.64852 0.0
C1351 C 0.89333 0.45023 0.7046 0.0
C1352 C 0.80633 0.40635 0.70585 0.0
C1353 C 0.81647 0.37741 0.70843 0.0
C1354 C 0.82111 0.42544 0.69481 0.0
C1355 C 0.84681 0.41544 0.68631 0.0
C1356 C 0.85645 0.38591 0.68833 0.0
C1357 C 0.84109 0.36723 0.69927 0.0
C1358 C 0.80988 0.45663 0.69277 0.0
C1359 C 0.88384 0.37442 0.67958 0.0
H1360 H 0.87748 0.45832 0.63511 0.0
H1361 H 0.92414 0.48291 0.68255 0.0
H1362 H 0.84094 0.39835 0.64893 0.0
H1363 H 0.81498 0.42645 0.65477 0.0
H1364 H 0.83456 0.42891 0.63471 0.0
H1365 H 0.91153 0.4649 0.70953 0.0
H1366 H 0.8729 0.45607 0.7116 0.0
H1367 H 0.899 0.42708 0.70781 0.0
H1368 H 0.78721 0.41435 0.71276 0.0
H1369 H 0.8491 0.34491 0.70113 0.0
H1370 H 0.808 0.46208 0.67881 0.0
H1371 H 0.82587 0.47244 0.69901 0.0
H1372 H 0.78798 0.46001 0.69874 0.0
H1373 H 0.88238 0.37833 0.66542 0.0
H1374 H 0.88731 0.3504 0.68157 0.0
H1375 H 0.90356 0.38656 0.68484 0.0
C1376 C 0.64891 0.12054 0.36328 0.0
C1377 C 0.6301 0.098 0.35678 0.0
C1378 C 0.66259 0.14008 0.35205 0.0
C1379 C 0.65751 0.13681 0.33388 0.0
C1380 C 0.63855 0.11407 0.32726 0.0
C1381 C 0.62501 0.09502 0.33879 0.0
C1382 C 0.68246 0.16419 0.3596 0.0
C1383 C 0.63282 0.10966 0.30797 0.0
C1384 C 0.67195 0.20063 0.30392 0.0
C1385 C 0.69953 0.19286 0.2972 0.0
C1386 C 0.65829 0.18294 0.31617 0.0
C1387 C 0.67244 0.15674 0.32172 0.0
C1388 C 0.70046 0.14901 0.31517 0.0
C1389 C 0.7137 0.1672 0.30306 0.0
C1390 C 0.62851 0.19204 0.32297 0.0
C1391 C 0.71618 0.12116 0.32069 0.0
H1392 H 0.65265 0.12311 0.37719 0.0
H1393 H 0.61077 0.0774 0.3337 0.0
H1394 H 0.70516 0.16145 0.35465 0.0
H1395 H 0.67433 0.18612 0.35543 0.0
H1396 H 0.68364 0.16413 0.37403 0.0
H1397 H 0.61729 0.09109 0.30494 0.0
H1398 H 0.62344 0.13014 0.30241 0.0
H1399 H 0.65396 0.10508 0.30139 0.0
H1400 H 0.66089 0.22047 0.29953 0.0
H1401 H 0.735 0.16096 0.29794 0.0
H1402 H 0.62943 0.19339 0.33737 0.0
H1403 H 0.61168 0.1751 0.31912 0.0
H1404 H 0.6211 0.21374 0.31798 0.0
H1405 H 0.71916 0.12117 0.33503 0.0
H1406 H 0.73823 0.11871 0.31475 0.0
H1407 H 0.70254 0.10154 0.31689 0.0
C1408 C 0.96206 0.15243 0.61636 0.0
C1409 C 0.97562 0.12651 0.61003 0.0
C1410 C 0.94139 0.16788 0.60615 0.0
C1411 C 0.93326 0.15664 0.58941 0.0
C1412 C 0.9463 0.13022 0.58305 0.0
C1413 C 0.96767 0.1158 0.59328 0.0
C1414 C 0.92849 0.1964 0.61321 0.0
C1415 C 0.93773 0.11721 0.56539 0.0
C1416 C 0.8608 0.18336 0.56921 0.0
C1417 C 0.87089 0.20323 0.55699 0.0
C1418 C 0.88089 0.1677 0.57973 0.0
C1419 C 0.91165 0.17287 0.57834 0.0
C1420 C 0.92186 0.19337 0.56624 0.0
C1421 C 0.90135 0.20794 0.55551 0.0
C1422 C 0.86926 0.14533 0.5921 0.0
C1423 C 0.95441 0.20015 0.56474 0.0
H1424 H 0.96741 0.16068 0.62938 0.0
H1425 H 0.97833 0.09623 0.58801 0.0
H1426 H 0.93289 0.21464 0.60423 0.0
H1427 H 0.90413 0.19435 0.61409 0.0
H1428 H 0.93779 0.20261 0.62628 0.0
H1429 H 0.94842 0.09545 0.56285 0.0
H1430 H 0.91337 0.11433 0.56429 0.0
H1431 H 0.94418 0.13253 0.5551 0.0
H1432 H 0.83723 0.17961 0.57028 0.0
H1433 H 0.90914 0.22357 0.54619 0.0
H1434 H 0.876 0.15153 0.60564 0.0
H1435 H 0.87897 0.12327 0.58918 0.0
H1436 H 0.84475 0.14344 0.59132 0.0
H1437 H 0.96377 0.20757 0.57757 0.0
H1438 H 0.95857 0.21756 0.55516 0.0
H1439 H 0.96653 0.17988 0.56076 0.0
C1440 C 0.91683 0.43052 0.84404 0.0
C1441 C 0.90127 0.45531 0.85023 0.0
C1442 C 0.90336 0.40986 0.83257 0.0
C1443 C 0.87348 0.41388 0.82727 0.0
C1444 C 0.85749 0.43864 0.83359 0.0
C1445 C 0.87161 0.45913 0.845 0.0
C1446 C 0.92113 0.38369 0.82613 0.0
C1447 C 0.82552 0.44351 0.82825 0.0
C1448 C 0.84786 0.37346 0.78586 0.0
C1449 C 0.83435 0.34828 0.79243 0.0
C1450 C 0.8603 0.39526 0.79706 0.0
C1451 C 0.85902 0.39186 0.81525 0.0
C1452 C 0.84508 0.36673 0.82197 0.0
C1453 C 0.833 0.34519 0.81049 0.0
C1454 C 0.8752 0.42171 0.78944 0.0
C1455 C 0.84317 0.36245 0.84131 0.0
H1456 H 0.93958 0.42713 0.8483 0.0
H1457 H 0.85956 0.47837 0.84962 0.0
H1458 H 0.91056 0.3628 0.83002 0.0
H1459 H 0.92154 0.38338 0.81173 0.0
H1460 H 0.9443 0.38408 0.83129 0.0
H1461 H 0.81614 0.46374 0.83446 0.0
H1462 H 0.82351 0.44547 0.81394 0.0
H1463 H 0.812 0.42419 0.83182 0.0
H1464 H 0.84894 0.37605 0.77193 0.0
H1465 H 0.82242 0.32593 0.81569 0.0
H1466 H 0.89897 0.42208 0.79341 0.0
H1467 H 0.86518 0.44245 0.79453 0.0
H1468 H 0.87347 0.42152 0.77502 0.0
H1469 H 0.86575 0.3607 0.84717 0.0
H1470 H 0.83053 0.34227 0.84442 0.0
H1471 H 0.8324 0.38189 0.84753 0.0
C1472 C 0.62846 0.42371 0.10158 0.0
C1473 C 0.61901 0.41015 0.11672 0.0
C1474 C 0.64839 0.40958 0.09045 0.0
C1475 C 0.65853 0.3808 0.09423 0.0
C1476 C 0.64941 0.36704 0.10952 0.0
C1477 C 0.6301 0.38203 0.12069 0.0
C1478 C 0.65807 0.42522 0.07443 0.0
C1479 C 0.65941 0.33615 0.11385 0.0
C1480 C 0.68259 0.33306 0.05594 0.0
C1481 C 0.71348 0.33375 0.05799 0.0
C1482 C 0.66446 0.34796 0.06779 0.0
C1483 C 0.67759 0.3646 0.08176 0.0
C1484 C 0.7088 0.36584 0.08371 0.0
C1485 C 0.72639 0.35005 0.07191 0.0
C1486 C 0.63125 0.34558 0.0655 0.0
C1487 C 0.72358 0.38399 0.09816 0.0
H1488 H 0.61973 0.44514 0.09812 0.0
H1489 H 0.62352 0.37153 0.13249 0.0
H1490 H 0.68256 0.42508 0.07375 0.0
H1491 H 0.64925 0.41339 0.06263 0.0
H1492 H 0.65027 0.44851 0.07417 0.0
H1493 H 0.65061 0.32871 0.12636 0.0
H1494 H 0.65194 0.32039 0.10337 0.0
H1495 H 0.68392 0.33511 0.11459 0.0
H1496 H 0.67252 0.32024 0.04529 0.0
H1497 H 0.75028 0.35075 0.07347 0.0
H1498 H 0.62154 0.36783 0.06359 0.0
H1499 H 0.62159 0.33662 0.07739 0.0
H1500 H 0.62458 0.33108 0.05423 0.0
H1501 H 0.71638 0.40739 0.09741 0.0
H1502 H 0.74811 0.38318 0.09763 0.0
H1503 H 0.71681 0.37587 0.11095 0.0
loop_
_geom_bond_atom_site_label_1
_geom_bond_atom_site_label_2
_geom_bond_distance
_geom_bond_site_symmetry_2
_ccdc_geom_bond_type
C0 C1 1.384 . S
C0 C2 1.384 . S
C0 H28 0.931 . S
C1 C0 1.384 . S
C1 C4 1.382 . S
C2 C0 1.384 . S
C2 C3 1.381 . S
C2 H29 0.930 . S
C3 C2 1.381 . S
C3 C5 1.381 1_565 S
C3 C6 1.487 1_565 S
C4 C1 1.382 . S
C4 C5 1.387 1_565 S
C4 H30 0.930 1_565 S
C5 C3 1.381 1_545 S
C5 C4 1.387 1_545 S
C5 H31 0.931 . S
C6 C3 1.487 1_545 S
C6 C13 1.399 . S
C6 N44 1.343 . S
C7 C8 1.384 . S
C7 C9 1.384 . S
C7 H32 0.931 . S
C8 C7 1.384 . S
C8 C11 1.382 . S
C9 C7 1.384 . S
C9 C10 1.381 . S
C9 H33 0.930 1_565 S
C10 C9 1.381 . S
C10 C12 1.381 . S
C10 C13 1.487 1_565 S
C11 C8 1.382 . S
C11 C12 1.387 . S
C11 H34 0.930 . S
C12 C10 1.381 . S
C12 C11 1.387 . S
C12 H35 0.931 . S
C13 C6 1.399 . S
C13 C10 1.487 1_545 S
C13 N45 1.343 . S
C14 C15 1.384 1_455 S
C14 C16 1.384 . S
C14 H36 0.931 . S
C15 C14 1.384 1_655 S
C15 C18 1.382 . S
C16 C14 1.384 . S
C16 C17 1.381 . S
C16 H37 0.930 . S
C17 C16 1.381 . S
C17 C19 1.381 . S
C17 C20 1.487 . S
C18 C15 1.382 . S
C18 C19 1.387 1_655 S
C18 H38 0.930 . S
C19 C17 1.381 . S
C19 C18 1.387 1_455 S
C19 H39 0.931 . S
C20 C17 1.487 . S
C20 C27 1.399 . S
C20 N45 1.343 . S
C21 C22 1.384 . S
C21 C23 1.384 1_655 S
C21 H40 0.931 . S
C22 C21 1.384 . S
C22 C25 1.382 1_655 S
C23 C21 1.384 1_455 S
C23 C24 1.381 . S
C23 H41 0.930 1_455 S
C24 C23 1.381 . S
C24 C26 1.381 . S
C24 C27 1.487 . S
C25 C22 1.382 1_455 S
C25 C26 1.387 . S
C25 H42 0.930 . S
C26 C24 1.381 . S
C26 C25 1.387 . S
C26 H43 0.931 . S
C27 C20 1.399 . S
C27 C24 1.487 . S
C27 N44 1.343 . S
H28 C0 0.931 . S
H29 C2 0.930 . S
H30 C4 0.930 1_545 S
H31 C5 0.931 . S
H32 C7 0.931 . S
H33 C9 0.930 1_545 S
H34 C11 0.930 . S
H35 C12 0.931 . S
H36 C14 0.931 . S
H37 C16 0.930 . S
H38 C18 0.930 . S
H39 C19 0.931 . S
H40 C21 0.931 . S
H41 C23 0.930 1_655 S
H42 C25 0.930 . S
H43 C26 0.931 . S
N44 C6 1.343 . S
N44 C27 1.343 . S
N45 C13 1.343 . S
N45 C20 1.343 . S
C46 C47 1.384 . S
C46 C48 1.384 . S
C46 H74 0.931 . S
C47 C46 1.384 . S
C47 C50 1.382 . S
C48 C46 1.384 . S
C48 C49 1.381 . S
C48 H75 0.930 . S
C49 C48 1.381 . S
C49 C51 1.381 . S
C49 C52 1.487 . S
C50 C47 1.382 . S
C50 C51 1.387 . S
C50 H76 0.930 . S
C51 C49 1.381 . S
C51 C50 1.387 . S
C51 H77 0.931 1_655 S
C52 C49 1.487 . S
C52 C59 1.399 . S
C52 N90 1.343 1_655 S
C53 C54 1.384 . S
C53 C55 1.384 . S
C53 H78 0.931 . S
C54 C53 1.384 . S
C54 C57 1.382 . S
C55 C53 1.384 . S
C55 C56 1.381 . S
C55 H79 0.930 . S
C56 C55 1.381 . S
C56 C58 1.381 . S
C56 C59 1.487 . S
C57 C54 1.382 . S
C57 C58 1.387 . S
C57 H80 0.930 . S
C58 C56 1.381 . S
C58 C57 1.387 . S
C58 H81 0.931 . S
C59 C52 1.399 . S
C59 C56 1.487 . S
C59 N91 1.343 1_655 S
C60 C61 1.384 . S
C60 C62 1.384 . S
C60 H82 0.931 . S
C61 C60 1.384 . S
C61 C64 1.382 . S
C62 C60 1.384 . S
C62 C63 1.381 . S
C62 H83 0.930 . S
C63 C62 1.381 . S
C63 C65 1.381 . S
C63 C66 1.487 . S
C64 C61 1.382 . S
C64 C65 1.387 . S
C64 H84 0.930 . S
C65 C63 1.381 . S
C65 C64 1.387 . S
C65 H85 0.931 . S
C66 C63 1.487 . S
C66 C73 1.399 . S
C66 N91 1.343 . S
C67 C68 1.384 . S
C67 C69 1.384 . S
C67 H86 0.931 . S
C68 C67 1.384 . S
C68 C71 1.382 . S
C69 C67 1.384 . S
C69 C70 1.381 . S
C69 H87 0.930 . S
C70 C69 1.381 . S
C70 C72 1.381 . S
C70 C73 1.487 . S
C71 C68 1.382 . S
C71 C72 1.387 . S
C71 H88 0.930 . S
C72 C70 1.381 . S
C72 C71 1.387 . S
C72 H89 0.931 . S
C73 C66 1.399 . S
C73 C70 1.487 . S
C73 N90 1.343 . S
H74 C46 0.931 . S
H75 C48 0.930 . S
H76 C50 0.930 . S
H77 C51 0.931 1_455 S
H78 C53 0.931 . S
H79 C55 0.930 . S
H80 C57 0.930 . S
H81 C58 0.931 . S
H82 C60 0.931 . S
H83 C62 0.930 . S
H84 C64 0.930 . S
H85 C65 0.931 . S
H86 C67 0.931 . S
H87 C69 0.930 . S
H88 C71 0.930 . S
H89 C72 0.931 . S
N90 C52 1.343 1_455 S
N90 C73 1.343 . S
N91 C59 1.343 1_455 S
N91 C66 1.343 . S
C92 C93 1.384 . S
C92 C94 1.384 . S
C92 H120 0.931 . S
C93 C92 1.384 . S
C93 C96 1.382 . S
C94 C92 1.384 . S
C94 C95 1.381 . S
C94 H121 0.930 . S
C95 C94 1.381 . S
C95 C97 1.381 . S
C95 C98 1.487 . S
C96 C93 1.382 . S
C96 C97 1.387 . S
C96 H122 0.930 . S
C97 C95 1.381 . S
C97 C96 1.387 . S
C97 H123 0.931 . S
C98 C95 1.487 . S
C98 C105 1.399 . S
C98 N136 1.343 . S
C99 C100 1.384 . S
C99 C101 1.384 . S
C99 H124 0.931 . S
C100 C99 1.384 . S
C100 C103 1.382 . S
C101 C99 1.384 . S
C101 C102 1.381 . S
C101 H125 0.930 . S
C102 C101 1.381 . S
C102 C104 1.381 . S
C102 C105 1.487 . S
C103 C100 1.382 . S
C103 C104 1.387 . S
C103 H126 0.930 . S
C104 C102 1.381 . S
C104 C103 1.387 . S
C104 H127 0.931 . S
C105 C98 1.399 . S
C105 C102 1.487 . S
C105 N137 1.343 . S
C106 C107 1.384 . S
C106 C108 1.384 . S
C106 H128 0.931 . S
C107 C106 1.384 . S
C107 C110 1.382 . S
C108 C106 1.384 . S
C108 C109 1.381 . S
C108 H129 0.930 . S
C109 C108 1.381 . S
C109 C111 1.381 . S
C109 C112 1.487 . S
C110 C107 1.382 . S
C110 C111 1.387 . S
C110 H130 0.930 . S
C111 C109 1.381 . S
C111 C110 1.387 . S
C111 H131 0.931 . S
C112 C109 1.487 . S
C112 C119 1.399 . S
C112 N137 1.343 . S
C113 C114 1.384 . S
C113 C115 1.384 . S
C113 H132 0.931 . S
C114 C113 1.384 . S
C114 C117 1.382 . S
C115 C113 1.384 . S
C115 C116 1.381 . S
C115 H133 0.930 . S
C116 C115 1.381 . S
C116 C118 1.381 . S
C116 C119 1.487 . S
C117 C114 1.382 . S
C117 C118 1.387 . S
C117 H134 0.930 . S
C118 C116 1.381 . S
C118 C117 1.387 . S
C118 H135 0.931 . S
C119 C112 1.399 . S
C119 C116 1.487 . S
C119 N136 1.343 . S
H120 C92 0.931 . S
H121 C94 0.930 . S
H122 C96 0.930 . S
H123 C97 0.931 . S
H124 C99 0.931 . S
H125 C101 0.930 . S
H126 C103 0.930 . S
H127 C104 0.931 . S
H128 C106 0.931 . S
H129 C108 0.930 . S
H130 C110 0.930 . S
H131 C111 0.931 . S
H132 C113 0.931 . S
H133 C115 0.930 . S
H134 C117 0.930 . S
H135 C118 0.931 . S
N136 C98 1.343 . S
N136 C119 1.343 . S
N137 C105 1.343 . S
N137 C112 1.343 . S
C138 C139 1.384 . S
C138 C140 1.384 . S
C138 H166 0.931 . S
C139 C138 1.384 . S
C139 C142 1.382 . S
C140 C138 1.384 . S
C140 C141 1.381 . S
C140 H167 0.930 . S
C141 C140 1.381 . S
C141 C143 1.381 . S
C141 C144 1.487 . S
C142 C139 1.382 . S
C142 C143 1.387 . S
C142 H168 0.930 . S
C143 C141 1.381 . S
C143 C142 1.387 . S
C143 H169 0.931 . S
C144 C141 1.487 . S
C144 C151 1.399 . S
C144 N182 1.343 1_565 S
C145 C146 1.384 . S
C145 C147 1.384 . S
C145 H170 0.931 . S
C146 C145 1.384 . S
C146 C149 1.382 . S
C147 C145 1.384 . S
C147 C148 1.381 . S
C147 H171 0.930 . S
C148 C147 1.381 . S
C148 C150 1.381 . S
C148 C151 1.487 . S
C149 C146 1.382 . S
C149 C150 1.387 . S
C149 H172 0.930 . S
C150 C148 1.381 . S
C150 C149 1.387 . S
C150 H173 0.931 . S
C151 C144 1.399 . S
C151 C148 1.487 . S
C151 N183 1.343 . S
C152 C153 1.384 . S
C152 C154 1.384 . S
C152 H174 0.931 . S
C153 C152 1.384 . S
C153 C156 1.382 . S
C154 C152 1.384 . S
C154 C155 1.381 . S
C154 H175 0.930 . S
C155 C154 1.381 . S
C155 C157 1.381 . S
C155 C158 1.487 . S
C156 C153 1.382 . S
C156 C157 1.387 . S
C156 H176 0.930 . S
C157 C155 1.381 . S
C157 C156 1.387 . S
C157 H177 0.931 . S
C158 C155 1.487 . S
C158 C165 1.399 . S
C158 N183 1.343 1_545 S
C159 C160 1.384 . S
C159 C161 1.384 . S
C159 H178 0.931 . S
C160 C159 1.384 . S
C160 C163 1.382 . S
C161 C159 1.384 . S
C161 C162 1.381 . S
C161 H179 0.930 . S
C162 C161 1.381 . S
C162 C164 1.381 . S
C162 C165 1.487 . S
C163 C160 1.382 . S
C163 C164 1.387 . S
C163 H180 0.930 . S
C164 C162 1.381 . S
C164 C163 1.387 . S
C164 H181 0.931 . S
C165 C158 1.399 . S
C165 C162 1.487 . S
C165 N182 1.343 . S
H166 C138 0.931 . S
H167 C140 0.930 . S
H168 C142 0.930 . S
H169 C143 0.931 . S
H170 C145 0.931 . S
H171 C147 0.930 . S
H172 C149 0.930 . S
H173 C150 0.931 . S
H174 C152 0.931 . S
H175 C154 0.930 . S
H176 C156 0.930 . S
H177 C157 0.931 . S
H178 C159 0.931 . S
H179 C161 0.930 . S
H180 C163 0.930 . S
H181 C164 0.931 . S
N182 C144 1.343 1_545 S
N182 C165 1.343 . S
N183 C151 1.343 . S
N183 C158 1.343 1_565 S
C184 C185 1.384 . S
C184 C186 1.384 . S
C184 H212 0.931 . S
C185 C184 1.384 . S
C185 C188 1.382 . S
C186 C184 1.384 . S
C186 C187 1.381 . S
C186 H213 0.930 . S
C187 C186 1.381 . S
C187 C189 1.381 . S
C187 C190 1.487 . S
C188 C185 1.382 . S
C188 C189 1.387 . S
C188 H214 0.930 . S
C189 C187 1.381 . S
C189 C188 1.387 . S
C189 H215 0.931 . S
C190 C187 1.487 . S
C190 C197 1.399 . S
C190 N228 1.343 . S
C191 C192 1.384 . S
C191 C193 1.384 . S
C191 H216 0.931 . S
C192 C191 1.384 . S
C192 C195 1.382 . S
C193 C191 1.384 . S
C193 C194 1.381 . S
C193 H217 0.930 . S
C194 C193 1.381 . S
C194 C196 1.381 . S
C194 C197 1.487 . S
C195 C192 1.382 . S
C195 C196 1.387 . S
C195 H218 0.930 . S
C196 C194 1.381 . S
C196 C195 1.387 . S
C196 H219 0.931 . S
C197 C190 1.399 . S
C197 C194 1.487 . S
C197 N229 1.353 . S
C198 C199 1.384 . S
C198 C200 1.384 . S
C198 H220 0.931 . S
C199 C198 1.384 . S
C199 C202 1.382 . S
C200 C198 1.384 . S
C200 C201 1.381 . S
C200 H221 0.930 . S
C201 C200 1.381 . S
C201 C203 1.381 . S
C201 C204 1.487 . S
C202 C199 1.382 . S
C202 C203 1.387 . S
C202 H222 0.930 . S
C203 C201 1.381 . S
C203 C202 1.387 . S
C203 H223 0.931 . S
C204 C201 1.487 . S
C204 C211 1.399 . S
C204 N229 1.334 1_655 S
C205 C206 1.384 . S
C205 C207 1.384 . S
C205 H224 0.931 . S
C206 C205 1.384 . S
C206 C209 1.382 . S
C207 C205 1.384 . S
C207 C208 1.381 . S
C207 H225 0.930 . S
C208 C207 1.381 . S
C208 C210 1.381 . S
C208 C211 1.487 . S
C209 C206 1.382 . S
C209 C210 1.387 . S
C209 H226 0.930 . S
C210 C208 1.381 . S
C210 C209 1.387 . S
C210 H227 0.931 . S
C211 C204 1.399 . S
C211 C208 1.487 . S
C211 N228 1.343 1_655 S
H212 C184 0.931 . S
H213 C186 0.930 . S
H214 C188 0.930 . S
H215 C189 0.931 . S
H216 C191 0.931 . S
H217 C193 0.930 . S
H218 C195 0.930 . S
H219 C196 0.931 . S
H220 C198 0.931 . S
H221 C200 0.930 . S
H222 C202 0.930 . S
H223 C203 0.931 . S
H224 C205 0.931 . S
H225 C207 0.930 . S
H226 C209 0.930 . S
H227 C210 0.931 . S
N228 C190 1.343 . S
N228 C211 1.343 1_455 S
N229 C197 1.353 . S
N229 C204 1.334 1_455 S
C230 C231 1.384 . S
C230 C232 1.384 . S
C230 H258 0.931 . S
C231 C230 1.384 . S
C231 C234 1.382 . S
C232 C230 1.384 . S
C232 C233 1.381 . S
C232 H259 0.930 . S
C233 C232 1.381 . S
C233 C235 1.381 . S
C233 C236 1.487 . S
C234 C231 1.382 . S
C234 C235 1.387 . S
C234 H260 0.930 . S
C235 C233 1.381 . S
C235 C234 1.387 . S
C235 H261 0.931 . S
C236 C233 1.487 . S
C236 C243 1.399 . S
C236 N274 1.343 . S
C237 C238 1.384 . S
C237 C239 1.384 . S
C237 H262 0.931 . S
C238 C237 1.384 . S
C238 C241 1.382 . S
C239 C237 1.384 . S
C239 C240 1.381 . S
C239 H263 0.930 . S
C240 C239 1.381 . S
C240 C242 1.381 . S
C240 C243 1.487 . S
C241 C238 1.382 . S
C241 C242 1.387 . S
C241 H264 0.930 . S
C242 C240 1.381 . S
C242 C241 1.387 . S
C242 H265 0.931 . S
C243 C236 1.399 . S
C243 C240 1.487 . S
C243 N275 1.343 . S
C244 C245 1.384 . S
C244 C246 1.384 . S
C244 H266 0.931 . S
C245 C244 1.384 . S
C245 C248 1.382 . S
C246 C244 1.384 . S
C246 C247 1.381 . S
C246 H267 0.930 . S
C247 C246 1.381 . S
C247 C249 1.381 . S
C247 C250 1.487 . S
C248 C245 1.382 . S
C248 C249 1.387 . S
C248 H268 0.930 . S
C249 C247 1.381 . S
C249 C248 1.387 . S
C249 H269 0.931 . S
C250 C247 1.487 . S
C250 C257 1.399 . S
C250 N275 1.343 . S
C251 C252 1.384 . S
C251 C253 1.384 . S
C251 H270 0.931 . S
C252 C251 1.384 . S
C252 C255 1.382 . S
C253 C251 1.384 . S
C253 C254 1.381 . S
C253 H271 0.930 . S
C254 C253 1.381 . S
C254 C256 1.381 . S
C254 C257 1.487 . S
C255 C252 1.382 . S
C255 C256 1.387 . S
C255 H272 0.930 . S
C256 C254 1.381 . S
C256 C255 1.387 . S
C256 H273 0.931 . S
C257 C250 1.399 . S
C257 C254 1.487 . S
C257 N274 1.343 . S
H258 C230 0.931 . S
H259 C232 0.930 . S
H260 C234 0.930 . S
H261 C235 0.931 . S
H262 C237 0.931 . S
H263 C239 0.930 . S
H264 C241 0.930 . S
H265 C242 0.931 . S
H266 C244 0.931 . S
H267 C246 0.930 . S
H268 C248 0.930 . S
H269 C249 0.931 . S
H270 C251 0.931 . S
H271 C253 0.930 . S
H272 C255 0.930 . S
H273 C256 0.931 . S
N274 C236 1.343 . S
N274 C257 1.343 . S
N275 C243 1.343 . S
N275 C250 1.343 . S
C276 C277 1.384 . S
C276 C278 1.384 . S
C276 H304 0.931 . S
C277 C276 1.384 . S
C277 C280 1.382 . S
C278 C276 1.384 . S
C278 C279 1.381 . S
C278 H305 0.930 . S
C279 C278 1.381 . S
C279 C281 1.381 . S
C279 C282 1.487 . S
C280 C277 1.382 . S
C280 C281 1.387 . S
C280 H306 0.930 . S
C281 C279 1.381 . S
C281 C280 1.387 . S
C281 H307 0.931 1_565 S
C282 C279 1.487 . S
C282 C289 1.399 . S
C282 N320 1.343 1_565 S
C283 C284 1.384 . S
C283 C285 1.384 . S
C283 H308 0.931 . S
C284 C283 1.384 . S
C284 C287 1.382 . S
C285 C283 1.384 . S
C285 C286 1.381 . S
C285 H309 0.930 . S
C286 C285 1.381 . S
C286 C288 1.381 . S
C286 C289 1.487 . S
C287 C284 1.382 . S
C287 C288 1.387 . S
C287 H310 0.930 . S
C288 C286 1.381 . S
C288 C287 1.387 . S
C288 H311 0.931 . S
C289 C282 1.399 . S
C289 C286 1.487 . S
C289 N321 1.343 1_565 S
C290 C291 1.384 . S
C290 C292 1.384 . S
C290 H312 0.931 . S
C291 C290 1.384 . S
C291 C294 1.382 . S
C292 C290 1.384 . S
C292 C293 1.381 . S
C292 H313 0.930 . S
C293 C292 1.381 . S
C293 C295 1.381 . S
C293 C296 1.487 . S
C294 C291 1.382 . S
C294 C295 1.387 . S
C294 H314 0.930 . S
C295 C293 1.381 . S
C295 C294 1.387 . S
C295 H315 0.931 . S
C296 C293 1.487 . S
C296 C303 1.399 . S
C296 N321 1.343 . S
C297 C298 1.384 . S
C297 C299 1.384 . S
C297 H316 0.931 . S
C298 C297 1.384 . S
C298 C301 1.382 . S
C299 C297 1.384 . S
C299 C300 1.381 . S
C299 H317 0.930 . S
C300 C299 1.381 . S
C300 C302 1.381 . S
C300 C303 1.487 . S
C301 C298 1.382 . S
C301 C302 1.387 . S
C301 H318 0.930 . S
C302 C300 1.381 . S
C302 C301 1.387 . S
C302 H319 0.931 . S
C303 C296 1.399 . S
C303 C300 1.487 . S
C303 N320 1.343 . S
H304 C276 0.931 . S
H305 C278 0.930 . S
H306 C280 0.930 . S
H307 C281 0.931 1_545 S
H308 C283 0.931 . S
H309 C285 0.930 . S
H310 C287 0.930 . S
H311 C288 0.931 . S
H312 C290 0.931 . S
H313 C292 0.930 . S
H314 C294 0.930 . S
H315 C295 0.931 . S
H316 C297 0.931 . S
H317 C299 0.930 . S
H318 C301 0.930 . S
H319 C302 0.931 . S
N320 C282 1.343 1_545 S
N320 C303 1.343 . S
N321 C289 1.343 1_545 S
N321 C296 1.343 . S
C322 C323 1.384 . S
C322 C324 1.384 1_565 S
C322 H350 0.931 . S
C323 C322 1.384 . S
C323 C326 1.382 . S
C324 C322 1.384 1_545 S
C324 C325 1.381 . S
C324 H351 0.930 . S
C325 C324 1.381 . S
C325 C327 1.381 1_545 S
C325 C328 1.487 . S
C326 C323 1.382 . S
C326 C327 1.387 . S
C326 H352 0.930 . S
C327 C325 1.381 1_565 S
C327 C326 1.387 . S
C327 H353 0.931 1_565 S
C328 C325 1.487 . S
C328 C335 1.399 . S
C328 N366 1.343 . S
C329 C330 1.384 . S
C329 C331 1.384 . S
C329 H354 0.931 . S
C330 C329 1.384 . S
C330 C333 1.382 1_565 S
C331 C329 1.384 . S
C331 C332 1.381 1_565 S
C331 H355 0.930 . S
C332 C331 1.381 1_545 S
C332 C334 1.381 . S
C332 C335 1.487 . S
C333 C330 1.382 1_545 S
C333 C334 1.387 . S
C333 H356 0.930 . S
C334 C332 1.381 . S
C334 C333 1.387 . S
C334 H357 0.931 . S
C335 C328 1.399 . S
C335 C332 1.487 . S
C335 N367 1.343 . S
C336 C337 1.384 . S
C336 C338 1.384 . S
C336 H358 0.931 . S
C337 C336 1.384 . S
C337 C340 1.382 1_655 S
C338 C336 1.384 . S
C338 C339 1.381 1_655 S
C338 H359 0.930 . S
C339 C338 1.381 1_455 S
C339 C341 1.381 . S
C339 C342 1.487 . S
C340 C337 1.382 1_455 S
C340 C341 1.387 . S
C340 H360 0.930 . S
C341 C339 1.381 . S
C341 C340 1.387 . S
C341 H361 0.931 . S
C342 C339 1.487 . S
C342 C349 1.399 . S
C342 N367 1.343 . S
C343 C344 1.366 1_455 S
C343 C345 1.384 . S
C343 H362 0.931 . S
C344 C343 1.366 1_655 S
C344 C347 1.385 . S
C345 C343 1.384 . S
C345 C346 1.381 . S
C345 H363 0.930 . S
C346 C345 1.381 . S
C346 C348 1.381 . S
C346 C349 1.487 . S
C347 C344 1.385 . S
C347 C348 1.387 1_655 S
C347 H364 0.930 . S
C348 C346 1.381 . S
C348 C347 1.387 1_455 S
C348 H365 0.931 . S
C349 C342 1.399 . S
C349 C346 1.487 . S
C349 N366 1.343 . S
H350 C322 0.931 . S
H351 C324 0.930 . S
H352 C326 0.930 . S
H353 C327 0.931 1_545 S
H354 C329 0.931 . S
H355 C331 0.930 . S
H356 C333 0.930 . S
H357 C334 0.931 . S
H358 C336 0.931 . S
H359 C338 0.930 . S
H360 C340 0.930 . S
H361 C341 0.931 . S
H362 C343 0.931 . S
H363 C345 0.930 . S
H364 C347 0.930 . S
H365 C348 0.931 . S
N366 C328 1.343 . S
N366 C349 1.343 . S
N367 C335 1.343 . S
N367 C342 1.343 . S
Zn368 O371 2.031 . S
Zn368 O373 2.033 1_556 S
Zn368 O378 2.067 . S
Zn369 O370 1.962 . S
Zn369 O372 1.986 . S
Zn369 O374 1.996 . S
Zn369 O377 1.943 . S
O370 Zn369 1.962 . S
O370 C375 1.254 . S
O371 Zn368 2.031 . S
O371 C375 1.269 1_556 S
O372 Zn369 1.986 . S
O372 C379 1.262 . S
O373 Zn368 2.033 1_554 S
O373 C381 1.305 . S
O374 Zn369 1.996 . S
O374 C381 1.257 . S
C375 O370 1.254 . S
C375 O371 1.269 1_554 S
C376 O377 1.249 1_556 S
C376 O378 1.270 . S
O377 Zn369 1.943 . S
O377 C376 1.249 1_554 S
O378 Zn368 2.067 . S
O378 C376 1.270 . S
C379 O372 1.262 . S
C379 O380 1.232 . S
O380 C379 1.232 . S
C381 O373 1.305 . S
C381 O374 1.257 . S
Zn382 O385 2.031 . S
Zn382 O387 2.049 . S
Zn382 O392 2.067 . S
Zn383 O384 1.962 . S
Zn383 O386 1.986 . S
Zn383 O388 1.996 . S
Zn383 O391 1.943 . S
O384 Zn383 1.962 . S
O384 C389 1.254 . S
O385 Zn382 2.031 . S
O385 C389 1.269 . S
O386 Zn383 1.986 . S
O386 C393 1.262 . S
O387 Zn382 2.049 . S
O387 C395 1.260 . S
O388 Zn383 1.996 . S
O388 C395 1.257 . S
C389 O384 1.254 . S
C389 O385 1.269 . S
C390 O391 1.249 . S
C390 O392 1.270 . S
O391 Zn383 1.943 . S
O391 C390 1.249 . S
O392 Zn382 2.067 . S
O392 C390 1.270 . S
C393 O386 1.262 . S
C393 O394 1.232 . S
O394 C393 1.232 . S
C395 O387 1.260 . S
C395 O388 1.257 . S
Zn396 O399 2.031 . S
Zn396 O401 2.049 . S
Zn396 O406 2.067 . S
Zn397 O398 1.962 . S
Zn397 O400 1.986 . S
Zn397 O402 1.996 . S
Zn397 O405 1.943 . S
O398 Zn397 1.962 . S
O398 C403 1.254 . S
O399 Zn396 2.031 . S
O399 C403 1.269 . S
O400 Zn397 1.986 . S
O400 C407 1.262 . S
O401 Zn396 2.049 . S
O401 C409 1.260 . S
O402 Zn397 1.996 . S
O402 C409 1.257 . S
C403 O398 1.254 . S
C403 O399 1.269 . S
C404 O405 1.249 . S
C404 O406 1.270 . S
O405 Zn397 1.943 . S
O405 C404 1.249 . S
O406 Zn396 2.067 . S
O406 C404 1.270 . S
C407 O400 1.262 . S
C407 O408 1.232 . S
O408 C407 1.232 . S
C409 O401 1.260 . S
C409 O402 1.257 . S
Zn410 O413 2.031 . S
Zn410 O415 2.049 . S
Zn410 O420 2.067 . S
Zn411 O412 1.962 . S
Zn411 O414 1.986 . S
Zn411 O416 1.996 . S
Zn411 O419 1.943 . S
O412 Zn411 1.962 . S
O412 C417 1.254 . S
O413 Zn410 2.031 . S
O413 C417 1.269 . S
O414 Zn411 1.986 . S
O414 C421 1.262 . S
O415 Zn410 2.049 . S
O415 C423 1.260 . S
O416 Zn411 1.996 . S
O416 C423 1.257 . S
C417 O412 1.254 . S
C417 O413 1.269 . S
C418 O419 1.249 . S
C418 O420 1.270 . S
O419 Zn411 1.943 . S
O419 C418 1.249 . S
O420 Zn410 2.067 . S
O420 C418 1.270 . S
C421 O414 1.262 . S
C421 O422 1.232 . S
O422 C421 1.232 . S
C423 O415 1.260 . S
C423 O416 1.257 . S
Zn424 O427 2.031 . S
Zn424 O429 2.049 . S
Zn424 O434 2.067 . S
Zn425 O426 1.962 . S
Zn425 O428 1.986 . S
Zn425 O430 1.996 . S
Zn425 O433 1.943 . S
O426 Zn425 1.962 . S
O426 C431 1.254 . S
O427 Zn424 2.031 . S
O427 C431 1.269 . S
O428 Zn425 1.986 . S
O428 C435 1.262 . S
O429 Zn424 2.049 . S
O429 C437 1.260 . S
O430 Zn425 1.996 . S
O430 C437 1.257 . S
C431 O426 1.254 . S
C431 O427 1.269 . S
C432 O433 1.249 . S
C432 O434 1.270 . S
O433 Zn425 1.943 . S
O433 C432 1.249 . S
O434 Zn424 2.067 . S
O434 C432 1.270 . S
C435 O428 1.262 . S
C435 O436 1.232 . S
O436 C435 1.232 . S
C437 O429 1.260 . S
C437 O430 1.257 . S
Zn438 O441 2.031 . S
Zn438 O443 2.049 . S
Zn438 O448 2.067 . S
Zn439 O440 1.962 . S
Zn439 O442 1.986 . S
Zn439 O444 1.996 . S
Zn439 O447 1.943 . S
O440 Zn439 1.962 . S
O440 C445 1.254 . S
O441 Zn438 2.031 . S
O441 C445 1.269 . S
O442 Zn439 1.986 . S
O442 C449 1.262 . S
O443 Zn438 2.049 . S
O443 C451 1.260 . S
O444 Zn439 1.996 . S
O444 C451 1.257 . S
C445 O440 1.254 . S
C445 O441 1.269 . S
C446 O447 1.249 . S
C446 O448 1.270 . S
O447 Zn439 1.943 . S
O447 C446 1.249 . S
O448 Zn438 2.067 . S
O448 C446 1.270 . S
C449 O442 1.262 . S
C449 O450 1.232 . S
O450 C449 1.232 . S
C451 O443 1.260 . S
C451 O444 1.257 . S
Zn452 O455 2.031 . S
Zn452 O457 2.049 . S
Zn452 O462 2.067 . S
Zn453 O454 1.962 . S
Zn453 O456 1.986 . S
Zn453 O458 1.996 . S
Zn453 O461 1.943 1_556 S
O454 Zn453 1.962 . S
O454 C459 1.254 1_556 S
O455 Zn452 2.031 . S
O455 C459 1.269 . S
O456 Zn453 1.986 . S
O456 C463 1.262 . S
O457 Zn452 2.049 . S
O457 C465 1.282 . S
O458 Zn453 1.996 . S
O458 C465 1.250 1_556 S
C459 O454 1.254 1_554 S
C459 O455 1.269 . S
C460 O461 1.249 . S
C460 O462 1.270 . S
O461 Zn453 1.943 1_554 S
O461 C460 1.249 . S
O462 Zn452 2.067 . S
O462 C460 1.270 . S
C463 O456 1.262 . S
C463 O464 1.232 . S
O464 C463 1.232 . S
C465 O457 1.282 . S
C465 O458 1.250 1_554 S
Zn466 O469 2.031 . S
Zn466 O471 2.049 . S
Zn466 O476 2.067 . S
Zn467 O468 1.962 . S
Zn467 O470 1.986 . S
Zn467 O472 1.996 . S
Zn467 O475 1.943 . S
O468 Zn467 1.962 . S
O468 C473 1.254 . S
O469 Zn466 2.031 . S
O469 C473 1.269 . S
O470 Zn467 1.986 . S
O470 C477 1.262 . S
O471 Zn466 2.049 . S
O471 C479 1.260 . S
O472 Zn467 1.996 . S
O472 C479 1.257 . S
C473 O468 1.254 . S
C473 O469 1.269 . S
C474 O475 1.249 . S
C474 O476 1.270 . S
O475 Zn467 1.943 . S
O475 C474 1.249 . S
O476 Zn466 2.067 . S
O476 C474 1.270 . S
C477 O470 1.262 . S
C477 O478 1.232 . S
O478 C477 1.232 . S
C479 O471 1.260 . S
C479 O472 1.257 . S
C480 C481 1.391 . S
C480 C482 1.394 . S
C480 H496 0.931 . S
C481 C480 1.391 . S
C481 C485 1.376 . S
C482 C480 1.394 . S
C482 C483 1.369 . S
C482 C486 1.531 . S
C483 C482 1.369 . S
C483 C484 1.410 . S
C483 C491 1.503 . S
C484 C483 1.410 . S
C484 C485 1.392 . S
C484 C487 1.511 . S
C485 C481 1.376 . S
C485 C484 1.392 . S
C485 H497 0.929 . S
C486 C482 1.531 . S
C486 H498 0.960 . S
C486 H499 0.962 . S
C486 H500 0.960 . S
C487 C484 1.511 . S
C487 H501 0.961 . S
C487 H502 0.961 . S
C487 H503 0.961 . S
C488 C489 1.370 . S
C488 C490 1.363 . S
C488 H504 0.931 . S
C489 C488 1.370 . S
C489 C493 1.408 . S
C490 C488 1.363 . S
C490 C491 1.370 . S
C490 C494 1.524 . S
C491 C483 1.503 . S
C491 C490 1.370 . S
C491 C492 1.403 . S
C492 C491 1.403 . S
C492 C493 1.404 . S
C492 C495 1.539 . S
C493 C489 1.408 . S
C493 C492 1.404 . S
C493 H505 0.930 . S
C494 C490 1.524 . S
C494 H506 0.956 . S
C494 H507 0.961 . S
C494 H508 0.961 . S
C495 C492 1.539 . S
C495 H509 0.958 . S
C495 H510 0.961 . S
C495 H511 0.960 . S
H496 C480 0.931 . S
H497 C485 0.929 . S
H498 C486 0.960 . S
H499 C486 0.962 . S
H500 C486 0.960 . S
H501 C487 0.961 . S
H502 C487 0.961 . S
H503 C487 0.961 . S
H504 C488 0.931 . S
H505 C493 0.930 . S
H506 C494 0.956 . S
H507 C494 0.961 . S
H508 C494 0.961 . S
H509 C495 0.958 . S
H510 C495 0.961 . S
H511 C495 0.960 . S
C512 C513 1.391 . S
C512 C514 1.394 . S
C512 H528 0.931 . S
C513 C512 1.391 . S
C513 C517 1.376 . S
C514 C512 1.394 . S
C514 C515 1.369 . S
C514 C518 1.531 . S
C515 C514 1.369 . S
C515 C516 1.410 . S
C515 C523 1.503 . S
C516 C515 1.410 . S
C516 C517 1.392 . S
C516 C519 1.511 . S
C517 C513 1.376 . S
C517 C516 1.392 . S
C517 H529 0.929 . S
C518 C514 1.531 . S
C518 H530 0.960 . S
C518 H531 0.962 . S
C518 H532 0.960 . S
C519 C516 1.511 . S
C519 H533 0.961 . S
C519 H534 0.961 . S
C519 H535 0.961 . S
C520 C521 1.370 . S
C520 C522 1.363 . S
C520 H536 0.931 . S
C521 C520 1.370 . S
C521 C525 1.408 . S
C522 C520 1.363 . S
C522 C523 1.370 . S
C522 C526 1.524 . S
C523 C515 1.503 . S
C523 C522 1.370 . S
C523 C524 1.403 . S
C524 C523 1.403 . S
C524 C525 1.404 . S
C524 C527 1.539 . S
C525 C521 1.408 . S
C525 C524 1.404 . S
C525 H537 0.930 . S
C526 C522 1.524 . S
C526 H538 0.956 . S
C526 H539 0.961 . S
C526 H540 0.961 . S
C527 C524 1.539 . S
C527 H541 0.958 . S
C527 H542 0.961 . S
C527 H543 0.960 . S
H528 C512 0.931 . S
H529 C517 0.929 . S
H530 C518 0.960 . S
H531 C518 0.962 . S
H532 C518 0.960 . S
H533 C519 0.961 . S
H534 C519 0.961 . S
H535 C519 0.961 . S
H536 C520 0.931 . S
H537 C525 0.930 . S
H538 C526 0.956 . S
H539 C526 0.961 . S
H540 C526 0.961 . S
H541 C527 0.958 . S
H542 C527 0.961 . S
H543 C527 0.960 . S
C544 C545 1.391 . S
C544 C546 1.394 . S
C544 H560 0.931 . S
C545 C544 1.391 . S
C545 C549 1.376 . S
C546 C544 1.394 . S
C546 C547 1.369 . S
C546 C550 1.531 . S
C547 C546 1.369 . S
C547 C548 1.410 . S
C547 C555 1.503 . S
C548 C547 1.410 . S
C548 C549 1.392 . S
C548 C551 1.511 . S
C549 C545 1.376 . S
C549 C548 1.392 . S
C549 H561 0.929 . S
C550 C546 1.531 . S
C550 H562 0.960 . S
C550 H563 0.962 . S
C550 H564 0.960 . S
C551 C548 1.511 . S
C551 H565 0.961 . S
C551 H566 0.961 . S
C551 H567 0.961 . S
C552 C553 1.370 . S
C552 C554 1.363 . S
C552 H568 0.931 . S
C553 C552 1.370 . S
C553 C557 1.408 . S
C554 C552 1.363 . S
C554 C555 1.370 . S
C554 C558 1.524 . S
C555 C547 1.503 . S
C555 C554 1.370 . S
C555 C556 1.403 . S
C556 C555 1.403 . S
C556 C557 1.404 . S
C556 C559 1.539 . S
C557 C553 1.408 . S
C557 C556 1.404 . S
C557 H569 0.930 . S
C558 C554 1.524 . S
C558 H570 0.956 . S
C558 H571 0.961 . S
C558 H572 0.961 . S
C559 C556 1.539 . S
C559 H573 0.958 . S
C559 H574 0.961 . S
C559 H575 0.960 . S
H560 C544 0.931 . S
H561 C549 0.929 . S
H562 C550 0.960 . S
H563 C550 0.962 . S
H564 C550 0.960 . S
H565 C551 0.961 . S
H566 C551 0.961 . S
H567 C551 0.961 . S
H568 C552 0.931 . S
H569 C557 0.930 . S
H570 C558 0.956 . S
H571 C558 0.961 . S
H572 C558 0.961 . S
H573 C559 0.958 . S
H574 C559 0.961 . S
H575 C559 0.960 . S
C576 C577 1.391 . S
C576 C578 1.394 . S
C576 H592 0.931 . S
C577 C576 1.391 . S
C577 C581 1.376 . S
C578 C576 1.394 . S
C578 C579 1.369 . S
C578 C582 1.531 . S
C579 C578 1.369 . S
C579 C580 1.410 . S
C579 C587 1.503 . S
C580 C579 1.410 . S
C580 C581 1.392 . S
C580 C583 1.511 . S
C581 C577 1.376 . S
C581 C580 1.392 . S
C581 H593 0.929 . S
C582 C578 1.531 . S
C582 H594 0.960 . S
C582 H595 0.962 . S
C582 H596 0.960 . S
C583 C580 1.511 . S
C583 H597 0.961 . S
C583 H598 0.961 . S
C583 H599 0.961 . S
C584 C585 1.370 . S
C584 C586 1.363 . S
C584 H600 0.931 . S
C585 C584 1.370 . S
C585 C589 1.408 . S
C586 C584 1.363 . S
C586 C587 1.370 . S
C586 C590 1.524 . S
C587 C579 1.503 . S
C587 C586 1.370 . S
C587 C588 1.403 . S
C588 C587 1.403 . S
C588 C589 1.404 . S
C588 C591 1.539 1_554 S
C589 C585 1.408 . S
C589 C588 1.404 . S
C589 H601 0.930 1_554 S
C590 C586 1.524 . S
C590 H602 0.956 . S
C590 H603 0.961 . S
C590 H604 0.961 . S
C591 C588 1.539 1_556 S
C591 H605 0.958 . S
C591 H606 0.961 . S
C591 H607 0.960 . S
H592 C576 0.931 . S
H593 C581 0.929 . S
H594 C582 0.960 . S
H595 C582 0.962 . S
H596 C582 0.960 . S
H597 C583 0.961 . S
H598 C583 0.961 . S
H599 C583 0.961 . S
H600 C584 0.931 . S
H601 C589 0.930 1_556 S
H602 C590 0.956 . S
H603 C590 0.961 . S
H604 C590 0.961 . S
H605 C591 0.958 . S
H606 C591 0.961 . S
H607 C591 0.960 . S
C608 C609 1.391 . S
C608 C610 1.394 . S
C608 H624 0.931 . S
C609 C608 1.391 . S
C609 C613 1.376 . S
C610 C608 1.394 . S
C610 C611 1.369 . S
C610 C614 1.531 1_556 S
C611 C610 1.369 . S
C611 C612 1.410 . S
C611 C619 1.503 . S
C612 C611 1.410 . S
C612 C613 1.392 . S
C612 C615 1.511 . S
C613 C609 1.376 . S
C613 C612 1.392 . S
C613 H625 0.929 . S
C614 C610 1.531 1_554 S
C614 H626 0.950 1_554 S
C614 H627 0.962 . S
C614 H628 0.960 . S
C615 C612 1.511 . S
C615 H629 0.961 . S
C615 H630 0.961 . S
C615 H631 0.961 . S
C616 C617 1.370 . S
C616 C618 1.363 . S
C616 H632 0.931 . S
C617 C616 1.370 . S
C617 C621 1.408 1_554 S
C618 C616 1.363 . S
C618 C619 1.370 1_554 S
C618 C622 1.524 . S
C619 C611 1.503 . S
C619 C618 1.370 1_556 S
C619 C620 1.403 . S
C620 C619 1.403 . S
C620 C621 1.404 . S
C620 C623 1.539 . S
C621 C617 1.408 1_556 S
C621 C620 1.404 . S
C621 H633 0.930 . S
C622 C618 1.524 . S
C622 H634 0.956 . S
C622 H635 0.961 . S
C622 H636 0.961 . S
C623 C620 1.539 . S
C623 H637 0.958 . S
C623 H638 0.961 . S
C623 H639 0.960 . S
H624 C608 0.931 . S
H625 C613 0.929 . S
H626 C614 0.950 1_556 S
H627 C614 0.962 . S
H628 C614 0.960 . S
H629 C615 0.961 . S
H630 C615 0.961 . S
H631 C615 0.961 . S
H632 C616 0.931 . S
H633 C621 0.930 . S
H634 C622 0.956 . S
H635 C622 0.961 . S
H636 C622 0.961 . S
H637 C623 0.958 . S
H638 C623 0.961 . S
H639 C623 0.960 . S
C640 C641 1.391 . S
C640 C642 1.394 . S
C640 H656 0.931 . S
C641 C640 1.391 . S
C641 C645 1.376 . S
C642 C640 1.394 . S
C642 C643 1.369 . S
C642 C646 1.531 . S
C643 C642 1.369 . S
C643 C644 1.410 . S
C643 C651 1.503 . S
C644 C643 1.410 . S
C644 C645 1.392 . S
C644 C647 1.511 . S
C645 C641 1.376 . S
C645 C644 1.392 . S
C645 H657 0.929 . S
C646 C642 1.531 . S
C646 H658 0.960 . S
C646 H659 0.962 . S
C646 H660 0.960 . S
C647 C644 1.511 . S
C647 H661 0.961 . S
C647 H662 0.961 . S
C647 H663 0.961 . S
C648 C649 1.370 . S
C648 C650 1.363 . S
C648 H664 0.931 . S
C649 C648 1.370 . S
C649 C653 1.408 . S
C650 C648 1.363 . S
C650 C651 1.370 . S
C650 C654 1.524 . S
C651 C643 1.503 . S
C651 C650 1.370 . S
C651 C652 1.403 . S
C652 C651 1.403 . S
C652 C653 1.404 . S
C652 C655 1.539 . S
C653 C649 1.408 . S
C653 C652 1.404 . S
C653 H665 0.930 . S
C654 C650 1.524 . S
C654 H666 0.956 . S
C654 H667 0.961 . S
C654 H668 0.961 . S
C655 C652 1.539 . S
C655 H669 0.958 . S
C655 H670 0.961 . S
C655 H671 0.960 . S
H656 C640 0.931 . S
H657 C645 0.929 . S
H658 C646 0.960 . S
H659 C646 0.962 . S
H660 C646 0.960 . S
H661 C647 0.961 . S
H662 C647 0.961 . S
H663 C647 0.961 . S
H664 C648 0.931 . S
H665 C653 0.930 . S
H666 C654 0.956 . S
H667 C654 0.961 . S
H668 C654 0.961 . S
H669 C655 0.958 . S
H670 C655 0.961 . S
H671 C655 0.960 . S
C672 C673 1.391 . S
C672 C674 1.394 . S
C672 H688 0.931 . S
C673 C672 1.391 . S
C673 C677 1.376 . S
C674 C672 1.394 . S
C674 C675 1.369 . S
C674 C678 1.531 . S
C675 C674 1.369 . S
C675 C676 1.410 . S
C675 C683 1.503 . S
C676 C675 1.410 . S
C676 C677 1.392 . S
C676 C679 1.511 . S
C677 C673 1.376 . S
C677 C676 1.392 . S
C677 H689 0.929 . S
C678 C674 1.531 . S
C678 H690 0.960 . S
C678 H691 0.962 . S
C678 H692 0.960 . S
C679 C676 1.511 . S
C679 H693 0.961 . S
C679 H694 0.961 . S
C679 H695 0.961 . S
C680 C681 1.370 . S
C680 C682 1.363 . S
C680 H696 0.931 . S
C681 C680 1.370 . S
C681 C685 1.408 . S
C682 C680 1.363 . S
C682 C683 1.370 . S
C682 C686 1.524 . S
C683 C675 1.503 . S
C683 C682 1.370 . S
C683 C684 1.403 . S
C684 C683 1.403 . S
C684 C685 1.404 . S
C684 C687 1.539 . S
C685 C681 1.408 . S
C685 C684 1.404 . S
C685 H697 0.930 . S
C686 C682 1.524 . S
C686 H698 0.956 . S
C686 H699 0.961 . S
C686 H700 0.961 . S
C687 C684 1.539 . S
C687 H701 0.958 . S
C687 H702 0.961 . S
C687 H703 0.960 . S
H688 C672 0.931 . S
H689 C677 0.929 . S
H690 C678 0.960 . S
H691 C678 0.962 . S
H692 C678 0.960 . S
H693 C679 0.961 . S
H694 C679 0.961 . S
H695 C679 0.961 . S
H696 C680 0.931 . S
H697 C685 0.930 . S
H698 C686 0.956 . S
H699 C686 0.961 . S
H700 C686 0.961 . S
H701 C687 0.958 . S
H702 C687 0.961 . S
H703 C687 0.960 . S
C704 C705 1.391 . S
C704 C706 1.394 . S
C704 H720 0.931 . S
C705 C704 1.391 . S
C705 C709 1.376 . S
C706 C704 1.394 . S
C706 C707 1.369 . S
C706 C710 1.531 . S
C707 C706 1.369 . S
C707 C708 1.410 . S
C707 C715 1.503 . S
C708 C707 1.410 . S
C708 C709 1.392 . S
C708 C711 1.511 . S
C709 C705 1.376 . S
C709 C708 1.392 . S
C709 H721 0.929 . S
C710 C706 1.531 . S
C710 H722 0.960 . S
C710 H723 0.962 . S
C710 H724 0.960 . S
C711 C708 1.511 . S
C711 H725 0.961 . S
C711 H726 0.961 . S
C711 H727 0.961 . S
C712 C713 1.370 . S
C712 C714 1.363 . S
C712 H728 0.931 . S
C713 C712 1.370 . S
C713 C717 1.408 . S
C714 C712 1.363 . S
C714 C715 1.370 . S
C714 C718 1.524 . S
C715 C707 1.503 . S
C715 C714 1.370 . S
C715 C716 1.403 . S
C716 C715 1.403 . S
C716 C717 1.404 . S
C716 C719 1.539 . S
C717 C713 1.408 . S
C717 C716 1.404 . S
C717 H729 0.930 . S
C718 C714 1.524 . S
C718 H730 0.956 . S
C718 H731 0.961 . S
C718 H732 0.961 . S
C719 C716 1.539 . S
C719 H733 0.958 . S
C719 H734 0.961 . S
C719 H735 0.960 . S
H720 C704 0.931 . S
H721 C709 0.929 . S
H722 C710 0.960 . S
H723 C710 0.962 . S
H724 C710 0.960 . S
H725 C711 0.961 . S
H726 C711 0.961 . S
H727 C711 0.961 . S
H728 C712 0.931 . S
H729 C717 0.930 . S
H730 C718 0.956 . S
H731 C718 0.961 . S
H732 C718 0.961 . S
H733 C719 0.958 . S
H734 C719 0.961 . S
H735 C719 0.960 . S
C736 C737 1.391 . S
C736 C738 1.394 . S
C736 H752 0.931 . S
C737 C736 1.391 . S
C737 C741 1.376 . S
C738 C736 1.394 . S
C738 C739 1.369 . S
C738 C742 1.531 . S
C739 C738 1.369 . S
C739 C740 1.410 . S
C739 C747 1.503 . S
C740 C739 1.410 . S
C740 C741 1.392 . S
C740 C743 1.511 . S
C741 C737 1.376 . S
C741 C740 1.392 . S
C741 H753 0.929 . S
C742 C738 1.531 . S
C742 H754 0.960 . S
C742 H755 0.962 . S
C742 H756 0.960 . S
C743 C740 1.511 . S
C743 H757 0.961 . S
C743 H758 0.961 . S
C743 H759 0.961 . S
C744 C745 1.370 . S
C744 C746 1.363 . S
C744 H760 0.931 . S
C745 C744 1.370 . S
C745 C749 1.408 . S
C746 C744 1.363 . S
C746 C747 1.370 . S
C746 C750 1.524 . S
C747 C739 1.503 . S
C747 C746 1.370 . S
C747 C748 1.403 . S
C748 C747 1.403 . S
C748 C749 1.404 . S
C748 C751 1.539 . S
C749 C745 1.408 . S
C749 C748 1.404 . S
C749 H761 0.930 . S
C750 C746 1.524 . S
C750 H762 0.956 . S
C750 H763 0.961 . S
C750 H764 0.961 . S
C751 C748 1.539 . S
C751 H765 0.958 . S
C751 H766 0.961 . S
C751 H767 0.960 . S
H752 C736 0.931 . S
H753 C741 0.929 . S
H754 C742 0.960 . S
H755 C742 0.962 . S
H756 C742 0.960 . S
H757 C743 0.961 . S
H758 C743 0.961 . S
H759 C743 0.961 . S
H760 C744 0.931 . S
H761 C749 0.930 . S
H762 C750 0.956 . S
H763 C750 0.961 . S
H764 C750 0.961 . S
H765 C751 0.958 . S
H766 C751 0.961 . S
H767 C751 0.960 . S
C768 C769 1.391 . S
C768 C770 1.394 . S
C768 H784 0.931 . S
C769 C768 1.391 . S
C769 C773 1.376 . S
C770 C768 1.394 . S
C770 C771 1.369 . S
C770 C774 1.531 . S
C771 C770 1.369 . S
C771 C772 1.410 . S
C771 C779 1.503 . S
C772 C771 1.410 . S
C772 C773 1.392 . S
C772 C775 1.511 . S
C773 C769 1.376 . S
C773 C772 1.392 . S
C773 H785 0.929 . S
C774 C770 1.531 . S
C774 H786 0.960 . S
C774 H787 0.962 . S
C774 H788 0.960 . S
C775 C772 1.511 . S
C775 H789 0.961 1_554 S
C775 H790 0.961 1_554 S
C775 H791 0.961 . S
C776 C777 1.370 . S
C776 C778 1.363 . S
C776 H792 0.964 . S
C777 C776 1.370 . S
C777 C781 1.408 . S
C778 C776 1.363 . S
C778 C779 1.370 . S
C778 C782 1.524 . S
C779 C771 1.503 . S
C779 C778 1.370 . S
C779 C780 1.403 . S
C780 C779 1.403 . S
C780 C781 1.404 . S
C780 C783 1.539 . S
C781 C777 1.408 . S
C781 C780 1.404 . S
C781 H793 0.930 . S
C782 C778 1.524 . S
C782 H794 0.956 . S
C782 H795 0.985 . S
C782 H796 0.961 1_554 S
C783 C780 1.539 . S
C783 H797 0.958 . S
C783 H798 0.961 . S
C783 H799 0.960 . S
H784 C768 0.931 . S
H785 C773 0.929 . S
H786 C774 0.960 . S
H787 C774 0.962 . S
H788 C774 0.960 . S
H789 C775 0.961 1_556 S
H790 C775 0.961 1_556 S
H791 C775 0.961 . S
H792 C776 0.964 . S
H793 C781 0.930 . S
H794 C782 0.956 . S
H795 C782 0.985 . S
H796 C782 0.961 1_556 S
H797 C783 0.958 . S
H798 C783 0.961 . S
H799 C783 0.960 . S
C800 C801 1.391 . S
C800 C802 1.394 . S
C800 H816 0.931 . S
C801 C800 1.391 . S
C801 C805 1.376 . S
C802 C800 1.394 . S
C802 C803 1.369 . S
C802 C806 1.531 . S
C803 C802 1.369 . S
C803 C804 1.410 . S
C803 C811 1.503 . S
C804 C803 1.410 . S
C804 C805 1.392 . S
C804 C807 1.511 . S
C805 C801 1.376 . S
C805 C804 1.392 . S
C805 H817 0.929 . S
C806 C802 1.531 . S
C806 H818 0.960 . S
C806 H819 0.962 . S
C806 H820 0.960 . S
C807 C804 1.511 . S
C807 H821 0.961 . S
C807 H822 0.961 . S
C807 H823 0.961 . S
C808 C809 1.370 . S
C808 C810 1.363 . S
C808 H824 0.931 . S
C809 C808 1.370 . S
C809 C813 1.408 . S
C810 C808 1.363 . S
C810 C811 1.370 . S
C810 C814 1.524 . S
C811 C803 1.503 . S
C811 C810 1.370 . S
C811 C812 1.403 . S
C812 C811 1.403 . S
C812 C813 1.404 . S
C812 C815 1.539 . S
C813 C809 1.408 . S
C813 C812 1.404 . S
C813 H825 0.930 . S
C814 C810 1.524 . S
C814 H826 0.956 . S
C814 H827 0.961 . S
C814 H828 0.961 . S
C815 C812 1.539 . S
C815 H829 0.958 . S
C815 H830 0.961 . S
C815 H831 0.960 . S
H816 C800 0.931 . S
H817 C805 0.929 . S
H818 C806 0.960 . S
H819 C806 0.962 . S
H820 C806 0.960 . S
H821 C807 0.961 . S
H822 C807 0.961 . S
H823 C807 0.961 . S
H824 C808 0.931 . S
H825 C813 0.930 . S
H826 C814 0.956 . S
H827 C814 0.961 . S
H828 C814 0.961 . S
H829 C815 0.958 . S
H830 C815 0.961 . S
H831 C815 0.960 . S
C832 C833 1.391 . S
C832 C834 1.394 . S
C832 H848 0.931 . S
C833 C832 1.391 . S
C833 C837 1.376 . S
C834 C832 1.394 . S
C834 C835 1.369 . S
C834 C838 1.531 . S
C835 C834 1.369 . S
C835 C836 1.410 . S
C835 C843 1.503 . S
C836 C835 1.410 . S
C836 C837 1.392 . S
C836 C839 1.511 . S
C837 C833 1.376 . S
C837 C836 1.392 . S
C837 H849 0.929 . S
C838 C834 1.531 . S
C838 H850 0.960 . S
C838 H851 0.962 . S
C838 H852 0.960 . S
C839 C836 1.511 . S
C839 H853 0.961 . S
C839 H854 0.961 . S
C839 H855 0.961 . S
C840 C841 1.370 . S
C840 C842 1.363 . S
C840 H856 0.931 . S
C841 C840 1.370 . S
C841 C845 1.408 . S
C842 C840 1.363 . S
C842 C843 1.370 . S
C842 C846 1.524 . S
C843 C835 1.503 . S
C843 C842 1.370 . S
C843 C844 1.403 . S
C844 C843 1.403 . S
C844 C845 1.404 . S
C844 C847 1.539 . S
C845 C841 1.408 . S
C845 C844 1.404 . S
C845 H857 0.930 . S
C846 C842 1.524 . S
C846 H858 0.956 . S
C846 H859 0.961 . S
C846 H860 0.961 . S
C847 C844 1.539 . S
C847 H861 0.958 . S
C847 H862 0.961 . S
C847 H863 0.960 . S
H848 C832 0.931 . S
H849 C837 0.929 . S
H850 C838 0.960 . S
H851 C838 0.962 . S
H852 C838 0.960 . S
H853 C839 0.961 . S
H854 C839 0.961 . S
H855 C839 0.961 . S
H856 C840 0.931 . S
H857 C845 0.930 . S
H858 C846 0.956 . S
H859 C846 0.961 . S
H860 C846 0.961 . S
H861 C847 0.958 . S
H862 C847 0.961 . S
H863 C847 0.960 . S
C864 C865 1.391 . S
C864 C866 1.394 . S
C864 H880 0.931 . S
C865 C864 1.391 . S
C865 C869 1.376 . S
C866 C864 1.394 . S
C866 C867 1.369 . S
C866 C870 1.531 . S
C867 C866 1.369 . S
C867 C868 1.410 . S
C867 C875 1.503 . S
C868 C867 1.410 . S
C868 C869 1.392 . S
C868 C871 1.511 . S
C869 C865 1.376 . S
C869 C868 1.392 . S
C869 H881 0.929 . S
C870 C866 1.531 . S
C870 H882 0.960 . S
C870 H883 0.962 . S
C870 H884 0.960 . S
C871 C868 1.511 . S
C871 H885 0.961 . S
C871 H886 0.961 . S
C871 H887 0.961 . S
C872 C873 1.370 . S
C872 C874 1.363 . S
C872 H888 0.931 . S
C873 C872 1.370 . S
C873 C877 1.408 . S
C874 C872 1.363 . S
C874 C875 1.370 . S
C874 C878 1.524 . S
C875 C867 1.503 . S
C875 C874 1.370 . S
C875 C876 1.403 . S
C876 C875 1.403 . S
C876 C877 1.404 . S
C876 C879 1.539 . S
C877 C873 1.408 . S
C877 C876 1.404 . S
C877 H889 0.930 . S
C878 C874 1.524 . S
C878 H890 0.956 . S
C878 H891 0.961 . S
C878 H892 0.961 . S
C879 C876 1.539 . S
C879 H893 0.958 . S
C879 H894 0.961 . S
C879 H895 0.960 . S
H880 C864 0.931 . S
H881 C869 0.929 . S
H882 C870 0.960 . S
H883 C870 0.962 . S
H884 C870 0.960 . S
H885 C871 0.961 . S
H886 C871 0.961 . S
H887 C871 0.961 . S
H888 C872 0.931 . S
H889 C877 0.930 . S
H890 C878 0.956 . S
H891 C878 0.961 . S
H892 C878 0.961 . S
H893 C879 0.958 . S
H894 C879 0.961 . S
H895 C879 0.960 . S
C896 C897 1.391 . S
C896 C898 1.394 . S
C896 H912 0.931 . S
C897 C896 1.391 . S
C897 C901 1.376 . S
C898 C896 1.394 . S
C898 C899 1.369 . S
C898 C902 1.531 . S
C899 C898 1.369 . S
C899 C900 1.410 . S
C899 C907 1.503 . S
C900 C899 1.410 . S
C900 C901 1.392 . S
C900 C903 1.511 . S
C901 C897 1.376 . S
C901 C900 1.392 . S
C901 H913 0.929 . S
C902 C898 1.531 . S
C902 H914 0.960 . S
C902 H915 0.962 . S
C902 H916 0.960 . S
C903 C900 1.511 . S
C903 H917 0.961 . S
C903 H918 0.961 . S
C903 H919 0.961 . S
C904 C905 1.370 . S
C904 C906 1.363 . S
C904 H920 0.931 . S
C905 C904 1.370 . S
C905 C909 1.408 . S
C906 C904 1.363 . S
C906 C907 1.370 . S
C906 C910 1.524 . S
C907 C899 1.503 . S
C907 C906 1.370 . S
C907 C908 1.403 . S
C908 C907 1.403 . S
C908 C909 1.404 . S
C908 C911 1.539 . S
C909 C905 1.408 . S
C909 C908 1.404 . S
C909 H921 0.930 . S
C910 C906 1.524 . S
C910 H922 0.956 . S
C910 H923 0.961 . S
C910 H924 0.961 . S
C911 C908 1.539 . S
C911 H925 0.958 . S
C911 H926 0.961 . S
C911 H927 0.960 . S
H912 C896 0.931 . S
H913 C901 0.929 . S
H914 C902 0.960 . S
H915 C902 0.962 . S
H916 C902 0.960 . S
H917 C903 0.961 . S
H918 C903 0.961 . S
H919 C903 0.961 . S
H920 C904 0.931 . S
H921 C909 0.930 . S
H922 C910 0.956 . S
H923 C910 0.961 . S
H924 C910 0.961 . S
H925 C911 0.958 . S
H926 C911 0.961 . S
H927 C911 0.960 . S
C928 C929 1.391 . S
C928 C930 1.394 . S
C928 H944 0.931 . S
C929 C928 1.391 . S
C929 C933 1.376 . S
C930 C928 1.394 . S
C930 C931 1.369 . S
C930 C934 1.554 . S
C931 C930 1.369 . S
C931 C932 1.410 . S
C931 C939 1.503 . S
C932 C931 1.410 . S
C932 C933 1.392 . S
C932 C935 1.511 . S
C933 C929 1.376 . S
C933 C932 1.392 . S
C933 H945 0.929 . S
C934 C930 1.554 . S
C934 H946 0.930 1_556 S
C934 H947 0.998 . S
C934 H948 0.935 1_556 S
C935 C932 1.511 . S
C935 H949 0.961 . S
C935 H950 0.961 . S
C935 H951 0.961 . S
C936 C937 1.370 . S
C936 C938 1.363 . S
C936 H952 0.931 . S
C937 C936 1.370 . S
C937 C941 1.408 1_556 S
C938 C936 1.363 . S
C938 C939 1.370 . S
C938 C942 1.524 . S
C939 C931 1.503 . S
C939 C938 1.370 . S
C939 C940 1.403 1_556 S
C940 C939 1.403 1_554 S
C940 C941 1.404 . S
C940 C943 1.539 . S
C941 C937 1.408 1_554 S
C941 C940 1.404 . S
C941 H953 0.930 . S
C942 C938 1.524 . S
C942 H954 0.956 . S
C942 H955 0.961 . S
C942 H956 0.961 . S
C943 C940 1.539 . S
C943 H957 0.958 . S
C943 H958 0.961 . S
C943 H959 0.960 . S
H944 C928 0.931 . S
H945 C933 0.929 . S
H946 C934 0.930 1_554 S
H947 C934 0.998 . S
H948 C934 0.935 1_554 S
H949 C935 0.961 . S
H950 C935 0.961 . S
H951 C935 0.961 . S
H952 C936 0.931 . S
H953 C941 0.930 . S
H954 C942 0.956 . S
H955 C942 0.961 . S
H956 C942 0.961 . S
H957 C943 0.958 . S
H958 C943 0.961 . S
H959 C943 0.960 . S
C960 C961 1.391 . S
C960 C962 1.394 . S
C960 H976 0.931 . S
C961 C960 1.391 . S
C961 C965 1.376 . S
C962 C960 1.394 . S
C962 C963 1.369 . S
C962 C966 1.531 . S
C963 C962 1.369 . S
C963 C964 1.410 . S
C963 C971 1.503 . S
C964 C963 1.410 . S
C964 C965 1.392 . S
C964 C967 1.511 . S
C965 C961 1.376 . S
C965 C964 1.392 . S
C965 H977 0.929 . S
C966 C962 1.531 . S
C966 H978 0.960 . S
C966 H979 0.962 . S
C966 H980 0.960 . S
C967 C964 1.511 . S
C967 H981 0.961 . S
C967 H982 0.961 . S
C967 H983 0.961 . S
C968 C969 1.370 . S
C968 C970 1.363 . S
C968 H984 0.931 . S
C969 C968 1.370 . S
C969 C973 1.408 . S
C970 C968 1.363 . S
C970 C971 1.370 . S
C970 C974 1.524 . S
C971 C963 1.503 . S
C971 C970 1.370 . S
C971 C972 1.403 . S
C972 C971 1.403 . S
C972 C973 1.404 . S
C972 C975 1.539 . S
C973 C969 1.408 . S
C973 C972 1.404 . S
C973 H985 0.930 . S
C974 C970 1.524 . S
C974 H986 0.956 . S
C974 H987 0.961 . S
C974 H988 0.961 . S
C975 C972 1.539 . S
C975 H989 0.958 . S
C975 H990 0.961 . S
C975 H991 0.960 . S
H976 C960 0.931 . S
H977 C965 0.929 . S
H978 C966 0.960 . S
H979 C966 0.962 . S
H980 C966 0.960 . S
H981 C967 0.961 . S
H982 C967 0.961 . S
H983 C967 0.961 . S
H984 C968 0.931 . S
H985 C973 0.930 . S
H986 C974 0.956 . S
H987 C974 0.961 . S
H988 C974 0.961 . S
H989 C975 0.958 . S
H990 C975 0.961 . S
H991 C975 0.960 . S
C992 C993 1.391 . S
C992 C994 1.394 . S
C992 H1008 0.931 . S
C993 C992 1.391 . S
C993 C997 1.376 . S
C994 C992 1.394 . S
C994 C995 1.369 . S
C994 C998 1.531 . S
C995 C994 1.369 . S
C995 C996 1.410 . S
C995 C1003 1.503 . S
C996 C995 1.410 . S
C996 C997 1.392 . S
C996 C999 1.511 . S
C997 C993 1.376 . S
C997 C996 1.392 . S
C997 H1009 0.929 . S
C998 C994 1.531 . S
C998 H1010 0.960 . S
C998 H1011 0.962 . S
C998 H1012 0.960 . S
C999 C996 1.511 . S
C999 H1013 0.961 . S
C999 H1014 0.961 . S
C999 H1015 0.961 . S
C1000 C1001 1.370 . S
C1000 C1002 1.363 . S
C1000 H1016 0.931 . S
C1001 C1000 1.370 . S
C1001 C1005 1.408 . S
C1002 C1000 1.363 . S
C1002 C1003 1.370 . S
C1002 C1006 1.524 . S
C1003 C995 1.503 . S
C1003 C1002 1.370 . S
C1003 C1004 1.403 . S
C1004 C1003 1.403 . S
C1004 C1005 1.404 . S
C1004 C1007 1.539 . S
C1005 C1001 1.408 . S
C1005 C1004 1.404 . S
C1005 H1017 0.930 . S
C1006 C1002 1.524 . S
C1006 H1018 0.956 . S
C1006 H1019 0.961 . S
C1006 H1020 0.961 . S
C1007 C1004 1.539 . S
C1007 H1021 0.958 . S
C1007 H1022 0.961 . S
C1007 H1023 0.960 . S
H1008 C992 0.931 . S
H1009 C997 0.929 . S
H1010 C998 0.960 . S
H1011 C998 0.962 . S
H1012 C998 0.960 . S
H1013 C999 0.961 . S
H1014 C999 0.961 . S
H1015 C999 0.961 . S
H1016 C1000 0.931 . S
H1017 C1005 0.930 . S
H1018 C1006 0.956 . S
H1019 C1006 0.961 . S
H1020 C1006 0.961 . S
H1021 C1007 0.958 . S
H1022 C1007 0.961 . S
H1023 C1007 0.960 . S
C1024 C1025 1.391 . S
C1024 C1026 1.394 . S
C1024 H1040 0.931 . S
C1025 C1024 1.391 . S
C1025 C1029 1.376 . S
C1026 C1024 1.394 . S
C1026 C1027 1.369 . S
C1026 C1030 1.531 . S
C1027 C1026 1.369 . S
C1027 C1028 1.410 . S
C1027 C1035 1.503 . S
C1028 C1027 1.410 . S
C1028 C1029 1.392 . S
C1028 C1031 1.511 . S
C1029 C1025 1.376 . S
C1029 C1028 1.392 . S
C1029 H1041 0.929 . S
C1030 C1026 1.531 . S
C1030 H1042 0.960 . S
C1030 H1043 0.962 . S
C1030 H1044 0.960 . S
C1031 C1028 1.511 . S
C1031 H1045 0.961 . S
C1031 H1046 0.961 . S
C1031 H1047 0.961 . S
C1032 C1033 1.370 . S
C1032 C1034 1.363 . S
C1032 H1048 0.931 . S
C1033 C1032 1.370 . S
C1033 C1037 1.408 . S
C1034 C1032 1.363 . S
C1034 C1035 1.370 . S
C1034 C1038 1.524 . S
C1035 C1027 1.503 . S
C1035 C1034 1.370 . S
C1035 C1036 1.403 . S
C1036 C1035 1.403 . S
C1036 C1037 1.404 . S
C1036 C1039 1.539 . S
C1037 C1033 1.408 . S
C1037 C1036 1.404 . S
C1037 H1049 0.930 . S
C1038 C1034 1.524 . S
C1038 H1050 0.956 . S
C1038 H1051 0.961 . S
C1038 H1052 0.961 . S
C1039 C1036 1.539 . S
C1039 H1053 0.958 . S
C1039 H1054 0.961 . S
C1039 H1055 0.960 . S
H1040 C1024 0.931 . S
H1041 C1029 0.929 . S
H1042 C1030 0.960 . S
H1043 C1030 0.962 . S
H1044 C1030 0.960 . S
H1045 C1031 0.961 . S
H1046 C1031 0.961 . S
H1047 C1031 0.961 . S
H1048 C1032 0.931 . S
H1049 C1037 0.930 . S
H1050 C1038 0.956 . S
H1051 C1038 0.961 . S
H1052 C1038 0.961 . S
H1053 C1039 0.958 . S
H1054 C1039 0.961 . S
H1055 C1039 0.960 . S
C1056 C1057 1.391 . S
C1056 C1058 1.394 . S
C1056 H1072 0.931 . S
C1057 C1056 1.391 . S
C1057 C1061 1.376 . S
C1058 C1056 1.394 . S
C1058 C1059 1.369 . S
C1058 C1062 1.531 . S
C1059 C1058 1.369 . S
C1059 C1060 1.410 . S
C1059 C1067 1.503 . S
C1060 C1059 1.410 . S
C1060 C1061 1.392 . S
C1060 C1063 1.511 . S
C1061 C1057 1.376 . S
C1061 C1060 1.392 . S
C1061 H1073 0.929 . S
C1062 C1058 1.531 . S
C1062 H1074 0.960 . S
C1062 H1075 0.962 . S
C1062 H1076 0.960 . S
C1063 C1060 1.511 . S
C1063 H1077 0.961 . S
C1063 H1078 0.961 . S
C1063 H1079 0.961 . S
C1064 C1065 1.370 . S
C1064 C1066 1.363 . S
C1064 H1080 0.931 . S
C1065 C1064 1.370 . S
C1065 C1069 1.408 . S
C1066 C1064 1.363 . S
C1066 C1067 1.370 . S
C1066 C1070 1.524 . S
C1067 C1059 1.503 . S
C1067 C1066 1.370 . S
C1067 C1068 1.403 . S
C1068 C1067 1.403 . S
C1068 C1069 1.404 . S
C1068 C1071 1.539 . S
C1069 C1065 1.408 . S
C1069 C1068 1.404 . S
C1069 H1081 0.930 . S
C1070 C1066 1.524 . S
C1070 H1082 0.956 . S
C1070 H1083 0.961 . S
C1070 H1084 0.961 . S
C1071 C1068 1.539 . S
C1071 H1085 0.958 . S
C1071 H1086 0.961 . S
C1071 H1087 0.960 . S
H1072 C1056 0.931 . S
H1073 C1061 0.929 . S
H1074 C1062 0.960 . S
H1075 C1062 0.962 . S
H1076 C1062 0.960 . S
H1077 C1063 0.961 . S
H1078 C1063 0.961 . S
H1079 C1063 0.961 . S
H1080 C1064 0.931 . S
H1081 C1069 0.930 . S
H1082 C1070 0.956 . S
H1083 C1070 0.961 . S
H1084 C1070 0.961 . S
H1085 C1071 0.958 . S
H1086 C1071 0.961 . S
H1087 C1071 0.960 . S
C1088 C1089 1.391 . S
C1088 C1090 1.394 . S
C1088 H1104 0.931 . S
C1089 C1088 1.391 . S
C1089 C1093 1.376 . S
C1090 C1088 1.394 . S
C1090 C1091 1.369 . S
C1090 C1094 1.531 . S
C1091 C1090 1.369 . S
C1091 C1092 1.410 . S
C1091 C1099 1.503 . S
C1092 C1091 1.410 . S
C1092 C1093 1.392 . S
C1092 C1095 1.511 . S
C1093 C1089 1.376 . S
C1093 C1092 1.392 . S
C1093 H1105 0.929 . S
C1094 C1090 1.531 . S
C1094 H1106 0.960 . S
C1094 H1107 0.962 . S
C1094 H1108 0.960 . S
C1095 C1092 1.511 . S
C1095 H1109 0.961 . S
C1095 H1110 0.961 . S
C1095 H1111 0.961 . S
C1096 C1097 1.370 . S
C1096 C1098 1.363 . S
C1096 H1112 0.931 . S
C1097 C1096 1.370 . S
C1097 C1101 1.408 . S
C1098 C1096 1.363 . S
C1098 C1099 1.370 . S
C1098 C1102 1.524 . S
C1099 C1091 1.503 . S
C1099 C1098 1.370 . S
C1099 C1100 1.403 . S
C1100 C1099 1.403 . S
C1100 C1101 1.404 . S
C1100 C1103 1.539 . S
C1101 C1097 1.408 . S
C1101 C1100 1.404 . S
C1101 H1113 0.930 . S
C1102 C1098 1.524 . S
C1102 H1114 0.956 . S
C1102 H1115 0.961 . S
C1102 H1116 0.961 . S
C1103 C1100 1.539 . S
C1103 H1117 0.958 . S
C1103 H1118 0.961 . S
C1103 H1119 0.960 . S
H1104 C1088 0.931 . S
H1105 C1093 0.929 . S
H1106 C1094 0.960 . S
H1107 C1094 0.962 . S
H1108 C1094 0.960 . S
H1109 C1095 0.961 . S
H1110 C1095 0.961 . S
H1111 C1095 0.961 . S
H1112 C1096 0.931 . S
H1113 C1101 0.930 . S
H1114 C1102 0.956 . S
H1115 C1102 0.961 . S
H1116 C1102 0.961 . S
H1117 C1103 0.958 . S
H1118 C1103 0.961 . S
H1119 C1103 0.960 . S
C1120 C1121 1.391 . S
C1120 C1122 1.394 . S
C1120 H1136 0.931 . S
C1121 C1120 1.391 . S
C1121 C1125 1.376 . S
C1122 C1120 1.394 . S
C1122 C1123 1.369 . S
C1122 C1126 1.531 . S
C1123 C1122 1.369 . S
C1123 C1124 1.410 . S
C1123 C1131 1.503 . S
C1124 C1123 1.410 . S
C1124 C1125 1.392 . S
C1124 C1127 1.511 . S
C1125 C1121 1.376 . S
C1125 C1124 1.392 . S
C1125 H1137 0.929 . S
C1126 C1122 1.531 . S
C1126 H1138 0.960 . S
C1126 H1139 0.962 . S
C1126 H1140 0.960 . S
C1127 C1124 1.511 . S
C1127 H1141 0.961 . S
C1127 H1142 0.961 . S
C1127 H1143 0.961 . S
C1128 C1129 1.370 . S
C1128 C1130 1.363 . S
C1128 H1144 0.931 . S
C1129 C1128 1.370 . S
C1129 C1133 1.408 . S
C1130 C1128 1.363 . S
C1130 C1131 1.370 . S
C1130 C1134 1.524 . S
C1131 C1123 1.503 . S
C1131 C1130 1.370 . S
C1131 C1132 1.403 . S
C1132 C1131 1.403 . S
C1132 C1133 1.404 . S
C1132 C1135 1.539 . S
C1133 C1129 1.408 . S
C1133 C1132 1.404 . S
C1133 H1145 0.930 . S
C1134 C1130 1.524 . S
C1134 H1146 0.956 . S
C1134 H1147 0.961 . S
C1134 H1148 0.961 . S
C1135 C1132 1.539 . S
C1135 H1149 0.958 . S
C1135 H1150 0.961 . S
C1135 H1151 0.960 . S
H1136 C1120 0.931 . S
H1137 C1125 0.929 . S
H1138 C1126 0.960 . S
H1139 C1126 0.962 . S
H1140 C1126 0.960 . S
H1141 C1127 0.961 . S
H1142 C1127 0.961 . S
H1143 C1127 0.961 . S
H1144 C1128 0.931 . S
H1145 C1133 0.930 . S
H1146 C1134 0.956 . S
H1147 C1134 0.961 . S
H1148 C1134 0.961 . S
H1149 C1135 0.958 . S
H1150 C1135 0.961 . S
H1151 C1135 0.960 . S
C1152 C1153 1.391 . S
C1152 C1154 1.394 . S
C1152 H1168 0.931 . S
C1153 C1152 1.391 . S
C1153 C1157 1.376 . S
C1154 C1152 1.394 . S
C1154 C1155 1.369 . S
C1154 C1158 1.531 . S
C1155 C1154 1.369 . S
C1155 C1156 1.410 . S
C1155 C1163 1.503 . S
C1156 C1155 1.410 . S
C1156 C1157 1.392 . S
C1156 C1159 1.511 . S
C1157 C1153 1.376 . S
C1157 C1156 1.392 . S
C1157 H1169 0.929 . S
C1158 C1154 1.531 . S
C1158 H1170 0.960 . S
C1158 H1171 0.962 . S
C1158 H1172 0.960 . S
C1159 C1156 1.511 . S
C1159 H1173 0.961 . S
C1159 H1174 0.961 . S
C1159 H1175 0.961 . S
C1160 C1161 1.370 . S
C1160 C1162 1.363 . S
C1160 H1176 0.931 . S
C1161 C1160 1.370 . S
C1161 C1165 1.408 . S
C1162 C1160 1.363 . S
C1162 C1163 1.370 . S
C1162 C1166 1.524 . S
C1163 C1155 1.503 . S
C1163 C1162 1.370 . S
C1163 C1164 1.403 . S
C1164 C1163 1.403 . S
C1164 C1165 1.404 . S
C1164 C1167 1.539 . S
C1165 C1161 1.408 . S
C1165 C1164 1.404 . S
C1165 H1177 0.930 . S
C1166 C1162 1.524 . S
C1166 H1178 0.956 . S
C1166 H1179 0.961 . S
C1166 H1180 0.961 . S
C1167 C1164 1.539 . S
C1167 H1181 0.958 . S
C1167 H1182 0.961 . S
C1167 H1183 0.960 . S
H1168 C1152 0.931 . S
H1169 C1157 0.929 . S
H1170 C1158 0.960 . S
H1171 C1158 0.962 . S
H1172 C1158 0.960 . S
H1173 C1159 0.961 . S
H1174 C1159 0.961 . S
H1175 C1159 0.961 . S
H1176 C1160 0.931 . S
H1177 C1165 0.930 . S
H1178 C1166 0.956 . S
H1179 C1166 0.961 . S
H1180 C1166 0.961 . S
H1181 C1167 0.958 . S
H1182 C1167 0.961 . S
H1183 C1167 0.960 . S
C1184 C1185 1.391 . S
C1184 C1186 1.394 . S
C1184 H1200 0.931 . S
C1185 C1184 1.391 . S
C1185 C1189 1.376 . S
C1186 C1184 1.394 . S
C1186 C1187 1.369 . S
C1186 C1190 1.531 . S
C1187 C1186 1.369 . S
C1187 C1188 1.410 . S
C1187 C1195 1.503 . S
C1188 C1187 1.410 . S
C1188 C1189 1.392 . S
C1188 C1191 1.511 . S
C1189 C1185 1.376 . S
C1189 C1188 1.392 . S
C1189 H1201 0.929 . S
C1190 C1186 1.531 . S
C1190 H1202 0.960 . S
C1190 H1203 0.962 . S
C1190 H1204 0.960 . S
C1191 C1188 1.511 . S
C1191 H1205 0.961 . S
C1191 H1206 0.961 . S
C1191 H1207 0.961 . S
C1192 C1193 1.370 . S
C1192 C1194 1.363 . S
C1192 H1208 0.931 . S
C1193 C1192 1.370 . S
C1193 C1197 1.408 . S
C1194 C1192 1.363 . S
C1194 C1195 1.370 . S
C1194 C1198 1.524 . S
C1195 C1187 1.503 . S
C1195 C1194 1.370 . S
C1195 C1196 1.403 . S
C1196 C1195 1.403 . S
C1196 C1197 1.404 . S
C1196 C1199 1.539 . S
C1197 C1193 1.408 . S
C1197 C1196 1.404 . S
C1197 H1209 0.930 . S
C1198 C1194 1.524 . S
C1198 H1210 0.956 . S
C1198 H1211 0.961 . S
C1198 H1212 0.961 . S
C1199 C1196 1.539 . S
C1199 H1213 0.958 . S
C1199 H1214 0.961 . S
C1199 H1215 0.960 . S
H1200 C1184 0.931 . S
H1201 C1189 0.929 . S
H1202 C1190 0.960 . S
H1203 C1190 0.962 . S
H1204 C1190 0.960 . S
H1205 C1191 0.961 . S
H1206 C1191 0.961 . S
H1207 C1191 0.961 . S
H1208 C1192 0.931 . S
H1209 C1197 0.930 . S
H1210 C1198 0.956 . S
H1211 C1198 0.961 . S
H1212 C1198 0.961 . S
H1213 C1199 0.958 . S
H1214 C1199 0.961 . S
H1215 C1199 0.960 . S
C1216 C1217 1.391 . S
C1216 C1218 1.394 . S
C1216 H1232 0.931 . S
C1217 C1216 1.391 . S
C1217 C1221 1.376 . S
C1218 C1216 1.394 . S
C1218 C1219 1.369 . S
C1218 C1222 1.531 . S
C1219 C1218 1.369 . S
C1219 C1220 1.410 . S
C1219 C1227 1.503 . S
C1220 C1219 1.410 . S
C1220 C1221 1.392 . S
C1220 C1223 1.511 . S
C1221 C1217 1.376 . S
C1221 C1220 1.392 . S
C1221 H1233 0.929 . S
C1222 C1218 1.531 . S
C1222 H1234 0.960 . S
C1222 H1235 0.962 . S
C1222 H1236 0.960 . S
C1223 C1220 1.511 . S
C1223 H1237 0.961 . S
C1223 H1238 0.961 . S
C1223 H1239 0.961 . S
C1224 C1225 1.370 . S
C1224 C1226 1.363 . S
C1224 H1240 0.931 . S
C1225 C1224 1.370 . S
C1225 C1229 1.408 . S
C1226 C1224 1.363 . S
C1226 C1227 1.370 . S
C1226 C1230 1.524 . S
C1227 C1219 1.503 . S
C1227 C1226 1.370 . S
C1227 C1228 1.403 . S
C1228 C1227 1.403 . S
C1228 C1229 1.404 . S
C1228 C1231 1.539 . S
C1229 C1225 1.408 . S
C1229 C1228 1.404 . S
C1229 H1241 0.930 . S
C1230 C1226 1.524 . S
C1230 H1242 0.956 . S
C1230 H1243 0.961 . S
C1230 H1244 0.961 . S
C1231 C1228 1.539 . S
C1231 H1245 0.958 . S
C1231 H1246 0.961 . S
C1231 H1247 0.960 . S
H1232 C1216 0.931 . S
H1233 C1221 0.929 . S
H1234 C1222 0.960 . S
H1235 C1222 0.962 . S
H1236 C1222 0.960 . S
H1237 C1223 0.961 . S
H1238 C1223 0.961 . S
H1239 C1223 0.961 . S
H1240 C1224 0.931 . S
H1241 C1229 0.930 . S
H1242 C1230 0.956 . S
H1243 C1230 0.961 . S
H1244 C1230 0.961 . S
H1245 C1231 0.958 . S
H1246 C1231 0.961 . S
H1247 C1231 0.960 . S
C1248 C1249 1.391 . S
C1248 C1250 1.394 . S
C1248 H1264 0.931 . S
C1249 C1248 1.391 . S
C1249 C1253 1.376 . S
C1250 C1248 1.394 . S
C1250 C1251 1.369 . S
C1250 C1254 1.531 . S
C1251 C1250 1.369 . S
C1251 C1252 1.410 . S
C1251 C1259 1.503 . S
C1252 C1251 1.410 . S
C1252 C1253 1.392 . S
C1252 C1255 1.511 . S
C1253 C1249 1.376 . S
C1253 C1252 1.392 . S
C1253 H1265 0.929 . S
C1254 C1250 1.531 . S
C1254 H1266 0.960 . S
C1254 H1267 0.962 . S
C1254 H1268 0.960 . S
C1255 C1252 1.511 . S
C1255 H1269 0.961 . S
C1255 H1270 0.961 . S
C1255 H1271 0.961 . S
C1256 C1257 1.370 . S
C1256 C1258 1.363 . S
C1256 H1272 0.931 . S
C1257 C1256 1.370 . S
C1257 C1261 1.408 . S
C1258 C1256 1.363 . S
C1258 C1259 1.370 . S
C1258 C1262 1.524 . S
C1259 C1251 1.503 . S
C1259 C1258 1.370 . S
C1259 C1260 1.403 . S
C1260 C1259 1.403 . S
C1260 C1261 1.404 . S
C1260 C1263 1.539 . S
C1261 C1257 1.408 . S
C1261 C1260 1.404 . S
C1261 H1273 0.930 . S
C1262 C1258 1.524 . S
C1262 H1274 0.956 . S
C1262 H1275 0.961 . S
C1262 H1276 0.961 . S
C1263 C1260 1.539 . S
C1263 H1277 0.958 . S
C1263 H1278 0.961 . S
C1263 H1279 0.960 . S
H1264 C1248 0.931 . S
H1265 C1253 0.929 . S
H1266 C1254 0.960 . S
H1267 C1254 0.962 . S
H1268 C1254 0.960 . S
H1269 C1255 0.961 . S
H1270 C1255 0.961 . S
H1271 C1255 0.961 . S
H1272 C1256 0.931 . S
H1273 C1261 0.930 . S
H1274 C1262 0.956 . S
H1275 C1262 0.961 . S
H1276 C1262 0.961 . S
H1277 C1263 0.958 . S
H1278 C1263 0.961 . S
H1279 C1263 0.960 . S
C1280 C1281 1.391 . S
C1280 C1282 1.394 . S
C1280 H1296 0.931 . S
C1281 C1280 1.391 . S
C1281 C1285 1.376 . S
C1282 C1280 1.394 . S
C1282 C1283 1.369 . S
C1282 C1286 1.531 . S
C1283 C1282 1.369 . S
C1283 C1284 1.410 . S
C1283 C1291 1.503 . S
C1284 C1283 1.410 . S
C1284 C1285 1.392 . S
C1284 C1287 1.511 . S
C1285 C1281 1.376 . S
C1285 C1284 1.392 . S
C1285 H1297 0.929 . S
C1286 C1282 1.531 . S
C1286 H1298 0.960 . S
C1286 H1299 0.962 . S
C1286 H1300 0.960 . S
C1287 C1284 1.511 . S
C1287 H1301 0.961 . S
C1287 H1302 0.961 . S
C1287 H1303 0.961 . S
C1288 C1289 1.370 . S
C1288 C1290 1.363 . S
C1288 H1304 0.931 . S
C1289 C1288 1.370 . S
C1289 C1293 1.408 . S
C1290 C1288 1.363 . S
C1290 C1291 1.370 . S
C1290 C1294 1.524 . S
C1291 C1283 1.503 . S
C1291 C1290 1.370 . S
C1291 C1292 1.403 . S
C1292 C1291 1.403 . S
C1292 C1293 1.404 . S
C1292 C1295 1.539 . S
C1293 C1289 1.408 . S
C1293 C1292 1.404 . S
C1293 H1305 0.930 . S
C1294 C1290 1.524 . S
C1294 H1306 0.956 . S
C1294 H1307 0.961 . S
C1294 H1308 0.961 . S
C1295 C1292 1.539 . S
C1295 H1309 0.958 . S
C1295 H1310 0.961 . S
C1295 H1311 0.960 . S
H1296 C1280 0.931 . S
H1297 C1285 0.929 . S
H1298 C1286 0.960 . S
H1299 C1286 0.962 . S
H1300 C1286 0.960 . S
H1301 C1287 0.961 . S
H1302 C1287 0.961 . S
H1303 C1287 0.961 . S
H1304 C1288 0.931 . S
H1305 C1293 0.930 . S
H1306 C1294 0.956 . S
H1307 C1294 0.961 . S
H1308 C1294 0.961 . S
H1309 C1295 0.958 . S
H1310 C1295 0.961 . S
H1311 C1295 0.960 . S
C1312 C1313 1.391 . S
C1312 C1314 1.394 . S
C1312 H1328 0.931 . S
C1313 C1312 1.391 . S
C1313 C1317 1.376 . S
C1314 C1312 1.394 . S
C1314 C1315 1.369 . S
C1314 C1318 1.531 . S
C1315 C1314 1.369 . S
C1315 C1316 1.410 . S
C1315 C1323 1.503 . S
C1316 C1315 1.410 . S
C1316 C1317 1.392 . S
C1316 C1319 1.511 . S
C1317 C1313 1.376 . S
C1317 C1316 1.392 . S
C1317 H1329 0.929 . S
C1318 C1314 1.531 . S
C1318 H1330 0.960 . S
C1318 H1331 0.962 . S
C1318 H1332 0.960 . S
C1319 C1316 1.511 . S
C1319 H1333 0.961 . S
C1319 H1334 0.961 . S
C1319 H1335 0.961 . S
C1320 C1321 1.370 . S
C1320 C1322 1.363 . S
C1320 H1336 0.931 . S
C1321 C1320 1.370 . S
C1321 C1325 1.408 . S
C1322 C1320 1.363 . S
C1322 C1323 1.370 . S
C1322 C1326 1.524 . S
C1323 C1315 1.503 . S
C1323 C1322 1.370 . S
C1323 C1324 1.403 . S
C1324 C1323 1.403 . S
C1324 C1325 1.404 . S
C1324 C1327 1.539 . S
C1325 C1321 1.408 . S
C1325 C1324 1.404 . S
C1325 H1337 0.930 . S
C1326 C1322 1.524 . S
C1326 H1338 0.956 . S
C1326 H1339 0.961 . S
C1326 H1340 0.961 . S
C1327 C1324 1.539 . S
C1327 H1341 0.958 1_655 S
C1327 H1342 0.966 . S
C1327 H1343 0.964 . S
H1328 C1312 0.931 . S
H1329 C1317 0.929 . S
H1330 C1318 0.960 . S
H1331 C1318 0.962 . S
H1332 C1318 0.960 . S
H1333 C1319 0.961 . S
H1334 C1319 0.961 . S
H1335 C1319 0.961 . S
H1336 C1320 0.931 . S
H1337 C1325 0.930 . S
H1338 C1326 0.956 . S
H1339 C1326 0.961 . S
H1340 C1326 0.961 . S
H1341 C1327 0.958 1_455 S
H1342 C1327 0.966 . S
H1343 C1327 0.964 . S
C1344 C1345 1.391 . S
C1344 C1346 1.394 . S
C1344 H1360 0.931 . S
C1345 C1344 1.391 . S
C1345 C1349 1.376 . S
C1346 C1344 1.394 . S
C1346 C1347 1.369 . S
C1346 C1350 1.531 . S
C1347 C1346 1.369 . S
C1347 C1348 1.410 . S
C1347 C1355 1.503 . S
C1348 C1347 1.410 . S
C1348 C1349 1.392 . S
C1348 C1351 1.511 . S
C1349 C1345 1.376 . S
C1349 C1348 1.392 . S
C1349 H1361 0.929 . S
C1350 C1346 1.531 . S
C1350 H1362 0.960 . S
C1350 H1363 0.962 . S
C1350 H1364 0.960 . S
C1351 C1348 1.511 . S
C1351 H1365 0.961 . S
C1351 H1366 0.961 . S
C1351 H1367 0.961 . S
C1352 C1353 1.370 . S
C1352 C1354 1.363 . S
C1352 H1368 0.931 . S
C1353 C1352 1.370 . S
C1353 C1357 1.408 . S
C1354 C1352 1.363 . S
C1354 C1355 1.370 . S
C1354 C1358 1.524 . S
C1355 C1347 1.503 . S
C1355 C1354 1.370 . S
C1355 C1356 1.403 . S
C1356 C1355 1.403 . S
C1356 C1357 1.404 . S
C1356 C1359 1.539 . S
C1357 C1353 1.408 . S
C1357 C1356 1.404 . S
C1357 H1369 0.930 . S
C1358 C1354 1.524 . S
C1358 H1370 0.956 . S
C1358 H1371 0.961 . S
C1358 H1372 0.961 . S
C1359 C1356 1.539 . S
C1359 H1373 0.958 . S
C1359 H1374 0.961 . S
C1359 H1375 0.960 . S
H1360 C1344 0.931 . S
H1361 C1349 0.929 . S
H1362 C1350 0.960 . S
H1363 C1350 0.962 . S
H1364 C1350 0.960 . S
H1365 C1351 0.961 . S
H1366 C1351 0.961 . S
H1367 C1351 0.961 . S
H1368 C1352 0.931 . S
H1369 C1357 0.930 . S
H1370 C1358 0.956 . S
H1371 C1358 0.961 . S
H1372 C1358 0.961 . S
H1373 C1359 0.958 . S
H1374 C1359 0.961 . S
H1375 C1359 0.960 . S
C1376 C1377 1.391 . S
C1376 C1378 1.394 . S
C1376 H1392 0.931 . S
C1377 C1376 1.391 . S
C1377 C1381 1.376 . S
C1378 C1376 1.394 . S
C1378 C1379 1.369 . S
C1378 C1382 1.531 . S
C1379 C1378 1.369 . S
C1379 C1380 1.410 . S
C1379 C1387 1.503 . S
C1380 C1379 1.410 . S
C1380 C1381 1.392 . S
C1380 C1383 1.511 . S
C1381 C1377 1.376 . S
C1381 C1380 1.392 . S
C1381 H1393 0.929 . S
C1382 C1378 1.531 . S
C1382 H1394 0.960 . S
C1382 H1395 0.962 . S
C1382 H1396 0.960 . S
C1383 C1380 1.511 . S
C1383 H1397 0.961 . S
C1383 H1398 0.961 . S
C1383 H1399 0.961 . S
C1384 C1385 1.370 . S
C1384 C1386 1.363 . S
C1384 H1400 0.931 . S
C1385 C1384 1.370 . S
C1385 C1389 1.408 . S
C1386 C1384 1.363 . S
C1386 C1387 1.370 . S
C1386 C1390 1.524 . S
C1387 C1379 1.503 . S
C1387 C1386 1.370 . S
C1387 C1388 1.403 . S
C1388 C1387 1.403 . S
C1388 C1389 1.404 . S
C1388 C1391 1.539 . S
C1389 C1385 1.408 . S
C1389 C1388 1.404 . S
C1389 H1401 0.930 . S
C1390 C1386 1.524 . S
C1390 H1402 0.956 . S
C1390 H1403 0.961 . S
C1390 H1404 0.961 . S
C1391 C1388 1.539 . S
C1391 H1405 0.958 . S
C1391 H1406 0.961 . S
C1391 H1407 0.960 . S
H1392 C1376 0.931 . S
H1393 C1381 0.929 . S
H1394 C1382 0.960 . S
H1395 C1382 0.962 . S
H1396 C1382 0.960 . S
H1397 C1383 0.961 . S
H1398 C1383 0.961 . S
H1399 C1383 0.961 . S
H1400 C1384 0.931 . S
H1401 C1389 0.930 . S
H1402 C1390 0.956 . S
H1403 C1390 0.961 . S
H1404 C1390 0.961 . S
H1405 C1391 0.958 . S
H1406 C1391 0.961 . S
H1407 C1391 0.960 . S
C1408 C1409 1.391 . S
C1408 C1410 1.394 . S
C1408 H1424 0.931 . S
C1409 C1408 1.391 . S
C1409 C1413 1.376 . S
C1410 C1408 1.394 . S
C1410 C1411 1.369 . S
C1410 C1414 1.531 . S
C1411 C1410 1.369 . S
C1411 C1412 1.410 . S
C1411 C1419 1.503 . S
C1412 C1411 1.410 . S
C1412 C1413 1.392 . S
C1412 C1415 1.511 . S
C1413 C1409 1.376 . S
C1413 C1412 1.392 . S
C1413 H1425 0.929 1_655 S
C1414 C1410 1.531 . S
C1414 H1426 0.960 . S
C1414 H1427 0.962 . S
C1414 H1428 0.960 . S
C1415 C1412 1.511 . S
C1415 H1429 0.961 1_655 S
C1415 H1430 0.961 . S
C1415 H1431 0.961 1_655 S
C1416 C1417 1.370 . S
C1416 C1418 1.363 . S
C1416 H1432 0.931 . S
C1417 C1416 1.370 . S
C1417 C1421 1.408 . S
C1418 C1416 1.363 . S
C1418 C1419 1.370 . S
C1418 C1422 1.524 . S
C1419 C1411 1.503 . S
C1419 C1418 1.370 . S
C1419 C1420 1.403 . S
C1420 C1419 1.403 . S
C1420 C1421 1.404 . S
C1420 C1423 1.539 . S
C1421 C1417 1.408 . S
C1421 C1420 1.404 . S
C1421 H1433 0.930 . S
C1422 C1418 1.524 . S
C1422 H1434 0.956 . S
C1422 H1435 0.961 . S
C1422 H1436 0.961 . S
C1423 C1420 1.539 . S
C1423 H1437 0.958 . S
C1423 H1438 0.961 . S
C1423 H1439 0.960 . S
H1424 C1408 0.931 . S
H1425 C1413 0.929 1_455 S
H1426 C1414 0.960 . S
H1427 C1414 0.962 . S
H1428 C1414 0.960 . S
H1429 C1415 0.961 1_455 S
H1430 C1415 0.961 . S
H1431 C1415 0.961 1_455 S
H1432 C1416 0.931 . S
H1433 C1421 0.930 . S
H1434 C1422 0.956 . S
H1435 C1422 0.961 . S
H1436 C1422 0.961 . S
H1437 C1423 0.958 . S
H1438 C1423 0.961 . S
H1439 C1423 0.960 . S
C1440 C1441 1.391 . S
C1440 C1442 1.394 . S
C1440 H1456 0.931 . S
C1441 C1440 1.391 . S
C1441 C1445 1.376 . S
C1442 C1440 1.394 . S
C1442 C1443 1.369 . S
C1442 C1446 1.531 . S
C1443 C1442 1.369 . S
C1443 C1444 1.410 . S
C1443 C1451 1.503 . S
C1444 C1443 1.410 . S
C1444 C1445 1.392 . S
C1444 C1447 1.511 . S
C1445 C1441 1.376 . S
C1445 C1444 1.392 . S
C1445 H1457 0.929 . S
C1446 C1442 1.531 . S
C1446 H1458 0.960 . S
C1446 H1459 0.962 . S
C1446 H1460 0.960 . S
C1447 C1444 1.511 . S
C1447 H1461 0.961 . S
C1447 H1462 0.961 . S
C1447 H1463 0.961 . S
C1448 C1449 1.370 . S
C1448 C1450 1.363 . S
C1448 H1464 0.931 . S
C1449 C1448 1.370 . S
C1449 C1453 1.408 . S
C1450 C1448 1.363 . S
C1450 C1451 1.370 . S
C1450 C1454 1.524 . S
C1451 C1443 1.503 . S
C1451 C1450 1.370 . S
C1451 C1452 1.403 . S
C1452 C1451 1.403 . S
C1452 C1453 1.404 . S
C1452 C1455 1.539 . S
C1453 C1449 1.408 . S
C1453 C1452 1.404 . S
C1453 H1465 0.930 . S
C1454 C1450 1.524 . S
C1454 H1466 0.956 . S
C1454 H1467 0.961 . S
C1454 H1468 0.961 . S
C1455 C1452 1.539 . S
C1455 H1469 0.958 . S
C1455 H1470 0.961 . S
C1455 H1471 0.960 . S
H1456 C1440 0.931 . S
H1457 C1445 0.929 . S
H1458 C1446 0.960 . S
H1459 C1446 0.962 . S
H1460 C1446 0.960 . S
H1461 C1447 0.961 . S
H1462 C1447 0.961 . S
H1463 C1447 0.961 . S
H1464 C1448 0.931 . S
H1465 C1453 0.930 . S
H1466 C1454 0.956 . S
H1467 C1454 0.961 . S
H1468 C1454 0.961 . S
H1469 C1455 0.958 . S
H1470 C1455 0.961 . S
H1471 C1455 0.960 . S
C1472 C1473 1.391 . S
C1472 C1474 1.394 . S
C1472 H1488 0.931 . S
C1473 C1472 1.391 . S
C1473 C1477 1.376 . S
C1474 C1472 1.394 . S
C1474 C1475 1.369 . S
C1474 C1478 1.531 . S
C1475 C1474 1.369 . S
C1475 C1476 1.410 . S
C1475 C1483 1.503 . S
C1476 C1475 1.410 . S
C1476 C1477 1.392 . S
C1476 C1479 1.511 . S
C1477 C1473 1.376 . S
C1477 C1476 1.392 . S
C1477 H1489 0.929 . S
C1478 C1474 1.531 . S
C1478 H1490 0.960 . S
C1478 H1491 0.962 . S
C1478 H1492 0.960 . S
C1479 C1476 1.511 . S
C1479 H1493 0.961 . S
C1479 H1494 0.961 . S
C1479 H1495 0.961 . S
C1480 C1481 1.370 . S
C1480 C1482 1.363 . S
C1480 H1496 0.931 . S
C1481 C1480 1.370 . S
C1481 C1485 1.408 . S
C1482 C1480 1.363 . S
C1482 C1483 1.370 . S
C1482 C1486 1.524 . S
C1483 C1475 1.503 . S
C1483 C1482 1.370 . S
C1483 C1484 1.403 . S
C1484 C1483 1.403 . S
C1484 C1485 1.404 . S
C1484 C1487 1.539 . S
C1485 C1481 1.408 . S
C1485 C1484 1.404 . S
C1485 H1497 0.930 . S
C1486 C1482 1.524 . S
C1486 H1498 0.956 . S
C1486 H1499 0.961 . S
C1486 H1500 0.961 . S
C1487 C1484 1.539 . S
C1487 H1501 0.958 . S
C1487 H1502 0.961 . S
C1487 H1503 0.960 . S
H1488 C1472 0.931 . S
H1489 C1477 0.929 . S
H1490 C1478 0.960 . S
H1491 C1478 0.962 . S
H1492 C1478 0.960 . S
H1493 C1479 0.961 . S
H1494 C1479 0.961 . S
H1495 C1479 0.961 . S
H1496 C1480 0.931 . S
H1497 C1485 0.930 . S
H1498 C1486 0.956 . S
H1499 C1486 0.961 . S
H1500 C1486 0.961 . S
H1501 C1487 0.958 . S
H1502 C1487 0.961 . S
H1503 C1487 0.960 . S
C489 C389 1.338 . S
C481 C8 1.288 . S
C521 C409 1.371 . S
C513 C61 1.400 . S
C553 C423 1.386 . S
C545 C107 1.411 . S
C577 C139 1.430 . S
C585 C381 1.390 . S
C609 C192 1.367 . S
C617 C375 1.452 . S
C641 C238 1.369 . S
C649 C395 1.384 . S
C681 C403 1.317 . S
C673 C284 1.319 . S
C713 C417 1.397 . S
C705 C330 1.324 . S
C737 C100 1.333 . S
C745 C445 1.400 . S
C777 C459 1.323 . S
C769 C160 1.279 . S
C801 C15 1.360 . S
C809 C479 1.388 . S
C841 C431 1.455 . S
C833 C54 1.427 . S
C865 C291 1.387 . S
C873 C437 1.402 . S
C897 C337 1.428 . S
C905 C451 1.382 . S
C937 C465 1.360 1_556 S
C929 C199 1.408 . S
C961 C245 1.335 . S
C969 C473 1.334 . S
C1001 C404 1.732 . S
C993 C1 1.700 . S
C1033 C418 1.746 . S
C1025 C68 1.714 . S
C1057 C114 1.620 . S
C1065 C376 1.663 . S
C1089 C146 1.470 . S
C1097 C393 1.503 . S
C1121 C185 1.377 . S
C1129 C421 1.374 . S
C1161 C379 1.349 . S
C1153 C231 1.330 . S
C1193 C390 1.557 . S
C1185 C277 1.557 . S
C1225 C407 1.438 . S
C1217 C323 1.416 . S
C1257 C463 1.435 . S
C1249 C93 1.415 . S
C1289 C474 1.562 . S
C1281 C153 1.527 . S
C1313 C22 1.321 . S
C1321 C435 1.349 . S
C1353 C449 1.374 . S
C1345 C47 1.375 . S
C1385 C477 1.498 . S
C1377 C298 1.496 . S
C1409 C344 1.674 . S
C1417 C432 1.668 . S
C1449 C446 1.740 . S
C1441 C206 1.724 . S
C1481 C460 1.725 . S
C1473 C252 1.679 . S
