# Generated by pormake.
# Topology zzz, (3,6)-cn, num edge types: 1
# Building blocks:
#     Node 0, Type 0, BuildingBlock: PAMTOO_clean_linker_0, # of connection points: 3
#     Node 1, Type 0, BuildingBlock: PAMTOO_clean_linker_0, # of connection points: 3
#     Node 2, Type 0, BuildingBlock: PAMTOO_clean_linker_0, # of connection points: 3
#     Node 3, Type 0, BuildingBlock: PAMTOO_clean_linker_0, # of connection points: 3
#     Node 4, Type 0, BuildingBlock: PAMTOO_clean_linker_0, # of connection points: 3
#     Node 5, Type 0, BuildingBlock: PAMTOO_clean_linker_0, # of connection points: 3
#     Node 6, Type 0, BuildingBlock: PAMTOO_clean_linker_0, # of connection points: 3
#     Node 7, Type 0, BuildingBlock: PAMTOO_clean_linker_0, # of connection points: 3
#     Node 8, Type 1, BuildingBlock: KUMBOL_clean_sbu_0, # of connection points: 6
#     Node 9, Type 1, BuildingBlock: KUMBOL_clean_sbu_0, # of connection points: 6
#     Node 10, Type 1, BuildingBlock: KUMBOL_clean_sbu_0, # of connection points: 6
#     Node 11, Type 1, BuildingBlock: KUMBOL_clean_sbu_0, # of connection points: 6
#     Edge 12, Type (0, 1), BuildingBlock: KIFKEQ_clean_linker_1, # of connection points: 2
#     Edge 13, Type (0, 1), BuildingBlock: KIFKEQ_clean_linker_1, # of connection points: 2
#     Edge 14, Type (0, 1), BuildingBlock: KIFKEQ_clean_linker_1, # of connection points: 2
#     Edge 15, Type (0, 1), BuildingBlock: KIFKEQ_clean_linker_1, # of connection points: 2
#     Edge 16, Type (0, 1), BuildingBlock: KIFKEQ_clean_linker_1, # of connection points: 2
#     Edge 17, Type (0, 1), BuildingBlock: KIFKEQ_clean_linker_1, # of connection points: 2
#     Edge 18, Type (0, 1), BuildingBlock: KIFKEQ_clean_linker_1, # of connection points: 2
#     Edge 19, Type (0, 1), BuildingBlock: KIFKEQ_clean_linker_1, # of connection points: 2
#     Edge 20, Type (0, 1), BuildingBlock: KIFKEQ_clean_linker_1, # of connection points: 2
#     Edge 21, Type (0, 1), BuildingBlock: KIFKEQ_clean_linker_1, # of connection points: 2
#     Edge 22, Type (0, 1), BuildingBlock: KIFKEQ_clean_linker_1, # of connection points: 2
#     Edge 23, Type (0, 1), BuildingBlock: KIFKEQ_clean_linker_1, # of connection points: 2
#     Edge 24, Type (0, 1), BuildingBlock: KIFKEQ_clean_linker_1, # of connection points: 2
#     Edge 25, Type (0, 1), BuildingBlock: KIFKEQ_clean_linker_1, # of connection points: 2
#     Edge 26, Type (0, 1), BuildingBlock: KIFKEQ_clean_linker_1, # of connection points: 2
#     Edge 27, Type (0, 1), BuildingBlock: KIFKEQ_clean_linker_1, # of connection points: 2
#     Edge 28, Type (0, 1), BuildingBlock: KIFKEQ_clean_linker_1, # of connection points: 2
#     Edge 29, Type (0, 1), BuildingBlock: KIFKEQ_clean_linker_1, # of connection points: 2
#     Edge 30, Type (0, 1), BuildingBlock: KIFKEQ_clean_linker_1, # of connection points: 2
#     Edge 31, Type (0, 1), BuildingBlock: KIFKEQ_clean_linker_1, # of connection points: 2
#     Edge 32, Type (0, 1), BuildingBlock: KIFKEQ_clean_linker_1, # of connection points: 2
#     Edge 33, Type (0, 1), BuildingBlock: KIFKEQ_clean_linker_1, # of connection points: 2
#     Edge 34, Type (0, 1), BuildingBlock: KIFKEQ_clean_linker_1, # of connection points: 2
#     Edge 35, Type (0, 1), BuildingBlock: KIFKEQ_clean_linker_1, # of connection points: 2
# Relax obj value: 0.171
# Max RMSD: 0.163
# Mean RMSD: 0.115
data_MOF--net-zzz--node1-KUMBOL_clean_sbu_0--node2-PAMTOO_clean_linker_0--edge1-KIFKEQ_clean_linker_1
_symmetry_space_group_name_H-M    P1
_symmetry_Int_Tables_number       1
_symmetry_cell_setting            triclinic
loop_
_symmetry_equiv_pos_as_xyz
'x, y, z'
_cell_length_a     50.508254
_cell_length_b     50.70333
_cell_length_c     14.73041
_cell_angle_alpha  91.701822
_cell_angle_beta   90.102785
_cell_angle_gamma 89.947791
loop_
_atom_site_label
_atom_site_type_symbol
_atom_site_fract_x
_atom_site_fract_y
_atom_site_fract_z
_atom_type_partial_charge
H0 H 0.83106 0.58983 0.24363 0.0
H1 H 0.75882 0.57781 0.09396 0.0
H2 H 0.76934 0.54147 0.35223 0.0
H3 H 0.71587 0.58415 0.22689 0.0
C4 C 0.71261 0.5625 0.23111 0.0
O5 O 0.7359 0.54873 0.21274 0.0
H6 H 0.70666 0.5587 0.30215 0.0
C7 C 0.81107 0.58204 0.24001 0.0
C8 C 0.80224 0.56559 0.30856 0.0
C9 C 0.79571 0.58636 0.16238 0.0
C10 C 0.77049 0.57507 0.15477 0.0
C11 C 0.76041 0.55963 0.22397 0.0
C12 C 0.77655 0.55439 0.30056 0.0
H13 H 0.98143 0.83799 0.17716 0.0
H14 H 0.99284 0.75945 0.06844 0.0
H15 H 1.0179 0.77885 0.34138 0.0
H16 H 0.97853 0.72284 0.19999 0.0
C17 C 0.99965 0.71812 0.21424 0.0
O18 O 1.01537 0.74062 0.20874 0.0
H19 H 1.00033 0.71142 0.28535 0.0
C20 C 0.9872 0.8177 0.18751 0.0
C21 C 0.99905 0.81104 0.27043 0.0
C22 C 0.98506 0.79933 0.11447 0.0
C23 C 0.99404 0.77354 0.12494 0.0
C24 C 1.00543 0.7657 0.20608 0.0
C25 C 1.00824 0.78457 0.27932 0.0
H26 H 0.7156 0.96575 0.23982 0.0
H27 H 0.79335 0.96456 0.11999 0.0
H28 H 0.77578 1.01842 0.34308 0.0
H29 H 0.81688 0.0409 0.20053 0.0
C30 C 0.81878 0.02159 0.16338 0.0
O31 O 0.81283 1.00185 0.2236 0.0
H32 H 0.80424 0.02155 0.10643 0.0
C33 C 0.7361 0.97211 0.24007 0.0
C34 C 0.74371 0.99211 0.30229 0.0
C35 C 0.75352 0.96237 0.17261 0.0
C36 C 0.77967 0.97175 0.17166 0.0
C37 C 0.78789 0.99194 0.23223 0.0
C38 C 0.76977 1.00234 0.29762 0.0
H39 H 0.58356 0.72398 0.22471 0.0
H40 H 0.5844 0.80114 0.11223 0.0
H41 H 0.54074 0.78756 0.35774 0.0
H42 H 0.51892 0.84082 0.24211 0.0
C43 C 0.53345 0.833 0.19159 0.0
O44 O 0.55529 0.82359 0.23798 0.0
H45 H 0.52325 0.81666 0.15324 0.0
C46 C 0.57823 0.74472 0.23001 0.0
C47 C 0.56145 0.75346 0.30036 0.0
C48 C 0.58656 0.76167 0.16226 0.0
C49 C 0.57867 0.78813 0.16585 0.0
C50 C 0.56253 0.79773 0.23672 0.0
C51 C 0.55384 0.78035 0.30444 0.0
H52 H 0.23007 0.47766 0.11678 0.0
H53 H 0.30772 0.47927 0.23716 0.0
H54 H 0.28859 0.53164 0.0213 0.0
H55 H 0.31808 0.53473 0.2631 0.0
C56 C 0.33216 0.53573 0.20521 0.0
O57 O 0.3262 0.51655 0.13887 0.0
H58 H 0.32959 0.55537 0.17477 0.0
C59 C 0.2503 0.48485 0.11782 0.0
C60 C 0.25712 0.50492 0.05895 0.0
C61 C 0.26817 0.47559 0.18284 0.0
C62 C 0.29388 0.4859 0.18636 0.0
C63 C 0.30148 0.50606 0.12876 0.0
C64 C 0.28303 0.51565 0.06447 0.0
H65 H 0.08193 0.2191 0.13949 0.0
H66 H 0.08016 0.29916 0.24403 0.0
H67 H 0.03471 0.2772 1.0062 0.0
H68 H 0.02419 0.30944 0.24224 0.0
C69 C 0.02591 0.32361 0.1862 0.0
O70 O 0.04671 0.31647 0.12832 0.0
H71 H 1.00725 0.32216 0.14626 0.0
C72 C 0.07588 0.23948 0.13261 0.0
C73 C 0.05861 0.24572 0.06153 0.0
C74 C 0.08341 0.25842 0.19944 0.0
C75 C 0.07477 0.28451 0.19218 0.0
C76 C 0.05696 0.29149 0.12434 0.0
C77 C 0.04891 0.27207 0.05789 0.0
H78 H 0.34132 0.09311 0.08138 0.0
H79 H 0.26357 0.09402 0.20126 0.0
H80 H 0.28126 0.0404 0.97768 0.0
H81 H 0.25307 0.03681 0.21391 0.0
C82 C 0.23846 0.03683 0.1572 0.0
O83 O 0.24423 0.05672 0.0974 0.0
H84 H 0.24037 1.01759 0.11954 0.0
C85 C 0.32083 0.08672 0.08107 0.0
C86 C 0.31325 0.06676 1.01868 0.0
C87 C 0.3034 0.09636 0.14864 0.0
C88 C 0.27727 0.08693 0.1495 0.0
C89 C 0.26911 0.06677 0.08873 0.0
C90 C 0.28723 0.05647 0.02323 0.0
H91 H 0.46485 0.34 0.09393 0.0
H92 H 0.4665 0.26649 0.23178 0.0
H93 H 0.50837 0.27409 0.97928 0.0
H94 H 0.52204 0.24875 0.21445 0.0
C95 C 0.51698 0.23347 0.16134 0.0
O96 O 0.49519 0.24119 0.11105 0.0
H97 H 0.53429 0.23174 0.11503 0.0
C98 C 0.47044 0.31934 0.09519 0.0
C99 C 0.48679 0.30893 0.02631 0.0
C100 C 0.46333 0.30436 0.16991 0.0
C101 C 0.47158 0.27803 0.17359 0.0
C102 C 0.48751 0.26683 0.10481 0.0
C103 C 0.49548 0.28244 0.03132 0.0
Gd104 Gd 1.00661 0.03754 0.56918 0.0
Gd105 Gd 0.05073 0.02105 0.7522 0.0
C106 C 0.05629 0.0898 0.96366 0.0
C107 C 0.09865 0.10936 0.92812 0.0
C108 C 0.08307 0.07034 0.84307 0.0
C109 C 0.06008 0.07048 0.89348 0.0
C110 C 0.10296 0.0894 0.86176 0.0
C111 C 0.07536 0.10954 0.9791 0.0
C112 C 0.03367 0.0885 1.01757 0.0
C113 C 1.01616 0.06762 1.00396 0.0
N114 N 0.04185 0.05125 0.8763 0.0
C115 C 1.02088 0.04884 0.93453 0.0
H116 H 1.00792 0.03213 0.93152 0.0
C117 C 0.11147 0.04706 0.74277 0.0
N118 N 0.08678 0.05063 0.78003 0.0
C119 C 0.13154 0.06563 0.75765 0.0
C120 C 0.12705 0.08728 0.8158 0.0
H121 H 0.11625 0.02962 0.70233 0.0
H122 H 0.07252 0.12471 0.03157 0.0
H123 H 0.05045 1.01938 0.39996 0.0
H124 H 0.03003 0.10297 0.07174 0.0
H125 H 0.9992 0.06566 0.04807 0.0
H126 H 0.11353 0.1243 0.9423 0.0
H127 H 0.94055 0.03609 0.61386 0.0
H128 H 1.02229 0.94988 0.26478 0.0
H129 H 0.05673 0.98393 0.28821 0.0
H130 H 0.93564 0.93871 0.38659 0.0
H131 H 0.15065 0.06291 0.72558 0.0
H132 H 0.14275 0.1015 0.82818 0.0
H133 H 0.97734 0.93303 0.30262 0.0
H134 H 0.90284 1.00633 0.58998 0.0
N135 N 1.0136 1.00511 0.45054 0.0
C136 C 1.01954 0.96535 0.31624 0.0
C137 C 0.03904 0.98442 0.32963 0.0
C138 C 0.9963 0.96705 0.36717 0.0
C139 C 0.99372 0.98759 0.43377 0.0
C140 C 0.03555 1.00443 0.39586 0.0
N141 N 0.96806 1.01151 0.54044 0.0
C142 C 0.97037 0.99069 0.48109 0.0
C143 C 0.92184 1.00137 0.56014 0.0
C144 C 0.92463 0.97866 0.5055 0.0
C145 C 0.94358 1.01797 0.57484 0.0
C146 C 0.94885 0.97348 0.46294 0.0
H147 H 0.90767 0.96595 0.49337 0.0
O148 O 0.97553 0.06255 0.5167 0.0
O149 O 0.03395 0.05499 0.67686 0.0
O150 O 1.00817 1.01074 0.79311 0.0
O151 O 0.98111 0.03291 0.69323 0.0
O152 O 0.9961 0.07078 0.66741 0.0
O153 O 1.01435 0.06269 0.45567 0.0
O154 O 0.08423 0.99863 0.80135 0.0
O155 O 0.02314 1.00364 0.64548 0.0
O156 O 0.04917 0.04696 0.52684 0.0
O157 O 0.07606 0.02496 0.62757 0.0
O158 O 0.06063 0.98737 0.6544 0.0
O159 O 0.04587 0.99464 0.86405 0.0
C160 C 1.01863 0.07312 0.70797 0.0
C161 C 0.95181 0.95229 0.40033 0.0
C162 C 0.9755 0.94911 0.35235 0.0
C163 C 0.992 0.07526 0.46647 0.0
C164 C 0.9937 0.10388 0.48656 0.0
C165 C 0.97052 0.11871 0.50071 0.0
C166 C 1.01843 0.11604 0.50074 0.0
C167 C 1.02019 0.14287 0.52615 0.0
C168 C 0.97207 0.14519 0.5289 0.0
C169 C 0.9967 0.15727 0.54138 0.0
C170 C 0.98475 1.02023 0.76904 0.0
C171 C 0.03798 0.98511 0.61462 0.0
C172 C 0.06924 0.98423 0.85151 0.0
C173 C 0.07003 0.95573 0.8293 0.0
C174 C 0.0943 0.94234 0.8252 0.0
C175 C 0.04675 0.94232 0.80343 0.0
C176 C 0.04726 0.91542 0.77842 0.0
C177 C 0.09521 0.91586 0.79642 0.0
C178 C 0.07188 0.90239 0.77371 0.0
C179 C 0.07255 0.03763 0.55172 0.0
H180 H 0.95123 0.10967 0.49161 0.0
H181 H 0.03647 0.10468 0.49183 0.0
H182 H 0.95411 0.1565 0.53994 0.0
H183 H 0.99727 0.17813 0.55933 0.0
H184 H 0.11256 0.95246 0.84289 0.0
H185 H 0.02802 0.95276 0.80357 0.0
H186 H 0.114 0.9056 0.79338 0.0
H187 H 0.0731 0.88152 0.75649 0.0
Gd188 Gd 0.5214 1.00563 0.56887 0.0
Gd189 Gd 0.53564 0.05357 0.75283 0.0
C190 C 0.47302 0.08849 0.94804 0.0
C191 C 0.4747 0.13506 0.91461 0.0
C192 C 0.5037 0.10375 0.83524 0.0
C193 C 0.493 0.08333 0.88279 0.0
C194 C 0.49508 0.12995 0.85183 0.0
C195 C 0.46365 0.11435 0.96249 0.0
C196 C 0.46339 0.06761 0.99814 0.0
C197 C 0.47414 0.04252 0.9844 0.0
N198 N 0.50271 0.0586 0.86751 0.0
C199 C 0.49403 0.03841 0.9196 0.0
H200 H 0.50136 1.01867 0.9102 0.0
C201 C 0.53646 0.1181 0.73378 0.0
N202 N 0.52338 0.09817 0.77547 0.0
C203 C 0.52865 0.14436 0.74794 0.0
C204 C 0.50765 0.1503 0.80646 0.0
H205 H 0.55259 0.11362 0.68774 0.0
H206 H 0.44823 0.11861 1.01185 0.0
H207 H 0.55505 0.04128 0.41193 0.0
H208 H 0.44799 0.07072 0.04845 0.0
H209 H 0.46701 0.02623 0.02339 0.0
H210 H 0.4677 0.15502 0.92782 0.0
H211 H 0.50571 0.94537 0.63487 0.0
H212 H 0.60769 0.98981 0.26778 0.0
H213 H 0.58881 0.03421 0.29637 0.0
H214 H 0.58889 0.905 0.38586 0.0
H215 H 0.53876 0.15997 0.71341 0.0
H216 H 0.50163 0.17066 0.81746 0.0
H217 H 0.60764 0.94174 0.30174 0.0
H218 H 0.51975 0.89917 0.60708 0.0
N219 N 0.55405 1.00117 0.45302 0.0
C220 C 0.59261 0.99271 0.31935 0.0
C221 C 0.58194 1.01775 0.33509 0.0
C222 C 0.58331 0.97162 0.3691 0.0
C223 C 0.56375 0.9765 0.43605 0.0
C224 C 0.56241 0.02158 0.40134 0.0
N225 N 0.53419 0.96121 0.54526 0.0
C226 C 0.55347 0.95589 0.4837 0.0
C227 C 0.52949 0.91491 0.5721 0.0
C228 C 0.55002 0.90923 0.51138 0.0
C229 C 0.52159 0.94109 0.58755 0.0
C230 C 0.56209 0.92976 0.46546 0.0
H231 H 0.55606 0.88892 0.49918 0.0
O232 O 0.48855 0.98211 0.51734 0.0
O233 O 0.50406 0.0319 0.67767 0.0
O234 O 0.53461 1.01175 0.80626 0.0
O235 O 0.54217 0.9836 0.68113 0.0
O236 O 0.48975 0.99392 0.66875 0.0
O237 O 0.49668 1.01991 0.45961 0.0
O238 O 0.56854 0.0768 0.80556 0.0
O239 O 0.55292 0.02732 0.64388 0.0
O240 O 0.52178 0.0476 0.51596 0.0
O241 O 0.5147 0.0757 0.64156 0.0
O242 O 0.56729 0.06521 0.65265 0.0
O243 O 0.56018 0.03888 0.86194 0.0
C244 C 0.48683 1.01659 0.70919 0.0
C245 C 0.58196 0.9249 0.40057 0.0
C246 C 0.5926 0.94581 0.35263 0.0
C247 C 0.47908 1.00152 0.47148 0.0
C248 C 0.45205 1.01028 0.49718 0.0
C249 C 0.43495 0.99296 0.54141 0.0
C250 C 0.44402 0.03657 0.48579 0.0
C251 C 0.41916 0.04548 0.5173 0.0
C252 C 0.41069 1.00183 0.57521 0.0
C253 C 0.40279 0.02784 0.56336 0.0
C254 C 0.54101 0.98828 0.77016 0.0
C255 C 0.57014 0.04256 0.61205 0.0
C256 C 0.5779 0.05721 0.85076 0.0
C257 C 0.60488 0.04836 0.82481 0.0
C258 C 0.62198 0.06562 0.78028 0.0
C259 C 0.61285 0.02206 0.83622 0.0
C260 C 0.63766 1.01307 0.80443 0.0
C261 C 0.64618 0.05667 0.7462 0.0
C262 C 0.65403 0.03065 0.75807 0.0
C263 C 0.51548 0.07105 0.55253 0.0
H264 H 0.44058 0.97266 0.55187 0.0
H265 H 0.45712 0.05014 0.45242 0.0
H266 H 0.39781 0.98841 0.61 0.0
H267 H 0.38333 0.03371 0.58715 0.0
H268 H 0.6164 0.08594 0.76978 0.0
H269 H 0.59975 1.00855 0.86983 0.0
H270 H 0.65906 0.07004 0.71118 0.0
H271 H 0.67345 0.02472 0.73407 0.0
Gd272 Gd 0.50313 0.53907 0.74657 0.0
Gd273 Gd 0.5606 0.52179 0.60278 0.0
C274 C 0.64407 0.52766 0.72689 0.0
C275 C 0.66306 0.56416 0.64629 0.0
C276 C 0.61843 0.54889 0.61125 0.0
C277 C 0.62033 0.53031 0.67705 0.0
C278 C 0.64012 0.56542 0.59263 0.0
C279 C 0.66503 0.54528 0.71344 0.0
C280 C 0.64637 0.50682 0.78635 0.0
C281 C 0.62579 0.48868 0.79201 0.0
N282 N 0.59968 0.51358 0.68776 0.0
C283 C 0.60268 0.49216 0.74123 0.0
H284 H 0.58725 0.47783 0.74751 0.0
C285 C 0.59569 0.56327 0.48196 0.0
N286 N 0.59625 0.54909 0.55969 0.0
C287 C 0.61646 0.58025 0.46115 0.0
C288 C 0.63859 0.58176 0.51791 0.0
H289 H 0.57883 0.56179 0.43692 0.0
H290 H 0.6832 0.54383 0.75224 0.0
H291 H 0.47378 0.58343 0.60694 0.0
H292 H 0.66421 0.50414 0.82602 0.0
H293 H 0.6276 0.47205 0.83604 0.0
H294 H 0.67977 0.57695 0.63398 0.0
H295 H 0.49202 0.49354 0.90143 0.0
H296 H 0.39353 0.56061 0.5657 0.0
H297 H 0.43082 0.59064 0.53674 0.0
H298 H 0.38258 0.48759 0.76035 0.0
H299 H 0.61547 0.59199 0.40105 0.0
H300 H 0.65482 0.5947 0.50124 0.0
H301 H 0.37586 0.52192 0.64809 0.0
H302 H 0.45572 0.46468 0.95065 0.0
N303 N 0.46217 0.5486 0.67526 0.0
C304 C 0.41256 0.55719 0.59738 0.0
C305 C 0.43354 0.57418 0.58097 0.0
C306 C 0.41621 0.53635 0.65609 0.0
C307 C 0.44147 0.53265 0.69518 0.0
C308 C 0.45817 0.56981 0.6214 0.0
N309 N 0.4693 0.51112 0.79736 0.0
C310 C 0.44519 0.51329 0.75795 0.0
C311 C 0.45249 0.47817 0.89611 0.0
C312 C 0.42795 0.47916 0.85276 0.0
C313 C 0.47296 0.49459 0.86821 0.0
C314 C 0.4239 0.49714 0.78379 0.0
H315 H 0.41209 0.46644 0.87451 0.0
O316 O 0.49484 0.547 0.88879 0.0
O317 O 0.54757 0.53822 0.73736 0.0
O318 O 0.54622 0.48668 0.68485 0.0
O319 O 0.50176 0.49508 0.71366 0.0
O320 O 0.53094 0.52354 0.85316 0.0
O321 O 0.49752 0.57944 0.79643 0.0
O322 O 0.57311 0.51139 0.4657 0.0
O323 O 0.51674 0.52426 0.61215 0.0
O324 O 0.51489 0.57506 0.66583 0.0
O325 O 0.5565 0.56632 0.60208 0.0
O326 O 0.53279 0.53396 0.4895 0.0
O327 O 0.56503 0.48063 0.56016 0.0
C328 C 0.55291 0.52918 0.81444 0.0
C329 C 0.39909 0.49998 0.74208 0.0
C330 C 0.39526 0.51954 0.67827 0.0
C331 C 0.49697 0.57238 0.88101 0.0
C332 C 0.51579 0.58512 0.94465 0.0
C333 C 0.51216 0.58209 0.03807 0.0
C334 C 0.53803 0.59891 0.91367 0.0
C335 C 0.55601 0.61063 0.97584 0.0
C336 C 0.53031 0.59282 0.10001 0.0
C337 C 0.55191 0.60716 0.06953 0.0
C338 C 0.52218 0.47869 0.70832 0.0
C339 C 0.51091 0.53113 0.53282 0.0
C340 C 0.56885 0.48642 0.47559 0.0
C341 C 0.55115 0.47414 0.40732 0.0
C342 C 0.5578 0.47551 0.31525 0.0
C343 C 0.52702 0.46256 0.43231 0.0
C344 C 0.50998 0.45156 0.3658 0.0
C345 C 0.54072 0.46532 0.24876 0.0
C346 C 0.51711 0.45328 0.27355 0.0
C347 C 0.5364 0.58232 0.62132 0.0
H348 H 0.49536 0.57121 0.06306 0.0
H349 H 0.54121 0.60064 0.84141 0.0
H350 H 0.52733 0.59049 0.1721 0.0
H351 H 0.56471 0.61639 0.12015 0.0
H352 H 0.57613 0.48469 0.2948 0.0
H353 H 0.52156 0.462 0.5033 0.0
H354 H 0.54599 0.46636 0.17776 0.0
H355 H 0.505 0.44444 0.22013 0.0
Gd356 Gd 1.01786 0.50027 0.76123 0.0
Gd357 Gd 0.03757 0.55082 0.60288 0.0
C358 C 0.03694 0.63964 0.67373 0.0
C359 C 1.00318 0.65565 0.57143 0.0
C360 C 1.01513 0.60913 0.56889 0.0
C361 C 0.03323 0.61376 0.63772 0.0
C362 C 1.00033 0.6301 0.53338 0.0
C363 C 1.02141 0.6604 0.6417 0.0
C364 C 0.05662 0.64407 0.7391 0.0
C365 C 0.07268 0.6232 0.76447 0.0
N366 N 0.0481 0.59324 0.6664 0.0
C367 C 0.06842 0.59795 0.72651 0.0
H368 H 0.08119 0.58248 0.74876 0.0
C369 C 0.99723 0.57927 0.45902 0.0
N370 N 1.01287 0.58428 0.53363 0.0
C371 C 0.98229 0.59941 0.42116 0.0
C372 C 0.98357 0.6249 0.45924 0.0
H373 H 0.99576 0.55951 0.42997 0.0
H374 H 0.02383 0.68031 0.6692 0.0
H375 H 0.97113 0.47245 0.62036 0.0
H376 H 0.05999 0.6636 0.7687 0.0
H377 H 0.08833 0.6265 0.8138 0.0
H378 H 0.99181 0.67196 0.5457 0.0
H379 H 0.05758 0.48418 0.93344 0.0
H380 H 0.99206 0.39241 0.56295 0.0
H381 H 0.9623 0.43043 0.54186 0.0
H382 H 0.06525 0.37782 0.76184 0.0
H383 H 0.96964 0.5952 0.36314 0.0
H384 H 0.97195 0.64049 0.42991 0.0
H385 H 0.03102 0.37316 0.64338 0.0
H386 H 0.08591 0.44709 0.97913 0.0
N387 N 1.0065 0.45962 0.68566 0.0
C388 C 0.99613 0.41101 0.59832 0.0
C389 C 0.97929 0.4324 0.58644 0.0
C390 C 1.01749 0.41365 0.65823 0.0
C391 C 1.02199 0.4384 0.70221 0.0
C392 C 0.98454 0.45648 0.63168 0.0
N393 N 0.04311 0.46437 0.81418 0.0
C394 C 0.04117 0.44097 0.76814 0.0
C395 C 0.0737 0.44515 0.91884 0.0
C396 C 0.07349 0.42158 0.86756 0.0
C397 C 0.05781 0.46617 0.89238 0.0
C398 C 0.0565 0.41898 0.79274 0.0
H399 H 0.08557 0.40518 0.88865 0.0
O400 O 1.00797 0.4927 0.90125 0.0
O401 O 1.02154 0.54351 0.73983 0.0
O402 O 0.07329 0.54097 0.69087 0.0
O403 O 0.06293 0.50263 0.7672 0.0
O404 O 0.0329 0.53066 0.86516 0.0
O405 O 0.97678 0.49963 0.80457 0.0
O406 O 0.04771 0.55348 0.46046 0.0
O407 O 0.03416 0.50709 0.62358 0.0
O408 O 0.98231 0.51382 0.67602 0.0
O409 O 0.99323 0.55513 0.62271 0.0
O410 O 1.01879 0.52128 0.50484 0.0
O411 O 0.07878 0.54993 0.56027 0.0
C412 C 0.02991 0.55129 0.81728 0.0
C413 C 0.0534 0.39482 0.74488 0.0
C414 C 0.03389 0.39215 0.67763 0.0
C415 C 0.98317 0.49838 0.89003 0.0
C416 C 0.97268 0.51904 0.95253 0.0
C417 C 0.97735 0.51718 0.04595 0.0
C418 C 0.95897 0.54104 0.91998 0.0
C419 C 0.94859 0.56038 0.9806 0.0
C420 C 0.96826 0.5368 0.10623 0.0
C421 C 0.95376 0.55803 0.07432 0.0
C422 C 0.07989 0.52111 0.74299 0.0
C423 C 0.0238 0.50019 0.54797 0.0
C424 C 0.07228 0.54712 0.47476 0.0
C425 C 0.08184 0.52292 0.42627 0.0
C426 C 0.06699 0.5113 0.35472 0.0
C427 C 0.10493 0.5102 0.4554 0.0
C428 C 0.11346 0.48637 0.41338 0.0
C429 C 0.07484 0.48732 0.31453 0.0
C430 C 0.0979 0.47492 0.34329 0.0
C431 C 0.97564 0.53645 0.63847 0.0
H432 H 0.98815 0.50058 0.07225 0.0
H433 H 0.95608 0.54284 0.84761 0.0
H434 H 0.97185 0.53519 0.17834 0.0
H435 H 0.94568 0.57186 0.12427 0.0
H436 H 0.049 0.52044 0.33076 0.0
H437 H 0.11631 0.51892 0.51086 0.0
H438 H 0.06314 0.47843 0.26012 0.0
H439 H 0.10399 0.4569 0.30802 0.0
H440 H 0.21189 0.08162 0.22418 0.0
H441 H 0.20385 0.99721 0.19326 0.0
H442 H 0.17081 0.08341 0.3141 0.0
H443 H 0.16328 0.9989 0.2826 0.0
H444 H 0.11672 1.0067 0.54712 0.0
H445 H 0.15458 1.00835 0.44607 0.0
H446 H 0.1199 0.07448 0.31155 0.0
H447 H 0.08146 0.07284 0.41403 0.0
C448 C 0.20102 0.06356 0.23451 0.0
C449 C 0.21093 0.03933 0.19958 0.0
C450 C 0.17751 0.06456 0.2863 0.0
C451 C 0.1637 0.04127 0.30634 0.0
C452 C 0.1734 1.01722 0.26954 0.0
C453 C 0.1966 1.01627 0.21737 0.0
C454 C 0.11709 0.02182 0.49674 0.0
C455 C 0.09592 0.03974 0.48958 0.0
C456 C 0.13881 0.02258 0.43789 0.0
C457 C 0.14037 0.04143 0.36987 0.0
C458 C 0.11945 0.05974 0.36323 0.0
C459 C 0.09736 0.05873 0.42175 0.0
H460 H 0.47982 0.22221 0.29175 0.0
H461 H 0.54424 0.18663 0.1409 0.0
H462 H 0.47579 0.18238 0.38085 0.0
H463 H 0.54101 0.14726 0.23102 0.0
H464 H 0.52092 0.07158 0.36649 0.0
H465 H 0.51775 0.10898 0.26748 0.0
H466 H 0.49683 0.15947 0.49771 0.0
H467 H 0.49866 0.12169 0.59566 0.0
C468 C 0.49288 0.20571 0.27683 0.0
C469 C 0.51217 0.20755 0.20859 0.0
C470 C 0.49083 0.18292 0.3287 0.0
C471 C 0.50815 0.16133 0.3142 0.0
C472 C 0.52698 0.16307 0.24398 0.0
C473 C 0.52894 0.18578 0.19213 0.0
C474 C 0.51555 0.09059 0.39633 0.0
C475 C 0.51098 0.09357 0.4904 0.0
C476 C 0.51388 0.11224 0.3392 0.0
C477 C 0.50756 0.13768 0.37403 0.0
C478 C 0.50176 0.14037 0.4675 0.0
C479 C 0.50325 0.11865 0.52447 0.0
H480 H 0.36645 0.57535 0.25289 0.0
H481 H 0.35996 0.49066 0.25375 0.0
H482 H 0.40862 0.57314 0.33203 0.0
H483 H 0.40305 0.48812 0.33093 0.0
H484 H 0.46882 0.49697 0.55419 0.0
H485 H 0.42658 0.49642 0.47106 0.0
H486 H 0.45338 0.56209 0.31502 0.0
H487 H 0.4948 0.56294 0.39987 0.0
C488 C 0.37443 0.55612 0.26783 0.0
C489 C 0.36012 0.53316 0.24395 0.0
C490 C 0.39877 0.5548 0.31346 0.0
C491 C 0.40981 0.53041 0.33739 0.0
C492 C 0.39536 0.50732 0.31418 0.0
C493 C 0.37079 0.5087 0.26864 0.0
C494 C 0.46536 0.51152 0.50314 0.0
C495 C 0.48468 0.53073 0.48627 0.0
C496 C 0.4413 0.51097 0.4542 0.0
C497 C 0.43605 0.52952 0.38668 0.0
C498 C 0.45605 0.54797 0.36796 0.0
C499 C 0.47996 0.54843 0.41649 0.0
H500 H 0.98599 0.35762 0.23006 0.0
H501 H 0.07076 0.35112 0.2518 0.0
H502 H 0.98695 0.39878 0.31798 0.0
H503 H 0.0721 0.3935 0.33786 0.0
H504 H 0.06024 0.45916 0.56747 0.0
H505 H 0.06276 0.41752 0.47738 0.0
H506 H 0.99681 0.44304 0.31463 0.0
H507 H 0.99376 0.48339 0.40657 0.0
C508 C 1.00504 0.36544 0.25134 0.0
C509 C 0.02835 0.35133 0.23041 0.0
C510 C 1.00565 0.38929 0.30221 0.0
C511 C 0.02966 0.40023 0.33469 0.0
C512 C 0.05314 0.38598 0.31461 0.0
C513 C 0.05246 0.36179 0.26387 0.0
C514 C 0.04601 0.45549 0.51351 0.0
C515 C 0.02604 0.47418 0.49696 0.0
C516 C 0.04767 0.43175 0.46059 0.0
C517 C 0.0296 0.4262 0.38895 0.0
C518 C 1.01055 0.4457 0.3706 0.0
C519 C 1.00885 0.46913 0.42333 0.0
H520 H 0.85409 0.06087 0.13021 0.0
H521 H 0.84481 0.97671 0.09461 0.0
H522 H 0.89472 0.05899 0.04121 0.0
H523 H 0.88594 0.97472 1.00495 0.0
H524 H 0.97539 0.98438 0.90464 0.0
H525 H 0.93697 0.98282 1.0074 0.0
H526 H 0.90334 0.05028 0.87753 0.0
H527 H 0.94116 0.05186 0.77642 0.0
C528 C 0.86108 0.04181 0.10516 0.0
C529 C 0.84637 1.01888 0.12148 0.0
C530 C 0.88431 0.04076 0.05316 0.0
C531 C 0.89368 1.01673 1.01506 0.0
C532 C 0.87951 0.99355 0.03375 0.0
C533 C 0.85596 0.99466 0.0854 0.0
C534 C 0.95971 0.99878 0.898 0.0
C535 C 0.96142 1.01812 0.8314 0.0
C536 C 0.93763 0.99784 0.95668 0.0
C537 C 0.91701 1.01654 0.95144 0.0
C538 C 0.91886 0.03572 0.88466 0.0
C539 C 0.94056 0.03644 0.82568 0.0
H540 H 0.55393 0.88227 0.23421 0.0
H541 H 0.52846 0.8337 1.00552 0.0
H542 H 0.56014 0.9195 0.1341 0.0
H543 H 0.53371 0.87083 0.90575 0.0
H544 H 0.55916 0.93786 0.72984 0.0
H545 H 0.56151 0.90043 0.82983 0.0
H546 H 0.53501 0.95042 0.05425 0.0
H547 H 0.5332 0.98771 0.95497 0.0
C548 C 0.54999 0.87949 0.16225 0.0
C549 C 0.54077 0.855 0.12792 0.0
C550 C 0.55324 0.90092 0.10472 0.0
C551 C 0.54722 0.89852 1.01113 0.0
C552 C 0.53891 0.87362 0.9767 0.0
C553 C 0.53576 0.85223 0.03415 0.0
C554 C 0.55367 0.94087 0.80032 0.0
C555 C 0.54512 0.96583 0.83292 0.0
C556 C 0.55505 0.9193 0.8581 0.0
C557 C 0.54808 0.92201 0.95066 0.0
C558 C 0.54071 0.9473 0.98394 0.0
C559 C 0.53938 0.96883 0.92625 0.0
H560 H 0.71063 0.56735 0.04443 0.0
H561 H 0.66357 0.54203 0.26939 0.0
H562 H 0.67295 0.55946 0.94143 0.0
H563 H 0.62592 0.53473 0.16816 0.0
H564 H 0.57009 0.50019 0.95383 0.0
H565 H 0.60892 0.50693 0.05012 0.0
H566 H 0.62926 0.57618 0.90127 0.0
H567 H 0.59035 0.56885 0.80326 0.0
C568 C 0.69235 0.55977 0.07164 0.0
C569 C 0.69035 0.55488 0.16499 0.0
C570 C 0.67058 0.55558 1.01284 0.0
C571 C 0.64614 0.54642 0.04582 0.0
C572 C 0.64437 0.54134 0.13925 0.0
C573 C 0.66605 0.54553 0.19772 0.0
C574 C 0.58297 0.51676 0.94125 0.0
C575 C 0.57754 0.53351 0.86919 0.0
C576 C 0.60522 0.52079 0.99706 0.0
C577 C 0.62257 0.54209 0.98401 0.0
C578 C 0.61679 0.55926 0.91273 0.0
C579 C 0.59448 0.55509 0.85634 0.0
H580 H 0.99449 0.71412 0.02617 0.0
H581 H 1.02259 0.67037 0.25327 0.0
H582 H 1.0032 0.67603 0.92424 0.0
H583 H 0.03031 0.63207 0.15336 0.0
H584 H 0.06056 0.57089 0.95344 0.0
H585 H 0.05594 0.61196 0.04154 0.0
H586 H 0.98876 0.6331 0.87673 0.0
H587 H 0.99429 0.59198 0.78613 0.0
C588 C 1.00294 0.69653 0.05427 0.0
C589 C 1.00821 0.69566 0.14818 0.0
C590 C 1.00757 0.6744 0.99582 0.0
C591 C 1.01754 0.65052 0.02934 0.0
C592 C 0.02317 0.64996 0.12332 0.0
C593 C 1.01867 0.67207 0.18135 0.0
C594 C 0.04502 0.5845 0.9351 0.0
C595 C 0.02811 0.57823 0.86167 0.0
C596 C 0.04211 0.60809 0.98655 0.0
C597 C 1.02171 0.62619 0.96817 0.0
C598 C 1.00495 0.62008 0.89323 0.0
C599 C 1.00808 0.59643 0.84083 0.0
H600 H 0.12458 0.22381 0.22737 0.0
H601 H 0.06669 0.27211 0.36944 0.0
H602 H 0.12758 0.19551 0.35799 0.0
H603 H 0.06861 0.24375 0.49629 0.0
H604 H 0.03896 0.18239 0.64145 0.0
H605 H 0.07429 0.21328 0.60666 0.0
H606 H 0.0945 0.16491 0.36965 0.0
H607 H 0.06038 0.13442 0.40576 0.0
C608 C 0.11327 0.22896 0.28777 0.0
C609 C 0.09443 0.24933 0.28653 0.0
C610 C 0.11487 0.2127 0.36265 0.0
C611 C 0.09684 0.21605 0.43505 0.0
C612 C 0.08228 0.23974 0.44113 0.0
C613 C 0.08106 0.25622 0.36729 0.0
C614 C 0.05163 0.17809 0.58365 0.0
C615 C 0.04611 0.15662 0.52417 0.0
C616 C 0.07194 0.19574 0.56369 0.0
C617 C 0.08639 0.19258 0.4823 0.0
C618 C 0.08372 0.16863 0.43213 0.0
C619 C 0.06374 0.15093 0.45265 0.0
H620 H 0.29262 0.08916 0.32758 0.0
H621 H 0.34009 0.13667 0.15181 0.0
H622 H 0.32413 0.09606 0.44823 0.0
H623 H 0.37228 0.14337 0.27396 0.0
H624 H 0.38721 0.07958 0.61732 0.0
H625 H 0.35787 0.11255 0.55344 0.0
H626 H 0.39881 0.10401 0.29686 0.0
H627 H 0.42716 0.07105 0.35887 0.0
C628 C 0.30902 0.10237 0.31593 0.0
C629 C 0.31457 0.1112 0.22846 0.0
C630 C 0.32729 0.10643 0.38597 0.0
C631 C 0.35148 0.11912 0.36918 0.0
C632 C 0.35425 0.13266 0.28779 0.0
C633 C 0.33586 0.12871 0.21765 0.0
C634 C 0.39033 0.08532 0.54795 0.0
C635 C 0.40865 0.07169 0.49195 0.0
C636 C 0.37373 0.10445 0.51174 0.0
C637 C 0.37532 0.11025 0.41917 0.0
C638 C 0.39674 0.1 0.3683 0.0
C639 C 0.41312 0.08078 0.40411 0.0
H640 H 0.4177 0.33354 0.18405 0.0
H641 H 0.48518 0.30765 0.337 0.0
H642 H 0.41196 0.3709 0.29002 0.0
H643 H 0.4812 0.34546 0.43795 0.0
H644 H 0.50417 0.4198 0.51363 0.0
H645 H 0.47462 0.38242 0.5209 0.0
H646 H 0.43455 0.40838 0.27924 0.0
H647 H 0.46199 0.44701 0.27887 0.0
C648 C 0.43069 0.33538 0.24249 0.0
C649 C 0.45245 0.3184 0.25083 0.0
C650 C 0.42774 0.35703 0.30268 0.0
C651 C 0.44736 0.36271 0.36868 0.0
C652 C 0.46598 0.34273 0.38687 0.0
C653 C 0.46842 0.32072 0.32844 0.0
C654 C 0.48825 0.41822 0.46447 0.0
C655 C 0.48669 0.43538 0.39127 0.0
C656 C 0.47142 0.39639 0.46785 0.0
C657 C 0.4537 0.39074 0.39584 0.0
C658 C 0.44863 0.41091 0.33411 0.0
C659 C 0.46484 0.43313 0.33256 0.0
H660 H 0.27581 0.48293 0.36564 0.0
H661 H 0.23608 0.43214 0.1687 0.0
H662 H 0.24235 0.47293 0.47765 0.0
H663 H 0.20178 0.42348 0.27813 0.0
H664 H 0.12878 0.43402 0.41635 0.0
H665 H 0.17419 0.41758 0.40726 0.0
H666 H 0.20307 0.49719 0.45165 0.0
H667 H 0.15861 0.51337 0.4584 0.0
C668 C 0.26071 0.46856 0.34741 0.0
C669 C 0.25763 0.45945 0.25698 0.0
C670 C 0.24133 0.46299 0.41162 0.0
C671 C 0.21843 0.44894 0.385 0.0
C672 C 0.21865 0.43509 0.30074 0.0
C673 C 0.2383 0.44023 0.23721 0.0
C674 C 0.14491 0.44788 0.42593 0.0
C675 C 0.13995 0.47518 0.43465 0.0
C676 C 0.17094 0.4384 0.42169 0.0
C677 C 0.19241 0.45605 0.42632 0.0
C678 C 0.18726 0.48279 0.44791 0.0
C679 C 0.16141 0.49225 0.45142 0.0
H680 H 0.9435 0.83105 0.06548 0.0
H681 H 1.01064 0.78814 0.95601 0.0
H682 H 0.94132 0.85658 0.92772 0.0
H683 H 1.00936 0.81382 0.82211 0.0
H684 H 1.0025 0.92341 0.87909 0.0
H685 H 0.97039 0.89083 0.91271 0.0
H686 H 1.00139 0.83959 0.69805 0.0
H687 H 0.03447 0.87294 0.66439 0.0
C688 C 0.95731 0.8266 1.01093 0.0
C689 C 0.97791 0.80843 0.02293 0.0
C690 C 0.95607 0.84115 0.93186 0.0
C691 C 0.97612 0.83849 0.86572 0.0
C692 C 0.99377 0.81708 0.8715 0.0
C693 C 0.99471 0.80228 0.94949 0.0
C694 C 1.00198 0.9058 0.83575 0.0
C695 C 1.02217 0.90016 0.77256 0.0
C696 C 0.98314 0.88681 0.85498 0.0
C697 C 0.98435 0.86163 0.81235 0.0
C698 C 1.00092 0.85821 0.73598 0.0
C699 C 1.02001 0.87724 0.717 0.0
H700 H 0.71683 0.92208 0.16998 0.0
H701 H 0.76426 0.96942 0.99355 0.0
H702 H 0.6846 0.91529 0.04804 0.0
H703 H 0.73268 0.96245 0.87307 0.0
H704 H 0.66949 0.97886 0.70432 0.0
H705 H 0.69886 0.94592 0.76822 0.0
H706 H 0.6581 0.95464 0.02507 0.0
H707 H 0.62972 0.98758 0.96307 0.0
C708 C 0.72104 0.92998 0.10403 0.0
C709 C 0.74233 0.94748 0.09296 0.0
C710 C 0.70263 0.92598 0.03401 0.0
C711 C 0.70537 0.93946 0.95249 0.0
C712 C 0.72955 0.95213 0.93546 0.0
C713 C 0.74786 0.95623 1.00538 0.0
C714 C 0.66641 0.97318 0.77376 0.0
C715 C 0.64814 0.98686 0.82983 0.0
C716 C 0.68303 0.95406 0.80998 0.0
C717 C 0.6815 0.94831 0.90262 0.0
C718 C 0.66012 0.95861 0.95358 0.0
C719 C 0.64373 0.97782 0.91778 0.0
H720 H 0.56475 0.75713 0.99595 0.0
H721 H 0.63511 0.73806 0.14573 0.0
H722 H 0.57208 0.72003 0.89435 0.0
H723 H 0.64438 0.70175 0.0387 0.0
H724 H 0.60529 0.6202 0.05009 0.0
H725 H 0.62789 0.66171 0.0456 0.0
H726 H 0.58001 0.68343 0.81532 0.0
H727 H 0.55492 0.64336 0.82903 0.0
C728 C 0.58281 0.74582 1.00339 0.0
C729 C 0.59879 0.74967 0.08024 0.0
C730 C 0.58719 0.72417 0.94474 0.0
C731 C 0.60781 0.7061 0.96206 0.0
C732 C 0.62711 0.71382 0.027 0.0
C733 C 0.62219 0.73501 0.08758 0.0
C734 C 0.59952 0.63388 0.99848 0.0
C735 C 0.57674 0.62937 0.94553 0.0
C736 C 0.61296 0.65784 0.99438 0.0
C737 C 0.60424 0.6775 0.93526 0.0
C738 C 0.58584 0.66995 0.86731 0.0
C739 C 0.57164 0.64645 0.87399 0.0
H740 H 0.80202 0.56374 0.99581 0.0
H741 H 0.81923 0.63489 0.15168 0.0
H742 H 0.83832 0.5722 0.89653 0.0
H743 H 0.85481 0.64512 0.04732 0.0
H744 H 0.91486 0.55778 0.83121 0.0
H745 H 0.87382 0.58141 0.81819 0.0
H746 H 0.89595 0.63119 0.04976 0.0
H747 H 0.93847 0.61024 0.05343 0.0
C748 C 0.81281 0.58208 1.00561 0.0
C749 C 0.80867 0.59806 0.08334 0.0
C750 C 0.83397 0.58715 0.94811 0.0
C751 C 0.85135 0.60846 0.96731 0.0
C752 C 0.84337 0.62741 0.03394 0.0
C753 C 0.82264 0.62187 0.09323 0.0
C754 C 0.91166 0.57453 0.87706 0.0
C755 C 0.9292 0.58049 0.94927 0.0
C756 C 0.88757 0.5879 0.87061 0.0
C757 C 0.87989 0.60621 0.93949 0.0
C758 C 0.89988 0.61606 0.99838 0.0
C759 C 0.92446 0.60354 1.00206 0.0
H760 H 0.06861 0.23589 0.87838 0.0
H761 H 0.0296 0.20319 0.10888 0.0
H762 H 0.05985 0.19493 0.78945 0.0
H763 H 1.02111 0.16247 0.02202 0.0
H764 H 0.98825 0.09989 0.82942 0.0
H765 H 0.99588 0.14257 0.90483 0.0
H766 H 0.07131 0.14829 0.76938 0.0
H767 H 0.06307 0.10532 0.69185 0.0
C768 C 0.05754 0.22024 0.90932 0.0
C769 C 0.04921 0.22322 1.0003 0.0
C770 C 0.05283 0.19649 0.85873 0.0
C771 C 0.03948 0.17503 0.8974 0.0
C772 C 0.03088 0.17842 0.98813 0.0
C773 C 0.03571 0.20194 0.0384 0.0
C774 C 1.00663 0.11011 0.81635 0.0
C775 C 0.02551 0.09853 0.7575 0.0
C776 C 1.01109 0.13473 0.85993 0.0
C777 C 0.03451 0.14914 0.84538 0.0
C778 C 0.05304 0.13803 0.78316 0.0
C779 C 0.04857 0.11312 0.73961 0.0
H780 H 0.33175 0.08598 0.85911 0.0
H781 H 0.34449 0.02422 0.04842 0.0
H782 H 0.37283 0.07383 0.78035 0.0
H783 H 0.3861 1.01269 0.9738 0.0
H784 H 0.45246 0.98427 0.79174 0.0
H785 H 0.40898 0.99418 0.85404 0.0
H786 H 0.41881 0.07603 0.78701 0.0
H787 H 0.4619 0.06539 0.71917 0.0
C788 C 0.34304 0.06929 0.88225 0.0
C789 C 0.33438 0.05546 0.95807 0.0
C790 C 0.36698 0.06261 0.83831 0.0
C791 C 0.38333 0.04223 0.87008 0.0
C792 C 0.37416 0.02809 0.9451 0.0
C793 C 0.35009 0.03458 0.98812 0.0
C794 C 0.44539 1.00444 0.7907 0.0
C795 C 0.46106 0.02414 0.75261 0.0
C796 C 0.42035 1.01024 0.82718 0.0
C797 C 0.41 0.03608 0.82746 0.0
C798 C 0.42566 0.05582 0.78797 0.0
C799 C 0.4507 0.04987 0.75028 0.0
H800 H 0.45979 0.32505 0.87712 0.0
H801 H 0.53284 0.33676 0.02343 0.0
H802 H 0.46939 0.36337 0.78575 0.0
H803 H 0.5422 0.37577 0.93573 0.0
H804 H 0.55993 0.44084 0.74334 0.0
H805 H 0.55347 0.39707 0.803 0.0
H806 H 0.46878 0.40909 0.79766 0.0
H807 H 0.47537 0.45214 0.73319 0.0
C808 C 0.47833 0.33543 0.88778 0.0
C809 C 0.4959 0.32744 0.95579 0.0
C810 C 0.48366 0.35781 0.83665 0.0
C811 C 0.5065 0.37327 0.8533 0.0
C812 C 0.5246 0.36445 0.9191 0.0
C813 C 0.51935 0.3419 0.9695 0.0
C814 C 0.53991 0.43414 0.75413 0.0
C815 C 0.51823 0.45066 0.73585 0.0
C816 C 0.53616 0.40891 0.78928 0.0
C817 C 0.51056 0.39926 0.80735 0.0
C818 C 0.48885 0.41538 0.78483 0.0
C819 C 0.49264 0.44049 0.74899 0.0
H820 H 0.21443 0.53347 0.11414 0.0
H821 H 0.2491 0.49719 0.87453 0.0
H822 H 0.17274 0.53928 0.03301 0.0
H823 H 0.20712 0.50306 0.7921 0.0
H824 H 0.12728 0.53517 0.66371 0.0
H825 H 0.17188 0.53491 0.73124 0.0
H826 H 0.13889 0.50724 0.98096 0.0
H827 H 0.09492 0.50772 0.91403 0.0
C828 C 0.21341 0.52759 0.04289 0.0
C829 C 0.23533 0.51531 1.00053 0.0
C830 C 0.18932 0.53053 0.99659 0.0
C831 C 0.18623 0.52128 0.90606 0.0
C832 C 0.20869 0.51052 0.86154 0.0
C833 C 0.23288 0.50737 0.90848 0.0
C834 C 0.12962 0.52881 0.73272 0.0
C835 C 0.10736 0.5207 0.78235 0.0
C836 C 0.15525 0.52864 0.7715 0.0
C837 C 0.15921 0.5211 0.86197 0.0
C838 C 0.13682 0.51334 0.91145 0.0
C839 C 0.11146 0.5131 0.87232 0.0
H840 H 0.04428 0.8243 0.36891 0.0
H841 H 0.96344 0.84882 0.33009 0.0
H842 H 0.05271 0.86477 0.45968 0.0
H843 H 0.9719 0.88939 0.41835 0.0
H844 H 0.99116 0.95631 0.62836 0.0
H845 H 0.98128 0.91254 0.55993 0.0
H846 H 0.05876 0.91067 0.43658 0.0
H847 H 0.06838 0.95394 0.50521 0.0
C848 C 0.02812 0.83799 0.38114 0.0
C849 C 1.00318 0.83302 0.3413 0.0
C850 C 0.03304 0.86157 0.43226 0.0
C851 C 1.01316 0.881 0.44589 0.0
C852 C 0.98783 0.87522 0.41033 0.0
C853 C 0.98298 0.8518 0.35903 0.0
C854 C 1.00586 0.94667 0.58542 0.0
C855 C 0.03023 0.9592 0.56964 0.0
C856 C 1.0003 0.9214 0.54634 0.0
C857 C 1.01913 0.90764 0.49169 0.0
C858 C 0.04371 0.9201 0.47856 0.0
C859 C 0.04917 0.94522 0.51724 0.0
H860 H 0.71267 0.03484 0.27307 0.0
H861 H 0.725 0.97275 0.4614 0.0
H862 H 0.67103 0.04643 0.3475 0.0
H863 H 0.6839 0.98494 0.53998 0.0
H864 H 0.59485 0.99364 0.60094 0.0
H865 H 0.6379 0.98292 0.53292 0.0
H866 H 0.64808 0.06484 0.46733 0.0
H867 H 0.60464 0.07484 0.52985 0.0
C868 C 0.70698 0.02442 0.33313 0.0
C869 C 0.72259 1.00343 0.36295 0.0
C870 C 0.68289 0.03093 0.37604 0.0
C871 C 0.67359 1.01672 0.4507 0.0
C872 C 0.68984 0.99623 0.48226 0.0
C873 C 0.71381 0.98953 0.43844 0.0
C874 C 0.60612 1.00916 0.57012 0.0
C875 C 0.59588 0.03495 0.56834 0.0
C876 C 0.63114 1.00316 0.5323 0.0
C877 C 0.6469 0.0229 0.49321 0.0
C878 C 0.63665 0.04878 0.49391 0.0
C879 C 0.61163 0.05464 0.53052 0.0
H880 H 0.52918 0.71283 0.25266 0.0
H881 H 0.57105 0.74657 0.48312 0.0
H882 H 0.52044 0.67302 0.33653 0.0
H883 H 0.56233 0.70635 0.56826 0.0
H884 H 0.52489 0.63067 0.70393 0.0
H885 H 0.52759 0.67458 0.63636 0.0
H886 H 0.55089 0.63765 0.38099 0.0
H887 H 0.54803 0.59454 0.44807 0.0
C888 C 0.53586 0.71201 0.32248 0.0
C889 C 0.55064 0.73298 0.36135 0.0
C890 C 0.53112 0.68903 0.37036 0.0
C891 C 0.54105 0.68615 0.45887 0.0
C892 C 0.55432 0.70785 0.50037 0.0
C893 C 0.55919 0.73098 0.45188 0.0
C894 C 0.53075 0.63212 0.63361 0.0
C895 C 0.5371 0.60914 0.58215 0.0
C896 C 0.53235 0.65723 0.59488 0.0
C897 C 0.53949 0.6598 0.50297 0.0
C898 C 0.54522 0.63662 0.45168 0.0
C899 C 0.54406 0.6118 0.49063 0.0
H900 H 0.82599 0.51807 0.34112 0.0
H901 H 0.82447 0.59925 0.43493 0.0
H902 H 0.86612 0.51072 0.43034 0.0
H903 H 0.86379 0.59197 0.52729 0.0
H904 H 0.95248 0.58183 0.57793 0.0
H905 H 0.90908 0.58745 0.5104 0.0
H906 H 0.89001 0.50652 0.56658 0.0
H907 H 0.93417 0.50065 0.63022 0.0
C908 C 0.83362 0.53408 0.38387 0.0
C909 C 0.82172 0.55915 0.38176 0.0
C910 C 0.85685 0.52996 0.43498 0.0
C911 C 0.86889 0.55081 0.48584 0.0
C912 C 0.85586 0.57547 0.48769 0.0
C913 C 0.83289 0.5796 0.43593 0.0
C914 C 0.93924 0.56508 0.57512 0.0
C915 C 0.94753 0.54052 0.60725 0.0
C916 C 0.9139 0.56842 0.53743 0.0
C917 C 0.89556 0.54743 0.53164 0.0
C918 C 0.90348 0.52312 0.56742 0.0
C919 C 0.92896 0.51975 0.60472 0.0
loop_
_geom_bond_atom_site_label_1
_geom_bond_atom_site_label_2
_geom_bond_distance
_geom_bond_site_symmetry_2
_ccdc_geom_bond_type
H0 C7 0.929 . S
H1 C10 0.930 . S
H2 C12 0.929 . S
H3 C4 0.969 . S
C4 H3 0.969 . S
C4 O5 1.550 . S
C4 H6 0.973 . S
O5 C4 1.550 . S
O5 C11 1.412 . S
H6 C4 0.973 . S
C7 H0 0.929 . S
C7 C8 1.400 . S
C7 C9 1.364 . S
C8 C7 1.400 . S
C8 C12 1.377 . S
C9 C7 1.364 . S
C9 C10 1.374 . S
C10 H1 0.930 . S
C10 C9 1.374 . S
C10 C11 1.383 . S
C11 O5 1.412 . S
C11 C10 1.383 . S
C11 C12 1.394 . S
C12 H2 0.929 . S
C12 C8 1.377 . S
C12 C11 1.394 . S
H13 C20 0.929 . S
H14 C23 0.930 . S
H15 C25 0.929 . S
H16 C17 0.969 . S
C17 H16 0.969 . S
C17 O18 1.550 . S
C17 H19 0.973 . S
O18 C17 1.550 . S
O18 C24 1.412 . S
H19 C17 0.973 . S
C20 H13 0.929 . S
C20 C21 1.400 . S
C20 C22 1.364 . S
C21 C20 1.400 . S
C21 C25 1.377 . S
C22 C20 1.364 . S
C22 C23 1.374 . S
C23 H14 0.930 . S
C23 C22 1.374 . S
C23 C24 1.383 . S
C24 O18 1.412 . S
C24 C23 1.383 . S
C24 C25 1.394 . S
C25 H15 0.929 . S
C25 C21 1.377 . S
C25 C24 1.394 . S
H26 C33 0.929 . S
H27 C36 0.930 . S
H28 C38 0.929 . S
H29 C30 0.969 . S
C30 H29 0.969 . S
C30 O31 1.550 . S
C30 H32 0.973 . S
O31 C30 1.550 . S
O31 C37 1.412 . S
H32 C30 0.973 . S
C33 H26 0.929 . S
C33 C34 1.400 . S
C33 C35 1.364 . S
C34 C33 1.400 . S
C34 C38 1.377 . S
C35 C33 1.364 . S
C35 C36 1.374 . S
C36 H27 0.930 . S
C36 C35 1.374 . S
C36 C37 1.383 . S
C37 O31 1.412 . S
C37 C36 1.383 . S
C37 C38 1.394 . S
C38 H28 0.929 . S
C38 C34 1.377 . S
C38 C37 1.394 . S
H39 C46 0.929 . S
H40 C49 0.930 . S
H41 C51 0.929 . S
H42 C43 0.969 . S
C43 H42 0.969 . S
C43 O44 1.550 . S
C43 H45 0.973 . S
O44 C43 1.550 . S
O44 C50 1.412 . S
H45 C43 0.973 . S
C46 H39 0.929 . S
C46 C47 1.400 . S
C46 C48 1.364 . S
C47 C46 1.400 . S
C47 C51 1.377 . S
C48 C46 1.364 . S
C48 C49 1.374 . S
C49 H40 0.930 . S
C49 C48 1.374 . S
C49 C50 1.383 . S
C50 O44 1.412 . S
C50 C49 1.383 . S
C50 C51 1.394 . S
C51 H41 0.929 . S
C51 C47 1.377 . S
C51 C50 1.394 . S
H52 C59 0.929 . S
H53 C62 0.930 . S
H54 C64 0.929 . S
H55 C56 0.969 . S
C56 H55 0.969 . S
C56 O57 1.550 . S
C56 H58 0.973 . S
O57 C56 1.550 . S
O57 C63 1.412 . S
H58 C56 0.973 . S
C59 H52 0.929 . S
C59 C60 1.400 . S
C59 C61 1.364 1_556 S
C60 C59 1.400 . S
C60 C64 1.377 . S
C61 C59 1.364 1_554 S
C61 C62 1.374 . S
C62 H53 0.930 . S
C62 C61 1.374 . S
C62 C63 1.383 . S
C63 O57 1.412 . S
C63 C62 1.383 . S
C63 C64 1.394 1_554 S
C64 H54 0.929 . S
C64 C60 1.377 . S
C64 C63 1.394 1_556 S
H65 C72 0.929 . S
H66 C75 0.930 . S
H67 C77 0.929 . S
H68 C69 0.969 . S
C69 H68 0.969 . S
C69 O70 1.551 . S
C69 H71 0.973 . S
O70 C69 1.551 . S
O70 C76 1.412 1_554 S
H71 C69 0.973 . S
C72 H65 0.929 . S
C72 C73 1.400 . S
C72 C74 1.364 1_556 S
C73 C72 1.400 . S
C73 C77 1.377 . S
C74 C72 1.364 1_554 S
C74 C75 1.374 . S
C75 H66 0.930 . S
C75 C74 1.374 . S
C75 C76 1.384 1_554 S
C76 O70 1.412 1_556 S
C76 C75 1.384 1_556 S
C76 C77 1.394 . S
C77 H67 0.929 . S
C77 C73 1.377 . S
C77 C76 1.394 . S
H78 C85 0.929 . S
H79 C88 0.930 . S
H80 C90 0.929 . S
H81 C82 0.969 . S
C82 H81 0.969 . S
C82 O83 1.550 1_554 S
C82 H84 0.973 . S
O83 C82 1.550 1_556 S
O83 C89 1.412 . S
H84 C82 0.973 . S
C85 H78 0.929 . S
C85 C86 1.400 . S
C85 C87 1.364 1_556 S
C86 C85 1.400 . S
C86 C90 1.377 . S
C87 C85 1.364 1_554 S
C87 C88 1.374 . S
C88 H79 0.930 . S
C88 C87 1.374 . S
C88 C89 1.383 1_554 S
C89 O83 1.412 . S
C89 C88 1.383 1_556 S
C89 C90 1.394 . S
C90 H80 0.929 . S
C90 C86 1.377 . S
C90 C89 1.394 . S
H91 C98 0.929 . S
H92 C101 0.930 . S
H93 C103 0.929 . S
H94 C95 0.969 . S
C95 H94 0.969 . S
C95 O96 1.550 . S
C95 H97 0.973 . S
O96 C95 1.550 . S
O96 C102 1.412 . S
H97 C95 0.973 . S
C98 H91 0.929 . S
C98 C99 1.400 . S
C98 C100 1.364 1_556 S
C99 C98 1.400 . S
C99 C103 1.377 . S
C100 C98 1.364 1_554 S
C100 C101 1.374 . S
C101 H92 0.930 . S
C101 C100 1.374 . S
C101 C102 1.383 . S
C102 O96 1.412 . S
C102 C101 1.383 . S
C102 C103 1.394 1_554 S
C103 H93 0.929 . S
C103 C99 1.377 . S
C103 C102 1.394 1_556 S
Gd104 N135 2.648 1_545 S
Gd104 N141 2.601 . S
Gd104 O148 2.545 . S
Gd104 O149 2.606 1_655 S
Gd104 O151 2.429 . S
Gd104 O152 2.545 1_655 S
Gd104 O153 2.412 . S
Gd104 O155 2.362 1_545 S
Gd104 O156 2.324 1_655 S
Gd104 C163 2.828 . S
Gd105 N114 2.661 1_565 S
Gd105 N118 2.592 1_565 S
Gd105 O149 2.362 1_565 S
Gd105 O150 2.324 1_455 S
Gd105 O154 2.545 . S
Gd105 O155 2.606 1_455 S
Gd105 O157 2.429 . S
Gd105 O158 2.545 . S
Gd105 O159 2.412 . S
Gd105 C172 2.828 . S
C106 C109 1.426 . S
C106 C111 1.426 1_556 S
C106 C112 1.408 1_556 S
C107 C110 1.437 1_554 S
C107 C111 1.317 . S
C107 H126 0.929 . S
C108 C109 1.426 . S
C108 C110 1.413 . S
C108 N118 1.380 . S
C109 C106 1.426 . S
C109 C108 1.426 . S
C109 N114 1.350 . S
C110 C107 1.437 1_556 S
C110 C108 1.413 . S
C110 C120 1.391 . S
C111 C106 1.426 1_554 S
C111 C107 1.317 . S
C111 H122 0.930 . S
C112 C106 1.408 1_554 S
C112 C113 1.355 1_554 S
C112 H124 0.930 . S
C113 C112 1.355 1_556 S
C113 C115 1.402 . S
C113 H125 0.930 1_456 S
N114 Gd105 2.661 1_545 S
N114 C109 1.350 . S
N114 C115 1.307 . S
C115 C113 1.402 . S
C115 N114 1.307 . S
C115 H116 0.930 1_455 S
H116 C115 0.930 1_655 S
C117 N118 1.319 1_565 S
C117 C119 1.394 . S
C117 H121 0.930 . S
N118 Gd105 2.592 1_545 S
N118 C108 1.380 . S
N118 C117 1.319 1_545 S
C119 C117 1.394 . S
C119 C120 1.359 1_565 S
C119 H131 0.930 . S
C120 C110 1.391 . S
C120 C119 1.359 1_545 S
C120 H132 0.929 . S
H121 C117 0.930 . S
H122 C111 0.930 . S
H123 C140 0.930 . S
H124 C112 0.930 . S
H125 C113 0.930 1_654 S
H126 C107 0.929 . S
H127 C145 0.930 . S
H128 C136 0.930 . S
H129 C137 0.930 . S
H130 C161 0.929 . S
H131 C119 0.930 . S
H132 C120 0.929 . S
H133 C162 0.930 . S
H134 C143 0.930 . S
N135 Gd104 2.648 1_565 S
N135 C139 1.356 . S
N135 C140 1.317 1_655 S
C136 H128 0.930 . S
C136 C137 1.355 1_655 S
C136 C138 1.412 . S
C137 H129 0.930 . S
C137 C136 1.355 1_455 S
C137 C140 1.402 . S
C138 C136 1.412 . S
C138 C139 1.417 . S
C138 C162 1.431 . S
C139 N135 1.356 . S
C139 C138 1.417 . S
C139 C142 1.426 1_565 S
C140 H123 0.930 . S
C140 N135 1.317 1_455 S
C140 C137 1.402 . S
N141 Gd104 2.601 . S
N141 C142 1.359 . S
N141 C145 1.334 . S
C142 C139 1.426 1_545 S
C142 N141 1.359 . S
C142 C146 1.411 1_545 S
C143 H134 0.930 . S
C143 C144 1.359 . S
C143 C145 1.394 . S
C144 C143 1.359 . S
C144 C146 1.385 1_545 S
C144 H147 0.929 . S
C145 H127 0.930 . S
C145 N141 1.334 . S
C145 C143 1.394 . S
C146 C142 1.411 1_565 S
C146 C144 1.385 1_565 S
C146 C161 1.445 . S
H147 C144 0.929 . S
O148 Gd104 2.545 . S
O148 C163 1.258 . S
O149 Gd104 2.606 1_455 S
O149 Gd105 2.362 1_545 S
O149 C160 1.284 . S
O150 Gd105 2.324 1_655 S
O150 C170 1.254 1_565 S
O151 Gd104 2.429 . S
O151 C170 1.268 . S
O152 Gd104 2.545 1_455 S
O152 C160 1.250 . S
O153 Gd104 2.412 . S
O153 C163 1.252 . S
O154 Gd105 2.545 . S
O154 C172 1.258 . S
O155 Gd104 2.362 1_565 S
O155 Gd105 2.606 1_655 S
O155 C171 1.284 . S
O156 Gd104 2.324 1_455 S
O156 C179 1.254 . S
O157 Gd105 2.429 . S
O157 C179 1.268 1_565 S
O158 Gd105 2.545 . S
O158 C171 1.250 1_455 S
O159 Gd105 2.412 . S
O159 C172 1.252 . S
C160 O149 1.284 . S
C160 O152 1.250 . S
C161 H130 0.929 . S
C161 C146 1.445 . S
C161 C162 1.317 . S
C162 H133 0.930 . S
C162 C138 1.431 . S
C162 C161 1.317 . S
C163 Gd104 2.828 . S
C163 O148 1.258 . S
C163 O153 1.252 . S
C163 C164 1.497 . S
C164 C163 1.497 . S
C164 C165 1.395 . S
C164 C166 1.380 . S
C165 C164 1.395 . S
C165 C168 1.398 . S
C165 H180 0.930 . S
C166 C164 1.380 . S
C166 C167 1.391 . S
C166 H181 0.930 1_655 S
C167 C166 1.391 . S
C167 C169 1.387 . S
C168 C165 1.398 . S
C168 C169 1.380 . S
C168 H182 0.930 . S
C169 C167 1.387 . S
C169 C168 1.380 . S
C169 H183 0.930 . S
C170 O150 1.254 1_545 S
C170 O151 1.268 . S
C171 O155 1.284 . S
C171 O158 1.250 1_655 S
C172 Gd105 2.828 . S
C172 O154 1.258 . S
C172 O159 1.252 . S
C172 C173 1.497 . S
C173 C172 1.497 . S
C173 C174 1.395 . S
C173 C175 1.380 . S
C174 C173 1.395 . S
C174 C177 1.398 . S
C174 H184 0.930 . S
C175 C173 1.380 . S
C175 C176 1.391 . S
C175 H185 0.935 . S
C176 C175 1.391 . S
C176 C178 1.387 . S
C177 C174 1.398 . S
C177 C178 1.380 . S
C177 H186 0.930 . S
C178 C176 1.387 . S
C178 C177 1.380 . S
C178 H187 0.930 1_556 S
C179 O156 1.254 . S
C179 O157 1.268 1_545 S
H180 C165 0.930 . S
H181 C166 0.930 1_455 S
H182 C168 0.930 . S
H183 C169 0.930 . S
H184 C174 0.930 . S
H185 C175 0.935 . S
H186 C177 0.930 . S
H187 C178 0.930 1_554 S
Gd188 N219 2.661 . S
Gd188 N225 2.601 . S
Gd188 O232 2.545 . S
Gd188 O233 2.606 1_565 S
Gd188 O235 2.429 . S
Gd188 O236 2.545 1_565 S
Gd188 O237 2.412 . S
Gd188 O239 2.362 . S
Gd188 O240 2.324 1_565 S
Gd188 C247 2.828 . S
Gd189 N198 2.661 . S
Gd189 N202 2.601 . S
Gd189 O233 2.362 . S
Gd189 O234 2.324 1_545 S
Gd189 O238 2.545 . S
Gd189 O239 2.606 1_545 S
Gd189 O241 2.429 . S
Gd189 O242 2.545 . S
Gd189 O243 2.412 . S
Gd189 C256 2.828 . S
C190 C193 1.417 1_554 S
C190 C195 1.431 . S
C190 C196 1.412 . S
C191 C194 1.437 1_554 S
C191 C195 1.317 . S
C191 H210 0.929 . S
C192 C193 1.426 . S
C192 C194 1.413 . S
C192 N202 1.359 . S
C193 C190 1.417 1_556 S
C193 C192 1.426 . S
C193 N198 1.350 . S
C194 C191 1.437 1_556 S
C194 C192 1.413 . S
C194 C204 1.391 . S
C195 C190 1.431 . S
C195 C191 1.317 . S
C195 H206 0.930 . S
C196 C190 1.412 . S
C196 C197 1.355 1_554 S
C196 H208 0.930 . S
C197 C196 1.355 1_556 S
C197 C199 1.402 . S
C197 H209 0.930 1_546 S
N198 Gd189 2.661 . S
N198 C193 1.350 . S
N198 C199 1.307 . S
C199 C197 1.402 . S
C199 N198 1.307 . S
C199 H200 0.930 1_545 S
H200 C199 0.930 1_565 S
C201 N202 1.334 . S
C201 C203 1.394 . S
C201 H205 0.930 . S
N202 Gd189 2.601 . S
N202 C192 1.359 . S
N202 C201 1.334 . S
C203 C201 1.394 . S
C203 C204 1.359 . S
C203 H215 0.930 . S
C204 C194 1.391 . S
C204 C203 1.359 . S
C204 H216 0.929 . S
H205 C201 0.930 . S
H206 C195 0.930 . S
H207 C224 0.930 . S
H208 C196 0.930 . S
H209 C197 0.930 1_564 S
H210 C191 0.929 . S
H211 C229 0.930 . S
H212 C220 0.930 . S
H213 C221 0.930 . S
H214 C245 0.929 . S
H215 C203 0.930 . S
H216 C204 0.929 . S
H217 C246 0.930 . S
H218 C227 0.930 . S
N219 Gd188 2.661 . S
N219 C223 1.350 . S
N219 C224 1.307 1_565 S
C220 H212 0.930 . S
C220 C221 1.355 1_565 S
C220 C222 1.412 . S
C221 H213 0.930 . S
C221 C220 1.355 1_545 S
C221 C224 1.402 . S
C222 C220 1.412 . S
C222 C223 1.417 . S
C222 C246 1.431 . S
C223 N219 1.350 . S
C223 C222 1.417 . S
C223 C226 1.426 . S
C224 H207 0.930 . S
C224 N219 1.307 1_545 S
C224 C221 1.402 . S
N225 Gd188 2.601 . S
N225 C226 1.359 . S
N225 C229 1.334 . S
C226 C223 1.426 . S
C226 N225 1.359 . S
C226 C230 1.413 . S
C227 H218 0.930 . S
C227 C228 1.359 . S
C227 C229 1.394 . S
C228 C227 1.359 . S
C228 C230 1.391 . S
C228 H231 0.929 . S
C229 H211 0.930 . S
C229 N225 1.334 . S
C229 C227 1.394 . S
C230 C226 1.413 . S
C230 C228 1.391 . S
C230 C245 1.437 . S
H231 C228 0.929 . S
O232 Gd188 2.545 . S
O232 C247 1.258 . S
O233 Gd188 2.606 1_545 S
O233 Gd189 2.362 . S
O233 C244 1.284 . S
O234 Gd189 2.324 1_565 S
O234 C254 1.254 . S
O235 Gd188 2.429 . S
O235 C254 1.268 . S
O236 Gd188 2.545 1_545 S
O236 C244 1.250 . S
O237 Gd188 2.412 . S
O237 C247 1.252 . S
O238 Gd189 2.545 . S
O238 C256 1.258 . S
O239 Gd188 2.362 . S
O239 Gd189 2.606 1_565 S
O239 C255 1.284 . S
O240 Gd188 2.324 1_545 S
O240 C263 1.254 . S
O241 Gd189 2.429 . S
O241 C263 1.268 . S
O242 Gd189 2.545 . S
O242 C255 1.250 1_545 S
O243 Gd189 2.412 . S
O243 C256 1.252 . S
C244 O233 1.284 . S
C244 O236 1.250 . S
C245 H214 0.929 . S
C245 C230 1.437 . S
C245 C246 1.317 . S
C246 H217 0.930 . S
C246 C222 1.431 . S
C246 C245 1.317 . S
C247 Gd188 2.828 . S
C247 O232 1.258 . S
C247 O237 1.252 . S
C247 C248 1.497 . S
C248 C247 1.497 . S
C248 C249 1.395 . S
C248 C250 1.380 . S
C249 C248 1.395 . S
C249 C252 1.398 . S
C249 H264 0.930 . S
C250 C248 1.380 . S
C250 C251 1.391 . S
C250 H265 0.930 1_565 S
C251 C250 1.391 . S
C251 C253 1.387 . S
C252 C249 1.398 . S
C252 C253 1.380 . S
C252 H266 0.930 . S
C253 C251 1.387 . S
C253 C252 1.380 . S
C253 H267 0.930 . S
C254 O234 1.254 . S
C254 O235 1.268 . S
C255 O239 1.284 . S
C255 O242 1.250 1_565 S
C256 Gd189 2.828 . S
C256 O238 1.258 . S
C256 O243 1.252 . S
C256 C257 1.497 . S
C257 C256 1.497 . S
C257 C258 1.395 . S
C257 C259 1.380 . S
C258 C257 1.395 . S
C258 C261 1.398 . S
C258 H268 0.930 . S
C259 C257 1.380 . S
C259 C260 1.391 . S
C259 H269 0.930 . S
C260 C259 1.391 . S
C260 C262 1.387 . S
C261 C258 1.398 . S
C261 C262 1.380 . S
C261 H270 0.930 . S
C262 C260 1.387 . S
C262 C261 1.380 . S
C262 H271 0.930 1_556 S
C263 O240 1.254 . S
C263 O241 1.268 . S
H264 C249 0.930 . S
H265 C250 0.930 1_545 S
H266 C252 0.930 . S
H267 C253 0.930 . S
H268 C258 0.930 . S
H269 C259 0.930 . S
H270 C261 0.930 . S
H271 C262 0.930 1_554 S
Gd272 N303 2.661 . S
Gd272 N309 2.601 . S
Gd272 O316 2.545 . S
Gd272 O317 2.606 . S
Gd272 O319 2.429 . S
Gd272 O320 2.545 . S
Gd272 O321 2.412 . S
Gd272 O323 2.362 . S
Gd272 O324 2.324 . S
Gd272 C331 2.828 . S
Gd273 N282 2.661 . S
Gd273 N286 2.601 . S
Gd273 O317 2.362 . S
Gd273 O318 2.324 . S
Gd273 O322 2.545 . S
Gd273 O323 2.606 . S
Gd273 O325 2.429 . S
Gd273 O326 2.545 . S
Gd273 O327 2.412 . S
Gd273 C340 2.828 . S
C274 C277 1.417 . S
C274 C279 1.431 . S
C274 C280 1.412 . S
C275 C278 1.437 . S
C275 C279 1.317 . S
C275 H294 0.929 . S
C276 C277 1.426 . S
C276 C278 1.413 . S
C276 N286 1.359 . S
C277 C274 1.417 . S
C277 C276 1.426 . S
C277 N282 1.350 . S
C278 C275 1.437 . S
C278 C276 1.413 . S
C278 C288 1.391 . S
C279 C274 1.431 . S
C279 C275 1.317 . S
C279 H290 0.930 . S
C280 C274 1.412 . S
C280 C281 1.355 . S
C280 H292 0.930 . S
C281 C280 1.355 . S
C281 C283 1.402 . S
C281 H293 0.930 . S
N282 Gd273 2.661 . S
N282 C277 1.350 . S
N282 C283 1.307 . S
C283 C281 1.402 . S
C283 N282 1.307 . S
C283 H284 0.930 . S
H284 C283 0.930 . S
C285 N286 1.334 . S
C285 C287 1.394 . S
C285 H289 0.930 . S
N286 Gd273 2.601 . S
N286 C276 1.359 . S
N286 C285 1.334 . S
C287 C285 1.394 . S
C287 C288 1.359 . S
C287 H299 0.930 . S
C288 C278 1.391 . S
C288 C287 1.359 . S
C288 H300 0.929 . S
H289 C285 0.930 . S
H290 C279 0.930 . S
H291 C308 0.930 . S
H292 C280 0.930 . S
H293 C281 0.930 . S
H294 C275 0.929 . S
H295 C313 0.930 . S
H296 C304 0.930 . S
H297 C305 0.930 . S
H298 C329 0.929 . S
H299 C287 0.930 . S
H300 C288 0.929 . S
H301 C330 0.930 . S
H302 C311 0.930 . S
N303 Gd272 2.661 . S
N303 C307 1.350 . S
N303 C308 1.307 . S
C304 H296 0.930 . S
C304 C305 1.355 . S
C304 C306 1.412 . S
C305 H297 0.930 . S
C305 C304 1.355 . S
C305 C308 1.402 . S
C306 C304 1.412 . S
C306 C307 1.417 . S
C306 C330 1.431 . S
C307 N303 1.350 . S
C307 C306 1.417 . S
C307 C310 1.426 . S
C308 H291 0.930 . S
C308 N303 1.307 . S
C308 C305 1.402 . S
N309 Gd272 2.601 . S
N309 C310 1.359 . S
N309 C313 1.334 . S
C310 C307 1.426 . S
C310 N309 1.359 . S
C310 C314 1.413 . S
C311 H302 0.930 . S
C311 C312 1.359 . S
C311 C313 1.394 . S
C312 C311 1.359 . S
C312 C314 1.391 . S
C312 H315 0.929 . S
C313 H295 0.930 . S
C313 N309 1.334 . S
C313 C311 1.394 . S
C314 C310 1.413 . S
C314 C312 1.391 . S
C314 C329 1.437 . S
H315 C312 0.929 . S
O316 Gd272 2.545 . S
O316 C331 1.258 . S
O317 Gd272 2.606 . S
O317 Gd273 2.362 . S
O317 C328 1.284 . S
O318 Gd273 2.324 . S
O318 C338 1.254 . S
O319 Gd272 2.429 . S
O319 C338 1.268 . S
O320 Gd272 2.545 . S
O320 C328 1.250 . S
O321 Gd272 2.412 . S
O321 C331 1.252 . S
O322 Gd273 2.545 . S
O322 C340 1.258 . S
O323 Gd272 2.362 . S
O323 Gd273 2.606 . S
O323 C339 1.284 . S
O324 Gd272 2.324 . S
O324 C347 1.254 . S
O325 Gd273 2.429 . S
O325 C347 1.268 . S
O326 Gd273 2.545 . S
O326 C339 1.250 . S
O327 Gd273 2.412 . S
O327 C340 1.252 . S
C328 O317 1.284 . S
C328 O320 1.250 . S
C329 H298 0.929 . S
C329 C314 1.437 . S
C329 C330 1.317 . S
C330 H301 0.930 . S
C330 C306 1.431 . S
C330 C329 1.317 . S
C331 Gd272 2.828 . S
C331 O316 1.258 . S
C331 O321 1.252 . S
C331 C332 1.497 . S
C332 C331 1.497 . S
C332 C333 1.395 1_556 S
C332 C334 1.380 . S
C333 C332 1.395 1_554 S
C333 C336 1.398 . S
C333 H348 0.930 . S
C334 C332 1.380 . S
C334 C335 1.391 1_556 S
C334 H349 0.930 . S
C335 C334 1.391 1_554 S
C335 C337 1.387 . S
C336 C333 1.398 . S
C336 C337 1.380 . S
C336 H350 0.930 . S
C337 C335 1.387 . S
C337 C336 1.380 . S
C337 H351 0.930 . S
C338 O318 1.254 . S
C338 O319 1.268 . S
C339 O323 1.284 . S
C339 O326 1.250 . S
C340 Gd273 2.828 . S
C340 O322 1.258 . S
C340 O327 1.252 . S
C340 C341 1.497 . S
C341 C340 1.497 . S
C341 C342 1.395 . S
C341 C343 1.380 . S
C342 C341 1.395 . S
C342 C345 1.398 . S
C342 H352 0.930 . S
C343 C341 1.380 . S
C343 C344 1.391 . S
C343 H353 0.930 . S
C344 C343 1.391 . S
C344 C346 1.387 . S
C345 C342 1.398 . S
C345 C346 1.380 . S
C345 H354 0.930 . S
C346 C344 1.387 . S
C346 C345 1.380 . S
C346 H355 0.930 . S
C347 O324 1.254 . S
C347 O325 1.268 . S
H348 C333 0.930 . S
H349 C334 0.930 . S
H350 C336 0.930 . S
H351 C337 0.930 . S
H352 C342 0.930 . S
H353 C343 0.930 . S
H354 C345 0.930 . S
H355 C346 0.930 . S
Gd356 N387 2.661 . S
Gd356 N393 2.601 . S
Gd356 O400 2.545 . S
Gd356 O401 2.606 1_655 S
Gd356 O403 2.429 1_655 S
Gd356 O404 2.545 . S
Gd356 O405 2.412 . S
Gd356 O407 2.362 1_655 S
Gd356 O408 2.324 . S
Gd356 C415 2.828 . S
Gd357 N366 2.661 . S
Gd357 N370 2.601 . S
Gd357 O401 2.362 . S
Gd357 O402 2.324 . S
Gd357 O406 2.545 . S
Gd357 O407 2.606 . S
Gd357 O409 2.429 1_455 S
Gd357 O410 2.545 . S
Gd357 O411 2.412 . S
Gd357 C424 2.828 . S
C358 C361 1.417 . S
C358 C363 1.431 . S
C358 C364 1.412 . S
C359 C362 1.437 . S
C359 C363 1.317 . S
C359 H378 0.929 . S
C360 C361 1.426 . S
C360 C362 1.413 . S
C360 N370 1.359 . S
C361 C358 1.417 . S
C361 C360 1.426 . S
C361 N366 1.350 . S
C362 C359 1.437 . S
C362 C360 1.413 . S
C362 C372 1.391 . S
C363 C358 1.431 . S
C363 C359 1.317 . S
C363 H374 0.930 . S
C364 C358 1.412 . S
C364 C365 1.355 . S
C364 H376 0.930 . S
C365 C364 1.355 . S
C365 C367 1.402 . S
C365 H377 0.930 . S
N366 Gd357 2.661 . S
N366 C361 1.350 . S
N366 C367 1.307 . S
C367 C365 1.402 . S
C367 N366 1.307 . S
C367 H368 0.930 . S
H368 C367 0.930 . S
C369 N370 1.349 . S
C369 C371 1.392 1_455 S
C369 H373 0.918 1_455 S
N370 Gd357 2.601 . S
N370 C360 1.359 . S
N370 C369 1.349 . S
C371 C369 1.392 1_655 S
C371 C372 1.359 1_655 S
C371 H383 0.930 . S
C372 C362 1.391 . S
C372 C371 1.359 1_455 S
C372 H384 0.929 . S
H373 C369 0.918 1_655 S
H374 C363 0.930 . S
H375 C392 0.930 . S
H376 C364 0.930 . S
H377 C365 0.930 . S
H378 C359 0.929 . S
H379 C397 0.930 . S
H380 C388 0.930 . S
H381 C389 0.930 . S
H382 C413 0.929 . S
H383 C371 0.930 . S
H384 C372 0.929 . S
H385 C414 0.930 . S
H386 C395 0.930 . S
N387 Gd356 2.661 . S
N387 C391 1.350 . S
N387 C392 1.307 . S
C388 H380 0.930 . S
C388 C389 1.355 . S
C388 C390 1.412 . S
C389 H381 0.930 . S
C389 C388 1.355 . S
C389 C392 1.402 . S
C390 C388 1.412 . S
C390 C391 1.417 . S
C390 C414 1.431 . S
C391 N387 1.350 . S
C391 C390 1.417 . S
C391 C394 1.426 . S
C392 H375 0.930 . S
C392 N387 1.307 . S
C392 C389 1.402 . S
N393 Gd356 2.601 . S
N393 C394 1.359 . S
N393 C397 1.334 1_655 S
C394 C391 1.426 . S
C394 N393 1.359 . S
C394 C398 1.413 . S
C395 H386 0.930 . S
C395 C396 1.359 . S
C395 C397 1.394 . S
C396 C395 1.359 . S
C396 C398 1.391 1_455 S
C396 H399 0.929 . S
C397 H379 0.930 . S
C397 N393 1.334 1_455 S
C397 C395 1.394 . S
C398 C394 1.413 . S
C398 C396 1.391 1_655 S
C398 C413 1.437 . S
H399 C396 0.929 . S
O400 Gd356 2.545 . S
O400 C415 1.258 . S
O401 Gd356 2.606 1_455 S
O401 Gd357 2.362 . S
O401 C412 1.284 1_455 S
O402 Gd357 2.324 . S
O402 C422 1.254 . S
O403 Gd356 2.429 1_455 S
O403 C422 1.268 . S
O404 Gd356 2.545 . S
O404 C412 1.250 . S
O405 Gd356 2.412 . S
O405 C415 1.252 . S
O406 Gd357 2.545 . S
O406 C424 1.258 . S
O407 Gd356 2.362 1_455 S
O407 Gd357 2.606 . S
O407 C423 1.284 . S
O408 Gd356 2.324 . S
O408 C431 1.254 . S
O409 Gd357 2.429 1_655 S
O409 C431 1.268 . S
O410 Gd357 2.545 . S
O410 C423 1.250 . S
O411 Gd357 2.412 . S
O411 C424 1.252 . S
C412 O401 1.284 1_655 S
C412 O404 1.250 . S
C413 H382 0.929 . S
C413 C398 1.437 . S
C413 C414 1.317 . S
C414 H385 0.930 . S
C414 C390 1.431 . S
C414 C413 1.317 . S
C415 Gd356 2.828 . S
C415 O400 1.258 . S
C415 O405 1.252 . S
C415 C416 1.497 . S
C416 C415 1.497 . S
C416 C417 1.395 1_556 S
C416 C418 1.380 . S
C417 C416 1.395 1_554 S
C417 C420 1.398 . S
C417 H432 0.930 . S
C418 C416 1.380 . S
C418 C419 1.391 1_556 S
C418 H433 0.930 . S
C419 C418 1.391 1_554 S
C419 C421 1.387 . S
C420 C417 1.398 . S
C420 C421 1.380 . S
C420 H434 0.930 . S
C421 C419 1.387 . S
C421 C420 1.380 . S
C421 H435 0.930 . S
C422 O402 1.254 . S
C422 O403 1.268 . S
C423 O407 1.284 . S
C423 O410 1.250 . S
C424 Gd357 2.828 . S
C424 O406 1.258 . S
C424 O411 1.252 . S
C424 C425 1.497 . S
C425 C424 1.497 . S
C425 C426 1.395 . S
C425 C427 1.380 . S
C426 C425 1.395 . S
C426 C429 1.398 . S
C426 H436 0.930 . S
C427 C425 1.380 . S
C427 C428 1.391 . S
C427 H437 0.930 . S
C428 C427 1.391 . S
C428 C430 1.387 . S
C429 C426 1.398 . S
C429 C430 1.380 . S
C429 H438 0.930 . S
C430 C428 1.387 . S
C430 C429 1.380 . S
C430 H439 0.930 . S
C431 O408 1.254 . S
C431 O409 1.268 . S
H432 C417 0.930 . S
H433 C418 0.930 . S
H434 C420 0.930 . S
H435 C421 0.930 . S
H436 C426 0.930 . S
H437 C427 0.930 . S
H438 C429 0.930 . S
H439 C430 0.930 . S
H440 C448 0.950 . S
H441 C453 0.950 . S
H442 C450 0.950 . S
H443 C452 0.950 . S
H444 C454 0.950 1_565 S
H445 C456 0.950 1_565 S
H446 C458 0.950 . S
H447 C459 0.950 . S
C448 H440 0.950 . S
C448 C449 1.386 . S
C448 C450 1.391 . S
C449 C448 1.386 . S
C449 C453 1.393 . S
C450 H442 0.950 . S
C450 C448 1.391 . S
C450 C451 1.400 . S
C451 C450 1.400 . S
C451 C452 1.398 . S
C451 C457 1.491 . S
C452 H443 0.950 . S
C452 C451 1.398 . S
C452 C453 1.391 . S
C453 H441 0.950 . S
C453 C449 1.393 . S
C453 C452 1.391 . S
C454 H444 0.950 1_545 S
C454 C455 1.386 . S
C454 C456 1.391 . S
C455 C454 1.386 . S
C455 C459 1.393 . S
C456 H445 0.950 1_545 S
C456 C454 1.391 . S
C456 C457 1.400 . S
C457 C451 1.491 . S
C457 C456 1.400 . S
C457 C458 1.398 . S
C458 H446 0.950 . S
C458 C457 1.398 . S
C458 C459 1.391 . S
C459 H447 0.950 . S
C459 C455 1.393 . S
C459 C458 1.391 . S
H460 C468 0.950 . S
H461 C473 0.950 . S
H462 C470 0.950 . S
H463 C472 0.950 . S
H464 C474 0.950 . S
H465 C476 0.950 . S
H466 C478 0.950 . S
H467 C479 0.950 . S
C468 H460 0.950 . S
C468 C469 1.386 . S
C468 C470 1.391 . S
C469 C468 1.386 . S
C469 C473 1.393 . S
C470 H462 0.950 . S
C470 C468 1.391 . S
C470 C471 1.400 . S
C471 C470 1.400 . S
C471 C472 1.398 . S
C471 C477 1.491 . S
C472 H463 0.950 . S
C472 C471 1.398 . S
C472 C473 1.391 . S
C473 H461 0.950 . S
C473 C469 1.393 . S
C473 C472 1.391 . S
C474 H464 0.950 . S
C474 C475 1.386 . S
C474 C476 1.391 . S
C475 C474 1.386 . S
C475 C479 1.393 . S
C476 H465 0.950 . S
C476 C474 1.391 . S
C476 C477 1.400 . S
C477 C471 1.491 . S
C477 C476 1.400 . S
C477 C478 1.398 . S
C478 H466 0.950 . S
C478 C477 1.398 . S
C478 C479 1.391 . S
C479 H467 0.950 . S
C479 C475 1.393 . S
C479 C478 1.391 . S
H480 C488 0.950 . S
H481 C493 0.950 . S
H482 C490 0.950 . S
H483 C492 0.950 . S
H484 C494 0.950 . S
H485 C496 0.950 . S
H486 C498 0.950 . S
H487 C499 0.950 . S
C488 H480 0.950 . S
C488 C489 1.386 . S
C488 C490 1.391 . S
C489 C488 1.386 . S
C489 C493 1.393 . S
C490 H482 0.950 . S
C490 C488 1.391 . S
C490 C491 1.400 . S
C491 C490 1.400 . S
C491 C492 1.398 . S
C491 C497 1.491 . S
C492 H483 0.950 . S
C492 C491 1.398 . S
C492 C493 1.391 . S
C493 H481 0.950 . S
C493 C489 1.393 . S
C493 C492 1.391 . S
C494 H484 0.950 . S
C494 C495 1.386 . S
C494 C496 1.391 . S
C495 C494 1.386 . S
C495 C499 1.393 . S
C496 H485 0.950 . S
C496 C494 1.391 . S
C496 C497 1.400 . S
C497 C491 1.491 . S
C497 C496 1.400 . S
C497 C498 1.398 . S
C498 H486 0.950 . S
C498 C497 1.398 . S
C498 C499 1.391 . S
C499 H487 0.950 . S
C499 C495 1.393 . S
C499 C498 1.391 . S
H500 C508 0.950 . S
H501 C513 0.950 . S
H502 C510 0.950 . S
H503 C512 0.950 . S
H504 C514 0.950 . S
H505 C516 0.950 . S
H506 C518 0.949 1_655 S
H507 C519 0.950 1_655 S
C508 H500 0.950 . S
C508 C509 1.386 . S
C508 C510 1.391 . S
C509 C508 1.386 . S
C509 C513 1.393 . S
C510 H502 0.950 . S
C510 C508 1.391 . S
C510 C511 1.400 . S
C511 C510 1.400 . S
C511 C512 1.398 . S
C511 C517 1.491 . S
C512 H503 0.950 . S
C512 C511 1.398 . S
C512 C513 1.391 . S
C513 H501 0.950 . S
C513 C509 1.393 . S
C513 C512 1.391 . S
C514 H504 0.950 . S
C514 C515 1.386 . S
C514 C516 1.391 . S
C515 C514 1.386 . S
C515 C519 1.393 . S
C516 H505 0.950 . S
C516 C514 1.391 . S
C516 C517 1.400 . S
C517 C511 1.491 . S
C517 C516 1.400 . S
C517 C518 1.398 . S
C518 H506 0.949 1_455 S
C518 C517 1.398 . S
C518 C519 1.391 . S
C519 H507 0.950 1_455 S
C519 C515 1.393 . S
C519 C518 1.391 . S
H520 C528 0.950 1_545 S
H521 C533 0.950 . S
H522 C530 0.950 1_545 S
H523 C532 0.950 . S
H524 C534 0.950 . S
H525 C536 0.950 . S
H526 C538 0.950 . S
H527 C539 0.950 . S
C528 H520 0.950 1_565 S
C528 C529 1.386 . S
C528 C530 1.391 . S
C529 C528 1.386 . S
C529 C533 1.393 . S
C530 H522 0.950 1_565 S
C530 C528 1.391 . S
C530 C531 1.400 . S
C531 C530 1.400 . S
C531 C532 1.398 . S
C531 C537 1.491 1_554 S
C532 H523 0.950 . S
C532 C531 1.398 . S
C532 C533 1.391 . S
C533 H521 0.950 . S
C533 C529 1.393 . S
C533 C532 1.391 . S
C534 H524 0.950 . S
C534 C535 1.386 . S
C534 C536 1.391 . S
C535 C534 1.386 . S
C535 C539 1.393 1_565 S
C536 H525 0.950 . S
C536 C534 1.391 . S
C536 C537 1.400 . S
C537 C531 1.491 1_556 S
C537 C536 1.400 . S
C537 C538 1.398 1_565 S
C538 H526 0.950 . S
C538 C537 1.398 1_545 S
C538 C539 1.391 . S
C539 H527 0.950 . S
C539 C535 1.393 1_545 S
C539 C538 1.391 . S
H540 C548 0.950 . S
H541 C553 0.950 . S
H542 C550 0.950 . S
H543 C552 0.950 . S
H544 C554 0.950 . S
H545 C556 0.950 . S
H546 C558 0.950 . S
H547 C559 0.950 . S
C548 H540 0.950 . S
C548 C549 1.386 . S
C548 C550 1.391 . S
C549 C548 1.386 . S
C549 C553 1.393 . S
C550 H542 0.950 . S
C550 C548 1.391 . S
C550 C551 1.400 . S
C551 C550 1.400 . S
C551 C552 1.398 . S
C551 C557 1.491 1_554 S
C552 H543 0.950 . S
C552 C551 1.398 . S
C552 C553 1.391 . S
C553 H541 0.950 . S
C553 C549 1.393 . S
C553 C552 1.391 . S
C554 H544 0.950 . S
C554 C555 1.386 . S
C554 C556 1.391 . S
C555 C554 1.386 . S
C555 C559 1.393 . S
C556 H545 0.950 . S
C556 C554 1.391 . S
C556 C557 1.400 . S
C557 C551 1.491 1_556 S
C557 C556 1.400 . S
C557 C558 1.398 . S
C558 H546 0.950 . S
C558 C557 1.398 . S
C558 C559 1.391 . S
C559 H547 0.950 . S
C559 C555 1.393 . S
C559 C558 1.391 . S
H560 C568 0.950 . S
H561 C573 0.950 . S
H562 C570 0.950 1_556 S
H563 C572 0.950 . S
H564 C574 0.950 . S
H565 C576 0.950 1_554 S
H566 C578 0.950 . S
H567 C579 0.950 . S
C568 H560 0.950 . S
C568 C569 1.386 . S
C568 C570 1.391 . S
C569 C568 1.386 . S
C569 C573 1.393 . S
C570 H562 0.950 1_554 S
C570 C568 1.391 . S
C570 C571 1.400 . S
C571 C570 1.400 . S
C571 C572 1.398 . S
C571 C577 1.491 1_554 S
C572 H563 0.950 . S
C572 C571 1.398 . S
C572 C573 1.391 . S
C573 H561 0.950 . S
C573 C569 1.393 . S
C573 C572 1.391 . S
C574 H564 0.950 . S
C574 C575 1.386 . S
C574 C576 1.391 . S
C575 C574 1.386 . S
C575 C579 1.393 . S
C576 H565 0.950 1_556 S
C576 C574 1.391 . S
C576 C577 1.400 . S
C577 C571 1.491 1_556 S
C577 C576 1.400 . S
C577 C578 1.398 . S
C578 H566 0.950 . S
C578 C577 1.398 . S
C578 C579 1.391 . S
C579 H567 0.950 . S
C579 C575 1.393 . S
C579 C578 1.391 . S
H580 C588 0.950 . S
H581 C593 0.950 . S
H582 C590 0.950 1_556 S
H583 C592 0.950 . S
H584 C594 0.950 . S
H585 C596 0.950 1_554 S
H586 C598 0.950 . S
H587 C599 0.950 . S
C588 H580 0.950 . S
C588 C589 1.386 . S
C588 C590 1.391 . S
C589 C588 1.386 . S
C589 C593 1.393 . S
C590 H582 0.950 1_554 S
C590 C588 1.391 . S
C590 C591 1.400 . S
C591 C590 1.400 . S
C591 C592 1.398 . S
C591 C597 1.491 1_554 S
C592 H583 0.950 . S
C592 C591 1.398 . S
C592 C593 1.391 . S
C593 H581 0.950 . S
C593 C589 1.393 . S
C593 C592 1.391 . S
C594 H584 0.950 . S
C594 C595 1.386 . S
C594 C596 1.391 . S
C595 C594 1.386 . S
C595 C599 1.393 . S
C596 H585 0.950 1_556 S
C596 C594 1.391 . S
C596 C597 1.400 . S
C597 C591 1.491 1_556 S
C597 C596 1.400 . S
C597 C598 1.398 . S
C598 H586 0.950 . S
C598 C597 1.398 . S
C598 C599 1.391 . S
C599 H587 0.950 . S
C599 C595 1.393 . S
C599 C598 1.391 . S
H600 C608 0.950 . S
H601 C613 0.950 . S
H602 C610 0.950 . S
H603 C612 0.950 . S
H604 C614 0.950 . S
H605 C616 0.944 1_655 S
H606 C618 0.950 . S
H607 C619 0.950 . S
C608 H600 0.950 . S
C608 C609 1.386 . S
C608 C610 1.391 . S
C609 C608 1.386 . S
C609 C613 1.393 . S
C610 H602 0.950 . S
C610 C608 1.391 . S
C610 C611 1.400 . S
C611 C610 1.400 . S
C611 C612 1.398 . S
C611 C617 1.491 . S
C612 H603 0.950 . S
C612 C611 1.398 . S
C612 C613 1.391 . S
C613 H601 0.950 . S
C613 C609 1.393 . S
C613 C612 1.391 . S
C614 H604 0.950 . S
C614 C615 1.386 1_655 S
C614 C616 1.387 1_655 S
C615 C614 1.386 1_455 S
C615 C619 1.393 . S
C616 H605 0.944 1_455 S
C616 C614 1.387 1_455 S
C616 C617 1.410 . S
C617 C611 1.491 . S
C617 C616 1.410 . S
C617 C618 1.398 . S
C618 H606 0.950 . S
C618 C617 1.398 . S
C618 C619 1.391 . S
C619 H607 0.950 . S
C619 C615 1.393 . S
C619 C618 1.391 . S
H620 C628 0.950 . S
H621 C633 0.950 . S
H622 C630 0.950 . S
H623 C632 0.950 . S
H624 C634 0.950 . S
H625 C636 0.950 . S
H626 C638 0.950 1_565 S
H627 C639 0.950 . S
C628 H620 0.950 . S
C628 C629 1.386 . S
C628 C630 1.391 . S
C629 C628 1.386 . S
C629 C633 1.393 . S
C630 H622 0.950 . S
C630 C628 1.391 . S
C630 C631 1.400 . S
C631 C630 1.400 . S
C631 C632 1.398 . S
C631 C637 1.491 . S
C632 H623 0.950 . S
C632 C631 1.398 . S
C632 C633 1.391 . S
C633 H621 0.950 . S
C633 C629 1.393 . S
C633 C632 1.391 . S
C634 H624 0.950 . S
C634 C635 1.386 . S
C634 C636 1.391 . S
C635 C634 1.386 . S
C635 C639 1.393 1_545 S
C636 H625 0.950 . S
C636 C634 1.391 . S
C636 C637 1.400 . S
C637 C631 1.491 . S
C637 C636 1.400 . S
C637 C638 1.398 . S
C638 H626 0.950 1_545 S
C638 C637 1.398 . S
C638 C639 1.391 1_545 S
C639 H627 0.950 . S
C639 C635 1.393 1_565 S
C639 C638 1.391 1_565 S
H640 C648 0.950 . S
H641 C653 0.950 . S
H642 C650 0.950 . S
H643 C652 0.950 . S
H644 C654 0.950 . S
H645 C656 0.950 . S
H646 C658 0.950 . S
H647 C659 0.950 . S
C648 H640 0.950 . S
C648 C649 1.386 . S
C648 C650 1.391 . S
C649 C648 1.386 . S
C649 C653 1.393 . S
C650 H642 0.950 . S
C650 C648 1.391 . S
C650 C651 1.400 . S
C651 C650 1.400 . S
C651 C652 1.398 . S
C651 C657 1.491 . S
C652 H643 0.950 . S
C652 C651 1.398 . S
C652 C653 1.391 . S
C653 H641 0.950 . S
C653 C649 1.393 . S
C653 C652 1.391 . S
C654 H644 0.950 . S
C654 C655 1.386 . S
C654 C656 1.391 . S
C655 C654 1.386 . S
C655 C659 1.393 . S
C656 H645 0.950 . S
C656 C654 1.391 . S
C656 C657 1.400 . S
C657 C651 1.491 . S
C657 C656 1.400 . S
C657 C658 1.398 . S
C658 H646 0.950 . S
C658 C657 1.398 . S
C658 C659 1.391 . S
C659 H647 0.950 . S
C659 C655 1.393 . S
C659 C658 1.391 . S
H660 C668 0.950 . S
H661 C673 0.950 . S
H662 C670 0.950 . S
H663 C672 0.950 . S
H664 C674 0.950 . S
H665 C676 0.950 . S
H666 C678 0.950 . S
H667 C679 0.950 . S
C668 H660 0.950 . S
C668 C669 1.386 . S
C668 C670 1.391 . S
C669 C668 1.386 . S
C669 C673 1.393 . S
C670 H662 0.950 . S
C670 C668 1.391 . S
C670 C671 1.400 . S
C671 C670 1.400 . S
C671 C672 1.398 . S
C671 C677 1.491 . S
C672 H663 0.950 . S
C672 C671 1.398 . S
C672 C673 1.391 . S
C673 H661 0.950 . S
C673 C669 1.393 . S
C673 C672 1.391 . S
C674 H664 0.950 . S
C674 C675 1.386 . S
C674 C676 1.391 . S
C675 C674 1.386 . S
C675 C679 1.393 . S
C676 H665 0.950 . S
C676 C674 1.391 . S
C676 C677 1.400 . S
C677 C671 1.491 . S
C677 C676 1.400 . S
C677 C678 1.398 . S
C678 H666 0.950 . S
C678 C677 1.398 . S
C678 C679 1.391 . S
C679 H667 0.950 . S
C679 C675 1.393 . S
C679 C678 1.391 . S
H680 C688 0.950 . S
H681 C693 0.950 . S
H682 C690 0.950 . S
H683 C692 0.950 . S
H684 C694 0.950 . S
H685 C696 0.950 . S
H686 C698 0.950 . S
H687 C699 0.950 . S
C688 H680 0.950 . S
C688 C689 1.386 . S
C688 C690 1.391 . S
C689 C688 1.386 . S
C689 C693 1.393 . S
C690 H682 0.950 . S
C690 C688 1.391 . S
C690 C691 1.400 . S
C691 C690 1.400 . S
C691 C692 1.398 . S
C691 C697 1.491 . S
C692 H683 0.950 . S
C692 C691 1.398 . S
C692 C693 1.391 . S
C693 H681 0.950 . S
C693 C689 1.393 . S
C693 C692 1.391 . S
C694 H684 0.950 . S
C694 C695 1.386 1_554 S
C694 C696 1.391 . S
C695 C694 1.386 1_556 S
C695 C699 1.393 1_455 S
C696 H685 0.950 . S
C696 C694 1.391 . S
C696 C697 1.400 1_455 S
C697 C691 1.491 . S
C697 C696 1.400 1_655 S
C697 C698 1.398 1_554 S
C698 H686 0.950 . S
C698 C697 1.398 1_556 S
C698 C699 1.391 . S
C699 H687 0.950 . S
C699 C695 1.393 1_655 S
C699 C698 1.391 . S
H700 C708 0.950 . S
H701 C713 0.950 . S
H702 C710 0.950 . S
H703 C712 0.950 . S
H704 C714 0.950 . S
H705 C716 0.950 . S
H706 C718 0.950 . S
H707 C719 0.950 . S
C708 H700 0.950 . S
C708 C709 1.386 . S
C708 C710 1.391 . S
C709 C708 1.386 . S
C709 C713 1.393 . S
C710 H702 0.950 . S
C710 C708 1.391 . S
C710 C711 1.400 . S
C711 C710 1.400 . S
C711 C712 1.398 . S
C711 C717 1.491 . S
C712 H703 0.950 . S
C712 C711 1.398 . S
C712 C713 1.391 . S
C713 H701 0.950 . S
C713 C709 1.393 . S
C713 C712 1.391 . S
C714 H704 0.950 . S
C714 C715 1.386 . S
C714 C716 1.391 1_545 S
C715 C714 1.386 . S
C715 C719 1.393 1_556 S
C716 H705 0.950 . S
C716 C714 1.391 1_565 S
C716 C717 1.400 1_556 S
C717 C711 1.491 . S
C717 C716 1.400 1_554 S
C717 C718 1.398 . S
C718 H706 0.950 . S
C718 C717 1.398 . S
C718 C719 1.391 1_565 S
C719 H707 0.950 . S
C719 C715 1.393 1_554 S
C719 C718 1.391 1_545 S
H720 C728 0.950 . S
H721 C733 0.950 . S
H722 C730 0.950 . S
H723 C732 0.950 . S
H724 C734 0.950 . S
H725 C736 0.950 . S
H726 C738 0.950 . S
H727 C739 0.950 . S
C728 H720 0.950 . S
C728 C729 1.386 . S
C728 C730 1.391 . S
C729 C728 1.386 . S
C729 C733 1.393 . S
C730 H722 0.950 . S
C730 C728 1.391 . S
C730 C731 1.400 . S
C731 C730 1.400 . S
C731 C732 1.398 . S
C731 C737 1.491 . S
C732 H723 0.950 . S
C732 C731 1.398 . S
C732 C733 1.391 . S
C733 H721 0.950 . S
C733 C729 1.393 . S
C733 C732 1.391 . S
C734 H724 0.950 . S
C734 C735 1.386 1_556 S
C734 C736 1.391 1_556 S
C735 C734 1.386 1_554 S
C735 C739 1.393 . S
C736 H725 0.950 . S
C736 C734 1.391 1_554 S
C736 C737 1.400 . S
C737 C731 1.491 . S
C737 C736 1.400 . S
C737 C738 1.398 . S
C738 H726 0.950 . S
C738 C737 1.398 . S
C738 C739 1.391 . S
C739 H727 0.950 . S
C739 C735 1.393 . S
C739 C738 1.391 . S
H740 C748 0.950 . S
H741 C753 0.950 . S
H742 C750 0.950 . S
H743 C752 0.950 . S
H744 C754 0.950 . S
H745 C756 0.950 . S
H746 C758 0.950 . S
H747 C759 0.950 . S
C748 H740 0.950 . S
C748 C749 1.386 . S
C748 C750 1.391 . S
C749 C748 1.386 . S
C749 C753 1.393 . S
C750 H742 0.950 . S
C750 C748 1.391 . S
C750 C751 1.400 . S
C751 C750 1.400 . S
C751 C752 1.398 . S
C751 C757 1.491 . S
C752 H743 0.950 . S
C752 C751 1.398 . S
C752 C753 1.391 . S
C753 H741 0.950 . S
C753 C749 1.393 . S
C753 C752 1.391 . S
C754 H744 0.950 . S
C754 C755 1.393 . S
C754 C756 1.391 . S
C755 C754 1.393 . S
C755 C759 1.380 1_556 S
C756 H745 0.950 . S
C756 C754 1.391 . S
C756 C757 1.400 1_556 S
C757 C751 1.491 . S
C757 C756 1.400 1_554 S
C757 C758 1.398 . S
C758 H746 0.950 . S
C758 C757 1.398 . S
C758 C759 1.391 . S
C759 H747 0.950 . S
C759 C755 1.380 1_554 S
C759 C758 1.391 . S
H760 C768 0.950 . S
H761 C773 0.950 . S
H762 C770 0.950 . S
H763 C772 0.950 . S
H764 C774 0.950 1_655 S
H765 C776 0.950 . S
H766 C778 0.950 . S
H767 C779 0.950 . S
C768 H760 0.950 . S
C768 C769 1.386 . S
C768 C770 1.391 . S
C769 C768 1.386 . S
C769 C773 1.393 . S
C770 H762 0.950 . S
C770 C768 1.391 . S
C770 C771 1.400 . S
C771 C770 1.400 . S
C771 C772 1.398 . S
C771 C777 1.491 . S
C772 H763 0.950 . S
C772 C771 1.398 . S
C772 C773 1.391 . S
C773 H761 0.950 . S
C773 C769 1.393 . S
C773 C772 1.391 . S
C774 H764 0.950 1_455 S
C774 C775 1.386 . S
C774 C776 1.391 . S
C775 C774 1.386 . S
C775 C779 1.393 . S
C776 H765 0.950 . S
C776 C774 1.391 . S
C776 C777 1.400 . S
C777 C771 1.491 . S
C777 C776 1.400 . S
C777 C778 1.398 . S
C778 H766 0.950 . S
C778 C777 1.398 . S
C778 C779 1.391 . S
C779 H767 0.950 . S
C779 C775 1.393 . S
C779 C778 1.391 . S
H780 C788 0.950 . S
H781 C793 0.950 . S
H782 C790 0.950 . S
H783 C792 0.950 . S
H784 C794 0.950 . S
H785 C796 0.950 . S
H786 C798 0.950 . S
H787 C799 0.950 . S
C788 H780 0.950 . S
C788 C789 1.386 . S
C788 C790 1.391 . S
C789 C788 1.386 . S
C789 C793 1.393 . S
C790 H782 0.950 . S
C790 C788 1.391 . S
C790 C791 1.400 . S
C791 C790 1.400 . S
C791 C792 1.398 . S
C791 C797 1.491 . S
C792 H783 0.950 . S
C792 C791 1.398 . S
C792 C793 1.391 . S
C793 H781 0.950 . S
C793 C789 1.393 . S
C793 C792 1.391 . S
C794 H784 0.950 . S
C794 C795 1.386 . S
C794 C796 1.391 . S
C795 C794 1.386 . S
C795 C799 1.393 . S
C796 H785 0.950 . S
C796 C794 1.391 . S
C796 C797 1.400 . S
C797 C791 1.491 . S
C797 C796 1.400 . S
C797 C798 1.398 . S
C798 H786 0.950 . S
C798 C797 1.398 . S
C798 C799 1.391 . S
C799 H787 0.950 . S
C799 C795 1.393 . S
C799 C798 1.391 . S
H800 C808 0.950 . S
H801 C813 0.950 . S
H802 C810 0.950 . S
H803 C812 0.950 . S
H804 C814 0.950 . S
H805 C816 0.950 . S
H806 C818 0.950 . S
H807 C819 0.950 . S
C808 H800 0.950 . S
C808 C809 1.386 . S
C808 C810 1.391 . S
C809 C808 1.386 . S
C809 C813 1.393 . S
C810 H802 0.950 . S
C810 C808 1.391 . S
C810 C811 1.400 . S
C811 C810 1.400 . S
C811 C812 1.398 . S
C811 C817 1.491 . S
C812 H803 0.950 . S
C812 C811 1.398 . S
C812 C813 1.391 . S
C813 H801 0.950 . S
C813 C809 1.393 . S
C813 C812 1.391 . S
C814 H804 0.950 . S
C814 C815 1.386 . S
C814 C816 1.391 . S
C815 C814 1.386 . S
C815 C819 1.393 . S
C816 H805 0.950 . S
C816 C814 1.391 . S
C816 C817 1.400 . S
C817 C811 1.491 . S
C817 C816 1.400 . S
C817 C818 1.398 . S
C818 H806 0.950 . S
C818 C817 1.398 . S
C818 C819 1.391 . S
C819 H807 0.950 . S
C819 C815 1.393 . S
C819 C818 1.391 . S
H820 C828 0.950 . S
H821 C833 0.950 . S
H822 C830 0.950 . S
H823 C832 0.950 . S
H824 C834 0.950 . S
H825 C836 0.950 . S
H826 C838 0.950 . S
H827 C839 0.950 . S
C828 H820 0.950 . S
C828 C829 1.386 . S
C828 C830 1.391 . S
C829 C828 1.386 . S
C829 C833 1.393 . S
C830 H822 0.950 . S
C830 C828 1.391 . S
C830 C831 1.400 . S
C831 C830 1.400 . S
C831 C832 1.398 . S
C831 C837 1.491 . S
C832 H823 0.950 . S
C832 C831 1.398 . S
C832 C833 1.391 . S
C833 H821 0.950 . S
C833 C829 1.393 . S
C833 C832 1.391 . S
C834 H824 0.950 . S
C834 C835 1.386 . S
C834 C836 1.391 . S
C835 C834 1.386 . S
C835 C839 1.393 . S
C836 H825 0.950 . S
C836 C834 1.391 . S
C836 C837 1.400 . S
C837 C831 1.491 . S
C837 C836 1.400 . S
C837 C838 1.398 . S
C838 H826 0.950 . S
C838 C837 1.398 . S
C838 C839 1.391 . S
C839 H827 0.950 . S
C839 C835 1.393 . S
C839 C838 1.391 . S
H840 C848 0.950 . S
H841 C853 0.950 . S
H842 C850 0.949 . S
H843 C852 0.950 . S
H844 C854 0.950 . S
H845 C856 0.950 . S
H846 C858 0.950 1_455 S
H847 C859 0.950 1_455 S
C848 H840 0.950 . S
C848 C849 1.386 . S
C848 C850 1.391 . S
C849 C848 1.386 . S
C849 C853 1.393 . S
C850 H842 0.949 . S
C850 C848 1.391 . S
C850 C851 1.400 . S
C851 C850 1.400 . S
C851 C852 1.398 . S
C851 C857 1.491 . S
C852 H843 0.950 . S
C852 C851 1.398 . S
C852 C853 1.391 . S
C853 H841 0.950 . S
C853 C849 1.393 . S
C853 C852 1.391 . S
C854 H844 0.950 . S
C854 C855 1.386 . S
C854 C856 1.391 . S
C855 C854 1.386 . S
C855 C859 1.393 . S
C856 H845 0.950 . S
C856 C854 1.391 . S
C856 C857 1.400 . S
C857 C851 1.491 . S
C857 C856 1.400 . S
C857 C858 1.398 . S
C858 H846 0.950 1_655 S
C858 C857 1.398 . S
C858 C859 1.391 . S
C859 H847 0.950 1_655 S
C859 C855 1.393 . S
C859 C858 1.391 . S
H860 C868 0.950 1_545 S
H861 C873 0.950 . S
H862 C870 0.950 1_545 S
H863 C872 0.950 . S
H864 C874 0.950 . S
H865 C876 0.950 . S
H866 C878 0.950 . S
H867 C879 0.950 . S
C868 H860 0.950 1_565 S
C868 C869 1.386 . S
C868 C870 1.391 . S
C869 C868 1.386 . S
C869 C873 1.393 . S
C870 H862 0.950 1_565 S
C870 C868 1.391 . S
C870 C871 1.400 . S
C871 C870 1.400 . S
C871 C872 1.398 . S
C871 C877 1.491 . S
C872 H863 0.950 . S
C872 C871 1.398 . S
C872 C873 1.391 . S
C873 H861 0.950 . S
C873 C869 1.393 . S
C873 C872 1.391 . S
C874 H864 0.950 . S
C874 C875 1.386 . S
C874 C876 1.391 . S
C875 C874 1.386 . S
C875 C879 1.393 1_565 S
C876 H865 0.950 . S
C876 C874 1.391 . S
C876 C877 1.400 . S
C877 C871 1.491 . S
C877 C876 1.400 . S
C877 C878 1.398 1_565 S
C878 H866 0.950 . S
C878 C877 1.398 1_545 S
C878 C879 1.391 . S
C879 H867 0.950 . S
C879 C875 1.393 1_545 S
C879 C878 1.391 . S
H880 C888 0.950 . S
H881 C893 0.950 . S
H882 C890 0.950 . S
H883 C892 0.950 . S
H884 C894 0.950 . S
H885 C896 0.950 . S
H886 C898 0.950 . S
H887 C899 0.950 . S
C888 H880 0.950 . S
C888 C889 1.386 . S
C888 C890 1.391 . S
C889 C888 1.386 . S
C889 C893 1.393 . S
C890 H882 0.950 . S
C890 C888 1.391 . S
C890 C891 1.400 . S
C891 C890 1.400 . S
C891 C892 1.398 . S
C891 C897 1.491 . S
C892 H883 0.950 . S
C892 C891 1.398 . S
C892 C893 1.391 . S
C893 H881 0.950 . S
C893 C889 1.393 . S
C893 C892 1.391 . S
C894 H884 0.950 . S
C894 C895 1.386 . S
C894 C896 1.391 . S
C895 C894 1.386 . S
C895 C899 1.393 . S
C896 H885 0.950 . S
C896 C894 1.391 . S
C896 C897 1.400 . S
C897 C891 1.491 . S
C897 C896 1.400 . S
C897 C898 1.398 . S
C898 H886 0.950 . S
C898 C897 1.398 . S
C898 C899 1.391 . S
C899 H887 0.950 . S
C899 C895 1.393 . S
C899 C898 1.391 . S
H900 C908 0.950 . S
H901 C913 0.950 . S
H902 C910 0.950 . S
H903 C912 0.950 . S
H904 C914 0.950 . S
H905 C916 0.950 . S
H906 C918 0.950 . S
H907 C919 0.950 . S
C908 H900 0.950 . S
C908 C909 1.386 . S
C908 C910 1.391 . S
C909 C908 1.386 . S
C909 C913 1.393 . S
C910 H902 0.950 . S
C910 C908 1.391 . S
C910 C911 1.400 . S
C911 C910 1.400 . S
C911 C912 1.398 . S
C911 C917 1.491 . S
C912 H903 0.950 . S
C912 C911 1.398 . S
C912 C913 1.391 . S
C913 H901 0.950 . S
C913 C909 1.393 . S
C913 C912 1.391 . S
C914 H904 0.950 . S
C914 C915 1.386 . S
C914 C916 1.391 . S
C915 C914 1.386 . S
C915 C919 1.393 . S
C916 H905 0.950 . S
C916 C914 1.391 . S
C916 C917 1.400 . S
C917 C911 1.491 . S
C917 C916 1.400 . S
C917 C918 1.398 . S
C918 H906 0.950 . S
C918 C917 1.398 . S
C918 C919 1.391 . S
C919 H907 0.950 . S
C919 C915 1.393 . S
C919 C918 1.391 . S
C449 C82 1.761 . S
C455 C179 1.931 . S
C475 C263 1.946 . S
C469 C95 1.780 . S
C495 C339 1.901 . S
C489 C56 1.843 . S
C515 C423 1.885 . S
C509 C69 1.822 . S
C535 C170 1.929 1_565 S
C529 C30 1.703 . S
C549 C43 1.680 . S
C555 C254 1.935 . S
C569 C4 1.779 . S
C575 C328 1.913 . S
C589 C17 1.763 . S
C595 C412 1.896 . S
C615 C167 0.645 1_455 S
C609 C74 0.665 . S
C635 C251 0.599 1_545 S
C629 C87 0.615 . S
C655 C344 0.580 . S
C649 C100 0.601 . S
C669 C61 0.606 . S
C675 C428 0.636 . S
C689 C22 0.649 . S
C695 C176 0.625 . S
C715 C260 0.648 . S
C709 C35 0.598 . S
C735 C335 0.563 . S
C729 C48 0.622 . S
C749 C9 0.613 . S
C755 C419 0.618 1_556 S
C769 C73 1.988 . S
C775 C160 2.046 . S
C789 C86 1.965 . S
C795 C244 2.016 . S
C815 C338 2.056 . S
C809 C99 1.870 . S
C835 C422 2.088 . S
C829 C60 1.911 . S
C849 C21 1.981 . S
C855 C171 2.051 . S
C875 C255 2.019 . S
C869 C34 1.954 . S
C895 C347 2.048 . S
C889 C47 1.881 . S
C909 C8 1.890 . S
C915 C431 2.082 . S
