# Generated by pormake.
# Topology pyr, (3,6)-cn, num edge types: 1
# Building blocks:
#     Node 0, Type 0, BuildingBlock: BETDAH_clean_linker_0, # of connection points: 3
#     Node 1, Type 0, BuildingBlock: BETDAH_clean_linker_0, # of connection points: 3
#     Node 2, Type 0, BuildingBlock: BETDAH_clean_linker_0, # of connection points: 3
#     Node 3, Type 0, BuildingBlock: BETDAH_clean_linker_0, # of connection points: 3
#     Node 4, Type 0, BuildingBlock: BETDAH_clean_linker_0, # of connection points: 3
#     Node 5, Type 0, BuildingBlock: BETDAH_clean_linker_0, # of connection points: 3
#     Node 6, Type 0, BuildingBlock: BETDAH_clean_linker_0, # of connection points: 3
#     Node 7, Type 0, BuildingBlock: BETDAH_clean_linker_0, # of connection points: 3
#     Node 8, Type 1, BuildingBlock: BETFAJ_clean_sbu_0, # of connection points: 6
#     Node 9, Type 1, BuildingBlock: BETFAJ_clean_sbu_0, # of connection points: 6
#     Node 10, Type 1, BuildingBlock: BETFAJ_clean_sbu_0, # of connection points: 6
#     Node 11, Type 1, BuildingBlock: BETFAJ_clean_sbu_0, # of connection points: 6
#     Edge 12, Type (0, 1), BuildingBlock: KIFKEQ_clean_linker_1, # of connection points: 2
#     Edge 13, Type (0, 1), BuildingBlock: KIFKEQ_clean_linker_1, # of connection points: 2
#     Edge 14, Type (0, 1), BuildingBlock: KIFKEQ_clean_linker_1, # of connection points: 2
#     Edge 15, Type (0, 1), BuildingBlock: KIFKEQ_clean_linker_1, # of connection points: 2
#     Edge 16, Type (0, 1), BuildingBlock: KIFKEQ_clean_linker_1, # of connection points: 2
#     Edge 17, Type (0, 1), BuildingBlock: KIFKEQ_clean_linker_1, # of connection points: 2
#     Edge 18, Type (0, 1), BuildingBlock: KIFKEQ_clean_linker_1, # of connection points: 2
#     Edge 19, Type (0, 1), BuildingBlock: KIFKEQ_clean_linker_1, # of connection points: 2
#     Edge 20, Type (0, 1), BuildingBlock: KIFKEQ_clean_linker_1, # of connection points: 2
#     Edge 21, Type (0, 1), BuildingBlock: KIFKEQ_clean_linker_1, # of connection points: 2
#     Edge 22, Type (0, 1), BuildingBlock: KIFKEQ_clean_linker_1, # of connection points: 2
#     Edge 23, Type (0, 1), BuildingBlock: KIFKEQ_clean_linker_1, # of connection points: 2
#     Edge 24, Type (0, 1), BuildingBlock: KIFKEQ_clean_linker_1, # of connection points: 2
#     Edge 25, Type (0, 1), BuildingBlock: KIFKEQ_clean_linker_1, # of connection points: 2
#     Edge 26, Type (0, 1), BuildingBlock: KIFKEQ_clean_linker_1, # of connection points: 2
#     Edge 27, Type (0, 1), BuildingBlock: KIFKEQ_clean_linker_1, # of connection points: 2
#     Edge 28, Type (0, 1), BuildingBlock: KIFKEQ_clean_linker_1, # of connection points: 2
#     Edge 29, Type (0, 1), BuildingBlock: KIFKEQ_clean_linker_1, # of connection points: 2
#     Edge 30, Type (0, 1), BuildingBlock: KIFKEQ_clean_linker_1, # of connection points: 2
#     Edge 31, Type (0, 1), BuildingBlock: KIFKEQ_clean_linker_1, # of connection points: 2
#     Edge 32, Type (0, 1), BuildingBlock: KIFKEQ_clean_linker_1, # of connection points: 2
#     Edge 33, Type (0, 1), BuildingBlock: KIFKEQ_clean_linker_1, # of connection points: 2
#     Edge 34, Type (0, 1), BuildingBlock: KIFKEQ_clean_linker_1, # of connection points: 2
#     Edge 35, Type (0, 1), BuildingBlock: KIFKEQ_clean_linker_1, # of connection points: 2
# Relax obj value: 0.143
# Max RMSD: 0.193
# Mean RMSD: 0.140
data_MOF--net-pyr--node1-BETFAJ_clean_sbu_0--node2-BETDAH_clean_linker_0--edge1-KIFKEQ_clean_linker_1
_symmetry_space_group_name_H-M    P1
_symmetry_Int_Tables_number       1
_symmetry_cell_setting            triclinic
loop_
_symmetry_equiv_pos_as_xyz
'x, y, z'
_cell_length_a     37.974764
_cell_length_b     41.489481
_cell_length_c     38.339073
_cell_angle_alpha  91.809968
_cell_angle_beta   89.269785
_cell_angle_gamma 106.67381
loop_
_atom_site_label
_atom_site_type_symbol
_atom_site_fract_x
_atom_site_fract_y
_atom_site_fract_z
_atom_type_partial_charge
H0 H 0.38182 0.26351 0.2892 0.0
H1 H 0.42365 0.32753 0.2028 0.0
H2 H 0.34597 0.35131 0.27435 0.0
C3 C 0.38403 0.28634 0.27523 0.0
C4 C 0.36231 0.3072 0.28565 0.0
C5 C 0.40578 0.29306 0.24495 0.0
C6 C 0.40704 0.32205 0.22626 0.0
C7 C 0.38576 0.34332 0.23672 0.0
C8 C 0.36319 0.33559 0.26637 0.0
N9 N 0.38677 0.37154 0.21624 0.0
C10 C 0.35985 0.3884 0.21716 0.0
H11 H 0.31391 0.85986 0.70909 0.0
H12 H 0.29608 0.9568 0.69774 0.0
H13 H 0.29999 0.89451 0.60721 0.0
C14 C 0.30718 0.87817 0.69282 0.0
C15 C 0.30644 0.87332 0.65648 0.0
C16 C 0.3039 0.90832 0.70799 0.0
C17 C 0.29866 0.93327 0.68651 0.0
C18 C 0.29684 0.92787 0.65038 0.0
C19 C 0.30047 0.89796 0.63538 0.0
N20 N 0.28949 0.95189 0.629 0.0
C21 C 0.25529 0.94379 0.61385 0.0
H22 H 0.71802 0.36369 0.96504 0.0
H23 H 0.7114 0.43722 0.88978 0.0
H24 H 0.62526 0.34414 0.89616 0.0
C25 C 0.70381 0.37108 0.94377 0.0
C26 C 0.66945 0.34949 0.9329 0.0
C27 C 0.71949 0.40283 0.9286 0.0
C28 C 0.69993 0.41311 0.90167 0.0
C29 C 0.66575 0.39174 0.88992 0.0
C30 C 0.65122 0.36038 0.90572 0.0
N31 N 0.64412 0.39981 0.86279 0.0
C32 C 0.65063 0.42751 0.84086 0.0
H33 H 0.82924 0.76113 0.4551 0.0
H34 H 0.92413 0.76286 0.39156 0.0
H35 H 0.83461 0.672 0.39749 0.0
C36 C 0.84329 0.74877 0.4366 0.0
C37 C 0.82686 0.71479 0.427 0.0
C38 C 0.8784 0.76654 0.42425 0.0
C39 C 0.8965 0.75008 0.40016 0.0
C40 C 0.88051 0.71606 0.38965 0.0
C41 C 0.84599 0.69859 0.40378 0.0
N42 N 0.90281 0.69724 0.37349 0.0
C43 C 0.90901 0.69311 0.33763 0.0
H44 H 0.71372 0.75073 0.83496 0.0
H45 H 0.68557 0.76883 0.94052 0.0
H46 H 0.67322 0.83556 0.86184 0.0
C47 C 0.70407 0.76614 0.85391 0.0
C48 C 0.69725 0.79618 0.84393 0.0
C49 C 0.70438 0.7584 0.88913 0.0
C50 C 0.6868 0.77485 0.91317 0.0
C51 C 0.67288 0.80095 0.90276 0.0
C52 C 0.67977 0.81281 0.86848 0.0
N53 N 0.65503 0.81604 0.92866 0.0
C54 C 0.64142 0.84356 0.92506 0.0
H55 H 0.76379 0.17786 0.46632 0.0
H56 H 0.83298 0.25812 0.52897 0.0
H57 H 0.73883 0.27247 0.47824 0.0
C58 C 0.76883 0.20256 0.47892 0.0
C59 C 0.7471 0.22327 0.47034 0.0
C60 C 0.80027 0.21537 0.49908 0.0
C61 C 0.80834 0.24792 0.51351 0.0
C62 C 0.78563 0.26797 0.50726 0.0
C63 C 0.75471 0.25582 0.48555 0.0
N64 N 0.79651 0.30131 0.52068 0.0
C65 C 0.77192 0.31444 0.53862 0.0
H66 H 0.34767 0.7803 0.20092 0.0
H67 H 0.33266 0.70782 0.28234 0.0
H68 H 0.42095 0.80018 0.28824 0.0
C69 C 0.35667 0.77198 0.22486 0.0
C70 C 0.38723 0.79352 0.24217 0.0
C71 C 0.33691 0.7406 0.23828 0.0
C72 C 0.34845 0.73094 0.2706 0.0
C73 C 0.37947 0.75204 0.28859 0.0
C74 C 0.39846 0.78313 0.27385 0.0
N75 N 0.38618 0.74744 0.32469 0.0
C76 C 0.39802 0.72202 0.34032 0.0
H77 H 0.22205 0.3793 0.68543 0.0
H78 H 0.20907 0.45609 0.75923 0.0
H79 H 0.12482 0.36174 0.74935 0.0
C80 C 0.20595 0.38771 0.70534 0.0
C81 C 0.17165 0.36584 0.71533 0.0
C82 C 0.21992 0.42043 0.72068 0.0
C83 C 0.1988 0.43132 0.74699 0.0
C84 C 0.16461 0.40972 0.75771 0.0
C85 C 0.15152 0.37758 0.74149 0.0
N86 N 0.14168 0.41826 0.78437 0.0
C87 C 0.14665 0.44704 0.8062 0.0
Sm88 Sm 0.04283 0.07968 0.53257 0.0
Sm89 Sm 1.00333 0.05679 0.60053 0.0
C90 C 0.06709 0.10369 0.47127 0.0
C91 C 0.09928 0.13087 0.4599 0.0
C92 C 0.10012 0.16491 0.464 0.0
C93 C 0.13115 0.19038 0.45403 0.0
C94 C 0.16193 0.18236 0.43968 0.0
C95 C 0.16108 0.14833 0.43577 0.0
C96 C 0.13008 0.12289 0.44568 0.0
C97 C 0.08145 0.05281 0.57806 0.0
C98 C 0.06263 0.13045 0.60124 0.0
C99 C 0.96646 1.02624 0.65479 0.0
C100 C 0.93455 0.99671 0.66088 0.0
C101 C 0.93905 0.9648 0.66612 0.0
C102 C 0.90894 0.93809 0.67553 0.0
C103 C 0.87393 0.94291 0.68001 0.0
C104 C 0.86906 0.97419 0.6726 0.0
C105 C 0.89908 1.00086 0.66334 0.0
C106 C 0.97574 0.09766 0.5622 0.0
C107 C 0.98585 1.00342 0.53161 0.0
O108 O 0.0415 0.11286 0.4888 0.0
O109 O 0.07404 0.07715 0.48382 0.0
O110 O 0.04784 0.04264 0.57179 0.0
O111 O 0.09658 0.07879 0.55939 0.0
O112 O 0.05742 0.12859 0.56706 0.0
O113 O 0.05062 0.10306 0.62007 0.0
O114 O 0.99755 1.02129 0.64428 0.0
O115 O 0.95913 0.05114 0.63942 0.0
O116 O 0.98499 0.07289 0.55018 0.0
O117 O 0.98109 0.10211 0.59546 0.0
O118 O 0.9776 1.00948 0.56452 0.0
O119 O 1.00955 1.02658 0.51342 0.0
H120 H 0.07687 0.17198 0.47496 0.0
H121 H 0.13101 0.21634 0.45754 0.0
H122 H 0.184 0.14122 0.42411 0.0
H123 H 0.13019 0.09691 0.44209 0.0
H124 H 0.96595 0.96074 0.66419 0.0
H125 H 0.91332 0.91403 0.68081 0.0
H126 H 0.84252 0.97873 0.6762 0.0
H127 H 0.89462 1.02514 0.65948 0.0
Sm128 Sm 0.56117 0.07605 0.1009 0.0
Sm129 Sm 0.49435 0.06303 0.06888 0.0
C130 C 0.62204 0.10226 0.13672 0.0
C131 C 0.62763 0.11686 0.1725 0.0
C132 C 0.62715 0.15021 0.17935 0.0
C133 C 0.63001 0.16329 0.21343 0.0
C134 C 0.63372 0.14344 0.24137 0.0
C135 C 0.63394 0.11003 0.23462 0.0
C136 C 0.63103 0.09689 0.20048 0.0
C137 C 0.51482 1.01516 0.12299 0.0
C138 C 0.4992 0.10882 0.1362 0.0
C139 C 0.43153 0.03697 0.03588 0.0
C140 C 0.42053 1.01489 1.00485 0.0
C141 C 0.39776 0.98191 1.00854 0.0
C142 C 0.38732 0.96058 0.97931 0.0
C143 C 0.39946 0.97204 0.94599 0.0
C144 C 0.42282 1.00483 0.94244 0.0
C145 C 0.4333 1.02607 0.97157 0.0
C146 C 0.54097 0.12486 0.04892 0.0
C147 C 0.55489 0.02935 0.03361 0.0
O148 O 0.60972 0.11909 0.11394 0.0
O149 O 0.60617 0.06995 0.13405 0.0
O150 O 0.50546 0.04201 0.12017 0.0
O151 O 0.54878 1.02013 0.11375 0.0
O152 O 0.53457 0.11219 0.13221 0.0
O153 O 0.47539 0.08608 0.1174 0.0
O154 O 0.44141 1.02314 0.06272 0.0
O155 O 0.45265 0.06738 1.03086 0.0
O156 O 0.55002 0.09767 0.04994 0.0
O157 O 0.50736 0.11986 0.05954 0.0
O158 O 0.51966 1.0257 0.0388 0.0
O159 O 0.57924 0.05273 0.05146 0.0
H160 H 0.62432 0.16624 0.15844 0.0
H161 H 0.62956 0.18908 0.21791 0.0
H162 H 0.63743 0.09433 0.25559 0.0
H163 H 0.63139 0.07107 0.19602 0.0
H164 H 0.38786 0.97271 0.03404 0.0
H165 H 0.36934 0.93536 0.98265 0.0
H166 H 0.43195 1.01458 0.91696 0.0
H167 H 0.45103 0.05132 0.96786 0.0
Sm168 Sm 0.52138 0.54688 0.5685 0.0
Sm169 Sm 0.53541 0.60838 0.61356 0.0
C170 C 0.52634 0.49184 0.53568 0.0
C171 C 0.55226 0.47331 0.5444 0.0
C172 C 0.58495 0.49057 0.56159 0.0
C173 C 0.6075 0.47304 0.57512 0.0
C174 C 0.59834 0.43791 0.57092 0.0
C175 C 0.56575 0.42064 0.55325 0.0
C176 C 0.54264 0.43826 0.54034 0.0
C177 C 0.46008 0.55008 0.60629 0.0
C178 C 0.5645 0.54926 0.64546 0.0
C179 C 0.52366 0.6544 0.65767 0.0
C180 C 0.50346 0.67895 0.65352 0.0
C181 C 0.47819 0.67429 0.6262 0.0
C182 C 0.45905 0.69761 0.62129 0.0
C183 C 0.46461 0.72573 0.64395 0.0
C184 C 0.49019 0.73065 0.6712 0.0
C185 C 0.5098 0.70735 0.67583 0.0
C186 C 0.5978 0.61789 0.5722 0.0
C187 C 0.50058 0.60914 0.53407 0.0
O188 O 0.54117 0.52184 0.52351 0.0
O189 O 0.50169 0.49149 0.55982 0.0
O190 O 0.49269 0.55708 0.61786 0.0
O191 O 0.45973 0.54293 0.57305 0.0
O192 O 0.55335 0.53298 0.6154 0.0
O193 O 0.56031 0.57934 0.65174 0.0
O194 O 0.50355 0.62302 0.6569 0.0
O195 O 0.55333 0.65935 0.63864 0.0
O196 O 0.57009 0.59221 0.57094 0.0
O197 O 0.59413 0.63846 0.59706 0.0
O198 O 0.50296 0.62152 0.56661 0.0
O199 O 0.5105 0.58169 0.52669 0.0
H200 H 0.59272 0.51768 0.56532 0.0
H201 H 0.63205 0.48707 0.58902 0.0
H202 H 0.55831 0.39361 0.54898 0.0
H203 H 0.51719 0.42458 0.52763 0.0
H204 H 0.4727 0.6523 0.60901 0.0
H205 H 0.43892 0.69301 0.60057 0.0
H206 H 0.49471 0.75227 0.68896 0.0
H207 H 0.52951 0.71128 0.69686 0.0
Sm208 Sm 0.03709 0.55184 0.08301 0.0
Sm209 Sm 0.03244 0.61357 0.05016 0.0
C210 C 0.06321 0.50228 0.10227 0.0
C211 C 0.09553 0.49784 0.12095 0.0
C212 C 0.13048 0.50555 0.10504 0.0
C213 C 0.16005 0.4987 0.12163 0.0
C214 C 0.1555 0.48389 0.15452 0.0
C215 C 0.12082 0.47704 0.17081 0.0
C216 C 0.0912 0.48388 0.15419 0.0
C217 C 0.99981 0.5873 0.12454 0.0
C218 C 0.10473 0.62265 0.09822 0.0
C219 C 1.00793 0.66352 1.02874 0.0
C220 C 0.97379 0.66753 1.01334 0.0
C221 C 0.9395 0.65549 1.03007 0.0
C222 C 0.90783 0.66076 1.01595 0.0
C223 C 0.90959 0.67794 0.98464 0.0
C224 C 0.9438 0.6895 0.96767 0.0
C225 C 0.97554 0.68446 0.98194 0.0
C226 C 0.0689 0.57734 1.00862 0.0
C227 C 0.96332 0.54233 0.0387 0.0
O228 O 0.06929 0.51591 0.07165 0.0
O229 O 0.03867 0.5122 0.12055 0.0
O230 O 0.02885 0.60011 0.10715 0.0
O231 O 0.99008 0.55462 0.12079 0.0
O232 O 0.09283 0.5895 0.09951 0.0
O233 O 0.08571 0.63948 0.08145 0.0
O234 O 1.00605 0.65408 0.06108 0.0
O235 O 0.02793 0.64926 1.00909 0.0
O236 O 0.03966 0.56514 1.02594 0.0
O237 O 0.07993 0.60993 1.01306 0.0
O238 O 0.97438 0.57571 0.03813 0.0
O239 O 0.98437 0.52579 0.05254 0.0
H240 H 0.13492 0.51616 0.07935 0.0
H241 H 0.18617 0.5039 0.10804 0.0
H242 H 0.11642 0.46602 0.19631 0.0
H243 H 0.06466 0.47762 0.1671 0.0
H244 H 0.93707 0.64215 0.05422 0.0
H245 H 0.88188 0.65118 1.02947 0.0
H246 H 0.94622 0.70315 0.94371 0.0
H247 H 1.00159 0.69413 0.96859 0.0
H248 H 0.37413 0.299 0.35461 0.0
H249 H 0.28885 0.29065 0.2788 0.0
H250 H 0.32733 0.2768 0.3993 0.0
H251 H 0.2423 0.26702 0.32226 0.0
H252 H 0.16067 0.23801 0.40403 0.0
H253 H 0.21137 0.27617 0.3735 0.0
H254 H 0.28552 0.22372 0.41224 0.0
H255 H 0.23515 0.18697 0.44471 0.0
C256 C 0.34531 0.29259 0.34774 0.0
C257 C 0.33481 0.2966 0.31358 0.0
C258 C 0.31857 0.27977 0.37313 0.0
C259 C 0.28097 0.27021 0.36447 0.0
C260 C 0.27082 0.27493 0.33026 0.0
C261 C 0.29744 0.28822 0.3052 0.0
C262 C 0.18799 0.2353 0.40701 0.0
C263 C 0.19374 0.20898 0.4262 0.0
C264 C 0.21702 0.25693 0.3891 0.0
C265 C 0.25235 0.25245 0.38957 0.0
C266 C 0.2587 0.2279 0.41113 0.0
C267 C 0.22969 0.20648 0.42937 0.0
H268 H 0.35021 0.9646 0.73706 0.0
H269 H 0.27711 0.8674 0.76262 0.0
H270 H 0.37255 0.9727 0.79678 0.0
H271 H 0.30007 0.87545 0.82274 0.0
H272 H 0.32833 0.93687 0.93294 0.0
H273 H 0.30199 0.91658 0.87586 0.0
H274 H 0.4109 0.94227 0.83066 0.0
H275 H 0.43738 0.96222 0.88777 0.0
C276 C 0.33837 0.9453 0.75567 0.0
C277 C 0.31201 0.91538 0.74535 0.0
C278 C 0.35161 0.94965 0.78961 0.0
C279 C 0.33862 0.92425 0.81384 0.0
C280 C 0.31071 0.89514 0.80424 0.0
C281 C 0.2976 0.89063 0.77007 0.0
C282 C 0.34671 0.937 0.91107 0.0
C283 C 0.38479 0.95173 0.91445 0.0
C284 C 0.33161 0.92553 0.87846 0.0
C285 C 0.35447 0.92881 0.84902 0.0
C286 C 0.39277 0.94031 0.85304 0.0
C287 C 0.40785 0.95162 0.88559 0.0
H288 H 0.66698 0.42442 0.77176 0.0
H289 H 0.62002 0.47936 0.84714 0.0
H290 H 0.64921 0.45484 0.72447 0.0
H291 H 0.60136 0.50945 0.80011 0.0
H292 H 0.59161 0.57579 0.70993 0.0
H293 H 0.61613 0.5495 0.75612 0.0
H294 H 0.59857 0.459 0.69183 0.0
H295 H 0.57467 0.48568 0.64535 0.0
C296 C 0.65347 0.44354 0.77829 0.0
C297 C 0.64564 0.44988 0.81337 0.0
C298 C 0.64266 0.46074 0.75103 0.0
C299 C 0.62335 0.48479 0.75785 0.0
C300 C 0.61648 0.49165 0.79328 0.0
C301 C 0.62729 0.47439 0.8205 0.0
C302 C 0.59309 0.55031 0.70542 0.0
C303 C 0.58098 0.5331 0.67345 0.0
C304 C 0.60704 0.53499 0.73227 0.0
C305 C 0.60952 0.50175 0.72837 0.0
C306 C 0.59782 0.4847 0.69615 0.0
C307 C 0.58382 0.50004 0.66927 0.0
H308 H 0.86646 0.6516 0.28834 0.0
H309 H 0.9777 0.71048 0.30978 0.0
H310 H 0.88709 0.62862 0.23475 0.0
H311 H 0.99882 0.68715 0.2567 0.0
H312 H 0.02443 0.65425 0.14588 0.0
H313 H 1.0015 0.68274 0.19431 0.0
H314 H 0.91922 0.58965 0.21688 0.0
H315 H 0.94172 0.56166 0.16831 0.0
C316 C 0.89529 0.66003 0.28127 0.0
C317 C 0.92035 0.68314 0.30312 0.0
C318 C 0.90733 0.64653 0.25068 0.0
C319 C 0.9449 0.65556 0.24109 0.0
C320 C 0.9697 0.67965 0.26262 0.0
C321 C 0.9576 0.6931 0.2932 0.0
C322 C 1.00126 0.63996 0.16105 0.0
C323 C 0.98501 0.60555 0.15304 0.0
C324 C 0.98817 0.65628 0.1891 0.0
C325 C 0.95826 0.63875 0.20997 0.0
C326 C 0.94181 0.60442 0.20142 0.0
C327 C 0.95494 0.58816 0.17352 0.0
H328 H 0.4 0.26604 0.17909 0.0
H329 H 0.4497 0.2618 0.27881 0.0
H330 H 0.42337 0.22051 0.15632 0.0
H331 H 0.47355 0.21614 0.25577 0.0
H332 H 0.53991 0.16091 0.17823 0.0
H333 H 0.51903 0.20595 0.20681 0.0
H334 H 0.40867 0.15804 0.17078 0.0
H335 H 0.42908 0.11314 0.14265 0.0
C336 C 0.41648 0.25574 0.19596 0.0
C337 C 0.42323 0.26761 0.23065 0.0
C338 C 0.42953 0.22944 0.18305 0.0
C339 C 0.45007 0.21463 0.20436 0.0
C340 C 0.45785 0.22714 0.23877 0.0
C341 C 0.44419 0.25316 0.25193 0.0
C342 C 0.51108 0.15971 0.17691 0.0
C343 C 0.48626 0.13351 0.15789 0.0
C344 C 0.49916 0.18549 0.19329 0.0
C345 C 0.46235 0.18573 0.19054 0.0
C346 C 0.43733 0.1588 0.17284 0.0
C347 C 0.44906 0.13293 0.1569 0.0
H348 H 0.19759 0.925 0.65658 0.0
H349 H 0.22974 0.94801 0.54987 0.0
H350 H 0.13899 0.93645 0.64639 0.0
H351 H 0.17175 0.95981 0.53948 0.0
H352 H 0.08077 1.00287 0.53244 0.0
H353 H 0.10653 0.956 0.54004 0.0
H354 H 0.14679 0.99762 0.64177 0.0
H355 H 0.11976 0.04382 0.6343 0.0
C356 C 0.19115 0.93089 0.6305 0.0
C357 C 0.21783 0.93689 0.60413 0.0
C358 C 0.15779 0.93738 0.62468 0.0
C359 C 0.15174 0.95039 0.59268 0.0
C360 C 0.17592 0.95027 0.56459 0.0
C361 C 0.20925 0.94379 0.57047 0.0
C362 C 0.09525 1.00175 0.55637 0.0
C363 C 0.0998 1.02712 0.58243 0.0
C364 C 0.10932 0.97479 0.5609 0.0
C365 C 0.1284 0.97308 0.59147 0.0
C366 C 0.13155 0.99794 0.61816 0.0
C367 C 0.11716 1.02484 0.61366 0.0
H368 H 0.7405 0.47101 0.94566 0.0
H369 H 0.78197 0.38457 0.9416 0.0
H370 H 0.79817 0.50494 0.97186 0.0
H371 H 0.83994 0.41836 0.96633 0.0
H372 H 0.92703 0.47497 0.04314 0.0
H373 H 0.8695 0.44306 1.01625 0.0
H374 H 0.86049 0.53328 0.96841 0.0
H375 H 0.91749 0.56548 0.99685 0.0
C376 C 0.76214 0.45933 0.94982 0.0
C377 C 0.75617 0.42483 0.94168 0.0
C378 C 0.79551 0.47888 0.96488 0.0
C379 C 0.8243 0.46471 0.97197 0.0
C380 C 0.81854 0.4304 0.96257 0.0
C381 C 0.78513 0.41086 0.94799 0.0
C382 C 0.91278 0.48814 1.027 0.0
C383 C 0.92725 0.523 1.0224 0.0
C384 C 0.87964 0.46963 1.01111 0.0
C385 C 0.85974 0.4851 0.9895 0.0
C386 C 0.87424 0.52013 0.98504 0.0
C387 C 0.90728 0.53874 1.00131 0.0
H388 H 0.80989 0.65448 0.46046 0.0
H389 H 0.76331 0.73351 0.43286 0.0
H390 H 0.75392 0.62752 0.49353 0.0
H391 H 0.70725 0.70634 0.46538 0.0
H392 H 0.59873 0.63068 0.50272 0.0
H393 H 0.65286 0.65174 0.46502 0.0
H394 H 0.72345 0.64409 0.54974 0.0
H395 H 0.66937 0.62421 0.58759 0.0
C396 C 0.78746 0.66577 0.46088 0.0
C397 C 0.79115 0.69615 0.44383 0.0
C398 C 0.75548 0.65047 0.4801 0.0
C399 C 0.72596 0.66471 0.48219 0.0
C400 C 0.72921 0.69447 0.46416 0.0
C401 C 0.76143 0.71012 0.44558 0.0
C402 C 0.6258 0.63288 0.51298 0.0
C403 C 0.62982 0.62525 0.5479 0.0
C404 C 0.65684 0.64524 0.49152 0.0
C405 C 0.69263 0.64956 0.50424 0.0
C406 C 0.69639 0.64078 0.53892 0.0
C407 C 0.66543 0.62933 0.56061 0.0
H408 H 0.35801 0.43223 0.16801 0.0
H409 H 0.29983 0.38383 0.2582 0.0
H410 H 0.30948 0.45862 0.15786 0.0
H411 H 0.25128 0.41095 0.24889 0.0
H412 H 0.15171 0.42582 0.18842 0.0
H413 H 0.20221 0.40616 0.20858 0.0
H414 H 0.27961 0.49916 0.17723 0.0
H415 H 0.22895 0.51868 0.15669 0.0
C416 C 0.33497 0.42777 0.18599 0.0
C417 C 0.3324 0.40609 0.21374 0.0
C418 C 0.30724 0.44305 0.18039 0.0
C419 C 0.27626 0.43698 0.20251 0.0
C420 C 0.27441 0.41589 0.23104 0.0
C421 C 0.30225 0.40051 0.23655 0.0
C422 C 0.17942 0.4424 0.18643 0.0
C423 C 0.1862 0.47371 0.17054 0.0
C424 C 0.2085 0.4311 0.19808 0.0
C425 C 0.24518 0.45085 0.19423 0.0
C426 C 0.25182 0.4829 0.1799 0.0
C427 C 0.22274 0.49413 0.16813 0.0
H428 H 0.59583 0.31782 0.94519 0.0
H429 H 0.70306 0.30425 0.9604 0.0
H430 H 0.56746 0.26422 0.9715 0.0
H431 H 0.67451 0.25106 0.9888 0.0
H432 H 0.60715 0.13998 1.0117 0.0
H433 H 0.639 0.19319 0.98388 0.0
H434 H 0.55581 0.23706 1.02396 0.0
H435 H 0.52399 0.1842 0.05036 0.0
C436 C 0.61361 0.30351 0.954 0.0
C437 C 0.6521 0.31602 0.95015 0.0
C438 C 0.59715 0.27261 0.96984 0.0
C439 C 0.61834 0.25276 0.98295 0.0
C440 C 0.65688 0.2651 0.97901 0.0
C441 C 0.67342 0.2961 0.96299 0.0
C442 C 0.59578 0.16106 1.01451 0.0
C443 C 0.56265 0.15743 0.03307 0.0
C444 C 0.61415 0.1918 0.99864 0.0
C445 C 0.60002 0.21991 1.00092 0.0
C446 C 0.5674 0.21619 1.02041 0.0
C447 C 0.54911 0.18566 0.03596 0.0
H448 H 0.91525 0.82429 0.38996 0.0
H449 H 0.8835 0.7873 0.49287 0.0
H450 H 0.9406 0.88121 0.41489 0.0
H451 H 0.90984 0.84341 0.51804 0.0
H452 H 0.92658 0.95209 0.55331 0.0
H453 H 0.90181 0.89603 0.52687 0.0
H454 H 0.98586 0.91997 0.44696 0.0
H455 H 1.00932 0.97642 0.47254 0.0
C456 C 0.91407 0.82823 0.41796 0.0
C457 C 0.89676 0.80118 0.43924 0.0
C458 C 0.92876 0.86098 0.43244 0.0
C459 C 0.92705 0.8676 0.46876 0.0
C460 C 0.91085 0.84007 0.48998 0.0
C461 C 0.89585 0.80759 0.47549 0.0
C462 C 0.93961 0.94548 0.52995 0.0
C463 C 0.96982 0.96913 0.51504 0.0
C464 C 0.92561 0.91301 0.51482 0.0
C465 C 0.94169 0.9028 0.48453 0.0
C466 C 0.97201 0.9266 0.46974 0.0
C467 C 0.98568 0.95919 0.48461 0.0
H468 H 0.28286 0.80662 0.67035 0.0
H469 H 0.36161 0.88012 0.60983 0.0
H470 H 0.31892 0.76691 0.66045 0.0
H471 H 0.39782 0.84092 0.60049 0.0
H472 H 0.45022 0.75487 0.58528 0.0
H473 H 0.40438 0.78545 0.57894 0.0
H474 H 0.37991 0.77584 0.68923 0.0
H475 H 0.42499 0.74488 0.69532 0.0
C476 C 0.3071 0.81369 0.65388 0.0
C477 C 0.31985 0.84629 0.64115 0.0
C478 C 0.32778 0.79122 0.64843 0.0
C479 C 0.36144 0.80136 0.63047 0.0
C480 C 0.3719 0.83255 0.61435 0.0
C481 C 0.35111 0.85491 0.6196 0.0
C482 C 0.435 0.75951 0.60805 0.0
C483 C 0.44093 0.74778 0.64079 0.0
C484 C 0.40882 0.77675 0.6044 0.0
C485 C 0.38814 0.78213 0.63341 0.0
C486 C 0.39483 0.7711 0.66627 0.0
C487 C 0.42107 0.75408 0.66994 0.0
H488 H 0.68084 0.84569 0.8041 0.0
H489 H 0.75732 0.78568 0.80898 0.0
H490 H 0.72015 0.87939 0.75936 0.0
H491 H 0.79243 0.81623 0.76318 0.0
H492 H 0.88055 0.91029 0.73805 0.0
H493 H 0.83247 0.87319 0.77187 0.0
H494 H 0.75123 0.88183 0.69763 0.0
H495 H 0.80021 0.92012 0.66347 0.0
C496 C 0.70506 0.83889 0.79549 0.0
C497 C 0.71533 0.81262 0.81126 0.0
C498 C 0.72727 0.85798 0.76942 0.0
C499 C 0.75978 0.85082 0.75844 0.0
C500 C 0.76796 0.82283 0.77163 0.0
C501 C 0.74677 0.8046 0.79793 0.0
C502 C 0.85263 0.90376 0.72838 0.0
C503 C 0.84425 0.91754 0.69778 0.0
C504 C 0.82496 0.88262 0.74787 0.0
C505 C 0.78809 0.87423 0.73713 0.0
C506 C 0.7794 0.88796 0.70649 0.0
C507 C 0.80737 0.90956 0.68692 0.0
H508 H 0.67272 0.21507 0.46252 0.0
H509 H 0.77097 0.21007 0.4073 0.0
H510 H 0.63692 0.19713 0.40815 0.0
H511 H 0.73589 0.19232 0.35423 0.0
H512 H 0.67971 0.20461 0.25914 0.0
H513 H 0.6997 0.22666 0.31723 0.0
H514 H 0.62638 0.1383 0.36241 0.0
H515 H 0.6053 0.11616 0.30372 0.0
C516 C 0.68648 0.21029 0.43884 0.0
C517 C 0.72438 0.21387 0.4388 0.0
C518 C 0.66617 0.19991 0.40808 0.0
C519 C 0.68397 0.19377 0.37727 0.0
C520 C 0.72174 0.19735 0.3776 0.0
C521 C 0.74172 0.20737 0.40794 0.0
C522 C 0.66676 0.19035 0.28137 0.0
C523 C 0.6411 0.15858 0.2769 0.0
C524 C 0.67827 0.20298 0.31459 0.0
C525 C 0.66448 0.18409 0.34399 0.0
C526 C 0.63703 0.15335 0.33997 0.0
C527 C 0.62543 0.14058 0.30651 0.0
H528 H 0.36237 0.69073 0.39735 0.0
H529 H 0.4653 0.70997 0.34202 0.0
H530 H 0.38687 0.66384 0.44362 0.0
H531 H 0.4901 0.68308 0.38823 0.0
H532 H 0.51104 0.60415 0.46309 0.0
H533 H 0.48643 0.62967 0.416 0.0
H534 H 0.43119 0.67717 0.49189 0.0
H535 H 0.45628 0.65189 0.53906 0.0
C536 C 0.39012 0.68874 0.39477 0.0
C537 C 0.41155 0.70203 0.36551 0.0
C538 C 0.40442 0.67362 0.42163 0.0
C539 C 0.44076 0.67114 0.42021 0.0
C540 C 0.46194 0.68397 0.39044 0.0
C541 C 0.44768 0.69938 0.36372 0.0
C542 C 0.49367 0.62006 0.46987 0.0
C543 C 0.48578 0.62571 0.50523 0.0
C544 C 0.47962 0.63495 0.44268 0.0
C545 C 0.45646 0.65563 0.44963 0.0
C546 C 0.4485 0.66123 0.48507 0.0
C547 C 0.46317 0.64684 0.51234 0.0
H548 H 0.19274 0.48572 0.85623 0.0
H549 H 0.08165 0.45899 0.81803 0.0
H550 H 0.17524 0.518 0.90519 0.0
H551 H 0.064 0.4908 0.86662 0.0
H552 H 0.03493 0.51476 0.97977 0.0
H553 H 0.05519 0.48569 0.93033 0.0
H554 H 0.15367 0.56866 0.92132 0.0
H555 H 0.13306 0.59794 0.97065 0.0
C556 C 0.16477 0.48726 0.85794 0.0
C557 C 0.13869 0.47013 0.83299 0.0
C558 C 0.15463 0.50568 0.88607 0.0
C559 C 0.11799 0.50692 0.89031 0.0
C560 C 0.09228 0.49017 0.86477 0.0
C561 C 0.1025 0.47218 0.8366 0.0
C562 C 0.06099 0.5268 0.96739 0.0
C563 C 0.0823 0.55878 0.97939 0.0
C564 C 0.07256 0.51019 0.93876 0.0
C565 C 0.10615 0.52472 0.92143 0.0
C566 C 0.12781 0.55646 0.93394 0.0
C567 C 0.11591 0.57334 0.96225 0.0
H568 H 0.67262 0.90948 0.91169 0.0
H569 H 0.57543 0.83965 0.95323 0.0
H570 H 0.65008 0.95674 0.93181 0.0
H571 H 0.55313 0.88643 0.97422 0.0
H572 H 0.51143 0.97633 0.99504 0.0
H573 H 0.53023 0.93291 0.96182 0.0
H574 H 0.64369 0.98271 0.98739 0.0
H575 H 0.62497 1.02645 1.01993 0.0
C576 C 0.64606 0.90434 0.9245 0.0
C577 C 0.62554 0.87114 0.93075 0.0
C578 C 0.63329 0.93133 0.9364 0.0
C579 C 0.59989 0.92555 0.95503 0.0
C580 C 0.57869 0.89201 0.95967 0.0
C581 C 0.59145 0.86514 0.9477 0.0
C582 C 0.54046 0.9783 0.99319 0.0
C583 C 0.56668 1.00491 1.01035 0.0
C584 C 0.55124 0.95322 0.97427 0.0
C585 C 0.58853 0.95406 0.97196 0.0
C586 C 0.61479 0.98135 0.98811 0.0
C587 C 0.60402 1.00642 1.00702 0.0
H588 H 0.78976 0.15014 0.51619 0.0
H589 H 0.8721 0.23944 0.48283 0.0
H590 H 0.83722 0.12099 0.52013 0.0
H591 H 0.91933 0.21045 0.48704 0.0
H592 H 0.97803 0.16231 0.57317 0.0
H593 H 0.93751 0.19106 0.54731 0.0
H594 H 0.889 0.10298 0.48203 0.0
H595 H 0.93045 0.07439 0.50745 0.0
C596 C 0.81789 0.16322 0.50931 0.0
C597 C 0.82778 0.19706 0.50013 0.0
C598 C 0.84476 0.14657 0.51111 0.0
C599 C 0.88152 0.16374 0.50367 0.0
C600 C 0.89102 0.19699 0.49282 0.0
C601 C 0.86424 0.21356 0.49096 0.0
C602 C 0.95935 0.14957 0.55263 0.0
C603 C 0.95663 0.11636 0.54233 0.0
C604 C 0.93651 0.16596 0.53773 0.0
C605 C 0.91039 0.14892 0.51294 0.0
C606 C 0.90916 0.11633 0.50113 0.0
C607 C 0.9327 0.10018 0.51552 0.0
H608 H 0.26845 0.70518 0.26404 0.0
H609 H 0.32828 0.72932 0.16736 0.0
H610 H 0.21242 0.67766 0.23093 0.0
H611 H 0.27243 0.70268 0.13455 0.0
H612 H 0.1559 0.68448 0.08715 0.0
H613 H 0.2115 0.7116 0.12131 0.0
H614 H 0.18478 0.6284 0.19111 0.0
H615 H 0.13006 0.60123 0.15683 0.0
C616 C 0.26993 0.70428 0.23582 0.0
C617 C 0.30323 0.71988 0.21864 0.0
C618 C 0.23763 0.68865 0.21672 0.0
C619 C 0.2375 0.68829 0.17984 0.0
C620 C 0.271 0.70306 0.16278 0.0
C621 C 0.30322 0.71831 0.18177 0.0
C622 C 0.1619 0.67203 0.10979 0.0
C623 C 0.13847 0.64047 0.11891 0.0
C624 C 0.19392 0.68749 0.12936 0.0
C625 C 0.20294 0.67226 0.15916 0.0
C626 C 0.17891 0.64111 0.16861 0.0
C627 C 0.14752 0.62536 0.14866 0.0
H628 H 0.28417 0.40364 0.70928 0.0
H629 H 0.23909 0.48769 0.70428 0.0
H630 H 0.34228 0.43793 0.6853 0.0
H631 H 0.29749 0.52213 0.68008 0.0
H632 H 0.39005 0.55073 0.59214 0.0
H633 H 0.33322 0.52252 0.62313 0.0
H634 H 0.39641 0.48881 0.69932 0.0
H635 H 0.45333 0.51789 0.66876 0.0
C636 C 0.28665 0.42952 0.70324 0.0
C637 C 0.25661 0.44271 0.70869 0.0
C638 C 0.32021 0.44933 0.68968 0.0
C639 C 0.32481 0.48292 0.68061 0.0
C640 C 0.29499 0.49634 0.68652 0.0
C641 C 0.26153 0.47664 0.70067 0.0
C642 C 0.39184 0.53788 0.61592 0.0
C643 C 0.4263 0.53682 0.62805 0.0
C644 C 0.35922 0.52169 0.63374 0.0
C645 C 0.35999 0.50313 0.66374 0.0
C646 C 0.39462 0.50265 0.67625 0.0
C647 C 0.42733 0.51959 0.6589 0.0
H648 H 0.77097 0.75891 0.86106 0.0
H649 H 0.69683 0.71553 0.94481 0.0
H650 H 0.81635 0.73468 0.88299 0.0
H651 H 0.74343 0.69128 0.96735 0.0
H652 H 0.85628 0.69866 1.01986 0.0
H653 H 0.80316 0.71204 0.99577 0.0
H654 H 0.83354 0.68468 0.89245 0.0
H655 H 0.88694 0.6718 0.91653 0.0
C656 C 0.76365 0.74328 0.88359 0.0
C657 C 0.72966 0.73904 0.90083 0.0
C658 C 0.7901 0.72942 0.89635 0.0
C659 C 0.78374 0.71098 0.927 0.0
C660 C 0.74943 0.70573 0.94386 0.0
C661 C 0.72266 0.71958 0.93091 0.0
C662 C 0.85133 0.69505 0.99206 0.0
C663 C 0.87604 0.68435 0.97011 0.0
C664 C 0.82073 0.70258 0.97825 0.0
C665 C 0.81398 0.6995 0.94213 0.0
C666 C 0.83814 0.68786 0.92032 0.0
C667 C 0.86883 0.68051 0.93411 0.0
H668 H 0.46074 0.822 0.2285 0.0
H669 H 0.35585 0.84186 0.22195 0.0
H670 H 0.49009 0.87481 0.20039 0.0
H671 H 0.38503 0.89585 0.19602 0.0
H672 H 0.44077 0.98041 0.12208 0.0
H673 H 0.41023 0.92779 0.15068 0.0
H674 H 0.51296 0.93054 0.20006 0.0
H675 H 0.54331 0.98115 0.16916 0.0
C676 C 0.44404 0.83806 0.22165 0.0
C677 C 0.4059 0.82749 0.22752 0.0
C678 C 0.46091 0.86879 0.20557 0.0
C679 C 0.44042 0.89064 0.19551 0.0
C680 C 0.40221 0.8801 0.20227 0.0
C681 C 0.38529 0.84902 0.21761 0.0
C682 C 0.45662 0.96969 0.1392 0.0
C683 C 0.49453 0.98504 0.14318 0.0
C684 C 0.43908 0.93935 0.15594 0.0
C685 C 0.45872 0.9238 0.17799 0.0
C686 C 0.49651 0.94029 0.18272 0.0
C687 C 0.51409 0.96991 0.16522 0.0
H688 H 0.17976 0.34402 0.64722 0.0
H689 H 0.12913 0.3073 0.74526 0.0
H690 H 0.15599 0.28799 0.62088 0.0
H691 H 0.10323 0.25192 0.71831 0.0
H692 H 0.08486 0.14621 0.66985 0.0
H693 H 0.11209 0.2018 0.69696 0.0
H694 H 0.1052 0.24775 0.59867 0.0
H695 H 0.07958 0.1924 0.57158 0.0
C696 C 0.16363 0.32414 0.66336 0.0
C697 C 0.1567 0.33089 0.69869 0.0
C698 C 0.14932 0.29176 0.64794 0.0
C699 C 0.12723 0.26473 0.6671 0.0
C700 C 0.12037 0.27149 0.70244 0.0
C701 C 0.1349 0.30379 0.71791 0.0
C702 C 0.08938 0.16817 0.65398 0.0
C703 C 0.08005 0.16442 0.61835 0.0
C704 C 0.10482 0.20034 0.66964 0.0
C705 C 0.1112 0.22998 0.65031 0.0
C706 C 0.10171 0.226 0.61464 0.0
C707 C 0.08663 0.19393 0.59899 0.0
H708 H 0.78805 0.36502 0.58628 0.0
H709 H 0.69888 0.29293 0.53279 0.0
H710 H 0.74471 0.39315 0.61169 0.0
H711 H 0.65553 0.32104 0.55743 0.0
H712 H 0.58238 0.37585 0.60034 0.0
H713 H 0.62497 0.34218 0.60783 0.0
H714 H 0.71498 0.42604 0.57542 0.0
H715 H 0.673 0.45899 0.56707 0.0
C716 C 0.75898 0.35491 0.58073 0.0
C717 C 0.74631 0.32755 0.55742 0.0
C718 C 0.73429 0.37074 0.59531 0.0
C719 C 0.69689 0.35935 0.58634 0.0
C720 C 0.6841 0.33009 0.56517 0.0
C721 C 0.70881 0.3143 0.55069 0.0
C722 C 0.61137 0.38715 0.59535 0.0
C723 C 0.62421 0.41978 0.58238 0.0
C724 C 0.63569 0.36805 0.6 0.0
C725 C 0.67311 0.38148 0.592 0.0
C726 C 0.68636 0.41515 0.5823 0.0
C727 C 0.66214 0.43406 0.57736 0.0
loop_
_geom_bond_atom_site_label_1
_geom_bond_atom_site_label_2
_geom_bond_distance
_geom_bond_site_symmetry_2
_ccdc_geom_bond_type
H0 C3 0.929 . S
H1 C6 0.929 . S
H2 C8 0.930 . S
C3 H0 0.929 . S
C3 C4 1.398 . S
C3 C5 1.396 . S
C4 C3 1.398 . S
C4 C8 1.407 . S
C5 C3 1.396 . S
C5 C6 1.394 . S
C6 H1 0.929 . S
C6 C5 1.394 . S
C6 C7 1.382 . S
C7 C6 1.382 . S
C7 C8 1.392 . S
C7 N9 1.420 . S
C8 H2 0.930 . S
C8 C4 1.407 . S
C8 C7 1.392 . S
N9 C7 1.420 . S
N9 C10 1.244 . S
C10 N9 1.244 . S
H11 C14 0.929 . S
H12 C17 0.929 . S
H13 C19 0.930 . S
C14 H11 0.929 . S
C14 C15 1.398 . S
C14 C16 1.396 . S
C15 C14 1.398 . S
C15 C19 1.407 . S
C16 C14 1.396 . S
C16 C17 1.394 . S
C17 H12 0.929 . S
C17 C16 1.394 . S
C17 C18 1.382 . S
C18 C17 1.382 . S
C18 C19 1.392 . S
C18 N20 1.420 . S
C19 H13 0.930 . S
C19 C15 1.407 . S
C19 C18 1.392 . S
N20 C18 1.420 . S
N20 C21 1.244 . S
C21 N20 1.244 . S
H22 C25 0.929 . S
H23 C28 0.929 . S
H24 C30 0.930 . S
C25 H22 0.929 . S
C25 C26 1.398 . S
C25 C27 1.396 . S
C26 C25 1.398 . S
C26 C30 1.407 . S
C27 C25 1.396 . S
C27 C28 1.394 . S
C28 H23 0.929 . S
C28 C27 1.394 . S
C28 C29 1.382 . S
C29 C28 1.382 . S
C29 C30 1.392 . S
C29 N31 1.420 . S
C30 H24 0.930 . S
C30 C26 1.407 . S
C30 C29 1.392 . S
N31 C29 1.420 . S
N31 C32 1.244 . S
C32 N31 1.244 . S
H33 C36 0.929 . S
H34 C39 0.929 . S
H35 C41 0.930 . S
C36 H33 0.929 . S
C36 C37 1.398 . S
C36 C38 1.396 . S
C37 C36 1.398 . S
C37 C41 1.407 . S
C38 C36 1.396 . S
C38 C39 1.394 . S
C39 H34 0.929 . S
C39 C38 1.394 . S
C39 C40 1.382 . S
C40 C39 1.382 . S
C40 C41 1.392 . S
C40 N42 1.420 . S
C41 H35 0.930 . S
C41 C37 1.407 . S
C41 C40 1.392 . S
N42 C40 1.420 . S
N42 C43 1.244 . S
C43 N42 1.244 . S
H44 C47 0.929 . S
H45 C50 0.929 . S
H46 C52 0.930 . S
C47 H44 0.929 . S
C47 C48 1.398 . S
C47 C49 1.396 . S
C48 C47 1.398 . S
C48 C52 1.407 . S
C49 C47 1.396 . S
C49 C50 1.394 . S
C50 H45 0.929 . S
C50 C49 1.394 . S
C50 C51 1.382 . S
C51 C50 1.382 . S
C51 C52 1.392 . S
C51 N53 1.420 . S
C52 H46 0.930 . S
C52 C48 1.407 . S
C52 C51 1.392 . S
N53 C51 1.420 . S
N53 C54 1.244 . S
C54 N53 1.244 . S
H55 C58 0.929 . S
H56 C61 0.929 . S
H57 C63 0.930 . S
C58 H55 0.929 . S
C58 C59 1.398 . S
C58 C60 1.396 . S
C59 C58 1.398 . S
C59 C63 1.407 . S
C60 C58 1.396 . S
C60 C61 1.394 . S
C61 H56 0.929 . S
C61 C60 1.394 . S
C61 C62 1.382 . S
C62 C61 1.382 . S
C62 C63 1.392 . S
C62 N64 1.420 . S
C63 H57 0.930 . S
C63 C59 1.407 . S
C63 C62 1.392 . S
N64 C62 1.420 . S
N64 C65 1.244 . S
C65 N64 1.244 . S
H66 C69 0.929 . S
H67 C72 0.929 . S
H68 C74 0.930 . S
C69 H66 0.929 . S
C69 C70 1.398 . S
C69 C71 1.396 . S
C70 C69 1.398 . S
C70 C74 1.407 . S
C71 C69 1.396 . S
C71 C72 1.394 . S
C72 H67 0.929 . S
C72 C71 1.394 . S
C72 C73 1.382 . S
C73 C72 1.382 . S
C73 C74 1.392 . S
C73 N75 1.420 . S
C74 H68 0.930 . S
C74 C70 1.407 . S
C74 C73 1.392 . S
N75 C73 1.420 . S
N75 C76 1.244 . S
C76 N75 1.244 . S
H77 C80 0.929 . S
H78 C83 0.929 . S
H79 C85 0.930 . S
C80 H77 0.929 . S
C80 C81 1.398 . S
C80 C82 1.396 . S
C81 C80 1.398 . S
C81 C85 1.407 . S
C82 C80 1.396 . S
C82 C83 1.394 . S
C83 H78 0.929 . S
C83 C82 1.394 . S
C83 C84 1.382 . S
C84 C83 1.382 . S
C84 C85 1.392 . S
C84 N86 1.420 . S
C85 H79 0.930 . S
C85 C81 1.407 . S
C85 C84 1.392 . S
N86 C84 1.420 . S
N86 C87 1.244 . S
C87 N86 1.244 . S
Sm88 C90 2.846 . S
Sm88 O108 2.543 . S
Sm88 O109 2.450 . S
Sm88 O110 2.681 . S
Sm88 O111 2.464 . S
Sm88 O112 2.396 . S
Sm88 O116 2.386 1_455 S
Sm88 O119 2.408 1_445 S
Sm89 C99 2.846 1_545 S
Sm89 O110 2.386 1_655 S
Sm89 O113 2.408 1_655 S
Sm89 O114 2.543 1_545 S
Sm89 O115 2.450 1_545 S
Sm89 O116 2.681 . S
Sm89 O117 2.464 . S
Sm89 O118 2.396 1_545 S
C90 Sm88 2.846 . S
C90 C91 1.506 . S
C90 O108 1.261 . S
C90 O109 1.242 . S
C91 C90 1.506 . S
C91 C92 1.358 . S
C91 C96 1.382 . S
C92 C91 1.358 . S
C92 C93 1.385 . S
C92 H120 0.930 . S
C93 C92 1.385 . S
C93 C94 1.395 . S
C93 H121 0.929 . S
C94 C93 1.395 . S
C94 C95 1.335 . S
C95 C94 1.335 . S
C95 C96 1.398 . S
C95 H122 0.930 . S
C96 C91 1.382 . S
C96 C95 1.398 . S
C96 H123 0.929 . S
C97 O110 1.285 . S
C97 O111 1.259 . S
C98 O112 1.252 . S
C98 O113 1.272 . S
C99 Sm89 2.846 1_565 S
C99 C100 1.506 . S
C99 O114 1.261 . S
C99 O115 1.242 . S
C100 C99 1.506 . S
C100 C101 1.358 . S
C100 C105 1.382 . S
C101 C100 1.358 . S
C101 C102 1.385 . S
C101 H124 0.930 . S
C102 C101 1.385 . S
C102 C103 1.395 . S
C102 H125 0.929 . S
C103 C102 1.395 . S
C103 C104 1.335 . S
C104 C103 1.335 . S
C104 C105 1.398 . S
C104 H126 0.930 . S
C105 C100 1.382 . S
C105 C104 1.398 . S
C105 H127 0.929 . S
C106 O116 1.271 . S
C106 O117 1.251 . S
C107 O118 1.252 . S
C107 O119 1.272 . S
O108 Sm88 2.543 . S
O108 C90 1.261 . S
O109 Sm88 2.450 . S
O109 C90 1.242 . S
O110 Sm88 2.681 . S
O110 Sm89 2.386 1_455 S
O110 C97 1.285 . S
O111 Sm88 2.464 . S
O111 C97 1.259 . S
O112 Sm88 2.396 . S
O112 C98 1.252 . S
O113 Sm89 2.408 1_455 S
O113 C98 1.272 . S
O114 Sm89 2.543 1_565 S
O114 C99 1.261 . S
O115 Sm89 2.450 1_565 S
O115 C99 1.242 . S
O116 Sm88 2.386 1_655 S
O116 Sm89 2.681 . S
O116 C106 1.271 . S
O117 Sm89 2.464 . S
O117 C106 1.251 . S
O118 Sm89 2.396 1_565 S
O118 C107 1.252 . S
O119 Sm88 2.408 1_665 S
O119 C107 1.272 . S
H120 C92 0.930 . S
H121 C93 0.929 . S
H122 C95 0.930 . S
H123 C96 0.929 . S
H124 C101 0.930 . S
H125 C102 0.929 . S
H126 C104 0.930 . S
H127 C105 0.929 . S
Sm128 C130 2.846 . S
Sm128 O148 2.543 . S
Sm128 O149 2.450 . S
Sm128 O150 2.681 1_545 S
Sm128 O151 2.464 1_545 S
Sm128 O152 2.396 . S
Sm128 O156 2.386 . S
Sm128 O159 2.408 1_545 S
Sm129 C139 2.846 1_544 S
Sm129 O150 2.386 1_545 S
Sm129 O153 2.408 . S
Sm129 O154 2.543 1_544 S
Sm129 O155 2.450 1_554 S
Sm129 O156 2.681 . S
Sm129 O157 2.464 . S
Sm129 O158 2.396 . S
C130 Sm128 2.846 . S
C130 C131 1.506 . S
C130 O148 1.261 . S
C130 O149 1.242 . S
C131 C130 1.506 . S
C131 C132 1.358 . S
C131 C136 1.382 . S
C132 C131 1.358 . S
C132 C133 1.385 . S
C132 H160 0.930 . S
C133 C132 1.385 . S
C133 C134 1.395 . S
C133 H161 0.929 . S
C134 C133 1.395 . S
C134 C135 1.335 . S
C135 C134 1.335 . S
C135 C136 1.398 . S
C135 H162 0.930 . S
C136 C131 1.382 . S
C136 C135 1.398 . S
C136 H163 0.929 . S
C137 O150 1.271 . S
C137 O151 1.251 . S
C138 O152 1.252 . S
C138 O153 1.272 . S
C139 Sm129 2.846 1_566 S
C139 C140 1.506 . S
C139 O154 1.261 . S
C139 O155 1.242 1_565 S
C140 C139 1.506 . S
C140 C141 1.358 . S
C140 C145 1.382 . S
C141 C140 1.358 . S
C141 C142 1.385 . S
C141 H164 0.930 . S
C142 C141 1.385 . S
C142 C143 1.395 . S
C142 H165 0.929 . S
C143 C142 1.395 . S
C143 C144 1.335 . S
C144 C143 1.335 . S
C144 C145 1.398 . S
C144 H166 0.930 . S
C145 C140 1.382 . S
C145 C144 1.398 . S
C145 H167 0.929 1_565 S
C146 O156 1.271 . S
C146 O157 1.251 . S
C147 O158 1.252 1_565 S
C147 O159 1.272 . S
O148 Sm128 2.543 . S
O148 C130 1.261 . S
O149 Sm128 2.450 . S
O149 C130 1.242 . S
O150 Sm128 2.681 1_565 S
O150 Sm129 2.386 1_565 S
O150 C137 1.271 . S
O151 Sm128 2.464 1_565 S
O151 C137 1.251 . S
O152 Sm128 2.396 . S
O152 C138 1.252 . S
O153 Sm129 2.408 . S
O153 C138 1.272 . S
O154 Sm129 2.543 1_566 S
O154 C139 1.261 . S
O155 Sm129 2.450 1_556 S
O155 C139 1.242 1_545 S
O156 Sm128 2.386 . S
O156 Sm129 2.681 . S
O156 C146 1.271 . S
O157 Sm129 2.464 . S
O157 C146 1.251 . S
O158 Sm129 2.396 . S
O158 C147 1.252 1_545 S
O159 Sm128 2.408 1_565 S
O159 C147 1.272 . S
H160 C132 0.930 . S
H161 C133 0.929 . S
H162 C135 0.930 . S
H163 C136 0.929 . S
H164 C141 0.930 . S
H165 C142 0.929 . S
H166 C144 0.930 . S
H167 C145 0.929 1_545 S
Sm168 C170 2.846 . S
Sm168 O188 2.543 . S
Sm168 O189 2.450 . S
Sm168 O190 2.681 . S
Sm168 O191 2.464 . S
Sm168 O192 2.396 . S
Sm168 O196 2.386 . S
Sm168 O199 2.408 . S
Sm169 C179 2.846 . S
Sm169 O190 2.386 . S
Sm169 O193 2.408 . S
Sm169 O194 2.543 . S
Sm169 O195 2.450 . S
Sm169 O196 2.681 . S
Sm169 O197 2.464 . S
Sm169 O198 2.396 . S
C170 Sm168 2.846 . S
C170 C171 1.506 . S
C170 O188 1.261 . S
C170 O189 1.242 . S
C171 C170 1.506 . S
C171 C172 1.358 . S
C171 C176 1.382 . S
C172 C171 1.358 . S
C172 C173 1.385 . S
C172 H200 0.930 . S
C173 C172 1.385 . S
C173 C174 1.395 . S
C173 H201 0.929 . S
C174 C173 1.395 . S
C174 C175 1.335 . S
C175 C174 1.335 . S
C175 C176 1.398 . S
C175 H202 0.930 . S
C176 C171 1.382 . S
C176 C175 1.398 . S
C176 H203 0.929 . S
C177 O190 1.271 . S
C177 O191 1.251 . S
C178 O192 1.252 . S
C178 O193 1.272 . S
C179 Sm169 2.846 . S
C179 C180 1.506 . S
C179 O194 1.261 . S
C179 O195 1.242 . S
C180 C179 1.506 . S
C180 C181 1.358 . S
C180 C185 1.382 . S
C181 C180 1.358 . S
C181 C182 1.385 . S
C181 H204 0.930 . S
C182 C181 1.385 . S
C182 C183 1.395 . S
C182 H205 0.929 . S
C183 C182 1.395 . S
C183 C184 1.335 . S
C184 C183 1.335 . S
C184 C185 1.398 . S
C184 H206 0.930 . S
C185 C180 1.382 . S
C185 C184 1.398 . S
C185 H207 0.929 . S
C186 O196 1.271 . S
C186 O197 1.251 . S
C187 O198 1.252 . S
C187 O199 1.272 . S
O188 Sm168 2.543 . S
O188 C170 1.261 . S
O189 Sm168 2.450 . S
O189 C170 1.242 . S
O190 Sm168 2.681 . S
O190 Sm169 2.386 . S
O190 C177 1.271 . S
O191 Sm168 2.464 . S
O191 C177 1.251 . S
O192 Sm168 2.396 . S
O192 C178 1.252 . S
O193 Sm169 2.408 . S
O193 C178 1.272 . S
O194 Sm169 2.543 . S
O194 C179 1.261 . S
O195 Sm169 2.450 . S
O195 C179 1.242 . S
O196 Sm168 2.386 . S
O196 Sm169 2.681 . S
O196 C186 1.271 . S
O197 Sm169 2.464 . S
O197 C186 1.251 . S
O198 Sm169 2.396 . S
O198 C187 1.252 . S
O199 Sm168 2.408 . S
O199 C187 1.272 . S
H200 C172 0.930 . S
H201 C173 0.929 . S
H202 C175 0.930 . S
H203 C176 0.929 . S
H204 C181 0.930 . S
H205 C182 0.929 . S
H206 C184 0.930 . S
H207 C185 0.929 . S
Sm208 C210 2.846 . S
Sm208 O228 2.543 . S
Sm208 O229 2.450 . S
Sm208 O230 2.681 . S
Sm208 O231 2.464 . S
Sm208 O232 2.396 . S
Sm208 O236 2.386 1_554 S
Sm208 O239 2.408 1_455 S
Sm209 C219 2.831 1_454 S
Sm209 O230 2.415 . S
Sm209 O233 2.426 . S
Sm209 O234 2.541 1_454 S
Sm209 O235 2.412 1_454 S
Sm209 O236 2.682 1_554 S
Sm209 O237 2.439 1_554 S
Sm209 O238 2.387 1_454 S
C210 Sm208 2.846 . S
C210 C211 1.506 . S
C210 O228 1.261 . S
C210 O229 1.242 . S
C211 C210 1.506 . S
C211 C212 1.358 . S
C211 C216 1.382 . S
C212 C211 1.358 . S
C212 C213 1.385 . S
C212 H240 0.930 . S
C213 C212 1.385 . S
C213 C214 1.395 . S
C213 H241 0.929 . S
C214 C213 1.395 . S
C214 C215 1.335 . S
C215 C214 1.335 . S
C215 C216 1.398 . S
C215 H242 0.930 . S
C216 C211 1.382 . S
C216 C215 1.398 . S
C216 H243 0.929 . S
C217 O230 1.271 1_655 S
C217 O231 1.251 1_655 S
C218 O232 1.252 . S
C218 O233 1.272 . S
C219 Sm209 2.831 1_656 S
C219 C220 1.506 . S
C219 O234 1.278 . S
C219 O235 1.261 . S
C220 C219 1.506 . S
C220 C221 1.358 . S
C220 C225 1.382 . S
C221 C220 1.358 . S
C221 C222 1.385 . S
C221 H244 0.930 . S
C222 C221 1.385 . S
C222 C223 1.395 . S
C222 H245 0.929 . S
C223 C222 1.395 . S
C223 C224 1.335 . S
C224 C223 1.335 . S
C224 C225 1.398 . S
C224 H246 0.930 . S
C225 C220 1.382 . S
C225 C224 1.398 . S
C225 H247 0.929 . S
C226 O236 1.271 . S
C226 O237 1.251 . S
C227 O238 1.252 . S
C227 O239 1.272 1_556 S
O228 Sm208 2.543 . S
O228 C210 1.261 . S
O229 Sm208 2.450 . S
O229 C210 1.242 . S
O230 Sm208 2.681 . S
O230 Sm209 2.415 . S
O230 C217 1.271 1_455 S
O231 Sm208 2.464 . S
O231 C217 1.251 1_455 S
O232 Sm208 2.396 . S
O232 C218 1.252 . S
O233 Sm209 2.426 . S
O233 C218 1.272 . S
O234 Sm209 2.541 1_656 S
O234 C219 1.278 . S
O235 Sm209 2.412 1_656 S
O235 C219 1.261 . S
O236 Sm208 2.386 1_556 S
O236 Sm209 2.682 1_556 S
O236 C226 1.271 . S
O237 Sm209 2.439 1_556 S
O237 C226 1.251 . S
O238 Sm209 2.387 1_656 S
O238 C227 1.252 . S
O239 Sm208 2.408 1_655 S
O239 C227 1.272 1_554 S
H240 C212 0.930 . S
H241 C213 0.929 . S
H242 C215 0.930 . S
H243 C216 0.929 . S
H244 C221 0.930 . S
H245 C222 0.929 . S
H246 C224 0.930 . S
H247 C225 0.929 . S
H248 C256 0.950 . S
H249 C261 0.950 . S
H250 C258 0.950 . S
H251 C260 0.950 . S
H252 C262 0.950 . S
H253 C264 0.950 . S
H254 C266 0.950 . S
H255 C267 0.950 . S
C256 H248 0.950 . S
C256 C257 1.386 . S
C256 C258 1.391 . S
C257 C256 1.386 . S
C257 C261 1.393 . S
C258 H250 0.950 . S
C258 C256 1.391 . S
C258 C259 1.400 . S
C259 C258 1.400 . S
C259 C260 1.398 . S
C259 C265 1.491 . S
C260 H251 0.950 . S
C260 C259 1.398 . S
C260 C261 1.391 . S
C261 H249 0.950 . S
C261 C257 1.393 . S
C261 C260 1.391 . S
C262 H252 0.950 . S
C262 C263 1.386 . S
C262 C264 1.391 . S
C263 C262 1.386 . S
C263 C267 1.393 . S
C264 H253 0.950 . S
C264 C262 1.391 . S
C264 C265 1.400 . S
C265 C259 1.491 . S
C265 C264 1.400 . S
C265 C266 1.398 . S
C266 H254 0.950 . S
C266 C265 1.398 . S
C266 C267 1.391 . S
C267 H255 0.950 . S
C267 C263 1.393 . S
C267 C266 1.391 . S
H268 C276 0.950 . S
H269 C281 0.950 . S
H270 C278 0.950 . S
H271 C280 0.950 . S
H272 C282 0.950 . S
H273 C284 0.950 . S
H274 C286 0.950 . S
H275 C287 0.950 . S
C276 H268 0.950 . S
C276 C277 1.386 . S
C276 C278 1.391 . S
C277 C276 1.386 . S
C277 C281 1.393 . S
C278 H270 0.950 . S
C278 C276 1.391 . S
C278 C279 1.400 . S
C279 C278 1.400 . S
C279 C280 1.398 . S
C279 C285 1.491 . S
C280 H271 0.950 . S
C280 C279 1.398 . S
C280 C281 1.391 . S
C281 H269 0.950 . S
C281 C277 1.393 . S
C281 C280 1.391 . S
C282 H272 0.950 . S
C282 C283 1.386 . S
C282 C284 1.391 . S
C283 C282 1.386 . S
C283 C287 1.393 . S
C284 H273 0.950 . S
C284 C282 1.391 . S
C284 C285 1.400 . S
C285 C279 1.491 . S
C285 C284 1.400 . S
C285 C286 1.398 . S
C286 H274 0.950 . S
C286 C285 1.398 . S
C286 C287 1.391 . S
C287 H275 0.950 . S
C287 C283 1.393 . S
C287 C286 1.391 . S
H288 C296 0.950 . S
H289 C301 0.950 . S
H290 C298 0.950 . S
H291 C300 0.950 . S
H292 C302 0.950 . S
H293 C304 0.950 . S
H294 C306 0.950 . S
H295 C307 0.950 . S
C296 H288 0.950 . S
C296 C297 1.386 . S
C296 C298 1.391 . S
C297 C296 1.386 . S
C297 C301 1.393 . S
C298 H290 0.950 . S
C298 C296 1.391 . S
C298 C299 1.400 . S
C299 C298 1.400 . S
C299 C300 1.398 . S
C299 C305 1.491 . S
C300 H291 0.950 . S
C300 C299 1.398 . S
C300 C301 1.391 . S
C301 H289 0.950 . S
C301 C297 1.393 . S
C301 C300 1.391 . S
C302 H292 0.950 . S
C302 C303 1.386 . S
C302 C304 1.391 . S
C303 C302 1.386 . S
C303 C307 1.393 . S
C304 H293 0.950 . S
C304 C302 1.391 . S
C304 C305 1.400 . S
C305 C299 1.491 . S
C305 C304 1.400 . S
C305 C306 1.398 . S
C306 H294 0.950 . S
C306 C305 1.398 . S
C306 C307 1.391 . S
C307 H295 0.950 . S
C307 C303 1.393 . S
C307 C306 1.391 . S
H308 C316 0.950 . S
H309 C321 0.950 . S
H310 C318 0.950 . S
H311 C320 0.950 . S
H312 C322 0.950 1_455 S
H313 C324 0.950 . S
H314 C326 0.950 . S
H315 C327 0.950 . S
C316 H308 0.950 . S
C316 C317 1.386 . S
C316 C318 1.391 . S
C317 C316 1.386 . S
C317 C321 1.393 . S
C318 H310 0.950 . S
C318 C316 1.391 . S
C318 C319 1.400 . S
C319 C318 1.400 . S
C319 C320 1.398 . S
C319 C325 1.491 . S
C320 H311 0.950 . S
C320 C319 1.398 . S
C320 C321 1.391 . S
C321 H309 0.950 . S
C321 C317 1.393 . S
C321 C320 1.391 . S
C322 H312 0.950 1_655 S
C322 C323 1.386 . S
C322 C324 1.391 . S
C323 C322 1.386 . S
C323 C327 1.393 . S
C324 H313 0.950 . S
C324 C322 1.391 . S
C324 C325 1.400 . S
C325 C319 1.491 . S
C325 C324 1.400 . S
C325 C326 1.398 . S
C326 H314 0.950 . S
C326 C325 1.398 . S
C326 C327 1.391 . S
C327 H315 0.950 . S
C327 C323 1.393 . S
C327 C326 1.391 . S
H328 C336 0.950 . S
H329 C341 0.950 . S
H330 C338 0.950 . S
H331 C340 0.950 . S
H332 C342 0.950 . S
H333 C344 0.950 . S
H334 C346 0.950 . S
H335 C347 0.950 . S
C336 H328 0.950 . S
C336 C337 1.386 . S
C336 C338 1.391 . S
C337 C336 1.386 . S
C337 C341 1.393 . S
C338 H330 0.950 . S
C338 C336 1.391 . S
C338 C339 1.400 . S
C339 C338 1.400 . S
C339 C340 1.398 . S
C339 C345 1.491 . S
C340 H331 0.950 . S
C340 C339 1.398 . S
C340 C341 1.391 . S
C341 H329 0.950 . S
C341 C337 1.393 . S
C341 C340 1.391 . S
C342 H332 0.950 . S
C342 C343 1.386 . S
C342 C344 1.391 . S
C343 C342 1.386 . S
C343 C347 1.393 . S
C344 H333 0.950 . S
C344 C342 1.391 . S
C344 C345 1.400 . S
C345 C339 1.491 . S
C345 C344 1.400 . S
C345 C346 1.398 . S
C346 H334 0.950 . S
C346 C345 1.398 . S
C346 C347 1.391 . S
C347 H335 0.950 . S
C347 C343 1.393 . S
C347 C346 1.391 . S
H348 C356 0.950 . S
H349 C361 0.950 . S
H350 C358 0.950 . S
H351 C360 0.950 . S
H352 C362 0.950 . S
H353 C364 0.950 . S
H354 C366 0.950 . S
H355 C367 0.950 . S
C356 H348 0.950 . S
C356 C357 1.386 . S
C356 C358 1.391 . S
C357 C356 1.386 . S
C357 C361 1.393 . S
C358 H350 0.950 . S
C358 C356 1.391 . S
C358 C359 1.400 . S
C359 C358 1.400 . S
C359 C360 1.398 . S
C359 C365 1.491 . S
C360 H351 0.950 . S
C360 C359 1.398 . S
C360 C361 1.391 . S
C361 H349 0.950 . S
C361 C357 1.393 . S
C361 C360 1.391 . S
C362 H352 0.950 . S
C362 C363 1.386 . S
C362 C364 1.391 . S
C363 C362 1.386 . S
C363 C367 1.393 . S
C364 H353 0.950 . S
C364 C362 1.391 . S
C364 C365 1.400 . S
C365 C359 1.491 . S
C365 C364 1.400 . S
C365 C366 1.398 . S
C366 H354 0.950 . S
C366 C365 1.398 . S
C366 C367 1.391 . S
C367 H355 0.950 . S
C367 C363 1.393 . S
C367 C366 1.391 . S
H368 C376 0.950 . S
H369 C381 0.950 . S
H370 C378 0.950 . S
H371 C380 0.950 . S
H372 C382 0.950 . S
H373 C384 0.950 . S
H374 C386 0.950 . S
H375 C387 0.950 . S
C376 H368 0.950 . S
C376 C377 1.386 . S
C376 C378 1.391 . S
C377 C376 1.386 . S
C377 C381 1.393 . S
C378 H370 0.950 . S
C378 C376 1.391 . S
C378 C379 1.400 . S
C379 C378 1.400 . S
C379 C380 1.398 . S
C379 C385 1.491 . S
C380 H371 0.950 . S
C380 C379 1.398 . S
C380 C381 1.391 . S
C381 H369 0.950 . S
C381 C377 1.393 . S
C381 C380 1.391 . S
C382 H372 0.950 . S
C382 C383 1.386 . S
C382 C384 1.391 . S
C383 C382 1.386 . S
C383 C387 1.393 . S
C384 H373 0.950 . S
C384 C382 1.391 . S
C384 C385 1.400 . S
C385 C379 1.491 . S
C385 C384 1.400 . S
C385 C386 1.398 . S
C386 H374 0.950 . S
C386 C385 1.398 . S
C386 C387 1.391 . S
C387 H375 0.950 . S
C387 C383 1.393 . S
C387 C386 1.391 . S
H388 C396 0.950 . S
H389 C401 0.950 . S
H390 C398 0.950 . S
H391 C400 0.950 . S
H392 C402 0.950 . S
H393 C404 0.950 . S
H394 C406 0.950 . S
H395 C407 0.950 . S
C396 H388 0.950 . S
C396 C397 1.386 . S
C396 C398 1.391 . S
C397 C396 1.386 . S
C397 C401 1.393 . S
C398 H390 0.950 . S
C398 C396 1.391 . S
C398 C399 1.400 . S
C399 C398 1.400 . S
C399 C400 1.398 . S
C399 C405 1.491 . S
C400 H391 0.950 . S
C400 C399 1.398 . S
C400 C401 1.391 . S
C401 H389 0.950 . S
C401 C397 1.393 . S
C401 C400 1.391 . S
C402 H392 0.950 . S
C402 C403 1.386 . S
C402 C404 1.391 . S
C403 C402 1.386 . S
C403 C407 1.393 . S
C404 H393 0.950 . S
C404 C402 1.391 . S
C404 C405 1.400 . S
C405 C399 1.491 . S
C405 C404 1.400 . S
C405 C406 1.398 . S
C406 H394 0.950 . S
C406 C405 1.398 . S
C406 C407 1.391 . S
C407 H395 0.950 . S
C407 C403 1.393 . S
C407 C406 1.391 . S
H408 C416 0.950 . S
H409 C421 0.950 . S
H410 C418 0.950 . S
H411 C420 0.950 . S
H412 C422 0.950 . S
H413 C424 0.950 . S
H414 C426 0.950 . S
H415 C427 0.950 . S
C416 H408 0.950 . S
C416 C417 1.386 . S
C416 C418 1.391 . S
C417 C416 1.386 . S
C417 C421 1.393 . S
C418 H410 0.950 . S
C418 C416 1.391 . S
C418 C419 1.400 . S
C419 C418 1.400 . S
C419 C420 1.398 . S
C419 C425 1.491 . S
C420 H411 0.950 . S
C420 C419 1.398 . S
C420 C421 1.391 . S
C421 H409 0.950 . S
C421 C417 1.393 . S
C421 C420 1.391 . S
C422 H412 0.950 . S
C422 C423 1.386 . S
C422 C424 1.391 . S
C423 C422 1.386 . S
C423 C427 1.393 . S
C424 H413 0.950 . S
C424 C422 1.391 . S
C424 C425 1.400 . S
C425 C419 1.491 . S
C425 C424 1.400 . S
C425 C426 1.398 . S
C426 H414 0.950 . S
C426 C425 1.398 . S
C426 C427 1.391 . S
C427 H415 0.950 . S
C427 C423 1.393 . S
C427 C426 1.391 . S
H428 C436 0.950 . S
H429 C441 0.950 . S
H430 C438 0.950 . S
H431 C440 0.950 . S
H432 C442 0.951 . S
H433 C444 0.950 . S
H434 C446 0.950 . S
H435 C447 0.950 1_554 S
C436 H428 0.950 . S
C436 C437 1.386 . S
C436 C438 1.391 . S
C437 C436 1.386 . S
C437 C441 1.393 . S
C438 H430 0.950 . S
C438 C436 1.391 . S
C438 C439 1.400 . S
C439 C438 1.400 . S
C439 C440 1.398 . S
C439 C445 1.491 . S
C440 H431 0.950 . S
C440 C439 1.398 . S
C440 C441 1.391 . S
C441 H429 0.950 . S
C441 C437 1.393 . S
C441 C440 1.391 . S
C442 H432 0.951 . S
C442 C443 1.386 1_556 S
C442 C444 1.391 . S
C443 C442 1.386 1_554 S
C443 C447 1.393 1_554 S
C444 H433 0.950 . S
C444 C442 1.391 . S
C444 C445 1.400 . S
C445 C439 1.491 . S
C445 C444 1.400 . S
C445 C446 1.398 . S
C446 H434 0.950 . S
C446 C445 1.398 . S
C446 C447 1.391 . S
C447 H435 0.950 1_556 S
C447 C443 1.393 1_556 S
C447 C446 1.391 . S
H448 C456 0.950 . S
H449 C461 0.950 . S
H450 C458 0.950 . S
H451 C460 0.950 . S
H452 C462 0.950 . S
H453 C464 0.950 . S
H454 C466 0.950 . S
H455 C467 0.950 . S
C456 H448 0.950 . S
C456 C457 1.386 . S
C456 C458 1.391 . S
C457 C456 1.386 . S
C457 C461 1.393 . S
C458 H450 0.950 . S
C458 C456 1.391 . S
C458 C459 1.400 . S
C459 C458 1.400 . S
C459 C460 1.398 . S
C459 C465 1.491 . S
C460 H451 0.950 . S
C460 C459 1.398 . S
C460 C461 1.391 . S
C461 H449 0.950 . S
C461 C457 1.393 . S
C461 C460 1.391 . S
C462 H452 0.950 . S
C462 C463 1.386 . S
C462 C464 1.391 . S
C463 C462 1.386 . S
C463 C467 1.393 . S
C464 H453 0.950 . S
C464 C462 1.391 . S
C464 C465 1.400 . S
C465 C459 1.491 . S
C465 C464 1.400 . S
C465 C466 1.398 . S
C466 H454 0.950 . S
C466 C465 1.398 . S
C466 C467 1.391 . S
C467 H455 0.950 . S
C467 C463 1.393 . S
C467 C466 1.391 . S
H468 C476 0.950 . S
H469 C481 0.950 . S
H470 C478 0.950 . S
H471 C480 0.950 . S
H472 C482 0.950 . S
H473 C484 0.950 . S
H474 C486 0.950 . S
H475 C487 0.950 . S
C476 H468 0.950 . S
C476 C477 1.386 . S
C476 C478 1.391 . S
C477 C476 1.386 . S
C477 C481 1.393 . S
C478 H470 0.950 . S
C478 C476 1.391 . S
C478 C479 1.400 . S
C479 C478 1.400 . S
C479 C480 1.398 . S
C479 C485 1.491 . S
C480 H471 0.950 . S
C480 C479 1.398 . S
C480 C481 1.391 . S
C481 H469 0.950 . S
C481 C477 1.393 . S
C481 C480 1.391 . S
C482 H472 0.950 . S
C482 C483 1.386 . S
C482 C484 1.391 . S
C483 C482 1.386 . S
C483 C487 1.393 . S
C484 H473 0.950 . S
C484 C482 1.391 . S
C484 C485 1.400 . S
C485 C479 1.491 . S
C485 C484 1.400 . S
C485 C486 1.398 . S
C486 H474 0.950 . S
C486 C485 1.398 . S
C486 C487 1.391 . S
C487 H475 0.950 . S
C487 C483 1.393 . S
C487 C486 1.391 . S
H488 C496 0.950 . S
H489 C501 0.950 . S
H490 C498 0.950 . S
H491 C500 0.950 . S
H492 C502 0.950 . S
H493 C504 0.950 . S
H494 C506 0.950 . S
H495 C507 0.950 . S
C496 H488 0.950 . S
C496 C497 1.386 . S
C496 C498 1.391 . S
C497 C496 1.386 . S
C497 C501 1.393 . S
C498 H490 0.950 . S
C498 C496 1.391 . S
C498 C499 1.400 . S
C499 C498 1.400 . S
C499 C500 1.398 . S
C499 C505 1.491 . S
C500 H491 0.950 . S
C500 C499 1.398 . S
C500 C501 1.391 . S
C501 H489 0.950 . S
C501 C497 1.393 . S
C501 C500 1.391 . S
C502 H492 0.950 . S
C502 C503 1.386 . S
C502 C504 1.391 . S
C503 C502 1.386 . S
C503 C507 1.393 . S
C504 H493 0.950 . S
C504 C502 1.391 . S
C504 C505 1.400 . S
C505 C499 1.491 . S
C505 C504 1.400 . S
C505 C506 1.398 . S
C506 H494 0.950 . S
C506 C505 1.398 . S
C506 C507 1.391 . S
C507 H495 0.950 . S
C507 C503 1.393 . S
C507 C506 1.391 . S
H508 C516 0.950 . S
H509 C521 0.950 . S
H510 C518 0.950 . S
H511 C520 0.950 . S
H512 C522 0.950 . S
H513 C524 0.950 . S
H514 C526 0.950 . S
H515 C527 0.950 . S
C516 H508 0.950 . S
C516 C517 1.386 . S
C516 C518 1.391 . S
C517 C516 1.386 . S
C517 C521 1.393 . S
C518 H510 0.950 . S
C518 C516 1.391 . S
C518 C519 1.400 . S
C519 C518 1.400 . S
C519 C520 1.398 . S
C519 C525 1.491 . S
C520 H511 0.950 . S
C520 C519 1.398 . S
C520 C521 1.391 . S
C521 H509 0.950 . S
C521 C517 1.393 . S
C521 C520 1.391 . S
C522 H512 0.950 . S
C522 C523 1.386 . S
C522 C524 1.391 . S
C523 C522 1.386 . S
C523 C527 1.393 . S
C524 H513 0.950 . S
C524 C522 1.391 . S
C524 C525 1.400 . S
C525 C519 1.491 . S
C525 C524 1.400 . S
C525 C526 1.398 . S
C526 H514 0.950 . S
C526 C525 1.398 . S
C526 C527 1.391 . S
C527 H515 0.950 . S
C527 C523 1.393 . S
C527 C526 1.391 . S
H528 C536 0.950 . S
H529 C541 0.950 . S
H530 C538 0.950 . S
H531 C540 0.950 . S
H532 C542 0.950 . S
H533 C544 0.950 . S
H534 C546 0.950 . S
H535 C547 0.950 . S
C536 H528 0.950 . S
C536 C537 1.386 . S
C536 C538 1.391 . S
C537 C536 1.386 . S
C537 C541 1.393 . S
C538 H530 0.950 . S
C538 C536 1.391 . S
C538 C539 1.400 . S
C539 C538 1.400 . S
C539 C540 1.398 . S
C539 C545 1.491 . S
C540 H531 0.950 . S
C540 C539 1.398 . S
C540 C541 1.391 . S
C541 H529 0.950 . S
C541 C537 1.393 . S
C541 C540 1.391 . S
C542 H532 0.950 . S
C542 C543 1.386 . S
C542 C544 1.391 . S
C543 C542 1.386 . S
C543 C547 1.393 . S
C544 H533 0.950 . S
C544 C542 1.391 . S
C544 C545 1.400 . S
C545 C539 1.491 . S
C545 C544 1.400 . S
C545 C546 1.398 . S
C546 H534 0.950 . S
C546 C545 1.398 . S
C546 C547 1.391 . S
C547 H535 0.950 . S
C547 C543 1.393 . S
C547 C546 1.391 . S
H548 C556 0.950 . S
H549 C561 0.950 . S
H550 C558 0.950 . S
H551 C560 0.950 . S
H552 C562 0.950 . S
H553 C564 0.950 . S
H554 C566 0.950 . S
H555 C567 0.950 . S
C556 H548 0.950 . S
C556 C557 1.386 . S
C556 C558 1.391 . S
C557 C556 1.386 . S
C557 C561 1.393 . S
C558 H550 0.950 . S
C558 C556 1.391 . S
C558 C559 1.400 . S
C559 C558 1.400 . S
C559 C560 1.398 . S
C559 C565 1.491 . S
C560 H551 0.950 . S
C560 C559 1.398 . S
C560 C561 1.391 . S
C561 H549 0.950 . S
C561 C557 1.393 . S
C561 C560 1.391 . S
C562 H552 0.950 . S
C562 C563 1.386 . S
C562 C564 1.391 . S
C563 C562 1.386 . S
C563 C567 1.393 . S
C564 H553 0.950 . S
C564 C562 1.391 . S
C564 C565 1.400 . S
C565 C559 1.491 . S
C565 C564 1.400 . S
C565 C566 1.398 . S
C566 H554 0.950 . S
C566 C565 1.398 . S
C566 C567 1.391 . S
C567 H555 0.950 . S
C567 C563 1.393 . S
C567 C566 1.391 . S
H568 C576 0.950 . S
H569 C581 0.950 . S
H570 C578 0.950 . S
H571 C580 0.950 . S
H572 C582 0.950 1_554 S
H573 C584 0.950 . S
H574 C586 0.950 . S
H575 C587 0.950 . S
C576 H568 0.950 . S
C576 C577 1.386 . S
C576 C578 1.391 . S
C577 C576 1.386 . S
C577 C581 1.393 . S
C578 H570 0.950 . S
C578 C576 1.391 . S
C578 C579 1.400 . S
C579 C578 1.400 . S
C579 C580 1.398 . S
C579 C585 1.491 . S
C580 H571 0.950 . S
C580 C579 1.398 . S
C580 C581 1.391 . S
C581 H569 0.950 . S
C581 C577 1.393 . S
C581 C580 1.391 . S
C582 H572 0.950 1_556 S
C582 C583 1.386 . S
C582 C584 1.391 . S
C583 C582 1.386 . S
C583 C587 1.393 . S
C584 H573 0.950 . S
C584 C582 1.391 . S
C584 C585 1.400 . S
C585 C579 1.491 . S
C585 C584 1.400 . S
C585 C586 1.398 . S
C586 H574 0.950 . S
C586 C585 1.398 . S
C586 C587 1.391 . S
C587 H575 0.950 . S
C587 C583 1.393 . S
C587 C586 1.391 . S
H588 C596 0.950 . S
H589 C601 0.950 . S
H590 C598 0.950 . S
H591 C600 0.950 . S
H592 C602 0.950 . S
H593 C604 0.950 . S
H594 C606 0.950 . S
H595 C607 0.950 . S
C596 H588 0.950 . S
C596 C597 1.386 . S
C596 C598 1.391 . S
C597 C596 1.386 . S
C597 C601 1.393 . S
C598 H590 0.950 . S
C598 C596 1.391 . S
C598 C599 1.400 . S
C599 C598 1.400 . S
C599 C600 1.398 . S
C599 C605 1.491 . S
C600 H591 0.950 . S
C600 C599 1.398 . S
C600 C601 1.391 . S
C601 H589 0.950 . S
C601 C597 1.393 . S
C601 C600 1.391 . S
C602 H592 0.950 . S
C602 C603 1.386 . S
C602 C604 1.391 . S
C603 C602 1.386 . S
C603 C607 1.393 . S
C604 H593 0.950 . S
C604 C602 1.391 . S
C604 C605 1.400 . S
C605 C599 1.491 . S
C605 C604 1.400 . S
C605 C606 1.398 . S
C606 H594 0.950 . S
C606 C605 1.398 . S
C606 C607 1.391 . S
C607 H595 0.950 . S
C607 C603 1.393 . S
C607 C606 1.391 . S
H608 C616 0.950 . S
H609 C621 0.950 . S
H610 C618 0.950 . S
H611 C620 0.950 . S
H612 C622 0.950 . S
H613 C624 0.950 . S
H614 C626 0.950 . S
H615 C627 0.950 . S
C616 H608 0.950 . S
C616 C617 1.386 . S
C616 C618 1.391 . S
C617 C616 1.386 . S
C617 C621 1.393 . S
C618 H610 0.950 . S
C618 C616 1.391 . S
C618 C619 1.400 . S
C619 C618 1.400 . S
C619 C620 1.398 . S
C619 C625 1.491 . S
C620 H611 0.950 . S
C620 C619 1.398 . S
C620 C621 1.391 . S
C621 H609 0.950 . S
C621 C617 1.393 . S
C621 C620 1.391 . S
C622 H612 0.950 . S
C622 C623 1.386 . S
C622 C624 1.391 . S
C623 C622 1.386 . S
C623 C627 1.393 . S
C624 H613 0.950 . S
C624 C622 1.391 . S
C624 C625 1.400 . S
C625 C619 1.491 . S
C625 C624 1.400 . S
C625 C626 1.398 . S
C626 H614 0.950 . S
C626 C625 1.398 . S
C626 C627 1.391 . S
C627 H615 0.950 . S
C627 C623 1.393 . S
C627 C626 1.391 . S
H628 C636 0.950 . S
H629 C641 0.950 . S
H630 C638 0.950 . S
H631 C640 0.950 . S
H632 C642 0.950 . S
H633 C644 0.950 . S
H634 C646 0.950 . S
H635 C647 0.950 . S
C636 H628 0.950 . S
C636 C637 1.386 . S
C636 C638 1.391 . S
C637 C636 1.386 . S
C637 C641 1.393 . S
C638 H630 0.950 . S
C638 C636 1.391 . S
C638 C639 1.400 . S
C639 C638 1.400 . S
C639 C640 1.398 . S
C639 C645 1.491 . S
C640 H631 0.950 . S
C640 C639 1.398 . S
C640 C641 1.391 . S
C641 H629 0.950 . S
C641 C637 1.393 . S
C641 C640 1.391 . S
C642 H632 0.950 . S
C642 C643 1.386 . S
C642 C644 1.391 . S
C643 C642 1.386 . S
C643 C647 1.393 . S
C644 H633 0.950 . S
C644 C642 1.391 . S
C644 C645 1.400 . S
C645 C639 1.491 . S
C645 C644 1.400 . S
C645 C646 1.398 . S
C646 H634 0.950 . S
C646 C645 1.398 . S
C646 C647 1.391 . S
C647 H635 0.950 . S
C647 C643 1.393 . S
C647 C646 1.391 . S
H648 C656 0.950 . S
H649 C661 0.950 . S
H650 C658 0.950 . S
H651 C660 0.950 . S
H652 C662 0.950 . S
H653 C664 0.950 . S
H654 C666 0.950 . S
H655 C667 0.950 . S
C656 H648 0.950 . S
C656 C657 1.386 . S
C656 C658 1.391 . S
C657 C656 1.386 . S
C657 C661 1.393 . S
C658 H650 0.950 . S
C658 C656 1.391 . S
C658 C659 1.400 . S
C659 C658 1.400 . S
C659 C660 1.398 . S
C659 C665 1.491 . S
C660 H651 0.950 . S
C660 C659 1.398 . S
C660 C661 1.391 . S
C661 H649 0.950 . S
C661 C657 1.393 . S
C661 C660 1.391 . S
C662 H652 0.950 . S
C662 C663 1.386 . S
C662 C664 1.391 . S
C663 C662 1.386 . S
C663 C667 1.393 . S
C664 H653 0.950 . S
C664 C662 1.391 . S
C664 C665 1.400 . S
C665 C659 1.491 . S
C665 C664 1.400 . S
C665 C666 1.398 . S
C666 H654 0.950 . S
C666 C665 1.398 . S
C666 C667 1.391 . S
C667 H655 0.950 . S
C667 C663 1.393 . S
C667 C666 1.391 . S
H668 C676 0.950 . S
H669 C681 0.950 . S
H670 C678 0.950 . S
H671 C680 0.950 . S
H672 C682 0.950 . S
H673 C684 0.950 . S
H674 C686 0.950 . S
H675 C687 0.950 . S
C676 H668 0.950 . S
C676 C677 1.386 . S
C676 C678 1.391 . S
C677 C676 1.386 . S
C677 C681 1.393 . S
C678 H670 0.950 . S
C678 C676 1.391 . S
C678 C679 1.400 . S
C679 C678 1.400 . S
C679 C680 1.398 . S
C679 C685 1.491 . S
C680 H671 0.950 . S
C680 C679 1.398 . S
C680 C681 1.391 . S
C681 H669 0.950 . S
C681 C677 1.393 . S
C681 C680 1.391 . S
C682 H672 0.950 . S
C682 C683 1.386 . S
C682 C684 1.391 . S
C683 C682 1.386 . S
C683 C687 1.393 . S
C684 H673 0.950 . S
C684 C682 1.391 . S
C684 C685 1.400 . S
C685 C679 1.491 . S
C685 C684 1.400 . S
C685 C686 1.398 . S
C686 H674 0.950 . S
C686 C685 1.398 . S
C686 C687 1.391 . S
C687 H675 0.950 . S
C687 C683 1.393 . S
C687 C686 1.391 . S
H688 C696 0.950 . S
H689 C701 0.950 . S
H690 C698 0.950 . S
H691 C700 0.950 . S
H692 C702 0.950 . S
H693 C704 0.950 . S
H694 C706 0.950 . S
H695 C707 0.950 . S
C696 H688 0.950 . S
C696 C697 1.386 . S
C696 C698 1.391 . S
C697 C696 1.386 . S
C697 C701 1.393 . S
C698 H690 0.950 . S
C698 C696 1.391 . S
C698 C699 1.400 . S
C699 C698 1.400 . S
C699 C700 1.398 . S
C699 C705 1.491 . S
C700 H691 0.950 . S
C700 C699 1.398 . S
C700 C701 1.391 . S
C701 H689 0.950 . S
C701 C697 1.393 . S
C701 C700 1.391 . S
C702 H692 0.950 . S
C702 C703 1.386 . S
C702 C704 1.391 . S
C703 C702 1.386 . S
C703 C707 1.393 . S
C704 H693 0.950 . S
C704 C702 1.391 . S
C704 C705 1.400 . S
C705 C699 1.491 . S
C705 C704 1.400 . S
C705 C706 1.398 . S
C706 H694 0.950 . S
C706 C705 1.398 . S
C706 C707 1.391 . S
C707 H695 0.950 . S
C707 C703 1.393 . S
C707 C706 1.391 . S
H708 C716 0.950 . S
H709 C721 0.950 . S
H710 C718 0.950 . S
H711 C720 0.950 . S
H712 C722 0.950 . S
H713 C724 0.950 . S
H714 C726 0.950 . S
H715 C727 0.950 . S
C716 H708 0.950 . S
C716 C717 1.386 . S
C716 C718 1.391 . S
C717 C716 1.386 . S
C717 C721 1.393 . S
C718 H710 0.950 . S
C718 C716 1.391 . S
C718 C719 1.400 . S
C719 C718 1.400 . S
C719 C720 1.398 . S
C719 C725 1.491 . S
C720 H711 0.950 . S
C720 C719 1.398 . S
C720 C721 1.391 . S
C721 H709 0.950 . S
C721 C717 1.393 . S
C721 C720 1.391 . S
C722 H712 0.950 . S
C722 C723 1.386 . S
C722 C724 1.391 . S
C723 C722 1.386 . S
C723 C727 1.393 . S
C724 H713 0.950 . S
C724 C722 1.391 . S
C724 C725 1.400 . S
C725 C719 1.491 . S
C725 C724 1.400 . S
C725 C726 1.398 . S
C726 H714 0.950 . S
C726 C725 1.398 . S
C726 C727 1.391 . S
C727 H715 0.950 . S
C727 C723 1.393 . S
C727 C726 1.391 . S
C257 C4 1.088 . S
C263 C94 1.104 . S
C277 C16 1.255 . S
C283 C143 1.262 . S
C303 C178 2.059 . S
C297 C32 2.084 . S
C317 C43 2.275 . S
C323 C217 2.216 . S
C343 C138 2.649 . S
C337 C5 2.549 . S
C363 C97 0.470 1_565 S
C357 C21 0.434 . S
C383 C227 1.877 . S
C377 C27 1.922 . S
C403 C186 1.589 . S
C397 C37 1.587 . S
C417 C10 1.449 . S
C423 C214 1.481 . S
C443 C146 2.513 . S
C437 C26 2.597 . S
C457 C38 2.084 . S
C463 C107 2.084 . S
C477 C15 1.033 . S
C483 C183 1.031 . S
C503 C103 1.283 . S
C497 C48 1.251 . S
C517 C59 1.036 . S
C523 C134 1.036 . S
C537 C76 2.470 . S
C543 C187 2.431 . S
C557 C87 2.109 . S
C563 C226 2.096 . S
C577 C54 1.918 . S
C583 C147 1.997 1_556 S
C603 C106 1.384 . S
C597 C60 1.440 . S
C623 C218 1.762 . S
C617 C71 1.790 . S
C643 C177 1.551 . S
C637 C82 1.600 . S
C657 C49 1.703 . S
C663 C223 1.799 . S
C683 C137 1.967 . S
C677 C70 2.046 . S
C703 C98 2.534 . S
C697 C81 2.545 . S
C717 C65 0.854 . S
C723 C174 0.868 . S
