# Generated by pormake.
# Topology nom, (4,4)-cn, num edge types: 1
# Building blocks:
#     Node 0, Type 0, BuildingBlock: NAWXER_clean_linker_0, # of connection points: 4
#     Node 1, Type 0, BuildingBlock: NAWXER_clean_linker_0, # of connection points: 4
#     Node 2, Type 0, BuildingBlock: NAWXER_clean_linker_0, # of connection points: 4
#     Node 3, Type 0, BuildingBlock: NAWXER_clean_linker_0, # of connection points: 4
#     Node 4, Type 0, BuildingBlock: NAWXER_clean_linker_0, # of connection points: 4
#     Node 5, Type 0, BuildingBlock: NAWXER_clean_linker_0, # of connection points: 4
#     Node 6, Type 1, BuildingBlock: QUQFOY_clean_sbu_1, # of connection points: 4
#     Node 7, Type 1, BuildingBlock: QUQFOY_clean_sbu_1, # of connection points: 4
#     Node 8, Type 1, BuildingBlock: QUQFOY_clean_sbu_1, # of connection points: 4
#     Node 9, Type 1, BuildingBlock: QUQFOY_clean_sbu_1, # of connection points: 4
#     Node 10, Type 1, BuildingBlock: QUQFOY_clean_sbu_1, # of connection points: 4
#     Node 11, Type 1, BuildingBlock: QUQFOY_clean_sbu_1, # of connection points: 4
#     Edge 12, Type (0, 1), BuildingBlock: KIFKEQ_clean_linker_1, # of connection points: 2
#     Edge 13, Type (0, 1), BuildingBlock: KIFKEQ_clean_linker_1, # of connection points: 2
#     Edge 14, Type (0, 1), BuildingBlock: KIFKEQ_clean_linker_1, # of connection points: 2
#     Edge 15, Type (0, 1), BuildingBlock: KIFKEQ_clean_linker_1, # of connection points: 2
#     Edge 16, Type (0, 1), BuildingBlock: KIFKEQ_clean_linker_1, # of connection points: 2
#     Edge 17, Type (0, 1), BuildingBlock: KIFKEQ_clean_linker_1, # of connection points: 2
#     Edge 18, Type (0, 1), BuildingBlock: KIFKEQ_clean_linker_1, # of connection points: 2
#     Edge 19, Type (0, 1), BuildingBlock: KIFKEQ_clean_linker_1, # of connection points: 2
#     Edge 20, Type (0, 1), BuildingBlock: KIFKEQ_clean_linker_1, # of connection points: 2
#     Edge 21, Type (0, 1), BuildingBlock: KIFKEQ_clean_linker_1, # of connection points: 2
#     Edge 22, Type (0, 1), BuildingBlock: KIFKEQ_clean_linker_1, # of connection points: 2
#     Edge 23, Type (0, 1), BuildingBlock: KIFKEQ_clean_linker_1, # of connection points: 2
#     Edge 24, Type (0, 1), BuildingBlock: KIFKEQ_clean_linker_1, # of connection points: 2
#     Edge 25, Type (0, 1), BuildingBlock: KIFKEQ_clean_linker_1, # of connection points: 2
#     Edge 26, Type (0, 1), BuildingBlock: KIFKEQ_clean_linker_1, # of connection points: 2
#     Edge 27, Type (0, 1), BuildingBlock: KIFKEQ_clean_linker_1, # of connection points: 2
#     Edge 28, Type (0, 1), BuildingBlock: KIFKEQ_clean_linker_1, # of connection points: 2
#     Edge 29, Type (0, 1), BuildingBlock: KIFKEQ_clean_linker_1, # of connection points: 2
#     Edge 30, Type (0, 1), BuildingBlock: KIFKEQ_clean_linker_1, # of connection points: 2
#     Edge 31, Type (0, 1), BuildingBlock: KIFKEQ_clean_linker_1, # of connection points: 2
#     Edge 32, Type (0, 1), BuildingBlock: KIFKEQ_clean_linker_1, # of connection points: 2
#     Edge 33, Type (0, 1), BuildingBlock: KIFKEQ_clean_linker_1, # of connection points: 2
#     Edge 34, Type (0, 1), BuildingBlock: KIFKEQ_clean_linker_1, # of connection points: 2
#     Edge 35, Type (0, 1), BuildingBlock: KIFKEQ_clean_linker_1, # of connection points: 2
# Relax obj value: 0.026
# Max RMSD: 0.132
# Mean RMSD: 0.124
data_MOF--net-nom--node1-QUQFOY_clean_sbu_1--node2-NAWXER_clean_linker_0--edge1-KIFKEQ_clean_linker_1
_symmetry_space_group_name_H-M    P1
_symmetry_Int_Tables_number       1
_symmetry_cell_setting            triclinic
loop_
_symmetry_equiv_pos_as_xyz
'x, y, z'
_cell_length_a     55.422181
_cell_length_b     55.411612
_cell_length_c     55.797787
_cell_angle_alpha  89.993187
_cell_angle_beta   90.022247
_cell_angle_gamma 119.99953
loop_
_atom_site_label
_atom_site_type_symbol
_atom_site_fract_x
_atom_site_fract_y
_atom_site_fract_z
_atom_type_partial_charge
C0 C 0.90903 0.47662 0.33961 0.0
C1 C 0.89939 0.45784 0.35888 0.0
C2 C 0.93622 0.48756 0.33123 0.0
C3 C 0.95414 0.47921 0.34135 0.0
C4 C 0.91756 0.45031 0.36973 0.0
C5 C 0.94471 0.46086 0.36098 0.0
C6 C 0.98303 0.49068 0.33225 0.0
C7 C 0.92711 0.44386 0.27016 0.0
C8 C 0.92781 0.46149 0.25165 0.0
C9 C 0.94712 0.45417 0.28839 0.0
C10 C 0.96821 0.48228 0.28845 0.0
C11 C 0.9491 0.48962 0.25184 0.0
C12 C 0.96923 0.49979 0.26989 0.0
C13 C 0.98955 0.4936 0.30755 0.0
C14 C 0.11483 0.54411 0.30553 0.0
C15 C 0.12143 0.56581 0.28907 0.0
C16 C 0.08767 0.52819 0.31443 0.0
C17 C 0.06675 0.53393 0.30724 0.0
C18 C 0.10017 0.57091 0.2815 0.0
C19 C 0.07315 0.55504 0.29037 0.0
C20 C 0.03804 0.51822 0.31685 0.0
C21 C 0.09513 0.56453 0.37801 0.0
C22 C 0.09388 0.54762 0.39736 0.0
C23 C 0.07477 0.55407 0.36012 0.0
C24 C 0.05316 0.52617 0.36068 0.0
C25 C 0.07161 0.51995 0.39827 0.0
C26 C 0.05152 0.50937 0.38013 0.0
C27 C 0.03165 0.51456 0.34161 0.0
H28 H 0.89566 0.48333 0.33135 0.0
H29 H 0.94328 0.50282 0.31695 0.0
H30 H 0.91064 0.43601 0.38475 0.0
H31 H 0.95827 0.45452 0.36942 0.0
H32 H 0.91136 0.422 0.2704 0.0
H33 H 0.94625 0.44017 0.30235 0.0
H34 H 0.95007 0.50398 0.23821 0.0
H35 H 0.98532 0.52155 0.26962 0.0
H36 H 0.13061 0.53939 0.31147 0.0
H37 H 0.08305 0.51154 0.32701 0.0
H38 H 0.10453 0.5877 0.26917 0.0
H39 H 0.05733 0.55978 0.28449 0.0
H40 H 0.11197 0.58586 0.37652 0.0
H41 H 0.07599 0.56786 0.34583 0.0
H42 H 0.06945 0.50647 0.41315 0.0
H43 H 0.03473 0.48795 0.38122 0.0
N44 N 0.00436 0.5009 0.34833 0.0
N45 N 0.01672 0.50758 0.30086 0.0
C46 C 0.41623 0.9155 0.51142 0.0
C47 C 0.42797 0.90229 0.52467 0.0
C48 C 0.43271 0.94279 0.50334 0.0
C49 C 0.46128 0.9577 0.5085 0.0
C50 C 0.45658 0.91758 0.53031 0.0
C51 C 0.47304 0.94516 0.52246 0.0
C52 C 0.47854 0.98627 0.49905 0.0
C53 C 0.46592 0.92934 0.43773 0.0
C54 C 0.44775 0.92888 0.41994 0.0
C55 C 0.47584 0.94973 0.45555 0.0
C56 C 0.46781 0.97008 0.45595 0.0
C57 C 0.43959 0.94917 0.42041 0.0
C58 C 0.44979 0.9698 0.43814 0.0
C59 C 0.47916 0.99222 0.47439 0.0
C60 C 0.55794 0.11625 0.46917 0.0
C61 C 0.54224 0.12423 0.45478 0.0
C62 C 0.54598 0.08915 0.47826 0.0
C63 C 0.51805 0.06954 0.47327 0.0
C64 C 0.5144 0.10433 0.44952 0.0
C65 C 0.50253 0.07725 0.45853 0.0
C66 C 0.50488 0.04082 0.48287 0.0
C67 C 0.52201 0.0974 0.54623 0.0
C68 C 0.54283 0.09844 0.56133 0.0
C69 C 0.50979 0.07678 0.52865 0.0
C70 C 0.51814 0.05683 0.5259 0.0
C71 C 0.55105 0.07836 0.55858 0.0
C72 C 0.53859 0.05756 0.54116 0.0
C73 C 0.50523 0.03484 0.50747 0.0
H74 H 0.39418 0.90484 0.50733 0.0
H75 H 0.42309 0.95232 0.49303 0.0
H76 H 0.46641 0.90811 0.54034 0.0
H77 H 0.49506 0.95642 0.5267 0.0
H78 H 0.47246 0.9139 0.43784 0.0
H79 H 0.49017 0.94986 0.46883 0.0
H80 H 0.42582 0.94944 0.40676 0.0
H81 H 0.44353 0.98545 0.43803 0.0
H82 H 0.57956 0.13086 0.47323 0.0
H83 H 0.55861 0.08347 0.48909 0.0
H84 H 0.50153 0.10979 0.43881 0.0
H85 H 0.48098 0.06242 0.45437 0.0
H86 H 0.51533 0.11265 0.54792 0.0
H87 H 0.49371 0.07631 0.51728 0.0
H88 H 0.56678 0.07847 0.57018 0.0
H89 H 0.54514 0.0422 0.53942 0.0
N90 N 0.49191 0.00776 0.5147 0.0
N91 N 0.49193 0.01925 0.46723 0.0
C92 C 0.5749 0.49129 0.60104 0.0
C93 C 0.55687 0.47398 0.58292 0.0
C94 C 0.565 0.50125 0.61935 0.0
C95 C 0.5369 0.4942 0.6199 0.0
C96 C 0.52868 0.46693 0.58364 0.0
C97 C 0.5189 0.47717 0.6018 0.0
C98 C 0.52634 0.50507 0.63894 0.0
C99 C 0.53813 0.43933 0.6732 0.0
C100 C 0.56197 0.44974 0.68782 0.0
C101 C 0.52816 0.45663 0.66544 0.0
C102 C 0.54163 0.48477 0.67216 0.0
C103 C 0.57514 0.4779 0.69497 0.0
C104 C 0.5649 0.49521 0.68734 0.0
C105 C 0.53075 0.50274 0.66352 0.0
C106 C 0.45792 0.54053 0.71145 0.0
C107 C 0.47574 0.55696 0.72996 0.0
C108 C 0.46782 0.53052 0.69317 0.0
C109 C 0.49598 0.53759 0.69261 0.0
C110 C 0.50363 0.56322 0.72987 0.0
C111 C 0.51365 0.55365 0.71133 0.0
C112 C 0.50693 0.52733 0.67331 0.0
C113 C 0.47235 0.57699 0.63806 0.0
C114 C 0.44909 0.56003 0.62366 0.0
C115 C 0.49004 0.56731 0.64592 0.0
C116 C 0.48465 0.54053 0.63949 0.0
C117 C 0.44452 0.53375 0.61651 0.0
C118 C 0.4622 0.5242 0.62423 0.0
C119 C 0.50174 0.52883 0.64864 0.0
H120 H 0.59682 0.49763 0.60086 0.0
H121 H 0.57941 0.51485 0.63288 0.0
H122 H 0.51404 0.45327 0.57029 0.0
H123 H 0.49713 0.47146 0.60191 0.0
H124 H 0.52684 0.41762 0.66793 0.0
H125 H 0.50971 0.44794 0.65426 0.0
H126 H 0.59358 0.48668 0.70614 0.0
H127 H 0.57544 0.51684 0.69288 0.0
H128 H 0.43619 0.53494 0.7114 0.0
H129 H 0.45337 0.5171 0.6796 0.0
H130 H 0.51776 0.57582 0.74398 0.0
H131 H 0.53532 0.559 0.71151 0.0
H132 H 0.47639 0.59734 0.64381 0.0
H133 H 0.50759 0.5805 0.65731 0.0
H134 H 0.42707 0.52043 0.60507 0.0
H135 H 0.45782 0.50361 0.61883 0.0
N136 N 0.51169 0.51765 0.63245 0.0
N137 N 0.52123 0.51427 0.6798 0.0
C138 C 0.91271 0.4166 0.81179 0.0
C139 C 0.90406 0.42668 0.79247 0.0
C140 C 0.93997 0.43175 0.8204 0.0
C141 C 0.95888 0.45779 0.81041 0.0
C142 C 0.92327 0.45203 0.7817 0.0
C143 C 0.95044 0.46749 0.79064 0.0
C144 C 0.98761 0.47456 0.82004 0.0
C145 C 0.92966 0.46631 0.87914 0.0
C146 C 0.93168 0.4534 0.90007 0.0
C147 C 0.95005 0.47476 0.86138 0.0
C148 C 0.97226 0.46947 0.8638 0.0
C149 C 0.9544 0.44909 0.90298 0.0
C150 C 0.97448 0.45697 0.88495 0.0
C151 C 0.99383 0.47796 0.84488 0.0
C152 C 0.1183 0.55489 0.84748 0.0
C153 C 0.12655 0.53982 0.86242 0.0
C154 C 0.09092 0.54271 0.83901 0.0
C155 C 0.07127 0.51519 0.84522 0.0
C156 C 0.10656 0.51245 0.869 0.0
C157 C 0.07918 0.50036 0.86062 0.0
C158 C 0.04242 0.50167 0.83588 0.0
C159 C 0.09845 0.51503 0.77261 0.0
C160 C 0.0998 0.53585 0.75735 0.0
C161 C 0.07775 0.50318 0.79018 0.0
C162 C 0.05799 0.51182 0.79257 0.0
C163 C 0.07987 0.54429 0.75972 0.0
C164 C 0.05896 0.53215 0.77703 0.0
C165 C 0.03622 0.49984 0.8112 0.0
H166 H 0.89844 0.39681 0.82005 0.0
H167 H 0.94621 0.42312 0.83494 0.0
H168 H 0.9171 0.46013 0.76669 0.0
H169 H 0.96472 0.48726 0.78236 0.0
H170 H 0.91259 0.47033 0.87675 0.0
H171 H 0.94843 0.4855 0.84578 0.0
H172 H 0.95641 0.43927 0.91906 0.0
H173 H 0.99161 0.45306 0.88745 0.0
H174 H 0.13295 0.57618 0.84243 0.0
H175 H 0.0851 0.55482 0.82764 0.0
H176 H 0.11218 0.50006 0.88021 0.0
H177 H 0.0643 0.47914 0.86571 0.0
H178 H 0.1136 0.50819 0.77113 0.0
H179 H 0.07714 0.48728 0.80188 0.0
H180 H 0.08027 0.56006 0.74797 0.0
H181 H 0.04378 0.53896 0.77854 0.0
N182 N 0.0091 0.48621 0.80418 0.0
N183 N 0.021 0.49083 0.85179 0.0
C184 C 0.47405 0.90868 0.97383 0.0
C185 C 0.45486 0.89968 0.95486 0.0
C186 C 0.48549 0.93572 0.98276 0.0
C187 C 0.47729 0.95413 0.9735 0.0
C188 C 0.44731 0.9183 0.94496 0.0
C189 C 0.4584 0.9453 0.95425 0.0
C190 C 0.48987 0.98308 0.9828 0.0
C191 C 0.44371 0.92754 0.04466 0.0
C192 C 0.46131 0.92683 0.06243 0.0
C193 C 0.4544 0.948 0.02684 0.0
C194 C 0.48286 0.96815 0.02654 0.0
C195 C 0.4897 0.94727 0.06229 0.0
C196 C 0.50031 0.9679 0.04464 0.0
C197 C 0.49453 0.98957 0.0075 0.0
C198 C 0.55188 0.11563 0.00907 0.0
C199 C 0.57518 0.12143 0.02322 0.0
C200 C 0.5338 0.08846 0.00107 0.0
C201 C 0.53875 0.06668 0.00709 0.0
C202 C 0.57954 0.0994 0.02977 0.0
C203 C 0.56141 0.0723 0.02192 0.0
C204 C 0.52071 0.03797 0.99808 0.0
C205 C 0.56519 0.09096 0.93393 0.0
C206 C 0.54692 0.09432 0.91862 0.0
C207 C 0.55477 0.07059 0.95182 0.0
C208 C 0.52592 0.05319 0.95466 0.0
C209 C 0.51804 0.07676 0.92145 0.0
C210 C 0.50764 0.05617 0.93918 0.0
C211 C 0.51475 0.03161 0.97352 0.0
H212 H 0.48079 0.895 0.98136 0.0
H213 H 0.50113 0.9423 0.99668 0.0
H214 H 0.4327 0.91188 0.93019 0.0
H215 H 0.45216 0.95925 0.94646 0.0
H216 H 0.42176 0.91202 0.04434 0.0
H217 H 0.44046 0.94808 0.01327 0.0
H218 H 0.50365 0.94743 0.07598 0.0
H219 H 0.52228 0.98338 0.04484 0.0
H220 H 0.54801 0.13219 0.00374 0.0
H221 H 0.5161 0.08451 0.99006 0.0
H222 H 0.59704 0.10314 0.04097 0.0
H223 H 0.56547 0.05578 0.02698 0.0
H224 H 0.58753 0.10427 0.93219 0.0
H225 H 0.56923 0.06836 0.9634 0.0
H226 H 0.50352 0.07869 0.90972 0.0
H227 H 0.48532 0.04277 0.94101 0.0
N228 N 0.49971 0.00442 0.96677 0.0
N229 N 0.51023 0.0167 0.01415 0.0
C230 C 0.51219 0.6145 0.18279 0.0
C231 C 0.48709 0.60102 0.19569 0.0
C232 C 0.5236 0.59925 0.17301 0.0
C233 C 0.51029 0.57027 0.17619 0.0
C234 C 0.47368 0.57198 0.19878 0.0
C235 C 0.48543 0.55676 0.18938 0.0
C236 C 0.5229 0.55443 0.1662 0.0
C237 C 0.48165 0.5709 0.10445 0.0
C238 C 0.50011 0.58982 0.08737 0.0
C239 C 0.49126 0.56007 0.12224 0.0
C240 C 0.51955 0.56788 0.12341 0.0
C241 C 0.52849 0.59766 0.08866 0.0
C242 C 0.53805 0.5866 0.10639 0.0
C243 C 0.52948 0.55544 0.14165 0.0
C244 C 0.57364 0.47593 0.13512 0.0
C245 C 0.59803 0.49179 0.12161 0.0
C246 C 0.55863 0.48806 0.1441 0.0
C247 C 0.56774 0.51631 0.13985 0.0
C248 C 0.60674 0.51996 0.117 0.0
C249 C 0.59162 0.53202 0.12588 0.0
C250 C 0.55233 0.52954 0.14962 0.0
C251 C 0.59098 0.51159 0.21322 0.0
C252 C 0.57116 0.48988 0.22768 0.0
C253 C 0.58258 0.52386 0.19567 0.0
C254 C 0.55422 0.5148 0.19229 0.0
C255 C 0.54272 0.48086 0.22409 0.0
C256 C 0.53439 0.49342 0.20676 0.0
C257 C 0.5452 0.52802 0.1741 0.0
H258 H 0.52283 0.63685 0.18007 0.0
H259 H 0.54298 0.61011 0.16314 0.0
H260 H 0.45436 0.56119 0.20876 0.0
H261 H 0.47498 0.53442 0.19212 0.0
H262 H 0.45958 0.56382 0.10372 0.0
H263 H 0.47642 0.54503 0.13475 0.0
H264 H 0.54338 0.61239 0.07601 0.0
H265 H 0.55994 0.59281 0.10691 0.0
H266 H 0.56599 0.45406 0.13861 0.0
H267 H 0.53982 0.47531 0.1543 0.0
H268 H 0.62559 0.53293 0.10694 0.0
H269 H 0.59895 0.55382 0.1223 0.0
H270 H 0.61306 0.51954 0.21573 0.0
H271 H 0.59826 0.54071 0.18495 0.0
H272 H 0.52678 0.4639 0.23451 0.0
H273 H 0.5124 0.48615 0.2044 0.0
N274 N 0.53077 0.54055 0.18152 0.0
N275 N 0.54421 0.54321 0.13429 0.0
O276 O 0.60701 0.38433 0.43323 0.0
Cd277 Cd 0.61476 0.36785 0.40314 0.0
Cd278 Cd 0.66459 0.4145 0.40533 0.0
O279 O 0.64955 0.41991 0.43769 0.0
O280 O 0.58564 0.32768 0.40297 0.0
O281 O 0.63059 0.3424 0.40718 0.0
C282 C 0.60524 0.32193 0.4063 0.0
C283 C 0.70777 0.41685 0.40357 0.0
C284 C 0.62454 0.40553 0.445 0.0
C285 C 0.6286 0.40813 0.36275 0.0
O286 O 0.6508 0.42416 0.37421 0.0
O287 O 0.61181 0.38389 0.37067 0.0
O288 O 0.70587 0.43897 0.40625 0.0
O289 O 0.68496 0.39311 0.40236 0.0
O290 O 0.23936 0.6034 0.60674 0.0
Cd291 Cd 0.26252 0.6128 0.57552 0.0
Cd292 Cd 0.25704 0.65837 0.57758 0.0
O293 O 0.23864 0.64268 0.61026 0.0
O294 O 0.27702 0.58643 0.57521 0.0
O295 O 0.30439 0.63205 0.57851 0.0
C296 C 0.30171 0.60752 0.57785 0.0
C297 C 0.29214 0.70475 0.57362 0.0
C298 C 0.23243 0.61879 0.61827 0.0
C299 C 0.23007 0.61977 0.53592 0.0
O300 O 0.23276 0.64058 0.5477 0.0
O301 O 0.24186 0.60643 0.54311 0.0
O302 O 0.2664 0.69798 0.57626 0.0
O303 O 0.29821 0.68506 0.57404 0.0
O304 O 0.64215 0.2371 0.77228 0.0
Cd305 Cd 0.66006 0.25952 0.74148 0.0
Cd306 Cd 0.61294 0.26321 0.74052 0.0
O307 O 0.60453 0.24121 0.77233 0.0
O308 O 0.70005 0.27009 0.7427 0.0
O309 O 0.68578 0.30092 0.74431 0.0
C310 C 0.70604 0.29569 0.74464 0.0
C311 C 0.60623 0.30152 0.73744 0.0
C312 C 0.61932 0.23214 0.78187 0.0
C313 C 0.62238 0.23366 0.6993 0.0
O314 O 0.60659 0.24129 0.70907 0.0
O315 O 0.64533 0.23932 0.70908 0.0
O316 O 0.58555 0.27637 0.73822 0.0
O317 O 0.63106 0.30516 0.73939 0.0
O318 O 0.43151 0.65847 0.93363 0.0
Cd319 Cd 0.41735 0.66897 0.90327 0.0
Cd320 Cd 0.3731 0.61886 0.91018 0.0
O321 O 0.39145 0.62142 0.943 0.0
O322 O 0.43979 0.71032 0.90015 0.0
O323 O 0.39455 0.68763 0.90784 0.0
C324 C 0.41734 0.71104 0.90476 0.0
C325 C 0.32668 0.60783 0.90723 0.0
C326 C 0.41675 0.63869 0.94801 0.0
C327 C 0.40766 0.62612 0.86659 0.0
O328 O 0.38924 0.60893 0.88091 0.0
O329 O 0.4201 0.65209 0.87105 0.0
O330 O 0.33319 0.58913 0.91252 0.0
O331 O 0.34668 0.63315 0.90428 0.0
O332 O 0.78393 0.37633 0.0437 0.0
Cd333 Cd 0.75962 0.36134 0.07418 0.0
Cd334 Cd 0.76475 0.41254 0.07335 0.0
O335 O 0.7852 0.4167 0.04151 0.0
O336 O 0.74597 0.32061 0.07375 0.0
O337 O 0.7179 0.33802 0.07024 0.0
C338 C 0.72115 0.31649 0.07071 0.0
C339 C 0.72945 0.42369 0.07581 0.0
C340 C 0.79169 0.39939 0.03313 0.0
C341 C 0.79011 0.39955 0.11528 0.0
O342 O 0.78739 0.41799 0.10405 0.0
O343 O 0.77921 0.37487 0.10711 0.0
O344 O 0.75525 0.44273 0.07371 0.0
O345 O 0.72352 0.39796 0.0759 0.0
O346 O 0.41126 0.78887 0.21327 0.0
Cd347 Cd 0.40421 0.76517 0.2438 0.0
Cd348 Cd 0.35427 0.76104 0.24038 0.0
O349 O 0.36819 0.77967 0.20736 0.0
O350 O 0.43559 0.75739 0.24397 0.0
O351 O 0.39149 0.72425 0.24084 0.0
C352 C 0.41752 0.73136 0.24132 0.0
C353 C 0.3119 0.71967 0.2439 0.0
C354 C 0.39344 0.79116 0.20062 0.0
C355 C 0.38919 0.79217 0.28277 0.0
O356 O 0.36791 0.78658 0.27016 0.0
O357 O 0.4057 0.78371 0.27629 0.0
O358 O 0.31297 0.74314 0.24 0.0
O359 O 0.33512 0.71956 0.24531 0.0
H360 H 0.17008 0.58651 0.31468 0.0
H361 H 0.13856 0.58627 0.24377 0.0
H362 H 0.217 0.62064 0.30147 0.0
H363 H 0.18534 0.62076 0.23081 0.0
H364 H 0.26053 0.71148 0.2329 0.0
H365 H 0.21544 0.67105 0.242 0.0
H366 H 0.2564 0.62949 0.27286 0.0
H367 H 0.30185 0.67016 0.26364 0.0
C368 C 0.1732 0.59329 0.29616 0.0
C369 C 0.15046 0.58391 0.28037 0.0
C370 C 0.2001 0.61287 0.28862 0.0
C371 C 0.20476 0.62357 0.26518 0.0
C372 C 0.18228 0.61322 0.24909 0.0
C373 C 0.15548 0.59354 0.25656 0.0
C374 C 0.25998 0.69363 0.2414 0.0
C375 C 0.28474 0.69404 0.24762 0.0
C376 C 0.23412 0.67039 0.24648 0.0
C377 C 0.2324 0.6471 0.25813 0.0
C378 C 0.25714 0.64723 0.26397 0.0
C379 C 0.2831 0.67042 0.25858 0.0
H380 H 0.53467 0.14142 0.41072 0.0
H381 H 0.57766 0.17294 0.47808 0.0
H382 H 0.55198 0.18903 0.39688 0.0
H383 H 0.59538 0.22052 0.46396 0.0
H384 H 0.63946 0.30327 0.42316 0.0
H385 H 0.62656 0.25526 0.4331 0.0
H386 H 0.54265 0.22698 0.40867 0.0
H387 H 0.55545 0.27471 0.39873 0.0
C388 C 0.54781 0.15846 0.42259 0.0
C389 C 0.55454 0.15328 0.44562 0.0
C390 C 0.55781 0.18574 0.4146 0.0
C391 C 0.57496 0.2085 0.42936 0.0
C392 C 0.58248 0.20341 0.45206 0.0
C393 C 0.57232 0.17611 0.46013 0.0
C394 C 0.61836 0.28674 0.41965 0.0
C395 C 0.59844 0.29278 0.41024 0.0
C396 C 0.61095 0.25931 0.42548 0.0
C397 C 0.58359 0.23738 0.42172 0.0
C398 C 0.56397 0.24337 0.41156 0.0
C399 C 0.57128 0.27076 0.40598 0.0
H400 H 0.39265 0.5295 0.62607 0.0
H401 H 0.45983 0.61072 0.60589 0.0
H402 H 0.35888 0.54273 0.6136 0.0
H403 H 0.42583 0.624 0.59282 0.0
H404 H 0.35333 0.64414 0.59611 0.0
H405 H 0.3903 0.63414 0.60674 0.0
H406 H 0.34115 0.55111 0.57768 0.0
H407 H 0.30411 0.56079 0.56791 0.0
C408 C 0.40018 0.55015 0.61872 0.0
C409 C 0.42888 0.56896 0.6167 0.0
C410 C 0.38082 0.55773 0.61146 0.0
C411 C 0.38959 0.5843 0.6018 0.0
C412 C 0.41835 0.60341 0.60026 0.0
C413 C 0.43782 0.59583 0.60771 0.0
C414 C 0.35064 0.62389 0.59178 0.0
C415 C 0.3257 0.60314 0.58144 0.0
C416 C 0.37184 0.61816 0.59781 0.0
C417 C 0.36852 0.59164 0.59346 0.0
C418 C 0.34412 0.57149 0.58193 0.0
C419 C 0.32293 0.5771 0.57615 0.0
H420 H 0.85639 0.4068 0.81854 0.0
H421 H 0.88644 0.41017 0.74658 0.0
H422 H 0.80837 0.37796 0.80451 0.0
H423 H 0.83834 0.38092 0.73257 0.0
H424 H 0.75305 0.29437 0.73305 0.0
H425 H 0.80119 0.32901 0.74264 0.0
H426 H 0.77317 0.38149 0.77489 0.0
H427 H 0.72487 0.347 0.76488 0.0
C428 C 0.85264 0.40144 0.79971 0.0
C429 C 0.87503 0.41057 0.78363 0.0
C430 C 0.82523 0.38516 0.79166 0.0
C431 C 0.81972 0.37729 0.76747 0.0
C432 C 0.84208 0.3867 0.75132 0.0
C433 C 0.86951 0.40346 0.75929 0.0
C434 C 0.75719 0.31347 0.74188 0.0
C435 C 0.73522 0.31796 0.74829 0.0
C436 C 0.78473 0.33333 0.74726 0.0
C437 C 0.79082 0.35784 0.75955 0.0
C438 C 0.76896 0.36268 0.76548 0.0
C439 C 0.7414 0.34303 0.75966 0.0
H440 H 0.43123 0.8509 0.97972 0.0
H441 H 0.45396 0.88438 0.90819 0.0
H442 H 0.41795 0.8045 0.96456 0.0
H443 H 0.44079 0.83787 0.89296 0.0
H444 H 0.37885 0.7207 0.92671 0.0
H445 H 0.38361 0.76595 0.93653 0.0
H446 H 0.46292 0.80746 0.90011 0.0
H447 H 0.45835 0.7624 0.8905 0.0
C448 C 0.43302 0.8482 0.9607 0.0
C449 C 0.44371 0.87118 0.94512 0.0
C450 C 0.42525 0.82165 0.95199 0.0
C451 C 0.4284 0.81762 0.92759 0.0
C452 C 0.43826 0.84045 0.91187 0.0
C453 C 0.44563 0.86697 0.92053 0.0
C454 C 0.39707 0.73948 0.92047 0.0
C455 C 0.41832 0.73802 0.90798 0.0
C456 C 0.39983 0.76535 0.92618 0.0
C457 C 0.42367 0.79019 0.91914 0.0
C458 C 0.44422 0.78866 0.9056 0.0
C459 C 0.44167 0.76285 0.90022 0.0
H460 H 0.6089 0.45456 0.14471 0.0
H461 H 0.62496 0.50056 0.07846 0.0
H462 H 0.63804 0.43582 0.13108 0.0
H463 H 0.65459 0.48224 0.06513 0.0
H464 H 0.67547 0.39049 0.09059 0.0
H465 H 0.64134 0.40493 0.09975 0.0
H466 H 0.70062 0.48905 0.07824 0.0
H467 H 0.73459 0.47472 0.06908 0.0
C468 C 0.61828 0.46037 0.1271 0.0
C469 C 0.61465 0.47922 0.11276 0.0
C470 C 0.635 0.44963 0.1193 0.0
C471 C 0.64866 0.45762 0.09707 0.0
C472 C 0.6446 0.47597 0.08249 0.0
C473 C 0.62772 0.48656 0.0902 0.0
C474 C 0.68106 0.41197 0.08754 0.0
C475 C 0.70775 0.43149 0.07921 0.0
C476 C 0.66159 0.42026 0.09292 0.0
C477 C 0.66834 0.44814 0.08977 0.0
C478 C 0.6947 0.46738 0.08065 0.0
C479 C 0.71421 0.45918 0.07552 0.0
H480 H 0.43047 0.87739 0.56673 0.0
H481 H 0.38529 0.85975 0.49981 0.0
H482 H 0.39933 0.82931 0.57966 0.0
H483 H 0.35368 0.81247 0.51335 0.0
H484 H 0.28344 0.74721 0.56125 0.0
H485 H 0.31802 0.79464 0.55006 0.0
H486 H 0.38393 0.77652 0.56387 0.0
H487 H 0.34914 0.72848 0.57475 0.0
C488 C 0.41416 0.86333 0.55468 0.0
C489 C 0.41023 0.8727 0.53232 0.0
C490 C 0.3963 0.83586 0.56216 0.0
C491 C 0.374 0.81741 0.54759 0.0
C492 C 0.37049 0.82647 0.52507 0.0
C493 C 0.38852 0.85366 0.51742 0.0
C494 C 0.30528 0.75329 0.56211 0.0
C495 C 0.31356 0.73404 0.5688 0.0
C496 C 0.32504 0.78042 0.5556 0.0
C497 C 0.35354 0.78908 0.55599 0.0
C498 C 0.36202 0.77027 0.56349 0.0
C499 C 0.34215 0.74284 0.56963 0.0
H500 H 0.56341 0.40866 0.66173 0.0
H501 H 0.58479 0.44819 0.73138 0.0
H502 H 0.57545 0.37434 0.67552 0.0
H503 H 0.59813 0.4143 0.74468 0.0
H504 H 0.64321 0.35778 0.74148 0.0
H505 H 0.63506 0.39611 0.73047 0.0
H506 H 0.55042 0.33639 0.71105 0.0
H507 H 0.55813 0.29835 0.72239 0.0
C508 C 0.57072 0.41014 0.67996 0.0
C509 C 0.57254 0.43094 0.69557 0.0
C510 C 0.57781 0.39057 0.68775 0.0
C511 C 0.58745 0.39161 0.71118 0.0
C512 C 0.59079 0.41317 0.72649 0.0
C513 C 0.58323 0.43259 0.71881 0.0
C514 C 0.6228 0.35291 0.73512 0.0
C515 C 0.60134 0.32504 0.73275 0.0
C516 C 0.61816 0.3748 0.7289 0.0
C517 C 0.5922 0.36907 0.71977 0.0
C518 C 0.57068 0.34129 0.71788 0.0
C519 C 0.57511 0.31954 0.72448 0.0
H520 H 0.17429 0.57336 0.83717 0.0
H521 H 0.14558 0.53448 0.90644 0.0
H522 H 0.22239 0.59191 0.85006 0.0
H523 H 0.19375 0.55262 0.91908 0.0
H524 H 0.30637 0.63977 0.88834 0.0
H525 H 0.25785 0.62526 0.87906 0.0
H526 H 0.23201 0.54359 0.90795 0.0
H527 H 0.28032 0.55803 0.91729 0.0
C528 C 0.17819 0.56908 0.85526 0.0
C529 C 0.15596 0.55229 0.87071 0.0
C530 C 0.2058 0.57971 0.86263 0.0
C531 C 0.21186 0.57366 0.88556 0.0
C532 C 0.18972 0.55733 0.90118 0.0
C533 C 0.16211 0.54686 0.89388 0.0
C534 C 0.29029 0.61882 0.89294 0.0
C535 C 0.2972 0.60002 0.90347 0.0
C536 C 0.26254 0.61047 0.88749 0.0
C537 C 0.24112 0.58326 0.8927 0.0
C538 C 0.24799 0.56477 0.90392 0.0
C539 C 0.27571 0.57302 0.90915 0.0
H540 H 0.63173 0.14736 0.02121 0.0
H541 H 0.56437 0.16095 0.04177 0.0
H542 H 0.66539 0.19433 0.03395 0.0
H543 H 0.59819 0.20808 0.05511 0.0
H544 H 0.66942 0.30078 0.05232 0.0
H545 H 0.63308 0.25371 0.04133 0.0
H546 H 0.68346 0.22081 0.06953 0.0
H547 H 0.71992 0.26768 0.07965 0.0
C548 C 0.62414 0.16034 0.02872 0.0
C549 C 0.59542 0.15038 0.03068 0.0
C550 C 0.64343 0.18728 0.03612 0.0
C551 C 0.63456 0.20496 0.04588 0.0
C552 C 0.60577 0.19513 0.04753 0.0
C553 C 0.5864 0.16814 0.03993 0.0
C554 C 0.67254 0.28341 0.05636 0.0
C555 C 0.69764 0.28796 0.06662 0.0
C556 C 0.65169 0.25642 0.05012 0.0
C557 C 0.65548 0.23345 0.05419 0.0
C558 C 0.6801 0.23803 0.06551 0.0
C559 C 0.70095 0.26492 0.0715 0.0
H560 H 0.43487 0.59313 0.18894 0.0
H561 H 0.51266 0.64604 0.22501 0.0
H562 H 0.41709 0.62337 0.20213 0.0
H563 H 0.49468 0.67554 0.23934 0.0
H564 H 0.4702 0.74201 0.23273 0.0
H565 H 0.48559 0.7091 0.22379 0.0
H566 H 0.40144 0.64083 0.23342 0.0
H567 H 0.38579 0.67423 0.2413 0.0
C568 C 0.4479 0.61096 0.20013 0.0
C569 C 0.47518 0.61749 0.20579 0.0
C570 C 0.43772 0.62825 0.20781 0.0
C571 C 0.45452 0.65219 0.22163 0.0
C572 C 0.48137 0.65779 0.2282 0.0
C573 C 0.49167 0.64081 0.22016 0.0
C574 C 0.45496 0.71998 0.23312 0.0
C575 C 0.42675 0.71075 0.2377 0.0
C576 C 0.46385 0.70098 0.22815 0.0
C577 C 0.44485 0.67214 0.22797 0.0
C578 C 0.41664 0.66286 0.23306 0.0
C579 C 0.40766 0.68198 0.23775 0.0
H580 H 0.88263 0.45857 0.40475 0.0
H581 H 0.85142 0.43294 0.3329 0.0
H582 H 0.83549 0.44517 0.41845 0.0
H583 H 0.80437 0.41928 0.34657 0.0
H584 H 0.71951 0.37862 0.38398 0.0
H585 H 0.76562 0.38481 0.37532 0.0
H586 H 0.80424 0.46625 0.4081 0.0
H587 H 0.75834 0.46031 0.41644 0.0
C588 C 0.86559 0.44959 0.39203 0.0
C589 C 0.87059 0.44687 0.36778 0.0
C590 C 0.83872 0.44207 0.39981 0.0
C591 C 0.81633 0.43122 0.38355 0.0
C592 C 0.82118 0.42736 0.35952 0.0
C593 C 0.84809 0.43533 0.35168 0.0
C594 C 0.73785 0.39766 0.38963 0.0
C595 C 0.73534 0.41905 0.40076 0.0
C596 C 0.76419 0.40123 0.38459 0.0
C597 C 0.78845 0.42601 0.39103 0.0
C598 C 0.78589 0.44684 0.40313 0.0
C599 C 0.75962 0.4435 0.40777 0.0
H600 H 0.12093 0.60056 0.41614 0.0
H601 H 0.11583 0.52037 0.4225 0.0
H602 H 0.15592 0.61893 0.44745 0.0
H603 H 0.14915 0.53814 0.45526 0.0
H604 H 0.22701 0.58363 0.50084 0.0
H605 H 0.19595 0.56732 0.46621 0.0
H606 H 0.15998 0.61717 0.48884 0.0
H607 H 0.19182 0.63437 0.52256 0.0
C608 C 0.12726 0.58679 0.42413 0.0
C609 C 0.11539 0.55889 0.41667 0.0
C610 C 0.14709 0.59726 0.44246 0.0
C611 C 0.15532 0.58003 0.45415 0.0
C612 C 0.14364 0.55219 0.44657 0.0
C613 C 0.12409 0.54182 0.42798 0.0
C614 C 0.21259 0.59123 0.49826 0.0
C615 C 0.21196 0.61035 0.51442 0.0
C616 C 0.19461 0.58173 0.47849 0.0
C617 C 0.17532 0.59085 0.47462 0.0
C618 C 0.17487 0.61007 0.49083 0.0
C619 C 0.19307 0.61984 0.51033 0.0
H620 H 0.59808 0.13126 0.57196 0.0
H621 H 0.51621 0.11423 0.59334 0.0
H622 H 0.61889 0.16627 0.60353 0.0
H623 H 0.53673 0.14845 0.62537 0.0
H624 H 0.58097 0.22691 0.66874 0.0
H625 H 0.56324 0.19644 0.63397 0.0
H626 H 0.62407 0.17051 0.64566 0.0
H627 H 0.64252 0.20191 0.67984 0.0
C628 C 0.58455 0.13493 0.58354 0.0
C629 C 0.55555 0.12006 0.58022 0.0
C630 C 0.59644 0.15492 0.60169 0.0
C631 C 0.57954 0.16027 0.61709 0.0
C632 C 0.55049 0.14538 0.61361 0.0
C633 C 0.53866 0.12564 0.59531 0.0
C634 C 0.59073 0.21489 0.66374 0.0
C635 C 0.61308 0.21674 0.67712 0.0
C636 C 0.58042 0.19723 0.64389 0.0
C637 C 0.59197 0.1807 0.63709 0.0
C638 C 0.61483 0.18313 0.65014 0.0
C639 C 0.62536 0.20107 0.66984 0.0
H640 H 0.44666 0.58454 0.72591 0.0
H641 H 0.48091 0.55229 0.77802 0.0
H642 H 0.42909 0.60137 0.75842 0.0
H643 H 0.46309 0.5688 0.81046 0.0
H644 H 0.39746 0.57326 0.85861 0.0
H645 H 0.41343 0.55657 0.82507 0.0
H646 H 0.45201 0.63839 0.79308 0.0
H647 H 0.43642 0.65538 0.82685 0.0
C648 C 0.45031 0.58099 0.74432 0.0
C649 C 0.46513 0.56717 0.74953 0.0
C650 C 0.44041 0.59072 0.76285 0.0
C651 C 0.4447 0.58629 0.78688 0.0
C652 C 0.45935 0.5723 0.79207 0.0
C653 C 0.46968 0.56303 0.77356 0.0
C654 C 0.40917 0.58768 0.84436 0.0
C655 C 0.41574 0.61567 0.84541 0.0
C656 C 0.41843 0.57813 0.82526 0.0
C657 C 0.43402 0.59624 0.8066 0.0
C658 C 0.43992 0.62401 0.80723 0.0
C659 C 0.43108 0.63372 0.82658 0.0
H660 H 0.93986 0.46824 0.94708 0.0
H661 H 0.87557 0.41964 0.89551 0.0
H662 H 0.90438 0.45507 0.97837 0.0
H663 H 0.84009 0.40592 0.92698 0.0
H664 H 0.79768 0.36434 0.00234 0.0
H665 H 0.83076 0.37727 0.96908 0.0
H666 H 0.86092 0.46425 0.98346 0.0
H667 H 0.82751 0.4515 0.0163 0.0
C668 C 0.91814 0.45461 0.94255 0.0
C669 C 0.91032 0.44492 0.919 0.0
C670 C 0.89791 0.44723 0.96033 0.0
C671 C 0.86961 0.42958 0.95496 0.0
C672 C 0.86181 0.41952 0.93149 0.0
C673 C 0.88201 0.42741 0.91357 0.0
C674 C 0.81116 0.38621 0.99822 0.0
C675 C 0.81002 0.40691 0.01191 0.0
C676 C 0.82998 0.39355 0.9792 0.0
C677 C 0.84837 0.42171 0.97391 0.0
C678 C 0.847 0.44239 0.98734 0.0
C679 C 0.8278 0.43507 0.006 0.0
H680 H 0.41445 0.90944 0.08951 0.0
H681 H 0.48304 0.89486 0.07756 0.0
H682 H 0.39734 0.875 0.12166 0.0
H683 H 0.4656 0.85977 0.10915 0.0
H684 H 0.44672 0.82573 0.18552 0.0
H685 H 0.46211 0.857 0.15133 0.0
H686 H 0.37633 0.82689 0.13135 0.0
H687 H 0.3609 0.79627 0.16623 0.0
C688 C 0.42562 0.89853 0.09356 0.0
C689 C 0.45016 0.90494 0.08118 0.0
C690 C 0.41578 0.8787 0.11191 0.0
C691 C 0.43012 0.8646 0.11812 0.0
C692 C 0.45431 0.87059 0.10524 0.0
C693 C 0.4643 0.89063 0.08708 0.0
C694 C 0.4311 0.8256 0.17376 0.0
C695 C 0.40256 0.80855 0.17868 0.0
C696 C 0.43995 0.84347 0.15401 0.0
C697 C 0.4205 0.84456 0.13851 0.0
C698 C 0.39191 0.82698 0.14311 0.0
C699 C 0.38305 0.80926 0.16303 0.0
H700 H 0.54782 0.47112 0.27204 0.0
H701 H 0.6149 0.47958 0.22666 0.0
H702 H 0.56202 0.44978 0.30294 0.0
H703 H 0.62973 0.45929 0.25824 0.0
H704 H 0.66246 0.45417 0.33573 0.0
H705 H 0.64895 0.47303 0.30192 0.0
H706 H 0.5645 0.40461 0.30724 0.0
H707 H 0.57789 0.38554 0.34077 0.0
C708 C 0.56542 0.46825 0.26848 0.0
C709 C 0.58007 0.47702 0.24668 0.0
C710 C 0.57362 0.45612 0.28629 0.0
C711 C 0.59691 0.45284 0.28292 0.0
C712 C 0.6118 0.46179 0.26133 0.0
C713 C 0.60335 0.47354 0.24332 0.0
C714 C 0.64108 0.443 0.32952 0.0
C715 C 0.62124 0.41841 0.341 0.0
C716 C 0.6334 0.45375 0.31013 0.0
C717 C 0.60566 0.44035 0.30212 0.0
C718 C 0.58598 0.41547 0.31323 0.0
C719 C 0.59372 0.4045 0.33234 0.0
H720 H 0.47912 0.91403 0.39295 0.0
H721 H 0.39462 0.89623 0.4033 0.0
H722 H 0.46373 0.8798 0.36082 0.0
H723 H 0.37883 0.86115 0.37161 0.0
H724 H 0.36658 0.82413 0.29595 0.0
H725 H 0.37993 0.85627 0.32957 0.0
H726 H 0.43901 0.83165 0.35259 0.0
H727 H 0.42646 0.8004 0.31836 0.0
C728 C 0.45715 0.90247 0.38851 0.0
C729 C 0.43805 0.90774 0.4006 0.0
C730 C 0.44826 0.88272 0.37017 0.0
C731 C 0.41997 0.8675 0.36363 0.0
C732 C 0.40083 0.87272 0.37589 0.0
C733 C 0.40981 0.89275 0.39408 0.0
C734 C 0.38229 0.82544 0.30829 0.0
C735 C 0.3956 0.80985 0.30438 0.0
C736 C 0.38986 0.8438 0.32767 0.0
C737 C 0.41072 0.84677 0.34378 0.0
C738 C 0.42333 0.83042 0.34028 0.0
C739 C 0.41599 0.81232 0.32073 0.0
H740 H 0.54161 0.46699 0.53556 0.0
H741 H 0.59627 0.45768 0.58533 0.0
H742 H 0.55814 0.44931 0.50338 0.0
H743 H 0.61352 0.44098 0.55271 0.0
H744 H 0.65679 0.4443 0.47884 0.0
H745 H 0.64081 0.46039 0.51296 0.0
H746 H 0.55541 0.40285 0.49371 0.0
H747 H 0.57116 0.3866 0.45982 0.0
C748 C 0.55697 0.461 0.53975 0.0
C749 C 0.56742 0.46363 0.56317 0.0
C750 C 0.56653 0.45099 0.52124 0.0
C751 C 0.58703 0.44371 0.5256 0.0
C752 C 0.59785 0.44667 0.54885 0.0
C753 C 0.58802 0.45634 0.56748 0.0
C754 C 0.63461 0.43495 0.482 0.0
C755 C 0.61525 0.41423 0.46656 0.0
C756 C 0.6255 0.44409 0.50156 0.0
C757 C 0.59689 0.43297 0.50584 0.0
C758 C 0.57758 0.41197 0.49066 0.0
C759 C 0.58665 0.40258 0.47134 0.0
H760 H 0.11452 0.50927 0.72435 0.0
H761 H 0.13422 0.5911 0.74846 0.0
H762 H 0.14828 0.53013 0.69195 0.0
H763 H 0.16891 0.61223 0.71677 0.0
H764 H 0.20205 0.63859 0.64068 0.0
H765 H 0.17165 0.61894 0.67521 0.0
H766 H 0.19555 0.55588 0.68126 0.0
H767 H 0.22498 0.57486 0.64595 0.0
C768 C 0.12648 0.53177 0.72291 0.0
C769 C 0.12169 0.54859 0.73875 0.0
C770 C 0.14595 0.54379 0.70442 0.0
C771 C 0.16136 0.57295 0.70159 0.0
C772 C 0.15706 0.58972 0.718 0.0
C773 C 0.13729 0.57767 0.73625 0.0
C774 C 0.20097 0.62065 0.64949 0.0
C775 C 0.21582 0.6082 0.6405 0.0
C776 C 0.18362 0.60943 0.66943 0.0
C777 C 0.18099 0.5857 0.6811 0.0
C778 C 0.19656 0.57379 0.67249 0.0
C779 C 0.21362 0.58479 0.65233 0.0
H780 H 0.5305 0.13198 0.90751 0.0
H781 H 0.58823 0.10499 0.88665 0.0
H782 H 0.54874 0.16729 0.87601 0.0
H783 H 0.60588 0.13947 0.85466 0.0
H784 H 0.64948 0.21887 0.81234 0.0
H785 H 0.63264 0.18744 0.84652 0.0
H786 H 0.54938 0.17282 0.834 0.0
H787 H 0.56656 0.20524 0.80043 0.0
C788 C 0.54696 0.1335 0.89603 0.0
C789 C 0.558 0.11581 0.89953 0.0
C790 C 0.55738 0.15366 0.87792 0.0
C791 C 0.57886 0.15635 0.86272 0.0
C792 C 0.58978 0.1385 0.86628 0.0
C793 C 0.57959 0.11861 0.88455 0.0
C794 C 0.62762 0.20912 0.81702 0.0
C795 C 0.60934 0.21448 0.80361 0.0
C796 C 0.61789 0.1909 0.83653 0.0
C797 C 0.58954 0.17726 0.84295 0.0
C798 C 0.57139 0.18314 0.82983 0.0
C799 C 0.58121 0.20167 0.81048 0.0
H800 H 0.51658 0.59932 0.0403 0.0
H801 H 0.45939 0.6042 0.09007 0.0
H802 H 0.49742 0.61413 0.00792 0.0
H803 H 0.43975 0.61823 0.05742 0.0
H804 H 0.39034 0.60374 0.98573 0.0
H805 H 0.41164 0.59468 0.0203 0.0
H806 H 0.49324 0.65538 0.99445 0.0
H807 H 0.47203 0.66454 0.95985 0.0
C808 C 0.50023 0.60392 0.04446 0.0
C809 C 0.4895 0.60042 0.06785 0.0
C810 C 0.4892 0.61234 0.02585 0.0
C811 C 0.46702 0.61722 0.03013 0.0
C812 C 0.4566 0.61425 0.05354 0.0
C813 C 0.46781 0.60611 0.07221 0.0
C814 C 0.41281 0.61535 0.9875 0.0
C815 C 0.42948 0.63478 0.96996 0.0
C816 C 0.42499 0.61025 0.00738 0.0
C817 C 0.4541 0.62425 0.01001 0.0
C818 C 0.47075 0.6441 0.99275 0.0
C819 C 0.45857 0.64943 0.97302 0.0
H820 H 0.93556 0.47561 0.20408 0.0
H821 H 0.87191 0.42283 0.25486 0.0
H822 H 0.90062 0.46008 0.17254 0.0
H823 H 0.83716 0.40647 0.2228 0.0
H824 H 0.79519 0.36528 0.14796 0.0
H825 H 0.8275 0.37925 0.18191 0.0
H826 H 0.85759 0.46574 0.16528 0.0
H827 H 0.82534 0.45204 0.13166 0.0
C828 C 0.91414 0.46081 0.20861 0.0
C829 C 0.90659 0.45075 0.23216 0.0
C830 C 0.89416 0.45183 0.19047 0.0
C831 C 0.86621 0.43225 0.19532 0.0
C832 C 0.85864 0.4215 0.21861 0.0
C833 C 0.87859 0.43081 0.23691 0.0
C834 C 0.80851 0.38726 0.15171 0.0
C835 C 0.80777 0.40754 0.13704 0.0
C836 C 0.8269 0.39521 0.17116 0.0
C837 C 0.84515 0.42354 0.17602 0.0
C838 C 0.84394 0.44375 0.16173 0.0
C839 C 0.82534 0.43586 0.14256 0.0
loop_
_geom_bond_atom_site_label_1
_geom_bond_atom_site_label_2
_geom_bond_distance
_geom_bond_site_symmetry_2
_ccdc_geom_bond_type
C0 C1 1.384 . S
C0 C2 1.384 . S
C0 H28 0.931 . S
C1 C0 1.384 . S
C1 C4 1.382 . S
C2 C0 1.384 . S
C2 C3 1.381 . S
C2 H29 0.930 . S
C3 C2 1.381 . S
C3 C5 1.381 . S
C3 C6 1.487 . S
C4 C1 1.382 . S
C4 C5 1.387 . S
C4 H30 0.930 . S
C5 C3 1.381 . S
C5 C4 1.387 . S
C5 H31 0.931 . S
C6 C3 1.487 . S
C6 C13 1.399 . S
C6 N44 1.343 1_655 S
C7 C8 1.384 . S
C7 C9 1.384 . S
C7 H32 0.931 . S
C8 C7 1.384 . S
C8 C11 1.382 . S
C9 C7 1.384 . S
C9 C10 1.381 . S
C9 H33 0.930 . S
C10 C9 1.381 . S
C10 C12 1.381 . S
C10 C13 1.487 . S
C11 C8 1.382 . S
C11 C12 1.387 . S
C11 H34 0.930 . S
C12 C10 1.381 . S
C12 C11 1.387 . S
C12 H35 0.931 . S
C13 C6 1.399 . S
C13 C10 1.487 . S
C13 N45 1.343 1_655 S
C14 C15 1.384 . S
C14 C16 1.384 . S
C14 H36 0.931 . S
C15 C14 1.384 . S
C15 C18 1.382 . S
C16 C14 1.384 . S
C16 C17 1.381 . S
C16 H37 0.930 . S
C17 C16 1.381 . S
C17 C19 1.381 . S
C17 C20 1.487 . S
C18 C15 1.382 . S
C18 C19 1.387 . S
C18 H38 0.930 . S
C19 C17 1.381 . S
C19 C18 1.387 . S
C19 H39 0.931 . S
C20 C17 1.487 . S
C20 C27 1.399 . S
C20 N45 1.343 . S
C21 C22 1.384 . S
C21 C23 1.384 . S
C21 H40 0.931 . S
C22 C21 1.384 . S
C22 C25 1.382 . S
C23 C21 1.384 . S
C23 C24 1.381 . S
C23 H41 0.930 . S
C24 C23 1.381 . S
C24 C26 1.381 . S
C24 C27 1.487 . S
C25 C22 1.382 . S
C25 C26 1.387 . S
C25 H42 0.930 . S
C26 C24 1.381 . S
C26 C25 1.387 . S
C26 H43 0.931 . S
C27 C20 1.399 . S
C27 C24 1.487 . S
C27 N44 1.343 . S
H28 C0 0.931 . S
H29 C2 0.930 . S
H30 C4 0.930 . S
H31 C5 0.931 . S
H32 C7 0.931 . S
H33 C9 0.930 . S
H34 C11 0.930 . S
H35 C12 0.931 . S
H36 C14 0.931 . S
H37 C16 0.930 . S
H38 C18 0.930 . S
H39 C19 0.931 . S
H40 C21 0.931 . S
H41 C23 0.930 . S
H42 C25 0.930 . S
H43 C26 0.931 . S
N44 C6 1.343 1_455 S
N44 C27 1.343 . S
N45 C13 1.343 1_455 S
N45 C20 1.343 . S
C46 C47 1.384 . S
C46 C48 1.384 . S
C46 H74 0.931 . S
C47 C46 1.384 . S
C47 C50 1.382 . S
C48 C46 1.384 . S
C48 C49 1.381 . S
C48 H75 0.930 . S
C49 C48 1.381 . S
C49 C51 1.381 . S
C49 C52 1.487 . S
C50 C47 1.382 . S
C50 C51 1.387 . S
C50 H76 0.930 . S
C51 C49 1.381 . S
C51 C50 1.387 . S
C51 H77 0.931 . S
C52 C49 1.487 . S
C52 C59 1.399 . S
C52 N90 1.343 1_565 S
C53 C54 1.384 . S
C53 C55 1.384 . S
C53 H78 0.931 . S
C54 C53 1.384 . S
C54 C57 1.382 . S
C55 C53 1.384 . S
C55 C56 1.381 . S
C55 H79 0.930 . S
C56 C55 1.381 . S
C56 C58 1.381 . S
C56 C59 1.487 . S
C57 C54 1.382 . S
C57 C58 1.387 . S
C57 H80 0.930 . S
C58 C56 1.381 . S
C58 C57 1.387 . S
C58 H81 0.931 . S
C59 C52 1.399 . S
C59 C56 1.487 . S
C59 N91 1.343 1_565 S
C60 C61 1.384 . S
C60 C62 1.384 . S
C60 H82 0.931 . S
C61 C60 1.384 . S
C61 C64 1.382 . S
C62 C60 1.384 . S
C62 C63 1.381 . S
C62 H83 0.930 . S
C63 C62 1.381 . S
C63 C65 1.381 . S
C63 C66 1.487 . S
C64 C61 1.382 . S
C64 C65 1.387 . S
C64 H84 0.930 . S
C65 C63 1.381 . S
C65 C64 1.387 . S
C65 H85 0.931 . S
C66 C63 1.487 . S
C66 C73 1.399 . S
C66 N91 1.343 . S
C67 C68 1.384 . S
C67 C69 1.384 . S
C67 H86 0.931 . S
C68 C67 1.384 . S
C68 C71 1.382 . S
C69 C67 1.384 . S
C69 C70 1.381 . S
C69 H87 0.930 . S
C70 C69 1.381 . S
C70 C72 1.381 . S
C70 C73 1.487 . S
C71 C68 1.382 . S
C71 C72 1.387 . S
C71 H88 0.930 . S
C72 C70 1.381 . S
C72 C71 1.387 . S
C72 H89 0.931 . S
C73 C66 1.399 . S
C73 C70 1.487 . S
C73 N90 1.343 . S
H74 C46 0.931 . S
H75 C48 0.930 . S
H76 C50 0.930 . S
H77 C51 0.931 . S
H78 C53 0.931 . S
H79 C55 0.930 . S
H80 C57 0.930 . S
H81 C58 0.931 . S
H82 C60 0.931 . S
H83 C62 0.930 . S
H84 C64 0.930 . S
H85 C65 0.931 . S
H86 C67 0.931 . S
H87 C69 0.930 . S
H88 C71 0.930 . S
H89 C72 0.931 . S
N90 C52 1.343 1_545 S
N90 C73 1.343 . S
N91 C59 1.343 1_545 S
N91 C66 1.343 . S
C92 C93 1.384 . S
C92 C94 1.384 . S
C92 H120 0.931 . S
C93 C92 1.384 . S
C93 C96 1.382 . S
C94 C92 1.384 . S
C94 C95 1.381 . S
C94 H121 0.930 . S
C95 C94 1.381 . S
C95 C97 1.381 . S
C95 C98 1.487 . S
C96 C93 1.382 . S
C96 C97 1.387 . S
C96 H122 0.930 . S
C97 C95 1.381 . S
C97 C96 1.387 . S
C97 H123 0.931 . S
C98 C95 1.487 . S
C98 C105 1.399 . S
C98 N136 1.343 . S
C99 C100 1.384 . S
C99 C101 1.384 . S
C99 H124 0.931 . S
C100 C99 1.384 . S
C100 C103 1.382 . S
C101 C99 1.384 . S
C101 C102 1.381 . S
C101 H125 0.930 . S
C102 C101 1.381 . S
C102 C104 1.381 . S
C102 C105 1.487 . S
C103 C100 1.382 . S
C103 C104 1.387 . S
C103 H126 0.930 . S
C104 C102 1.381 . S
C104 C103 1.387 . S
C104 H127 0.931 . S
C105 C98 1.399 . S
C105 C102 1.487 . S
C105 N137 1.343 . S
C106 C107 1.384 . S
C106 C108 1.384 . S
C106 H128 0.931 . S
C107 C106 1.384 . S
C107 C110 1.382 . S
C108 C106 1.384 . S
C108 C109 1.381 . S
C108 H129 0.930 . S
C109 C108 1.381 . S
C109 C111 1.381 . S
C109 C112 1.487 . S
C110 C107 1.382 . S
C110 C111 1.387 . S
C110 H130 0.930 . S
C111 C109 1.381 . S
C111 C110 1.387 . S
C111 H131 0.931 . S
C112 C109 1.487 . S
C112 C119 1.399 . S
C112 N137 1.343 . S
C113 C114 1.384 . S
C113 C115 1.384 . S
C113 H132 0.931 . S
C114 C113 1.384 . S
C114 C117 1.382 . S
C115 C113 1.384 . S
C115 C116 1.381 . S
C115 H133 0.930 . S
C116 C115 1.381 . S
C116 C118 1.381 . S
C116 C119 1.487 . S
C117 C114 1.382 . S
C117 C118 1.387 . S
C117 H134 0.930 . S
C118 C116 1.381 . S
C118 C117 1.387 . S
C118 H135 0.931 . S
C119 C112 1.399 . S
C119 C116 1.487 . S
C119 N136 1.343 . S
H120 C92 0.931 . S
H121 C94 0.930 . S
H122 C96 0.930 . S
H123 C97 0.931 . S
H124 C99 0.931 . S
H125 C101 0.930 . S
H126 C103 0.930 . S
H127 C104 0.931 . S
H128 C106 0.931 . S
H129 C108 0.930 . S
H130 C110 0.930 . S
H131 C111 0.931 . S
H132 C113 0.931 . S
H133 C115 0.930 . S
H134 C117 0.930 . S
H135 C118 0.931 . S
N136 C98 1.343 . S
N136 C119 1.343 . S
N137 C105 1.343 . S
N137 C112 1.343 . S
C138 C139 1.384 . S
C138 C140 1.384 . S
C138 H166 0.931 . S
C139 C138 1.384 . S
C139 C142 1.382 . S
C140 C138 1.384 . S
C140 C141 1.381 . S
C140 H167 0.930 . S
C141 C140 1.381 . S
C141 C143 1.381 . S
C141 C144 1.487 . S
C142 C139 1.382 . S
C142 C143 1.387 . S
C142 H168 0.930 . S
C143 C141 1.381 . S
C143 C142 1.387 . S
C143 H169 0.931 . S
C144 C141 1.487 . S
C144 C151 1.399 . S
C144 N182 1.343 1_655 S
C145 C146 1.384 . S
C145 C147 1.384 . S
C145 H170 0.931 . S
C146 C145 1.384 . S
C146 C149 1.382 . S
C147 C145 1.384 . S
C147 C148 1.381 . S
C147 H171 0.930 . S
C148 C147 1.381 . S
C148 C150 1.381 . S
C148 C151 1.487 . S
C149 C146 1.382 . S
C149 C150 1.387 . S
C149 H172 0.930 . S
C150 C148 1.381 . S
C150 C149 1.387 . S
C150 H173 0.931 . S
C151 C144 1.399 . S
C151 C148 1.487 . S
C151 N183 1.343 1_655 S
C152 C153 1.384 . S
C152 C154 1.384 . S
C152 H174 0.931 . S
C153 C152 1.384 . S
C153 C156 1.382 . S
C154 C152 1.384 . S
C154 C155 1.381 . S
C154 H175 0.930 . S
C155 C154 1.381 . S
C155 C157 1.381 . S
C155 C158 1.487 . S
C156 C153 1.382 . S
C156 C157 1.387 . S
C156 H176 0.930 . S
C157 C155 1.381 . S
C157 C156 1.387 . S
C157 H177 0.931 . S
C158 C155 1.487 . S
C158 C165 1.399 . S
C158 N183 1.343 . S
C159 C160 1.384 . S
C159 C161 1.384 . S
C159 H178 0.931 . S
C160 C159 1.384 . S
C160 C163 1.382 . S
C161 C159 1.384 . S
C161 C162 1.381 . S
C161 H179 0.930 . S
C162 C161 1.381 . S
C162 C164 1.381 . S
C162 C165 1.487 . S
C163 C160 1.382 . S
C163 C164 1.387 . S
C163 H180 0.930 . S
C164 C162 1.381 . S
C164 C163 1.387 . S
C164 H181 0.931 . S
C165 C158 1.399 . S
C165 C162 1.487 . S
C165 N182 1.343 . S
H166 C138 0.931 . S
H167 C140 0.930 . S
H168 C142 0.930 . S
H169 C143 0.931 . S
H170 C145 0.931 . S
H171 C147 0.930 . S
H172 C149 0.930 . S
H173 C150 0.931 . S
H174 C152 0.931 . S
H175 C154 0.930 . S
H176 C156 0.930 . S
H177 C157 0.931 . S
H178 C159 0.931 . S
H179 C161 0.930 . S
H180 C163 0.930 . S
H181 C164 0.931 . S
N182 C144 1.343 1_455 S
N182 C165 1.343 . S
N183 C151 1.343 1_455 S
N183 C158 1.343 . S
C184 C185 1.384 . S
C184 C186 1.384 . S
C184 H212 0.931 . S
C185 C184 1.384 . S
C185 C188 1.382 . S
C186 C184 1.384 . S
C186 C187 1.381 . S
C186 H213 0.964 . S
C187 C186 1.381 . S
C187 C189 1.381 . S
C187 C190 1.487 . S
C188 C185 1.382 . S
C188 C189 1.387 . S
C188 H214 0.930 . S
C189 C187 1.381 . S
C189 C188 1.387 . S
C189 H215 0.931 . S
C190 C187 1.487 . S
C190 C197 1.399 1_556 S
C190 N228 1.343 1_565 S
C191 C192 1.384 . S
C191 C193 1.384 . S
C191 H216 0.931 . S
C192 C191 1.384 . S
C192 C195 1.382 . S
C193 C191 1.384 . S
C193 C194 1.381 . S
C193 H217 0.930 . S
C194 C193 1.381 . S
C194 C196 1.381 . S
C194 C197 1.487 . S
C195 C192 1.382 . S
C195 C196 1.387 . S
C195 H218 0.930 . S
C196 C194 1.381 . S
C196 C195 1.387 . S
C196 H219 0.931 . S
C197 C190 1.399 1_554 S
C197 C194 1.487 . S
C197 N229 1.343 1_565 S
C198 C199 1.384 . S
C198 C200 1.384 1_554 S
C198 H220 0.931 1_554 S
C199 C198 1.384 . S
C199 C202 1.382 . S
C200 C198 1.384 1_556 S
C200 C201 1.381 1_556 S
C200 H221 0.930 . S
C201 C200 1.381 1_554 S
C201 C203 1.381 . S
C201 C204 1.487 1_554 S
C202 C199 1.382 . S
C202 C203 1.387 . S
C202 H222 0.930 . S
C203 C201 1.381 . S
C203 C202 1.387 . S
C203 H223 0.931 . S
C204 C201 1.487 1_556 S
C204 C211 1.399 . S
C204 N229 1.343 1_556 S
C205 C206 1.384 . S
C205 C207 1.384 . S
C205 H224 0.931 . S
C206 C205 1.384 . S
C206 C209 1.382 . S
C207 C205 1.384 . S
C207 C208 1.381 . S
C207 H225 0.930 . S
C208 C207 1.381 . S
C208 C210 1.381 . S
C208 C211 1.487 . S
C209 C206 1.382 . S
C209 C210 1.387 . S
C209 H226 0.930 . S
C210 C208 1.381 . S
C210 C209 1.387 . S
C210 H227 0.931 . S
C211 C204 1.399 . S
C211 C208 1.487 . S
C211 N228 1.343 . S
H212 C184 0.931 . S
H213 C186 0.964 . S
H214 C188 0.930 . S
H215 C189 0.931 . S
H216 C191 0.931 . S
H217 C193 0.930 . S
H218 C195 0.930 . S
H219 C196 0.931 . S
H220 C198 0.931 1_556 S
H221 C200 0.930 . S
H222 C202 0.930 . S
H223 C203 0.931 . S
H224 C205 0.931 . S
H225 C207 0.930 . S
H226 C209 0.930 . S
H227 C210 0.931 . S
N228 C190 1.343 1_545 S
N228 C211 1.343 . S
N229 C197 1.343 1_545 S
N229 C204 1.343 1_554 S
C230 C231 1.384 . S
C230 C232 1.384 . S
C230 H258 0.931 . S
C231 C230 1.384 . S
C231 C234 1.382 . S
C232 C230 1.384 . S
C232 C233 1.381 . S
C232 H259 0.930 . S
C233 C232 1.381 . S
C233 C235 1.381 . S
C233 C236 1.487 . S
C234 C231 1.382 . S
C234 C235 1.387 . S
C234 H260 0.930 . S
C235 C233 1.381 . S
C235 C234 1.387 . S
C235 H261 0.931 . S
C236 C233 1.487 . S
C236 C243 1.399 . S
C236 N274 1.343 . S
C237 C238 1.384 . S
C237 C239 1.384 . S
C237 H262 0.931 . S
C238 C237 1.384 . S
C238 C241 1.382 . S
C239 C237 1.384 . S
C239 C240 1.381 . S
C239 H263 0.930 . S
C240 C239 1.381 . S
C240 C242 1.381 . S
C240 C243 1.487 . S
C241 C238 1.382 . S
C241 C242 1.387 . S
C241 H264 0.930 . S
C242 C240 1.381 . S
C242 C241 1.387 . S
C242 H265 0.931 . S
C243 C236 1.399 . S
C243 C240 1.487 . S
C243 N275 1.343 . S
C244 C245 1.384 . S
C244 C246 1.384 . S
C244 H266 0.931 . S
C245 C244 1.384 . S
C245 C248 1.382 . S
C246 C244 1.384 . S
C246 C247 1.381 . S
C246 H267 0.930 . S
C247 C246 1.381 . S
C247 C249 1.381 . S
C247 C250 1.487 . S
C248 C245 1.382 . S
C248 C249 1.387 . S
C248 H268 0.930 . S
C249 C247 1.381 . S
C249 C248 1.387 . S
C249 H269 0.931 . S
C250 C247 1.487 . S
C250 C257 1.399 . S
C250 N275 1.343 . S
C251 C252 1.384 . S
C251 C253 1.384 . S
C251 H270 0.931 . S
C252 C251 1.384 . S
C252 C255 1.382 . S
C253 C251 1.384 . S
C253 C254 1.381 . S
C253 H271 0.930 . S
C254 C253 1.381 . S
C254 C256 1.381 . S
C254 C257 1.487 . S
C255 C252 1.382 . S
C255 C256 1.387 . S
C255 H272 0.930 . S
C256 C254 1.381 . S
C256 C255 1.387 . S
C256 H273 0.931 . S
C257 C250 1.399 . S
C257 C254 1.487 . S
C257 N274 1.343 . S
H258 C230 0.931 . S
H259 C232 0.930 . S
H260 C234 0.930 . S
H261 C235 0.931 . S
H262 C237 0.931 . S
H263 C239 0.930 . S
H264 C241 0.930 . S
H265 C242 0.931 . S
H266 C244 0.931 . S
H267 C246 0.930 . S
H268 C248 0.930 . S
H269 C249 0.931 . S
H270 C251 0.931 . S
H271 C253 0.930 . S
H272 C255 0.930 . S
H273 C256 0.931 . S
N274 C236 1.343 . S
N274 C257 1.343 . S
N275 C243 1.343 . S
N275 C250 1.343 . S
O276 Cd277 2.223 . S
O276 C284 1.315 . S
Cd277 O276 2.223 . S
Cd277 O280 2.297 . S
Cd277 O281 2.439 . S
Cd277 O287 2.240 . S
Cd278 O279 2.240 . S
Cd278 O286 2.223 . S
Cd278 O288 2.297 . S
Cd278 O289 2.439 . S
O279 Cd278 2.240 . S
O279 C284 1.279 . S
O280 Cd277 2.297 . S
O280 C282 1.247 . S
O281 Cd277 2.439 . S
O281 C282 1.208 . S
C282 O280 1.247 . S
C282 O281 1.208 . S
C283 O288 1.247 . S
C283 O289 1.208 . S
C284 O276 1.315 . S
C284 O279 1.279 . S
C285 O286 1.315 . S
C285 O287 1.279 . S
O286 Cd278 2.223 . S
O286 C285 1.315 . S
O287 Cd277 2.240 . S
O287 C285 1.279 . S
O288 Cd278 2.297 . S
O288 C283 1.247 . S
O289 Cd278 2.439 . S
O289 C283 1.208 . S
O290 Cd291 2.223 . S
O290 C298 1.315 . S
Cd291 O290 2.223 . S
Cd291 O294 2.297 . S
Cd291 O295 2.439 . S
Cd291 O301 2.240 . S
Cd292 O293 2.240 . S
Cd292 O300 2.223 . S
Cd292 O302 2.297 . S
Cd292 O303 2.439 . S
O293 Cd292 2.240 . S
O293 C298 1.279 . S
O294 Cd291 2.297 . S
O294 C296 1.247 . S
O295 Cd291 2.439 . S
O295 C296 1.208 . S
C296 O294 1.247 . S
C296 O295 1.208 . S
C297 O302 1.247 . S
C297 O303 1.208 . S
C298 O290 1.315 . S
C298 O293 1.279 . S
C299 O300 1.315 . S
C299 O301 1.279 . S
O300 Cd292 2.223 . S
O300 C299 1.315 . S
O301 Cd291 2.240 . S
O301 C299 1.279 . S
O302 Cd292 2.297 . S
O302 C297 1.247 . S
O303 Cd292 2.439 . S
O303 C297 1.208 . S
O304 Cd305 2.223 . S
O304 C312 1.315 . S
Cd305 O304 2.223 . S
Cd305 O308 2.297 . S
Cd305 O309 2.439 . S
Cd305 O315 2.240 . S
Cd306 O307 2.240 . S
Cd306 O314 2.223 . S
Cd306 O316 2.297 . S
Cd306 O317 2.439 . S
O307 Cd306 2.240 . S
O307 C312 1.279 . S
O308 Cd305 2.297 . S
O308 C310 1.247 . S
O309 Cd305 2.439 . S
O309 C310 1.208 . S
C310 O308 1.247 . S
C310 O309 1.208 . S
C311 O316 1.247 . S
C311 O317 1.208 . S
C312 O304 1.315 . S
C312 O307 1.279 . S
C313 O314 1.315 . S
C313 O315 1.279 . S
O314 Cd306 2.223 . S
O314 C313 1.315 . S
O315 Cd305 2.240 . S
O315 C313 1.279 . S
O316 Cd306 2.297 . S
O316 C311 1.247 . S
O317 Cd306 2.439 . S
O317 C311 1.208 . S
O318 Cd319 2.223 . S
O318 C326 1.315 . S
Cd319 O318 2.223 . S
Cd319 O322 2.297 . S
Cd319 O323 2.439 . S
Cd319 O329 2.240 . S
Cd320 O321 2.240 . S
Cd320 O328 2.223 . S
Cd320 O330 2.297 . S
Cd320 O331 2.439 . S
O321 Cd320 2.240 . S
O321 C326 1.279 . S
O322 Cd319 2.297 . S
O322 C324 1.247 . S
O323 Cd319 2.439 . S
O323 C324 1.208 . S
C324 O322 1.247 . S
C324 O323 1.208 . S
C325 O330 1.247 . S
C325 O331 1.208 . S
C326 O318 1.315 . S
C326 O321 1.279 . S
C327 O328 1.315 . S
C327 O329 1.279 . S
O328 Cd320 2.223 . S
O328 C327 1.315 . S
O329 Cd319 2.240 . S
O329 C327 1.279 . S
O330 Cd320 2.297 . S
O330 C325 1.247 . S
O331 Cd320 2.439 . S
O331 C325 1.208 . S
O332 Cd333 2.223 . S
O332 C340 1.315 . S
Cd333 O332 2.223 . S
Cd333 O336 2.297 . S
Cd333 O337 2.439 . S
Cd333 O343 2.240 . S
Cd334 O335 2.240 . S
Cd334 O342 2.223 . S
Cd334 O344 2.297 . S
Cd334 O345 2.439 . S
O335 Cd334 2.240 . S
O335 C340 1.279 . S
O336 Cd333 2.297 . S
O336 C338 1.247 . S
O337 Cd333 2.439 . S
O337 C338 1.208 . S
C338 O336 1.247 . S
C338 O337 1.208 . S
C339 O344 1.247 . S
C339 O345 1.208 . S
C340 O332 1.315 . S
C340 O335 1.279 . S
C341 O342 1.315 . S
C341 O343 1.279 . S
O342 Cd334 2.223 . S
O342 C341 1.315 . S
O343 Cd333 2.240 . S
O343 C341 1.279 . S
O344 Cd334 2.297 . S
O344 C339 1.247 . S
O345 Cd334 2.439 . S
O345 C339 1.208 . S
O346 Cd347 2.223 . S
O346 C354 1.315 . S
Cd347 O346 2.223 . S
Cd347 O350 2.297 . S
Cd347 O351 2.439 . S
Cd347 O357 2.240 . S
Cd348 O349 2.240 . S
Cd348 O356 2.223 . S
Cd348 O358 2.297 . S
Cd348 O359 2.439 . S
O349 Cd348 2.240 . S
O349 C354 1.279 . S
O350 Cd347 2.297 . S
O350 C352 1.247 . S
O351 Cd347 2.439 . S
O351 C352 1.208 . S
C352 O350 1.247 . S
C352 O351 1.208 . S
C353 O358 1.247 . S
C353 O359 1.208 . S
C354 O346 1.315 . S
C354 O349 1.279 . S
C355 O356 1.315 . S
C355 O357 1.279 . S
O356 Cd348 2.223 . S
O356 C355 1.315 . S
O357 Cd347 2.240 . S
O357 C355 1.279 . S
O358 Cd348 2.297 . S
O358 C353 1.247 . S
O359 Cd348 2.439 . S
O359 C353 1.208 . S
H360 C368 0.950 . S
H361 C373 0.950 . S
H362 C370 0.950 . S
H363 C372 0.950 . S
H364 C374 0.950 . S
H365 C376 0.950 . S
H366 C378 0.950 . S
H367 C379 0.950 . S
C368 H360 0.950 . S
C368 C369 1.386 . S
C368 C370 1.391 . S
C369 C368 1.386 . S
C369 C373 1.393 . S
C370 H362 0.950 . S
C370 C368 1.391 . S
C370 C371 1.400 . S
C371 C370 1.400 . S
C371 C372 1.398 . S
C371 C377 1.491 . S
C372 H363 0.950 . S
C372 C371 1.398 . S
C372 C373 1.391 . S
C373 H361 0.950 . S
C373 C369 1.393 . S
C373 C372 1.391 . S
C374 H364 0.950 . S
C374 C375 1.386 . S
C374 C376 1.391 . S
C375 C374 1.386 . S
C375 C379 1.393 . S
C376 H365 0.950 . S
C376 C374 1.391 . S
C376 C377 1.400 . S
C377 C371 1.491 . S
C377 C376 1.400 . S
C377 C378 1.398 . S
C378 H366 0.950 . S
C378 C377 1.398 . S
C378 C379 1.391 . S
C379 H367 0.950 . S
C379 C375 1.393 . S
C379 C378 1.391 . S
H380 C388 0.950 . S
H381 C393 0.950 . S
H382 C390 0.950 . S
H383 C392 0.950 . S
H384 C394 0.950 . S
H385 C396 0.950 . S
H386 C398 0.950 . S
H387 C399 0.950 . S
C388 H380 0.950 . S
C388 C389 1.386 . S
C388 C390 1.391 . S
C389 C388 1.386 . S
C389 C393 1.393 . S
C390 H382 0.950 . S
C390 C388 1.391 . S
C390 C391 1.400 . S
C391 C390 1.400 . S
C391 C392 1.398 . S
C391 C397 1.491 . S
C392 H383 0.950 . S
C392 C391 1.398 . S
C392 C393 1.391 . S
C393 H381 0.950 . S
C393 C389 1.393 . S
C393 C392 1.391 . S
C394 H384 0.950 . S
C394 C395 1.386 . S
C394 C396 1.391 . S
C395 C394 1.386 . S
C395 C399 1.393 . S
C396 H385 0.950 . S
C396 C394 1.391 . S
C396 C397 1.400 . S
C397 C391 1.491 . S
C397 C396 1.400 . S
C397 C398 1.398 . S
C398 H386 0.950 . S
C398 C397 1.398 . S
C398 C399 1.391 . S
C399 H387 0.950 . S
C399 C395 1.393 . S
C399 C398 1.391 . S
H400 C408 0.950 . S
H401 C413 0.950 . S
H402 C410 0.950 . S
H403 C412 0.950 . S
H404 C414 0.950 . S
H405 C416 0.950 . S
H406 C418 0.950 . S
H407 C419 0.950 . S
C408 H400 0.950 . S
C408 C409 1.386 . S
C408 C410 1.391 . S
C409 C408 1.386 . S
C409 C413 1.393 . S
C410 H402 0.950 . S
C410 C408 1.391 . S
C410 C411 1.400 . S
C411 C410 1.400 . S
C411 C412 1.398 . S
C411 C417 1.491 . S
C412 H403 0.950 . S
C412 C411 1.398 . S
C412 C413 1.391 . S
C413 H401 0.950 . S
C413 C409 1.393 . S
C413 C412 1.391 . S
C414 H404 0.950 . S
C414 C415 1.386 . S
C414 C416 1.391 . S
C415 C414 1.386 . S
C415 C419 1.393 . S
C416 H405 0.950 . S
C416 C414 1.391 . S
C416 C417 1.400 . S
C417 C411 1.491 . S
C417 C416 1.400 . S
C417 C418 1.398 . S
C418 H406 0.950 . S
C418 C417 1.398 . S
C418 C419 1.391 . S
C419 H407 0.950 . S
C419 C415 1.393 . S
C419 C418 1.391 . S
H420 C428 0.950 . S
H421 C433 0.950 . S
H422 C430 0.950 . S
H423 C432 0.950 . S
H424 C434 0.950 . S
H425 C436 0.950 . S
H426 C438 0.950 . S
H427 C439 0.950 . S
C428 H420 0.950 . S
C428 C429 1.386 . S
C428 C430 1.391 . S
C429 C428 1.386 . S
C429 C433 1.393 . S
C430 H422 0.950 . S
C430 C428 1.391 . S
C430 C431 1.400 . S
C431 C430 1.400 . S
C431 C432 1.398 . S
C431 C437 1.491 . S
C432 H423 0.950 . S
C432 C431 1.398 . S
C432 C433 1.391 . S
C433 H421 0.950 . S
C433 C429 1.393 . S
C433 C432 1.391 . S
C434 H424 0.950 . S
C434 C435 1.386 . S
C434 C436 1.391 . S
C435 C434 1.386 . S
C435 C439 1.393 . S
C436 H425 0.950 . S
C436 C434 1.391 . S
C436 C437 1.400 . S
C437 C431 1.491 . S
C437 C436 1.400 . S
C437 C438 1.398 . S
C438 H426 0.950 . S
C438 C437 1.398 . S
C438 C439 1.391 . S
C439 H427 0.950 . S
C439 C435 1.393 . S
C439 C438 1.391 . S
H440 C448 0.950 . S
H441 C453 0.950 . S
H442 C450 0.950 . S
H443 C452 0.950 . S
H444 C454 0.950 . S
H445 C456 0.950 . S
H446 C458 0.950 . S
H447 C459 0.950 . S
C448 H440 0.950 . S
C448 C449 1.386 . S
C448 C450 1.391 . S
C449 C448 1.386 . S
C449 C453 1.393 . S
C450 H442 0.950 . S
C450 C448 1.391 . S
C450 C451 1.400 . S
C451 C450 1.400 . S
C451 C452 1.398 . S
C451 C457 1.491 . S
C452 H443 0.950 . S
C452 C451 1.398 . S
C452 C453 1.391 . S
C453 H441 0.950 . S
C453 C449 1.393 . S
C453 C452 1.391 . S
C454 H444 0.950 . S
C454 C455 1.386 . S
C454 C456 1.391 . S
C455 C454 1.386 . S
C455 C459 1.393 . S
C456 H445 0.950 . S
C456 C454 1.391 . S
C456 C457 1.400 . S
C457 C451 1.491 . S
C457 C456 1.400 . S
C457 C458 1.398 . S
C458 H446 0.950 . S
C458 C457 1.398 . S
C458 C459 1.391 . S
C459 H447 0.950 . S
C459 C455 1.393 . S
C459 C458 1.391 . S
H460 C468 0.950 . S
H461 C473 0.950 . S
H462 C470 0.950 . S
H463 C472 0.950 . S
H464 C474 0.950 . S
H465 C476 0.950 . S
H466 C478 0.950 . S
H467 C479 0.950 . S
C468 H460 0.950 . S
C468 C469 1.386 . S
C468 C470 1.391 . S
C469 C468 1.386 . S
C469 C473 1.393 . S
C470 H462 0.950 . S
C470 C468 1.391 . S
C470 C471 1.400 . S
C471 C470 1.400 . S
C471 C472 1.398 . S
C471 C477 1.491 . S
C472 H463 0.950 . S
C472 C471 1.398 . S
C472 C473 1.391 . S
C473 H461 0.950 . S
C473 C469 1.393 . S
C473 C472 1.391 . S
C474 H464 0.950 . S
C474 C475 1.386 . S
C474 C476 1.391 . S
C475 C474 1.386 . S
C475 C479 1.393 . S
C476 H465 0.950 . S
C476 C474 1.391 . S
C476 C477 1.400 . S
C477 C471 1.491 . S
C477 C476 1.400 . S
C477 C478 1.398 . S
C478 H466 0.950 . S
C478 C477 1.398 . S
C478 C479 1.391 . S
C479 H467 0.950 . S
C479 C475 1.393 . S
C479 C478 1.391 . S
H480 C488 0.950 . S
H481 C493 0.950 . S
H482 C490 0.950 . S
H483 C492 0.950 . S
H484 C494 0.950 . S
H485 C496 0.950 . S
H486 C498 0.950 . S
H487 C499 0.950 . S
C488 H480 0.950 . S
C488 C489 1.386 . S
C488 C490 1.391 . S
C489 C488 1.386 . S
C489 C493 1.393 . S
C490 H482 0.950 . S
C490 C488 1.391 . S
C490 C491 1.400 . S
C491 C490 1.400 . S
C491 C492 1.398 . S
C491 C497 1.491 . S
C492 H483 0.950 . S
C492 C491 1.398 . S
C492 C493 1.391 . S
C493 H481 0.950 . S
C493 C489 1.393 . S
C493 C492 1.391 . S
C494 H484 0.950 . S
C494 C495 1.386 . S
C494 C496 1.391 . S
C495 C494 1.386 . S
C495 C499 1.393 . S
C496 H485 0.950 . S
C496 C494 1.391 . S
C496 C497 1.400 . S
C497 C491 1.491 . S
C497 C496 1.400 . S
C497 C498 1.398 . S
C498 H486 0.950 . S
C498 C497 1.398 . S
C498 C499 1.391 . S
C499 H487 0.950 . S
C499 C495 1.393 . S
C499 C498 1.391 . S
H500 C508 0.950 . S
H501 C513 0.950 . S
H502 C510 0.950 . S
H503 C512 0.950 . S
H504 C514 0.950 . S
H505 C516 0.950 . S
H506 C518 0.950 . S
H507 C519 0.950 . S
C508 H500 0.950 . S
C508 C509 1.386 . S
C508 C510 1.391 . S
C509 C508 1.386 . S
C509 C513 1.393 . S
C510 H502 0.950 . S
C510 C508 1.391 . S
C510 C511 1.400 . S
C511 C510 1.400 . S
C511 C512 1.398 . S
C511 C517 1.491 . S
C512 H503 0.950 . S
C512 C511 1.398 . S
C512 C513 1.391 . S
C513 H501 0.950 . S
C513 C509 1.393 . S
C513 C512 1.391 . S
C514 H504 0.950 . S
C514 C515 1.386 . S
C514 C516 1.391 . S
C515 C514 1.386 . S
C515 C519 1.393 . S
C516 H505 0.950 . S
C516 C514 1.391 . S
C516 C517 1.400 . S
C517 C511 1.491 . S
C517 C516 1.400 . S
C517 C518 1.398 . S
C518 H506 0.950 . S
C518 C517 1.398 . S
C518 C519 1.391 . S
C519 H507 0.950 . S
C519 C515 1.393 . S
C519 C518 1.391 . S
H520 C528 0.950 . S
H521 C533 0.950 . S
H522 C530 0.950 . S
H523 C532 0.950 . S
H524 C534 0.950 . S
H525 C536 0.950 . S
H526 C538 0.950 . S
H527 C539 0.950 . S
C528 H520 0.950 . S
C528 C529 1.386 . S
C528 C530 1.391 . S
C529 C528 1.386 . S
C529 C533 1.393 . S
C530 H522 0.950 . S
C530 C528 1.391 . S
C530 C531 1.400 . S
C531 C530 1.400 . S
C531 C532 1.398 . S
C531 C537 1.491 . S
C532 H523 0.950 . S
C532 C531 1.398 . S
C532 C533 1.391 . S
C533 H521 0.950 . S
C533 C529 1.393 . S
C533 C532 1.391 . S
C534 H524 0.950 . S
C534 C535 1.386 . S
C534 C536 1.391 . S
C535 C534 1.386 . S
C535 C539 1.393 . S
C536 H525 0.950 . S
C536 C534 1.391 . S
C536 C537 1.400 . S
C537 C531 1.491 . S
C537 C536 1.400 . S
C537 C538 1.398 . S
C538 H526 0.950 . S
C538 C537 1.398 . S
C538 C539 1.391 . S
C539 H527 0.950 . S
C539 C535 1.393 . S
C539 C538 1.391 . S
H540 C548 0.950 . S
H541 C553 0.950 . S
H542 C550 0.950 . S
H543 C552 0.950 . S
H544 C554 0.950 . S
H545 C556 0.950 . S
H546 C558 0.950 . S
H547 C559 0.950 . S
C548 H540 0.950 . S
C548 C549 1.386 . S
C548 C550 1.391 . S
C549 C548 1.386 . S
C549 C553 1.393 . S
C550 H542 0.950 . S
C550 C548 1.391 . S
C550 C551 1.400 . S
C551 C550 1.400 . S
C551 C552 1.398 . S
C551 C557 1.491 . S
C552 H543 0.950 . S
C552 C551 1.398 . S
C552 C553 1.391 . S
C553 H541 0.950 . S
C553 C549 1.393 . S
C553 C552 1.391 . S
C554 H544 0.950 . S
C554 C555 1.386 . S
C554 C556 1.391 . S
C555 C554 1.386 . S
C555 C559 1.393 . S
C556 H545 0.950 . S
C556 C554 1.391 . S
C556 C557 1.400 . S
C557 C551 1.491 . S
C557 C556 1.400 . S
C557 C558 1.398 . S
C558 H546 0.950 . S
C558 C557 1.398 . S
C558 C559 1.391 . S
C559 H547 0.950 . S
C559 C555 1.393 . S
C559 C558 1.391 . S
H560 C568 0.950 . S
H561 C573 0.950 . S
H562 C570 0.950 . S
H563 C572 0.950 . S
H564 C574 0.950 . S
H565 C576 0.950 . S
H566 C578 0.950 . S
H567 C579 0.950 . S
C568 H560 0.950 . S
C568 C569 1.386 . S
C568 C570 1.391 . S
C569 C568 1.386 . S
C569 C573 1.393 . S
C570 H562 0.950 . S
C570 C568 1.391 . S
C570 C571 1.400 . S
C571 C570 1.400 . S
C571 C572 1.398 . S
C571 C577 1.491 . S
C572 H563 0.950 . S
C572 C571 1.398 . S
C572 C573 1.391 . S
C573 H561 0.950 . S
C573 C569 1.393 . S
C573 C572 1.391 . S
C574 H564 0.950 . S
C574 C575 1.386 . S
C574 C576 1.391 . S
C575 C574 1.386 . S
C575 C579 1.393 . S
C576 H565 0.950 . S
C576 C574 1.391 . S
C576 C577 1.400 . S
C577 C571 1.491 . S
C577 C576 1.400 . S
C577 C578 1.398 . S
C578 H566 0.950 . S
C578 C577 1.398 . S
C578 C579 1.391 . S
C579 H567 0.950 . S
C579 C575 1.393 . S
C579 C578 1.391 . S
H580 C588 0.950 . S
H581 C593 0.950 . S
H582 C590 0.950 . S
H583 C592 0.950 . S
H584 C594 0.950 . S
H585 C596 0.950 . S
H586 C598 0.950 . S
H587 C599 0.950 . S
C588 H580 0.950 . S
C588 C589 1.386 . S
C588 C590 1.391 . S
C589 C588 1.386 . S
C589 C593 1.393 . S
C590 H582 0.950 . S
C590 C588 1.391 . S
C590 C591 1.400 . S
C591 C590 1.400 . S
C591 C592 1.398 . S
C591 C597 1.491 . S
C592 H583 0.950 . S
C592 C591 1.398 . S
C592 C593 1.391 . S
C593 H581 0.950 . S
C593 C589 1.393 . S
C593 C592 1.391 . S
C594 H584 0.950 . S
C594 C595 1.386 . S
C594 C596 1.391 . S
C595 C594 1.386 . S
C595 C599 1.393 . S
C596 H585 0.950 . S
C596 C594 1.391 . S
C596 C597 1.400 . S
C597 C591 1.491 . S
C597 C596 1.400 . S
C597 C598 1.398 . S
C598 H586 0.950 . S
C598 C597 1.398 . S
C598 C599 1.391 . S
C599 H587 0.950 . S
C599 C595 1.393 . S
C599 C598 1.391 . S
H600 C608 0.950 . S
H601 C613 0.950 . S
H602 C610 0.950 . S
H603 C612 0.950 . S
H604 C614 0.950 . S
H605 C616 0.950 . S
H606 C618 0.950 . S
H607 C619 0.950 . S
C608 H600 0.950 . S
C608 C609 1.386 . S
C608 C610 1.391 . S
C609 C608 1.386 . S
C609 C613 1.393 . S
C610 H602 0.950 . S
C610 C608 1.391 . S
C610 C611 1.400 . S
C611 C610 1.400 . S
C611 C612 1.398 . S
C611 C617 1.491 . S
C612 H603 0.950 . S
C612 C611 1.398 . S
C612 C613 1.391 . S
C613 H601 0.950 . S
C613 C609 1.393 . S
C613 C612 1.391 . S
C614 H604 0.950 . S
C614 C615 1.386 . S
C614 C616 1.391 . S
C615 C614 1.386 . S
C615 C619 1.393 . S
C616 H605 0.950 . S
C616 C614 1.391 . S
C616 C617 1.400 . S
C617 C611 1.491 . S
C617 C616 1.400 . S
C617 C618 1.398 . S
C618 H606 0.950 . S
C618 C617 1.398 . S
C618 C619 1.391 . S
C619 H607 0.950 . S
C619 C615 1.393 . S
C619 C618 1.391 . S
H620 C628 0.950 . S
H621 C633 0.950 . S
H622 C630 0.950 . S
H623 C632 0.950 . S
H624 C634 0.950 . S
H625 C636 0.950 . S
H626 C638 0.950 . S
H627 C639 0.950 . S
C628 H620 0.950 . S
C628 C629 1.386 . S
C628 C630 1.391 . S
C629 C628 1.386 . S
C629 C633 1.393 . S
C630 H622 0.950 . S
C630 C628 1.391 . S
C630 C631 1.400 . S
C631 C630 1.400 . S
C631 C632 1.398 . S
C631 C637 1.491 . S
C632 H623 0.950 . S
C632 C631 1.398 . S
C632 C633 1.391 . S
C633 H621 0.950 . S
C633 C629 1.393 . S
C633 C632 1.391 . S
C634 H624 0.950 . S
C634 C635 1.386 . S
C634 C636 1.391 . S
C635 C634 1.386 . S
C635 C639 1.393 . S
C636 H625 0.950 . S
C636 C634 1.391 . S
C636 C637 1.400 . S
C637 C631 1.491 . S
C637 C636 1.400 . S
C637 C638 1.398 . S
C638 H626 0.950 . S
C638 C637 1.398 . S
C638 C639 1.391 . S
C639 H627 0.950 . S
C639 C635 1.393 . S
C639 C638 1.391 . S
H640 C648 0.950 . S
H641 C653 0.950 . S
H642 C650 0.950 . S
H643 C652 0.950 . S
H644 C654 0.950 . S
H645 C656 0.950 . S
H646 C658 0.950 . S
H647 C659 0.950 . S
C648 H640 0.950 . S
C648 C649 1.386 . S
C648 C650 1.391 . S
C649 C648 1.386 . S
C649 C653 1.393 . S
C650 H642 0.950 . S
C650 C648 1.391 . S
C650 C651 1.400 . S
C651 C650 1.400 . S
C651 C652 1.398 . S
C651 C657 1.491 . S
C652 H643 0.950 . S
C652 C651 1.398 . S
C652 C653 1.391 . S
C653 H641 0.950 . S
C653 C649 1.393 . S
C653 C652 1.391 . S
C654 H644 0.950 . S
C654 C655 1.386 . S
C654 C656 1.391 . S
C655 C654 1.386 . S
C655 C659 1.393 . S
C656 H645 0.950 . S
C656 C654 1.391 . S
C656 C657 1.400 . S
C657 C651 1.491 . S
C657 C656 1.400 . S
C657 C658 1.398 . S
C658 H646 0.950 . S
C658 C657 1.398 . S
C658 C659 1.391 . S
C659 H647 0.950 . S
C659 C655 1.393 . S
C659 C658 1.391 . S
H660 C668 0.950 . S
H661 C673 0.950 . S
H662 C670 0.950 . S
H663 C672 0.950 . S
H664 C674 0.950 . S
H665 C676 0.950 . S
H666 C678 0.950 . S
H667 C679 0.950 . S
C668 H660 0.950 . S
C668 C669 1.386 . S
C668 C670 1.391 . S
C669 C668 1.386 . S
C669 C673 1.393 . S
C670 H662 0.950 . S
C670 C668 1.391 . S
C670 C671 1.400 . S
C671 C670 1.400 . S
C671 C672 1.398 . S
C671 C677 1.491 . S
C672 H663 0.950 . S
C672 C671 1.398 . S
C672 C673 1.391 . S
C673 H661 0.950 . S
C673 C669 1.393 . S
C673 C672 1.391 . S
C674 H664 0.950 . S
C674 C675 1.386 . S
C674 C676 1.391 1_554 S
C675 C674 1.386 . S
C675 C679 1.393 . S
C676 H665 0.950 . S
C676 C674 1.391 1_556 S
C676 C677 1.400 . S
C677 C671 1.491 . S
C677 C676 1.400 . S
C677 C678 1.398 1_556 S
C678 H666 0.950 . S
C678 C677 1.398 1_554 S
C678 C679 1.391 . S
C679 H667 0.950 . S
C679 C675 1.393 . S
C679 C678 1.391 . S
H680 C688 0.950 . S
H681 C693 0.950 . S
H682 C690 0.950 . S
H683 C692 0.950 . S
H684 C694 0.950 . S
H685 C696 0.950 . S
H686 C698 0.950 . S
H687 C699 0.950 . S
C688 H680 0.950 . S
C688 C689 1.386 . S
C688 C690 1.391 . S
C689 C688 1.386 . S
C689 C693 1.393 . S
C690 H682 0.950 . S
C690 C688 1.391 . S
C690 C691 1.400 . S
C691 C690 1.400 . S
C691 C692 1.398 . S
C691 C697 1.491 . S
C692 H683 0.950 . S
C692 C691 1.398 . S
C692 C693 1.391 . S
C693 H681 0.950 . S
C693 C689 1.393 . S
C693 C692 1.391 . S
C694 H684 0.950 . S
C694 C695 1.386 . S
C694 C696 1.391 . S
C695 C694 1.386 . S
C695 C699 1.393 . S
C696 H685 0.950 . S
C696 C694 1.391 . S
C696 C697 1.400 . S
C697 C691 1.491 . S
C697 C696 1.400 . S
C697 C698 1.398 . S
C698 H686 0.950 . S
C698 C697 1.398 . S
C698 C699 1.391 . S
C699 H687 0.950 . S
C699 C695 1.393 . S
C699 C698 1.391 . S
H700 C708 0.950 . S
H701 C713 0.950 . S
H702 C710 0.950 . S
H703 C712 0.950 . S
H704 C714 0.950 . S
H705 C716 0.950 . S
H706 C718 0.950 . S
H707 C719 0.950 . S
C708 H700 0.950 . S
C708 C709 1.386 . S
C708 C710 1.391 . S
C709 C708 1.386 . S
C709 C713 1.393 . S
C710 H702 0.950 . S
C710 C708 1.391 . S
C710 C711 1.400 . S
C711 C710 1.400 . S
C711 C712 1.398 . S
C711 C717 1.491 . S
C712 H703 0.950 . S
C712 C711 1.398 . S
C712 C713 1.391 . S
C713 H701 0.950 . S
C713 C709 1.393 . S
C713 C712 1.391 . S
C714 H704 0.950 . S
C714 C715 1.386 . S
C714 C716 1.391 . S
C715 C714 1.386 . S
C715 C719 1.393 . S
C716 H705 0.950 . S
C716 C714 1.391 . S
C716 C717 1.400 . S
C717 C711 1.491 . S
C717 C716 1.400 . S
C717 C718 1.398 . S
C718 H706 0.950 . S
C718 C717 1.398 . S
C718 C719 1.391 . S
C719 H707 0.950 . S
C719 C715 1.393 . S
C719 C718 1.391 . S
H720 C728 0.950 . S
H721 C733 0.950 . S
H722 C730 0.950 . S
H723 C732 0.950 . S
H724 C734 0.950 . S
H725 C736 0.950 . S
H726 C738 0.950 . S
H727 C739 0.950 . S
C728 H720 0.950 . S
C728 C729 1.386 . S
C728 C730 1.391 . S
C729 C728 1.386 . S
C729 C733 1.393 . S
C730 H722 0.950 . S
C730 C728 1.391 . S
C730 C731 1.400 . S
C731 C730 1.400 . S
C731 C732 1.398 . S
C731 C737 1.491 . S
C732 H723 0.950 . S
C732 C731 1.398 . S
C732 C733 1.391 . S
C733 H721 0.950 . S
C733 C729 1.393 . S
C733 C732 1.391 . S
C734 H724 0.950 . S
C734 C735 1.386 . S
C734 C736 1.391 . S
C735 C734 1.386 . S
C735 C739 1.393 . S
C736 H725 0.950 . S
C736 C734 1.391 . S
C736 C737 1.400 . S
C737 C731 1.491 . S
C737 C736 1.400 . S
C737 C738 1.398 . S
C738 H726 0.950 . S
C738 C737 1.398 . S
C738 C739 1.391 . S
C739 H727 0.950 . S
C739 C735 1.393 . S
C739 C738 1.391 . S
H740 C748 0.950 . S
H741 C753 0.950 . S
H742 C750 0.950 . S
H743 C752 0.950 . S
H744 C754 0.950 . S
H745 C756 0.950 . S
H746 C758 0.950 . S
H747 C759 0.950 . S
C748 H740 0.950 . S
C748 C749 1.386 . S
C748 C750 1.391 . S
C749 C748 1.386 . S
C749 C753 1.393 . S
C750 H742 0.950 . S
C750 C748 1.391 . S
C750 C751 1.400 . S
C751 C750 1.400 . S
C751 C752 1.398 . S
C751 C757 1.491 . S
C752 H743 0.950 . S
C752 C751 1.398 . S
C752 C753 1.391 . S
C753 H741 0.950 . S
C753 C749 1.393 . S
C753 C752 1.391 . S
C754 H744 0.950 . S
C754 C755 1.386 . S
C754 C756 1.391 . S
C755 C754 1.386 . S
C755 C759 1.393 . S
C756 H745 0.950 . S
C756 C754 1.391 . S
C756 C757 1.400 . S
C757 C751 1.491 . S
C757 C756 1.400 . S
C757 C758 1.398 . S
C758 H746 0.950 . S
C758 C757 1.398 . S
C758 C759 1.391 . S
C759 H747 0.950 . S
C759 C755 1.393 . S
C759 C758 1.391 . S
H760 C768 0.950 . S
H761 C773 0.950 . S
H762 C770 0.950 . S
H763 C772 0.950 . S
H764 C774 0.950 . S
H765 C776 0.950 . S
H766 C778 0.950 . S
H767 C779 0.950 . S
C768 H760 0.950 . S
C768 C769 1.386 . S
C768 C770 1.391 . S
C769 C768 1.386 . S
C769 C773 1.393 . S
C770 H762 0.950 . S
C770 C768 1.391 . S
C770 C771 1.400 . S
C771 C770 1.400 . S
C771 C772 1.398 . S
C771 C777 1.491 . S
C772 H763 0.950 . S
C772 C771 1.398 . S
C772 C773 1.391 . S
C773 H761 0.950 . S
C773 C769 1.393 . S
C773 C772 1.391 . S
C774 H764 0.950 . S
C774 C775 1.386 . S
C774 C776 1.391 . S
C775 C774 1.386 . S
C775 C779 1.393 . S
C776 H765 0.950 . S
C776 C774 1.391 . S
C776 C777 1.400 . S
C777 C771 1.491 . S
C777 C776 1.400 . S
C777 C778 1.398 . S
C778 H766 0.950 . S
C778 C777 1.398 . S
C778 C779 1.391 . S
C779 H767 0.950 . S
C779 C775 1.393 . S
C779 C778 1.391 . S
H780 C788 0.950 . S
H781 C793 0.950 . S
H782 C790 0.950 . S
H783 C792 0.950 . S
H784 C794 0.950 . S
H785 C796 0.950 . S
H786 C798 0.950 . S
H787 C799 0.950 . S
C788 H780 0.950 . S
C788 C789 1.386 . S
C788 C790 1.391 . S
C789 C788 1.386 . S
C789 C793 1.393 . S
C790 H782 0.950 . S
C790 C788 1.391 . S
C790 C791 1.400 . S
C791 C790 1.400 . S
C791 C792 1.398 . S
C791 C797 1.491 . S
C792 H783 0.950 . S
C792 C791 1.398 . S
C792 C793 1.391 . S
C793 H781 0.950 . S
C793 C789 1.393 . S
C793 C792 1.391 . S
C794 H784 0.950 . S
C794 C795 1.386 . S
C794 C796 1.391 . S
C795 C794 1.386 . S
C795 C799 1.393 . S
C796 H785 0.950 . S
C796 C794 1.391 . S
C796 C797 1.400 . S
C797 C791 1.491 . S
C797 C796 1.400 . S
C797 C798 1.398 . S
C798 H786 0.950 . S
C798 C797 1.398 . S
C798 C799 1.391 . S
C799 H787 0.950 . S
C799 C795 1.393 . S
C799 C798 1.391 . S
H800 C808 0.950 . S
H801 C813 0.950 . S
H802 C810 0.950 1_556 S
H803 C812 0.950 . S
H804 C814 0.950 . S
H805 C816 0.950 . S
H806 C818 0.950 . S
H807 C819 0.950 . S
C808 H800 0.950 . S
C808 C809 1.386 . S
C808 C810 1.391 . S
C809 C808 1.386 . S
C809 C813 1.393 . S
C810 H802 0.950 1_554 S
C810 C808 1.391 . S
C810 C811 1.400 . S
C811 C810 1.400 . S
C811 C812 1.398 . S
C811 C817 1.491 1_554 S
C812 H803 0.950 . S
C812 C811 1.398 . S
C812 C813 1.391 . S
C813 H801 0.950 . S
C813 C809 1.393 . S
C813 C812 1.391 . S
C814 H804 0.950 . S
C814 C815 1.386 . S
C814 C816 1.391 1_556 S
C815 C814 1.386 . S
C815 C819 1.393 . S
C816 H805 0.950 . S
C816 C814 1.391 1_554 S
C816 C817 1.400 1_554 S
C817 C811 1.491 1_556 S
C817 C816 1.400 1_556 S
C817 C818 1.398 . S
C818 H806 0.950 . S
C818 C817 1.398 . S
C818 C819 1.391 . S
C819 H807 0.950 . S
C819 C815 1.393 . S
C819 C818 1.391 . S
H820 C828 0.950 . S
H821 C833 0.950 . S
H822 C830 0.950 . S
H823 C832 0.950 . S
H824 C834 0.950 . S
H825 C836 0.950 . S
H826 C838 0.950 . S
H827 C839 0.950 . S
C828 H820 0.950 . S
C828 C829 1.386 . S
C828 C830 1.391 . S
C829 C828 1.386 . S
C829 C833 1.393 . S
C830 H822 0.950 . S
C830 C828 1.391 . S
C830 C831 1.400 . S
C831 C830 1.400 . S
C831 C832 1.398 . S
C831 C837 1.491 . S
C832 H823 0.950 . S
C832 C831 1.398 . S
C832 C833 1.391 . S
C833 H821 0.950 . S
C833 C829 1.393 . S
C833 C832 1.391 . S
C834 H824 0.950 . S
C834 C835 1.386 . S
C834 C836 1.391 . S
C835 C834 1.386 . S
C835 C839 1.393 . S
C836 H825 0.950 . S
C836 C834 1.391 . S
C836 C837 1.400 . S
C837 C831 1.491 . S
C837 C836 1.400 . S
C837 C838 1.398 . S
C838 H826 0.950 . S
C838 C837 1.398 . S
C838 C839 1.391 . S
C839 H827 0.950 . S
C839 C835 1.393 . S
C839 C838 1.391 . S
C375 C353 1.583 . S
C369 C15 1.587 . S
C389 C61 1.458 . S
C395 C282 1.439 . S
C409 C114 1.580 . S
C415 C296 1.577 . S
C429 C139 1.463 . S
C435 C310 1.433 . S
C455 C324 1.578 . S
C449 C185 1.594 . S
C469 C245 1.460 . S
C475 C339 1.423 . S
C489 C47 1.465 . S
C495 C297 1.444 . S
C509 C100 1.594 . S
C515 C311 1.578 . S
C529 C153 1.461 . S
C535 C325 1.424 . S
C555 C338 1.578 . S
C549 C199 1.572 . S
C575 C352 1.444 . S
C569 C231 1.466 . S
C595 C283 1.588 . S
C589 C1 1.583 . S
C609 C22 1.478 . S
C615 C299 1.458 . S
C629 C68 1.687 . S
C635 C313 1.681 . S
C655 C327 1.469 . S
C649 C107 1.478 . S
C669 C146 1.691 . S
C675 C340 1.666 . S
C695 C354 1.466 . S
C689 C192 1.474 . S
C715 C285 1.671 . S
C709 C252 1.677 . S
C735 C355 1.680 . S
C729 C54 1.699 . S
C749 C93 1.477 . S
C755 C284 1.454 . S
C775 C298 1.673 . S
C769 C160 1.689 . S
C789 C206 1.473 . S
C795 C312 1.461 . S
C809 C238 1.694 . S
C815 C326 1.664 . S
C829 C8 1.479 . S
C835 C341 1.454 . S
