# Generated by pormake.
# Topology zzz, (3,6)-cn, num edge types: 1
# Building blocks:
#     Node 0, Type 0, BuildingBlock: BETDAH_clean_linker_0, # of connection points: 3
#     Node 1, Type 0, BuildingBlock: BETDAH_clean_linker_0, # of connection points: 3
#     Node 2, Type 0, BuildingBlock: BETDAH_clean_linker_0, # of connection points: 3
#     Node 3, Type 0, BuildingBlock: BETDAH_clean_linker_0, # of connection points: 3
#     Node 4, Type 0, BuildingBlock: BETDAH_clean_linker_0, # of connection points: 3
#     Node 5, Type 0, BuildingBlock: BETDAH_clean_linker_0, # of connection points: 3
#     Node 6, Type 0, BuildingBlock: BETDAH_clean_linker_0, # of connection points: 3
#     Node 7, Type 0, BuildingBlock: BETDAH_clean_linker_0, # of connection points: 3
#     Node 8, Type 1, BuildingBlock: BETFAJ_clean_sbu_0, # of connection points: 6
#     Node 9, Type 1, BuildingBlock: BETFAJ_clean_sbu_0, # of connection points: 6
#     Node 10, Type 1, BuildingBlock: BETFAJ_clean_sbu_0, # of connection points: 6
#     Node 11, Type 1, BuildingBlock: BETFAJ_clean_sbu_0, # of connection points: 6
#     Edge 12, Type (0, 1), BuildingBlock: MIFKUJ_clean_linker_0, # of connection points: 2
#     Edge 13, Type (0, 1), BuildingBlock: MIFKUJ_clean_linker_0, # of connection points: 2
#     Edge 14, Type (0, 1), BuildingBlock: MIFKUJ_clean_linker_0, # of connection points: 2
#     Edge 15, Type (0, 1), BuildingBlock: MIFKUJ_clean_linker_0, # of connection points: 2
#     Edge 16, Type (0, 1), BuildingBlock: MIFKUJ_clean_linker_0, # of connection points: 2
#     Edge 17, Type (0, 1), BuildingBlock: MIFKUJ_clean_linker_0, # of connection points: 2
#     Edge 18, Type (0, 1), BuildingBlock: MIFKUJ_clean_linker_0, # of connection points: 2
#     Edge 19, Type (0, 1), BuildingBlock: MIFKUJ_clean_linker_0, # of connection points: 2
#     Edge 20, Type (0, 1), BuildingBlock: MIFKUJ_clean_linker_0, # of connection points: 2
#     Edge 21, Type (0, 1), BuildingBlock: MIFKUJ_clean_linker_0, # of connection points: 2
#     Edge 22, Type (0, 1), BuildingBlock: MIFKUJ_clean_linker_0, # of connection points: 2
#     Edge 23, Type (0, 1), BuildingBlock: MIFKUJ_clean_linker_0, # of connection points: 2
#     Edge 24, Type (0, 1), BuildingBlock: MIFKUJ_clean_linker_0, # of connection points: 2
#     Edge 25, Type (0, 1), BuildingBlock: MIFKUJ_clean_linker_0, # of connection points: 2
#     Edge 26, Type (0, 1), BuildingBlock: MIFKUJ_clean_linker_0, # of connection points: 2
#     Edge 27, Type (0, 1), BuildingBlock: MIFKUJ_clean_linker_0, # of connection points: 2
#     Edge 28, Type (0, 1), BuildingBlock: MIFKUJ_clean_linker_0, # of connection points: 2
#     Edge 29, Type (0, 1), BuildingBlock: MIFKUJ_clean_linker_0, # of connection points: 2
#     Edge 30, Type (0, 1), BuildingBlock: MIFKUJ_clean_linker_0, # of connection points: 2
#     Edge 31, Type (0, 1), BuildingBlock: MIFKUJ_clean_linker_0, # of connection points: 2
#     Edge 32, Type (0, 1), BuildingBlock: MIFKUJ_clean_linker_0, # of connection points: 2
#     Edge 33, Type (0, 1), BuildingBlock: MIFKUJ_clean_linker_0, # of connection points: 2
#     Edge 34, Type (0, 1), BuildingBlock: MIFKUJ_clean_linker_0, # of connection points: 2
#     Edge 35, Type (0, 1), BuildingBlock: MIFKUJ_clean_linker_0, # of connection points: 2
# Relax obj value: 0.230
# Max RMSD: 0.175
# Mean RMSD: 0.161
data_MOF--net-zzz--node1-BETFAJ_clean_sbu_0--node2-BETDAH_clean_linker_0--edge1-MIFKUJ_clean_linker_0
_symmetry_space_group_name_H-M    P1
_symmetry_Int_Tables_number       1
_symmetry_cell_setting            triclinic
loop_
_symmetry_equiv_pos_as_xyz
'x, y, z'
_cell_length_a     68.855568
_cell_length_b     68.848059
_cell_length_c     17.238006
_cell_angle_alpha  89.830709
_cell_angle_beta   89.950909
_cell_angle_gamma 90.04562
loop_
_atom_site_label
_atom_site_type_symbol
_atom_site_fract_x
_atom_site_fract_y
_atom_site_fract_z
_atom_type_partial_charge
H0 H 0.78862 0.49585 0.24997 0.0
H1 H 0.72877 0.50361 0.19064 0.0
H2 H 0.74689 0.50678 0.43021 0.0
C3 C 0.77368 0.49798 0.26813 0.0
C4 C 0.76967 0.50083 0.34687 0.0
C5 C 0.75902 0.49899 0.21193 0.0
C6 C 0.73988 0.50263 0.2347 0.0
C7 C 0.73521 0.50512 0.31355 0.0
C8 C 0.75029 0.50455 0.36952 0.0
N9 N 0.71561 0.50833 0.33755 0.0
C10 C 0.69965 0.50838 0.28713 0.0
H11 H 0.99569 0.7908 0.24999 0.0
H12 H 0.99761 0.73166 0.17179 0.0
H13 H 1.00047 0.7448 0.41671 0.0
C14 C 0.99598 0.77535 0.26271 0.0
C15 C 0.99761 0.76951 0.33987 0.0
C16 C 0.99585 0.76185 0.20187 0.0
C17 C 0.99736 0.74199 0.21895 0.0
C18 C 0.99884 0.73561 0.29656 0.0
C19 C 0.99906 0.74953 0.35698 0.0
N20 N 1.00047 0.71547 0.31536 0.0
C21 C 1.00052 0.70035 0.26119 0.0
H22 H 0.7248 0.98152 0.27775 0.0
H23 H 0.78453 0.98716 0.21125 0.0
H24 H 0.76404 0.01338 0.4236 0.0
C25 C 0.73936 0.98659 0.29066 0.0
C26 C 0.74236 0.99791 0.35699 0.0
C27 C 0.75441 0.98272 0.23801 0.0
C28 C 0.77308 0.98985 0.25295 0.0
C29 C 0.77682 1.00067 0.32059 0.0
C30 C 0.76137 1.00457 0.37277 0.0
N31 N 0.79572 0.00833 0.33587 0.0
C32 C 0.81145 1.00707 0.28453 0.0
H33 H 0.515 0.72354 0.23661 0.0
H34 H 0.51837 0.78447 0.19426 0.0
H35 H 0.50721 0.76329 0.42664 0.0
C36 C 0.51397 0.73821 0.25901 0.0
C37 C 0.51028 0.74116 0.33805 0.0
C38 C 0.51666 0.75374 0.20771 0.0
C39 C 0.51625 0.77273 0.23508 0.0
C40 C 0.51285 0.77645 0.31417 0.0
C41 C 0.51001 0.76054 0.36583 0.0
N42 N 0.51202 0.79595 0.34224 0.0
C43 C 0.51359 0.81244 0.2946 0.0
H44 H 0.22671 0.53689 0.10117 0.0
H45 H 0.28301 0.52291 0.18911 0.0
H46 H 0.25989 0.49176 0.99218 0.0
C47 C 0.24018 0.52891 0.09494 0.0
C48 C 0.24149 0.51455 0.03785 0.0
C49 C 0.25499 0.53205 0.14909 0.0
C50 C 0.2718 0.52069 0.14601 0.0
C51 C 0.27383 0.50622 0.08884 0.0
C52 C 0.25851 0.50309 0.03531 0.0
N53 N 0.29084 0.4944 0.0852 0.0
C54 C 0.30662 0.49602 0.13594 0.0
H55 H 1.0069 0.21952 0.15716 0.0
H56 H 1.00578 0.28038 0.20447 0.0
H57 H 0.01947 0.26009 0.97356 0.0
C58 C 0.00901 0.23433 0.13707 0.0
C59 C 0.01386 0.2377 0.05936 0.0
C60 C 1.00612 0.24965 0.18895 0.0
C61 C 0.00808 0.26879 0.16344 0.0
C62 C 0.01309 0.27281 0.08582 0.0
C63 C 0.01569 0.25714 0.03347 0.0
N64 N 0.01565 0.29235 0.05968 0.0
C65 C 0.01452 0.30859 0.10826 0.0
H66 H 0.2896 0.01061 0.16499 0.0
H67 H 0.22869 1.00603 0.20479 0.0
H68 H 0.25013 0.01762 0.97319 0.0
C69 C 0.27497 0.01128 0.1419 0.0
C70 C 0.27213 0.01458 0.0625 0.0
C71 C 0.25938 0.00843 0.19261 0.0
C72 C 0.24045 0.00856 0.16455 0.0
C73 C 0.23681 0.01222 0.08554 0.0
C74 C 0.25279 0.01489 0.03416 0.0
N75 N 0.21732 0.01358 0.05747 0.0
C76 C 0.20085 0.01284 0.1055 0.0
H77 H 0.50899 0.29099 0.1616 0.0
H78 H 0.50759 0.23053 0.2201 0.0
H79 H 0.48868 0.24979 0.99308 0.0
C80 C 0.50566 0.27614 0.14519 0.0
C81 C 0.49845 0.2724 0.071 0.0
C82 C 0.5089 0.26114 0.19853 0.0
C83 C 0.50498 0.24193 0.17801 0.0
C84 C 0.49742 0.23762 0.10407 0.0
C85 C 0.49447 0.25296 0.05007 0.0
N86 N 0.49244 0.21816 0.08354 0.0
C87 C 0.49302 0.20245 0.13538 0.0
Sm88 Sm 0.01602 0.99724 0.77675 0.0
Sm89 Sm 0.9964 0.01082 0.6099 0.0
C90 C 0.02123 0.98417 0.91886 0.0
C91 C 0.03165 0.96758 0.95239 0.0
C92 C 0.02191 0.95566 0.00549 0.0
C93 C 0.02946 0.93753 0.02496 0.0
C94 C 0.04705 0.93106 0.99215 0.0
C95 C 0.05756 0.94378 0.94386 0.0
C96 C 0.04984 0.96185 0.92354 0.0
C97 C 0.04364 1.00063 0.65907 0.0
C98 C 1.00445 0.96394 0.6439 0.0
C99 C 0.99113 0.02608 0.4719 0.0
C100 C 0.98128 0.04422 0.45039 0.0
C101 C 0.99026 0.05694 0.398 0.0
C102 C 0.98367 0.07602 0.39052 0.0
C103 C 0.96791 0.08271 0.43525 0.0
C104 C 0.95822 0.06955 0.4843 0.0
C105 C 0.96491 0.05051 0.49212 0.0
C106 C 0.96879 0.00884 0.72817 0.0
C107 C 0.00822 0.04398 0.74221 0.0
O108 O 1.00621 0.97945 0.87618 0.0
O109 O 0.03179 0.9982 0.88882 0.0
O110 O 0.02558 1.00317 0.6557 0.0
O111 O 0.04795 0.99596 0.73016 0.0
O112 O 0.00916 0.96782 0.71714 0.0
O113 O 1.0004 0.97771 0.59205 0.0
O114 O 1.00714 0.02862 0.51183 0.0
O115 O 0.98011 0.01201 0.49898 0.0
O116 O 0.9867 1.00524 0.73177 0.0
O117 O 0.96473 0.01362 0.65705 0.0
O118 O 1.00377 0.04015 0.66886 0.0
O119 O 0.01174 0.0302 0.79436 0.0
H120 H 0.00778 0.95978 0.02775 0.0
H121 H 0.02069 0.92807 0.06105 0.0
H122 H 0.07124 0.93936 0.91841 0.0
H123 H 0.05759 0.97081 0.88203 0.0
H124 H 1.0031 0.05247 0.36637 0.0
H125 H 0.9917 0.0858 0.35305 0.0
H126 H 0.94589 0.07415 0.51867 0.0
H127 H 0.95786 0.04103 0.53377 0.0
Sm128 Sm 0.5155 0.02013 0.8133 0.0
Sm129 Sm 0.50411 1.00048 0.64199 0.0
C130 C 0.53171 0.02261 0.95037 0.0
C131 C 0.55059 0.01422 0.97336 0.0
C132 C 0.55374 0.99405 0.96926 0.0
C133 C 0.5726 0.98661 0.9678 0.0
C134 C 0.5886 0.99921 0.97006 0.0
C135 C 0.58546 0.01917 0.98087 0.0
C136 C 0.56662 0.0266 0.983 0.0
C137 C 0.50678 0.04796 0.70158 0.0
C138 C 0.54978 0.00963 0.67913 0.0
C139 C 0.48924 0.99648 0.5025 0.0
C140 C 0.46934 1.0006 0.47797 0.0
C141 C 0.45806 0.01353 0.52191 0.0
C142 C 0.43792 0.01344 0.51508 0.0
C143 C 0.42887 1.00067 0.46333 0.0
C144 C 0.44024 0.98897 0.4145 0.0
C145 C 0.46043 0.98881 0.42232 0.0
C146 C 0.51335 0.97278 0.75421 0.0
C147 C 0.46946 0.01159 0.77445 0.0
O148 O 0.51755 0.01034 0.93597 0.0
O149 O 0.53295 0.03657 0.89862 0.0
O150 O 0.50729 0.02976 0.69512 0.0
O151 O 0.51041 0.05229 0.77365 0.0
O152 O 0.54511 0.013 0.75295 0.0
O153 O 0.53666 1.00615 0.62453 0.0
O154 O 0.49974 0.01155 0.52221 0.0
O155 O 0.49058 0.98206 0.55188 0.0
O156 O 0.51263 0.99097 0.76004 0.0
O157 O 0.50973 0.96838 0.68233 0.0
O158 O 0.47435 1.00665 0.70225 0.0
O159 O 0.48245 0.01609 0.8287 0.0
H160 H 0.54176 0.98406 0.96204 0.0
H161 H 0.57461 0.97117 0.95998 0.0
H162 H 0.59761 0.02914 0.98457 0.0
H163 H 0.56463 0.04219 0.98648 0.0
H164 H 0.46469 0.02275 0.56528 0.0
H165 H 0.42936 0.02272 0.55255 0.0
H166 H 0.43345 0.97902 0.37417 0.0
H167 H 0.46892 0.97861 0.38871 0.0
Sm168 Sm 0.49337 0.51453 0.79398 0.0
Sm169 Sm 0.51217 0.5001 0.62632 0.0
C170 C 0.4917 0.53259 0.92745 0.0
C171 C 0.50342 0.5496 0.94782 0.0
C172 C 0.52024 0.55361 0.90447 0.0
C173 C 0.52936 0.57159 0.90979 0.0
C174 C 0.52156 0.58614 0.95722 0.0
C175 C 0.50515 0.58183 0.00323 0.0
C176 C 0.49614 0.56365 0.9985 0.0
C177 C 0.46493 0.50813 0.6823 0.0
C178 C 0.50594 0.54646 0.65542 0.0
C179 C 0.517 0.48215 0.49352 0.0
C180 C 0.5255 0.46281 0.48038 0.0
C181 C 0.52065 0.44742 0.53049 0.0
C182 C 0.52994 0.42958 0.52448 0.0
C183 C 0.54414 0.42659 0.46753 0.0
C184 C 0.54877 0.44177 0.41591 0.0
C185 C 0.53962 0.45988 0.42284 0.0
C186 C 0.54066 0.50534 0.73945 0.0
C187 C 0.50076 0.46776 0.76755 0.0
O188 O 0.50121 0.51623 0.91879 0.0
O189 O 0.47929 0.53592 0.87148 0.0
O190 O 0.48309 0.50679 0.67601 0.0
O191 O 0.46098 0.51238 0.75415 0.0
O192 O 0.5041 0.54253 0.73062 0.0
O193 O 0.50692 0.53263 0.60203 0.0
O194 O 0.50038 0.48227 0.53085 0.0
O195 O 0.52913 0.49551 0.51789 0.0
O196 O 0.52259 0.50795 0.74476 0.0
O197 O 0.5444 0.50008 0.66869 0.0
O198 O 0.50677 0.47153 0.69561 0.0
O199 O 0.49515 0.48151 0.81683 0.0
H200 H 0.52567 0.5433 0.86261 0.0
H201 H 0.54205 0.57434 0.87425 0.0
H202 H 0.49858 0.59282 0.03953 0.0
H203 H 0.4829 0.561 0.03083 0.0
H204 H 0.50968 0.44912 0.57486 0.0
H205 H 0.52567 0.41795 0.56347 0.0
H206 H 0.55953 0.43967 0.37082 0.0
H207 H 0.54367 0.47158 0.38391 0.0
Sm208 Sm 0.99842 0.49307 0.77533 0.0
Sm209 Sm 0.0113 0.51253 0.60657 0.0
C210 C 0.982 0.49009 0.91235 0.0
C211 C 0.96346 0.4988 0.93548 0.0
C212 C 0.95719 0.51591 0.89858 0.0
C213 C 0.93773 0.52139 0.90174 0.0
C214 C 0.9242 0.50982 0.94163 0.0
C215 C 0.93079 0.4935 0.98333 0.0
C216 C 0.9503 0.48799 0.98002 0.0
C217 C 1.00443 0.46502 0.66163 0.0
C218 C 0.9653 0.50437 0.64147 0.0
C219 C 0.02695 0.51917 0.46988 0.0
C220 C 0.0441 0.53103 0.45293 0.0
C221 C 0.05279 0.53083 0.37946 0.0
C222 C 0.07111 0.53929 0.3688 0.0
C223 C 0.08091 0.5477 0.43193 0.0
C224 C 0.07161 0.54885 0.50413 0.0
C225 C 0.0533 0.54065 0.51446 0.0
C226 C 1.00541 0.54073 0.71985 0.0
C227 C 0.04481 0.50132 0.74271 0.0
O228 O 0.99634 0.50215 0.89864 0.0
O229 O 0.98023 0.47671 0.85904 0.0
O230 O 1.00573 0.48319 0.6559 0.0
O231 O 1.00049 0.46084 0.7336 0.0
O232 O 0.96969 0.50265 0.71624 0.0
O233 O 0.97882 0.50575 0.58668 0.0
O234 O 0.03075 0.50359 0.51098 0.0
O235 O 0.01171 0.52871 0.49492 0.0
O236 O 1.00376 0.52257 0.72569 0.0
O237 O 0.01026 0.54472 0.64881 0.0
O238 O 0.04063 0.50705 0.67067 0.0
O239 O 0.03139 0.49591 0.79389 0.0
H240 H 0.96704 0.52434 0.86277 0.0
H241 H 0.9331 0.53417 0.86994 0.0
H242 H 0.92066 0.4842 0.01407 0.0
H243 H 0.9548 0.47457 0.0076 0.0
H244 H 0.04591 0.52333 0.33165 0.0
H245 H 0.07816 0.53808 0.31281 0.0
H246 H 0.07893 0.55524 0.55352 0.0
H247 H 0.04682 0.54083 0.57174 0.0
H248 H 0.16312 0.00834 0.06342 0.0
H249 H 0.13463 1.00649 0.14962 0.0
H250 H 0.17195 0.01369 0.34826 0.0
H251 H 0.20022 0.01585 0.26252 0.0
H252 H 0.14593 0.98368 0.36836 0.0
H253 H 0.14397 0.05071 0.28428 0.0
H254 H 0.14251 0.07712 0.18748 0.0
H255 H 0.08842 0.05477 0.10172 0.0
H256 H 0.08969 0.02807 0.1974 0.0
H257 H 0.08262 1.00325 0.67468 0.0
H258 H 0.10732 1.00552 0.5738 0.0
H259 H 0.0627 1.00471 0.39832 0.0
H260 H 0.03769 1.00295 0.5005 0.0
H261 H 0.09042 0.02949 0.35625 0.0
H262 H 0.09066 0.96374 0.44036 0.0
H263 H 0.09137 0.93652 0.5336 0.0
H264 H 0.14766 0.9546 0.61263 0.0
H265 H 0.14718 0.9821 0.52062 0.0
C266 C 0.16517 0.00959 0.12551 0.0
C267 C 0.18389 0.01208 0.15629 0.0
C268 C 0.14889 0.00859 0.17474 0.0
C269 C 0.15106 0.00998 0.25575 0.0
C270 C 0.16984 0.01249 0.28619 0.0
C271 C 0.18604 0.01368 0.23702 0.0
C272 C 0.13396 0.00849 0.30931 0.0
C273 C 0.1339 0.99383 0.36614 0.0
C274 C 0.11782 0.02123 0.30486 0.0
C275 C 0.11705 0.03727 0.24739 0.0
C276 C 0.13186 0.05133 0.24431 0.0
C277 C 0.13104 0.06637 0.18975 0.0
C278 C 0.11541 0.06759 0.13832 0.0
C279 C 0.10053 0.05379 0.1415 0.0
C280 C 0.10129 0.03871 0.19591 0.0
C281 C 0.07801 1.00363 0.61464 0.0
C282 C 0.05817 1.00289 0.59567 0.0
C283 C 0.09221 1.00481 0.55673 0.0
C284 C 0.08705 1.00485 0.47784 0.0
C285 C 0.06716 1.00461 0.45856 0.0
C286 C 0.05284 1.00363 0.51696 0.0
C287 C 0.10259 1.00491 0.41658 0.0
C288 C 0.10236 0.01923 0.35821 0.0
C289 C 0.11838 0.99168 0.41879 0.0
C290 C 0.11881 0.97508 0.47395 0.0
C291 C 0.10314 0.96199 0.47797 0.0
C292 C 0.10351 0.9465 0.53057 0.0
C293 C 0.11953 0.94385 0.57911 0.0
C294 C 0.13525 0.95667 0.57502 0.0
C295 C 0.13495 0.9722 0.52259 0.0
H296 H 0.11979 0.93186 0.61981 0.0
H297 H 0.11481 0.07925 0.09613 0.0
H298 H 0.48558 0.20361 0.2893 0.0
H299 H 0.48665 0.17646 0.38183 0.0
H300 H 0.50255 0.13755 0.19663 0.0
H301 H 0.50121 0.16477 0.1039 0.0
H302 H 0.47671 0.12009 0.29213 0.0
H303 H 0.53658 0.1544 0.32427 0.0
H304 H 0.55747 0.18299 0.34574 0.0
H305 H 0.53086 0.19216 0.568 0.0
H306 H 0.5096 0.16377 0.54736 0.0
H307 H 0.51262 0.0445 0.54444 0.0
H308 H 0.50876 0.06968 0.44467 0.0
H309 H 0.49101 0.1104 0.62056 0.0
H310 H 0.49448 0.08511 0.71968 0.0
H311 H 0.51804 0.12611 0.52644 0.0
H312 H 0.45834 0.09093 0.49348 0.0
H313 H 0.43914 0.06112 0.47339 0.0
H314 H 0.46662 0.05259 0.25246 0.0
H315 H 0.48628 0.08217 0.27188 0.0
C316 C 0.48928 0.18924 0.26852 0.0
C317 C 0.49344 0.18624 0.1898 0.0
C318 C 0.48993 0.17371 0.32139 0.0
C319 C 0.49491 0.15487 0.29673 0.0
C320 C 0.49868 0.15186 0.2174 0.0
C321 C 0.49801 0.16743 0.1645 0.0
C322 C 0.49668 0.13852 0.35404 0.0
C323 C 0.48593 0.12134 0.34285 0.0
C324 C 0.50851 0.14007 0.42104 0.0
C325 C 0.52136 0.15707 0.43392 0.0
C326 C 0.53508 0.1626 0.37748 0.0
C327 C 0.547 0.17875 0.38953 0.0
C328 C 0.54546 0.18941 0.45809 0.0
C329 C 0.53202 0.1839 0.51486 0.0
C330 C 0.52004 0.16777 0.50305 0.0
C331 C 0.50718 0.05856 0.56123 0.0
C332 C 0.50324 0.06258 0.63952 0.0
C333 C 0.50523 0.07308 0.50433 0.0
C334 C 0.49939 0.09199 0.52469 0.0
C335 C 0.4955 0.09598 0.60306 0.0
C336 C 0.49741 0.08147 0.6597 0.0
C337 C 0.49791 0.10781 0.46514 0.0
C338 C 0.50878 0.12487 0.47581 0.0
C339 C 0.48627 0.10606 0.39769 0.0
C340 C 0.47392 0.08869 0.38446 0.0
C341 C 0.46036 0.08266 0.44074 0.0
C342 C 0.4494 0.06579 0.42951 0.0
C343 C 0.4517 0.05493 0.3618 0.0
C344 C 0.46488 0.061 0.30495 0.0
C345 C 0.47593 0.07782 0.31602 0.0
H346 H 0.44325 0.04184 0.35335 0.0
H347 H 0.5547 0.20192 0.4673 0.0
H348 H 0.34425 0.48927 0.1 0.0
H349 H 0.37239 0.49107 0.18722 0.0
H350 H 0.33452 0.5071 0.37605 0.0
H351 H 0.30645 0.50553 0.28829 0.0
H352 H 0.36613 0.52907 0.37841 0.0
H353 H 0.354 0.46064 0.35839 0.0
H354 H 0.34914 0.4294 0.29154 0.0
H355 H 0.40612 0.43368 0.19148 0.0
H356 H 0.41122 0.4651 0.25697 0.0
H357 H 0.42587 0.50836 0.70108 0.0
H358 H 0.40062 0.50635 0.60207 0.0
H359 H 0.4444 0.50035 0.42495 0.0
H360 H 0.46992 0.503 0.52437 0.0
H361 H 0.41167 0.4738 0.41019 0.0
H362 H 0.42415 0.54172 0.43672 0.0
H363 H 0.42889 0.57244 0.50735 0.0
H364 H 0.37091 0.5686 0.5981 0.0
H365 H 0.36592 0.53767 0.52894 0.0
C366 C 0.34201 0.49318 0.16018 0.0
C367 C 0.32326 0.49724 0.18768 0.0
C368 C 0.35807 0.49411 0.21016 0.0
C369 C 0.35567 0.49901 0.28884 0.0
C370 C 0.33685 0.50328 0.31584 0.0
C371 C 0.32079 0.50234 0.2658 0.0
C372 C 0.37272 0.49984 0.34285 0.0
C373 C 0.37593 0.51687 0.3858 0.0
C374 C 0.38594 0.48417 0.3515 0.0
C375 C 0.3829 0.46533 0.31186 0.0
C376 C 0.36542 0.45501 0.32158 0.0
C377 C 0.36264 0.43725 0.28405 0.0
C378 C 0.37729 0.42959 0.2371 0.0
C379 C 0.39477 0.43965 0.22774 0.0
C380 C 0.39762 0.45743 0.26509 0.0
C381 C 0.4302 0.50649 0.64113 0.0
C382 C 0.44997 0.50556 0.62081 0.0
C383 C 0.4157 0.50538 0.58449 0.0
C384 C 0.42055 0.50324 0.50588 0.0
C385 C 0.44028 0.50189 0.48526 0.0
C386 C 0.45487 0.50326 0.54216 0.0
C387 C 0.40487 0.50291 0.44596 0.0
C388 C 0.40192 0.486 0.40214 0.0
C389 C 0.39182 0.51865 0.43666 0.0
C390 C 0.39473 0.53728 0.47821 0.0
C391 C 0.41246 0.54733 0.47229 0.0
C392 C 0.41519 0.5648 0.51196 0.0
C393 C 0.40022 0.57245 0.55734 0.0
C394 C 0.38249 0.56265 0.56299 0.0
C395 C 0.37971 0.54516 0.52352 0.0
H396 H 0.40235 0.58598 0.58798 0.0
H397 H 0.37511 0.41583 0.20812 0.0
H398 H 0.99692 0.3109 0.24876 0.0
H399 H 0.99581 0.33889 0.33539 0.0
H400 H 0.02805 0.37276 0.16805 0.0
H401 H 0.02982 0.3443 0.08241 0.0
H402 H 0.04116 0.38101 0.30518 0.0
H403 H 0.9777 0.37867 0.19802 0.0
H404 H 0.94639 0.36423 0.15955 0.0
H405 H 0.93338 0.35149 0.398 0.0
H406 H 0.96475 0.36562 0.43786 0.0
H407 H 0.01508 0.47025 0.5082 0.0
H408 H 0.01758 0.44522 0.40694 0.0
H409 H 0.99947 0.40169 0.57203 0.0
H410 H 0.99761 0.42638 0.67325 0.0
H411 H 0.97893 0.40102 0.42604 0.0
H412 H 0.04448 0.40268 0.52805 0.0
H413 H 0.07534 0.4188 0.56145 0.0
H414 H 0.08342 0.43527 0.32314 0.0
H415 H 0.05243 0.41947 0.28852 0.0
C416 C 1.00385 0.32426 0.23057 0.0
C417 C 0.01349 0.32544 0.15899 0.0
C418 C 1.00306 0.34039 0.27992 0.0
C419 C 0.01155 0.35821 0.25816 0.0
C420 C 0.02132 0.35929 0.18647 0.0
C421 C 0.02227 0.34306 0.13737 0.0
C422 C 0.01035 0.37551 0.31064 0.0
C423 C 0.02746 0.38554 0.33039 0.0
C424 C 0.99256 0.38157 0.34445 0.0
C425 C 0.97366 0.37305 0.32085 0.0
C426 C 0.96823 0.37266 0.24222 0.0
C427 C 0.95046 0.36455 0.22017 0.0
C428 C 0.93792 0.35691 0.27627 0.0
C429 C 0.94311 0.3574 0.35459 0.0
C430 C 0.96088 0.36548 0.37696 0.0
C431 C 0.01191 0.45533 0.52299 0.0
C432 C 1.00638 0.45032 0.59899 0.0
C433 C 0.01325 0.44104 0.46506 0.0
C434 C 0.00873 0.42153 0.48188 0.0
C435 C 1.00302 0.4166 0.55755 0.0
C436 C 1.00203 0.43076 0.61546 0.0
C437 C 0.00972 0.40614 0.42118 0.0
C438 C 0.99255 0.39652 0.39999 0.0
C439 C 0.02737 0.40071 0.38519 0.0
C440 C 0.04603 0.41011 0.40588 0.0
C441 C 0.05274 0.4099 0.4829 0.0
C442 C 0.07028 0.41894 0.50203 0.0
C443 C 0.0813 0.42811 0.4445 0.0
C444 C 0.07484 0.4282 0.36767 0.0
C445 C 0.0573 0.41919 0.34825 0.0
H446 H 0.09487 0.4351 0.45942 0.0
H447 H 0.92417 0.35064 0.25908 0.0
H448 H 0.8462 0.98953 0.30843 0.0
H449 H 0.87415 0.98882 0.21961 0.0
H450 H 0.84185 0.02285 0.05338 0.0
H451 H 0.81386 0.02321 0.14178 0.0
H452 H 0.85984 0.99445 0.98163 0.0
H453 H 0.87925 0.04204 0.17141 0.0
H454 H 0.88687 0.0544 0.30204 0.0
H455 H 0.93109 0.01094 0.32835 0.0
H456 H 0.92354 0.99813 0.19827 0.0
H457 H 0.93278 0.02439 0.72501 0.0
H458 H 0.90762 0.02333 0.82422 0.0
H459 H 0.94582 0.9909 0.97456 0.0
H460 H 0.97151 0.99268 0.87537 0.0
H461 H 0.92587 0.01585 0.05842 0.0
H462 H 0.90758 0.96882 0.86883 0.0
H463 H 0.90067 0.95646 0.73758 0.0
H464 H 0.85467 0.99805 0.71193 0.0
H465 H 0.86147 0.01084 0.84266 0.0
C466 C 0.84514 0.99683 0.25283 0.0
C467 C 0.82795 1.00644 0.23173 0.0
C468 C 0.86116 0.99654 0.20224 0.0
C469 C 0.86034 1.006 0.12974 0.0
C470 C 0.84298 0.01546 0.10876 0.0
C471 C 0.82698 0.0157 0.15928 0.0
C472 C 0.87727 1.00573 0.0748 0.0
C473 C 0.87421 0.99936 0.99841 0.0
C474 C 0.89631 0.01144 0.0968 0.0
C475 C 0.90067 0.01898 0.17543 0.0
C476 C 0.89046 0.03499 0.20535 0.0
C477 C 0.8948 0.0421 0.27925 0.0
C478 C 0.90942 0.03343 0.32356 0.0
C479 C 0.91974 0.01762 0.29403 0.0
C480 C 0.91544 0.01043 0.22023 0.0
C481 C 0.93591 0.01705 0.77924 0.0
C482 C 0.95416 0.00844 0.7919 0.0
C483 C 0.92139 0.01634 0.836 0.0
C484 C 0.92447 1.00657 0.90663 0.0
C485 C 0.94292 0.9984 0.92049 0.0
C486 C 0.95764 0.99937 0.86372 0.0
C487 C 0.90832 1.00492 0.96493 0.0
C488 C 0.91152 0.01084 0.04186 0.0
C489 C 0.8894 0.99867 0.94372 0.0
C490 C 0.88513 0.99087 0.86537 0.0
C491 C 0.89606 0.9754 0.83505 0.0
C492 C 0.89216 0.96831 0.76075 0.0
C493 C 0.87727 0.97649 0.71639 0.0
C494 C 0.86621 0.99173 0.74634 0.0
C495 C 0.87006 0.99889 0.82058 0.0
H496 H 0.87428 0.97099 0.65886 0.0
H497 H 0.91278 0.03898 0.38067 0.0
H498 H 0.50249 0.84915 0.32948 0.0
H499 H 0.50436 0.87799 0.24559 0.0
H500 H 0.52917 0.84309 0.06314 0.0
H501 H 0.528 0.81457 0.14799 0.0
H502 H 0.54731 0.8758 0.06546 0.0
H503 H 0.47965 0.85882 0.06674 0.0
H504 H 0.44771 0.85158 0.125 0.0
H505 H 0.44637 0.90828 0.22801 0.0
H506 H 0.47843 0.91576 0.17113 0.0
H507 H 0.52749 0.9362 0.73878 0.0
H508 H 0.52981 0.91076 0.83765 0.0
H509 H 0.5083 0.95068 0.00981 0.0
H510 H 0.50543 0.976 0.90981 0.0
H511 H 0.48953 0.91719 0.02 0.0
H512 H 0.55735 0.93432 0.00869 0.0
H513 H 0.58945 0.9402 0.94876 0.0
H514 H 0.58978 0.8823 0.85773 0.0
H515 H 0.55778 0.87598 0.91705 0.0
C516 C 0.50837 0.84771 0.27146 0.0
C517 C 0.51492 0.8296 0.245 0.0
C518 C 0.50933 0.86418 0.22322 0.0
C519 C 0.51661 0.86282 0.14697 0.0
C520 C 0.52344 0.84467 0.12131 0.0
C521 C 0.52264 0.82827 0.16978 0.0
C522 C 0.51718 0.88017 0.09386 0.0
C523 C 0.53459 0.8847 0.05503 0.0
C524 C 0.50078 0.89224 0.08106 0.0
C525 C 0.48153 0.88776 0.11542 0.0
C526 C 0.47261 0.86968 0.10233 0.0
C527 C 0.45448 0.86555 0.13501 0.0
C528 C 0.44505 0.87944 0.18038 0.0
C529 C 0.45371 0.89752 0.19299 0.0
C530 C 0.47186 0.90172 0.16051 0.0
C531 C 0.52357 0.93966 0.79803 0.0
C532 C 0.51674 0.95829 0.81691 0.0
C533 C 0.525 0.92509 0.85477 0.0
C534 C 0.51956 0.92875 0.93202 0.0
C535 C 0.51281 0.94745 0.95104 0.0
C536 C 0.51142 0.96205 0.89409 0.0
C537 C 0.51962 0.91271 0.99113 0.0
C538 C 0.5023 0.9084 0.03097 0.0
C539 C 0.53605 0.90073 0.00418 0.0
C540 C 0.55509 0.90472 0.9669 0.0
C541 C 0.56418 0.9229 0.97533 0.0
C542 C 0.58237 0.9263 0.94163 0.0
C543 C 0.59157 0.91169 0.89928 0.0
C544 C 0.58263 0.89362 0.89051 0.0
C545 C 0.5645 0.89009 0.92435 0.0
H546 H 0.60567 0.91434 0.87363 0.0
H547 H 0.43101 0.87622 0.2056 0.0
H548 H 0.69816 0.49684 0.1368 0.0
H549 H 0.66999 0.49758 0.05015 0.0
H550 H 0.63479 0.52073 0.23517 0.0
H551 H 0.66313 0.52 0.32211 0.0
H552 H 0.61529 0.49262 0.15578 0.0
H553 H 0.6505 0.55024 0.09105 0.0
H554 H 0.67927 0.56955 0.05446 0.0
H555 H 0.68462 0.53721 0.84292 0.0
H556 H 0.65603 0.51751 0.87876 0.0
H557 H 0.53618 0.51252 0.89658 0.0
H558 H 0.56161 0.51542 0.99491 0.0
H559 H 0.60467 0.50133 0.82191 0.0
H560 H 0.57946 0.50032 0.72312 0.0
H561 H 0.61911 0.52738 0.90395 0.0
H562 H 0.58324 0.46902 0.97235 0.0
H563 H 0.5541 0.45059 0.01194 0.0
H564 H 0.54995 0.48423 0.22037 0.0
H565 H 0.57859 0.5034 0.18084 0.0
C566 C 0.68445 0.50216 0.1589 0.0
C567 C 0.68284 0.50854 0.2359 0.0
C568 C 0.66832 0.5026 0.10928 0.0
C569 C 0.65022 0.50942 0.13558 0.0
C570 C 0.64855 0.51544 0.21325 0.0
C571 C 0.66474 0.51508 0.26281 0.0
C572 C 0.63317 0.51038 0.08174 0.0
C573 C 0.61602 0.5004 0.10104 0.0
C574 C 0.63409 0.52038 0.00994 0.0
C575 C 0.65122 0.53228 0.98794 0.0
C576 C 0.6579 0.54715 0.03699 0.0
C577 C 0.67416 0.55818 0.01634 0.0
C578 C 0.6838 0.55458 0.9465 0.0
C579 C 0.67716 0.53997 0.89704 0.0
C580 C 0.66091 0.52888 0.91746 0.0
C581 C 0.55106 0.51059 0.8793 0.0
C582 C 0.55569 0.50671 0.80153 0.0
C583 C 0.56569 0.51183 0.93602 0.0
C584 C 0.58528 0.50833 0.91684 0.0
C585 C 0.58981 0.50421 0.83902 0.0
C586 C 0.57529 0.50353 0.78231 0.0
C587 C 0.60124 0.50905 0.97636 0.0
C588 C 0.61826 0.5195 0.95843 0.0
C589 C 0.60013 0.49946 0.04944 0.0
C590 C 0.58295 0.48781 0.07314 0.0
C591 C 0.57602 0.47261 0.0263 0.0
C592 C 0.5596 0.46202 0.04873 0.0
C593 C 0.55022 0.4662 0.1186 0.0
C594 C 0.55721 0.48103 0.16617 0.0
C595 C 0.57349 0.49181 0.14366 0.0
H596 H 0.53755 0.45794 0.13589 0.0
H597 H 0.69639 0.56314 0.93062 0.0
H598 H 0.99848 0.70064 0.10375 0.0
H599 H 0.99847 0.67241 0.01714 0.0
H600 H 1.00268 0.63421 0.21529 0.0
H601 H 1.00295 0.66254 0.30178 0.0
H602 H 0.02629 0.62187 0.10258 0.0
H603 H 0.95941 0.64047 0.11719 0.0
H604 H 0.93149 0.6628 0.10953 0.0
H605 H 0.94367 0.67351 0.86883 0.0
H606 H 0.97184 0.65143 0.87531 0.0
H607 H 1.00568 0.53644 0.87946 0.0
H608 H 1.00337 0.56218 0.9774 0.0
H609 H 0.99882 0.60499 0.79512 0.0
H610 H 1.0005 0.57931 0.6981 0.0
H611 H 0.97414 0.61354 0.90719 0.0
H612 H 0.04183 0.596 0.89409 0.0
H613 H 0.06964 0.5735 0.9013 0.0
H614 H 0.05589 0.56068 0.13905 0.0
H615 H 0.0278 0.58287 0.13285 0.0
C616 C 0.9994 0.68622 0.12867 0.0
C617 C 1.00063 0.68371 0.20932 0.0
C618 C 0.99932 0.67006 0.07919 0.0
C619 C 1.00032 0.65104 0.10943 0.0
C620 C 1.00186 0.64864 0.19027 0.0
C621 C 1.00194 0.66481 0.23969 0.0
C622 C 0.99971 0.63375 0.05685 0.0
C623 C 0.01472 0.61992 0.06067 0.0
C624 C 0.9848 0.63119 0.00112 0.0
C625 C 0.96784 0.64443 0.99694 0.0
C626 C 0.95622 0.6477 0.06277 0.0
C627 C 0.94034 0.66029 0.05862 0.0
C628 C 0.93584 0.6696 0.98879 0.0
C629 C 0.94719 0.6663 0.92291 0.0
C630 C 0.9631 0.65373 0.92676 0.0
C631 C 1.00371 0.55124 0.86057 0.0
C632 C 1.00298 0.55573 0.78109 0.0
C633 C 1.00268 0.56604 0.91653 0.0
C634 C 1.00108 0.58567 0.89395 0.0
C635 C 1.00001 0.59005 0.81446 0.0
C636 C 1.00103 0.57531 0.75889 0.0
C637 C 1.00085 0.60181 0.95211 0.0
C638 C 0.98566 0.61542 0.94939 0.0
C639 C 0.0156 0.60415 0.00873 0.0
C640 C 0.03258 0.59093 0.01273 0.0
C641 C 0.04465 0.58827 0.94772 0.0
C642 C 0.06047 0.57558 0.95164 0.0
C643 C 0.06449 0.56562 0.0205 0.0
C644 C 0.05273 0.56837 0.08568 0.0
C645 C 0.03686 0.581 0.08201 0.0
H646 H 0.07674 0.55581 0.02341 0.0
H647 H 0.92353 0.67935 0.98569 0.0
H648 H 0.02538 0.22767 0.29332 0.0
H649 H 0.00964 0.20788 0.39137 0.0
H650 H 0.95675 0.24082 0.36266 0.0
H651 H 0.97252 0.26025 0.26115 0.0
H652 H 0.98905 0.20279 0.51233 0.0
H653 H 0.92093 0.2092 0.32963 0.0
H654 H 0.91003 0.22355 0.20546 0.0
H655 H 0.96689 0.2151 0.10864 0.0
H656 H 0.9779 0.20025 0.23142 0.0
H657 H 0.95749 0.10539 0.55945 0.0
H658 H 0.95385 0.1407 0.56167 0.0
H659 H 0.96496 0.14277 0.31515 0.0
H660 H 0.96715 0.10762 0.3117 0.0
H661 H 0.94143 0.1692 0.3439 0.0
H662 H 0.9998 0.146 0.46591 0.0
H663 H 0.02217 0.13148 0.56133 0.0
H664 H 1.00081 0.17016 0.73647 0.0
H665 H 0.97747 0.18406 0.64369 0.0
C666 C 0.0107 0.2313 0.31074 0.0
C667 C 0.99991 0.24493 0.2685 0.0
C668 C 1.00166 0.22003 0.36721 0.0
C669 C 0.98173 0.22234 0.38205 0.0
C670 C 0.972 0.23848 0.35048 0.0
C671 C 0.98104 0.24965 0.29287 0.0
C672 C 0.97091 0.2052 0.41158 0.0
C673 C 0.97818 0.19557 0.47709 0.0
C674 C 0.957 0.19568 0.36448 0.0
C675 C 0.95026 0.20394 0.28983 0.0
C676 C 0.93103 0.21034 0.28162 0.0
C677 C 0.92484 0.21852 0.2115 0.0
C678 C 0.93778 0.2203 0.1493 0.0
C679 C 0.9569 0.21377 0.15687 0.0
C680 C 0.96308 0.20537 0.22648 0.0
C681 C 0.95848 0.11332 0.50526 0.0
C682 C 0.96287 0.10368 0.43538 0.0
C683 C 0.95661 0.13356 0.50686 0.0
C684 C 0.95947 0.1445 0.43895 0.0
C685 C 0.96267 0.13474 0.36854 0.0
C686 C 0.96421 0.11459 0.36669 0.0
C687 C 0.96106 0.16602 0.44048 0.0
C688 C 0.95156 0.17659 0.38196 0.0
C689 C 0.97423 0.17583 0.49015 0.0
C690 C 0.98648 0.16572 0.54828 0.0
C691 C 0.99938 0.15094 0.52547 0.0
C692 C 0.01226 0.14283 0.57913 0.0
C693 C 0.01275 0.14975 0.65516 0.0
C694 C 1.00015 0.16453 0.6781 0.0
C695 C 0.98698 0.17242 0.62519 0.0
H696 H 0.02309 0.14386 0.69593 0.0
H697 H 0.93298 0.22669 0.09519 0.0
H698 H 0.27488 0.03436 0.29108 0.0
H699 H 0.29567 0.02566 0.39918 0.0
H700 H 0.27487 0.96654 0.38848 0.0
H701 H 0.25455 0.97524 0.27693 0.0
H702 H 0.30351 0.0087 0.53057 0.0
H703 H 0.30974 0.93884 0.37305 0.0
H704 H 0.29966 0.92264 0.25172 0.0
H705 H 0.30524 0.97658 0.12776 0.0
H706 H 0.31531 0.99302 0.24855 0.0
H707 H 0.40664 0.99146 0.58794 0.0
H708 H 0.3714 0.98589 0.59078 0.0
H709 H 0.36864 0.99888 0.34563 0.0
H710 H 0.40378 1.00388 0.34283 0.0
H711 H 0.34842 0.96801 0.37565 0.0
H712 H 0.35832 0.0307 0.49723 0.0
H713 H 0.36845 0.05398 0.59771 0.0
H714 H 0.33182 0.02528 0.76378 0.0
H715 H 0.32254 1.00101 0.66617 0.0
C716 C 0.274 0.01975 0.31452 0.0
C717 C 0.26367 1.00531 0.27511 0.0
C718 C 0.28583 0.01475 0.37671 0.0
C719 C 0.28743 0.99524 0.39975 0.0
C720 C 0.27422 0.98157 0.37 0.0
C721 C 0.26253 0.98654 0.30666 0.0
C722 C 0.30611 0.98904 0.4344 0.0
C723 C 0.31328 0.99932 0.49851 0.0
C724 C 0.3189 0.97695 0.39194 0.0
C725 C 0.31302 0.96712 0.31954 0.0
C726 C 0.30879 0.94718 0.31981 0.0
C727 C 0.30306 0.93799 0.25128 0.0
C728 C 0.3017 0.94861 0.18222 0.0
C729 C 0.30618 0.96841 0.18139 0.0
C730 C 0.31189 0.97766 0.24977 0.0
C731 C 0.39834 0.99326 0.53513 0.0
C732 C 0.40767 0.99824 0.46529 0.0
C733 C 0.37832 0.98999 0.5367 0.0
C734 C 0.36741 0.99196 0.46848 0.0
C735 C 0.37682 0.99708 0.39886 0.0
C736 C 0.39681 1.00005 0.39715 0.0
C737 C 0.34614 0.98897 0.4678 0.0
C738 C 0.33858 0.9766 0.41089 0.0
C739 C 0.33327 0.99992 0.51457 0.0
C740 C 0.34008 0.01371 0.57469 0.0
C741 C 0.35288 0.02897 0.55581 0.0
C742 C 0.35851 0.04234 0.61241 0.0
C743 C 0.35102 0.04094 0.68754 0.0
C744 C 0.33801 0.02608 0.70631 0.0
C745 C 0.33265 0.01244 0.65049 0.0
H746 H 0.35509 0.05152 0.7309 0.0
H747 H 0.29723 0.94147 0.12929 0.0
H748 H 0.4911 0.28294 0.30635 0.0
H749 H 0.50785 0.30312 0.39988 0.0
H750 H 0.56108 0.27172 0.35714 0.0
H751 H 0.54422 0.25194 0.25996 0.0
H752 H 0.52934 0.30779 0.51696 0.0
H753 H 0.59594 0.30369 0.32282 0.0
H754 H 0.60572 0.29132 0.1941 0.0
H755 H 0.54796 0.30093 0.10814 0.0
H756 H 0.53798 0.31353 0.236 0.0
H757 H 0.56023 0.40368 0.58009 0.0
H758 H 0.56607 0.36862 0.5718 0.0
H759 H 0.55124 0.37027 0.32841 0.0
H760 H 0.54607 0.40516 0.33621 0.0
H761 H 0.57562 0.34329 0.34753 0.0
H762 H 0.51859 0.36528 0.48045 0.0
H763 H 0.49798 0.37986 0.58155 0.0
H764 H 0.52009 0.33925 0.74889 0.0
H765 H 0.54173 0.32519 0.64994 0.0
C766 C 0.50615 0.27975 0.31975 0.0
C767 C 0.51655 0.26633 0.27526 0.0
C768 C 0.51577 0.29126 0.37351 0.0
C769 C 0.53594 0.28942 0.38354 0.0
C770 C 0.54562 0.2737 0.3488 0.0
C771 C 0.53598 0.2623 0.29382 0.0
C772 C 0.54671 0.30649 0.41352 0.0
C773 C 0.53992 0.31539 0.48137 0.0
C774 C 0.5602 0.31657 0.36598 0.0
C775 C 0.5662 0.30926 0.28895 0.0
C776 C 0.58538 0.30317 0.27631 0.0
C777 C 0.59095 0.29614 0.20356 0.0
C778 C 0.57746 0.29528 0.14308 0.0
C779 C 0.55839 0.30156 0.15503 0.0
C780 C 0.55279 0.30867 0.22753 0.0
C781 C 0.55888 0.39656 0.52438 0.0
C782 C 0.55249 0.40698 0.45885 0.0
C783 C 0.56217 0.37657 0.51977 0.0
C784 C 0.55867 0.36672 0.44998 0.0
C785 C 0.55406 0.3775 0.38301 0.0
C786 C 0.55108 0.39748 0.38735 0.0
C787 C 0.55696 0.34525 0.44758 0.0
C788 C 0.56584 0.33543 0.38581 0.0
C789 C 0.54403 0.33495 0.49705 0.0
C790 C 0.53223 0.34453 0.55816 0.0
C791 C 0.51951 0.35983 0.53931 0.0
C792 C 0.50761 0.368 0.59628 0.0
C793 C 0.50785 0.36062 0.6718 0.0
C794 C 0.5201 0.34515 0.69067 0.0
C795 C 0.53234 0.3372 0.63437 0.0
H796 H 0.49839 0.36674 0.71538 0.0
H797 H 0.58179 0.28978 0.08691 0.0
H798 H 0.25762 0.52341 0.30318 0.0
H799 H 0.23383 0.53526 0.39653 0.0
H800 H 0.21666 0.58008 0.2353 0.0
H801 H 0.24144 0.56925 0.14483 0.0
H802 H 0.20218 0.58866 0.37053 0.0
H803 H 0.19973 0.53158 0.20331 0.0
H804 H 0.21128 0.50016 0.152 0.0
H805 H 0.21074 0.47597 0.38175 0.0
H806 H 0.19898 0.50719 0.43423 0.0
H807 H 0.09901 0.572 0.32822 0.0
H808 H 0.13423 0.57703 0.31379 0.0
H809 H 0.14453 0.53775 0.50476 0.0
H810 H 0.10962 0.53329 0.52109 0.0
H811 H 0.16357 0.52777 0.37579 0.0
H812 H 0.15411 0.58664 0.52337 0.0
H813 H 0.13879 0.61823 0.55067 0.0
H814 H 0.15884 0.64023 0.3314 0.0
H815 H 0.17398 0.60861 0.30236 0.0
C816 C 0.24983 0.53668 0.29009 0.0
C817 C 0.25061 0.54489 0.2155 0.0
C818 C 0.23601 0.54332 0.34315 0.0
C819 C 0.22266 0.5577 0.3205 0.0
C820 C 0.22641 0.56858 0.25322 0.0
C821 C 0.24064 0.56236 0.20135 0.0
C822 C 0.20267 0.5577 0.35263 0.0
C823 C 0.19375 0.57535 0.37249 0.0
C824 C 0.19149 0.54039 0.35364 0.0
C825 C 0.19881 0.52173 0.32272 0.0
C826 C 0.20224 0.51958 0.24283 0.0
C827 C 0.20882 0.50185 0.21358 0.0
C828 C 0.21197 0.48617 0.26366 0.0
C829 C 0.2084 0.48816 0.34308 0.0
C830 C 0.20173 0.50584 0.3726 0.0
C831 C 0.10887 0.56487 0.36806 0.0
C832 C 0.10174 0.55243 0.42613 0.0
C833 C 0.1289 0.56784 0.36024 0.0
C834 C 0.14193 0.55812 0.40958 0.0
C835 C 0.1347 0.54578 0.46756 0.0
C836 C 0.11479 0.54319 0.47662 0.0
C837 C 0.16307 0.55866 0.39483 0.0
C838 C 0.1721 0.54104 0.3768 0.0
C839 C 0.17397 0.57609 0.39285 0.0
C840 C 0.16503 0.59517 0.41052 0.0
C841 C 0.15509 0.59814 0.48074 0.0
C842 C 0.14647 0.61607 0.49656 0.0
C843 C 0.14781 0.63122 0.44272 0.0
C844 C 0.15781 0.62848 0.37305 0.0
C845 C 0.16643 0.61055 0.35694 0.0
H846 H 0.14113 0.6451 0.45505 0.0
H847 H 0.21703 0.47245 0.24083 0.0
H848 H 0.02076 0.75123 0.0851 0.0
H849 H 0.03286 0.77428 0.98849 0.0
H850 H 0.98655 0.8138 0.04863 0.0
H851 H 0.97333 0.78999 0.13711 0.0
H852 H 0.99987 0.82746 0.93348 0.0
H853 H 0.02987 0.80425 0.16701 0.0
H854 H 0.04554 0.78072 0.25475 0.0
H855 H 0.09197 0.77315 0.09101 0.0
H856 H 0.07644 0.79665 0.00203 0.0
H857 H 0.0432 0.90683 0.11796 0.0
H858 H 0.04039 0.87161 0.11157 0.0
H859 H 0.06091 0.87244 0.87553 0.0
H860 H 0.06236 0.90777 0.8788 0.0
H861 H 0.06615 0.83644 0.04081 0.0
H862 H 0.02567 0.87284 0.82966 0.0
H863 H 0.00778 0.90373 0.8151 0.0
H864 H 0.97474 0.89109 0.01989 0.0
H865 H 0.99318 0.86072 0.03859 0.0
C866 C 0.0124 0.76423 0.07343 0.0
C867 C 0.99676 0.76942 0.12149 0.0
C868 C 0.0195 0.77758 0.01894 0.0
C869 C 0.01154 0.79639 0.01562 0.0
C870 C 0.99351 0.79971 0.0515 0.0
C871 C 0.98593 0.78606 0.10286 0.0
C872 C 0.02361 0.8135 0.99351 0.0
C873 C 0.01459 0.82909 0.95496 0.0
C874 C 0.04259 0.81624 0.0246 0.0
C875 C 0.0519 0.80201 0.07752 0.0
C876 C 0.04343 0.79758 0.14976 0.0
C877 C 0.05226 0.78423 0.19966 0.0
C878 C 0.06972 0.7754 0.17838 0.0
C879 C 0.0784 0.77996 0.10726 0.0
C880 C 0.06958 0.79328 0.05703 0.0
C881 C 0.04757 0.89954 0.06516 0.0
C882 C 0.05234 0.91021 0.99812 0.0
C883 C 0.04625 0.87936 0.06211 0.0
C884 C 0.0502 0.86958 0.99275 0.0
C885 C 0.05774 0.87987 0.92939 0.0
C886 C 0.05863 0.90011 0.93168 0.0
C887 C 0.04224 0.84992 0.98198 0.0
C888 C 0.05198 0.83415 0.01487 0.0
C889 C 0.02323 0.84748 0.95272 0.0
C890 C 0.01084 0.86457 0.93558 0.0
C891 C 0.01462 0.87667 0.87163 0.0
C892 C 1.00449 0.89414 0.86289 0.0
C893 C 0.99014 0.89934 0.91624 0.0
C894 C 0.98587 0.88707 0.97858 0.0
C895 C 0.99621 0.86978 0.98851 0.0
H896 H 0.9823 0.91285 0.90908 0.0
H897 H 0.07655 0.76505 0.21707 0.0
H898 H 0.73335 0.94982 0.21297 0.0
H899 H 0.71253 0.94507 0.1014 0.0
H900 H 0.7429 0.99074 0.97911 0.0
H901 H 0.76312 0.99621 0.09314 0.0
H902 H 0.70895 1.00208 0.0089 0.0
H903 H 0.73082 0.94542 0.8888 0.0
H904 H 0.74412 0.91242 0.87448 0.0
H905 H 0.69372 0.88856 0.98651 0.0
H906 H 0.68022 0.92141 0.00276 0.0
H907 H 0.61531 0.01368 0.8697 0.0
H908 H 0.64912 1.00365 0.85409 0.0
H909 H 0.64061 0.95859 0.02542 0.0
H910 H 0.60644 0.96802 0.03814 0.0
H911 H 0.6677 0.94759 0.91922 0.0
H912 H 0.65477 1.00467 0.07976 0.0
H913 H 0.64171 0.03755 0.10212 0.0
H914 H 0.67684 0.05987 0.91609 0.0
H915 H 0.68994 0.02703 0.89219 0.0
C916 C 0.7362 0.9582 0.16089 0.0
C917 C 0.74928 0.97386 0.16257 0.0
C918 C 0.72438 0.95534 0.09633 0.0
C919 C 0.72576 0.96789 0.03208 0.0
C920 C 0.74136 0.98108 0.02846 0.0
C921 C 0.753 0.98415 0.09369 0.0
C922 C 0.70807 0.97132 0.98463 0.0
C923 C 0.70035 0.9902 0.98599 0.0
C924 C 0.69649 0.95589 0.95624 0.0
C925 C 0.70449 0.93598 0.94698 0.0
C926 C 0.72261 0.93317 0.91087 0.0
C927 C 0.73018 0.91446 0.90234 0.0
C928 C 0.71977 0.8984 0.92954 0.0
C929 C 0.70176 0.90101 0.96531 0.0
C930 C 0.69411 0.91969 0.97401 0.0
C931 C 0.62059 1.00139 0.9028 0.0
C932 C 0.60846 0.99185 0.95623 0.0
C933 C 0.63985 0.99562 0.89364 0.0
C934 C 0.64749 0.98065 0.93982 0.0
C935 C 0.63502 0.9702 0.98922 0.0
C936 C 0.61558 0.9757 0.99708 0.0
C937 C 0.66878 0.97803 0.94661 0.0
C938 C 0.67688 0.95945 0.93807 0.0
C939 C 0.68085 0.99368 0.96886 0.0
C940 C 0.67314 0.01342 0.98363 0.0
C941 C 0.65962 0.01659 0.04344 0.0
C942 C 0.65222 0.0352 0.05638 0.0
C943 C 0.6584 0.05078 0.01039 0.0
C944 C 0.67204 0.04778 0.95153 0.0
C945 C 0.67946 0.02918 0.93826 0.0
H946 H 0.65265 0.06518 0.02048 0.0
H947 H 0.72567 0.88393 0.92289 0.0
H948 H 0.49194 0.73619 0.10956 0.0
H949 H 0.50214 0.71543 0.00398 0.0
H950 H 0.55978 0.74011 0.01422 0.0
H951 H 0.5496 0.76038 0.12366 0.0
H952 H 0.51894 0.70793 0.87581 0.0
H953 H 0.59057 0.70601 0.02887 0.0
H954 H 0.60652 0.71779 0.14831 0.0
H955 H 0.55279 0.71199 0.27317 0.0
H956 H 0.53665 0.70007 0.15452 0.0
H957 H 0.53445 0.60617 0.82911 0.0
H958 H 0.54378 0.64038 0.82193 0.0
H959 H 0.53462 0.64578 0.06861 0.0
H960 H 0.52633 0.61152 0.07699 0.0
H961 H 0.56389 0.6668 0.02927 0.0
H962 H 0.50056 0.65236 0.92233 0.0
H963 H 0.47639 0.64014 0.82926 0.0
H964 H 0.49975 0.67759 0.65309 0.0
H965 H 0.52515 0.68868 0.74252 0.0
C966 C 0.50651 0.73788 0.08657 0.0
C967 C 0.52018 0.74931 0.12557 0.0
C968 C 0.51238 0.72605 0.02579 0.0
C969 C 0.53201 0.72558 0.00344 0.0
C970 C 0.54472 0.73983 0.03229 0.0
C971 C 0.53888 0.75151 0.09438 0.0
C972 C 0.53943 0.70723 0.96972 0.0
C973 C 0.52923 0.699 0.90752 0.0
C974 C 0.55273 0.69554 0.01173 0.0
C975 C 0.56244 0.70241 0.08304 0.0
C976 C 0.58223 0.70724 0.08194 0.0
C977 C 0.59128 0.71394 0.14939 0.0
C978 C 0.58066 0.7157 0.2182 0.0
C979 C 0.56099 0.71067 0.21985 0.0
C980 C 0.5519 0.70393 0.15262 0.0
C981 C 0.53499 0.6145 0.88224 0.0
C982 C 0.52943 0.60617 0.95374 0.0
C983 C 0.54023 0.63409 0.87776 0.0
C984 C 0.53972 0.64569 0.94439 0.0
C985 C 0.53517 0.63712 0.01627 0.0
C986 C 0.53016 0.61757 0.02095 0.0
C987 C 0.54197 0.66706 0.94023 0.0
C988 C 0.5544 0.67583 0.99414 0.0
C989 C 0.52964 0.6789 0.89416 0.0
C990 C 0.51525 0.67088 0.83862 0.0
C991 C 0.50104 0.65745 0.86287 0.0
C992 C 0.48713 0.65065 0.8105 0.0
C993 C 0.48679 0.65771 0.73449 0.0
C994 C 0.50039 0.67157 0.71084 0.0
C995 C 0.51468 0.67799 0.76217 0.0
H996 H 0.47583 0.65269 0.69431 0.0
H997 H 0.58768 0.72093 0.27028 0.0
H998 H 0.7498 0.52459 0.09648 0.0
H999 H 0.76838 0.52922 0.97678 0.0
H1000 H 0.80045 0.47671 0.02605 0.0
H1001 H 0.78137 0.47168 0.14239 0.0
H1002 H 0.80333 0.53808 0.9987 0.0
H1003 H 0.82793 0.46034 0.8904 0.0
H1004 H 0.81174 0.43008 0.85123 0.0
H1005 H 0.75959 0.46165 0.79951 0.0
H1006 H 0.77561 0.49229 0.83585 0.0
H1007 H 0.89642 0.50844 0.0546 0.0
H1008 H 0.86129 0.51117 0.0378 0.0
H1009 H 0.86908 0.52165 0.79293 0.0
H1010 H 0.90441 0.5194 0.80981 0.0
H1011 H 0.84027 0.49042 0.84207 0.0
H1012 H 0.85292 0.55758 0.866 0.0
H1013 H 0.86939 0.58656 0.91803 0.0
H1014 H 0.84623 0.57446 0.14444 0.0
H1015 H 0.82986 0.54526 0.09413 0.0
C1016 C 0.76006 0.5135 0.07912 0.0
C1017 C 0.76458 0.49804 0.12925 0.0
C1018 C 0.77072 0.51619 0.01083 0.0
C1019 C 0.78604 0.5035 0.9925 0.0
C1020 C 0.78863 0.48665 0.03759 0.0
C1021 C 0.77786 0.48387 0.10504 0.0
C1022 C 0.80235 0.51009 0.94256 0.0
C1023 C 0.81108 0.52785 0.96238 0.0
C1024 C 0.81235 0.49709 0.89297 0.0
C1025 C 0.80305 0.47876 0.86593 0.0
C1026 C 0.81313 0.46098 0.86939 0.0
C1027 C 0.80393 0.44369 0.84806 0.0
C1028 C 0.78462 0.44393 0.82327 0.0
C1029 C 0.77452 0.46148 0.81913 0.0
C1030 C 0.78368 0.47883 0.83983 0.0
C1031 C 0.89068 0.51147 0.99734 0.0
C1032 C 0.90312 0.51352 0.93337 0.0
C1033 C 0.87066 0.51305 0.98777 0.0
C1034 C 0.86271 0.51654 0.91407 0.0
C1035 C 0.87501 0.51891 0.85011 0.0
C1036 C 0.89513 0.51768 0.85997 0.0
C1037 C 0.84141 0.51716 0.90596 0.0
C1038 C 0.83192 0.50092 0.87485 0.0
C1039 C 0.83062 0.53145 0.94546 0.0
C1040 C 0.84009 0.54925 0.97607 0.0
C1041 C 0.85137 0.56107 0.92692 0.0
C1042 C 0.8607 0.57754 0.95614 0.0
C1043 C 0.85884 0.58237 0.03446 0.0
C1044 C 0.84762 0.57075 0.08372 0.0
C1045 C 0.83826 0.55426 0.05481 0.0
H1046 H 0.86609 0.59511 0.05699 0.0
H1047 H 0.77753 0.43052 0.80692 0.0
H1048 H 0.99644 0.22918 0.91914 0.0
H1049 H 0.99635 0.1976 0.85247 0.0
H1050 H 0.03625 0.17496 0.02308 0.0
H1051 H 0.03689 0.20644 0.08719 0.0
H1052 H 0.04546 0.15989 0.89467 0.0
H1053 H 0.98447 0.16552 0.02971 0.0
H1054 H 0.95295 0.17992 0.06549 0.0
H1055 H 0.93469 0.17798 0.82758 0.0
H1056 H 0.96593 0.16309 0.79066 0.0
H1057 H 0.02404 0.05856 0.876 0.0
H1058 H 0.0259 0.09243 0.91758 0.0
H1059 H 0.99643 0.11044 0.70895 0.0
H1060 H 0.99465 0.07653 0.66631 0.0
H1061 H 0.9819 0.12834 0.84545 0.0
H1062 H 0.04375 0.11627 0.72301 0.0
H1063 H 0.07462 0.09898 0.70309 0.0
H1064 H 0.09143 0.11117 0.93776 0.0
H1065 H 0.06052 0.12838 0.95952 0.0
C1066 C 1.0056 0.2176 0.94084 0.0
C1067 C 0.01665 0.22034 0.00852 0.0
C1068 C 1.00531 0.19941 0.90354 0.0
C1069 C 0.01593 0.18356 0.93357 0.0
C1070 C 0.02782 0.18674 0.9985 0.0
C1071 C 0.02819 0.20483 0.03525 0.0
C1072 C 0.0144 0.16349 0.89986 0.0
C1073 C 0.03152 0.153 0.88466 0.0
C1074 C 0.9963 0.1543 0.88577 0.0
C1075 C 0.97764 0.1635 0.90728 0.0
C1076 C 0.97379 0.16832 0.98497 0.0
C1077 C 0.95595 0.17652 0.00549 0.0
C1078 C 0.94192 0.18011 0.94875 0.0
C1079 C 0.94561 0.17529 0.87143 0.0
C1080 C 0.96334 0.16687 0.85071 0.0
C1081 C 0.01793 0.06967 0.83873 0.0
C1082 C 0.00925 0.06471 0.76753 0.0
C1083 C 0.01907 0.08909 0.86261 0.0
C1084 C 0.01145 0.10407 0.81625 0.0
C1085 C 1.00248 0.09919 0.7457 0.0
C1086 C 1.00155 0.07976 0.72125 0.0
C1087 C 0.01292 0.12478 0.84161 0.0
C1088 C 0.99581 0.13533 0.85518 0.0
C1089 C 0.03104 0.1338 0.85653 0.0
C1090 C 0.04972 0.12356 0.84306 0.0
C1091 C 0.05395 0.11522 0.77057 0.0
C1092 C 0.07148 0.10542 0.75891 0.0
C1093 C 0.08497 0.10395 0.81914 0.0
C1094 C 0.08097 0.11232 0.89114 0.0
C1095 C 0.06345 0.12212 0.90313 0.0
H1096 H 0.09853 0.09636 0.80999 0.0
H1097 H 0.92815 0.18652 0.96479 0.0
H1098 H 0.2813 0.99861 0.91921 0.0
H1099 H 0.31303 0.99934 0.85361 0.0
H1100 H 0.33538 0.03673 0.03319 0.0
H1101 H 0.30366 0.0372 0.09458 0.0
H1102 H 0.35163 0.04735 0.91213 0.0
H1103 H 0.34252 0.98224 0.01944 0.0
H1104 H 0.32576 0.95072 0.03345 0.0
H1105 H 0.33112 0.94086 0.78854 0.0
H1106 H 0.34792 0.97234 0.77306 0.0
H1107 H 0.45247 0.02643 0.90618 0.0
H1108 H 0.41795 0.02798 0.93901 0.0
H1109 H 0.40355 1.00001 0.72348 0.0
H1110 H 0.43813 0.99847 0.68954 0.0
H1111 H 0.38256 0.9846 0.84499 0.0
H1112 H 0.39551 0.04724 0.74132 0.0
H1113 H 0.41286 0.07833 0.7258 0.0
H1114 H 0.40014 0.09301 0.96238 0.0
H1115 H 0.38291 0.06186 0.97967 0.0
C1116 C 0.29286 0.00739 0.94336 0.0
C1117 C 0.2899 0.01759 0.01301 0.0
C1118 C 0.3112 0.00751 0.90666 0.0
C1119 C 0.32711 0.01753 0.93956 0.0
C1120 C 0.32368 0.02866 0.00636 0.0
C1121 C 0.30541 0.02883 0.04192 0.0
C1122 C 0.34744 0.01634 0.90688 0.0
C1123 C 0.35839 0.03353 0.89878 0.0
C1124 C 0.35636 0.99852 0.88572 0.0
C1125 C 0.34632 0.97965 0.89505 0.0
C1126 C 0.34005 0.97336 0.96859 0.0
C1127 C 0.33055 0.95552 0.97678 0.0
C1128 C 0.3273 0.94384 0.91191 0.0
C1129 C 0.33362 0.94993 0.83871 0.0
C1130 C 0.34317 0.96774 0.8302 0.0
C1131 C 0.44204 0.02057 0.86548 0.0
C1132 C 0.44828 0.01234 0.79499 0.0
C1133 C 0.42221 0.02154 0.88431 0.0
C1134 C 0.408 0.01424 0.83348 0.0
C1135 C 0.41416 1.00577 0.76359 0.0
C1136 C 0.43401 1.00497 0.74424 0.0
C1137 C 0.38681 0.01548 0.85365 0.0
C1138 C 0.37574 0.99837 0.85874 0.0
C1139 C 0.37776 0.03335 0.87213 0.0
C1140 C 0.38806 0.05213 0.86199 0.0
C1141 C 0.39654 0.05702 0.79025 0.0
C1142 C 0.40633 0.07467 0.78108 0.0
C1143 C 0.40764 0.08762 0.84312 0.0
C1144 C 0.39913 0.08296 0.9144 0.0
C1145 C 0.38932 0.06532 0.92389 0.0
H1146 H 0.41523 0.10128 0.83592 0.0
H1147 H 0.31993 0.93004 0.91841 0.0
H1148 H 0.47421 0.30262 0.09757 0.0
H1149 H 0.47401 0.33422 0.03338 0.0
H1150 H 0.5157 0.31343 0.86621 0.0
H1151 H 0.51618 0.28163 0.93234 0.0
H1152 H 0.52707 0.34748 0.91725 0.0
H1153 H 0.46758 0.32478 0.81438 0.0
H1154 H 0.43506 0.30975 0.81407 0.0
H1155 H 0.41379 0.35467 0.96404 0.0
H1156 H 0.44626 0.36983 0.96615 0.0
H1157 H 0.51924 0.43655 0.70149 0.0
H1158 H 0.51812 0.40248 0.74099 0.0
H1159 H 0.48101 0.41746 0.93325 0.0
H1160 H 0.48177 0.45164 0.89303 0.0
H1161 H 0.46771 0.38534 0.85681 0.0
H1162 H 0.52975 0.40706 0.95756 0.0
H1163 H 0.56254 0.42132 0.94736 0.0
H1164 H 0.57906 0.37724 0.78486 0.0
H1165 H 0.54649 0.36267 0.79413 0.0
C1166 C 0.48289 0.30458 0.04565 0.0
C1167 C 0.49496 0.2895 0.01927 0.0
C1168 C 0.48281 0.32274 0.00888 0.0
C1169 C 0.49472 0.32639 0.94414 0.0
C1170 C 0.50632 0.31108 0.91583 0.0
C1171 C 0.50639 0.2928 0.95289 0.0
C1172 C 0.49584 0.34651 0.91021 0.0
C1173 C 0.51407 0.3556 0.90276 0.0
C1174 C 0.47897 0.35741 0.89182 0.0
C1175 C 0.45941 0.34835 0.89094 0.0
C1176 C 0.45601 0.33137 0.84781 0.0
C1177 C 0.43758 0.32284 0.84722 0.0
C1178 C 0.42238 0.33122 0.88915 0.0
C1179 C 0.42558 0.34818 0.93164 0.0
C1180 C 0.44399 0.35676 0.93248 0.0
C1181 C 0.51068 0.43266 0.75181 0.0
C1182 C 0.50043 0.44697 0.79345 0.0
C1183 C 0.51023 0.41309 0.7749 0.0
C1184 C 0.4996 0.40726 0.84063 0.0
C1185 C 0.48934 0.42151 0.88237 0.0
C1186 C 0.48986 0.44111 0.85944 0.0
C1187 C 0.49886 0.38635 0.86522 0.0
C1188 C 0.48069 0.37716 0.87102 0.0
C1189 C 0.51581 0.37526 0.88034 0.0
C1190 C 0.53552 0.38393 0.87559 0.0
C1191 C 0.54032 0.40049 0.91918 0.0
C1192 C 0.55889 0.40861 0.91375 0.0
C1193 C 0.57282 0.40029 0.86518 0.0
C1194 C 0.56825 0.38373 0.82229 0.0
C1195 C 0.54973 0.3755 0.82772 0.0
H1196 H 0.58717 0.40663 0.86103 0.0
H1197 H 0.40812 0.3246 0.8886 0.0
H1198 H 0.2183 0.54219 0.97184 0.0
H1199 H 0.18593 0.53823 0.92064 0.0
H1200 H 0.19288 0.47589 0.92708 0.0
H1201 H 0.22476 0.47997 0.98849 0.0
H1202 H 0.16832 0.52859 0.81322 0.0
H1203 H 0.15133 0.45179 0.93779 0.0
H1204 H 0.1592 0.43181 0.05274 0.0
H1205 H 0.17139 0.48336 0.18353 0.0
H1206 H 0.16381 0.50362 0.06925 0.0
H1207 H 0.07759 0.50399 0.65163 0.0
H1208 H 0.11154 0.5043 0.69314 0.0
H1209 H 0.09327 0.49964 0.93199 0.0
H1210 H 0.0594 0.49856 0.89061 0.0
H1211 H 0.12315 0.47961 0.92241 0.0
H1212 H 0.1078 0.54194 0.84148 0.0
H1213 H 0.0973 0.57011 0.76413 0.0
H1214 H 0.1454 0.56189 0.60952 0.0
H1215 H 0.15522 0.53264 0.68127 0.0
C1216 C 0.21297 0.52756 0.96301 0.0
C1217 C 0.22408 0.51142 0.98675 0.0
C1218 C 0.19433 0.52527 0.93252 0.0
C1219 C 0.1863 0.50671 0.92122 0.0
C1220 C 0.19814 0.49045 0.93782 0.0
C1221 C 0.21668 0.49276 0.97133 0.0
C1222 C 0.16555 0.50478 0.89379 0.0
C1223 C 0.15853 0.5178 0.83719 0.0
C1224 C 0.15222 0.49128 0.92644 0.0
C1225 C 0.15724 0.47917 0.99471 0.0
C1226 C 0.15578 0.45883 0.99102 0.0
C1227 C 0.16024 0.44747 0.05598 0.0
C1228 C 0.16596 0.45631 0.12519 0.0
C1229 C 0.16721 0.47653 0.12963 0.0
C1230 C 0.16289 0.48795 0.06473 0.0
C1231 C 0.08077 0.50293 0.71303 0.0
C1232 C 0.06563 0.50125 0.76764 0.0
C1233 C 0.10028 0.50318 0.73685 0.0
C1234 C 0.10521 0.50218 0.81608 0.0
C1235 C 0.09007 0.5003 0.87053 0.0
C1236 C 0.07059 0.49977 0.84669 0.0
C1237 C 0.12601 0.50354 0.84232 0.0
C1238 C 0.133 0.49035 0.89825 0.0
C1239 C 0.13889 0.51803 0.81396 0.0
C1240 C 0.13205 0.53472 0.76618 0.0
C1241 C 0.11579 0.54569 0.78942 0.0
C1242 C 0.1099 0.56186 0.74622 0.0
C1243 C 0.12047 0.5676 0.68091 0.0
C1244 C 0.13691 0.55715 0.65868 0.0
C1245 C 0.14255 0.54065 0.70021 0.0
H1246 H 0.11607 0.58027 0.64803 0.0
H1247 H 0.16934 0.4475 0.17549 0.0
H1248 H 0.96742 0.78926 0.40336 0.0
H1249 H 0.96895 0.82124 0.4654 0.0
H1250 H 0.03152 0.81841 0.46351 0.0
H1251 H 0.0299 0.78648 0.40069 0.0
H1252 H 0.98305 0.83796 0.59354 0.0
H1253 H 0.04957 0.86221 0.41679 0.0
H1254 H 0.06606 0.85415 0.29378 0.0
H1255 H 0.01183 0.83544 0.1963 0.0
H1256 H 0.99505 0.84333 0.3188 0.0
H1257 H 0.01532 0.93132 0.72603 0.0
H1258 H 0.0144 0.89731 0.68384 0.0
H1259 H 0.99148 0.91511 0.4626 0.0
H1260 H 0.9926 0.9491 0.50338 0.0
H1261 H 0.01935 0.88797 0.44476 0.0
H1262 H 0.96319 0.89644 0.60206 0.0
H1263 H 0.94326 0.90363 0.7171 0.0
H1264 H 0.97092 0.85729 0.84214 0.0
H1265 H 0.99172 0.85041 0.72921 0.0
C1266 C 0.98146 0.79513 0.41928 0.0
C1267 C 0.99852 0.78515 0.3991 0.0
C1268 C 0.98235 0.81352 0.45405 0.0
C1269 C 1.00035 0.82251 0.46824 0.0
C1270 C 0.01743 0.81199 0.4524 0.0
C1271 C 0.01652 0.79357 0.41773 0.0
C1272 C 1.00116 0.84328 0.49416 0.0
C1273 C 0.99116 0.84887 0.56156 0.0
C1274 C 0.01126 0.85773 0.45134 0.0
C1275 C 0.02113 0.85319 0.37713 0.0
C1276 C 0.04118 0.8564 0.36904 0.0
C1277 C 0.05058 0.8518 0.29955 0.0
C1278 C 0.04002 0.84414 0.2376 0.0
C1279 C 0.02002 0.84121 0.24465 0.0
C1280 C 0.01057 0.84569 0.31415 0.0
C1281 C 0.00995 0.92805 0.66851 0.0
C1282 C 1.00386 0.94311 0.61856 0.0
C1283 C 0.00937 0.90854 0.64469 0.0
C1284 C 1.00254 0.90351 0.57064 0.0
C1285 C 0.99674 0.91851 0.52019 0.0
C1286 C 0.99735 0.93802 0.54381 0.0
C1287 C 1.00158 0.88267 0.54554 0.0
C1288 C 0.01149 0.87708 0.47782 0.0
C1289 C 0.99112 0.86829 0.5877 0.0
C1290 C 0.97928 0.8731 0.65721 0.0
C1291 C 0.96536 0.88804 0.65454 0.0
C1292 C 0.95387 0.89205 0.71944 0.0
C1293 C 0.95587 0.88097 0.78697 0.0
C1294 C 0.96941 0.86589 0.78983 0.0
C1295 C 0.98116 0.86203 0.72555 0.0
H1296 H 0.94691 0.88404 0.83706 0.0
H1297 H 0.04736 0.84057 0.18403 0.0
H1298 H 0.70804 0.01211 0.30376 0.0
H1299 H 0.67767 0.01611 0.37338 0.0
H1300 H 0.70615 1.00078 0.58777 0.0
H1301 H 0.73682 0.99578 0.51637 0.0
H1302 H 0.67264 0.98264 0.58183 0.0
H1303 H 0.68983 0.04874 0.54656 0.0
H1304 H 0.70109 0.07804 0.47721 0.0
H1305 H 0.65202 0.07467 0.32429 0.0
H1306 H 0.64059 0.04521 0.39206 0.0
H1307 H 0.58223 1.00707 0.7728 0.0
H1308 H 0.6165 0.00735 0.73262 0.0
H1309 H 0.59915 0.01325 0.49387 0.0
H1310 H 0.56502 0.01277 0.53277 0.0
H1311 H 0.62892 0.03858 0.53266 0.0
H1312 H 0.61429 0.97022 0.56305 0.0
H1313 H 0.60277 0.94173 0.63697 0.0
H1314 H 0.6474 0.95081 0.80657 0.0
H1315 H 0.65905 0.97957 0.73438 0.0
C1316 C 0.70797 0.00971 0.36591 0.0
C1317 C 0.72493 1.00348 0.40425 0.0
C1318 C 0.69052 0.01219 0.40605 0.0
C1319 C 0.68943 0.00902 0.4865 0.0
C1320 C 0.7065 1.00338 0.5258 0.0
C1321 C 0.7241 1.00072 0.48514 0.0
C1322 C 0.67018 0.01076 0.52732 0.0
C1323 C 0.6633 0.99511 0.57239 0.0
C1324 C 0.65767 0.02687 0.51496 0.0
C1325 C 0.66441 0.04469 0.47422 0.0
C1326 C 0.6815 0.05418 0.49787 0.0
C1327 C 0.6879 0.07083 0.45887 0.0
C1328 C 0.67729 0.0782 0.39633 0.0
C1329 C 0.66022 0.06895 0.37276 0.0
C1330 C 0.65375 0.0523 0.41155 0.0
C1331 C 0.58568 0.00844 0.7117 0.0
C1332 C 0.57074 0.00983 0.65605 0.0
C1333 C 0.60531 0.00857 0.68892 0.0
C1334 C 0.61049 0.0103 0.61026 0.0
C1335 C 0.59561 0.01194 0.55491 0.0
C1336 C 0.57603 0.01155 0.57735 0.0
C1337 C 0.63132 0.0103 0.58496 0.0
C1338 C 0.63844 0.02629 0.54294 0.0
C1339 C 0.64408 0.99465 0.60098 0.0
C1340 C 0.6374 0.97717 0.64375 0.0
C1341 C 0.62157 0.96623 0.61643 0.0
C1342 C 0.61503 0.95003 0.65801 0.0
C1343 C 0.62432 0.94453 0.72663 0.0
C1344 C 0.64021 0.95515 0.75361 0.0
C1345 C 0.6468 0.97139 0.71234 0.0
H1346 H 0.61925 0.93198 0.75868 0.0
H1347 H 0.68228 0.09108 0.36618 0.0
H1348 H 0.48843 0.70936 0.30224 0.0
H1349 H 0.48772 0.67805 0.36615 0.0
H1350 H 0.52217 0.701 0.5538 0.0
H1351 H 0.52437 0.73238 0.48529 0.0
H1352 H 0.53522 0.66766 0.52882 0.0
H1353 H 0.47067 0.68789 0.56835 0.0
H1354 H 0.43826 0.70114 0.53873 0.0
H1355 H 0.42775 0.65423 0.3806 0.0
H1356 H 0.46021 0.64082 0.40851 0.0
H1357 H 0.51313 0.57885 0.7446 0.0
H1358 H 0.51323 0.61305 0.70374 0.0
H1359 H 0.49975 0.59575 0.4699 0.0
H1360 H 0.49994 0.56157 0.50976 0.0
H1361 H 0.47566 0.62711 0.53497 0.0
H1362 H 0.54392 0.60848 0.50802 0.0
H1363 H 0.57479 0.5961 0.56112 0.0
H1364 H 0.57569 0.64231 0.72789 0.0
H1365 H 0.54469 0.65479 0.67641 0.0
C1366 C 0.49589 0.70789 0.35725 0.0
C1367 C 0.50671 0.7235 0.38777 0.0
C1368 C 0.49523 0.68986 0.39464 0.0
C1369 C 0.50466 0.68687 0.46592 0.0
C1370 C 0.51477 0.70271 0.49879 0.0
C1371 C 0.5158 0.7208 0.46015 0.0
C1372 C 0.50456 0.66699 0.50304 0.0
C1373 C 0.52206 0.65901 0.53092 0.0
C1374 C 0.48748 0.6554 0.50742 0.0
C1375 C 0.46797 0.66344 0.49005 0.0
C1376 C 0.46152 0.68047 0.52682 0.0
C1377 C 0.44312 0.688 0.51041 0.0
C1378 C 0.43098 0.67856 0.45767 0.0
C1379 C 0.43719 0.66154 0.42137 0.0
C1380 C 0.45557 0.65395 0.43754 0.0
C1381 C 0.51029 0.58227 0.68433 0.0
C1382 C 0.50662 0.56732 0.63045 0.0
C1383 C 0.51038 0.60188 0.66108 0.0
C1384 C 0.50655 0.60703 0.58361 0.0
C1385 C 0.50276 0.59218 0.52994 0.0
C1386 C 0.50297 0.57258 0.55282 0.0
C1387 C 0.50629 0.62785 0.5581 0.0
C1388 C 0.48871 0.63594 0.53268 0.0
C1389 C 0.52307 0.63976 0.55925 0.0
C1390 C 0.54188 0.63244 0.58894 0.0
C1391 C 0.55063 0.61591 0.55639 0.0
C1392 C 0.56816 0.60889 0.58613 0.0
C1393 C 0.57716 0.61837 0.64801 0.0
C1394 C 0.56869 0.63496 0.68002 0.0
C1395 C 0.55115 0.64202 0.65056 0.0
H1396 H 0.59073 0.61291 0.67101 0.0
H1397 H 0.41674 0.68442 0.44505 0.0
H1398 H 0.79603 0.47186 0.36618 0.0
H1399 H 0.82748 0.47363 0.43103 0.0
H1400 H 0.81363 0.53107 0.51336 0.0
H1401 H 0.78203 0.52939 0.44681 0.0
H1402 H 0.84898 0.5311 0.45253 0.0
H1403 H 0.8162 0.4919 0.63458 0.0
H1404 H 0.79552 0.46492 0.67843 0.0
H1405 H 0.83847 0.42382 0.60406 0.0
H1406 H 0.859 0.45056 0.55528 0.0
H1407 H 0.93341 0.4992 0.73534 0.0
H1408 H 0.89913 0.49947 0.69902 0.0
H1409 H 0.91491 0.51017 0.46077 0.0
H1410 H 0.94928 0.50998 0.49648 0.0
H1411 H 0.87698 0.47895 0.61692 0.0
H1412 H 0.88037 0.53558 0.36611 0.0
H1413 H 0.89923 0.56471 0.32978 0.0
H1414 H 0.91313 0.57464 0.56921 0.0
H1415 H 0.89414 0.54574 0.60707 0.0
C1416 C 0.79946 0.48468 0.39983 0.0
C1417 C 0.78643 0.50041 0.40195 0.0
C1418 C 0.81752 0.48571 0.43686 0.0
C1419 C 0.82309 0.50247 0.47753 0.0
C1420 C 0.80977 0.51796 0.48237 0.0
C1421 C 0.79158 0.51691 0.44528 0.0
C1422 C 0.84318 0.50402 0.51091 0.0
C1423 C 0.85505 0.51971 0.48868 0.0
C1424 C 0.85116 0.48945 0.55977 0.0
C1425 C 0.83908 0.47328 0.59051 0.0
C1426 C 0.82119 0.47711 0.62679 0.0
C1427 C 0.80948 0.46184 0.65259 0.0
C1428 C 0.81571 0.44265 0.64462 0.0
C1429 C 0.83365 0.4387 0.61027 0.0
C1430 C 0.8453 0.45392 0.5831 0.0
C1431 C 0.92967 0.50175 0.67516 0.0
C1432 C 0.94429 0.50474 0.61903 0.0
C1433 C 0.90996 0.5019 0.65449 0.0
C1434 C 0.9042 0.5053 0.57746 0.0
C1435 C 0.91878 0.50801 0.52105 0.0
C1436 C 0.93853 0.50779 0.54155 0.0
C1437 C 0.88301 0.50569 0.55626 0.0
C1438 C 0.87092 0.49038 0.58094 0.0
C1439 C 0.8747 0.52086 0.51141 0.0
C1440 C 0.88598 0.53839 0.48927 0.0
C1441 C 0.88738 0.54403 0.41101 0.0
C1442 C 0.89811 0.56049 0.39016 0.0
C1443 C 0.90742 0.57148 0.44713 0.0
C1444 C 0.90597 0.56608 0.52511 0.0
C1445 C 0.89524 0.54964 0.54629 0.0
H1446 H 0.91573 0.58421 0.43085 0.0
H1447 H 0.80663 0.43085 0.66497 0.0
loop_
_geom_bond_atom_site_label_1
_geom_bond_atom_site_label_2
_geom_bond_distance
_geom_bond_site_symmetry_2
_ccdc_geom_bond_type
H0 C3 0.929 . S
H1 C6 0.929 . S
H2 C8 0.930 . S
C3 H0 0.929 . S
C3 C4 1.398 . S
C3 C5 1.396 . S
C4 C3 1.398 . S
C4 C8 1.407 . S
C5 C3 1.396 . S
C5 C6 1.394 . S
C6 H1 0.929 . S
C6 C5 1.394 . S
C6 C7 1.382 . S
C7 C6 1.382 . S
C7 C8 1.392 . S
C7 N9 1.420 . S
C8 H2 0.930 . S
C8 C4 1.407 . S
C8 C7 1.392 . S
N9 C7 1.420 . S
N9 C10 1.244 . S
C10 N9 1.244 . S
H11 C14 0.929 . S
H12 C17 0.929 . S
H13 C19 0.930 . S
C14 H11 0.929 . S
C14 C15 1.398 1_655 S
C14 C16 1.396 . S
C15 C14 1.398 1_455 S
C15 C19 1.407 . S
C16 C14 1.396 . S
C16 C17 1.394 1_655 S
C17 H12 0.929 . S
C17 C16 1.394 1_455 S
C17 C18 1.382 . S
C18 C17 1.382 . S
C18 C19 1.392 . S
C18 N20 1.420 . S
C19 H13 0.930 . S
C19 C15 1.407 . S
C19 C18 1.392 . S
N20 C18 1.420 . S
N20 C21 1.220 1_455 S
C21 N20 1.220 1_655 S
H22 C25 0.929 . S
H23 C28 0.929 . S
H24 C30 0.930 . S
C25 H22 0.929 . S
C25 C26 1.400 . S
C25 C27 1.399 . S
C26 C25 1.400 . S
C26 C30 1.405 1_565 S
C27 C25 1.399 . S
C27 C28 1.389 1_565 S
C28 H23 0.929 . S
C28 C27 1.389 1_545 S
C28 C29 1.382 . S
C29 C28 1.382 . S
C29 C30 1.392 . S
C29 N31 1.420 . S
C30 H24 0.930 . S
C30 C26 1.405 1_545 S
C30 C29 1.392 . S
N31 C29 1.420 . S
N31 C32 1.244 1_545 S
C32 N31 1.244 1_565 S
H33 C36 0.929 . S
H34 C39 0.929 . S
H35 C41 0.930 . S
C36 H33 0.929 . S
C36 C37 1.398 . S
C36 C38 1.396 . S
C37 C36 1.398 . S
C37 C41 1.407 . S
C38 C36 1.396 . S
C38 C39 1.394 . S
C39 H34 0.929 . S
C39 C38 1.394 . S
C39 C40 1.382 . S
C40 C39 1.382 . S
C40 C41 1.392 . S
C40 N42 1.420 . S
C41 H35 0.930 . S
C41 C37 1.407 . S
C41 C40 1.392 . S
N42 C40 1.420 . S
N42 C43 1.244 . S
C43 N42 1.244 . S
H44 C47 0.929 . S
H45 C50 0.929 . S
H46 C52 0.930 . S
C47 H44 0.929 . S
C47 C48 1.398 1_554 S
C47 C49 1.396 . S
C48 C47 1.398 1_556 S
C48 C52 1.407 . S
C49 C47 1.396 . S
C49 C50 1.394 . S
C50 H45 0.929 . S
C50 C49 1.394 . S
C50 C51 1.382 . S
C51 C50 1.382 . S
C51 C52 1.392 1_554 S
C51 N53 1.420 . S
C52 H46 0.930 . S
C52 C48 1.407 . S
C52 C51 1.392 1_556 S
N53 C51 1.420 . S
N53 C54 1.244 . S
C54 N53 1.244 . S
H55 C58 0.929 . S
H56 C61 0.929 . S
H57 C63 0.930 . S
C58 H55 0.929 . S
C58 C59 1.398 1_654 S
C58 C60 1.396 1_655 S
C59 C58 1.398 1_456 S
C59 C63 1.407 . S
C60 C58 1.396 1_455 S
C60 C61 1.394 . S
C61 H56 0.929 . S
C61 C60 1.394 . S
C61 C62 1.382 . S
C62 C61 1.382 . S
C62 C63 1.392 1_554 S
C62 N64 1.420 . S
C63 H57 0.930 . S
C63 C59 1.407 . S
C63 C62 1.392 1_556 S
N64 C62 1.420 . S
N64 C65 1.273 . S
C65 N64 1.273 . S
H66 C69 0.935 . S
H67 C72 0.929 . S
H68 C74 0.930 . S
C69 H66 0.935 . S
C69 C70 1.396 1_564 S
C69 C71 1.394 1_565 S
C70 C69 1.396 1_546 S
C70 C74 1.407 . S
C71 C69 1.394 1_545 S
C71 C72 1.394 . S
C72 H67 0.929 . S
C72 C71 1.394 . S
C72 C73 1.382 . S
C73 C72 1.382 . S
C73 C74 1.392 1_554 S
C73 N75 1.420 . S
C74 H68 0.930 . S
C74 C70 1.407 . S
C74 C73 1.392 1_556 S
N75 C73 1.420 . S
N75 C76 1.258 . S
C76 N75 1.258 . S
H77 C80 0.929 . S
H78 C83 0.929 . S
H79 C85 0.930 . S
C80 H77 0.929 . S
C80 C81 1.398 1_554 S
C80 C82 1.396 . S
C81 C80 1.398 1_556 S
C81 C85 1.407 . S
C82 C80 1.396 . S
C82 C83 1.394 . S
C83 H78 0.929 . S
C83 C82 1.394 . S
C83 C84 1.382 . S
C84 C83 1.382 . S
C84 C85 1.392 1_554 S
C84 N86 1.420 . S
C85 H79 0.930 . S
C85 C81 1.407 . S
C85 C84 1.392 1_556 S
N86 C84 1.420 . S
N86 C87 1.244 . S
C87 N86 1.244 . S
Sm88 C90 2.846 . S
Sm88 O108 2.542 . S
Sm88 O109 2.450 . S
Sm88 O110 2.681 1_565 S
Sm88 O111 2.464 . S
Sm88 O112 2.396 . S
Sm88 O116 2.386 1_455 S
Sm88 O119 2.408 1_565 S
Sm89 C99 2.846 . S
Sm89 O110 2.386 1_655 S
Sm89 O113 2.408 1_545 S
Sm89 O114 2.524 1_655 S
Sm89 O115 2.450 . S
Sm89 O116 2.681 1_545 S
Sm89 O117 2.464 . S
Sm89 O118 2.396 . S
C90 Sm88 2.846 . S
C90 C91 1.506 . S
C90 O108 1.259 . S
C90 O109 1.242 . S
C91 C90 1.506 . S
C91 C92 1.358 . S
C91 C96 1.382 . S
C92 C91 1.358 . S
C92 C93 1.385 . S
C92 H120 0.930 1_455 S
C93 C92 1.385 . S
C93 C94 1.395 . S
C93 H121 0.929 1_455 S
C94 C93 1.395 . S
C94 C95 1.335 . S
C95 C94 1.335 . S
C95 C96 1.398 . S
C95 H122 0.930 . S
C96 C91 1.382 . S
C96 C95 1.398 . S
C96 H123 0.929 . S
C97 O110 1.257 1_565 S
C97 O111 1.277 . S
C98 O112 1.252 1_655 S
C98 O113 1.272 . S
C99 Sm89 2.846 . S
C99 C100 1.506 . S
C99 O114 1.217 1_655 S
C99 O115 1.242 . S
C100 C99 1.506 . S
C100 C101 1.358 . S
C100 C105 1.382 . S
C101 C100 1.358 . S
C101 C102 1.385 . S
C101 H124 0.930 1_655 S
C102 C101 1.385 . S
C102 C103 1.395 . S
C102 H125 0.929 1_655 S
C103 C102 1.395 . S
C103 C104 1.335 . S
C104 C103 1.335 . S
C104 C105 1.398 . S
C104 H126 0.930 . S
C105 C100 1.382 . S
C105 C104 1.398 . S
C105 H127 0.929 . S
C106 O116 1.271 1_545 S
C106 O117 1.251 . S
C107 O118 1.252 1_455 S
C107 O119 1.272 . S
O108 Sm88 2.542 . S
O108 C90 1.259 . S
O109 Sm88 2.450 . S
O109 C90 1.242 . S
O110 Sm88 2.681 1_545 S
O110 Sm89 2.386 1_455 S
O110 C97 1.257 1_545 S
O111 Sm88 2.464 . S
O111 C97 1.277 . S
O112 Sm88 2.396 . S
O112 C98 1.252 1_455 S
O113 Sm89 2.408 1_565 S
O113 C98 1.272 . S
O114 Sm89 2.524 1_455 S
O114 C99 1.217 1_455 S
O115 Sm89 2.450 . S
O115 C99 1.242 . S
O116 Sm88 2.386 1_655 S
O116 Sm89 2.681 1_565 S
O116 C106 1.271 1_565 S
O117 Sm89 2.464 . S
O117 C106 1.251 . S
O118 Sm89 2.396 . S
O118 C107 1.252 1_655 S
O119 Sm88 2.408 1_545 S
O119 C107 1.272 . S
H120 C92 0.930 1_655 S
H121 C93 0.929 1_655 S
H122 C95 0.930 . S
H123 C96 0.929 . S
H124 C101 0.930 1_455 S
H125 C102 0.929 1_455 S
H126 C104 0.930 . S
H127 C105 0.929 . S
Sm128 C130 2.846 . S
Sm128 O148 2.538 1_545 S
Sm128 O149 2.450 . S
Sm128 O150 2.681 . S
Sm128 O151 2.464 . S
Sm128 O152 2.396 . S
Sm128 O156 2.386 1_545 S
Sm128 O159 2.408 . S
Sm129 C139 2.846 . S
Sm129 O150 2.386 1_565 S
Sm129 O153 2.408 . S
Sm129 O154 2.533 1_565 S
Sm129 O155 2.450 . S
Sm129 O156 2.681 . S
Sm129 O157 2.464 . S
Sm129 O158 2.396 . S
C130 Sm128 2.846 . S
C130 C131 1.506 . S
C130 O148 1.251 1_545 S
C130 O149 1.242 . S
C131 C130 1.506 . S
C131 C132 1.358 . S
C131 C136 1.382 . S
C132 C131 1.358 . S
C132 C133 1.385 . S
C132 H160 0.930 1_545 S
C133 C132 1.385 . S
C133 C134 1.395 . S
C133 H161 0.929 1_545 S
C134 C133 1.395 . S
C134 C135 1.335 . S
C135 C134 1.335 . S
C135 C136 1.398 . S
C135 H162 0.930 . S
C136 C131 1.382 . S
C136 C135 1.398 . S
C136 H163 0.929 . S
C137 O150 1.271 . S
C137 O151 1.251 . S
C138 O152 1.252 1_565 S
C138 O153 1.272 . S
C139 Sm129 2.846 . S
C139 C140 1.506 . S
C139 O154 1.238 1_565 S
C139 O155 1.242 . S
C140 C139 1.506 . S
C140 C141 1.358 . S
C140 C145 1.382 . S
C141 C140 1.358 . S
C141 C142 1.385 . S
C141 H164 0.930 1_565 S
C142 C141 1.385 . S
C142 C143 1.395 . S
C142 H165 0.929 1_565 S
C143 C142 1.395 . S
C143 C144 1.335 . S
C144 C143 1.335 . S
C144 C145 1.398 . S
C144 H166 0.930 . S
C145 C140 1.382 . S
C145 C144 1.398 . S
C145 H167 0.929 . S
C146 O156 1.271 . S
C146 O157 1.251 . S
C147 O158 1.252 1_545 S
C147 O159 1.272 . S
O148 Sm128 2.538 1_565 S
O148 C130 1.251 1_565 S
O149 Sm128 2.450 . S
O149 C130 1.242 . S
O150 Sm128 2.681 . S
O150 Sm129 2.386 1_545 S
O150 C137 1.271 . S
O151 Sm128 2.464 . S
O151 C137 1.251 . S
O152 Sm128 2.396 . S
O152 C138 1.252 1_545 S
O153 Sm129 2.408 . S
O153 C138 1.272 . S
O154 Sm129 2.533 1_545 S
O154 C139 1.238 1_545 S
O155 Sm129 2.450 . S
O155 C139 1.242 . S
O156 Sm128 2.386 1_565 S
O156 Sm129 2.681 . S
O156 C146 1.271 . S
O157 Sm129 2.464 . S
O157 C146 1.251 . S
O158 Sm129 2.396 . S
O158 C147 1.252 1_565 S
O159 Sm128 2.408 . S
O159 C147 1.272 . S
H160 C132 0.930 1_565 S
H161 C133 0.929 1_565 S
H162 C135 0.930 . S
H163 C136 0.929 . S
H164 C141 0.930 1_545 S
H165 C142 0.929 1_545 S
H166 C144 0.930 . S
H167 C145 0.929 . S
Sm168 C170 2.846 . S
Sm168 O188 2.543 . S
Sm168 O189 2.450 . S
Sm168 O190 2.681 . S
Sm168 O191 2.464 . S
Sm168 O192 2.396 . S
Sm168 O196 2.386 . S
Sm168 O199 2.408 . S
Sm169 C179 2.846 . S
Sm169 O190 2.386 . S
Sm169 O193 2.408 . S
Sm169 O194 2.543 . S
Sm169 O195 2.450 . S
Sm169 O196 2.681 . S
Sm169 O197 2.464 . S
Sm169 O198 2.396 . S
C170 Sm168 2.846 . S
C170 C171 1.506 . S
C170 O188 1.261 . S
C170 O189 1.242 . S
C171 C170 1.506 . S
C171 C172 1.358 . S
C171 C176 1.382 . S
C172 C171 1.358 . S
C172 C173 1.385 . S
C172 H200 0.930 . S
C173 C172 1.385 . S
C173 C174 1.395 . S
C173 H201 0.929 . S
C174 C173 1.395 . S
C174 C175 1.335 . S
C175 C174 1.335 . S
C175 C176 1.398 . S
C175 H202 0.930 . S
C176 C171 1.382 . S
C176 C175 1.398 . S
C176 H203 0.929 . S
C177 O190 1.271 . S
C177 O191 1.251 . S
C178 O192 1.252 . S
C178 O193 1.272 . S
C179 Sm169 2.846 . S
C179 C180 1.506 . S
C179 O194 1.261 . S
C179 O195 1.242 . S
C180 C179 1.506 . S
C180 C181 1.358 . S
C180 C185 1.382 . S
C181 C180 1.358 . S
C181 C182 1.385 . S
C181 H204 0.930 . S
C182 C181 1.385 . S
C182 C183 1.395 . S
C182 H205 0.929 . S
C183 C182 1.395 . S
C183 C184 1.335 . S
C184 C183 1.335 . S
C184 C185 1.398 . S
C184 H206 0.930 . S
C185 C180 1.382 . S
C185 C184 1.398 . S
C185 H207 0.929 . S
C186 O196 1.271 . S
C186 O197 1.251 . S
C187 O198 1.252 . S
C187 O199 1.272 . S
O188 Sm168 2.543 . S
O188 C170 1.261 . S
O189 Sm168 2.450 . S
O189 C170 1.242 . S
O190 Sm168 2.681 . S
O190 Sm169 2.386 . S
O190 C177 1.271 . S
O191 Sm168 2.464 . S
O191 C177 1.251 . S
O192 Sm168 2.396 . S
O192 C178 1.252 . S
O193 Sm169 2.408 . S
O193 C178 1.272 . S
O194 Sm169 2.543 . S
O194 C179 1.261 . S
O195 Sm169 2.450 . S
O195 C179 1.242 . S
O196 Sm168 2.386 . S
O196 Sm169 2.681 . S
O196 C186 1.271 . S
O197 Sm169 2.464 . S
O197 C186 1.251 . S
O198 Sm169 2.396 . S
O198 C187 1.252 . S
O199 Sm168 2.408 . S
O199 C187 1.272 . S
H200 C172 0.930 . S
H201 C173 0.929 . S
H202 C175 0.930 . S
H203 C176 0.929 . S
H204 C181 0.930 . S
H205 C182 0.929 . S
H206 C184 0.930 . S
H207 C185 0.929 . S
Sm208 C210 2.846 . S
Sm208 O228 2.543 . S
Sm208 O229 2.450 . S
Sm208 O230 2.681 1_655 S
Sm208 O231 2.464 . S
Sm208 O232 2.396 . S
Sm208 O236 2.386 . S
Sm208 O239 2.408 1_655 S
Sm209 C219 2.846 . S
Sm209 O230 2.386 . S
Sm209 O233 2.408 1_455 S
Sm209 O234 2.543 . S
Sm209 O235 2.450 . S
Sm209 O236 2.681 1_455 S
Sm209 O237 2.464 . S
Sm209 O238 2.396 . S
C210 Sm208 2.846 . S
C210 C211 1.506 . S
C210 O228 1.261 . S
C210 O229 1.242 . S
C211 C210 1.506 . S
C211 C212 1.358 . S
C211 C216 1.382 . S
C212 C211 1.358 . S
C212 C213 1.385 . S
C212 H240 0.930 . S
C213 C212 1.385 . S
C213 C214 1.395 . S
C213 H241 0.929 . S
C214 C213 1.395 . S
C214 C215 1.335 . S
C215 C214 1.335 . S
C215 C216 1.398 . S
C215 H242 0.930 . S
C216 C211 1.382 . S
C216 C215 1.398 . S
C216 H243 0.929 . S
C217 O230 1.263 1_655 S
C217 O231 1.265 . S
C218 O232 1.252 . S
C218 O233 1.272 . S
C219 Sm209 2.846 . S
C219 C220 1.506 . S
C219 O234 1.261 . S
C219 O235 1.242 . S
C220 C219 1.506 . S
C220 C221 1.358 . S
C220 C225 1.382 . S
C221 C220 1.358 . S
C221 C222 1.385 . S
C221 H244 0.930 . S
C222 C221 1.385 . S
C222 C223 1.395 . S
C222 H245 0.929 . S
C223 C222 1.395 . S
C223 C224 1.335 . S
C224 C223 1.335 . S
C224 C225 1.398 . S
C224 H246 0.930 . S
C225 C220 1.382 . S
C225 C224 1.398 . S
C225 H247 0.929 . S
C226 O236 1.271 1_455 S
C226 O237 1.251 . S
C227 O238 1.252 . S
C227 O239 1.272 . S
O228 Sm208 2.543 . S
O228 C210 1.261 . S
O229 Sm208 2.450 . S
O229 C210 1.242 . S
O230 Sm208 2.681 1_455 S
O230 Sm209 2.386 . S
O230 C217 1.263 1_455 S
O231 Sm208 2.464 . S
O231 C217 1.265 . S
O232 Sm208 2.396 . S
O232 C218 1.252 . S
O233 Sm209 2.408 1_655 S
O233 C218 1.272 . S
O234 Sm209 2.543 . S
O234 C219 1.261 . S
O235 Sm209 2.450 . S
O235 C219 1.242 . S
O236 Sm208 2.386 . S
O236 Sm209 2.681 1_655 S
O236 C226 1.271 1_655 S
O237 Sm209 2.464 . S
O237 C226 1.251 . S
O238 Sm209 2.396 . S
O238 C227 1.252 . S
O239 Sm208 2.408 1_455 S
O239 C227 1.272 . S
H240 C212 0.930 . S
H241 C213 0.929 . S
H242 C215 0.930 . S
H243 C216 0.929 . S
H244 C221 0.930 . S
H245 C222 0.929 . S
H246 C224 0.930 . S
H247 C225 0.929 . S
H248 C266 0.953 . S
H249 C268 0.948 1_565 S
H250 C270 0.950 . S
H251 C271 0.950 . S
H252 C273 0.950 . S
H253 C276 0.950 . S
H254 C277 0.950 . S
H255 C279 0.950 . S
H256 C280 0.950 . S
H257 C281 0.951 . S
H258 C283 0.951 . S
H259 C285 0.955 . S
H260 C286 0.953 . S
H261 C288 0.950 . S
H262 C291 0.950 . S
H263 C292 0.950 . S
H264 C294 0.950 . S
H265 C295 0.950 . S
C266 H248 0.953 . S
C266 C267 1.363 1_565 S
C266 C268 1.387 1_565 S
C267 C266 1.363 1_545 S
C267 C271 1.391 . S
C268 H249 0.948 1_545 S
C268 C266 1.387 1_545 S
C268 C269 1.366 . S
C269 C268 1.366 . S
C269 C270 1.414 . S
C269 C272 1.499 . S
C270 H250 0.950 . S
C270 C269 1.414 . S
C270 C271 1.374 . S
C271 H251 0.950 . S
C271 C267 1.391 . S
C271 C270 1.374 . S
C272 C269 1.499 . S
C272 C273 1.373 1_545 S
C272 C274 1.389 . S
C273 H252 0.950 . S
C273 C272 1.373 1_565 S
C273 C289 1.377 . S
C274 C272 1.389 . S
C274 C275 1.524 . S
C274 C288 1.377 . S
C275 C274 1.524 . S
C275 C276 1.397 . S
C275 C280 1.363 . S
C276 H253 0.950 . S
C276 C275 1.397 . S
C276 C277 1.334 . S
C277 H254 0.950 . S
C277 C276 1.334 . S
C277 C278 1.287 . S
C278 C277 1.287 . S
C278 C279 1.524 . S
C278 H297 0.913 . S
C279 H255 0.950 . S
C279 C278 1.524 . S
C279 C280 1.415 . S
C280 H256 0.950 . S
C280 C275 1.363 . S
C280 C279 1.415 . S
C281 H257 0.951 . S
C281 C282 1.366 . S
C281 C283 1.388 . S
C282 C281 1.366 . S
C282 C286 1.382 1_545 S
C283 H258 0.951 . S
C283 C281 1.388 . S
C283 C284 1.366 . S
C284 C283 1.366 . S
C284 C285 1.412 1_545 S
C284 C287 1.499 1_545 S
C285 H259 0.955 . S
C285 C284 1.412 1_565 S
C285 C286 1.374 . S
C286 H260 0.953 . S
C286 C282 1.382 1_565 S
C286 C285 1.374 . S
C287 C284 1.499 1_565 S
C287 C288 1.376 1_565 S
C287 C289 1.387 . S
C288 H261 0.950 . S
C288 C274 1.377 . S
C288 C287 1.376 1_545 S
C289 C273 1.377 . S
C289 C287 1.387 . S
C289 C290 1.524 . S
C290 C289 1.524 . S
C290 C291 1.397 . S
C290 C295 1.363 . S
C291 H262 0.950 . S
C291 C290 1.397 . S
C291 C292 1.334 . S
C292 H263 0.950 . S
C292 C291 1.334 . S
C292 C293 1.287 . S
C293 C292 1.287 . S
C293 C294 1.524 . S
C293 H296 0.999 . S
C294 H264 0.950 . S
C294 C293 1.524 . S
C294 C295 1.415 . S
C295 H265 0.950 . S
C295 C290 1.363 . S
C295 C294 1.415 . S
H296 C293 0.999 . S
H297 C278 0.913 . S
H298 C316 0.951 . S
H299 C318 0.951 . S
H300 C320 0.950 . S
H301 C321 0.950 . S
H302 C323 0.950 . S
H303 C326 0.950 . S
H304 C327 0.950 . S
H305 C329 0.950 . S
H306 C330 0.950 . S
H307 C331 0.951 . S
H308 C333 0.951 . S
H309 C335 0.950 . S
H310 C336 0.950 . S
H311 C338 0.950 . S
H312 C341 0.950 . S
H313 C342 0.950 . S
H314 C344 0.950 . S
H315 C345 0.950 . S
C316 H298 0.951 . S
C316 C317 1.366 . S
C316 C318 1.388 . S
C317 C316 1.366 . S
C317 C321 1.385 . S
C318 H299 0.951 . S
C318 C316 1.388 . S
C318 C319 1.366 . S
C319 C318 1.366 . S
C319 C320 1.414 . S
C319 C322 1.499 . S
C320 H300 0.950 . S
C320 C319 1.414 . S
C320 C321 1.374 . S
C321 H301 0.950 . S
C321 C317 1.385 . S
C321 C320 1.374 . S
C322 C319 1.499 . S
C322 C323 1.373 . S
C322 C324 1.389 . S
C323 H302 0.950 . S
C323 C322 1.373 . S
C323 C339 1.377 . S
C324 C322 1.389 . S
C324 C325 1.524 . S
C324 C338 1.377 . S
C325 C324 1.524 . S
C325 C326 1.397 . S
C325 C330 1.363 . S
C326 H303 0.950 . S
C326 C325 1.397 . S
C326 C327 1.334 . S
C327 H304 0.950 . S
C327 C326 1.334 . S
C327 C328 1.287 . S
C328 C327 1.287 . S
C328 C329 1.524 . S
C328 H347 0.913 . S
C329 H305 0.950 . S
C329 C328 1.524 . S
C329 C330 1.415 . S
C330 H306 0.950 . S
C330 C325 1.363 . S
C330 C329 1.415 . S
C331 H307 0.951 . S
C331 C332 1.366 . S
C331 C333 1.388 . S
C332 C331 1.366 . S
C332 C336 1.385 . S
C333 H308 0.951 . S
C333 C331 1.388 . S
C333 C334 1.366 . S
C334 C333 1.366 . S
C334 C335 1.414 . S
C334 C337 1.499 . S
C335 H309 0.950 . S
C335 C334 1.414 . S
C335 C336 1.374 . S
C336 H310 0.950 . S
C336 C332 1.385 . S
C336 C335 1.374 . S
C337 C334 1.499 . S
C337 C338 1.373 . S
C337 C339 1.389 . S
C338 H311 0.950 . S
C338 C324 1.377 . S
C338 C337 1.373 . S
C339 C323 1.377 . S
C339 C337 1.389 . S
C339 C340 1.524 . S
C340 C339 1.524 . S
C340 C341 1.397 . S
C340 C345 1.363 . S
C341 H312 0.950 . S
C341 C340 1.397 . S
C341 C342 1.334 . S
C342 H313 0.950 . S
C342 C341 1.334 . S
C342 C343 1.287 . S
C343 C342 1.287 . S
C343 C344 1.524 . S
C343 H346 0.999 . S
C344 H314 0.950 . S
C344 C343 1.524 . S
C344 C345 1.415 . S
C345 H315 0.950 . S
C345 C340 1.363 . S
C345 C344 1.415 . S
H346 C343 0.999 . S
H347 C328 0.913 . S
H348 C366 0.951 . S
H349 C368 0.951 . S
H350 C370 0.950 . S
H351 C371 0.950 . S
H352 C373 0.950 . S
H353 C376 0.950 . S
H354 C377 0.950 . S
H355 C379 0.950 . S
H356 C380 0.950 . S
H357 C381 0.951 . S
H358 C383 0.951 . S
H359 C385 0.950 . S
H360 C386 0.950 . S
H361 C388 0.950 . S
H362 C391 0.950 . S
H363 C392 0.950 . S
H364 C394 0.950 . S
H365 C395 0.950 . S
C366 H348 0.951 . S
C366 C367 1.366 . S
C366 C368 1.388 . S
C367 C366 1.366 . S
C367 C371 1.385 . S
C368 H349 0.951 . S
C368 C366 1.388 . S
C368 C369 1.366 . S
C369 C368 1.366 . S
C369 C370 1.414 . S
C369 C372 1.499 . S
C370 H350 0.950 . S
C370 C369 1.414 . S
C370 C371 1.374 . S
C371 H351 0.950 . S
C371 C367 1.385 . S
C371 C370 1.374 . S
C372 C369 1.499 . S
C372 C373 1.373 . S
C372 C374 1.389 . S
C373 H352 0.950 . S
C373 C372 1.373 . S
C373 C389 1.377 . S
C374 C372 1.389 . S
C374 C375 1.524 . S
C374 C388 1.377 . S
C375 C374 1.524 . S
C375 C376 1.397 . S
C375 C380 1.363 . S
C376 H353 0.950 . S
C376 C375 1.397 . S
C376 C377 1.334 . S
C377 H354 0.950 . S
C377 C376 1.334 . S
C377 C378 1.287 . S
C378 C377 1.287 . S
C378 C379 1.524 . S
C378 H397 0.913 . S
C379 H355 0.950 . S
C379 C378 1.524 . S
C379 C380 1.415 . S
C380 H356 0.950 . S
C380 C375 1.363 . S
C380 C379 1.415 . S
C381 H357 0.951 . S
C381 C382 1.366 . S
C381 C383 1.388 . S
C382 C381 1.366 . S
C382 C386 1.385 . S
C383 H358 0.951 . S
C383 C381 1.388 . S
C383 C384 1.366 . S
C384 C383 1.366 . S
C384 C385 1.414 . S
C384 C387 1.499 . S
C385 H359 0.950 . S
C385 C384 1.414 . S
C385 C386 1.374 . S
C386 H360 0.950 . S
C386 C382 1.385 . S
C386 C385 1.374 . S
C387 C384 1.499 . S
C387 C388 1.373 . S
C387 C389 1.389 . S
C388 H361 0.950 . S
C388 C374 1.377 . S
C388 C387 1.373 . S
C389 C373 1.377 . S
C389 C387 1.389 . S
C389 C390 1.524 . S
C390 C389 1.524 . S
C390 C391 1.397 . S
C390 C395 1.363 . S
C391 H362 0.950 . S
C391 C390 1.397 . S
C391 C392 1.334 . S
C392 H363 0.950 . S
C392 C391 1.334 . S
C392 C393 1.287 . S
C393 C392 1.287 . S
C393 C394 1.524 . S
C393 H396 0.999 . S
C394 H364 0.950 . S
C394 C393 1.524 . S
C394 C395 1.415 . S
C395 H365 0.950 . S
C395 C390 1.363 . S
C395 C394 1.415 . S
H396 C393 0.999 . S
H397 C378 0.913 . S
H398 C416 0.951 . S
H399 C418 0.951 . S
H400 C420 0.950 . S
H401 C421 0.950 . S
H402 C423 0.950 . S
H403 C426 0.950 . S
H404 C427 0.950 . S
H405 C429 0.950 . S
H406 C430 0.950 . S
H407 C431 0.951 . S
H408 C433 0.951 . S
H409 C435 0.950 . S
H410 C436 0.950 . S
H411 C438 0.950 . S
H412 C441 0.950 . S
H413 C442 0.950 . S
H414 C444 0.950 . S
H415 C445 0.950 . S
C416 H398 0.951 . S
C416 C417 1.366 1_655 S
C416 C418 1.388 . S
C417 C416 1.366 1_455 S
C417 C421 1.385 . S
C418 H399 0.951 . S
C418 C416 1.388 . S
C418 C419 1.338 1_655 S
C419 C418 1.338 1_455 S
C419 C420 1.444 . S
C419 C422 1.500 . S
C420 H400 0.950 . S
C420 C419 1.444 . S
C420 C421 1.374 . S
C421 H401 0.950 . S
C421 C417 1.385 . S
C421 C420 1.374 . S
C422 C419 1.500 . S
C422 C423 1.373 . S
C422 C424 1.389 1_455 S
C423 H402 0.950 . S
C423 C422 1.373 . S
C423 C439 1.377 . S
C424 C422 1.389 1_655 S
C424 C425 1.524 . S
C424 C438 1.377 . S
C425 C424 1.524 . S
C425 C426 1.397 . S
C425 C430 1.363 . S
C426 H403 0.950 . S
C426 C425 1.397 . S
C426 C427 1.334 . S
C427 H404 0.950 . S
C427 C426 1.334 . S
C427 C428 1.287 . S
C428 C427 1.287 . S
C428 C429 1.524 . S
C428 H447 0.913 . S
C429 H405 0.950 . S
C429 C428 1.524 . S
C429 C430 1.415 . S
C430 H406 0.950 . S
C430 C425 1.363 . S
C430 C429 1.415 . S
C431 H407 0.951 . S
C431 C432 1.366 . S
C431 C433 1.388 . S
C432 C431 1.366 . S
C432 C436 1.385 1_455 S
C433 H408 0.951 . S
C433 C431 1.388 . S
C433 C434 1.366 . S
C434 C433 1.366 . S
C434 C435 1.414 1_455 S
C434 C437 1.499 . S
C435 H409 0.950 . S
C435 C434 1.414 1_655 S
C435 C436 1.374 . S
C436 H410 0.950 . S
C436 C432 1.385 1_655 S
C436 C435 1.374 . S
C437 C434 1.499 . S
C437 C438 1.373 1_455 S
C437 C439 1.389 . S
C438 H411 0.950 . S
C438 C424 1.377 . S
C438 C437 1.373 1_655 S
C439 C423 1.377 . S
C439 C437 1.389 . S
C439 C440 1.524 . S
C440 C439 1.524 . S
C440 C441 1.397 . S
C440 C445 1.363 . S
C441 H412 0.950 . S
C441 C440 1.397 . S
C441 C442 1.334 . S
C442 H413 0.950 . S
C442 C441 1.334 . S
C442 C443 1.287 . S
C443 C442 1.287 . S
C443 C444 1.524 . S
C443 H446 0.999 . S
C444 H414 0.950 . S
C444 C443 1.524 . S
C444 C445 1.415 . S
C445 H415 0.950 . S
C445 C440 1.363 . S
C445 C444 1.415 . S
H446 C443 0.999 . S
H447 C428 0.913 . S
H448 C466 0.951 . S
H449 C468 0.951 . S
H450 C470 0.950 . S
H451 C471 0.950 . S
H452 C473 0.950 . S
H453 C476 0.983 . S
H454 C477 0.950 1_545 S
H455 C479 0.950 . S
H456 C480 0.950 . S
H457 C481 0.951 . S
H458 C483 0.951 . S
H459 C485 0.950 . S
H460 C486 0.950 . S
H461 C488 0.950 . S
H462 C491 0.950 . S
H463 C492 0.915 1_565 S
H464 C494 0.950 . S
H465 C495 0.950 . S
C466 H448 0.951 . S
C466 C467 1.408 . S
C466 C468 1.388 . S
C467 C466 1.408 . S
C467 C471 1.342 1_565 S
C468 H449 0.951 . S
C468 C466 1.388 . S
C468 C469 1.391 . S
C469 C468 1.391 . S
C469 C470 1.389 1_565 S
C469 C472 1.498 1_565 S
C470 H450 0.950 . S
C470 C469 1.389 1_545 S
C470 C471 1.374 . S
C471 H451 0.950 . S
C471 C467 1.342 1_545 S
C471 C470 1.374 . S
C472 C469 1.498 1_545 S
C472 C473 1.371 . S
C472 C474 1.392 1_545 S
C473 H452 0.950 . S
C473 C472 1.371 . S
C473 C489 1.377 1_554 S
C474 C472 1.392 1_565 S
C474 C475 1.524 . S
C474 C488 1.377 . S
C475 C474 1.524 . S
C475 C476 1.371 1_565 S
C475 C480 1.363 . S
C476 H453 0.983 . S
C476 C475 1.371 1_545 S
C476 C477 1.328 1_545 S
C477 H454 0.950 1_565 S
C477 C476 1.328 1_565 S
C477 C478 1.287 . S
C478 C477 1.287 . S
C478 C479 1.524 . S
C478 H497 0.913 . S
C479 H455 0.950 . S
C479 C478 1.524 . S
C479 C480 1.415 . S
C480 H456 0.950 . S
C480 C475 1.363 . S
C480 C479 1.415 . S
C481 H457 0.951 . S
C481 C482 1.366 1_545 S
C481 C483 1.388 . S
C482 C481 1.366 1_565 S
C482 C486 1.385 . S
C483 H458 0.951 . S
C483 C481 1.388 . S
C483 C484 1.366 1_545 S
C484 C483 1.366 1_565 S
C484 C485 1.414 . S
C484 C487 1.499 . S
C485 H459 0.950 . S
C485 C484 1.414 . S
C485 C486 1.374 . S
C486 H460 0.950 . S
C486 C482 1.385 . S
C486 C485 1.374 . S
C487 C484 1.499 . S
C487 C488 1.373 1_556 S
C487 C489 1.389 1_565 S
C488 H461 0.950 . S
C488 C474 1.377 . S
C488 C487 1.373 1_554 S
C489 C473 1.377 1_556 S
C489 C487 1.389 1_545 S
C489 C490 1.524 . S
C490 C489 1.524 . S
C490 C491 1.397 1_545 S
C490 C495 1.363 . S
C491 H462 0.950 . S
C491 C490 1.397 1_565 S
C491 C492 1.325 1_565 S
C492 H463 0.915 1_545 S
C492 C491 1.325 1_545 S
C492 C493 1.335 . S
C493 C492 1.335 . S
C493 C494 1.524 . S
C493 H496 0.999 . S
C494 H464 0.950 . S
C494 C493 1.524 . S
C494 C495 1.415 . S
C495 H465 0.950 . S
C495 C490 1.363 . S
C495 C494 1.415 . S
H496 C493 0.999 . S
H497 C478 0.913 . S
H498 C516 0.951 . S
H499 C518 0.951 . S
H500 C520 0.950 . S
H501 C521 0.950 . S
H502 C523 0.950 . S
H503 C526 0.950 . S
H504 C527 0.950 . S
H505 C529 0.950 . S
H506 C530 0.950 . S
H507 C531 0.951 . S
H508 C533 0.951 . S
H509 C535 0.950 1_554 S
H510 C536 0.950 . S
H511 C538 0.950 . S
H512 C541 0.950 1_554 S
H513 C542 0.950 . S
H514 C544 0.950 . S
H515 C545 0.950 . S
C516 H498 0.951 . S
C516 C517 1.366 . S
C516 C518 1.388 . S
C517 C516 1.366 . S
C517 C521 1.385 . S
C518 H499 0.951 . S
C518 C516 1.388 . S
C518 C519 1.366 . S
C519 C518 1.366 . S
C519 C520 1.414 . S
C519 C522 1.499 . S
C520 H500 0.950 . S
C520 C519 1.414 . S
C520 C521 1.374 . S
C521 H501 0.950 . S
C521 C517 1.385 . S
C521 C520 1.374 . S
C522 C519 1.499 . S
C522 C523 1.373 . S
C522 C524 1.389 . S
C523 H502 0.950 . S
C523 C522 1.373 . S
C523 C539 1.377 . S
C524 C522 1.389 . S
C524 C525 1.524 . S
C524 C538 1.377 . S
C525 C524 1.524 . S
C525 C526 1.397 . S
C525 C530 1.363 . S
C526 H503 0.950 . S
C526 C525 1.397 . S
C526 C527 1.334 . S
C527 H504 0.950 . S
C527 C526 1.334 . S
C527 C528 1.287 . S
C528 C527 1.287 . S
C528 C529 1.524 . S
C528 H547 0.913 . S
C529 H505 0.950 . S
C529 C528 1.524 . S
C529 C530 1.415 . S
C530 H506 0.950 . S
C530 C525 1.363 . S
C530 C529 1.415 . S
C531 H507 0.951 . S
C531 C532 1.366 . S
C531 C533 1.388 . S
C532 C531 1.366 . S
C532 C536 1.385 . S
C533 H508 0.951 . S
C533 C531 1.388 . S
C533 C534 1.366 . S
C534 C533 1.366 . S
C534 C535 1.414 . S
C534 C537 1.499 . S
C535 H509 0.950 1_556 S
C535 C534 1.414 . S
C535 C536 1.374 . S
C536 H510 0.950 . S
C536 C532 1.385 . S
C536 C535 1.374 . S
C537 C534 1.499 . S
C537 C538 1.373 1_556 S
C537 C539 1.389 1_556 S
C538 H511 0.950 . S
C538 C524 1.377 . S
C538 C537 1.373 1_554 S
C539 C523 1.377 . S
C539 C537 1.389 1_554 S
C539 C540 1.524 1_554 S
C540 C539 1.524 1_556 S
C540 C541 1.397 . S
C540 C545 1.363 . S
C541 H512 0.950 1_556 S
C541 C540 1.397 . S
C541 C542 1.334 . S
C542 H513 0.950 . S
C542 C541 1.334 . S
C542 C543 1.287 . S
C543 C542 1.287 . S
C543 C544 1.524 . S
C543 H546 0.999 . S
C544 H514 0.950 . S
C544 C543 1.524 . S
C544 C545 1.415 . S
C545 H515 0.950 . S
C545 C540 1.363 . S
C545 C544 1.415 . S
H546 C543 0.999 . S
H547 C528 0.913 . S
H548 C566 0.951 . S
H549 C568 0.951 . S
H550 C570 0.950 . S
H551 C571 0.950 . S
H552 C573 0.950 . S
H553 C576 0.950 . S
H554 C577 0.950 . S
H555 C579 0.950 . S
H556 C580 0.950 . S
H557 C581 0.951 . S
H558 C583 0.951 1_554 S
H559 C585 0.950 . S
H560 C586 0.950 . S
H561 C588 0.950 . S
H562 C591 0.950 . S
H563 C592 0.950 . S
H564 C594 0.950 . S
H565 C595 0.950 . S
C566 H548 0.951 . S
C566 C567 1.366 . S
C566 C568 1.388 . S
C567 C566 1.366 . S
C567 C571 1.385 . S
C568 H549 0.951 . S
C568 C566 1.388 . S
C568 C569 1.366 . S
C569 C568 1.366 . S
C569 C570 1.414 . S
C569 C572 1.499 . S
C570 H550 0.950 . S
C570 C569 1.414 . S
C570 C571 1.374 . S
C571 H551 0.950 . S
C571 C567 1.385 . S
C571 C570 1.374 . S
C572 C569 1.499 . S
C572 C573 1.373 . S
C572 C574 1.389 . S
C573 H552 0.950 . S
C573 C572 1.373 . S
C573 C589 1.377 . S
C574 C572 1.389 . S
C574 C575 1.521 1_554 S
C574 C588 1.377 1_554 S
C575 C574 1.521 1_556 S
C575 C576 1.391 1_556 S
C575 C580 1.373 . S
C576 H553 0.950 . S
C576 C575 1.391 1_554 S
C576 C577 1.334 . S
C577 H554 0.950 . S
C577 C576 1.334 . S
C577 C578 1.287 1_554 S
C578 C577 1.287 1_556 S
C578 C579 1.524 . S
C578 H597 0.913 . S
C579 H555 0.950 . S
C579 C578 1.524 . S
C579 C580 1.415 . S
C580 H556 0.950 . S
C580 C575 1.373 . S
C580 C579 1.415 . S
C581 H557 0.951 . S
C581 C582 1.366 . S
C581 C583 1.388 . S
C582 C581 1.366 . S
C582 C586 1.385 . S
C583 H558 0.951 1_556 S
C583 C581 1.388 . S
C583 C584 1.366 . S
C584 C583 1.366 . S
C584 C585 1.414 . S
C584 C587 1.499 . S
C585 H559 0.950 . S
C585 C584 1.414 . S
C585 C586 1.374 . S
C586 H560 0.950 . S
C586 C582 1.385 . S
C586 C585 1.374 . S
C587 C584 1.499 . S
C587 C588 1.373 . S
C587 C589 1.389 1_556 S
C588 H561 0.950 . S
C588 C574 1.377 1_556 S
C588 C587 1.373 . S
C589 C573 1.377 . S
C589 C587 1.389 1_554 S
C589 C590 1.524 . S
C590 C589 1.524 . S
C590 C591 1.397 . S
C590 C595 1.363 . S
C591 H562 0.950 . S
C591 C590 1.397 . S
C591 C592 1.334 . S
C592 H563 0.950 . S
C592 C591 1.334 . S
C592 C593 1.287 . S
C593 C592 1.287 . S
C593 C594 1.524 . S
C593 H596 0.999 . S
C594 H564 0.950 . S
C594 C593 1.524 . S
C594 C595 1.415 . S
C595 H565 0.950 . S
C595 C590 1.363 . S
C595 C594 1.415 . S
H596 C593 0.999 . S
H597 C578 0.913 . S
H598 C616 0.951 . S
H599 C618 0.951 . S
H600 C620 0.950 . S
H601 C621 0.950 . S
H602 C623 0.950 . S
H603 C626 0.950 . S
H604 C627 0.950 . S
H605 C629 0.950 . S
H606 C630 0.950 . S
H607 C631 0.951 . S
H608 C633 0.951 1_554 S
H609 C635 0.950 . S
H610 C636 0.950 . S
H611 C638 0.950 . S
H612 C641 0.950 . S
H613 C642 0.950 . S
H614 C644 0.950 . S
H615 C645 0.950 . S
C616 H598 0.951 . S
C616 C617 1.372 . S
C616 C618 1.388 . S
C617 C616 1.372 . S
C617 C621 1.380 1_655 S
C618 H599 0.951 . S
C618 C616 1.388 . S
C618 C619 1.366 . S
C619 C618 1.366 . S
C619 C620 1.414 1_655 S
C619 C622 1.499 . S
C620 H600 0.950 . S
C620 C619 1.414 1_455 S
C620 C621 1.374 . S
C621 H601 0.950 . S
C621 C617 1.380 1_455 S
C621 C620 1.374 . S
C622 C619 1.499 . S
C622 C623 1.373 1_655 S
C622 C624 1.389 . S
C623 H602 0.950 . S
C623 C622 1.373 1_455 S
C623 C639 1.377 . S
C624 C622 1.389 . S
C624 C625 1.524 . S
C624 C638 1.377 1_554 S
C625 C624 1.524 . S
C625 C626 1.397 . S
C625 C630 1.363 1_554 S
C626 H603 0.950 . S
C626 C625 1.397 . S
C626 C627 1.334 . S
C627 H604 0.950 . S
C627 C626 1.334 . S
C627 C628 1.287 . S
C628 C627 1.287 . S
C628 C629 1.524 1_554 S
C628 H647 0.913 . S
C629 H605 0.950 . S
C629 C628 1.524 1_556 S
C629 C630 1.415 . S
C630 H606 0.950 . S
C630 C625 1.363 1_556 S
C630 C629 1.415 . S
C631 H607 0.951 . S
C631 C632 1.356 1_455 S
C631 C633 1.388 . S
C632 C631 1.356 1_655 S
C632 C636 1.395 . S
C633 H608 0.951 1_556 S
C633 C631 1.388 . S
C633 C634 1.368 . S
C634 C633 1.368 . S
C634 C635 1.411 1_455 S
C634 C637 1.499 . S
C635 H609 0.950 . S
C635 C634 1.411 1_655 S
C635 C636 1.374 . S
C636 H610 0.950 . S
C636 C632 1.395 . S
C636 C635 1.374 . S
C637 C634 1.499 . S
C637 C638 1.365 1_455 S
C637 C639 1.397 1_556 S
C638 H611 0.950 . S
C638 C624 1.377 1_556 S
C638 C637 1.365 1_655 S
C639 C623 1.377 . S
C639 C637 1.397 1_554 S
C639 C640 1.524 . S
C640 C639 1.524 . S
C640 C641 1.397 1_554 S
C640 C645 1.363 . S
C641 H612 0.950 . S
C641 C640 1.397 1_556 S
C641 C642 1.334 . S
C642 H613 0.950 . S
C642 C641 1.334 . S
C642 C643 1.287 1_556 S
C643 C642 1.287 1_554 S
C643 C644 1.524 . S
C643 H646 0.999 . S
C644 H614 0.950 . S
C644 C643 1.524 . S
C644 C645 1.415 . S
C645 H615 0.950 . S
C645 C640 1.363 . S
C645 C644 1.415 . S
H646 C643 0.999 . S
H647 C628 0.913 . S
H648 C666 0.951 . S
H649 C668 0.951 . S
H650 C670 0.950 . S
H651 C671 0.950 . S
H652 C673 0.950 . S
H653 C676 0.950 . S
H654 C677 0.950 . S
H655 C679 0.963 . S
H656 C680 0.950 1_455 S
H657 C681 0.951 . S
H658 C683 0.951 . S
H659 C685 0.950 1_455 S
H660 C686 0.950 . S
H661 C688 0.950 . S
H662 C691 0.950 . S
H663 C692 0.950 . S
H664 C694 0.950 . S
H665 C695 0.950 . S
C666 H648 0.951 . S
C666 C667 1.366 . S
C666 C668 1.388 . S
C667 C666 1.366 . S
C667 C671 1.385 1_455 S
C668 H649 0.951 . S
C668 C666 1.388 . S
C668 C669 1.366 1_455 S
C669 C668 1.366 1_655 S
C669 C670 1.414 . S
C669 C672 1.499 . S
C670 H650 0.950 . S
C670 C669 1.414 . S
C670 C671 1.374 . S
C671 H651 0.950 . S
C671 C667 1.385 1_655 S
C671 C670 1.374 . S
C672 C669 1.499 . S
C672 C673 1.373 . S
C672 C674 1.389 . S
C673 H652 0.950 . S
C673 C672 1.373 . S
C673 C689 1.377 . S
C674 C672 1.389 . S
C674 C675 1.524 . S
C674 C688 1.377 . S
C675 C674 1.524 . S
C675 C676 1.397 . S
C675 C680 1.363 . S
C676 H653 0.950 . S
C676 C675 1.397 . S
C676 C677 1.334 1_554 S
C677 H654 0.950 . S
C677 C676 1.334 1_556 S
C677 C678 1.287 . S
C678 C677 1.287 . S
C678 C679 1.524 . S
C678 H697 0.913 . S
C679 H655 0.963 . S
C679 C678 1.524 . S
C679 C680 1.415 1_556 S
C680 H656 0.950 1_655 S
C680 C675 1.363 . S
C680 C679 1.415 1_554 S
C681 H657 0.951 . S
C681 C682 1.366 . S
C681 C683 1.388 . S
C682 C681 1.366 . S
C682 C686 1.385 . S
C683 H658 0.951 . S
C683 C681 1.388 . S
C683 C684 1.366 . S
C684 C683 1.366 . S
C684 C685 1.414 . S
C684 C687 1.499 . S
C685 H659 0.950 1_655 S
C685 C684 1.414 . S
C685 C686 1.374 . S
C686 H660 0.950 . S
C686 C682 1.385 . S
C686 C685 1.374 . S
C687 C684 1.499 . S
C687 C688 1.373 . S
C687 C689 1.389 . S
C688 H661 0.950 . S
C688 C674 1.377 . S
C688 C687 1.373 . S
C689 C673 1.377 . S
C689 C687 1.389 . S
C689 C690 1.524 . S
C690 C689 1.524 . S
C690 C691 1.397 1_655 S
C690 C695 1.363 . S
C691 H662 0.950 . S
C691 C690 1.397 1_455 S
C691 C692 1.334 . S
C692 H663 0.950 . S
C692 C691 1.334 . S
C692 C693 1.295 . S
C693 C692 1.295 . S
C693 C694 1.511 1_455 S
C693 H696 1.002 . S
C694 H664 0.950 . S
C694 C693 1.511 1_655 S
C694 C695 1.415 . S
C695 H665 0.950 . S
C695 C690 1.363 . S
C695 C694 1.415 . S
H696 C693 1.002 . S
H697 C678 0.913 . S
H698 C716 0.951 . S
H699 C718 0.951 . S
H700 C720 0.950 . S
H701 C721 0.950 . S
H702 C723 0.950 . S
H703 C726 0.950 . S
H704 C727 0.950 . S
H705 C729 0.950 . S
H706 C730 0.950 1_545 S
H707 C731 0.951 . S
H708 C733 0.951 . S
H709 C735 0.933 1_545 S
H710 C736 0.950 . S
H711 C738 0.950 . S
H712 C741 0.950 . S
H713 C742 0.950 . S
H714 C744 0.950 . S
H715 C745 0.950 . S
C716 H698 0.951 . S
C716 C717 1.366 . S
C716 C718 1.388 . S
C717 C716 1.366 . S
C717 C721 1.385 1_545 S
C718 H699 0.951 . S
C718 C716 1.388 . S
C718 C719 1.366 1_545 S
C719 C718 1.366 1_565 S
C719 C720 1.414 . S
C719 C722 1.499 . S
C720 H700 0.950 . S
C720 C719 1.414 . S
C720 C721 1.374 . S
C721 H701 0.950 . S
C721 C717 1.385 1_565 S
C721 C720 1.374 . S
C722 C719 1.499 . S
C722 C723 1.373 . S
C722 C724 1.389 . S
C723 H702 0.950 . S
C723 C722 1.373 . S
C723 C739 1.377 . S
C724 C722 1.389 . S
C724 C725 1.524 . S
C724 C738 1.377 . S
C725 C724 1.524 . S
C725 C726 1.397 . S
C725 C730 1.363 . S
C726 H703 0.950 . S
C726 C725 1.397 . S
C726 C727 1.334 1_554 S
C727 H704 0.950 . S
C727 C726 1.334 1_556 S
C727 C728 1.287 . S
C728 C727 1.287 . S
C728 C729 1.524 . S
C728 H747 0.913 . S
C729 H705 0.950 . S
C729 C728 1.524 . S
C729 C730 1.415 1_556 S
C730 H706 0.950 1_565 S
C730 C725 1.363 . S
C730 C729 1.415 1_554 S
C731 H707 0.951 . S
C731 C732 1.366 . S
C731 C733 1.388 . S
C732 C731 1.366 . S
C732 C736 1.385 . S
C733 H708 0.951 . S
C733 C731 1.388 . S
C733 C734 1.366 . S
C734 C733 1.366 . S
C734 C735 1.414 . S
C734 C737 1.499 . S
C735 H709 0.933 1_565 S
C735 C734 1.414 . S
C735 C736 1.374 . S
C736 H710 0.950 . S
C736 C732 1.385 . S
C736 C735 1.374 . S
C737 C734 1.499 . S
C737 C738 1.373 . S
C737 C739 1.389 . S
C738 H711 0.950 . S
C738 C724 1.377 . S
C738 C737 1.373 . S
C739 C723 1.377 . S
C739 C737 1.389 . S
C739 C740 1.524 . S
C740 C739 1.524 . S
C740 C741 1.397 1_565 S
C740 C745 1.363 . S
C741 H712 0.950 . S
C741 C740 1.397 1_545 S
C741 C742 1.334 . S
C742 H713 0.950 . S
C742 C741 1.334 . S
C742 C743 1.287 . S
C743 C742 1.287 . S
C743 C744 1.524 1_545 S
C743 H746 0.999 . S
C744 H714 0.950 . S
C744 C743 1.524 1_565 S
C744 C745 1.415 . S
C745 H715 0.950 . S
C745 C740 1.363 . S
C745 C744 1.415 . S
H746 C743 0.999 . S
H747 C728 0.913 . S
H748 C766 0.951 . S
H749 C768 0.951 . S
H750 C770 0.950 . S
H751 C771 0.950 . S
H752 C773 0.950 . S
H753 C776 0.950 . S
H754 C777 0.950 . S
H755 C779 0.950 1_556 S
H756 C780 0.950 . S
H757 C781 0.951 . S
H758 C783 0.951 . S
H759 C785 0.950 . S
H760 C786 0.950 . S
H761 C788 0.950 . S
H762 C791 0.950 . S
H763 C792 0.950 . S
H764 C794 0.950 . S
H765 C795 0.950 . S
C766 H748 0.951 . S
C766 C767 1.366 . S
C766 C768 1.388 . S
C767 C766 1.366 . S
C767 C771 1.385 . S
C768 H749 0.951 . S
C768 C766 1.388 . S
C768 C769 1.366 . S
C769 C768 1.366 . S
C769 C770 1.414 . S
C769 C772 1.499 . S
C770 H750 0.950 . S
C770 C769 1.414 . S
C770 C771 1.374 . S
C771 H751 0.950 . S
C771 C767 1.385 . S
C771 C770 1.374 . S
C772 C769 1.499 . S
C772 C773 1.373 . S
C772 C774 1.389 . S
C773 H752 0.950 . S
C773 C772 1.373 . S
C773 C789 1.377 . S
C774 C772 1.389 . S
C774 C775 1.524 . S
C774 C788 1.377 . S
C775 C774 1.524 . S
C775 C776 1.397 . S
C775 C780 1.363 . S
C776 H753 0.950 . S
C776 C775 1.397 . S
C776 C777 1.334 . S
C777 H754 0.950 . S
C777 C776 1.334 . S
C777 C778 1.287 . S
C778 C777 1.287 . S
C778 C779 1.524 . S
C778 H797 0.913 1_554 S
C779 H755 0.950 1_554 S
C779 C778 1.524 . S
C779 C780 1.415 . S
C780 H756 0.950 . S
C780 C775 1.363 . S
C780 C779 1.415 . S
C781 H757 0.951 . S
C781 C782 1.366 . S
C781 C783 1.388 . S
C782 C781 1.366 . S
C782 C786 1.385 . S
C783 H758 0.951 . S
C783 C781 1.388 . S
C783 C784 1.366 . S
C784 C783 1.366 . S
C784 C785 1.414 . S
C784 C787 1.499 . S
C785 H759 0.950 . S
C785 C784 1.414 . S
C785 C786 1.374 . S
C786 H760 0.950 . S
C786 C782 1.385 . S
C786 C785 1.374 . S
C787 C784 1.499 . S
C787 C788 1.373 . S
C787 C789 1.389 . S
C788 H761 0.950 . S
C788 C774 1.377 . S
C788 C787 1.373 . S
C789 C773 1.377 . S
C789 C787 1.389 . S
C789 C790 1.524 . S
C790 C789 1.524 . S
C790 C791 1.397 . S
C790 C795 1.363 . S
C791 H762 0.950 . S
C791 C790 1.397 . S
C791 C792 1.334 . S
C792 H763 0.950 . S
C792 C791 1.334 . S
C792 C793 1.287 . S
C793 C792 1.287 . S
C793 C794 1.524 . S
C793 H796 0.999 . S
C794 H764 0.950 . S
C794 C793 1.524 . S
C794 C795 1.415 . S
C795 H765 0.950 . S
C795 C790 1.363 . S
C795 C794 1.415 . S
H796 C793 0.999 . S
H797 C778 0.913 1_556 S
H798 C816 0.951 . S
H799 C818 0.951 . S
H800 C820 0.950 . S
H801 C821 0.950 . S
H802 C823 0.950 . S
H803 C826 0.950 . S
H804 C827 0.950 . S
H805 C829 0.950 . S
H806 C830 0.950 . S
H807 C831 0.951 . S
H808 C833 0.951 . S
H809 C835 0.950 . S
H810 C836 0.950 . S
H811 C838 0.950 . S
H812 C841 0.950 . S
H813 C842 0.950 . S
H814 C844 0.950 . S
H815 C845 0.950 . S
C816 H798 0.951 . S
C816 C817 1.366 . S
C816 C818 1.388 . S
C817 C816 1.366 . S
C817 C821 1.385 . S
C818 H799 0.951 . S
C818 C816 1.388 . S
C818 C819 1.366 . S
C819 C818 1.366 . S
C819 C820 1.414 . S
C819 C822 1.499 . S
C820 H800 0.950 . S
C820 C819 1.414 . S
C820 C821 1.374 . S
C821 H801 0.950 . S
C821 C817 1.385 . S
C821 C820 1.374 . S
C822 C819 1.499 . S
C822 C823 1.373 . S
C822 C824 1.389 . S
C823 H802 0.950 . S
C823 C822 1.373 . S
C823 C839 1.377 . S
C824 C822 1.389 . S
C824 C825 1.524 . S
C824 C838 1.377 . S
C825 C824 1.524 . S
C825 C826 1.397 . S
C825 C830 1.363 . S
C826 H803 0.950 . S
C826 C825 1.397 . S
C826 C827 1.334 . S
C827 H804 0.950 . S
C827 C826 1.334 . S
C827 C828 1.287 . S
C828 C827 1.287 . S
C828 C829 1.524 . S
C828 H847 0.913 . S
C829 H805 0.950 . S
C829 C828 1.524 . S
C829 C830 1.415 . S
C830 H806 0.950 . S
C830 C825 1.363 . S
C830 C829 1.415 . S
C831 H807 0.951 . S
C831 C832 1.366 . S
C831 C833 1.388 . S
C832 C831 1.366 . S
C832 C836 1.385 . S
C833 H808 0.951 . S
C833 C831 1.388 . S
C833 C834 1.366 . S
C834 C833 1.366 . S
C834 C835 1.414 . S
C834 C837 1.499 . S
C835 H809 0.950 . S
C835 C834 1.414 . S
C835 C836 1.374 . S
C836 H810 0.950 . S
C836 C832 1.385 . S
C836 C835 1.374 . S
C837 C834 1.499 . S
C837 C838 1.373 . S
C837 C839 1.389 . S
C838 H811 0.950 . S
C838 C824 1.377 . S
C838 C837 1.373 . S
C839 C823 1.377 . S
C839 C837 1.389 . S
C839 C840 1.524 . S
C840 C839 1.524 . S
C840 C841 1.397 . S
C840 C845 1.363 . S
C841 H812 0.950 . S
C841 C840 1.397 . S
C841 C842 1.334 . S
C842 H813 0.950 . S
C842 C841 1.334 . S
C842 C843 1.287 . S
C843 C842 1.287 . S
C843 C844 1.524 . S
C843 H846 0.999 . S
C844 H814 0.950 . S
C844 C843 1.524 . S
C844 C845 1.415 . S
C845 H815 0.950 . S
C845 C840 1.363 . S
C845 C844 1.415 . S
H846 C843 0.999 . S
H847 C828 0.913 . S
H848 C866 0.951 . S
H849 C868 0.951 . S
H850 C870 0.950 . S
H851 C871 0.950 . S
H852 C873 0.950 . S
H853 C876 0.950 . S
H854 C877 0.950 . S
H855 C879 0.950 . S
H856 C880 0.950 . S
H857 C881 0.951 . S
H858 C883 0.951 . S
H859 C885 0.950 . S
H860 C886 0.950 . S
H861 C888 0.950 . S
H862 C891 0.950 1_556 S
H863 C892 0.950 . S
H864 C894 0.950 . S
H865 C895 0.950 . S
C866 H848 0.951 . S
C866 C867 1.366 1_455 S
C866 C868 1.388 . S
C867 C866 1.366 1_655 S
C867 C871 1.385 . S
C868 H849 0.951 . S
C868 C866 1.388 . S
C868 C869 1.366 . S
C869 C868 1.366 . S
C869 C870 1.414 1_455 S
C869 C872 1.499 . S
C870 H850 0.950 . S
C870 C869 1.414 1_655 S
C870 C871 1.374 . S
C871 H851 0.950 . S
C871 C867 1.385 . S
C871 C870 1.374 . S
C872 C869 1.499 . S
C872 C873 1.373 1_455 S
C872 C874 1.389 . S
C873 H852 0.950 . S
C873 C872 1.373 1_655 S
C873 C889 1.377 . S
C874 C872 1.389 . S
C874 C875 1.524 . S
C874 C888 1.377 . S
C875 C874 1.524 . S
C875 C876 1.397 . S
C875 C880 1.363 . S
C876 H853 0.950 . S
C876 C875 1.397 . S
C876 C877 1.334 . S
C877 H854 0.950 . S
C877 C876 1.334 . S
C877 C878 1.287 . S
C878 C877 1.287 . S
C878 C879 1.524 . S
C878 H897 0.913 . S
C879 H855 0.950 . S
C879 C878 1.524 . S
C879 C880 1.415 . S
C880 H856 0.950 . S
C880 C875 1.363 . S
C880 C879 1.415 . S
C881 H857 0.951 . S
C881 C882 1.366 1_554 S
C881 C883 1.388 . S
C882 C881 1.366 1_556 S
C882 C886 1.385 . S
C883 H858 0.951 . S
C883 C881 1.388 . S
C883 C884 1.366 . S
C884 C883 1.366 . S
C884 C885 1.414 1_554 S
C884 C887 1.499 . S
C885 H859 0.950 . S
C885 C884 1.414 1_556 S
C885 C886 1.374 . S
C886 H860 0.950 . S
C886 C882 1.385 . S
C886 C885 1.374 . S
C887 C884 1.499 . S
C887 C888 1.373 . S
C887 C889 1.389 1_455 S
C888 H861 0.950 . S
C888 C874 1.377 . S
C888 C887 1.373 . S
C889 C873 1.377 . S
C889 C887 1.389 1_655 S
C889 C890 1.524 . S
C890 C889 1.524 . S
C890 C891 1.397 . S
C890 C895 1.363 . S
C891 H862 0.950 1_554 S
C891 C890 1.397 . S
C891 C892 1.334 1_554 S
C892 H863 0.950 . S
C892 C891 1.334 1_556 S
C892 C893 1.287 1_556 S
C893 C892 1.287 1_554 S
C893 C894 1.524 . S
C893 H896 0.999 . S
C894 H864 0.950 . S
C894 C893 1.524 . S
C894 C895 1.415 . S
C895 H865 0.950 . S
C895 C890 1.363 . S
C895 C894 1.415 . S
H896 C893 0.999 . S
H897 C878 0.913 . S
H898 C916 0.951 . S
H899 C918 0.951 . S
H900 C920 0.950 . S
H901 C921 0.950 . S
H902 C923 0.950 . S
H903 C926 0.950 . S
H904 C927 0.950 . S
H905 C929 0.950 . S
H906 C930 0.950 . S
H907 C931 0.951 . S
H908 C933 0.951 . S
H909 C935 0.950 . S
H910 C936 0.950 . S
H911 C938 0.950 . S
H912 C941 0.950 . S
H913 C942 0.950 . S
H914 C944 0.950 1_556 S
H915 C945 0.950 . S
C916 H898 0.951 . S
C916 C917 1.366 . S
C916 C918 1.388 . S
C917 C916 1.366 . S
C917 C921 1.385 1_565 S
C918 H899 0.951 . S
C918 C916 1.388 . S
C918 C919 1.366 1_565 S
C919 C918 1.366 1_545 S
C919 C920 1.414 . S
C919 C922 1.499 . S
C920 H900 0.950 . S
C920 C919 1.414 . S
C920 C921 1.374 . S
C921 H901 0.950 . S
C921 C917 1.385 1_545 S
C921 C920 1.374 . S
C922 C919 1.499 . S
C922 C923 1.373 . S
C922 C924 1.389 1_545 S
C923 H902 0.950 . S
C923 C922 1.373 . S
C923 C939 1.377 . S
C924 C922 1.389 1_565 S
C924 C925 1.524 . S
C924 C938 1.377 . S
C925 C924 1.524 . S
C925 C926 1.397 . S
C925 C930 1.363 . S
C926 H903 0.950 . S
C926 C925 1.397 . S
C926 C927 1.334 . S
C927 H904 0.950 . S
C927 C926 1.334 . S
C927 C928 1.287 . S
C928 C927 1.287 . S
C928 C929 1.524 . S
C928 H947 0.913 . S
C929 H905 0.950 . S
C929 C928 1.524 . S
C929 C930 1.415 . S
C930 H906 0.950 . S
C930 C925 1.363 . S
C930 C929 1.415 . S
C931 H907 0.951 . S
C931 C932 1.366 . S
C931 C933 1.388 . S
C932 C931 1.366 . S
C932 C936 1.385 1_556 S
C933 H908 0.951 . S
C933 C931 1.388 . S
C933 C934 1.366 1_556 S
C934 C933 1.366 1_554 S
C934 C935 1.414 . S
C934 C937 1.499 . S
C935 H909 0.950 . S
C935 C934 1.414 . S
C935 C936 1.374 . S
C936 H910 0.950 . S
C936 C932 1.385 1_554 S
C936 C935 1.374 . S
C937 C934 1.499 . S
C937 C938 1.373 1_545 S
C937 C939 1.389 . S
C938 H911 0.950 . S
C938 C924 1.377 . S
C938 C937 1.373 1_565 S
C939 C923 1.377 . S
C939 C937 1.389 . S
C939 C940 1.524 . S
C940 C939 1.524 . S
C940 C941 1.397 . S
C940 C945 1.363 . S
C941 H912 0.950 . S
C941 C940 1.397 . S
C941 C942 1.334 . S
C942 H913 0.950 . S
C942 C941 1.334 . S
C942 C943 1.287 . S
C943 C942 1.287 . S
C943 C944 1.524 . S
C943 H946 0.999 . S
C944 H914 0.950 1_554 S
C944 C943 1.524 . S
C944 C945 1.415 . S
C945 H915 0.950 . S
C945 C940 1.363 . S
C945 C944 1.415 . S
H946 C943 0.999 . S
H947 C928 0.913 . S
H948 C966 0.951 . S
H949 C968 0.951 . S
H950 C970 0.950 . S
H951 C971 0.950 . S
H952 C973 0.950 . S
H953 C976 0.950 . S
H954 C977 0.950 . S
H955 C979 0.950 . S
H956 C980 0.950 . S
H957 C981 0.951 . S
H958 C983 0.951 . S
H959 C985 0.950 . S
H960 C986 0.950 . S
H961 C988 0.950 . S
H962 C991 0.950 . S
H963 C992 0.950 . S
H964 C994 0.950 . S
H965 C995 0.950 . S
C966 H948 0.951 . S
C966 C967 1.366 . S
C966 C968 1.388 . S
C967 C966 1.366 . S
C967 C971 1.385 . S
C968 H949 0.951 . S
C968 C966 1.388 . S
C968 C969 1.366 . S
C969 C968 1.366 . S
C969 C970 1.414 . S
C969 C972 1.499 . S
C970 H950 0.950 . S
C970 C969 1.414 . S
C970 C971 1.374 . S
C971 H951 0.950 . S
C971 C967 1.385 . S
C971 C970 1.374 . S
C972 C969 1.499 . S
C972 C973 1.373 . S
C972 C974 1.389 . S
C973 H952 0.950 . S
C973 C972 1.373 . S
C973 C989 1.377 . S
C974 C972 1.389 . S
C974 C975 1.524 . S
C974 C988 1.377 . S
C975 C974 1.524 . S
C975 C976 1.397 . S
C975 C980 1.363 . S
C976 H953 0.950 . S
C976 C975 1.397 . S
C976 C977 1.334 . S
C977 H954 0.950 . S
C977 C976 1.334 . S
C977 C978 1.287 . S
C978 C977 1.287 . S
C978 C979 1.524 . S
C978 H997 0.913 . S
C979 H955 0.950 . S
C979 C978 1.524 . S
C979 C980 1.415 . S
C980 H956 0.950 . S
C980 C975 1.363 . S
C980 C979 1.415 . S
C981 H957 0.951 . S
C981 C982 1.366 . S
C981 C983 1.388 . S
C982 C981 1.366 . S
C982 C986 1.385 1_556 S
C983 H958 0.951 . S
C983 C981 1.388 . S
C983 C984 1.366 1_556 S
C984 C983 1.366 1_554 S
C984 C985 1.414 . S
C984 C987 1.499 . S
C985 H959 0.950 . S
C985 C984 1.414 . S
C985 C986 1.374 . S
C986 H960 0.950 . S
C986 C982 1.385 1_554 S
C986 C985 1.374 . S
C987 C984 1.499 . S
C987 C988 1.373 . S
C987 C989 1.389 . S
C988 H961 0.950 . S
C988 C974 1.377 . S
C988 C987 1.373 . S
C989 C973 1.377 . S
C989 C987 1.389 . S
C989 C990 1.524 . S
C990 C989 1.524 . S
C990 C991 1.397 . S
C990 C995 1.363 1_554 S
C991 H962 0.950 . S
C991 C990 1.397 . S
C991 C992 1.334 1_554 S
C992 H963 0.950 . S
C992 C991 1.334 1_556 S
C992 C993 1.287 . S
C993 C992 1.287 . S
C993 C994 1.524 . S
C993 H996 0.999 . S
C994 H964 0.950 . S
C994 C993 1.524 . S
C994 C995 1.415 . S
C995 H965 0.950 . S
C995 C990 1.363 1_556 S
C995 C994 1.415 . S
H996 C993 0.999 . S
H997 C978 0.913 . S
H998 C1016 0.951 . S
H999 C1018 0.951 . S
H1000 C1020 0.950 . S
H1001 C1021 0.950 . S
H1002 C1023 0.950 . S
H1003 C1026 0.950 . S
H1004 C1027 0.950 . S
H1005 C1029 0.950 1_556 S
H1006 C1030 0.950 1_556 S
H1007 C1031 0.951 . S
H1008 C1033 0.951 . S
H1009 C1035 0.950 . S
H1010 C1036 0.950 . S
H1011 C1038 0.950 . S
H1012 C1041 0.950 . S
H1013 C1042 0.950 . S
H1014 C1044 0.950 . S
H1015 C1045 0.950 . S
C1016 H998 0.951 . S
C1016 C1017 1.366 . S
C1016 C1018 1.388 . S
C1017 C1016 1.366 . S
C1017 C1021 1.385 . S
C1018 H999 0.951 . S
C1018 C1016 1.388 . S
C1018 C1019 1.366 . S
C1019 C1018 1.366 . S
C1019 C1020 1.414 . S
C1019 C1022 1.499 . S
C1020 H1000 0.950 . S
C1020 C1019 1.414 . S
C1020 C1021 1.374 . S
C1021 H1001 0.950 . S
C1021 C1017 1.385 . S
C1021 C1020 1.374 . S
C1022 C1019 1.499 . S
C1022 C1023 1.373 . S
C1022 C1024 1.389 . S
C1023 H1002 0.950 . S
C1023 C1022 1.373 . S
C1023 C1039 1.377 . S
C1024 C1022 1.389 . S
C1024 C1025 1.524 . S
C1024 C1038 1.377 . S
C1025 C1024 1.524 . S
C1025 C1026 1.397 . S
C1025 C1030 1.363 . S
C1026 H1003 0.950 . S
C1026 C1025 1.397 . S
C1026 C1027 1.334 . S
C1027 H1004 0.950 . S
C1027 C1026 1.334 . S
C1027 C1028 1.287 . S
C1028 C1027 1.287 . S
C1028 C1029 1.524 . S
C1028 H1047 0.913 . S
C1029 H1005 0.950 1_554 S
C1029 C1028 1.524 . S
C1029 C1030 1.415 . S
C1030 H1006 0.950 1_554 S
C1030 C1025 1.363 . S
C1030 C1029 1.415 . S
C1031 H1007 0.951 . S
C1031 C1032 1.366 1_554 S
C1031 C1033 1.388 . S
C1032 C1031 1.366 1_556 S
C1032 C1036 1.385 . S
C1033 H1008 0.951 . S
C1033 C1031 1.388 . S
C1033 C1034 1.366 . S
C1034 C1033 1.366 . S
C1034 C1035 1.414 1_554 S
C1034 C1037 1.499 . S
C1035 H1009 0.950 . S
C1035 C1034 1.414 1_556 S
C1035 C1036 1.374 . S
C1036 H1010 0.950 . S
C1036 C1032 1.385 . S
C1036 C1035 1.374 . S
C1037 C1034 1.499 . S
C1037 C1038 1.373 . S
C1037 C1039 1.389 . S
C1038 H1011 0.950 . S
C1038 C1024 1.377 . S
C1038 C1037 1.373 . S
C1039 C1023 1.377 . S
C1039 C1037 1.389 . S
C1039 C1040 1.524 . S
C1040 C1039 1.524 . S
C1040 C1041 1.397 . S
C1040 C1045 1.363 . S
C1041 H1012 0.950 . S
C1041 C1040 1.397 . S
C1041 C1042 1.334 . S
C1042 H1013 0.950 . S
C1042 C1041 1.334 . S
C1042 C1043 1.287 . S
C1043 C1042 1.287 . S
C1043 C1044 1.524 . S
C1043 H1046 0.999 . S
C1044 H1014 0.950 . S
C1044 C1043 1.524 . S
C1044 C1045 1.415 . S
C1045 H1015 0.950 . S
C1045 C1040 1.363 . S
C1045 C1044 1.415 . S
H1046 C1043 0.999 . S
H1047 C1028 0.913 . S
H1048 C1066 0.951 . S
H1049 C1068 0.951 . S
H1050 C1070 0.950 . S
H1051 C1071 0.950 . S
H1052 C1073 0.950 . S
H1053 C1076 0.950 . S
H1054 C1077 0.950 . S
H1055 C1079 0.950 . S
H1056 C1080 0.950 . S
H1057 C1081 0.951 . S
H1058 C1083 0.951 . S
H1059 C1085 0.950 . S
H1060 C1086 0.950 . S
H1061 C1088 0.950 . S
H1062 C1091 0.950 . S
H1063 C1092 0.950 . S
H1064 C1094 0.950 . S
H1065 C1095 0.950 . S
C1066 H1048 0.951 . S
C1066 C1067 1.366 1_655 S
C1066 C1068 1.388 . S
C1067 C1066 1.366 1_455 S
C1067 C1071 1.385 . S
C1068 H1049 0.951 . S
C1068 C1066 1.388 . S
C1068 C1069 1.366 1_655 S
C1069 C1068 1.366 1_455 S
C1069 C1070 1.414 . S
C1069 C1072 1.499 . S
C1070 H1050 0.950 . S
C1070 C1069 1.414 . S
C1070 C1071 1.374 . S
C1071 H1051 0.950 . S
C1071 C1067 1.385 . S
C1071 C1070 1.374 . S
C1072 C1069 1.499 . S
C1072 C1073 1.373 . S
C1072 C1074 1.389 1_455 S
C1073 H1052 0.950 . S
C1073 C1072 1.373 . S
C1073 C1089 1.377 . S
C1074 C1072 1.389 1_655 S
C1074 C1075 1.524 . S
C1074 C1088 1.377 . S
C1075 C1074 1.524 . S
C1075 C1076 1.397 1_556 S
C1075 C1080 1.363 . S
C1076 H1053 0.950 . S
C1076 C1075 1.397 1_554 S
C1076 C1077 1.334 . S
C1077 H1054 0.950 . S
C1077 C1076 1.334 . S
C1077 C1078 1.287 . S
C1078 C1077 1.287 . S
C1078 C1079 1.524 1_554 S
C1078 H1097 0.913 . S
C1079 H1055 0.950 . S
C1079 C1078 1.524 1_556 S
C1079 C1080 1.415 . S
C1080 H1056 0.950 . S
C1080 C1075 1.363 . S
C1080 C1079 1.415 . S
C1081 H1057 0.951 . S
C1081 C1082 1.366 . S
C1081 C1083 1.388 . S
C1082 C1081 1.366 . S
C1082 C1086 1.385 1_455 S
C1083 H1058 0.951 . S
C1083 C1081 1.388 . S
C1083 C1084 1.366 . S
C1084 C1083 1.366 . S
C1084 C1085 1.414 1_455 S
C1084 C1087 1.499 . S
C1085 H1059 0.950 . S
C1085 C1084 1.414 1_655 S
C1085 C1086 1.374 . S
C1086 H1060 0.950 . S
C1086 C1082 1.385 1_655 S
C1086 C1085 1.374 . S
C1087 C1084 1.499 . S
C1087 C1088 1.373 1_455 S
C1087 C1089 1.389 . S
C1088 H1061 0.950 . S
C1088 C1074 1.377 . S
C1088 C1087 1.373 1_655 S
C1089 C1073 1.377 . S
C1089 C1087 1.389 . S
C1089 C1090 1.524 . S
C1090 C1089 1.524 . S
C1090 C1091 1.397 . S
C1090 C1095 1.363 . S
C1091 H1062 0.950 . S
C1091 C1090 1.397 . S
C1091 C1092 1.334 . S
C1092 H1063 0.950 . S
C1092 C1091 1.334 . S
C1092 C1093 1.287 . S
C1093 C1092 1.287 . S
C1093 C1094 1.524 . S
C1093 H1096 0.999 . S
C1094 H1064 0.950 . S
C1094 C1093 1.524 . S
C1094 C1095 1.415 . S
C1095 H1065 0.950 . S
C1095 C1090 1.363 . S
C1095 C1094 1.415 . S
H1096 C1093 0.999 . S
H1097 C1078 0.913 . S
H1098 C1116 0.951 . S
H1099 C1118 0.951 . S
H1100 C1120 0.950 . S
H1101 C1121 0.950 1_554 S
H1102 C1123 0.950 . S
H1103 C1126 0.950 . S
H1104 C1127 0.950 . S
H1105 C1129 0.950 . S
H1106 C1130 0.950 . S
H1107 C1131 0.951 . S
H1108 C1133 0.951 . S
H1109 C1135 0.950 . S
H1110 C1136 0.950 . S
H1111 C1138 0.950 . S
H1112 C1141 0.950 . S
H1113 C1142 0.950 . S
H1114 C1144 0.950 . S
H1115 C1145 0.950 . S
C1116 H1098 0.951 . S
C1116 C1117 1.366 . S
C1116 C1118 1.388 . S
C1117 C1116 1.366 . S
C1117 C1121 1.385 1_545 S
C1118 H1099 0.951 . S
C1118 C1116 1.388 . S
C1118 C1119 1.366 . S
C1119 C1118 1.366 . S
C1119 C1120 1.414 1_545 S
C1119 C1122 1.499 . S
C1120 H1100 0.950 . S
C1120 C1119 1.414 1_565 S
C1120 C1121 1.374 . S
C1121 H1101 0.950 1_556 S
C1121 C1117 1.385 1_565 S
C1121 C1120 1.374 . S
C1122 C1119 1.499 . S
C1122 C1123 1.373 . S
C1122 C1124 1.389 1_545 S
C1123 H1102 0.950 . S
C1123 C1122 1.373 . S
C1123 C1139 1.377 . S
C1124 C1122 1.389 1_565 S
C1124 C1125 1.524 . S
C1124 C1138 1.377 . S
C1125 C1124 1.524 . S
C1125 C1126 1.397 . S
C1125 C1130 1.363 . S
C1126 H1103 0.950 . S
C1126 C1125 1.397 . S
C1126 C1127 1.334 . S
C1127 H1104 0.950 . S
C1127 C1126 1.334 . S
C1127 C1128 1.287 . S
C1128 C1127 1.287 . S
C1128 C1129 1.524 . S
C1128 H1147 0.913 . S
C1129 H1105 0.950 . S
C1129 C1128 1.524 . S
C1129 C1130 1.415 . S
C1130 H1106 0.950 . S
C1130 C1125 1.363 . S
C1130 C1129 1.415 . S
C1131 H1107 0.951 . S
C1131 C1132 1.366 . S
C1131 C1133 1.388 . S
C1132 C1131 1.366 . S
C1132 C1136 1.385 . S
C1133 H1108 0.951 . S
C1133 C1131 1.388 . S
C1133 C1134 1.366 . S
C1134 C1133 1.366 . S
C1134 C1135 1.414 . S
C1134 C1137 1.499 . S
C1135 H1109 0.950 . S
C1135 C1134 1.414 . S
C1135 C1136 1.374 . S
C1136 H1110 0.950 . S
C1136 C1132 1.385 . S
C1136 C1135 1.374 . S
C1137 C1134 1.499 . S
C1137 C1138 1.373 1_545 S
C1137 C1139 1.389 . S
C1138 H1111 0.950 . S
C1138 C1124 1.377 . S
C1138 C1137 1.373 1_565 S
C1139 C1123 1.377 . S
C1139 C1137 1.389 . S
C1139 C1140 1.524 . S
C1140 C1139 1.524 . S
C1140 C1141 1.397 . S
C1140 C1145 1.363 1_556 S
C1141 H1112 0.950 . S
C1141 C1140 1.397 . S
C1141 C1142 1.334 . S
C1142 H1113 0.950 . S
C1142 C1141 1.334 . S
C1142 C1143 1.287 1_556 S
C1143 C1142 1.287 1_554 S
C1143 C1144 1.524 . S
C1143 H1146 0.999 . S
C1144 H1114 0.950 . S
C1144 C1143 1.524 . S
C1144 C1145 1.415 . S
C1145 H1115 0.950 . S
C1145 C1140 1.363 1_554 S
C1145 C1144 1.415 . S
H1146 C1143 0.999 . S
H1147 C1128 0.913 . S
H1148 C1166 0.951 . S
H1149 C1168 0.951 . S
H1150 C1170 0.950 . S
H1151 C1171 0.950 . S
H1152 C1173 0.950 . S
H1153 C1176 0.950 . S
H1154 C1177 0.950 . S
H1155 C1179 0.950 . S
H1156 C1180 0.950 . S
H1157 C1181 0.951 . S
H1158 C1183 0.951 . S
H1159 C1185 0.950 . S
H1160 C1186 0.950 . S
H1161 C1188 0.950 . S
H1162 C1191 0.950 . S
H1163 C1192 0.950 . S
H1164 C1194 0.950 . S
H1165 C1195 0.950 . S
C1166 H1148 0.951 . S
C1166 C1167 1.366 . S
C1166 C1168 1.388 . S
C1167 C1166 1.366 . S
C1167 C1171 1.385 . S
C1168 H1149 0.951 . S
C1168 C1166 1.388 . S
C1168 C1169 1.366 . S
C1169 C1168 1.366 . S
C1169 C1170 1.414 . S
C1169 C1172 1.499 . S
C1170 H1150 0.950 . S
C1170 C1169 1.414 . S
C1170 C1171 1.374 . S
C1171 H1151 0.950 . S
C1171 C1167 1.385 . S
C1171 C1170 1.374 . S
C1172 C1169 1.499 . S
C1172 C1173 1.373 . S
C1172 C1174 1.389 . S
C1173 H1152 0.950 . S
C1173 C1172 1.373 . S
C1173 C1189 1.377 . S
C1174 C1172 1.389 . S
C1174 C1175 1.524 . S
C1174 C1188 1.377 . S
C1175 C1174 1.524 . S
C1175 C1176 1.397 . S
C1175 C1180 1.363 . S
C1176 H1153 0.950 . S
C1176 C1175 1.397 . S
C1176 C1177 1.334 . S
C1177 H1154 0.950 . S
C1177 C1176 1.334 . S
C1177 C1178 1.287 . S
C1178 C1177 1.287 . S
C1178 C1179 1.524 . S
C1178 H1197 0.913 . S
C1179 H1155 0.950 . S
C1179 C1178 1.524 . S
C1179 C1180 1.415 . S
C1180 H1156 0.950 . S
C1180 C1175 1.363 . S
C1180 C1179 1.415 . S
C1181 H1157 0.951 . S
C1181 C1182 1.366 . S
C1181 C1183 1.388 . S
C1182 C1181 1.366 . S
C1182 C1186 1.385 . S
C1183 H1158 0.951 . S
C1183 C1181 1.388 . S
C1183 C1184 1.366 . S
C1184 C1183 1.366 . S
C1184 C1185 1.414 . S
C1184 C1187 1.499 . S
C1185 H1159 0.950 . S
C1185 C1184 1.414 . S
C1185 C1186 1.374 . S
C1186 H1160 0.950 . S
C1186 C1182 1.385 . S
C1186 C1185 1.374 . S
C1187 C1184 1.499 . S
C1187 C1188 1.373 . S
C1187 C1189 1.389 . S
C1188 H1161 0.950 . S
C1188 C1174 1.377 . S
C1188 C1187 1.373 . S
C1189 C1173 1.377 . S
C1189 C1187 1.389 . S
C1189 C1190 1.524 . S
C1190 C1189 1.524 . S
C1190 C1191 1.397 . S
C1190 C1195 1.363 . S
C1191 H1162 0.950 . S
C1191 C1190 1.397 . S
C1191 C1192 1.334 . S
C1192 H1163 0.950 . S
C1192 C1191 1.334 . S
C1192 C1193 1.287 . S
C1193 C1192 1.287 . S
C1193 C1194 1.524 . S
C1193 H1196 0.999 . S
C1194 H1164 0.950 . S
C1194 C1193 1.524 . S
C1194 C1195 1.415 . S
C1195 H1165 0.950 . S
C1195 C1190 1.363 . S
C1195 C1194 1.415 . S
H1196 C1193 0.999 . S
H1197 C1178 0.913 . S
H1198 C1216 0.955 . S
H1199 C1218 0.951 . S
H1200 C1220 0.950 . S
H1201 C1221 0.950 . S
H1202 C1223 0.950 . S
H1203 C1226 0.950 . S
H1204 C1227 0.953 . S
H1205 C1229 0.950 . S
H1206 C1230 0.950 . S
H1207 C1231 0.951 . S
H1208 C1233 0.951 . S
H1209 C1235 0.950 . S
H1210 C1236 0.950 . S
H1211 C1238 0.950 . S
H1212 C1241 0.950 . S
H1213 C1242 0.950 . S
H1214 C1244 0.950 . S
H1215 C1245 0.950 . S
C1216 H1198 0.955 . S
C1216 C1217 1.366 . S
C1216 C1218 1.388 . S
C1217 C1216 1.366 . S
C1217 C1221 1.385 . S
C1218 H1199 0.951 . S
C1218 C1216 1.388 . S
C1218 C1219 1.366 . S
C1219 C1218 1.366 . S
C1219 C1220 1.414 . S
C1219 C1222 1.499 . S
C1220 H1200 0.950 . S
C1220 C1219 1.414 . S
C1220 C1221 1.374 . S
C1221 H1201 0.950 . S
C1221 C1217 1.385 . S
C1221 C1220 1.374 . S
C1222 C1219 1.499 . S
C1222 C1223 1.373 . S
C1222 C1224 1.389 . S
C1223 H1202 0.950 . S
C1223 C1222 1.373 . S
C1223 C1239 1.377 . S
C1224 C1222 1.389 . S
C1224 C1225 1.524 . S
C1224 C1238 1.377 . S
C1225 C1224 1.524 . S
C1225 C1226 1.397 . S
C1225 C1230 1.363 1_556 S
C1226 H1203 0.950 . S
C1226 C1225 1.397 . S
C1226 C1227 1.343 . S
C1227 H1204 0.953 . S
C1227 C1226 1.343 . S
C1227 C1228 1.275 1_556 S
C1228 C1227 1.275 1_554 S
C1228 C1229 1.524 . S
C1228 H1247 0.913 . S
C1229 H1205 0.950 . S
C1229 C1228 1.524 . S
C1229 C1230 1.415 . S
C1230 H1206 0.950 . S
C1230 C1225 1.363 1_554 S
C1230 C1229 1.415 . S
C1231 H1207 0.951 . S
C1231 C1232 1.366 . S
C1231 C1233 1.388 . S
C1232 C1231 1.366 . S
C1232 C1236 1.385 . S
C1233 H1208 0.951 . S
C1233 C1231 1.388 . S
C1233 C1234 1.366 . S
C1234 C1233 1.366 . S
C1234 C1235 1.414 . S
C1234 C1237 1.499 . S
C1235 H1209 0.950 . S
C1235 C1234 1.414 . S
C1235 C1236 1.374 . S
C1236 H1210 0.950 . S
C1236 C1232 1.385 . S
C1236 C1235 1.374 . S
C1237 C1234 1.499 . S
C1237 C1238 1.373 . S
C1237 C1239 1.389 . S
C1238 H1211 0.950 . S
C1238 C1224 1.377 . S
C1238 C1237 1.373 . S
C1239 C1223 1.377 . S
C1239 C1237 1.389 . S
C1239 C1240 1.524 . S
C1240 C1239 1.524 . S
C1240 C1241 1.397 . S
C1240 C1245 1.363 . S
C1241 H1212 0.950 . S
C1241 C1240 1.397 . S
C1241 C1242 1.334 . S
C1242 H1213 0.950 . S
C1242 C1241 1.334 . S
C1242 C1243 1.287 . S
C1243 C1242 1.287 . S
C1243 C1244 1.524 . S
C1243 H1246 0.999 . S
C1244 H1214 0.950 . S
C1244 C1243 1.524 . S
C1244 C1245 1.415 . S
C1245 H1215 0.950 . S
C1245 C1240 1.363 . S
C1245 C1244 1.415 . S
H1246 C1243 0.999 . S
H1247 C1228 0.913 . S
H1248 C1266 0.951 . S
H1249 C1268 0.951 . S
H1250 C1270 0.957 . S
H1251 C1271 0.950 . S
H1252 C1273 0.950 . S
H1253 C1276 0.950 . S
H1254 C1277 0.950 . S
H1255 C1279 0.950 . S
H1256 C1280 0.950 . S
H1257 C1281 0.951 . S
H1258 C1283 0.951 . S
H1259 C1285 0.950 . S
H1260 C1286 0.950 . S
H1261 C1288 0.950 . S
H1262 C1291 0.950 . S
H1263 C1292 0.950 . S
H1264 C1294 0.950 . S
H1265 C1295 0.950 . S
C1266 H1248 0.951 . S
C1266 C1267 1.366 . S
C1266 C1268 1.388 . S
C1267 C1266 1.366 . S
C1267 C1271 1.385 1_655 S
C1268 H1249 0.951 . S
C1268 C1266 1.388 . S
C1268 C1269 1.366 . S
C1269 C1268 1.366 . S
C1269 C1270 1.408 1_655 S
C1269 C1272 1.499 . S
C1270 H1250 0.957 . S
C1270 C1269 1.408 1_455 S
C1270 C1271 1.376 . S
C1271 H1251 0.950 . S
C1271 C1267 1.385 1_455 S
C1271 C1270 1.376 . S
C1272 C1269 1.499 . S
C1272 C1273 1.373 . S
C1272 C1274 1.389 1_655 S
C1273 H1252 0.950 . S
C1273 C1272 1.373 . S
C1273 C1289 1.377 . S
C1274 C1272 1.389 1_455 S
C1274 C1275 1.524 . S
C1274 C1288 1.377 . S
C1275 C1274 1.524 . S
C1275 C1276 1.397 . S
C1275 C1280 1.363 . S
C1276 H1253 0.950 . S
C1276 C1275 1.397 . S
C1276 C1277 1.334 . S
C1277 H1254 0.950 . S
C1277 C1276 1.334 . S
C1277 C1278 1.287 . S
C1278 C1277 1.287 . S
C1278 C1279 1.524 . S
C1278 H1297 0.913 . S
C1279 H1255 0.950 . S
C1279 C1278 1.524 . S
C1279 C1280 1.415 . S
C1280 H1256 0.950 . S
C1280 C1275 1.363 . S
C1280 C1279 1.415 . S
C1281 H1257 0.951 . S
C1281 C1282 1.366 . S
C1281 C1283 1.388 . S
C1282 C1281 1.366 . S
C1282 C1286 1.385 . S
C1283 H1258 0.951 . S
C1283 C1281 1.388 . S
C1283 C1284 1.366 . S
C1284 C1283 1.366 . S
C1284 C1285 1.414 . S
C1284 C1287 1.499 . S
C1285 H1259 0.950 . S
C1285 C1284 1.414 . S
C1285 C1286 1.374 . S
C1286 H1260 0.950 . S
C1286 C1282 1.385 . S
C1286 C1285 1.374 . S
C1287 C1284 1.499 . S
C1287 C1288 1.373 1_655 S
C1287 C1289 1.389 . S
C1288 H1261 0.950 . S
C1288 C1274 1.377 . S
C1288 C1287 1.373 1_455 S
C1289 C1273 1.377 . S
C1289 C1287 1.389 . S
C1289 C1290 1.524 . S
C1290 C1289 1.524 . S
C1290 C1291 1.397 . S
C1290 C1295 1.363 . S
C1291 H1262 0.950 . S
C1291 C1290 1.397 . S
C1291 C1292 1.334 . S
C1292 H1263 0.950 . S
C1292 C1291 1.334 . S
C1292 C1293 1.287 . S
C1293 C1292 1.287 . S
C1293 C1294 1.524 . S
C1293 H1296 0.999 . S
C1294 H1264 0.950 . S
C1294 C1293 1.524 . S
C1294 C1295 1.415 . S
C1295 H1265 0.950 . S
C1295 C1290 1.363 . S
C1295 C1294 1.415 . S
H1296 C1293 0.999 . S
H1297 C1278 0.913 . S
H1298 C1316 0.951 . S
H1299 C1318 0.951 . S
H1300 C1320 0.950 . S
H1301 C1321 0.950 . S
H1302 C1323 0.950 . S
H1303 C1326 0.950 . S
H1304 C1327 0.950 . S
H1305 C1329 0.950 . S
H1306 C1330 0.950 . S
H1307 C1331 0.951 . S
H1308 C1333 0.951 . S
H1309 C1335 0.953 . S
H1310 C1336 0.950 . S
H1311 C1338 0.950 . S
H1312 C1341 0.950 . S
H1313 C1342 0.950 . S
H1314 C1344 0.950 . S
H1315 C1345 0.950 . S
C1316 H1298 0.951 . S
C1316 C1317 1.366 1_545 S
C1316 C1318 1.388 . S
C1317 C1316 1.366 1_565 S
C1317 C1321 1.385 . S
C1318 H1299 0.951 . S
C1318 C1316 1.388 . S
C1318 C1319 1.366 1_545 S
C1319 C1318 1.366 1_565 S
C1319 C1320 1.414 . S
C1319 C1322 1.499 . S
C1320 H1300 0.950 . S
C1320 C1319 1.414 . S
C1320 C1321 1.374 . S
C1321 H1301 0.950 . S
C1321 C1317 1.385 . S
C1321 C1320 1.374 . S
C1322 C1319 1.499 . S
C1322 C1323 1.373 . S
C1322 C1324 1.389 1_565 S
C1323 H1302 0.950 . S
C1323 C1322 1.373 . S
C1323 C1339 1.377 . S
C1324 C1322 1.389 1_545 S
C1324 C1325 1.524 . S
C1324 C1338 1.377 . S
C1325 C1324 1.524 . S
C1325 C1326 1.397 . S
C1325 C1330 1.363 . S
C1326 H1303 0.950 . S
C1326 C1325 1.397 . S
C1326 C1327 1.334 . S
C1327 H1304 0.950 . S
C1327 C1326 1.334 . S
C1327 C1328 1.287 . S
C1328 C1327 1.287 . S
C1328 C1329 1.524 . S
C1328 H1347 0.913 . S
C1329 H1305 0.950 . S
C1329 C1328 1.524 . S
C1329 C1330 1.415 . S
C1330 H1306 0.950 . S
C1330 C1325 1.363 . S
C1330 C1329 1.415 . S
C1331 H1307 0.951 . S
C1331 C1332 1.366 . S
C1331 C1333 1.388 . S
C1332 C1331 1.366 . S
C1332 C1336 1.385 . S
C1333 H1308 0.951 . S
C1333 C1331 1.388 . S
C1333 C1334 1.366 . S
C1334 C1333 1.366 . S
C1334 C1335 1.414 . S
C1334 C1337 1.499 . S
C1335 H1309 0.953 . S
C1335 C1334 1.414 . S
C1335 C1336 1.374 . S
C1336 H1310 0.950 . S
C1336 C1332 1.385 . S
C1336 C1335 1.374 . S
C1337 C1334 1.499 . S
C1337 C1338 1.373 1_565 S
C1337 C1339 1.389 . S
C1338 H1311 0.950 . S
C1338 C1324 1.377 . S
C1338 C1337 1.373 1_545 S
C1339 C1323 1.377 . S
C1339 C1337 1.389 . S
C1339 C1340 1.524 . S
C1340 C1339 1.524 . S
C1340 C1341 1.397 . S
C1340 C1345 1.363 . S
C1341 H1312 0.950 . S
C1341 C1340 1.397 . S
C1341 C1342 1.334 . S
C1342 H1313 0.950 . S
C1342 C1341 1.334 . S
C1342 C1343 1.287 . S
C1343 C1342 1.287 . S
C1343 C1344 1.524 . S
C1343 H1346 0.999 . S
C1344 H1314 0.950 . S
C1344 C1343 1.524 . S
C1344 C1345 1.415 . S
C1345 H1315 0.950 . S
C1345 C1340 1.363 . S
C1345 C1344 1.415 . S
H1346 C1343 0.999 . S
H1347 C1328 0.913 . S
H1348 C1366 0.951 . S
H1349 C1368 0.951 . S
H1350 C1370 0.950 . S
H1351 C1371 0.950 . S
H1352 C1373 0.950 . S
H1353 C1376 0.950 . S
H1354 C1377 0.950 . S
H1355 C1379 0.950 . S
H1356 C1380 0.950 . S
H1357 C1381 0.951 . S
H1358 C1383 0.951 . S
H1359 C1385 0.950 . S
H1360 C1386 0.950 . S
H1361 C1388 0.950 . S
H1362 C1391 0.950 . S
H1363 C1392 0.950 . S
H1364 C1394 0.950 . S
H1365 C1395 0.950 . S
C1366 H1348 0.951 . S
C1366 C1367 1.366 . S
C1366 C1368 1.388 . S
C1367 C1366 1.366 . S
C1367 C1371 1.385 . S
C1368 H1349 0.951 . S
C1368 C1366 1.388 . S
C1368 C1369 1.366 . S
C1369 C1368 1.366 . S
C1369 C1370 1.414 . S
C1369 C1372 1.499 . S
C1370 H1350 0.950 . S
C1370 C1369 1.414 . S
C1370 C1371 1.374 . S
C1371 H1351 0.950 . S
C1371 C1367 1.385 . S
C1371 C1370 1.374 . S
C1372 C1369 1.499 . S
C1372 C1373 1.373 . S
C1372 C1374 1.389 . S
C1373 H1352 0.950 . S
C1373 C1372 1.373 . S
C1373 C1389 1.377 . S
C1374 C1372 1.389 . S
C1374 C1375 1.524 . S
C1374 C1388 1.377 . S
C1375 C1374 1.524 . S
C1375 C1376 1.397 . S
C1375 C1380 1.363 . S
C1376 H1353 0.950 . S
C1376 C1375 1.397 . S
C1376 C1377 1.334 . S
C1377 H1354 0.950 . S
C1377 C1376 1.334 . S
C1377 C1378 1.287 . S
C1378 C1377 1.287 . S
C1378 C1379 1.524 . S
C1378 H1397 0.913 . S
C1379 H1355 0.950 . S
C1379 C1378 1.524 . S
C1379 C1380 1.415 . S
C1380 H1356 0.950 . S
C1380 C1375 1.363 . S
C1380 C1379 1.415 . S
C1381 H1357 0.951 . S
C1381 C1382 1.366 . S
C1381 C1383 1.388 . S
C1382 C1381 1.366 . S
C1382 C1386 1.385 . S
C1383 H1358 0.951 . S
C1383 C1381 1.388 . S
C1383 C1384 1.366 . S
C1384 C1383 1.366 . S
C1384 C1385 1.414 . S
C1384 C1387 1.499 . S
C1385 H1359 0.950 . S
C1385 C1384 1.414 . S
C1385 C1386 1.374 . S
C1386 H1360 0.950 . S
C1386 C1382 1.385 . S
C1386 C1385 1.374 . S
C1387 C1384 1.499 . S
C1387 C1388 1.373 . S
C1387 C1389 1.389 . S
C1388 H1361 0.950 . S
C1388 C1374 1.377 . S
C1388 C1387 1.373 . S
C1389 C1373 1.377 . S
C1389 C1387 1.389 . S
C1389 C1390 1.524 . S
C1390 C1389 1.524 . S
C1390 C1391 1.397 . S
C1390 C1395 1.363 . S
C1391 H1362 0.950 . S
C1391 C1390 1.397 . S
C1391 C1392 1.334 . S
C1392 H1363 0.950 . S
C1392 C1391 1.334 . S
C1392 C1393 1.287 . S
C1393 C1392 1.287 . S
C1393 C1394 1.524 . S
C1393 H1396 0.999 . S
C1394 H1364 0.950 . S
C1394 C1393 1.524 . S
C1394 C1395 1.415 . S
C1395 H1365 0.950 . S
C1395 C1390 1.363 . S
C1395 C1394 1.415 . S
H1396 C1393 0.999 . S
H1397 C1378 0.913 . S
H1398 C1416 0.951 . S
H1399 C1418 0.951 . S
H1400 C1420 0.950 . S
H1401 C1421 0.950 . S
H1402 C1423 0.950 . S
H1403 C1426 0.950 . S
H1404 C1427 0.950 . S
H1405 C1429 0.950 . S
H1406 C1430 0.950 . S
H1407 C1431 0.951 . S
H1408 C1433 0.951 . S
H1409 C1435 0.950 . S
H1410 C1436 0.950 . S
H1411 C1438 0.950 . S
H1412 C1441 0.950 . S
H1413 C1442 0.950 . S
H1414 C1444 0.950 . S
H1415 C1445 0.950 . S
C1416 H1398 0.951 . S
C1416 C1417 1.366 . S
C1416 C1418 1.388 . S
C1417 C1416 1.366 . S
C1417 C1421 1.385 . S
C1418 H1399 0.951 . S
C1418 C1416 1.388 . S
C1418 C1419 1.366 . S
C1419 C1418 1.366 . S
C1419 C1420 1.414 . S
C1419 C1422 1.499 . S
C1420 H1400 0.950 . S
C1420 C1419 1.414 . S
C1420 C1421 1.374 . S
C1421 H1401 0.950 . S
C1421 C1417 1.385 . S
C1421 C1420 1.374 . S
C1422 C1419 1.499 . S
C1422 C1423 1.373 . S
C1422 C1424 1.389 . S
C1423 H1402 0.950 . S
C1423 C1422 1.373 . S
C1423 C1439 1.377 . S
C1424 C1422 1.389 . S
C1424 C1425 1.524 . S
C1424 C1438 1.377 . S
C1425 C1424 1.524 . S
C1425 C1426 1.397 . S
C1425 C1430 1.363 . S
C1426 H1403 0.950 . S
C1426 C1425 1.397 . S
C1426 C1427 1.334 . S
C1427 H1404 0.950 . S
C1427 C1426 1.334 . S
C1427 C1428 1.287 . S
C1428 C1427 1.287 . S
C1428 C1429 1.524 . S
C1428 H1447 0.913 . S
C1429 H1405 0.950 . S
C1429 C1428 1.524 . S
C1429 C1430 1.415 . S
C1430 H1406 0.950 . S
C1430 C1425 1.363 . S
C1430 C1429 1.415 . S
C1431 H1407 0.951 . S
C1431 C1432 1.366 . S
C1431 C1433 1.388 . S
C1432 C1431 1.366 . S
C1432 C1436 1.385 . S
C1433 H1408 0.951 . S
C1433 C1431 1.388 . S
C1433 C1434 1.366 . S
C1434 C1433 1.366 . S
C1434 C1435 1.414 . S
C1434 C1437 1.499 . S
C1435 H1409 0.950 . S
C1435 C1434 1.414 . S
C1435 C1436 1.374 . S
C1436 H1410 0.950 . S
C1436 C1432 1.385 . S
C1436 C1435 1.374 . S
C1437 C1434 1.499 . S
C1437 C1438 1.373 . S
C1437 C1439 1.389 . S
C1438 H1411 0.950 . S
C1438 C1424 1.377 . S
C1438 C1437 1.373 . S
C1439 C1423 1.377 . S
C1439 C1437 1.389 . S
C1439 C1440 1.524 . S
C1440 C1439 1.524 . S
C1440 C1441 1.397 . S
C1440 C1445 1.363 . S
C1441 H1412 0.950 . S
C1441 C1440 1.397 . S
C1441 C1442 1.334 . S
C1442 H1413 0.950 . S
C1442 C1441 1.334 . S
C1442 C1443 1.287 . S
C1443 C1442 1.287 . S
C1443 C1444 1.524 . S
C1443 H1446 0.999 . S
C1444 H1414 0.950 . S
C1444 C1443 1.524 . S
C1444 C1445 1.415 . S
C1445 H1415 0.950 . S
C1445 C1440 1.363 . S
C1445 C1444 1.415 . S
H1446 C1443 0.999 . S
H1447 C1428 0.913 . S
C267 C76 1.729 . S
C282 C97 1.807 1_545 S
C332 C137 1.811 . S
C317 C87 1.725 . S
C382 C177 1.811 . S
C367 C54 1.730 . S
C432 C217 1.808 1_455 S
C417 C65 1.731 . S
C482 C106 1.811 1_565 S
C467 C32 1.732 . S
C517 C43 1.730 . S
C532 C146 1.814 . S
C567 C10 1.730 . S
C582 C186 1.810 . S
C617 C21 1.730 . S
C632 C226 1.808 1_655 S
C682 C103 0.321 . S
C667 C60 0.388 . S
C732 C143 0.321 . S
C717 C71 0.389 . S
C782 C183 0.322 . S
C767 C82 0.388 . S
C817 C49 0.386 . S
C832 C223 0.320 . S
C867 C16 0.399 . S
C882 C94 0.327 . S
C932 C134 0.319 . S
C917 C27 0.404 . S
C982 C174 0.320 . S
C967 C38 0.397 . S
C1017 C5 0.397 . S
C1032 C214 0.322 . S
C1067 C59 1.860 . S
C1082 C107 2.042 . S
C1117 C70 1.859 . S
C1132 C147 2.048 . S
C1182 C187 2.049 . S
C1167 C81 1.860 . S
C1232 C227 2.048 . S
C1217 C48 1.859 . S
C1267 C15 1.863 1_655 S
C1282 C98 2.055 . S
C1332 C138 2.048 . S
C1317 C26 1.863 . S
C1382 C178 2.048 . S
C1367 C37 1.862 . S
C1417 C4 1.862 . S
C1432 C218 2.048 . S
