# Generated by pormake.
# Topology rtl, (3,6)-cn, num edge types: 1
# Building blocks:
#     Node 0, Type 0, BuildingBlock: QEWDON_clean_linker_0, # of connection points: 3
#     Node 1, Type 0, BuildingBlock: QEWDON_clean_linker_0, # of connection points: 3
#     Node 2, Type 0, BuildingBlock: QEWDON_clean_linker_0, # of connection points: 3
#     Node 3, Type 0, BuildingBlock: QEWDON_clean_linker_0, # of connection points: 3
#     Node 4, Type 1, BuildingBlock: CIFDUS_clean_sbu_1, # of connection points: 6
#     Node 5, Type 1, BuildingBlock: CIFDUS_clean_sbu_1, # of connection points: 6
#     Edge 6, Type (0, 1), BuildingBlock: MIFKUJ_clean_linker_0, # of connection points: 2
#     Edge 7, Type (0, 1), BuildingBlock: MIFKUJ_clean_linker_0, # of connection points: 2
#     Edge 8, Type (0, 1), BuildingBlock: MIFKUJ_clean_linker_0, # of connection points: 2
#     Edge 9, Type (0, 1), BuildingBlock: MIFKUJ_clean_linker_0, # of connection points: 2
#     Edge 10, Type (0, 1), BuildingBlock: MIFKUJ_clean_linker_0, # of connection points: 2
#     Edge 11, Type (0, 1), BuildingBlock: MIFKUJ_clean_linker_0, # of connection points: 2
#     Edge 12, Type (0, 1), BuildingBlock: MIFKUJ_clean_linker_0, # of connection points: 2
#     Edge 13, Type (0, 1), BuildingBlock: MIFKUJ_clean_linker_0, # of connection points: 2
#     Edge 14, Type (0, 1), BuildingBlock: MIFKUJ_clean_linker_0, # of connection points: 2
#     Edge 15, Type (0, 1), BuildingBlock: MIFKUJ_clean_linker_0, # of connection points: 2
#     Edge 16, Type (0, 1), BuildingBlock: MIFKUJ_clean_linker_0, # of connection points: 2
#     Edge 17, Type (0, 1), BuildingBlock: MIFKUJ_clean_linker_0, # of connection points: 2
# Relax obj value: 0.038
# Max RMSD: 0.178
# Mean RMSD: 0.138
data_MOF--net-rtl--node1-CIFDUS_clean_sbu_1--node2-QEWDON_clean_linker_0--edge1-MIFKUJ_clean_linker_0
_symmetry_space_group_name_H-M    P1
_symmetry_Int_Tables_number       1
_symmetry_cell_setting            triclinic
loop_
_symmetry_equiv_pos_as_xyz
'x, y, z'
_cell_length_a     48.633393
_cell_length_b     48.414119
_cell_length_c     28.250918
_cell_angle_alpha  91.274332
_cell_angle_beta   98.551177
_cell_angle_gamma 89.998273
loop_
_atom_site_label
_atom_site_type_symbol
_atom_site_fract_x
_atom_site_fract_y
_atom_site_fract_z
_atom_type_partial_charge
H0 H 0.2351 0.84312 0.15278 0.0
C1 C 0.22217 0.84702 0.11892 0.0
C2 C 0.19693 0.8614 0.11835 0.0
C3 C 0.23145 0.83911 0.07563 0.0
H4 H 0.16238 0.88011 0.07363 0.0
C5 C 0.18125 0.86808 0.07425 0.0
C6 C 0.1904 0.86066 0.03097 0.0
C7 C 0.21524 0.84582 0.03184 0.0
C8 C 0.26067 0.83032 0.0754 0.0
H9 H 0.22299 0.84122 0.99847 0.0
C10 C 0.27058 0.8036 0.08835 0.0
C11 C 0.29882 0.79683 0.08682 0.0
C12 C 0.27894 0.84971 0.06076 0.0
H13 H 0.27174 0.87023 0.05059 0.0
C14 C 0.30657 0.843 0.05906 0.0
H15 H 0.25661 0.7884 0.0994 0.0
C16 C 0.31645 0.81686 0.07194 0.0
H17 H 0.33799 0.81213 0.06962 0.0
H18 H 0.32041 0.85813 0.04752 0.0
H19 H 0.72087 0.72322 0.53075 0.0
C20 C 0.7096 0.71641 0.55873 0.0
C21 C 0.68516 0.70052 0.54654 0.0
C22 C 0.72034 0.72185 0.60725 0.0
H23 H 0.65347 0.67689 0.57313 0.0
C24 C 0.67171 0.68988 0.58278 0.0
C25 C 0.68209 0.69487 0.63118 0.0
C26 C 0.70578 0.71163 0.64303 0.0
C27 C 0.74889 0.73364 0.62176 0.0
H28 H 0.71403 0.71518 0.68047 0.0
C29 C 0.75881 0.75759 0.60135 0.0
C30 C 0.78633 0.76719 0.61695 0.0
C31 C 0.76691 0.71978 0.65707 0.0
H32 H 0.7604 0.70105 0.67259 0.0
C33 C 0.79368 0.72945 0.67263 0.0
H34 H 0.74544 0.76848 0.57383 0.0
C35 C 0.8033 0.75291 0.6529 0.0
H36 H 0.82426 0.75999 0.66588 0.0
H37 H 0.80713 0.71858 0.70003 0.0
H38 H 0.81506 0.22207 0.0627 0.0
C39 C 0.82628 0.21546 0.03407 0.0
C40 C 0.85066 0.19953 0.04464 0.0
C41 C 0.81555 0.2212 0.98608 0.0
H42 H 0.88181 0.17565 0.01524 0.0
C43 C 0.86385 0.18897 0.00721 0.0
C44 C 0.85348 0.19448 0.95948 0.0
C45 C 0.83002 0.21135 0.94932 0.0
C46 C 0.78681 0.23224 0.97242 0.0
H47 H 0.82172 0.21503 0.91221 0.0
C48 C 0.77694 0.257 0.99195 0.0
C49 C 0.74937 0.26609 0.97607 0.0
C50 C 0.76876 0.21696 0.93794 0.0
H51 H 0.77537 0.19767 0.92308 0.0
C52 C 0.74202 0.22609 0.92198 0.0
H53 H 0.79041 0.26894 0.01884 0.0
C54 C 0.73246 0.25043 0.94054 0.0
H55 H 0.71159 0.25711 0.92678 0.0
H56 H 0.7286 0.21421 0.89499 0.0
H57 H 0.32016 0.32343 0.56292 0.0
C58 C 0.32382 0.33608 0.53329 0.0
C59 C 0.34026 0.36019 0.5422 0.0
C60 C 0.31467 0.32687 0.48586 0.0
H61 H 0.36 0.39347 0.51042 0.0
C62 C 0.34662 0.37546 0.50349 0.0
C63 C 0.3374 0.36682 0.45611 0.0
C64 C 0.32115 0.34275 0.44771 0.0
C65 C 0.30442 0.29808 0.47504 0.0
H66 H 0.31471 0.33545 0.41118 0.0
C67 C 0.28004 0.28726 0.48993 0.0
C68 C 0.27177 0.25961 0.47738 0.0
C69 C 0.32004 0.28105 0.44814 0.0
H70 H 0.3389 0.28867 0.43671 0.0
C71 C 0.31177 0.25409 0.43565 0.0
H72 H 0.26778 0.30006 0.51076 0.0
C73 C 0.28788 0.24348 0.44997 0.0
H74 H 0.28184 0.22244 0.43929 0.0
H75 H 0.32396 0.24134 0.41469 0.0
O76 O 0.99894 0.04818 0.47371 0.0
Mn77 Mn 0.01805 0.02432 0.53187 0.0
O78 O 0.97432 0.0181 0.42329 0.0
Mn79 Mn 0.98723 0.98788 0.45733 0.0
O80 O 0.038 1.00119 0.5911 0.0
O81 O 0.04853 0.05439 0.54629 0.0
Mn82 Mn 0.05093 0.06101 0.6088 0.0
O83 O 0.99108 0.04374 0.57439 0.0
O84 O 0.06856 0.03035 0.63442 0.0
O85 O 0.04534 1.00448 0.48892 0.0
O86 O 0.01958 0.9729 0.44403 0.0
O87 O 0.06589 0.09121 0.58605 0.0
O88 O 0.01793 0.06933 0.62959 0.0
C89 C 0.96794 0.9741 0.5121 0.0
C90 C 0.98183 0.04263 0.43527 0.0
C91 C 0.05858 0.00618 0.62511 0.0
C92 C 0.05768 0.07972 0.54453 0.0
C93 C 0.99434 0.06054 0.61059 0.0
C94 C 0.04292 0.98384 0.45892 0.0
O95 O 0.98732 0.99352 0.51978 0.0
O96 O 0.96169 0.96376 0.46913 0.0
O97 O 0.53868 0.54963 0.10365 0.0
Mn98 Mn 0.51786 0.52395 0.04868 0.0
O99 O 0.55315 0.52013 0.16085 0.0
Mn100 Mn 0.54605 0.48876 0.12298 0.0
O101 O 0.49693 0.49821 0.99289 0.0
O102 O 0.48882 0.55566 0.03686 0.0
Mn103 Mn 0.48425 0.557 0.97318 0.0
O104 O 0.54375 0.54102 1.00263 0.0
O105 O 0.468 0.52526 0.94569 0.0
O106 O 0.49134 0.50669 0.09478 0.0
O107 O 0.5142 0.47069 0.12958 0.0
O108 O 0.46131 0.58346 0.98849 0.0
O109 O 0.51644 0.56839 0.9529 0.0
C110 C 0.57199 0.48248 0.07173 0.0
C111 C 0.55066 0.54452 0.14599 0.0
C112 C 0.47732 0.50163 0.95759 0.0
C113 C 0.47049 0.57583 0.03163 0.0
C114 C 0.5401 0.55866 0.96882 0.0
C115 C 0.49195 0.48429 0.11908 0.0
O116 O 0.54632 0.49137 0.05987 0.0
O117 O 0.57851 0.4737 0.11494 0.0
H118 H 0.21694 0.27565 0.4571 0.0
H119 H 0.17601 0.24608 0.4604 0.0
H120 H 0.22947 0.18283 0.52827 0.0
H121 H 0.26994 0.21225 0.52574 0.0
H122 H 0.19615 0.16371 0.44648 0.0
H123 H 0.18658 0.21664 0.58954 0.0
H124 H 0.18064 0.25901 0.63694 0.0
H125 H 0.10375 0.27586 0.5463 0.0
H126 H 0.10951 0.23382 0.49785 0.0
H127 H 0.10678 0.06334 0.5211 0.0
H128 H 0.14095 0.09642 0.50258 0.0
H129 H 0.0761 0.15672 0.4681 0.0
H130 H 0.04225 0.12395 0.49034 0.0
H131 H 0.11294 0.18023 0.52513 0.0
H132 H 0.12031 0.12677 0.38383 0.0
H133 H 0.12543 0.08449 0.33569 0.0
H134 H 0.20529 0.06952 0.41845 0.0
H135 H 0.20043 0.11148 0.46755 0.0
C136 C 0.21974 0.25589 0.4744 0.0
C137 C 0.24663 0.24628 0.49129 0.0
C138 C 0.1964 0.23888 0.47583 0.0
C139 C 0.19969 0.21203 0.49405 0.0
C140 C 0.22637 0.20329 0.51367 0.0
C141 C 0.24948 0.22025 0.51261 0.0
C142 C 0.176 0.19205 0.4898 0.0
C143 C 0.17799 0.16724 0.4639 0.0
C144 C 0.15187 0.19693 0.51105 0.0
C145 C 0.14865 0.22233 0.53974 0.0
C146 C 0.16858 0.22957 0.57938 0.0
C147 C 0.16521 0.25348 0.6065 0.0
C148 C 0.14188 0.27017 0.59454 0.0
C149 C 0.12185 0.26296 0.55545 0.0
C150 C 0.12516 0.23911 0.52815 0.0
C151 C 0.09949 0.08297 0.50641 0.0
C152 C 0.07161 0.09071 0.50609 0.0
C153 C 0.11925 0.10224 0.49642 0.0
C154 C 0.11142 0.12943 0.48373 0.0
C155 C 0.08296 0.13608 0.47804 0.0
C156 C 0.06334 0.117 0.48934 0.0
C157 C 0.13299 0.15149 0.48186 0.0
C158 C 0.13075 0.17671 0.50681 0.0
C159 C 0.1568 0.14715 0.45921 0.0
C160 C 0.15993 0.12214 0.42945 0.0
C161 C 0.13889 0.11437 0.39187 0.0
C162 C 0.14175 0.09047 0.36444 0.0
C163 C 0.16565 0.0743 0.37405 0.0
C164 C 0.18678 0.08205 0.41105 0.0
C165 C 0.18401 0.1059 0.43865 0.0
H166 H 0.16782 0.05579 0.35277 0.0
H167 H 0.13927 0.28865 0.61566 0.0
H168 H 0.34518 0.78559 0.14954 0.0
H169 H 0.37197 0.74274 0.15497 0.0
H170 H 0.3076 0.70267 0.05571 0.0
H171 H 0.28078 0.74591 0.04952 0.0
H172 H 0.36073 0.68437 0.1758 0.0
H173 H 0.33225 0.67903 0.98534 0.0
H174 H 0.3197 0.70743 0.91376 0.0
H175 H 0.38433 0.76545 0.96751 0.0
H176 H 0.39689 0.73746 0.03962 0.0
H177 H 0.4269 0.56232 0.07675 0.0
H178 H 0.39512 0.59709 0.10262 0.0
H179 H 0.45527 0.66082 0.09019 0.0
H180 H 0.48716 0.62613 0.06566 0.0
H181 H 0.40159 0.66497 0.0277 0.0
H182 H 0.44153 0.65434 0.19235 0.0
H183 H 0.45583 0.62796 0.2652 0.0
H184 H 0.3712 0.60291 0.26635 0.0
H185 H 0.35645 0.62888 0.19273 0.0
C186 C 0.33636 0.76742 0.12985 0.0
C187 C 0.31088 0.76913 0.09904 0.0
C188 C 0.35171 0.74293 0.13302 0.0
C189 C 0.34197 0.71956 0.1054 0.0
C190 C 0.31563 0.72055 0.07706 0.0
C191 C 0.30016 0.74515 0.07393 0.0
C192 C 0.36085 0.69552 0.10249 0.0
C193 C 0.36929 0.67977 0.14319 0.0
C194 C 0.37259 0.68979 0.06056 0.0
C195 C 0.36539 0.70634 0.01745 0.0
C196 C 0.34373 0.69785 0.98165 0.0
C197 C 0.33658 0.71388 0.94117 0.0
C198 C 0.35121 0.73824 0.93609 0.0
C199 C 0.37299 0.74662 0.97153 0.0
C200 C 0.38007 0.73074 0.01223 0.0
C201 C 0.4341 0.58345 0.08292 0.0
C202 C 0.45988 0.59137 0.07047 0.0
C203 C 0.41568 0.60342 0.09675 0.0
C204 C 0.42269 0.63161 0.09776 0.0
C205 C 0.44941 0.63921 0.08966 0.0
C206 C 0.4679 0.61926 0.07663 0.0
C207 C 0.40124 0.65332 0.1008 0.0
C208 C 0.39256 0.66894 0.06007 0.0
C209 C 0.38925 0.65867 0.1427 0.0
C210 C 0.39797 0.64322 0.18685 0.0
C211 C 0.42602 0.64297 0.20788 0.0
C212 C 0.43419 0.62814 0.24938 0.0
C213 C 0.41447 0.61366 0.27043 0.0
C214 C 0.38647 0.61408 0.24999 0.0
C215 C 0.37819 0.62885 0.20838 0.0
H216 H 0.42087 0.60219 0.30262 0.0
H217 H 0.34568 0.75061 0.90468 0.0
H218 H 0.76933 0.82141 0.61866 0.0
H219 H 0.79728 0.86229 0.60528 0.0
H220 H 0.8607 0.80901 0.56279 0.0
H221 H 0.83288 0.76854 0.57521 0.0
H222 H 0.85724 0.86988 0.65591 0.0
H223 H 0.87581 0.82827 0.48755 0.0
H224 H 0.85352 0.80634 0.41166 0.0
H225 H 0.78611 0.86417 0.40503 0.0
H226 H 0.80786 0.886 0.48141 0.0
H227 H 0.9801 0.93464 0.57936 0.0
H228 H 0.94482 0.9036 0.60328 0.0
H229 H 0.88012 0.95733 0.53806 0.0
H230 H 0.91522 0.98868 0.51578 0.0
H231 H 0.88042 0.89948 0.49944 0.0
H232 H 0.88056 0.95288 0.64416 0.0
H233 H 0.9017 0.97554 0.71982 0.0
H234 H 0.93056 0.89701 0.7748 0.0
H235 H 0.91002 0.87395 0.69899 0.0
C236 C 0.78873 0.81856 0.60469 0.0
C237 C 0.79874 0.79179 0.59731 0.0
C238 C 0.80486 0.84187 0.59769 0.0
C239 C 0.83106 0.83873 0.5828 0.0
C240 C 0.8404 0.81204 0.57346 0.0
C241 C 0.82442 0.7889 0.58042 0.0
C242 C 0.84963 0.86292 0.57957 0.0
C243 C 0.86228 0.87641 0.62173 0.0
C244 C 0.85628 0.87157 0.53526 0.0
C245 C 0.84325 0.85852 0.48991 0.0
C246 C 0.85617 0.83615 0.46985 0.0
C247 C 0.84364 0.82374 0.42691 0.0
C248 C 0.81839 0.83383 0.40357 0.0
C249 C 0.8056 0.85631 0.42322 0.0
C250 C 0.81794 0.86862 0.4664 0.0
C251 C 0.95847 0.94079 0.57321 0.0
C252 C 0.95052 0.96462 0.54709 0.0
C253 C 0.93825 0.92274 0.58597 0.0
C254 C 0.90979 0.92801 0.57203 0.0
C255 C 0.90191 0.95285 0.54928 0.0
C256 C 0.92205 0.97107 0.53747 0.0
C257 C 0.88844 0.90638 0.57592 0.0
C258 C 0.87536 0.89319 0.53376 0.0
C259 C 0.8816 0.89802 0.62039 0.0
C260 C 0.89406 0.91176 0.66578 0.0
C261 C 0.8917 0.94049 0.67218 0.0
C262 C 0.90351 0.9534 0.71512 0.0
C263 C 0.91753 0.93773 0.75205 0.0
C264 C 0.91974 0.90912 0.74612 0.0
C265 C 0.90802 0.89612 0.70318 0.0
H266 H 0.92663 0.94776 0.78533 0.0
H267 H 0.80876 0.82427 0.37021 0.0
H268 H 0.6995 0.27068 0.00761 0.0
H269 H 0.67323 0.31282 0.01772 0.0
H270 H 0.744 0.36192 0.99621 0.0
H271 H 0.77033 0.31941 0.98395 0.0
H272 H 0.69776 0.37038 0.08411 0.0
H273 H 0.71607 0.37586 0.91686 0.0
H274 H 0.71958 0.3535 0.83869 0.0
H275 H 0.63583 0.3234 0.82954 0.0
H276 H 0.63209 0.3452 0.90821 0.0
H277 H 0.62527 0.49462 0.06742 0.0
H278 H 0.65927 0.46134 0.04582 0.0
H279 H 0.5928 0.40673 0.98458 0.0
H280 H 0.55859 0.44021 0.00646 0.0
H281 H 0.63962 0.40269 0.93623 0.0
H282 H 0.6187 0.39924 0.09605 0.0
H283 H 0.61294 0.41787 0.17588 0.0
H284 H 0.69933 0.4406 0.20229 0.0
H285 H 0.70545 0.42257 0.12214 0.0
C286 C 0.70972 0.29043 0.0058 0.0
C287 C 0.73697 0.29165 0.99456 0.0
C288 C 0.69461 0.3145 0.01149 0.0
C289 C 0.70646 0.34048 0.00691 0.0
C290 C 0.73438 0.34201 0.99936 0.0
C291 C 0.74952 0.31774 0.99296 0.0
C292 C 0.68873 0.36553 0.00762 0.0
C293 C 0.68563 0.37799 0.05169 0.0
C294 C 0.67191 0.37462 0.96568 0.0
C295 C 0.67396 0.36178 0.91847 0.0
C296 C 0.69855 0.36419 0.89837 0.0
C297 C 0.70055 0.35169 0.85397 0.0
C298 C 0.67797 0.33695 0.82923 0.0
C299 C 0.65332 0.33476 0.8488 0.0
C300 C 0.65125 0.34717 0.89327 0.0
C301 C 0.61783 0.47632 0.04664 0.0
C302 C 0.58919 0.47042 0.03763 0.0
C303 C 0.63735 0.457 0.03514 0.0
C304 C 0.62869 0.43124 0.0144 0.0
C305 C 0.60003 0.42645 1.00059 0.0
C306 C 0.58041 0.44584 0.01233 0.0
C307 C 0.6493 0.40843 0.01268 0.0
C308 C 0.65237 0.39582 0.9686 0.0
C309 C 0.66604 0.39912 0.0548 0.0
C310 C 0.66243 0.40993 0.10292 0.0
C311 C 0.63639 0.40848 0.1187 0.0
C312 C 0.63307 0.41888 0.16402 0.0
C313 C 0.65573 0.4305 0.19408 0.0
C314 C 0.68178 0.43167 0.17891 0.0
C315 C 0.68518 0.42138 0.13354 0.0
H316 H 0.65313 0.43852 0.2292 0.0
H317 H 0.67955 0.32729 0.79483 0.0
H318 H 0.14996 0.84675 0.15271 0.0
H319 H 0.13031 0.86822 0.21932 0.0
H320 H 0.20141 0.92261 0.24861 0.0
H321 H 0.2218 0.89989 0.18325 0.0
H322 H 0.18439 0.91096 0.33053 0.0
H323 H 0.1385 0.94219 0.17931 0.0
H324 H 0.11359 0.93672 0.09704 0.0
H325 H 0.04693 0.89465 0.14978 0.0
H326 H 0.07175 0.89932 0.23225 0.0
H327 H 0.09233 0.00895 0.44343 0.0
H328 H 0.12576 0.98986 0.39328 0.0
H329 H 0.07923 0.91365 0.37475 0.0
H330 H 0.04685 0.9318 0.4249 0.0
H331 H 0.08717 0.94292 0.28705 0.0
H332 H 0.13491 0.90815 0.43633 0.0
H333 H 0.15929 0.91352 0.519 0.0
H334 H 0.22154 0.96386 0.46968 0.0
H335 H 0.19718 0.95917 0.38676 0.0
C336 C 0.16165 0.86283 0.17416 0.0
C337 C 0.18738 0.87162 0.16307 0.0
C338 C 0.15032 0.87533 0.21195 0.0
C339 C 0.16394 0.89767 0.23837 0.0
C340 C 0.19037 0.90557 0.22876 0.0
C341 C 0.20203 0.89259 0.19148 0.0
C342 C 0.1497 0.91368 0.27362 0.0
C343 C 0.1633 0.91832 0.32067 0.0
C344 C 0.12212 0.92344 0.26131 0.0
C345 C 0.10701 0.92103 0.21186 0.0
C346 C 0.11857 0.93169 0.17329 0.0
C347 C 0.10448 0.9287 0.12663 0.0
C348 C 0.07865 0.91539 0.11821 0.0
C349 C 0.06691 0.90499 0.15639 0.0
C350 C 0.08097 0.9078 0.20307 0.0
C351 C 0.08982 0.98788 0.42978 0.0
C352 C 0.06675 0.97204 0.43785 0.0
C353 C 0.10876 0.97706 0.40092 0.0
C354 C 0.10471 0.95043 0.37986 0.0
C355 C 0.08264 0.93427 0.39024 0.0
C356 C 0.06413 0.94479 0.41908 0.0
C357 C 0.12162 0.93958 0.34383 0.0
C358 C 0.10845 0.93595 0.29653 0.0
C359 C 0.14945 0.93091 0.35596 0.0
C360 C 0.16407 0.93363 0.40557 0.0
C361 C 0.15362 0.92063 0.44322 0.0
C362 C 0.16746 0.92348 0.49009 0.0
C363 C 0.19191 0.9391 0.49961 0.0
C364 C 0.20258 0.95183 0.46227 0.0
C365 C 0.18877 0.94908 0.41535 0.0
H366 H 0.20263 0.94126 0.53592 0.0
H367 H 0.06764 0.91313 0.08218 0.0
H368 H 0.66861 0.64029 0.63266 0.0
H369 H 0.64875 0.61579 0.69409 0.0
H370 H 0.64749 0.69177 0.77662 0.0
H371 H 0.66848 0.71621 0.71566 0.0
H372 H 0.66227 0.65316 0.83491 0.0
H373 H 0.58708 0.66096 0.70674 0.0
H374 H 0.56288 0.65667 0.62377 0.0
H375 H 0.57334 0.56861 0.62684 0.0
H376 H 0.59798 0.57243 0.70962 0.0
H377 H 0.55939 0.61081 0.97447 0.0
H378 H 0.58806 0.63218 0.92115 0.0
H379 H 0.5994 0.5525 0.85545 0.0
H380 H 0.57056 0.53106 0.90929 0.0
H381 H 0.58061 0.5916 0.7897 0.0
H382 H 0.65384 0.58563 0.9228 0.0
H383 H 0.67527 0.59214 0.00702 0.0
H384 H 0.66487 0.67996 0.99564 0.0
H385 H 0.64295 0.67391 0.91153 0.0
C386 C 0.6639 0.65185 0.66373 0.0
C387 C 0.66972 0.68031 0.66895 0.0
C388 C 0.65246 0.6378 0.69889 0.0
C389 C 0.6459 0.65194 0.73973 0.0
C390 C 0.65218 0.68032 0.74545 0.0
C391 C 0.66411 0.69433 0.71055 0.0
C392 C 0.6327 0.63705 0.77643 0.0
C393 C 0.6442 0.63999 0.82491 0.0
C394 C 0.60938 0.61937 0.76381 0.0
C395 C 0.59457 0.61701 0.71414 0.0
C396 C 0.58438 0.64071 0.68957 0.0
C397 C 0.57057 0.63836 0.64261 0.0
C398 C 0.56663 0.61239 0.62001 0.0
C399 C 0.57644 0.58871 0.64436 0.0
C400 C 0.59031 0.59095 0.6913 0.0
C401 C 0.56899 0.59773 0.94997 0.0
C402 C 0.56349 0.56922 0.94681 0.0
C403 C 0.58521 0.60996 0.91927 0.0
C404 C 0.59607 0.59396 0.88438 0.0
C405 C 0.59139 0.56524 0.88228 0.0
C406 C 0.5753 0.55292 0.91343 0.0
C407 C 0.61027 0.60766 0.84789 0.0
C408 C 0.59882 0.60462 0.79949 0.0
C409 C 0.63328 0.6256 0.86068 0.0
C410 C 0.64663 0.6293 0.91103 0.0
C411 C 0.65596 0.60631 0.93838 0.0
C412 C 0.66821 0.60991 0.98607 0.0
C413 C 0.6714 0.63644 0.00669 0.0
C414 C 0.66238 0.65942 0.97963 0.0
C415 C 0.65007 0.65592 0.93194 0.0
H416 H 0.68091 0.63919 0.04363 0.0
H417 H 0.55591 0.61061 0.58365 0.0
H418 H 0.89618 0.21954 0.10277 0.0
H419 H 0.91902 0.1998 0.17768 0.0
H420 H 0.85406 0.13826 0.16866 0.0
H421 H 0.83066 0.15898 0.09508 0.0
H422 H 0.86836 0.15113 0.25695 0.0
H423 H 0.91997 0.12681 0.13034 0.0
H424 H 0.94615 0.13566 0.06382 0.0
H425 H 0.00699 0.18215 0.1593 0.0
H426 H 0.98091 0.17389 0.22622 0.0
H427 H 0.93506 0.0381 0.37049 0.0
H428 H 0.91465 0.07132 0.31306 0.0
H429 H 0.97852 0.13048 0.36725 0.0
H430 H 0.99978 0.09658 0.42584 0.0
H431 H 0.96747 0.1247 0.26401 0.0
H432 H 0.91553 0.14087 0.39386 0.0
H433 H 0.8886 0.12639 0.45648 0.0
H434 H 0.82723 0.0888 0.34935 0.0
H435 H 0.85401 0.10269 0.28618 0.0
C436 C 0.88644 0.20233 0.11779 0.0
C437 C 0.86147 0.19105 0.09389 0.0
C438 C 0.89968 0.19077 0.16018 0.0
C439 C 0.88866 0.1671 0.1786 0.0
C440 C 0.86307 0.15649 0.15547 0.0
C441 C 0.8496 0.16838 0.11354 0.0
C442 C 0.9042 0.15261 0.22056 0.0
C443 C 0.89001 0.14536 0.25825 0.0
C444 C 0.93263 0.14522 0.2231 0.0
C445 C 0.94837 0.15001 0.18307 0.0
C446 C 0.93884 0.13907 0.13702 0.0
C447 C 0.95366 0.14396 0.09927 0.0
C448 C 0.97818 0.15952 0.1073 0.0
C449 C 0.98797 0.17015 0.15311 0.0
C450 C 0.97319 0.16537 0.19096 0.0
C451 C 0.94498 0.05815 0.37066 0.0
C452 C 0.96923 0.06458 0.40296 0.0
C453 C 0.93307 0.07723 0.3377 0.0
C454 C 0.94483 0.1035 0.33603 0.0
C455 C 0.96904 0.1103 0.3681 0.0
C456 C 0.98106 0.09103 0.4017 0.0
C457 C 0.93152 0.1232 0.29988 0.0
C458 C 0.94604 0.13116 0.26311 0.0
C459 C 0.9032 0.13066 0.29756 0.0
C460 C 0.88679 0.1228 0.33536 0.0
C461 C 0.89634 0.12944 0.38371 0.0
C462 C 0.88111 0.12132 0.41929 0.0
C463 C 0.85622 0.10668 0.4069 0.0
C464 C 0.84649 0.10016 0.3589 0.0
C465 C 0.86166 0.1082 0.32319 0.0
H466 H 0.84446 0.1004 0.43451 0.0
H467 H 0.98963 0.16328 0.07803 0.0
H468 H 0.39552 0.36414 0.57436 0.0
H469 H 0.41831 0.38228 0.65198 0.0
H470 H 0.33822 0.39387 0.69751 0.0
H471 H 0.3153 0.37526 0.61967 0.0
H472 H 0.37329 0.44112 0.71054 0.0
H473 H 0.37821 0.34495 0.74679 0.0
H474 H 0.3893 0.29605 0.73278 0.0
H475 H 0.47568 0.31689 0.73961 0.0
H476 H 0.46499 0.36601 0.7528 0.0
H477 H 0.42299 0.48851 0.94096 0.0
H478 H 0.39951 0.45836 0.87713 0.0
H479 H 0.47896 0.4341 0.83931 0.0
H480 H 0.50262 0.46367 0.90501 0.0
H481 H 0.4436 0.3918 0.82333 0.0
H482 H 0.4405 0.48645 0.78103 0.0
H483 H 0.43165 0.53625 0.7907 0.0
H484 H 0.34476 0.51969 0.78932 0.0
H485 H 0.35321 0.46972 0.78047 0.0
C486 C 0.38283 0.37016 0.60128 0.0
C487 C 0.35368 0.36825 0.59123 0.0
C488 C 0.39586 0.38047 0.64559 0.0
C489 C 0.38 0.38934 0.68067 0.0
C490 C 0.35085 0.38706 0.671 0.0
C491 C 0.33779 0.37631 0.62677 0.0
C492 C 0.39391 0.40242 0.7262 0.0
C493 C 0.38824 0.43016 0.73569 0.0
C494 C 0.41429 0.38854 0.75803 0.0
C495 C 0.42078 0.35911 0.75035 0.0
C496 C 0.39953 0.33911 0.74489 0.0
C497 C 0.40575 0.31137 0.73715 0.0
C498 C 0.43317 0.30337 0.73521 0.0
C499 C 0.45445 0.32311 0.74107 0.0
C500 C 0.44833 0.3509 0.74869 0.0
C501 C 0.43546 0.47595 0.92011 0.0
C502 C 0.46457 0.47812 0.92815 0.0
C503 C 0.42202 0.45898 0.88321 0.0
C504 C 0.43737 0.44448 0.85242 0.0
C505 C 0.46662 0.44517 0.86239 0.0
C506 C 0.48016 0.46189 0.9001 0.0
C507 C 0.42275 0.43049 0.80806 0.0
C508 C 0.42844 0.4027 0.79851 0.0
C509 C 0.4027 0.44446 0.77554 0.0
C510 C 0.39752 0.47441 0.78061 0.0
C511 C 0.41955 0.49344 0.78315 0.0
C512 C 0.41461 0.52168 0.78845 0.0
C513 C 0.38767 0.53112 0.79074 0.0
C514 C 0.36562 0.51234 0.78763 0.0
C515 C 0.37046 0.48407 0.78248 0.0
H516 H 0.38388 0.55301 0.79482 0.0
H517 H 0.43795 0.28186 0.72926 0.0
H518 H 0.70325 0.65783 0.49605 0.0
H519 H 0.68015 0.63753 0.42042 0.0
H520 H 0.61918 0.70279 0.41016 0.0
H521 H 0.64177 0.72229 0.48723 0.0
H522 H 0.59363 0.65668 0.39101 0.0
H523 H 0.67211 0.69635 0.33343 0.0
H524 H 0.72185 0.70602 0.33295 0.0
H525 H 0.73733 0.61935 0.31483 0.0
H526 H 0.68777 0.60916 0.31597 0.0
H527 H 0.53504 0.59914 0.15768 0.0
H528 H 0.55747 0.63282 0.21844 0.0
H529 H 0.61969 0.57234 0.26793 0.0
H530 H 0.59762 0.53911 0.20863 0.0
H531 H 0.64269 0.62299 0.2592 0.0
H532 H 0.56784 0.58274 0.32857 0.0
H533 H 0.51909 0.57087 0.33368 0.0
H534 H 0.49767 0.65696 0.33128 0.0
H535 H 0.5463 0.66928 0.32547 0.0
C536 C 0.6854 0.66822 0.47679 0.0
C537 C 0.67467 0.69199 0.49654 0.0
C538 C 0.67214 0.65663 0.43354 0.0
C539 C 0.64811 0.66886 0.40872 0.0
C540 C 0.63775 0.69302 0.42822 0.0
C541 C 0.65081 0.70437 0.47189 0.0
C542 C 0.63289 0.65541 0.36426 0.0
C543 C 0.60432 0.64999 0.36169 0.0
C544 C 0.64665 0.64595 0.32617 0.0
C545 C 0.67633 0.65202 0.32504 0.0
C546 C 0.68618 0.67937 0.3296 0.0
C547 C 0.71432 0.68493 0.3292 0.0
C548 C 0.73275 0.66331 0.32392 0.0
C549 C 0.72305 0.63608 0.31892 0.0
C550 C 0.69494 0.6304 0.31939 0.0
C551 C 0.55366 0.59329 0.18126 0.0
C552 C 0.56447 0.56646 0.17857 0.0
C553 C 0.56636 0.61241 0.21606 0.0
C554 C 0.59024 0.60504 0.24785 0.0
C555 C 0.60138 0.57857 0.24386 0.0
C556 C 0.58861 0.55953 0.20997 0.0
C557 C 0.60371 0.62415 0.28642 0.0
C558 C 0.63195 0.63044 0.28799 0.0
C559 C 0.58972 0.63424 0.32364 0.0
C560 C 0.56049 0.62688 0.3259 0.0
C561 C 0.55263 0.59909 0.32852 0.0
C562 C 0.52507 0.5923 0.33171 0.0
C563 C 0.5053 0.61314 0.33279 0.0
C564 C 0.51301 0.64084 0.33043 0.0
C565 C 0.54055 0.64774 0.32714 0.0
H566 H 0.48402 0.60782 0.3357 0.0
H567 H 0.75454 0.66767 0.32363 0.0
H568 H 0.85736 0.13912 0.94499 0.0
H569 H 0.87545 0.11456 0.87977 0.0
H570 H 0.89505 0.19254 0.82111 0.0
H571 H 0.87505 0.21708 0.8849 0.0
H572 H 0.87765 0.16103 0.75144 0.0
H573 H 0.94525 0.14721 0.89003 0.0
H574 H 0.96213 0.13367 0.97292 0.0
H575 H 0.93459 0.05035 0.93853 0.0
H576 H 0.91714 0.06352 0.85564 0.0
H577 H 0.98245 0.11412 0.62045 0.0
H578 H 0.95324 0.13471 0.67459 0.0
H579 H 0.92537 0.05355 0.70667 0.0
H580 H 0.9553 0.03274 0.65235 0.0
H581 H 0.94418 0.08398 0.78743 0.0
H582 H 0.88092 0.10002 0.64324 0.0
H583 H 0.8687 0.11597 0.56049 0.0
H584 H 0.89375 0.19853 0.60643 0.0
H585 H 0.90658 0.18297 0.68929 0.0
C586 C 0.86561 0.15096 0.91815 0.0
C587 C 0.86519 0.17996 0.9202 0.0
C588 C 0.87612 0.13692 0.88096 0.0
C589 C 0.8874 0.15155 0.84585 0.0
C590 C 0.88662 0.18064 0.84766 0.0
C591 C 0.87536 0.1947 0.88422 0.0
C592 C 0.89992 0.13656 0.80735 0.0
C593 C 0.8924 0.14437 0.75958 0.0
C594 C 0.91887 0.11441 0.81726 0.0
C595 C 0.92968 0.10639 0.86684 0.0
C596 C 0.94267 0.12603 0.90026 0.0
C597 C 0.95233 0.11843 0.94722 0.0
C598 C 0.94938 0.09118 0.96102 0.0
C599 C 0.93683 0.07146 0.92783 0.0
C600 C 0.92706 0.07897 0.88086 0.0
C601 C 0.96926 0.10072 0.63765 0.0
C602 C 0.97062 0.07191 0.63149 0.0
C603 C 0.95264 0.11251 0.6688 0.0
C604 C 0.93685 0.09575 0.69453 0.0
C605 C 0.93724 0.0669 0.68696 0.0
C606 C 0.95396 0.05503 0.65544 0.0
C607 C 0.92192 0.10853 0.73189 0.0
C608 C 0.92914 0.1004 0.77943 0.0
C609 C 0.90322 0.13079 0.7219 0.0
C610 C 0.89475 0.14031 0.6724 0.0
C611 C 0.88389 0.12156 0.63564 0.0
C612 C 0.87688 0.13052 0.58872 0.0
C613 C 0.88045 0.15825 0.57821 0.0
C614 C 0.89097 0.17707 0.61462 0.0
C615 C 0.89807 0.1682 0.66158 0.0
H616 H 0.87504 0.16514 0.54184 0.0
H617 H 0.95686 0.08534 0.99741 0.0
H618 H 0.35958 0.34357 0.38133 0.0
H619 H 0.38049 0.36714 0.31969 0.0
H620 H 0.35993 0.44605 0.37868 0.0
H621 H 0.33892 0.42252 0.44074 0.0
H622 H 0.35099 0.44212 0.27371 0.0
H623 H 0.42121 0.42803 0.40816 0.0
H624 H 0.44824 0.40121 0.4721 0.0
H625 H 0.47605 0.34693 0.36671 0.0
H626 H 0.4487 0.37313 0.30214 0.0
H627 H 0.45276 0.51565 0.15716 0.0
H628 H 0.421 0.49892 0.21062 0.0
H629 H 0.44644 0.41513 0.18547 0.0
H630 H 0.4781 0.43164 0.13328 0.0
H631 H 0.45205 0.426 0.27774 0.0
H632 H 0.38056 0.4394 0.14291 0.0
H633 H 0.35352 0.46638 0.07917 0.0
H634 H 0.32863 0.52248 0.18474 0.0
H635 H 0.35591 0.49604 0.24907 0.0
C636 C 0.35896 0.36592 0.38063 0.0
C637 C 0.34751 0.38119 0.41586 0.0
C638 C 0.37104 0.37937 0.34551 0.0
C639 C 0.37179 0.40835 0.34464 0.0
C640 C 0.35944 0.42368 0.37857 0.0
C641 C 0.34762 0.41022 0.41413 0.0
C642 C 0.3874 0.42238 0.31058 0.0
C643 C 0.37316 0.43893 0.27487 0.0
C644 C 0.41624 0.41809 0.31184 0.0
C645 C 0.43272 0.40234 0.35043 0.0
C646 C 0.43288 0.41021 0.39867 0.0
C647 C 0.44828 0.39515 0.43501 0.0
C648 C 0.46381 0.37234 0.42348 0.0
C649 C 0.46398 0.36457 0.37558 0.0
C650 C 0.44854 0.37951 0.33911 0.0
C651 C 0.45083 0.49363 0.16196 0.0
C652 C 0.46789 0.47493 0.1411 0.0
C653 C 0.43282 0.48407 0.19272 0.0
C654 C 0.43149 0.45572 0.20248 0.0
C655 C 0.44726 0.43708 0.17903 0.0
C656 C 0.46522 0.44655 0.14886 0.0
C657 C 0.41559 0.4452 0.23964 0.0
C658 C 0.42989 0.42935 0.27637 0.0
C659 C 0.38688 0.4502 0.23915 0.0
C660 C 0.37044 0.46595 0.20066 0.0
C661 C 0.36949 0.45762 0.15246 0.0
C662 C 0.3541 0.47279 0.11625 0.0
C663 C 0.33941 0.49617 0.12789 0.0
C664 C 0.34004 0.5044 0.17577 0.0
C665 C 0.35545 0.48933 0.21211 0.0
H666 H 0.32749 0.50788 0.0998 0.0
H667 H 0.47577 0.36072 0.45167 0.0
H668 H 0.18805 0.91389 0.00386 0.0
H669 H 0.16365 0.93294 0.92993 0.0
H670 H 0.13435 0.85127 0.88257 0.0
H671 H 0.16044 0.83203 0.95579 0.0
H672 H 0.14512 0.87662 0.80895 0.0
H673 H 0.09187 0.90259 0.93129 0.0
H674 H 0.08341 0.92194 0.00902 0.0
H675 H 0.1119 1.0015 0.97222 0.0
H676 H 0.1209 0.98246 0.89428 0.0
H677 H 0.03795 0.95403 0.64147 0.0
H678 H 0.05745 0.92232 0.7053 0.0
H679 H 0.12604 0.97832 0.74718 0.0
H680 H 0.10779 0.00909 0.68397 0.0
H681 H 0.0879 0.96059 0.82116 0.0
H682 H 0.14645 0.93116 0.70276 0.0
H683 H 0.15316 0.91123 0.62423 0.0
H684 H 0.11091 0.83713 0.65404 0.0
H685 H 0.1035 0.85692 0.73244 0.0
C686 C 0.17645 0.90006 0.97749 0.0
C687 C 0.17583 0.8716 0.98548 0.0
C688 C 0.16229 0.91094 0.93537 0.0
C689 C 0.14632 0.89373 0.90095 0.0
C690 C 0.14626 0.86508 0.90854 0.0
C691 C 0.16105 0.85409 0.95036 0.0
C692 C 0.12974 0.90584 0.85747 0.0
C693 C 0.1322 0.89465 0.8119 0.0
C694 C 0.11275 0.92944 0.86059 0.0
C695 C 0.10715 0.94106 0.90713 0.0
C696 C 0.09644 0.92418 0.93988 0.0
C697 C 0.09156 0.93511 0.984 0.0
C698 C 0.09712 0.96295 0.99568 0.0
C699 C 0.10758 0.97994 0.96316 0.0
C700 C 0.11254 0.9691 0.91896 0.0
C701 C 0.05749 0.95919 0.66362 0.0
C702 C 0.07105 0.98431 0.65777 0.0
C703 C 0.06852 0.94117 0.70013 0.0
C704 C 0.09307 0.94819 0.73107 0.0
C705 C 0.10703 0.9726 0.72389 0.0
C706 C 0.0964 0.99021 0.68755 0.0
C707 C 0.1038 0.93164 0.77335 0.0
C708 C 0.10033 0.94215 0.81862 0.0
C709 C 0.11958 0.90742 0.7699 0.0
C710 C 0.12406 0.89564 0.72299 0.0
C711 C 0.13828 0.91077 0.69227 0.0
C712 C 0.14228 0.89948 0.64786 0.0
C713 C 0.13237 0.87297 0.63406 0.0
C714 C 0.1185 0.85769 0.6647 0.0
C715 C 0.11438 0.86893 0.70909 0.0
H716 H 0.13553 0.86424 0.5997 0.0
H717 H 0.09328 0.97137 0.02989 0.0
loop_
_geom_bond_atom_site_label_1
_geom_bond_atom_site_label_2
_geom_bond_distance
_geom_bond_site_symmetry_2
_ccdc_geom_bond_type
H0 C1 0.949 . S
C1 H0 0.949 . S
C1 C2 1.395 . S
C1 C3 1.391 . S
C2 C1 1.395 . S
C2 C5 1.390 . S
C3 C1 1.391 . S
C3 C7 1.387 . S
C3 C8 1.491 . S
H4 C5 0.950 . S
C5 C2 1.390 . S
C5 H4 0.950 . S
C5 C6 1.378 . S
C6 C5 1.378 . S
C6 C7 1.409 . S
C7 C3 1.387 . S
C7 C6 1.409 . S
C7 H9 0.951 1_554 S
C8 C3 1.491 . S
C8 C10 1.382 . S
C8 C12 1.404 . S
H9 C7 0.951 1_556 S
C10 C8 1.382 . S
C10 C11 1.390 . S
C10 H15 0.949 . S
C11 C10 1.390 . S
C11 C16 1.399 . S
C12 C8 1.404 . S
C12 H13 0.950 . S
C12 C14 1.375 . S
H13 C12 0.950 . S
C14 C12 1.375 . S
C14 C16 1.382 . S
C14 H18 0.950 . S
H15 C10 0.949 . S
C16 C11 1.399 . S
C16 C14 1.382 . S
C16 H17 0.952 . S
H17 C16 0.952 . S
H18 C14 0.950 . S
H19 C20 0.949 . S
C20 H19 0.949 . S
C20 C21 1.395 . S
C20 C22 1.391 . S
C21 C20 1.395 . S
C21 C24 1.390 . S
C22 C20 1.391 . S
C22 C26 1.387 . S
C22 C27 1.491 . S
H23 C24 0.950 . S
C24 C21 1.390 . S
C24 H23 0.950 . S
C24 C25 1.378 . S
C25 C24 1.378 . S
C25 C26 1.409 . S
C26 C22 1.387 . S
C26 C25 1.409 . S
C26 H28 0.951 . S
C27 C22 1.491 . S
C27 C29 1.382 . S
C27 C31 1.404 . S
H28 C26 0.951 . S
C29 C27 1.382 . S
C29 C30 1.390 . S
C29 H34 0.949 . S
C30 C29 1.390 . S
C30 C35 1.399 . S
C31 C27 1.404 . S
C31 H32 0.950 . S
C31 C33 1.375 . S
H32 C31 0.950 . S
C33 C31 1.375 . S
C33 C35 1.382 . S
C33 H37 0.950 . S
H34 C29 0.949 . S
C35 C30 1.399 . S
C35 C33 1.382 . S
C35 H36 0.952 . S
H36 C35 0.952 . S
H37 C33 0.950 . S
H38 C39 0.949 . S
C39 H38 0.949 . S
C39 C40 1.395 . S
C39 C41 1.391 1_554 S
C40 C39 1.395 . S
C40 C43 1.396 . S
C41 C39 1.391 1_556 S
C41 C45 1.387 . S
C41 C46 1.491 . S
H42 C43 0.950 . S
C43 C40 1.396 . S
C43 H42 0.950 . S
C43 C44 1.372 1_554 S
C44 C43 1.372 1_556 S
C44 C45 1.409 . S
C45 C41 1.387 . S
C45 C44 1.409 . S
C45 H47 0.951 . S
C46 C41 1.491 . S
C46 C48 1.395 . S
C46 C50 1.404 . S
H47 C45 0.951 . S
C48 C46 1.395 . S
C48 C49 1.391 . S
C48 H53 0.934 1_556 S
C49 C48 1.391 . S
C49 C54 1.399 . S
C50 C46 1.404 . S
C50 H51 0.950 . S
C50 C52 1.375 . S
H51 C50 0.950 . S
C52 C50 1.375 . S
C52 C54 1.382 . S
C52 H56 0.950 . S
H53 C48 0.934 1_554 S
C54 C49 1.399 . S
C54 C52 1.382 . S
C54 H55 0.952 . S
H55 C54 0.952 . S
H56 C52 0.950 . S
H57 C58 0.949 . S
C58 H57 0.949 . S
C58 C59 1.395 . S
C58 C60 1.391 . S
C59 C58 1.395 . S
C59 C62 1.390 . S
C60 C58 1.391 . S
C60 C64 1.387 . S
C60 C65 1.491 . S
H61 C62 0.950 . S
C62 C59 1.390 . S
C62 H61 0.950 . S
C62 C63 1.378 . S
C63 C62 1.378 . S
C63 C64 1.409 . S
C64 C60 1.387 . S
C64 C63 1.409 . S
C64 H66 0.951 . S
C65 C60 1.491 . S
C65 C67 1.382 . S
C65 C69 1.404 . S
H66 C64 0.951 . S
C67 C65 1.382 . S
C67 C68 1.390 . S
C67 H72 0.949 . S
C68 C67 1.390 . S
C68 C73 1.399 . S
C69 C65 1.404 . S
C69 H70 0.950 . S
C69 C71 1.375 . S
H70 C69 0.950 . S
C71 C69 1.375 . S
C71 C73 1.382 . S
C71 H75 0.950 . S
H72 C67 0.949 . S
C73 C68 1.399 . S
C73 C71 1.382 . S
C73 H74 0.952 . S
H74 C73 0.952 . S
H75 C71 0.950 . S
O76 Mn77 2.163 1_655 S
O76 C90 1.244 . S
Mn77 O76 2.163 1_455 S
Mn77 O80 2.160 1_545 S
Mn77 O81 2.221 . S
Mn77 O83 2.163 1_455 S
Mn77 O85 2.160 1_545 S
Mn77 O95 2.221 1_445 S
O78 Mn79 2.087 1_545 S
O78 C90 1.256 . S
Mn79 O78 2.087 1_565 S
Mn79 O86 2.089 1_655 S
Mn79 O95 2.290 . S
Mn79 O96 2.251 . S
O80 Mn77 2.160 1_565 S
O80 C91 1.239 . S
O81 Mn77 2.221 . S
O81 Mn82 2.290 . S
O81 C92 1.278 . S
Mn82 O81 2.290 . S
Mn82 O84 2.089 . S
Mn82 O87 2.251 . S
Mn82 O88 2.087 . S
O83 Mn77 2.163 1_655 S
O83 C93 1.244 . S
O84 Mn82 2.089 . S
O84 C91 1.256 1_545 S
O85 Mn77 2.160 1_565 S
O85 C94 1.239 . S
O86 Mn79 2.089 1_455 S
O86 C94 1.256 . S
O87 Mn82 2.251 . S
O87 C92 1.241 . S
O88 Mn82 2.087 . S
O88 C93 1.256 1_455 S
C89 O95 1.278 . S
C89 O96 1.241 . S
C90 O76 1.244 . S
C90 O78 1.256 . S
C91 O80 1.239 . S
C91 O84 1.256 1_565 S
C92 O81 1.278 . S
C92 O87 1.241 . S
C93 O83 1.244 . S
C93 O88 1.256 1_655 S
C94 O85 1.239 . S
C94 O86 1.256 . S
O95 Mn77 2.221 1_665 S
O95 Mn79 2.290 . S
O95 C89 1.278 . S
O96 Mn79 2.251 . S
O96 C89 1.241 . S
O97 Mn98 2.163 . S
O97 C111 1.244 . S
Mn98 O97 2.163 . S
Mn98 O101 2.160 1_554 S
Mn98 O102 2.221 . S
Mn98 O104 2.155 1_554 S
Mn98 O106 2.160 . S
Mn98 O116 2.221 . S
O99 Mn100 2.087 . S
O99 C111 1.256 . S
Mn100 O99 2.087 . S
Mn100 O107 2.089 . S
Mn100 O116 2.290 . S
Mn100 O117 2.251 . S
O101 Mn98 2.160 1_556 S
O101 C112 1.239 . S
O102 Mn98 2.221 . S
O102 Mn103 2.290 1_554 S
O102 C113 1.278 . S
Mn103 O102 2.290 1_556 S
Mn103 O105 2.089 . S
Mn103 O108 2.251 1_556 S
Mn103 O109 2.087 . S
O104 Mn98 2.155 1_556 S
O104 C114 1.253 . S
O105 Mn103 2.089 . S
O105 C112 1.256 . S
O106 Mn98 2.160 . S
O106 C115 1.239 . S
O107 Mn100 2.089 . S
O107 C115 1.256 . S
O108 Mn103 2.251 1_554 S
O108 C113 1.241 . S
O109 Mn103 2.087 . S
O109 C114 1.256 . S
C110 O116 1.278 . S
C110 O117 1.241 . S
C111 O97 1.244 . S
C111 O99 1.256 . S
C112 O101 1.239 . S
C112 O105 1.256 . S
C113 O102 1.278 . S
C113 O108 1.241 . S
C114 O104 1.253 . S
C114 O109 1.256 . S
C115 O106 1.239 . S
C115 O107 1.256 . S
O116 Mn98 2.221 . S
O116 Mn100 2.290 . S
O116 C110 1.278 . S
O117 Mn100 2.251 . S
O117 C110 1.241 . S
H118 C136 0.951 . S
H119 C138 0.951 . S
H120 C140 0.950 . S
H121 C141 0.950 . S
H122 C143 0.950 . S
H123 C146 0.950 . S
H124 C147 0.950 . S
H125 C149 0.950 . S
H126 C150 0.950 . S
H127 C151 0.951 . S
H128 C153 0.951 . S
H129 C155 0.950 . S
H130 C156 0.950 . S
H131 C158 0.950 . S
H132 C161 0.950 . S
H133 C162 0.950 . S
H134 C164 0.950 . S
H135 C165 0.950 . S
C136 H118 0.951 . S
C136 C137 1.366 . S
C136 C138 1.388 . S
C137 C136 1.366 . S
C137 C141 1.385 . S
C138 H119 0.951 . S
C138 C136 1.388 . S
C138 C139 1.366 . S
C139 C138 1.366 . S
C139 C140 1.414 . S
C139 C142 1.499 . S
C140 H120 0.950 . S
C140 C139 1.414 . S
C140 C141 1.374 . S
C141 H121 0.950 . S
C141 C137 1.385 . S
C141 C140 1.374 . S
C142 C139 1.499 . S
C142 C143 1.373 . S
C142 C144 1.389 . S
C143 H122 0.950 . S
C143 C142 1.373 . S
C143 C159 1.377 . S
C144 C142 1.389 . S
C144 C145 1.524 . S
C144 C158 1.377 . S
C145 C144 1.524 . S
C145 C146 1.397 . S
C145 C150 1.363 . S
C146 H123 0.950 . S
C146 C145 1.397 . S
C146 C147 1.334 . S
C147 H124 0.950 . S
C147 C146 1.334 . S
C147 C148 1.287 . S
C148 C147 1.287 . S
C148 C149 1.524 . S
C148 H167 0.913 . S
C149 H125 0.950 . S
C149 C148 1.524 . S
C149 C150 1.415 . S
C150 H126 0.950 . S
C150 C145 1.363 . S
C150 C149 1.415 . S
C151 H127 0.951 . S
C151 C152 1.366 . S
C151 C153 1.388 . S
C152 C151 1.366 . S
C152 C156 1.385 . S
C153 H128 0.951 . S
C153 C151 1.388 . S
C153 C154 1.366 . S
C154 C153 1.366 . S
C154 C155 1.414 . S
C154 C157 1.499 . S
C155 H129 0.950 . S
C155 C154 1.414 . S
C155 C156 1.374 . S
C156 H130 0.950 . S
C156 C152 1.385 . S
C156 C155 1.374 . S
C157 C154 1.499 . S
C157 C158 1.373 . S
C157 C159 1.389 . S
C158 H131 0.950 . S
C158 C144 1.377 . S
C158 C157 1.373 . S
C159 C143 1.377 . S
C159 C157 1.389 . S
C159 C160 1.524 . S
C160 C159 1.524 . S
C160 C161 1.397 . S
C160 C165 1.363 . S
C161 H132 0.950 . S
C161 C160 1.397 . S
C161 C162 1.334 . S
C162 H133 0.950 . S
C162 C161 1.334 . S
C162 C163 1.287 . S
C163 C162 1.287 . S
C163 C164 1.524 . S
C163 H166 0.999 . S
C164 H134 0.950 . S
C164 C163 1.524 . S
C164 C165 1.415 . S
C165 H135 0.950 . S
C165 C160 1.363 . S
C165 C164 1.415 . S
H166 C163 0.999 . S
H167 C148 0.913 . S
H168 C186 0.951 . S
H169 C188 0.951 . S
H170 C190 0.950 . S
H171 C191 0.950 . S
H172 C193 0.950 . S
H173 C196 0.950 . S
H174 C197 0.950 . S
H175 C199 0.950 . S
H176 C200 0.950 . S
H177 C201 0.951 . S
H178 C203 0.951 . S
H179 C205 0.950 . S
H180 C206 0.950 . S
H181 C208 0.950 . S
H182 C211 0.950 . S
H183 C212 0.950 . S
H184 C214 0.950 . S
H185 C215 0.950 . S
C186 H168 0.951 . S
C186 C187 1.366 . S
C186 C188 1.388 . S
C187 C186 1.366 . S
C187 C191 1.385 . S
C188 H169 0.951 . S
C188 C186 1.388 . S
C188 C189 1.366 . S
C189 C188 1.366 . S
C189 C190 1.414 . S
C189 C192 1.499 . S
C190 H170 0.950 . S
C190 C189 1.414 . S
C190 C191 1.374 . S
C191 H171 0.950 . S
C191 C187 1.385 . S
C191 C190 1.374 . S
C192 C189 1.499 . S
C192 C193 1.373 . S
C192 C194 1.389 . S
C193 H172 0.950 . S
C193 C192 1.373 . S
C193 C209 1.377 . S
C194 C192 1.389 . S
C194 C195 1.524 1_554 S
C194 C208 1.377 . S
C195 C194 1.524 1_556 S
C195 C196 1.397 . S
C195 C200 1.363 . S
C196 H173 0.950 . S
C196 C195 1.397 . S
C196 C197 1.334 . S
C197 H174 0.950 . S
C197 C196 1.334 . S
C197 C198 1.287 . S
C198 C197 1.287 . S
C198 C199 1.524 . S
C198 H217 0.913 . S
C199 H175 0.950 . S
C199 C198 1.524 . S
C199 C200 1.415 . S
C200 H176 0.950 . S
C200 C195 1.363 . S
C200 C199 1.415 . S
C201 H177 0.951 . S
C201 C202 1.366 . S
C201 C203 1.388 . S
C202 C201 1.366 . S
C202 C206 1.385 . S
C203 H178 0.951 . S
C203 C201 1.388 . S
C203 C204 1.366 . S
C204 C203 1.366 . S
C204 C205 1.414 . S
C204 C207 1.499 . S
C205 H179 0.950 . S
C205 C204 1.414 . S
C205 C206 1.374 . S
C206 H180 0.950 . S
C206 C202 1.385 . S
C206 C205 1.374 . S
C207 C204 1.499 . S
C207 C208 1.373 . S
C207 C209 1.389 . S
C208 H181 0.950 . S
C208 C194 1.377 . S
C208 C207 1.373 . S
C209 C193 1.377 . S
C209 C207 1.389 . S
C209 C210 1.524 . S
C210 C209 1.524 . S
C210 C211 1.397 . S
C210 C215 1.363 . S
C211 H182 0.950 . S
C211 C210 1.397 . S
C211 C212 1.334 . S
C212 H183 0.950 . S
C212 C211 1.334 . S
C212 C213 1.287 . S
C213 C212 1.287 . S
C213 C214 1.524 . S
C213 H216 0.999 . S
C214 H184 0.950 . S
C214 C213 1.524 . S
C214 C215 1.415 . S
C215 H185 0.950 . S
C215 C210 1.363 . S
C215 C214 1.415 . S
H216 C213 0.999 . S
H217 C198 0.913 . S
H218 C236 0.951 . S
H219 C238 0.951 . S
H220 C240 0.950 . S
H221 C241 0.950 . S
H222 C243 0.950 . S
H223 C246 0.950 . S
H224 C247 0.950 . S
H225 C249 0.950 . S
H226 C250 0.950 . S
H227 C251 0.951 . S
H228 C253 0.951 . S
H229 C255 0.950 . S
H230 C256 0.950 . S
H231 C258 0.950 . S
H232 C261 0.950 . S
H233 C262 0.950 . S
H234 C264 0.950 . S
H235 C265 0.950 . S
C236 H218 0.951 . S
C236 C237 1.366 . S
C236 C238 1.388 . S
C237 C236 1.366 . S
C237 C241 1.385 . S
C238 H219 0.951 . S
C238 C236 1.388 . S
C238 C239 1.366 . S
C239 C238 1.366 . S
C239 C240 1.414 . S
C239 C242 1.499 . S
C240 H220 0.950 . S
C240 C239 1.414 . S
C240 C241 1.374 . S
C241 H221 0.950 . S
C241 C237 1.385 . S
C241 C240 1.374 . S
C242 C239 1.499 . S
C242 C243 1.373 . S
C242 C244 1.389 . S
C243 H222 0.950 . S
C243 C242 1.373 . S
C243 C259 1.377 . S
C244 C242 1.389 . S
C244 C245 1.524 . S
C244 C258 1.377 . S
C245 C244 1.524 . S
C245 C246 1.397 . S
C245 C250 1.363 . S
C246 H223 0.950 . S
C246 C245 1.397 . S
C246 C247 1.334 . S
C247 H224 0.950 . S
C247 C246 1.334 . S
C247 C248 1.287 . S
C248 C247 1.287 . S
C248 C249 1.524 . S
C248 H267 0.913 . S
C249 H225 0.950 . S
C249 C248 1.524 . S
C249 C250 1.415 . S
C250 H226 0.950 . S
C250 C245 1.363 . S
C250 C249 1.415 . S
C251 H227 0.951 . S
C251 C252 1.366 . S
C251 C253 1.388 . S
C252 C251 1.366 . S
C252 C256 1.385 . S
C253 H228 0.951 . S
C253 C251 1.388 . S
C253 C254 1.366 . S
C254 C253 1.366 . S
C254 C255 1.414 . S
C254 C257 1.499 . S
C255 H229 0.950 . S
C255 C254 1.414 . S
C255 C256 1.374 . S
C256 H230 0.950 . S
C256 C252 1.385 . S
C256 C255 1.374 . S
C257 C254 1.499 . S
C257 C258 1.373 . S
C257 C259 1.389 . S
C258 H231 0.950 . S
C258 C244 1.377 . S
C258 C257 1.373 . S
C259 C243 1.377 . S
C259 C257 1.389 . S
C259 C260 1.524 . S
C260 C259 1.524 . S
C260 C261 1.397 . S
C260 C265 1.363 . S
C261 H232 0.950 . S
C261 C260 1.397 . S
C261 C262 1.334 . S
C262 H233 0.950 . S
C262 C261 1.334 . S
C262 C263 1.287 . S
C263 C262 1.287 . S
C263 C264 1.524 . S
C263 H266 0.999 . S
C264 H234 0.950 . S
C264 C263 1.524 . S
C264 C265 1.415 . S
C265 H235 0.950 . S
C265 C260 1.363 . S
C265 C264 1.415 . S
H266 C263 0.999 . S
H267 C248 0.913 . S
H268 C286 0.951 . S
H269 C288 0.951 . S
H270 C290 0.950 . S
H271 C291 0.950 . S
H272 C293 0.950 . S
H273 C296 0.950 . S
H274 C297 0.950 . S
H275 C299 0.950 . S
H276 C300 0.950 . S
H277 C301 0.951 . S
H278 C303 0.951 . S
H279 C305 0.950 1_556 S
H280 C306 0.950 1_556 S
H281 C308 0.950 . S
H282 C311 0.950 . S
H283 C312 0.950 . S
H284 C314 0.950 . S
H285 C315 0.950 . S
C286 H268 0.951 . S
C286 C287 1.366 1_556 S
C286 C288 1.388 . S
C287 C286 1.366 1_554 S
C287 C291 1.385 . S
C288 H269 0.951 . S
C288 C286 1.388 . S
C288 C289 1.366 1_556 S
C289 C288 1.366 1_554 S
C289 C290 1.414 . S
C289 C292 1.499 . S
C290 H270 0.950 . S
C290 C289 1.414 . S
C290 C291 1.374 . S
C291 H271 0.950 . S
C291 C287 1.385 . S
C291 C290 1.374 . S
C292 C289 1.499 . S
C292 C293 1.373 . S
C292 C294 1.389 1_554 S
C293 H272 0.950 . S
C293 C292 1.373 . S
C293 C309 1.377 . S
C294 C292 1.389 1_556 S
C294 C295 1.524 . S
C294 C308 1.377 . S
C295 C294 1.524 . S
C295 C296 1.397 . S
C295 C300 1.363 . S
C296 H273 0.950 . S
C296 C295 1.397 . S
C296 C297 1.334 . S
C297 H274 0.950 . S
C297 C296 1.334 . S
C297 C298 1.287 . S
C298 C297 1.287 . S
C298 C299 1.524 . S
C298 H317 0.913 . S
C299 H275 0.950 . S
C299 C298 1.524 . S
C299 C300 1.415 . S
C300 H276 0.950 . S
C300 C295 1.363 . S
C300 C299 1.415 . S
C301 H277 0.951 . S
C301 C302 1.366 . S
C301 C303 1.388 . S
C302 C301 1.366 . S
C302 C306 1.385 . S
C303 H278 0.951 . S
C303 C301 1.388 . S
C303 C304 1.366 . S
C304 C303 1.366 . S
C304 C305 1.414 . S
C304 C307 1.499 . S
C305 H279 0.950 1_554 S
C305 C304 1.414 . S
C305 C306 1.374 . S
C306 H280 0.950 1_554 S
C306 C302 1.385 . S
C306 C305 1.374 . S
C307 C304 1.499 . S
C307 C308 1.373 1_554 S
C307 C309 1.389 . S
C308 H281 0.950 . S
C308 C294 1.377 . S
C308 C307 1.373 1_556 S
C309 C293 1.377 . S
C309 C307 1.389 . S
C309 C310 1.524 . S
C310 C309 1.524 . S
C310 C311 1.397 . S
C310 C315 1.363 . S
C311 H282 0.950 . S
C311 C310 1.397 . S
C311 C312 1.334 . S
C312 H283 0.950 . S
C312 C311 1.334 . S
C312 C313 1.287 . S
C313 C312 1.287 . S
C313 C314 1.524 . S
C313 H316 0.999 . S
C314 H284 0.950 . S
C314 C313 1.524 . S
C314 C315 1.415 . S
C315 H285 0.950 . S
C315 C310 1.363 . S
C315 C314 1.415 . S
H316 C313 0.999 . S
H317 C298 0.913 . S
H318 C336 0.951 . S
H319 C338 0.951 . S
H320 C340 0.950 . S
H321 C341 0.950 . S
H322 C343 0.950 . S
H323 C346 0.950 . S
H324 C347 0.950 . S
H325 C349 0.950 . S
H326 C350 0.950 . S
H327 C351 0.951 . S
H328 C353 0.951 . S
H329 C355 0.950 . S
H330 C356 0.950 . S
H331 C358 0.950 . S
H332 C361 0.950 . S
H333 C362 0.950 . S
H334 C364 0.950 . S
H335 C365 0.950 . S
C336 H318 0.951 . S
C336 C337 1.366 . S
C336 C338 1.388 . S
C337 C336 1.366 . S
C337 C341 1.385 . S
C338 H319 0.951 . S
C338 C336 1.388 . S
C338 C339 1.366 . S
C339 C338 1.366 . S
C339 C340 1.414 . S
C339 C342 1.499 . S
C340 H320 0.950 . S
C340 C339 1.414 . S
C340 C341 1.374 . S
C341 H321 0.950 . S
C341 C337 1.385 . S
C341 C340 1.374 . S
C342 C339 1.499 . S
C342 C343 1.373 . S
C342 C344 1.389 . S
C343 H322 0.950 . S
C343 C342 1.373 . S
C343 C359 1.377 . S
C344 C342 1.389 . S
C344 C345 1.524 . S
C344 C358 1.377 . S
C345 C344 1.524 . S
C345 C346 1.397 . S
C345 C350 1.363 . S
C346 H323 0.950 . S
C346 C345 1.397 . S
C346 C347 1.334 . S
C347 H324 0.950 . S
C347 C346 1.334 . S
C347 C348 1.287 . S
C348 C347 1.287 . S
C348 C349 1.524 . S
C348 H367 0.913 . S
C349 H325 0.950 . S
C349 C348 1.524 . S
C349 C350 1.415 . S
C350 H326 0.950 . S
C350 C345 1.363 . S
C350 C349 1.415 . S
C351 H327 0.951 . S
C351 C352 1.366 . S
C351 C353 1.388 . S
C352 C351 1.366 . S
C352 C356 1.385 . S
C353 H328 0.951 . S
C353 C351 1.388 . S
C353 C354 1.366 . S
C354 C353 1.366 . S
C354 C355 1.414 . S
C354 C357 1.499 . S
C355 H329 0.950 . S
C355 C354 1.414 . S
C355 C356 1.374 . S
C356 H330 0.950 . S
C356 C352 1.385 . S
C356 C355 1.374 . S
C357 C354 1.499 . S
C357 C358 1.373 . S
C357 C359 1.389 . S
C358 H331 0.950 . S
C358 C344 1.377 . S
C358 C357 1.373 . S
C359 C343 1.377 . S
C359 C357 1.389 . S
C359 C360 1.524 . S
C360 C359 1.524 . S
C360 C361 1.397 . S
C360 C365 1.363 . S
C361 H332 0.950 . S
C361 C360 1.397 . S
C361 C362 1.334 . S
C362 H333 0.950 . S
C362 C361 1.334 . S
C362 C363 1.287 . S
C363 C362 1.287 . S
C363 C364 1.524 . S
C363 H366 0.999 . S
C364 H334 0.950 . S
C364 C363 1.524 . S
C364 C365 1.415 . S
C365 H335 0.950 . S
C365 C360 1.363 . S
C365 C364 1.415 . S
H366 C363 0.999 . S
H367 C348 0.913 . S
H368 C386 0.951 . S
H369 C388 0.951 . S
H370 C390 0.950 . S
H371 C391 0.950 . S
H372 C393 0.950 . S
H373 C396 0.950 . S
H374 C397 0.950 . S
H375 C399 0.950 . S
H376 C400 0.950 . S
H377 C401 0.951 . S
H378 C403 0.951 . S
H379 C405 0.950 . S
H380 C406 0.950 . S
H381 C408 0.950 . S
H382 C411 0.950 . S
H383 C412 0.950 . S
H384 C414 0.950 . S
H385 C415 0.950 . S
C386 H368 0.951 . S
C386 C387 1.366 . S
C386 C388 1.388 . S
C387 C386 1.366 . S
C387 C391 1.385 . S
C388 H369 0.951 . S
C388 C386 1.388 . S
C388 C389 1.366 . S
C389 C388 1.366 . S
C389 C390 1.414 . S
C389 C392 1.499 . S
C390 H370 0.950 . S
C390 C389 1.414 . S
C390 C391 1.374 . S
C391 H371 0.950 . S
C391 C387 1.385 . S
C391 C390 1.374 . S
C392 C389 1.499 . S
C392 C393 1.373 . S
C392 C394 1.389 . S
C393 H372 0.950 . S
C393 C392 1.373 . S
C393 C409 1.377 . S
C394 C392 1.389 . S
C394 C395 1.524 . S
C394 C408 1.377 . S
C395 C394 1.524 . S
C395 C396 1.397 . S
C395 C400 1.363 . S
C396 H373 0.950 . S
C396 C395 1.397 . S
C396 C397 1.334 . S
C397 H374 0.950 . S
C397 C396 1.334 . S
C397 C398 1.287 . S
C398 C397 1.287 . S
C398 C399 1.524 . S
C398 H417 0.913 . S
C399 H375 0.950 . S
C399 C398 1.524 . S
C399 C400 1.415 . S
C400 H376 0.950 . S
C400 C395 1.363 . S
C400 C399 1.415 . S
C401 H377 0.951 . S
C401 C402 1.366 . S
C401 C403 1.388 . S
C402 C401 1.366 . S
C402 C406 1.385 . S
C403 H378 0.951 . S
C403 C401 1.388 . S
C403 C404 1.366 . S
C404 C403 1.366 . S
C404 C405 1.414 . S
C404 C407 1.499 . S
C405 H379 0.950 . S
C405 C404 1.414 . S
C405 C406 1.374 . S
C406 H380 0.950 . S
C406 C402 1.385 . S
C406 C405 1.374 . S
C407 C404 1.499 . S
C407 C408 1.373 . S
C407 C409 1.389 . S
C408 H381 0.950 . S
C408 C394 1.377 . S
C408 C407 1.373 . S
C409 C393 1.377 . S
C409 C407 1.389 . S
C409 C410 1.524 . S
C410 C409 1.524 . S
C410 C411 1.397 . S
C410 C415 1.363 . S
C411 H382 0.950 . S
C411 C410 1.397 . S
C411 C412 1.334 . S
C412 H383 0.950 . S
C412 C411 1.334 . S
C412 C413 1.287 . S
C413 C412 1.287 . S
C413 C414 1.524 . S
C413 H416 0.999 1_556 S
C414 H384 0.950 . S
C414 C413 1.524 . S
C414 C415 1.415 . S
C415 H385 0.950 . S
C415 C410 1.363 . S
C415 C414 1.415 . S
H416 C413 0.999 1_554 S
H417 C398 0.913 . S
H418 C436 0.951 . S
H419 C438 0.951 . S
H420 C440 0.950 . S
H421 C441 0.950 . S
H422 C443 0.950 . S
H423 C446 0.950 . S
H424 C447 0.950 . S
H425 C449 0.950 1_455 S
H426 C450 0.950 . S
H427 C451 0.951 . S
H428 C453 0.951 . S
H429 C455 0.950 . S
H430 C456 0.950 . S
H431 C458 0.950 . S
H432 C461 0.950 . S
H433 C462 0.950 . S
H434 C464 0.950 . S
H435 C465 0.950 . S
C436 H418 0.951 . S
C436 C437 1.366 . S
C436 C438 1.388 . S
C437 C436 1.366 . S
C437 C441 1.385 . S
C438 H419 0.951 . S
C438 C436 1.388 . S
C438 C439 1.366 . S
C439 C438 1.366 . S
C439 C440 1.414 . S
C439 C442 1.499 . S
C440 H420 0.950 . S
C440 C439 1.414 . S
C440 C441 1.374 . S
C441 H421 0.950 . S
C441 C437 1.385 . S
C441 C440 1.374 . S
C442 C439 1.499 . S
C442 C443 1.373 . S
C442 C444 1.389 . S
C443 H422 0.950 . S
C443 C442 1.373 . S
C443 C459 1.377 . S
C444 C442 1.389 . S
C444 C445 1.524 . S
C444 C458 1.377 . S
C445 C444 1.524 . S
C445 C446 1.397 . S
C445 C450 1.363 . S
C446 H423 0.950 . S
C446 C445 1.397 . S
C446 C447 1.334 . S
C447 H424 0.950 . S
C447 C446 1.334 . S
C447 C448 1.287 . S
C448 C447 1.287 . S
C448 C449 1.524 . S
C448 H467 0.913 . S
C449 H425 0.950 1_655 S
C449 C448 1.524 . S
C449 C450 1.415 . S
C450 H426 0.950 . S
C450 C445 1.363 . S
C450 C449 1.415 . S
C451 H427 0.951 . S
C451 C452 1.366 . S
C451 C453 1.388 . S
C452 C451 1.366 . S
C452 C456 1.385 . S
C453 H428 0.951 . S
C453 C451 1.388 . S
C453 C454 1.366 . S
C454 C453 1.366 . S
C454 C455 1.414 . S
C454 C457 1.499 . S
C455 H429 0.950 . S
C455 C454 1.414 . S
C455 C456 1.374 . S
C456 H430 0.950 . S
C456 C452 1.385 . S
C456 C455 1.374 . S
C457 C454 1.499 . S
C457 C458 1.373 . S
C457 C459 1.389 . S
C458 H431 0.950 . S
C458 C444 1.377 . S
C458 C457 1.373 . S
C459 C443 1.377 . S
C459 C457 1.389 . S
C459 C460 1.524 . S
C460 C459 1.524 . S
C460 C461 1.397 . S
C460 C465 1.363 . S
C461 H432 0.950 . S
C461 C460 1.397 . S
C461 C462 1.334 . S
C462 H433 0.950 . S
C462 C461 1.334 . S
C462 C463 1.287 . S
C463 C462 1.287 . S
C463 C464 1.524 . S
C463 H466 0.999 . S
C464 H434 0.950 . S
C464 C463 1.524 . S
C464 C465 1.415 . S
C465 H435 0.950 . S
C465 C460 1.363 . S
C465 C464 1.415 . S
H466 C463 0.999 . S
H467 C448 0.913 . S
H468 C486 0.951 . S
H469 C488 0.951 . S
H470 C490 0.950 . S
H471 C491 0.950 . S
H472 C493 0.950 . S
H473 C496 0.950 . S
H474 C497 0.950 . S
H475 C499 0.950 . S
H476 C500 0.950 . S
H477 C501 0.951 . S
H478 C503 0.951 . S
H479 C505 0.950 . S
H480 C506 0.950 . S
H481 C508 0.950 . S
H482 C511 0.950 . S
H483 C512 0.950 . S
H484 C514 0.950 . S
H485 C515 0.950 . S
C486 H468 0.951 . S
C486 C487 1.366 . S
C486 C488 1.388 . S
C487 C486 1.366 . S
C487 C491 1.385 . S
C488 H469 0.951 . S
C488 C486 1.388 . S
C488 C489 1.366 . S
C489 C488 1.366 . S
C489 C490 1.414 . S
C489 C492 1.499 . S
C490 H470 0.950 . S
C490 C489 1.414 . S
C490 C491 1.374 . S
C491 H471 0.950 . S
C491 C487 1.385 . S
C491 C490 1.374 . S
C492 C489 1.499 . S
C492 C493 1.373 . S
C492 C494 1.389 . S
C493 H472 0.950 . S
C493 C492 1.373 . S
C493 C509 1.377 . S
C494 C492 1.389 . S
C494 C495 1.524 . S
C494 C508 1.377 . S
C495 C494 1.524 . S
C495 C496 1.397 . S
C495 C500 1.363 . S
C496 H473 0.950 . S
C496 C495 1.397 . S
C496 C497 1.334 . S
C497 H474 0.950 . S
C497 C496 1.334 . S
C497 C498 1.287 . S
C498 C497 1.287 . S
C498 C499 1.524 . S
C498 H517 0.913 . S
C499 H475 0.950 . S
C499 C498 1.524 . S
C499 C500 1.415 . S
C500 H476 0.950 . S
C500 C495 1.363 . S
C500 C499 1.415 . S
C501 H477 0.951 . S
C501 C502 1.366 . S
C501 C503 1.388 . S
C502 C501 1.366 . S
C502 C506 1.385 . S
C503 H478 0.951 . S
C503 C501 1.388 . S
C503 C504 1.366 . S
C504 C503 1.366 . S
C504 C505 1.414 . S
C504 C507 1.499 . S
C505 H479 0.950 . S
C505 C504 1.414 . S
C505 C506 1.374 . S
C506 H480 0.950 . S
C506 C502 1.385 . S
C506 C505 1.374 . S
C507 C504 1.499 . S
C507 C508 1.373 . S
C507 C509 1.389 . S
C508 H481 0.950 . S
C508 C494 1.377 . S
C508 C507 1.373 . S
C509 C493 1.377 . S
C509 C507 1.389 . S
C509 C510 1.524 . S
C510 C509 1.524 . S
C510 C511 1.397 . S
C510 C515 1.363 . S
C511 H482 0.950 . S
C511 C510 1.397 . S
C511 C512 1.334 . S
C512 H483 0.950 . S
C512 C511 1.334 . S
C512 C513 1.287 . S
C513 C512 1.287 . S
C513 C514 1.524 . S
C513 H516 0.999 . S
C514 H484 0.950 . S
C514 C513 1.524 . S
C514 C515 1.415 . S
C515 H485 0.950 . S
C515 C510 1.363 . S
C515 C514 1.415 . S
H516 C513 0.999 . S
H517 C498 0.913 . S
H518 C536 0.951 . S
H519 C538 0.951 . S
H520 C540 0.950 . S
H521 C541 0.950 . S
H522 C543 0.950 . S
H523 C546 0.950 . S
H524 C547 0.950 . S
H525 C549 0.950 . S
H526 C550 0.950 . S
H527 C551 0.951 . S
H528 C553 0.951 . S
H529 C555 0.950 . S
H530 C556 0.950 . S
H531 C558 0.950 . S
H532 C561 0.950 . S
H533 C562 0.950 . S
H534 C564 0.950 . S
H535 C565 0.950 . S
C536 H518 0.951 . S
C536 C537 1.366 . S
C536 C538 1.388 . S
C537 C536 1.366 . S
C537 C541 1.385 . S
C538 H519 0.951 . S
C538 C536 1.388 . S
C538 C539 1.366 . S
C539 C538 1.366 . S
C539 C540 1.414 . S
C539 C542 1.499 . S
C540 H520 0.950 . S
C540 C539 1.414 . S
C540 C541 1.374 . S
C541 H521 0.950 . S
C541 C537 1.385 . S
C541 C540 1.374 . S
C542 C539 1.499 . S
C542 C543 1.373 . S
C542 C544 1.389 . S
C543 H522 0.950 . S
C543 C542 1.373 . S
C543 C559 1.377 . S
C544 C542 1.389 . S
C544 C545 1.524 . S
C544 C558 1.377 . S
C545 C544 1.524 . S
C545 C546 1.397 . S
C545 C550 1.363 . S
C546 H523 0.950 . S
C546 C545 1.397 . S
C546 C547 1.334 . S
C547 H524 0.950 . S
C547 C546 1.334 . S
C547 C548 1.287 . S
C548 C547 1.287 . S
C548 C549 1.524 . S
C548 H567 0.913 . S
C549 H525 0.950 . S
C549 C548 1.524 . S
C549 C550 1.415 . S
C550 H526 0.950 . S
C550 C545 1.363 . S
C550 C549 1.415 . S
C551 H527 0.951 . S
C551 C552 1.366 . S
C551 C553 1.388 . S
C552 C551 1.366 . S
C552 C556 1.385 . S
C553 H528 0.951 . S
C553 C551 1.388 . S
C553 C554 1.366 . S
C554 C553 1.366 . S
C554 C555 1.414 . S
C554 C557 1.499 . S
C555 H529 0.950 . S
C555 C554 1.414 . S
C555 C556 1.374 . S
C556 H530 0.950 . S
C556 C552 1.385 . S
C556 C555 1.374 . S
C557 C554 1.499 . S
C557 C558 1.373 . S
C557 C559 1.389 . S
C558 H531 0.950 . S
C558 C544 1.377 . S
C558 C557 1.373 . S
C559 C543 1.377 . S
C559 C557 1.389 . S
C559 C560 1.524 . S
C560 C559 1.524 . S
C560 C561 1.397 . S
C560 C565 1.363 . S
C561 H532 0.950 . S
C561 C560 1.397 . S
C561 C562 1.334 . S
C562 H533 0.950 . S
C562 C561 1.334 . S
C562 C563 1.287 . S
C563 C562 1.287 . S
C563 C564 1.524 . S
C563 H566 0.999 . S
C564 H534 0.950 . S
C564 C563 1.524 . S
C564 C565 1.415 . S
C565 H535 0.950 . S
C565 C560 1.363 . S
C565 C564 1.415 . S
H566 C563 0.999 . S
H567 C548 0.913 . S
H568 C586 0.951 . S
H569 C588 0.951 . S
H570 C590 0.950 . S
H571 C591 0.950 . S
H572 C593 0.950 . S
H573 C596 0.950 . S
H574 C597 0.950 . S
H575 C599 0.950 . S
H576 C600 0.950 . S
H577 C601 0.951 . S
H578 C603 0.951 . S
H579 C605 0.950 . S
H580 C606 0.950 . S
H581 C608 0.950 . S
H582 C611 0.950 . S
H583 C612 0.950 . S
H584 C614 0.950 . S
H585 C615 0.950 . S
C586 H568 0.951 . S
C586 C587 1.366 . S
C586 C588 1.388 . S
C587 C586 1.366 . S
C587 C591 1.385 . S
C588 H569 0.951 . S
C588 C586 1.388 . S
C588 C589 1.366 . S
C589 C588 1.366 . S
C589 C590 1.414 . S
C589 C592 1.499 . S
C590 H570 0.950 . S
C590 C589 1.414 . S
C590 C591 1.374 . S
C591 H571 0.950 . S
C591 C587 1.385 . S
C591 C590 1.374 . S
C592 C589 1.499 . S
C592 C593 1.373 . S
C592 C594 1.389 . S
C593 H572 0.950 . S
C593 C592 1.373 . S
C593 C609 1.377 . S
C594 C592 1.389 . S
C594 C595 1.524 . S
C594 C608 1.377 . S
C595 C594 1.524 . S
C595 C596 1.397 . S
C595 C600 1.363 . S
C596 H573 0.950 . S
C596 C595 1.397 . S
C596 C597 1.334 . S
C597 H574 0.950 . S
C597 C596 1.334 . S
C597 C598 1.287 . S
C598 C597 1.287 . S
C598 C599 1.524 . S
C598 H617 0.913 . S
C599 H575 0.950 . S
C599 C598 1.524 . S
C599 C600 1.415 . S
C600 H576 0.950 . S
C600 C595 1.363 . S
C600 C599 1.415 . S
C601 H577 0.951 . S
C601 C602 1.366 . S
C601 C603 1.388 . S
C602 C601 1.366 . S
C602 C606 1.385 . S
C603 H578 0.951 . S
C603 C601 1.388 . S
C603 C604 1.366 . S
C604 C603 1.366 . S
C604 C605 1.414 . S
C604 C607 1.499 . S
C605 H579 0.950 . S
C605 C604 1.414 . S
C605 C606 1.374 . S
C606 H580 0.950 . S
C606 C602 1.385 . S
C606 C605 1.374 . S
C607 C604 1.499 . S
C607 C608 1.373 . S
C607 C609 1.389 . S
C608 H581 0.950 . S
C608 C594 1.377 . S
C608 C607 1.373 . S
C609 C593 1.377 . S
C609 C607 1.389 . S
C609 C610 1.524 . S
C610 C609 1.524 . S
C610 C611 1.397 . S
C610 C615 1.363 . S
C611 H582 0.950 . S
C611 C610 1.397 . S
C611 C612 1.334 . S
C612 H583 0.950 . S
C612 C611 1.334 . S
C612 C613 1.287 . S
C613 C612 1.287 . S
C613 C614 1.524 . S
C613 H616 0.999 . S
C614 H584 0.950 . S
C614 C613 1.524 . S
C614 C615 1.415 . S
C615 H585 0.950 . S
C615 C610 1.363 . S
C615 C614 1.415 . S
H616 C613 0.999 . S
H617 C598 0.913 . S
H618 C636 0.951 . S
H619 C638 0.951 . S
H620 C640 0.950 . S
H621 C641 0.950 . S
H622 C643 0.950 . S
H623 C646 0.950 . S
H624 C647 0.950 . S
H625 C649 0.950 . S
H626 C650 0.950 . S
H627 C651 0.951 . S
H628 C653 0.951 . S
H629 C655 0.950 . S
H630 C656 0.950 . S
H631 C658 0.950 . S
H632 C661 0.950 . S
H633 C662 0.950 . S
H634 C664 0.950 . S
H635 C665 0.950 . S
C636 H618 0.951 . S
C636 C637 1.366 . S
C636 C638 1.388 . S
C637 C636 1.366 . S
C637 C641 1.385 . S
C638 H619 0.951 . S
C638 C636 1.388 . S
C638 C639 1.366 . S
C639 C638 1.366 . S
C639 C640 1.414 . S
C639 C642 1.499 . S
C640 H620 0.950 . S
C640 C639 1.414 . S
C640 C641 1.374 . S
C641 H621 0.950 . S
C641 C637 1.385 . S
C641 C640 1.374 . S
C642 C639 1.499 . S
C642 C643 1.373 . S
C642 C644 1.389 . S
C643 H622 0.950 . S
C643 C642 1.373 . S
C643 C659 1.377 . S
C644 C642 1.389 . S
C644 C645 1.524 . S
C644 C658 1.377 . S
C645 C644 1.524 . S
C645 C646 1.397 . S
C645 C650 1.363 . S
C646 H623 0.950 . S
C646 C645 1.397 . S
C646 C647 1.334 . S
C647 H624 0.950 . S
C647 C646 1.334 . S
C647 C648 1.287 . S
C648 C647 1.287 . S
C648 C649 1.524 . S
C648 H667 0.913 . S
C649 H625 0.950 . S
C649 C648 1.524 . S
C649 C650 1.415 . S
C650 H626 0.950 . S
C650 C645 1.363 . S
C650 C649 1.415 . S
C651 H627 0.951 . S
C651 C652 1.366 . S
C651 C653 1.388 . S
C652 C651 1.366 . S
C652 C656 1.385 . S
C653 H628 0.951 . S
C653 C651 1.388 . S
C653 C654 1.366 . S
C654 C653 1.366 . S
C654 C655 1.414 . S
C654 C657 1.499 . S
C655 H629 0.950 . S
C655 C654 1.414 . S
C655 C656 1.374 . S
C656 H630 0.950 . S
C656 C652 1.385 . S
C656 C655 1.374 . S
C657 C654 1.499 . S
C657 C658 1.373 . S
C657 C659 1.389 . S
C658 H631 0.950 . S
C658 C644 1.377 . S
C658 C657 1.373 . S
C659 C643 1.377 . S
C659 C657 1.389 . S
C659 C660 1.524 . S
C660 C659 1.524 . S
C660 C661 1.397 . S
C660 C665 1.363 . S
C661 H632 0.950 . S
C661 C660 1.397 . S
C661 C662 1.334 . S
C662 H633 0.950 . S
C662 C661 1.334 . S
C662 C663 1.287 . S
C663 C662 1.287 . S
C663 C664 1.524 . S
C663 H666 0.999 . S
C664 H634 0.950 . S
C664 C663 1.524 . S
C664 C665 1.415 . S
C665 H635 0.950 . S
C665 C660 1.363 . S
C665 C664 1.415 . S
H666 C663 0.999 . S
H667 C648 0.913 . S
H668 C686 0.951 1_554 S
H669 C688 0.951 . S
H670 C690 0.950 . S
H671 C691 0.950 . S
H672 C693 0.950 . S
H673 C696 0.950 . S
H674 C697 0.950 1_554 S
H675 C699 0.950 1_545 S
H676 C700 0.950 . S
H677 C701 0.951 . S
H678 C703 0.951 . S
H679 C705 0.950 . S
H680 C706 0.950 1_545 S
H681 C708 0.950 . S
H682 C711 0.950 . S
H683 C712 0.950 . S
H684 C714 0.950 . S
H685 C715 0.950 . S
C686 H668 0.951 1_556 S
C686 C687 1.366 . S
C686 C688 1.388 . S
C687 C686 1.366 . S
C687 C691 1.385 . S
C688 H669 0.951 . S
C688 C686 1.388 . S
C688 C689 1.366 . S
C689 C688 1.366 . S
C689 C690 1.414 . S
C689 C692 1.499 . S
C690 H670 0.950 . S
C690 C689 1.414 . S
C690 C691 1.374 . S
C691 H671 0.950 . S
C691 C687 1.385 . S
C691 C690 1.374 . S
C692 C689 1.499 . S
C692 C693 1.373 . S
C692 C694 1.389 . S
C693 H672 0.950 . S
C693 C692 1.373 . S
C693 C709 1.377 . S
C694 C692 1.389 . S
C694 C695 1.524 . S
C694 C708 1.377 . S
C695 C694 1.524 . S
C695 C696 1.397 . S
C695 C700 1.363 . S
C696 H673 0.950 . S
C696 C695 1.397 . S
C696 C697 1.334 . S
C697 H674 0.950 1_556 S
C697 C696 1.334 . S
C697 C698 1.287 1_556 S
C698 C697 1.287 1_554 S
C698 C699 1.523 1_554 S
C698 H717 0.914 . S
C699 H675 0.950 1_565 S
C699 C698 1.523 1_556 S
C699 C700 1.415 . S
C700 H676 0.950 . S
C700 C695 1.363 . S
C700 C699 1.415 . S
C701 H677 0.951 . S
C701 C702 1.366 . S
C701 C703 1.388 . S
C702 C701 1.366 . S
C702 C706 1.385 . S
C703 H678 0.951 . S
C703 C701 1.388 . S
C703 C704 1.366 . S
C704 C703 1.366 . S
C704 C705 1.414 . S
C704 C707 1.499 . S
C705 H679 0.950 . S
C705 C704 1.414 . S
C705 C706 1.374 . S
C706 H680 0.950 1_565 S
C706 C702 1.385 . S
C706 C705 1.374 . S
C707 C704 1.499 . S
C707 C708 1.373 . S
C707 C709 1.389 . S
C708 H681 0.950 . S
C708 C694 1.377 . S
C708 C707 1.373 . S
C709 C693 1.377 . S
C709 C707 1.389 . S
C709 C710 1.524 . S
C710 C709 1.524 . S
C710 C711 1.397 . S
C710 C715 1.363 . S
C711 H682 0.950 . S
C711 C710 1.397 . S
C711 C712 1.334 . S
C712 H683 0.950 . S
C712 C711 1.334 . S
C712 C713 1.287 . S
C713 C712 1.287 . S
C713 C714 1.524 . S
C713 H716 0.999 . S
C714 H684 0.950 . S
C714 C713 1.524 . S
C714 C715 1.415 . S
C715 H685 0.950 . S
C715 C710 1.363 . S
C715 C714 1.415 . S
H716 C713 0.999 . S
H717 C698 0.914 . S
C152 C92 1.280 . S
C137 C68 1.378 . S
C187 C11 1.366 . S
C202 C113 1.318 . S
C237 C30 1.586 . S
C252 C89 1.482 . S
C287 C49 1.574 1_554 S
C302 C110 1.463 . S
C352 C94 1.578 . S
C337 C2 1.571 . S
C402 C114 1.626 . S
C387 C25 1.688 . S
C437 C40 1.639 . S
C452 C90 1.617 . S
C487 C59 1.567 . S
C502 C112 1.535 . S
C552 C111 1.502 . S
C537 C21 1.527 . S
C602 C93 1.517 . S
C587 C44 1.573 . S
C652 C115 1.462 . S
C637 C63 1.495 . S
C687 C6 1.498 1_556 S
C702 C91 1.445 . S
