# Generated by pormake.
# Topology pto, (3,4)-cn, num edge types: 1
# Building blocks:
#     Node 0, Type 0, BuildingBlock: QEWDON_clean_linker_0, # of connection points: 3
#     Node 1, Type 0, BuildingBlock: QEWDON_clean_linker_0, # of connection points: 3
#     Node 2, Type 0, BuildingBlock: QEWDON_clean_linker_0, # of connection points: 3
#     Node 3, Type 0, BuildingBlock: QEWDON_clean_linker_0, # of connection points: 3
#     Node 4, Type 0, BuildingBlock: QEWDON_clean_linker_0, # of connection points: 3
#     Node 5, Type 0, BuildingBlock: QEWDON_clean_linker_0, # of connection points: 3
#     Node 6, Type 0, BuildingBlock: QEWDON_clean_linker_0, # of connection points: 3
#     Node 7, Type 0, BuildingBlock: QEWDON_clean_linker_0, # of connection points: 3
#     Node 8, Type 1, BuildingBlock: NAWXER_clean_sbu_0, # of connection points: 4
#     Node 9, Type 1, BuildingBlock: NAWXER_clean_sbu_0, # of connection points: 4
#     Node 10, Type 1, BuildingBlock: NAWXER_clean_sbu_0, # of connection points: 4
#     Node 11, Type 1, BuildingBlock: NAWXER_clean_sbu_0, # of connection points: 4
#     Node 12, Type 1, BuildingBlock: NAWXER_clean_sbu_0, # of connection points: 4
#     Node 13, Type 1, BuildingBlock: NAWXER_clean_sbu_0, # of connection points: 4
#     Edge 14, Type (0, 1), BuildingBlock: ZUJKAS_clean_linker_0, # of connection points: 2
#     Edge 15, Type (0, 1), BuildingBlock: ZUJKAS_clean_linker_0, # of connection points: 2
#     Edge 16, Type (0, 1), BuildingBlock: ZUJKAS_clean_linker_0, # of connection points: 2
#     Edge 17, Type (0, 1), BuildingBlock: ZUJKAS_clean_linker_0, # of connection points: 2
#     Edge 18, Type (0, 1), BuildingBlock: ZUJKAS_clean_linker_0, # of connection points: 2
#     Edge 19, Type (0, 1), BuildingBlock: ZUJKAS_clean_linker_0, # of connection points: 2
#     Edge 20, Type (0, 1), BuildingBlock: ZUJKAS_clean_linker_0, # of connection points: 2
#     Edge 21, Type (0, 1), BuildingBlock: ZUJKAS_clean_linker_0, # of connection points: 2
#     Edge 22, Type (0, 1), BuildingBlock: ZUJKAS_clean_linker_0, # of connection points: 2
#     Edge 23, Type (0, 1), BuildingBlock: ZUJKAS_clean_linker_0, # of connection points: 2
#     Edge 24, Type (0, 1), BuildingBlock: ZUJKAS_clean_linker_0, # of connection points: 2
#     Edge 25, Type (0, 1), BuildingBlock: ZUJKAS_clean_linker_0, # of connection points: 2
#     Edge 26, Type (0, 1), BuildingBlock: ZUJKAS_clean_linker_0, # of connection points: 2
#     Edge 27, Type (0, 1), BuildingBlock: ZUJKAS_clean_linker_0, # of connection points: 2
#     Edge 28, Type (0, 1), BuildingBlock: ZUJKAS_clean_linker_0, # of connection points: 2
#     Edge 29, Type (0, 1), BuildingBlock: ZUJKAS_clean_linker_0, # of connection points: 2
#     Edge 30, Type (0, 1), BuildingBlock: ZUJKAS_clean_linker_0, # of connection points: 2
#     Edge 31, Type (0, 1), BuildingBlock: ZUJKAS_clean_linker_0, # of connection points: 2
#     Edge 32, Type (0, 1), BuildingBlock: ZUJKAS_clean_linker_0, # of connection points: 2
#     Edge 33, Type (0, 1), BuildingBlock: ZUJKAS_clean_linker_0, # of connection points: 2
#     Edge 34, Type (0, 1), BuildingBlock: ZUJKAS_clean_linker_0, # of connection points: 2
#     Edge 35, Type (0, 1), BuildingBlock: ZUJKAS_clean_linker_0, # of connection points: 2
#     Edge 36, Type (0, 1), BuildingBlock: ZUJKAS_clean_linker_0, # of connection points: 2
#     Edge 37, Type (0, 1), BuildingBlock: ZUJKAS_clean_linker_0, # of connection points: 2
# Relax obj value: 0.022
# Max RMSD: 0.220
# Mean RMSD: 0.079
data_MOF--net-pto--node1-NAWXER_clean_sbu_0--node2-QEWDON_clean_linker_0--edge1-ZUJKAS_clean_linker_0
_symmetry_space_group_name_H-M    P1
_symmetry_Int_Tables_number       1
_symmetry_cell_setting            triclinic
loop_
_symmetry_equiv_pos_as_xyz
'x, y, z'
_cell_length_a     52.173993
_cell_length_b     53.734083
_cell_length_c     51.343955
_cell_angle_alpha  97.780519
_cell_angle_beta   106.38882
_cell_angle_gamma 99.835318
loop_
_atom_site_label
_atom_site_type_symbol
_atom_site_fract_x
_atom_site_fract_y
_atom_site_fract_z
_atom_type_partial_charge
H0 H 0.29708 0.30375 0.24666 0.0
C1 C 0.29093 0.28468 0.2506 0.0
C2 C 0.29944 0.2638 0.2385 0.0
C3 C 0.27592 0.28135 0.26913 0.0
H4 H 0.29892 0.22325 0.23569 0.0
C5 C 0.29189 0.2393 0.24441 0.0
C6 C 0.27681 0.2357 0.26288 0.0
C7 C 0.26875 0.25683 0.27494 0.0
C8 C 0.2704 0.30385 0.28491 0.0
H9 H 0.25799 0.25455 0.29 0.0
C10 C 0.25715 0.32139 0.27137 0.0
C11 C 0.25215 0.34273 0.28679 0.0
C12 C 0.27872 0.30787 0.31396 0.0
H13 H 0.28917 0.29473 0.32483 0.0
C14 C 0.27396 0.32906 0.32929 0.0
H15 H 0.25068 0.31837 0.24896 0.0
C16 C 0.26076 0.34638 0.31585 0.0
H17 H 0.25685 0.36243 0.32822 0.0
H18 H 0.28044 0.33201 0.35166 0.0
H19 H 0.39231 0.77976 0.7453 0.0
C20 C 0.37375 0.7648 0.73649 0.0
C21 C 0.37456 0.73921 0.73871 0.0
C22 C 0.34905 0.77151 0.72399 0.0
H23 H 0.3508 0.70044 0.72992 0.0
C24 C 0.35029 0.72013 0.72766 0.0
C25 C 0.32509 0.72664 0.71569 0.0
C26 C 0.32481 0.75243 0.71338 0.0
C27 C 0.34835 0.79896 0.72543 0.0
H28 H 0.30557 0.75807 0.70525 0.0
C29 C 0.34263 0.80948 0.70138 0.0
C30 C 0.34436 0.83614 0.7034 0.0
C31 C 0.35492 0.81502 0.75141 0.0
H32 H 0.3594 0.80718 0.77015 0.0
C33 C 0.35589 0.84132 0.75341 0.0
H34 H 0.33807 0.79716 0.68135 0.0
C35 C 0.35082 0.85189 0.7296 0.0
H36 H 0.35197 0.87241 0.73165 0.0
H37 H 0.36091 0.85359 0.7735 0.0
H38 H 0.89859 0.77708 0.39072 0.0
C39 C 0.88606 0.77908 0.37064 0.0
C40 C 0.89374 0.77228 0.34702 0.0
C41 C 0.86179 0.78781 0.3682 0.0
H42 H 0.88269 0.76847 0.30274 0.0
C43 C 0.87698 0.77421 0.32104 0.0
C44 C 0.85232 0.78226 0.31828 0.0
C45 C 0.84499 0.78937 0.34206 0.0
C46 C 0.85269 0.79338 0.39258 0.0
H47 H 0.82575 0.7952 0.34019 0.0
C48 C 0.86301 0.81733 0.41074 0.0
C49 C 0.85318 0.82306 0.43325 0.0
C50 C 0.83274 0.77493 0.39705 0.0
H51 H 0.82452 0.75642 0.38309 0.0
C52 C 0.82315 0.78031 0.41947 0.0
H53 H 0.8785 0.83144 0.40715 0.0
C54 C 0.83315 0.80421 0.4374 0.0
H55 H 0.82472 0.80809 0.45414 0.0
H56 H 0.80765 0.76604 0.42278 0.0
H57 H 0.88966 0.3703 0.95458 0.0
C58 C 0.88104 0.35223 0.93989 0.0
C59 C 0.88354 0.35027 0.91323 0.0
C60 C 0.86738 0.33101 0.94772 0.0
H61 H 0.87579 0.32479 0.87451 0.0
C62 C 0.87238 0.32675 0.89448 0.0
C63 C 0.85853 0.30532 0.90178 0.0
C64 C 0.85588 0.30772 0.92845 0.0
C65 C 0.86632 0.33287 0.97645 0.0
H66 H 0.84555 0.29128 0.93452 0.0
C67 C 0.84163 0.32391 0.98165 0.0
C68 C 0.84073 0.32563 0.00898 0.0
C69 C 0.89021 0.34347 0.99888 0.0
H70 H 0.90954 0.35028 0.99544 0.0
C71 C 0.88949 0.34501 0.02599 0.0
H72 H 0.82312 0.31574 0.96443 0.0
C73 C 0.86496 0.33619 0.03107 0.0
H74 H 0.86485 0.3381 0.05231 0.0
H75 H 0.90801 0.35319 0.04314 0.0
H76 H 0.02157 0.84601 0.92482 0.0
C77 C 1.00097 0.84396 0.92619 0.0
C78 C 0.98443 0.81933 0.92205 0.0
C79 C 0.99078 0.86605 0.931 0.0
H80 H 0.94508 0.79812 0.92115 0.0
C81 C 0.95762 0.81706 0.92344 0.0
C82 C 0.94728 0.83909 0.92878 0.0
C83 C 0.96395 0.86356 0.93215 0.0
C84 C 0.00825 0.89175 0.93459 0.0
H85 H 0.95616 0.88072 0.93584 0.0
C86 C 1.00057 0.90794 0.91584 0.0
C87 C 0.01771 0.93204 0.91842 0.0
C88 C 0.0331 0.89979 0.95621 0.0
H89 H 0.03938 0.88749 0.97079 0.0
C90 C 0.04992 0.92386 0.95927 0.0
H91 H 0.98174 0.90126 0.8987 0.0
C92 C 0.04236 0.9399 0.94054 0.0
H93 H 0.05578 0.9585 0.94343 0.0
H94 H 0.06897 0.93006 0.97614 0.0
H95 H 0.90852 0.35891 0.41268 0.0
C96 C 0.88792 0.36172 0.40434 0.0
C97 C 0.88373 0.38549 0.39741 0.0
C98 C 0.86569 0.34081 0.39836 0.0
H99 H 0.85352 0.40614 0.37891 0.0
C100 C 0.85681 0.38809 0.3849 0.0
C101 C 0.83434 0.36716 0.37854 0.0
C102 C 0.83907 0.3437 0.3859 0.0
C103 C 0.87034 0.31479 0.40064 0.0
H104 H 0.82215 0.32722 0.38105 0.0
C105 C 0.8758 0.30658 0.42611 0.0
C106 C 0.8782 0.28099 0.42724 0.0
C107 C 0.86797 0.29762 0.3765 0.0
H108 H 0.8637 0.3037 0.35672 0.0
C109 C 0.87094 0.27248 0.37764 0.0
H110 H 0.8772 0.31973 0.44469 0.0
C111 C 0.8759 0.26413 0.40279 0.0
H112 H 0.87802 0.24446 0.40316 0.0
H113 H 0.86915 0.25935 0.35895 0.0
H114 H 0.36658 0.32362 0.76865 0.0
C115 C 0.35101 0.33386 0.77126 0.0
C116 C 0.34895 0.34101 0.79781 0.0
C117 C 0.33369 0.34068 0.74823 0.0
H118 H 0.32773 0.36051 0.82165 0.0
C119 C 0.32915 0.35478 0.80113 0.0
C120 C 0.31193 0.3621 0.77847 0.0
C121 C 0.31417 0.35475 0.75201 0.0
C122 C 0.33723 0.3347 0.72053 0.0
H123 H 0.30121 0.36055 0.73441 0.0
C124 C 0.33946 0.3099 0.70975 0.0
C125 C 0.34337 0.30462 0.68368 0.0
C126 C 0.33888 0.35414 0.70492 0.0
H127 H 0.33754 0.37344 0.71284 0.0
C128 C 0.34283 0.349 0.67914 0.0
H129 H 0.33816 0.29477 0.72162 0.0
C130 C 0.3451 0.32446 0.66857 0.0
H131 H 0.34779 0.32088 0.64833 0.0
H132 H 0.34413 0.36411 0.66731 0.0
H133 H 0.39126 0.83343 0.20602 0.0
C134 C 0.38017 0.81758 0.21229 0.0
C135 C 0.37863 0.82028 0.23944 0.0
C136 C 0.3662 0.79492 0.19272 0.0
H137 H 0.36102 0.8019 0.26719 0.0
C138 C 0.3636 0.7996 0.24686 0.0
C139 C 0.34997 0.77668 0.22773 0.0
C140 C 0.35132 0.77453 0.20063 0.0
C141 C 0.36482 0.79328 0.16333 0.0
H142 H 0.34054 0.75707 0.18551 0.0
C143 C 0.38873 0.79695 0.15544 0.0
C144 C 0.38691 0.79452 0.12723 0.0
C145 C 0.33911 0.78773 0.14291 0.0
H146 H 0.32046 0.78501 0.14856 0.0
C147 C 0.33722 0.78594 0.11508 0.0
H148 H 0.40856 0.80075 0.17114 0.0
C149 C 0.36088 0.78928 0.10724 0.0
H150 H 0.35877 0.78785 0.08546 0.0
H151 H 0.31732 0.78187 0.09951 0.0
C152 C 0.09124 0.55713 0.34598 0.0
C153 C 0.15458 0.61265 0.31282 0.0
O154 O 0.11502 0.57031 0.35999 0.0
Zn155 Zn 0.12337 0.58517 0.33004 0.0
O156 O 0.0819 0.55755 0.32015 0.0
Zn157 Zn 0.09448 0.57525 0.28956 0.0
O158 O 0.09487 0.54595 0.26332 0.0
O159 O 0.1273 0.55257 0.3035 0.0
O160 O 0.13204 0.60163 0.29377 0.0
O161 O 0.15817 0.60858 0.33729 0.0
O162 O 0.09471 0.60965 0.32141 0.0
O163 O 0.06703 0.59493 0.27867 0.0
C164 C 0.11543 0.53962 0.27881 0.0
C165 C 0.07426 0.61117 0.30125 0.0
C166 C 0.05672 0.52686 0.81586 0.0
C167 C 0.11087 0.5812 0.77298 0.0
O168 O 0.07953 0.53991 0.83313 0.0
Zn169 Zn 0.11444 0.56735 0.83278 0.0
O170 O 0.05075 0.529 0.79062 0.0
Zn171 Zn 0.08353 0.55382 0.79396 0.0
O172 O 0.11492 0.53199 0.8026 0.0
O173 O 0.14411 0.5501 0.84383 0.0
O174 O 0.08764 0.56601 0.7612 0.0
O175 O 0.12242 0.58325 0.79901 0.0
O176 O 0.11394 0.59735 0.85764 0.0
O177 O 0.07917 0.58757 0.81895 0.0
C178 C 0.13682 0.53266 0.82219 0.0
C179 C 0.09208 0.60212 0.84268 0.0
C180 C 0.32143 0.99374 0.49941 0.0
C181 C 0.30579 0.0522 0.4351 0.0
O182 O 0.29908 0.99535 0.48239 0.0
Zn183 Zn 0.31378 0.0233 0.46756 0.0
O184 O 0.34378 0.00922 0.50115 0.0
Zn185 Zn 0.35592 0.04028 0.48141 0.0
O186 O 0.37105 0.06938 0.51147 0.0
O187 O 0.32644 0.05584 0.50174 0.0
O188 O 0.33111 0.05617 0.44951 0.0
O189 O 0.2884 0.03462 0.43893 0.0
O190 O 0.33785 0.0062 0.44523 0.0
O191 O 0.38065 0.02797 0.4637 0.0
C192 C 0.34892 0.07166 0.51632 0.0
C193 C 0.36297 0.00994 0.44575 0.0
C194 C 0.6758 0.76561 0.0426 0.0
C195 C 0.61321 0.74838 0.9486 0.0
O196 O 0.66463 0.74391 0.02654 0.0
Zn197 Zn 0.64514 0.7569 0.99544 0.0
O198 O 0.67142 0.78632 0.03403 0.0
Zn199 Zn 0.64835 0.79687 0.99683 0.0
O200 O 0.62385 0.81461 0.01006 0.0
O201 O 0.61621 0.77319 0.01129 0.0
O202 O 0.62153 0.77257 0.95882 0.0
O203 O 0.62194 0.7323 0.96291 0.0
O204 O 0.67796 0.77557 0.98242 0.0
O205 O 0.67653 0.8166 0.98559 0.0
C206 C 0.61034 0.79529 0.01586 0.0
C207 C 0.68776 0.79832 0.97975 0.0
C208 C 0.93554 0.0758 0.70418 0.0
C209 C 0.91464 0.13318 0.63917 0.0
O210 O 0.90983 0.07149 0.69113 0.0
Zn211 Zn 0.88323 0.08633 0.6595 0.0
O212 O 0.95202 0.093 0.69862 0.0
Zn213 Zn 0.92502 0.10382 0.67098 0.0
O214 O 0.90201 0.12062 0.69508 0.0
O215 O 0.85934 0.09811 0.6784 0.0
O216 O 0.93777 0.13187 0.65497 0.0
O217 O 0.89299 0.11743 0.63882 0.0
O218 O 0.86734 0.05701 0.63002 0.0
O219 O 0.91143 0.07108 0.63705 0.0
C220 C 0.87724 0.1164 0.69576 0.0
C221 C 0.88879 0.05497 0.62366 0.0
C222 C 0.59498 0.34695 0.15701 0.0
C223 C 0.53368 0.33626 0.06288 0.0
O224 O 0.58609 0.32326 0.14479 0.0
Zn225 Zn 0.55899 0.30142 0.10551 0.0
O226 O 0.58677 0.36437 0.14455 0.0
Zn227 Zn 0.5637 0.34187 0.11025 0.0
O228 O 0.53 0.32239 0.12148 0.0
O229 O 0.53025 0.28102 0.11523 0.0
O230 O 0.54575 0.35712 0.08019 0.0
O231 O 0.53692 0.31469 0.06986 0.0
O232 O 0.58321 0.28404 0.09148 0.0
O233 O 0.59306 0.32617 0.0947 0.0
C234 C 0.51952 0.29925 0.1224 0.0
C235 C 0.59826 0.30402 0.08853 0.0
H236 H 0.2048 0.33141 0.24305 0.0
H237 H 0.1772 0.36161 0.22484 0.0
H238 H 0.23791 0.42491 0.28218 0.0
H239 H 0.26567 0.39507 0.29986 0.0
H240 H 0.15541 0.39125 0.25615 0.0
H241 H 0.2202 0.4547 0.21285 0.0
H242 H 0.22634 0.42362 0.21915 0.0
H243 H 0.23949 0.45157 0.2467 0.0
C244 C 0.21257 0.35186 0.25114 0.0
C245 C 0.2373 0.36092 0.27296 0.0
C246 C 0.19677 0.36905 0.2408 0.0
C247 C 0.20567 0.39555 0.25186 0.0
C248 C 0.23091 0.40464 0.27283 0.0
H249 H 0.16363 0.52738 0.30367 0.0
H250 H 0.18124 0.49065 0.28889 0.0
C251 C 0.24661 0.38753 0.28319 0.0
C252 C 0.18737 0.41352 0.24452 0.0
H253 H 0.18903 0.47458 0.23246 0.0
C254 C 0.16226 0.40911 0.25002 0.0
C255 C 0.19622 0.43674 0.23634 0.0
C256 C 0.22192 0.44178 0.22814 0.0
C257 C 0.14718 0.42837 0.25025 0.0
C258 C 0.15749 0.45247 0.24473 0.0
C259 C 0.18131 0.45608 0.23688 0.0
C260 C 0.14672 0.47527 0.25187 0.0
C261 C 0.12157 0.42369 0.25868 0.0
C262 C 0.1215 0.47883 0.23572 0.0
C263 C 0.11129 0.5 0.24411 0.0
C264 C 0.12613 0.51766 0.26886 0.0
C265 C 0.15156 0.51408 0.28462 0.0
C266 C 0.16176 0.49317 0.27615 0.0
H267 H 0.11651 0.40394 0.26273 0.0
H268 H 0.12417 0.43781 0.27765 0.0
H269 H 0.10403 0.42653 0.24206 0.0
H270 H 0.10967 0.46516 0.21687 0.0
H271 H 0.09166 0.50228 0.23152 0.0
H272 H 0.27746 0.71967 0.6723 0.0
H273 H 0.23282 0.69197 0.66656 0.0
H274 H 0.26887 0.66313 0.73958 0.0
H275 H 0.31298 0.6908 0.74582 0.0
H276 H 0.23078 0.62463 0.69401 0.0
H277 H 0.18996 0.71064 0.72111 0.0
H278 H 0.20384 0.70905 0.69272 0.0
H279 H 0.22614 0.71272 0.72737 0.0
C280 C 0.27588 0.70725 0.68698 0.0
C281 C 0.29887 0.7075 0.70953 0.0
C282 C 0.25041 0.69142 0.68362 0.0
C283 C 0.24757 0.67567 0.70276 0.0
C284 C 0.27068 0.67503 0.72446 0.0
H285 H 0.15441 0.62175 0.79372 0.0
H286 H 0.18168 0.64376 0.76881 0.0
C287 C 0.296 0.69081 0.72789 0.0
C288 C 0.22047 0.66136 0.70219 0.0
H289 H 0.16528 0.67046 0.72246 0.0
C290 C 0.21596 0.63449 0.6994 0.0
C291 C 0.20132 0.6744 0.70936 0.0
C292 C 0.20541 0.7033 0.71297 0.0
C293 C 0.19384 0.6205 0.70558 0.0
C294 C 0.17581 0.63381 0.71461 0.0
C295 C 0.17914 0.66039 0.71538 0.0
C296 C 0.15708 0.62156 0.72841 0.0
C297 C 0.1912 0.59197 0.70465 0.0
C298 C 0.13382 0.60207 0.71381 0.0
C299 C 0.118 0.58938 0.72808 0.0
C300 C 0.12543 0.59594 0.75711 0.0
C301 C 0.14822 0.61607 0.7714 0.0
C302 C 0.16379 0.62877 0.75719 0.0
H303 H 0.20787 0.5848 0.69863 0.0
H304 H 0.19152 0.5875 0.72522 0.0
H305 H 0.17129 0.58135 0.68949 0.0
H306 H 0.12825 0.59639 0.69154 0.0
H307 H 0.10054 0.57396 0.71652 0.0
H308 H 0.93746 0.78866 0.32987 0.0
H309 H 0.97275 0.76514 0.32506 0.0
H310 H 0.93727 0.7049 0.36039 0.0
H311 H 0.90289 0.72905 0.36645 0.0
H312 H 0.99082 0.71189 0.37717 0.0
H313 H 0.95567 0.70498 0.26345 0.0
H314 H 0.96768 0.7376 0.2821 0.0
H315 H 0.93768 0.71782 0.28549 0.0
C316 C 0.93768 0.77066 0.33712 0.0
C317 C 0.91758 0.76056 0.34848 0.0
C318 C 0.95757 0.7571 0.33407 0.0
C319 C 0.95712 0.73286 0.34153 0.0
C320 C 0.93791 0.72347 0.35429 0.0
H321 H 0.0208 0.60981 0.27382 0.0
H322 H 0.99348 0.64032 0.28413 0.0
C323 C 0.91836 0.73728 0.35786 0.0
C324 C 0.97574 0.71669 0.335 0.0
H325 H 0.99497 0.68875 0.28182 0.0
C326 C 0.99174 0.70683 0.35633 0.0
C327 C 0.97651 0.70966 0.30766 0.0
C328 C 0.95826 0.71783 0.28332 0.0
C329 C 0.00842 0.69009 0.35112 0.0
C330 C 0.00995 0.68383 0.32397 0.0
C331 C 0.99403 0.69378 0.30267 0.0
C332 C 0.02701 0.66612 0.31693 0.0
C333 C 0.02332 0.67856 0.3746 0.0
C334 C 0.05509 0.67081 0.33135 0.0
C335 C 0.07058 0.65317 0.32583 0.0
C336 C 0.05845 0.63087 0.30522 0.0
C337 C 0.03069 0.62687 0.28977 0.0
C338 C 0.01507 0.64427 0.29569 0.0
H339 H 0.01361 0.67903 0.39128 0.0
H340 H 0.02383 0.6583 0.36728 0.0
H341 H 0.0447 0.6899 0.38377 0.0
H342 H 0.065 0.68797 0.34713 0.0
H343 H 0.09205 0.65691 0.33782 0.0
H344 H 0.87018 0.36687 0.8641 0.0
H345 H 0.89877 0.39881 0.84853 0.0
H346 H 0.96051 0.41534 0.92851 0.0
H347 H 0.93246 0.38275 0.94395 0.0
H348 H 0.92167 0.45138 0.86815 0.0
H349 H 0.00182 0.39429 0.87513 0.0
H350 H 0.96835 0.38119 0.87712 0.0
H351 H 0.994 0.40195 0.90676 0.0
C352 C 0.88984 0.37733 0.87839 0.0
C353 C 0.89922 0.37204 0.90514 0.0
C354 C 0.90606 0.39566 0.86951 0.0
C355 C 0.93196 0.40903 0.88718 0.0
C356 C 0.94079 0.40483 0.91438 0.0
H357 H 0.065 0.51689 0.86791 0.0
H358 H 0.03374 0.48899 0.88464 0.0
C359 C 0.9246 0.38643 0.92327 0.0
C360 C 0.9501 0.42657 0.87672 0.0
H361 H 0.01154 0.4355 0.86413 0.0
C362 C 0.94131 0.44793 0.86721 0.0
C363 C 0.97559 0.42184 0.87532 0.0
C364 C 0.98546 0.39846 0.88387 0.0
C365 C 0.95764 0.46502 0.85685 0.0
C366 C 0.98319 0.46037 0.85569 0.0
C367 C 0.99193 0.43899 0.86511 0.0
C368 C 1.00155 0.47771 0.84529 0.0
C369 C 0.94772 0.48818 0.84776 0.0
C370 C 0.99385 0.48039 0.8175 0.0
C371 C 0.01174 0.49632 0.80777 0.0
C372 C 0.03762 0.50976 0.82572 0.0
C373 C 0.04521 0.50688 0.85352 0.0
C374 C 0.02739 0.49094 0.86316 0.0
H375 H 0.93061 0.49198 0.85546 0.0
H376 H 0.96465 0.50561 0.85518 0.0
H377 H 0.9403 0.48475 0.82481 0.0
H378 H 0.97415 0.46995 0.80328 0.0
H379 H 0.00531 0.49807 0.78625 0.0
H380 H 0.23067 0.21064 0.272 0.0
H381 H 0.2267 0.17407 0.29555 0.0
H382 H 0.30909 0.16852 0.29937 0.0
H383 H 0.31343 0.20514 0.27633 0.0
H384 H 0.26923 0.11932 0.28675 0.0
H385 H 0.27137 0.18762 0.37973 0.0
H386 H 0.2456 0.18699 0.34769 0.0
H387 H 0.28106 0.19851 0.35142 0.0
C388 C 0.24781 0.2014 0.27756 0.0
C389 C 0.27245 0.21093 0.2725 0.0
C390 C 0.24547 0.18052 0.29092 0.0
C391 C 0.26772 0.16888 0.29943 0.0
C392 C 0.29167 0.17725 0.29287 0.0
H393 H 0.33699 0.09438 0.42637 0.0
H394 H 0.32342 0.12054 0.39169 0.0
C395 C 0.29406 0.19813 0.27957 0.0
C396 C 0.26736 0.14978 0.31758 0.0
H397 H 0.27257 0.145 0.38442 0.0
C398 C 0.26945 0.12472 0.30796 0.0
C399 C 0.26795 0.1571 0.34531 0.0
C400 C 0.26656 0.18404 0.35687 0.0
C401 C 0.27285 0.10694 0.32567 0.0
C402 C 0.27425 0.11456 0.35354 0.0
C403 C 0.27129 0.13931 0.36292 0.0
C404 C 0.28185 0.0982 0.37407 0.0
C405 C 0.27627 0.08056 0.31499 0.0
C406 C 0.26279 0.0771 0.37562 0.0
C407 C 0.27042 0.06211 0.39558 0.0
C408 C 0.29726 0.06802 0.41413 0.0
C409 C 0.31619 0.08924 0.41239 0.0
C410 C 0.30851 0.10423 0.39261 0.0
H411 H 0.27564 0.07792 0.29297 0.0
H412 H 0.2961 0.07735 0.32765 0.0
H413 H 0.25973 0.06568 0.317 0.0
H414 H 0.24206 0.07232 0.36149 0.0
H415 H 0.25538 0.04587 0.39638 0.0
H416 H 0.39887 0.69951 0.72641 0.0
H417 H 0.44064 0.68959 0.7559 0.0
H418 H 0.44861 0.75506 0.81859 0.0
H419 H 0.40726 0.76496 0.78961 0.0
H420 H 0.49653 0.72736 0.78164 0.0
H421 H 0.44977 0.68954 0.85686 0.0
H422 H 0.42999 0.68979 0.82178 0.0
H423 H 0.44061 0.71872 0.84778 0.0
C424 C 0.40961 0.7117 0.7465 0.0
C425 C 0.39999 0.73312 0.75565 0.0
C426 C 0.43338 0.70606 0.76323 0.0
C427 C 0.44744 0.7215 0.78943 0.0
C428 C 0.43787 0.74283 0.79849 0.0
H429 H 0.59552 0.77763 0.91072 0.0
H430 H 0.55727 0.76455 0.86797 0.0
C431 C 0.4144 0.74859 0.78181 0.0
C432 C 0.47247 0.71608 0.80766 0.0
H433 H 0.49852 0.70572 0.87303 0.0
C434 C 0.49699 0.72198 0.80135 0.0
C435 C 0.47287 0.70869 0.83312 0.0
C436 C 0.44687 0.70107 0.84027 0.0
C437 C 0.52225 0.72276 0.82093 0.0
C438 C 0.52284 0.71783 0.84746 0.0
C439 C 0.4981 0.70972 0.85278 0.0
C440 C 0.54849 0.72441 0.87109 0.0
C441 C 0.54813 0.72984 0.81344 0.0
C442 C 0.55628 0.70619 0.88718 0.0
C443 C 0.57818 0.71367 0.91185 0.0
C444 C 0.59234 0.73957 0.921 0.0
C445 C 0.58503 0.75754 0.90432 0.0
C446 C 0.56331 0.75003 0.87967 0.0
H447 H 0.54425 0.72397 0.79083 0.0
H448 H 0.55576 0.75105 0.81905 0.0
H449 H 0.56438 0.72072 0.82467 0.0
H450 H 0.5449 0.68637 0.88106 0.0
H451 H 0.58328 0.69938 0.92427 0.0
H452 H 0.86421 0.87032 0.41914 0.0
H453 H 0.87698 0.9127 0.44932 0.0
H454 H 0.87486 0.87668 0.51905 0.0
H455 H 0.86362 0.83434 0.48943 0.0
H456 H 0.8473 0.93323 0.47668 0.0
H457 H 0.945 0.92971 0.55238 0.0
H458 H 0.92966 0.90651 0.52037 0.0
H459 H 0.91864 0.90256 0.55011 0.0
C460 C 0.8672 0.87138 0.44104 0.0
C461 C 0.86286 0.84886 0.45183 0.0
C462 C 0.8743 0.89566 0.45823 0.0
C463 C 0.87726 0.89792 0.48655 0.0
C464 C 0.87336 0.87549 0.49743 0.0
H465 H 0.84592 0.01458 0.59579 0.0
H466 H 0.84484 0.97855 0.5608 0.0
C467 C 0.86648 0.85124 0.48034 0.0
C468 C 0.88211 0.92357 0.50429 0.0
H469 H 0.92078 0.96061 0.56712 0.0
C470 C 0.86364 0.93939 0.49625 0.0
C471 C 0.90371 0.93191 0.52961 0.0
C472 C 0.92554 0.91688 0.53846 0.0
C473 C 0.86534 0.96264 0.51346 0.0
C474 C 0.88559 0.96993 0.53975 0.0
C475 C 0.90495 0.95482 0.54716 0.0
C476 C 0.88618 0.99238 0.56038 0.0
C477 C 0.84531 0.97909 0.5033 0.0
C478 C 0.91005 0.01184 0.57239 0.0
C479 C 0.91086 0.03236 0.59275 0.0
C480 C 0.88781 0.03376 0.6015 0.0
C481 C 0.86394 0.01425 0.58937 0.0
C482 C 0.86322 0.9937 0.56919 0.0
H483 H 0.83792 0.97572 0.48032 0.0
H484 H 0.82724 0.97397 0.51041 0.0
H485 H 0.85464 0.99989 0.51137 0.0
H486 H 0.92807 0.0111 0.56606 0.0
H487 H 0.92958 0.04705 0.60172 0.0
H488 H 0.8316 0.29819 0.0479 0.0
H489 H 0.78924 0.2878 0.05971 0.0
H490 H 0.74847 0.32429 0.99501 0.0
H491 H 0.79069 0.33472 0.98309 0.0
H492 H 0.76328 0.32291 0.078 0.0
H493 H 0.69261 0.25748 0.98261 0.0
H494 H 0.72929 0.26503 0.98962 0.0
H495 H 0.70905 0.28704 0.97596 0.0
C496 C 0.81354 0.30382 0.03605 0.0
C497 C 0.81449 0.31731 0.01458 0.0
C498 C 0.78933 0.29775 0.04273 0.0
C499 C 0.7656 0.30495 0.028 0.0
C500 C 0.76633 0.31795 0.00619 0.0
H501 H 0.6342 0.34338 0.08091 0.0
H502 H 0.67459 0.34105 0.06657 0.0
C503 C 0.79051 0.32396 0.99944 0.0
C504 C 0.74088 0.30104 0.03705 0.0
H505 H 0.67181 0.27658 0.01417 0.0
C506 C 0.74335 0.31248 0.06414 0.0
C507 C 0.71494 0.28718 0.01907 0.0
C508 C 0.7113 0.27325 0.99028 0.0
C509 C 0.72041 0.31139 0.07337 0.0
C510 C 0.69426 0.29887 0.05488 0.0
C511 C 0.69188 0.28642 0.02818 0.0
C512 C 0.66909 0.29974 0.06255 0.0
C513 C 0.72432 0.3239 0.10278 0.0
C514 C 0.65217 0.27713 0.06424 0.0
C515 C 0.62889 0.27835 0.07241 0.0
C516 C 0.62214 0.30221 0.07879 0.0
C517 C 0.63885 0.32469 0.07635 0.0
C518 C 0.66204 0.32345 0.06826 0.0
H519 H 0.74574 0.32625 0.11623 0.0
H520 H 0.71966 0.34331 0.10302 0.0
H521 H 0.71032 0.31244 0.11169 0.0
H522 H 0.65723 0.25863 0.05972 0.0
H523 H 0.61639 0.26068 0.07399 0.0
H524 H 0.30268 0.8211 0.65422 0.0
H525 H 0.2958 0.84253 0.61412 0.0
H526 H 0.37077 0.89892 0.65668 0.0
H527 H 0.3777 0.87778 0.69663 0.0
H528 H 0.29465 0.89922 0.61896 0.0
H529 H 0.37477 0.87089 0.57683 0.0
H530 H 0.3597 0.85244 0.59786 0.0
H531 H 0.38517 0.88164 0.61375 0.0
C532 C 0.31779 0.8379 0.6548 0.0
C533 C 0.34063 0.84791 0.67851 0.0
C534 C 0.31382 0.85011 0.632 0.0
C535 C 0.33291 0.87212 0.63247 0.0
C536 C 0.35597 0.88179 0.65588 0.0
H537 H 0.364 0.98958 0.54277 0.0
H538 H 0.36433 0.95799 0.5728 0.0
C539 C 0.35978 0.86983 0.67872 0.0
C540 C 0.32825 0.88617 0.60935 0.0
H541 H 0.35623 0.9056 0.56094 0.0
C542 C 0.30775 0.90035 0.6059 0.0
C543 C 0.34557 0.88762 0.59262 0.0
C544 C 0.36744 0.8722 0.59519 0.0
C545 C 0.30497 0.91706 0.58698 0.0
C546 C 0.32279 0.91906 0.57068 0.0
C547 C 0.34264 0.90409 0.57349 0.0
C548 C 0.32232 0.93771 0.55185 0.0
C549 C 0.28395 0.93338 0.58571 0.0
C550 C 0.29868 0.93661 0.52988 0.0
C551 C 0.29833 0.95483 0.51283 0.0
C552 C 0.32176 0.97426 0.51722 0.0
C553 C 0.34559 0.97492 0.53885 0.0
C554 C 0.34584 0.95684 0.55601 0.0
H555 H 0.27666 0.93409 0.60409 0.0
H556 H 0.29244 0.95337 0.58427 0.0
H557 H 0.26598 0.92505 0.56705 0.0
H558 H 0.28051 0.92165 0.52589 0.0
H559 H 0.27974 0.95363 0.49615 0.0
H560 H 0.8368 0.74329 0.27344 0.0
H561 H 0.80599 0.74165 0.22713 0.0
H562 H 0.79387 0.81714 0.25379 0.0
H563 H 0.82496 0.81904 0.30034 0.0
H564 H 0.74813 0.74919 0.21394 0.0
H565 H 0.81954 0.81928 0.18213 0.0
H566 H 0.83145 0.80219 0.20956 0.0
H567 H 0.81513 0.82825 0.21542 0.0
C568 C 0.82777 0.75965 0.26939 0.0
C569 C 0.83346 0.78142 0.29038 0.0
C570 C 0.81007 0.7586 0.24302 0.0
C571 C 0.79793 0.77935 0.23712 0.0
C572 C 0.80331 0.80105 0.25801 0.0
H573 H 0.69645 0.80821 0.08378 0.0
H574 H 0.72502 0.81115 0.13125 0.0
C575 C 0.8209 0.80205 0.28453 0.0
C576 C 0.77953 0.77807 0.20901 0.0
H577 H 0.77569 0.8019 0.1501 0.0
C578 C 0.75404 0.76071 0.19993 0.0
C579 C 0.78745 0.79321 0.19099 0.0
C580 C 0.81493 0.81173 0.19979 0.0
C581 C 0.736 0.75822 0.17317 0.0
C582 C 0.7441 0.77302 0.15488 0.0
C583 C 0.76957 0.79053 0.16413 0.0
C584 C 0.72641 0.77082 0.12611 0.0
C585 C 0.70828 0.74017 0.16497 0.0
C586 C 0.71795 0.74719 0.10735 0.0
C587 C 0.7014 0.74537 0.08019 0.0
C588 C 0.69339 0.76727 0.07123 0.0
C589 C 0.70226 0.79097 0.08999 0.0
C590 C 0.7186 0.79271 0.11715 0.0
H591 H 0.70232 0.73613 0.18337 0.0
H592 H 0.69221 0.74821 0.15174 0.0
H593 H 0.70898 0.72158 0.15308 0.0
H594 H 0.72432 0.73019 0.11365 0.0
H595 H 0.69509 0.72689 0.06618 0.0
H596 H 0.83511 0.29633 0.84555 0.0
H597 H 0.82996 0.25728 0.81281 0.0
H598 H 0.85418 0.21753 0.88032 0.0
H599 H 0.86157 0.25728 0.91336 0.0
H600 H 0.88353 0.21124 0.84931 0.0
H601 H 0.77791 0.19091 0.77929 0.0
H602 H 0.79362 0.22363 0.78087 0.0
H603 H 0.7889 0.2136 0.81169 0.0
C604 C 0.83909 0.27922 0.85348 0.0
C605 C 0.84926 0.28013 0.88213 0.0
C606 C 0.83561 0.25667 0.83465 0.0
C607 C 0.84137 0.23424 0.84397 0.0
C608 C 0.84953 0.23455 0.87257 0.0
H609 H 0.8324 0.10535 0.71332 0.0
H610 H 0.82221 0.13078 0.75101 0.0
C611 C 0.85353 0.25729 0.89149 0.0
C612 C 0.84294 0.21208 0.82419 0.0
H613 H 0.81154 0.17699 0.75873 0.0
C614 C 0.86746 0.20336 0.82978 0.0
C615 C 0.82191 0.20127 0.79885 0.0
C616 C 0.79403 0.20769 0.79254 0.0
C617 C 0.87222 0.1855 0.81012 0.0
C618 C 0.85238 0.17688 0.78368 0.0
C619 C 0.82709 0.18413 0.77873 0.0
C620 C 0.85815 0.1615 0.76058 0.0
C621 C 0.89865 0.17632 0.81789 0.0
C622 C 0.88134 0.17062 0.75297 0.0
C623 C 0.88739 0.15603 0.73178 0.0
C624 C 0.87 0.13228 0.71728 0.0
C625 C 0.8462 0.12359 0.72415 0.0
C626 C 0.84037 0.13806 0.74569 0.0
H627 H 0.9063 0.17688 0.84052 0.0
H628 H 0.89613 0.15638 0.80683 0.0
H629 H 0.91453 0.18928 0.81251 0.0
H630 H 0.89485 0.18907 0.76348 0.0
H631 H 0.90567 0.1634 0.72671 0.0
H632 H 0.29849 0.23419 0.19018 0.0
H633 H 0.33391 0.23853 0.16715 0.0
H634 H 0.37979 0.30682 0.22775 0.0
H635 H 0.34485 0.30247 0.25107 0.0
H636 H 0.35756 0.28322 0.14611 0.0
H637 H 0.43196 0.25464 0.2315 0.0
H638 H 0.39559 0.24799 0.22649 0.0
H639 H 0.41611 0.27979 0.24196 0.0
C640 C 0.31605 0.25022 0.19845 0.0
C641 C 0.3189 0.26797 0.22245 0.0
C642 C 0.33617 0.25271 0.18525 0.0
C643 C 0.35954 0.2728 0.19601 0.0
C644 C 0.36197 0.29105 0.21933 0.0
H645 H 0.48931 0.33331 0.13452 0.0
H646 H 0.44924 0.32506 0.15031 0.0
C647 C 0.34185 0.28867 0.23244 0.0
C648 C 0.38196 0.27427 0.18358 0.0
H649 H 0.44898 0.27055 0.19731 0.0
C650 C 0.37752 0.28031 0.15717 0.0
C651 C 0.40779 0.27009 0.19798 0.0
C652 C 0.41323 0.26255 0.22597 0.0
C653 C 0.39863 0.28313 0.14511 0.0
C654 C 0.42479 0.27997 0.16001 0.0
C655 C 0.42893 0.2731 0.18603 0.0
C656 C 0.44844 0.28456 0.14941 0.0
C657 C 0.39283 0.28946 0.11657 0.0
C658 C 0.46156 0.2646 0.14415 0.0
C659 C 0.48456 0.26924 0.13517 0.0
C660 C 0.495 0.29403 0.1316 0.0
C661 C 0.48181 0.31398 0.13701 0.0
C662 C 0.45877 0.30928 0.14585 0.0
H663 H 0.37052 0.28476 0.10523 0.0
H664 H 0.40062 0.31039 0.11842 0.0
H665 H 0.40332 0.27885 0.10419 0.0
H666 H 0.45398 0.24543 0.14701 0.0
H667 H 0.49428 0.25348 0.13124 0.0
H668 H 0.03471 0.81022 0.94727 0.0
H669 H 0.05316 0.77288 0.935 0.0
H670 H 0.97676 0.73853 0.87078 0.0
H671 H 0.95828 0.77593 0.88264 0.0
H672 H 0.03057 0.71797 0.93188 0.0
H673 H 0.03738 0.7417 0.83158 0.0
H674 H 0.03444 0.7651 0.85875 0.0
H675 H 0.00488 0.74116 0.83736 0.0
C676 C 0.02187 0.79473 0.93049 0.0
C677 C 0.9951 0.79607 0.9158 0.0
C678 C 0.03238 0.77339 0.92363 0.0
C679 C 0.01641 0.75316 0.9018 0.0
C680 C 0.98949 0.75413 0.8875 0.0
H681 H 0.04351 0.61439 0.81798 0.0
H682 H 0.02559 0.6507 0.83369 0.0
C683 C 0.9789 0.77539 0.89444 0.0
C684 C 0.02804 0.73119 0.8937 0.0
H685 H 0.04718 0.70196 0.84119 0.0
C686 C 0.03432 0.71445 0.91212 0.0
C687 C 0.03287 0.72677 0.86791 0.0
C688 C 0.02728 0.7447 0.84777 0.0
C689 C 0.04474 0.69293 0.90511 0.0
C690 C 0.04956 0.68847 0.87927 0.0
C691 C 0.04344 0.70539 0.86098 0.0
C692 C 0.06045 0.66613 0.87045 0.0
C693 C 0.04974 0.6748 0.9251 0.0
C694 C 0.08614 0.66282 0.88581 0.0
C695 C 0.09642 0.64194 0.87695 0.0
C696 C 0.08132 0.62417 0.85239 0.0
C697 C 0.0557 0.6277 0.83698 0.0
C698 C 0.0454 0.64846 0.84592 0.0
H699 H 0.03826 0.67702 0.9402 0.0
H700 H 0.04372 0.65446 0.91397 0.0
H701 H 0.07188 0.67908 0.93691 0.0
H702 H 0.09839 0.67656 0.90446 0.0
H703 H 0.11629 0.63988 0.8892 0.0
H704 H 0.93223 0.40167 0.44028 0.0
H705 H 0.9722 0.43483 0.44308 0.0
H706 H 0.92906 0.44966 0.36382 0.0
H707 H 0.88959 0.4165 0.36053 0.0
H708 H 0.00232 0.43583 0.40486 0.0
H709 H 0.95809 0.52194 0.41259 0.0
H710 H 0.94324 0.49188 0.42008 0.0
H711 H 0.93623 0.4965 0.38488 0.0
C712 C 0.93125 0.4121 0.42352 0.0
C713 C 0.90753 0.40661 0.40034 0.0
C714 C 0.95404 0.43109 0.42522 0.0
C715 C 0.95335 0.44505 0.40392 0.0
C716 C 0.92974 0.43963 0.38086 0.0
H717 H 0.03835 0.53118 0.32184 0.0
H718 H 0.0088 0.50591 0.34233 0.0
C719 C 0.90711 0.42066 0.37907 0.0
C720 C 0.97768 0.46418 0.40445 0.0
H721 H 0.99616 0.5252 0.39412 0.0
C722 C 1.00137 0.4556 0.40329 0.0
C723 C 0.97641 0.48998 0.40259 0.0
C724 C 0.95222 0.50071 0.40539 0.0
C725 C 0.02287 0.47158 0.39799 0.0
C726 C 0.02056 0.4967 0.39397 0.0
C727 C 0.99777 0.50585 0.3971 0.0
C728 C 0.03932 0.51229 0.38248 0.0
C729 C 0.04701 0.461 0.39475 0.0
C730 C 0.06637 0.52432 0.39838 0.0
C731 C 0.0835 0.53898 0.38669 0.0
C732 C 0.07377 0.54167 0.35893 0.0
C733 C 0.04663 0.5295 0.34323 0.0
C734 C 0.02962 0.51507 0.35491 0.0
H735 H 0.04512 0.44064 0.39732 0.0
H736 H 0.04901 0.46226 0.37398 0.0
H737 H 0.06609 0.47275 0.41039 0.0
H738 H 0.07413 0.52247 0.41978 0.0
H739 H 0.10428 0.54814 0.39933 0.0
H740 H 0.32189 0.40347 0.82006 0.0
H741 H 0.29068 0.4306 0.82775 0.0
H742 H 0.22807 0.38659 0.75384 0.0
H743 H 0.25891 0.35861 0.74655 0.0
H744 H 0.26646 0.46107 0.79396 0.0
H745 H 0.18743 0.38743 0.81105 0.0
H746 H 0.22079 0.38207 0.81162 0.0
H747 H 0.19467 0.37921 0.77919 0.0
C748 C 0.30132 0.39922 0.80568 0.0
C749 C 0.29279 0.37864 0.78285 0.0
C750 C 0.28358 0.4149 0.81 0.0
C751 C 0.25692 0.41038 0.79163 0.0
C752 C 0.24837 0.39009 0.76861 0.0
H753 H 0.12547 0.49178 0.77971 0.0
H754 H 0.15463 0.46204 0.77283 0.0
C755 C 0.26613 0.3743 0.76429 0.0
C756 C 0.23853 0.42756 0.79623 0.0
H757 H 0.17735 0.42855 0.80785 0.0
C758 C 0.24703 0.45398 0.79711 0.0
C759 C 0.21317 0.41824 0.80031 0.0
C760 C 0.20351 0.39023 0.80077 0.0
C761 C 0.23073 0.47132 0.80163 0.0
C762 C 0.20542 0.46201 0.80575 0.0
C763 C 0.19681 0.43559 0.80474 0.0
C764 C 0.18744 0.47944 0.81075 0.0
C765 C 0.24046 0.49939 0.80144 0.0
C766 C 0.19605 0.49875 0.83465 0.0
C767 C 0.17942 0.5158 0.83871 0.0
C768 C 0.15386 0.51378 0.81891 0.0
C769 C 0.14507 0.49396 0.79532 0.0
C770 C 0.16167 0.47691 0.79135 0.0
H771 H 0.25712 0.50241 0.79192 0.0
H772 H 0.22331 0.50738 0.78999 0.0
H773 H 0.24846 0.51039 0.82305 0.0
H774 H 0.21572 0.50074 0.85008 0.0
H775 H 0.18676 0.53076 0.85714 0.0
H776 H 0.36196 0.75861 0.27613 0.0
H777 H 0.33139 0.72833 0.29153 0.0
H778 H 0.26822 0.71812 0.21337 0.0
H779 H 0.29849 0.74859 0.19792 0.0
H780 H 0.28038 0.73535 0.29607 0.0
H781 H 0.26913 0.6439 0.22491 0.0
H782 H 0.2966 0.67154 0.23061 0.0
H783 H 0.26297 0.67038 0.2079 0.0
C784 C 0.34162 0.74976 0.26213 0.0
C785 C 0.33265 0.75604 0.2358 0.0
C786 C 0.32424 0.73242 0.27094 0.0
C787 C 0.29766 0.72083 0.2535 0.0
C788 C 0.28886 0.72648 0.22694 0.0
H789 H 0.15137 0.62746 0.26348 0.0
H790 H 0.18729 0.65379 0.25097 0.0
C791 C 0.30621 0.74387 0.21812 0.0
C792 C 0.27844 0.70432 0.26381 0.0
H793 H 0.23767 0.64428 0.25068 0.0
C794 C 0.27123 0.71535 0.28637 0.0
C795 C 0.26654 0.67829 0.25103 0.0
C796 C 0.27435 0.6652 0.22742 0.0
C797 C 0.25167 0.70129 0.29591 0.0
C798 C 0.23944 0.67535 0.28286 0.0
C799 C 0.24706 0.66418 0.26063 0.0
C800 C 0.2178 0.65976 0.2911 0.0
C801 C 0.24353 0.71461 0.31917 0.0
C802 C 0.22305 0.65432 0.31787 0.0
C803 C 0.20244 0.63934 0.3252 0.0
C804 C 0.17631 0.62935 0.30577 0.0
C805 C 0.17123 0.63484 0.27898 0.0
C806 C 0.19176 0.64985 0.27174 0.0
H807 H 0.24991 0.7359 0.32241 0.0
H808 H 0.22102 0.70926 0.31502 0.0
H809 H 0.25358 0.70857 0.33866 0.0
H810 H 0.24317 0.66139 0.33298 0.0
H811 H 0.20708 0.63531 0.34593 0.0
H812 H 0.05171 0.96062 0.89611 0.0
H813 H 0.0395 0.98711 0.86139 0.0
H814 H 0.95476 0.96602 0.85749 0.0
H815 H 0.96694 0.94047 0.89317 0.0
H816 H 0.00567 0.97218 0.80847 0.0
H817 H 0.96668 0.04344 0.86664 0.0
H818 H 0.98603 0.02188 0.88308 0.0
H819 H 0.95004 0.01081 0.86462 0.0
C820 C 0.03054 0.96202 0.88832 0.0
C821 C 0.01034 0.94853 0.89762 0.0
C822 C 0.02358 0.97701 0.86828 0.0
C823 C 0.9963 0.97887 0.85715 0.0
C824 C 0.97604 0.96533 0.86623 0.0
H825 H 0.90496 0.04171 0.72449 0.0
H826 H 0.92119 0.01861 0.76154 0.0
C827 C 0.983 0.95044 0.88638 0.0
C828 C 0.98888 0.99413 0.83525 0.0
H829 H 0.95678 0.04269 0.81816 0.0
C830 C 0.99522 0.98777 0.81069 0.0
C831 C 0.97532 0.01451 0.83822 0.0
C832 C 0.96936 0.02326 0.86467 0.0
C833 C 0.98764 1.00074 0.78871 0.0
C834 C 0.97353 0.02066 0.79148 0.0
C835 C 0.96751 0.02729 0.81613 0.0
C836 C 0.96412 0.03441 0.76872 0.0
C837 C 0.99407 0.99263 0.76238 0.0
C838 C 0.98297 0.05101 0.7606 0.0
C839 C 0.97377 0.06436 0.73945 0.0
C840 C 0.94557 0.06126 0.72607 0.0
C841 C 0.92681 0.04448 0.73425 0.0
C842 C 0.93602 0.0313 0.75547 0.0
H843 H 1.00087 0.97412 0.7618 0.0
H844 H 0.97585 0.99062 0.74406 0.0
H845 H 0.0107 0.00765 0.76075 0.0
H846 H 0.00475 0.05385 0.77084 0.0
H847 H 0.98874 0.07718 0.73369 0.0
H848 H 0.80918 0.40833 0.38056 0.0
H849 H 0.7652 0.41181 0.3493 0.0
H850 H 0.75255 0.3336 0.30718 0.0
H851 H 0.79666 0.33021 0.33709 0.0
H852 H 0.75164 0.39889 0.28523 0.0
H853 H 0.67968 0.34218 0.32822 0.0
H854 H 0.71413 0.3588 0.3489 0.0
H855 H 0.70847 0.32889 0.32556 0.0
C856 C 0.79707 0.39185 0.36464 0.0
C857 C 0.80655 0.36893 0.36154 0.0
C858 C 0.77188 0.39386 0.34696 0.0
C859 C 0.75561 0.37286 0.32622 0.0
C860 C 0.76467 0.34987 0.3234 0.0
H861 H 0.61945 0.31414 0.18639 0.0
H862 H 0.65669 0.3249 0.22991 0.0
C863 C 0.78988 0.34794 0.34074 0.0
C864 C 0.72994 0.37503 0.30601 0.0
H865 H 0.66145 0.34843 0.28205 0.0
C866 C 0.73175 0.3884 0.28475 0.0
C867 C 0.70422 0.36121 0.30556 0.0
C868 C 0.7013 0.34707 0.32837 0.0
C869 C 0.70867 0.3868 0.26189 0.0
C870 C 0.68305 0.37191 0.26074 0.0
C871 C 0.68106 0.35982 0.28293 0.0
C872 C 0.65899 0.36596 0.23535 0.0
C873 C 0.71234 0.39957 0.23835 0.0
C874 C 0.64742 0.38544 0.22414 0.0
C875 C 0.62614 0.37934 0.19893 0.0
C876 C 0.61591 0.35363 0.18473 0.0
C877 C 0.62684 0.33415 0.19667 0.0
C878 C 0.64814 0.34026 0.22165 0.0
H879 H 0.73428 0.40603 0.24018 0.0
H880 H 0.70186 0.38624 0.21814 0.0
H881 H 0.70314 0.41673 0.23836 0.0
H882 H 0.65507 0.40535 0.23467 0.0
H883 H 0.61802 0.39478 0.1904 0.0
H884 H 0.38056 0.29173 0.65905 0.0
H885 H 0.38089 0.2491 0.63534 0.0
H886 H 0.31053 0.21577 0.65725 0.0
H887 H 0.31 0.25847 0.68102 0.0
H888 H 0.37976 0.19805 0.65831 0.0
H889 H 0.2911 0.20012 0.56811 0.0
H890 H 0.31279 0.22927 0.59103 0.0
H891 H 0.28902 0.20883 0.60248 0.0
C892 C 0.36525 0.2753 0.65896 0.0
C893 C 0.34514 0.27844 0.67172 0.0
C894 C 0.36556 0.25098 0.64555 0.0
C895 C 0.34564 0.22942 0.64445 0.0
C896 C 0.32602 0.23227 0.65786 0.0
H897 H 0.30673 0.07888 0.53622 0.0
H898 H 0.30589 0.11528 0.56995 0.0
C899 C 0.32583 0.2566 0.67152 0.0
C900 C 0.34468 0.20426 0.62798 0.0
H901 H 0.31131 0.16448 0.5654 0.0
C902 C 0.36471 0.19053 0.63808 0.0
C903 C 0.32492 0.19456 0.60171 0.0
C904 C 0.30322 0.20888 0.58995 0.0
C905 C 0.3656 0.16731 0.62241 0.0
C906 C 0.34643 0.15804 0.59563 0.0
C907 C 0.32603 0.17157 0.58588 0.0
C908 C 0.34773 0.135 0.57684 0.0
C909 C 0.38692 0.15286 0.63485 0.0
C910 C 0.37151 0.13392 0.56944 0.0
C911 C 0.37214 0.11303 0.55034 0.0
C912 C 0.34881 0.09297 0.53787 0.0
C913 C 0.32505 0.09401 0.54542 0.0
C914 C 0.32453 0.11481 0.56471 0.0
H915 H 0.39348 0.15748 0.65783 0.0
H916 H 0.37915 0.13172 0.62792 0.0
H917 H 0.40526 0.15859 0.62833 0.0
H918 H 0.38942 0.14957 0.57787 0.0
H919 H 0.39069 0.11296 0.54482 0.0
H920 H 0.39398 0.76455 0.08354 0.0
H921 H 0.43391 0.76895 0.06733 0.0
H922 H 0.47644 0.83341 0.1343 0.0
H923 H 0.43624 0.82935 0.15059 0.0
H924 H 0.45906 0.81298 0.05105 0.0
H925 H 0.53039 0.78435 0.13906 0.0
H926 H 0.4938 0.77762 0.13259 0.0
H927 H 0.51388 0.80961 0.14778 0.0
C928 C 0.41173 0.7798 0.09478 0.0
C929 C 0.41184 0.79672 0.11829 0.0
C930 C 0.43458 0.7822 0.08553 0.0
C931 C 0.45814 0.80141 0.09967 0.0
C932 C 0.45855 0.81823 0.12331 0.0
H933 H 0.59137 0.83874 0.02792 0.0
H934 H 0.55536 0.84274 0.04929 0.0
C935 C 0.4356 0.81586 0.1326 0.0
C936 C 0.48196 0.80384 0.08912 0.0
H937 H 0.54757 0.79545 0.10339 0.0
C938 C 0.47852 0.80939 0.06256 0.0
C939 C 0.50719 0.79892 0.10415 0.0
C940 C 0.51166 0.7921 0.1324 0.0
C941 C 0.49951 0.80973 0.05039 0.0
C942 C 0.52468 0.80465 0.06534 0.0
C943 C 0.52829 0.79951 0.09208 0.0
C944 C 0.54679 0.8027 0.0528 0.0
C945 C 0.49424 0.81454 0.02126 0.0
C946 C 0.55413 0.77899 0.04806 0.0
C947 C 0.57461 0.77663 0.03591 0.0
C948 C 0.58835 0.79802 0.02837 0.0
C949 C 0.58111 0.82186 0.03334 0.0
C950 C 0.5605 0.82418 0.04548 0.0
H951 H 0.47218 0.81337 0.0108 0.0
H952 H 0.50578 0.83407 0.02183 0.0
H953 H 0.50142 0.8004 0.0087 0.0
H954 H 0.5438 0.76219 0.05357 0.0
H955 H 0.5797 0.758 0.03251 0.0
H956 H 0.91576 0.30316 0.47796 0.0
H957 H 0.92505 0.28457 0.52007 0.0
H958 H 0.85956 0.21856 0.47755 0.0
H959 H 0.85021 0.23687 0.43562 0.0
H960 H 0.86787 0.24924 0.54039 0.0
H961 H 0.95316 0.21025 0.51713 0.0
H962 H 0.94926 0.24222 0.51233 0.0
H963 H 0.92503 0.21475 0.48952 0.0
C964 C 0.90314 0.28488 0.4778 0.0
C965 C 0.88244 0.27132 0.4535 0.0
C966 C 0.9085 0.27429 0.50175 0.0
C967 C 0.89302 0.2502 0.50172 0.0
C968 C 0.87171 0.23715 0.47786 0.0
H969 H 0.86925 0.13784 0.59935 0.0
H970 H 0.86589 0.16929 0.56914 0.0
C971 C 0.86651 0.24756 0.45394 0.0
C972 C 0.8997 0.23764 0.52589 0.0
H973 H 0.93834 0.19664 0.55308 0.0
C974 C 0.88353 0.23802 0.54351 0.0
C975 C 0.92024 0.22323 0.52987 0.0
C976 C 0.93804 0.22241 0.51131 0.0
C977 C 0.88687 0.22365 0.56467 0.0
C978 C 0.90635 0.20796 0.56764 0.0
C979 C 0.92332 0.20854 0.55071 0.0
C980 C 0.90832 0.1896 0.58691 0.0
C981 C 0.8694 0.22535 0.5835 0.0
C982 C 0.93349 0.19001 0.60643 0.0
C983 C 0.93559 0.17175 0.6235 0.0
C984 C 0.91253 0.15269 0.62132 0.0
C985 C 0.88736 0.15236 0.60174 0.0
C986 C 0.88534 0.1705 0.5846 0.0
H987 H 0.86294 0.24402 0.5849 0.0
H988 H 0.8506 0.20979 0.57499 0.0
H989 H 0.88045 0.22314 0.60468 0.0
H990 H 0.95155 0.20442 0.6084 0.0
H991 H 0.95528 0.17256 0.63836 0.0
H992 H 0.33795 0.32123 0.84072 0.0
H993 H 0.3709 0.31912 0.88461 0.0
H994 H 0.43754 0.34873 0.85527 0.0
H995 H 0.40465 0.35052 0.81115 0.0
H996 H 0.44824 0.31044 0.88447 0.0
H997 H 0.41143 0.38365 0.94268 0.0
H998 H 0.38486 0.3561 0.92343 0.0
H999 H 0.40141 0.37675 0.90539 0.0
C1000 C 0.35965 0.32704 0.84357 0.0
C1001 C 0.36877 0.33622 0.82265 0.0
C1002 C 0.37842 0.32597 0.86867 0.0
C1003 C 0.40663 0.33441 0.87344 0.0
C1004 C 0.41585 0.34231 0.85206 0.0
H1005 H 0.52655 0.378 0.03844 0.0
H1006 H 0.49735 0.37792 0.99176 0.0
C1007 C 0.39706 0.34319 0.82684 0.0
C1008 C 0.42643 0.33579 0.90102 0.0
H1009 H 0.44253 0.36225 0.96949 0.0
C1010 C 0.44709 0.32184 0.90306 0.0
C1011 C 0.42525 0.35114 0.92517 0.0
C1012 C 0.40473 0.36798 0.92411 0.0
C1013 C 0.46616 0.32225 0.92873 0.0
C1014 C 0.46412 0.33658 0.95304 0.0
C1015 C 0.4439 0.35106 0.95088 0.0
C1016 C 0.48243 0.33654 0.98099 0.0
C1017 C 0.48853 0.30763 0.92948 0.0
C1018 C 0.48347 0.31338 0.99055 0.0
C1019 C 0.50021 0.31335 0.01708 0.0
C1020 C 0.516 0.33655 0.03479 0.0
C1021 C 0.51467 0.3598 0.02532 0.0
C1022 C 0.49802 0.35978 0.99865 0.0
H1023 H 0.49237 0.30454 0.9092 0.0
H1024 H 0.50798 0.31793 0.94564 0.0
H1025 H 0.4822 0.28843 0.93426 0.0
H1026 H 0.47105 0.29529 0.9776 0.0
H1027 H 0.50055 0.29511 0.02379 0.0
H1028 H 0.37851 0.869 0.22871 0.0
H1029 H 0.38752 0.90866 0.26236 0.0
H1030 H 0.4097 0.86739 0.3289 0.0
H1031 H 0.40306 0.82837 0.29554 0.0
H1032 H 0.35826 0.91565 0.29294 0.0
H1033 H 0.46289 0.93255 0.36427 0.0
H1034 H 0.45179 0.91018 0.33163 0.0
H1035 H 0.44606 0.90005 0.36205 0.0
C1036 C 0.38654 0.8686 0.2505 0.0
C1037 C 0.38968 0.84533 0.25937 0.0
C1038 C 0.39144 0.89131 0.26978 0.0
C1039 C 0.39935 0.8912 0.29831 0.0
C1040 C 0.40423 0.86834 0.30716 0.0
H1041 H 0.33448 0.96315 0.4144 0.0
H1042 H 0.34583 0.9372 0.37826 0.0
C1043 C 0.3999 0.84581 0.28794 0.0
C1044 C 0.39819 0.91338 0.31841 0.0
H1045 H 0.42933 0.94725 0.3845 0.0
C1046 C 0.37416 0.92293 0.31268 0.0
C1047 C 0.419 0.92345 0.34409 0.0
C1048 C 0.44647 0.91618 0.35065 0.0
C1049 C 0.36963 0.94088 0.33244 0.0
C1050 C 0.38913 0.94876 0.35914 0.0
C1051 C 0.414 0.94068 0.36429 0.0
C1052 C 0.38331 0.96416 0.38223 0.0
C1053 C 0.34376 0.95094 0.32447 0.0
C1054 C 0.40136 0.98732 0.39762 0.0
C1055 C 0.3952 0.00198 0.41884 0.0
C1056 C 0.3708 0.99376 0.42487 0.0
C1057 C 0.35322 0.97021 0.40998 0.0
C1058 C 0.35959 0.95544 0.38914 0.0
H1059 H 0.33663 0.9508 0.3019 0.0
H1060 H 0.32729 0.93829 0.32935 0.0
H1061 H 0.34678 0.97088 0.33582 0.0
H1062 H 0.41994 0.99429 0.39287 0.0
H1063 H 0.40916 0.02004 0.42999 0.0
H1064 H 0.93177 0.86725 0.96783 0.0
H1065 H 0.88649 0.86173 0.9741 0.0
H1066 H 0.85475 0.79937 0.90333 0.0
H1067 H 0.89991 0.80508 0.89654 0.0
H1068 H 0.82026 0.83647 0.90629 0.0
H1069 H 0.85383 0.79884 0.00318 0.0
H1070 H 0.87446 0.82899 0.00236 0.0
H1071 H 0.87325 0.80032 0.97915 0.0
C1072 C 0.91508 0.85258 0.95336 0.0
C1073 C 0.91946 0.83652 0.93175 0.0
C1074 C 0.88929 0.84933 0.95711 0.0
C1075 C 0.86741 0.82996 0.93937 0.0
C1076 C 0.87145 0.81436 0.91731 0.0
H1077 H 0.71734 0.76357 0.96785 0.0
H1078 H 0.75994 0.77175 0.95636 0.0
C1079 C 0.89728 0.81753 0.91359 0.0
C1080 C 0.84052 0.82551 0.9443 0.0
H1081 H 0.80893 0.80611 0.99029 0.0
C1082 C 0.81771 0.82984 0.92463 0.0
C1083 C 0.8373 0.8166 0.96812 0.0
C1084 C 0.86091 0.81068 0.98936 0.0
C1085 C 0.79174 0.82578 0.92835 0.0
C1086 C 0.78866 0.81733 0.95244 0.0
C1087 C 0.81143 0.81276 0.97194 0.0
C1088 C 0.76187 0.81244 0.95762 0.0
C1089 C 0.76772 0.83007 0.90631 0.0
C1090 C 0.74877 0.83263 0.96205 0.0
C1091 C 0.72435 0.82804 0.96869 0.0
C1092 C 0.71268 0.80317 0.97108 0.0
C1093 C 0.7257 0.78295 0.96618 0.0
C1094 C 0.75009 0.78758 0.95963 0.0
H1095 H 0.77225 0.83113 0.88655 0.0
H1096 H 0.74938 0.8144 0.90233 0.0
H1097 H 0.76267 0.8485 0.91349 0.0
H1098 H 0.75777 0.85204 0.96102 0.0
H1099 H 0.7149 0.84405 0.97243 0.0
loop_
_geom_bond_atom_site_label_1
_geom_bond_atom_site_label_2
_geom_bond_distance
_geom_bond_site_symmetry_2
_ccdc_geom_bond_type
H0 C1 0.949 . S
C1 H0 0.949 . S
C1 C2 1.395 . S
C1 C3 1.391 . S
C2 C1 1.395 . S
C2 C5 1.390 . S
C3 C1 1.391 . S
C3 C7 1.387 . S
C3 C8 1.491 . S
H4 C5 0.950 . S
C5 C2 1.390 . S
C5 H4 0.950 . S
C5 C6 1.378 . S
C6 C5 1.378 . S
C6 C7 1.409 . S
C7 C3 1.387 . S
C7 C6 1.409 . S
C7 H9 0.951 . S
C8 C3 1.491 . S
C8 C10 1.382 . S
C8 C12 1.404 . S
H9 C7 0.951 . S
C10 C8 1.382 . S
C10 C11 1.390 . S
C10 H15 0.949 . S
C11 C10 1.390 . S
C11 C16 1.399 . S
C12 C8 1.404 . S
C12 H13 0.950 . S
C12 C14 1.375 . S
H13 C12 0.950 . S
C14 C12 1.375 . S
C14 C16 1.382 . S
C14 H18 0.950 . S
H15 C10 0.949 . S
C16 C11 1.399 . S
C16 C14 1.382 . S
C16 H17 0.952 . S
H17 C16 0.952 . S
H18 C14 0.950 . S
H19 C20 0.949 . S
C20 H19 0.949 . S
C20 C21 1.395 . S
C20 C22 1.391 . S
C21 C20 1.395 . S
C21 C24 1.390 . S
C22 C20 1.391 . S
C22 C26 1.387 . S
C22 C27 1.491 . S
H23 C24 0.950 . S
C24 C21 1.390 . S
C24 H23 0.950 . S
C24 C25 1.378 . S
C25 C24 1.378 . S
C25 C26 1.409 . S
C26 C22 1.387 . S
C26 C25 1.409 . S
C26 H28 0.951 . S
C27 C22 1.491 . S
C27 C29 1.382 . S
C27 C31 1.404 . S
H28 C26 0.951 . S
C29 C27 1.382 . S
C29 C30 1.390 . S
C29 H34 0.949 . S
C30 C29 1.390 . S
C30 C35 1.399 . S
C31 C27 1.404 . S
C31 H32 0.950 . S
C31 C33 1.375 . S
H32 C31 0.950 . S
C33 C31 1.375 . S
C33 C35 1.382 . S
C33 H37 0.950 . S
H34 C29 0.949 . S
C35 C30 1.399 . S
C35 C33 1.382 . S
C35 H36 0.952 . S
H36 C35 0.952 . S
H37 C33 0.950 . S
H38 C39 0.949 . S
C39 H38 0.949 . S
C39 C40 1.395 . S
C39 C41 1.391 . S
C40 C39 1.395 . S
C40 C43 1.390 . S
C41 C39 1.391 . S
C41 C45 1.387 . S
C41 C46 1.491 . S
H42 C43 0.950 . S
C43 C40 1.390 . S
C43 H42 0.950 . S
C43 C44 1.378 . S
C44 C43 1.378 . S
C44 C45 1.409 . S
C45 C41 1.387 . S
C45 C44 1.409 . S
C45 H47 0.951 . S
C46 C41 1.491 . S
C46 C48 1.382 . S
C46 C50 1.404 . S
H47 C45 0.951 . S
C48 C46 1.382 . S
C48 C49 1.390 . S
C48 H53 0.949 . S
C49 C48 1.390 . S
C49 C54 1.399 . S
C50 C46 1.404 . S
C50 H51 0.950 . S
C50 C52 1.375 . S
H51 C50 0.950 . S
C52 C50 1.375 . S
C52 C54 1.382 . S
C52 H56 0.950 . S
H53 C48 0.949 . S
C54 C49 1.399 . S
C54 C52 1.382 . S
C54 H55 0.952 . S
H55 C54 0.952 . S
H56 C52 0.950 . S
H57 C58 0.949 . S
C58 H57 0.949 . S
C58 C59 1.395 . S
C58 C60 1.391 . S
C59 C58 1.395 . S
C59 C62 1.390 . S
C60 C58 1.391 . S
C60 C64 1.387 . S
C60 C65 1.491 . S
H61 C62 0.950 . S
C62 C59 1.390 . S
C62 H61 0.950 . S
C62 C63 1.378 . S
C63 C62 1.378 . S
C63 C64 1.409 . S
C64 C60 1.387 . S
C64 C63 1.409 . S
C64 H66 0.951 . S
C65 C60 1.491 . S
C65 C67 1.382 1_556 S
C65 C69 1.404 1_556 S
H66 C64 0.951 . S
C67 C65 1.382 1_554 S
C67 C68 1.390 . S
C67 H72 0.949 1_554 S
C68 C67 1.390 . S
C68 C73 1.399 . S
C69 C65 1.404 1_554 S
C69 H70 0.950 . S
C69 C71 1.375 . S
H70 C69 0.950 . S
C71 C69 1.375 . S
C71 C73 1.382 . S
C71 H75 0.950 . S
H72 C67 0.949 1_556 S
C73 C68 1.399 . S
C73 C71 1.382 . S
C73 H74 0.952 . S
H74 C73 0.952 . S
H75 C71 0.950 . S
H76 C77 0.949 . S
C77 H76 0.949 . S
C77 C78 1.395 . S
C77 C79 1.391 . S
C78 C77 1.395 . S
C78 C81 1.390 . S
C79 C77 1.391 . S
C79 C83 1.387 . S
C79 C84 1.491 . S
H80 C81 0.950 . S
C81 C78 1.390 . S
C81 H80 0.950 . S
C81 C82 1.378 . S
C82 C81 1.378 . S
C82 C83 1.409 . S
C83 C79 1.387 . S
C83 C82 1.409 . S
C83 H85 0.951 . S
C84 C79 1.491 . S
C84 C86 1.382 . S
C84 C88 1.404 . S
H85 C83 0.951 . S
C86 C84 1.382 . S
C86 C87 1.390 . S
C86 H91 0.949 . S
C87 C86 1.390 . S
C87 C92 1.399 . S
C88 C84 1.404 . S
C88 H89 0.950 . S
C88 C90 1.375 . S
H89 C88 0.950 . S
C90 C88 1.375 . S
C90 C92 1.382 . S
C90 H94 0.950 . S
H91 C86 0.949 . S
C92 C87 1.399 . S
C92 C90 1.382 . S
C92 H93 0.952 . S
H93 C92 0.952 . S
H94 C90 0.950 . S
H95 C96 0.949 . S
C96 H95 0.949 . S
C96 C97 1.395 . S
C96 C98 1.391 . S
C97 C96 1.395 . S
C97 C100 1.390 . S
C98 C96 1.391 . S
C98 C102 1.387 . S
C98 C103 1.491 . S
H99 C100 0.950 . S
C100 C97 1.390 . S
C100 H99 0.950 . S
C100 C101 1.378 . S
C101 C100 1.378 . S
C101 C102 1.409 . S
C102 C98 1.387 . S
C102 C101 1.409 . S
C102 H104 0.951 . S
C103 C98 1.491 . S
C103 C105 1.382 . S
C103 C107 1.404 . S
H104 C102 0.951 . S
C105 C103 1.382 . S
C105 C106 1.390 . S
C105 H110 0.949 . S
C106 C105 1.390 . S
C106 C111 1.399 . S
C107 C103 1.404 . S
C107 H108 0.950 . S
C107 C109 1.375 . S
H108 C107 0.950 . S
C109 C107 1.375 . S
C109 C111 1.382 . S
C109 H113 0.950 . S
H110 C105 0.949 . S
C111 C106 1.399 . S
C111 C109 1.382 . S
C111 H112 0.952 . S
H112 C111 0.952 . S
H113 C109 0.950 . S
H114 C115 0.949 . S
C115 H114 0.949 . S
C115 C116 1.395 . S
C115 C117 1.391 . S
C116 C115 1.395 . S
C116 C119 1.390 . S
C117 C115 1.391 . S
C117 C121 1.387 . S
C117 C122 1.491 . S
H118 C119 0.950 . S
C119 C116 1.390 . S
C119 H118 0.950 . S
C119 C120 1.378 . S
C120 C119 1.378 . S
C120 C121 1.409 . S
C121 C117 1.387 . S
C121 C120 1.409 . S
C121 H123 0.951 . S
C122 C117 1.491 . S
C122 C124 1.382 . S
C122 C126 1.404 . S
H123 C121 0.951 . S
C124 C122 1.382 . S
C124 C125 1.390 . S
C124 H129 0.949 . S
C125 C124 1.390 . S
C125 C130 1.399 . S
C126 C122 1.404 . S
C126 H127 0.950 . S
C126 C128 1.375 . S
H127 C126 0.950 . S
C128 C126 1.375 . S
C128 C130 1.382 . S
C128 H132 0.950 . S
H129 C124 0.949 . S
C130 C125 1.399 . S
C130 C128 1.382 . S
C130 H131 0.952 . S
H131 C130 0.952 . S
H132 C128 0.950 . S
H133 C134 0.949 . S
C134 H133 0.949 . S
C134 C135 1.395 . S
C134 C136 1.391 . S
C135 C134 1.395 . S
C135 C138 1.390 . S
C136 C134 1.391 . S
C136 C140 1.387 . S
C136 C141 1.491 . S
H137 C138 0.950 . S
C138 C135 1.390 . S
C138 H137 0.950 . S
C138 C139 1.378 . S
C139 C138 1.378 . S
C139 C140 1.409 . S
C140 C136 1.387 . S
C140 C139 1.409 . S
C140 H142 0.951 . S
C141 C136 1.491 . S
C141 C143 1.382 . S
C141 C145 1.404 . S
H142 C140 0.951 . S
C143 C141 1.382 . S
C143 C144 1.390 . S
C143 H148 0.949 . S
C144 C143 1.390 . S
C144 C149 1.399 . S
C145 C141 1.404 . S
C145 H146 0.950 . S
C145 C147 1.375 . S
H146 C145 0.950 . S
C147 C145 1.375 . S
C147 C149 1.382 . S
C147 H151 0.950 . S
H148 C143 0.949 . S
C149 C144 1.399 . S
C149 C147 1.382 . S
C149 H150 0.952 . S
H150 C149 0.952 . S
H151 C147 0.950 . S
C152 O154 1.247 1_655 S
C152 O156 1.258 . S
C153 O160 1.247 . S
C153 O161 1.258 . S
O154 C152 1.247 1_455 S
O154 Zn155 2.028 . S
Zn155 O154 2.028 . S
Zn155 O159 2.035 . S
Zn155 O161 2.035 . S
Zn155 O162 2.028 . S
O156 C152 1.258 . S
O156 Zn157 2.035 1_655 S
Zn157 O156 2.035 1_455 S
Zn157 O158 2.028 . S
Zn157 O160 2.028 . S
Zn157 O163 2.035 1_455 S
O158 Zn157 2.028 . S
O158 C164 1.247 . S
O159 Zn155 2.035 . S
O159 C164 1.258 . S
O160 C153 1.247 . S
O160 Zn157 2.028 . S
O161 C153 1.258 . S
O161 Zn155 2.035 . S
O162 Zn155 2.028 . S
O162 C165 1.247 . S
O163 Zn157 2.035 1_655 S
O163 C165 1.258 1_655 S
C164 O158 1.247 . S
C164 O159 1.258 . S
C165 O162 1.247 . S
C165 O163 1.258 1_455 S
C166 O168 1.247 . S
C166 O170 1.258 . S
C167 O174 1.247 . S
C167 O175 1.258 . S
O168 C166 1.247 . S
O168 Zn169 2.028 . S
Zn169 O168 2.028 . S
Zn169 O173 2.035 . S
Zn169 O175 2.035 . S
Zn169 O176 2.028 . S
O170 C166 1.258 . S
O170 Zn171 2.035 . S
Zn171 O170 2.035 . S
Zn171 O172 2.028 . S
Zn171 O174 2.028 . S
Zn171 O177 2.035 . S
O172 Zn171 2.028 . S
O172 C178 1.247 . S
O173 Zn169 2.035 . S
O173 C178 1.258 . S
O174 C167 1.247 . S
O174 Zn171 2.028 . S
O175 C167 1.258 . S
O175 Zn169 2.035 . S
O176 Zn169 2.028 . S
O176 C179 1.247 . S
O177 Zn171 2.035 . S
O177 C179 1.258 . S
C178 O172 1.247 . S
C178 O173 1.258 . S
C179 O176 1.247 . S
C179 O177 1.258 . S
C180 O182 1.247 . S
C180 O184 1.248 1_565 S
C181 O188 1.247 . S
C181 O189 1.258 . S
O182 C180 1.247 . S
O182 Zn183 2.028 1_565 S
Zn183 O182 2.028 1_545 S
Zn183 O187 2.035 . S
Zn183 O189 2.035 . S
Zn183 O190 2.028 1_545 S
O184 C180 1.248 1_545 S
O184 Zn185 2.052 . S
Zn185 O184 2.052 . S
Zn185 O186 2.028 . S
Zn185 O188 2.028 . S
Zn185 O191 2.035 . S
O186 Zn185 2.028 . S
O186 C192 1.247 . S
O187 Zn183 2.035 . S
O187 C192 1.258 . S
O188 C181 1.247 . S
O188 Zn185 2.028 . S
O189 C181 1.258 . S
O189 Zn183 2.035 . S
O190 Zn183 2.028 1_565 S
O190 C193 1.247 . S
O191 Zn185 2.035 . S
O191 C193 1.258 1_545 S
C192 O186 1.247 . S
C192 O187 1.258 . S
C193 O190 1.247 . S
C193 O191 1.258 1_565 S
C194 O196 1.247 . S
C194 O198 1.258 . S
C195 O202 1.247 . S
C195 O203 1.258 . S
O196 C194 1.247 . S
O196 Zn197 2.028 1_554 S
Zn197 O196 2.028 1_556 S
Zn197 O201 2.035 1_556 S
Zn197 O203 2.035 . S
Zn197 O204 2.028 . S
O198 C194 1.258 . S
O198 Zn199 2.035 . S
Zn199 O198 2.035 . S
Zn199 O200 2.028 . S
Zn199 O202 2.028 1_554 S
Zn199 O205 2.035 1_554 S
O200 Zn199 2.028 . S
O200 C206 1.247 . S
O201 Zn197 2.035 1_554 S
O201 C206 1.258 . S
O202 C195 1.247 . S
O202 Zn199 2.028 1_556 S
O203 C195 1.258 . S
O203 Zn197 2.035 . S
O204 Zn197 2.028 . S
O204 C207 1.247 . S
O205 Zn199 2.035 1_556 S
O205 C207 1.258 . S
C206 O200 1.247 . S
C206 O201 1.258 . S
C207 O204 1.247 . S
C207 O205 1.258 . S
C208 O210 1.247 . S
C208 O212 1.258 1_655 S
C209 O216 1.247 1_655 S
C209 O217 1.258 . S
O210 C208 1.247 . S
O210 Zn211 2.028 . S
Zn211 O210 2.028 . S
Zn211 O215 2.035 . S
Zn211 O217 2.035 . S
Zn211 O218 2.028 . S
O212 C208 1.258 1_455 S
O212 Zn213 2.035 . S
Zn213 O212 2.035 . S
Zn213 O214 2.028 . S
Zn213 O216 2.028 . S
Zn213 O219 2.035 . S
O214 Zn213 2.028 . S
O214 C220 1.247 1_455 S
O215 Zn211 2.035 . S
O215 C220 1.258 . S
O216 C209 1.247 1_455 S
O216 Zn213 2.028 . S
O217 C209 1.258 . S
O217 Zn211 2.035 . S
O218 Zn211 2.028 . S
O218 C221 1.247 . S
O219 Zn213 2.035 . S
O219 C221 1.258 1_455 S
C220 O214 1.247 1_655 S
C220 O215 1.258 . S
C221 O218 1.247 . S
C221 O219 1.258 1_655 S
C222 O224 1.247 . S
C222 O226 1.258 . S
C223 O230 1.247 . S
C223 O231 1.258 . S
O224 C222 1.247 . S
O224 Zn225 2.028 . S
Zn225 O224 2.028 . S
Zn225 O229 2.035 . S
Zn225 O231 2.035 . S
Zn225 O232 2.028 . S
O226 C222 1.258 . S
O226 Zn227 2.035 . S
Zn227 O226 2.035 . S
Zn227 O228 2.028 . S
Zn227 O230 2.028 . S
Zn227 O233 2.035 . S
O228 Zn227 2.028 . S
O228 C234 1.247 . S
O229 Zn225 2.035 . S
O229 C234 1.258 . S
O230 C223 1.247 . S
O230 Zn227 2.028 . S
O231 C223 1.258 . S
O231 Zn225 2.035 . S
O232 Zn225 2.028 . S
O232 C235 1.247 . S
O233 Zn227 2.035 . S
O233 C235 1.258 . S
C234 O228 1.247 . S
C234 O229 1.258 . S
C235 O232 1.247 . S
C235 O233 1.258 . S
H236 C244 0.929 . S
H237 C246 0.930 . S
H238 C248 0.930 . S
H239 C251 0.929 . S
H240 C254 0.930 . S
H241 C256 0.960 . S
H242 C256 0.960 . S
H243 C256 0.960 . S
C244 H236 0.929 . S
C244 C245 1.377 . S
C244 C246 1.384 . S
C245 C244 1.377 . S
C245 C251 1.390 . S
C246 H237 0.930 . S
C246 C244 1.384 . S
C246 C247 1.372 . S
C247 C246 1.372 . S
C247 C248 1.400 . S
C247 C252 1.490 . S
C248 H238 0.930 . S
C248 C247 1.400 . S
C248 C251 1.386 . S
H249 C265 0.930 . S
H250 C266 0.931 . S
C251 H239 0.929 . S
C251 C245 1.390 . S
C251 C248 1.386 . S
C252 C247 1.490 . S
C252 C254 1.395 . S
C252 C255 1.403 . S
H253 C259 0.930 . S
C254 H240 0.930 . S
C254 C252 1.395 . S
C254 C257 1.403 . S
C255 C252 1.403 . S
C255 C256 1.524 . S
C255 C259 1.400 . S
C256 H241 0.960 . S
C256 H242 0.960 . S
C256 H243 0.960 . S
C256 C255 1.524 . S
C257 C254 1.403 . S
C257 C258 1.392 . S
C257 C261 1.495 . S
C258 C257 1.392 . S
C258 C259 1.385 . S
C258 C260 1.478 . S
C259 H253 0.930 . S
C259 C255 1.400 . S
C259 C258 1.385 . S
C260 C258 1.478 . S
C260 C262 1.381 . S
C260 C266 1.383 . S
C261 C257 1.495 . S
C261 H267 0.959 . S
C261 H268 0.961 . S
C261 H269 0.960 . S
C262 C260 1.381 . S
C262 C263 1.394 . S
C262 H270 0.930 . S
C263 C262 1.394 . S
C263 C264 1.383 . S
C263 H271 0.929 . S
C264 C263 1.383 . S
C264 C265 1.377 . S
C265 H249 0.930 . S
C265 C264 1.377 . S
C265 C266 1.379 . S
C266 H250 0.931 . S
C266 C260 1.383 . S
C266 C265 1.379 . S
H267 C261 0.959 . S
H268 C261 0.961 . S
H269 C261 0.960 . S
H270 C262 0.930 . S
H271 C263 0.929 . S
H272 C280 0.929 . S
H273 C282 0.930 . S
H274 C284 0.930 . S
H275 C287 0.929 . S
H276 C290 0.930 . S
H277 C292 0.960 . S
H278 C292 0.960 . S
H279 C292 0.960 . S
C280 H272 0.929 . S
C280 C281 1.377 . S
C280 C282 1.384 . S
C281 C280 1.377 . S
C281 C287 1.390 . S
C282 H273 0.930 . S
C282 C280 1.384 . S
C282 C283 1.372 . S
C283 C282 1.372 . S
C283 C284 1.400 . S
C283 C288 1.490 . S
C284 H274 0.930 . S
C284 C283 1.400 . S
C284 C287 1.386 . S
H285 C301 0.930 . S
H286 C302 0.931 . S
C287 H275 0.929 . S
C287 C281 1.390 . S
C287 C284 1.386 . S
C288 C283 1.490 . S
C288 C290 1.395 . S
C288 C291 1.403 . S
H289 C295 0.930 . S
C290 H276 0.930 . S
C290 C288 1.395 . S
C290 C293 1.403 . S
C291 C288 1.403 . S
C291 C292 1.524 . S
C291 C295 1.400 . S
C292 H277 0.960 . S
C292 H278 0.960 . S
C292 H279 0.960 . S
C292 C291 1.524 . S
C293 C290 1.403 . S
C293 C294 1.392 . S
C293 C297 1.495 . S
C294 C293 1.392 . S
C294 C295 1.385 . S
C294 C296 1.478 . S
C295 H289 0.930 . S
C295 C291 1.400 . S
C295 C294 1.385 . S
C296 C294 1.478 . S
C296 C298 1.381 . S
C296 C302 1.383 . S
C297 C293 1.495 . S
C297 H303 0.959 . S
C297 H304 0.961 . S
C297 H305 0.960 . S
C298 C296 1.381 . S
C298 C299 1.394 . S
C298 H306 0.930 . S
C299 C298 1.394 . S
C299 C300 1.383 . S
C299 H307 0.929 . S
C300 C299 1.383 . S
C300 C301 1.377 . S
C301 H285 0.930 . S
C301 C300 1.377 . S
C301 C302 1.379 . S
C302 H286 0.931 . S
C302 C296 1.383 . S
C302 C301 1.379 . S
H303 C297 0.959 . S
H304 C297 0.961 . S
H305 C297 0.960 . S
H306 C298 0.930 . S
H307 C299 0.929 . S
H308 C316 0.929 . S
H309 C318 0.930 . S
H310 C320 0.930 . S
H311 C323 0.929 . S
H312 C326 0.930 . S
H313 C328 0.960 . S
H314 C328 0.960 . S
H315 C328 0.960 . S
C316 H308 0.929 . S
C316 C317 1.377 . S
C316 C318 1.384 . S
C317 C316 1.377 . S
C317 C323 1.390 . S
C318 H309 0.930 . S
C318 C316 1.384 . S
C318 C319 1.372 . S
C319 C318 1.372 . S
C319 C320 1.400 . S
C319 C324 1.490 . S
C320 H310 0.930 . S
C320 C319 1.400 . S
C320 C323 1.386 . S
H321 C337 0.930 . S
H322 C338 0.931 . S
C323 H311 0.929 . S
C323 C317 1.390 . S
C323 C320 1.386 . S
C324 C319 1.490 . S
C324 C326 1.395 . S
C324 C327 1.403 . S
H325 C331 0.930 . S
C326 H312 0.930 . S
C326 C324 1.395 . S
C326 C329 1.403 . S
C327 C324 1.403 . S
C327 C328 1.524 . S
C327 C331 1.400 . S
C328 H313 0.960 . S
C328 H314 0.960 . S
C328 H315 0.960 . S
C328 C327 1.524 . S
C329 C326 1.403 . S
C329 C330 1.392 . S
C329 C333 1.495 1_655 S
C330 C329 1.392 . S
C330 C331 1.385 . S
C330 C332 1.478 . S
C331 H325 0.930 . S
C331 C327 1.400 . S
C331 C330 1.385 . S
C332 C330 1.478 . S
C332 C334 1.381 1_655 S
C332 C338 1.383 . S
C333 C329 1.495 1_455 S
C333 H339 0.959 . S
C333 H340 0.961 . S
C333 H341 0.960 . S
C334 C332 1.381 1_455 S
C334 C335 1.394 . S
C334 H342 0.930 . S
C335 C334 1.394 . S
C335 C336 1.383 1_455 S
C335 H343 0.929 . S
C336 C335 1.383 1_655 S
C336 C337 1.377 . S
C337 H321 0.930 . S
C337 C336 1.377 . S
C337 C338 1.379 . S
C338 H322 0.931 . S
C338 C332 1.383 . S
C338 C337 1.379 . S
H339 C333 0.959 . S
H340 C333 0.961 . S
H341 C333 0.960 . S
H342 C334 0.930 . S
H343 C335 0.929 . S
H344 C352 0.929 . S
H345 C354 0.930 . S
H346 C356 0.930 . S
H347 C359 0.929 1_554 S
H348 C362 0.930 . S
H349 C364 0.960 . S
H350 C364 0.960 . S
H351 C364 0.960 . S
C352 H344 0.929 . S
C352 C353 1.377 . S
C352 C354 1.384 . S
C353 C352 1.377 . S
C353 C359 1.390 . S
C354 H345 0.930 . S
C354 C352 1.384 . S
C354 C355 1.372 . S
C355 C354 1.372 . S
C355 C356 1.400 . S
C355 C360 1.490 . S
C356 H346 0.930 . S
C356 C355 1.400 . S
C356 C359 1.386 . S
H357 C373 0.930 . S
H358 C374 0.931 . S
C359 H347 0.929 1_556 S
C359 C353 1.390 . S
C359 C356 1.386 . S
C360 C355 1.490 . S
C360 C362 1.395 . S
C360 C363 1.403 1_655 S
H361 C367 0.930 . S
C362 H348 0.930 . S
C362 C360 1.395 . S
C362 C365 1.403 1_655 S
C363 C360 1.403 1_455 S
C363 C364 1.524 . S
C363 C367 1.400 . S
C364 H349 0.960 . S
C364 H350 0.960 . S
C364 H351 0.960 . S
C364 C363 1.524 . S
C365 C362 1.403 1_455 S
C365 C366 1.392 . S
C365 C369 1.495 1_455 S
C366 C365 1.392 . S
C366 C367 1.385 . S
C366 C368 1.478 . S
C367 H361 0.930 . S
C367 C363 1.400 . S
C367 C366 1.385 . S
C368 C366 1.478 . S
C368 C370 1.381 . S
C368 C374 1.383 . S
C369 C365 1.495 1_655 S
C369 H375 0.959 . S
C369 H376 0.961 1_655 S
C369 H377 0.960 . S
C370 C368 1.381 . S
C370 C371 1.394 . S
C370 H378 0.930 . S
C371 C370 1.394 . S
C371 C372 1.383 . S
C371 H379 0.929 . S
C372 C371 1.383 . S
C372 C373 1.377 . S
C373 H357 0.930 . S
C373 C372 1.377 . S
C373 C374 1.379 . S
C374 H358 0.931 . S
C374 C368 1.383 . S
C374 C373 1.379 . S
H375 C369 0.959 . S
H376 C369 0.961 1_455 S
H377 C369 0.960 . S
H378 C370 0.930 . S
H379 C371 0.929 . S
H380 C388 0.929 . S
H381 C390 0.930 . S
H382 C392 0.930 . S
H383 C395 0.929 . S
H384 C398 0.930 . S
H385 C400 0.960 . S
H386 C400 0.960 . S
H387 C400 0.960 . S
C388 H380 0.929 . S
C388 C389 1.377 . S
C388 C390 1.384 . S
C389 C388 1.377 . S
C389 C395 1.390 . S
C390 H381 0.930 . S
C390 C388 1.384 . S
C390 C391 1.372 . S
C391 C390 1.372 . S
C391 C392 1.400 . S
C391 C396 1.490 . S
C392 H382 0.930 . S
C392 C391 1.400 . S
C392 C395 1.386 . S
H393 C409 0.930 . S
H394 C410 0.931 . S
C395 H383 0.929 . S
C395 C389 1.390 . S
C395 C392 1.386 . S
C396 C391 1.490 . S
C396 C398 1.395 . S
C396 C399 1.403 . S
H397 C403 0.930 . S
C398 H384 0.930 . S
C398 C396 1.395 . S
C398 C401 1.403 . S
C399 C396 1.403 . S
C399 C400 1.524 . S
C399 C403 1.400 . S
C400 H385 0.960 . S
C400 H386 0.960 . S
C400 H387 0.960 . S
C400 C399 1.524 . S
C401 C398 1.403 . S
C401 C402 1.392 . S
C401 C405 1.495 . S
C402 C401 1.392 . S
C402 C403 1.385 . S
C402 C404 1.478 . S
C403 H397 0.930 . S
C403 C399 1.400 . S
C403 C402 1.385 . S
C404 C402 1.478 . S
C404 C406 1.381 . S
C404 C410 1.383 . S
C405 C401 1.495 . S
C405 H411 0.959 . S
C405 H412 0.961 . S
C405 H413 0.960 . S
C406 C404 1.381 . S
C406 C407 1.394 . S
C406 H414 0.930 . S
C407 C406 1.394 . S
C407 C408 1.383 . S
C407 H415 0.929 . S
C408 C407 1.383 . S
C408 C409 1.377 . S
C409 H393 0.930 . S
C409 C408 1.377 . S
C409 C410 1.379 . S
C410 H394 0.931 . S
C410 C404 1.383 . S
C410 C409 1.379 . S
H411 C405 0.959 . S
H412 C405 0.961 . S
H413 C405 0.960 . S
H414 C406 0.930 . S
H415 C407 0.929 . S
H416 C424 0.929 . S
H417 C426 0.930 . S
H418 C428 0.930 . S
H419 C431 0.929 . S
H420 C434 0.930 . S
H421 C436 0.960 . S
H422 C436 0.960 . S
H423 C436 0.960 . S
C424 H416 0.929 . S
C424 C425 1.377 . S
C424 C426 1.384 . S
C425 C424 1.377 . S
C425 C431 1.390 . S
C426 H417 0.930 . S
C426 C424 1.384 . S
C426 C427 1.372 . S
C427 C426 1.372 . S
C427 C428 1.400 . S
C427 C432 1.490 . S
C428 H418 0.930 . S
C428 C427 1.400 . S
C428 C431 1.386 . S
H429 C445 0.930 . S
H430 C446 0.931 . S
C431 H419 0.929 . S
C431 C425 1.390 . S
C431 C428 1.386 . S
C432 C427 1.490 . S
C432 C434 1.395 . S
C432 C435 1.403 . S
H433 C439 0.930 . S
C434 H420 0.930 . S
C434 C432 1.395 . S
C434 C437 1.403 . S
C435 C432 1.403 . S
C435 C436 1.524 . S
C435 C439 1.400 . S
C436 H421 0.960 . S
C436 H422 0.960 . S
C436 H423 0.960 . S
C436 C435 1.524 . S
C437 C434 1.403 . S
C437 C438 1.392 . S
C437 C441 1.495 . S
C438 C437 1.392 . S
C438 C439 1.385 . S
C438 C440 1.478 . S
C439 H433 0.930 . S
C439 C435 1.400 . S
C439 C438 1.385 . S
C440 C438 1.478 . S
C440 C442 1.381 . S
C440 C446 1.383 . S
C441 C437 1.495 . S
C441 H447 0.959 . S
C441 H448 0.961 . S
C441 H449 0.960 . S
C442 C440 1.381 . S
C442 C443 1.394 . S
C442 H450 0.930 . S
C443 C442 1.394 . S
C443 C444 1.383 . S
C443 H451 0.929 . S
C444 C443 1.383 . S
C444 C445 1.377 . S
C445 H429 0.930 . S
C445 C444 1.377 . S
C445 C446 1.379 . S
C446 H430 0.931 . S
C446 C440 1.383 . S
C446 C445 1.379 . S
H447 C441 0.959 . S
H448 C441 0.961 . S
H449 C441 0.960 . S
H450 C442 0.930 . S
H451 C443 0.929 . S
H452 C460 0.929 . S
H453 C462 0.930 . S
H454 C464 0.930 . S
H455 C467 0.929 . S
H456 C470 0.930 . S
H457 C472 0.960 . S
H458 C472 0.960 . S
H459 C472 0.960 . S
C460 H452 0.929 . S
C460 C461 1.377 . S
C460 C462 1.384 . S
C461 C460 1.377 . S
C461 C467 1.390 . S
C462 H453 0.930 . S
C462 C460 1.384 . S
C462 C463 1.372 . S
C463 C462 1.372 . S
C463 C464 1.400 . S
C463 C468 1.490 . S
C464 H454 0.930 . S
C464 C463 1.400 . S
C464 C467 1.386 . S
H465 C481 0.930 . S
H466 C482 0.931 . S
C467 H455 0.929 . S
C467 C461 1.390 . S
C467 C464 1.386 . S
C468 C463 1.490 . S
C468 C470 1.395 1_565 S
C468 C471 1.403 . S
H469 C475 0.930 . S
C470 H456 0.930 . S
C470 C468 1.395 1_545 S
C470 C473 1.403 . S
C471 C468 1.403 . S
C471 C472 1.524 . S
C471 C475 1.400 1_565 S
C472 H457 0.960 . S
C472 H458 0.960 . S
C472 H459 0.960 . S
C472 C471 1.524 . S
C473 C470 1.403 . S
C473 C474 1.392 . S
C473 C477 1.495 . S
C474 C473 1.392 . S
C474 C475 1.385 . S
C474 C476 1.478 . S
C475 H469 0.930 . S
C475 C471 1.400 1_545 S
C475 C474 1.385 . S
C476 C474 1.478 . S
C476 C478 1.381 . S
C476 C482 1.383 . S
C477 C473 1.495 . S
C477 H483 0.959 . S
C477 H484 0.961 . S
C477 H485 0.960 . S
C478 C476 1.381 . S
C478 C479 1.394 1_655 S
C478 H486 0.930 1_655 S
C479 C478 1.394 1_455 S
C479 C480 1.383 1_455 S
C479 H487 0.929 . S
C480 C479 1.383 1_655 S
C480 C481 1.377 . S
C481 H465 0.930 . S
C481 C480 1.377 . S
C481 C482 1.379 . S
C482 H466 0.931 . S
C482 C476 1.383 . S
C482 C481 1.379 . S
H483 C477 0.959 . S
H484 C477 0.961 . S
H485 C477 0.960 . S
H486 C478 0.930 1_455 S
H487 C479 0.929 . S
H488 C496 0.929 . S
H489 C498 0.930 . S
H490 C500 0.930 . S
H491 C503 0.929 . S
H492 C506 0.930 . S
H493 C508 0.960 1_556 S
H494 C508 0.960 1_556 S
H495 C508 0.960 . S
C496 H488 0.929 . S
C496 C497 1.377 . S
C496 C498 1.384 . S
C497 C496 1.377 . S
C497 C503 1.390 . S
C498 H489 0.930 . S
C498 C496 1.384 . S
C498 C499 1.372 . S
C499 C498 1.372 . S
C499 C500 1.400 . S
C499 C504 1.490 . S
C500 H490 0.930 . S
C500 C499 1.400 . S
C500 C503 1.386 . S
H501 C517 0.930 . S
H502 C518 0.931 . S
C503 H491 0.929 . S
C503 C497 1.390 . S
C503 C500 1.386 . S
C504 C499 1.490 . S
C504 C506 1.395 . S
C504 C507 1.403 . S
H505 C511 0.930 . S
C506 H492 0.930 . S
C506 C504 1.395 . S
C506 C509 1.403 . S
C507 C504 1.403 . S
C507 C508 1.524 . S
C507 C511 1.400 . S
C508 H493 0.960 1_554 S
C508 H494 0.960 1_554 S
C508 H495 0.960 . S
C508 C507 1.524 . S
C509 C506 1.403 . S
C509 C510 1.392 . S
C509 C513 1.495 . S
C510 C509 1.392 . S
C510 C511 1.385 . S
C510 C512 1.478 . S
C511 H505 0.930 . S
C511 C507 1.400 . S
C511 C510 1.385 . S
C512 C510 1.478 . S
C512 C514 1.381 . S
C512 C518 1.383 . S
C513 C509 1.495 . S
C513 H519 0.959 . S
C513 H520 0.961 . S
C513 H521 0.960 . S
C514 C512 1.381 . S
C514 C515 1.394 . S
C514 H522 0.930 . S
C515 C514 1.394 . S
C515 C516 1.383 . S
C515 H523 0.929 . S
C516 C515 1.383 . S
C516 C517 1.377 . S
C517 H501 0.930 . S
C517 C516 1.377 . S
C517 C518 1.379 . S
C518 H502 0.931 . S
C518 C512 1.383 . S
C518 C517 1.379 . S
H519 C513 0.959 . S
H520 C513 0.961 . S
H521 C513 0.960 . S
H522 C514 0.930 . S
H523 C515 0.929 . S
H524 C532 0.929 . S
H525 C534 0.930 . S
H526 C536 0.930 . S
H527 C539 0.929 . S
H528 C542 0.930 . S
H529 C544 0.960 . S
H530 C544 0.960 . S
H531 C544 0.960 . S
C532 H524 0.929 . S
C532 C533 1.377 . S
C532 C534 1.384 . S
C533 C532 1.377 . S
C533 C539 1.390 . S
C534 H525 0.930 . S
C534 C532 1.384 . S
C534 C535 1.372 . S
C535 C534 1.372 . S
C535 C536 1.400 . S
C535 C540 1.490 . S
C536 H526 0.930 . S
C536 C535 1.400 . S
C536 C539 1.386 . S
H537 C553 0.930 . S
H538 C554 0.931 . S
C539 H527 0.929 . S
C539 C533 1.390 . S
C539 C536 1.386 . S
C540 C535 1.490 . S
C540 C542 1.395 . S
C540 C543 1.403 . S
H541 C547 0.930 . S
C542 H528 0.930 . S
C542 C540 1.395 . S
C542 C545 1.403 . S
C543 C540 1.403 . S
C543 C544 1.524 . S
C543 C547 1.400 . S
C544 H529 0.960 . S
C544 H530 0.960 . S
C544 H531 0.960 . S
C544 C543 1.524 . S
C545 C542 1.403 . S
C545 C546 1.392 . S
C545 C549 1.495 . S
C546 C545 1.392 . S
C546 C547 1.385 . S
C546 C548 1.478 . S
C547 H541 0.930 . S
C547 C543 1.400 . S
C547 C546 1.385 . S
C548 C546 1.478 . S
C548 C550 1.381 . S
C548 C554 1.383 . S
C549 C545 1.495 . S
C549 H555 0.959 . S
C549 H556 0.961 . S
C549 H557 0.960 . S
C550 C548 1.381 . S
C550 C551 1.394 . S
C550 H558 0.930 . S
C551 C550 1.394 . S
C551 C552 1.383 . S
C551 H559 0.929 . S
C552 C551 1.383 . S
C552 C553 1.377 . S
C553 H537 0.930 . S
C553 C552 1.377 . S
C553 C554 1.379 . S
C554 H538 0.931 . S
C554 C548 1.383 . S
C554 C553 1.379 . S
H555 C549 0.959 . S
H556 C549 0.961 . S
H557 C549 0.960 . S
H558 C550 0.930 . S
H559 C551 0.929 . S
H560 C568 0.929 . S
H561 C570 0.930 . S
H562 C572 0.930 . S
H563 C575 0.929 . S
H564 C578 0.930 . S
H565 C580 0.960 . S
H566 C580 0.960 . S
H567 C580 0.960 . S
C568 H560 0.929 . S
C568 C569 1.377 . S
C568 C570 1.384 . S
C569 C568 1.377 . S
C569 C575 1.390 . S
C570 H561 0.930 . S
C570 C568 1.384 . S
C570 C571 1.372 . S
C571 C570 1.372 . S
C571 C572 1.400 . S
C571 C576 1.490 . S
C572 H562 0.930 . S
C572 C571 1.400 . S
C572 C575 1.386 . S
H573 C589 0.930 . S
H574 C590 0.931 . S
C575 H563 0.929 . S
C575 C569 1.390 . S
C575 C572 1.386 . S
C576 C571 1.490 . S
C576 C578 1.395 . S
C576 C579 1.403 . S
H577 C583 0.930 . S
C578 H564 0.930 . S
C578 C576 1.395 . S
C578 C581 1.403 . S
C579 C576 1.403 . S
C579 C580 1.524 . S
C579 C583 1.400 . S
C580 H565 0.960 . S
C580 H566 0.960 . S
C580 H567 0.960 . S
C580 C579 1.524 . S
C581 C578 1.403 . S
C581 C582 1.392 . S
C581 C585 1.495 . S
C582 C581 1.392 . S
C582 C583 1.385 . S
C582 C584 1.478 . S
C583 H577 0.930 . S
C583 C579 1.400 . S
C583 C582 1.385 . S
C584 C582 1.478 . S
C584 C586 1.381 . S
C584 C590 1.383 . S
C585 C581 1.495 . S
C585 H591 0.959 . S
C585 H592 0.961 . S
C585 H593 0.960 . S
C586 C584 1.381 . S
C586 C587 1.394 . S
C586 H594 0.930 . S
C587 C586 1.394 . S
C587 C588 1.383 . S
C587 H595 0.929 . S
C588 C587 1.383 . S
C588 C589 1.377 . S
C589 H573 0.930 . S
C589 C588 1.377 . S
C589 C590 1.379 . S
C590 H574 0.931 . S
C590 C584 1.383 . S
C590 C589 1.379 . S
H591 C585 0.959 . S
H592 C585 0.961 . S
H593 C585 0.960 . S
H594 C586 0.930 . S
H595 C587 0.929 . S
H596 C604 0.929 . S
H597 C606 0.930 . S
H598 C608 0.930 . S
H599 C611 0.929 . S
H600 C614 0.930 . S
H601 C616 0.960 . S
H602 C616 0.960 . S
H603 C616 0.960 . S
C604 H596 0.929 . S
C604 C605 1.377 . S
C604 C606 1.384 . S
C605 C604 1.377 . S
C605 C611 1.390 . S
C606 H597 0.930 . S
C606 C604 1.384 . S
C606 C607 1.372 . S
C607 C606 1.372 . S
C607 C608 1.400 . S
C607 C612 1.490 . S
C608 H598 0.930 . S
C608 C607 1.400 . S
C608 C611 1.386 . S
H609 C625 0.930 . S
H610 C626 0.931 . S
C611 H599 0.929 . S
C611 C605 1.390 . S
C611 C608 1.386 . S
C612 C607 1.490 . S
C612 C614 1.395 . S
C612 C615 1.403 . S
H613 C619 0.930 . S
C614 H600 0.930 . S
C614 C612 1.395 . S
C614 C617 1.403 . S
C615 C612 1.403 . S
C615 C616 1.524 . S
C615 C619 1.400 . S
C616 H601 0.960 . S
C616 H602 0.960 . S
C616 H603 0.960 . S
C616 C615 1.524 . S
C617 C614 1.403 . S
C617 C618 1.392 . S
C617 C621 1.495 1_655 S
C618 C617 1.392 . S
C618 C619 1.385 . S
C618 C620 1.478 . S
C619 H613 0.930 . S
C619 C615 1.400 . S
C619 C618 1.385 . S
C620 C618 1.478 . S
C620 C622 1.381 . S
C620 C626 1.383 . S
C621 C617 1.495 1_455 S
C621 H627 0.959 . S
C621 H628 0.961 . S
C621 H629 0.960 . S
C622 C620 1.381 . S
C622 C623 1.394 . S
C622 H630 0.930 . S
C623 C622 1.394 . S
C623 C624 1.383 . S
C623 H631 0.929 . S
C624 C623 1.383 . S
C624 C625 1.377 . S
C625 H609 0.930 . S
C625 C624 1.377 . S
C625 C626 1.379 . S
C626 H610 0.931 . S
C626 C620 1.383 . S
C626 C625 1.379 . S
H627 C621 0.959 . S
H628 C621 0.961 . S
H629 C621 0.960 . S
H630 C622 0.930 . S
H631 C623 0.929 . S
H632 C640 0.929 . S
H633 C642 0.930 . S
H634 C644 0.930 . S
H635 C647 0.929 . S
H636 C650 0.930 . S
H637 C652 0.960 . S
H638 C652 0.960 . S
H639 C652 0.960 . S
C640 H632 0.929 . S
C640 C641 1.377 . S
C640 C642 1.384 . S
C641 C640 1.377 . S
C641 C647 1.390 . S
C642 H633 0.930 . S
C642 C640 1.384 . S
C642 C643 1.372 . S
C643 C642 1.372 . S
C643 C644 1.400 . S
C643 C648 1.490 . S
C644 H634 0.930 . S
C644 C643 1.400 . S
C644 C647 1.386 . S
H645 C661 0.930 . S
H646 C662 0.931 . S
C647 H635 0.929 . S
C647 C641 1.390 . S
C647 C644 1.386 . S
C648 C643 1.490 . S
C648 C650 1.395 . S
C648 C651 1.403 . S
H649 C655 0.930 . S
C650 H636 0.930 . S
C650 C648 1.395 . S
C650 C653 1.403 . S
C651 C648 1.403 . S
C651 C652 1.524 . S
C651 C655 1.400 . S
C652 H637 0.960 . S
C652 H638 0.960 . S
C652 H639 0.960 . S
C652 C651 1.524 . S
C653 C650 1.403 . S
C653 C654 1.392 . S
C653 C657 1.495 . S
C654 C653 1.392 . S
C654 C655 1.385 . S
C654 C656 1.478 . S
C655 H649 0.930 . S
C655 C651 1.400 . S
C655 C654 1.385 . S
C656 C654 1.478 . S
C656 C658 1.381 . S
C656 C662 1.383 . S
C657 C653 1.495 . S
C657 H663 0.959 . S
C657 H664 0.961 . S
C657 H665 0.960 . S
C658 C656 1.381 . S
C658 C659 1.394 . S
C658 H666 0.930 . S
C659 C658 1.394 . S
C659 C660 1.383 . S
C659 H667 0.929 . S
C660 C659 1.383 . S
C660 C661 1.377 . S
C661 H645 0.930 . S
C661 C660 1.377 . S
C661 C662 1.379 . S
C662 H646 0.931 . S
C662 C656 1.383 . S
C662 C661 1.379 . S
H663 C657 0.959 . S
H664 C657 0.961 . S
H665 C657 0.960 . S
H666 C658 0.930 . S
H667 C659 0.929 . S
H668 C676 0.929 . S
H669 C678 0.930 . S
H670 C680 0.930 . S
H671 C683 0.929 . S
H672 C686 0.930 . S
H673 C688 0.960 . S
H674 C688 0.960 . S
H675 C688 0.960 . S
C676 H668 0.929 . S
C676 C677 1.377 1_455 S
C676 C678 1.384 . S
C677 C676 1.377 1_655 S
C677 C683 1.390 . S
C678 H669 0.930 . S
C678 C676 1.384 . S
C678 C679 1.372 . S
C679 C678 1.372 . S
C679 C680 1.400 1_455 S
C679 C684 1.490 . S
C680 H670 0.930 . S
C680 C679 1.400 1_655 S
C680 C683 1.386 . S
H681 C697 0.930 . S
H682 C698 0.931 . S
C683 H671 0.929 . S
C683 C677 1.390 . S
C683 C680 1.386 . S
C684 C679 1.490 . S
C684 C686 1.395 . S
C684 C687 1.403 . S
H685 C691 0.930 . S
C686 H672 0.930 . S
C686 C684 1.395 . S
C686 C689 1.403 . S
C687 C684 1.403 . S
C687 C688 1.524 . S
C687 C691 1.400 . S
C688 H673 0.960 . S
C688 H674 0.960 . S
C688 H675 0.960 . S
C688 C687 1.524 . S
C689 C686 1.403 . S
C689 C690 1.392 . S
C689 C693 1.495 . S
C690 C689 1.392 . S
C690 C691 1.385 . S
C690 C692 1.478 . S
C691 H685 0.930 . S
C691 C687 1.400 . S
C691 C690 1.385 . S
C692 C690 1.478 . S
C692 C694 1.381 . S
C692 C698 1.383 . S
C693 C689 1.495 . S
C693 H699 0.959 . S
C693 H700 0.961 . S
C693 H701 0.960 . S
C694 C692 1.381 . S
C694 C695 1.394 . S
C694 H702 0.930 . S
C695 C694 1.394 . S
C695 C696 1.383 . S
C695 H703 0.929 . S
C696 C695 1.383 . S
C696 C697 1.377 . S
C697 H681 0.930 . S
C697 C696 1.377 . S
C697 C698 1.379 . S
C698 H682 0.931 . S
C698 C692 1.383 . S
C698 C697 1.379 . S
H699 C693 0.959 . S
H700 C693 0.961 . S
H701 C693 0.960 . S
H702 C694 0.930 . S
H703 C695 0.929 . S
H704 C712 0.929 . S
H705 C714 0.930 . S
H706 C716 0.930 . S
H707 C719 0.929 . S
H708 C722 0.930 . S
H709 C724 0.960 . S
H710 C724 0.960 . S
H711 C724 0.960 . S
C712 H704 0.929 . S
C712 C713 1.377 . S
C712 C714 1.384 . S
C713 C712 1.377 . S
C713 C719 1.390 . S
C714 H705 0.930 . S
C714 C712 1.384 . S
C714 C715 1.372 . S
C715 C714 1.372 . S
C715 C716 1.400 . S
C715 C720 1.490 . S
C716 H706 0.930 . S
C716 C715 1.400 . S
C716 C719 1.386 . S
H717 C733 0.930 . S
H718 C734 0.931 . S
C719 H707 0.929 . S
C719 C713 1.390 . S
C719 C716 1.386 . S
C720 C715 1.490 . S
C720 C722 1.395 . S
C720 C723 1.403 . S
H721 C727 0.930 . S
C722 H708 0.930 . S
C722 C720 1.395 . S
C722 C725 1.403 . S
C723 C720 1.403 . S
C723 C724 1.524 . S
C723 C727 1.400 . S
C724 H709 0.960 . S
C724 H710 0.960 . S
C724 H711 0.960 . S
C724 C723 1.524 . S
C725 C722 1.403 . S
C725 C726 1.392 . S
C725 C729 1.495 . S
C726 C725 1.392 . S
C726 C727 1.385 . S
C726 C728 1.478 . S
C727 H721 0.930 . S
C727 C723 1.400 . S
C727 C726 1.385 . S
C728 C726 1.478 . S
C728 C730 1.381 . S
C728 C734 1.383 . S
C729 C725 1.495 . S
C729 H735 0.959 . S
C729 H736 0.961 . S
C729 H737 0.960 . S
C730 C728 1.381 . S
C730 C731 1.394 . S
C730 H738 0.930 . S
C731 C730 1.394 . S
C731 C732 1.383 . S
C731 H739 0.929 1_655 S
C732 C731 1.383 . S
C732 C733 1.377 . S
C733 H717 0.930 . S
C733 C732 1.377 . S
C733 C734 1.379 . S
C734 H718 0.931 . S
C734 C728 1.383 . S
C734 C733 1.379 . S
H735 C729 0.959 . S
H736 C729 0.961 . S
H737 C729 0.960 . S
H738 C730 0.930 . S
H739 C731 0.929 1_455 S
H740 C748 0.929 . S
H741 C750 0.930 . S
H742 C752 0.930 . S
H743 C755 0.929 . S
H744 C758 0.930 . S
H745 C760 0.960 . S
H746 C760 0.960 . S
H747 C760 0.960 . S
C748 H740 0.929 . S
C748 C749 1.377 . S
C748 C750 1.384 . S
C749 C748 1.377 . S
C749 C755 1.390 . S
C750 H741 0.930 . S
C750 C748 1.384 . S
C750 C751 1.372 . S
C751 C750 1.372 . S
C751 C752 1.400 . S
C751 C756 1.490 . S
C752 H742 0.930 . S
C752 C751 1.400 . S
C752 C755 1.386 . S
H753 C769 0.930 . S
H754 C770 0.931 . S
C755 H743 0.929 . S
C755 C749 1.390 . S
C755 C752 1.386 . S
C756 C751 1.490 . S
C756 C758 1.395 . S
C756 C759 1.403 . S
H757 C763 0.930 . S
C758 H744 0.930 . S
C758 C756 1.395 . S
C758 C761 1.403 . S
C759 C756 1.403 . S
C759 C760 1.524 . S
C759 C763 1.400 . S
C760 H745 0.960 . S
C760 H746 0.960 . S
C760 H747 0.960 . S
C760 C759 1.524 . S
C761 C758 1.403 . S
C761 C762 1.392 . S
C761 C765 1.495 . S
C762 C761 1.392 . S
C762 C763 1.385 . S
C762 C764 1.478 . S
C763 H757 0.930 . S
C763 C759 1.400 . S
C763 C762 1.385 . S
C764 C762 1.478 . S
C764 C766 1.381 . S
C764 C770 1.383 . S
C765 C761 1.495 . S
C765 H771 0.959 . S
C765 H772 0.961 . S
C765 H773 0.960 . S
C766 C764 1.381 . S
C766 C767 1.394 . S
C766 H774 0.930 . S
C767 C766 1.394 . S
C767 C768 1.383 . S
C767 H775 0.929 . S
C768 C767 1.383 . S
C768 C769 1.377 . S
C769 H753 0.930 . S
C769 C768 1.377 . S
C769 C770 1.379 . S
C770 H754 0.931 . S
C770 C764 1.383 . S
C770 C769 1.379 . S
H771 C765 0.959 . S
H772 C765 0.961 . S
H773 C765 0.960 . S
H774 C766 0.930 . S
H775 C767 0.929 . S
H776 C784 0.929 . S
H777 C786 0.930 . S
H778 C788 0.930 . S
H779 C791 0.929 . S
H780 C794 0.930 . S
H781 C796 0.960 . S
H782 C796 0.960 . S
H783 C796 0.960 . S
C784 H776 0.929 . S
C784 C785 1.377 . S
C784 C786 1.384 . S
C785 C784 1.377 . S
C785 C791 1.390 . S
C786 H777 0.930 . S
C786 C784 1.384 . S
C786 C787 1.372 . S
C787 C786 1.372 . S
C787 C788 1.400 . S
C787 C792 1.490 . S
C788 H778 0.930 . S
C788 C787 1.400 . S
C788 C791 1.386 . S
H789 C805 0.930 . S
H790 C806 0.931 . S
C791 H779 0.929 . S
C791 C785 1.390 . S
C791 C788 1.386 . S
C792 C787 1.490 . S
C792 C794 1.395 . S
C792 C795 1.403 . S
H793 C799 0.930 . S
C794 H780 0.930 . S
C794 C792 1.395 . S
C794 C797 1.403 . S
C795 C792 1.403 . S
C795 C796 1.524 . S
C795 C799 1.400 . S
C796 H781 0.960 . S
C796 H782 0.960 . S
C796 H783 0.960 . S
C796 C795 1.524 . S
C797 C794 1.403 . S
C797 C798 1.392 . S
C797 C801 1.495 . S
C798 C797 1.392 . S
C798 C799 1.385 . S
C798 C800 1.478 . S
C799 H793 0.930 . S
C799 C795 1.400 . S
C799 C798 1.385 . S
C800 C798 1.478 . S
C800 C802 1.381 . S
C800 C806 1.383 . S
C801 C797 1.495 . S
C801 H807 0.959 . S
C801 H808 0.961 . S
C801 H809 0.960 . S
C802 C800 1.381 . S
C802 C803 1.394 . S
C802 H810 0.930 . S
C803 C802 1.394 . S
C803 C804 1.383 . S
C803 H811 0.929 . S
C804 C803 1.383 . S
C804 C805 1.377 . S
C805 H789 0.930 . S
C805 C804 1.377 . S
C805 C806 1.379 . S
C806 H790 0.931 . S
C806 C800 1.383 . S
C806 C805 1.379 . S
H807 C801 0.959 . S
H808 C801 0.961 . S
H809 C801 0.960 . S
H810 C802 0.930 . S
H811 C803 0.929 . S
H812 C820 0.929 . S
H813 C822 0.930 . S
H814 C824 0.930 . S
H815 C827 0.929 . S
H816 C830 0.930 1_565 S
H817 C832 0.960 . S
H818 C832 0.960 . S
H819 C832 0.960 . S
C820 H812 0.929 . S
C820 C821 1.377 . S
C820 C822 1.384 . S
C821 C820 1.377 . S
C821 C827 1.390 . S
C822 H813 0.930 . S
C822 C820 1.384 . S
C822 C823 1.372 . S
C823 C822 1.372 . S
C823 C824 1.400 . S
C823 C828 1.490 . S
C824 H814 0.930 . S
C824 C823 1.400 . S
C824 C827 1.386 . S
H825 C841 0.930 . S
H826 C842 0.931 . S
C827 H815 0.929 . S
C827 C821 1.390 . S
C827 C824 1.386 . S
C828 C823 1.490 . S
C828 C830 1.395 1_665 S
C828 C831 1.403 . S
H829 C835 0.930 . S
C830 H816 0.930 1_545 S
C830 C828 1.395 1_445 S
C830 C833 1.403 . S
C831 C828 1.403 . S
C831 C832 1.524 . S
C831 C835 1.400 1_565 S
C832 H817 0.960 . S
C832 H818 0.960 . S
C832 H819 0.960 . S
C832 C831 1.524 . S
C833 C830 1.403 . S
C833 C834 1.392 1_455 S
C833 C837 1.495 . S
C834 C833 1.392 1_655 S
C834 C835 1.385 . S
C834 C836 1.478 . S
C835 H829 0.930 . S
C835 C831 1.400 1_545 S
C835 C834 1.385 . S
C836 C834 1.478 . S
C836 C838 1.381 1_655 S
C836 C842 1.383 . S
C837 C833 1.495 . S
C837 H843 0.959 . S
C837 H844 0.961 . S
C837 H845 0.960 . S
C838 C836 1.381 1_455 S
C838 C839 1.394 . S
C838 H846 0.930 . S
C839 C838 1.394 . S
C839 C840 1.383 1_455 S
C839 H847 0.929 . S
C840 C839 1.383 1_655 S
C840 C841 1.377 . S
C841 H825 0.930 . S
C841 C840 1.377 . S
C841 C842 1.379 . S
C842 H826 0.931 . S
C842 C836 1.383 . S
C842 C841 1.379 . S
H843 C837 0.959 . S
H844 C837 0.961 . S
H845 C837 0.960 . S
H846 C838 0.930 . S
H847 C839 0.929 . S
H848 C856 0.929 . S
H849 C858 0.930 . S
H850 C860 0.930 . S
H851 C863 0.929 . S
H852 C866 0.930 . S
H853 C868 0.960 . S
H854 C868 0.960 . S
H855 C868 0.960 . S
C856 H848 0.929 . S
C856 C857 1.377 . S
C856 C858 1.384 . S
C857 C856 1.377 . S
C857 C863 1.390 . S
C858 H849 0.930 . S
C858 C856 1.384 . S
C858 C859 1.372 . S
C859 C858 1.372 . S
C859 C860 1.400 . S
C859 C864 1.490 . S
C860 H850 0.930 . S
C860 C859 1.400 . S
C860 C863 1.386 . S
H861 C877 0.930 . S
H862 C878 0.931 . S
C863 H851 0.929 . S
C863 C857 1.390 . S
C863 C860 1.386 . S
C864 C859 1.490 . S
C864 C866 1.395 . S
C864 C867 1.403 . S
H865 C871 0.930 . S
C866 H852 0.930 . S
C866 C864 1.395 . S
C866 C869 1.403 . S
C867 C864 1.403 . S
C867 C868 1.524 . S
C867 C871 1.400 . S
C868 H853 0.960 . S
C868 H854 0.960 . S
C868 H855 0.960 . S
C868 C867 1.524 . S
C869 C866 1.403 . S
C869 C870 1.392 . S
C869 C873 1.495 . S
C870 C869 1.392 . S
C870 C871 1.385 . S
C870 C872 1.478 . S
C871 H865 0.930 . S
C871 C867 1.400 . S
C871 C870 1.385 . S
C872 C870 1.478 . S
C872 C874 1.381 . S
C872 C878 1.383 . S
C873 C869 1.495 . S
C873 H879 0.959 . S
C873 H880 0.961 . S
C873 H881 0.960 . S
C874 C872 1.381 . S
C874 C875 1.394 . S
C874 H882 0.930 . S
C875 C874 1.394 . S
C875 C876 1.383 . S
C875 H883 0.929 . S
C876 C875 1.383 . S
C876 C877 1.377 . S
C877 H861 0.930 . S
C877 C876 1.377 . S
C877 C878 1.379 . S
C878 H862 0.931 . S
C878 C872 1.383 . S
C878 C877 1.379 . S
H879 C873 0.959 . S
H880 C873 0.961 . S
H881 C873 0.960 . S
H882 C874 0.930 . S
H883 C875 0.929 . S
H884 C892 0.929 . S
H885 C894 0.930 . S
H886 C896 0.930 . S
H887 C899 0.929 . S
H888 C902 0.930 . S
H889 C904 0.960 . S
H890 C904 0.960 . S
H891 C904 0.960 . S
C892 H884 0.929 . S
C892 C893 1.377 . S
C892 C894 1.384 . S
C893 C892 1.377 . S
C893 C899 1.390 . S
C894 H885 0.930 . S
C894 C892 1.384 . S
C894 C895 1.372 . S
C895 C894 1.372 . S
C895 C896 1.400 . S
C895 C900 1.490 . S
C896 H886 0.930 . S
C896 C895 1.400 . S
C896 C899 1.386 . S
H897 C913 0.930 . S
H898 C914 0.931 . S
C899 H887 0.929 . S
C899 C893 1.390 . S
C899 C896 1.386 . S
C900 C895 1.490 . S
C900 C902 1.395 . S
C900 C903 1.403 . S
H901 C907 0.930 . S
C902 H888 0.930 . S
C902 C900 1.395 . S
C902 C905 1.403 . S
C903 C900 1.403 . S
C903 C904 1.524 . S
C903 C907 1.400 . S
C904 H889 0.960 . S
C904 H890 0.960 . S
C904 H891 0.960 . S
C904 C903 1.524 . S
C905 C902 1.403 . S
C905 C906 1.392 . S
C905 C909 1.495 . S
C906 C905 1.392 . S
C906 C907 1.385 . S
C906 C908 1.478 . S
C907 H901 0.930 . S
C907 C903 1.400 . S
C907 C906 1.385 . S
C908 C906 1.478 . S
C908 C910 1.381 . S
C908 C914 1.383 . S
C909 C905 1.495 . S
C909 H915 0.959 . S
C909 H916 0.961 . S
C909 H917 0.960 . S
C910 C908 1.381 . S
C910 C911 1.394 . S
C910 H918 0.930 . S
C911 C910 1.394 . S
C911 C912 1.383 . S
C911 H919 0.929 . S
C912 C911 1.383 . S
C912 C913 1.377 . S
C913 H897 0.930 . S
C913 C912 1.377 . S
C913 C914 1.379 . S
C914 H898 0.931 . S
C914 C908 1.383 . S
C914 C913 1.379 . S
H915 C909 0.959 . S
H916 C909 0.961 . S
H917 C909 0.960 . S
H918 C910 0.930 . S
H919 C911 0.929 . S
H920 C928 0.929 . S
H921 C930 0.930 . S
H922 C932 0.930 . S
H923 C935 0.929 . S
H924 C938 0.930 . S
H925 C940 0.960 . S
H926 C940 0.960 . S
H927 C940 0.960 . S
C928 H920 0.929 . S
C928 C929 1.377 . S
C928 C930 1.384 . S
C929 C928 1.377 . S
C929 C935 1.390 . S
C930 H921 0.930 . S
C930 C928 1.384 . S
C930 C931 1.372 . S
C931 C930 1.372 . S
C931 C932 1.400 . S
C931 C936 1.490 . S
C932 H922 0.930 . S
C932 C931 1.400 . S
C932 C935 1.386 . S
H933 C949 0.930 . S
H934 C950 0.931 . S
C935 H923 0.929 . S
C935 C929 1.390 . S
C935 C932 1.386 . S
C936 C931 1.490 . S
C936 C938 1.395 . S
C936 C939 1.403 . S
H937 C943 0.930 . S
C938 H924 0.930 . S
C938 C936 1.395 . S
C938 C941 1.403 . S
C939 C936 1.403 . S
C939 C940 1.524 . S
C939 C943 1.400 . S
C940 H925 0.960 . S
C940 H926 0.960 . S
C940 H927 0.960 . S
C940 C939 1.524 . S
C941 C938 1.403 . S
C941 C942 1.392 . S
C941 C945 1.495 1_554 S
C942 C941 1.392 . S
C942 C943 1.385 . S
C942 C944 1.478 . S
C943 H937 0.930 . S
C943 C939 1.400 . S
C943 C942 1.385 . S
C944 C942 1.478 . S
C944 C946 1.381 . S
C944 C950 1.383 . S
C945 C941 1.495 1_556 S
C945 H951 0.959 . S
C945 H952 0.961 . S
C945 H953 0.960 . S
C946 C944 1.381 . S
C946 C947 1.394 . S
C946 H954 0.930 . S
C947 C946 1.394 . S
C947 C948 1.383 . S
C947 H955 0.929 . S
C948 C947 1.383 . S
C948 C949 1.377 . S
C949 H933 0.930 . S
C949 C948 1.377 . S
C949 C950 1.379 . S
C950 H934 0.931 . S
C950 C944 1.383 . S
C950 C949 1.379 . S
H951 C945 0.959 . S
H952 C945 0.961 . S
H953 C945 0.960 . S
H954 C946 0.930 . S
H955 C947 0.929 . S
H956 C964 0.929 . S
H957 C966 0.930 . S
H958 C968 0.930 . S
H959 C971 0.929 . S
H960 C974 0.930 . S
H961 C976 0.960 . S
H962 C976 0.960 . S
H963 C976 0.960 . S
C964 H956 0.929 . S
C964 C965 1.377 . S
C964 C966 1.384 . S
C965 C964 1.377 . S
C965 C971 1.390 . S
C966 H957 0.930 . S
C966 C964 1.384 . S
C966 C967 1.372 . S
C967 C966 1.372 . S
C967 C968 1.400 . S
C967 C972 1.490 . S
C968 H958 0.930 . S
C968 C967 1.400 . S
C968 C971 1.386 . S
H969 C985 0.930 . S
H970 C986 0.931 . S
C971 H959 0.929 . S
C971 C965 1.390 . S
C971 C968 1.386 . S
C972 C967 1.490 . S
C972 C974 1.395 . S
C972 C975 1.403 . S
H973 C979 0.930 . S
C974 H960 0.930 . S
C974 C972 1.395 . S
C974 C977 1.403 . S
C975 C972 1.403 . S
C975 C976 1.524 . S
C975 C979 1.400 . S
C976 H961 0.960 . S
C976 H962 0.960 . S
C976 H963 0.960 . S
C976 C975 1.524 . S
C977 C974 1.403 . S
C977 C978 1.392 . S
C977 C981 1.495 . S
C978 C977 1.392 . S
C978 C979 1.385 . S
C978 C980 1.478 . S
C979 H973 0.930 . S
C979 C975 1.400 . S
C979 C978 1.385 . S
C980 C978 1.478 . S
C980 C982 1.381 . S
C980 C986 1.383 . S
C981 C977 1.495 . S
C981 H987 0.959 . S
C981 H988 0.961 . S
C981 H989 0.960 . S
C982 C980 1.381 . S
C982 C983 1.394 . S
C982 H990 0.930 . S
C983 C982 1.394 . S
C983 C984 1.383 . S
C983 H991 0.929 1_655 S
C984 C983 1.383 . S
C984 C985 1.377 . S
C985 H969 0.930 . S
C985 C984 1.377 . S
C985 C986 1.379 . S
C986 H970 0.931 . S
C986 C980 1.383 . S
C986 C985 1.379 . S
H987 C981 0.959 . S
H988 C981 0.961 . S
H989 C981 0.960 . S
H990 C982 0.930 . S
H991 C983 0.929 1_455 S
H992 C1000 0.929 . S
H993 C1002 0.930 . S
H994 C1004 0.930 . S
H995 C1007 0.929 . S
H996 C1010 0.930 . S
H997 C1012 0.960 . S
H998 C1012 0.960 . S
H999 C1012 0.960 . S
C1000 H992 0.929 . S
C1000 C1001 1.377 . S
C1000 C1002 1.384 . S
C1001 C1000 1.377 . S
C1001 C1007 1.390 . S
C1002 H993 0.930 . S
C1002 C1000 1.384 . S
C1002 C1003 1.372 . S
C1003 C1002 1.372 . S
C1003 C1004 1.400 . S
C1003 C1008 1.490 . S
C1004 H994 0.930 . S
C1004 C1003 1.400 . S
C1004 C1007 1.386 . S
H1005 C1021 0.930 . S
H1006 C1022 0.930 1_556 S
C1007 H995 0.929 . S
C1007 C1001 1.390 . S
C1007 C1004 1.386 . S
C1008 C1003 1.490 . S
C1008 C1010 1.395 . S
C1008 C1011 1.403 . S
H1009 C1015 0.930 . S
C1010 H996 0.930 . S
C1010 C1008 1.395 . S
C1010 C1013 1.403 . S
C1011 C1008 1.403 . S
C1011 C1012 1.524 . S
C1011 C1015 1.400 . S
C1012 H997 0.960 . S
C1012 H998 0.960 . S
C1012 H999 0.960 . S
C1012 C1011 1.524 . S
C1013 C1010 1.403 . S
C1013 C1014 1.392 . S
C1013 C1017 1.495 . S
C1014 C1013 1.392 . S
C1014 C1015 1.385 . S
C1014 C1016 1.478 . S
C1015 H1009 0.930 . S
C1015 C1011 1.400 . S
C1015 C1014 1.385 . S
C1016 C1014 1.478 . S
C1016 C1018 1.381 . S
C1016 C1022 1.383 1_556 S
C1017 C1013 1.495 . S
C1017 H1023 0.959 . S
C1017 H1024 0.961 . S
C1017 H1025 0.960 . S
C1018 C1016 1.381 . S
C1018 C1019 1.394 1_556 S
C1018 H1026 0.930 . S
C1019 C1018 1.394 1_554 S
C1019 C1020 1.383 . S
C1019 H1027 0.929 . S
C1020 C1019 1.383 . S
C1020 C1021 1.377 . S
C1021 H1005 0.930 . S
C1021 C1020 1.377 . S
C1021 C1022 1.379 . S
C1022 H1006 0.930 1_554 S
C1022 C1016 1.383 1_554 S
C1022 C1021 1.379 . S
H1023 C1017 0.959 . S
H1024 C1017 0.961 . S
H1025 C1017 0.960 . S
H1026 C1018 0.930 . S
H1027 C1019 0.929 . S
H1028 C1036 0.929 . S
H1029 C1038 0.930 . S
H1030 C1040 0.930 . S
H1031 C1043 0.929 . S
H1032 C1046 0.930 . S
H1033 C1048 0.960 . S
H1034 C1048 0.960 . S
H1035 C1048 0.960 . S
C1036 H1028 0.929 . S
C1036 C1037 1.377 . S
C1036 C1038 1.384 . S
C1037 C1036 1.377 . S
C1037 C1043 1.390 . S
C1038 H1029 0.930 . S
C1038 C1036 1.384 . S
C1038 C1039 1.372 . S
C1039 C1038 1.372 . S
C1039 C1040 1.400 . S
C1039 C1044 1.490 . S
C1040 H1030 0.930 . S
C1040 C1039 1.400 . S
C1040 C1043 1.386 . S
H1041 C1057 0.930 . S
H1042 C1058 0.931 . S
C1043 H1031 0.929 . S
C1043 C1037 1.390 . S
C1043 C1040 1.386 . S
C1044 C1039 1.490 . S
C1044 C1046 1.395 . S
C1044 C1047 1.403 . S
H1045 C1051 0.930 . S
C1046 H1032 0.930 . S
C1046 C1044 1.395 . S
C1046 C1049 1.403 . S
C1047 C1044 1.403 . S
C1047 C1048 1.524 . S
C1047 C1051 1.400 . S
C1048 H1033 0.960 . S
C1048 H1034 0.960 . S
C1048 H1035 0.960 . S
C1048 C1047 1.524 . S
C1049 C1046 1.403 . S
C1049 C1050 1.392 . S
C1049 C1053 1.495 . S
C1050 C1049 1.392 . S
C1050 C1051 1.385 . S
C1050 C1052 1.478 . S
C1051 H1045 0.930 . S
C1051 C1047 1.400 . S
C1051 C1050 1.385 . S
C1052 C1050 1.478 . S
C1052 C1054 1.381 . S
C1052 C1058 1.383 . S
C1053 C1049 1.495 . S
C1053 H1059 0.959 . S
C1053 H1060 0.961 . S
C1053 H1061 0.960 . S
C1054 C1052 1.381 . S
C1054 C1055 1.394 . S
C1054 H1062 0.930 . S
C1055 C1054 1.394 . S
C1055 C1056 1.383 . S
C1055 H1063 0.929 . S
C1056 C1055 1.383 . S
C1056 C1057 1.377 . S
C1057 H1041 0.930 . S
C1057 C1056 1.377 . S
C1057 C1058 1.379 . S
C1058 H1042 0.931 . S
C1058 C1052 1.383 . S
C1058 C1057 1.379 . S
H1059 C1053 0.959 . S
H1060 C1053 0.961 . S
H1061 C1053 0.960 . S
H1062 C1054 0.930 . S
H1063 C1055 0.929 . S
H1064 C1072 0.929 . S
H1065 C1074 0.930 . S
H1066 C1076 0.930 . S
H1067 C1079 0.929 . S
H1068 C1082 0.930 . S
H1069 C1084 0.960 . S
H1070 C1084 0.960 . S
H1071 C1084 0.960 . S
C1072 H1064 0.929 . S
C1072 C1073 1.377 . S
C1072 C1074 1.384 . S
C1073 C1072 1.377 . S
C1073 C1079 1.390 . S
C1074 H1065 0.930 . S
C1074 C1072 1.384 . S
C1074 C1075 1.372 . S
C1075 C1074 1.372 . S
C1075 C1076 1.400 . S
C1075 C1080 1.490 . S
C1076 H1066 0.930 . S
C1076 C1075 1.400 . S
C1076 C1079 1.386 . S
H1077 C1093 0.930 . S
H1078 C1094 0.931 . S
C1079 H1067 0.929 . S
C1079 C1073 1.390 . S
C1079 C1076 1.386 . S
C1080 C1075 1.490 . S
C1080 C1082 1.395 . S
C1080 C1083 1.403 . S
H1081 C1087 0.930 . S
C1082 H1068 0.930 . S
C1082 C1080 1.395 . S
C1082 C1085 1.403 . S
C1083 C1080 1.403 . S
C1083 C1084 1.524 . S
C1083 C1087 1.400 . S
C1084 H1069 0.960 . S
C1084 H1070 0.960 . S
C1084 H1071 0.960 . S
C1084 C1083 1.524 . S
C1085 C1082 1.403 . S
C1085 C1086 1.392 . S
C1085 C1089 1.495 . S
C1086 C1085 1.392 . S
C1086 C1087 1.385 . S
C1086 C1088 1.478 . S
C1087 H1081 0.930 . S
C1087 C1083 1.400 . S
C1087 C1086 1.385 . S
C1088 C1086 1.478 . S
C1088 C1090 1.381 . S
C1088 C1094 1.383 . S
C1089 C1085 1.495 . S
C1089 H1095 0.959 . S
C1089 H1096 0.961 . S
C1089 H1097 0.960 . S
C1090 C1088 1.381 . S
C1090 C1091 1.394 . S
C1090 H1098 0.930 . S
C1091 C1090 1.394 . S
C1091 C1092 1.383 . S
C1091 H1099 0.929 . S
C1092 C1091 1.383 . S
C1092 C1093 1.377 . S
C1093 H1077 0.930 . S
C1093 C1092 1.377 . S
C1093 C1094 1.379 . S
C1094 H1078 0.931 . S
C1094 C1088 1.383 . S
C1094 C1093 1.379 . S
H1095 C1089 0.959 . S
H1096 C1089 0.961 . S
H1097 C1089 0.960 . S
H1098 C1090 0.930 . S
H1099 C1091 0.929 . S
C264 C164 1.444 . S
C245 C11 1.337 . S
C300 C167 1.804 . S
C281 C25 1.786 . S
C336 C165 1.214 1_655 S
C317 C40 1.181 . S
C372 C166 1.309 . S
C353 C59 1.242 . S
C408 C181 1.885 . S
C389 C6 1.885 . S
C444 C195 1.924 . S
C425 C21 1.872 . S
C461 C49 1.526 . S
C480 C221 1.616 . S
C516 C235 1.495 . S
C497 C68 1.383 . S
C552 C180 1.880 . S
C533 C30 1.685 . S
C569 C44 1.679 . S
C588 C194 1.681 . S
C624 C220 1.617 . S
C605 C63 1.606 . S
C660 C234 1.666 . S
C641 C2 1.651 . S
C677 C78 1.818 . S
C696 C179 1.833 . S
C732 C152 1.637 . S
C713 C97 1.590 . S
C749 C120 1.718 . S
C768 C178 1.732 . S
C785 C139 1.639 . S
C804 C153 1.639 . S
C840 C208 1.437 . S
C821 C87 1.329 . S
C876 C222 1.573 . S
C857 C101 1.540 . S
C912 C192 1.600 . S
C893 C125 1.489 . S
C929 C144 1.674 . S
C948 C206 1.728 . S
C984 C209 1.707 . S
C965 C106 1.508 . S
C1020 C223 1.619 . S
C1001 C116 1.604 . S
C1056 C193 1.670 . S
C1037 C135 1.649 . S
C1073 C82 1.860 . S
C1092 C207 1.829 . S
