# Generated by pormake.
# Topology cml, (3,6)-cn, num edge types: 1
# Building blocks:
#     Node 0, Type 0, BuildingBlock: PAMTOO_clean_linker_0, # of connection points: 3
#     Node 1, Type 0, BuildingBlock: PAMTOO_clean_linker_0, # of connection points: 3
#     Node 2, Type 0, BuildingBlock: PAMTOO_clean_linker_0, # of connection points: 3
#     Node 3, Type 0, BuildingBlock: PAMTOO_clean_linker_0, # of connection points: 3
#     Node 4, Type 0, BuildingBlock: PAMTOO_clean_linker_0, # of connection points: 3
#     Node 5, Type 0, BuildingBlock: PAMTOO_clean_linker_0, # of connection points: 3
#     Node 6, Type 0, BuildingBlock: PAMTOO_clean_linker_0, # of connection points: 3
#     Node 7, Type 0, BuildingBlock: PAMTOO_clean_linker_0, # of connection points: 3
#     Node 8, Type 1, BuildingBlock: IZENUY_clean_sbu_0, # of connection points: 6
#     Node 9, Type 1, BuildingBlock: IZENUY_clean_sbu_0, # of connection points: 6
#     Node 10, Type 1, BuildingBlock: IZENUY_clean_sbu_0, # of connection points: 6
#     Node 11, Type 1, BuildingBlock: IZENUY_clean_sbu_0, # of connection points: 6
#     Edge 12, Type (0, 1), BuildingBlock: KIFKEQ_clean_linker_1, # of connection points: 2
#     Edge 13, Type (0, 1), BuildingBlock: KIFKEQ_clean_linker_1, # of connection points: 2
#     Edge 14, Type (0, 1), BuildingBlock: KIFKEQ_clean_linker_1, # of connection points: 2
#     Edge 15, Type (0, 1), BuildingBlock: KIFKEQ_clean_linker_1, # of connection points: 2
#     Edge 16, Type (0, 1), BuildingBlock: KIFKEQ_clean_linker_1, # of connection points: 2
#     Edge 17, Type (0, 1), BuildingBlock: KIFKEQ_clean_linker_1, # of connection points: 2
#     Edge 18, Type (0, 1), BuildingBlock: KIFKEQ_clean_linker_1, # of connection points: 2
#     Edge 19, Type (0, 1), BuildingBlock: KIFKEQ_clean_linker_1, # of connection points: 2
#     Edge 20, Type (0, 1), BuildingBlock: KIFKEQ_clean_linker_1, # of connection points: 2
#     Edge 21, Type (0, 1), BuildingBlock: KIFKEQ_clean_linker_1, # of connection points: 2
#     Edge 22, Type (0, 1), BuildingBlock: KIFKEQ_clean_linker_1, # of connection points: 2
#     Edge 23, Type (0, 1), BuildingBlock: KIFKEQ_clean_linker_1, # of connection points: 2
#     Edge 24, Type (0, 1), BuildingBlock: KIFKEQ_clean_linker_1, # of connection points: 2
#     Edge 25, Type (0, 1), BuildingBlock: KIFKEQ_clean_linker_1, # of connection points: 2
#     Edge 26, Type (0, 1), BuildingBlock: KIFKEQ_clean_linker_1, # of connection points: 2
#     Edge 27, Type (0, 1), BuildingBlock: KIFKEQ_clean_linker_1, # of connection points: 2
#     Edge 28, Type (0, 1), BuildingBlock: KIFKEQ_clean_linker_1, # of connection points: 2
#     Edge 29, Type (0, 1), BuildingBlock: KIFKEQ_clean_linker_1, # of connection points: 2
#     Edge 30, Type (0, 1), BuildingBlock: KIFKEQ_clean_linker_1, # of connection points: 2
#     Edge 31, Type (0, 1), BuildingBlock: KIFKEQ_clean_linker_1, # of connection points: 2
#     Edge 32, Type (0, 1), BuildingBlock: KIFKEQ_clean_linker_1, # of connection points: 2
#     Edge 33, Type (0, 1), BuildingBlock: KIFKEQ_clean_linker_1, # of connection points: 2
#     Edge 34, Type (0, 1), BuildingBlock: KIFKEQ_clean_linker_1, # of connection points: 2
#     Edge 35, Type (0, 1), BuildingBlock: KIFKEQ_clean_linker_1, # of connection points: 2
# Relax obj value: 0.004
# Max RMSD: 0.070
# Mean RMSD: 0.053
data_MOF--net-cml--node1-IZENUY_clean_sbu_0--node2-PAMTOO_clean_linker_0--edge1-KIFKEQ_clean_linker_1
_symmetry_space_group_name_H-M    P1
_symmetry_Int_Tables_number       1
_symmetry_cell_setting            triclinic
loop_
_symmetry_equiv_pos_as_xyz
'x, y, z'
_cell_length_a     37.60154
_cell_length_b     41.897081
_cell_length_c     36.469016
_cell_angle_alpha  90.037796
_cell_angle_beta   88.912886
_cell_angle_gamma 90.551372
loop_
_atom_site_label
_atom_site_type_symbol
_atom_site_fract_x
_atom_site_fract_y
_atom_site_fract_z
_atom_type_partial_charge
H0 H 0.34986 0.43392 0.04214 0.0
H1 H 0.27534 0.40685 0.95957 0.0
H2 H 0.28931 0.34641 0.05334 0.0
H3 H 0.28171 0.31352 0.9827 0.0
C4 C 0.262 0.32923 0.96945 0.0
O5 O 0.2538 0.35421 0.99281 0.0
H6 H 0.27414 0.33873 0.94359 0.0
C7 C 0.33013 0.41721 0.03202 0.0
C8 C 0.32219 0.38916 0.05182 0.0
C9 C 0.31364 0.42373 0.99876 0.0
C10 C 0.28814 0.40219 0.98537 0.0
C11 C 0.279 0.37457 0.00539 0.0
C12 C 0.29598 0.36813 0.03855 0.0
H13 H 0.6679 0.58615 0.54215 0.0
H14 H 0.72884 0.67359 0.54914 0.0
H15 H 0.74012 0.61313 0.45459 0.0
H16 H 0.80797 0.63879 0.48244 0.0
C17 C 0.79844 0.66186 0.49392 0.0
O18 O 0.76281 0.66539 0.48676 0.0
H19 H 0.8024 0.66147 0.5241 0.0
C20 C 0.68739 0.60279 0.53072 0.0
C21 C 0.70288 0.5963 0.4963 0.0
C22 C 0.69593 0.63088 0.54991 0.0
C23 C 0.72173 0.65181 0.53491 0.0
C24 C 0.73795 0.64515 0.50086 0.0
C25 C 0.72803 0.61776 0.48125 0.0
H26 H 0.67473 0.45 0.0458 0.0
H27 H 0.74589 0.37009 0.05048 0.0
H28 H 0.73687 0.42319 0.95072 0.0
H29 H 0.73673 0.35287 0.94263 0.0
C30 C 0.75452 0.3466 0.96555 0.0
O31 O 0.76647 0.37426 0.98199 0.0
H32 H 0.73911 0.33185 0.98576 0.0
C33 C 0.69499 0.43511 0.03325 0.0
C34 C 0.70486 0.44037 0.9964 0.0
C35 C 0.70931 0.40973 0.05322 0.0
C36 C 0.73425 0.38976 0.03579 0.0
C37 C 0.74382 0.39453 0.99889 0.0
C38 C 0.72925 0.41979 0.97927 0.0
H39 H 0.34969 0.58758 0.54105 0.0
H40 H 0.28946 0.61604 0.4474 0.0
H41 H 0.28821 0.67362 0.54499 0.0
H42 H 0.21805 0.66152 0.51199 0.0
C43 C 0.22614 0.66135 0.48247 0.0
O44 O 0.26233 0.66669 0.47899 0.0
H45 H 0.21935 0.63739 0.47119 0.0
C46 C 0.33153 0.60389 0.52813 0.0
C47 C 0.32019 0.63108 0.54732 0.0
C48 C 0.32107 0.59839 0.49188 0.0
C49 C 0.29821 0.62011 0.47517 0.0
C50 C 0.28584 0.64685 0.49457 0.0
C51 C 0.29742 0.65266 0.53034 0.0
H52 H 0.85381 0.9293 0.04267 0.0
H53 H 0.78028 0.9097 0.95611 0.0
H54 H 0.78578 0.84644 0.04849 0.0
H55 H 0.77777 0.81516 0.97878 0.0
C56 C 0.76079 0.83248 0.96421 0.0
O57 O 0.75334 0.85809 0.98689 0.0
H58 H 0.77594 0.841 0.93953 0.0
C59 C 0.83364 0.91426 0.03045 0.0
C60 C 0.82253 0.88647 0.04904 0.0
C61 C 0.81925 0.92295 0.99664 0.0
C62 C 0.79174 0.90389 0.98227 0.0
C63 C 0.77948 0.87652 1.00116 0.0
C64 C 0.7948 0.86795 0.03456 0.0
H65 H 0.16462 0.08799 0.54058 0.0
H66 H 0.23102 0.17186 0.54795 0.0
H67 H 0.2453 0.10714 0.45784 0.0
H68 H 0.312 0.13381 0.4852 0.0
C69 C 0.30225 0.15712 0.49578 0.0
O70 O 0.2669 0.16059 0.4874 0.0
H71 H 0.30537 0.15739 0.52608 0.0
C72 C 0.18625 0.10267 0.52979 0.0
C73 C 0.20376 0.09367 0.49703 0.0
C74 C 0.19573 0.13076 0.54848 0.0
C75 C 0.22353 0.1499 0.53427 0.0
C76 C 0.2412 0.1413 0.50164 0.0
C77 C 0.23134 0.11336 0.48306 0.0
H78 H 0.16542 0.94537 0.03299 0.0
H79 H 0.23531 0.8651 0.04042 0.0
H80 H 0.23361 0.92049 0.94136 0.0
H81 H 0.23359 0.85 0.93204 0.0
C82 C 0.24992 0.84334 0.95596 0.0
O83 O 0.26105 0.87076 0.97352 0.0
H84 H 0.23329 0.82846 0.97499 0.0
C85 C 0.18611 0.93058 0.02098 0.0
C86 C 0.19863 0.93673 0.98516 0.0
C87 C 0.19907 0.9048 0.04104 0.0
C88 C 0.22544 0.88539 0.0254 0.0
C89 C 0.23753 0.89089 0.98935 0.0
C90 C 0.22419 0.91652 0.96927 0.0
H91 H 0.86442 0.10032 0.53224 0.0
H92 H 0.7947 0.11918 0.44243 0.0
H93 H 0.78487 0.17284 0.54248 0.0
H94 H 0.71703 0.14933 0.50613 0.0
C95 C 0.72505 0.15531 0.47737 0.0
O96 O 0.76026 0.1649 0.47623 0.0
H97 H 0.72159 0.13361 0.46018 0.0
C98 C 0.84287 0.1136 0.52036 0.0
C99 C 0.82632 0.13745 0.54134 0.0
C100 C 0.83175 0.1065 0.48467 0.0
C101 C 0.80334 0.1237 0.47014 0.0
C102 C 0.78636 0.14742 0.49108 0.0
C103 C 0.79766 0.15409 0.52674 0.0
Fe104 Fe 0.01297 0.83551 0.31793 0.0
Fe105 Fe 0.01395 0.87278 0.39054 0.0
O106 O 0.01384 0.87231 0.34197 0.0
Fe107 Fe 0.01484 0.90872 0.31739 0.0
O108 O 0.98866 0.89366 0.27908 0.0
O109 O 0.97156 0.84544 0.29558 0.0
O110 O 0.98606 0.81441 0.3529 0.0
C111 C 0.96599 0.82453 0.37858 0.0
C112 C 0.06081 0.87367 0.27529 0.0
O113 O 0.9718 0.8513 0.39333 0.0
C114 C 0.06157 0.92104 0.37596 0.0
O115 O 0.0543 0.82296 0.33834 0.0
O116 O 0.03938 0.83584 0.39493 0.0
O117 O 0.05644 0.8984 0.29453 0.0
O118 O 0.03975 0.85002 0.27865 0.0
C119 C 0.96873 0.92445 0.3729 0.0
O120 O 0.05621 0.89434 0.39119 0.0
O121 O 0.04124 0.93058 0.35108 0.0
C122 C 0.05954 0.82135 0.37237 0.0
O123 O 0.98857 0.90989 0.39494 0.0
O124 O 0.97333 0.92156 0.33869 0.0
C125 C 0.96762 0.87005 0.27617 0.0
Fe126 Fe 0.99836 0.15389 0.89334 0.0
Fe127 Fe 0.99664 0.11853 0.81952 0.0
O128 O 0.99976 0.15463 0.84466 0.0
Fe129 Fe 1.0044 0.19141 0.82078 0.0
O130 O 0.03174 0.21112 0.85556 0.0
O131 O 0.04143 0.17369 0.89614 0.0
O132 O 0.0221 0.116 0.89689 0.0
C133 C 0.04156 0.10104 0.87404 0.0
C134 C 0.95655 0.20749 0.87522 0.0
O135 O 0.03668 0.10334 0.84 0.0
C136 C 0.95475 0.15655 0.77817 0.0
O137 O 0.95524 0.13372 0.89488 0.0
O138 O 0.96806 0.09768 0.85311 0.0
O139 O 0.96368 0.20629 0.84132 0.0
O140 O 0.97431 0.19169 0.89805 0.0
C141 C 0.04796 0.15427 0.77853 0.0
O142 O 0.95642 0.13152 0.7973 0.0
O143 O 0.97771 0.17866 0.78156 0.0
C144 C 0.94844 0.10759 0.87914 0.0
O145 O 0.02469 0.13234 0.78109 0.0
O146 O 0.0456 0.17895 0.79826 0.0
C147 C 0.04989 0.19996 0.88138 0.0
Fe148 Fe 0.51329 0.33684 0.32106 0.0
Fe149 Fe 0.51221 0.37207 0.3952 0.0
O150 O 0.51351 0.37296 0.34656 0.0
Fe151 Fe 0.51516 0.41004 0.32328 0.0
O152 O 0.49001 0.39609 0.28368 0.0
O153 O 0.47254 0.34747 0.29798 0.0
O154 O 0.48554 0.31467 0.35444 0.0
C155 C 0.46509 0.32382 0.38029 0.0
C156 C 0.56242 0.37612 0.28149 0.0
O157 O 0.47025 0.35027 0.39597 0.0
C158 C 0.56039 0.42053 0.38331 0.0
O159 O 0.55393 0.32356 0.34217 0.0
O160 O 0.53792 0.33518 0.39891 0.0
O161 O 0.55731 0.40029 0.30142 0.0
O162 O 0.54121 0.35245 0.28304 0.0
C163 C 0.4671 0.42385 0.37796 0.0
O164 O 0.55409 0.39384 0.39818 0.0
O165 O 0.54079 0.43092 0.35828 0.0
C166 C 0.55828 0.32098 0.37627 0.0
O167 O 0.48633 0.40883 0.40017 0.0
O168 O 0.47313 0.42235 0.34385 0.0
C169 C 0.46908 0.37259 0.27935 0.0
Fe170 Fe 0.49963 0.65253 0.89599 0.0
Fe171 Fe 0.50124 0.61443 0.82397 0.0
O172 O 0.50153 0.65157 0.84729 0.0
Fe173 Fe 0.50396 0.68765 0.82174 0.0
O174 O 0.52997 0.7098 0.85582 0.0
O175 O 0.5416 0.67426 0.89807 0.0
O176 O 0.52529 0.61588 0.90178 0.0
C177 C 0.54605 0.60114 0.88002 0.0
C178 C 0.45505 0.7035 0.87515 0.0
O179 O 0.54182 0.60224 0.84582 0.0
C180 C 0.45719 0.64847 0.7804 0.0
O181 O 0.45762 0.63056 0.8979 0.0
O182 O 0.4733 0.5936 0.85817 0.0
O183 O 0.46229 0.70114 0.84139 0.0
O184 O 0.47356 0.6894 0.89878 0.0
C185 C 0.55049 0.65136 0.78173 0.0
O186 O 0.46079 0.62419 0.8004 0.0
O187 O 0.47812 0.67225 0.78303 0.0
C188 C 0.45245 0.60372 0.88309 0.0
O189 O 0.52896 0.62816 0.78532 0.0
O190 O 0.54601 0.67666 0.79993 0.0
C191 C 0.54871 0.70032 0.88211 0.0
H192 H 0.19827 0.35166 0.94504 0.0
H193 H 0.252 0.26425 0.97074 0.0
H194 H 0.14619 0.32095 0.92577 0.0
H195 H 0.20063 0.23338 0.95051 0.0
H196 H 0.09089 0.18729 0.94114 0.0
H197 H 0.14029 0.21887 0.96463 0.0
H198 H 0.1277 0.28699 0.87704 0.0
H199 H 0.07778 0.25595 0.85421 0.0
C200 C 0.19874 0.32586 0.94685 0.0
C201 C 0.2289 0.31038 0.96 0.0
C202 C 0.16909 0.3082 0.93546 0.0
C203 C 0.16906 0.27457 0.93651 0.0
C204 C 0.19931 0.25918 0.94987 0.0
C205 C 0.22886 0.27686 0.96136 0.0
C206 C 0.09858 0.20905 0.92693 0.0
C207 C 0.0802 0.21904 0.89578 0.0
C208 C 0.1271 0.22712 0.94031 0.0
C209 C 0.13811 0.25561 0.92283 0.0
C210 C 0.11968 0.26554 0.89167 0.0
C211 C 0.09112 0.24756 0.87838 0.0
H212 H 0.83768 0.70875 0.52758 0.0
H213 H 0.80673 0.67498 0.42099 0.0
H214 H 0.87527 0.74983 0.49874 0.0
H215 H 0.84352 0.71663 0.39186 0.0
H216 H 0.94888 0.76436 0.35576 0.0
H217 H 0.90596 0.72736 0.38302 0.0
H218 H 0.8759 0.79864 0.46317 0.0
H219 H 0.9197 0.83565 0.43633 0.0
C220 C 0.83866 0.71043 0.49794 0.0
C221 C 0.8196 0.68864 0.4764 0.0
C222 C 0.85996 0.73409 0.48139 0.0
C223 C 0.86257 0.73648 0.44295 0.0
C224 C 0.84259 0.71516 0.42151 0.0
C225 C 0.82138 0.69146 0.43809 0.0
C226 C 0.93304 0.77231 0.37909 0.0
C227 C 0.93798 0.80297 0.39399 0.0
C228 C 0.90818 0.75109 0.39458 0.0
C229 C 0.88745 0.75997 0.42533 0.0
C230 C 0.89177 0.79089 0.43979 0.0
C231 C 0.91675 0.81217 0.42428 0.0
H232 H 0.81501 0.33131 1.00196 0.0
H233 H 0.76282 0.31739 0.89877 0.0
H234 H 0.86482 0.29892 0.98019 0.0
H235 H 0.81182 0.28404 0.87729 0.0
H236 H 0.9205 0.25217 0.83628 0.0
H237 H 0.87295 0.28671 0.85815 0.0
H238 H 0.87937 0.24482 0.96607 0.0
H239 H 0.9277 0.21097 0.94449 0.0
C240 C 0.81439 0.32139 0.97453 0.0
C241 C 0.78556 0.32737 0.9517 0.0
C242 C 0.84267 0.30259 0.96217 0.0
C243 C 0.84243 0.28896 0.9269 0.0
C244 C 0.81326 0.29469 0.9043 0.0
C245 C 0.78511 0.31365 0.9166 0.0
C246 C 0.91187 0.25039 0.86472 0.0
C247 C 0.92797 0.22883 0.88865 0.0
C248 C 0.88443 0.27008 0.87721 0.0
C249 C 0.87223 0.26852 0.91386 0.0
C250 C 0.88844 0.24702 0.93782 0.0
C251 C 0.91606 0.22748 0.92539 0.0
H252 H 0.18811 0.65618 0.41911 0.0
H253 H 0.2191 0.72397 0.50185 0.0
H254 H 0.15085 0.69643 0.39088 0.0
H255 H 0.18254 0.76472 0.47323 0.0
H256 H 0.07656 0.81117 0.44385 0.0
H257 H 0.11978 0.77437 0.46792 0.0
H258 H 0.14963 0.74648 0.35758 0.0
H259 H 0.1056 0.783 0.33332 0.0
C260 C 0.18726 0.67989 0.43092 0.0
C261 C 0.20604 0.68696 0.46288 0.0
C262 C 0.16612 0.70303 0.41464 0.0
C263 C 0.16342 0.73378 0.42994 0.0
C264 C 0.18347 0.74113 0.46112 0.0
C265 C 0.20456 0.71795 0.47739 0.0
C266 C 0.09237 0.79732 0.4246 0.0
C267 C 0.08734 0.79994 0.3866 0.0
C268 C 0.11745 0.77635 0.43845 0.0
C269 C 0.13828 0.75743 0.41472 0.0
C270 C 0.13374 0.76042 0.37666 0.0
C271 C 0.1086 0.78147 0.36275 0.0
H272 H 0.71404 0.79834 0.00774 0.0
H273 H 0.73173 0.82831 0.89576 0.0
H274 H 0.66137 0.76784 0.98937 0.0
H275 H 0.67989 0.79732 0.87701 0.0
H276 H 0.56774 0.76043 0.8589 0.0
H277 H 0.61647 0.79394 0.88006 0.0
H278 H 0.64618 0.72024 0.95608 0.0
H279 H 0.59684 0.68701 0.93556 0.0
C280 C 0.70646 0.79847 0.97923 0.0
C281 C 0.72692 0.81561 0.95319 0.0
C282 C 0.67652 0.78081 0.96859 0.0
C283 C 0.66635 0.77989 0.93161 0.0
C284 C 0.68653 0.79771 0.90576 0.0
C285 C 0.71638 0.81538 0.91644 0.0
C286 C 0.58455 0.75136 0.88023 0.0
C287 C 0.57825 0.72093 0.89547 0.0
C288 C 0.6127 0.77057 0.89226 0.0
C289 C 0.63546 0.75987 0.91978 0.0
C290 C 0.62896 0.72953 0.93524 0.0
C291 C 0.60074 0.71034 0.92327 0.0
H292 H 0.33986 0.20529 0.52912 0.0
H293 H 0.31267 0.16843 0.42273 0.0
H294 H 0.37657 0.24688 0.50005 0.0
H295 H 0.34848 0.21059 0.39332 0.0
H296 H 0.45118 0.26291 0.35756 0.0
H297 H 0.41005 0.22431 0.38484 0.0
H298 H 0.37524 0.29494 0.46375 0.0
H299 H 0.41726 0.33352 0.43699 0.0
C300 C 0.34157 0.20632 0.49946 0.0
C301 C 0.32377 0.18358 0.47807 0.0
C302 C 0.36233 0.23028 0.48276 0.0
C303 C 0.36558 0.23209 0.4443 0.0
C304 C 0.34705 0.20963 0.42299 0.0
C305 C 0.32642 0.18561 0.43972 0.0
C306 C 0.43462 0.27037 0.38058 0.0
C307 C 0.43776 0.30132 0.39521 0.0
C308 C 0.41081 0.24822 0.39611 0.0
C309 C 0.38935 0.25643 0.42659 0.0
C310 C 0.39177 0.28765 0.44065 0.0
C311 C 0.41571 0.30984 0.42515 0.0
H312 H 0.25921 0.81132 0.89121 0.0
H313 H 0.31035 0.83018 0.99398 0.0
H314 H 0.30863 0.77744 0.87221 0.0
H315 H 0.36062 0.7973 0.97459 0.0
H316 H 0.42566 0.70915 0.94407 0.0
H317 H 0.37645 0.743 0.96354 0.0
H318 H 0.36962 0.78004 0.85333 0.0
H319 H 0.41792 0.7455 0.83364 0.0
C320 C 0.28139 0.8086 0.90944 0.0
C321 C 0.28145 0.82396 0.94364 0.0
C322 C 0.30978 0.78931 0.89855 0.0
C323 C 0.33882 0.78484 0.92172 0.0
C324 C 0.33861 0.8 0.95616 0.0
C325 C 0.31006 0.81913 0.96713 0.0
C326 C 0.41369 0.72457 0.92402 0.0
C327 C 0.42572 0.72458 0.8873 0.0
C328 C 0.38558 0.74412 0.93523 0.0
C329 C 0.36901 0.76428 0.91001 0.0
C330 C 0.38132 0.76445 0.87336 0.0
C331 C 0.40921 0.74475 0.86211 0.0
H332 H 0.73354 0.18865 0.41307 0.0
H333 H 0.66371 0.1795 0.50774 0.0
H334 H 0.69534 0.23009 0.38839 0.0
H335 H 0.62481 0.21998 0.48276 0.0
H336 H 0.57986 0.31417 0.44689 0.0
H337 H 0.62151 0.27575 0.47089 0.0
H338 H 0.63829 0.2376 0.36187 0.0
H339 H 0.59736 0.27678 0.33764 0.0
C340 C 0.71004 0.19567 0.42861 0.0
C341 C 0.70191 0.18137 0.46261 0.0
C342 C 0.68797 0.21916 0.41437 0.0
C343 C 0.65702 0.22859 0.43364 0.0
C344 C 0.64878 0.21389 0.4675 0.0
C345 C 0.67095 0.19056 0.48178 0.0
C346 C 0.59253 0.29769 0.42796 0.0
C347 C 0.58506 0.29848 0.39033 0.0
C348 C 0.6163 0.27548 0.44179 0.0
C349 C 0.63309 0.25329 0.41844 0.0
C350 C 0.62617 0.2545 0.38066 0.0
C351 C 0.60253 0.2769 0.36676 0.0
H352 H 0.34756 0.42524 0.93242 0.0
H353 H 0.30735 0.48609 0.01862 0.0
H354 H 0.37668 0.47095 0.90309 0.0
H355 H 0.33435 0.53256 0.98834 0.0
H356 H 0.42743 0.59863 0.95385 0.0
H357 H 0.38896 0.55682 0.9794 0.0
H358 H 0.37537 0.51772 0.87063 0.0
H359 H 0.41574 0.55836 0.84584 0.0
C360 C 0.34402 0.44871 0.94435 0.0
C361 C 0.3252 0.45226 0.9776 0.0
C362 C 0.36062 0.47509 0.92754 0.0
C363 C 0.35827 0.50581 0.94329 0.0
C364 C 0.33766 0.50938 0.9757 0.0
C365 C 0.32172 0.48285 0.99287 0.0
C366 C 0.41579 0.58129 0.93544 0.0
C367 C 0.42482 0.58158 0.89793 0.0
C368 C 0.3935 0.55728 0.95002 0.0
C369 C 0.37907 0.53334 0.92728 0.0
C370 C 0.38663 0.53496 0.88935 0.0
C371 C 0.40954 0.5585 0.87498 0.0
H372 H 0.67107 0.59538 0.43018 0.0
H373 H 0.70573 0.53397 0.51696 0.0
H374 H 0.64107 0.55041 0.40142 0.0
H375 H 0.67776 0.48818 0.48726 0.0
H376 H 0.58227 0.42593 0.45411 0.0
H377 H 0.62184 0.4665 0.47904 0.0
H378 H 0.64208 0.50307 0.36956 0.0
H379 H 0.60062 0.46376 0.34534 0.0
C380 C 0.67317 0.57191 0.44238 0.0
C381 C 0.6906 0.56801 0.47567 0.0
C382 C 0.65608 0.54598 0.42589 0.0
C383 C 0.6566 0.51539 0.44202 0.0
C384 C 0.67591 0.51137 0.4744 0.0
C385 C 0.69234 0.53747 0.49125 0.0
C386 C 0.59555 0.44247 0.43545 0.0
C387 C 0.58812 0.44198 0.39791 0.0
C388 C 0.61848 0.46571 0.44965 0.0
C389 C 0.63513 0.48854 0.42646 0.0
C390 C 0.6291 0.48665 0.38853 0.0
C391 C 0.60555 0.46393 0.37453 0.0
H392 H 0.69638 0.50222 0.01752 0.0
H393 H 0.67461 0.43692 0.92897 0.0
H394 H 0.66223 0.54339 0.9872 0.0
H395 H 0.63969 0.47781 0.89889 0.0
H396 H 0.59583 0.56556 0.84259 0.0
H397 H 0.63906 0.52907 0.86827 0.0
H398 H 0.60026 0.55157 0.97747 0.0
H399 H 0.55796 0.58846 0.95207 0.0
C400 C 0.6844 0.49679 0.99142 0.0
C401 C 0.68786 0.46635 0.97571 0.0
C402 C 0.66473 0.52029 0.97412 0.0
C403 C 0.64778 0.51378 0.94085 0.0
C404 C 0.65263 0.48374 0.92431 0.0
C405 C 0.67258 0.46028 0.94153 0.0
C406 C 0.59672 0.56285 0.8721 0.0
C407 C 0.5733 0.57985 0.89526 0.0
C408 C 0.6214 0.54184 0.88679 0.0
C409 C 0.62318 0.53739 0.92493 0.0
C410 C 0.6001 0.55479 0.94801 0.0
C411 C 0.57558 0.57581 0.93339 0.0
H412 H 0.35187 0.59747 0.42345 0.0
H413 H 0.32274 0.53653 0.51472 0.0
H414 H 0.38287 0.5531 0.3939 0.0
H415 H 0.35267 0.49187 0.48487 0.0
H416 H 0.45255 0.43765 0.44974 0.0
H417 H 0.41285 0.4778 0.47442 0.0
H418 H 0.38049 0.50165 0.36478 0.0
H419 H 0.42138 0.46183 0.33978 0.0
C420 C 0.35139 0.57434 0.43673 0.0
C421 C 0.33529 0.57048 0.47153 0.0
C422 C 0.36907 0.54887 0.41979 0.0
C423 C 0.37072 0.51894 0.4372 0.0
C424 C 0.35274 0.51475 0.47108 0.0
C425 C 0.33543 0.54026 0.48813 0.0
C426 C 0.43683 0.45123 0.43078 0.0
C427 C 0.44041 0.4466 0.39271 0.0
C428 C 0.41374 0.47417 0.44502 0.0
C429 C 0.39331 0.49302 0.42164 0.0
C430 C 0.39614 0.48785 0.38356 0.0
C431 C 0.41944 0.4649 0.36925 0.0
H432 H 0.78421 0.96713 0.9542 0.0
H433 H 0.88872 0.9432 0.99283 0.0
H434 H 0.80967 0.01497 0.92428 0.0
H435 H 0.91299 0.99161 0.96507 0.0
H436 H 0.92524 0.10286 0.95058 0.0
H437 H 0.88917 0.05956 0.97777 0.0
H438 H 0.87444 0.01869 0.87058 0.0
H439 H 0.91125 0.0614 0.84329 0.0
C440 C 0.81244 0.9719 0.95636 0.0
C441 C 0.83417 0.9514 0.97661 0.0
C442 C 0.82685 0.99941 0.93952 0.0
C443 C 0.86306 1.00709 0.94315 0.0
C444 C 0.88484 0.98646 0.96261 0.0
C445 C 0.87074 0.95881 0.9787 0.0
C446 C 0.91358 0.08513 0.9327 0.0
C447 C 0.92124 0.08542 0.89483 0.0
C448 C 0.89303 0.06038 0.94827 0.0
C449 C 0.87906 0.03602 0.92614 0.0
C450 C 0.8847 0.03741 0.88807 0.0
C451 C 0.90586 0.06174 0.87258 0.0
H452 H 0.19725 0.08571 0.42271 0.0
H453 H 0.18234 0.03589 0.52563 0.0
H454 H 0.17 0.04104 0.39071 0.0
H455 H 0.15281 0.99234 0.49409 0.0
H456 H 0.11274 0.90977 0.42727 0.0
H457 H 0.1542 0.94844 0.45347 0.0
H458 H 0.11152 0.02212 0.38448 0.0
H459 H 0.07151 0.98354 0.35753 0.0
C460 C 0.18859 0.0651 0.43851 0.0
C461 C 0.19151 0.06472 0.47688 0.0
C462 C 0.17244 0.0396 0.4202 0.0
C463 C 0.15846 0.01323 0.43981 0.0
C464 C 0.16328 0.01208 0.47793 0.0
C465 C 0.17978 0.03738 0.49616 0.0
C466 C 0.11257 0.93417 0.41746 0.0
C467 C 0.0886 0.94354 0.39047 0.0
C468 C 0.13622 0.9564 0.43259 0.0
C469 C 0.13626 0.98855 0.42125 0.0
C470 C 0.11289 0.99756 0.39353 0.0
C471 C 0.08958 0.97537 0.37824 0.0
H472 H 0.19197 0.99847 0.00669 0.0
H473 H 0.16972 0.9345 0.91707 0.0
H474 H 0.15845 0.04038 0.97697 0.0
H475 H 0.13513 0.9761 0.88762 0.0
H476 H 0.08989 0.06546 0.83443 0.0
H477 H 0.13331 0.02803 0.85817 0.0
H478 H 0.09635 0.04812 0.96865 0.0
H479 H 0.05399 0.08583 0.94525 0.0
C480 C 0.18013 0.99356 0.9804 0.0
C481 C 0.18311 0.96327 0.96427 0.0
C482 C 0.16075 0.01744 0.96347 0.0
C483 C 0.14351 1.01142 0.93024 0.0
C484 C 0.14821 0.98161 0.91308 0.0
C485 C 0.16797 0.95777 0.92992 0.0
C486 C 0.09121 0.06196 0.86379 0.0
C487 C 0.06839 0.07862 0.88791 0.0
C488 C 0.11601 0.04044 0.87737 0.0
C489 C 0.11849 0.03519 0.91533 0.0
C490 C 0.09577 0.05204 0.93932 0.0
C491 C 0.07117 0.07352 0.92582 0.0
H492 H 0.90309 0.0952 0.48057 0.0
H493 H 0.80261 0.06076 0.43969 0.0
H494 H 0.93316 0.0502 0.45193 0.0
H495 H 0.83331 0.01598 0.4099 0.0
H496 H 0.91979 0.95989 0.33561 0.0
H497 H 0.88448 1.00451 0.3596 0.0
H498 H 0.92788 0.98977 0.46688 0.0
H499 H 0.96269 0.94538 0.44346 0.0
C500 C 0.88738 0.07806 0.46541 0.0
C501 C 0.85029 0.08125 0.4631 0.0
C502 C 0.90467 0.05237 0.44891 0.0
C503 C 0.88544 0.02941 0.42922 0.0
C504 C 0.84869 0.03339 0.42499 0.0
C505 C 0.8312 0.05905 0.44194 0.0
C506 C 0.92146 0.96597 0.3644 0.0
C507 C 0.94434 0.94921 0.38752 0.0
C508 C 0.9012 0.99142 0.37808 0.0
C509 C 0.90389 1.00077 0.41493 0.0
C510 C 0.92574 0.98333 0.43822 0.0
C511 C 0.94555 0.95777 0.42477 0.0
H512 H 0.39341 0.39623 0.06167 0.0
H513 H 0.29703 0.36534 0.11803 0.0
H514 H 0.42628 0.39037 0.11797 0.0
H515 H 0.33051 0.35889 0.17475 0.0
H516 H 0.42115 0.32624 0.25746 0.0
H517 H 0.38372 0.32723 0.20297 0.0
H518 H 0.42295 0.42187 0.17724 0.0
H519 H 0.45988 0.42114 0.231 0.0
C520 C 0.37919 0.38818 0.08612 0.0
C521 C 0.3424 0.38194 0.08552 0.0
C522 C 0.39809 0.38473 0.11836 0.0
C523 C 0.38084 0.37469 0.15089 0.0
C524 C 0.34445 0.3667 0.15004 0.0
C525 C 0.32534 0.37037 0.11761 0.0
C526 C 0.42152 0.34733 0.2403 0.0
C527 C 0.44389 0.37345 0.24846 0.0
C528 C 0.40003 0.3479 0.20922 0.0
C529 C 0.40085 0.37444 0.18562 0.0
C530 C 0.42225 0.40085 0.19454 0.0
C531 C 0.44335 0.40043 0.22554 0.0
H532 H 0.62521 0.62327 0.56497 0.0
H533 H 0.72298 0.65605 0.61358 0.0
H534 H 0.59412 0.63015 0.62344 0.0
H535 H 0.69109 0.66384 0.67233 0.0
H536 H 0.59503 0.69937 0.75556 0.0
H537 H 0.63347 0.69739 0.7003 0.0
H538 H 0.60476 0.59842 0.68495 0.0
H539 H 0.56707 0.59999 0.7396 0.0
C540 C 0.6401 0.63195 0.58814 0.0
C541 C 0.67677 0.63839 0.58482 0.0
C542 C 0.62221 0.63607 0.62153 0.0
C543 C 0.64039 0.6471 0.65236 0.0
C544 C 0.67659 0.65528 0.64884 0.0
C545 C 0.69473 0.65085 0.61529 0.0
C546 C 0.59741 0.67709 0.74068 0.0
C547 C 0.57748 0.65 0.75165 0.0
C548 C 0.61941 0.67599 0.70919 0.0
C549 C 0.62148 0.6479 0.68824 0.0
C550 C 0.60311 0.6205 0.70036 0.0
C551 C 0.58153 0.62147 0.73172 0.0
H552 H 0.69263 0.45271 0.10742 0.0
H553 H 0.69548 0.35145 0.08498 0.0
H554 H 0.66176 0.44223 0.16524 0.0
H555 H 0.66693 0.3408 0.14416 0.0
H556 H 0.56778 0.33893 0.22023 0.0
H557 H 0.60897 0.34536 0.16866 0.0
H558 H 0.66204 0.42238 0.22544 0.0
H559 H 0.61961 0.41679 0.27646 0.0
C560 C 0.68716 0.42815 0.11507 0.0
C561 C 0.69601 0.40299 0.09116 0.0
C562 C 0.66989 0.42208 0.1486 0.0
C563 C 0.66143 0.39063 0.15935 0.0
C564 C 0.67232 0.36535 0.13647 0.0
C565 C 0.68923 0.37146 0.1027 0.0
C566 C 0.58849 0.357 0.22191 0.0
C567 C 0.59015 0.37761 0.25223 0.0
C568 C 0.61236 0.36057 0.19237 0.0
C569 C 0.63882 0.38455 0.19265 0.0
C570 C 0.64156 0.40411 0.22389 0.0
C571 C 0.61736 0.40081 0.25324 0.0
H572 H 0.36114 0.68078 0.57017 0.0
H573 H 0.31002 0.59402 0.60776 0.0
H574 H 0.3908 0.68618 0.62879 0.0
H575 H 0.33759 0.60014 0.6674 0.0
H576 H 0.42885 0.59567 0.74772 0.0
H577 H 0.39212 0.59348 0.69378 0.0
H578 H 0.38962 0.69669 0.6911 0.0
H579 H 0.4283 0.69864 0.74397 0.0
C580 C 0.35554 0.66338 0.59153 0.0
C581 C 0.33348 0.63698 0.58463 0.0
C582 C 0.37239 0.66646 0.62526 0.0
C583 C 0.36702 0.64344 0.65308 0.0
C584 C 0.34327 0.61792 0.64653 0.0
C585 C 0.32708 0.61453 0.61253 0.0
C586 C 0.42019 0.61789 0.73579 0.0
C587 C 0.43169 0.64732 0.74996 0.0
C588 C 0.39882 0.61669 0.70487 0.0
C589 C 0.38773 0.64493 0.68768 0.0
C590 C 0.39816 0.67441 0.70289 0.0
C591 C 0.42015 0.67557 0.73342 0.0
H592 H 0.89385 0.88508 0.05839 0.0
H593 H 0.79426 0.86625 0.11562 0.0
H594 H 0.92572 0.87817 0.11522 0.0
H595 H 0.82671 0.85873 0.17302 0.0
H596 H 0.91887 0.82328 0.25701 0.0
H597 H 0.88083 0.82276 0.20281 0.0
H598 H 0.92063 0.91619 0.17267 0.0
H599 H 0.95791 0.91712 0.22615 0.0
C600 C 0.87878 0.87915 0.08312 0.0
C601 C 0.84147 0.87693 0.08271 0.0
C602 C 0.89706 0.87511 0.1156 0.0
C603 C 0.8786 0.86844 0.14854 0.0
C604 C 0.8415 0.86391 0.14792 0.0
C605 C 0.82301 0.86819 0.11516 0.0
C606 C 0.91916 0.84382 0.23899 0.0
C607 C 0.94183 0.87007 0.24578 0.0
C608 C 0.89735 0.84351 0.20811 0.0
C609 C 0.89825 0.86925 0.1834 0.0
C610 C 0.91984 0.89584 0.191 0.0
C611 C 0.94117 0.89633 0.22179 0.0
H612 H 0.12404 0.12881 0.56019 0.0
H613 H 0.22226 0.15377 0.61325 0.0
H614 H 0.09146 0.13695 0.61768 0.0
H615 H 0.18912 0.16262 0.67104 0.0
H616 H 0.09707 0.19995 0.75561 0.0
H617 H 0.13533 0.19801 0.70021 0.0
H618 H 0.0962 0.10309 0.67721 0.0
H619 H 0.05866 0.10463 0.7319 0.0
C620 C 0.13866 0.13617 0.58412 0.0
C621 C 0.17582 0.13994 0.58239 0.0
C622 C 0.11998 0.14096 0.61695 0.0
C623 C 0.13792 0.14993 0.64881 0.0
C624 C 0.17475 0.1557 0.64678 0.0
C625 C 0.19363 0.15066 0.61377 0.0
C626 C 0.09703 0.17856 0.73893 0.0
C627 C 0.07437 0.15265 0.74792 0.0
C628 C 0.11891 0.17748 0.70734 0.0
C629 C 0.11812 0.15063 0.68424 0.0
C630 C 0.09676 0.12432 0.6942 0.0
C631 C 0.07531 0.12524 0.72566 0.0
H632 H 0.23089 0.90082 0.10774 0.0
H633 H 0.12985 0.89102 0.05456 0.0
H634 H 0.20145 0.89034 0.16753 0.0
H635 H 0.10069 0.88008 0.11368 0.0
H636 H 0.06623 0.8313 0.21868 0.0
H637 H 0.1036 0.83584 0.16362 0.0
H638 H 0.15178 0.92173 0.2062 0.0
H639 H 0.11409 0.91753 0.26152 0.0
C640 C 0.20252 0.89609 0.10893 0.0
C641 C 0.18247 0.89678 0.07687 0.0
C642 C 0.18574 0.89025 0.14294 0.0
C643 C 0.1489 0.8843 0.14503 0.0
C644 C 0.12917 0.88428 0.11274 0.0
C645 C 0.14575 0.89069 0.07903 0.0
C646 C 0.0851 0.85095 0.21668 0.0
C647 C 0.08683 0.87431 0.24431 0.0
C648 C 0.10643 0.85352 0.1851 0.0
C649 C 0.1303 0.87923 0.18067 0.0
C650 C 0.13365 0.90161 0.20911 0.0
C651 C 0.11193 0.89928 0.24061 0.0
H652 H 0.79187 0.1356 0.60819 0.0
H653 H 0.89334 0.15658 0.5561 0.0
H654 H 0.81852 0.14341 0.66875 0.0
H655 H 0.91979 0.16469 0.61601 0.0
H656 H 0.95075 0.20277 0.7257 0.0
H657 H 0.91537 0.20203 0.67052 0.0
H658 H 0.86668 0.11293 0.70463 0.0
H659 H 0.90222 0.11345 0.76017 0.0
C660 C 0.81966 0.14241 0.60978 0.0
C661 C 0.84065 0.14553 0.57771 0.0
C662 C 0.83492 0.14666 0.64427 0.0
C663 C 0.87119 0.15471 0.64703 0.0
C664 C 0.8917 0.15885 0.61475 0.0
C665 C 0.87666 0.1541 0.58051 0.0
C666 C 0.93221 0.18316 0.72183 0.0
C667 C 0.92975 0.15791 0.7472 0.0
C668 C 0.91199 0.18277 0.69012 0.0
C669 C 0.88854 0.1573 0.68314 0.0
C670 C 0.88445 0.13295 0.70942 0.0
C671 C 0.90496 0.13317 0.7411 0.0
loop_
_geom_bond_atom_site_label_1
_geom_bond_atom_site_label_2
_geom_bond_distance
_geom_bond_site_symmetry_2
_ccdc_geom_bond_type
H0 C7 0.929 . S
H1 C10 0.930 . S
H2 C12 0.929 . S
H3 C4 0.969 . S
C4 H3 0.969 . S
C4 O5 1.550 1_556 S
C4 H6 0.973 . S
O5 C4 1.550 1_554 S
O5 C11 1.412 . S
H6 C4 0.973 . S
C7 H0 0.929 . S
C7 C8 1.400 . S
C7 C9 1.364 1_554 S
C8 C7 1.400 . S
C8 C12 1.377 . S
C9 C7 1.364 1_556 S
C9 C10 1.374 . S
C10 H1 0.930 . S
C10 C9 1.374 . S
C10 C11 1.383 1_556 S
C11 O5 1.412 . S
C11 C10 1.383 1_554 S
C11 C12 1.394 . S
C12 H2 0.929 . S
C12 C8 1.377 . S
C12 C11 1.394 . S
H13 C20 0.929 . S
H14 C23 0.930 . S
H15 C25 0.929 . S
H16 C17 0.969 . S
C17 H16 0.969 . S
C17 O18 1.550 . S
C17 H19 0.973 . S
O18 C17 1.550 . S
O18 C24 1.412 . S
H19 C17 0.973 . S
C20 H13 0.929 . S
C20 C21 1.400 . S
C20 C22 1.364 . S
C21 C20 1.400 . S
C21 C25 1.377 . S
C22 C20 1.364 . S
C22 C23 1.374 . S
C23 H14 0.930 . S
C23 C22 1.374 . S
C23 C24 1.383 . S
C24 O18 1.412 . S
C24 C23 1.383 . S
C24 C25 1.394 . S
C25 H15 0.929 . S
C25 C21 1.377 . S
C25 C24 1.394 . S
H26 C33 0.929 . S
H27 C36 0.930 . S
H28 C38 0.929 . S
H29 C30 0.969 . S
C30 H29 0.969 . S
C30 O31 1.550 . S
C30 H32 0.973 1_556 S
O31 C30 1.550 . S
O31 C37 1.412 . S
H32 C30 0.973 1_554 S
C33 H26 0.929 . S
C33 C34 1.400 1_554 S
C33 C35 1.364 . S
C34 C33 1.400 1_556 S
C34 C38 1.377 . S
C35 C33 1.364 . S
C35 C36 1.374 . S
C36 H27 0.930 . S
C36 C35 1.374 . S
C36 C37 1.383 1_554 S
C37 O31 1.412 . S
C37 C36 1.383 1_556 S
C37 C38 1.394 . S
C38 H28 0.929 . S
C38 C34 1.377 . S
C38 C37 1.394 . S
H39 C46 0.929 . S
H40 C49 0.930 . S
H41 C51 0.929 . S
H42 C43 0.969 . S
C43 H42 0.969 . S
C43 O44 1.550 . S
C43 H45 0.973 . S
O44 C43 1.550 . S
O44 C50 1.412 . S
H45 C43 0.973 . S
C46 H39 0.929 . S
C46 C47 1.400 . S
C46 C48 1.364 . S
C47 C46 1.400 . S
C47 C51 1.377 . S
C48 C46 1.364 . S
C48 C49 1.374 . S
C49 H40 0.930 . S
C49 C48 1.374 . S
C49 C50 1.383 . S
C50 O44 1.412 . S
C50 C49 1.383 . S
C50 C51 1.394 . S
C51 H41 0.929 . S
C51 C47 1.377 . S
C51 C50 1.394 . S
H52 C59 0.929 . S
H53 C62 0.930 . S
H54 C64 0.929 . S
H55 C56 0.969 . S
C56 H55 0.969 . S
C56 O57 1.550 1_556 S
C56 H58 0.973 . S
O57 C56 1.550 1_554 S
O57 C63 1.412 . S
H58 C56 0.973 . S
C59 H52 0.929 . S
C59 C60 1.400 . S
C59 C61 1.364 1_554 S
C60 C59 1.400 . S
C60 C64 1.377 . S
C61 C59 1.364 1_556 S
C61 C62 1.374 . S
C62 H53 0.930 . S
C62 C61 1.374 . S
C62 C63 1.383 1_556 S
C63 O57 1.412 . S
C63 C62 1.383 1_554 S
C63 C64 1.394 . S
C64 H54 0.929 . S
C64 C60 1.377 . S
C64 C63 1.394 . S
H65 C72 0.929 . S
H66 C75 0.930 . S
H67 C77 0.929 . S
H68 C69 0.969 . S
C69 H68 0.969 . S
C69 O70 1.550 . S
C69 H71 0.973 . S
O70 C69 1.550 . S
O70 C76 1.412 . S
H71 C69 0.973 . S
C72 H65 0.929 . S
C72 C73 1.400 . S
C72 C74 1.364 . S
C73 C72 1.400 . S
C73 C77 1.377 . S
C74 C72 1.364 . S
C74 C75 1.374 . S
C75 H66 0.930 . S
C75 C74 1.374 . S
C75 C76 1.383 . S
C76 O70 1.412 . S
C76 C75 1.383 . S
C76 C77 1.394 . S
C77 H67 0.929 . S
C77 C73 1.377 . S
C77 C76 1.394 . S
H78 C85 0.929 . S
H79 C88 0.930 . S
H80 C90 0.929 . S
H81 C82 0.969 . S
C82 H81 0.969 . S
C82 O83 1.550 . S
C82 H84 0.973 1_556 S
O83 C82 1.550 . S
O83 C89 1.412 . S
H84 C82 0.973 1_554 S
C85 H78 0.929 . S
C85 C86 1.400 1_554 S
C85 C87 1.364 . S
C86 C85 1.400 1_556 S
C86 C90 1.377 . S
C87 C85 1.364 . S
C87 C88 1.374 . S
C88 H79 0.930 . S
C88 C87 1.374 . S
C88 C89 1.383 1_554 S
C89 O83 1.412 . S
C89 C88 1.383 1_556 S
C89 C90 1.394 . S
C90 H80 0.929 . S
C90 C86 1.377 . S
C90 C89 1.394 . S
H91 C98 0.929 . S
H92 C101 0.930 . S
H93 C103 0.929 . S
H94 C95 0.969 . S
C95 H94 0.969 . S
C95 O96 1.550 . S
C95 H97 0.973 . S
O96 C95 1.550 . S
O96 C102 1.412 . S
H97 C95 0.973 . S
C98 H91 0.929 . S
C98 C99 1.400 . S
C98 C100 1.364 . S
C99 C98 1.400 . S
C99 C103 1.377 . S
C100 C98 1.364 . S
C100 C101 1.374 . S
C101 H92 0.930 . S
C101 C100 1.374 . S
C101 C102 1.383 . S
C102 O96 1.412 . S
C102 C101 1.383 . S
C102 C103 1.394 . S
C103 H93 0.929 . S
C103 C99 1.377 . S
C103 C102 1.394 . S
Fe104 O106 1.918 . S
Fe104 O109 1.997 1_455 S
Fe104 O110 2.002 1_455 S
Fe104 O115 1.976 . S
Fe104 O118 1.996 . S
Fe105 O106 1.918 . S
Fe105 O113 1.997 1_455 S
Fe105 O116 1.996 . S
Fe105 O120 1.976 . S
Fe105 O123 2.002 1_455 S
O106 Fe104 1.918 . S
O106 Fe105 1.918 . S
O106 Fe107 1.918 . S
Fe107 O106 1.918 . S
Fe107 O108 2.002 1_455 S
Fe107 O117 1.976 . S
Fe107 O121 1.996 . S
Fe107 O124 1.997 1_455 S
O108 Fe107 2.002 1_655 S
O108 C125 1.295 . S
O109 Fe104 1.997 1_655 S
O109 C125 1.235 . S
O110 Fe104 2.002 1_655 S
O110 C111 1.295 . S
C111 O110 1.295 . S
C111 O113 1.235 . S
C112 O117 1.287 . S
C112 O118 1.255 . S
O113 Fe105 1.997 1_655 S
O113 C111 1.235 . S
C114 O120 1.287 . S
C114 O121 1.255 . S
O115 Fe104 1.976 . S
O115 C122 1.287 . S
O116 Fe105 1.996 . S
O116 C122 1.255 . S
O117 Fe107 1.976 . S
O117 C112 1.287 . S
O118 Fe104 1.996 . S
O118 C112 1.255 . S
C119 O123 1.295 . S
C119 O124 1.235 . S
O120 Fe105 1.976 . S
O120 C114 1.287 . S
O121 Fe107 1.996 . S
O121 C114 1.255 . S
C122 O115 1.287 . S
C122 O116 1.255 . S
O123 Fe105 2.002 1_655 S
O123 C119 1.295 . S
O124 Fe107 1.997 1_655 S
O124 C119 1.235 . S
C125 O108 1.295 . S
C125 O109 1.235 . S
Fe126 O128 1.918 . S
Fe126 O131 1.997 1_655 S
Fe126 O132 2.002 1_655 S
Fe126 O137 1.976 . S
Fe126 O140 1.996 . S
Fe127 O128 1.918 . S
Fe127 O135 1.981 1_655 S
Fe127 O138 2.011 . S
Fe127 O142 1.992 . S
Fe127 O145 1.987 1_655 S
O128 Fe126 1.918 . S
O128 Fe127 1.918 . S
O128 Fe129 1.918 . S
Fe129 O128 1.918 . S
Fe129 O130 1.990 1_655 S
Fe129 O139 1.988 . S
Fe129 O143 2.008 . S
Fe129 O146 1.984 1_655 S
O130 Fe129 1.990 1_455 S
O130 C147 1.295 . S
O131 Fe126 1.997 1_455 S
O131 C147 1.235 . S
O132 Fe126 2.002 1_455 S
O132 C133 1.295 . S
C133 O132 1.295 . S
C133 O135 1.235 . S
C134 O139 1.287 . S
C134 O140 1.255 . S
O135 Fe127 1.981 1_455 S
O135 C133 1.235 . S
C136 O142 1.287 . S
C136 O143 1.255 . S
O137 Fe126 1.976 . S
O137 C144 1.287 . S
O138 Fe127 2.011 . S
O138 C144 1.255 . S
O139 Fe129 1.988 . S
O139 C134 1.287 . S
O140 Fe126 1.996 . S
O140 C134 1.255 . S
C141 O145 1.295 . S
C141 O146 1.235 . S
O142 Fe127 1.992 . S
O142 C136 1.287 . S
O143 Fe129 2.008 . S
O143 C136 1.255 . S
C144 O137 1.287 . S
C144 O138 1.255 . S
O145 Fe127 1.987 1_455 S
O145 C141 1.295 . S
O146 Fe129 1.984 1_455 S
O146 C141 1.235 . S
C147 O130 1.295 . S
C147 O131 1.235 . S
Fe148 O150 1.918 . S
Fe148 O153 1.997 . S
Fe148 O154 2.002 . S
Fe148 O159 1.976 . S
Fe148 O162 1.996 . S
Fe149 O150 1.918 . S
Fe149 O157 1.997 . S
Fe149 O160 1.996 . S
Fe149 O164 1.976 . S
Fe149 O167 2.002 . S
O150 Fe148 1.918 . S
O150 Fe149 1.918 . S
O150 Fe151 1.918 . S
Fe151 O150 1.918 . S
Fe151 O152 2.002 . S
Fe151 O161 1.976 . S
Fe151 O165 1.996 . S
Fe151 O168 1.997 . S
O152 Fe151 2.002 . S
O152 C169 1.295 . S
O153 Fe148 1.997 . S
O153 C169 1.235 . S
O154 Fe148 2.002 . S
O154 C155 1.295 . S
C155 O154 1.295 . S
C155 O157 1.235 . S
C156 O161 1.287 . S
C156 O162 1.255 . S
O157 Fe149 1.997 . S
O157 C155 1.235 . S
C158 O164 1.287 . S
C158 O165 1.255 . S
O159 Fe148 1.976 . S
O159 C166 1.287 . S
O160 Fe149 1.996 . S
O160 C166 1.255 . S
O161 Fe151 1.976 . S
O161 C156 1.287 . S
O162 Fe148 1.996 . S
O162 C156 1.255 . S
C163 O167 1.295 . S
C163 O168 1.235 . S
O164 Fe149 1.976 . S
O164 C158 1.287 . S
O165 Fe151 1.996 . S
O165 C158 1.255 . S
C166 O159 1.287 . S
C166 O160 1.255 . S
O167 Fe149 2.002 . S
O167 C163 1.295 . S
O168 Fe151 1.997 . S
O168 C163 1.235 . S
C169 O152 1.295 . S
C169 O153 1.235 . S
Fe170 O172 1.918 . S
Fe170 O175 1.997 . S
Fe170 O176 2.002 . S
Fe170 O181 1.976 . S
Fe170 O184 1.996 . S
Fe171 O172 1.918 . S
Fe171 O179 1.997 . S
Fe171 O182 1.996 . S
Fe171 O186 1.976 . S
Fe171 O189 2.002 . S
O172 Fe170 1.918 . S
O172 Fe171 1.918 . S
O172 Fe173 1.918 . S
Fe173 O172 1.918 . S
Fe173 O174 2.002 . S
Fe173 O183 1.976 . S
Fe173 O187 1.996 . S
Fe173 O190 1.997 . S
O174 Fe173 2.002 . S
O174 C191 1.295 . S
O175 Fe170 1.997 . S
O175 C191 1.235 . S
O176 Fe170 2.002 . S
O176 C177 1.295 . S
C177 O176 1.295 . S
C177 O179 1.235 . S
C178 O183 1.287 . S
C178 O184 1.255 . S
O179 Fe171 1.997 . S
O179 C177 1.235 . S
C180 O186 1.287 . S
C180 O187 1.255 . S
O181 Fe170 1.976 . S
O181 C188 1.287 . S
O182 Fe171 1.996 . S
O182 C188 1.255 . S
O183 Fe173 1.976 . S
O183 C178 1.287 . S
O184 Fe170 1.996 . S
O184 C178 1.255 . S
C185 O189 1.295 . S
C185 O190 1.235 . S
O186 Fe171 1.976 . S
O186 C180 1.287 . S
O187 Fe173 1.996 . S
O187 C180 1.255 . S
C188 O181 1.287 . S
C188 O182 1.255 . S
O189 Fe171 2.002 . S
O189 C185 1.295 . S
O190 Fe173 1.997 . S
O190 C185 1.235 . S
C191 O174 1.295 . S
C191 O175 1.235 . S
H192 C200 0.950 . S
H193 C205 0.950 . S
H194 C202 0.950 . S
H195 C204 0.950 . S
H196 C206 0.950 . S
H197 C208 0.950 . S
H198 C210 0.950 . S
H199 C211 0.950 . S
C200 H192 0.950 . S
C200 C201 1.386 . S
C200 C202 1.391 . S
C201 C200 1.386 . S
C201 C205 1.393 . S
C202 H194 0.950 . S
C202 C200 1.391 . S
C202 C203 1.400 . S
C203 C202 1.400 . S
C203 C204 1.398 . S
C203 C209 1.491 . S
C204 H195 0.950 . S
C204 C203 1.398 . S
C204 C205 1.391 . S
C205 H193 0.950 . S
C205 C201 1.393 . S
C205 C204 1.391 . S
C206 H196 0.950 . S
C206 C207 1.386 . S
C206 C208 1.391 . S
C207 C206 1.386 . S
C207 C211 1.393 . S
C208 H197 0.950 . S
C208 C206 1.391 . S
C208 C209 1.400 . S
C209 C203 1.491 . S
C209 C208 1.400 . S
C209 C210 1.398 . S
C210 H198 0.950 . S
C210 C209 1.398 . S
C210 C211 1.391 . S
C211 H199 0.950 . S
C211 C207 1.393 . S
C211 C210 1.391 . S
H212 C220 0.950 . S
H213 C225 0.950 . S
H214 C222 0.950 . S
H215 C224 0.950 . S
H216 C226 0.950 . S
H217 C228 0.950 . S
H218 C230 0.950 . S
H219 C231 0.950 . S
C220 H212 0.950 . S
C220 C221 1.386 . S
C220 C222 1.391 . S
C221 C220 1.386 . S
C221 C225 1.393 . S
C222 H214 0.950 . S
C222 C220 1.391 . S
C222 C223 1.400 . S
C223 C222 1.400 . S
C223 C224 1.398 . S
C223 C229 1.491 . S
C224 H215 0.950 . S
C224 C223 1.398 . S
C224 C225 1.391 . S
C225 H213 0.950 . S
C225 C221 1.393 . S
C225 C224 1.391 . S
C226 H216 0.950 . S
C226 C227 1.386 . S
C226 C228 1.391 . S
C227 C226 1.386 . S
C227 C231 1.393 . S
C228 H217 0.950 . S
C228 C226 1.391 . S
C228 C229 1.400 . S
C229 C223 1.491 . S
C229 C228 1.400 . S
C229 C230 1.398 . S
C230 H218 0.950 . S
C230 C229 1.398 . S
C230 C231 1.391 . S
C231 H219 0.950 . S
C231 C227 1.393 . S
C231 C230 1.391 . S
H232 C240 0.950 1_554 S
H233 C245 0.950 . S
H234 C242 0.950 . S
H235 C244 0.950 . S
H236 C246 0.950 . S
H237 C248 0.950 . S
H238 C250 0.950 . S
H239 C251 0.950 . S
C240 H232 0.950 1_556 S
C240 C241 1.386 . S
C240 C242 1.391 . S
C241 C240 1.386 . S
C241 C245 1.393 . S
C242 H234 0.950 . S
C242 C240 1.391 . S
C242 C243 1.400 . S
C243 C242 1.400 . S
C243 C244 1.398 . S
C243 C249 1.491 . S
C244 H235 0.950 . S
C244 C243 1.398 . S
C244 C245 1.391 . S
C245 H233 0.950 . S
C245 C241 1.393 . S
C245 C244 1.391 . S
C246 H236 0.950 . S
C246 C247 1.386 . S
C246 C248 1.391 . S
C247 C246 1.386 . S
C247 C251 1.393 . S
C248 H237 0.950 . S
C248 C246 1.391 . S
C248 C249 1.400 . S
C249 C243 1.491 . S
C249 C248 1.400 . S
C249 C250 1.398 . S
C250 H238 0.950 . S
C250 C249 1.398 . S
C250 C251 1.391 . S
C251 H239 0.950 . S
C251 C247 1.393 . S
C251 C250 1.391 . S
H252 C260 0.950 . S
H253 C265 0.950 . S
H254 C262 0.950 . S
H255 C264 0.950 . S
H256 C266 0.950 . S
H257 C268 0.950 . S
H258 C270 0.950 . S
H259 C271 0.950 . S
C260 H252 0.950 . S
C260 C261 1.386 . S
C260 C262 1.391 . S
C261 C260 1.386 . S
C261 C265 1.393 . S
C262 H254 0.950 . S
C262 C260 1.391 . S
C262 C263 1.400 . S
C263 C262 1.400 . S
C263 C264 1.398 . S
C263 C269 1.491 . S
C264 H255 0.950 . S
C264 C263 1.398 . S
C264 C265 1.391 . S
C265 H253 0.950 . S
C265 C261 1.393 . S
C265 C264 1.391 . S
C266 H256 0.950 . S
C266 C267 1.386 . S
C266 C268 1.391 . S
C267 C266 1.386 . S
C267 C271 1.393 . S
C268 H257 0.950 . S
C268 C266 1.391 . S
C268 C269 1.400 . S
C269 C263 1.491 . S
C269 C268 1.400 . S
C269 C270 1.398 . S
C270 H258 0.950 . S
C270 C269 1.398 . S
C270 C271 1.391 . S
C271 H259 0.950 . S
C271 C267 1.393 . S
C271 C270 1.391 . S
H272 C280 0.950 . S
H273 C285 0.950 . S
H274 C282 0.950 . S
H275 C284 0.950 . S
H276 C286 0.950 . S
H277 C288 0.950 . S
H278 C290 0.950 . S
H279 C291 0.950 . S
C280 H272 0.950 . S
C280 C281 1.386 . S
C280 C282 1.391 . S
C281 C280 1.386 . S
C281 C285 1.393 . S
C282 H274 0.950 . S
C282 C280 1.391 . S
C282 C283 1.400 . S
C283 C282 1.400 . S
C283 C284 1.398 . S
C283 C289 1.491 . S
C284 H275 0.950 . S
C284 C283 1.398 . S
C284 C285 1.391 . S
C285 H273 0.950 . S
C285 C281 1.393 . S
C285 C284 1.391 . S
C286 H276 0.950 . S
C286 C287 1.386 . S
C286 C288 1.391 . S
C287 C286 1.386 . S
C287 C291 1.393 . S
C288 H277 0.950 . S
C288 C286 1.391 . S
C288 C289 1.400 . S
C289 C283 1.491 . S
C289 C288 1.400 . S
C289 C290 1.398 . S
C290 H278 0.950 . S
C290 C289 1.398 . S
C290 C291 1.391 . S
C291 H279 0.950 . S
C291 C287 1.393 . S
C291 C290 1.391 . S
H292 C300 0.950 . S
H293 C305 0.950 . S
H294 C302 0.950 . S
H295 C304 0.950 . S
H296 C306 0.950 . S
H297 C308 0.950 . S
H298 C310 0.950 . S
H299 C311 0.950 . S
C300 H292 0.950 . S
C300 C301 1.386 . S
C300 C302 1.391 . S
C301 C300 1.386 . S
C301 C305 1.393 . S
C302 H294 0.950 . S
C302 C300 1.391 . S
C302 C303 1.400 . S
C303 C302 1.400 . S
C303 C304 1.398 . S
C303 C309 1.491 . S
C304 H295 0.950 . S
C304 C303 1.398 . S
C304 C305 1.391 . S
C305 H293 0.950 . S
C305 C301 1.393 . S
C305 C304 1.391 . S
C306 H296 0.950 . S
C306 C307 1.386 . S
C306 C308 1.391 . S
C307 C306 1.386 . S
C307 C311 1.393 . S
C308 H297 0.950 . S
C308 C306 1.391 . S
C308 C309 1.400 . S
C309 C303 1.491 . S
C309 C308 1.400 . S
C309 C310 1.398 . S
C310 H298 0.950 . S
C310 C309 1.398 . S
C310 C311 1.391 . S
C311 H299 0.950 . S
C311 C307 1.393 . S
C311 C310 1.391 . S
H312 C320 0.950 . S
H313 C325 0.950 1_554 S
H314 C322 0.950 . S
H315 C324 0.950 . S
H316 C326 0.950 . S
H317 C328 0.950 . S
H318 C330 0.950 . S
H319 C331 0.950 . S
C320 H312 0.950 . S
C320 C321 1.386 . S
C320 C322 1.391 . S
C321 C320 1.386 . S
C321 C325 1.393 . S
C322 H314 0.950 . S
C322 C320 1.391 . S
C322 C323 1.400 . S
C323 C322 1.400 . S
C323 C324 1.398 . S
C323 C329 1.491 . S
C324 H315 0.950 . S
C324 C323 1.398 . S
C324 C325 1.391 . S
C325 H313 0.950 1_556 S
C325 C321 1.393 . S
C325 C324 1.391 . S
C326 H316 0.950 . S
C326 C327 1.386 . S
C326 C328 1.391 . S
C327 C326 1.386 . S
C327 C331 1.393 . S
C328 H317 0.950 . S
C328 C326 1.391 . S
C328 C329 1.400 . S
C329 C323 1.491 . S
C329 C328 1.400 . S
C329 C330 1.398 . S
C330 H318 0.950 . S
C330 C329 1.398 . S
C330 C331 1.391 . S
C331 H319 0.950 . S
C331 C327 1.393 . S
C331 C330 1.391 . S
H332 C340 0.950 . S
H333 C345 0.950 . S
H334 C342 0.950 . S
H335 C344 0.950 . S
H336 C346 0.950 . S
H337 C348 0.950 . S
H338 C350 0.950 . S
H339 C351 0.950 . S
C340 H332 0.950 . S
C340 C341 1.386 . S
C340 C342 1.391 . S
C341 C340 1.386 . S
C341 C345 1.393 . S
C342 H334 0.950 . S
C342 C340 1.391 . S
C342 C343 1.400 . S
C343 C342 1.400 . S
C343 C344 1.398 . S
C343 C349 1.491 . S
C344 H335 0.950 . S
C344 C343 1.398 . S
C344 C345 1.391 . S
C345 H333 0.950 . S
C345 C341 1.393 . S
C345 C344 1.391 . S
C346 H336 0.950 . S
C346 C347 1.386 . S
C346 C348 1.391 . S
C347 C346 1.386 . S
C347 C351 1.393 . S
C348 H337 0.950 . S
C348 C346 1.391 . S
C348 C349 1.400 . S
C349 C343 1.491 . S
C349 C348 1.400 . S
C349 C350 1.398 . S
C350 H338 0.950 . S
C350 C349 1.398 . S
C350 C351 1.391 . S
C351 H339 0.950 . S
C351 C347 1.393 . S
C351 C350 1.391 . S
H352 C360 0.950 . S
H353 C365 0.950 . S
H354 C362 0.950 . S
H355 C364 0.950 . S
H356 C366 0.950 . S
H357 C368 0.950 . S
H358 C370 0.950 . S
H359 C371 0.950 . S
C360 H352 0.950 . S
C360 C361 1.386 . S
C360 C362 1.391 . S
C361 C360 1.386 . S
C361 C365 1.393 . S
C362 H354 0.950 . S
C362 C360 1.391 . S
C362 C363 1.400 . S
C363 C362 1.400 . S
C363 C364 1.398 . S
C363 C369 1.491 . S
C364 H355 0.950 . S
C364 C363 1.398 . S
C364 C365 1.391 . S
C365 H353 0.950 . S
C365 C361 1.393 . S
C365 C364 1.391 . S
C366 H356 0.950 . S
C366 C367 1.386 . S
C366 C368 1.391 . S
C367 C366 1.386 . S
C367 C371 1.393 . S
C368 H357 0.950 . S
C368 C366 1.391 . S
C368 C369 1.400 . S
C369 C363 1.491 . S
C369 C368 1.400 . S
C369 C370 1.398 . S
C370 H358 0.950 . S
C370 C369 1.398 . S
C370 C371 1.391 . S
C371 H359 0.950 . S
C371 C367 1.393 . S
C371 C370 1.391 . S
H372 C380 0.950 . S
H373 C385 0.950 . S
H374 C382 0.950 . S
H375 C384 0.950 . S
H376 C386 0.950 . S
H377 C388 0.950 . S
H378 C390 0.950 . S
H379 C391 0.950 . S
C380 H372 0.950 . S
C380 C381 1.386 . S
C380 C382 1.391 . S
C381 C380 1.386 . S
C381 C385 1.393 . S
C382 H374 0.950 . S
C382 C380 1.391 . S
C382 C383 1.400 . S
C383 C382 1.400 . S
C383 C384 1.398 . S
C383 C389 1.491 . S
C384 H375 0.950 . S
C384 C383 1.398 . S
C384 C385 1.391 . S
C385 H373 0.950 . S
C385 C381 1.393 . S
C385 C384 1.391 . S
C386 H376 0.950 . S
C386 C387 1.386 . S
C386 C388 1.391 . S
C387 C386 1.386 . S
C387 C391 1.393 . S
C388 H377 0.950 . S
C388 C386 1.391 . S
C388 C389 1.400 . S
C389 C383 1.491 . S
C389 C388 1.400 . S
C389 C390 1.398 . S
C390 H378 0.950 . S
C390 C389 1.398 . S
C390 C391 1.391 . S
C391 H379 0.950 . S
C391 C387 1.393 . S
C391 C390 1.391 . S
H392 C400 0.950 . S
H393 C405 0.950 . S
H394 C402 0.950 . S
H395 C404 0.950 . S
H396 C406 0.950 . S
H397 C408 0.950 . S
H398 C410 0.950 . S
H399 C411 0.950 . S
C400 H392 0.950 . S
C400 C401 1.386 . S
C400 C402 1.391 . S
C401 C400 1.386 . S
C401 C405 1.393 . S
C402 H394 0.950 . S
C402 C400 1.391 . S
C402 C403 1.400 . S
C403 C402 1.400 . S
C403 C404 1.398 . S
C403 C409 1.491 . S
C404 H395 0.950 . S
C404 C403 1.398 . S
C404 C405 1.391 . S
C405 H393 0.950 . S
C405 C401 1.393 . S
C405 C404 1.391 . S
C406 H396 0.950 . S
C406 C407 1.386 . S
C406 C408 1.391 . S
C407 C406 1.386 . S
C407 C411 1.393 . S
C408 H397 0.950 . S
C408 C406 1.391 . S
C408 C409 1.400 . S
C409 C403 1.491 . S
C409 C408 1.400 . S
C409 C410 1.398 . S
C410 H398 0.950 . S
C410 C409 1.398 . S
C410 C411 1.391 . S
C411 H399 0.950 . S
C411 C407 1.393 . S
C411 C410 1.391 . S
H412 C420 0.950 . S
H413 C425 0.950 . S
H414 C422 0.950 . S
H415 C424 0.950 . S
H416 C426 0.950 . S
H417 C428 0.950 . S
H418 C430 0.950 . S
H419 C431 0.950 . S
C420 H412 0.950 . S
C420 C421 1.386 . S
C420 C422 1.391 . S
C421 C420 1.386 . S
C421 C425 1.393 . S
C422 H414 0.950 . S
C422 C420 1.391 . S
C422 C423 1.400 . S
C423 C422 1.400 . S
C423 C424 1.398 . S
C423 C429 1.491 . S
C424 H415 0.950 . S
C424 C423 1.398 . S
C424 C425 1.391 . S
C425 H413 0.950 . S
C425 C421 1.393 . S
C425 C424 1.391 . S
C426 H416 0.950 . S
C426 C427 1.386 . S
C426 C428 1.391 . S
C427 C426 1.386 . S
C427 C431 1.393 . S
C428 H417 0.950 . S
C428 C426 1.391 . S
C428 C429 1.400 . S
C429 C423 1.491 . S
C429 C428 1.400 . S
C429 C430 1.398 . S
C430 H418 0.950 . S
C430 C429 1.398 . S
C430 C431 1.391 . S
C431 H419 0.950 . S
C431 C427 1.393 . S
C431 C430 1.391 . S
H432 C440 0.950 . S
H433 C445 0.950 1_554 S
H434 C442 0.950 . S
H435 C444 0.950 . S
H436 C446 0.950 . S
H437 C448 0.950 . S
H438 C450 0.950 . S
H439 C451 0.950 . S
C440 H432 0.950 . S
C440 C441 1.386 . S
C440 C442 1.391 . S
C441 C440 1.386 . S
C441 C445 1.393 . S
C442 H434 0.950 . S
C442 C440 1.391 . S
C442 C443 1.400 . S
C443 C442 1.400 . S
C443 C444 1.398 . S
C443 C449 1.491 1_565 S
C444 H435 0.950 . S
C444 C443 1.398 . S
C444 C445 1.391 . S
C445 H433 0.950 1_556 S
C445 C441 1.393 . S
C445 C444 1.391 . S
C446 H436 0.950 . S
C446 C447 1.386 . S
C446 C448 1.391 . S
C447 C446 1.386 . S
C447 C451 1.393 . S
C448 H437 0.950 . S
C448 C446 1.391 . S
C448 C449 1.400 . S
C449 C443 1.491 1_545 S
C449 C448 1.400 . S
C449 C450 1.398 . S
C450 H438 0.950 . S
C450 C449 1.398 . S
C450 C451 1.391 . S
C451 H439 0.950 . S
C451 C447 1.393 . S
C451 C450 1.391 . S
H452 C460 0.950 . S
H453 C465 0.950 . S
H454 C462 0.950 . S
H455 C464 0.950 1_565 S
H456 C466 0.950 . S
H457 C468 0.950 . S
H458 C470 0.950 . S
H459 C471 0.950 . S
C460 H452 0.950 . S
C460 C461 1.386 . S
C460 C462 1.391 . S
C461 C460 1.386 . S
C461 C465 1.393 . S
C462 H454 0.950 . S
C462 C460 1.391 . S
C462 C463 1.400 . S
C463 C462 1.400 . S
C463 C464 1.398 . S
C463 C469 1.491 1_545 S
C464 H455 0.950 1_545 S
C464 C463 1.398 . S
C464 C465 1.391 . S
C465 H453 0.950 . S
C465 C461 1.393 . S
C465 C464 1.391 . S
C466 H456 0.950 . S
C466 C467 1.386 . S
C466 C468 1.391 . S
C467 C466 1.386 . S
C467 C471 1.393 . S
C468 H457 0.950 . S
C468 C466 1.391 . S
C468 C469 1.400 . S
C469 C463 1.491 1_565 S
C469 C468 1.400 . S
C469 C470 1.398 1_565 S
C470 H458 0.950 . S
C470 C469 1.398 1_545 S
C470 C471 1.391 1_545 S
C471 H459 0.950 . S
C471 C467 1.393 . S
C471 C470 1.391 1_565 S
H472 C480 0.950 1_554 S
H473 C485 0.950 . S
H474 C482 0.950 . S
H475 C484 0.950 . S
H476 C486 0.950 . S
H477 C488 0.950 . S
H478 C490 0.950 . S
H479 C491 0.950 . S
C480 H472 0.950 1_556 S
C480 C481 1.386 . S
C480 C482 1.391 . S
C481 C480 1.386 . S
C481 C485 1.393 . S
C482 H474 0.950 . S
C482 C480 1.391 . S
C482 C483 1.400 . S
C483 C482 1.400 . S
C483 C484 1.398 . S
C483 C489 1.491 1_565 S
C484 H475 0.950 . S
C484 C483 1.398 . S
C484 C485 1.391 . S
C485 H473 0.950 . S
C485 C481 1.393 . S
C485 C484 1.391 . S
C486 H476 0.950 . S
C486 C487 1.386 . S
C486 C488 1.391 . S
C487 C486 1.386 . S
C487 C491 1.393 . S
C488 H477 0.950 . S
C488 C486 1.391 . S
C488 C489 1.400 . S
C489 C483 1.491 1_545 S
C489 C488 1.400 . S
C489 C490 1.398 . S
C490 H478 0.950 . S
C490 C489 1.398 . S
C490 C491 1.391 . S
C491 H479 0.950 . S
C491 C487 1.393 . S
C491 C490 1.391 . S
H492 C500 0.950 . S
H493 C505 0.950 . S
H494 C502 0.950 . S
H495 C504 0.950 . S
H496 C506 0.950 . S
H497 C508 0.950 . S
H498 C510 0.950 . S
H499 C511 0.950 . S
C500 H492 0.950 . S
C500 C501 1.386 . S
C500 C502 1.391 . S
C501 C500 1.386 . S
C501 C505 1.393 . S
C502 H494 0.950 . S
C502 C500 1.391 . S
C502 C503 1.400 . S
C503 C502 1.400 . S
C503 C504 1.398 . S
C503 C509 1.491 1_545 S
C504 H495 0.950 . S
C504 C503 1.398 . S
C504 C505 1.391 . S
C505 H493 0.950 . S
C505 C501 1.393 . S
C505 C504 1.391 . S
C506 H496 0.950 . S
C506 C507 1.386 . S
C506 C508 1.391 . S
C507 C506 1.386 . S
C507 C511 1.393 . S
C508 H497 0.950 . S
C508 C506 1.391 . S
C508 C509 1.400 . S
C509 C503 1.491 1_565 S
C509 C508 1.400 . S
C509 C510 1.398 . S
C510 H498 0.950 . S
C510 C509 1.398 . S
C510 C511 1.391 . S
C511 H499 0.950 . S
C511 C507 1.393 . S
C511 C510 1.391 . S
H512 C520 0.950 . S
H513 C525 0.950 . S
H514 C522 0.950 . S
H515 C524 0.950 . S
H516 C526 0.950 . S
H517 C528 0.950 . S
H518 C530 0.950 . S
H519 C531 0.950 . S
C520 H512 0.950 . S
C520 C521 1.386 . S
C520 C522 1.391 . S
C521 C520 1.386 . S
C521 C525 1.393 . S
C522 H514 0.950 . S
C522 C520 1.391 . S
C522 C523 1.400 . S
C523 C522 1.400 . S
C523 C524 1.398 . S
C523 C529 1.491 . S
C524 H515 0.950 . S
C524 C523 1.398 . S
C524 C525 1.391 . S
C525 H513 0.950 . S
C525 C521 1.393 . S
C525 C524 1.391 . S
C526 H516 0.950 . S
C526 C527 1.386 . S
C526 C528 1.391 . S
C527 C526 1.386 . S
C527 C531 1.393 . S
C528 H517 0.950 . S
C528 C526 1.391 . S
C528 C529 1.400 . S
C529 C523 1.491 . S
C529 C528 1.400 . S
C529 C530 1.398 . S
C530 H518 0.950 . S
C530 C529 1.398 . S
C530 C531 1.391 . S
C531 H519 0.950 . S
C531 C527 1.393 . S
C531 C530 1.391 . S
H532 C540 0.950 . S
H533 C545 0.950 . S
H534 C542 0.950 . S
H535 C544 0.950 . S
H536 C546 0.950 . S
H537 C548 0.950 . S
H538 C550 0.950 . S
H539 C551 0.950 . S
C540 H532 0.950 . S
C540 C541 1.386 . S
C540 C542 1.391 . S
C541 C540 1.386 . S
C541 C545 1.393 . S
C542 H534 0.950 . S
C542 C540 1.391 . S
C542 C543 1.400 . S
C543 C542 1.400 . S
C543 C544 1.398 . S
C543 C549 1.491 . S
C544 H535 0.950 . S
C544 C543 1.398 . S
C544 C545 1.391 . S
C545 H533 0.950 . S
C545 C541 1.393 . S
C545 C544 1.391 . S
C546 H536 0.950 . S
C546 C547 1.386 . S
C546 C548 1.391 . S
C547 C546 1.386 . S
C547 C551 1.393 . S
C548 H537 0.950 . S
C548 C546 1.391 . S
C548 C549 1.400 . S
C549 C543 1.491 . S
C549 C548 1.400 . S
C549 C550 1.398 . S
C550 H538 0.950 . S
C550 C549 1.398 . S
C550 C551 1.391 . S
C551 H539 0.950 . S
C551 C547 1.393 . S
C551 C550 1.391 . S
H552 C560 0.950 . S
H553 C565 0.950 . S
H554 C562 0.950 . S
H555 C564 0.950 . S
H556 C566 0.950 . S
H557 C568 0.950 . S
H558 C570 0.950 . S
H559 C571 0.950 . S
C560 H552 0.950 . S
C560 C561 1.386 . S
C560 C562 1.391 . S
C561 C560 1.386 . S
C561 C565 1.393 . S
C562 H554 0.950 . S
C562 C560 1.391 . S
C562 C563 1.400 . S
C563 C562 1.400 . S
C563 C564 1.398 . S
C563 C569 1.491 . S
C564 H555 0.950 . S
C564 C563 1.398 . S
C564 C565 1.391 . S
C565 H553 0.950 . S
C565 C561 1.393 . S
C565 C564 1.391 . S
C566 H556 0.950 . S
C566 C567 1.386 . S
C566 C568 1.391 . S
C567 C566 1.386 . S
C567 C571 1.393 . S
C568 H557 0.950 . S
C568 C566 1.391 . S
C568 C569 1.400 . S
C569 C563 1.491 . S
C569 C568 1.400 . S
C569 C570 1.398 . S
C570 H558 0.950 . S
C570 C569 1.398 . S
C570 C571 1.391 . S
C571 H559 0.950 . S
C571 C567 1.393 . S
C571 C570 1.391 . S
H572 C580 0.950 . S
H573 C585 0.950 . S
H574 C582 0.950 . S
H575 C584 0.950 . S
H576 C586 0.950 . S
H577 C588 0.950 . S
H578 C590 0.950 . S
H579 C591 0.950 . S
C580 H572 0.950 . S
C580 C581 1.386 . S
C580 C582 1.391 . S
C581 C580 1.386 . S
C581 C585 1.393 . S
C582 H574 0.950 . S
C582 C580 1.391 . S
C582 C583 1.400 . S
C583 C582 1.400 . S
C583 C584 1.398 . S
C583 C589 1.491 . S
C584 H575 0.950 . S
C584 C583 1.398 . S
C584 C585 1.391 . S
C585 H573 0.950 . S
C585 C581 1.393 . S
C585 C584 1.391 . S
C586 H576 0.950 . S
C586 C587 1.386 . S
C586 C588 1.391 . S
C587 C586 1.386 . S
C587 C591 1.393 . S
C588 H577 0.950 . S
C588 C586 1.391 . S
C588 C589 1.400 . S
C589 C583 1.491 . S
C589 C588 1.400 . S
C589 C590 1.398 . S
C590 H578 0.950 . S
C590 C589 1.398 . S
C590 C591 1.391 . S
C591 H579 0.950 . S
C591 C587 1.393 . S
C591 C590 1.391 . S
H592 C600 0.950 . S
H593 C605 0.950 . S
H594 C602 0.950 . S
H595 C604 0.950 . S
H596 C606 0.950 . S
H597 C608 0.950 . S
H598 C610 0.950 . S
H599 C611 0.950 . S
C600 H592 0.950 . S
C600 C601 1.386 . S
C600 C602 1.391 . S
C601 C600 1.386 . S
C601 C605 1.393 . S
C602 H594 0.950 . S
C602 C600 1.391 . S
C602 C603 1.400 . S
C603 C602 1.400 . S
C603 C604 1.398 . S
C603 C609 1.491 . S
C604 H595 0.950 . S
C604 C603 1.398 . S
C604 C605 1.391 . S
C605 H593 0.950 . S
C605 C601 1.393 . S
C605 C604 1.391 . S
C606 H596 0.950 . S
C606 C607 1.386 . S
C606 C608 1.391 . S
C607 C606 1.386 . S
C607 C611 1.393 . S
C608 H597 0.950 . S
C608 C606 1.391 . S
C608 C609 1.400 . S
C609 C603 1.491 . S
C609 C608 1.400 . S
C609 C610 1.398 . S
C610 H598 0.950 . S
C610 C609 1.398 . S
C610 C611 1.391 . S
C611 H599 0.950 . S
C611 C607 1.393 . S
C611 C610 1.391 . S
H612 C620 0.950 . S
H613 C625 0.950 . S
H614 C622 0.950 . S
H615 C624 0.950 . S
H616 C626 0.950 . S
H617 C628 0.950 . S
H618 C630 0.950 . S
H619 C631 0.950 . S
C620 H612 0.950 . S
C620 C621 1.386 . S
C620 C622 1.391 . S
C621 C620 1.386 . S
C621 C625 1.393 . S
C622 H614 0.950 . S
C622 C620 1.391 . S
C622 C623 1.400 . S
C623 C622 1.400 . S
C623 C624 1.398 . S
C623 C629 1.491 . S
C624 H615 0.950 . S
C624 C623 1.398 . S
C624 C625 1.391 . S
C625 H613 0.950 . S
C625 C621 1.393 . S
C625 C624 1.391 . S
C626 H616 0.950 . S
C626 C627 1.386 . S
C626 C628 1.391 . S
C627 C626 1.386 . S
C627 C631 1.393 . S
C628 H617 0.950 . S
C628 C626 1.391 . S
C628 C629 1.400 . S
C629 C623 1.491 . S
C629 C628 1.400 . S
C629 C630 1.398 . S
C630 H618 0.950 . S
C630 C629 1.398 . S
C630 C631 1.391 . S
C631 H619 0.950 . S
C631 C627 1.393 . S
C631 C630 1.391 . S
H632 C640 0.950 . S
H633 C645 0.950 . S
H634 C642 0.950 . S
H635 C644 0.950 . S
H636 C646 0.950 . S
H637 C648 0.950 . S
H638 C650 0.950 . S
H639 C651 0.950 . S
C640 H632 0.950 . S
C640 C641 1.386 . S
C640 C642 1.391 . S
C641 C640 1.386 . S
C641 C645 1.393 . S
C642 H634 0.950 . S
C642 C640 1.391 . S
C642 C643 1.400 . S
C643 C642 1.400 . S
C643 C644 1.398 . S
C643 C649 1.491 . S
C644 H635 0.950 . S
C644 C643 1.398 . S
C644 C645 1.391 . S
C645 H633 0.950 . S
C645 C641 1.393 . S
C645 C644 1.391 . S
C646 H636 0.950 . S
C646 C647 1.386 . S
C646 C648 1.391 . S
C647 C646 1.386 . S
C647 C651 1.393 . S
C648 H637 0.950 . S
C648 C646 1.391 . S
C648 C649 1.400 . S
C649 C643 1.491 . S
C649 C648 1.400 . S
C649 C650 1.398 . S
C650 H638 0.950 . S
C650 C649 1.398 . S
C650 C651 1.391 . S
C651 H639 0.950 . S
C651 C647 1.393 . S
C651 C650 1.391 . S
H652 C660 0.950 . S
H653 C665 0.950 . S
H654 C662 0.950 . S
H655 C664 0.950 . S
H656 C666 0.950 . S
H657 C668 0.950 . S
H658 C670 0.950 . S
H659 C671 0.950 . S
C660 H652 0.950 . S
C660 C661 1.386 . S
C660 C662 1.391 . S
C661 C660 1.386 . S
C661 C665 1.393 . S
C662 H654 0.950 . S
C662 C660 1.391 . S
C662 C663 1.400 . S
C663 C662 1.400 . S
C663 C664 1.398 . S
C663 C669 1.491 . S
C664 H655 0.950 . S
C664 C663 1.398 . S
C664 C665 1.391 . S
C665 H653 0.950 . S
C665 C661 1.393 . S
C665 C664 1.391 . S
C666 H656 0.950 . S
C666 C667 1.386 . S
C666 C668 1.391 . S
C667 C666 1.386 . S
C667 C671 1.393 . S
C668 H657 0.950 . S
C668 C666 1.391 . S
C668 C669 1.400 . S
C669 C663 1.491 . S
C669 C668 1.400 . S
C669 C670 1.398 . S
C670 H658 0.950 . S
C670 C669 1.398 . S
C670 C671 1.391 . S
C671 H659 0.950 . S
C671 C667 1.393 . S
C671 C670 1.391 . S
C201 C4 1.529 . S
C207 C147 1.603 . S
C227 C111 1.482 . S
C221 C17 1.459 . S
C247 C134 1.472 . S
C241 C30 1.386 . S
C267 C122 1.608 . S
C261 C43 1.580 . S
C287 C191 1.606 . S
C281 C56 1.534 . S
C307 C155 1.477 . S
C301 C69 1.468 . S
C321 C82 1.416 . S
C327 C178 1.478 . S
C347 C166 1.607 . S
C341 C95 1.567 . S
C361 C9 1.549 . S
C367 C188 1.573 . S
C387 C158 1.446 . S
C381 C21 1.443 . S
C401 C34 1.465 . S
C407 C177 1.460 . S
C421 C48 1.564 . S
C427 C163 1.594 . S
C447 C144 1.571 . S
C441 C61 1.545 . S
C461 C73 1.444 . S
C467 C114 1.446 . S
C487 C133 1.461 . S
C481 C86 1.467 . S
C507 C119 1.588 . S
C501 C100 1.572 . S
C527 C169 1.525 . S
C521 C8 1.527 . S
C547 C185 1.528 . S
C541 C22 1.520 . S
C561 C35 1.469 . S
C567 C156 1.509 . S
C587 C180 1.501 . S
C581 C47 1.497 . S
C607 C125 1.528 . S
C601 C60 1.524 . S
C621 C74 1.519 . S
C627 C141 1.529 . S
C641 C87 1.472 . S
C647 C112 1.508 . S
C661 C99 1.491 . S
C667 C136 1.503 . S
