# Generated by pormake.
# Topology eea, (3,6)-cn, num edge types: 1
# Building blocks:
#     Node 0, Type 0, BuildingBlock: QEWDON_clean_linker_0, # of connection points: 3
#     Node 1, Type 0, BuildingBlock: QEWDON_clean_linker_0, # of connection points: 3
#     Node 2, Type 0, BuildingBlock: QEWDON_clean_linker_0, # of connection points: 3
#     Node 3, Type 0, BuildingBlock: QEWDON_clean_linker_0, # of connection points: 3
#     Node 4, Type 0, BuildingBlock: QEWDON_clean_linker_0, # of connection points: 3
#     Node 5, Type 0, BuildingBlock: QEWDON_clean_linker_0, # of connection points: 3
#     Node 6, Type 0, BuildingBlock: QEWDON_clean_linker_0, # of connection points: 3
#     Node 7, Type 0, BuildingBlock: QEWDON_clean_linker_0, # of connection points: 3
#     Node 8, Type 0, BuildingBlock: QEWDON_clean_linker_0, # of connection points: 3
#     Node 9, Type 0, BuildingBlock: QEWDON_clean_linker_0, # of connection points: 3
#     Node 10, Type 0, BuildingBlock: QEWDON_clean_linker_0, # of connection points: 3
#     Node 11, Type 0, BuildingBlock: QEWDON_clean_linker_0, # of connection points: 3
#     Node 12, Type 0, BuildingBlock: QEWDON_clean_linker_0, # of connection points: 3
#     Node 13, Type 0, BuildingBlock: QEWDON_clean_linker_0, # of connection points: 3
#     Node 14, Type 0, BuildingBlock: QEWDON_clean_linker_0, # of connection points: 3
#     Node 15, Type 0, BuildingBlock: QEWDON_clean_linker_0, # of connection points: 3
#     Node 16, Type 0, BuildingBlock: QEWDON_clean_linker_0, # of connection points: 3
#     Node 17, Type 0, BuildingBlock: QEWDON_clean_linker_0, # of connection points: 3
#     Node 18, Type 1, BuildingBlock: KUMJIN_clean_sbu_0, # of connection points: 6
#     Node 19, Type 1, BuildingBlock: KUMJIN_clean_sbu_0, # of connection points: 6
#     Node 20, Type 1, BuildingBlock: KUMJIN_clean_sbu_0, # of connection points: 6
#     Node 21, Type 1, BuildingBlock: KUMJIN_clean_sbu_0, # of connection points: 6
#     Node 22, Type 1, BuildingBlock: KUMJIN_clean_sbu_0, # of connection points: 6
#     Node 23, Type 1, BuildingBlock: KUMJIN_clean_sbu_0, # of connection points: 6
#     Node 24, Type 1, BuildingBlock: KUMJIN_clean_sbu_0, # of connection points: 6
#     Node 25, Type 1, BuildingBlock: KUMJIN_clean_sbu_0, # of connection points: 6
#     Node 26, Type 1, BuildingBlock: KUMJIN_clean_sbu_0, # of connection points: 6
#     Edge 27, Type (0, 1), BuildingBlock: XIVTED_clean_linker_0, # of connection points: 2
#     Edge 28, Type (0, 1), BuildingBlock: XIVTED_clean_linker_0, # of connection points: 2
#     Edge 29, Type (0, 1), BuildingBlock: XIVTED_clean_linker_0, # of connection points: 2
#     Edge 30, Type (0, 1), BuildingBlock: XIVTED_clean_linker_0, # of connection points: 2
#     Edge 31, Type (0, 1), BuildingBlock: XIVTED_clean_linker_0, # of connection points: 2
#     Edge 32, Type (0, 1), BuildingBlock: XIVTED_clean_linker_0, # of connection points: 2
#     Edge 33, Type (0, 1), BuildingBlock: XIVTED_clean_linker_0, # of connection points: 2
#     Edge 34, Type (0, 1), BuildingBlock: XIVTED_clean_linker_0, # of connection points: 2
#     Edge 35, Type (0, 1), BuildingBlock: XIVTED_clean_linker_0, # of connection points: 2
#     Edge 36, Type (0, 1), BuildingBlock: XIVTED_clean_linker_0, # of connection points: 2
#     Edge 37, Type (0, 1), BuildingBlock: XIVTED_clean_linker_0, # of connection points: 2
#     Edge 38, Type (0, 1), BuildingBlock: XIVTED_clean_linker_0, # of connection points: 2
#     Edge 39, Type (0, 1), BuildingBlock: XIVTED_clean_linker_0, # of connection points: 2
#     Edge 40, Type (0, 1), BuildingBlock: XIVTED_clean_linker_0, # of connection points: 2
#     Edge 41, Type (0, 1), BuildingBlock: XIVTED_clean_linker_0, # of connection points: 2
#     Edge 42, Type (0, 1), BuildingBlock: XIVTED_clean_linker_0, # of connection points: 2
#     Edge 43, Type (0, 1), BuildingBlock: XIVTED_clean_linker_0, # of connection points: 2
#     Edge 44, Type (0, 1), BuildingBlock: XIVTED_clean_linker_0, # of connection points: 2
#     Edge 45, Type (0, 1), BuildingBlock: XIVTED_clean_linker_0, # of connection points: 2
#     Edge 46, Type (0, 1), BuildingBlock: XIVTED_clean_linker_0, # of connection points: 2
#     Edge 47, Type (0, 1), BuildingBlock: XIVTED_clean_linker_0, # of connection points: 2
#     Edge 48, Type (0, 1), BuildingBlock: XIVTED_clean_linker_0, # of connection points: 2
#     Edge 49, Type (0, 1), BuildingBlock: XIVTED_clean_linker_0, # of connection points: 2
#     Edge 50, Type (0, 1), BuildingBlock: XIVTED_clean_linker_0, # of connection points: 2
#     Edge 51, Type (0, 1), BuildingBlock: XIVTED_clean_linker_0, # of connection points: 2
#     Edge 52, Type (0, 1), BuildingBlock: XIVTED_clean_linker_0, # of connection points: 2
#     Edge 53, Type (0, 1), BuildingBlock: XIVTED_clean_linker_0, # of connection points: 2
#     Edge 54, Type (0, 1), BuildingBlock: XIVTED_clean_linker_0, # of connection points: 2
#     Edge 55, Type (0, 1), BuildingBlock: XIVTED_clean_linker_0, # of connection points: 2
#     Edge 56, Type (0, 1), BuildingBlock: XIVTED_clean_linker_0, # of connection points: 2
#     Edge 57, Type (0, 1), BuildingBlock: XIVTED_clean_linker_0, # of connection points: 2
#     Edge 58, Type (0, 1), BuildingBlock: XIVTED_clean_linker_0, # of connection points: 2
#     Edge 59, Type (0, 1), BuildingBlock: XIVTED_clean_linker_0, # of connection points: 2
#     Edge 60, Type (0, 1), BuildingBlock: XIVTED_clean_linker_0, # of connection points: 2
#     Edge 61, Type (0, 1), BuildingBlock: XIVTED_clean_linker_0, # of connection points: 2
#     Edge 62, Type (0, 1), BuildingBlock: XIVTED_clean_linker_0, # of connection points: 2
#     Edge 63, Type (0, 1), BuildingBlock: XIVTED_clean_linker_0, # of connection points: 2
#     Edge 64, Type (0, 1), BuildingBlock: XIVTED_clean_linker_0, # of connection points: 2
#     Edge 65, Type (0, 1), BuildingBlock: XIVTED_clean_linker_0, # of connection points: 2
#     Edge 66, Type (0, 1), BuildingBlock: XIVTED_clean_linker_0, # of connection points: 2
#     Edge 67, Type (0, 1), BuildingBlock: XIVTED_clean_linker_0, # of connection points: 2
#     Edge 68, Type (0, 1), BuildingBlock: XIVTED_clean_linker_0, # of connection points: 2
#     Edge 69, Type (0, 1), BuildingBlock: XIVTED_clean_linker_0, # of connection points: 2
#     Edge 70, Type (0, 1), BuildingBlock: XIVTED_clean_linker_0, # of connection points: 2
#     Edge 71, Type (0, 1), BuildingBlock: XIVTED_clean_linker_0, # of connection points: 2
#     Edge 72, Type (0, 1), BuildingBlock: XIVTED_clean_linker_0, # of connection points: 2
#     Edge 73, Type (0, 1), BuildingBlock: XIVTED_clean_linker_0, # of connection points: 2
#     Edge 74, Type (0, 1), BuildingBlock: XIVTED_clean_linker_0, # of connection points: 2
#     Edge 75, Type (0, 1), BuildingBlock: XIVTED_clean_linker_0, # of connection points: 2
#     Edge 76, Type (0, 1), BuildingBlock: XIVTED_clean_linker_0, # of connection points: 2
#     Edge 77, Type (0, 1), BuildingBlock: XIVTED_clean_linker_0, # of connection points: 2
#     Edge 78, Type (0, 1), BuildingBlock: XIVTED_clean_linker_0, # of connection points: 2
#     Edge 79, Type (0, 1), BuildingBlock: XIVTED_clean_linker_0, # of connection points: 2
#     Edge 80, Type (0, 1), BuildingBlock: XIVTED_clean_linker_0, # of connection points: 2
# Relax obj value: 0.044
# Max RMSD: 0.209
# Mean RMSD: 0.150
data_MOF--net-eea--node1-KUMJIN_clean_sbu_0--node2-QEWDON_clean_linker_0--edge1-XIVTED_clean_linker_0
_symmetry_space_group_name_H-M    P1
_symmetry_Int_Tables_number       1
_symmetry_cell_setting            triclinic
loop_
_symmetry_equiv_pos_as_xyz
'x, y, z'
_cell_length_a     58.037863
_cell_length_b     59.514692
_cell_length_c     64.053683
_cell_angle_alpha  90.04446
_cell_angle_beta   90.030814
_cell_angle_gamma 119.87618
loop_
_atom_site_label
_atom_site_type_symbol
_atom_site_fract_x
_atom_site_fract_y
_atom_site_fract_z
_atom_type_partial_charge
H0 H 0.21753 0.12291 0.43178 0.0
C1 C 0.21702 0.10634 0.42427 0.0
C2 C 0.23639 0.09957 0.42917 0.0
C3 C 0.19629 0.09119 0.41037 0.0
H4 H 0.25014 0.07262 0.42303 0.0
C5 C 0.23529 0.07792 0.41931 0.0
C6 C 0.21466 0.06245 0.40537 0.0
C7 C 0.19524 0.06931 0.40101 0.0
C8 C 0.1746 0.09702 0.40676 0.0
H9 H 0.17883 0.0573 0.39071 0.0
C10 C 0.18014 0.12207 0.40101 0.0
C11 C 0.15927 0.12707 0.39694 0.0
C12 C 0.14804 0.07724 0.40897 0.0
H13 H 0.1433 0.05791 0.41363 0.0
C14 C 0.12735 0.08228 0.40543 0.0
H15 H 0.20057 0.13732 0.39895 0.0
C16 C 0.13286 0.10696 0.39939 0.0
H17 H 0.11641 0.11034 0.39665 0.0
H18 H 0.10695 0.06696 0.40728 0.0
H19 H 0.8975 0.09634 0.42424 0.0
C20 C 0.91346 0.11321 0.4167 0.0
C21 C 0.92276 0.13793 0.42548 0.0
C22 C 0.92517 0.11012 0.39851 0.0
H23 H 0.9519 0.17851 0.42305 0.0
C24 C 0.94391 0.15962 0.4158 0.0
C25 C 0.95585 0.15699 0.39758 0.0
C26 C 0.94613 0.13216 0.38898 0.0
C27 C 0.91675 0.08388 0.38996 0.0
H28 H 0.95492 0.12994 0.37476 0.0
C29 C 0.88964 0.06499 0.38774 0.0
C30 C 0.88234 0.04083 0.37852 0.0
C31 C 0.93622 0.07781 0.3836 0.0
H32 H 0.95716 0.09167 0.38551 0.0
C33 C 0.92896 0.05376 0.37479 0.0
H34 H 0.87435 0.06936 0.39239 0.0
C35 C 0.90223 0.03546 0.3721 0.0
H36 H 0.89702 0.01697 0.36504 0.0
H37 H 0.94413 0.04936 0.36992 0.0
H38 H 0.92434 0.8019 0.42461 0.0
C39 C 0.90692 0.8012 0.41779 0.0
C40 C 0.88253 0.78797 0.42842 0.0
C41 C 0.90911 0.81488 0.39922 0.0
H42 H 0.84134 0.77703 0.42833 0.0
C43 C 0.86008 0.78794 0.42022 0.0
C44 C 0.86152 0.80166 0.40196 0.0
C45 C 0.88603 0.81446 0.39133 0.0
C46 C 0.93567 0.83161 0.38901 0.0
H47 H 0.88735 0.82482 0.37713 0.0
C48 C 0.95633 0.82529 0.3891 0.0
C49 C 0.98129 0.84211 0.37975 0.0
C50 C 0.94076 0.85501 0.37952 0.0
H51 H 0.92629 0.86142 0.37988 0.0
C52 C 0.96482 0.871 0.36969 0.0
H53 H 0.95322 0.80769 0.39657 0.0
C54 C 0.98478 0.86459 0.36966 0.0
H55 H 1.00321 0.87751 0.36175 0.0
H56 H 0.96814 0.88869 0.36224 0.0
H57 H 0.13018 0.21284 0.60488 0.0
C58 C 0.114 0.21387 0.61237 0.0
C59 C 0.10392 0.22878 0.60326 0.0
C60 C 0.10201 0.1987 0.63016 0.0
H61 H 0.07391 0.23998 0.60546 0.0
C62 C 0.08191 0.2288 0.61255 0.0
C63 C 0.0697 0.214 0.63052 0.0
C64 C 0.08012 0.1992 0.63925 0.0
C65 C 0.11003 0.17986 0.63776 0.0
H66 H 0.07099 0.18774 0.6531 0.0
C67 C 0.13701 0.18664 0.64043 0.0
C68 C 0.14371 0.16795 0.6473 0.0
C69 C 0.09007 0.15421 0.6417 0.0
H70 H 0.0693 0.14824 0.63941 0.0
C71 C 0.09655 0.1357 0.64805 0.0
H72 H 0.15254 0.20641 0.63762 0.0
C73 C 0.123 0.1424 0.65074 0.0
H74 H 0.12718 0.12726 0.65526 0.0
H75 H 0.08094 0.11594 0.65074 0.0
H76 H 0.80691 0.91804 0.59239 0.0
C77 C 0.80594 0.90181 0.60084 0.0
C78 C 0.78633 0.8764 0.59577 0.0
C79 C 0.82556 0.90631 0.61569 0.0
H80 H 0.77018 0.83601 0.60298 0.0
C81 C 0.78581 0.85555 0.60646 0.0
C82 C 0.80538 0.85965 0.62132 0.0
C83 C 0.82523 0.8852 0.6258 0.0
C84 C 0.84765 0.93291 0.61952 0.0
H85 H 0.84091 0.88877 0.63677 0.0
C86 C 0.84259 0.95295 0.62502 0.0
C87 C 0.86376 0.97799 0.62934 0.0
C88 C 0.87403 0.93825 0.61782 0.0
H89 H 0.87836 0.92316 0.61341 0.0
C90 C 0.89506 0.96317 0.62157 0.0
H91 H 0.82225 0.94878 0.62673 0.0
C92 C 0.89002 0.98291 0.62734 0.0
H93 H 0.90672 0.00208 0.63025 0.0
H94 H 0.91533 0.96716 0.6201 0.0
H95 H 0.09387 0.87883 0.60232 0.0
C96 C 0.11071 0.89529 0.60957 0.0
C97 C 0.13648 0.90342 0.60224 0.0
C98 C 0.10652 0.90899 0.6256 0.0
H99 H 0.17798 0.93125 0.60556 0.0
C100 C 0.15818 0.92515 0.61132 0.0
C101 C 0.15446 0.93971 0.6269 0.0
C102 C 0.12847 0.93122 0.63409 0.0
C103 C 0.07906 0.90162 0.63212 0.0
H104 H 0.1251 0.94234 0.64586 0.0
C105 C 0.06009 0.87573 0.63704 0.0
C106 C 0.03408 0.86914 0.64317 0.0
C107 C 0.07164 0.92075 0.63312 0.0
H108 H 0.08565 0.94069 0.62913 0.0
C109 C 0.04594 0.91432 0.63882 0.0
H110 H 0.06582 0.86097 0.63659 0.0
C111 C 0.02729 0.88881 0.64374 0.0
H112 H 0.00736 0.88446 0.64774 0.0
H113 H 0.04037 0.92918 0.63929 0.0
H114 H 0.88182 0.45567 0.76066 0.0
C115 C 0.88388 0.4407 0.7527 0.0
C116 C 0.90365 0.43521 0.7592 0.0
C117 C 0.86632 0.42639 0.73645 0.0
H118 H 0.9208 0.41079 0.75477 0.0
C119 C 0.90576 0.4152 0.74945 0.0
C120 C 0.88782 0.39999 0.73377 0.0
C121 C 0.86858 0.40616 0.72705 0.0
C122 C 0.84471 0.43152 0.72998 0.0
H123 H 0.85475 0.39465 0.71488 0.0
C124 C 0.84916 0.45704 0.72854 0.0
C125 C 0.82872 0.46173 0.72197 0.0
C126 C 0.81936 0.4107 0.72512 0.0
H127 H 0.81498 0.39083 0.72662 0.0
C128 C 0.79921 0.41518 0.7184 0.0
H129 H 0.8685 0.47318 0.73249 0.0
C130 C 0.80383 0.44041 0.71665 0.0
H131 H 0.78786 0.44314 0.71088 0.0
H132 H 0.77988 0.399 0.71446 0.0
H133 H 0.56282 0.43294 0.75847 0.0
C134 C 0.57879 0.45007 0.75121 0.0
C135 C 0.5877 0.47458 0.76033 0.0
C136 C 0.59144 0.44736 0.73347 0.0
H137 H 0.61647 0.51537 0.75837 0.0
C138 C 0.60931 0.49651 0.75126 0.0
C139 C 0.62208 0.49424 0.73338 0.0
C140 C 0.61273 0.4696 0.72452 0.0
C141 C 0.58379 0.4213 0.7249 0.0
H142 H 0.6221 0.46765 0.71054 0.0
C143 C 0.55692 0.40213 0.72197 0.0
C144 C 0.55043 0.37818 0.71275 0.0
C145 C 0.60383 0.41569 0.71926 0.0
H146 H 0.6246 0.42976 0.72174 0.0
C147 C 0.59737 0.39185 0.71046 0.0
H148 H 0.54121 0.40614 0.72608 0.0
C149 C 0.57089 0.37328 0.70706 0.0
H150 H 0.56631 0.35493 0.70005 0.0
H151 H 0.61297 0.3878 0.70616 0.0
H152 H 0.58776 0.12862 0.7579 0.0
C153 C 0.57147 0.12955 0.75049 0.0
C154 C 0.54541 0.11422 0.75814 0.0
C155 C 0.57669 0.14686 0.73381 0.0
H156 H 0.50475 0.10532 0.75516 0.0
C157 C 0.52459 0.1162 0.74871 0.0
C158 C 0.52914 0.13305 0.73189 0.0
C159 C 0.55534 0.14833 0.72456 0.0
C160 C 0.60459 0.16558 0.72752 0.0
H161 H 0.55921 0.16157 0.7117 0.0
C162 C 0.62361 0.15784 0.72317 0.0
C163 C 0.64984 0.1764 0.71707 0.0
C164 C 0.61232 0.19197 0.72622 0.0
H165 H 0.5984 0.19855 0.72979 0.0
C166 C 0.63817 0.2103 0.72076 0.0
H167 H 0.61781 0.13751 0.72394 0.0
C168 C 0.65674 0.20269 0.71628 0.0
H169 H 0.67675 0.21761 0.71239 0.0
H170 H 0.64389 0.2306 0.72008 0.0
H171 H 0.79352 0.54328 0.9402 0.0
C172 C 0.77768 0.54532 0.94719 0.0
C173 C 0.7678 0.55949 0.93654 0.0
C174 C 0.76627 0.53265 0.96615 0.0
H175 H 0.73803 0.57114 0.93667 0.0
C176 C 0.74604 0.56071 0.94498 0.0
C177 C 0.73423 0.54825 0.96384 0.0
C178 C 0.74498 0.53493 0.97451 0.0
C179 C 0.77492 0.51542 0.97654 0.0
H180 H 0.7365 0.52618 0.98943 0.0
C181 C 0.80153 0.52038 0.97574 0.0
C182 C 0.80862 0.50317 0.98526 0.0
C183 C 0.75582 0.49296 0.98697 0.0
H184 H 0.73508 0.48767 0.98728 0.0
C185 C 0.76292 0.47655 0.99692 0.0
H186 H 0.81657 0.53728 0.96761 0.0
C187 C 0.789 0.48162 0.99621 0.0
H188 H 0.79378 0.46846 0.00427 0.0
H189 H 0.748 0.45959 0.00508 0.0
H190 H 0.47789 0.25205 0.9296 0.0
C191 C 0.47623 0.23528 0.93761 0.0
C192 C 0.45923 0.21033 0.92962 0.0
C193 C 0.49214 0.23874 0.95519 0.0
H194 H 0.44594 0.16962 0.93286 0.0
C195 C 0.45847 0.18877 0.93932 0.0
C196 C 0.47411 0.19184 0.95703 0.0
C197 C 0.49028 0.21686 0.9651 0.0
C198 C 0.51202 0.26512 0.96256 0.0
H199 H 0.50175 0.21942 0.97915 0.0
C200 C 0.50612 0.2854 0.96331 0.0
C201 C 0.5252 0.31021 0.97052 0.0
C202 C 0.53738 0.27007 0.96883 0.0
H203 H 0.54281 0.25512 0.96796 0.0
C204 C 0.55618 0.29443 0.97615 0.0
H205 H 0.48675 0.28186 0.95834 0.0
C206 C 0.55016 0.3143 0.97715 0.0
H207 H 0.56505 0.33283 0.98338 0.0
H208 H 0.57552 0.29792 0.98113 0.0
H209 H 0.75934 0.21247 0.93741 0.0
C210 C 0.77588 0.22913 0.94471 0.0
C211 C 0.80182 0.23804 0.93724 0.0
C212 C 0.77122 0.24205 0.96118 0.0
H213 H 0.84303 0.26707 0.94056 0.0
C214 C 0.82311 0.2601 0.94642 0.0
C215 C 0.81899 0.27371 0.96256 0.0
C216 C 0.793 0.26415 0.97008 0.0
C217 C 0.74362 0.23378 0.96836 0.0
H218 H 0.78957 0.27439 0.98256 0.0
C219 C 0.72392 0.20733 0.97019 0.0
C220 C 0.69808 0.20017 0.9773 0.0
C221 C 0.73687 0.25281 0.97343 0.0
H222 H 0.75106 0.27323 0.97158 0.0
C223 C 0.71168 0.24587 0.98084 0.0
H224 H 0.72866 0.19245 0.96607 0.0
C225 C 0.69254 0.21988 0.98295 0.0
H226 H 0.67332 0.21527 0.98912 0.0
H227 H 0.70694 0.26075 0.98496 0.0
H228 H 0.54882 0.78876 0.10182 0.0
C229 C 0.54838 0.77217 0.09441 0.0
C230 C 0.56793 0.76563 0.09928 0.0
C231 C 0.5276 0.7568 0.08062 0.0
H232 H 0.58187 0.73879 0.09323 0.0
C233 C 0.56693 0.74399 0.08952 0.0
C234 C 0.5463 0.72837 0.07565 0.0
C235 C 0.52668 0.73497 0.07132 0.0
C236 C 0.50591 0.76256 0.07685 0.0
H237 H 0.51028 0.72283 0.06105 0.0
C238 C 0.51154 0.78754 0.07088 0.0
C239 C 0.49076 0.79261 0.06667 0.0
C240 C 0.47933 0.74285 0.07908 0.0
H241 H 0.47454 0.72355 0.08389 0.0
C242 C 0.4587 0.74794 0.07538 0.0
H243 H 0.53201 0.80269 0.06876 0.0
C244 C 0.46431 0.77259 0.06915 0.0
H245 H 0.44792 0.77603 0.06631 0.0
H246 H 0.43828 0.73268 0.07725 0.0
H247 H 0.22895 0.76454 0.09445 0.0
C248 C 0.24471 0.78153 0.08686 0.0
C249 C 0.25267 0.80637 0.09487 0.0
C250 C 0.25825 0.77834 0.07 0.0
H251 H 0.28047 0.84726 0.0917 0.0
C252 C 0.27405 0.82813 0.08542 0.0
C253 C 0.28766 0.82533 0.06833 0.0
C254 C 0.27941 0.8003 0.06069 0.0
C255 C 0.25214 0.75207 0.06328 0.0
H256 H 0.28958 0.79778 0.04749 0.0
C257 C 0.22595 0.73245 0.05866 0.0
C258 C 0.22097 0.70798 0.05158 0.0
C259 C 0.27303 0.74666 0.06142 0.0
H260 H 0.29325 0.76128 0.06518 0.0
C261 C 0.26807 0.72232 0.05495 0.0
H262 H 0.20975 0.73652 0.05981 0.0
C263 C 0.2423 0.70313 0.05 0.0
H264 H 0.23901 0.68438 0.04495 0.0
H265 H 0.28428 0.71832 0.05369 0.0
H266 H 0.25087 0.46247 0.08953 0.0
C267 C 0.23406 0.46236 0.08207 0.0
C268 C 0.20846 0.44746 0.09074 0.0
C269 C 0.23802 0.47757 0.0641 0.0
H270 H 0.16756 0.43814 0.08877 0.0
C271 C 0.18693 0.44832 0.08144 0.0
C272 C 0.19022 0.46308 0.06347 0.0
C273 C 0.21574 0.47718 0.05471 0.0
C274 C 0.26536 0.49555 0.05586 0.0
H275 H 0.21825 0.48809 0.04054 0.0
C276 C 0.28588 0.4891 0.05549 0.0
C277 C 0.31142 0.50691 0.04757 0.0
C278 C 0.27108 0.52007 0.04844 0.0
H279 H 0.2564 0.52622 0.04911 0.0
C280 C 0.29586 0.53727 0.0402 0.0
H281 H 0.28207 0.47051 0.06138 0.0
C282 C 0.31574 0.53075 0.0396 0.0
H283 H 0.33465 0.54455 0.03278 0.0
H284 H 0.29973 0.55588 0.0343 0.0
H285 H 0.46118 0.87451 0.27061 0.0
C286 C 0.44521 0.87615 0.27781 0.0
C287 C 0.43638 0.89191 0.26842 0.0
C288 C 0.43247 0.8613 0.29563 0.0
H289 H 0.40891 0.90606 0.27049 0.0
C290 C 0.41483 0.89308 0.27732 0.0
C291 C 0.40105 0.87791 0.29477 0.0
C292 C 0.41053 0.86253 0.30398 0.0
C293 C 0.4405 0.8429 0.30464 0.0
H294 H 0.40041 0.85088 0.31745 0.0
C295 C 0.46735 0.84853 0.30509 0.0
C296 C 0.47407 0.83049 0.31347 0.0
C297 C 0.42073 0.81888 0.31255 0.0
H298 H 0.3999 0.81319 0.31177 0.0
C299 C 0.42734 0.80149 0.32135 0.0
H300 H 0.48287 0.8667 0.29883 0.0
C301 C 0.45367 0.80724 0.32198 0.0
H302 H 0.45799 0.79331 0.3292 0.0
H303 H 0.41189 0.78329 0.32762 0.0
H304 H 0.14051 0.5849 0.26 0.0
C305 C 0.1394 0.56823 0.26781 0.0
C306 C 0.12038 0.54309 0.2615 0.0
C307 C 0.15828 0.57202 0.28315 0.0
H308 H 0.10451 0.50233 0.26701 0.0
C309 C 0.11974 0.52171 0.27139 0.0
C310 C 0.13865 0.52507 0.28664 0.0
C311 C 0.15786 0.5504 0.2924 0.0
C312 C 0.17972 0.59853 0.28843 0.0
H313 H 0.173 0.55345 0.30376 0.0
C314 C 0.17384 0.61806 0.2939 0.0
C315 C 0.19436 0.64296 0.29952 0.0
C316 C 0.20632 0.60431 0.28808 0.0
H317 H 0.21135 0.58969 0.28367 0.0
C318 C 0.22672 0.62909 0.29315 0.0
H319 H 0.15332 0.61358 0.29453 0.0
C320 C 0.22085 0.64828 0.29889 0.0
H321 H 0.23709 0.66736 0.30278 0.0
H322 H 0.24718 0.63341 0.29272 0.0
H323 H 0.42611 0.54285 0.26842 0.0
C324 C 0.44303 0.55916 0.27574 0.0
C325 C 0.46877 0.5672 0.26837 0.0
C326 C 0.43898 0.5728 0.29189 0.0
H327 H 0.51035 0.59473 0.2718 0.0
C328 C 0.49058 0.58872 0.27757 0.0
C329 C 0.487 0.60322 0.29331 0.0
C330 C 0.46103 0.59485 0.30049 0.0
C331 C 0.41159 0.56564 0.29846 0.0
H332 H 0.45772 0.60593 0.31233 0.0
C333 C 0.39252 0.53983 0.30351 0.0
C334 C 0.36663 0.53351 0.30982 0.0
C335 C 0.4044 0.58493 0.29946 0.0
H336 H 0.41851 0.6048 0.29537 0.0
C337 C 0.37882 0.57875 0.30531 0.0
H338 H 0.39807 0.52494 0.30304 0.0
C339 C 0.36007 0.55332 0.3104 0.0
H340 H 0.34025 0.54917 0.31455 0.0
H341 H 0.37343 0.59373 0.3058 0.0
Eu342 Eu 0.48906 0.9898 0.9858 0.0
C343 C 0.54844 0.0722 0.0547 0.0
C344 C 0.59396 0.082 0.05046 0.0
C345 C 0.58474 0.11548 0.06244 0.0
C346 C 0.56642 0.0645 0.04904 0.0
C347 C 0.55737 0.09758 0.06198 0.0
C348 C 0.60301 0.10771 0.05667 0.0
C349 C 0.5117 0.08494 0.0696 0.0
N350 N 0.52221 0.05437 0.05423 0.0
C351 C 0.50387 0.05999 0.06233 0.0
C352 C 0.53855 0.10395 0.06915 0.0
Eu353 Eu 0.51018 0.01307 0.04037 0.0
N354 N 0.55698 0.03949 0.04322 0.0
C355 C 0.57402 0.03023 0.04008 0.0
C356 C 0.61156 0.07295 0.04615 0.0
C357 C 0.60152 0.04684 0.0413 0.0
H358 H 0.48306 0.04534 0.06248 0.0
H359 H 0.61494 0.03952 0.03834 0.0
H360 H 0.62409 0.12153 0.0576 0.0
H361 H 0.49704 0.08952 0.0755 0.0
H362 H 0.56662 0.01018 0.03611 0.0
H363 H 0.3824 0.9553 0.98439 0.0
H364 H 0.63286 0.08579 0.04702 0.0
H365 H 0.52191 0.96233 0.96496 0.0
H366 H 0.42988 0.98739 0.98846 0.0
H367 H 0.51224 0.91993 0.95047 0.0
H368 H 0.59199 0.13517 0.06776 0.0
H369 H 0.36863 0.91023 0.97421 0.0
H370 H 0.38177 0.87771 0.96296 0.0
H371 H 0.54459 0.12325 0.07487 0.0
H372 H 0.41709 0.86812 0.95354 0.0
N373 N 0.44302 0.96067 0.98133 0.0
C374 C 0.42424 0.96784 0.98399 0.0
C375 C 0.38955 0.92424 0.97603 0.0
C376 C 0.40899 0.91741 0.97209 0.0
C377 C 0.39724 0.94968 0.98171 0.0
C378 C 0.43593 0.93635 0.97481 0.0
H379 H 0.46578 0.88389 0.94843 0.0
N380 N 0.48142 0.95004 0.97142 0.0
C381 C 0.49618 0.92272 0.95589 0.0
C382 C 0.45574 0.93089 0.9696 0.0
C383 C 0.50159 0.94668 0.96404 0.0
C384 C 0.46993 0.9024 0.95481 0.0
C385 C 0.44927 0.90644 0.96142 0.0
O386 O 0.51065 0.00391 0.95638 0.0
O387 O 0.52032 0.01867 0.00668 0.0
O388 O 0.50416 0.04299 0.02327 0.0
O389 O 0.47633 0.01893 0.99564 0.0
O390 O 0.53387 0.00635 0.98223 0.0
O391 O 0.47492 0.0059 0.96153 0.0
O392 O 0.49047 0.00295 0.07082 0.0
O393 O 0.47824 0.98463 0.01962 0.0
O394 O 0.49175 0.95844 1.00325 0.0
O395 O 0.51965 0.98117 0.03117 0.0
O396 O 0.46604 0.99846 0.04424 0.0
O397 O 0.52133 0.99376 0.06399 0.0
C398 C 0.54117 0.02214 0.99783 0.0
C399 C 0.48451 0.99938 0.92683 0.0
C400 C 0.48712 0.00623 0.88896 0.0
C401 C 0.49511 0.01593 0.90944 0.0
C402 C 0.46879 0.97964 0.88635 0.0
C403 C 0.46587 0.97318 0.92368 0.0
C404 C 0.4582 0.96336 0.90357 0.0
C405 C 0.48766 0.03978 0.00778 0.0
C406 C 0.49337 0.00924 0.94819 0.0
C407 C 0.42248 0.88712 0.95958 0.0
C408 C 0.40237 0.89259 0.96494 0.0
C409 C 0.458 0.98267 0.02862 0.0
C410 C 0.51645 0.00275 0.09913 0.0
C411 C 0.50489 0.98645 0.1165 0.0
C412 C 0.51567 0.99458 0.13669 0.0
C413 C 0.5381 0.01939 0.13911 0.0
C414 C 0.53879 0.02732 0.10199 0.0
C415 C 0.5495 0.03557 0.12189 0.0
C416 C 0.50709 0.96024 0.01917 0.0
C417 C 0.50521 0.99391 0.07812 0.0
H418 H 0.50922 0.03628 0.91191 0.0
H419 H 0.4627 0.97125 0.87093 0.0
H420 H 0.4573 0.96025 0.93674 0.0
H421 H 0.44402 0.94301 0.90132 0.0
H422 H 0.48777 0.96735 0.11421 0.0
H423 H 0.54664 0.02649 0.15439 0.0
H424 H 0.54798 0.0401 0.08886 0.0
H425 H 0.5667 0.05462 0.12398 0.0
Eu426 Eu 0.02191 0.49787 0.98609 0.0
C427 C 0.93522 0.47387 0.0533 0.0
C428 C 0.92348 0.50716 0.04774 0.0
C429 C 0.89048 0.46505 0.06112 0.0
C430 C 0.94209 0.49851 0.04668 0.0
C431 C 0.90955 0.45708 0.06114 0.0
C432 C 0.89743 0.49005 0.05441 0.0
C433 C 0.92436 0.42693 0.07039 0.0
N434 N 0.95419 0.46693 0.05335 0.0
C435 C 0.94953 0.44429 0.06247 0.0
C436 C 0.90415 0.43318 0.06943 0.0
Eu437 Eu 0.99607 0.49687 0.03921 0.0
N438 N 0.96751 0.51463 0.04056 0.0
C439 C 0.9762 0.54023 0.03693 0.0
C440 C 0.93188 0.533 0.04279 0.0
C441 C 0.95848 0.54972 0.03775 0.0
H442 H 0.9651 0.43936 0.06306 0.0
H443 H 0.96533 0.56988 0.03434 0.0
H444 H 0.88275 0.49623 0.05506 0.0
H445 H 0.92055 0.40874 0.07715 0.0
H446 H 0.99664 0.55333 0.03287 0.0
H447 H 0.05707 0.42805 0.98784 0.0
H448 H 0.91819 0.54038 0.04336 0.0
H449 H 0.05038 0.55663 0.96419 0.0
H450 H 0.02436 0.44272 0.99111 0.0
H451 H 0.09376 0.58865 0.94917 0.0
H452 H 0.87055 0.45232 0.06685 0.0
H453 H 0.10319 0.45891 0.97712 0.0
H454 H 0.13651 0.50351 0.96468 0.0
H455 H 0.88468 0.41974 0.07562 0.0
H456 H 0.14642 0.54712 0.95391 0.0
N457 N 0.05182 0.48184 0.98306 0.0
C458 C 0.04438 0.45646 0.98644 0.0
C459 C 0.08892 0.46552 0.97859 0.0
C460 C 0.09596 0.4911 0.97386 0.0
C461 C 0.06289 0.44802 0.98459 0.0
C462 C 0.07665 0.49873 0.97612 0.0
H463 H 0.13047 0.57886 0.9477 0.0
N464 N 0.06274 0.52939 0.97146 0.0
C465 C 0.09082 0.57037 0.95506 0.0
C466 C 0.08223 0.52321 0.97002 0.0
C467 C 0.0663 0.55221 0.96352 0.0
C468 C 0.11151 0.56479 0.9543 0.0
C469 C 0.10727 0.54084 0.96157 0.0
O470 O 0.00971 0.50379 0.95524 0.0
O471 O 0.99109 0.49995 0.00517 0.0
O472 O 0.96563 0.46031 0.02249 0.0
O473 O 0.99196 0.45678 0.99656 0.0
O474 O 1.00503 0.52481 0.98028 0.0
O475 O 1.00462 0.46624 0.96356 0.0
O476 O 1.00649 0.49035 0.07057 0.0
O477 O 0.02661 0.4941 0.02021 0.0
O478 O 0.05341 0.53238 1.00348 0.0
O479 O 0.02832 0.53794 0.02931 0.0
O480 O 0.01203 0.46943 0.0454 0.0
O481 O 0.0141 0.52858 0.06166 0.0
C482 C 0.98816 0.51669 0.99539 0.0
C483 C 0.01355 0.47901 0.92818 0.0
C484 C 0.00884 0.47698 0.89021 0.0
C485 C 0.9999 0.47915 0.91016 0.0
C486 C 0.03206 0.47515 0.88868 0.0
C487 C 0.03666 0.47721 0.92629 0.0
C488 C 0.04589 0.47541 0.90661 0.0
C489 C 0.96975 0.44711 0.00768 0.0
C490 C 1.00326 0.48061 0.94876 0.0
C491 C 0.12698 0.53376 0.96017 0.0
C492 C 0.12134 0.50894 0.96633 0.0
C493 C 0.02875 0.47695 0.03018 0.0
C494 C 1.00379 0.51656 0.09701 0.0
C495 C 0.01836 0.51927 0.11523 0.0
C496 C 0.00905 0.52211 0.13481 0.0
C497 C 0.98485 0.52212 0.13584 0.0
C498 C 0.97969 0.51659 0.09836 0.0
C499 C 0.97029 0.51934 0.1177 0.0
C500 C 0.05045 0.54637 0.01816 0.0
C501 C 0.01415 0.51391 0.07678 0.0
H502 H 0.98232 0.48098 0.91177 0.0
H503 H 0.03929 0.47292 0.87369 0.0
H504 H 0.04743 0.47696 0.93995 0.0
H505 H 0.06363 0.47385 0.90526 0.0
H506 H 0.03715 0.51957 0.11408 0.0
H507 H 0.977 0.52395 0.15068 0.0
H508 H 0.96822 0.51465 0.08452 0.0
H509 H 0.95165 0.5193 0.11863 0.0
Eu510 Eu 0.52821 0.51108 0.04009 0.0
C511 C 0.46923 0.53848 0.97233 0.0
C512 C 0.42336 0.50473 0.97626 0.0
C513 C 0.43368 0.54755 0.96444 0.0
C514 C 0.45077 0.51341 0.97784 0.0
C515 C 0.46092 0.55566 0.96504 0.0
C516 C 0.41493 0.52212 0.97007 0.0
C517 C 0.50689 0.58667 0.95765 0.0
N518 N 0.49532 0.54558 0.97292 0.0
C519 C 0.51412 0.5689 0.96498 0.0
C520 C 0.4802 0.58016 0.95796 0.0
Eu521 Eu 0.50627 0.51507 0.9864 0.0
N522 N 0.45962 0.49708 0.98355 0.0
C523 C 0.44212 0.4713 0.98635 0.0
C524 C 0.40528 0.47865 0.98033 0.0
C525 C 0.41473 0.46177 0.98503 0.0
H526 H 0.53479 0.57403 0.96491 0.0
H527 H 0.40093 0.44144 0.98778 0.0
H528 H 0.39395 0.5159 0.96901 0.0
H529 H 0.5219 0.60536 0.95183 0.0
H530 H 0.44911 0.45807 0.99016 0.0
H531 H 0.6341 0.58295 0.04215 0.0
H532 H 0.38406 0.47122 0.97935 0.0
H533 H 0.49712 0.4502 0.05802 0.0
H534 H 0.58632 0.56746 0.03811 0.0
H535 H 0.50839 0.41742 0.07037 0.0
H536 H 0.4269 0.56055 0.95911 0.0
H537 H 0.64943 0.55213 0.05119 0.0
H538 H 0.63794 0.50681 0.06083 0.0
H539 H 0.47464 0.59393 0.95222 0.0
H540 H 0.60378 0.46184 0.0686 0.0
N541 N 0.57451 0.52802 0.04423 0.0
C542 C 0.59262 0.55374 0.04209 0.0
C543 C 0.62837 0.54518 0.04944 0.0
C544 C 0.60962 0.51909 0.05273 0.0
C545 C 0.61979 0.56264 0.04437 0.0
C546 C 0.58245 0.51102 0.05015 0.0
H547 H 0.55546 0.42842 0.07244 0.0
N548 N 0.53734 0.47903 0.0528 0.0
C549 C 0.52401 0.43654 0.06592 0.0
C550 C 0.56328 0.48578 0.05463 0.0
C551 C 0.5177 0.45511 0.05901 0.0
C552 C 0.55061 0.44282 0.06703 0.0
C553 C 0.57066 0.46779 0.06163 0.0
O554 O 0.50901 0.50189 0.07073 0.0
O555 O 0.49614 0.50962 0.02018 0.0
O556 O 0.51145 0.55015 0.00431 0.0
O557 O 0.53976 0.55253 0.03128 0.0
O558 O 0.48356 0.48337 0.04406 0.0
O559 O 0.54064 0.54092 0.06407 0.0
O560 O 0.52594 0.52369 0.95598 0.0
O561 O 0.53883 0.51746 0.00632 0.0
O562 O 0.52667 0.47873 0.02107 0.0
O563 O 0.49623 0.47363 0.99515 0.0
O564 O 0.55047 0.5436 0.98218 0.0
O565 O 0.4937 0.48503 0.96251 0.0
C566 C 0.47562 0.49224 0.02903 0.0
C567 C 0.53639 0.52622 0.09892 0.0
C568 C 0.53374 0.5278 0.137 0.0
C569 C 0.52255 0.52585 0.11704 0.0
C570 C 0.55896 0.52984 0.13836 0.0
C571 C 0.56137 0.52812 0.10075 0.0
C572 C 0.57251 0.52984 0.12038 0.0
C573 C 0.52789 0.56252 0.01997 0.0
C574 C 0.5247 0.52499 0.07823 0.0
C575 C 0.59771 0.47543 0.06341 0.0
C576 C 0.61715 0.50104 0.05897 0.0
C577 C 0.55893 0.53543 0.99736 0.0
C578 C 0.49916 0.4995 0.92758 0.0
C579 C 0.51123 0.49568 0.90996 0.0
C580 C 0.50082 0.49437 0.88981 0.0
C581 C 0.47822 0.49714 0.88765 0.0
C582 C 0.47666 0.50218 0.92504 0.0
C583 C 0.46629 0.50103 0.90516 0.0
C584 C 0.51018 0.46533 0.00583 0.0
C585 C 0.51021 0.50062 0.94848 0.0
H586 H 0.50308 0.52399 0.11551 0.0
H587 H 0.56858 0.53202 0.1533 0.0
H588 H 0.57241 0.52856 0.08706 0.0
H589 H 0.59191 0.53153 0.12165 0.0
H590 H 0.52847 0.49335 0.91201 0.0
H591 H 0.46994 0.49665 0.87239 0.0
H592 H 0.46708 0.5051 0.93839 0.0
H593 H 0.44896 0.5032 0.90331 0.0
Eu594 Eu 0.15707 0.32491 0.31932 0.0
C595 C 0.21384 0.40724 0.38979 0.0
C596 C 0.25971 0.41769 0.38678 0.0
C597 C 0.24938 0.45026 0.39922 0.0
C598 C 0.23231 0.40002 0.38448 0.0
C599 C 0.22212 0.4322 0.39776 0.0
C600 C 0.26815 0.44303 0.39369 0.0
C601 C 0.17597 0.41879 0.40406 0.0
N602 N 0.18772 0.38929 0.38831 0.0
C603 C 0.16878 0.39428 0.39605 0.0
C604 C 0.20274 0.43797 0.40463 0.0
Eu605 Eu 0.17683 0.34851 0.37398 0.0
N606 N 0.22344 0.37535 0.37794 0.0
C607 C 0.24089 0.36655 0.37487 0.0
C608 C 0.27775 0.40917 0.38252 0.0
C609 C 0.26826 0.38338 0.37684 0.0
H610 H 0.14805 0.37951 0.39545 0.0
H611 H 0.28202 0.37647 0.37387 0.0
H612 H 0.28912 0.45698 0.39531 0.0
H613 H 0.16087 0.42288 0.40972 0.0
H614 H 0.23392 0.34675 0.37033 0.0
H615 H 0.05079 0.29196 0.31599 0.0
H616 H 0.29896 0.42217 0.38401 0.0
H617 H 0.18951 0.29631 0.2998 0.0
H618 H 0.09835 0.32359 0.32048 0.0
H619 H 0.17943 0.2534 0.28619 0.0
H620 H 0.25615 0.46965 0.40508 0.0
H621 H 0.03652 0.24653 0.30669 0.0
H622 H 0.04915 0.21324 0.2967 0.0
H623 H 0.20828 0.45693 0.41088 0.0
H624 H 0.08416 0.20275 0.28844 0.0
N625 N 0.11102 0.29626 0.31438 0.0
C626 C 0.09249 0.30388 0.31637 0.0
C627 C 0.05747 0.26033 0.30867 0.0
C628 C 0.07668 0.25302 0.30543 0.0
C629 C 0.06545 0.28598 0.31385 0.0
C630 C 0.10367 0.27172 0.30833 0.0
H631 H 0.13278 0.21775 0.28407 0.0
N632 N 0.14906 0.28466 0.30574 0.0
C633 C 0.16347 0.25657 0.29119 0.0
C634 C 0.1233 0.26573 0.30382 0.0
C635 C 0.16912 0.28081 0.29885 0.0
C636 C 0.13711 0.23648 0.29007 0.0
C637 C 0.1166 0.24102 0.29612 0.0
O638 O 0.17912 0.33816 0.29002 0.0
O639 O 0.18796 0.35413 0.34034 0.0
O640 O 0.17133 0.37869 0.35653 0.0
O641 O 0.14476 0.35455 0.32837 0.0
O642 O 0.20175 0.34096 0.31647 0.0
O643 O 0.1438 0.34105 0.29445 0.0
O644 O 0.15602 0.33755 0.40398 0.0
O645 O 0.14547 0.31993 0.35291 0.0
O646 O 0.15938 0.29377 0.33746 0.0
O647 O 0.18706 0.31694 0.36532 0.0
O648 O 0.1325 0.33369 0.37703 0.0
O649 O 0.18773 0.32936 0.39792 0.0
C650 C 0.20883 0.35712 0.3318 0.0
C651 C 0.15361 0.33379 0.26007 0.0
C652 C 0.15488 0.34061 0.22226 0.0
C653 C 0.163 0.35049 0.24267 0.0
C654 C 0.13777 0.31376 0.21968 0.0
C655 C 0.13616 0.30728 0.25696 0.0
C656 C 0.12844 0.29733 0.2369 0.0
C657 C 0.15566 0.37554 0.34038 0.0
C658 C 0.16232 0.34385 0.2814 0.0
C659 C 0.08972 0.22196 0.29411 0.0
C660 C 0.0698 0.22794 0.29881 0.0
C661 C 0.12494 0.31786 0.36145 0.0
C662 C 0.18158 0.33801 0.43287 0.0
C663 C 0.16988 0.32174 0.45026 0.0
C664 C 0.18023 0.33018 0.47053 0.0
C665 C 0.20221 0.35525 0.47303 0.0
C666 C 0.20354 0.36281 0.43585 0.0
C667 C 0.21372 0.37137 0.45581 0.0
C668 C 0.17463 0.29582 0.35351 0.0
C669 C 0.17098 0.32899 0.4117 0.0
H670 H 0.17619 0.37106 0.24508 0.0
H671 H 0.13164 0.30532 0.20428 0.0
H672 H 0.12854 0.29423 0.27001 0.0
H673 H 0.11517 0.27676 0.23469 0.0
H674 H 0.15308 0.30246 0.44793 0.0
H675 H 0.21038 0.36257 0.48837 0.0
H676 H 0.21288 0.37552 0.42275 0.0
H677 H 0.23061 0.3906 0.45796 0.0
Eu678 Eu 0.68962 0.82854 0.32094 0.0
C679 C 0.59956 0.79877 0.38683 0.0
C680 C 0.58536 0.83029 0.38128 0.0
C681 C 0.5539 0.78734 0.39421 0.0
C682 C 0.60515 0.82314 0.38039 0.0
C683 C 0.57408 0.78083 0.39436 0.0
C684 C 0.55953 0.81202 0.38765 0.0
C685 C 0.59112 0.75245 0.40359 0.0
N686 N 0.61954 0.79321 0.38699 0.0
C687 C 0.61605 0.77089 0.39596 0.0
C688 C 0.56992 0.75726 0.40249 0.0
Eu689 Eu 0.661 0.82505 0.37346 0.0
N690 N 0.63038 0.8404 0.37454 0.0
C691 C 0.63767 0.86572 0.37103 0.0
C692 C 0.59235 0.85582 0.37643 0.0
C693 C 0.61873 0.87372 0.37166 0.0
H694 H 0.63238 0.76706 0.39668 0.0
H695 H 0.62448 0.89366 0.36832 0.0
H696 H 0.54399 0.81706 0.38818 0.0
H697 H 0.58825 0.73452 0.41024 0.0
H698 H 0.65792 0.87972 0.36716 0.0
H699 H 0.72124 0.75613 0.32796 0.0
H700 H 0.57773 0.86207 0.37687 0.0
H701 H 0.72066 0.88484 0.29561 0.0
H702 H 0.68945 0.77201 0.32778 0.0
H703 H 0.76577 0.91591 0.28268 0.0
H704 H 0.53411 0.77371 0.3997 0.0
H705 H 0.76871 0.78611 0.32042 0.0
H706 H 0.80438 0.8305 0.30956 0.0
H707 H 0.55064 0.74298 0.40845 0.0
H708 H 0.81668 0.8743 0.29743 0.0
N709 N 0.71858 0.81104 0.32079 0.0
C710 C 0.71002 0.78543 0.32439 0.0
C711 C 0.75482 0.79327 0.32033 0.0
C712 C 0.76318 0.81908 0.31535 0.0
C713 C 0.72803 0.77627 0.32453 0.0
C714 C 0.7443 0.82745 0.31556 0.0
H715 H 0.80229 0.90617 0.28693 0.0
N716 N 0.73211 0.85873 0.30792 0.0
C717 C 0.76206 0.89817 0.29025 0.0
C718 C 0.75133 0.85216 0.30904 0.0
C719 C 0.73662 0.8806 0.29755 0.0
C720 C 0.78264 0.89264 0.29275 0.0
C721 C 0.77726 0.86909 0.30174 0.0
O722 O 0.67831 0.83573 0.29019 0.0
O723 O 0.6572 0.82857 0.3393 0.0
O724 O 0.63164 0.78873 0.35619 0.0
O725 O 0.65815 0.78697 0.32949 0.0
O726 O 0.67112 0.85399 0.31464 0.0
O727 O 0.67638 0.79912 0.29643 0.0
O728 O 0.67238 0.8186 0.40447 0.0
O729 O 0.69402 0.82532 0.35534 0.0
O730 O 0.71746 0.86634 0.33699 0.0
O731 O 0.69181 0.86696 0.36508 0.0
O732 O 0.67796 0.79858 0.37923 0.0
O733 O 0.67533 0.85548 0.39707 0.0
C734 C 0.65372 0.84493 0.3294 0.0
C735 C 0.68753 0.81601 0.26216 0.0
C736 C 0.68625 0.81701 0.22404 0.0
C737 C 0.67375 0.81375 0.24357 0.0
C738 C 0.71294 0.82284 0.22357 0.0
C739 C 0.71385 0.82115 0.26126 0.0
C740 C 0.72651 0.82472 0.24207 0.0
C741 C 0.63609 0.77641 0.34087 0.0
C742 C 0.67454 0.81397 0.28234 0.0
C743 C 0.79655 0.86143 0.30268 0.0
C744 C 0.78952 0.83647 0.30952 0.0
C745 C 0.69623 0.80808 0.36515 0.0
C746 C 0.6659 0.84113 0.43202 0.0
C747 C 0.68103 0.84469 0.45005 0.0
C748 C 0.6708 0.84499 0.4699 0.0
C749 C 0.64508 0.84159 0.47141 0.0
C750 C 0.64027 0.83773 0.43381 0.0
C751 C 0.62993 0.83792 0.45345 0.0
C752 C 0.71291 0.87817 0.35265 0.0
C753 C 0.67727 0.84109 0.41154 0.0
H754 H 0.6532 0.8091 0.24442 0.0
H755 H 0.72343 0.82606 0.20893 0.0
H756 H 0.72463 0.82247 0.27533 0.0
H757 H 0.74695 0.829 0.24152 0.0
H758 H 0.70096 0.84761 0.44856 0.0
H759 H 0.63656 0.84144 0.48649 0.0
H760 H 0.62833 0.83505 0.4201 0.0
H761 H 0.61011 0.83522 0.45474 0.0
Eu762 Eu 0.19769 0.84467 0.37573 0.0
C763 C 0.13524 0.86695 0.30819 0.0
C764 C 0.09001 0.83216 0.31308 0.0
C765 C 0.09833 0.87406 0.30048 0.0
C766 C 0.11764 0.84184 0.31427 0.0
C767 C 0.12579 0.88314 0.30067 0.0
C768 C 0.08047 0.84861 0.3067 0.0
C769 C 0.17109 0.91504 0.29215 0.0
N770 N 0.16157 0.87501 0.30837 0.0
C771 C 0.17947 0.89824 0.29971 0.0
C772 C 0.14417 0.90763 0.29292 0.0
Eu773 Eu 0.17442 0.84601 0.32214 0.0
N774 N 0.12753 0.82639 0.32014 0.0
C775 C 0.11087 0.80055 0.32352 0.0
C776 C 0.07281 0.80602 0.31766 0.0
C777 C 0.08331 0.79005 0.32254 0.0
H778 H 0.20033 0.90406 0.29928 0.0
H779 H 0.07018 0.76968 0.32571 0.0
H780 H 0.05931 0.84162 0.30593 0.0
H781 H 0.18539 0.9337 0.28578 0.0
H782 H 0.11866 0.78801 0.32749 0.0
H783 H 0.3039 0.91565 0.37446 0.0
H784 H 0.05146 0.79784 0.31696 0.0
H785 H 0.16649 0.7857 0.39725 0.0
H786 H 0.25615 0.90028 0.37056 0.0
H787 H 0.17758 0.75426 0.41289 0.0
H788 H 0.09069 0.88631 0.29499 0.0
H789 H 0.31897 0.88557 0.38641 0.0
H790 H 0.30721 0.8414 0.39964 0.0
H791 H 0.1377 0.92063 0.28699 0.0
H792 H 0.2729 0.79761 0.4103 0.0
N793 N 0.24404 0.86149 0.37948 0.0
C794 C 0.26232 0.88686 0.37576 0.0
C795 C 0.29791 0.87865 0.38467 0.0
C796 C 0.27904 0.85308 0.38964 0.0
C797 C 0.28949 0.89569 0.37796 0.0
C798 C 0.25187 0.84501 0.38698 0.0
H799 H 0.22456 0.7651 0.41559 0.0
N800 N 0.20671 0.81366 0.39086 0.0
C801 C 0.19325 0.77274 0.40727 0.0
C802 C 0.23262 0.82039 0.39296 0.0
C803 C 0.18703 0.79057 0.39845 0.0
C804 C 0.21979 0.77892 0.40873 0.0
C805 C 0.23989 0.80311 0.40176 0.0
O806 O 0.17877 0.83806 0.40639 0.0
O807 O 0.16504 0.84218 0.35596 0.0
O808 O 0.17973 0.88177 0.33917 0.0
O809 O 0.20947 0.88564 0.36535 0.0
O810 O 0.15316 0.81701 0.38056 0.0
O811 O 0.21122 0.87613 0.39835 0.0
O812 O 0.19338 0.85467 0.29143 0.0
O813 O 0.20764 0.84896 0.34169 0.0
O814 O 0.19527 0.81065 0.35854 0.0
O815 O 0.16611 0.8052 0.33133 0.0
O816 O 0.2182 0.87482 0.3173 0.0
O817 O 0.1618 0.81581 0.2984 0.0
C818 C 0.14478 0.82512 0.36529 0.0
C819 C 0.20698 0.86347 0.4338 0.0
C820 C 0.20385 0.86517 0.47184 0.0
C821 C 0.19269 0.86263 0.45179 0.0
C822 C 0.22949 0.86826 0.47345 0.0
C823 C 0.23242 0.86646 0.43589 0.0
C824 C 0.24352 0.86876 0.45561 0.0
C825 C 0.19691 0.89501 0.3542 0.0
C826 C 0.19519 0.86142 0.41302 0.0
C827 C 0.26691 0.81069 0.40373 0.0
C828 C 0.28645 0.83562 0.39765 0.0
C829 C 0.2273 0.86686 0.3322 0.0
C830 C 0.16608 0.83 0.26343 0.0
C831 C 0.17854 0.82742 0.24551 0.0
C832 C 0.16762 0.82587 0.22553 0.0
C833 C 0.14412 0.82715 0.22384 0.0
C834 C 0.14265 0.83117 0.26135 0.0
C835 C 0.13179 0.82979 0.24164 0.0
C836 C 0.17929 0.79693 0.3431 0.0
C837 C 0.17775 0.83147 0.28413 0.0
H838 H 0.1729 0.85995 0.45008 0.0
H839 H 0.23906 0.87089 0.48848 0.0
H840 H 0.24384 0.86731 0.42231 0.0
H841 H 0.26325 0.87126 0.45708 0.0
H842 H 0.19649 0.82623 0.2472 0.0
H843 H 0.13541 0.82643 0.20872 0.0
H844 H 0.13272 0.83305 0.27492 0.0
H845 H 0.11375 0.8308 0.24015 0.0
Eu846 Eu 0.82457 0.66041 0.65458 0.0
C847 C 0.88007 0.74261 0.72577 0.0
C848 C 0.92614 0.75367 0.72313 0.0
C849 C 0.91507 0.78562 0.73586 0.0
C850 C 0.89885 0.73581 0.7205 0.0
C851 C 0.88791 0.76737 0.73401 0.0
C852 C 0.93417 0.77879 0.7304 0.0
C853 C 0.84152 0.75343 0.73962 0.0
N854 N 0.85406 0.72448 0.72392 0.0
C855 C 0.83478 0.72913 0.73141 0.0
C856 C 0.8682 0.77277 0.74067 0.0
Eu857 Eu 0.84386 0.68407 0.70921 0.0
N858 N 0.89037 0.71136 0.71359 0.0
C859 C 0.90812 0.70296 0.7104 0.0
C860 C 0.9445 0.74558 0.71878 0.0
C861 C 0.93541 0.72 0.71266 0.0
H862 H 0.81412 0.71423 0.73048 0.0
H863 H 0.94941 0.7134 0.7096 0.0
H864 H 0.95505 0.79287 0.73231 0.0
H865 H 0.82615 0.75723 0.7451 0.0
H866 H 0.90147 0.68332 0.70556 0.0
H867 H 0.71816 0.62634 0.64965 0.0
H868 H 0.96564 0.75873 0.72052 0.0
H869 H 0.85823 0.63211 0.63684 0.0
H870 H 0.76547 0.65833 0.65492 0.0
H871 H 0.84897 0.58923 0.62382 0.0
H872 H 0.92151 0.80484 0.74195 0.0
H873 H 0.7047 0.58118 0.64001 0.0
H874 H 0.71813 0.54837 0.63038 0.0
H875 H 0.87339 0.79156 0.74709 0.0
H876 H 0.75368 0.53829 0.62327 0.0
N877 N 0.77878 0.63148 0.64885 0.0
C878 C 0.75995 0.63874 0.65065 0.0
C879 C 0.72554 0.59516 0.64231 0.0
C880 C 0.74506 0.5882 0.63939 0.0
C881 C 0.73306 0.62064 0.64769 0.0
C882 C 0.7719 0.6071 0.64268 0.0
H883 H 0.80251 0.55347 0.62053 0.0
N884 N 0.81748 0.62038 0.64125 0.0
C885 C 0.83273 0.59236 0.62805 0.0
C886 C 0.79185 0.60138 0.63871 0.0
C887 C 0.83791 0.61659 0.63534 0.0
C888 C 0.80647 0.57221 0.62625 0.0
C889 C 0.78562 0.57667 0.63131 0.0
O890 O 0.84764 0.67451 0.62585 0.0
O891 O 0.85513 0.68986 0.67566 0.0
O892 O 0.83783 0.71395 0.69175 0.0
O893 O 0.81168 0.68963 0.66345 0.0
O894 O 0.86937 0.67673 0.65211 0.0
O895 O 0.81123 0.67583 0.62921 0.0
O896 O 0.8229 0.67231 0.73911 0.0
O897 O 0.81253 0.65564 0.68806 0.0
O898 O 0.82581 0.62913 0.67319 0.0
O899 O 0.85491 0.65317 0.70002 0.0
O900 O 0.79956 0.66935 0.71221 0.0
O901 O 0.85461 0.66424 0.73265 0.0
C902 C 0.87617 0.69307 0.66729 0.0
C903 C 0.82371 0.67054 0.59509 0.0
C904 C 0.83047 0.67916 0.55758 0.0
C905 C 0.83592 0.68791 0.57844 0.0
C906 C 0.81251 0.65279 0.55372 0.0
C907 C 0.80576 0.6444 0.59083 0.0
C908 C 0.80022 0.63561 0.57025 0.0
C909 C 0.82213 0.71053 0.67555 0.0
C910 C 0.8307 0.67967 0.61679 0.0
C911 C 0.75889 0.55747 0.62877 0.0
C912 C 0.73864 0.56321 0.63282 0.0
C913 C 0.79199 0.6537 0.69652 0.0
C914 C 0.84816 0.67174 0.7678 0.0
C915 C 0.8365 0.65469 0.78473 0.0
C916 C 0.84653 0.66237 0.80517 0.0
C917 C 0.86826 0.68746 0.80828 0.0
C918 C 0.86982 0.69657 0.77135 0.0
C919 C 0.87975 0.70436 0.79149 0.0
C920 C 0.84171 0.63159 0.68884 0.0
C921 C 0.83776 0.66345 0.7465 0.0
H922 H 0.84996 0.70809 0.58174 0.0
H923 H 0.80761 0.6455 0.53789 0.0
H924 H 0.79612 0.63079 0.60338 0.0
H925 H 0.78633 0.61539 0.56708 0.0
H926 H 0.81992 0.63541 0.78192 0.0
H927 H 0.87618 0.6942 0.82378 0.0
H928 H 0.87909 0.70989 0.75857 0.0
H929 H 0.89642 0.72361 0.7941 0.0
Eu930 Eu 0.35835 0.16473 0.65272 0.0
C931 C 0.27118 0.1358 0.722 0.0
C932 C 0.25724 0.16772 0.71788 0.0
C933 C 0.22636 0.12511 0.73172 0.0
C934 C 0.27668 0.16022 0.71581 0.0
C935 C 0.24618 0.11818 0.73052 0.0
C936 C 0.23187 0.14983 0.72539 0.0
C937 C 0.26304 0.08916 0.7378 0.0
N938 N 0.29082 0.12981 0.72081 0.0
C939 C 0.28751 0.10731 0.72927 0.0
C940 C 0.24215 0.09445 0.73816 0.0
Eu941 Eu 0.33163 0.16126 0.70603 0.0
N942 N 0.30145 0.17708 0.70874 0.0
C943 C 0.30864 0.20231 0.70487 0.0
C944 C 0.26409 0.19316 0.71283 0.0
C945 C 0.29001 0.21062 0.70656 0.0
H946 H 0.3036 0.10311 0.72891 0.0
H947 H 0.29565 0.23046 0.70296 0.0
H948 H 0.21659 0.15514 0.72685 0.0
H949 H 0.2603 0.0711 0.74405 0.0
H950 H 0.32853 0.21603 0.69992 0.0
H951 H 0.38726 0.09009 0.65648 0.0
H952 H 0.24971 0.19965 0.71411 0.0
H953 H 0.39029 0.22113 0.62752 0.0
H954 H 0.35641 0.10706 0.65727 0.0
H955 H 0.43565 0.25175 0.61478 0.0
H956 H 0.20693 0.11174 0.73801 0.0
H957 H 0.43508 0.11959 0.64987 0.0
H958 H 0.47168 0.16413 0.64034 0.0
H959 H 0.22323 0.0804 0.74483 0.0
H960 H 0.48505 0.20852 0.62916 0.0
N961 N 0.38637 0.1462 0.65162 0.0
C962 C 0.37713 0.12029 0.65427 0.0
C963 C 0.42159 0.12723 0.65018 0.0
C964 C 0.43066 0.15341 0.64613 0.0
C965 C 0.39461 0.11051 0.65383 0.0
C966 C 0.41228 0.16238 0.64678 0.0
H967 H 0.47159 0.24119 0.61904 0.0
N968 N 0.40104 0.19445 0.63971 0.0
C969 C 0.43158 0.23383 0.62225 0.0
C970 C 0.4199 0.18739 0.64073 0.0
C971 C 0.40598 0.21651 0.62942 0.0
C972 C 0.45183 0.22785 0.62477 0.0
C973 C 0.44596 0.20406 0.63356 0.0
O974 O 0.34736 0.173 0.62225 0.0
O975 O 0.32654 0.1648 0.67198 0.0
O976 O 0.30137 0.12498 0.68921 0.0
O977 O 0.32647 0.1233 0.6613 0.0
O978 O 0.33979 0.19024 0.64726 0.0
O979 O 0.34384 0.13561 0.62791 0.0
O980 O 0.34424 0.15474 0.73653 0.0
O981 O 0.36381 0.16123 0.68689 0.0
O982 O 0.38674 0.20249 0.66869 0.0
O983 O 0.3618 0.20311 0.69726 0.0
O984 O 0.34828 0.13431 0.7107 0.0
O985 O 0.34801 0.192 0.72938 0.0
C986 C 0.32277 0.18114 0.6623 0.0
C987 C 0.35494 0.15271 0.59373 0.0
C988 C 0.35253 0.15255 0.55561 0.0
C989 C 0.34056 0.14974 0.57532 0.0
C990 C 0.37929 0.15866 0.55476 0.0
C991 C 0.38133 0.15813 0.59245 0.0
C992 C 0.39345 0.16124 0.57307 0.0
C993 C 0.305 0.11273 0.67338 0.0
C994 C 0.3425 0.15102 0.6141 0.0
C995 C 0.46482 0.19585 0.63429 0.0
C996 C 0.45719 0.17056 0.64061 0.0
C997 C 0.366 0.14368 0.69621 0.0
C998 C 0.34008 0.17825 0.7645 0.0
C999 C 0.356 0.18185 0.78207 0.0
C1000 C 0.3469 0.18289 0.80222 0.0
C1001 C 0.32149 0.18009 0.8045 0.0
C1002 C 0.31483 0.17556 0.7671 0.0
C1003 C 0.30559 0.17642 0.78702 0.0
C1004 C 0.38262 0.21432 0.68459 0.0
C1005 C 0.35021 0.17754 0.74364 0.0
H1006 H 0.31997 0.14491 0.57647 0.0
H1007 H 0.3894 0.16159 0.53997 0.0
H1008 H 0.39258 0.16003 0.60637 0.0
H1009 H 0.41395 0.16575 0.57223 0.0
H1010 H 0.37565 0.18429 0.77996 0.0
H1011 H 0.31377 0.18046 0.81981 0.0
H1012 H 0.30235 0.17296 0.75378 0.0
H1013 H 0.28606 0.17426 0.78892 0.0
Eu1014 Eu 0.86215 0.17439 0.71071 0.0
C1015 C 0.80801 0.20213 0.6397 0.0
C1016 C 0.76232 0.16706 0.64195 0.0
C1017 C 0.77179 0.20943 0.62967 0.0
C1018 C 0.78981 0.17651 0.64471 0.0
C1019 C 0.79914 0.21852 0.63149 0.0
C1020 C 0.75344 0.1838 0.63495 0.0
C1021 C 0.84499 0.25097 0.62545 0.0
N1022 N 0.83439 0.21062 0.64163 0.0
C1023 C 0.85287 0.23414 0.63375 0.0
C1024 C 0.81803 0.24333 0.62468 0.0
Eu1025 Eu 0.84569 0.18106 0.65634 0.0
N1026 N 0.79887 0.16061 0.65152 0.0
C1027 C 0.78155 0.13467 0.65409 0.0
C1028 C 0.74452 0.1409 0.64587 0.0
C1029 C 0.75422 0.12458 0.65162 0.0
H1030 H 0.87375 0.24026 0.63458 0.0
H1031 H 0.74061 0.10418 0.65426 0.0
H1032 H 0.73241 0.17691 0.63304 0.0
H1033 H 0.85971 0.26987 0.61977 0.0
H1034 H 0.78823 0.12149 0.65866 0.0
H1035 H 0.96756 0.24669 0.71688 0.0
H1036 H 0.7233 0.13298 0.64402 0.0
H1037 H 0.83066 0.11295 0.72743 0.0
H1038 H 0.91981 0.23111 0.71199 0.0
H1039 H 0.84173 0.07986 0.73938 0.0
H1040 H 0.76464 0.22187 0.62368 0.0
H1041 H 0.98291 0.21553 0.72456 0.0
H1042 H 0.97139 0.16973 0.73241 0.0
H1043 H 0.81198 0.25643 0.61825 0.0
H1044 H 0.93716 0.12435 0.73867 0.0
N1045 N 0.90822 0.1914 0.71622 0.0
C1046 C 0.92619 0.21729 0.71537 0.0
C1047 C 0.9619 0.20856 0.72238 0.0
C1048 C 0.9432 0.18221 0.72446 0.0
C1049 C 0.95331 0.22621 0.71812 0.0
C1050 C 0.91611 0.17414 0.72134 0.0
H1051 H 0.88876 0.09078 0.74171 0.0
N1052 N 0.87096 0.14181 0.72263 0.0
C1053 C 0.85742 0.09907 0.7352 0.0
C1054 C 0.8969 0.14855 0.7247 0.0
C1055 C 0.85121 0.11779 0.72851 0.0
C1056 C 0.884 0.10529 0.73644 0.0
C1057 C 0.90415 0.1304 0.73149 0.0
O1058 O 0.83944 0.16301 0.73977 0.0
O1059 O 0.83188 0.17467 0.68941 0.0
O1060 O 0.8532 0.21781 0.67296 0.0
O1061 O 0.87263 0.21616 0.70459 0.0
O1062 O 0.81742 0.14646 0.712 0.0
O1063 O 0.87418 0.20113 0.73721 0.0
O1064 O 0.86792 0.16882 0.63602 0.0
O1065 O 0.8769 0.18356 0.67787 0.0
O1066 O 0.86165 0.14276 0.69113 0.0
O1067 O 0.83324 0.13898 0.66402 0.0
O1068 O 0.88889 0.21319 0.65649 0.0
O1069 O 0.83888 0.17666 0.62255 0.0
C1070 C 0.81075 0.15672 0.69716 0.0
C1071 C 0.86381 0.18148 0.7706 0.0
C1072 C 0.86097 0.18408 0.80859 0.0
C1073 C 0.85362 0.18755 0.78832 0.0
C1074 C 0.87828 0.17402 0.81067 0.0
C1075 C 0.88147 0.17209 0.7732 0.0
C1076 C 0.88852 0.16824 0.7931 0.0
C1077 C 0.86538 0.22816 0.69086 0.0
C1078 C 0.85556 0.18446 0.7495 0.0
C1079 C 0.93116 0.13808 0.7337 0.0
C1080 C 0.95066 0.16393 0.73015 0.0
C1081 C 0.89705 0.20356 0.67088 0.0
C1082 C 0.8762 0.18623 0.60188 0.0
C1083 C 0.87398 0.17478 0.58218 0.0
C1084 C 0.8909 0.18943 0.56568 0.0
C1085 C 0.91028 0.21542 0.56929 0.0
C1086 C 0.89572 0.21223 0.605 0.0
C1087 C 0.91268 0.22666 0.58883 0.0
C1088 C 0.84634 0.13011 0.67508 0.0
C1089 C 0.8576 0.17132 0.61881 0.0
H1090 H 0.84036 0.19527 0.78627 0.0
H1091 H 0.88386 0.17044 0.82591 0.0
H1092 H 0.88976 0.16763 0.75989 0.0
H1093 H 0.90195 0.16068 0.79491 0.0
H1094 H 0.85881 0.15478 0.57958 0.0
H1095 H 0.9238 0.22704 0.557 0.0
H1096 H 0.89788 0.22158 0.61982 0.0
H1097 H 0.92769 0.24668 0.59144 0.0
H1098 H 0.29528 0.87426 0.06133 0.0
H1099 H 0.44523 0.93224 0.02152 0.0
H1100 H 0.33429 0.829 0.05454 0.0
H1101 H 0.41116 0.97949 0.03874 0.0
H1102 H 0.40232 0.89338 0.02796 0.0
H1103 H 0.33536 0.91217 0.04823 0.0
C1104 C 0.31222 0.87224 0.05709 0.0
C1105 C 0.31133 0.84831 0.0592 0.0
C1106 C 0.4041 0.91224 0.03009 0.0
C1107 C 0.35727 0.89169 0.04388 0.0
C1108 C 0.42855 0.93443 0.0262 0.0
C1109 C 0.43157 0.95909 0.02929 0.0
C1110 C 0.38263 0.91474 0.03738 0.0
C1111 C 0.4095 0.96079 0.03601 0.0
C1112 C 0.33506 0.89388 0.04948 0.0
C1113 C 0.33381 0.84687 0.053 0.0
N1114 N 0.38598 0.93893 0.03988 0.0
N1115 N 0.35583 0.86823 0.04574 0.0
H1116 H 0.18942 0.50575 0.04751 0.0
H1117 H 0.03062 0.43398 0.04112 0.0
H1118 H 0.13813 0.4242 0.05956 0.0
H1119 H 0.08108 0.51352 0.02286 0.0
H1120 H 0.07007 0.42973 0.04632 0.0
H1121 H 0.15062 0.50865 0.03636 0.0
C1122 C 0.1701 0.48835 0.04756 0.0
C1123 C 0.16716 0.46472 0.05471 0.0
C1124 C 0.07259 0.44806 0.04093 0.0
C1125 C 0.12243 0.46806 0.04227 0.0
C1126 C 0.05006 0.45046 0.03796 0.0
C1127 C 0.05257 0.47395 0.03117 0.0
C1128 C 0.098 0.46953 0.03756 0.0
C1129 C 0.07823 0.49489 0.02765 0.0
C1130 C 0.14789 0.49009 0.04131 0.0
C1131 C 0.14144 0.44296 0.05461 0.0
N1132 N 0.09995 0.49221 0.03096 0.0
N1133 N 0.12016 0.44521 0.04867 0.0
H1134 H 0.55832 0.6941 0.09459 0.0
H1135 H 0.50435 0.5892 0.00406 0.0
H1136 H 0.5298 0.70763 0.03626 0.0
H1137 H 0.56116 0.59474 0.05032 0.0
H1138 H 0.51 0.63056 0.01643 0.0
H1139 H 0.55573 0.65531 0.0797 0.0
C1140 C 0.55182 0.68917 0.07856 0.0
C1141 C 0.54457 0.70448 0.06663 0.0
C1142 C 0.52139 0.62277 0.02368 0.0
C1143 C 0.54081 0.65939 0.04966 0.0
C1144 C 0.51829 0.59921 0.01657 0.0
C1145 C 0.5324 0.58843 0.02605 0.0
C1146 C 0.53833 0.63538 0.04062 0.0
C1147 C 0.54979 0.60215 0.04251 0.0
C1148 C 0.55019 0.66686 0.07011 0.0
C1149 C 0.53538 0.69637 0.04615 0.0
N1150 N 0.55207 0.62475 0.04937 0.0
N1151 N 0.53366 0.67431 0.03833 0.0
H1152 H 0.82773 0.29402 1.00267 0.0
H1153 H 0.97022 0.41431 0.97786 0.0
H1154 H 0.862 0.311 0.94081 0.0
H1155 H 0.91987 0.419 0.02527 0.0
H1156 H 0.93394 0.37178 0.96787 0.0
H1157 H 0.86436 0.3357 0.0147 0.0
C1158 C 0.84279 0.30636 0.99157 0.0
C1159 C 0.84159 0.29863 0.97062 0.0
C1160 C 0.93094 0.38208 0.98056 0.0
C1161 C 0.88397 0.34606 0.98458 0.0
C1162 C 0.95168 0.40639 0.98637 0.0
C1163 C 0.94827 0.42041 1.00257 0.0
C1164 C 0.90662 0.37136 0.99118 0.0
C1165 C 0.92362 0.40888 0.01291 0.0
C1166 C 0.86376 0.3301 0.99853 0.0
C1167 C 0.86218 0.3155 0.95719 0.0
N1168 N 0.90375 0.38498 0.00709 0.0
N1169 N 0.88249 0.33824 0.96442 0.0
H1170 H 0.72257 0.58791 0.9641 0.0
H1171 H 0.57299 0.49821 0.00414 0.0
H1172 H 0.68975 0.50766 0.98144 0.0
H1173 H 0.60545 0.57826 0.98688 0.0
H1174 H 0.61659 0.50225 0.99871 0.0
H1175 H 0.68099 0.58569 0.9747 0.0
C1176 C 0.70668 0.56982 0.97016 0.0
C1177 C 0.70977 0.54791 0.97174 0.0
C1178 C 0.61433 0.51905 0.99632 0.0
C1179 C 0.66193 0.54526 0.98407 0.0
C1180 C 0.58942 0.51678 0.99962 0.0
C1181 C 0.58571 0.53808 0.99645 0.0
C1182 C 0.63567 0.54271 0.98938 0.0
C1183 C 0.60757 0.56146 0.98979 0.0
C1184 C 0.68294 0.5686 0.97632 0.0
C1185 C 0.6885 0.52515 0.98009 0.0
N1186 N 0.63156 0.56315 0.98646 0.0
N1187 N 0.66552 0.52438 0.98579 0.0
H1188 H 0.51698 0.19061 0.97383 0.0
H1189 H 0.44719 0.03827 0.98458 0.0
H1190 H 0.43314 0.14135 0.96146 0.0
H1191 H 0.51754 0.09058 0.0194 0.0
H1192 H 0.44227 0.07518 0.97393 0.0
H1193 H 0.51834 0.15368 0.98858 0.0
C1194 C 0.49871 0.17215 0.97445 0.0
C1195 C 0.47483 0.16929 0.96646 0.0
C1196 C 0.45858 0.07847 0.98409 0.0
C1197 C 0.47658 0.12656 0.98285 0.0
C1198 C 0.46146 0.05746 0.99013 0.0
C1199 C 0.48285 0.06135 1.00286 0.0
C1200 C 0.47749 0.10356 0.99052 0.0
C1201 C 0.50068 0.08662 0.00965 0.0
C1202 C 0.49959 0.151 0.9828 0.0
C1203 C 0.45209 0.14452 0.96715 0.0
N1204 N 0.49778 0.1068 1.00319 0.0
N1205 N 0.45356 0.12406 0.97507 0.0
H1206 H 0.70141 0.15707 0.9895 0.0
H1207 H 0.54566 0.06965 1.0027 0.0
H1208 H 0.6452 0.17979 0.96859 0.0
H1209 H 0.5919 0.03318 0.98831 0.0
H1210 H 0.58483 0.11187 0.99769 0.0
H1211 H 0.66418 0.1127 0.99486 0.0
C1212 C 0.68141 0.1528 0.98586 0.0
C1213 C 0.67652 0.17249 0.97893 0.0
C1214 C 0.58652 0.09466 0.99576 0.0
C1215 C 0.63406 0.1221 0.98553 0.0
C1216 C 0.56417 0.07048 0.99889 0.0
C1217 C 0.56561 0.04781 0.99642 0.0
C1218 C 0.61066 0.09639 0.99002 0.0
C1219 C 0.5901 0.05026 0.99062 0.0
C1220 C 0.66022 0.12753 0.98903 0.0
C1221 C 0.65006 0.16566 0.97459 0.0
N1222 N 0.61184 0.07419 0.98775 0.0
N1223 N 0.62993 0.14125 0.9782 0.0
H1224 H 0.82214 0.4658 0.97896 0.0
H1225 H 0.97975 0.55649 0.98425 0.0
H1226 H 0.85766 0.54834 0.98807 0.0
H1227 H 0.93811 0.47559 1.00077 0.0
H1228 H 0.93661 0.5548 0.98022 0.0
H1229 H 0.86595 0.47002 0.98097 0.0
C1230 C 0.83916 0.48489 0.98142 0.0
C1231 C 0.83597 0.50667 0.98383 0.0
C1232 C 0.93702 0.53751 0.98484 0.0
C1233 C 0.88671 0.51168 0.98572 0.0
C1234 C 0.96155 0.53844 0.9871 0.0
C1235 C 0.9625 0.51633 0.99342 0.0
C1236 C 0.91335 0.51404 0.98821 0.0
C1237 C 0.93839 0.49328 0.99649 0.0
C1238 C 0.86424 0.48726 0.98252 0.0
C1239 C 0.85907 0.53099 0.9862 0.0
N1240 N 0.91489 0.49275 0.99384 0.0
N1241 N 0.88349 0.53285 0.98719 0.0
H1242 H 0.47815 0.30853 0.98123 0.0
H1243 H 0.54776 0.45211 0.01382 0.0
H1244 H 0.55894 0.36157 0.96239 0.0
H1245 H 0.47171 0.42362 0.98343 0.0
H1246 H 0.54883 0.41384 1.00221 0.0
H1247 H 0.47164 0.3458 0.98743 0.0
C1248 C 0.49437 0.32785 0.97806 0.0
C1249 C 0.51937 0.33188 0.97172 0.0
C1250 C 0.53191 0.41598 0.9981 0.0
C1251 C 0.51208 0.3742 0.97924 0.0
C1252 C 0.53114 0.43775 0.0048 0.0
C1253 C 0.50963 0.44119 0.99949 0.0
C1254 C 0.51079 0.39706 0.98639 0.0
C1255 C 0.48872 0.42175 0.98774 0.0
C1256 C 0.49059 0.34902 0.98165 0.0
C1257 C 0.53963 0.35745 0.96798 0.0
N1258 N 0.48967 0.40023 0.98168 0.0
N1259 N 0.53571 0.37761 0.97221 0.0
H1260 H 0.2075 0.67898 0.0162 0.0
H1261 H 0.05479 0.58407 0.04598 0.0
H1262 H 0.17313 0.69021 0.07214 0.0
H1263 H 0.09989 0.56762 1.00105 0.0
H1264 H 0.09492 0.62597 0.05334 0.0
H1265 H 0.16473 0.64176 0.00731 0.0
C1266 C 0.19084 0.67361 0.02661 0.0
C1267 C 0.194 0.68742 0.04513 0.0
C1268 C 0.09577 0.61317 0.04173 0.0
C1269 C 0.14468 0.64454 0.03505 0.0
C1270 C 0.07291 0.58929 0.0375 0.0
C1271 C 0.07372 0.5723 0.02262 0.0
C1272 C 0.11944 0.62008 0.03088 0.0
C1273 C 0.09787 0.58008 0.01228 0.0
C1274 C 0.16638 0.65232 0.02153 0.0
C1275 C 0.17153 0.67997 0.05776 0.0
N1276 N 0.11957 0.60326 0.01657 0.0
N1277 N 0.14779 0.6588 0.05261 0.0
H1278 H 0.31139 0.46122 0.03821 0.0
H1279 H 0.46824 0.5339 0.02468 0.0
H1280 H 0.3636 0.54068 0.05651 0.0
H1281 H 0.42589 0.45228 0.0388 0.0
H1282 H 0.42752 0.53545 0.03002 0.0
H1283 H 0.35067 0.4559 0.03372 0.0
C1284 C 0.33095 0.47742 0.04152 0.0
C1285 C 0.3341 0.5016 0.04737 0.0
C1286 C 0.42703 0.51713 0.03187 0.0
C1287 C 0.37894 0.49577 0.04178 0.0
C1288 C 0.45028 0.51618 0.02859 0.0
C1289 C 0.45039 0.4928 0.03086 0.0
C1290 C 0.40352 0.49456 0.03751 0.0
C1291 C 0.42653 0.47062 0.03666 0.0
C1292 C 0.35333 0.4744 0.03883 0.0
C1293 C 0.36006 0.52189 0.05137 0.0
N1294 N 0.40393 0.47195 0.03962 0.0
N1295 N 0.38133 0.51862 0.04823 0.0
H1296 H 0.52794 0.84105 0.08091 0.0
H1297 H 0.47896 0.91229 1.0016 0.0
H1298 H 0.46643 0.80267 0.0346 0.0
H1299 H 0.53707 0.9538 0.04971 0.0
H1300 H 0.47798 0.87283 0.01181 0.0
H1301 H 0.53502 0.88306 0.06832 0.0
C1302 C 0.51607 0.84149 0.06803 0.0
C1303 C 0.49635 0.81834 0.05893 0.0
C1304 C 0.49115 0.89053 0.02011 0.0
C1305 C 0.50433 0.8661 0.04451 0.0
C1306 C 0.49192 0.91331 0.01412 0.0
C1307 C 0.50832 0.93665 0.02463 0.0
C1308 C 0.50667 0.89074 0.03698 0.0
C1309 C 0.52414 0.93629 0.04111 0.0
C1310 C 0.52006 0.86541 0.06092 0.0
C1311 C 0.48149 0.81997 0.04234 0.0
N1312 N 0.52282 0.91362 0.04688 0.0
N1313 N 0.48575 0.84337 0.03573 0.0
H1314 H 1.00101 0.15997 0.38096 0.0
H1315 H 0.07758 0.31433 0.37016 0.0
H1316 H 0.96466 0.20668 0.39322 0.0
H1317 H 0.11277 0.26745 0.35511 0.0
H1318 H 0.03485 0.2748 0.37569 0.0
H1319 H 0.04068 0.19854 0.36831 0.0
C1320 C 1.00117 0.17824 0.38075 0.0
C1321 C 0.9794 0.18 0.38834 0.0
C1322 C 0.0518 0.2731 0.37087 0.0
C1323 C 0.02515 0.22449 0.37416 0.0
C1324 C 0.07614 0.29566 0.36768 0.0
C1325 C 0.09858 0.29414 0.36181 0.0
C1326 C 0.04999 0.24878 0.36863 0.0
C1327 C 0.09585 0.26952 0.35916 0.0
C1328 C 0.02396 0.20033 0.37362 0.0
C1329 C 0.98108 0.20439 0.38791 0.0
N1330 N 0.07204 0.24781 0.36269 0.0
N1331 N 1.00357 0.22564 0.3811 0.0
H1332 H 0.84686 0.80748 0.36162 0.0
H1333 H 0.70096 0.76834 0.38081 0.0
H1334 H 0.82149 0.80083 0.42594 0.0
H1335 H 0.74815 0.84645 0.35797 0.0
H1336 H 0.742 0.76754 0.38864 0.0
H1337 H 0.80787 0.81071 0.35119 0.0
C1338 C 0.83341 0.80677 0.37362 0.0
C1339 C 0.83776 0.80354 0.39482 0.0
C1340 C 0.74323 0.78464 0.38159 0.0
C1341 C 0.79265 0.80635 0.38264 0.0
C1342 C 0.71995 0.78516 0.37712 0.0
C1343 C 0.72115 0.80723 0.36818 0.0
C1344 C 0.76792 0.80625 0.37692 0.0
C1345 C 0.74634 0.82875 0.36421 0.0
C1346 C 0.81109 0.8085 0.36754 0.0
C1347 C 0.81894 0.80235 0.40938 0.0
N1348 N 0.76883 0.82767 0.36842 0.0
N1349 N 0.79713 0.80337 0.403 0.0
H1350 H 0.19746 0.04128 0.36612 0.0
H1351 H 0.23198 0.92869 0.38294 0.0
H1352 H 0.22689 0.0282 0.42418 0.0
H1353 H 0.17241 0.921 0.33852 0.0
H1354 H 0.23702 0.96992 0.39425 0.0
H1355 H 0.1939 0.00125 0.35226 0.0
C1356 C 0.20314 0.03008 0.37599 0.0
C1357 C 0.21268 0.0384 0.39637 0.0
C1358 C 0.22296 0.95928 0.38193 0.0
C1359 C 0.20922 0.99295 0.38034 0.0
C1360 C 0.22008 0.9357 0.37538 0.0
C1361 C 0.20169 0.9212 0.3597 0.0
C1362 C 0.20755 0.9687 0.37266 0.0
C1363 C 0.18699 0.93155 0.35051 0.0
C1364 C 0.20121 0.00732 0.36799 0.0
C1365 C 0.22009 0.02314 0.40823 0.0
N1366 N 0.19023 0.9547 0.35714 0.0
N1367 N 0.21831 0.0013 0.40002 0.0
H1368 H 0.53091 0.63895 0.27136 0.0
H1369 H 0.58645 0.74784 0.35842 0.0
H1370 H 0.49587 0.62478 0.33289 0.0
H1371 H 0.63645 0.74441 0.31009 0.0
H1372 H 0.55112 0.70481 0.34806 0.0
H1373 H 0.56782 0.67958 0.28392 0.0
C1374 C 0.53102 0.64405 0.2876 0.0
C1375 C 0.51007 0.62798 0.30108 0.0
C1376 C 0.56994 0.71341 0.3399 0.0
C1377 C 0.55223 0.67537 0.31533 0.0
C1378 C 0.59025 0.73797 0.34588 0.0
C1379 C 0.61476 0.74979 0.33537 0.0
C1380 C 0.57388 0.70075 0.32295 0.0
C1381 C 0.61802 0.73616 0.31876 0.0
C1382 C 0.55212 0.66747 0.29469 0.0
C1383 C 0.51123 0.63649 0.32177 0.0
N1384 N 0.59777 0.71251 0.31297 0.0
N1385 N 0.53182 0.65965 0.32821 0.0
H1386 H 0.37882 0.86724 0.33482 0.0
H1387 H 0.27107 0.90764 0.31586 0.0
H1388 H 0.36499 0.88631 0.27257 0.0
H1389 H 0.24439 0.83236 0.34295 0.0
H1390 H 0.31409 0.91097 0.30822 0.0
H1391 H 0.33694 0.86412 0.34595 0.0
C1392 C 0.36728 0.87074 0.32338 0.0
C1393 C 0.37608 0.87714 0.30253 0.0
C1394 C 0.29893 0.89398 0.31621 0.0
C1395 C 0.32854 0.87469 0.31576 0.0
C1396 C 0.27446 0.89206 0.32063 0.0
C1397 C 0.25426 0.86993 0.33046 0.0
C1398 C 0.30349 0.87381 0.32193 0.0
C1399 C 0.25961 0.85009 0.33592 0.0
C1400 C 0.3434 0.86911 0.32991 0.0
C1401 C 0.36002 0.8821 0.28889 0.0
N1402 N 0.28383 0.85256 0.33172 0.0
N1403 N 0.33734 0.88104 0.29579 0.0
H1404 H 0.12739 0.47974 0.26685 0.0
H1405 H 0.17712 0.42418 0.35794 0.0
H1406 H 0.15181 0.51815 0.32668 0.0
H1407 H 0.12387 0.37625 0.3091 0.0
H1408 H 0.17115 0.46006 0.34616 0.0
H1409 H 0.1292 0.44288 0.28127 0.0
C1410 C 0.13279 0.48038 0.2831 0.0
C1411 C 0.13925 0.5022 0.29556 0.0
C1412 C 0.16058 0.44157 0.33822 0.0
C1413 C 0.14214 0.46004 0.31202 0.0
C1414 C 0.16386 0.421 0.34499 0.0
C1415 C 0.15087 0.397 0.33462 0.0
C1416 C 0.14459 0.43825 0.32073 0.0
C1417 C 0.13437 0.39432 0.31761 0.0
C1418 C 0.13399 0.4593 0.29129 0.0
C1419 C 0.14696 0.50199 0.31636 0.0
N1420 N 0.13191 0.41473 0.31111 0.0
N1421 N 0.14835 0.48131 0.32391 0.0
H1422 H 0.32958 0.51814 0.3411 0.0
H1423 H 0.25747 0.3661 0.31855 0.0
H1424 H 0.35689 0.48707 0.29222 0.0
H1425 H 0.21705 0.4055 0.3411 0.0
H1426 H 0.29836 0.40842 0.31474 0.0
H1427 H 0.29279 0.47466 0.34792 0.0
C1428 C 0.3279 0.50222 0.33175 0.0
C1429 C 0.34614 0.50652 0.31568 0.0
C1430 C 0.28054 0.40763 0.32076 0.0
C1431 C 0.30414 0.45641 0.32382 0.0
C1432 C 0.2573 0.38359 0.32298 0.0
C1433 C 0.23403 0.38221 0.33078 0.0
C1434 C 0.2804 0.43037 0.32642 0.0
C1435 C 0.23465 0.40546 0.33576 0.0
C1436 C 0.3069 0.47737 0.33575 0.0
C1437 C 0.34334 0.4848 0.3047 0.0
N1438 N 0.25747 0.4285 0.33368 0.0
N1439 N 0.32261 0.46067 0.30888 0.0
H1440 H 0.52175 0.87609 0.32052 0.0
H1441 H 0.60406 0.80283 0.33392 0.0
H1442 H 0.49021 0.79506 0.30626 0.0
H1443 H 0.64412 0.88405 0.31844 0.0
H1444 H 0.56139 0.80079 0.32898 0.0
H1445 H 0.56631 0.88087 0.32378 0.0
C1446 C 0.52412 0.85939 0.31787 0.0
C1447 C 0.50192 0.83501 0.31347 0.0
C1448 C 0.57948 0.81911 0.32669 0.0
C1449 C 0.55269 0.84029 0.31761 0.0
C1450 C 0.6039 0.82034 0.32972 0.0
C1451 C 0.6277 0.8438 0.3271 0.0
C1452 C 0.57869 0.84151 0.32098 0.0
C1453 C 0.62616 0.86567 0.3209 0.0
C1454 C 0.54954 0.86212 0.31985 0.0
C1455 C 0.5064 0.81408 0.31031 0.0
N1456 N 0.60205 0.86411 0.31829 0.0
N1457 N 0.53105 0.81714 0.31268 0.0
H1458 H 0.15947 0.65691 0.28275 0.0
H1459 H 0.20689 0.77623 0.36146 0.0
H1460 H 0.21575 0.67521 0.3329 0.0
H1461 H 0.14946 0.76092 0.31269 0.0
H1462 H 0.20729 0.73716 0.35216 0.0
H1463 H 0.15261 0.69261 0.29425 0.0
C1464 C 0.17019 0.66828 0.29626 0.0
C1465 C 0.18847 0.6633 0.30673 0.0
C1466 C 0.19438 0.74209 0.34352 0.0
C1467 C 0.18079 0.70402 0.31989 0.0
C1468 C 0.19396 0.76448 0.34897 0.0
C1469 C 0.17789 0.77194 0.33802 0.0
C1470 C 0.17888 0.72691 0.32675 0.0
C1471 C 0.16212 0.75593 0.32162 0.0
C1472 C 0.16635 0.68868 0.30275 0.0
C1473 C 0.20189 0.67866 0.32409 0.0
N1474 N 0.16312 0.73421 0.31638 0.0
N1475 N 0.19785 0.6983 0.33003 0.0
H1476 H 0.85902 0.02055 0.3413 0.0
H1477 H 0.73028 0.90151 0.39085 0.0
H1478 H 0.84224 0.01592 0.40715 0.0
H1479 H 0.74227 0.91669 0.32489 0.0
H1480 H 0.76906 0.9444 0.3977 0.0
H1481 H 0.81469 0.98371 0.33522 0.0
C1482 C 0.84573 0.0119 0.35444 0.0
C1483 C 0.85419 0.02115 0.37473 0.0
C1484 C 0.76305 0.93839 0.38172 0.0
C1485 C 0.80351 0.97855 0.36803 0.0
C1486 C 0.74088 0.91397 0.37781 0.0
C1487 C 0.73356 0.90523 0.3572 0.0
C1488 C 0.77788 0.95407 0.36487 0.0
C1489 C 0.7479 0.92214 0.34092 0.0
C1490 C 0.82043 0.99085 0.35101 0.0
C1491 C 0.83631 0.00933 0.39127 0.0
N1492 N 0.76946 0.94557 0.34508 0.0
N1493 N 0.81188 0.98835 0.38761 0.0
H1494 H 0.03329 0.87762 0.38718 0.0
H1495 H 0.09535 0.78519 0.37574 0.0
H1496 H 0.9824 0.79621 0.37425 0.0
H1497 H 0.13687 0.86641 0.3603 0.0
H1498 H 0.05421 0.78727 0.38048 0.0
H1499 H 0.07194 0.87223 0.38354 0.0
C1500 C 0.03017 0.85851 0.38357 0.0
C1501 C 1.00439 0.83746 0.38054 0.0
C1502 C 0.07233 0.80452 0.37588 0.0
C1503 C 0.04909 0.83107 0.37671 0.0
C1504 C 0.09575 0.80337 0.3732 0.0
C1505 C 0.11944 0.82551 0.36709 0.0
C1506 C 0.07292 0.82823 0.37317 0.0
C1507 C 0.11903 0.8487 0.36442 0.0
C1508 C 0.05236 0.85548 0.38151 0.0
C1509 C 1.00182 0.81302 0.37663 0.0
N1510 N 0.09627 0.84946 0.36755 0.0
N1511 N 0.02392 0.81049 0.37473 0.0
H1512 H 0.13526 0.1369 0.3646 0.0
H1513 H 0.20611 0.29027 0.38328 0.0
H1514 H 0.19544 0.17565 0.41178 0.0
H1515 H 0.14561 0.24737 0.33709 0.0
H1516 H 0.20513 0.24984 0.39318 0.0
H1517 H 0.14158 0.17855 0.35328 0.0
C1518 C 0.14982 0.15426 0.37262 0.0
C1519 C 0.16459 0.15278 0.38933 0.0
C1520 C 0.19233 0.24948 0.38072 0.0
C1521 C 0.1721 0.20089 0.37639 0.0
C1522 C 0.19288 0.27253 0.37506 0.0
C1523 C 0.17612 0.27239 0.35914 0.0
C1524 C 0.17484 0.22624 0.37042 0.0
C1525 C 0.15928 0.24876 0.34915 0.0
C1526 C 0.15353 0.17812 0.3661 0.0
C1527 C 0.18363 0.17598 0.39883 0.0
N1528 N 0.15906 0.22679 0.35497 0.0
N1529 N 0.1867 0.19914 0.39235 0.0
H1530 H 0.66751 0.49709 0.71764 0.0
H1531 H 0.74498 0.65109 0.70493 0.0
H1532 H 0.63139 0.5442 0.72905 0.0
H1533 H 0.77892 0.60316 0.68989 0.0
H1534 H 0.70201 0.61197 0.7109 0.0
H1535 H 0.70712 0.53525 0.70462 0.0
C1536 C 0.66771 0.51537 0.71719 0.0
C1537 C 0.64595 0.51732 0.72456 0.0
C1538 C 0.71873 0.60995 0.70596 0.0
C1539 C 0.69174 0.56143 0.70993 0.0
C1540 C 0.7432 0.63227 0.70249 0.0
C1541 C 0.76539 0.63032 0.69658 0.0
C1542 C 0.71656 0.58546 0.70394 0.0
C1543 C 0.76222 0.60554 0.69398 0.0
C1544 C 0.69048 0.53725 0.70983 0.0
C1545 C 0.64777 0.54176 0.72389 0.0
N1546 N 0.73832 0.58408 0.6978 0.0
N1547 N 0.67028 0.56283 0.71683 0.0
H1548 H 0.52802 0.17698 0.71922 0.0
H1549 H 0.36965 0.10159 0.70668 0.0
H1550 H 0.47817 0.09402 0.7242 0.0
H1551 H 0.41825 0.18256 0.6918 0.0
H1552 H 0.40979 0.09894 0.71276 0.0
H1553 H 0.48912 0.17992 0.70808 0.0
C1554 C 0.50904 0.15934 0.71773 0.0
C1555 C 0.50645 0.13522 0.72293 0.0
C1556 C 0.41183 0.11729 0.70797 0.0
C1557 C 0.46166 0.13855 0.7105 0.0
C1558 C 0.38888 0.11878 0.70451 0.0
C1559 C 0.39064 0.14213 0.69823 0.0
C1560 C 0.43696 0.13953 0.7057 0.0
C1561 C 0.41605 0.164 0.69611 0.0
C1562 C 0.48677 0.16108 0.71149 0.0
C1563 C 0.48117 0.11312 0.72083 0.0
N1564 N 0.43824 0.16219 0.69987 0.0
N1565 N 0.45987 0.11535 0.71497 0.0
H1566 H 0.87741 0.37966 0.69383 0.0
H1567 H 0.89516 0.25874 0.72342 0.0
H1568 H 0.89722 0.36581 0.75574 0.0
H1569 H 0.84881 0.25832 0.67049 0.0
H1570 H 0.90312 0.30176 0.7327 0.0
H1571 H 0.87368 0.33872 0.68232 0.0
C1572 C 0.88106 0.36815 0.705 0.0
C1573 C 0.88763 0.37634 0.72584 0.0
C1574 C 0.89136 0.2923 0.71896 0.0
C1575 C 0.88383 0.32972 0.71262 0.0
C1576 C 0.88679 0.2677 0.71362 0.0
C1577 C 0.87137 0.25482 0.69602 0.0
C1578 C 0.88059 0.30427 0.7066 0.0
C1579 C 0.86115 0.26758 0.68396 0.0
C1580 C 0.87902 0.34483 0.69838 0.0
C1581 C 0.8926 0.36071 0.73946 0.0
N1582 N 0.86593 0.2916 0.68947 0.0
N1583 N 0.89058 0.33821 0.73261 0.0
H1584 H 0.19778 0.97552 0.60457 0.0
H1585 H 0.25621 0.08399 0.69231 0.0
H1586 H 0.16365 0.96155 0.66641 0.0
H1587 H 0.3038 0.08104 0.64173 0.0
H1588 H 0.22026 0.04114 0.68213 0.0
H1589 H 0.23485 0.01618 0.61683 0.0
C1590 C 0.19813 0.98069 0.62081 0.0
C1591 C 0.17744 0.96464 0.63448 0.0
C1592 C 0.2387 0.04982 0.67342 0.0
C1593 C 0.21982 0.01206 0.64844 0.0
C1594 C 0.25934 0.07428 0.67928 0.0
C1595 C 0.28334 0.08619 0.66806 0.0
C1596 C 0.2418 0.03735 0.65593 0.0
C1597 C 0.28579 0.07273 0.65094 0.0
C1598 C 0.21933 0.00413 0.62775 0.0
C1599 C 0.17887 0.97324 0.65518 0.0
N1600 N 0.26524 0.04919 0.64533 0.0
N1601 N 0.1996 0.9964 0.66149 0.0
H1602 H 0.02499 0.17183 0.64657 0.0
H1603 H 0.94351 0.24704 0.66126 0.0
H1604 H 0.05815 0.25355 0.6346 0.0
H1605 H 0.91116 0.1659 0.6747 0.0
H1606 H 0.98657 0.25048 0.65372 0.0
H1607 H 0.98438 0.16996 0.65928 0.0
C1608 C 0.02394 0.18949 0.64682 0.0
C1609 C 0.04522 0.2129 0.63939 0.0
C1610 C 0.97018 0.23197 0.65858 0.0
C1611 C 0.99823 0.21073 0.65369 0.0
C1612 C 0.94562 0.23005 0.66294 0.0
C1613 C 0.92384 0.20628 0.66896 0.0
C1614 C 0.97295 0.20984 0.6599 0.0
C1615 C 0.92753 0.18474 0.67054 0.0
C1616 C 1.00058 0.18834 0.65397 0.0
C1617 C 0.04224 0.23497 0.63983 0.0
N1618 N 0.95153 0.18701 0.66598 0.0
N1619 N 0.01924 0.23331 0.64674 0.0
H1620 H 0.81999 0.85508 0.66148 0.0
H1621 H 0.78876 0.70966 0.64505 0.0
H1622 H 0.79265 0.81299 0.60336 0.0
H1623 H 0.84331 0.75952 0.69247 0.0
H1624 H 0.78297 0.74536 0.63331 0.0
H1625 H 0.82248 0.8184 0.67633 0.0
C1626 C 0.81451 0.83822 0.65182 0.0
C1627 C 0.80602 0.83723 0.63109 0.0
C1628 C 0.79608 0.74845 0.64637 0.0
C1629 C 0.80831 0.79507 0.6482 0.0
C1630 C 0.79938 0.72803 0.65317 0.0
C1631 C 0.81665 0.73152 0.6698 0.0
C1632 C 0.80999 0.77263 0.65629 0.0
C1633 C 0.82969 0.75584 0.67969 0.0
C1634 C 0.81583 0.81727 0.66037 0.0
C1635 C 0.79876 0.8146 0.6195 0.0
N1636 N 0.82615 0.77553 0.67274 0.0
N1637 N 0.80003 0.79448 0.62822 0.0
H1638 H 0.02515 0.82299 0.62554 0.0
H1639 H 0.88362 0.74098 0.67731 0.0
H1640 H 0.99636 0.85321 0.67399 0.0
H1641 H 0.92492 0.70324 0.65306 0.0
H1642 H 0.92391 0.78268 0.67369 0.0
H1643 H 0.98848 0.77925 0.63323 0.0
C1644 C 0.0114 0.82049 0.63794 0.0
C1645 C 0.0137 0.84203 0.64885 0.0
C1646 C 0.92434 0.7653 0.66937 0.0
C1647 C 0.97145 0.79211 0.6574 0.0
C1648 C 0.90129 0.74137 0.67157 0.0
C1649 C 0.90109 0.71844 0.66618 0.0
C1650 C 0.94727 0.76656 0.66096 0.0
C1651 C 0.92442 0.72045 0.65783 0.0
C1652 C 0.99042 0.79551 0.64225 0.0
C1653 C 0.99506 0.83743 0.66468 0.0
N1654 N 0.9466 0.74412 0.65536 0.0
N1655 N 0.97463 0.81313 0.66827 0.0
H1656 H 0.18922 0.20099 0.62495 0.0
H1657 H 0.27304 0.14133 0.67212 0.0
H1658 H 0.16285 0.1493 0.67792 0.0
H1659 H 0.31335 0.21902 0.64758 0.0
H1660 H 0.23088 0.14088 0.66958 0.0
H1661 H 0.23382 0.20617 0.62906 0.0
C1662 C 0.19275 0.19096 0.63755 0.0
C1663 C 0.17187 0.17422 0.65081 0.0
C1664 C 0.24896 0.15813 0.66488 0.0
C1665 C 0.22266 0.1796 0.65519 0.0
C1666 C 0.27311 0.15846 0.66646 0.0
C1667 C 0.29695 0.18065 0.6609 0.0
C1668 C 0.24835 0.17983 0.65696 0.0
C1669 C 0.29549 0.20177 0.65257 0.0
C1670 C 0.21819 0.19383 0.6398 0.0
C1671 C 0.17787 0.16171 0.66682 0.0
N1672 N 0.2716 0.20088 0.65085 0.0
N1673 N 0.20244 0.16435 0.66834 0.0
H1674 H 0.88831 0.0115 0.66144 0.0
H1675 H 0.81442 0.09374 0.64557 0.0
H1676 H 0.82773 0.99163 0.61457 0.0
H1677 H 0.8778 0.11164 0.68945 0.0
H1678 H 0.81638 0.055 0.63476 0.0
H1679 H 0.88196 0.04691 0.67296 0.0
C1680 C 0.87371 0.0147 0.65349 0.0
C1681 C 0.8588 0.99881 0.63684 0.0
C1682 C 0.82962 0.06738 0.6469 0.0
C1683 C 0.85117 0.03946 0.65008 0.0
C1684 C 0.82851 0.08945 0.65308 0.0
C1685 C 0.8457 0.10586 0.66868 0.0
C1686 C 0.84811 0.06185 0.65639 0.0
C1687 C 0.8637 0.09944 0.67773 0.0
C1688 C 0.86996 0.03489 0.66014 0.0
C1689 C 0.83965 0.00347 0.62748 0.0
N1690 N 0.86441 0.07808 0.67145 0.0
N1691 N 0.83649 0.02353 0.63414 0.0
H1692 H 0.52904 0.35718 0.67517 0.0
H1693 H 0.39887 0.23798 0.72279 0.0
H1694 H 0.50908 0.35324 0.74034 0.0
H1695 H 0.41328 0.25261 0.65692 0.0
H1696 H 0.43719 0.28098 0.72995 0.0
H1697 H 0.48526 0.31988 0.6683 0.0
C1698 C 0.51518 0.34858 0.68798 0.0
C1699 C 0.52259 0.35816 0.70833 0.0
C1700 C 0.43183 0.27481 0.71392 0.0
C1701 C 0.47253 0.31506 0.70074 0.0
C1702 C 0.40992 0.25031 0.70981 0.0
C1703 C 0.40336 0.24136 0.68917 0.0
C1704 C 0.44722 0.2904 0.69723 0.0
C1705 C 0.4183 0.25816 0.67301 0.0
C1706 C 0.49018 0.32727 0.6841 0.0
C1707 C 0.50397 0.3464 0.72442 0.0
N1708 N 0.43962 0.28168 0.67736 0.0
N1709 N 0.47987 0.32518 0.72035 0.0
H1710 H 0.68692 0.19655 0.68579 0.0
H1711 H 0.76224 0.11812 0.71049 0.0
H1712 H 0.6602 0.14001 0.73535 0.0
H1713 H 0.80167 0.19659 0.68759 0.0
H1714 H 0.7209 0.11992 0.71409 0.0
H1715 H 0.72471 0.19008 0.67994 0.0
C1716 C 0.68892 0.18271 0.69548 0.0
C1717 C 0.67052 0.1693 0.7115 0.0
C1718 C 0.73857 0.1366 0.70808 0.0
C1719 C 0.71386 0.16144 0.70445 0.0
C1720 C 0.7621 0.13559 0.70598 0.0
C1721 C 0.78527 0.15699 0.69817 0.0
C1722 C 0.73818 0.15915 0.70225 0.0
C1723 C 0.78415 0.17935 0.69303 0.0
C1724 C 0.71054 0.17902 0.69206 0.0
C1725 C 0.67384 0.1509 0.72292 0.0
N1726 N 0.761 0.17976 0.69496 0.0
N1727 N 0.69519 0.14762 0.71927 0.0
H1728 H 0.79312 0.47827 0.73001 0.0
H1729 H 0.88097 0.62799 0.71053 0.0
H1730 H 0.87431 0.50689 0.71042 0.0
H1731 H 0.80459 0.58166 0.68091 0.0
H1732 H 0.88032 0.58759 0.72073 0.0
H1733 H 0.79847 0.52085 0.72309 0.0
C1734 C 0.8121 0.4934 0.72427 0.0
C1735 C 0.83306 0.48859 0.72028 0.0
C1736 C 0.86385 0.58656 0.71197 0.0
C1737 C 0.83949 0.53776 0.71325 0.0
C1738 C 0.86415 0.60945 0.70622 0.0
C1739 C 0.84282 0.60818 0.69486 0.0
C1740 C 0.8417 0.56254 0.70689 0.0
C1741 C 0.8215 0.58367 0.68961 0.0
C1742 C 0.81514 0.51775 0.72053 0.0
C1743 C 0.85755 0.50955 0.71373 0.0
N1744 N 0.82135 0.56187 0.69589 0.0
N1745 N 0.86008 0.53328 0.71031 0.0
H1746 H 0.48938 0.91904 0.25759 0.0
H1747 H 0.46269 0.96325 0.14596 0.0
H1748 H 0.4113 0.89712 0.23398 0.0
H1749 H 0.54107 0.98718 0.17 0.0
H1750 H 0.4435 0.93723 0.1774 0.0
H1751 H 0.50869 0.94258 0.22505 0.0
C1752 C 0.47628 0.91907 0.24556 0.0
C1753 C 0.44866 0.90621 0.24866 0.0
C1754 C 0.4649 0.94813 0.17578 0.0
C1755 C 0.47066 0.93325 0.21133 0.0
C1756 C 0.47589 0.96287 0.15774 0.0
C1757 C 0.50358 0.97759 0.1553 0.0
C1758 C 0.48168 0.94798 0.19157 0.0
C1759 C 0.51963 0.97652 0.1713 0.0
C1760 C 0.48733 0.93262 0.227 0.0
C1761 C 0.43272 0.90712 0.23251 0.0
N1762 N 0.50847 0.96206 0.18872 0.0
N1763 N 0.44393 0.92039 0.21462 0.0
H1764 H 0.10717 0.5082 0.22964 0.0
H1765 H 0.01862 0.55503 0.16788 0.0
H1766 H 0.09354 0.56907 0.25193 0.0
H1767 H 0.0348 0.49579 0.14568 0.0
H1768 H 0.04456 0.5596 0.19933 0.0
H1769 H 0.07922 0.50246 0.19947 0.0
C1770 C 0.09803 0.52018 0.22833 0.0
C1771 C 0.10259 0.53905 0.24346 0.0
C1772 C 0.04241 0.5456 0.18758 0.0
C1773 C 0.07083 0.53286 0.20859 0.0
C1774 C 0.02749 0.54287 0.16967 0.0
C1775 C 0.02457 0.52503 0.15408 0.0
C1776 C 0.05445 0.53031 0.18997 0.0
C1777 C 0.03682 0.51004 0.15713 0.0
C1778 C 0.08222 0.51702 0.21097 0.0
C1779 C 0.09071 0.55441 0.24059 0.0
N1780 N 0.05119 0.51302 0.17469 0.0
N1781 N 0.07536 0.55097 0.2235 0.0
H1782 H 0.44482 0.55944 0.23032 0.0
H1783 H 0.53335 0.50761 0.17581 0.0
H1784 H 0.50314 0.54861 0.26361 0.0
H1785 H 0.50215 0.54988 0.1426 0.0
H1786 H 0.51413 0.51302 0.20801 0.0
H1787 H 0.45702 0.54577 0.19798 0.0
C1788 C 0.45978 0.55363 0.23087 0.0
C1789 C 0.47305 0.55516 0.2496 0.0
C1790 C 0.51137 0.52092 0.19361 0.0
C1791 C 0.48713 0.53968 0.21279 0.0
C1792 C 0.52249 0.51802 0.1752 0.0
C1793 C 0.51981 0.52864 0.15635 0.0
C1794 C 0.49709 0.5342 0.19323 0.0
C1795 C 0.50467 0.54116 0.15659 0.0
C1796 C 0.46688 0.54607 0.21242 0.0
C1797 C 0.49255 0.54778 0.24944 0.0
N1798 N 0.49399 0.54367 0.17474 0.0
N1799 N 0.49905 0.54041 0.23131 0.0
H1800 H 0.95766 0.45821 0.76246 0.0
H1801 H 0.95461 0.45358 0.88557 0.0
H1802 H 0.88757 0.44083 0.79788 0.0
H1803 H 0.02781 0.49694 0.85113 0.0
H1804 H 0.92977 0.44908 0.8537 0.0
H1805 H 0.98407 0.47302 0.79456 0.0
C1806 C 0.94796 0.45794 0.77698 0.0
C1807 C 0.92046 0.44826 0.77761 0.0
C1808 C 0.95128 0.45982 0.85318 0.0
C1809 C 0.9503 0.46463 0.81435 0.0
C1810 C 0.96555 0.46253 0.87143 0.0
C1811 C 0.99347 0.47556 0.87113 0.0
C1812 C 0.96493 0.46983 0.83435 0.0
C1813 C 1.00635 0.48622 0.8521 0.0
C1814 C 0.96299 0.46639 0.79526 0.0
C1815 C 0.90878 0.44831 0.79676 0.0
N1816 N 0.99198 0.48287 0.83444 0.0
N1817 N 0.92369 0.45597 0.81445 0.0
H1818 H 0.61221 0.50432 0.79489 0.0
H1819 H 0.47637 0.46348 0.85579 0.0
H1820 H 0.53463 0.45058 0.77029 0.0
H1821 H 0.55404 0.51591 0.88095 0.0
H1822 H 0.49734 0.45825 0.82452 0.0
H1823 H 0.59129 0.50865 0.82655 0.0
C1824 C 0.59075 0.49355 0.79607 0.0
C1825 C 0.57516 0.47718 0.77979 0.0
C1826 C 0.50982 0.47086 0.83689 0.0
C1827 C 0.55103 0.48182 0.81623 0.0
C1828 C 0.49785 0.47397 0.85473 0.0
C1829 C 0.51344 0.49027 0.87104 0.0
C1830 C 0.53765 0.48419 0.83523 0.0
C1831 C 0.5412 0.50297 0.8689 0.0
C1832 C 0.57882 0.4959 0.81424 0.0
C1833 C 0.54746 0.46329 0.78246 0.0
N1834 N 0.55239 0.49974 0.85132 0.0
N1835 N 0.5363 0.46598 0.80028 0.0
H1836 H 0.5035 0.06525 0.76366 0.0
H1837 H 0.53766 0.04751 0.88151 0.0
H1838 H 0.57359 0.12398 0.79503 0.0
H1839 H 0.45989 0.0043 0.85341 0.0
H1840 H 0.55379 0.07354 0.8495 0.0
H1841 H 0.49048 0.03953 0.79552 0.0
C1842 C 0.51624 0.07272 0.77725 0.0
C1843 C 0.53951 0.09703 0.77669 0.0
C1844 C 0.53322 0.05831 0.85042 0.0
C1845 C 0.52468 0.06745 0.81343 0.0
C1846 C 0.52392 0.04354 0.86874 0.0
C1847 C 0.49737 0.02338 0.8702 0.0
C1848 C 0.51591 0.05277 0.8334 0.0
C1849 C 0.48065 0.0191 0.85297 0.0
C1850 C 0.50877 0.05801 0.79548 0.0
C1851 C 0.55552 0.10535 0.79471 0.0
N1852 N 0.4902 0.0335 0.83536 0.0
N1853 N 0.54773 0.09066 0.8124 0.0
H1854 H 0.15654 0.25737 0.59206 0.0
H1855 H 0.12732 0.29811 0.47986 0.0
H1856 H 0.07762 0.23286 0.569 0.0
H1857 H 0.20605 0.32362 0.50383 0.0
H1858 H 0.10859 0.27255 0.51166 0.0
H1859 H 0.17491 0.28049 0.55929 0.0
C1860 C 0.14305 0.25676 0.5801 0.0
C1861 C 0.11547 0.24322 0.58342 0.0
C1862 C 0.12997 0.2837 0.50994 0.0
C1863 C 0.13642 0.26983 0.54575 0.0
C1864 C 0.14068 0.29816 0.4917 0.0
C1865 C 0.16834 0.31322 0.48917 0.0
C1866 C 0.147 0.28418 0.52578 0.0
C1867 C 0.18463 0.3127 0.50521 0.0
C1868 C 0.15356 0.27007 0.56139 0.0
C1869 C 0.09902 0.24339 0.56735 0.0
N1870 N 0.17374 0.29852 0.52278 0.0
N1871 N 0.10973 0.25645 0.54927 0.0
H1872 H 0.75847 0.90129 0.58612 0.0
H1873 H 0.70136 0.82314 0.47917 0.0
H1874 H 0.77268 0.84044 0.56484 0.0
H1875 H 0.67711 0.87562 0.50393 0.0
H1876 H 0.72875 0.83048 0.51012 0.0
H1877 H 0.72955 0.89336 0.55579 0.0
C1878 C 0.75545 0.88624 0.5751 0.0
C1879 C 0.76786 0.87139 0.57807 0.0
C1880 C 0.71739 0.84035 0.50885 0.0
C1881 C 0.73497 0.86229 0.54339 0.0
C1882 C 0.70187 0.83628 0.49111 0.0
C1883 C 0.68699 0.84885 0.48893 0.0
C1884 C 0.71821 0.85724 0.52455 0.0
C1885 C 0.6881 0.86536 0.50506 0.0
C1886 C 0.73889 0.88167 0.55785 0.0
C1887 C 0.76318 0.85207 0.56336 0.0
N1888 N 0.70354 0.86918 0.52216 0.0
N1889 N 0.74722 0.84816 0.54666 0.0
H1890 H 0.11256 0.89502 0.56411 0.0
H1891 H 0.20373 0.84543 0.51076 0.0
H1892 H 0.17117 0.88518 0.59793 0.0
H1893 H 0.17083 0.88574 0.4769 0.0
H1894 H 0.18371 0.85027 0.54274 0.0
H1895 H 0.12519 0.88135 0.53198 0.0
C1896 C 0.12767 0.88941 0.56483 0.0
C1897 C 0.14091 0.89124 0.58363 0.0
C1898 C 0.18075 0.85786 0.52825 0.0
C1899 C 0.15549 0.87579 0.54707 0.0
C1900 C 0.19231 0.85528 0.50996 0.0
C1901 C 0.18941 0.86555 0.49101 0.0
C1902 C 0.16581 0.87048 0.52763 0.0
C1903 C 0.17357 0.87734 0.491 0.0
C1904 C 0.13501 0.88186 0.5465 0.0
C1905 C 0.1606 0.88412 0.5837 0.0
N1906 N 0.16249 0.87958 0.50903 0.0
N1907 N 0.16736 0.87677 0.56567 0.0
H1908 H 0.56096 0.78435 0.13654 0.0
H1909 H 0.69034 0.79586 0.18704 0.0
H1910 H 0.62049 0.77849 0.10029 0.0
H1911 H 0.64794 0.83036 0.21573 0.0
H1912 H 0.66451 0.7888 0.15532 0.0
H1913 H 0.59207 0.80133 0.16575 0.0
C1914 C 0.58072 0.7871 0.13452 0.0
C1915 C 0.58794 0.77964 0.11593 0.0
C1916 C 0.66104 0.79814 0.1685 0.0
C1917 C 0.62337 0.7984 0.1496 0.0
C1918 C 0.67589 0.80231 0.18666 0.0
C1919 C 0.67136 0.81368 0.20426 0.0
C1920 C 0.64115 0.80498 0.16794 0.0
C1921 C 0.65182 0.82102 0.20279 0.0
C1922 C 0.59842 0.79664 0.1513 0.0
C1923 C 0.61377 0.78335 0.11446 0.0
N1924 N 0.63726 0.81631 0.18503 0.0
N1925 N 0.63039 0.7921 0.13116 0.0
H1926 H 0.1995 0.78136 0.10453 0.0
H1927 H 0.22089 0.85005 0.21625 0.0
H1928 H 0.27624 0.83804 0.12868 0.0
H1929 H 0.14395 0.79505 0.19132 0.0
H1930 H 0.2416 0.84536 0.18455 0.0
H1931 H 0.17882 0.78575 0.13637 0.0
C1932 C 0.21201 0.79471 0.11653 0.0
C1933 C 0.23966 0.80941 0.11386 0.0
C1934 C 0.22018 0.83432 0.18601 0.0
C1935 C 0.21608 0.8146 0.15038 0.0
C1936 C 0.20835 0.83686 0.20418 0.0
C1937 C 0.18061 0.82296 0.20648 0.0
C1938 C 0.20421 0.81769 0.16999 0.0
C1939 C 0.16537 0.80644 0.19014 0.0
C1940 C 0.20018 0.79728 0.13468 0.0
C1941 C 0.25483 0.8266 0.12988 0.0
N1942 N 0.17735 0.80426 0.17263 0.0
N1943 N 0.24286 0.82868 0.14744 0.0
H1944 H 0.2385 0.45965 0.12693 0.0
H1945 H 0.12529 0.33753 0.18803 0.0
H1946 H 0.16719 0.39882 0.09844 0.0
H1947 H 0.20423 0.3831 0.2136 0.0
H1948 H 0.13999 0.36298 0.15621 0.0
H1949 H 0.2267 0.43438 0.15948 0.0
C1950 C 0.22058 0.44089 0.1274 0.0
C1951 C 0.20365 0.43152 0.10994 0.0
C1952 C 0.15421 0.36745 0.16871 0.0
C1953 C 0.18984 0.40284 0.14719 0.0
C1954 C 0.14582 0.35283 0.18695 0.0
C1955 C 0.16362 0.35779 0.2035 0.0
C1956 C 0.18063 0.38755 0.16686 0.0
C1957 C 0.18977 0.37855 0.20129 0.0
C1958 C 0.21378 0.42658 0.14602 0.0
C1959 C 0.18058 0.40715 0.11157 0.0
N1960 N 0.19753 0.39265 0.18327 0.0
N1961 N 0.1743 0.39385 0.12983 0.0
H1962 H 0.8206 0.58728 0.92581 0.0
H1963 H 0.79357 0.62928 0.81348 0.0
H1964 H 0.74217 0.56158 0.90106 0.0
H1965 H 0.87191 0.65494 0.8384 0.0
H1966 H 0.77433 0.60235 0.84451 0.0
H1967 H 0.83971 0.61019 0.89308 0.0
C1968 C 0.80738 0.58627 0.91345 0.0
C1969 C 0.77972 0.57261 0.91633 0.0
C1970 C 0.79574 0.61381 0.84315 0.0
C1971 C 0.80151 0.59907 0.87877 0.0
C1972 C 0.80675 0.62908 0.82535 0.0
C1973 C 0.83443 0.6446 0.82333 0.0
C1974 C 0.81249 0.61397 0.8591 0.0
C1975 C 0.85046 0.6437 0.83941 0.0
C1976 C 0.81831 0.59949 0.89478 0.0
C1977 C 0.76361 0.57224 0.89976 0.0
N1978 N 0.83928 0.62876 0.85659 0.0
N1979 N 0.77472 0.58532 0.88177 0.0
H1980 H 0.43043 0.23411 0.92028 0.0
H1981 H 0.37793 0.16116 0.81062 0.0
H1982 H 0.45103 0.17879 0.89587 0.0
H1983 H 0.35462 0.21401 0.83616 0.0
H1984 H 0.40578 0.16828 0.84131 0.0
H1985 H 0.40353 0.22795 0.88913 0.0
C1986 C 0.42938 0.22075 0.90833 0.0
C1987 C 0.44292 0.20687 0.91073 0.0
C1988 C 0.39457 0.17832 0.84021 0.0
C1989 C 0.41202 0.19959 0.87508 0.0
C1990 C 0.37878 0.17438 0.82263 0.0
C1991 C 0.36389 0.187 0.8208 0.0
C1992 C 0.39559 0.19508 0.8561 0.0
C1993 C 0.36548 0.20361 0.83702 0.0
C1994 C 0.41391 0.21714 0.89059 0.0
C1995 C 0.44061 0.1896 0.89483 0.0
N1996 N 0.38105 0.20719 0.85396 0.0
N1997 N 0.42548 0.18647 0.87769 0.0
H1998 H 0.77372 0.22092 0.90042 0.0
H1999 H 0.88827 0.20624 0.84468 0.0
H2000 H 0.84221 0.22731 0.93239 0.0
H2001 H 0.81136 0.1784 0.81604 0.0
H2002 H 0.87187 0.21603 0.87629 0.0
H2003 H 0.78661 0.20613 0.86905 0.0
C2004 C 0.79121 0.21882 0.90098 0.0
C2005 C 0.80707 0.22565 0.91903 0.0
C2006 C 0.85848 0.20766 0.86315 0.0
C2007 C 0.8222 0.20931 0.8831 0.0
C2008 C 0.86782 0.20194 0.84504 0.0
C2009 C 0.85113 0.19114 0.82762 0.0
C2010 C 0.83226 0.20291 0.86397 0.0
C2011 C 0.82505 0.18686 0.82898 0.0
C2012 C 0.79865 0.21057 0.88301 0.0
C2013 C 0.82967 0.22279 0.91873 0.0
N2014 N 0.81641 0.19278 0.84683 0.0
N2015 N 0.83665 0.2151 0.90104 0.0
H2016 H 0.28889 0.11228 0.4303 0.0
H2017 H 0.31367 0.16527 0.54756 0.0
H2018 H 0.22926 0.11793 0.46656 0.0
H2019 H 0.35601 0.13082 0.51871 0.0
H2020 H 0.28726 0.1565 0.51571 0.0
H2021 H 0.3189 0.12847 0.46027 0.0
C2022 C 0.28214 0.11709 0.44448 0.0
C2023 C 0.2563 0.11333 0.44595 0.0
C2024 C 0.30248 0.15105 0.51639 0.0
C2025 C 0.29076 0.13222 0.48022 0.0
C2026 C 0.31746 0.15585 0.53462 0.0
C2027 C 0.33709 0.14864 0.53601 0.0
C2028 C 0.30734 0.13924 0.49931 0.0
C2029 C 0.34144 0.1371 0.51841 0.0
C2030 C 0.29932 0.12638 0.46156 0.0
C2031 C 0.24899 0.1206 0.46461 0.0
N2032 N 0.32668 0.13275 0.50085 0.0
N2033 N 0.26606 0.12951 0.48106 0.0
H2034 H 0.91049 0.10852 0.4612 0.0
H2035 H 0.88945 0.21023 0.52817 0.0
H2036 H 0.91016 0.17527 0.43532 0.0
H2037 H 0.8879 0.1432 0.55528 0.0
H2038 H 0.892 0.19466 0.4935 0.0
H2039 H 0.89718 0.11768 0.49502 0.0
C2040 C 0.9072 0.12485 0.46253 0.0
C2041 C 0.91171 0.14131 0.44543 0.0
C2042 C 0.89087 0.18316 0.50696 0.0
C2043 C 0.89679 0.15207 0.48415 0.0
C2044 C 0.88945 0.19208 0.52677 0.0
C2045 C 0.88879 0.17814 0.54462 0.0
C2046 C 0.8919 0.16018 0.50488 0.0
C2047 C 0.88839 0.15454 0.5419 0.0
C2048 C 0.89975 0.13015 0.48188 0.0
C2049 C 0.90738 0.16233 0.44815 0.0
N2050 N 0.8903 0.14644 0.5224 0.0
N2051 N 0.90038 0.16719 0.46713 0.0
H2052 H 0.86345 0.79592 0.46476 0.0
H2053 H 0.8521 0.67195 0.52183 0.0
H2054 H 0.89573 0.75082 0.43843 0.0
H2055 H 0.83692 0.72777 0.55261 0.0
H2056 H 0.86886 0.70056 0.49143 0.0
H2057 H 0.85457 0.77161 0.49731 0.0
C2058 C 0.86887 0.78098 0.46595 0.0
C2059 C 0.88018 0.77522 0.44887 0.0
C2060 C 0.86211 0.70667 0.5049 0.0
C2061 C 0.86979 0.74703 0.48606 0.0
C2062 C 0.8524 0.69028 0.52223 0.0
C2063 C 0.84289 0.69737 0.53976 0.0
C2064 C 0.86206 0.73024 0.50495 0.0
C2065 C 0.84414 0.72154 0.5395 0.0
C2066 C 0.86384 0.76713 0.48454 0.0
C2067 C 0.88702 0.75585 0.45126 0.0
N2068 N 0.85325 0.73695 0.52231 0.0
N2069 N 0.8814 0.74218 0.46944 0.0
loop_
_geom_bond_atom_site_label_1
_geom_bond_atom_site_label_2
_geom_bond_distance
_geom_bond_site_symmetry_2
_ccdc_geom_bond_type
H0 C1 0.949 . S
C1 H0 0.949 . S
C1 C2 1.395 . S
C1 C3 1.391 . S
C2 C1 1.395 . S
C2 C5 1.390 . S
C3 C1 1.391 . S
C3 C7 1.387 . S
C3 C8 1.491 . S
H4 C5 0.950 . S
C5 C2 1.390 . S
C5 H4 0.950 . S
C5 C6 1.378 . S
C6 C5 1.378 . S
C6 C7 1.409 . S
C7 C3 1.387 . S
C7 C6 1.409 . S
C7 H9 0.951 . S
C8 C3 1.491 . S
C8 C10 1.382 . S
C8 C12 1.404 . S
H9 C7 0.951 . S
C10 C8 1.382 . S
C10 C11 1.390 . S
C10 H15 0.949 . S
C11 C10 1.390 . S
C11 C16 1.399 . S
C12 C8 1.404 . S
C12 H13 0.950 . S
C12 C14 1.375 . S
H13 C12 0.950 . S
C14 C12 1.375 . S
C14 C16 1.382 . S
C14 H18 0.950 . S
H15 C10 0.949 . S
C16 C11 1.399 . S
C16 C14 1.382 . S
C16 H17 0.952 . S
H17 C16 0.952 . S
H18 C14 0.950 . S
H19 C20 0.949 . S
C20 H19 0.949 . S
C20 C21 1.395 . S
C20 C22 1.391 . S
C21 C20 1.395 . S
C21 C24 1.390 . S
C22 C20 1.391 . S
C22 C26 1.387 . S
C22 C27 1.491 . S
H23 C24 0.950 . S
C24 C21 1.390 . S
C24 H23 0.950 . S
C24 C25 1.378 . S
C25 C24 1.378 . S
C25 C26 1.409 . S
C26 C22 1.387 . S
C26 C25 1.409 . S
C26 H28 0.951 . S
C27 C22 1.491 . S
C27 C29 1.382 . S
C27 C31 1.404 . S
H28 C26 0.951 . S
C29 C27 1.382 . S
C29 C30 1.390 . S
C29 H34 0.949 . S
C30 C29 1.390 . S
C30 C35 1.399 . S
C31 C27 1.404 . S
C31 H32 0.950 . S
C31 C33 1.375 . S
H32 C31 0.950 . S
C33 C31 1.375 . S
C33 C35 1.382 . S
C33 H37 0.950 . S
H34 C29 0.949 . S
C35 C30 1.399 . S
C35 C33 1.382 . S
C35 H36 0.952 1_545 S
H36 C35 0.952 1_565 S
H37 C33 0.950 . S
H38 C39 0.949 . S
C39 H38 0.949 . S
C39 C40 1.395 . S
C39 C41 1.391 . S
C40 C39 1.395 . S
C40 C43 1.390 . S
C41 C39 1.391 . S
C41 C45 1.387 . S
C41 C46 1.491 . S
H42 C43 0.950 . S
C43 C40 1.390 . S
C43 H42 0.950 . S
C43 C44 1.378 . S
C44 C43 1.378 . S
C44 C45 1.409 . S
C45 C41 1.387 . S
C45 C44 1.409 . S
C45 H47 0.951 . S
C46 C41 1.491 . S
C46 C48 1.382 . S
C46 C50 1.404 . S
H47 C45 0.951 . S
C48 C46 1.382 . S
C48 C49 1.390 . S
C48 H53 0.949 . S
C49 C48 1.390 . S
C49 C54 1.399 1_655 S
C50 C46 1.404 . S
C50 H51 0.950 . S
C50 C52 1.375 . S
H51 C50 0.950 . S
C52 C50 1.375 . S
C52 C54 1.382 1_655 S
C52 H56 0.950 . S
H53 C48 0.949 . S
C54 C49 1.399 1_455 S
C54 C52 1.382 1_455 S
C54 H55 0.952 . S
H55 C54 0.952 . S
H56 C52 0.950 . S
H57 C58 0.949 . S
C58 H57 0.949 . S
C58 C59 1.395 . S
C58 C60 1.391 . S
C59 C58 1.395 . S
C59 C62 1.390 . S
C60 C58 1.391 . S
C60 C64 1.387 . S
C60 C65 1.491 . S
H61 C62 0.950 . S
C62 C59 1.390 . S
C62 H61 0.950 . S
C62 C63 1.378 . S
C63 C62 1.378 . S
C63 C64 1.409 . S
C64 C60 1.387 . S
C64 C63 1.409 . S
C64 H66 0.951 . S
C65 C60 1.491 . S
C65 C67 1.382 . S
C65 C69 1.404 . S
H66 C64 0.951 . S
C67 C65 1.382 . S
C67 C68 1.390 . S
C67 H72 0.949 . S
C68 C67 1.390 . S
C68 C73 1.399 . S
C69 C65 1.404 . S
C69 H70 0.950 . S
C69 C71 1.375 . S
H70 C69 0.950 . S
C71 C69 1.375 . S
C71 C73 1.382 . S
C71 H75 0.950 . S
H72 C67 0.949 . S
C73 C68 1.399 . S
C73 C71 1.382 . S
C73 H74 0.952 . S
H74 C73 0.952 . S
H75 C71 0.950 . S
H76 C77 0.949 . S
C77 H76 0.949 . S
C77 C78 1.395 . S
C77 C79 1.391 . S
C78 C77 1.395 . S
C78 C81 1.390 . S
C79 C77 1.391 . S
C79 C83 1.387 . S
C79 C84 1.491 . S
H80 C81 0.950 . S
C81 C78 1.390 . S
C81 H80 0.950 . S
C81 C82 1.378 . S
C82 C81 1.378 . S
C82 C83 1.409 . S
C83 C79 1.387 . S
C83 C82 1.409 . S
C83 H85 0.951 . S
C84 C79 1.491 . S
C84 C86 1.382 . S
C84 C88 1.404 . S
H85 C83 0.951 . S
C86 C84 1.382 . S
C86 C87 1.390 . S
C86 H91 0.949 . S
C87 C86 1.390 . S
C87 C92 1.399 . S
C88 C84 1.404 . S
C88 H89 0.950 . S
C88 C90 1.375 . S
H89 C88 0.950 . S
C90 C88 1.375 . S
C90 C92 1.382 . S
C90 H94 0.950 . S
H91 C86 0.949 . S
C92 C87 1.399 . S
C92 C90 1.382 . S
C92 H93 0.952 1_565 S
H93 C92 0.952 1_545 S
H94 C90 0.950 . S
H95 C96 0.949 . S
C96 H95 0.949 . S
C96 C97 1.395 . S
C96 C98 1.391 . S
C97 C96 1.395 . S
C97 C100 1.390 . S
C98 C96 1.391 . S
C98 C102 1.387 . S
C98 C103 1.491 . S
H99 C100 0.950 . S
C100 C97 1.390 . S
C100 H99 0.950 . S
C100 C101 1.378 . S
C101 C100 1.378 . S
C101 C102 1.409 . S
C102 C98 1.387 . S
C102 C101 1.409 . S
C102 H104 0.951 . S
C103 C98 1.491 . S
C103 C105 1.382 . S
C103 C107 1.404 . S
H104 C102 0.951 . S
C105 C103 1.382 . S
C105 C106 1.390 . S
C105 H110 0.949 . S
C106 C105 1.390 . S
C106 C111 1.399 . S
C107 C103 1.404 . S
C107 H108 0.950 . S
C107 C109 1.375 . S
H108 C107 0.950 . S
C109 C107 1.375 . S
C109 C111 1.382 . S
C109 H113 0.950 . S
H110 C105 0.949 . S
C111 C106 1.399 . S
C111 C109 1.382 . S
C111 H112 0.952 1_455 S
H112 C111 0.952 1_655 S
H113 C109 0.950 . S
H114 C115 0.949 . S
C115 H114 0.949 . S
C115 C116 1.395 . S
C115 C117 1.391 . S
C116 C115 1.395 . S
C116 C119 1.390 . S
C117 C115 1.391 . S
C117 C121 1.387 . S
C117 C122 1.491 . S
H118 C119 0.950 . S
C119 C116 1.390 . S
C119 H118 0.950 . S
C119 C120 1.378 . S
C120 C119 1.378 . S
C120 C121 1.409 . S
C121 C117 1.387 . S
C121 C120 1.409 . S
C121 H123 0.951 . S
C122 C117 1.491 . S
C122 C124 1.382 . S
C122 C126 1.404 . S
H123 C121 0.951 . S
C124 C122 1.382 . S
C124 C125 1.390 . S
C124 H129 0.949 . S
C125 C124 1.390 . S
C125 C130 1.399 . S
C126 C122 1.404 . S
C126 H127 0.950 . S
C126 C128 1.375 . S
H127 C126 0.950 . S
C128 C126 1.375 . S
C128 C130 1.382 . S
C128 H132 0.950 . S
H129 C124 0.949 . S
C130 C125 1.399 . S
C130 C128 1.382 . S
C130 H131 0.952 . S
H131 C130 0.952 . S
H132 C128 0.950 . S
H133 C134 0.949 . S
C134 H133 0.949 . S
C134 C135 1.395 . S
C134 C136 1.391 . S
C135 C134 1.395 . S
C135 C138 1.390 . S
C136 C134 1.391 . S
C136 C140 1.387 . S
C136 C141 1.491 . S
H137 C138 0.950 . S
C138 C135 1.390 . S
C138 H137 0.950 . S
C138 C139 1.378 . S
C139 C138 1.378 . S
C139 C140 1.409 . S
C140 C136 1.387 . S
C140 C139 1.409 . S
C140 H142 0.951 . S
C141 C136 1.491 . S
C141 C143 1.382 . S
C141 C145 1.404 . S
H142 C140 0.951 . S
C143 C141 1.382 . S
C143 C144 1.390 . S
C143 H148 0.949 . S
C144 C143 1.390 . S
C144 C149 1.399 . S
C145 C141 1.404 . S
C145 H146 0.950 . S
C145 C147 1.375 . S
H146 C145 0.950 . S
C147 C145 1.375 . S
C147 C149 1.382 . S
C147 H151 0.950 . S
H148 C143 0.949 . S
C149 C144 1.399 . S
C149 C147 1.382 . S
C149 H150 0.952 . S
H150 C149 0.952 . S
H151 C147 0.950 . S
H152 C153 0.949 . S
C153 H152 0.949 . S
C153 C154 1.395 . S
C153 C155 1.391 . S
C154 C153 1.395 . S
C154 C157 1.390 . S
C155 C153 1.391 . S
C155 C159 1.387 . S
C155 C160 1.491 . S
H156 C157 0.950 . S
C157 C154 1.390 . S
C157 H156 0.950 . S
C157 C158 1.378 . S
C158 C157 1.378 . S
C158 C159 1.409 . S
C159 C155 1.387 . S
C159 C158 1.409 . S
C159 H161 0.951 . S
C160 C155 1.491 . S
C160 C162 1.382 . S
C160 C164 1.404 . S
H161 C159 0.951 . S
C162 C160 1.382 . S
C162 C163 1.390 . S
C162 H167 0.949 . S
C163 C162 1.390 . S
C163 C168 1.399 . S
C164 C160 1.404 . S
C164 H165 0.950 . S
C164 C166 1.375 . S
H165 C164 0.950 . S
C166 C164 1.375 . S
C166 C168 1.382 . S
C166 H170 0.950 . S
H167 C162 0.949 . S
C168 C163 1.399 . S
C168 C166 1.382 . S
C168 H169 0.952 . S
H169 C168 0.952 . S
H170 C166 0.950 . S
H171 C172 0.949 . S
C172 H171 0.949 . S
C172 C173 1.395 . S
C172 C174 1.391 . S
C173 C172 1.395 . S
C173 C176 1.390 . S
C174 C172 1.391 . S
C174 C178 1.387 . S
C174 C179 1.491 . S
H175 C176 0.950 . S
C176 C173 1.390 . S
C176 H175 0.950 . S
C176 C177 1.378 . S
C177 C176 1.378 . S
C177 C178 1.409 . S
C178 C174 1.387 . S
C178 C177 1.409 . S
C178 H180 0.951 . S
C179 C174 1.491 . S
C179 C181 1.382 . S
C179 C183 1.404 . S
H180 C178 0.951 . S
C181 C179 1.382 . S
C181 C182 1.390 . S
C181 H186 0.949 . S
C182 C181 1.390 . S
C182 C187 1.399 . S
C183 C179 1.404 . S
C183 H184 0.950 . S
C183 C185 1.375 . S
H184 C183 0.950 . S
C185 C183 1.375 . S
C185 C187 1.382 . S
C185 H189 0.950 . S
H186 C181 0.949 . S
C187 C182 1.399 . S
C187 C185 1.382 . S
C187 H188 0.952 . S
H188 C187 0.952 . S
H189 C185 0.950 . S
H190 C191 0.949 . S
C191 H190 0.949 . S
C191 C192 1.395 . S
C191 C193 1.391 . S
C192 C191 1.395 . S
C192 C195 1.390 . S
C193 C191 1.391 . S
C193 C197 1.387 . S
C193 C198 1.491 . S
H194 C195 0.950 . S
C195 C192 1.390 . S
C195 H194 0.950 . S
C195 C196 1.378 . S
C196 C195 1.378 . S
C196 C197 1.409 . S
C197 C193 1.387 . S
C197 C196 1.409 . S
C197 H199 0.951 . S
C198 C193 1.491 . S
C198 C200 1.382 . S
C198 C202 1.404 . S
H199 C197 0.951 . S
C200 C198 1.382 . S
C200 C201 1.390 . S
C200 H205 0.949 . S
C201 C200 1.390 . S
C201 C206 1.399 . S
C202 C198 1.404 . S
C202 H203 0.950 . S
C202 C204 1.375 . S
H203 C202 0.950 . S
C204 C202 1.375 . S
C204 C206 1.382 . S
C204 H208 0.950 1_556 S
H205 C200 0.949 . S
C206 C201 1.399 . S
C206 C204 1.382 . S
C206 H207 0.952 1_556 S
H207 C206 0.952 1_554 S
H208 C204 0.950 1_554 S
H209 C210 0.949 . S
C210 H209 0.949 . S
C210 C211 1.395 . S
C210 C212 1.391 . S
C211 C210 1.395 . S
C211 C214 1.390 . S
C212 C210 1.391 . S
C212 C216 1.387 . S
C212 C217 1.491 . S
H213 C214 0.950 . S
C214 C211 1.390 . S
C214 H213 0.950 . S
C214 C215 1.378 . S
C215 C214 1.378 . S
C215 C216 1.409 . S
C216 C212 1.387 . S
C216 C215 1.409 . S
C216 H218 0.951 . S
C217 C212 1.491 . S
C217 C219 1.382 . S
C217 C221 1.404 . S
H218 C216 0.951 . S
C219 C217 1.382 . S
C219 C220 1.390 . S
C219 H224 0.949 . S
C220 C219 1.390 . S
C220 C225 1.399 . S
C221 C217 1.404 . S
C221 H222 0.950 . S
C221 C223 1.375 . S
H222 C221 0.950 . S
C223 C221 1.375 . S
C223 C225 1.382 . S
C223 H227 0.950 . S
H224 C219 0.949 . S
C225 C220 1.399 . S
C225 C223 1.382 . S
C225 H226 0.952 . S
H226 C225 0.952 . S
H227 C223 0.950 . S
H228 C229 0.949 . S
C229 H228 0.949 . S
C229 C230 1.395 . S
C229 C231 1.391 . S
C230 C229 1.395 . S
C230 C233 1.390 . S
C231 C229 1.391 . S
C231 C235 1.387 . S
C231 C236 1.491 . S
H232 C233 0.950 . S
C233 C230 1.390 . S
C233 H232 0.950 . S
C233 C234 1.378 . S
C234 C233 1.378 . S
C234 C235 1.409 . S
C235 C231 1.387 . S
C235 C234 1.409 . S
C235 H237 0.951 . S
C236 C231 1.491 . S
C236 C238 1.382 . S
C236 C240 1.404 . S
H237 C235 0.951 . S
C238 C236 1.382 . S
C238 C239 1.390 . S
C238 H243 0.949 . S
C239 C238 1.390 . S
C239 C244 1.399 . S
C240 C236 1.404 . S
C240 H241 0.950 . S
C240 C242 1.375 . S
H241 C240 0.950 . S
C242 C240 1.375 . S
C242 C244 1.382 . S
C242 H246 0.950 . S
H243 C238 0.949 . S
C244 C239 1.399 . S
C244 C242 1.382 . S
C244 H245 0.952 . S
H245 C244 0.952 . S
H246 C242 0.950 . S
H247 C248 0.949 . S
C248 H247 0.949 . S
C248 C249 1.395 . S
C248 C250 1.391 . S
C249 C248 1.395 . S
C249 C252 1.390 . S
C250 C248 1.391 . S
C250 C254 1.387 . S
C250 C255 1.491 . S
H251 C252 0.950 . S
C252 C249 1.390 . S
C252 H251 0.950 . S
C252 C253 1.378 . S
C253 C252 1.378 . S
C253 C254 1.409 . S
C254 C250 1.387 . S
C254 C253 1.409 . S
C254 H256 0.951 . S
C255 C250 1.491 . S
C255 C257 1.382 . S
C255 C259 1.404 . S
H256 C254 0.951 . S
C257 C255 1.382 . S
C257 C258 1.390 . S
C257 H262 0.949 . S
C258 C257 1.390 . S
C258 C263 1.399 . S
C259 C255 1.404 . S
C259 H260 0.950 . S
C259 C261 1.375 . S
H260 C259 0.950 . S
C261 C259 1.375 . S
C261 C263 1.382 . S
C261 H265 0.950 . S
H262 C257 0.949 . S
C263 C258 1.399 . S
C263 C261 1.382 . S
C263 H264 0.952 . S
H264 C263 0.952 . S
H265 C261 0.950 . S
H266 C267 0.949 . S
C267 H266 0.949 . S
C267 C268 1.395 . S
C267 C269 1.391 . S
C268 C267 1.395 . S
C268 C271 1.390 . S
C269 C267 1.391 . S
C269 C273 1.387 . S
C269 C274 1.491 . S
H270 C271 0.950 . S
C271 C268 1.390 . S
C271 H270 0.950 . S
C271 C272 1.378 . S
C272 C271 1.378 . S
C272 C273 1.409 . S
C273 C269 1.387 . S
C273 C272 1.409 . S
C273 H275 0.951 . S
C274 C269 1.491 . S
C274 C276 1.382 . S
C274 C278 1.404 . S
H275 C273 0.951 . S
C276 C274 1.382 . S
C276 C277 1.390 . S
C276 H281 0.949 . S
C277 C276 1.390 . S
C277 C282 1.399 . S
C278 C274 1.404 . S
C278 H279 0.950 . S
C278 C280 1.375 . S
H279 C278 0.950 . S
C280 C278 1.375 . S
C280 C282 1.382 . S
C280 H284 0.950 . S
H281 C276 0.949 . S
C282 C277 1.399 . S
C282 C280 1.382 . S
C282 H283 0.952 . S
H283 C282 0.952 . S
H284 C280 0.950 . S
H285 C286 0.949 . S
C286 H285 0.949 . S
C286 C287 1.395 . S
C286 C288 1.391 . S
C287 C286 1.395 . S
C287 C290 1.390 . S
C288 C286 1.391 . S
C288 C292 1.387 . S
C288 C293 1.491 . S
H289 C290 0.950 . S
C290 C287 1.390 . S
C290 H289 0.950 . S
C290 C291 1.378 . S
C291 C290 1.378 . S
C291 C292 1.409 . S
C292 C288 1.387 . S
C292 C291 1.409 . S
C292 H294 0.951 . S
C293 C288 1.491 . S
C293 C295 1.382 . S
C293 C297 1.404 . S
H294 C292 0.951 . S
C295 C293 1.382 . S
C295 C296 1.390 . S
C295 H300 0.949 . S
C296 C295 1.390 . S
C296 C301 1.399 . S
C297 C293 1.404 . S
C297 H298 0.950 . S
C297 C299 1.375 . S
H298 C297 0.950 . S
C299 C297 1.375 . S
C299 C301 1.382 . S
C299 H303 0.950 . S
H300 C295 0.949 . S
C301 C296 1.399 . S
C301 C299 1.382 . S
C301 H302 0.952 . S
H302 C301 0.952 . S
H303 C299 0.950 . S
H304 C305 0.949 . S
C305 H304 0.949 . S
C305 C306 1.395 . S
C305 C307 1.391 . S
C306 C305 1.395 . S
C306 C309 1.390 . S
C307 C305 1.391 . S
C307 C311 1.387 . S
C307 C312 1.491 . S
H308 C309 0.950 . S
C309 C306 1.390 . S
C309 H308 0.950 . S
C309 C310 1.378 . S
C310 C309 1.378 . S
C310 C311 1.409 . S
C311 C307 1.387 . S
C311 C310 1.409 . S
C311 H313 0.951 . S
C312 C307 1.491 . S
C312 C314 1.382 . S
C312 C316 1.404 . S
H313 C311 0.951 . S
C314 C312 1.382 . S
C314 C315 1.390 . S
C314 H319 0.949 . S
C315 C314 1.390 . S
C315 C320 1.399 . S
C316 C312 1.404 . S
C316 H317 0.950 . S
C316 C318 1.375 . S
H317 C316 0.950 . S
C318 C316 1.375 . S
C318 C320 1.382 . S
C318 H322 0.950 . S
H319 C314 0.949 . S
C320 C315 1.399 . S
C320 C318 1.382 . S
C320 H321 0.952 . S
H321 C320 0.952 . S
H322 C318 0.950 . S
H323 C324 0.949 . S
C324 H323 0.949 . S
C324 C325 1.395 . S
C324 C326 1.391 . S
C325 C324 1.395 . S
C325 C328 1.390 . S
C326 C324 1.391 . S
C326 C330 1.387 . S
C326 C331 1.491 . S
H327 C328 0.950 . S
C328 C325 1.390 . S
C328 H327 0.950 . S
C328 C329 1.378 . S
C329 C328 1.378 . S
C329 C330 1.409 . S
C330 C326 1.387 . S
C330 C329 1.409 . S
C330 H332 0.951 . S
C331 C326 1.491 . S
C331 C333 1.382 . S
C331 C335 1.404 . S
H332 C330 0.951 . S
C333 C331 1.382 . S
C333 C334 1.390 . S
C333 H338 0.949 . S
C334 C333 1.390 . S
C334 C339 1.399 . S
C335 C331 1.404 . S
C335 H336 0.950 . S
C335 C337 1.375 . S
H336 C335 0.950 . S
C337 C335 1.375 . S
C337 C339 1.382 . S
C337 H341 0.950 . S
H338 C333 0.949 . S
C339 C334 1.399 . S
C339 C337 1.382 . S
C339 H340 0.952 . S
H340 C339 0.952 . S
H341 C337 0.950 . S
Eu342 N373 2.657 . S
Eu342 N380 2.609 . S
Eu342 O386 2.558 . S
Eu342 O387 2.612 1_566 S
Eu342 O389 2.339 1_565 S
Eu342 O390 2.563 1_565 S
Eu342 O391 2.419 1_565 S
Eu342 O393 2.380 1_556 S
Eu342 O394 2.432 . S
Eu342 C406 2.848 1_565 S
C343 C346 1.429 . S
C343 C347 1.411 . S
C343 N350 1.377 . S
C344 C346 1.420 . S
C344 C348 1.423 . S
C344 C356 1.392 . S
C345 C347 1.420 . S
C345 C348 1.351 . S
C345 H368 0.931 . S
C346 C343 1.429 . S
C346 C344 1.420 . S
C346 N354 1.362 . S
C347 C343 1.411 . S
C347 C345 1.420 . S
C347 C352 1.395 . S
C348 C344 1.423 . S
C348 C345 1.351 . S
C348 H360 0.930 . S
C349 C351 1.400 . S
C349 C352 1.386 . S
C349 H361 0.930 . S
N350 C343 1.377 . S
N350 C351 1.321 . S
N350 Eu353 2.609 . S
C351 C349 1.400 . S
C351 N350 1.321 . S
C351 H358 0.930 . S
C352 C347 1.395 . S
C352 C349 1.386 . S
C352 H371 0.930 . S
Eu353 N350 2.609 . S
Eu353 N354 2.657 . S
Eu353 O387 2.380 . S
Eu353 O388 2.432 . S
Eu353 O392 2.558 . S
Eu353 O393 2.612 1_545 S
Eu353 O395 2.339 1_545 S
Eu353 O396 2.563 1_545 S
Eu353 O397 2.419 1_545 S
Eu353 C417 2.847 1_545 S
N354 C346 1.362 . S
N354 Eu353 2.657 . S
N354 C355 1.334 . S
C355 N354 1.334 . S
C355 C357 1.413 . S
C355 H362 0.929 . S
C356 C344 1.392 . S
C356 C357 1.367 . S
C356 H364 0.930 . S
C357 C355 1.413 . S
C357 C356 1.367 . S
C357 H359 0.930 . S
H358 C351 0.930 . S
H359 C357 0.930 . S
H360 C348 0.930 . S
H361 C349 0.930 . S
H362 C355 0.929 . S
H363 C377 0.930 . S
H364 C356 0.930 . S
H365 C383 0.930 . S
H366 C374 0.917 1_545 S
H367 C381 0.930 . S
H368 C345 0.931 . S
H369 C375 0.930 . S
H370 C408 0.930 . S
H371 C352 0.930 . S
H372 C407 0.931 . S
N373 Eu342 2.657 . S
N373 C374 1.334 . S
N373 C378 1.362 . S
C374 H366 0.917 1_565 S
C374 N373 1.334 . S
C374 C377 1.413 . S
C375 H369 0.930 . S
C375 C376 1.392 . S
C375 C377 1.367 . S
C376 C375 1.392 . S
C376 C378 1.420 . S
C376 C408 1.423 . S
C377 H363 0.930 . S
C377 C374 1.413 . S
C377 C375 1.367 . S
C378 N373 1.362 . S
C378 C376 1.420 . S
C378 C382 1.429 . S
H379 C384 0.930 . S
N380 Eu342 2.609 . S
N380 C382 1.377 . S
N380 C383 1.321 . S
C381 H367 0.930 . S
C381 C383 1.400 . S
C381 C384 1.386 . S
C382 C378 1.429 . S
C382 N380 1.377 . S
C382 C385 1.411 . S
C383 H365 0.930 . S
C383 N380 1.321 . S
C383 C381 1.400 . S
C384 H379 0.930 . S
C384 C381 1.386 . S
C384 C385 1.395 . S
C385 C382 1.411 . S
C385 C384 1.395 . S
C385 C407 1.420 . S
O386 Eu342 2.558 . S
O386 C406 1.257 1_565 S
O387 Eu342 2.612 1_544 S
O387 Eu353 2.380 . S
O387 C398 1.276 1_554 S
O388 Eu353 2.432 . S
O388 C405 1.264 . S
O389 Eu342 2.339 1_545 S
O389 C405 1.254 1_556 S
O390 Eu342 2.563 1_545 S
O390 C398 1.235 . S
O391 Eu342 2.419 1_545 S
O391 C406 1.249 . S
O392 Eu353 2.558 . S
O392 C417 1.250 1_545 S
O393 Eu342 2.380 1_554 S
O393 Eu353 2.612 1_565 S
O393 C409 1.276 . S
O394 Eu342 2.432 . S
O394 C416 1.264 1_556 S
O395 Eu353 2.339 1_565 S
O395 C416 1.254 . S
O396 Eu353 2.563 1_565 S
O396 C409 1.235 . S
O397 Eu353 2.419 1_565 S
O397 C417 1.254 . S
C398 O387 1.276 1_556 S
C398 O390 1.235 . S
C399 C401 1.393 . S
C399 C403 1.395 1_545 S
C399 C406 1.492 . S
C400 C401 1.392 . S
C400 C402 1.386 . S
C401 C399 1.393 . S
C401 C400 1.392 . S
C401 H418 0.930 . S
C402 C400 1.386 . S
C402 C404 1.395 . S
C402 H419 0.930 . S
C403 C399 1.395 1_565 S
C403 C404 1.379 1_565 S
C403 H420 0.930 . S
C404 C402 1.395 . S
C404 C403 1.379 1_545 S
C404 H421 0.930 1_545 S
C405 O388 1.264 . S
C405 O389 1.254 1_554 S
C406 Eu342 2.848 1_545 S
C406 O386 1.257 1_545 S
C406 O391 1.249 . S
C406 C399 1.492 . S
C407 H372 0.931 . S
C407 C385 1.420 . S
C407 C408 1.351 . S
C408 H370 0.930 . S
C408 C376 1.423 . S
C408 C407 1.351 . S
C409 O393 1.276 . S
C409 O396 1.235 . S
C410 C411 1.393 . S
C410 C414 1.395 1_565 S
C410 C417 1.493 . S
C411 C410 1.393 . S
C411 C412 1.392 . S
C411 H422 0.930 . S
C412 C411 1.392 . S
C412 C413 1.386 . S
C413 C412 1.386 . S
C413 C415 1.395 . S
C413 H423 0.930 . S
C414 C410 1.395 1_545 S
C414 C415 1.379 1_545 S
C414 H424 0.930 . S
C415 C413 1.395 . S
C415 C414 1.379 1_565 S
C415 H425 0.930 1_565 S
C416 O394 1.264 1_554 S
C416 O395 1.254 . S
C417 Eu353 2.847 1_565 S
C417 O392 1.250 1_565 S
C417 O397 1.254 . S
C417 C410 1.493 . S
H418 C401 0.930 . S
H419 C402 0.930 . S
H420 C403 0.930 . S
H421 C404 0.930 1_565 S
H422 C411 0.930 . S
H423 C413 0.930 . S
H424 C414 0.930 . S
H425 C415 0.930 1_545 S
Eu426 N457 2.657 . S
Eu426 N464 2.609 . S
Eu426 O470 2.558 . S
Eu426 O471 2.612 1_456 S
Eu426 O473 2.339 1_455 S
Eu426 O474 2.563 1_455 S
Eu426 O475 2.419 1_455 S
Eu426 O477 2.380 1_556 S
Eu426 O478 2.432 . S
Eu426 C490 2.848 . S
C427 C430 1.429 . S
C427 C431 1.411 . S
C427 N434 1.377 . S
C428 C430 1.420 . S
C428 C432 1.423 . S
C428 C440 1.392 . S
C429 C431 1.420 . S
C429 C432 1.351 . S
C429 H452 0.931 . S
C430 C427 1.429 . S
C430 C428 1.420 . S
C430 N438 1.362 . S
C431 C427 1.411 . S
C431 C429 1.420 . S
C431 C436 1.395 . S
C432 C428 1.423 . S
C432 C429 1.351 . S
C432 H444 0.930 . S
C433 C435 1.400 . S
C433 C436 1.386 . S
C433 H445 0.930 . S
N434 C427 1.377 . S
N434 C435 1.321 . S
N434 Eu437 2.609 . S
C435 C433 1.400 . S
C435 N434 1.321 . S
C435 H442 0.930 . S
C436 C431 1.395 . S
C436 C433 1.386 . S
C436 H455 0.930 . S
Eu437 N434 2.609 . S
Eu437 N438 2.657 . S
Eu437 O471 2.380 . S
Eu437 O472 2.432 . S
Eu437 O476 2.558 . S
Eu437 O477 2.612 1_655 S
Eu437 O479 2.339 1_655 S
Eu437 O480 2.563 1_655 S
Eu437 O481 2.419 1_655 S
Eu437 C501 2.848 1_655 S
N438 C430 1.362 . S
N438 Eu437 2.657 . S
N438 C439 1.334 . S
C439 N438 1.334 . S
C439 C441 1.413 . S
C439 H446 0.890 1_655 S
C440 C428 1.392 . S
C440 C441 1.367 . S
C440 H448 0.930 . S
C441 C439 1.413 . S
C441 C440 1.367 . S
C441 H443 0.930 . S
H442 C435 0.930 . S
H443 C441 0.930 . S
H444 C432 0.930 . S
H445 C433 0.930 . S
H446 C439 0.890 1_455 S
H447 C461 0.930 . S
H448 C440 0.930 . S
H449 C467 0.930 . S
H450 C458 0.929 . S
H451 C465 0.930 . S
H452 C429 0.931 . S
H453 C459 0.930 . S
H454 C492 0.930 . S
H455 C436 0.930 . S
H456 C491 0.931 . S
N457 Eu426 2.657 . S
N457 C458 1.334 . S
N457 C462 1.362 . S
C458 H450 0.929 . S
C458 N457 1.334 . S
C458 C461 1.413 . S
C459 H453 0.930 . S
C459 C460 1.392 . S
C459 C461 1.367 . S
C460 C459 1.392 . S
C460 C462 1.420 . S
C460 C492 1.423 . S
C461 H447 0.930 . S
C461 C458 1.413 . S
C461 C459 1.367 . S
C462 N457 1.362 . S
C462 C460 1.420 . S
C462 C466 1.429 . S
H463 C468 0.930 . S
N464 Eu426 2.609 . S
N464 C466 1.377 . S
N464 C467 1.321 . S
C465 H451 0.930 . S
C465 C467 1.400 . S
C465 C468 1.386 . S
C466 C462 1.429 . S
C466 N464 1.377 . S
C466 C469 1.411 . S
C467 H449 0.930 . S
C467 N464 1.321 . S
C467 C465 1.400 . S
C468 H463 0.930 . S
C468 C465 1.386 . S
C468 C469 1.395 . S
C469 C466 1.411 . S
C469 C468 1.395 . S
C469 C491 1.420 . S
O470 Eu426 2.558 . S
O470 C490 1.257 . S
O471 Eu426 2.612 1_654 S
O471 Eu437 2.380 . S
O471 C482 1.276 1_554 S
O472 Eu437 2.432 . S
O472 C489 1.264 . S
O473 Eu426 2.339 1_655 S
O473 C489 1.254 1_556 S
O474 Eu426 2.563 1_655 S
O474 C482 1.235 . S
O475 Eu426 2.419 1_655 S
O475 C490 1.249 1_655 S
O476 Eu437 2.558 . S
O476 C501 1.257 1_655 S
O477 Eu426 2.380 1_554 S
O477 Eu437 2.612 1_455 S
O477 C493 1.276 . S
O478 Eu426 2.432 . S
O478 C500 1.264 1_556 S
O479 Eu437 2.339 1_455 S
O479 C500 1.254 . S
O480 Eu437 2.563 1_455 S
O480 C493 1.235 . S
O481 Eu437 2.419 1_455 S
O481 C501 1.249 . S
C482 O471 1.276 1_556 S
C482 O474 1.235 . S
C483 C485 1.393 . S
C483 C487 1.395 1_655 S
C483 C490 1.492 1_655 S
C484 C485 1.392 . S
C484 C486 1.386 . S
C485 C483 1.393 . S
C485 C484 1.392 . S
C485 H502 0.930 . S
C486 C484 1.386 . S
C486 C488 1.395 1_655 S
C486 H503 0.930 . S
C487 C483 1.395 1_455 S
C487 C488 1.379 . S
C487 H504 0.930 . S
C488 C486 1.395 1_455 S
C488 C487 1.379 . S
C488 H505 0.930 . S
C489 O472 1.264 . S
C489 O473 1.254 1_554 S
C490 Eu426 2.848 . S
C490 O470 1.257 . S
C490 O475 1.249 1_455 S
C490 C483 1.492 1_455 S
C491 H456 0.931 . S
C491 C469 1.420 . S
C491 C492 1.351 . S
C492 H454 0.930 . S
C492 C460 1.423 . S
C492 C491 1.351 . S
C493 O477 1.276 . S
C493 O480 1.235 . S
C494 C495 1.393 . S
C494 C498 1.395 1_455 S
C494 C501 1.492 . S
C495 C494 1.393 . S
C495 C496 1.392 . S
C495 H506 0.930 . S
C496 C495 1.392 . S
C496 C497 1.386 . S
C497 C496 1.386 . S
C497 C499 1.395 . S
C497 H507 0.930 . S
C498 C494 1.395 1_655 S
C498 C499 1.379 1_655 S
C498 H508 0.930 . S
C499 C497 1.395 . S
C499 C498 1.379 1_455 S
C499 H509 0.930 1_455 S
C500 O478 1.264 1_554 S
C500 O479 1.254 . S
C501 Eu437 2.848 1_455 S
C501 O476 1.257 1_455 S
C501 O481 1.249 . S
C501 C494 1.492 . S
H502 C485 0.930 . S
H503 C486 0.930 . S
H504 C487 0.930 . S
H505 C488 0.930 . S
H506 C495 0.930 . S
H507 C497 0.930 . S
H508 C498 0.930 . S
H509 C499 0.930 1_655 S
Eu510 N541 2.657 . S
Eu510 N548 2.609 . S
Eu510 O554 2.558 . S
Eu510 O555 2.612 . S
Eu510 O557 2.339 . S
Eu510 O558 2.563 . S
Eu510 O559 2.419 . S
Eu510 O561 2.380 . S
Eu510 O562 2.432 . S
Eu510 C574 2.848 . S
C511 C514 1.429 . S
C511 C515 1.411 . S
C511 N518 1.377 . S
C512 C514 1.420 . S
C512 C516 1.423 . S
C512 C524 1.392 . S
C513 C515 1.420 . S
C513 C516 1.351 . S
C513 H536 0.931 . S
C514 C511 1.429 . S
C514 C512 1.420 . S
C514 N522 1.362 . S
C515 C511 1.411 . S
C515 C513 1.420 . S
C515 C520 1.395 . S
C516 C512 1.423 . S
C516 C513 1.351 . S
C516 H528 0.930 . S
C517 C519 1.400 . S
C517 C520 1.386 . S
C517 H529 0.930 . S
N518 C511 1.377 . S
N518 C519 1.321 . S
N518 Eu521 2.609 . S
C519 C517 1.400 . S
C519 N518 1.321 . S
C519 H526 0.930 . S
C520 C515 1.395 . S
C520 C517 1.386 . S
C520 H539 0.930 . S
Eu521 N518 2.609 . S
Eu521 N522 2.657 . S
Eu521 O555 2.380 1_556 S
Eu521 O556 2.459 . S
Eu521 O560 2.558 . S
Eu521 O561 2.612 1_556 S
Eu521 O563 2.339 . S
Eu521 O564 2.563 . S
Eu521 O565 2.419 . S
Eu521 C585 2.848 . S
N522 C514 1.362 . S
N522 Eu521 2.657 . S
N522 C523 1.334 . S
C523 N522 1.334 . S
C523 C525 1.413 . S
C523 H530 0.929 . S
C524 C512 1.392 . S
C524 C525 1.367 . S
C524 H532 0.930 . S
C525 C523 1.413 . S
C525 C524 1.367 . S
C525 H527 0.930 . S
H526 C519 0.930 . S
H527 C525 0.930 . S
H528 C516 0.930 . S
H529 C517 0.930 . S
H530 C523 0.929 . S
H531 C545 0.930 . S
H532 C524 0.930 . S
H533 C551 0.930 . S
H534 C542 0.929 . S
H535 C549 0.930 . S
H536 C513 0.931 . S
H537 C543 0.930 . S
H538 C576 0.930 . S
H539 C520 0.930 . S
H540 C575 0.931 . S
N541 Eu510 2.657 . S
N541 C542 1.334 . S
N541 C546 1.362 . S
C542 H534 0.929 . S
C542 N541 1.334 . S
C542 C545 1.413 . S
C543 H537 0.930 . S
C543 C544 1.392 . S
C543 C545 1.367 . S
C544 C543 1.392 . S
C544 C546 1.420 . S
C544 C576 1.423 . S
C545 H531 0.930 . S
C545 C542 1.413 . S
C545 C543 1.367 . S
C546 N541 1.362 . S
C546 C544 1.420 . S
C546 C550 1.429 . S
H547 C552 0.930 . S
N548 Eu510 2.609 . S
N548 C550 1.377 . S
N548 C551 1.321 . S
C549 H535 0.930 . S
C549 C551 1.400 . S
C549 C552 1.386 . S
C550 C546 1.429 . S
C550 N548 1.377 . S
C550 C553 1.411 . S
C551 H533 0.930 . S
C551 N548 1.321 . S
C551 C549 1.400 . S
C552 H547 0.930 . S
C552 C549 1.386 . S
C552 C553 1.395 . S
C553 C550 1.411 . S
C553 C552 1.395 . S
C553 C575 1.420 . S
O554 Eu510 2.558 . S
O554 C574 1.257 . S
O555 Eu510 2.612 . S
O555 Eu521 2.380 1_554 S
O555 C566 1.276 . S
O556 Eu521 2.459 . S
O556 C573 1.209 1_556 S
O557 Eu510 2.339 . S
O557 C573 1.254 . S
O558 Eu510 2.563 . S
O558 C566 1.235 . S
O559 Eu510 2.419 . S
O559 C574 1.249 . S
O560 Eu521 2.558 . S
O560 C585 1.257 . S
O561 Eu510 2.380 . S
O561 Eu521 2.612 1_554 S
O561 C577 1.276 1_554 S
O562 Eu510 2.432 . S
O562 C584 1.264 . S
O563 Eu521 2.339 . S
O563 C584 1.254 1_556 S
O564 Eu521 2.563 . S
O564 C577 1.235 . S
O565 Eu521 2.419 . S
O565 C585 1.249 . S
C566 O555 1.276 . S
C566 O558 1.235 . S
C567 C569 1.393 . S
C567 C571 1.395 . S
C567 C574 1.492 . S
C568 C569 1.392 . S
C568 C570 1.386 . S
C569 C567 1.393 . S
C569 C568 1.392 . S
C569 H586 0.930 . S
C570 C568 1.386 . S
C570 C572 1.395 . S
C570 H587 0.930 . S
C571 C567 1.395 . S
C571 C572 1.379 . S
C571 H588 0.930 . S
C572 C570 1.395 . S
C572 C571 1.379 . S
C572 H589 0.930 . S
C573 O556 1.209 1_554 S
C573 O557 1.254 . S
C574 Eu510 2.848 . S
C574 O554 1.257 . S
C574 O559 1.249 . S
C574 C567 1.492 . S
C575 H540 0.931 . S
C575 C553 1.420 . S
C575 C576 1.351 . S
C576 H538 0.930 . S
C576 C544 1.423 . S
C576 C575 1.351 . S
C577 O561 1.276 1_556 S
C577 O564 1.235 . S
C578 C579 1.393 . S
C578 C582 1.395 . S
C578 C585 1.492 . S
C579 C578 1.393 . S
C579 C580 1.392 . S
C579 H590 0.930 . S
C580 C579 1.392 . S
C580 C581 1.386 . S
C581 C580 1.386 . S
C581 C583 1.395 . S
C581 H591 0.930 . S
C582 C578 1.395 . S
C582 C583 1.379 . S
C582 H592 0.930 . S
C583 C581 1.395 . S
C583 C582 1.379 . S
C583 H593 0.930 . S
C584 O562 1.264 . S
C584 O563 1.254 1_554 S
C585 Eu521 2.848 . S
C585 O560 1.257 . S
C585 O565 1.249 . S
C585 C578 1.492 . S
H586 C569 0.930 . S
H587 C570 0.930 . S
H588 C571 0.930 . S
H589 C572 0.930 . S
H590 C579 0.930 . S
H591 C581 0.930 . S
H592 C582 0.930 . S
H593 C583 0.930 . S
Eu594 N625 2.657 . S
Eu594 N632 2.609 . S
Eu594 O638 2.558 . S
Eu594 O639 2.612 . S
Eu594 O641 2.339 . S
Eu594 O642 2.563 . S
Eu594 O643 2.419 . S
Eu594 O645 2.380 . S
Eu594 O646 2.432 . S
Eu594 C658 2.848 . S
C595 C598 1.429 . S
C595 C599 1.411 . S
C595 N602 1.377 . S
C596 C598 1.420 . S
C596 C600 1.423 . S
C596 C608 1.392 . S
C597 C599 1.420 . S
C597 C600 1.351 . S
C597 H620 0.931 . S
C598 C595 1.429 . S
C598 C596 1.420 . S
C598 N606 1.362 . S
C599 C595 1.411 . S
C599 C597 1.420 . S
C599 C604 1.395 . S
C600 C596 1.423 . S
C600 C597 1.351 . S
C600 H612 0.930 . S
C601 C603 1.400 . S
C601 C604 1.386 . S
C601 H613 0.930 . S
N602 C595 1.377 . S
N602 C603 1.321 . S
N602 Eu605 2.609 . S
C603 C601 1.400 . S
C603 N602 1.321 . S
C603 H610 0.930 . S
C604 C599 1.395 . S
C604 C601 1.386 . S
C604 H623 0.930 . S
Eu605 N602 2.609 . S
Eu605 N606 2.657 . S
Eu605 O639 2.380 . S
Eu605 O640 2.432 . S
Eu605 O644 2.558 . S
Eu605 O645 2.612 . S
Eu605 O647 2.339 . S
Eu605 O648 2.563 . S
Eu605 O649 2.419 . S
Eu605 C669 2.848 . S
N606 C598 1.362 . S
N606 Eu605 2.657 . S
N606 C607 1.334 . S
C607 N606 1.334 . S
C607 C609 1.413 . S
C607 H614 0.929 . S
C608 C596 1.392 . S
C608 C609 1.367 . S
C608 H616 0.930 . S
C609 C607 1.413 . S
C609 C608 1.367 . S
C609 H611 0.930 . S
H610 C603 0.930 . S
H611 C609 0.930 . S
H612 C600 0.930 . S
H613 C601 0.930 . S
H614 C607 0.929 . S
H615 C629 0.930 . S
H616 C608 0.930 . S
H617 C635 0.930 . S
H618 C626 0.929 . S
H619 C633 0.930 . S
H620 C597 0.931 . S
H621 C627 0.930 1_655 S
H622 C660 0.930 1_655 S
H623 C604 0.930 . S
H624 C659 0.931 . S
N625 Eu594 2.657 . S
N625 C626 1.334 . S
N625 C630 1.362 . S
C626 H618 0.929 . S
C626 N625 1.334 . S
C626 C629 1.413 . S
C627 H621 0.930 1_455 S
C627 C628 1.392 . S
C627 C629 1.367 . S
C628 C627 1.392 . S
C628 C630 1.420 . S
C628 C660 1.423 . S
C629 H615 0.930 . S
C629 C626 1.413 . S
C629 C627 1.367 . S
C630 N625 1.362 . S
C630 C628 1.420 . S
C630 C634 1.429 . S
H631 C636 0.930 . S
N632 Eu594 2.609 . S
N632 C634 1.377 . S
N632 C635 1.321 . S
C633 H619 0.930 . S
C633 C635 1.400 . S
C633 C636 1.386 . S
C634 C630 1.429 . S
C634 N632 1.377 . S
C634 C637 1.411 . S
C635 H617 0.930 . S
C635 N632 1.321 . S
C635 C633 1.400 . S
C636 H631 0.930 . S
C636 C633 1.386 . S
C636 C637 1.395 . S
C637 C634 1.411 . S
C637 C636 1.395 . S
C637 C659 1.420 . S
O638 Eu594 2.558 . S
O638 C658 1.257 . S
O639 Eu594 2.612 . S
O639 Eu605 2.380 . S
O639 C650 1.276 . S
O640 Eu605 2.432 . S
O640 C657 1.264 . S
O641 Eu594 2.339 . S
O641 C657 1.254 . S
O642 Eu594 2.563 . S
O642 C650 1.235 . S
O643 Eu594 2.419 . S
O643 C658 1.249 . S
O644 Eu605 2.558 . S
O644 C669 1.257 . S
O645 Eu594 2.380 . S
O645 Eu605 2.612 . S
O645 C661 1.276 . S
O646 Eu594 2.432 . S
O646 C668 1.264 . S
O647 Eu605 2.339 . S
O647 C668 1.254 . S
O648 Eu605 2.563 . S
O648 C661 1.235 . S
O649 Eu605 2.419 . S
O649 C669 1.249 . S
C650 O639 1.276 . S
C650 O642 1.235 . S
C651 C653 1.393 . S
C651 C655 1.395 . S
C651 C658 1.492 . S
C652 C653 1.392 . S
C652 C654 1.386 . S
C653 C651 1.393 . S
C653 C652 1.392 . S
C653 H670 0.930 . S
C654 C652 1.386 . S
C654 C656 1.395 . S
C654 H671 0.930 . S
C655 C651 1.395 . S
C655 C656 1.379 . S
C655 H672 0.930 . S
C656 C654 1.395 . S
C656 C655 1.379 . S
C656 H673 0.930 . S
C657 O640 1.264 . S
C657 O641 1.254 . S
C658 Eu594 2.848 . S
C658 O638 1.257 . S
C658 O643 1.249 . S
C658 C651 1.492 . S
C659 H624 0.931 . S
C659 C637 1.420 . S
C659 C660 1.351 . S
C660 H622 0.930 1_455 S
C660 C628 1.423 . S
C660 C659 1.351 . S
C661 O645 1.276 . S
C661 O648 1.235 . S
C662 C663 1.393 . S
C662 C666 1.395 . S
C662 C669 1.492 . S
C663 C662 1.393 . S
C663 C664 1.392 . S
C663 H674 0.930 . S
C664 C663 1.392 . S
C664 C665 1.386 . S
C665 C664 1.386 . S
C665 C667 1.395 . S
C665 H675 0.930 . S
C666 C662 1.395 . S
C666 C667 1.379 . S
C666 H676 0.930 . S
C667 C665 1.395 . S
C667 C666 1.379 . S
C667 H677 0.930 . S
C668 O646 1.264 . S
C668 O647 1.254 . S
C669 Eu605 2.848 . S
C669 O644 1.257 . S
C669 O649 1.249 . S
C669 C662 1.492 . S
H670 C653 0.930 . S
H671 C654 0.930 . S
H672 C655 0.930 . S
H673 C656 0.930 . S
H674 C663 0.930 . S
H675 C665 0.930 . S
H676 C666 0.930 . S
H677 C667 0.930 . S
Eu678 N709 2.657 . S
Eu678 N716 2.609 . S
Eu678 O722 2.558 . S
Eu678 O723 2.612 . S
Eu678 O725 2.339 . S
Eu678 O726 2.563 . S
Eu678 O727 2.419 . S
Eu678 O729 2.380 . S
Eu678 O730 2.432 . S
Eu678 C742 2.848 . S
C679 C682 1.429 . S
C679 C683 1.411 . S
C679 N686 1.377 . S
C680 C682 1.420 . S
C680 C684 1.423 . S
C680 C692 1.392 . S
C681 C683 1.420 . S
C681 C684 1.351 . S
C681 H704 0.931 . S
C682 C679 1.429 . S
C682 C680 1.420 . S
C682 N690 1.362 . S
C683 C679 1.411 . S
C683 C681 1.420 . S
C683 C688 1.395 . S
C684 C680 1.423 . S
C684 C681 1.351 . S
C684 H696 0.930 . S
C685 C687 1.400 . S
C685 C688 1.386 . S
C685 H697 0.930 . S
N686 C679 1.377 . S
N686 C687 1.321 . S
N686 Eu689 2.609 . S
C687 C685 1.400 . S
C687 N686 1.321 . S
C687 H694 0.930 . S
C688 C683 1.395 . S
C688 C685 1.386 . S
C688 H707 0.930 . S
Eu689 N686 2.609 . S
Eu689 N690 2.657 . S
Eu689 O723 2.380 . S
Eu689 O724 2.432 . S
Eu689 O728 2.558 . S
Eu689 O729 2.612 . S
Eu689 O731 2.339 . S
Eu689 O732 2.563 . S
Eu689 O733 2.419 . S
Eu689 C753 2.848 . S
N690 C682 1.362 . S
N690 Eu689 2.657 . S
N690 C691 1.334 . S
C691 N690 1.334 . S
C691 C693 1.413 . S
C691 H698 0.929 . S
C692 C680 1.392 . S
C692 C693 1.367 . S
C692 H700 0.930 . S
C693 C691 1.413 . S
C693 C692 1.367 . S
C693 H695 0.930 . S
H694 C687 0.930 . S
H695 C693 0.930 . S
H696 C684 0.930 . S
H697 C685 0.930 . S
H698 C691 0.929 . S
H699 C713 0.930 . S
H700 C692 0.930 . S
H701 C719 0.930 . S
H702 C710 0.929 . S
H703 C717 0.930 . S
H704 C681 0.931 . S
H705 C711 0.930 . S
H706 C744 0.930 . S
H707 C688 0.930 . S
H708 C743 0.931 . S
N709 Eu678 2.657 . S
N709 C710 1.334 . S
N709 C714 1.362 . S
C710 H702 0.929 . S
C710 N709 1.334 . S
C710 C713 1.413 . S
C711 H705 0.930 . S
C711 C712 1.392 . S
C711 C713 1.367 . S
C712 C711 1.392 . S
C712 C714 1.420 . S
C712 C744 1.423 . S
C713 H699 0.930 . S
C713 C710 1.413 . S
C713 C711 1.367 . S
C714 N709 1.362 . S
C714 C712 1.420 . S
C714 C718 1.429 . S
H715 C720 0.930 . S
N716 Eu678 2.609 . S
N716 C718 1.377 . S
N716 C719 1.321 . S
C717 H703 0.930 . S
C717 C719 1.400 . S
C717 C720 1.386 . S
C718 C714 1.429 . S
C718 N716 1.377 . S
C718 C721 1.411 . S
C719 H701 0.930 . S
C719 N716 1.321 . S
C719 C717 1.400 . S
C720 H715 0.930 . S
C720 C717 1.386 . S
C720 C721 1.395 . S
C721 C718 1.411 . S
C721 C720 1.395 . S
C721 C743 1.420 . S
O722 Eu678 2.558 . S
O722 C742 1.257 . S
O723 Eu678 2.612 . S
O723 Eu689 2.380 . S
O723 C734 1.276 . S
O724 Eu689 2.432 . S
O724 C741 1.264 . S
O725 Eu678 2.339 . S
O725 C741 1.254 . S
O726 Eu678 2.563 . S
O726 C734 1.235 . S
O727 Eu678 2.419 . S
O727 C742 1.249 . S
O728 Eu689 2.558 . S
O728 C753 1.257 . S
O729 Eu678 2.380 . S
O729 Eu689 2.612 . S
O729 C745 1.276 . S
O730 Eu678 2.432 . S
O730 C752 1.264 . S
O731 Eu689 2.339 . S
O731 C752 1.254 . S
O732 Eu689 2.563 . S
O732 C745 1.235 . S
O733 Eu689 2.419 . S
O733 C753 1.249 . S
C734 O723 1.276 . S
C734 O726 1.235 . S
C735 C737 1.393 . S
C735 C739 1.395 . S
C735 C742 1.492 . S
C736 C737 1.392 . S
C736 C738 1.386 . S
C737 C735 1.393 . S
C737 C736 1.392 . S
C737 H754 0.930 . S
C738 C736 1.386 . S
C738 C740 1.395 . S
C738 H755 0.930 . S
C739 C735 1.395 . S
C739 C740 1.379 . S
C739 H756 0.930 . S
C740 C738 1.395 . S
C740 C739 1.379 . S
C740 H757 0.930 . S
C741 O724 1.264 . S
C741 O725 1.254 . S
C742 Eu678 2.848 . S
C742 O722 1.257 . S
C742 O727 1.249 . S
C742 C735 1.492 . S
C743 H708 0.931 . S
C743 C721 1.420 . S
C743 C744 1.351 . S
C744 H706 0.930 . S
C744 C712 1.423 . S
C744 C743 1.351 . S
C745 O729 1.276 . S
C745 O732 1.235 . S
C746 C747 1.393 . S
C746 C750 1.395 . S
C746 C753 1.492 . S
C747 C746 1.393 . S
C747 C748 1.392 . S
C747 H758 0.930 . S
C748 C747 1.392 . S
C748 C749 1.386 . S
C749 C748 1.386 . S
C749 C751 1.395 . S
C749 H759 0.930 . S
C750 C746 1.395 . S
C750 C751 1.379 . S
C750 H760 0.930 . S
C751 C749 1.395 . S
C751 C750 1.379 . S
C751 H761 0.930 . S
C752 O730 1.264 . S
C752 O731 1.254 . S
C753 Eu689 2.848 . S
C753 O728 1.257 . S
C753 O733 1.249 . S
C753 C746 1.492 . S
H754 C737 0.930 . S
H755 C738 0.930 . S
H756 C739 0.930 . S
H757 C740 0.930 . S
H758 C747 0.930 . S
H759 C749 0.930 . S
H760 C750 0.930 . S
H761 C751 0.930 . S
Eu762 N793 2.657 . S
Eu762 N800 2.609 . S
Eu762 O806 2.558 . S
Eu762 O807 2.612 . S
Eu762 O809 2.339 . S
Eu762 O810 2.563 . S
Eu762 O811 2.419 . S
Eu762 O813 2.380 . S
Eu762 O814 2.432 . S
Eu762 C826 2.848 . S
C763 C766 1.429 . S
C763 C767 1.411 . S
C763 N770 1.377 . S
C764 C766 1.420 . S
C764 C768 1.423 . S
C764 C776 1.392 . S
C765 C767 1.420 . S
C765 C768 1.351 . S
C765 H788 0.931 . S
C766 C763 1.429 . S
C766 C764 1.420 . S
C766 N774 1.362 . S
C767 C763 1.411 . S
C767 C765 1.420 . S
C767 C772 1.395 . S
C768 C764 1.423 . S
C768 C765 1.351 . S
C768 H780 0.930 . S
C769 C771 1.400 . S
C769 C772 1.386 . S
C769 H781 0.930 . S
N770 C763 1.377 . S
N770 C771 1.321 . S
N770 Eu773 2.609 . S
C771 C769 1.400 . S
C771 N770 1.321 . S
C771 H778 0.930 . S
C772 C767 1.395 . S
C772 C769 1.386 . S
C772 H791 0.930 . S
Eu773 N770 2.609 . S
Eu773 N774 2.657 . S
Eu773 O807 2.380 . S
Eu773 O808 2.432 . S
Eu773 O812 2.558 . S
Eu773 O813 2.612 . S
Eu773 O815 2.339 . S
Eu773 O816 2.563 . S
Eu773 O817 2.419 . S
Eu773 C837 2.848 . S
N774 C766 1.362 . S
N774 Eu773 2.657 . S
N774 C775 1.334 . S
C775 N774 1.334 . S
C775 C777 1.413 . S
C775 H782 0.929 . S
C776 C764 1.392 . S
C776 C777 1.367 . S
C776 H784 0.930 . S
C777 C775 1.413 . S
C777 C776 1.367 . S
C777 H779 0.930 . S
H778 C771 0.930 . S
H779 C777 0.930 . S
H780 C768 0.930 . S
H781 C769 0.930 . S
H782 C775 0.929 . S
H783 C797 0.930 . S
H784 C776 0.930 . S
H785 C803 0.930 . S
H786 C794 0.929 . S
H787 C801 0.930 . S
H788 C765 0.931 . S
H789 C795 0.930 . S
H790 C828 0.930 . S
H791 C772 0.930 . S
H792 C827 0.931 . S
N793 Eu762 2.657 . S
N793 C794 1.334 . S
N793 C798 1.362 . S
C794 H786 0.929 . S
C794 N793 1.334 . S
C794 C797 1.413 . S
C795 H789 0.930 . S
C795 C796 1.392 . S
C795 C797 1.367 . S
C796 C795 1.392 . S
C796 C798 1.420 . S
C796 C828 1.423 . S
C797 H783 0.930 . S
C797 C794 1.413 . S
C797 C795 1.367 . S
C798 N793 1.362 . S
C798 C796 1.420 . S
C798 C802 1.429 . S
H799 C804 0.930 . S
N800 Eu762 2.609 . S
N800 C802 1.377 . S
N800 C803 1.321 . S
C801 H787 0.930 . S
C801 C803 1.400 . S
C801 C804 1.386 . S
C802 C798 1.429 . S
C802 N800 1.377 . S
C802 C805 1.411 . S
C803 H785 0.930 . S
C803 N800 1.321 . S
C803 C801 1.400 . S
C804 H799 0.930 . S
C804 C801 1.386 . S
C804 C805 1.395 . S
C805 C802 1.411 . S
C805 C804 1.395 . S
C805 C827 1.420 . S
O806 Eu762 2.558 . S
O806 C826 1.257 . S
O807 Eu762 2.612 . S
O807 Eu773 2.380 . S
O807 C818 1.276 . S
O808 Eu773 2.432 . S
O808 C825 1.264 . S
O809 Eu762 2.339 . S
O809 C825 1.254 . S
O810 Eu762 2.563 . S
O810 C818 1.235 . S
O811 Eu762 2.419 . S
O811 C826 1.249 . S
O812 Eu773 2.558 . S
O812 C837 1.257 . S
O813 Eu762 2.380 . S
O813 Eu773 2.612 . S
O813 C829 1.276 . S
O814 Eu762 2.432 . S
O814 C836 1.264 . S
O815 Eu773 2.339 . S
O815 C836 1.254 . S
O816 Eu773 2.563 . S
O816 C829 1.235 . S
O817 Eu773 2.419 . S
O817 C837 1.249 . S
C818 O807 1.276 . S
C818 O810 1.235 . S
C819 C821 1.393 . S
C819 C823 1.395 . S
C819 C826 1.492 . S
C820 C821 1.392 . S
C820 C822 1.386 . S
C821 C819 1.393 . S
C821 C820 1.392 . S
C821 H838 0.930 . S
C822 C820 1.386 . S
C822 C824 1.395 . S
C822 H839 0.930 . S
C823 C819 1.395 . S
C823 C824 1.379 . S
C823 H840 0.930 . S
C824 C822 1.395 . S
C824 C823 1.379 . S
C824 H841 0.930 . S
C825 O808 1.264 . S
C825 O809 1.254 . S
C826 Eu762 2.848 . S
C826 O806 1.257 . S
C826 O811 1.249 . S
C826 C819 1.492 . S
C827 H792 0.931 . S
C827 C805 1.420 . S
C827 C828 1.351 . S
C828 H790 0.930 . S
C828 C796 1.423 . S
C828 C827 1.351 . S
C829 O813 1.276 . S
C829 O816 1.235 . S
C830 C831 1.393 . S
C830 C834 1.395 . S
C830 C837 1.492 . S
C831 C830 1.393 . S
C831 C832 1.392 . S
C831 H842 0.930 . S
C832 C831 1.392 . S
C832 C833 1.386 . S
C833 C832 1.386 . S
C833 C835 1.395 . S
C833 H843 0.930 . S
C834 C830 1.395 . S
C834 C835 1.379 . S
C834 H844 0.930 . S
C835 C833 1.395 . S
C835 C834 1.379 . S
C835 H845 0.930 . S
C836 O814 1.264 . S
C836 O815 1.254 . S
C837 Eu773 2.848 . S
C837 O812 1.257 . S
C837 O817 1.249 . S
C837 C830 1.492 . S
H838 C821 0.930 . S
H839 C822 0.930 . S
H840 C823 0.930 . S
H841 C824 0.930 . S
H842 C831 0.930 . S
H843 C833 0.930 . S
H844 C834 0.930 . S
H845 C835 0.930 . S
Eu846 N877 2.657 . S
Eu846 N884 2.609 . S
Eu846 O890 2.558 . S
Eu846 O891 2.612 . S
Eu846 O893 2.339 . S
Eu846 O894 2.563 . S
Eu846 O895 2.419 . S
Eu846 O897 2.380 . S
Eu846 O898 2.432 . S
Eu846 C910 2.848 . S
C847 C850 1.429 . S
C847 C851 1.411 . S
C847 N854 1.377 . S
C848 C850 1.420 . S
C848 C852 1.423 . S
C848 C860 1.392 . S
C849 C851 1.420 . S
C849 C852 1.351 . S
C849 H872 0.931 . S
C850 C847 1.429 . S
C850 C848 1.420 . S
C850 N858 1.362 . S
C851 C847 1.411 . S
C851 C849 1.420 . S
C851 C856 1.395 . S
C852 C848 1.423 . S
C852 C849 1.351 . S
C852 H864 0.930 . S
C853 C855 1.400 . S
C853 C856 1.386 . S
C853 H865 0.930 . S
N854 C847 1.377 . S
N854 C855 1.321 . S
N854 Eu857 2.609 . S
C855 C853 1.400 . S
C855 N854 1.321 . S
C855 H862 0.930 . S
C856 C851 1.395 . S
C856 C853 1.386 . S
C856 H875 0.930 . S
Eu857 N854 2.609 . S
Eu857 N858 2.657 . S
Eu857 O891 2.380 . S
Eu857 O892 2.432 . S
Eu857 O896 2.558 . S
Eu857 O897 2.612 . S
Eu857 O899 2.339 . S
Eu857 O900 2.563 . S
Eu857 O901 2.419 . S
Eu857 C921 2.848 . S
N858 C850 1.362 . S
N858 Eu857 2.657 . S
N858 C859 1.334 . S
C859 N858 1.334 . S
C859 C861 1.413 . S
C859 H866 0.929 . S
C860 C848 1.392 . S
C860 C861 1.367 . S
C860 H868 0.930 . S
C861 C859 1.413 . S
C861 C860 1.367 . S
C861 H863 0.930 . S
H862 C855 0.930 . S
H863 C861 0.930 . S
H864 C852 0.930 . S
H865 C853 0.930 . S
H866 C859 0.929 . S
H867 C881 0.930 . S
H868 C860 0.930 . S
H869 C887 0.930 . S
H870 C878 0.929 . S
H871 C885 0.930 . S
H872 C849 0.931 . S
H873 C879 0.930 . S
H874 C912 0.930 . S
H875 C856 0.930 . S
H876 C911 0.931 . S
N877 Eu846 2.657 . S
N877 C878 1.334 . S
N877 C882 1.362 . S
C878 H870 0.929 . S
C878 N877 1.334 . S
C878 C881 1.413 . S
C879 H873 0.930 . S
C879 C880 1.392 . S
C879 C881 1.367 . S
C880 C879 1.392 . S
C880 C882 1.420 . S
C880 C912 1.423 . S
C881 H867 0.930 . S
C881 C878 1.413 . S
C881 C879 1.367 . S
C882 N877 1.362 . S
C882 C880 1.420 . S
C882 C886 1.429 . S
H883 C888 0.930 . S
N884 Eu846 2.609 . S
N884 C886 1.377 . S
N884 C887 1.321 . S
C885 H871 0.930 . S
C885 C887 1.400 . S
C885 C888 1.386 . S
C886 C882 1.429 . S
C886 N884 1.377 . S
C886 C889 1.411 . S
C887 H869 0.930 . S
C887 N884 1.321 . S
C887 C885 1.400 . S
C888 H883 0.930 . S
C888 C885 1.386 . S
C888 C889 1.395 . S
C889 C886 1.411 . S
C889 C888 1.395 . S
C889 C911 1.420 . S
O890 Eu846 2.558 . S
O890 C910 1.257 . S
O891 Eu846 2.612 . S
O891 Eu857 2.380 . S
O891 C902 1.276 . S
O892 Eu857 2.432 . S
O892 C909 1.264 . S
O893 Eu846 2.339 . S
O893 C909 1.254 . S
O894 Eu846 2.563 . S
O894 C902 1.235 . S
O895 Eu846 2.419 . S
O895 C910 1.249 . S
O896 Eu857 2.558 . S
O896 C921 1.257 . S
O897 Eu846 2.380 . S
O897 Eu857 2.612 . S
O897 C913 1.276 . S
O898 Eu846 2.432 . S
O898 C920 1.264 . S
O899 Eu857 2.339 . S
O899 C920 1.254 . S
O900 Eu857 2.563 . S
O900 C913 1.235 . S
O901 Eu857 2.419 . S
O901 C921 1.249 . S
C902 O891 1.276 . S
C902 O894 1.235 . S
C903 C905 1.393 . S
C903 C907 1.395 . S
C903 C910 1.492 . S
C904 C905 1.392 . S
C904 C906 1.386 . S
C905 C903 1.393 . S
C905 C904 1.392 . S
C905 H922 0.930 . S
C906 C904 1.386 . S
C906 C908 1.395 . S
C906 H923 0.930 . S
C907 C903 1.395 . S
C907 C908 1.379 . S
C907 H924 0.930 . S
C908 C906 1.395 . S
C908 C907 1.379 . S
C908 H925 0.930 . S
C909 O892 1.264 . S
C909 O893 1.254 . S
C910 Eu846 2.848 . S
C910 O890 1.257 . S
C910 O895 1.249 . S
C910 C903 1.492 . S
C911 H876 0.931 . S
C911 C889 1.420 . S
C911 C912 1.351 . S
C912 H874 0.930 . S
C912 C880 1.423 . S
C912 C911 1.351 . S
C913 O897 1.276 . S
C913 O900 1.235 . S
C914 C915 1.393 . S
C914 C918 1.395 . S
C914 C921 1.492 . S
C915 C914 1.393 . S
C915 C916 1.392 . S
C915 H926 0.930 . S
C916 C915 1.392 . S
C916 C917 1.386 . S
C917 C916 1.386 . S
C917 C919 1.395 . S
C917 H927 0.930 . S
C918 C914 1.395 . S
C918 C919 1.379 . S
C918 H928 0.930 . S
C919 C917 1.395 . S
C919 C918 1.379 . S
C919 H929 0.930 . S
C920 O898 1.264 . S
C920 O899 1.254 . S
C921 Eu857 2.848 . S
C921 O896 1.257 . S
C921 O901 1.249 . S
C921 C914 1.492 . S
H922 C905 0.930 . S
H923 C906 0.930 . S
H924 C907 0.930 . S
H925 C908 0.930 . S
H926 C915 0.930 . S
H927 C917 0.930 . S
H928 C918 0.930 . S
H929 C919 0.930 . S
Eu930 N961 2.657 . S
Eu930 N968 2.609 . S
Eu930 O974 2.558 . S
Eu930 O975 2.612 . S
Eu930 O977 2.339 . S
Eu930 O978 2.563 . S
Eu930 O979 2.419 . S
Eu930 O981 2.380 . S
Eu930 O982 2.432 . S
Eu930 C994 2.848 . S
C931 C934 1.429 . S
C931 C935 1.411 . S
C931 N938 1.377 . S
C932 C934 1.420 . S
C932 C936 1.423 . S
C932 C944 1.392 . S
C933 C935 1.420 . S
C933 C936 1.351 . S
C933 H956 0.931 . S
C934 C931 1.429 . S
C934 C932 1.420 . S
C934 N942 1.362 . S
C935 C931 1.411 . S
C935 C933 1.420 . S
C935 C940 1.395 . S
C936 C932 1.423 . S
C936 C933 1.351 . S
C936 H948 0.930 . S
C937 C939 1.400 . S
C937 C940 1.386 . S
C937 H949 0.930 . S
N938 C931 1.377 . S
N938 C939 1.321 . S
N938 Eu941 2.609 . S
C939 C937 1.400 . S
C939 N938 1.321 . S
C939 H946 0.930 . S
C940 C935 1.395 . S
C940 C937 1.386 . S
C940 H959 0.930 . S
Eu941 N938 2.609 . S
Eu941 N942 2.657 . S
Eu941 O975 2.380 . S
Eu941 O976 2.432 . S
Eu941 O980 2.558 . S
Eu941 O981 2.612 . S
Eu941 O983 2.339 . S
Eu941 O984 2.563 . S
Eu941 O985 2.419 . S
Eu941 C1005 2.848 . S
N942 C934 1.362 . S
N942 Eu941 2.657 . S
N942 C943 1.334 . S
C943 N942 1.334 . S
C943 C945 1.413 . S
C943 H950 0.929 . S
C944 C932 1.392 . S
C944 C945 1.367 . S
C944 H952 0.930 . S
C945 C943 1.413 . S
C945 C944 1.367 . S
C945 H947 0.930 . S
H946 C939 0.930 . S
H947 C945 0.930 . S
H948 C936 0.930 . S
H949 C937 0.930 . S
H950 C943 0.929 . S
H951 C965 0.930 . S
H952 C944 0.930 . S
H953 C971 0.930 . S
H954 C962 0.929 . S
H955 C969 0.930 . S
H956 C933 0.931 . S
H957 C963 0.930 . S
H958 C996 0.930 . S
H959 C940 0.930 . S
H960 C995 0.931 . S
N961 Eu930 2.657 . S
N961 C962 1.334 . S
N961 C966 1.362 . S
C962 H954 0.929 . S
C962 N961 1.334 . S
C962 C965 1.413 . S
C963 H957 0.930 . S
C963 C964 1.392 . S
C963 C965 1.367 . S
C964 C963 1.392 . S
C964 C966 1.420 . S
C964 C996 1.423 . S
C965 H951 0.930 . S
C965 C962 1.413 . S
C965 C963 1.367 . S
C966 N961 1.362 . S
C966 C964 1.420 . S
C966 C970 1.429 . S
H967 C972 0.930 . S
N968 Eu930 2.609 . S
N968 C970 1.377 . S
N968 C971 1.321 . S
C969 H955 0.930 . S
C969 C971 1.400 . S
C969 C972 1.386 . S
C970 C966 1.429 . S
C970 N968 1.377 . S
C970 C973 1.411 . S
C971 H953 0.930 . S
C971 N968 1.321 . S
C971 C969 1.400 . S
C972 H967 0.930 . S
C972 C969 1.386 . S
C972 C973 1.395 . S
C973 C970 1.411 . S
C973 C972 1.395 . S
C973 C995 1.420 . S
O974 Eu930 2.558 . S
O974 C994 1.257 . S
O975 Eu930 2.612 . S
O975 Eu941 2.380 . S
O975 C986 1.276 . S
O976 Eu941 2.432 . S
O976 C993 1.264 . S
O977 Eu930 2.339 . S
O977 C993 1.254 . S
O978 Eu930 2.563 . S
O978 C986 1.235 . S
O979 Eu930 2.419 . S
O979 C994 1.249 . S
O980 Eu941 2.558 . S
O980 C1005 1.257 . S
O981 Eu930 2.380 . S
O981 Eu941 2.612 . S
O981 C997 1.276 . S
O982 Eu930 2.432 . S
O982 C1004 1.264 . S
O983 Eu941 2.339 . S
O983 C1004 1.254 . S
O984 Eu941 2.563 . S
O984 C997 1.235 . S
O985 Eu941 2.419 . S
O985 C1005 1.249 . S
C986 O975 1.276 . S
C986 O978 1.235 . S
C987 C989 1.393 . S
C987 C991 1.395 . S
C987 C994 1.492 . S
C988 C989 1.392 . S
C988 C990 1.386 . S
C989 C987 1.393 . S
C989 C988 1.392 . S
C989 H1006 0.930 . S
C990 C988 1.386 . S
C990 C992 1.395 . S
C990 H1007 0.930 . S
C991 C987 1.395 . S
C991 C992 1.379 . S
C991 H1008 0.930 . S
C992 C990 1.395 . S
C992 C991 1.379 . S
C992 H1009 0.930 . S
C993 O976 1.264 . S
C993 O977 1.254 . S
C994 Eu930 2.848 . S
C994 O974 1.257 . S
C994 O979 1.249 . S
C994 C987 1.492 . S
C995 H960 0.931 . S
C995 C973 1.420 . S
C995 C996 1.351 . S
C996 H958 0.930 . S
C996 C964 1.423 . S
C996 C995 1.351 . S
C997 O981 1.276 . S
C997 O984 1.235 . S
C998 C999 1.393 . S
C998 C1002 1.395 . S
C998 C1005 1.492 . S
C999 C998 1.393 . S
C999 C1000 1.392 . S
C999 H1010 0.930 . S
C1000 C999 1.392 . S
C1000 C1001 1.386 . S
C1001 C1000 1.386 . S
C1001 C1003 1.395 . S
C1001 H1011 0.930 . S
C1002 C998 1.395 . S
C1002 C1003 1.379 . S
C1002 H1012 0.930 . S
C1003 C1001 1.395 . S
C1003 C1002 1.379 . S
C1003 H1013 0.930 . S
C1004 O982 1.264 . S
C1004 O983 1.254 . S
C1005 Eu941 2.848 . S
C1005 O980 1.257 . S
C1005 O985 1.249 . S
C1005 C998 1.492 . S
H1006 C989 0.930 . S
H1007 C990 0.930 . S
H1008 C991 0.930 . S
H1009 C992 0.930 . S
H1010 C999 0.930 . S
H1011 C1001 0.930 . S
H1012 C1002 0.930 . S
H1013 C1003 0.930 . S
Eu1014 N1045 2.657 . S
Eu1014 N1052 2.609 . S
Eu1014 O1058 2.558 . S
Eu1014 O1059 2.612 . S
Eu1014 O1061 2.339 . S
Eu1014 O1062 2.563 . S
Eu1014 O1063 2.419 . S
Eu1014 O1065 2.380 . S
Eu1014 O1066 2.432 . S
Eu1014 C1078 2.848 . S
C1015 C1018 1.429 . S
C1015 C1019 1.411 . S
C1015 N1022 1.377 . S
C1016 C1018 1.420 . S
C1016 C1020 1.423 . S
C1016 C1028 1.392 . S
C1017 C1019 1.420 . S
C1017 C1020 1.351 . S
C1017 H1040 0.931 . S
C1018 C1015 1.429 . S
C1018 C1016 1.420 . S
C1018 N1026 1.362 . S
C1019 C1015 1.411 . S
C1019 C1017 1.420 . S
C1019 C1024 1.395 . S
C1020 C1016 1.423 . S
C1020 C1017 1.351 . S
C1020 H1032 0.930 . S
C1021 C1023 1.400 . S
C1021 C1024 1.386 . S
C1021 H1033 0.930 . S
N1022 C1015 1.377 . S
N1022 C1023 1.321 . S
N1022 Eu1025 2.609 . S
C1023 C1021 1.400 . S
C1023 N1022 1.321 . S
C1023 H1030 0.930 . S
C1024 C1019 1.395 . S
C1024 C1021 1.386 . S
C1024 H1043 0.930 . S
Eu1025 N1022 2.609 . S
Eu1025 N1026 2.657 . S
Eu1025 O1059 2.380 . S
Eu1025 O1060 2.432 . S
Eu1025 O1064 2.558 . S
Eu1025 O1065 2.612 . S
Eu1025 O1067 2.339 . S
Eu1025 O1068 2.563 . S
Eu1025 O1069 2.419 . S
Eu1025 C1089 2.848 . S
N1026 C1018 1.362 . S
N1026 Eu1025 2.657 . S
N1026 C1027 1.334 . S
C1027 N1026 1.334 . S
C1027 C1029 1.413 . S
C1027 H1034 0.929 . S
C1028 C1016 1.392 . S
C1028 C1029 1.367 . S
C1028 H1036 0.930 . S
C1029 C1027 1.413 . S
C1029 C1028 1.367 . S
C1029 H1031 0.930 . S
H1030 C1023 0.930 . S
H1031 C1029 0.930 . S
H1032 C1020 0.930 . S
H1033 C1021 0.930 . S
H1034 C1027 0.929 . S
H1035 C1049 0.930 . S
H1036 C1028 0.930 . S
H1037 C1055 0.930 . S
H1038 C1046 0.929 . S
H1039 C1053 0.930 . S
H1040 C1017 0.931 . S
H1041 C1047 0.930 1_455 S
H1042 C1080 0.930 1_455 S
H1043 C1024 0.930 . S
H1044 C1079 0.931 . S
N1045 Eu1014 2.657 . S
N1045 C1046 1.334 . S
N1045 C1050 1.362 . S
C1046 H1038 0.929 . S
C1046 N1045 1.334 . S
C1046 C1049 1.413 . S
C1047 H1041 0.930 1_655 S
C1047 C1048 1.392 . S
C1047 C1049 1.367 . S
C1048 C1047 1.392 . S
C1048 C1050 1.420 . S
C1048 C1080 1.423 . S
C1049 H1035 0.930 . S
C1049 C1046 1.413 . S
C1049 C1047 1.367 . S
C1050 N1045 1.362 . S
C1050 C1048 1.420 . S
C1050 C1054 1.429 . S
H1051 C1056 0.930 . S
N1052 Eu1014 2.609 . S
N1052 C1054 1.377 . S
N1052 C1055 1.321 . S
C1053 H1039 0.930 . S
C1053 C1055 1.400 . S
C1053 C1056 1.386 . S
C1054 C1050 1.429 . S
C1054 N1052 1.377 . S
C1054 C1057 1.411 . S
C1055 H1037 0.930 . S
C1055 N1052 1.321 . S
C1055 C1053 1.400 . S
C1056 H1051 0.930 . S
C1056 C1053 1.386 . S
C1056 C1057 1.395 . S
C1057 C1054 1.411 . S
C1057 C1056 1.395 . S
C1057 C1079 1.420 . S
O1058 Eu1014 2.558 . S
O1058 C1078 1.257 . S
O1059 Eu1014 2.612 . S
O1059 Eu1025 2.380 . S
O1059 C1070 1.276 . S
O1060 Eu1025 2.432 . S
O1060 C1077 1.264 . S
O1061 Eu1014 2.339 . S
O1061 C1077 1.254 . S
O1062 Eu1014 2.563 . S
O1062 C1070 1.235 . S
O1063 Eu1014 2.419 . S
O1063 C1078 1.249 . S
O1064 Eu1025 2.558 . S
O1064 C1089 1.257 . S
O1065 Eu1014 2.380 . S
O1065 Eu1025 2.612 . S
O1065 C1081 1.276 . S
O1066 Eu1014 2.432 . S
O1066 C1088 1.264 . S
O1067 Eu1025 2.339 . S
O1067 C1088 1.254 . S
O1068 Eu1025 2.563 . S
O1068 C1081 1.235 . S
O1069 Eu1025 2.419 . S
O1069 C1089 1.249 . S
C1070 O1059 1.276 . S
C1070 O1062 1.235 . S
C1071 C1073 1.393 . S
C1071 C1075 1.395 . S
C1071 C1078 1.492 . S
C1072 C1073 1.392 . S
C1072 C1074 1.386 . S
C1073 C1071 1.393 . S
C1073 C1072 1.392 . S
C1073 H1090 0.930 . S
C1074 C1072 1.386 . S
C1074 C1076 1.395 . S
C1074 H1091 0.930 . S
C1075 C1071 1.395 . S
C1075 C1076 1.379 . S
C1075 H1092 0.930 . S
C1076 C1074 1.395 . S
C1076 C1075 1.379 . S
C1076 H1093 0.930 . S
C1077 O1060 1.264 . S
C1077 O1061 1.254 . S
C1078 Eu1014 2.848 . S
C1078 O1058 1.257 . S
C1078 O1063 1.249 . S
C1078 C1071 1.492 . S
C1079 H1044 0.931 . S
C1079 C1057 1.420 . S
C1079 C1080 1.351 . S
C1080 H1042 0.930 1_655 S
C1080 C1048 1.423 . S
C1080 C1079 1.351 . S
C1081 O1065 1.276 . S
C1081 O1068 1.235 . S
C1082 C1083 1.393 . S
C1082 C1086 1.395 . S
C1082 C1089 1.492 . S
C1083 C1082 1.393 . S
C1083 C1084 1.392 . S
C1083 H1094 0.930 . S
C1084 C1083 1.392 . S
C1084 C1085 1.386 . S
C1085 C1084 1.386 . S
C1085 C1087 1.395 . S
C1085 H1095 0.930 . S
C1086 C1082 1.395 . S
C1086 C1087 1.379 . S
C1086 H1096 0.930 . S
C1087 C1085 1.395 . S
C1087 C1086 1.379 . S
C1087 H1097 0.930 . S
C1088 O1066 1.264 . S
C1088 O1067 1.254 . S
C1089 Eu1025 2.848 . S
C1089 O1064 1.257 . S
C1089 O1069 1.249 . S
C1089 C1082 1.492 . S
H1090 C1073 0.930 . S
H1091 C1074 0.930 . S
H1092 C1075 0.930 . S
H1093 C1076 0.930 . S
H1094 C1083 0.930 . S
H1095 C1085 0.930 . S
H1096 C1086 0.930 . S
H1097 C1087 0.930 . S
H1098 C1104 0.930 . S
H1099 C1108 0.930 . S
H1100 C1113 0.929 . S
H1101 C1111 0.929 . S
H1102 C1106 0.929 . S
H1103 C1112 0.929 . S
C1104 H1098 0.930 . S
C1104 C1105 1.367 . S
C1104 C1112 1.378 . S
C1105 C1104 1.367 . S
C1105 C1113 1.433 . S
C1106 H1102 0.929 . S
C1106 C1108 1.378 . S
C1106 C1110 1.350 . S
C1107 C1110 1.463 . S
C1107 C1112 1.350 . S
C1107 N1115 1.427 . S
C1108 H1099 0.930 . S
C1108 C1106 1.378 . S
C1108 C1109 1.367 . S
C1109 C1108 1.367 . S
C1109 C1111 1.433 . S
C1110 C1106 1.350 . S
C1110 C1107 1.463 . S
C1110 N1114 1.427 . S
C1111 H1101 0.929 . S
C1111 C1109 1.433 . S
C1111 N1114 1.384 . S
C1112 H1103 0.929 . S
C1112 C1104 1.378 . S
C1112 C1107 1.350 . S
C1113 H1100 0.929 . S
C1113 C1105 1.433 . S
C1113 N1115 1.384 . S
N1114 C1110 1.427 . S
N1114 C1111 1.384 . S
N1115 C1107 1.427 . S
N1115 C1113 1.384 . S
H1116 C1122 0.930 . S
H1117 C1126 0.930 . S
H1118 C1131 0.929 . S
H1119 C1129 0.929 . S
H1120 C1124 0.929 . S
H1121 C1130 0.929 . S
C1122 H1116 0.930 . S
C1122 C1123 1.367 . S
C1122 C1130 1.378 . S
C1123 C1122 1.367 . S
C1123 C1131 1.433 . S
C1124 H1120 0.929 . S
C1124 C1126 1.378 . S
C1124 C1128 1.350 . S
C1125 C1128 1.463 . S
C1125 C1130 1.350 . S
C1125 N1133 1.427 . S
C1126 H1117 0.930 . S
C1126 C1124 1.378 . S
C1126 C1127 1.367 . S
C1127 C1126 1.367 . S
C1127 C1129 1.433 . S
C1128 C1124 1.350 . S
C1128 C1125 1.463 . S
C1128 N1132 1.427 . S
C1129 H1119 0.929 . S
C1129 C1127 1.433 . S
C1129 N1132 1.384 . S
C1130 H1121 0.929 . S
C1130 C1122 1.378 . S
C1130 C1125 1.350 . S
C1131 H1118 0.929 . S
C1131 C1123 1.433 . S
C1131 N1133 1.384 . S
N1132 C1128 1.427 . S
N1132 C1129 1.384 . S
N1133 C1125 1.427 . S
N1133 C1131 1.384 . S
H1134 C1140 0.930 . S
H1135 C1144 0.930 . S
H1136 C1149 0.929 . S
H1137 C1147 0.929 . S
H1138 C1142 0.929 . S
H1139 C1148 0.929 . S
C1140 H1134 0.930 . S
C1140 C1141 1.367 . S
C1140 C1148 1.378 . S
C1141 C1140 1.367 . S
C1141 C1149 1.433 . S
C1142 H1138 0.929 . S
C1142 C1144 1.378 . S
C1142 C1146 1.350 . S
C1143 C1146 1.463 . S
C1143 C1148 1.350 . S
C1143 N1151 1.427 . S
C1144 H1135 0.930 . S
C1144 C1142 1.378 . S
C1144 C1145 1.367 . S
C1145 C1144 1.367 . S
C1145 C1147 1.433 . S
C1146 C1142 1.350 . S
C1146 C1143 1.463 . S
C1146 N1150 1.427 . S
C1147 H1137 0.929 . S
C1147 C1145 1.433 . S
C1147 N1150 1.384 . S
C1148 H1139 0.929 . S
C1148 C1140 1.378 . S
C1148 C1143 1.350 . S
C1149 H1136 0.929 . S
C1149 C1141 1.433 . S
C1149 N1151 1.384 . S
N1150 C1146 1.427 . S
N1150 C1147 1.384 . S
N1151 C1143 1.427 . S
N1151 C1149 1.384 . S
H1152 C1158 0.930 . S
H1153 C1162 0.930 . S
H1154 C1167 0.929 . S
H1155 C1165 0.929 . S
H1156 C1160 0.929 . S
H1157 C1166 0.929 1_554 S
C1158 H1152 0.930 . S
C1158 C1159 1.367 . S
C1158 C1166 1.378 . S
C1159 C1158 1.367 . S
C1159 C1167 1.433 . S
C1160 H1156 0.929 . S
C1160 C1162 1.378 . S
C1160 C1164 1.350 . S
C1161 C1164 1.463 . S
C1161 C1166 1.350 . S
C1161 N1169 1.427 . S
C1162 H1153 0.930 . S
C1162 C1160 1.378 . S
C1162 C1163 1.367 . S
C1163 C1162 1.367 . S
C1163 C1165 1.433 1_556 S
C1164 C1160 1.350 . S
C1164 C1161 1.463 . S
C1164 N1168 1.427 1_556 S
C1165 H1155 0.929 . S
C1165 C1163 1.433 1_554 S
C1165 N1168 1.384 . S
C1166 H1157 0.929 1_556 S
C1166 C1158 1.378 . S
C1166 C1161 1.350 . S
C1167 H1154 0.929 . S
C1167 C1159 1.433 . S
C1167 N1169 1.384 . S
N1168 C1164 1.427 1_554 S
N1168 C1165 1.384 . S
N1169 C1161 1.427 . S
N1169 C1167 1.384 . S
H1170 C1176 0.930 . S
H1171 C1180 0.949 . S
H1172 C1185 0.929 . S
H1173 C1183 0.929 . S
H1174 C1178 0.929 . S
H1175 C1184 0.929 . S
C1176 H1170 0.930 . S
C1176 C1177 1.367 . S
C1176 C1184 1.378 . S
C1177 C1176 1.367 . S
C1177 C1185 1.433 . S
C1178 H1174 0.929 . S
C1178 C1180 1.367 1_556 S
C1178 C1182 1.350 . S
C1179 C1182 1.463 . S
C1179 C1184 1.350 . S
C1179 N1187 1.427 . S
C1180 H1171 0.949 . S
C1180 C1178 1.367 1_554 S
C1180 C1181 1.360 1_554 S
C1181 C1180 1.360 1_556 S
C1181 C1183 1.433 . S
C1182 C1178 1.350 . S
C1182 C1179 1.463 . S
C1182 N1186 1.427 . S
C1183 H1173 0.929 . S
C1183 C1181 1.433 . S
C1183 N1186 1.384 . S
C1184 H1175 0.929 . S
C1184 C1176 1.378 . S
C1184 C1179 1.350 . S
C1185 H1172 0.929 . S
C1185 C1177 1.433 . S
C1185 N1187 1.384 . S
N1186 C1182 1.427 . S
N1186 C1183 1.384 . S
N1187 C1179 1.427 . S
N1187 C1185 1.384 . S
H1188 C1194 0.930 . S
H1189 C1198 0.930 . S
H1190 C1203 0.929 . S
H1191 C1201 0.929 . S
H1192 C1196 0.929 . S
H1193 C1202 0.929 . S
C1194 H1188 0.930 . S
C1194 C1195 1.367 . S
C1194 C1202 1.378 . S
C1195 C1194 1.367 . S
C1195 C1203 1.433 . S
C1196 H1192 0.929 . S
C1196 C1198 1.378 . S
C1196 C1200 1.350 . S
C1197 C1200 1.463 . S
C1197 C1202 1.350 . S
C1197 N1205 1.427 . S
C1198 H1189 0.930 . S
C1198 C1196 1.378 . S
C1198 C1199 1.367 . S
C1199 C1198 1.367 . S
C1199 C1201 1.433 1_556 S
C1200 C1196 1.350 . S
C1200 C1197 1.463 . S
C1200 N1204 1.412 1_556 S
C1201 H1191 0.929 . S
C1201 C1199 1.433 1_554 S
C1201 N1204 1.390 . S
C1202 H1193 0.929 . S
C1202 C1194 1.378 . S
C1202 C1197 1.350 . S
C1203 H1190 0.929 . S
C1203 C1195 1.433 . S
C1203 N1205 1.384 . S
N1204 C1200 1.412 1_554 S
N1204 C1201 1.390 . S
N1205 C1197 1.427 . S
N1205 C1203 1.384 . S
H1206 C1212 0.930 . S
H1207 C1216 0.930 1_554 S
H1208 C1221 0.929 . S
H1209 C1219 0.929 . S
H1210 C1214 0.929 . S
H1211 C1220 0.929 . S
C1212 H1206 0.930 . S
C1212 C1213 1.367 . S
C1212 C1220 1.378 . S
C1213 C1212 1.367 . S
C1213 C1221 1.433 . S
C1214 H1210 0.929 . S
C1214 C1216 1.378 . S
C1214 C1218 1.350 . S
C1215 C1218 1.463 . S
C1215 C1220 1.350 . S
C1215 N1223 1.427 . S
C1216 H1207 0.930 1_556 S
C1216 C1214 1.378 . S
C1216 C1217 1.367 . S
C1217 C1216 1.367 . S
C1217 C1219 1.433 . S
C1218 C1214 1.350 . S
C1218 C1215 1.463 . S
C1218 N1222 1.427 . S
C1219 H1209 0.929 . S
C1219 C1217 1.433 . S
C1219 N1222 1.384 . S
C1220 H1211 0.929 . S
C1220 C1212 1.378 . S
C1220 C1215 1.350 . S
C1221 H1208 0.929 . S
C1221 C1213 1.433 . S
C1221 N1223 1.384 . S
N1222 C1218 1.427 . S
N1222 C1219 1.384 . S
N1223 C1215 1.427 . S
N1223 C1221 1.384 . S
H1224 C1230 0.930 . S
H1225 C1234 0.930 . S
H1226 C1239 0.929 1_554 S
H1227 C1237 0.929 . S
H1228 C1232 0.929 . S
H1229 C1238 0.929 . S
C1230 H1224 0.930 . S
C1230 C1231 1.367 . S
C1230 C1238 1.378 . S
C1231 C1230 1.367 . S
C1231 C1239 1.433 . S
C1232 H1228 0.929 . S
C1232 C1234 1.378 . S
C1232 C1236 1.350 1_554 S
C1233 C1236 1.463 . S
C1233 C1238 1.350 . S
C1233 N1241 1.427 . S
C1234 H1225 0.930 . S
C1234 C1232 1.378 . S
C1234 C1235 1.367 1_554 S
C1235 C1234 1.367 1_556 S
C1235 C1237 1.433 . S
C1236 C1232 1.350 1_556 S
C1236 C1233 1.463 . S
C1236 N1240 1.427 . S
C1237 H1227 0.929 . S
C1237 C1235 1.433 . S
C1237 N1240 1.384 . S
C1238 H1229 0.929 . S
C1238 C1230 1.378 . S
C1238 C1233 1.350 . S
C1239 H1226 0.929 1_556 S
C1239 C1231 1.433 . S
C1239 N1241 1.384 . S
N1240 C1236 1.427 . S
N1240 C1237 1.384 . S
N1241 C1233 1.427 . S
N1241 C1239 1.384 . S
H1242 C1248 0.930 . S
H1243 C1252 0.930 . S
H1244 C1257 0.942 . S
H1245 C1255 0.929 . S
H1246 C1250 0.929 . S
H1247 C1256 0.929 . S
C1248 H1242 0.930 . S
C1248 C1249 1.367 . S
C1248 C1256 1.378 . S
C1249 C1248 1.367 . S
C1249 C1257 1.433 . S
C1250 H1246 0.929 . S
C1250 C1252 1.378 . S
C1250 C1254 1.350 1_554 S
C1251 C1254 1.463 . S
C1251 C1256 1.350 . S
C1251 N1259 1.427 . S
C1252 H1243 0.930 . S
C1252 C1250 1.378 . S
C1252 C1253 1.368 1_554 S
C1253 C1252 1.368 1_556 S
C1253 C1255 1.432 . S
C1254 C1250 1.350 1_556 S
C1254 C1251 1.463 . S
C1254 N1258 1.427 . S
C1255 H1245 0.929 . S
C1255 C1253 1.432 . S
C1255 N1258 1.384 . S
C1256 H1247 0.929 . S
C1256 C1248 1.378 . S
C1256 C1251 1.350 . S
C1257 H1244 0.942 . S
C1257 C1249 1.433 . S
C1257 N1259 1.384 . S
N1258 C1254 1.427 . S
N1258 C1255 1.384 . S
N1259 C1251 1.427 . S
N1259 C1257 1.384 . S
H1260 C1266 0.930 . S
H1261 C1270 0.930 . S
H1262 C1275 0.929 . S
H1263 C1273 0.929 . S
H1264 C1268 0.929 . S
H1265 C1274 0.929 . S
C1266 H1260 0.930 . S
C1266 C1267 1.367 . S
C1266 C1274 1.378 . S
C1267 C1266 1.367 . S
C1267 C1275 1.433 . S
C1268 H1264 0.929 . S
C1268 C1270 1.378 . S
C1268 C1272 1.350 . S
C1269 C1272 1.463 . S
C1269 C1274 1.350 . S
C1269 N1277 1.427 . S
C1270 H1261 0.930 . S
C1270 C1268 1.378 . S
C1270 C1271 1.367 . S
C1271 C1270 1.367 . S
C1271 C1273 1.433 . S
C1272 C1268 1.350 . S
C1272 C1269 1.463 . S
C1272 N1276 1.427 . S
C1273 H1263 0.929 . S
C1273 C1271 1.433 . S
C1273 N1276 1.384 . S
C1274 H1265 0.929 . S
C1274 C1266 1.378 . S
C1274 C1269 1.350 . S
C1275 H1262 0.929 . S
C1275 C1267 1.433 . S
C1275 N1277 1.384 . S
N1276 C1272 1.427 . S
N1276 C1273 1.384 . S
N1277 C1269 1.427 . S
N1277 C1275 1.384 . S
H1278 C1284 0.930 . S
H1279 C1288 0.930 . S
H1280 C1293 0.929 . S
H1281 C1291 0.929 1_556 S
H1282 C1286 0.929 . S
H1283 C1292 0.929 . S
C1284 H1278 0.930 . S
C1284 C1285 1.367 . S
C1284 C1292 1.378 . S
C1285 C1284 1.367 . S
C1285 C1293 1.433 . S
C1286 H1282 0.929 . S
C1286 C1288 1.378 . S
C1286 C1290 1.350 . S
C1287 C1290 1.463 . S
C1287 C1292 1.350 . S
C1287 N1295 1.427 . S
C1288 H1279 0.930 . S
C1288 C1286 1.378 . S
C1288 C1289 1.367 . S
C1289 C1288 1.367 . S
C1289 C1291 1.433 . S
C1290 C1286 1.350 . S
C1290 C1287 1.463 . S
C1290 N1294 1.427 . S
C1291 H1281 0.929 1_554 S
C1291 C1289 1.433 . S
C1291 N1294 1.384 . S
C1292 H1283 0.929 . S
C1292 C1284 1.378 . S
C1292 C1287 1.350 . S
C1293 H1280 0.929 . S
C1293 C1285 1.433 . S
C1293 N1295 1.384 . S
N1294 C1290 1.427 . S
N1294 C1291 1.384 . S
N1295 C1287 1.427 . S
N1295 C1293 1.384 . S
H1296 C1302 0.930 . S
H1297 C1306 0.930 1_556 S
H1298 C1311 0.929 . S
H1299 C1309 0.929 . S
H1300 C1304 0.932 1_556 S
H1301 C1310 0.929 . S
C1302 H1296 0.930 . S
C1302 C1303 1.367 . S
C1302 C1310 1.378 . S
C1303 C1302 1.367 . S
C1303 C1311 1.433 . S
C1304 H1300 0.932 1_554 S
C1304 C1306 1.378 . S
C1304 C1308 1.350 . S
C1305 C1308 1.463 . S
C1305 C1310 1.350 . S
C1305 N1313 1.427 . S
C1306 H1297 0.930 1_554 S
C1306 C1304 1.378 . S
C1306 C1307 1.367 . S
C1307 C1306 1.367 . S
C1307 C1309 1.433 . S
C1308 C1304 1.350 . S
C1308 C1305 1.463 . S
C1308 N1312 1.427 . S
C1309 H1299 0.929 . S
C1309 C1307 1.433 . S
C1309 N1312 1.384 . S
C1310 H1301 0.929 . S
C1310 C1302 1.378 . S
C1310 C1305 1.350 . S
C1311 H1298 0.929 . S
C1311 C1303 1.433 . S
C1311 N1313 1.384 . S
N1312 C1308 1.427 . S
N1312 C1309 1.384 . S
N1313 C1305 1.427 . S
N1313 C1311 1.384 . S
H1314 C1320 0.930 . S
H1315 C1324 0.930 . S
H1316 C1329 0.929 . S
H1317 C1327 0.929 . S
H1318 C1322 0.929 1_655 S
H1319 C1328 0.929 1_455 S
C1320 H1314 0.930 . S
C1320 C1321 1.367 . S
C1320 C1328 1.378 . S
C1321 C1320 1.367 . S
C1321 C1329 1.433 . S
C1322 H1318 0.929 1_455 S
C1322 C1324 1.378 . S
C1322 C1326 1.350 . S
C1323 C1326 1.463 1_655 S
C1323 C1328 1.350 . S
C1323 N1331 1.427 . S
C1324 H1315 0.930 . S
C1324 C1322 1.378 . S
C1324 C1325 1.367 . S
C1325 C1324 1.367 . S
C1325 C1327 1.433 . S
C1326 C1322 1.350 . S
C1326 C1323 1.463 1_455 S
C1326 N1330 1.427 . S
C1327 H1317 0.929 . S
C1327 C1325 1.433 . S
C1327 N1330 1.384 . S
C1328 H1319 0.929 1_655 S
C1328 C1320 1.378 . S
C1328 C1323 1.350 . S
C1329 H1316 0.929 . S
C1329 C1321 1.433 . S
C1329 N1331 1.384 . S
N1330 C1326 1.427 . S
N1330 C1327 1.384 . S
N1331 C1323 1.427 . S
N1331 C1329 1.384 . S
H1332 C1338 0.930 . S
H1333 C1342 0.930 . S
H1334 C1347 0.929 . S
H1335 C1345 0.929 . S
H1336 C1340 0.929 . S
H1337 C1346 0.929 . S
C1338 H1332 0.930 . S
C1338 C1339 1.367 . S
C1338 C1346 1.378 . S
C1339 C1338 1.367 . S
C1339 C1347 1.433 . S
C1340 H1336 0.929 . S
C1340 C1342 1.378 . S
C1340 C1344 1.350 . S
C1341 C1344 1.463 . S
C1341 C1346 1.350 . S
C1341 N1349 1.427 . S
C1342 H1333 0.930 . S
C1342 C1340 1.378 . S
C1342 C1343 1.367 . S
C1343 C1342 1.367 . S
C1343 C1345 1.433 . S
C1344 C1340 1.350 . S
C1344 C1341 1.463 . S
C1344 N1348 1.427 . S
C1345 H1335 0.929 . S
C1345 C1343 1.433 . S
C1345 N1348 1.384 . S
C1346 H1337 0.929 . S
C1346 C1338 1.378 . S
C1346 C1341 1.350 . S
C1347 H1334 0.929 . S
C1347 C1339 1.433 . S
C1347 N1349 1.384 . S
N1348 C1344 1.427 . S
N1348 C1345 1.384 . S
N1349 C1341 1.427 . S
N1349 C1347 1.384 . S
H1350 C1356 0.930 . S
H1351 C1360 0.930 . S
H1352 C1365 0.929 . S
H1353 C1363 0.929 . S
H1354 C1358 0.929 . S
H1355 C1364 0.929 . S
C1356 H1350 0.930 . S
C1356 C1357 1.367 . S
C1356 C1364 1.378 . S
C1357 C1356 1.367 . S
C1357 C1365 1.433 . S
C1358 H1354 0.929 . S
C1358 C1360 1.378 . S
C1358 C1362 1.350 . S
C1359 C1362 1.463 1_545 S
C1359 C1364 1.350 . S
C1359 N1367 1.427 . S
C1360 H1351 0.930 . S
C1360 C1358 1.378 . S
C1360 C1361 1.367 . S
C1361 C1360 1.367 . S
C1361 C1363 1.433 . S
C1362 C1358 1.350 . S
C1362 C1359 1.463 1_565 S
C1362 N1366 1.423 . S
C1363 H1353 0.929 . S
C1363 C1361 1.433 . S
C1363 N1366 1.398 . S
C1364 H1355 0.929 . S
C1364 C1356 1.378 . S
C1364 C1359 1.350 . S
C1365 H1352 0.929 . S
C1365 C1357 1.433 . S
C1365 N1367 1.384 . S
N1366 C1362 1.423 . S
N1366 C1363 1.398 . S
N1367 C1359 1.427 . S
N1367 C1365 1.384 . S
H1368 C1374 0.930 . S
H1369 C1378 0.930 . S
H1370 C1383 0.929 . S
H1371 C1381 0.929 . S
H1372 C1376 0.929 . S
H1373 C1382 0.929 . S
C1374 H1368 0.930 . S
C1374 C1375 1.367 . S
C1374 C1382 1.378 . S
C1375 C1374 1.367 . S
C1375 C1383 1.433 . S
C1376 H1372 0.929 . S
C1376 C1378 1.378 . S
C1376 C1380 1.350 . S
C1377 C1380 1.463 . S
C1377 C1382 1.350 . S
C1377 N1385 1.427 . S
C1378 H1369 0.930 . S
C1378 C1376 1.378 . S
C1378 C1379 1.367 . S
C1379 C1378 1.367 . S
C1379 C1381 1.433 . S
C1380 C1376 1.350 . S
C1380 C1377 1.463 . S
C1380 N1384 1.427 . S
C1381 H1371 0.929 . S
C1381 C1379 1.433 . S
C1381 N1384 1.384 . S
C1382 H1373 0.929 . S
C1382 C1374 1.378 . S
C1382 C1377 1.350 . S
C1383 H1370 0.929 . S
C1383 C1375 1.433 . S
C1383 N1385 1.384 . S
N1384 C1380 1.427 . S
N1384 C1381 1.384 . S
N1385 C1377 1.427 . S
N1385 C1383 1.384 . S
H1386 C1392 0.930 . S
H1387 C1396 0.930 . S
H1388 C1401 0.929 . S
H1389 C1399 0.929 . S
H1390 C1394 0.929 . S
H1391 C1400 0.929 . S
C1392 H1386 0.930 . S
C1392 C1393 1.367 . S
C1392 C1400 1.378 . S
C1393 C1392 1.367 . S
C1393 C1401 1.433 . S
C1394 H1390 0.929 . S
C1394 C1396 1.378 . S
C1394 C1398 1.350 . S
C1395 C1398 1.463 . S
C1395 C1400 1.350 . S
C1395 N1403 1.427 . S
C1396 H1387 0.930 . S
C1396 C1394 1.378 . S
C1396 C1397 1.367 . S
C1397 C1396 1.367 . S
C1397 C1399 1.433 . S
C1398 C1394 1.350 . S
C1398 C1395 1.463 . S
C1398 N1402 1.427 . S
C1399 H1389 0.929 . S
C1399 C1397 1.433 . S
C1399 N1402 1.384 . S
C1400 H1391 0.929 . S
C1400 C1392 1.378 . S
C1400 C1395 1.350 . S
C1401 H1388 0.929 . S
C1401 C1393 1.433 . S
C1401 N1403 1.384 . S
N1402 C1398 1.427 . S
N1402 C1399 1.384 . S
N1403 C1395 1.427 . S
N1403 C1401 1.384 . S
H1404 C1410 0.930 . S
H1405 C1414 0.930 . S
H1406 C1419 0.929 . S
H1407 C1417 0.929 . S
H1408 C1412 0.929 . S
H1409 C1418 0.929 . S
C1410 H1404 0.930 . S
C1410 C1411 1.367 . S
C1410 C1418 1.378 . S
C1411 C1410 1.367 . S
C1411 C1419 1.433 . S
C1412 H1408 0.929 . S
C1412 C1414 1.378 . S
C1412 C1416 1.350 . S
C1413 C1416 1.463 . S
C1413 C1418 1.350 . S
C1413 N1421 1.427 . S
C1414 H1405 0.930 . S
C1414 C1412 1.378 . S
C1414 C1415 1.367 . S
C1415 C1414 1.367 . S
C1415 C1417 1.433 . S
C1416 C1412 1.350 . S
C1416 C1413 1.463 . S
C1416 N1420 1.427 . S
C1417 H1407 0.929 . S
C1417 C1415 1.433 . S
C1417 N1420 1.384 . S
C1418 H1409 0.929 . S
C1418 C1410 1.378 . S
C1418 C1413 1.350 . S
C1419 H1406 0.929 . S
C1419 C1411 1.433 . S
C1419 N1421 1.384 . S
N1420 C1416 1.427 . S
N1420 C1417 1.384 . S
N1421 C1413 1.427 . S
N1421 C1419 1.384 . S
H1422 C1428 0.930 . S
H1423 C1432 0.930 . S
H1424 C1437 0.929 . S
H1425 C1435 0.929 . S
H1426 C1430 0.929 . S
H1427 C1436 0.929 . S
C1428 H1422 0.930 . S
C1428 C1429 1.367 . S
C1428 C1436 1.378 . S
C1429 C1428 1.367 . S
C1429 C1437 1.433 . S
C1430 H1426 0.929 . S
C1430 C1432 1.378 . S
C1430 C1434 1.350 . S
C1431 C1434 1.463 . S
C1431 C1436 1.350 . S
C1431 N1439 1.427 . S
C1432 H1423 0.930 . S
C1432 C1430 1.378 . S
C1432 C1433 1.367 . S
C1433 C1432 1.367 . S
C1433 C1435 1.433 . S
C1434 C1430 1.350 . S
C1434 C1431 1.463 . S
C1434 N1438 1.427 . S
C1435 H1425 0.929 . S
C1435 C1433 1.433 . S
C1435 N1438 1.384 . S
C1436 H1427 0.929 . S
C1436 C1428 1.378 . S
C1436 C1431 1.350 . S
C1437 H1424 0.929 . S
C1437 C1429 1.433 . S
C1437 N1439 1.384 . S
N1438 C1434 1.427 . S
N1438 C1435 1.384 . S
N1439 C1431 1.427 . S
N1439 C1437 1.384 . S
H1440 C1446 0.930 . S
H1441 C1450 0.930 . S
H1442 C1455 0.929 . S
H1443 C1453 0.929 . S
H1444 C1448 0.929 . S
H1445 C1454 0.929 . S
C1446 H1440 0.930 . S
C1446 C1447 1.367 . S
C1446 C1454 1.378 . S
C1447 C1446 1.367 . S
C1447 C1455 1.433 . S
C1448 H1444 0.929 . S
C1448 C1450 1.378 . S
C1448 C1452 1.350 . S
C1449 C1452 1.463 . S
C1449 C1454 1.350 . S
C1449 N1457 1.427 . S
C1450 H1441 0.930 . S
C1450 C1448 1.378 . S
C1450 C1451 1.367 . S
C1451 C1450 1.367 . S
C1451 C1453 1.433 . S
C1452 C1448 1.350 . S
C1452 C1449 1.463 . S
C1452 N1456 1.427 . S
C1453 H1443 0.929 . S
C1453 C1451 1.433 . S
C1453 N1456 1.384 . S
C1454 H1445 0.929 . S
C1454 C1446 1.378 . S
C1454 C1449 1.350 . S
C1455 H1442 0.929 . S
C1455 C1447 1.433 . S
C1455 N1457 1.384 . S
N1456 C1452 1.427 . S
N1456 C1453 1.384 . S
N1457 C1449 1.427 . S
N1457 C1455 1.384 . S
H1458 C1464 0.930 . S
H1459 C1468 0.930 . S
H1460 C1473 0.929 . S
H1461 C1471 0.929 . S
H1462 C1466 0.929 . S
H1463 C1472 0.929 . S
C1464 H1458 0.930 . S
C1464 C1465 1.367 . S
C1464 C1472 1.378 . S
C1465 C1464 1.367 . S
C1465 C1473 1.433 . S
C1466 H1462 0.929 . S
C1466 C1468 1.378 . S
C1466 C1470 1.350 . S
C1467 C1470 1.463 . S
C1467 C1472 1.350 . S
C1467 N1475 1.427 . S
C1468 H1459 0.930 . S
C1468 C1466 1.378 . S
C1468 C1469 1.367 . S
C1469 C1468 1.367 . S
C1469 C1471 1.433 . S
C1470 C1466 1.350 . S
C1470 C1467 1.463 . S
C1470 N1474 1.427 . S
C1471 H1461 0.929 . S
C1471 C1469 1.433 . S
C1471 N1474 1.384 . S
C1472 H1463 0.929 . S
C1472 C1464 1.378 . S
C1472 C1467 1.350 . S
C1473 H1460 0.929 . S
C1473 C1465 1.433 . S
C1473 N1475 1.384 . S
N1474 C1470 1.427 . S
N1474 C1471 1.384 . S
N1475 C1467 1.427 . S
N1475 C1473 1.384 . S
H1476 C1482 0.930 . S
H1477 C1486 0.930 . S
H1478 C1491 0.929 . S
H1479 C1489 0.929 . S
H1480 C1484 0.929 . S
H1481 C1490 0.929 . S
C1482 H1476 0.930 . S
C1482 C1483 1.367 . S
C1482 C1490 1.378 . S
C1483 C1482 1.367 . S
C1483 C1491 1.433 . S
C1484 H1480 0.929 . S
C1484 C1486 1.378 . S
C1484 C1488 1.350 . S
C1485 C1488 1.463 . S
C1485 C1490 1.350 . S
C1485 N1493 1.427 . S
C1486 H1477 0.930 . S
C1486 C1484 1.378 . S
C1486 C1487 1.367 . S
C1487 C1486 1.367 . S
C1487 C1489 1.433 . S
C1488 C1484 1.350 . S
C1488 C1485 1.463 . S
C1488 N1492 1.427 . S
C1489 H1479 0.929 . S
C1489 C1487 1.433 . S
C1489 N1492 1.384 . S
C1490 H1481 0.929 . S
C1490 C1482 1.378 . S
C1490 C1485 1.350 . S
C1491 H1478 0.929 . S
C1491 C1483 1.433 . S
C1491 N1493 1.384 . S
N1492 C1488 1.427 . S
N1492 C1489 1.384 . S
N1493 C1485 1.427 . S
N1493 C1491 1.384 . S
H1494 C1500 0.930 . S
H1495 C1504 0.930 . S
H1496 C1509 0.929 . S
H1497 C1507 0.929 . S
H1498 C1502 0.929 . S
H1499 C1508 0.929 . S
C1500 H1494 0.930 . S
C1500 C1501 1.367 . S
C1500 C1508 1.378 . S
C1501 C1500 1.367 . S
C1501 C1509 1.433 . S
C1502 H1498 0.929 . S
C1502 C1504 1.378 . S
C1502 C1506 1.350 . S
C1503 C1506 1.463 . S
C1503 C1508 1.350 . S
C1503 N1511 1.427 . S
C1504 H1495 0.930 . S
C1504 C1502 1.378 . S
C1504 C1505 1.367 . S
C1505 C1504 1.367 . S
C1505 C1507 1.433 . S
C1506 C1502 1.350 . S
C1506 C1503 1.463 . S
C1506 N1510 1.427 . S
C1507 H1497 0.929 . S
C1507 C1505 1.433 . S
C1507 N1510 1.384 . S
C1508 H1499 0.929 . S
C1508 C1500 1.378 . S
C1508 C1503 1.350 . S
C1509 H1496 0.929 . S
C1509 C1501 1.433 . S
C1509 N1511 1.384 . S
N1510 C1506 1.427 . S
N1510 C1507 1.384 . S
N1511 C1503 1.427 . S
N1511 C1509 1.384 . S
H1512 C1518 0.930 . S
H1513 C1522 0.930 . S
H1514 C1527 0.929 . S
H1515 C1525 0.929 . S
H1516 C1520 0.929 . S
H1517 C1526 0.929 . S
C1518 H1512 0.930 . S
C1518 C1519 1.367 . S
C1518 C1526 1.378 . S
C1519 C1518 1.367 . S
C1519 C1527 1.433 . S
C1520 H1516 0.929 . S
C1520 C1522 1.378 . S
C1520 C1524 1.350 . S
C1521 C1524 1.463 . S
C1521 C1526 1.350 . S
C1521 N1529 1.427 . S
C1522 H1513 0.930 . S
C1522 C1520 1.378 . S
C1522 C1523 1.367 . S
C1523 C1522 1.367 . S
C1523 C1525 1.433 . S
C1524 C1520 1.350 . S
C1524 C1521 1.463 . S
C1524 N1528 1.427 . S
C1525 H1515 0.929 . S
C1525 C1523 1.433 . S
C1525 N1528 1.384 . S
C1526 H1517 0.929 . S
C1526 C1518 1.378 . S
C1526 C1521 1.350 . S
C1527 H1514 0.929 . S
C1527 C1519 1.433 . S
C1527 N1529 1.384 . S
N1528 C1524 1.427 . S
N1528 C1525 1.384 . S
N1529 C1521 1.427 . S
N1529 C1527 1.384 . S
H1530 C1536 0.930 . S
H1531 C1540 0.930 . S
H1532 C1545 0.929 . S
H1533 C1543 0.929 . S
H1534 C1538 0.929 . S
H1535 C1544 0.929 . S
C1536 H1530 0.930 . S
C1536 C1537 1.367 . S
C1536 C1544 1.378 . S
C1537 C1536 1.367 . S
C1537 C1545 1.433 . S
C1538 H1534 0.929 . S
C1538 C1540 1.378 . S
C1538 C1542 1.350 . S
C1539 C1542 1.463 . S
C1539 C1544 1.350 . S
C1539 N1547 1.427 . S
C1540 H1531 0.930 . S
C1540 C1538 1.378 . S
C1540 C1541 1.367 . S
C1541 C1540 1.367 . S
C1541 C1543 1.433 . S
C1542 C1538 1.350 . S
C1542 C1539 1.463 . S
C1542 N1546 1.427 . S
C1543 H1533 0.929 . S
C1543 C1541 1.433 . S
C1543 N1546 1.384 . S
C1544 H1535 0.929 . S
C1544 C1536 1.378 . S
C1544 C1539 1.350 . S
C1545 H1532 0.929 . S
C1545 C1537 1.433 . S
C1545 N1547 1.384 . S
N1546 C1542 1.427 . S
N1546 C1543 1.384 . S
N1547 C1539 1.427 . S
N1547 C1545 1.384 . S
H1548 C1554 0.930 . S
H1549 C1558 0.930 . S
H1550 C1563 0.929 . S
H1551 C1561 0.929 . S
H1552 C1556 0.929 . S
H1553 C1562 0.929 . S
C1554 H1548 0.930 . S
C1554 C1555 1.367 . S
C1554 C1562 1.378 . S
C1555 C1554 1.367 . S
C1555 C1563 1.433 . S
C1556 H1552 0.929 . S
C1556 C1558 1.378 . S
C1556 C1560 1.350 . S
C1557 C1560 1.463 . S
C1557 C1562 1.350 . S
C1557 N1565 1.427 . S
C1558 H1549 0.930 . S
C1558 C1556 1.378 . S
C1558 C1559 1.367 . S
C1559 C1558 1.367 . S
C1559 C1561 1.433 . S
C1560 C1556 1.350 . S
C1560 C1557 1.463 . S
C1560 N1564 1.427 . S
C1561 H1551 0.929 . S
C1561 C1559 1.433 . S
C1561 N1564 1.384 . S
C1562 H1553 0.929 . S
C1562 C1554 1.378 . S
C1562 C1557 1.350 . S
C1563 H1550 0.929 . S
C1563 C1555 1.433 . S
C1563 N1565 1.384 . S
N1564 C1560 1.427 . S
N1564 C1561 1.384 . S
N1565 C1557 1.427 . S
N1565 C1563 1.384 . S
H1566 C1572 0.930 . S
H1567 C1576 0.930 . S
H1568 C1581 0.929 . S
H1569 C1579 0.929 . S
H1570 C1574 0.929 . S
H1571 C1580 0.929 . S
C1572 H1566 0.930 . S
C1572 C1573 1.367 . S
C1572 C1580 1.378 . S
C1573 C1572 1.367 . S
C1573 C1581 1.433 . S
C1574 H1570 0.929 . S
C1574 C1576 1.378 . S
C1574 C1578 1.350 . S
C1575 C1578 1.463 . S
C1575 C1580 1.350 . S
C1575 N1583 1.427 . S
C1576 H1567 0.930 . S
C1576 C1574 1.378 . S
C1576 C1577 1.367 . S
C1577 C1576 1.367 . S
C1577 C1579 1.433 . S
C1578 C1574 1.350 . S
C1578 C1575 1.463 . S
C1578 N1582 1.427 . S
C1579 H1569 0.929 . S
C1579 C1577 1.433 . S
C1579 N1582 1.384 . S
C1580 H1571 0.929 . S
C1580 C1572 1.378 . S
C1580 C1575 1.350 . S
C1581 H1568 0.929 . S
C1581 C1573 1.433 . S
C1581 N1583 1.384 . S
N1582 C1578 1.427 . S
N1582 C1579 1.384 . S
N1583 C1575 1.427 . S
N1583 C1581 1.384 . S
H1584 C1590 0.930 . S
H1585 C1594 0.930 . S
H1586 C1599 0.929 . S
H1587 C1597 0.929 . S
H1588 C1592 0.929 1_565 S
H1589 C1598 0.929 1_545 S
C1590 H1584 0.930 . S
C1590 C1591 1.367 . S
C1590 C1598 1.378 . S
C1591 C1590 1.367 . S
C1591 C1599 1.433 . S
C1592 H1588 0.929 1_545 S
C1592 C1594 1.378 . S
C1592 C1596 1.350 . S
C1593 C1596 1.463 1_565 S
C1593 C1598 1.350 . S
C1593 N1601 1.427 . S
C1594 H1585 0.930 . S
C1594 C1592 1.378 . S
C1594 C1595 1.367 . S
C1595 C1594 1.367 . S
C1595 C1597 1.433 . S
C1596 C1592 1.350 . S
C1596 C1593 1.463 1_545 S
C1596 N1600 1.427 . S
C1597 H1587 0.929 . S
C1597 C1595 1.433 . S
C1597 N1600 1.384 . S
C1598 H1589 0.929 1_565 S
C1598 C1590 1.378 . S
C1598 C1593 1.350 . S
C1599 H1586 0.929 . S
C1599 C1591 1.433 . S
C1599 N1601 1.384 . S
N1600 C1596 1.427 . S
N1600 C1597 1.384 . S
N1601 C1593 1.427 . S
N1601 C1599 1.384 . S
H1602 C1608 0.930 . S
H1603 C1612 0.930 . S
H1604 C1617 0.929 . S
H1605 C1615 0.929 . S
H1606 C1610 0.929 1_455 S
H1607 C1616 0.929 1_655 S
C1608 H1602 0.930 . S
C1608 C1609 1.367 . S
C1608 C1616 1.378 . S
C1609 C1608 1.367 . S
C1609 C1617 1.433 . S
C1610 H1606 0.929 1_655 S
C1610 C1612 1.378 . S
C1610 C1614 1.350 . S
C1611 C1614 1.463 1_455 S
C1611 C1616 1.350 . S
C1611 N1619 1.427 . S
C1612 H1603 0.930 . S
C1612 C1610 1.378 . S
C1612 C1613 1.367 . S
C1613 C1612 1.367 . S
C1613 C1615 1.433 . S
C1614 C1610 1.350 . S
C1614 C1611 1.463 1_655 S
C1614 N1618 1.427 . S
C1615 H1605 0.929 . S
C1615 C1613 1.433 . S
C1615 N1618 1.384 . S
C1616 H1607 0.929 1_455 S
C1616 C1608 1.378 . S
C1616 C1611 1.350 . S
C1617 H1604 0.929 . S
C1617 C1609 1.433 . S
C1617 N1619 1.384 . S
N1618 C1614 1.427 . S
N1618 C1615 1.384 . S
N1619 C1611 1.427 . S
N1619 C1617 1.384 . S
H1620 C1626 0.930 . S
H1621 C1630 0.930 . S
H1622 C1635 0.929 . S
H1623 C1633 0.929 . S
H1624 C1628 0.929 . S
H1625 C1634 0.929 . S
C1626 H1620 0.930 . S
C1626 C1627 1.367 . S
C1626 C1634 1.378 . S
C1627 C1626 1.367 . S
C1627 C1635 1.433 . S
C1628 H1624 0.929 . S
C1628 C1630 1.378 . S
C1628 C1632 1.350 . S
C1629 C1632 1.463 . S
C1629 C1634 1.350 . S
C1629 N1637 1.427 . S
C1630 H1621 0.930 . S
C1630 C1628 1.378 . S
C1630 C1631 1.367 . S
C1631 C1630 1.367 . S
C1631 C1633 1.433 . S
C1632 C1628 1.350 . S
C1632 C1629 1.463 . S
C1632 N1636 1.427 . S
C1633 H1623 0.929 . S
C1633 C1631 1.433 . S
C1633 N1636 1.384 . S
C1634 H1625 0.929 . S
C1634 C1626 1.378 . S
C1634 C1629 1.350 . S
C1635 H1622 0.929 . S
C1635 C1627 1.433 . S
C1635 N1637 1.384 . S
N1636 C1632 1.427 . S
N1636 C1633 1.384 . S
N1637 C1629 1.427 . S
N1637 C1635 1.384 . S
H1638 C1644 0.930 . S
H1639 C1648 0.930 . S
H1640 C1653 0.929 . S
H1641 C1651 0.929 . S
H1642 C1646 0.929 . S
H1643 C1652 0.929 . S
C1644 H1638 0.930 . S
C1644 C1645 1.367 . S
C1644 C1652 1.378 . S
C1645 C1644 1.367 . S
C1645 C1653 1.433 . S
C1646 H1642 0.929 . S
C1646 C1648 1.378 . S
C1646 C1650 1.350 . S
C1647 C1650 1.463 . S
C1647 C1652 1.350 . S
C1647 N1655 1.427 . S
C1648 H1639 0.930 . S
C1648 C1646 1.378 . S
C1648 C1649 1.367 . S
C1649 C1648 1.367 . S
C1649 C1651 1.433 . S
C1650 C1646 1.350 . S
C1650 C1647 1.463 . S
C1650 N1654 1.427 . S
C1651 H1641 0.929 . S
C1651 C1649 1.433 . S
C1651 N1654 1.384 . S
C1652 H1643 0.929 . S
C1652 C1644 1.378 . S
C1652 C1647 1.350 . S
C1653 H1640 0.929 . S
C1653 C1645 1.433 . S
C1653 N1655 1.384 . S
N1654 C1650 1.427 . S
N1654 C1651 1.384 . S
N1655 C1647 1.427 . S
N1655 C1653 1.384 . S
H1656 C1662 0.930 . S
H1657 C1666 0.930 . S
H1658 C1671 0.929 . S
H1659 C1669 0.929 . S
H1660 C1664 0.929 . S
H1661 C1670 0.929 . S
C1662 H1656 0.930 . S
C1662 C1663 1.367 . S
C1662 C1670 1.378 . S
C1663 C1662 1.367 . S
C1663 C1671 1.433 . S
C1664 H1660 0.929 . S
C1664 C1666 1.378 . S
C1664 C1668 1.350 . S
C1665 C1668 1.463 . S
C1665 C1670 1.350 . S
C1665 N1673 1.427 . S
C1666 H1657 0.930 . S
C1666 C1664 1.378 . S
C1666 C1667 1.367 . S
C1667 C1666 1.367 . S
C1667 C1669 1.433 . S
C1668 C1664 1.350 . S
C1668 C1665 1.463 . S
C1668 N1672 1.427 . S
C1669 H1659 0.929 . S
C1669 C1667 1.433 . S
C1669 N1672 1.384 . S
C1670 H1661 0.929 . S
C1670 C1662 1.378 . S
C1670 C1665 1.350 . S
C1671 H1658 0.929 . S
C1671 C1663 1.433 . S
C1671 N1673 1.384 . S
N1672 C1668 1.427 . S
N1672 C1669 1.384 . S
N1673 C1665 1.427 . S
N1673 C1671 1.384 . S
H1674 C1680 0.930 . S
H1675 C1684 0.930 . S
H1676 C1689 0.929 . S
H1677 C1687 0.929 . S
H1678 C1682 0.929 . S
H1679 C1688 0.929 . S
C1680 H1674 0.930 . S
C1680 C1681 1.367 . S
C1680 C1688 1.378 . S
C1681 C1680 1.367 . S
C1681 C1689 1.433 . S
C1682 H1678 0.929 . S
C1682 C1684 1.378 . S
C1682 C1686 1.350 . S
C1683 C1686 1.463 . S
C1683 C1688 1.350 . S
C1683 N1691 1.427 . S
C1684 H1675 0.930 . S
C1684 C1682 1.378 . S
C1684 C1685 1.367 . S
C1685 C1684 1.367 . S
C1685 C1687 1.433 . S
C1686 C1682 1.350 . S
C1686 C1683 1.463 . S
C1686 N1690 1.427 . S
C1687 H1677 0.929 . S
C1687 C1685 1.433 . S
C1687 N1690 1.384 . S
C1688 H1679 0.929 . S
C1688 C1680 1.378 . S
C1688 C1683 1.350 . S
C1689 H1676 0.929 . S
C1689 C1681 1.433 . S
C1689 N1691 1.384 . S
N1690 C1686 1.427 . S
N1690 C1687 1.384 . S
N1691 C1683 1.427 . S
N1691 C1689 1.384 . S
H1692 C1698 0.930 . S
H1693 C1702 0.930 . S
H1694 C1707 0.929 . S
H1695 C1705 0.929 . S
H1696 C1700 0.929 . S
H1697 C1706 0.929 . S
C1698 H1692 0.930 . S
C1698 C1699 1.367 . S
C1698 C1706 1.378 . S
C1699 C1698 1.367 . S
C1699 C1707 1.433 . S
C1700 H1696 0.929 . S
C1700 C1702 1.378 . S
C1700 C1704 1.350 . S
C1701 C1704 1.463 . S
C1701 C1706 1.350 . S
C1701 N1709 1.427 . S
C1702 H1693 0.930 . S
C1702 C1700 1.378 . S
C1702 C1703 1.367 . S
C1703 C1702 1.367 . S
C1703 C1705 1.433 . S
C1704 C1700 1.350 . S
C1704 C1701 1.463 . S
C1704 N1708 1.427 . S
C1705 H1695 0.929 . S
C1705 C1703 1.433 . S
C1705 N1708 1.384 . S
C1706 H1697 0.929 . S
C1706 C1698 1.378 . S
C1706 C1701 1.350 . S
C1707 H1694 0.929 . S
C1707 C1699 1.433 . S
C1707 N1709 1.384 . S
N1708 C1704 1.427 . S
N1708 C1705 1.384 . S
N1709 C1701 1.427 . S
N1709 C1707 1.384 . S
H1710 C1716 0.930 . S
H1711 C1720 0.930 . S
H1712 C1725 0.929 . S
H1713 C1723 0.929 . S
H1714 C1718 0.929 . S
H1715 C1724 0.929 . S
C1716 H1710 0.930 . S
C1716 C1717 1.367 . S
C1716 C1724 1.378 . S
C1717 C1716 1.367 . S
C1717 C1725 1.433 . S
C1718 H1714 0.929 . S
C1718 C1720 1.378 . S
C1718 C1722 1.350 . S
C1719 C1722 1.463 . S
C1719 C1724 1.350 . S
C1719 N1727 1.427 . S
C1720 H1711 0.930 . S
C1720 C1718 1.378 . S
C1720 C1721 1.367 . S
C1721 C1720 1.367 . S
C1721 C1723 1.433 . S
C1722 C1718 1.350 . S
C1722 C1719 1.463 . S
C1722 N1726 1.427 . S
C1723 H1713 0.929 . S
C1723 C1721 1.433 . S
C1723 N1726 1.384 . S
C1724 H1715 0.929 . S
C1724 C1716 1.378 . S
C1724 C1719 1.350 . S
C1725 H1712 0.929 . S
C1725 C1717 1.433 . S
C1725 N1727 1.384 . S
N1726 C1722 1.427 . S
N1726 C1723 1.384 . S
N1727 C1719 1.427 . S
N1727 C1725 1.384 . S
H1728 C1734 0.930 . S
H1729 C1738 0.930 . S
H1730 C1743 0.929 . S
H1731 C1741 0.929 . S
H1732 C1736 0.929 . S
H1733 C1742 0.929 . S
C1734 H1728 0.930 . S
C1734 C1735 1.367 . S
C1734 C1742 1.378 . S
C1735 C1734 1.367 . S
C1735 C1743 1.433 . S
C1736 H1732 0.929 . S
C1736 C1738 1.378 . S
C1736 C1740 1.350 . S
C1737 C1740 1.463 . S
C1737 C1742 1.350 . S
C1737 N1745 1.427 . S
C1738 H1729 0.930 . S
C1738 C1736 1.378 . S
C1738 C1739 1.367 . S
C1739 C1738 1.367 . S
C1739 C1741 1.433 . S
C1740 C1736 1.350 . S
C1740 C1737 1.463 . S
C1740 N1744 1.427 . S
C1741 H1731 0.929 . S
C1741 C1739 1.433 . S
C1741 N1744 1.384 . S
C1742 H1733 0.929 . S
C1742 C1734 1.378 . S
C1742 C1737 1.350 . S
C1743 H1730 0.929 . S
C1743 C1735 1.433 . S
C1743 N1745 1.384 . S
N1744 C1740 1.427 . S
N1744 C1741 1.384 . S
N1745 C1737 1.427 . S
N1745 C1743 1.384 . S
H1746 C1752 0.930 . S
H1747 C1756 0.930 . S
H1748 C1761 0.929 . S
H1749 C1759 0.929 . S
H1750 C1754 0.929 . S
H1751 C1760 0.929 . S
C1752 H1746 0.930 . S
C1752 C1753 1.367 . S
C1752 C1760 1.378 . S
C1753 C1752 1.367 . S
C1753 C1761 1.433 . S
C1754 H1750 0.929 . S
C1754 C1756 1.378 . S
C1754 C1758 1.350 . S
C1755 C1758 1.463 . S
C1755 C1760 1.350 . S
C1755 N1763 1.427 . S
C1756 H1747 0.930 . S
C1756 C1754 1.378 . S
C1756 C1757 1.367 . S
C1757 C1756 1.367 . S
C1757 C1759 1.433 . S
C1758 C1754 1.350 . S
C1758 C1755 1.463 . S
C1758 N1762 1.427 . S
C1759 H1749 0.929 . S
C1759 C1757 1.433 . S
C1759 N1762 1.384 . S
C1760 H1751 0.929 . S
C1760 C1752 1.378 . S
C1760 C1755 1.350 . S
C1761 H1748 0.929 . S
C1761 C1753 1.433 . S
C1761 N1763 1.384 . S
N1762 C1758 1.427 . S
N1762 C1759 1.384 . S
N1763 C1755 1.427 . S
N1763 C1761 1.384 . S
H1764 C1770 0.930 . S
H1765 C1774 0.930 . S
H1766 C1779 0.929 . S
H1767 C1777 0.929 . S
H1768 C1772 0.929 . S
H1769 C1778 0.929 . S
C1770 H1764 0.930 . S
C1770 C1771 1.367 . S
C1770 C1778 1.378 . S
C1771 C1770 1.367 . S
C1771 C1779 1.433 . S
C1772 H1768 0.929 . S
C1772 C1774 1.378 . S
C1772 C1776 1.350 . S
C1773 C1776 1.463 . S
C1773 C1778 1.350 . S
C1773 N1781 1.427 . S
C1774 H1765 0.930 . S
C1774 C1772 1.378 . S
C1774 C1775 1.367 . S
C1775 C1774 1.367 . S
C1775 C1777 1.433 . S
C1776 C1772 1.350 . S
C1776 C1773 1.463 . S
C1776 N1780 1.427 . S
C1777 H1767 0.929 . S
C1777 C1775 1.433 . S
C1777 N1780 1.384 . S
C1778 H1769 0.929 . S
C1778 C1770 1.378 . S
C1778 C1773 1.350 . S
C1779 H1766 0.929 . S
C1779 C1771 1.433 . S
C1779 N1781 1.384 . S
N1780 C1776 1.427 . S
N1780 C1777 1.384 . S
N1781 C1773 1.427 . S
N1781 C1779 1.384 . S
H1782 C1788 0.930 . S
H1783 C1792 0.930 . S
H1784 C1797 0.929 . S
H1785 C1795 0.929 . S
H1786 C1790 0.929 . S
H1787 C1796 0.929 . S
C1788 H1782 0.930 . S
C1788 C1789 1.367 . S
C1788 C1796 1.378 . S
C1789 C1788 1.367 . S
C1789 C1797 1.433 . S
C1790 H1786 0.929 . S
C1790 C1792 1.378 . S
C1790 C1794 1.350 . S
C1791 C1794 1.463 . S
C1791 C1796 1.350 . S
C1791 N1799 1.427 . S
C1792 H1783 0.930 . S
C1792 C1790 1.378 . S
C1792 C1793 1.367 . S
C1793 C1792 1.367 . S
C1793 C1795 1.433 . S
C1794 C1790 1.350 . S
C1794 C1791 1.463 . S
C1794 N1798 1.427 . S
C1795 H1785 0.929 . S
C1795 C1793 1.433 . S
C1795 N1798 1.384 . S
C1796 H1787 0.929 . S
C1796 C1788 1.378 . S
C1796 C1791 1.350 . S
C1797 H1784 0.929 . S
C1797 C1789 1.433 . S
C1797 N1799 1.384 . S
N1798 C1794 1.427 . S
N1798 C1795 1.384 . S
N1799 C1791 1.427 . S
N1799 C1797 1.384 . S
H1800 C1806 0.930 . S
H1801 C1810 0.930 . S
H1802 C1815 0.929 . S
H1803 C1813 0.929 . S
H1804 C1808 0.929 . S
H1805 C1814 0.929 . S
C1806 H1800 0.930 . S
C1806 C1807 1.367 . S
C1806 C1814 1.378 . S
C1807 C1806 1.367 . S
C1807 C1815 1.433 . S
C1808 H1804 0.929 . S
C1808 C1810 1.378 . S
C1808 C1812 1.350 . S
C1809 C1812 1.463 . S
C1809 C1814 1.350 . S
C1809 N1817 1.427 . S
C1810 H1801 0.930 . S
C1810 C1808 1.378 . S
C1810 C1811 1.367 . S
C1811 C1810 1.367 . S
C1811 C1813 1.433 . S
C1812 C1808 1.350 . S
C1812 C1809 1.463 . S
C1812 N1816 1.427 . S
C1813 H1803 0.929 . S
C1813 C1811 1.433 . S
C1813 N1816 1.384 . S
C1814 H1805 0.929 . S
C1814 C1806 1.378 . S
C1814 C1809 1.350 . S
C1815 H1802 0.929 . S
C1815 C1807 1.433 . S
C1815 N1817 1.384 . S
N1816 C1812 1.427 . S
N1816 C1813 1.384 . S
N1817 C1809 1.427 . S
N1817 C1815 1.384 . S
H1818 C1824 0.930 . S
H1819 C1828 0.930 . S
H1820 C1833 0.929 . S
H1821 C1831 0.929 . S
H1822 C1826 0.929 . S
H1823 C1832 0.929 . S
C1824 H1818 0.930 . S
C1824 C1825 1.367 . S
C1824 C1832 1.378 . S
C1825 C1824 1.367 . S
C1825 C1833 1.433 . S
C1826 H1822 0.929 . S
C1826 C1828 1.378 . S
C1826 C1830 1.350 . S
C1827 C1830 1.463 . S
C1827 C1832 1.350 . S
C1827 N1835 1.427 . S
C1828 H1819 0.930 . S
C1828 C1826 1.378 . S
C1828 C1829 1.367 . S
C1829 C1828 1.367 . S
C1829 C1831 1.433 . S
C1830 C1826 1.350 . S
C1830 C1827 1.463 . S
C1830 N1834 1.427 . S
C1831 H1821 0.929 . S
C1831 C1829 1.433 . S
C1831 N1834 1.384 . S
C1832 H1823 0.929 . S
C1832 C1824 1.378 . S
C1832 C1827 1.350 . S
C1833 H1820 0.929 . S
C1833 C1825 1.433 . S
C1833 N1835 1.384 . S
N1834 C1830 1.427 . S
N1834 C1831 1.384 . S
N1835 C1827 1.427 . S
N1835 C1833 1.384 . S
H1836 C1842 0.930 . S
H1837 C1846 0.930 . S
H1838 C1851 0.929 . S
H1839 C1849 0.929 . S
H1840 C1844 0.929 . S
H1841 C1850 0.929 . S
C1842 H1836 0.930 . S
C1842 C1843 1.367 . S
C1842 C1850 1.378 . S
C1843 C1842 1.367 . S
C1843 C1851 1.433 . S
C1844 H1840 0.929 . S
C1844 C1846 1.378 . S
C1844 C1848 1.350 . S
C1845 C1848 1.463 . S
C1845 C1850 1.350 . S
C1845 N1853 1.427 . S
C1846 H1837 0.930 . S
C1846 C1844 1.378 . S
C1846 C1847 1.367 . S
C1847 C1846 1.367 . S
C1847 C1849 1.433 . S
C1848 C1844 1.350 . S
C1848 C1845 1.463 . S
C1848 N1852 1.427 . S
C1849 H1839 0.929 . S
C1849 C1847 1.433 . S
C1849 N1852 1.384 . S
C1850 H1841 0.929 . S
C1850 C1842 1.378 . S
C1850 C1845 1.350 . S
C1851 H1838 0.929 . S
C1851 C1843 1.433 . S
C1851 N1853 1.384 . S
N1852 C1848 1.427 . S
N1852 C1849 1.384 . S
N1853 C1845 1.427 . S
N1853 C1851 1.384 . S
H1854 C1860 0.930 . S
H1855 C1864 0.930 . S
H1856 C1869 0.929 . S
H1857 C1867 0.929 . S
H1858 C1862 0.929 . S
H1859 C1868 0.929 . S
C1860 H1854 0.930 . S
C1860 C1861 1.367 . S
C1860 C1868 1.378 . S
C1861 C1860 1.367 . S
C1861 C1869 1.433 . S
C1862 H1858 0.929 . S
C1862 C1864 1.378 . S
C1862 C1866 1.350 . S
C1863 C1866 1.463 . S
C1863 C1868 1.350 . S
C1863 N1871 1.427 . S
C1864 H1855 0.930 . S
C1864 C1862 1.378 . S
C1864 C1865 1.367 . S
C1865 C1864 1.367 . S
C1865 C1867 1.433 . S
C1866 C1862 1.350 . S
C1866 C1863 1.463 . S
C1866 N1870 1.427 . S
C1867 H1857 0.929 . S
C1867 C1865 1.433 . S
C1867 N1870 1.384 . S
C1868 H1859 0.929 . S
C1868 C1860 1.378 . S
C1868 C1863 1.350 . S
C1869 H1856 0.929 . S
C1869 C1861 1.433 . S
C1869 N1871 1.384 . S
N1870 C1866 1.427 . S
N1870 C1867 1.384 . S
N1871 C1863 1.427 . S
N1871 C1869 1.384 . S
H1872 C1878 0.930 . S
H1873 C1882 0.930 . S
H1874 C1887 0.929 . S
H1875 C1885 0.929 . S
H1876 C1880 0.929 . S
H1877 C1886 0.929 . S
C1878 H1872 0.930 . S
C1878 C1879 1.367 . S
C1878 C1886 1.378 . S
C1879 C1878 1.367 . S
C1879 C1887 1.433 . S
C1880 H1876 0.929 . S
C1880 C1882 1.378 . S
C1880 C1884 1.350 . S
C1881 C1884 1.463 . S
C1881 C1886 1.350 . S
C1881 N1889 1.427 . S
C1882 H1873 0.930 . S
C1882 C1880 1.378 . S
C1882 C1883 1.367 . S
C1883 C1882 1.367 . S
C1883 C1885 1.433 . S
C1884 C1880 1.350 . S
C1884 C1881 1.463 . S
C1884 N1888 1.427 . S
C1885 H1875 0.929 . S
C1885 C1883 1.433 . S
C1885 N1888 1.384 . S
C1886 H1877 0.929 . S
C1886 C1878 1.378 . S
C1886 C1881 1.350 . S
C1887 H1874 0.929 . S
C1887 C1879 1.433 . S
C1887 N1889 1.384 . S
N1888 C1884 1.427 . S
N1888 C1885 1.384 . S
N1889 C1881 1.427 . S
N1889 C1887 1.384 . S
H1890 C1896 0.930 . S
H1891 C1900 0.930 . S
H1892 C1905 0.929 . S
H1893 C1903 0.929 . S
H1894 C1898 0.929 . S
H1895 C1904 0.929 . S
C1896 H1890 0.930 . S
C1896 C1897 1.367 . S
C1896 C1904 1.378 . S
C1897 C1896 1.367 . S
C1897 C1905 1.433 . S
C1898 H1894 0.929 . S
C1898 C1900 1.378 . S
C1898 C1902 1.350 . S
C1899 C1902 1.463 . S
C1899 C1904 1.350 . S
C1899 N1907 1.427 . S
C1900 H1891 0.930 . S
C1900 C1898 1.378 . S
C1900 C1901 1.367 . S
C1901 C1900 1.367 . S
C1901 C1903 1.433 . S
C1902 C1898 1.350 . S
C1902 C1899 1.463 . S
C1902 N1906 1.427 . S
C1903 H1893 0.929 . S
C1903 C1901 1.433 . S
C1903 N1906 1.384 . S
C1904 H1895 0.929 . S
C1904 C1896 1.378 . S
C1904 C1899 1.350 . S
C1905 H1892 0.929 . S
C1905 C1897 1.433 . S
C1905 N1907 1.384 . S
N1906 C1902 1.427 . S
N1906 C1903 1.384 . S
N1907 C1899 1.427 . S
N1907 C1905 1.384 . S
H1908 C1914 0.930 . S
H1909 C1918 0.930 . S
H1910 C1923 0.929 . S
H1911 C1921 0.929 . S
H1912 C1916 0.929 . S
H1913 C1922 0.929 . S
C1914 H1908 0.930 . S
C1914 C1915 1.367 . S
C1914 C1922 1.378 . S
C1915 C1914 1.367 . S
C1915 C1923 1.433 . S
C1916 H1912 0.929 . S
C1916 C1918 1.378 . S
C1916 C1920 1.350 . S
C1917 C1920 1.463 . S
C1917 C1922 1.350 . S
C1917 N1925 1.427 . S
C1918 H1909 0.930 . S
C1918 C1916 1.378 . S
C1918 C1919 1.367 . S
C1919 C1918 1.367 . S
C1919 C1921 1.433 . S
C1920 C1916 1.350 . S
C1920 C1917 1.463 . S
C1920 N1924 1.427 . S
C1921 H1911 0.929 . S
C1921 C1919 1.433 . S
C1921 N1924 1.384 . S
C1922 H1913 0.929 . S
C1922 C1914 1.378 . S
C1922 C1917 1.350 . S
C1923 H1910 0.929 . S
C1923 C1915 1.433 . S
C1923 N1925 1.384 . S
N1924 C1920 1.427 . S
N1924 C1921 1.384 . S
N1925 C1917 1.427 . S
N1925 C1923 1.384 . S
H1926 C1932 0.930 . S
H1927 C1936 0.930 . S
H1928 C1941 0.929 . S
H1929 C1939 0.929 . S
H1930 C1934 0.929 . S
H1931 C1940 0.929 . S
C1932 H1926 0.930 . S
C1932 C1933 1.367 . S
C1932 C1940 1.378 . S
C1933 C1932 1.367 . S
C1933 C1941 1.433 . S
C1934 H1930 0.929 . S
C1934 C1936 1.378 . S
C1934 C1938 1.350 . S
C1935 C1938 1.463 . S
C1935 C1940 1.350 . S
C1935 N1943 1.427 . S
C1936 H1927 0.930 . S
C1936 C1934 1.378 . S
C1936 C1937 1.367 . S
C1937 C1936 1.367 . S
C1937 C1939 1.433 . S
C1938 C1934 1.350 . S
C1938 C1935 1.463 . S
C1938 N1942 1.427 . S
C1939 H1929 0.929 . S
C1939 C1937 1.433 . S
C1939 N1942 1.384 . S
C1940 H1931 0.929 . S
C1940 C1932 1.378 . S
C1940 C1935 1.350 . S
C1941 H1928 0.929 . S
C1941 C1933 1.433 . S
C1941 N1943 1.384 . S
N1942 C1938 1.427 . S
N1942 C1939 1.384 . S
N1943 C1935 1.427 . S
N1943 C1941 1.384 . S
H1944 C1950 0.930 . S
H1945 C1954 0.930 . S
H1946 C1959 0.929 . S
H1947 C1957 0.929 . S
H1948 C1952 0.929 . S
H1949 C1958 0.929 . S
C1950 H1944 0.930 . S
C1950 C1951 1.367 . S
C1950 C1958 1.378 . S
C1951 C1950 1.367 . S
C1951 C1959 1.433 . S
C1952 H1948 0.929 . S
C1952 C1954 1.378 . S
C1952 C1956 1.350 . S
C1953 C1956 1.463 . S
C1953 C1958 1.350 . S
C1953 N1961 1.427 . S
C1954 H1945 0.930 . S
C1954 C1952 1.378 . S
C1954 C1955 1.367 . S
C1955 C1954 1.367 . S
C1955 C1957 1.433 . S
C1956 C1952 1.350 . S
C1956 C1953 1.463 . S
C1956 N1960 1.427 . S
C1957 H1947 0.929 . S
C1957 C1955 1.433 . S
C1957 N1960 1.384 . S
C1958 H1949 0.929 . S
C1958 C1950 1.378 . S
C1958 C1953 1.350 . S
C1959 H1946 0.929 . S
C1959 C1951 1.433 . S
C1959 N1961 1.384 . S
N1960 C1956 1.427 . S
N1960 C1957 1.384 . S
N1961 C1953 1.427 . S
N1961 C1959 1.384 . S
H1962 C1968 0.930 . S
H1963 C1972 0.930 . S
H1964 C1977 0.929 . S
H1965 C1975 0.929 . S
H1966 C1970 0.929 . S
H1967 C1976 0.929 . S
C1968 H1962 0.930 . S
C1968 C1969 1.367 . S
C1968 C1976 1.378 . S
C1969 C1968 1.367 . S
C1969 C1977 1.433 . S
C1970 H1966 0.929 . S
C1970 C1972 1.378 . S
C1970 C1974 1.350 . S
C1971 C1974 1.463 . S
C1971 C1976 1.350 . S
C1971 N1979 1.427 . S
C1972 H1963 0.930 . S
C1972 C1970 1.378 . S
C1972 C1973 1.367 . S
C1973 C1972 1.367 . S
C1973 C1975 1.433 . S
C1974 C1970 1.350 . S
C1974 C1971 1.463 . S
C1974 N1978 1.427 . S
C1975 H1965 0.929 . S
C1975 C1973 1.433 . S
C1975 N1978 1.384 . S
C1976 H1967 0.929 . S
C1976 C1968 1.378 . S
C1976 C1971 1.350 . S
C1977 H1964 0.929 . S
C1977 C1969 1.433 . S
C1977 N1979 1.384 . S
N1978 C1974 1.427 . S
N1978 C1975 1.384 . S
N1979 C1971 1.427 . S
N1979 C1977 1.384 . S
H1980 C1986 0.930 . S
H1981 C1990 0.930 . S
H1982 C1995 0.929 . S
H1983 C1993 0.929 . S
H1984 C1988 0.929 . S
H1985 C1994 0.929 . S
C1986 H1980 0.930 . S
C1986 C1987 1.367 . S
C1986 C1994 1.378 . S
C1987 C1986 1.367 . S
C1987 C1995 1.433 . S
C1988 H1984 0.929 . S
C1988 C1990 1.378 . S
C1988 C1992 1.350 . S
C1989 C1992 1.463 . S
C1989 C1994 1.350 . S
C1989 N1997 1.427 . S
C1990 H1981 0.930 . S
C1990 C1988 1.378 . S
C1990 C1991 1.367 . S
C1991 C1990 1.367 . S
C1991 C1993 1.433 . S
C1992 C1988 1.350 . S
C1992 C1989 1.463 . S
C1992 N1996 1.427 . S
C1993 H1983 0.929 . S
C1993 C1991 1.433 . S
C1993 N1996 1.384 . S
C1994 H1985 0.929 . S
C1994 C1986 1.378 . S
C1994 C1989 1.350 . S
C1995 H1982 0.929 . S
C1995 C1987 1.433 . S
C1995 N1997 1.384 . S
N1996 C1992 1.427 . S
N1996 C1993 1.384 . S
N1997 C1989 1.427 . S
N1997 C1995 1.384 . S
H1998 C2004 0.930 . S
H1999 C2008 0.930 . S
H2000 C2013 0.929 . S
H2001 C2011 0.929 . S
H2002 C2006 0.929 . S
H2003 C2012 0.929 . S
C2004 H1998 0.930 . S
C2004 C2005 1.367 . S
C2004 C2012 1.378 . S
C2005 C2004 1.367 . S
C2005 C2013 1.433 . S
C2006 H2002 0.929 . S
C2006 C2008 1.378 . S
C2006 C2010 1.350 . S
C2007 C2010 1.463 . S
C2007 C2012 1.350 . S
C2007 N2015 1.427 . S
C2008 H1999 0.930 . S
C2008 C2006 1.378 . S
C2008 C2009 1.367 . S
C2009 C2008 1.367 . S
C2009 C2011 1.433 . S
C2010 C2006 1.350 . S
C2010 C2007 1.463 . S
C2010 N2014 1.427 . S
C2011 H2001 0.929 . S
C2011 C2009 1.433 . S
C2011 N2014 1.384 . S
C2012 H2003 0.929 . S
C2012 C2004 1.378 . S
C2012 C2007 1.350 . S
C2013 H2000 0.929 . S
C2013 C2005 1.433 . S
C2013 N2015 1.384 . S
N2014 C2010 1.427 . S
N2014 C2011 1.384 . S
N2015 C2007 1.427 . S
N2015 C2013 1.384 . S
H2016 C2022 0.930 . S
H2017 C2026 0.930 . S
H2018 C2031 0.929 . S
H2019 C2029 0.929 . S
H2020 C2024 0.929 . S
H2021 C2030 0.929 . S
C2022 H2016 0.930 . S
C2022 C2023 1.367 . S
C2022 C2030 1.378 . S
C2023 C2022 1.367 . S
C2023 C2031 1.433 . S
C2024 H2020 0.929 . S
C2024 C2026 1.378 . S
C2024 C2028 1.350 . S
C2025 C2028 1.463 . S
C2025 C2030 1.350 . S
C2025 N2033 1.427 . S
C2026 H2017 0.930 . S
C2026 C2024 1.378 . S
C2026 C2027 1.367 . S
C2027 C2026 1.367 . S
C2027 C2029 1.433 . S
C2028 C2024 1.350 . S
C2028 C2025 1.463 . S
C2028 N2032 1.427 . S
C2029 H2019 0.929 . S
C2029 C2027 1.433 . S
C2029 N2032 1.384 . S
C2030 H2021 0.929 . S
C2030 C2022 1.378 . S
C2030 C2025 1.350 . S
C2031 H2018 0.929 . S
C2031 C2023 1.433 . S
C2031 N2033 1.384 . S
N2032 C2028 1.427 . S
N2032 C2029 1.384 . S
N2033 C2025 1.427 . S
N2033 C2031 1.384 . S
H2034 C2040 0.930 . S
H2035 C2044 0.930 . S
H2036 C2049 0.929 . S
H2037 C2047 0.929 . S
H2038 C2042 0.929 . S
H2039 C2048 0.929 . S
C2040 H2034 0.930 . S
C2040 C2041 1.367 . S
C2040 C2048 1.378 . S
C2041 C2040 1.367 . S
C2041 C2049 1.433 . S
C2042 H2038 0.929 . S
C2042 C2044 1.378 . S
C2042 C2046 1.350 . S
C2043 C2046 1.463 . S
C2043 C2048 1.350 . S
C2043 N2051 1.427 . S
C2044 H2035 0.930 . S
C2044 C2042 1.378 . S
C2044 C2045 1.367 . S
C2045 C2044 1.367 . S
C2045 C2047 1.433 . S
C2046 C2042 1.350 . S
C2046 C2043 1.463 . S
C2046 N2050 1.427 . S
C2047 H2037 0.929 . S
C2047 C2045 1.433 . S
C2047 N2050 1.384 . S
C2048 H2039 0.929 . S
C2048 C2040 1.378 . S
C2048 C2043 1.350 . S
C2049 H2036 0.929 . S
C2049 C2041 1.433 . S
C2049 N2051 1.384 . S
N2050 C2046 1.427 . S
N2050 C2047 1.384 . S
N2051 C2043 1.427 . S
N2051 C2049 1.384 . S
H2052 C2058 0.930 . S
H2053 C2062 0.930 . S
H2054 C2067 0.929 . S
H2055 C2065 0.929 . S
H2056 C2060 0.929 . S
H2057 C2066 0.929 . S
C2058 H2052 0.930 . S
C2058 C2059 1.367 . S
C2058 C2066 1.378 . S
C2059 C2058 1.367 . S
C2059 C2067 1.433 . S
C2060 H2056 0.929 . S
C2060 C2062 1.378 . S
C2060 C2064 1.350 . S
C2061 C2064 1.463 . S
C2061 C2066 1.350 . S
C2061 N2069 1.427 . S
C2062 H2053 0.930 . S
C2062 C2060 1.378 . S
C2062 C2063 1.367 . S
C2063 C2062 1.367 . S
C2063 C2065 1.433 . S
C2064 C2060 1.350 . S
C2064 C2061 1.463 . S
C2064 N2068 1.427 . S
C2065 H2055 0.929 . S
C2065 C2063 1.433 . S
C2065 N2068 1.384 . S
C2066 H2057 0.929 . S
C2066 C2058 1.378 . S
C2066 C2061 1.350 . S
C2067 H2054 0.929 . S
C2067 C2059 1.433 . S
C2067 N2069 1.384 . S
N2068 C2064 1.427 . S
N2068 C2065 1.384 . S
N2069 C2061 1.427 . S
N2069 C2067 1.384 . S
C1105 C253 1.467 . S
C1109 C409 1.409 . S
C1123 C272 1.502 . S
C1127 C493 1.444 . S
C1141 C234 1.453 . S
C1145 C573 1.459 . S
C1159 C215 1.446 . S
C1163 C489 1.454 1_556 S
C1181 C577 1.407 . S
C1177 C177 1.459 . S
C1195 C196 1.419 . S
C1199 C405 1.422 1_556 S
C1217 C398 1.497 . S
C1213 C220 1.474 . S
C1235 C482 1.517 . S
C1231 C182 1.487 . S
C1249 C201 1.486 . S
C1253 C584 1.523 1_556 S
C1267 C258 1.441 . S
C1271 C500 1.484 . S
C1285 C277 1.441 . S
C1289 C566 1.459 . S
C1307 C416 1.471 . S
C1303 C239 1.436 . S
C1325 C661 1.421 . S
C1321 C25 1.465 . S
C1339 C44 1.502 . S
C1343 C745 1.441 . S
C1357 C6 1.455 . S
C1361 C825 1.464 . S
C1375 C329 1.442 . S
C1379 C741 1.450 . S
C1393 C291 1.464 . S
C1397 C829 1.397 . S
C1411 C310 1.415 . S
C1415 C657 1.421 . S
C1429 C334 1.461 . S
C1433 C650 1.485 . S
C1447 C296 1.497 . S
C1451 C734 1.518 . S
C1469 C836 1.520 . S
C1465 C315 1.485 . S
C1483 C30 1.442 1_565 S
C1487 C752 1.486 . S
C1505 C818 1.468 . S
C1501 C49 1.441 1_455 S
C1519 C11 1.420 . S
C1523 C668 1.467 . S
C1541 C913 1.422 . S
C1537 C139 1.464 . S
C1555 C158 1.502 . S
C1559 C997 1.444 . S
C1577 C1077 1.464 . S
C1573 C120 1.456 . S
C1595 C993 1.450 . S
C1591 C101 1.442 . S
C1613 C1081 1.406 . S
C1609 C63 1.463 . S
C1627 C82 1.419 . S
C1631 C909 1.425 . S
C1645 C106 1.474 1_655 S
C1649 C902 1.499 . S
C1663 C68 1.496 . S
C1667 C986 1.522 . S
C1685 C1088 1.513 . S
C1681 C87 1.468 1_545 S
C1699 C144 1.445 . S
C1703 C1004 1.489 . S
C1717 C163 1.438 . S
C1721 C1070 1.457 . S
C1735 C125 1.419 . S
C1739 C920 1.465 . S
C1753 C287 1.654 . S
C1757 C412 1.550 . S
C1775 C496 1.580 . S
C1771 C306 1.718 . S
C1789 C325 1.652 . S
C1793 C568 1.453 . S
C1807 C116 1.686 . S
C1811 C484 1.473 . S
C1825 C135 1.674 . S
C1829 C580 1.535 . S
C1847 C400 1.440 . S
C1843 C154 1.612 . S
C1861 C59 1.656 . S
C1865 C664 1.548 . S
C1879 C78 1.722 . S
C1883 C748 1.595 . S
C1897 C97 1.652 . S
C1901 C820 1.453 . S
C1915 C230 1.686 . S
C1919 C736 1.471 . S
C1937 C832 1.555 . S
C1933 C249 1.672 . S
C1951 C268 1.613 . S
C1955 C652 1.418 . S
C1969 C173 1.656 . S
C1973 C916 1.547 . S
C1987 C192 1.720 . S
C1991 C1000 1.594 . S
C2009 C1072 1.458 . S
C2005 C211 1.662 . S
C2023 C2 1.676 . S
C2027 C988 1.467 . S
C2041 C21 1.676 . S
C2045 C1084 1.534 . S
C2059 C40 1.607 . S
C2063 C904 1.422 . S
