# Generated by pormake.
# Topology zzz, (3,6)-cn, num edge types: 1
# Building blocks:
#     Node 0, Type 0, BuildingBlock: PAMTOO_clean_linker_0, # of connection points: 3
#     Node 1, Type 0, BuildingBlock: PAMTOO_clean_linker_0, # of connection points: 3
#     Node 2, Type 0, BuildingBlock: PAMTOO_clean_linker_0, # of connection points: 3
#     Node 3, Type 0, BuildingBlock: PAMTOO_clean_linker_0, # of connection points: 3
#     Node 4, Type 0, BuildingBlock: PAMTOO_clean_linker_0, # of connection points: 3
#     Node 5, Type 0, BuildingBlock: PAMTOO_clean_linker_0, # of connection points: 3
#     Node 6, Type 0, BuildingBlock: PAMTOO_clean_linker_0, # of connection points: 3
#     Node 7, Type 0, BuildingBlock: PAMTOO_clean_linker_0, # of connection points: 3
#     Node 8, Type 1, BuildingBlock: INOVEN_clean_sbu_0, # of connection points: 6
#     Node 9, Type 1, BuildingBlock: INOVEN_clean_sbu_0, # of connection points: 6
#     Node 10, Type 1, BuildingBlock: INOVEN_clean_sbu_0, # of connection points: 6
#     Node 11, Type 1, BuildingBlock: INOVEN_clean_sbu_0, # of connection points: 6
#     Edge 12, Type (0, 1), BuildingBlock: AJUNOK_clean_linker_0, # of connection points: 2
#     Edge 13, Type (0, 1), BuildingBlock: AJUNOK_clean_linker_0, # of connection points: 2
#     Edge 14, Type (0, 1), BuildingBlock: AJUNOK_clean_linker_0, # of connection points: 2
#     Edge 15, Type (0, 1), BuildingBlock: AJUNOK_clean_linker_0, # of connection points: 2
#     Edge 16, Type (0, 1), BuildingBlock: AJUNOK_clean_linker_0, # of connection points: 2
#     Edge 17, Type (0, 1), BuildingBlock: AJUNOK_clean_linker_0, # of connection points: 2
#     Edge 18, Type (0, 1), BuildingBlock: AJUNOK_clean_linker_0, # of connection points: 2
#     Edge 19, Type (0, 1), BuildingBlock: AJUNOK_clean_linker_0, # of connection points: 2
#     Edge 20, Type (0, 1), BuildingBlock: AJUNOK_clean_linker_0, # of connection points: 2
#     Edge 21, Type (0, 1), BuildingBlock: AJUNOK_clean_linker_0, # of connection points: 2
#     Edge 22, Type (0, 1), BuildingBlock: AJUNOK_clean_linker_0, # of connection points: 2
#     Edge 23, Type (0, 1), BuildingBlock: AJUNOK_clean_linker_0, # of connection points: 2
#     Edge 24, Type (0, 1), BuildingBlock: AJUNOK_clean_linker_0, # of connection points: 2
#     Edge 25, Type (0, 1), BuildingBlock: AJUNOK_clean_linker_0, # of connection points: 2
#     Edge 26, Type (0, 1), BuildingBlock: AJUNOK_clean_linker_0, # of connection points: 2
#     Edge 27, Type (0, 1), BuildingBlock: AJUNOK_clean_linker_0, # of connection points: 2
#     Edge 28, Type (0, 1), BuildingBlock: AJUNOK_clean_linker_0, # of connection points: 2
#     Edge 29, Type (0, 1), BuildingBlock: AJUNOK_clean_linker_0, # of connection points: 2
#     Edge 30, Type (0, 1), BuildingBlock: AJUNOK_clean_linker_0, # of connection points: 2
#     Edge 31, Type (0, 1), BuildingBlock: AJUNOK_clean_linker_0, # of connection points: 2
#     Edge 32, Type (0, 1), BuildingBlock: AJUNOK_clean_linker_0, # of connection points: 2
#     Edge 33, Type (0, 1), BuildingBlock: AJUNOK_clean_linker_0, # of connection points: 2
#     Edge 34, Type (0, 1), BuildingBlock: AJUNOK_clean_linker_0, # of connection points: 2
#     Edge 35, Type (0, 1), BuildingBlock: AJUNOK_clean_linker_0, # of connection points: 2
# Relax obj value: 0.345
# Max RMSD: 0.207
# Mean RMSD: 0.158
data_MOF--net-zzz--node1-INOVEN_clean_sbu_0--node2-PAMTOO_clean_linker_0--edge1-AJUNOK_clean_linker_0
_symmetry_space_group_name_H-M    P1
_symmetry_Int_Tables_number       1
_symmetry_cell_setting            triclinic
loop_
_symmetry_equiv_pos_as_xyz
'x, y, z'
_cell_length_a     37.914672
_cell_length_b     38.004412
_cell_length_c     10.175622
_cell_angle_alpha  90.107518
_cell_angle_beta   89.743366
_cell_angle_gamma 90.417679
loop_
_atom_site_label
_atom_site_type_symbol
_atom_site_fract_x
_atom_site_fract_y
_atom_site_fract_z
_atom_type_partial_charge
H0 H 0.84337 0.45122 0.44439 0.0
H1 H 0.747 0.46422 0.229 0.0
H2 H 0.79171 0.55141 0.44418 0.0
H3 H 0.70071 0.55545 0.39389 0.0
C4 C 0.70396 0.53095 0.33558 0.0
O5 O 0.73837 0.52997 0.287 0.0
H6 H 0.69944 0.50874 0.40438 0.0
C7 C 0.82059 0.46699 0.41984 0.0
C8 C 0.82047 0.50226 0.45922 0.0
C9 C 0.79453 0.45301 0.33621 0.0
C10 C 0.76644 0.47434 0.29742 0.0
C11 C 0.76452 0.50953 0.3381 0.0
C12 C 0.79195 0.52377 0.41831 0.0
H13 H 0.09768 0.83257 0.45817 0.0
H14 H 0.08719 0.7366 0.23596 0.0
H15 H 0.99777 0.77904 0.44327 0.0
H16 H 0.99359 0.68852 0.37838 0.0
C17 C 1.01884 0.69245 0.3245 0.0
O18 O 1.02069 0.72729 0.28213 0.0
H19 H 0.04036 0.68722 0.39587 0.0
C20 C 0.08239 0.80949 0.43059 0.0
C21 C 0.04687 0.80828 0.46778 0.0
C22 C 0.09705 0.78459 0.34395 0.0
C23 C 0.07639 0.75577 0.30371 0.0
C24 C 0.04077 0.75303 0.3401 0.0
C25 C 1.02572 0.77978 0.42114 0.0
H26 H 0.71848 0.08505 0.48111 0.0
H27 H 0.81289 0.07296 0.25239 0.0
H28 H 0.77337 0.98653 0.48461 0.0
H29 H 0.86551 0.98813 0.42813 0.0
C30 C 0.86069 1.01036 0.35992 0.0
O31 O 0.82555 1.0086 0.31927 0.0
H32 H 0.86554 0.03483 0.41769 0.0
C33 C 0.74164 0.06979 0.45589 0.0
C34 C 0.74302 0.0349 0.49878 0.0
C35 C 0.76639 0.08362 0.36613 0.0
C36 C 0.79488 0.06292 0.32614 0.0
C37 C 0.79875 1.02841 0.37158 0.0
C38 C 0.77212 1.01393 0.4564 0.0
H39 H 0.46211 0.70202 0.44858 0.0
H40 H 0.4726 0.79627 0.21817 0.0
H41 H 0.5619 0.75617 0.42953 0.0
H42 H 0.56511 0.84687 0.3605 0.0
C43 C 0.5397 0.84224 0.30929 0.0
O44 O 0.53861 0.8073 0.26685 0.0
H45 H 0.51836 0.84688 0.3828 0.0
C46 C 0.47751 0.72489 0.41913 0.0
C47 C 0.51311 0.72633 0.45455 0.0
C48 C 0.46269 0.74963 0.33326 0.0
C49 C 0.48341 0.77788 0.28834 0.0
C50 C 0.51887 0.78122 0.32471 0.0
C51 C 0.53405 0.75495 0.40693 0.0
H52 H 0.21919 0.59301 0.16301 0.0
H53 H 0.31606 0.58221 0.37751 0.0
H54 H 0.27141 0.4932 0.17285 0.0
H55 H 0.36523 0.54323 0.23464 0.0
C56 C 0.35948 0.51737 0.28163 0.0
O57 O 0.32482 0.51624 0.32761 0.0
H58 H 0.36206 0.49689 0.20427 0.0
C59 C 0.24196 0.57755 0.18982 0.0
C60 C 0.24237 0.54208 0.15273 0.0
C61 C 0.26777 0.59217 0.27332 0.0
C62 C 0.29622 0.5714 0.31226 0.0
C63 C 0.29829 0.53596 0.27531 0.0
C64 C 0.27095 0.52099 0.19632 0.0
H65 H 0.9676 0.20955 0.23368 0.0
H66 H 0.99285 0.30944 0.4012 0.0
H67 H 0.0632 0.2626 0.11645 0.0
H68 H 1.02745 0.35519 0.19172 0.0
C69 C 0.05071 0.35151 0.25666 0.0
O70 O 0.05375 0.31612 0.29112 0.0
H71 H 0.07431 0.35896 0.19774 0.0
C72 C 0.9839 0.23309 0.2303 0.0
C73 C 1.0146 0.23304 0.15311 0.0
C74 C 0.97512 0.26093 0.31453 0.0
C75 C 0.99829 0.28925 0.32862 0.0
C76 C 0.03006 0.29028 0.25852 0.0
C77 C 0.03832 0.2622 0.16906 0.0
H78 H 0.34007 0.09562 0.16423 0.0
H79 H 0.24309 0.07947 0.37735 0.0
H80 H 0.27881 1.0023 0.09772 0.0
H81 H 0.18333 1.00539 0.16575 0.0
C82 C 0.19195 1.02701 0.23204 0.0
O83 O 0.22672 1.02054 0.26981 0.0
H84 H 0.19088 0.05177 0.1739 0.0
C85 C 0.3159 0.081 0.18065 0.0
C86 C 0.31265 0.04868 0.11596 0.0
C87 C 0.29263 0.09128 0.28204 0.0
C88 C 0.26129 0.07203 0.29984 0.0
C89 C 0.25534 0.04046 0.23228 0.0
C90 C 0.2818 1.02797 0.14271 0.0
H91 H 0.60533 0.33139 0.1509 0.0
H92 H 0.60035 0.2301 0.33816 0.0
H93 H 0.50666 0.2761 0.17526 0.0
H94 H 0.49519 0.22985 0.44555 0.0
C95 C 0.52207 0.21846 0.43927 0.0
O96 O 0.53327 0.22047 0.30851 0.0
H97 H 0.53921 0.23514 0.50298 0.0
C98 C 0.59108 0.30739 0.17442 0.0
C99 C 0.55504 0.30631 0.14545 0.0
C100 C 0.60758 0.28086 0.2481 0.0
C101 C 0.58797 0.25078 0.2823 0.0
C102 C 0.55161 0.24875 0.25884 0.0
C103 C 0.5349 0.27684 0.19028 0.0
Gd104 Gd 0.05291 1.01282 0.89527 0.0
Gd105 Gd 1.0021 1.02778 0.71012 0.0
C106 C 1.02655 0.94841 0.70232 0.0
C107 C 0.09093 0.98845 0.08509 0.0
C108 C 0.11502 0.95916 0.10814 0.0
C109 C 0.13434 0.94379 1.00514 0.0
C110 C 0.11666 0.94475 0.23407 0.0
C111 C 0.15128 0.89585 0.14943 0.0
C112 C 0.13455 0.91339 0.25468 0.0
C113 C 0.15276 0.91252 0.02614 0.0
C114 C 0.08528 0.0319 0.66392 0.0
C115 C 1.02876 0.09313 0.89717 0.0
C116 C 0.96246 0.05173 0.52462 0.0
C117 C 0.94008 0.08268 0.50891 0.0
C118 C 0.92229 0.09744 0.61699 0.0
C119 C 0.94132 0.10085 0.3896 0.0
C120 C 0.91453 0.15144 0.49462 0.0
C121 C 0.92845 0.13501 0.38218 0.0
C122 C 0.90923 0.13166 0.60922 0.0
C123 C 0.97127 1.00696 0.94257 0.0
O124 O 0.04063 0.95663 0.81784 0.0
O125 O 1.01344 0.97385 0.6307 0.0
O126 O 0.10179 1.01264 1.00359 0.0
O127 O 0.05775 0.98 0.06854 0.0
O128 O 0.09505 0.04155 0.77996 0.0
O129 O 0.05817 1.01223 0.67489 0.0
O130 O 1.01278 0.08396 0.7865 0.0
O131 O 0.0441 0.0686 0.96749 0.0
O132 O 0.95188 1.02814 0.60928 0.0
O133 O 0.99621 0.05861 0.53313 0.0
O134 O 0.9629 0.99529 0.82738 0.0
O135 O 0.99688 1.02847 0.92973 0.0
H136 H 0.13374 0.95494 0.90726 0.0
H137 H 0.10225 0.95658 0.31493 0.0
H138 H 0.13244 0.9014 0.35092 0.0
H139 H 0.16605 0.9002 0.94387 0.0
H140 H 0.921 0.08375 0.7102 0.0
H141 H 0.95503 0.08984 0.30552 0.0
H142 H 0.93314 0.14989 0.29292 0.0
H143 H 0.89812 0.14382 0.696 0.0
Gd144 Gd 0.53677 0.03819 0.93143 0.0
Gd145 Gd 0.51836 1.00209 0.7096 0.0
C146 C 0.60069 1.0152 0.72537 0.0
C147 C 0.56406 0.06533 0.14013 0.0
C148 C 0.59321 0.0903 0.1571 0.0
C149 C 0.60498 0.11122 0.05144 0.0
C150 C 0.61187 0.09036 0.27481 0.0
C151 C 0.65581 0.12978 0.17856 0.0
C152 C 0.64301 0.10972 0.28514 0.0
C153 C 0.63619 0.13087 0.0621 0.0
C154 C 0.51964 0.08426 0.73468 0.0
C155 C 0.45616 1.02451 0.90807 0.0
C156 C 0.48539 0.98805 0.49687 0.0
C157 C 0.4587 1.01239 0.44615 0.0
C158 C 0.4238 1.00082 0.43239 0.0
C159 C 0.46589 0.04883 0.44712 0.0
C160 C 0.40338 0.06145 0.44745 0.0
C161 C 0.43848 0.07305 0.44796 0.0
C162 C 0.39639 1.02514 0.43235 0.0
C163 C 0.53505 0.95544 0.90539 0.0
O164 O 0.59233 1.02779 0.84343 0.0
O165 O 0.57524 1.0042 0.64794 0.0
O166 O 0.53602 0.07788 0.08383 0.0
O167 O 0.57306 0.03446 0.09454 0.0
O168 O 0.50855 0.08637 0.85451 0.0
O169 O 0.53864 0.05718 0.72341 0.0
O170 O 0.46589 1.02535 0.78326 0.0
O171 O 0.48139 1.02251 0.99598 0.0
O172 O 0.47687 0.97323 0.60842 0.0
O173 O 0.51778 0.9999 0.49629 0.0
O174 O 0.54365 0.95187 0.78266 0.0
O175 O 0.5171 0.98321 0.9187 0.0
H176 H 0.59103 0.11092 0.9587 0.0
H177 H 0.60348 0.07388 0.35617 0.0
H178 H 0.65849 0.1068 0.37365 0.0
H179 H 0.6461 0.1451 0.97733 0.0
H180 H 0.41755 0.97295 0.43175 0.0
H181 H 0.49258 0.05875 0.45786 0.0
H182 H 0.44487 0.10062 0.45636 0.0
H183 H 0.36957 1.01534 0.4255 0.0
Gd184 Gd 0.50765 0.52631 0.9044 0.0
Gd185 Gd 0.55557 0.50844 0.71926 0.0
C186 C 0.53387 0.58825 0.70237 0.0
C187 C 0.46902 0.55228 0.09097 0.0
C188 C 0.44238 0.5796 0.10721 0.0
C189 C 0.42692 0.59589 0.99834 0.0
C190 C 0.43475 0.59165 0.23366 0.0
C191 C 0.40259 0.64112 0.1418 0.0
C192 C 0.41509 0.6221 0.25111 0.0
C193 C 0.40671 0.62623 0.01572 0.0
C194 C 0.47247 0.50521 0.68187 0.0
C195 C 0.53071 0.44677 0.91922 0.0
C196 C 0.59718 0.47812 0.55305 0.0
C197 C 0.61666 0.44463 0.5585 0.0
C198 C 0.65295 0.44369 0.53089 0.0
C199 C 0.59911 0.41318 0.58972 0.0
C200 C 0.65159 0.37968 0.53333 0.0
C201 C 0.61621 0.38114 0.57639 0.0
C202 C 0.67035 0.41146 0.51766 0.0
C203 C 0.5891 0.53203 0.94029 0.0
O204 O 0.52139 0.58117 0.8215 0.0
O205 O 0.54528 0.56184 0.62984 0.0
O206 O 0.45982 0.52515 0.02041 0.0
O207 O 0.50105 0.56329 0.06513 0.0
O208 O 0.4649 0.49574 0.8004 0.0
O209 O 0.4998 0.52469 0.68463 0.0
O210 O 0.54 0.45345 0.79657 0.0
O211 O 0.52157 0.47366 0.99306 0.0
O212 O 0.60781 0.50261 0.63344 0.0
O213 O 0.56278 0.47594 0.54647 0.0
O214 O 0.59475 0.54359 0.82282 0.0
O215 O 0.56338 0.51047 0.93753 0.0
H216 H 0.43227 0.58647 0.89972 0.0
H217 H 0.44619 0.579 0.3187 0.0
H218 H 0.41329 0.6325 0.34993 0.0
H219 H 0.39715 0.6398 0.92958 0.0
H220 H 0.66753 0.46781 0.51513 0.0
H221 H 0.5715 0.413 0.61703 0.0
H222 H 0.60055 0.35746 0.58975 0.0
H223 H 0.69789 0.41144 0.48907 0.0
Gd224 Gd 1.02236 0.49771 0.89861 0.0
Gd225 Gd 0.04162 0.54164 0.70107 0.0
C226 C 0.96082 0.52089 0.69505 0.0
C227 C 0.99331 0.46328 0.09017 0.0
C228 C 0.96414 0.43819 0.10628 0.0
C229 C 0.94863 0.42143 0.99764 0.0
C230 C 0.95011 0.43283 0.23171 0.0
C231 C 0.90182 0.39837 0.13862 0.0
C232 C 0.91936 0.41308 0.24803 0.0
C233 C 0.91772 0.40148 0.01381 0.0
C234 C 0.04365 0.45895 0.68432 0.0
C235 C 0.10269 0.51974 0.91161 0.0
C236 C 0.0705 0.57505 0.50689 0.0
C237 C 0.09999 0.59966 0.48826 0.0
C238 C 0.10974 0.62413 0.58569 0.0
C239 C 0.1195 0.59764 0.37189 0.0
C240 C 0.1604 0.64206 0.45402 0.0
C241 C 0.14909 0.61888 0.35415 0.0
C242 C 0.13988 0.6452 0.56871 0.0
C243 C 1.02034 0.58031 0.91519 0.0
O244 O 0.96772 0.51129 0.81699 0.0
O245 O 0.98758 0.52941 0.61831 0.0
O246 O 1.02059 0.45203 0.02452 0.0
O247 O 0.98455 0.49536 0.05893 0.0
O248 O 0.05311 0.45357 0.80418 0.0
O249 O 1.02402 0.48585 0.6813 0.0
O250 O 0.09637 0.52963 0.78911 0.0
O251 O 0.0756 0.51052 0.98535 0.0
O252 O 0.04338 0.58681 0.57231 0.0
O253 O 0.07897 0.54296 0.53915 0.0
O254 O 1.01057 0.58561 0.79553 0.0
O255 O 0.04016 0.55357 0.91767 0.0
H256 H 0.95935 0.42529 0.89979 0.0
H257 H 0.96175 0.44567 0.31643 0.0
H258 H 0.90772 0.41239 0.34534 0.0
H259 H 0.90485 0.39075 0.92763 0.0
H260 H 0.09492 0.62593 0.67671 0.0
H261 H 0.11242 0.57884 0.29604 0.0
H262 H 0.16462 0.61508 0.2658 0.0
H263 H 0.14822 0.66244 0.64772 0.0
C264 C 0.17066 1.0127 0.46947 0.0
C265 C 0.16521 0.02931 0.34721 0.0
C266 C 0.14473 1.01342 0.5706 0.0
C267 C 0.11162 0.02965 0.55286 0.0
H268 H 0.19516 0.99913 0.48763 0.0
H269 H 0.15055 1.00089 0.66345 0.0
S270 S 0.08349 0.07643 0.25282 0.0
N271 N 0.12365 0.06273 0.21677 0.0
N272 N 0.07508 0.06254 0.40343 0.0
C273 C 0.10559 0.04564 0.431 0.0
C274 C 0.13218 0.04573 0.3294 0.0
C275 C 0.49024 0.16598 0.54525 0.0
C276 C 0.52195 0.18089 0.49651 0.0
C277 C 0.48986 0.13473 0.62046 0.0
C278 C 0.52088 0.11583 0.64594 0.0
H279 H 0.46551 0.17946 0.53033 0.0
H280 H 0.46497 0.12545 0.66051 0.0
S281 S 0.61132 0.14578 0.56063 0.0
N282 N 0.58571 0.17583 0.49415 0.0
N283 N 0.58463 0.11625 0.62756 0.0
C284 C 0.55277 0.13023 0.59821 0.0
C285 C 0.55334 0.16275 0.52519 0.0
C286 C 0.38352 0.5257 0.51755 0.0
C287 C 0.38734 0.51188 0.38943 0.0
C288 C 0.41098 0.5233 0.61139 0.0
C289 C 0.44397 0.50817 0.58003 0.0
H290 H 0.35925 0.53863 0.54541 0.0
H291 H 0.40655 0.53393 0.70888 0.0
S292 S 0.46762 0.46875 0.25951 0.0
N293 N 0.42689 0.48238 0.23828 0.0
N294 N 0.47847 0.47935 0.41153 0.0
C295 C 0.44824 0.49491 0.45233 0.0
C296 C 0.42009 0.49652 0.35815 0.0
C297 C 0.03661 0.41199 0.34969 0.0
C298 C 0.04794 0.37729 0.374 0.0
C299 C 0.03505 0.43799 0.44915 0.0
C300 C 0.04557 0.43089 0.57882 0.0
H301 H 1.02918 0.41912 0.25131 0.0
H302 H 1.0259 0.46402 0.4235 0.0
S303 S 0.07905 0.34473 0.69703 0.0
N304 N 0.07094 0.33778 0.53976 0.0
N305 N 0.0685 0.38613 0.72579 0.0
C306 C 0.05759 0.39638 0.60491 0.0
C307 C 0.05882 0.36983 0.50322 0.0
C308 C 0.90731 0.97854 0.21849 0.0
C309 C 0.88753 1.00918 0.24523 0.0
C310 C 0.93459 0.97814 0.12251 0.0
C311 C 0.94391 1.00851 0.05037 0.0
H312 H 0.90196 0.95471 0.27342 0.0
H313 H 0.94865 0.95386 0.10517 0.0
S314 S 0.89845 0.09438 0.07266 0.0
N315 N 0.87831 0.06998 0.18433 0.0
N316 N 0.92909 0.06925 1.00592 0.0
C317 C 0.92389 0.03896 0.07396 0.0
C318 C 0.89595 0.03927 0.17047 0.0
C319 C 0.51849 0.90122 0.21945 0.0
C320 C 0.53669 0.86938 0.19726 0.0
C321 C 0.5181 0.92864 0.12563 0.0
C322 C 0.53612 0.92586 1.00453 0.0
H323 H 0.5047 0.90527 0.31165 0.0
H324 H 0.50362 0.95235 0.14885 0.0
S325 S 0.58967 0.84912 0.89925 0.0
N326 N 0.57462 0.83772 0.04583 0.0
N327 N 0.57364 0.88862 0.8697 0.0
C328 C 0.55473 0.89433 0.9813 0.0
C329 C 0.5552 0.86643 0.07733 0.0
C330 C 0.64814 0.50514 0.22911 0.0
C331 C 0.67587 0.53026 0.22683 0.0
C332 C 0.61979 0.50627 0.13935 0.0
C333 C 0.61784 0.5325 0.04205 0.0
H334 H 0.6481 0.48447 0.30159 0.0
H335 H 0.59948 0.48611 0.14544 0.0
S336 S 0.68298 0.60504 0.99455 0.0
N337 N 0.69875 0.58262 0.11988 0.0
N338 N 0.64632 0.58455 0.95037 0.0
C339 C 0.6454 0.55776 0.03848 0.0
C340 C 0.67406 0.55668 0.13065 0.0
C341 C 0.04319 0.63635 0.21943 0.0
C342 C 1.02046 0.66552 0.21116 0.0
C343 C 0.04278 0.6088 0.12564 0.0
C344 C 1.01953 0.60904 0.01802 0.0
H345 H 0.06118 0.63471 0.30069 0.0
H346 H 0.06099 0.5872 0.13747 0.0
S347 S 0.95341 0.67857 0.95189 0.0
N348 N 0.97313 0.69209 0.08753 0.0
N349 N 0.97253 0.64118 0.91057 0.0
C350 C 0.99653 0.63808 1.00837 0.0
C351 C 0.99691 0.66595 0.10478 0.0
C352 C 0.91438 0.24253 0.36475 0.0
C353 C 0.94742 0.25365 0.41292 0.0
C354 C 0.89956 0.21056 0.40729 0.0
C355 C 0.91704 0.19011 0.5013 0.0
H356 H 0.90387 0.25448 0.27675 0.0
H357 H 0.87747 0.19956 0.35352 0.0
S358 S 0.99817 0.21488 0.68273 0.0
N359 N 0.99075 0.24847 0.58489 0.0
N360 N 0.96538 0.18701 0.65643 0.0
C361 C 0.94597 0.20505 0.56772 0.0
C362 C 0.95998 0.23811 0.52781 0.0
C363 C 0.3106 0.09069 0.50748 0.0
C364 C 0.30754 0.11184 0.39484 0.0
C365 C 0.34327 0.07531 0.53294 0.0
C366 C 0.37357 0.08629 0.46288 0.0
H367 H 0.28745 0.07837 0.55058 0.0
H368 H 0.34421 0.05289 0.59845 0.0
S369 S 0.37898 0.16642 0.25524 0.0
N370 N 0.33641 0.16076 0.28489 0.0
N371 N 0.39927 0.13454 0.33435 0.0
C372 C 0.37137 0.11821 0.39276 0.0
C373 C 0.33742 0.13266 0.36694 0.0
C374 C 0.63985 0.28685 0.45831 0.0
C375 C 0.64063 0.29007 0.32028 0.0
C376 C 0.65245 0.31432 0.53758 0.0
C377 C 0.66484 0.34572 0.47968 0.0
H378 H 0.62396 0.26666 0.50538 0.0
H379 H 0.64597 0.31375 0.64141 0.0
S380 S 0.69329 0.35511 0.13212 0.0
N381 N 0.67185 0.31714 0.13713 0.0
N382 N 0.69282 0.37047 0.28407 0.0
C383 C 0.67547 0.34399 0.34708 0.0
C384 C 0.66398 0.31528 0.26738 0.0
C385 C 0.24127 0.6517 0.2738 0.0
C386 C 0.25904 0.6253 0.34389 0.0
C387 C 0.21041 0.66643 0.32607 0.0
C388 C 0.1974 0.6548 0.44848 0.0
H389 H 0.24673 0.65541 0.17011 0.0
H390 H 0.19327 0.68066 0.26022 0.0
S391 S 0.24764 0.60568 0.69804 0.0
N392 N 0.27142 0.60257 0.5623 0.0
N393 N 0.21363 0.63052 0.66023 0.0
C394 C 0.22128 0.63826 0.53287 0.0
C395 C 0.25248 0.62312 0.47978 0.0
C396 C 0.1559 0.81385 0.33882 0.0
C397 C 0.12942 0.79525 0.27044 0.0
C398 C 0.1701 0.84499 0.28624 0.0
C399 C 0.15843 0.85757 0.16385 0.0
H400 H 0.16042 0.80834 0.44181 0.0
H401 H 0.18529 0.86204 0.35043 0.0
S402 S 0.10735 0.80619 0.91881 0.0
N403 N 0.10532 0.78252 0.05434 0.0
N404 N 0.13199 0.84079 0.95496 0.0
C405 C 0.14055 0.83363 0.08162 0.0
C406 C 0.1261 0.80206 0.13538 0.0
C407 C 0.7476 0.10827 0.15537 0.0
C408 C 0.75577 0.11469 0.28817 0.0
C409 C 0.71637 0.12139 0.1021 0.0
C410 C 0.69321 0.14097 0.18137 0.0
H411 H 0.76115 0.08782 0.10115 0.0
H412 H 0.70737 0.11035 1.00974 0.0
S413 S 0.71367 0.18064 0.50407 0.0
N414 N 0.7469 0.15382 0.47411 0.0
N415 N 0.68795 0.17846 0.37357 0.0
C416 C 0.70665 0.15586 0.29726 0.0
C417 C 0.73841 0.14256 0.35141 0.0
C418 C 0.43288 0.73197 0.12922 0.0
C419 C 0.42983 0.73937 0.26417 0.0
C420 C 0.41599 0.7024 0.07588 0.0
C421 C 0.3962 0.6796 0.15734 0.0
H422 H 0.453 0.7449 0.07033 0.0
H423 H 0.42391 0.69435 0.97817 0.0
S424 S 0.36378 0.70072 0.49159 0.0
N425 N 0.39369 0.73144 0.45972 0.0
N426 N 0.36112 0.67618 0.35766 0.0
C427 C 0.38477 0.6931 0.27894 0.0
C428 C 0.40215 0.72303 0.33375 0.0
C429 C 0.81032 0.42443 0.1279 0.0
C430 C 0.80317 0.42042 0.26281 0.0
C431 C 0.84033 0.40899 0.07243 0.0
C432 C 0.8636 0.38975 0.15185 0.0
H433 H 0.79707 0.44455 0.07166 0.0
H434 H 0.84842 0.41777 0.97573 0.0
S435 S 0.84339 0.35476 0.48281 0.0
N436 N 0.81163 0.38324 0.45373 0.0
N437 N 0.86813 0.35397 0.34868 0.0
C438 C 0.85033 0.377 0.27201 0.0
C439 C 0.8198 0.39266 0.32848 0.0
C440 C 0.05264 0.1815 0.06923 0.0
C441 C 1.02069 0.20048 0.06749 0.0
C442 C 0.05541 0.14732 0.01216 0.0
C443 C 1.02654 0.13051 0.94937 0.0
H444 H 0.07518 0.19232 0.12068 0.0
H445 H 0.08031 0.13369 0.01919 0.0
S446 S 0.93652 0.16748 0.92449 0.0
N447 N 0.95962 0.19903 0.99513 0.0
N448 N 0.96465 0.13539 0.89536 0.0
C449 C 0.99482 0.14939 0.94527 0.0
C450 C 0.99201 0.18403 1.00188 0.0
C451 C 0.36652 1.00942 0.08516 0.0
C452 C 0.34515 0.03707 0.03882 0.0
C453 C 0.40201 1.00512 0.04186 0.0
C454 C 0.41782 1.02795 0.94859 0.0
H455 H 0.35653 0.9923 0.16195 0.0
H456 H 0.41745 0.98412 0.08391 0.0
S457 S 0.37543 0.10668 0.80678 0.0
N458 N 0.34413 0.0888 0.89882 0.0
N459 N 0.40966 0.08027 0.81746 0.0
C460 C 0.39669 0.0552 0.8999 0.0
C461 C 0.36085 0.05982 0.94463 0.0
C462 C 0.53743 0.34518 0.95234 0.0
C463 C 0.53993 0.33981 0.08944 0.0
C464 C 0.53364 0.37941 0.89764 0.0
C465 C 0.53296 0.41001 0.97724 0.0
H466 H 0.54006 0.32294 0.88643 0.0
H467 H 0.53214 0.38192 0.79184 0.0
S468 S 0.54204 0.41039 0.34061 0.0
N469 N 0.54234 0.36826 0.30194 0.0
N470 N 0.53787 0.43179 0.20084 0.0
C471 C 0.53576 0.40471 0.11411 0.0
C472 C 0.53857 0.37002 0.16938 0.0
C473 C 0.20263 0.53826 0.95295 0.0
C474 C 0.20974 0.52836 0.0839 0.0
C475 C 0.16862 0.53438 0.89673 0.0
C476 C 0.13964 0.52098 0.96945 0.0
H477 H 0.2233 0.55053 0.89504 0.0
H478 H 0.16482 0.54319 0.79666 0.0
S479 S 0.14394 0.49168 0.31821 0.0
N480 N 0.18464 0.50466 0.28454 0.0
N481 N 0.12132 0.49728 0.1816 0.0
C482 C 0.1467 0.51032 0.1001 0.0
C483 C 0.18139 0.51407 0.15645 0.0
C484 C 0.04365 0.84851 0.66643 0.0
C485 C 0.03305 0.84065 0.53666 0.0
C486 C 0.04059 0.88277 0.72087 0.0
C487 C 1.02714 0.91116 0.64746 0.0
H488 H 0.05594 0.82824 0.72432 0.0
H489 H 0.04997 0.88721 0.81996 0.0
S490 S 0.99618 0.90472 0.30087 0.0
N491 N 1.00873 0.86435 0.33632 0.0
N492 N 1.00262 0.92808 0.43573 0.0
C493 C 1.0156 0.90328 0.51814 0.0
C494 C 1.01865 0.86838 0.46367 0.0
C495 C 0.70095 0.03482 0.69434 0.0
C496 C 0.71029 1.0214 0.56918 0.0
C497 C 0.66625 0.03146 0.74651 0.0
C498 C 0.63867 1.01517 0.67505 0.0
H499 H 0.72029 0.04968 0.74994 0.0
H500 H 0.66071 0.04316 0.84144 0.0
S501 S 0.64882 0.97635 0.34043 0.0
N502 N 0.68867 0.99133 0.37546 0.0
N503 N 0.62415 0.98503 0.47047 0.0
C504 C 0.64799 1.00098 0.55066 0.0
C505 C 0.68338 1.00412 0.49871 0.0
C506 C 0.53997 0.6656 0.45662 0.0
C507 C 0.52698 0.69473 0.52751 0.0
C508 C 0.54323 0.63191 0.51479 0.0
C509 C 0.53325 0.62537 0.64682 0.0
H510 H 0.54581 0.66839 0.35282 0.0
H511 H 0.55239 0.61047 0.45359 0.0
S512 S 0.49938 0.69329 0.87777 0.0
N513 N 0.50528 0.71492 0.73866 0.0
N514 N 0.51158 0.65239 0.84825 0.0
C515 C 0.52147 0.65471 0.72008 0.0
C516 C 0.51821 0.68898 0.66056 0.0
C517 C 0.88279 0.52603 0.45318 0.0
C518 C 0.85322 0.51537 0.52814 0.0
C519 C 0.91692 0.52873 0.50856 0.0
C520 C 0.92345 0.52052 0.6418 0.0
H521 H 0.87987 0.53052 0.3487 0.0
H522 H 0.93861 0.53616 0.44454 0.0
S523 S 0.85465 0.49256 0.88237 0.0
N524 N 0.8327 0.49738 0.74376 0.0
N525 N 0.89613 0.50273 0.84836 0.0
C526 C 0.89377 0.51093 0.71885 0.0
C527 C 0.85903 0.5082 0.66206 0.0
loop_
_geom_bond_atom_site_label_1
_geom_bond_atom_site_label_2
_geom_bond_distance
_geom_bond_site_symmetry_2
_ccdc_geom_bond_type
H0 C7 0.929 . S
H1 C10 0.930 . S
H2 C12 0.929 . S
H3 C4 0.969 . S
C4 H3 0.969 . S
C4 O5 1.550 . S
C4 H6 0.973 . S
O5 C4 1.550 . S
O5 C11 1.412 . S
H6 C4 0.973 . S
C7 H0 0.929 . S
C7 C8 1.400 . S
C7 C9 1.364 . S
C8 C7 1.400 . S
C8 C12 1.377 . S
C9 C7 1.364 . S
C9 C10 1.374 . S
C10 H1 0.930 . S
C10 C9 1.374 . S
C10 C11 1.383 . S
C11 O5 1.412 . S
C11 C10 1.383 . S
C11 C12 1.394 . S
C12 H2 0.929 . S
C12 C8 1.377 . S
C12 C11 1.394 . S
H13 C20 0.928 1_655 S
H14 C23 0.931 . S
H15 C25 0.928 1_655 S
H16 C17 0.969 . S
C17 H16 0.969 . S
C17 O18 1.550 1_455 S
C17 H19 0.973 1_455 S
O18 C17 1.550 1_655 S
O18 C24 1.404 1_655 S
H19 C17 0.973 1_655 S
C20 H13 0.928 1_455 S
C20 C21 1.399 . S
C20 C22 1.364 . S
C21 C20 1.399 . S
C21 C25 1.377 . S
C22 C20 1.364 . S
C22 C23 1.374 1_455 S
C23 H14 0.931 . S
C23 C22 1.374 1_655 S
C23 C24 1.382 1_655 S
C24 O18 1.404 1_455 S
C24 C23 1.382 1_455 S
C24 C25 1.394 . S
C25 H15 0.928 1_455 S
C25 C21 1.377 . S
C25 C24 1.394 . S
H26 C33 0.928 1_565 S
H27 C36 0.931 . S
H28 C38 0.928 1_565 S
H29 C30 0.969 . S
C30 H29 0.969 . S
C30 O31 1.550 1_545 S
C30 H32 0.973 1_545 S
O31 C30 1.550 1_565 S
O31 C37 1.404 1_565 S
H32 C30 0.973 1_565 S
C33 H26 0.928 1_545 S
C33 C34 1.399 . S
C33 C35 1.364 . S
C34 C33 1.399 . S
C34 C38 1.377 . S
C35 C33 1.364 . S
C35 C36 1.374 1_545 S
C36 H27 0.931 . S
C36 C35 1.374 1_565 S
C36 C37 1.382 1_565 S
C37 O31 1.404 1_545 S
C37 C36 1.382 1_545 S
C37 C38 1.394 . S
C38 H28 0.928 1_545 S
C38 C34 1.377 . S
C38 C37 1.394 . S
H39 C46 0.929 . S
H40 C49 0.930 . S
H41 C51 0.929 . S
H42 C43 0.969 . S
C43 H42 0.969 . S
C43 O44 1.550 . S
C43 H45 0.973 . S
O44 C43 1.550 . S
O44 C50 1.412 . S
H45 C43 0.973 . S
C46 H39 0.929 . S
C46 C47 1.400 . S
C46 C48 1.364 . S
C47 C46 1.400 . S
C47 C51 1.377 . S
C48 C46 1.364 . S
C48 C49 1.374 . S
C49 H40 0.930 . S
C49 C48 1.374 . S
C49 C50 1.383 . S
C50 O44 1.412 . S
C50 C49 1.383 . S
C50 C51 1.394 . S
C51 H41 0.929 . S
C51 C47 1.377 . S
C51 C50 1.394 . S
H52 C59 0.929 1_556 S
H53 C62 0.930 . S
H54 C64 0.929 . S
H55 C56 0.969 . S
C56 H55 0.969 . S
C56 O57 1.550 . S
C56 H58 0.973 . S
O57 C56 1.550 . S
O57 C63 1.412 . S
H58 C56 0.973 . S
C59 H52 0.929 1_554 S
C59 C60 1.400 1_554 S
C59 C61 1.364 . S
C60 C59 1.400 1_556 S
C60 C64 1.377 . S
C61 C59 1.364 . S
C61 C62 1.374 . S
C62 H53 0.930 . S
C62 C61 1.374 . S
C62 C63 1.383 . S
C63 O57 1.412 . S
C63 C62 1.383 . S
C63 C64 1.394 1_554 S
C64 H54 0.929 . S
C64 C60 1.377 . S
C64 C63 1.394 1_556 S
H65 C72 0.929 1_655 S
H66 C75 0.930 . S
H67 C77 0.928 1_655 S
H68 C69 0.969 . S
C69 H68 0.969 . S
C69 O70 1.550 1_455 S
C69 H71 0.973 1_455 S
O70 C69 1.550 1_655 S
O70 C76 1.412 1_655 S
H71 C69 0.973 1_655 S
C72 H65 0.929 1_455 S
C72 C73 1.400 1_554 S
C72 C74 1.364 . S
C73 C72 1.400 1_556 S
C73 C77 1.377 . S
C74 C72 1.364 . S
C74 C75 1.374 1_455 S
C75 H66 0.930 . S
C75 C74 1.374 1_655 S
C75 C76 1.383 1_655 S
C76 O70 1.412 1_455 S
C76 C75 1.383 1_455 S
C76 C77 1.395 1_554 S
C77 H67 0.928 1_455 S
C77 C73 1.377 . S
C77 C76 1.395 1_556 S
H78 C85 0.928 1_566 S
H79 C88 0.930 . S
H80 C90 0.928 1_565 S
H81 C82 0.969 . S
C82 H81 0.969 . S
C82 O83 1.550 1_545 S
C82 H84 0.973 1_545 S
O83 C82 1.550 1_565 S
O83 C89 1.412 1_565 S
H84 C82 0.973 1_565 S
C85 H78 0.928 1_544 S
C85 C86 1.400 1_554 S
C85 C87 1.364 . S
C86 C85 1.400 1_556 S
C86 C90 1.377 . S
C87 C85 1.364 . S
C87 C88 1.374 1_545 S
C88 H79 0.930 . S
C88 C87 1.374 1_565 S
C88 C89 1.383 1_565 S
C89 O83 1.412 1_545 S
C89 C88 1.383 1_545 S
C89 C90 1.395 1_554 S
C90 H80 0.928 1_545 S
C90 C86 1.377 . S
C90 C89 1.395 1_556 S
H91 C98 0.929 1_556 S
H92 C101 0.930 . S
H93 C103 0.929 . S
H94 C95 0.969 . S
C95 H94 0.969 . S
C95 O96 1.550 . S
C95 H97 0.973 . S
O96 C95 1.550 . S
O96 C102 1.412 . S
H97 C95 0.973 . S
C98 H91 0.929 1_554 S
C98 C99 1.400 1_554 S
C98 C100 1.364 . S
C99 C98 1.400 1_556 S
C99 C103 1.377 . S
C100 C98 1.364 . S
C100 C101 1.374 . S
C101 H92 0.930 . S
C101 C100 1.374 . S
C101 C102 1.383 . S
C102 O96 1.412 . S
C102 C101 1.383 . S
C102 C103 1.394 1_554 S
C103 H93 0.929 . S
C103 C99 1.377 . S
C103 C102 1.394 1_556 S
Gd104 C107 2.818 1_556 S
Gd104 O124 2.377 . S
Gd104 O126 2.448 1_556 S
Gd104 O127 2.506 1_556 S
Gd104 O128 2.435 . S
Gd104 O129 2.717 1_565 S
Gd104 O131 2.395 1_565 S
Gd104 O135 2.327 1_455 S
Gd105 C116 2.818 . S
Gd105 O125 2.395 1_545 S
Gd105 O129 2.327 1_655 S
Gd105 O130 2.377 . S
Gd105 O132 2.448 . S
Gd105 O133 2.506 . S
Gd105 O134 2.435 . S
Gd105 O135 2.717 1_545 S
C106 O124 1.240 1_655 S
C106 O125 1.240 . S
C107 Gd104 2.818 1_554 S
C107 C108 1.510 . S
C107 O126 1.249 . S
C107 O127 1.252 . S
C108 C107 1.510 . S
C108 C109 1.404 . S
C108 C110 1.352 . S
C109 C108 1.404 . S
C109 C113 1.389 . S
C109 H136 0.930 . S
C110 C108 1.352 . S
C110 C112 1.374 . S
C110 H137 0.931 1_455 S
C111 C112 1.359 . S
C111 C113 1.364 . S
C112 C110 1.374 . S
C112 C111 1.359 . S
C112 H138 0.931 1_455 S
C113 C109 1.389 . S
C113 C111 1.364 . S
C113 H139 0.931 . S
C114 O128 1.256 . S
C114 O129 1.257 1_565 S
C115 O130 1.240 1_455 S
C115 O131 1.240 . S
C116 Gd105 2.818 . S
C116 C117 1.510 . S
C116 O132 1.249 . S
C116 O133 1.252 . S
C117 C116 1.510 . S
C117 C118 1.404 . S
C117 C119 1.352 . S
C118 C117 1.404 . S
C118 C122 1.389 . S
C118 H140 0.930 . S
C119 C117 1.352 . S
C119 C121 1.374 . S
C119 H141 0.931 1_655 S
C120 C121 1.359 . S
C120 C122 1.364 . S
C121 C119 1.374 . S
C121 C120 1.359 . S
C121 H142 0.931 1_655 S
C122 C118 1.389 . S
C122 C120 1.364 . S
C122 H143 0.931 . S
C123 O134 1.256 . S
C123 O135 1.257 1_545 S
O124 Gd104 2.377 . S
O124 C106 1.240 1_455 S
O125 Gd105 2.395 1_565 S
O125 C106 1.240 . S
O126 Gd104 2.448 1_554 S
O126 C107 1.249 . S
O127 Gd104 2.506 1_554 S
O127 C107 1.252 . S
O128 Gd104 2.435 . S
O128 C114 1.256 . S
O129 Gd104 2.717 1_545 S
O129 Gd105 2.327 1_455 S
O129 C114 1.257 1_545 S
O130 Gd105 2.377 . S
O130 C115 1.240 1_655 S
O131 Gd104 2.395 1_545 S
O131 C115 1.240 . S
O132 Gd105 2.448 . S
O132 C116 1.249 . S
O133 Gd105 2.506 . S
O133 C116 1.252 . S
O134 Gd105 2.435 . S
O134 C123 1.256 . S
O135 Gd104 2.327 1_655 S
O135 Gd105 2.717 1_565 S
O135 C123 1.257 1_565 S
H136 C109 0.930 . S
H137 C110 0.931 1_655 S
H138 C112 0.931 1_655 S
H139 C113 0.931 . S
H140 C118 0.930 . S
H141 C119 0.931 1_455 S
H142 C121 0.931 1_455 S
H143 C122 0.931 . S
Gd144 C147 2.818 1_556 S
Gd144 O164 2.377 . S
Gd144 O166 2.448 1_556 S
Gd144 O167 2.506 1_556 S
Gd144 O168 2.435 . S
Gd144 O169 2.717 . S
Gd144 O171 2.395 . S
Gd144 O175 2.327 1_545 S
Gd145 C156 2.818 . S
Gd145 O165 2.395 . S
Gd145 O169 2.327 1_565 S
Gd145 O170 2.377 . S
Gd145 O172 2.448 . S
Gd145 O173 2.506 . S
Gd145 O174 2.435 . S
Gd145 O175 2.717 . S
C146 O164 1.240 1_565 S
C146 O165 1.240 . S
C147 Gd144 2.818 1_554 S
C147 C148 1.510 . S
C147 O166 1.249 . S
C147 O167 1.252 . S
C148 C147 1.510 . S
C148 C149 1.404 . S
C148 C150 1.352 . S
C149 C148 1.404 . S
C149 C153 1.389 . S
C149 H176 0.930 . S
C150 C148 1.352 . S
C150 C152 1.374 . S
C150 H177 0.931 1_545 S
C151 C152 1.359 . S
C151 C153 1.364 . S
C152 C150 1.374 . S
C152 C151 1.359 . S
C152 H178 0.931 1_545 S
C153 C149 1.389 . S
C153 C151 1.364 . S
C153 H179 0.931 . S
C154 O168 1.256 . S
C154 O169 1.257 . S
C155 O170 1.240 1_545 S
C155 O171 1.240 . S
C156 Gd145 2.818 . S
C156 C157 1.510 . S
C156 O172 1.249 . S
C156 O173 1.252 . S
C157 C156 1.510 . S
C157 C158 1.404 . S
C157 C159 1.352 . S
C158 C157 1.404 . S
C158 C162 1.389 . S
C158 H180 0.930 . S
C159 C157 1.352 . S
C159 C161 1.374 . S
C159 H181 0.931 1_565 S
C160 C161 1.359 . S
C160 C162 1.364 . S
C161 C159 1.374 . S
C161 C160 1.359 . S
C161 H182 0.931 1_565 S
C162 C158 1.389 . S
C162 C160 1.364 . S
C162 H183 0.931 . S
C163 O174 1.256 . S
C163 O175 1.257 . S
O164 Gd144 2.377 . S
O164 C146 1.240 1_545 S
O165 Gd145 2.395 . S
O165 C146 1.240 . S
O166 Gd144 2.448 1_554 S
O166 C147 1.249 . S
O167 Gd144 2.506 1_554 S
O167 C147 1.252 . S
O168 Gd144 2.435 . S
O168 C154 1.256 . S
O169 Gd144 2.717 . S
O169 Gd145 2.327 1_545 S
O169 C154 1.257 . S
O170 Gd145 2.377 . S
O170 C155 1.240 1_565 S
O171 Gd144 2.395 . S
O171 C155 1.240 . S
O172 Gd145 2.448 . S
O172 C156 1.249 . S
O173 Gd145 2.506 . S
O173 C156 1.252 . S
O174 Gd145 2.435 . S
O174 C163 1.256 . S
O175 Gd144 2.327 1_565 S
O175 Gd145 2.717 . S
O175 C163 1.257 . S
H176 C149 0.930 . S
H177 C150 0.931 1_565 S
H178 C152 0.931 1_565 S
H179 C153 0.931 . S
H180 C158 0.930 . S
H181 C159 0.931 1_545 S
H182 C161 0.931 1_545 S
H183 C162 0.931 . S
Gd184 C187 2.818 1_556 S
Gd184 O204 2.377 . S
Gd184 O206 2.448 1_556 S
Gd184 O207 2.506 1_556 S
Gd184 O208 2.435 . S
Gd184 O209 2.717 . S
Gd184 O211 2.395 . S
Gd184 O215 2.327 . S
Gd185 C196 2.818 . S
Gd185 O205 2.395 . S
Gd185 O209 2.327 . S
Gd185 O210 2.377 . S
Gd185 O212 2.448 . S
Gd185 O213 2.506 . S
Gd185 O214 2.435 . S
Gd185 O215 2.717 . S
C186 O204 1.240 . S
C186 O205 1.240 . S
C187 Gd184 2.818 1_554 S
C187 C188 1.510 . S
C187 O206 1.249 . S
C187 O207 1.252 . S
C188 C187 1.510 . S
C188 C189 1.404 . S
C188 C190 1.352 . S
C189 C188 1.404 . S
C189 C193 1.389 . S
C189 H216 0.930 . S
C190 C188 1.352 . S
C190 C192 1.374 . S
C190 H217 0.931 . S
C191 C192 1.359 . S
C191 C193 1.364 . S
C192 C190 1.374 . S
C192 C191 1.359 . S
C192 H218 0.931 . S
C193 C189 1.389 . S
C193 C191 1.364 . S
C193 H219 0.931 . S
C194 O208 1.256 . S
C194 O209 1.257 . S
C195 O210 1.240 . S
C195 O211 1.240 . S
C196 Gd185 2.818 . S
C196 C197 1.510 . S
C196 O212 1.249 . S
C196 O213 1.252 . S
C197 C196 1.510 . S
C197 C198 1.404 . S
C197 C199 1.352 . S
C198 C197 1.404 . S
C198 C202 1.389 . S
C198 H220 0.930 . S
C199 C197 1.352 . S
C199 C201 1.374 . S
C199 H221 0.931 . S
C200 C201 1.359 . S
C200 C202 1.364 . S
C201 C199 1.374 . S
C201 C200 1.359 . S
C201 H222 0.931 . S
C202 C198 1.389 . S
C202 C200 1.364 . S
C202 H223 0.931 . S
C203 O214 1.256 . S
C203 O215 1.257 . S
O204 Gd184 2.377 . S
O204 C186 1.240 . S
O205 Gd185 2.395 . S
O205 C186 1.240 . S
O206 Gd184 2.448 1_554 S
O206 C187 1.249 . S
O207 Gd184 2.506 1_554 S
O207 C187 1.252 . S
O208 Gd184 2.435 . S
O208 C194 1.256 . S
O209 Gd184 2.717 . S
O209 Gd185 2.327 . S
O209 C194 1.257 . S
O210 Gd185 2.377 . S
O210 C195 1.240 . S
O211 Gd184 2.395 . S
O211 C195 1.240 . S
O212 Gd185 2.448 . S
O212 C196 1.249 . S
O213 Gd185 2.506 . S
O213 C196 1.252 . S
O214 Gd185 2.435 . S
O214 C203 1.256 . S
O215 Gd184 2.327 . S
O215 Gd185 2.717 . S
O215 C203 1.257 . S
H216 C189 0.930 . S
H217 C190 0.931 . S
H218 C192 0.931 . S
H219 C193 0.931 . S
H220 C198 0.930 . S
H221 C199 0.931 . S
H222 C201 0.931 . S
H223 C202 0.931 . S
Gd224 C227 2.818 1_556 S
Gd224 O244 2.377 . S
Gd224 O246 2.448 1_556 S
Gd224 O247 2.506 1_556 S
Gd224 O248 2.435 . S
Gd224 O249 2.717 1_655 S
Gd224 O251 2.395 1_655 S
Gd224 O255 2.327 . S
Gd225 C236 2.818 . S
Gd225 O245 2.395 1_455 S
Gd225 O249 2.327 . S
Gd225 O250 2.377 . S
Gd225 O252 2.448 . S
Gd225 O253 2.506 . S
Gd225 O254 2.435 . S
Gd225 O255 2.717 1_455 S
C226 O244 1.240 . S
C226 O245 1.240 . S
C227 Gd224 2.818 1_554 S
C227 C228 1.510 . S
C227 O246 1.249 . S
C227 O247 1.252 . S
C228 C227 1.510 . S
C228 C229 1.404 . S
C228 C230 1.352 . S
C229 C228 1.404 . S
C229 C233 1.389 . S
C229 H256 0.930 . S
C230 C228 1.352 . S
C230 C232 1.374 . S
C230 H257 0.931 . S
C231 C232 1.359 . S
C231 C233 1.364 . S
C232 C230 1.374 . S
C232 C231 1.359 . S
C232 H258 0.931 . S
C233 C229 1.389 . S
C233 C231 1.364 . S
C233 H259 0.931 . S
C234 O248 1.271 . S
C234 O249 1.249 1_655 S
C235 O250 1.240 . S
C235 O251 1.240 . S
C236 Gd225 2.818 . S
C236 C237 1.510 . S
C236 O252 1.249 . S
C236 O253 1.252 . S
C237 C236 1.510 . S
C237 C238 1.404 . S
C237 C239 1.352 . S
C238 C237 1.404 . S
C238 C242 1.389 . S
C238 H260 0.930 . S
C239 C237 1.352 . S
C239 C241 1.374 . S
C239 H261 0.931 . S
C240 C241 1.359 . S
C240 C242 1.364 . S
C241 C239 1.374 . S
C241 C240 1.359 . S
C241 H262 0.931 . S
C242 C238 1.389 . S
C242 C240 1.364 . S
C242 H263 0.931 . S
C243 O254 1.256 . S
C243 O255 1.257 1_455 S
O244 Gd224 2.377 . S
O244 C226 1.240 . S
O245 Gd225 2.395 1_655 S
O245 C226 1.240 . S
O246 Gd224 2.448 1_554 S
O246 C227 1.249 . S
O247 Gd224 2.506 1_554 S
O247 C227 1.252 . S
O248 Gd224 2.435 . S
O248 C234 1.271 . S
O249 Gd224 2.717 1_455 S
O249 Gd225 2.327 . S
O249 C234 1.249 1_455 S
O250 Gd225 2.377 . S
O250 C235 1.240 . S
O251 Gd224 2.395 1_455 S
O251 C235 1.240 . S
O252 Gd225 2.448 . S
O252 C236 1.249 . S
O253 Gd225 2.506 . S
O253 C236 1.252 . S
O254 Gd225 2.435 . S
O254 C243 1.256 . S
O255 Gd224 2.327 . S
O255 Gd225 2.717 1_655 S
O255 C243 1.257 1_655 S
H256 C229 0.930 . S
H257 C230 0.931 . S
H258 C232 0.931 . S
H259 C233 0.931 . S
H260 C238 0.930 . S
H261 C239 0.931 . S
H262 C241 0.931 . S
H263 C242 0.931 . S
C264 C265 1.373 . S
C264 C266 1.419 . S
C264 H268 0.930 . S
C265 C264 1.373 . S
C265 C274 1.426 1_545 S
C266 C264 1.419 . S
C266 C267 1.363 . S
C266 H269 0.929 . S
C267 C266 1.363 . S
C267 C273 1.428 1_545 S
H268 C264 0.930 . S
H269 C266 0.929 . S
S270 N271 1.613 . S
S270 N272 1.610 . S
N271 S270 1.613 . S
N271 C274 1.350 . S
N272 S270 1.610 . S
N272 C273 1.351 . S
C273 C267 1.428 1_565 S
C273 N272 1.351 . S
C273 C274 1.434 . S
C274 C265 1.426 1_565 S
C274 N271 1.350 . S
C274 C273 1.434 . S
C275 C276 1.369 . S
C275 C277 1.419 . S
C275 H279 0.930 . S
C276 C275 1.369 . S
C276 C285 1.429 . S
C277 C275 1.419 . S
C277 C278 1.363 . S
C277 H280 0.929 . S
C278 C277 1.363 . S
C278 C284 1.428 . S
H279 C275 0.930 . S
H280 C277 0.929 . S
S281 N282 1.613 . S
S281 N283 1.610 . S
N282 S281 1.613 . S
N282 C285 1.350 . S
N283 S281 1.610 . S
N283 C284 1.351 . S
C284 C278 1.428 . S
C284 N283 1.351 . S
C284 C285 1.434 . S
C285 C276 1.429 . S
C285 N282 1.350 . S
C285 C284 1.434 . S
C286 C287 1.369 . S
C286 C288 1.419 . S
C286 H290 0.930 . S
C287 C286 1.369 . S
C287 C296 1.429 . S
C288 C286 1.419 . S
C288 C289 1.363 . S
C288 H291 0.929 . S
C289 C288 1.363 . S
C289 C295 1.428 . S
H290 C286 0.930 . S
H291 C288 0.929 . S
S292 N293 1.613 . S
S292 N294 1.610 . S
N293 S292 1.613 . S
N293 C296 1.350 . S
N294 S292 1.610 . S
N294 C295 1.351 . S
C295 C289 1.428 . S
C295 N294 1.351 . S
C295 C296 1.434 . S
C296 C287 1.429 . S
C296 N293 1.350 . S
C296 C295 1.434 . S
C297 C298 1.369 1_655 S
C297 C299 1.419 . S
C297 H301 0.930 . S
C298 C297 1.369 1_455 S
C298 C307 1.429 . S
C299 C297 1.419 . S
C299 C300 1.363 1_655 S
C299 H302 0.929 . S
C300 C299 1.363 1_455 S
C300 C306 1.428 . S
H301 C297 0.930 . S
H302 C299 0.929 . S
S303 N304 1.613 . S
S303 N305 1.610 . S
N304 S303 1.613 . S
N304 C307 1.350 . S
N305 S303 1.610 . S
N305 C306 1.351 . S
C306 C300 1.428 . S
C306 N305 1.351 . S
C306 C307 1.434 . S
C307 C298 1.429 . S
C307 N304 1.350 . S
C307 C306 1.434 . S
C308 C309 1.367 . S
C308 C310 1.419 . S
C308 H312 0.930 . S
C309 C308 1.367 . S
C309 C318 1.431 1_565 S
C310 C308 1.419 . S
C310 C311 1.363 . S
C310 H313 0.929 . S
C311 C310 1.363 . S
C311 C317 1.428 1_565 S
H312 C308 0.930 . S
H313 C310 0.929 . S
S314 N315 1.613 . S
S314 N316 1.610 . S
N315 S314 1.613 . S
N315 C318 1.350 . S
N316 S314 1.610 . S
N316 C317 1.351 . S
C317 C311 1.428 1_545 S
C317 N316 1.351 . S
C317 C318 1.434 . S
C318 C309 1.431 1_545 S
C318 N315 1.350 . S
C318 C317 1.434 . S
C319 C320 1.369 . S
C319 C321 1.419 . S
C319 H323 0.930 . S
C320 C319 1.369 . S
C320 C329 1.429 . S
C321 C319 1.419 . S
C321 C322 1.363 . S
C321 H324 0.929 . S
C322 C321 1.363 . S
C322 C328 1.428 . S
H323 C319 0.930 . S
H324 C321 0.929 . S
S325 N326 1.613 . S
S325 N327 1.610 . S
N326 S325 1.613 . S
N326 C329 1.350 . S
N327 S325 1.610 . S
N327 C328 1.351 . S
C328 C322 1.428 . S
C328 N327 1.351 . S
C328 C329 1.434 . S
C329 C320 1.429 . S
C329 N326 1.350 . S
C329 C328 1.434 . S
C330 C331 1.369 . S
C330 C332 1.419 . S
C330 H334 0.930 . S
C331 C330 1.369 . S
C331 C340 1.429 . S
C332 C330 1.419 . S
C332 C333 1.363 . S
C332 H335 0.929 . S
C333 C332 1.363 . S
C333 C339 1.428 . S
H334 C330 0.930 . S
H335 C332 0.929 . S
S336 N337 1.613 . S
S336 N338 1.610 . S
N337 S336 1.613 . S
N337 C340 1.350 . S
N338 S336 1.610 . S
N338 C339 1.351 . S
C339 C333 1.428 . S
C339 N338 1.351 . S
C339 C340 1.434 . S
C340 C331 1.429 . S
C340 N337 1.350 . S
C340 C339 1.434 . S
C341 C342 1.369 1_455 S
C341 C343 1.419 . S
C341 H345 0.930 . S
C342 C341 1.369 1_655 S
C342 C351 1.429 . S
C343 C341 1.419 . S
C343 C344 1.363 1_455 S
C343 H346 0.929 . S
C344 C343 1.363 1_655 S
C344 C350 1.428 . S
H345 C341 0.930 . S
H346 C343 0.929 . S
S347 N348 1.613 . S
S347 N349 1.610 . S
N348 S347 1.613 . S
N348 C351 1.350 . S
N349 S347 1.610 . S
N349 C350 1.351 . S
C350 C344 1.428 . S
C350 N349 1.351 . S
C350 C351 1.434 . S
C351 C342 1.429 . S
C351 N348 1.350 . S
C351 C350 1.434 . S
C352 C353 1.369 . S
C352 C354 1.419 . S
C352 H356 0.930 . S
C353 C352 1.369 . S
C353 C362 1.429 1_655 S
C354 C352 1.419 . S
C354 C355 1.363 . S
C354 H357 0.929 . S
C355 C354 1.363 . S
C355 C361 1.428 . S
H356 C352 0.930 . S
H357 C354 0.929 . S
S358 N359 1.613 . S
S358 N360 1.610 1_455 S
N359 S358 1.613 . S
N359 C362 1.350 . S
N360 S358 1.610 1_655 S
N360 C361 1.351 . S
C361 C355 1.428 . S
C361 N360 1.351 . S
C361 C362 1.434 1_655 S
C362 C353 1.429 1_455 S
C362 N359 1.350 . S
C362 C361 1.434 1_455 S
C363 C364 1.369 . S
C363 C365 1.419 . S
C363 H367 0.930 . S
C364 C363 1.369 . S
C364 C373 1.429 . S
C365 C363 1.419 . S
C365 C366 1.363 . S
C365 H368 0.929 . S
C366 C365 1.363 . S
C366 C372 1.428 . S
H367 C363 0.930 . S
H368 C365 0.929 . S
S369 N370 1.613 . S
S369 N371 1.610 1_545 S
N370 S369 1.613 . S
N370 C373 1.350 1_545 S
N371 S369 1.610 1_565 S
N371 C372 1.351 . S
C372 C366 1.428 . S
C372 N371 1.351 . S
C372 C373 1.434 . S
C373 C364 1.429 . S
C373 N370 1.350 1_565 S
C373 C372 1.434 . S
C374 C375 1.369 . S
C374 C376 1.419 . S
C374 H378 0.930 . S
C375 C374 1.369 . S
C375 C384 1.429 . S
C376 C374 1.419 . S
C376 C377 1.363 . S
C376 H379 0.929 . S
C377 C376 1.363 . S
C377 C383 1.428 . S
H378 C374 0.930 . S
H379 C376 0.929 . S
S380 N381 1.613 . S
S380 N382 1.610 . S
N381 S380 1.613 . S
N381 C384 1.350 . S
N382 S380 1.610 . S
N382 C383 1.351 . S
C383 C377 1.428 . S
C383 N382 1.351 . S
C383 C384 1.434 . S
C384 C375 1.429 . S
C384 N381 1.350 . S
C384 C383 1.434 . S
C385 C386 1.369 . S
C385 C387 1.419 . S
C385 H389 0.930 . S
C386 C385 1.369 . S
C386 C395 1.429 . S
C387 C385 1.419 . S
C387 C388 1.363 . S
C387 H390 0.929 . S
C388 C387 1.363 . S
C388 C394 1.428 . S
H389 C385 0.930 . S
H390 C387 0.929 . S
S391 N392 1.613 . S
S391 N393 1.610 . S
N392 S391 1.613 . S
N392 C395 1.350 . S
N393 S391 1.610 . S
N393 C394 1.351 . S
C394 C388 1.428 . S
C394 N393 1.351 . S
C394 C395 1.434 . S
C395 C386 1.429 . S
C395 N392 1.350 . S
C395 C394 1.434 . S
C396 C397 1.369 . S
C396 C398 1.419 . S
C396 H400 0.930 . S
C397 C396 1.369 . S
C397 C406 1.429 1_455 S
C398 C396 1.419 . S
C398 C399 1.363 . S
C398 H401 0.929 . S
C399 C398 1.363 . S
C399 C405 1.428 . S
H400 C396 0.930 . S
H401 C398 0.929 . S
S402 N403 1.613 . S
S402 N404 1.610 1_655 S
N403 S402 1.613 . S
N403 C406 1.350 . S
N404 S402 1.610 1_455 S
N404 C405 1.351 . S
C405 C399 1.428 . S
C405 N404 1.351 . S
C405 C406 1.434 1_455 S
C406 C397 1.429 1_655 S
C406 N403 1.350 . S
C406 C405 1.434 1_655 S
C407 C408 1.369 . S
C407 C409 1.419 . S
C407 H411 0.930 1_545 S
C408 C407 1.369 . S
C408 C417 1.429 . S
C409 C407 1.419 . S
C409 C410 1.363 . S
C409 H412 0.929 . S
C410 C409 1.363 . S
C410 C416 1.428 . S
H411 C407 0.930 1_565 S
H412 C409 0.929 . S
S413 N414 1.613 . S
S413 N415 1.610 . S
N414 S413 1.613 . S
N414 C417 1.350 . S
N415 S413 1.610 . S
N415 C416 1.351 . S
C416 C410 1.428 . S
C416 N415 1.351 . S
C416 C417 1.434 . S
C417 C408 1.429 . S
C417 N414 1.350 . S
C417 C416 1.434 . S
C418 C419 1.369 . S
C418 C420 1.419 . S
C418 H422 0.930 . S
C419 C418 1.369 . S
C419 C428 1.429 . S
C420 C418 1.419 . S
C420 C421 1.363 . S
C420 H423 0.929 . S
C421 C420 1.363 . S
C421 C427 1.428 . S
H422 C418 0.930 . S
H423 C420 0.929 . S
S424 N425 1.613 . S
S424 N426 1.610 . S
N425 S424 1.613 . S
N425 C428 1.350 . S
N426 S424 1.610 . S
N426 C427 1.351 . S
C427 C421 1.428 . S
C427 N426 1.351 . S
C427 C428 1.434 . S
C428 C419 1.429 . S
C428 N425 1.350 . S
C428 C427 1.434 . S
C429 C430 1.369 . S
C429 C431 1.419 . S
C429 H433 0.930 . S
C430 C429 1.369 . S
C430 C439 1.429 . S
C431 C429 1.419 . S
C431 C432 1.363 . S
C431 H434 0.929 . S
C432 C431 1.363 . S
C432 C438 1.428 . S
H433 C429 0.930 . S
H434 C431 0.929 . S
S435 N436 1.613 . S
S435 N437 1.610 . S
N436 S435 1.613 . S
N436 C439 1.350 . S
N437 S435 1.610 . S
N437 C438 1.351 . S
C438 C432 1.428 . S
C438 N437 1.351 . S
C438 C439 1.434 . S
C439 C430 1.429 . S
C439 N436 1.350 . S
C439 C438 1.434 . S
C440 C441 1.369 . S
C440 C442 1.419 . S
C440 H444 0.930 . S
C441 C440 1.369 . S
C441 C450 1.429 1_455 S
C442 C440 1.419 . S
C442 C443 1.363 . S
C442 H445 0.929 . S
C443 C442 1.363 . S
C443 C449 1.428 1_455 S
H444 C440 0.930 . S
H445 C442 0.929 . S
S446 N447 1.613 . S
S446 N448 1.610 . S
N447 S446 1.613 . S
N447 C450 1.350 1_554 S
N448 S446 1.610 . S
N448 C449 1.351 1_554 S
C449 C443 1.428 1_655 S
C449 N448 1.351 1_556 S
C449 C450 1.434 . S
C450 C441 1.429 1_655 S
C450 N447 1.350 1_556 S
C450 C449 1.434 . S
C451 C452 1.369 . S
C451 C453 1.419 . S
C451 H455 0.930 1_556 S
C452 C451 1.369 . S
C452 C461 1.429 . S
C453 C451 1.419 . S
C453 C454 1.363 . S
C453 H456 0.929 1_556 S
C454 C453 1.363 . S
C454 C460 1.428 . S
H455 C451 0.930 1_554 S
H456 C453 0.929 1_554 S
S457 N458 1.613 . S
S457 N459 1.610 . S
N458 S457 1.613 . S
N458 C461 1.350 . S
N459 S457 1.610 . S
N459 C460 1.351 . S
C460 C454 1.428 . S
C460 N459 1.351 . S
C460 C461 1.434 . S
C461 C452 1.429 . S
C461 N458 1.350 . S
C461 C460 1.434 . S
C462 C463 1.369 . S
C462 C464 1.419 . S
C462 H466 0.930 . S
C463 C462 1.369 . S
C463 C472 1.429 . S
C464 C462 1.419 . S
C464 C465 1.363 . S
C464 H467 0.929 . S
C465 C464 1.363 . S
C465 C471 1.428 . S
H466 C462 0.930 . S
H467 C464 0.929 . S
S468 N469 1.613 . S
S468 N470 1.610 . S
N469 S468 1.613 . S
N469 C472 1.350 1_554 S
N470 S468 1.610 . S
N470 C471 1.351 1_554 S
C471 C465 1.428 . S
C471 N470 1.351 1_556 S
C471 C472 1.434 . S
C472 C463 1.429 . S
C472 N469 1.350 1_556 S
C472 C471 1.434 . S
C473 C474 1.369 . S
C473 C475 1.419 . S
C473 H477 0.930 . S
C474 C473 1.369 . S
C474 C483 1.429 . S
C475 C473 1.419 . S
C475 C476 1.363 . S
C475 H478 0.929 . S
C476 C475 1.363 . S
C476 C482 1.428 . S
H477 C473 0.930 . S
H478 C475 0.929 . S
S479 N480 1.613 . S
S479 N481 1.610 . S
N480 S479 1.613 . S
N480 C483 1.350 . S
N481 S479 1.610 . S
N481 C482 1.351 . S
C482 C476 1.428 . S
C482 N481 1.351 . S
C482 C483 1.434 . S
C483 C474 1.429 . S
C483 N480 1.350 . S
C483 C482 1.434 . S
C484 C485 1.369 . S
C484 C486 1.419 . S
C484 H488 0.930 . S
C485 C484 1.369 . S
C485 C494 1.429 . S
C486 C484 1.419 . S
C486 C487 1.363 . S
C486 H489 0.929 . S
C487 C486 1.363 . S
C487 C493 1.428 . S
H488 C484 0.930 . S
H489 C486 0.929 . S
S490 N491 1.613 . S
S490 N492 1.610 . S
N491 S490 1.613 . S
N491 C494 1.350 . S
N492 S490 1.610 . S
N492 C493 1.351 . S
C493 C487 1.428 . S
C493 N492 1.351 . S
C493 C494 1.434 . S
C494 C485 1.429 . S
C494 N491 1.350 . S
C494 C493 1.434 . S
C495 C496 1.369 1_545 S
C495 C497 1.419 . S
C495 H499 0.930 . S
C496 C495 1.369 1_565 S
C496 C505 1.429 . S
C497 C495 1.419 . S
C497 C498 1.363 1_545 S
C497 H500 0.929 . S
C498 C497 1.363 1_565 S
C498 C504 1.428 . S
H499 C495 0.930 . S
H500 C497 0.929 . S
S501 N502 1.613 . S
S501 N503 1.610 . S
N502 S501 1.613 . S
N502 C505 1.350 . S
N503 S501 1.610 . S
N503 C504 1.351 . S
C504 C498 1.428 . S
C504 N503 1.351 . S
C504 C505 1.434 . S
C505 C496 1.429 . S
C505 N502 1.350 . S
C505 C504 1.434 . S
C506 C507 1.369 . S
C506 C508 1.419 . S
C506 H510 0.930 . S
C507 C506 1.369 . S
C507 C516 1.429 . S
C508 C506 1.419 . S
C508 C509 1.363 . S
C508 H511 0.929 . S
C509 C508 1.363 . S
C509 C515 1.428 . S
H510 C506 0.930 . S
H511 C508 0.929 . S
S512 N513 1.613 1_554 S
S512 N514 1.610 1_554 S
N513 S512 1.613 1_556 S
N513 C516 1.350 . S
N514 S512 1.610 1_556 S
N514 C515 1.351 . S
C515 C509 1.428 . S
C515 N514 1.351 . S
C515 C516 1.434 . S
C516 C507 1.429 . S
C516 N513 1.350 . S
C516 C515 1.434 . S
C517 C518 1.369 . S
C517 C519 1.419 . S
C517 H521 0.930 . S
C518 C517 1.369 . S
C518 C527 1.429 . S
C519 C517 1.419 . S
C519 C520 1.363 . S
C519 H522 0.929 . S
C520 C519 1.363 . S
C520 C526 1.428 . S
H521 C517 0.930 . S
H522 C519 0.929 . S
S523 N524 1.613 . S
S523 N525 1.610 . S
N524 S523 1.613 . S
N524 C527 1.350 . S
N525 S523 1.610 . S
N525 C526 1.351 . S
C526 C520 1.428 . S
C526 N525 1.351 . S
C526 C527 1.434 . S
C527 C518 1.429 . S
C527 N524 1.350 . S
C527 C526 1.434 . S
C265 C82 1.771 . S
C267 C114 2.185 1_545 S
C278 C154 2.194 . S
C276 C95 1.766 . S
C289 C194 2.199 . S
C287 C56 1.777 . S
C300 C234 2.192 1_455 S
C298 C69 1.760 . S
C311 C123 2.187 1_564 S
C309 C30 1.769 1_565 S
C320 C43 1.786 . S
C322 C163 2.198 1_554 S
C331 C4 1.788 . S
C333 C203 2.201 1_554 S
C342 C17 1.776 1_655 S
C344 C243 2.194 1_654 S
C355 C120 0.808 . S
C353 C74 0.834 1_655 S
C366 C160 0.817 . S
C364 C87 0.821 1_565 S
C377 C200 0.820 . S
C375 C100 0.825 . S
C386 C61 0.829 . S
C388 C240 0.801 . S
C397 C22 0.837 . S
C399 C111 0.815 . S
C410 C151 0.823 . S
C408 C35 0.827 . S
C421 C191 0.823 . S
C419 C48 0.811 . S
C430 C9 0.820 . S
C432 C231 0.814 . S
C441 C73 2.210 . S
C443 C115 2.537 . S
C452 C86 2.203 . S
C454 C155 2.521 . S
C465 C195 2.516 . S
C463 C99 2.184 . S
C476 C235 2.535 . S
C474 C60 2.207 . S
C485 C21 2.212 1_655 S
C487 C106 2.544 . S
C498 C146 2.523 . S
C496 C34 2.197 1_565 S
C509 C186 2.515 . S
C507 C47 2.200 . S
C518 C8 2.217 . S
C520 C226 2.536 . S
