# Generated by pormake.
# Topology anh, (6,3)-cn, num edge types: 1
# Building blocks:
#     Node 0, Type 0, BuildingBlock: BETDAH_clean_sbu_0, # of connection points: 6
#     Node 1, Type 0, BuildingBlock: BETDAH_clean_sbu_0, # of connection points: 6
#     Node 2, Type 0, BuildingBlock: BETDAH_clean_sbu_0, # of connection points: 6
#     Node 3, Type 1, BuildingBlock: PAMTOO_clean_linker_0, # of connection points: 3
#     Node 4, Type 1, BuildingBlock: PAMTOO_clean_linker_0, # of connection points: 3
#     Node 5, Type 1, BuildingBlock: PAMTOO_clean_linker_0, # of connection points: 3
#     Node 6, Type 1, BuildingBlock: PAMTOO_clean_linker_0, # of connection points: 3
#     Node 7, Type 1, BuildingBlock: PAMTOO_clean_linker_0, # of connection points: 3
#     Node 8, Type 1, BuildingBlock: PAMTOO_clean_linker_0, # of connection points: 3
#     Edge 9, Type (0, 1), BuildingBlock: MIFKUJ_clean_linker_0, # of connection points: 2
#     Edge 10, Type (0, 1), BuildingBlock: MIFKUJ_clean_linker_0, # of connection points: 2
#     Edge 11, Type (0, 1), BuildingBlock: MIFKUJ_clean_linker_0, # of connection points: 2
#     Edge 12, Type (0, 1), BuildingBlock: MIFKUJ_clean_linker_0, # of connection points: 2
#     Edge 13, Type (0, 1), BuildingBlock: MIFKUJ_clean_linker_0, # of connection points: 2
#     Edge 14, Type (0, 1), BuildingBlock: MIFKUJ_clean_linker_0, # of connection points: 2
#     Edge 15, Type (0, 1), BuildingBlock: MIFKUJ_clean_linker_0, # of connection points: 2
#     Edge 16, Type (0, 1), BuildingBlock: MIFKUJ_clean_linker_0, # of connection points: 2
#     Edge 17, Type (0, 1), BuildingBlock: MIFKUJ_clean_linker_0, # of connection points: 2
#     Edge 18, Type (0, 1), BuildingBlock: MIFKUJ_clean_linker_0, # of connection points: 2
#     Edge 19, Type (0, 1), BuildingBlock: MIFKUJ_clean_linker_0, # of connection points: 2
#     Edge 20, Type (0, 1), BuildingBlock: MIFKUJ_clean_linker_0, # of connection points: 2
#     Edge 21, Type (0, 1), BuildingBlock: MIFKUJ_clean_linker_0, # of connection points: 2
#     Edge 22, Type (0, 1), BuildingBlock: MIFKUJ_clean_linker_0, # of connection points: 2
#     Edge 23, Type (0, 1), BuildingBlock: MIFKUJ_clean_linker_0, # of connection points: 2
#     Edge 24, Type (0, 1), BuildingBlock: MIFKUJ_clean_linker_0, # of connection points: 2
#     Edge 25, Type (0, 1), BuildingBlock: MIFKUJ_clean_linker_0, # of connection points: 2
#     Edge 26, Type (0, 1), BuildingBlock: MIFKUJ_clean_linker_0, # of connection points: 2
# Relax obj value: 0.135
# Max RMSD: 0.170
# Mean RMSD: 0.122
data_MOF--net-anh--node1-BETDAH_clean_sbu_0--node2-PAMTOO_clean_linker_0--edge1-MIFKUJ_clean_linker_0
_symmetry_space_group_name_H-M    P1
_symmetry_Int_Tables_number       1
_symmetry_cell_setting            triclinic
loop_
_symmetry_equiv_pos_as_xyz
'x, y, z'
_cell_length_a     39.96407
_cell_length_b     46.767058
_cell_length_c     63.769623
_cell_angle_alpha  88.63741
_cell_angle_beta   91.744276
_cell_angle_gamma 127.9553
loop_
_atom_site_label
_atom_site_type_symbol
_atom_site_fract_x
_atom_site_fract_y
_atom_site_fract_z
_atom_type_partial_charge
Ho0 Ho 0.12702 0.53054 0.15101 0.0
Ho1 Ho 0.07841 0.55433 0.17035 0.0
C2 C 0.17405 0.61731 0.1585 0.0
C3 C 0.17093 0.52312 0.12619 0.0
C4 C 0.21587 0.54005 0.12391 0.0
C5 C 0.22827 0.52977 0.10726 0.0
C6 C 0.26971 0.54125 0.1066 0.0
C7 C 0.29932 0.56307 0.12267 0.0
C8 C 0.28744 0.57538 0.13857 0.0
C9 C 0.24592 0.56395 0.13917 0.0
C10 C 0.13197 0.53489 0.19318 0.0
C11 C 1.03198 0.46793 0.16353 0.0
C12 C 1.03156 0.5592 0.19454 0.0
C13 C 0.98721 0.53136 0.20034 0.0
C14 C 0.97166 0.53336 0.21923 0.0
C15 C 0.9301 0.50498 0.22519 0.0
C16 C 0.90433 0.47414 0.21249 0.0
C17 C 0.91998 0.47255 0.19355 0.0
C18 C 0.9609 0.50098 0.18747 0.0
C19 C 0.07596 0.55129 0.12804 0.0
O20 O 0.17382 0.59218 0.14902 0.0
O21 O 0.14194 0.60884 0.16992 0.0
O22 O 0.15377 0.50389 0.14332 0.0
O23 O 0.15976 0.54368 0.12175 0.0
O24 O 0.13276 0.51169 0.18293 0.0
O25 O 0.13237 0.55613 0.1806 0.0
O26 O 1.03431 0.49299 0.17434 0.0
O27 O 1.06206 0.47683 0.15042 0.0
O28 O 1.03759 0.56928 0.1748 0.0
O29 O 1.05775 0.55308 0.20155 0.0
O30 O 0.07661 0.5753 0.13829 0.0
O31 O 0.07365 0.52914 0.14068 0.0
H32 H 0.20535 0.51136 0.09536 0.0
H33 H 0.27756 0.53081 0.0943 0.0
H34 H 0.30963 0.59234 0.15108 0.0
H35 H 0.23671 0.5723 0.15207 0.0
H36 H 0.99168 0.55659 0.2294 0.0
H37 H 0.91816 0.50695 0.23966 0.0
H38 H 0.90016 0.44952 0.18322 0.0
H39 H 0.97213 0.49905 0.17272 0.0
Ho40 Ho 0.65128 0.025 0.48337 0.0
Ho41 Ho 0.59497 0.04624 0.4725 0.0
C42 C 0.54948 0.96205 0.47501 0.0
C43 C 0.68561 0.99795 0.50081 0.0
C44 C 0.67815 0.96298 0.50258 0.0
C45 C 0.68788 0.95383 0.52163 0.0
C46 C 0.68333 0.9218 0.52357 0.0
C47 C 0.66916 0.89827 0.50641 0.0
C48 C 0.65834 0.90709 0.48744 0.0
C49 C 0.66271 0.93914 0.48555 0.0
C50 C 0.64377 0.03388 0.44197 0.0
C51 C 0.6974 0.10899 0.47831 0.0
C52 C 0.56242 0.07642 0.45787 0.0
C53 C 0.56914 0.10992 0.46366 0.0
C54 C 0.56148 0.12812 0.44894 0.0
C55 C 0.56771 0.1599 0.45451 0.0
C56 C 0.58141 0.17379 0.47496 0.0
C57 C 0.58954 0.15566 0.48957 0.0
C58 C 0.58373 0.12416 0.48394 0.0
C59 C 0.60474 0.03947 0.51407 0.0
O60 O 0.5848 0.97116 0.48449 0.0
O61 O 0.54781 0.98682 0.46583 0.0
O62 O 0.6962 0.01383 0.48241 0.0
O63 O 0.65875 1.00017 0.51032 0.0
O64 O 0.67818 0.04209 0.45095 0.0
O65 O 0.61432 0.01904 0.45499 0.0
O66 O 0.66135 0.09922 0.46951 0.0
O67 O 0.6999 0.08499 0.48793 0.0
O68 O 0.5442 0.05057 0.47201 0.0
O69 O 0.59468 0.08082 0.44936 0.0
O70 O 0.57026 0.0315 0.50547 0.0
O71 O 0.63304 0.05326 0.50054 0.0
H72 H 0.6995 0.97173 0.535 0.0
H73 H 0.69104 0.91553 0.53854 0.0
H74 H 0.64758 0.88974 0.47388 0.0
H75 H 0.65471 0.94555 0.47072 0.0
H76 H 0.5505 0.11765 0.43319 0.0
H77 H 0.56099 0.1732 0.44296 0.0
H78 H 0.60071 0.166 0.50533 0.0
H79 H 0.59045 0.11081 0.49546 0.0
Ho80 Ho 0.66483 0.5838 0.84793 0.0
Ho81 Ho 0.60453 0.50259 0.85199 0.0
C82 C 0.56173 0.54272 0.85236 0.0
C83 C 0.70348 0.64991 0.83516 0.0
C84 C 0.69457 0.67591 0.83143 0.0
C85 C 0.70898 0.69677 0.81299 0.0
C86 C 0.70295 0.7229 0.80935 0.0
C87 C 0.68263 0.72899 0.82419 0.0
C88 C 0.66721 0.70734 0.84247 0.0
C89 C 0.67303 0.68097 0.84604 0.0
C90 C 0.65225 0.55791 0.88738 0.0
C91 C 0.70869 0.54459 0.84966 0.0
C92 C 0.56763 0.43575 0.86237 0.0
C93 C 0.57401 0.40886 0.85699 0.0
C94 C 0.57554 0.38847 0.87293 0.0
C95 C 0.5812 0.36269 0.86804 0.0
C96 C 0.58506 0.35662 0.84706 0.0
C97 C 0.58399 0.37737 0.83114 0.0
C98 C 0.57877 0.40336 0.83605 0.0
C99 C 0.61748 0.52766 0.81223 0.0
O100 O 0.5996 0.5721 0.84629 0.0
O101 O 0.55687 0.51285 0.85809 0.0
O102 O 0.70473 0.64112 0.85465 0.0
O103 O 0.68438 0.62221 0.82246 0.0
O104 O 0.68876 0.58616 0.88087 0.0
O105 O 0.62434 0.54637 0.87316 0.0
O106 O 0.66987 0.51438 0.85373 0.0
O107 O 0.71453 0.57518 0.845 0.0
O108 O 0.55388 0.44564 0.8472 0.0
O109 O 0.59751 0.46306 0.87389 0.0
O110 O 0.58141 0.49952 0.81901 0.0
O111 O 0.64548 0.53969 0.82651 0.0
H112 H 0.72536 0.69309 0.80143 0.0
H113 H 0.71437 0.7384 0.79487 0.0
H114 H 0.65165 0.71139 0.85431 0.0
H115 H 0.66129 0.66499 0.86035 0.0
H116 H 0.57212 0.39237 0.88919 0.0
H117 H 0.58166 0.34696 0.88062 0.0
H118 H 0.58748 0.37365 0.81487 0.0
H119 H 0.57834 0.41903 0.82341 0.0
H120 H 0.67593 0.11365 0.21956 0.0
H121 H 0.57145 1.00085 0.20911 0.0
H122 H 0.63756 0.07218 0.15678 0.0
H123 H 0.54293 0.00975 0.14538 0.0
C124 C 0.53751 0.99649 0.16095 0.0
O125 O 0.57564 1.00524 0.16841 0.0
H126 H 0.52552 1.00678 0.17161 0.0
C127 C 0.65459 0.0912 0.20907 0.0
C128 C 0.66 0.0972 0.18733 0.0
C129 C 0.62307 0.05651 0.21731 0.0
C130 C 0.59661 0.02771 0.20329 0.0
C131 C 0.60175 0.03334 0.18157 0.0
C132 C 0.63375 0.06798 0.17359 0.0
H133 H 0.65757 0.60775 0.58897 0.0
H134 H 0.64882 0.5119 0.58284 0.0
H135 H 0.65357 0.56871 0.52768 0.0
H136 H 0.59963 0.49142 0.51963 0.0
C137 C 0.60805 0.48296 0.53399 0.0
O138 O 0.64696 0.5123 0.54175 0.0
H139 H 0.58277 0.47329 0.54562 0.0
C140 C 0.65615 0.58842 0.57913 0.0
C141 C 0.65647 0.59217 0.5572 0.0
C142 C 0.65357 0.5597 0.58851 0.0
C143 C 0.65128 0.53444 0.5758 0.0
C144 C 0.65081 0.53752 0.5539 0.0
C145 C 0.65364 0.56643 0.54463 0.0
H146 H 1.05814 0.54809 0.90169 0.0
H147 H 0.16993 0.5541 0.90189 0.0
H148 H 0.10818 0.54632 0.84315 0.0
H149 H 0.16079 0.50932 0.84518 0.0
C150 C 0.17857 0.52478 0.85961 0.0
O151 O 0.17551 0.55293 0.86148 0.0
H152 H 0.16226 0.50534 0.87292 0.0
C153 C 0.08156 0.54864 0.89309 0.0
C154 C 0.07836 0.54676 0.87115 0.0
C155 C 0.11407 0.55112 0.90424 0.0
C156 C 0.14439 0.55154 0.8933 0.0
C157 C 0.14291 0.54961 0.87132 0.0
C158 C 0.10947 0.54719 0.86012 0.0
H159 H 1.04573 0.46505 0.41467 0.0
H160 H 0.16496 0.57054 0.42527 0.0
H161 H 0.0931 0.50204 0.47766 0.0
H162 H 0.14682 0.58571 0.48853 0.0
C163 C 0.16117 0.59326 0.47274 0.0
O164 O 0.16218 0.56589 0.466 0.0
H165 H 0.14107 0.59641 0.46202 0.0
C166 C 0.06993 0.48578 0.42533 0.0
C167 C 0.06489 0.47938 0.44707 0.0
C168 C 0.10591 0.51845 0.4172 0.0
C169 C 0.13685 0.54522 0.43117 0.0
C170 C 0.13212 0.53945 0.45288 0.0
C171 C 0.09644 0.50639 0.46084 0.0
H172 H 0.66331 1.00417 0.73731 0.0
H173 H 0.64594 0.08561 0.74482 0.0
H174 H 0.65343 0.03353 0.79902 0.0
H175 H 0.59796 0.05338 0.80721 0.0
C176 C 0.60568 0.07018 0.79285 0.0
O177 O 0.64469 0.08216 0.78574 0.0
H178 H 0.58036 0.05281 0.78084 0.0
C179 C 0.66018 0.02078 0.74734 0.0
C180 C 0.65931 0.01594 0.76921 0.0
C181 C 0.65506 0.04561 0.73829 0.0
C182 C 0.64957 0.06608 0.75144 0.0
C183 C 0.64919 0.0618 0.77326 0.0
C184 C 0.65389 0.0367 0.78211 0.0
H185 H 0.58543 0.36602 0.09005 0.0
H186 H 0.51813 0.40979 0.09713 0.0
H187 H 0.52984 0.35713 0.1492 0.0
H188 H 0.44643 0.35733 0.15266 0.0
C189 C 0.4577 0.37196 0.13739 0.0
O190 O 0.50107 0.39144 0.13659 0.0
H191 H 0.44097 0.35122 0.12476 0.0
C192 C 0.56683 0.37029 0.09955 0.0
C193 C 0.55901 0.35861 0.12064 0.0
C194 C 0.55173 0.38839 0.09081 0.0
C195 C 0.52846 0.39454 0.10331 0.0
C196 C 0.52009 0.38259 0.12415 0.0
C197 C 0.53485 0.3644 0.1327 0.0
H198 H 0.35447 0.57839 0.09171 0.0
H199 H 0.40259 0.5626 0.09293 0.0
H200 H 0.3808 0.53952 0.15912 0.0
H201 H 0.33266 0.55489 0.15804 0.0
H202 H 0.46143 0.56103 0.14665 0.0
H203 H 0.31051 0.47517 0.12794 0.0
H204 H 0.24755 0.45693 0.10678 0.0
H205 H 0.31021 0.4664 0.05052 0.0
H206 H 0.37383 0.48525 0.07138 0.0
H207 H 0.4459 0.4044 0.16832 0.0
H208 H 0.43546 0.45068 0.16428 0.0
H209 H 0.4416 0.44703 0.09699 0.0
H210 H 0.45024 0.39968 0.10106 0.0
H211 H 0.37856 0.44626 0.10635 0.0
H212 H 0.52479 0.51931 0.12719 0.0
H213 H 0.58698 0.53788 0.14912 0.0
H214 H 0.53447 0.55272 0.20164 0.0
H215 H 0.47165 0.53374 0.18012 0.0
C216 C 0.36124 0.57129 0.10667 0.0
C217 C 0.33895 0.56692 0.12464 0.0
C218 C 0.3889 0.56249 0.10737 0.0
C219 C 0.39429 0.54907 0.12601 0.0
C220 C 0.37689 0.54972 0.14458 0.0
C221 C 0.34929 0.55854 0.1439 0.0
C222 C 0.40881 0.52672 0.12533 0.0
C223 C 0.4436 0.53599 0.13782 0.0
C224 C 0.38556 0.49424 0.11364 0.0
C225 C 0.34698 0.48194 0.10116 0.0
C226 C 0.31088 0.47349 0.11105 0.0
C227 C 0.2751 0.46304 0.09912 0.0
C228 C 0.27491 0.46058 0.07732 0.0
C229 C 0.31044 0.46839 0.06741 0.0
C230 C 0.34635 0.47894 0.07927 0.0
C231 C 0.44444 0.41324 0.1527 0.0
C232 C 0.44799 0.39815 0.13497 0.0
C233 C 0.43918 0.44004 0.15039 0.0
C234 C 0.4385 0.45279 0.13033 0.0
C235 C 0.44217 0.4377 0.11261 0.0
C236 C 0.44693 0.41063 0.11492 0.0
C237 C 0.43142 0.48029 0.12776 0.0
C238 C 0.39747 0.47173 0.11478 0.0
C239 C 0.45551 0.51329 0.13906 0.0
C240 C 0.49334 0.52485 0.15206 0.0
C241 C 0.52634 0.52628 0.14346 0.0
C242 C 0.56174 0.53692 0.15581 0.0
C243 C 0.56464 0.54641 0.17677 0.0
C244 C 0.53218 0.54535 0.18541 0.0
C245 C 0.49669 0.5347 0.17313 0.0
H246 H 0.59207 0.55464 0.18631 0.0
H247 H 0.24722 0.45256 0.0681 0.0
H248 H 0.77653 0.14123 0.49618 0.0
H249 H 0.8391 0.20504 0.49381 0.0
H250 H 0.76678 0.22841 0.45635 0.0
H251 H 0.70434 0.1649 0.45853 0.0
H252 H 0.84268 0.25747 0.43919 0.0
H253 H 0.79168 0.25408 0.50725 0.0
H254 H 0.76851 0.23114 0.54329 0.0
H255 H 0.89078 0.25935 0.55888 0.0
H256 H 0.91447 0.28197 0.52281 0.0
H257 H 0.9822 0.44651 0.43637 0.0
H258 H 0.92018 0.38491 0.44504 0.0
H259 H 0.99924 0.37008 0.48347 0.0
H260 H 1.06148 0.43234 0.47515 0.0
H261 H 0.92199 0.33608 0.50088 0.0
H262 H 0.97329 0.33978 0.43312 0.0
H263 H 0.99672 0.36254 0.39708 0.0
H264 H 0.87391 0.33265 0.38082 0.0
H265 H 0.84995 0.31025 0.41688 0.0
C266 C 0.77386 0.15996 0.4875 0.0
C267 C 0.73532 0.14781 0.47752 0.0
C268 C 0.80966 0.19649 0.48624 0.0
C269 C 0.80763 0.22163 0.47499 0.0
C270 C 0.76917 0.20956 0.4651 0.0
C271 C 0.73341 0.17316 0.46641 0.0
C272 C 0.84576 0.26028 0.47292 0.0
C273 C 0.85967 0.27474 0.45269 0.0
C274 C 0.86874 0.28262 0.49052 0.0
C275 C 0.8547 0.26937 0.51226 0.0
C276 C 0.81352 0.25513 0.51831 0.0
C277 C 0.80031 0.24223 0.53876 0.0
C278 C 0.82812 0.2437 0.55335 0.0
C279 C 0.86925 0.25818 0.54755 0.0
C280 C 0.8826 0.27107 0.52711 0.0
C281 C 0.98625 0.43027 0.44689 0.0
C282 C 1.02673 0.44406 0.45491 0.0
C283 C 0.95082 0.39502 0.4518 0.0
C284 C 0.95513 0.37246 0.4645 0.0
C285 C 0.99512 0.38687 0.47354 0.0
C286 C 1.03065 0.42243 0.46881 0.0
C287 C 0.91847 0.33335 0.46713 0.0
C288 C 0.90499 0.31876 0.4874 0.0
C289 C 0.89585 0.31072 0.44956 0.0
C290 C 0.90995 0.32361 0.42776 0.0
C291 C 0.95136 0.33825 0.42189 0.0
C292 C 0.96473 0.35108 0.40146 0.0
C293 C 0.93685 0.34911 0.38668 0.0
C294 C 0.89548 0.33419 0.39229 0.0
C295 C 0.88198 0.3214 0.41272 0.0
H296 H 0.94727 0.35907 0.37087 0.0
H297 H 0.81782 0.23368 0.56916 0.0
H298 H 0.74114 0.79635 0.80723 0.0
H299 H 0.73501 0.84448 0.801 0.0
H300 H 0.61078 0.77826 0.82826 0.0
H301 H 0.61567 0.72888 0.83346 0.0
H302 H 0.60934 0.8104 0.79463 0.0
H303 H 0.70009 0.85131 0.85502 0.0
H304 H 0.76081 0.86642 0.87697 0.0
H305 H 0.84735 0.94748 0.83222 0.0
H306 H 0.78714 0.93251 0.80984 0.0
H307 H 0.60753 0.96271 0.79773 0.0
H308 H 0.61016 0.91412 0.81043 0.0
H309 H 0.72143 0.95845 0.77377 0.0
H310 H 0.7187 1.00681 0.76089 0.0
H311 H 0.72588 0.93697 0.81578 0.0
H312 H 0.63249 0.89091 0.75446 0.0
H313 H 0.57064 0.87591 0.73361 0.0
H314 H 0.48741 0.80435 0.78254 0.0
H315 H 0.54891 0.81939 0.80383 0.0
C316 C 0.71222 0.79171 0.81169 0.0
C317 C 0.67885 0.75858 0.82082 0.0
C318 C 0.70904 0.81958 0.80841 0.0
C319 C 0.67278 0.81537 0.81453 0.0
C320 C 0.63924 0.78229 0.82354 0.0
C321 C 0.64224 0.75418 0.82668 0.0
C322 C 0.66971 0.84527 0.81094 0.0
C323 C 0.63448 0.83792 0.79965 0.0
C324 C 0.70269 0.88138 0.81723 0.0
C325 C 0.73905 0.89057 0.83067 0.0
C326 C 0.73206 0.87218 0.84978 0.0
C327 C 0.7664 0.88075 0.86232 0.0
C328 C 0.80791 0.90784 0.85598 0.0
C329 C 0.81518 0.92649 0.83711 0.0
C330 C 0.78095 0.918 0.8245 0.0
C331 C 0.63283 0.96229 0.79262 0.0
C332 C 0.66286 0.9884 0.77829 0.0
C333 C 0.63418 0.93449 0.79979 0.0
C334 C 0.66586 0.93264 0.79293 0.0
C335 C 0.69675 0.95944 0.77923 0.0
C336 C 0.69505 0.98689 0.77183 0.0
C337 C 0.66596 0.902 0.7993 0.0
C338 C 0.70061 0.9093 0.81107 0.0
C339 C 0.63228 0.86583 0.79368 0.0
C340 C 0.59532 0.85661 0.78084 0.0
C341 C 0.60103 0.87224 0.76085 0.0
C342 C 0.56604 0.86368 0.74894 0.0
C343 C 0.52513 0.83928 0.75678 0.0
C344 C 0.51913 0.8233 0.77651 0.0
C345 C 0.55403 0.83182 0.7885 0.0
H346 H 0.49807 0.83267 0.74753 0.0
H347 H 0.83445 0.91444 0.8657 0.0
H348 H 0.86475 0.40182 0.21735 0.0
H349 H 0.78822 0.35337 0.21291 0.0
H350 H 0.7675 0.43381 0.21098 0.0
H351 H 0.84303 0.48146 0.21673 0.0
H352 H 0.69871 0.37436 0.22255 0.0
H353 H 0.80138 0.40815 0.16655 0.0
H354 H 0.85747 0.40999 0.14963 0.0
H355 H 0.78295 0.29438 0.15609 0.0
H356 H 0.72702 0.292 0.17349 0.0
H357 H 0.64068 0.38479 0.11538 0.0
H358 H 0.68231 0.37495 0.13823 0.0
H359 H 0.57061 0.29465 0.17331 0.0
H360 H 0.52818 0.30427 0.15015 0.0
H361 H 0.6873 0.32379 0.15286 0.0
H362 H 0.60243 0.31251 0.22524 0.0
H363 H 0.55007 0.32047 0.23661 0.0
H364 H 0.59649 0.40595 0.19124 0.0
H365 H 0.6494 0.39875 0.17985 0.0
C366 C 0.84332 0.40869 0.21705 0.0
C367 C 0.85942 0.44518 0.21715 0.0
C368 C 0.79975 0.38111 0.21434 0.0
C369 C 0.77223 0.38999 0.21082 0.0
C370 C 0.78794 0.42611 0.21351 0.0
C371 C 0.83122 0.45349 0.21679 0.0
C372 C 0.73003 0.36434 0.20037 0.0
C373 C 0.69578 0.36236 0.20758 0.0
C374 C 0.72568 0.3482 0.18088 0.0
C375 C 0.76041 0.34997 0.17158 0.0
C376 C 0.7973 0.38322 0.1646 0.0
C377 C 0.82904 0.38435 0.15494 0.0
C378 C 0.82385 0.35234 0.15186 0.0
C379 C 0.78713 0.31918 0.15863 0.0
C380 C 0.75547 0.31793 0.16845 0.0
C381 C 0.62442 0.36394 0.12737 0.0
C382 C 0.5812 0.3457 0.13112 0.0
C383 C 0.64838 0.35833 0.14051 0.0
C384 C 0.62971 0.33448 0.1577 0.0
C385 C 0.58572 0.31353 0.1603 0.0
C386 C 0.56162 0.31918 0.14711 0.0
C387 C 0.65803 0.33681 0.1743 0.0
C388 C 0.68922 0.33382 0.16838 0.0
C389 C 0.66036 0.34971 0.19457 0.0
C390 C 0.62936 0.35476 0.20156 0.0
C391 C 0.60145 0.33303 0.21777 0.0
C392 C 0.57172 0.33742 0.22421 0.0
C393 C 0.56986 0.36361 0.2146 0.0
C394 C 0.59789 0.38563 0.19863 0.0
C395 C 0.62776 0.38143 0.1922 0.0
H396 H 0.54675 0.3669 0.21957 0.0
H397 H 0.84817 0.35324 0.14409 0.0
H398 H 0.47009 0.93333 0.45928 0.0
H399 H 0.40737 0.86969 0.45844 0.0
H400 H 0.48033 0.83881 0.48685 0.0
H401 H 0.54306 0.90252 0.48815 0.0
H402 H 0.3876 0.81076 0.43993 0.0
H403 H 0.41695 0.7654 0.51846 0.0
H404 H 0.45384 0.79148 0.55249 0.0
H405 H 0.43882 0.87459 0.54544 0.0
H406 H 0.4014 0.84874 0.5115 0.0
H407 H 0.23084 0.61906 0.4481 0.0
H408 H 0.29949 0.67969 0.44836 0.0
H409 H 0.25748 0.71083 0.49827 0.0
H410 H 0.18948 0.64987 0.49853 0.0
H411 H 0.33643 0.73802 0.50567 0.0
H412 H 0.25746 0.73367 0.44505 0.0
H413 H 0.21741 0.70802 0.41166 0.0
H414 H 0.32582 0.72663 0.38382 0.0
H415 H 0.3664 0.75209 0.41713 0.0
C416 C 0.4729 0.91305 0.46534 0.0
C417 C 0.51165 0.92319 0.47394 0.0
C418 C 0.43697 0.87658 0.46476 0.0
C419 C 0.43885 0.84934 0.47277 0.0
C420 C 0.47778 0.85929 0.48089 0.0
C421 C 0.51371 0.89581 0.48158 0.0
C422 C 0.39978 0.81077 0.47308 0.0
C423 C 0.37654 0.79484 0.4543 0.0
C424 C 0.38496 0.78989 0.49181 0.0
C425 C 0.40678 0.80534 0.51235 0.0
C426 C 0.42139 0.78916 0.52422 0.0
C427 C 0.44241 0.80392 0.54348 0.0
C428 C 0.44879 0.83475 0.55109 0.0
C429 C 0.434 0.8508 0.53949 0.0
C430 C 0.41292 0.83612 0.52023 0.0
C431 C 0.23657 0.63862 0.45939 0.0
C432 C 0.20509 0.62942 0.47367 0.0
C433 C 0.27571 0.67344 0.45939 0.0
C434 C 0.28372 0.70011 0.47322 0.0
C435 C 0.25234 0.6908 0.48754 0.0
C436 C 0.21346 0.65594 0.48768 0.0
C437 C 0.3241 0.738 0.47254 0.0
C438 C 0.34766 0.75381 0.49125 0.0
C439 C 0.33882 0.75892 0.4538 0.0
C440 C 0.31482 0.74449 0.43363 0.0
C441 C 0.27269 0.73218 0.43182 0.0
C442 C 0.24991 0.71768 0.41291 0.0
C443 C 0.26903 0.71561 0.39564 0.0
C444 C 0.31105 0.72822 0.39722 0.0
C445 C 0.33397 0.74274 0.4161 0.0
H446 H 0.25131 0.70428 0.38103 0.0
H447 H 0.46512 0.84616 0.56599 0.0
H448 H 0.63692 0.3433 0.86578 0.0
H449 H 0.64325 0.29608 0.85684 0.0
H450 H 0.54923 0.25887 0.80735 0.0
H451 H 0.54259 0.30576 0.81628 0.0
H452 H 0.53437 0.20289 0.83206 0.0
H453 H 0.65059 0.3072 0.79519 0.0
H454 H 0.71575 0.37025 0.7919 0.0
H455 H 0.78111 0.34764 0.83535 0.0
H456 H 0.7161 0.28453 0.83913 0.0
H457 H 0.55842 0.08932 0.77517 0.0
H458 H 0.55791 0.13936 0.78498 0.0
H459 H 0.65493 0.17273 0.83223 0.0
H460 H 0.65548 0.12251 0.82236 0.0
H461 H 0.66996 0.23098 0.81028 0.0
H462 H 0.55535 0.12709 0.84694 0.0
H463 H 0.4904 0.06415 0.85108 0.0
H464 H 0.42231 0.08607 0.80923 0.0
H465 H 0.48707 0.14905 0.8046 0.0
C466 C 0.61752 0.32495 0.85304 0.0
C467 C 0.58933 0.32827 0.84169 0.0
C468 C 0.62137 0.29817 0.84787 0.0
C469 C 0.5969 0.27413 0.83134 0.0
C470 C 0.56847 0.2772 0.82012 0.0
C471 C 0.56492 0.30413 0.82515 0.0
C472 C 0.60033 0.24535 0.82588 0.0
C473 C 0.56389 0.20905 0.82705 0.0
C474 C 0.63916 0.25337 0.81994 0.0
C475 C 0.67833 0.29125 0.81763 0.0
C476 C 0.67874 0.31575 0.80419 0.0
C477 C 0.71567 0.35149 0.80221 0.0
C478 C 0.75251 0.36298 0.81346 0.0
C479 C 0.75253 0.33872 0.82667 0.0
C480 C 0.71566 0.30295 0.82873 0.0
C481 C 0.57975 0.10744 0.78757 0.0
C482 C 0.60689 0.10206 0.79809 0.0
C483 C 0.57937 0.13594 0.79321 0.0
C484 C 0.60605 0.15954 0.8095 0.0
C485 C 0.63405 0.15482 0.81964 0.0
C486 C 0.6343 0.12618 0.81405 0.0
C487 C 0.60382 0.18853 0.81621 0.0
C488 C 0.64047 0.22483 0.81533 0.0
C489 C 0.56521 0.18054 0.82253 0.0
C490 C 0.52618 0.14269 0.82526 0.0
C491 C 0.52663 0.1184 0.83848 0.0
C492 C 0.48983 0.08274 0.84094 0.0
C493 C 0.45228 0.07109 0.83038 0.0
C494 C 0.45144 0.09512 0.81738 0.0
C495 C 0.48817 0.13081 0.81484 0.0
H496 H 0.42381 0.04346 0.83232 0.0
H497 H 0.78107 0.39066 0.8119 0.0
H498 H 0.72515 0.89149 0.52684 0.0
H499 H 0.72099 0.8375 0.53081 0.0
H500 H 0.60543 0.77661 0.49337 0.0
H501 H 0.60826 0.83037 0.49016 0.0
H502 H 0.59749 0.73799 0.52636 0.0
H503 H 0.70035 0.80333 0.47345 0.0
H504 H 0.76427 0.85606 0.45643 0.0
H505 H 0.84249 0.86188 0.50653 0.0
H506 H 0.77897 0.8095 0.52402 0.0
H507 H 0.60669 0.58954 0.52562 0.0
H508 H 0.60765 0.63966 0.51211 0.0
H509 H 0.71268 0.71346 0.55401 0.0
H510 H 0.71187 0.66362 0.56751 0.0
H511 H 0.72207 0.7419 0.51341 0.0
H512 H 0.61622 0.68008 0.56764 0.0
H513 H 0.55155 0.62669 0.58383 0.0
H514 H 0.47801 0.61334 0.52907 0.0
H515 H 0.54243 0.66639 0.51243 0.0
C516 C 0.69856 0.86658 0.5196 0.0
C517 C 0.66693 0.86532 0.50824 0.0
C518 C 0.69656 0.83579 0.52163 0.0
C519 C 0.66328 0.80308 0.51209 0.0
C520 C 0.63157 0.80161 0.50076 0.0
C521 C 0.63342 0.83245 0.4988 0.0
C522 C 0.66117 0.77031 0.51468 0.0
C523 C 0.62443 0.73865 0.52309 0.0
C524 C 0.69643 0.77114 0.51062 0.0
C525 C 0.73481 0.80261 0.50012 0.0
C526 C 0.73114 0.81601 0.48092 0.0
C527 C 0.76732 0.84581 0.47117 0.0
C528 C 0.80741 0.86235 0.48041 0.0
C529 C 0.81141 0.84906 0.49939 0.0
C530 C 0.77533 0.81927 0.50922 0.0
C531 C 0.63032 0.61657 0.5317 0.0
C532 C 0.65906 0.62271 0.54768 0.0
C533 C 0.6307 0.64509 0.52407 0.0
C534 C 0.66004 0.68019 0.53218 0.0
C535 C 0.68977 0.68658 0.54755 0.0
C536 C 0.68912 0.65808 0.55533 0.0
C537 C 0.65886 0.71014 0.52547 0.0
C538 C 0.69496 0.7412 0.51631 0.0
C539 C 0.62292 0.70864 0.52865 0.0
C540 C 0.5842 0.67691 0.5387 0.0
C541 C 0.58632 0.66557 0.55898 0.0
C542 C 0.5497 0.63541 0.56825 0.0
C543 C 0.51072 0.61656 0.55746 0.0
C544 C 0.50825 0.62791 0.5374 0.0
C545 C 0.54479 0.65803 0.52804 0.0
H546 H 0.4824 0.59323 0.56467 0.0
H547 H 0.83538 0.88542 0.47284 0.0
H548 H 0.79419 0.60188 0.84507 0.0
H549 H 0.85519 0.60157 0.84638 0.0
H550 H 0.77156 0.4859 0.85633 0.0
H551 H 0.71041 0.4863 0.85563 0.0
H552 H 0.83743 0.51058 0.87961 0.0
H553 H 0.82626 0.53255 0.80697 0.0
H554 H 0.82185 0.56371 0.77653 0.0
H555 H 0.94324 0.66271 0.79355 0.0
H556 H 0.94813 0.63226 0.82426 0.0
H557 H 0.99522 0.48697 0.86485 0.0
H558 H 0.93317 0.48544 0.85879 0.0
H559 H 1.01573 0.60181 0.85242 0.0
H560 H 0.07778 0.60307 0.85811 0.0
H561 H 0.9501 0.57601 0.82655 0.0
H562 H 0.96059 0.55395 0.89937 0.0
H563 H 0.96534 0.52252 0.92953 0.0
H564 H 0.84487 0.42316 0.91184 0.0
H565 H 0.83973 0.4539 0.88137 0.0
C566 C 0.78847 0.57621 0.84747 0.0
C567 C 0.74658 0.54409 0.85012 0.0
C568 C 0.82381 0.57601 0.84807 0.0
C569 C 0.81899 0.54359 0.85106 0.0
C570 C 0.77712 0.51151 0.85393 0.0
C571 C 0.74174 0.51173 0.85345 0.0
C572 C 0.8572 0.54321 0.85153 0.0
C573 C 0.86153 0.52449 0.86772 0.0
C574 C 0.89013 0.56186 0.8365 0.0
C575 C 0.88736 0.58021 0.81802 0.0
C576 C 0.85188 0.56103 0.8043 0.0
C577 C 0.84931 0.57856 0.78699 0.0
C578 C 0.88219 0.61519 0.78314 0.0
C579 C 0.91777 0.63435 0.79656 0.0
C580 C 0.92047 0.61696 0.81391 0.0
C581 C 1.0003 0.51214 0.86133 0.0
C582 C 1.04206 0.54502 0.86127 0.0
C583 C 0.96449 0.51137 0.85827 0.0
C584 C 0.96878 0.54358 0.85549 0.0
C585 C 1.01064 0.57635 0.85448 0.0
C586 C 1.04648 0.57707 0.85751 0.0
C587 C 0.93014 0.54331 0.85458 0.0
C588 C 0.92584 0.56198 0.83836 0.0
C589 C 0.89719 0.52458 0.86955 0.0
C590 C 0.89997 0.50615 0.88798 0.0
C591 C 0.93523 0.52535 0.90185 0.0
C592 C 0.93799 0.50767 0.919 0.0
C593 C 0.90546 0.47085 0.92257 0.0
C594 C 0.87006 0.45167 0.90903 0.0
C595 C 0.8672 0.46921 0.89182 0.0
H596 H 0.90765 0.4572 0.93586 0.0
H597 H 0.88014 0.62871 0.76973 0.0
H598 H 0.18169 0.67729 0.16925 0.0
H599 H 0.24512 0.74052 0.16845 0.0
H600 H 0.31745 0.70774 0.14568 0.0
H601 H 0.25365 0.64442 0.1458 0.0
H602 H 0.31639 0.77551 0.18883 0.0
H603 H 0.39894 0.77489 0.11621 0.0
H604 H 0.37993 0.74225 0.08275 0.0
H605 H 0.25792 0.71905 0.08246 0.0
H606 H 0.27641 0.75193 0.11577 0.0
H607 H 0.52379 0.94246 0.18722 0.0
H608 H 0.46516 0.87734 0.18573 0.0
H609 H 0.41454 0.89443 0.13035 0.0
H610 H 0.47387 0.95937 0.13146 0.0
H611 H 0.40563 0.83435 0.12602 0.0
H612 H 0.3753 0.88517 0.17988 0.0
H613 H 0.3896 0.91928 0.21221 0.0
H614 H 0.39825 0.84481 0.24774 0.0
H615 H 0.38454 0.81053 0.21556 0.0
C616 C 0.21102 0.6835 0.16396 0.0
C617 C 0.2125 0.65576 0.15751 0.0
C618 C 0.24737 0.71973 0.16358 0.0
C619 C 0.28616 0.72911 0.15686 0.0
C620 C 0.28781 0.7014 0.15056 0.0
C621 C 0.25128 0.66513 0.15068 0.0
C622 C 0.32473 0.76785 0.15676 0.0
C623 C 0.33591 0.78827 0.17508 0.0
C624 C 0.35013 0.78485 0.1388 0.0
C625 C 0.33894 0.76556 0.11858 0.0
C626 C 0.36813 0.76295 0.10895 0.0
C627 C 0.35743 0.74438 0.09003 0.0
C628 C 0.31769 0.72848 0.08052 0.0
C629 C 0.28863 0.73126 0.08988 0.0
C630 C 0.29919 0.74983 0.10879 0.0
C631 C 0.50062 0.9322 0.1745 0.0
C632 C 0.5039 0.9559 0.15918 0.0
C633 C 0.46689 0.895 0.17375 0.0
C634 C 0.43512 0.8809 0.15801 0.0
C635 C 0.43872 0.90452 0.14257 0.0
C636 C 0.47261 0.94163 0.14321 0.0
C637 C 0.3972 0.84192 0.15808 0.0
C638 C 0.38623 0.82146 0.13979 0.0
C639 C 0.37133 0.82508 0.1759 0.0
C640 C 0.37934 0.84552 0.19528 0.0
C641 C 0.38055 0.87622 0.19457 0.0
C642 C 0.38851 0.89556 0.21287 0.0
C643 C 0.39496 0.88428 0.23201 0.0
C644 C 0.39333 0.85356 0.2329 0.0
C645 C 0.38544 0.83415 0.21464 0.0
H646 H 0.40112 0.89929 0.24616 0.0
H647 H 0.30945 0.71408 0.06589 0.0
H648 H 0.62046 0.23797 0.45341 0.0
H649 H 0.6283 0.29199 0.46385 0.0
H650 H 0.5618 0.23788 0.52094 0.0
H651 H 0.55369 0.18382 0.51057 0.0
H652 H 0.5324 0.27155 0.50042 0.0
H653 H 0.66557 0.30058 0.52322 0.0
H654 H 0.73229 0.309 0.51914 0.0
H655 H 0.77259 0.39174 0.47265 0.0
H656 H 0.70576 0.38341 0.47621 0.0
H657 H 0.57523 0.4199 0.5559 0.0
H658 H 0.57415 0.36902 0.546 0.0
H659 H 0.64429 0.42734 0.49039 0.0
H660 H 0.64548 0.47842 0.50036 0.0
H661 H 0.67265 0.39217 0.50945 0.0
H662 H 0.53994 0.36312 0.48625 0.0
H663 H 0.47293 0.35444 0.48968 0.0
H664 H 0.43154 0.27147 0.53617 0.0
H665 H 0.49862 0.28003 0.53323 0.0
C666 C 0.60742 0.2376 0.46815 0.0
C667 C 0.58653 0.20671 0.4812 0.0
C668 C 0.61217 0.26853 0.47416 0.0
C669 C 0.59587 0.26901 0.49324 0.0
C670 C 0.5747 0.2381 0.50618 0.0
C671 C 0.57032 0.20734 0.5003 0.0
C672 C 0.60014 0.30147 0.49956 0.0
C673 C 0.56307 0.29781 0.50267 0.0
C674 C 0.64016 0.33592 0.50194 0.0
C675 C 0.68044 0.34108 0.49981 0.0
C676 C 0.68848 0.32033 0.51198 0.0
C677 C 0.72635 0.32514 0.50979 0.0
C678 C 0.75661 0.35081 0.4956 0.0
C679 C 0.74909 0.37181 0.48361 0.0
C680 C 0.71123 0.36708 0.48571 0.0
C681 C 0.59053 0.42185 0.54162 0.0
C682 C 0.60981 0.45271 0.52867 0.0
C683 C 0.58986 0.39281 0.53596 0.0
C684 C 0.60855 0.39415 0.51728 0.0
C685 C 0.6295 0.42566 0.50481 0.0
C686 C 0.63005 0.4547 0.51045 0.0
C687 C 0.60489 0.36215 0.51047 0.0
C688 C 0.642 0.3659 0.50721 0.0
C689 C 0.56489 0.32773 0.50786 0.0
C690 C 0.5245 0.32249 0.50968 0.0
C691 C 0.51671 0.34325 0.49734 0.0
C692 C 0.47869 0.33831 0.49917 0.0
C693 C 0.44804 0.31249 0.51318 0.0
C694 C 0.45533 0.2915 0.52535 0.0
C695 C 0.49334 0.29637 0.5236 0.0
H696 H 0.41861 0.30869 0.51457 0.0
H697 H 0.78592 0.3545 0.49393 0.0
H698 H 0.56169 0.60217 0.8521 0.0
H699 H 0.50164 0.60355 0.85417 0.0
H700 H 0.41548 0.48668 0.85586 0.0
H701 H 0.4758 0.48544 0.85504 0.0
H702 H 0.38269 0.50404 0.87907 0.0
H703 H 0.45605 0.64158 0.83865 0.0
H704 H 0.51039 0.68201 0.81249 0.0
H705 H 0.49025 0.59039 0.78361 0.0
H706 H 0.43561 0.54942 0.80951 0.0
H707 H 0.23504 0.54042 0.89251 0.0
H708 H 0.30125 0.5475 0.89169 0.0
H709 H 0.29144 0.54068 0.82425 0.0
H710 H 0.22576 0.53432 0.82512 0.0
H711 H 0.37168 0.58517 0.8333 0.0
H712 H 0.26179 0.46618 0.85913 0.0
H713 H 0.20431 0.42073 0.88259 0.0
H714 H 0.29114 0.46656 0.93535 0.0
H715 H 0.34904 0.51259 0.91223 0.0
C716 C 0.52999 0.57665 0.85289 0.0
C717 C 0.52427 0.54366 0.8533 0.0
C718 C 0.49511 0.57742 0.85388 0.0
C719 C 0.45268 0.54519 0.85469 0.0
C720 C 0.44715 0.51224 0.85525 0.0
C721 C 0.48206 0.5115 0.85468 0.0
C722 C 0.41438 0.54552 0.85519 0.0
C723 C 0.38078 0.52202 0.86901 0.0
C724 C 0.41008 0.56831 0.84208 0.0
C725 C 0.44204 0.59252 0.82612 0.0
C726 C 0.46309 0.63007 0.82665 0.0
C727 C 0.49398 0.65308 0.81189 0.0
C728 C 0.50384 0.63878 0.79643 0.0
C729 C 0.48268 0.60144 0.79563 0.0
C730 C 0.45178 0.57832 0.81035 0.0
C731 C 0.24747 0.54129 0.87745 0.0
C732 C 0.22456 0.53691 0.8589 0.0
C733 C 0.28535 0.54481 0.87697 0.0
C734 C 0.30186 0.54381 0.8579 0.0
C735 C 0.28014 0.54142 0.83929 0.0
C736 C 0.2423 0.53794 0.83978 0.0
C737 C 0.34045 0.544 0.85732 0.0
C738 C 0.37391 0.56744 0.84344 0.0
C739 C 0.34427 0.52066 0.87006 0.0
C740 C 0.30961 0.49304 0.88399 0.0
C741 C 0.26854 0.46671 0.87576 0.0
C742 C 0.2359 0.44083 0.88899 0.0
C743 C 0.24404 0.44082 0.91046 0.0
C744 C 0.28487 0.46664 0.91873 0.0
C745 C 0.31761 0.49262 0.90557 0.0
H746 H 0.21873 0.42076 0.92067 0.0
H747 H 0.52783 0.65665 0.78506 0.0
H748 H 0.95882 0.44067 0.18419 0.0
H749 H 0.89407 0.37864 0.18525 0.0
H750 H 0.95422 0.34434 0.14998 0.0
H751 H 1.01799 0.40738 0.14727 0.0
H752 H 0.88029 0.3092 0.13594 0.0
H753 H 0.92989 0.3287 0.20936 0.0
H754 H 0.94905 0.35419 0.24505 0.0
H755 H 0.83257 0.34035 0.24775 0.0
H756 H 0.81273 0.31463 0.21213 0.0
H757 H 0.72814 0.11999 0.16339 0.0
H758 H 0.78944 0.18297 0.15589 0.0
H759 H 0.72775 0.22062 0.18596 0.0
H760 H 0.6676 0.15794 0.19417 0.0
H761 H 0.80169 0.25325 0.20181 0.0
H762 H 0.74804 0.2307 0.13145 0.0
H763 H 0.7212 0.19833 0.09774 0.0
H764 H 0.83919 0.21667 0.08907 0.0
H765 H 0.86656 0.24876 0.12288 0.0
C766 C 0.95819 0.42009 0.17644 0.0
C767 C 0.99355 0.42933 0.16538 0.0
C768 C 0.92117 0.3842 0.17741 0.0
C769 C 0.91902 0.35612 0.16811 0.0
C770 C 0.95467 0.36524 0.15731 0.0
C771 C 0.99134 0.40139 0.15584 0.0
C772 C 0.8794 0.31758 0.16899 0.0
C773 C 0.86362 0.29687 0.15048 0.0
C774 C 0.85604 0.30142 0.18763 0.0
C775 C 0.87002 0.32001 0.20811 0.0
C776 C 0.90869 0.33156 0.21749 0.0
C777 C 0.9195 0.3458 0.23776 0.0
C778 C 0.89187 0.34864 0.24872 0.0
C779 C 0.85378 0.3379 0.23931 0.0
C780 C 0.84275 0.32349 0.21912 0.0
C781 C 0.72747 0.1418 0.16795 0.0
C782 C 0.69341 0.1343 0.17943 0.0
C783 C 0.7624 0.17778 0.16361 0.0
C784 C 0.76339 0.20674 0.17035 0.0
C785 C 0.72802 0.19889 0.18072 0.0
C786 C 0.6936 0.16311 0.18536 0.0
C787 C 0.80275 0.24505 0.16888 0.0
C788 C 0.81848 0.26562 0.18728 0.0
C789 C 0.82548 0.26105 0.15013 0.0
C790 C 0.80917 0.24179 0.12981 0.0
C791 C 0.76813 0.22755 0.12245 0.0
C792 C 0.75285 0.20932 0.1033 0.0
C793 C 0.77843 0.20535 0.0913 0.0
C794 C 0.81939 0.21972 0.0984 0.0
C795 C 0.83482 0.23796 0.11754 0.0
H796 H 0.76654 0.19123 0.07648 0.0
H797 H 0.8999 0.3592 0.26451 0.0
H798 H 0.08579 0.5997 0.09904 0.0
H799 H 0.09411 0.59983 0.06108 0.0
H800 H 0.08402 0.50276 0.06743 0.0
H801 H 0.07532 0.50233 0.10532 0.0
H802 H 0.15042 0.5546 0.04213 0.0
H803 H 1.00174 0.49651 0.04842 0.0
H804 H 0.93942 0.49072 0.05986 0.0
H805 H 0.98202 0.58759 0.02569 0.0
H806 H 1.04495 0.59424 0.01428 0.0
H807 H 0.12071 0.51035 0.93299 0.0
H808 H 0.11665 0.51081 0.97127 0.0
H809 H 0.10831 0.59846 0.96598 0.0
H810 H 0.11106 0.59723 0.92781 0.0
H811 H 1.05109 0.55024 0.99119 0.0
H812 H 0.19992 0.60927 0.98486 0.0
H813 H 0.26301 0.61614 0.97357 0.0
H814 H 0.22202 0.51974 0.0078 0.0
H815 H 0.15835 0.512 0.01906 0.0
C816 C 0.08516 0.57832 0.0923 0.0
C817 C 0.07996 0.55104 0.1051 0.0
C818 C 0.0899 0.57841 0.07064 0.0
C819 C 0.08953 0.55122 0.06141 0.0
C820 C 0.08451 0.52404 0.07421 0.0
C821 C 0.07943 0.52379 0.09584 0.0
C822 C 0.09426 0.55107 0.0384 0.0
C823 C 0.12846 0.55322 0.03095 0.0
C824 C 0.06612 0.55004 0.02385 0.0
C825 C 1.02828 0.54608 0.03068 0.0
C826 C 0.99802 0.51676 0.0435 0.0
C827 C 0.96254 0.51328 0.04995 0.0
C828 C 0.95682 0.53883 0.04355 0.0
C829 C 0.98652 0.56785 0.03065 0.0
C830 C 1.02208 0.57147 0.02418 0.0
C831 C 0.11861 0.53 0.94009 0.0
C832 C 0.11608 0.55367 0.92747 0.0
C833 C 0.11636 0.53032 0.96196 0.0
C834 C 0.11244 0.55485 0.97162 0.0
C835 C 0.11109 0.57914 0.95897 0.0
C836 C 0.11275 0.57849 0.93716 0.0
C837 C 0.10768 0.55425 0.99475 0.0
C838 C 0.07328 0.55177 0.00228 0.0
C839 C 0.13584 0.55523 0.00935 0.0
C840 C 0.17413 0.55986 0.00262 0.0
C841 C 0.20418 0.58937 0.98984 0.0
C842 C 0.24008 0.59345 0.98347 0.0
C843 C 0.24646 0.56834 0.98992 0.0
C844 C 0.217 0.53914 0.00279 0.0
C845 C 0.18102 0.53491 0.00918 0.0
H846 H 0.27427 0.57154 0.98497 0.0
H847 H 0.92933 0.53608 0.04856 0.0
H848 H 0.56929 1.0017 0.41982 0.0
H849 H 0.55977 1.00104 0.38165 0.0
H850 H 0.69568 0.06983 0.37463 0.0
H851 H 0.70512 0.0693 0.41267 0.0
H852 H 0.58002 0.04846 0.35298 0.0
H853 H 0.72254 0.05152 0.33086 0.0
H854 H 0.76149 0.0299 0.34521 0.0
H855 H 0.65202 0.94644 0.37988 0.0
H856 H 0.61224 0.96722 0.36553 0.0
H857 H 0.63298 0.10232 0.24749 0.0
H858 H 0.63096 0.09446 0.28541 0.0
H859 H 0.59803 0.98839 0.27781 0.0
H860 H 0.60307 0.99714 0.23984 0.0
H861 H 0.65389 0.02028 0.30683 0.0
H862 H 0.52448 1.00183 0.29362 0.0
H863 H 0.47696 0.0147 0.27927 0.0
H864 H 0.54441 0.11282 0.31504 0.0
H865 H 0.59273 0.10081 0.32939 0.0
C866 C 0.59707 0.01664 0.41009 0.0
C867 C 0.63792 0.03521 0.41912 0.0
C868 C 0.59163 0.01634 0.38829 0.0
C869 C 0.62694 0.03482 0.37518 0.0
C870 C 0.66785 0.05455 0.38433 0.0
C871 C 0.67326 0.05442 0.40607 0.0
C872 C 0.62116 0.03337 0.35196 0.0
C873 C 0.5961 0.04223 0.34289 0.0
C874 C 0.64102 0.02414 0.33873 0.0
C875 C 0.66457 0.01117 0.34725 0.0
C876 C 0.70673 0.02846 0.34147 0.0
C877 C 0.72896 0.01636 0.34962 0.0
C878 C 0.70928 0.98688 0.3635 0.0
C879 C 0.66728 0.96935 0.36919 0.0
C880 C 0.64489 0.9813 0.36107 0.0
C881 C 0.62569 0.07741 0.25382 0.0
C882 C 0.61848 0.05048 0.24047 0.0
C883 C 0.62387 0.07271 0.27559 0.0
C884 C 0.61379 0.04061 0.28457 0.0
C885 C 0.60581 0.01339 0.2713 0.0
C886 C 0.60823 0.01829 0.24952 0.0
C887 C 0.61356 0.03623 0.30779 0.0
C888 C 0.63756 0.02631 0.31688 0.0
C889 C 0.59146 0.0432 0.32101 0.0
C890 C 0.56244 0.05055 0.31245 0.0
C891 C 0.52937 0.02629 0.29831 0.0
C892 C 0.50226 0.03341 0.29019 0.0
C893 C 0.50772 0.0646 0.2962 0.0
C894 C 0.54024 0.08869 0.31039 0.0
C895 C 0.56747 0.08171 0.31854 0.0
H896 H 0.48669 0.07006 0.2899 0.0
H897 H 0.72656 0.97759 0.3698 0.0
H898 H 0.56093 0.51321 0.78162 0.0
H899 H 0.57199 0.52113 0.74384 0.0
H900 H 0.70363 0.56744 0.75415 0.0
H901 H 0.69297 0.56114 0.79221 0.0
H902 H 0.69833 0.60099 0.72278 0.0
H903 H 0.62717 0.47694 0.73954 0.0
H904 H 0.57286 0.41714 0.75534 0.0
H905 H 0.47575 0.40837 0.71796 0.0
H906 H 0.52941 0.46839 0.70215 0.0
H907 H 0.70803 0.55859 0.61474 0.0
H908 H 0.70683 0.5551 0.65335 0.0
H909 H 0.59388 0.54784 0.6525 0.0
H910 H 0.59571 0.55239 0.61408 0.0
H911 H 0.59543 0.49317 0.67886 0.0
H912 H 0.6723 0.62224 0.66415 0.0
H913 H 0.73044 0.68042 0.64813 0.0
H914 H 0.82219 0.67619 0.68161 0.0
H915 H 0.76452 0.61763 0.69758 0.0
C916 C 0.59234 0.52548 0.77581 0.0
C917 C 0.62599 0.53623 0.78973 0.0
C918 C 0.59859 0.52975 0.75422 0.0
C919 C 0.63834 0.54384 0.74606 0.0
C920 C 0.67258 0.55619 0.76003 0.0
C921 C 0.6665 0.55259 0.78175 0.0
C922 C 0.64344 0.54458 0.72299 0.0
C923 C 0.67617 0.57722 0.71326 0.0
C924 C 0.61472 0.51357 0.71043 0.0
C925 C 0.5823 0.47731 0.71978 0.0
C926 C 0.5942 0.46237 0.73478 0.0
C927 C 0.56353 0.42842 0.74373 0.0
C928 C 0.52088 0.409 0.73769 0.0
C929 C 0.50881 0.42346 0.72264 0.0
C930 C 0.53934 0.45743 0.71366 0.0
C931 C 0.68295 0.55611 0.62288 0.0
C932 C 0.65198 0.55577 0.6116 0.0
C933 C 0.68236 0.55424 0.64483 0.0
C934 C 0.65032 0.55132 0.65566 0.0
C935 C 0.61884 0.55012 0.64436 0.0
C936 C 0.61994 0.55277 0.6225 0.0
C937 C 0.64945 0.54963 0.67884 0.0
C938 C 0.61763 0.51674 0.68852 0.0
C939 C 0.67955 0.58008 0.69132 0.0
C940 C 0.71413 0.61536 0.68184 0.0
C941 C 0.70487 0.63352 0.66792 0.0
C942 C 0.73774 0.66661 0.65889 0.0
C943 C 0.77999 0.68193 0.66379 0.0
C944 C 0.78945 0.66425 0.67779 0.0
C945 C 0.7567 0.63113 0.68684 0.0
H946 H 0.80539 0.70755 0.65679 0.0
H947 H 0.49718 0.38273 0.74463 0.0
H948 H 0.55159 0.02633 0.54508 0.0
H949 H 0.56533 0.03067 0.58301 0.0
H950 H 0.68862 0.05905 0.57261 0.0
H951 H 0.6756 0.05585 0.53454 0.0
H952 H 0.63535 1.00208 0.60483 0.0
H953 H 0.6925 0.12387 0.5851 0.0
H954 H 0.6908 0.17056 0.56762 0.0
H955 H 0.58474 0.13867 0.60468 0.0
H956 H 0.58544 0.0914 0.62218 0.0
H957 H 0.70873 0.05072 0.71009 0.0
H958 H 0.70454 0.05266 0.67179 0.0
H959 H 0.59494 0.04983 0.67582 0.0
H960 H 0.59937 0.04837 0.71414 0.0
H961 H 0.64556 0.09596 0.64609 0.0
H962 H 0.58575 0.9733 0.66497 0.0
H963 H 0.58467 0.92495 0.68216 0.0
H964 H 0.69191 0.95597 0.64649 0.0
H965 H 0.69404 1.0049 0.62931 0.0
C966 C 0.58159 0.03343 0.55087 0.0
C967 C 0.61253 0.0407 0.53691 0.0
C968 C 0.58939 0.03594 0.57251 0.0
C969 C 0.628 0.04527 0.58054 0.0
C970 C 0.65862 0.05177 0.56666 0.0
C971 C 0.65114 0.04991 0.54497 0.0
C972 C 0.63631 0.04858 0.60346 0.0
C973 C 0.63832 0.02294 0.61387 0.0
C974 C 0.63911 0.07529 0.61517 0.0
C975 C 0.63876 0.10385 0.6048 0.0
C976 C 0.66857 0.12659 0.58939 0.0
C977 C 0.66784 0.15321 0.57951 0.0
C978 C 0.63759 0.15751 0.58499 0.0
C979 C 0.60811 0.13527 0.60043 0.0
C980 C 0.60869 0.10859 0.61035 0.0
C981 C 0.68377 0.05055 0.70279 0.0
C982 C 0.6542 0.04915 0.71511 0.0
C983 C 0.68138 0.05163 0.68091 0.0
C984 C 0.64898 0.05077 0.6709 0.0
C985 C 0.62019 0.05048 0.68318 0.0
C986 C 0.62279 0.04971 0.70508 0.0
C987 C 0.6444 0.04926 0.64765 0.0
C988 C 0.64294 0.07521 0.63712 0.0
C989 C 0.64176 0.0226 0.63584 0.0
C990 C 0.64034 0.99301 0.64602 0.0
C991 C 0.6093 0.96999 0.66091 0.0
C992 C 0.60847 0.94245 0.67063 0.0
C993 C 0.63827 0.93746 0.66546 0.0
C994 C 0.66889 0.95991 0.6505 0.0
C995 C 0.66992 0.98754 0.64076 0.0
H996 H 0.63758 0.91613 0.67301 0.0
H997 H 0.63706 0.17813 0.57732 0.0
H998 H 0.57565 0.50453 0.90378 0.0
H999 H 0.56133 0.47637 0.93852 0.0
H1000 H 0.69562 0.54468 0.95296 0.0
H1001 H 0.7102 0.57327 0.91812 0.0
H1002 H 0.65115 0.46988 0.96375 0.0
H1003 H 0.64118 0.56595 0.97382 0.0
H1004 H 0.61576 0.60152 0.9656 0.0
H1005 H 0.48725 0.50709 0.97542 0.0
H1006 H 0.51186 0.47081 0.98341 0.0
H1007 H 0.62988 0.42939 0.07317 0.0
H1008 H 0.64905 0.45828 0.03852 0.0
H1009 H 0.51763 0.40991 0.02509 0.0
H1010 H 0.49867 0.38202 0.06004 0.0
H1011 H 0.5639 0.47696 0.01384 0.0
H1012 H 0.57125 0.37989 0.00264 0.0
H1013 H 0.59433 0.34229 0.00975 0.0
H1014 H 0.72414 0.43513 0.0009 0.0
H1015 H 0.70188 0.47341 0.99401 0.0
C1016 C 0.60213 0.51362 0.91437 0.0
C1017 C 0.64402 0.54121 0.90837 0.0
C1018 C 0.5939 0.49754 0.93419 0.0
C1019 C 0.62741 0.50865 0.94832 0.0
C1020 C 0.66936 0.53581 0.94225 0.0
C1021 C 0.67762 0.55219 0.92245 0.0
C1022 C 0.61831 0.49193 0.96946 0.0
C1023 C 0.63262 0.47181 0.97488 0.0
C1024 C 0.5932 0.49375 0.98366 0.0
C1025 C 0.57835 0.51559 0.97903 0.0
C1026 C 0.60747 0.5527 0.97407 0.0
C1027 C 0.59321 0.573 0.96948 0.0
C1028 C 0.54991 0.55656 0.96994 0.0
C1029 C 0.52078 0.51979 0.97505 0.0
C1030 C 0.53487 0.49935 0.97963 0.0
C1031 C 0.60506 0.42455 0.06268 0.0
C1032 C 0.56277 0.40335 0.0692 0.0
C1033 C 0.61601 0.44102 0.04287 0.0
C1034 C 0.58473 0.43596 0.02903 0.0
C1035 C 0.54235 0.4143 0.03547 0.0
C1036 C 0.53151 0.39829 0.05539 0.0
C1037 C 0.59627 0.45434 0.0082 0.0
C1038 C 0.58248 0.47493 0.00281 0.0
C1039 C 0.62147 0.45257 0.99394 0.0
C1040 C 0.63493 0.42959 -0.00198 0.0
C1041 C 0.60475 0.39235 0.00236 0.0
C1042 C 0.61767 0.3709 0.00633 0.0
C1043 C 0.66068 0.38633 0.00583 0.0
C1044 C 0.69084 0.42322 0.00131 0.0
C1045 C 0.67809 0.4448 -0.00265 0.0
H1046 H 0.67063 0.36968 0.0089 0.0
H1047 H 0.53893 0.57232 0.96638 0.0
H1048 H 0.12038 0.48615 0.22221 0.0
H1049 H 0.1204 0.49021 0.26045 0.0
H1050 H 0.14922 0.59528 0.25427 0.0
H1051 H 0.14881 0.59119 0.21594 0.0
H1052 H 0.19581 0.58886 0.28823 0.0
H1053 H 1.05557 0.53364 0.26204 0.0
H1054 H 0.99278 0.49085 0.2397 0.0
H1055 H 0.97473 0.40116 0.27246 0.0
H1056 H 1.03794 0.44326 0.29452 0.0
H1057 H 0.13381 0.5799 0.39462 0.0
H1058 H 0.1414 0.58859 0.35654 0.0
H1059 H 0.09753 0.47881 0.34968 0.0
H1060 H 0.09005 0.46999 0.38762 0.0
H1061 H 1.05849 0.49439 0.32178 0.0
H1062 H 0.20365 0.55217 0.34621 0.0
H1063 H 0.26717 0.59623 0.36788 0.0
H1064 H 0.27482 0.68386 0.33889 0.0
H1065 H 0.21111 0.64025 0.31715 0.0
C1066 C 0.12709 0.51022 0.22902 0.0
C1067 C 0.13427 0.53821 0.21619 0.0
C1068 C 0.12719 0.51257 0.25082 0.0
C1069 C 0.1348 0.54305 0.26013 0.0
C1070 C 0.14352 0.57166 0.24737 0.0
C1071 C 0.14294 0.56914 0.22552 0.0
C1072 C 0.13011 0.54338 0.28305 0.0
C1073 C 0.16571 0.5686 0.2956 0.0
C1074 C 0.09081 0.51704 0.29257 0.0
C1075 C 1.0517 0.4916 0.27984 0.0
C1076 C 1.0383 0.50476 0.26439 0.0
C1077 C 1.00259 0.48064 0.25175 0.0
C1078 C 0.97965 0.44331 0.2546 0.0
C1079 C 0.99234 0.43002 0.27017 0.0
C1080 C 1.02816 0.45401 0.28276 0.0
C1081 C 0.12617 0.55774 0.385 0.0
C1082 C 0.11124 0.52422 0.39414 0.0
C1083 C 0.13045 0.56273 0.36325 0.0
C1084 C 0.12025 0.5344 0.35028 0.0
C1085 C 0.10539 0.50098 0.35938 0.0
C1086 C 0.10102 0.49595 0.38107 0.0
C1087 C 0.12451 0.5391 0.32717 0.0
C1088 C 0.08861 0.5149 0.31449 0.0
C1089 C 0.16344 0.56671 0.31761 0.0
C1090 C 0.20245 0.59295 0.33019 0.0
C1091 C 0.21882 0.58083 0.34451 0.0
C1092 C 0.25486 0.60572 0.35679 0.0
C1093 C 0.27496 0.64281 0.3548 0.0
C1094 C 0.25921 0.65512 0.34042 0.0
C1095 C 0.22319 0.63033 0.32809 0.0
H1096 H 0.30276 0.66203 0.36437 0.0
H1097 H 0.95212 0.42482 0.24471 0.0
loop_
_geom_bond_atom_site_label_1
_geom_bond_atom_site_label_2
_geom_bond_distance
_geom_bond_site_symmetry_2
_ccdc_geom_bond_type
Ho0 C3 2.811 . S
Ho0 O20 2.322 . S
Ho0 O22 2.378 . S
Ho0 O23 2.524 . S
Ho0 O24 2.381 . S
Ho0 O25 2.669 1_455 S
Ho0 O27 2.346 1_455 S
Ho0 O31 2.305 . S
Ho1 C12 2.811 . S
Ho1 O21 2.346 1_655 S
Ho1 O25 2.305 . S
Ho1 O26 2.322 . S
Ho1 O28 2.378 . S
Ho1 O29 2.524 . S
Ho1 O30 2.381 . S
Ho1 O31 2.669 1_655 S
C2 O20 1.259 . S
C2 O21 1.268 . S
C3 Ho0 2.811 . S
C3 C4 1.488 . S
C3 O22 1.215 . S
C3 O23 1.289 . S
C4 C3 1.488 . S
C4 C5 1.348 . S
C4 C9 1.413 . S
C5 C4 1.348 . S
C5 C6 1.442 . S
C5 H32 0.930 . S
C6 C5 1.442 . S
C6 C7 1.381 . S
C6 H33 0.931 . S
C7 C6 1.381 . S
C7 C8 1.321 . S
C8 C7 1.321 . S
C8 C9 1.403 . S
C8 H34 0.934 . S
C9 C4 1.413 . S
C9 C8 1.403 . S
C9 H35 0.930 . S
C10 O24 1.275 . S
C10 O25 1.256 1_455 S
C11 O26 1.259 . S
C11 O27 1.268 . S
C12 Ho1 2.811 . S
C12 C13 1.488 . S
C12 O28 1.215 . S
C12 O29 1.289 . S
C13 C12 1.488 . S
C13 C14 1.348 . S
C13 C18 1.413 . S
C14 C13 1.348 . S
C14 C15 1.442 . S
C14 H36 0.930 . S
C15 C14 1.442 . S
C15 C16 1.381 . S
C15 H37 0.931 . S
C16 C15 1.381 . S
C16 C17 1.321 . S
C17 C16 1.321 . S
C17 C18 1.403 . S
C17 H38 0.934 . S
C18 C13 1.413 . S
C18 C17 1.403 . S
C18 H39 0.930 . S
C19 O30 1.275 1_455 S
C19 O31 1.256 . S
O20 Ho0 2.322 . S
O20 C2 1.259 . S
O21 Ho1 2.346 1_455 S
O21 C2 1.268 . S
O22 Ho0 2.378 . S
O22 C3 1.215 . S
O23 Ho0 2.524 . S
O23 C3 1.289 . S
O24 Ho0 2.381 . S
O24 C10 1.275 . S
O25 Ho0 2.669 1_655 S
O25 Ho1 2.305 . S
O25 C10 1.256 1_655 S
O26 Ho1 2.322 . S
O26 C11 1.259 . S
O27 Ho0 2.346 1_655 S
O27 C11 1.268 . S
O28 Ho1 2.378 . S
O28 C12 1.215 . S
O29 Ho1 2.524 . S
O29 C12 1.289 . S
O30 Ho1 2.381 . S
O30 C19 1.275 1_655 S
O31 Ho0 2.305 . S
O31 Ho1 2.669 1_455 S
O31 C19 1.256 . S
H32 C5 0.930 . S
H33 C6 0.931 . S
H34 C8 0.934 . S
H35 C9 0.930 . S
H36 C14 0.930 . S
H37 C15 0.931 . S
H38 C17 0.934 . S
H39 C18 0.930 . S
Ho40 C43 2.811 1_545 S
Ho40 O60 2.322 1_545 S
Ho40 O62 2.378 1_545 S
Ho40 O63 2.524 1_545 S
Ho40 O64 2.381 . S
Ho40 O65 2.669 . S
Ho40 O67 2.346 . S
Ho40 O71 2.305 . S
Ho41 C52 2.811 . S
Ho41 O61 2.346 1_545 S
Ho41 O65 2.305 . S
Ho41 O66 2.322 . S
Ho41 O68 2.378 . S
Ho41 O69 2.524 . S
Ho41 O70 2.381 . S
Ho41 O71 2.669 . S
C42 O60 1.259 . S
C42 O61 1.268 . S
C43 Ho40 2.811 1_565 S
C43 C44 1.488 . S
C43 O62 1.215 . S
C43 O63 1.289 . S
C44 C43 1.488 . S
C44 C45 1.348 . S
C44 C49 1.413 . S
C45 C44 1.348 . S
C45 C46 1.442 . S
C45 H72 0.930 . S
C46 C45 1.442 . S
C46 C47 1.381 . S
C46 H73 0.931 . S
C47 C46 1.381 . S
C47 C48 1.321 . S
C48 C47 1.321 . S
C48 C49 1.403 . S
C48 H74 0.934 . S
C49 C44 1.413 . S
C49 C48 1.403 . S
C49 H75 0.930 . S
C50 O64 1.275 . S
C50 O65 1.256 . S
C51 O66 1.259 . S
C51 O67 1.268 . S
C52 Ho41 2.811 . S
C52 C53 1.488 . S
C52 O68 1.215 . S
C52 O69 1.289 . S
C53 C52 1.488 . S
C53 C54 1.348 . S
C53 C58 1.413 . S
C54 C53 1.348 . S
C54 C55 1.442 . S
C54 H76 0.930 . S
C55 C54 1.442 . S
C55 C56 1.381 . S
C55 H77 0.931 . S
C56 C55 1.381 . S
C56 C57 1.321 . S
C57 C56 1.321 . S
C57 C58 1.403 . S
C57 H78 0.934 . S
C58 C53 1.413 . S
C58 C57 1.403 . S
C58 H79 0.930 . S
C59 O70 1.275 . S
C59 O71 1.256 . S
O60 Ho40 2.322 1_565 S
O60 C42 1.259 . S
O61 Ho41 2.346 1_565 S
O61 C42 1.268 . S
O62 Ho40 2.378 1_565 S
O62 C43 1.215 . S
O63 Ho40 2.524 1_565 S
O63 C43 1.289 . S
O64 Ho40 2.381 . S
O64 C50 1.275 . S
O65 Ho40 2.669 . S
O65 Ho41 2.305 . S
O65 C50 1.256 . S
O66 Ho41 2.322 . S
O66 C51 1.259 . S
O67 Ho40 2.346 . S
O67 C51 1.268 . S
O68 Ho41 2.378 . S
O68 C52 1.215 . S
O69 Ho41 2.524 . S
O69 C52 1.289 . S
O70 Ho41 2.381 . S
O70 C59 1.275 . S
O71 Ho40 2.305 . S
O71 Ho41 2.669 . S
O71 C59 1.256 . S
H72 C45 0.930 . S
H73 C46 0.931 . S
H74 C48 0.934 . S
H75 C49 0.930 . S
H76 C54 0.930 . S
H77 C55 0.931 . S
H78 C57 0.934 . S
H79 C58 0.930 . S
Ho80 C83 2.811 . S
Ho80 O100 2.322 . S
Ho80 O102 2.378 . S
Ho80 O103 2.524 . S
Ho80 O104 2.381 . S
Ho80 O105 2.669 . S
Ho80 O107 2.346 . S
Ho80 O111 2.305 . S
Ho81 C92 2.811 . S
Ho81 O101 2.346 . S
Ho81 O105 2.305 . S
Ho81 O106 2.322 . S
Ho81 O108 2.378 . S
Ho81 O109 2.524 . S
Ho81 O110 2.381 . S
Ho81 O111 2.669 . S
C82 O100 1.259 . S
C82 O101 1.268 . S
C83 Ho80 2.811 . S
C83 C84 1.488 . S
C83 O102 1.215 . S
C83 O103 1.289 . S
C84 C83 1.488 . S
C84 C85 1.348 . S
C84 C89 1.413 . S
C85 C84 1.348 . S
C85 C86 1.442 . S
C85 H112 0.930 . S
C86 C85 1.442 . S
C86 C87 1.381 . S
C86 H113 0.931 . S
C87 C86 1.381 . S
C87 C88 1.321 . S
C88 C87 1.321 . S
C88 C89 1.403 . S
C88 H114 0.934 . S
C89 C84 1.413 . S
C89 C88 1.403 . S
C89 H115 0.930 . S
C90 O104 1.275 . S
C90 O105 1.256 . S
C91 O106 1.259 . S
C91 O107 1.268 . S
C92 Ho81 2.811 . S
C92 C93 1.488 . S
C92 O108 1.215 . S
C92 O109 1.289 . S
C93 C92 1.488 . S
C93 C94 1.348 . S
C93 C98 1.413 . S
C94 C93 1.348 . S
C94 C95 1.442 . S
C94 H116 0.930 . S
C95 C94 1.442 . S
C95 C96 1.381 . S
C95 H117 0.931 . S
C96 C95 1.381 . S
C96 C97 1.321 . S
C97 C96 1.321 . S
C97 C98 1.403 . S
C97 H118 0.934 . S
C98 C93 1.413 . S
C98 C97 1.403 . S
C98 H119 0.930 . S
C99 O110 1.275 . S
C99 O111 1.256 . S
O100 Ho80 2.322 . S
O100 C82 1.259 . S
O101 Ho81 2.346 . S
O101 C82 1.268 . S
O102 Ho80 2.378 . S
O102 C83 1.215 . S
O103 Ho80 2.524 . S
O103 C83 1.289 . S
O104 Ho80 2.381 . S
O104 C90 1.275 . S
O105 Ho80 2.669 . S
O105 Ho81 2.305 . S
O105 C90 1.256 . S
O106 Ho81 2.322 . S
O106 C91 1.259 . S
O107 Ho80 2.346 . S
O107 C91 1.268 . S
O108 Ho81 2.378 . S
O108 C92 1.215 . S
O109 Ho81 2.524 . S
O109 C92 1.289 . S
O110 Ho81 2.381 . S
O110 C99 1.275 . S
O111 Ho80 2.305 . S
O111 Ho81 2.669 . S
O111 C99 1.256 . S
H112 C85 0.930 . S
H113 C86 0.931 . S
H114 C88 0.934 . S
H115 C89 0.930 . S
H116 C94 0.930 . S
H117 C95 0.931 . S
H118 C97 0.934 . S
H119 C98 0.930 . S
H120 C127 0.929 . S
H121 C130 0.930 . S
H122 C132 0.929 . S
H123 C124 0.969 . S
C124 H123 0.969 . S
C124 O125 1.550 . S
C124 H126 0.973 . S
O125 C124 1.550 . S
O125 C131 1.412 . S
H126 C124 0.973 . S
C127 H120 0.929 . S
C127 C128 1.400 . S
C127 C129 1.364 . S
C128 C127 1.400 . S
C128 C132 1.377 . S
C129 C127 1.364 . S
C129 C130 1.374 1_545 S
C130 H121 0.930 . S
C130 C129 1.374 1_565 S
C130 C131 1.383 . S
C131 O125 1.412 . S
C131 C130 1.383 . S
C131 C132 1.394 1_565 S
C132 H122 0.929 . S
C132 C128 1.377 . S
C132 C131 1.394 1_545 S
H133 C140 0.929 . S
H134 C143 0.930 . S
H135 C145 0.929 . S
H136 C137 0.969 . S
C137 H136 0.969 . S
C137 O138 1.550 . S
C137 H139 0.973 . S
O138 C137 1.550 . S
O138 C144 1.412 . S
H139 C137 0.973 . S
C140 H133 0.929 . S
C140 C141 1.400 . S
C140 C142 1.364 . S
C141 C140 1.400 . S
C141 C145 1.377 . S
C142 C140 1.364 . S
C142 C143 1.374 . S
C143 H134 0.930 . S
C143 C142 1.374 . S
C143 C144 1.383 . S
C144 O138 1.412 . S
C144 C143 1.383 . S
C144 C145 1.394 . S
C145 H135 0.929 . S
C145 C141 1.377 . S
C145 C144 1.394 . S
H146 C153 0.929 . S
H147 C156 0.930 . S
H148 C158 0.929 . S
H149 C150 0.969 . S
C150 H149 0.969 . S
C150 O151 1.550 . S
C150 H152 0.973 . S
O151 C150 1.550 . S
O151 C157 1.412 . S
H152 C150 0.973 . S
C153 H146 0.929 . S
C153 C154 1.400 . S
C153 C155 1.364 . S
C154 C153 1.400 . S
C154 C158 1.377 . S
C155 C153 1.364 . S
C155 C156 1.374 . S
C156 H147 0.930 . S
C156 C155 1.374 . S
C156 C157 1.383 . S
C157 O151 1.412 . S
C157 C156 1.383 . S
C157 C158 1.394 . S
C158 H148 0.929 . S
C158 C154 1.377 . S
C158 C157 1.394 . S
H159 C166 0.934 . S
H160 C169 0.930 . S
H161 C171 0.929 . S
H162 C163 0.969 . S
C163 H162 0.969 . S
C163 O164 1.550 . S
C163 H165 0.973 . S
O164 C163 1.550 . S
O164 C170 1.412 . S
H165 C163 0.973 . S
C166 H159 0.934 . S
C166 C167 1.400 . S
C166 C168 1.359 1_655 S
C167 C166 1.400 . S
C167 C171 1.377 1_655 S
C168 C166 1.359 1_455 S
C168 C169 1.374 . S
C169 H160 0.930 . S
C169 C168 1.374 . S
C169 C170 1.383 . S
C170 O164 1.412 . S
C170 C169 1.383 . S
C170 C171 1.394 . S
C171 H161 0.929 . S
C171 C167 1.377 1_455 S
C171 C170 1.394 . S
H172 C179 0.929 . S
H173 C182 0.930 . S
H174 C184 0.929 . S
H175 C176 0.969 . S
C176 H175 0.969 . S
C176 O177 1.550 . S
C176 H178 0.973 . S
O177 C176 1.550 . S
O177 C183 1.412 . S
H178 C176 0.973 . S
C179 H172 0.929 . S
C179 C180 1.400 . S
C179 C181 1.364 1_565 S
C180 C179 1.400 . S
C180 C184 1.377 1_565 S
C181 C179 1.364 1_545 S
C181 C182 1.374 . S
C182 H173 0.930 . S
C182 C181 1.374 . S
C182 C183 1.383 . S
C183 O177 1.412 . S
C183 C182 1.383 . S
C183 C184 1.394 . S
C184 H174 0.929 . S
C184 C180 1.377 1_545 S
C184 C183 1.394 . S
H185 C192 0.929 . S
H186 C195 0.930 . S
H187 C197 0.929 . S
H188 C189 0.969 . S
C189 H188 0.969 . S
C189 O190 1.550 . S
C189 H191 0.973 . S
O190 C189 1.550 . S
O190 C196 1.412 . S
H191 C189 0.973 . S
C192 H185 0.929 . S
C192 C193 1.400 . S
C192 C194 1.364 . S
C193 C192 1.400 . S
C193 C197 1.377 . S
C194 C192 1.364 . S
C194 C195 1.374 . S
C195 H186 0.930 . S
C195 C194 1.374 . S
C195 C196 1.383 . S
C196 O190 1.412 . S
C196 C195 1.383 . S
C196 C197 1.394 . S
C197 H187 0.929 . S
C197 C193 1.377 . S
C197 C196 1.394 . S
H198 C216 0.951 . S
H199 C218 0.951 . S
H200 C220 0.950 . S
H201 C221 0.950 . S
H202 C223 0.950 . S
H203 C226 0.950 . S
H204 C227 0.950 . S
H205 C229 0.950 . S
H206 C230 0.950 . S
H207 C231 0.951 . S
H208 C233 0.951 . S
H209 C235 0.950 . S
H210 C236 0.950 . S
H211 C238 0.950 . S
H212 C241 0.950 . S
H213 C242 0.950 . S
H214 C244 0.950 . S
H215 C245 0.950 . S
C216 H198 0.951 . S
C216 C217 1.366 . S
C216 C218 1.388 . S
C217 C216 1.366 . S
C217 C221 1.385 . S
C218 H199 0.951 . S
C218 C216 1.388 . S
C218 C219 1.366 . S
C219 C218 1.366 . S
C219 C220 1.414 . S
C219 C222 1.499 . S
C220 H200 0.950 . S
C220 C219 1.414 . S
C220 C221 1.374 . S
C221 H201 0.950 . S
C221 C217 1.385 . S
C221 C220 1.374 . S
C222 C219 1.499 . S
C222 C223 1.373 . S
C222 C224 1.389 . S
C223 H202 0.950 . S
C223 C222 1.373 . S
C223 C239 1.377 . S
C224 C222 1.389 . S
C224 C225 1.524 . S
C224 C238 1.377 . S
C225 C224 1.524 . S
C225 C226 1.397 . S
C225 C230 1.363 . S
C226 H203 0.950 . S
C226 C225 1.397 . S
C226 C227 1.334 . S
C227 H204 0.950 . S
C227 C226 1.334 . S
C227 C228 1.287 . S
C228 C227 1.287 . S
C228 C229 1.524 . S
C228 H247 0.913 . S
C229 H205 0.950 . S
C229 C228 1.524 . S
C229 C230 1.415 . S
C230 H206 0.950 . S
C230 C225 1.363 . S
C230 C229 1.415 . S
C231 H207 0.951 . S
C231 C232 1.366 . S
C231 C233 1.388 . S
C232 C231 1.366 . S
C232 C236 1.385 . S
C233 H208 0.951 . S
C233 C231 1.388 . S
C233 C234 1.366 . S
C234 C233 1.366 . S
C234 C235 1.414 . S
C234 C237 1.499 . S
C235 H209 0.950 . S
C235 C234 1.414 . S
C235 C236 1.374 . S
C236 H210 0.950 . S
C236 C232 1.385 . S
C236 C235 1.374 . S
C237 C234 1.499 . S
C237 C238 1.373 . S
C237 C239 1.389 . S
C238 H211 0.950 . S
C238 C224 1.377 . S
C238 C237 1.373 . S
C239 C223 1.377 . S
C239 C237 1.389 . S
C239 C240 1.524 . S
C240 C239 1.524 . S
C240 C241 1.397 . S
C240 C245 1.363 . S
C241 H212 0.950 . S
C241 C240 1.397 . S
C241 C242 1.334 . S
C242 H213 0.950 . S
C242 C241 1.334 . S
C242 C243 1.287 . S
C243 C242 1.287 . S
C243 C244 1.524 . S
C243 H246 0.999 . S
C244 H214 0.950 . S
C244 C243 1.524 . S
C244 C245 1.415 . S
C245 H215 0.950 . S
C245 C240 1.363 . S
C245 C244 1.415 . S
H246 C243 0.999 . S
H247 C228 0.913 . S
H248 C266 0.951 . S
H249 C268 0.951 . S
H250 C270 0.950 . S
H251 C271 0.950 . S
H252 C273 0.950 . S
H253 C276 0.950 . S
H254 C277 0.950 . S
H255 C279 0.950 . S
H256 C280 0.950 . S
H257 C281 0.951 . S
H258 C283 0.951 . S
H259 C285 0.950 . S
H260 C286 0.950 . S
H261 C288 0.950 . S
H262 C291 0.950 . S
H263 C292 0.950 . S
H264 C294 0.950 . S
H265 C295 0.950 . S
C266 H248 0.951 . S
C266 C267 1.366 . S
C266 C268 1.388 . S
C267 C266 1.366 . S
C267 C271 1.385 . S
C268 H249 0.951 . S
C268 C266 1.388 . S
C268 C269 1.366 . S
C269 C268 1.366 . S
C269 C270 1.414 . S
C269 C272 1.499 . S
C270 H250 0.950 . S
C270 C269 1.414 . S
C270 C271 1.374 . S
C271 H251 0.950 . S
C271 C267 1.385 . S
C271 C270 1.374 . S
C272 C269 1.499 . S
C272 C273 1.373 . S
C272 C274 1.389 . S
C273 H252 0.950 . S
C273 C272 1.373 . S
C273 C289 1.377 . S
C274 C272 1.389 . S
C274 C275 1.524 . S
C274 C288 1.377 . S
C275 C274 1.524 . S
C275 C276 1.397 . S
C275 C280 1.363 . S
C276 H253 0.950 . S
C276 C275 1.397 . S
C276 C277 1.334 . S
C277 H254 0.950 . S
C277 C276 1.334 . S
C277 C278 1.287 . S
C278 C277 1.287 . S
C278 C279 1.524 . S
C278 H297 0.913 . S
C279 H255 0.950 . S
C279 C278 1.524 . S
C279 C280 1.415 . S
C280 H256 0.950 . S
C280 C275 1.363 . S
C280 C279 1.415 . S
C281 H257 0.951 . S
C281 C282 1.366 . S
C281 C283 1.388 . S
C282 C281 1.366 . S
C282 C286 1.385 . S
C283 H258 0.951 . S
C283 C281 1.388 . S
C283 C284 1.366 . S
C284 C283 1.366 . S
C284 C285 1.414 . S
C284 C287 1.499 . S
C285 H259 0.950 . S
C285 C284 1.414 . S
C285 C286 1.374 . S
C286 H260 0.950 . S
C286 C282 1.385 . S
C286 C285 1.374 . S
C287 C284 1.499 . S
C287 C288 1.373 . S
C287 C289 1.389 . S
C288 H261 0.950 . S
C288 C274 1.377 . S
C288 C287 1.373 . S
C289 C273 1.377 . S
C289 C287 1.389 . S
C289 C290 1.524 . S
C290 C289 1.524 . S
C290 C291 1.397 . S
C290 C295 1.363 . S
C291 H262 0.950 . S
C291 C290 1.397 . S
C291 C292 1.334 . S
C292 H263 0.950 . S
C292 C291 1.334 . S
C292 C293 1.287 . S
C293 C292 1.287 . S
C293 C294 1.524 . S
C293 H296 0.999 . S
C294 H264 0.950 . S
C294 C293 1.524 . S
C294 C295 1.415 . S
C295 H265 0.950 . S
C295 C290 1.363 . S
C295 C294 1.415 . S
H296 C293 0.999 . S
H297 C278 0.913 . S
H298 C316 0.951 . S
H299 C318 0.951 . S
H300 C320 0.950 . S
H301 C321 0.950 . S
H302 C323 0.950 . S
H303 C326 0.950 . S
H304 C327 0.950 . S
H305 C329 0.950 . S
H306 C330 0.950 . S
H307 C331 0.951 . S
H308 C333 0.951 . S
H309 C335 0.950 . S
H310 C336 0.950 . S
H311 C338 0.950 . S
H312 C341 0.950 . S
H313 C342 0.950 . S
H314 C344 0.950 . S
H315 C345 0.950 . S
C316 H298 0.951 . S
C316 C317 1.366 . S
C316 C318 1.388 . S
C317 C316 1.366 . S
C317 C321 1.385 . S
C318 H299 0.951 . S
C318 C316 1.388 . S
C318 C319 1.366 . S
C319 C318 1.366 . S
C319 C320 1.414 . S
C319 C322 1.499 . S
C320 H300 0.950 . S
C320 C319 1.414 . S
C320 C321 1.374 . S
C321 H301 0.950 . S
C321 C317 1.385 . S
C321 C320 1.374 . S
C322 C319 1.499 . S
C322 C323 1.373 . S
C322 C324 1.389 . S
C323 H302 0.950 . S
C323 C322 1.373 . S
C323 C339 1.377 . S
C324 C322 1.389 . S
C324 C325 1.524 . S
C324 C338 1.377 . S
C325 C324 1.524 . S
C325 C326 1.397 . S
C325 C330 1.363 . S
C326 H303 0.950 . S
C326 C325 1.397 . S
C326 C327 1.334 . S
C327 H304 0.950 . S
C327 C326 1.334 . S
C327 C328 1.287 . S
C328 C327 1.287 . S
C328 C329 1.524 . S
C328 H347 0.913 . S
C329 H305 0.950 . S
C329 C328 1.524 . S
C329 C330 1.415 . S
C330 H306 0.950 . S
C330 C325 1.363 . S
C330 C329 1.415 . S
C331 H307 0.951 . S
C331 C332 1.366 . S
C331 C333 1.388 . S
C332 C331 1.366 . S
C332 C336 1.385 . S
C333 H308 0.951 . S
C333 C331 1.388 . S
C333 C334 1.366 . S
C334 C333 1.366 . S
C334 C335 1.414 . S
C334 C337 1.499 . S
C335 H309 0.950 . S
C335 C334 1.414 . S
C335 C336 1.374 . S
C336 H310 0.950 . S
C336 C332 1.385 . S
C336 C335 1.374 . S
C337 C334 1.499 . S
C337 C338 1.373 . S
C337 C339 1.389 . S
C338 H311 0.950 . S
C338 C324 1.377 . S
C338 C337 1.373 . S
C339 C323 1.377 . S
C339 C337 1.389 . S
C339 C340 1.524 . S
C340 C339 1.524 . S
C340 C341 1.397 . S
C340 C345 1.363 . S
C341 H312 0.950 . S
C341 C340 1.397 . S
C341 C342 1.334 . S
C342 H313 0.950 . S
C342 C341 1.334 . S
C342 C343 1.287 . S
C343 C342 1.287 . S
C343 C344 1.524 . S
C343 H346 0.999 . S
C344 H314 0.950 . S
C344 C343 1.524 . S
C344 C345 1.415 . S
C345 H315 0.950 . S
C345 C340 1.363 . S
C345 C344 1.415 . S
H346 C343 0.999 . S
H347 C328 0.913 . S
H348 C366 0.951 . S
H349 C368 0.951 . S
H350 C370 0.950 . S
H351 C371 0.950 . S
H352 C373 0.950 . S
H353 C376 0.950 . S
H354 C377 0.950 . S
H355 C379 0.950 . S
H356 C380 0.950 . S
H357 C381 0.951 . S
H358 C383 0.951 . S
H359 C385 0.950 . S
H360 C386 0.950 . S
H361 C388 0.950 . S
H362 C391 0.950 . S
H363 C392 0.950 . S
H364 C394 0.950 . S
H365 C395 0.950 . S
C366 H348 0.951 . S
C366 C367 1.366 . S
C366 C368 1.388 . S
C367 C366 1.366 . S
C367 C371 1.385 . S
C368 H349 0.951 . S
C368 C366 1.388 . S
C368 C369 1.366 . S
C369 C368 1.366 . S
C369 C370 1.414 . S
C369 C372 1.499 . S
C370 H350 0.950 . S
C370 C369 1.414 . S
C370 C371 1.374 . S
C371 H351 0.950 . S
C371 C367 1.385 . S
C371 C370 1.374 . S
C372 C369 1.499 . S
C372 C373 1.373 . S
C372 C374 1.389 . S
C373 H352 0.950 . S
C373 C372 1.373 . S
C373 C389 1.377 . S
C374 C372 1.389 . S
C374 C375 1.524 . S
C374 C388 1.377 . S
C375 C374 1.524 . S
C375 C376 1.397 . S
C375 C380 1.363 . S
C376 H353 0.950 . S
C376 C375 1.397 . S
C376 C377 1.334 . S
C377 H354 0.950 . S
C377 C376 1.334 . S
C377 C378 1.287 . S
C378 C377 1.287 . S
C378 C379 1.524 . S
C378 H397 0.913 . S
C379 H355 0.950 . S
C379 C378 1.524 . S
C379 C380 1.415 . S
C380 H356 0.950 . S
C380 C375 1.363 . S
C380 C379 1.415 . S
C381 H357 0.951 . S
C381 C382 1.366 . S
C381 C383 1.388 . S
C382 C381 1.366 . S
C382 C386 1.385 . S
C383 H358 0.951 . S
C383 C381 1.388 . S
C383 C384 1.366 . S
C384 C383 1.366 . S
C384 C385 1.414 . S
C384 C387 1.499 . S
C385 H359 0.950 . S
C385 C384 1.414 . S
C385 C386 1.374 . S
C386 H360 0.950 . S
C386 C382 1.385 . S
C386 C385 1.374 . S
C387 C384 1.499 . S
C387 C388 1.373 . S
C387 C389 1.389 . S
C388 H361 0.950 . S
C388 C374 1.377 . S
C388 C387 1.373 . S
C389 C373 1.377 . S
C389 C387 1.389 . S
C389 C390 1.524 . S
C390 C389 1.524 . S
C390 C391 1.397 . S
C390 C395 1.363 . S
C391 H362 0.950 . S
C391 C390 1.397 . S
C391 C392 1.334 . S
C392 H363 0.950 . S
C392 C391 1.334 . S
C392 C393 1.287 . S
C393 C392 1.287 . S
C393 C394 1.524 . S
C393 H396 0.999 . S
C394 H364 0.950 . S
C394 C393 1.524 . S
C394 C395 1.415 . S
C395 H365 0.950 . S
C395 C390 1.363 . S
C395 C394 1.415 . S
H396 C393 0.999 . S
H397 C378 0.913 . S
H398 C416 0.951 . S
H399 C418 0.951 . S
H400 C420 0.950 . S
H401 C421 0.950 . S
H402 C423 0.950 . S
H403 C426 0.950 . S
H404 C427 0.950 . S
H405 C429 0.950 . S
H406 C430 0.950 . S
H407 C431 0.951 . S
H408 C433 0.951 . S
H409 C435 0.950 . S
H410 C436 0.950 . S
H411 C438 0.950 . S
H412 C441 0.950 . S
H413 C442 0.950 . S
H414 C444 0.950 . S
H415 C445 0.950 . S
C416 H398 0.951 . S
C416 C417 1.366 . S
C416 C418 1.388 . S
C417 C416 1.366 . S
C417 C421 1.385 . S
C418 H399 0.951 . S
C418 C416 1.388 . S
C418 C419 1.366 . S
C419 C418 1.366 . S
C419 C420 1.414 . S
C419 C422 1.499 . S
C420 H400 0.950 . S
C420 C419 1.414 . S
C420 C421 1.374 . S
C421 H401 0.950 . S
C421 C417 1.385 . S
C421 C420 1.374 . S
C422 C419 1.499 . S
C422 C423 1.373 . S
C422 C424 1.389 . S
C423 H402 0.950 . S
C423 C422 1.373 . S
C423 C439 1.377 . S
C424 C422 1.389 . S
C424 C425 1.524 . S
C424 C438 1.377 . S
C425 C424 1.524 . S
C425 C426 1.397 . S
C425 C430 1.363 . S
C426 H403 0.950 . S
C426 C425 1.397 . S
C426 C427 1.334 . S
C427 H404 0.950 . S
C427 C426 1.334 . S
C427 C428 1.287 . S
C428 C427 1.287 . S
C428 C429 1.524 . S
C428 H447 0.913 . S
C429 H405 0.950 . S
C429 C428 1.524 . S
C429 C430 1.415 . S
C430 H406 0.950 . S
C430 C425 1.363 . S
C430 C429 1.415 . S
C431 H407 0.951 . S
C431 C432 1.366 . S
C431 C433 1.388 . S
C432 C431 1.366 . S
C432 C436 1.385 . S
C433 H408 0.951 . S
C433 C431 1.388 . S
C433 C434 1.366 . S
C434 C433 1.366 . S
C434 C435 1.414 . S
C434 C437 1.499 . S
C435 H409 0.950 . S
C435 C434 1.414 . S
C435 C436 1.374 . S
C436 H410 0.950 . S
C436 C432 1.385 . S
C436 C435 1.374 . S
C437 C434 1.499 . S
C437 C438 1.373 . S
C437 C439 1.389 . S
C438 H411 0.950 . S
C438 C424 1.377 . S
C438 C437 1.373 . S
C439 C423 1.377 . S
C439 C437 1.389 . S
C439 C440 1.524 . S
C440 C439 1.524 . S
C440 C441 1.397 . S
C440 C445 1.363 . S
C441 H412 0.950 . S
C441 C440 1.397 . S
C441 C442 1.334 . S
C442 H413 0.950 . S
C442 C441 1.334 . S
C442 C443 1.287 . S
C443 C442 1.287 . S
C443 C444 1.524 . S
C443 H446 0.999 . S
C444 H414 0.950 . S
C444 C443 1.524 . S
C444 C445 1.415 . S
C445 H415 0.950 . S
C445 C440 1.363 . S
C445 C444 1.415 . S
H446 C443 0.999 . S
H447 C428 0.913 . S
H448 C466 0.951 . S
H449 C468 0.951 . S
H450 C470 0.950 . S
H451 C471 0.950 . S
H452 C473 0.950 . S
H453 C476 0.950 . S
H454 C477 0.950 . S
H455 C479 0.950 . S
H456 C480 0.950 . S
H457 C481 0.951 . S
H458 C483 0.951 . S
H459 C485 0.950 . S
H460 C486 0.950 . S
H461 C488 0.950 . S
H462 C491 0.950 . S
H463 C492 0.950 . S
H464 C494 0.950 . S
H465 C495 0.950 . S
C466 H448 0.951 . S
C466 C467 1.366 . S
C466 C468 1.388 . S
C467 C466 1.366 . S
C467 C471 1.385 . S
C468 H449 0.951 . S
C468 C466 1.388 . S
C468 C469 1.366 . S
C469 C468 1.366 . S
C469 C470 1.414 . S
C469 C472 1.499 . S
C470 H450 0.950 . S
C470 C469 1.414 . S
C470 C471 1.374 . S
C471 H451 0.950 . S
C471 C467 1.385 . S
C471 C470 1.374 . S
C472 C469 1.499 . S
C472 C473 1.373 . S
C472 C474 1.389 . S
C473 H452 0.950 . S
C473 C472 1.373 . S
C473 C489 1.377 . S
C474 C472 1.389 . S
C474 C475 1.524 . S
C474 C488 1.377 . S
C475 C474 1.524 . S
C475 C476 1.397 . S
C475 C480 1.363 . S
C476 H453 0.950 . S
C476 C475 1.397 . S
C476 C477 1.334 . S
C477 H454 0.950 . S
C477 C476 1.334 . S
C477 C478 1.287 . S
C478 C477 1.287 . S
C478 C479 1.524 . S
C478 H497 0.913 . S
C479 H455 0.950 . S
C479 C478 1.524 . S
C479 C480 1.415 . S
C480 H456 0.950 . S
C480 C475 1.363 . S
C480 C479 1.415 . S
C481 H457 0.951 . S
C481 C482 1.366 . S
C481 C483 1.388 . S
C482 C481 1.366 . S
C482 C486 1.385 . S
C483 H458 0.951 . S
C483 C481 1.388 . S
C483 C484 1.366 . S
C484 C483 1.366 . S
C484 C485 1.414 . S
C484 C487 1.499 . S
C485 H459 0.950 . S
C485 C484 1.414 . S
C485 C486 1.374 . S
C486 H460 0.950 . S
C486 C482 1.385 . S
C486 C485 1.374 . S
C487 C484 1.499 . S
C487 C488 1.373 . S
C487 C489 1.389 . S
C488 H461 0.950 . S
C488 C474 1.377 . S
C488 C487 1.373 . S
C489 C473 1.377 . S
C489 C487 1.389 . S
C489 C490 1.524 . S
C490 C489 1.524 . S
C490 C491 1.397 . S
C490 C495 1.363 . S
C491 H462 0.950 . S
C491 C490 1.397 . S
C491 C492 1.334 . S
C492 H463 0.950 . S
C492 C491 1.334 . S
C492 C493 1.287 . S
C493 C492 1.287 . S
C493 C494 1.524 . S
C493 H496 0.999 . S
C494 H464 0.950 . S
C494 C493 1.524 . S
C494 C495 1.415 . S
C495 H465 0.950 . S
C495 C490 1.363 . S
C495 C494 1.415 . S
H496 C493 0.999 . S
H497 C478 0.913 . S
H498 C516 0.951 . S
H499 C518 0.951 . S
H500 C520 0.950 . S
H501 C521 0.950 . S
H502 C523 0.950 . S
H503 C526 0.950 . S
H504 C527 0.950 . S
H505 C529 0.950 . S
H506 C530 0.950 . S
H507 C531 0.951 . S
H508 C533 0.951 . S
H509 C535 0.950 . S
H510 C536 0.950 . S
H511 C538 0.950 . S
H512 C541 0.950 . S
H513 C542 0.950 . S
H514 C544 0.950 . S
H515 C545 0.950 . S
C516 H498 0.951 . S
C516 C517 1.366 . S
C516 C518 1.388 . S
C517 C516 1.366 . S
C517 C521 1.385 . S
C518 H499 0.951 . S
C518 C516 1.388 . S
C518 C519 1.366 . S
C519 C518 1.366 . S
C519 C520 1.414 . S
C519 C522 1.499 . S
C520 H500 0.950 . S
C520 C519 1.414 . S
C520 C521 1.374 . S
C521 H501 0.950 . S
C521 C517 1.385 . S
C521 C520 1.374 . S
C522 C519 1.499 . S
C522 C523 1.373 . S
C522 C524 1.389 . S
C523 H502 0.950 . S
C523 C522 1.373 . S
C523 C539 1.377 . S
C524 C522 1.389 . S
C524 C525 1.524 . S
C524 C538 1.377 . S
C525 C524 1.524 . S
C525 C526 1.397 . S
C525 C530 1.363 . S
C526 H503 0.950 . S
C526 C525 1.397 . S
C526 C527 1.334 . S
C527 H504 0.950 . S
C527 C526 1.334 . S
C527 C528 1.287 . S
C528 C527 1.287 . S
C528 C529 1.524 . S
C528 H547 0.913 . S
C529 H505 0.950 . S
C529 C528 1.524 . S
C529 C530 1.415 . S
C530 H506 0.950 . S
C530 C525 1.363 . S
C530 C529 1.415 . S
C531 H507 0.951 . S
C531 C532 1.366 . S
C531 C533 1.388 . S
C532 C531 1.366 . S
C532 C536 1.385 . S
C533 H508 0.951 . S
C533 C531 1.388 . S
C533 C534 1.366 . S
C534 C533 1.366 . S
C534 C535 1.414 . S
C534 C537 1.499 . S
C535 H509 0.950 . S
C535 C534 1.414 . S
C535 C536 1.374 . S
C536 H510 0.950 . S
C536 C532 1.385 . S
C536 C535 1.374 . S
C537 C534 1.499 . S
C537 C538 1.373 . S
C537 C539 1.389 . S
C538 H511 0.950 . S
C538 C524 1.377 . S
C538 C537 1.373 . S
C539 C523 1.377 . S
C539 C537 1.389 . S
C539 C540 1.524 . S
C540 C539 1.524 . S
C540 C541 1.397 . S
C540 C545 1.363 . S
C541 H512 0.950 . S
C541 C540 1.397 . S
C541 C542 1.334 . S
C542 H513 0.950 . S
C542 C541 1.334 . S
C542 C543 1.287 . S
C543 C542 1.287 . S
C543 C544 1.524 . S
C543 H546 0.999 . S
C544 H514 0.950 . S
C544 C543 1.524 . S
C544 C545 1.415 . S
C545 H515 0.950 . S
C545 C540 1.363 . S
C545 C544 1.415 . S
H546 C543 0.999 . S
H547 C528 0.913 . S
H548 C566 0.951 . S
H549 C568 0.951 . S
H550 C570 0.950 . S
H551 C571 0.950 . S
H552 C573 0.950 . S
H553 C576 0.950 . S
H554 C577 0.950 . S
H555 C579 0.950 . S
H556 C580 0.950 . S
H557 C581 0.951 . S
H558 C583 0.951 . S
H559 C585 0.950 . S
H560 C586 0.950 1_455 S
H561 C588 0.950 . S
H562 C591 0.950 . S
H563 C592 0.950 . S
H564 C594 0.950 . S
H565 C595 0.950 . S
C566 H548 0.951 . S
C566 C567 1.366 . S
C566 C568 1.388 . S
C567 C566 1.366 . S
C567 C571 1.385 . S
C568 H549 0.951 . S
C568 C566 1.388 . S
C568 C569 1.366 . S
C569 C568 1.366 . S
C569 C570 1.414 . S
C569 C572 1.499 . S
C570 H550 0.950 . S
C570 C569 1.414 . S
C570 C571 1.374 . S
C571 H551 0.950 . S
C571 C567 1.385 . S
C571 C570 1.374 . S
C572 C569 1.499 . S
C572 C573 1.373 . S
C572 C574 1.389 . S
C573 H552 0.950 . S
C573 C572 1.373 . S
C573 C589 1.377 . S
C574 C572 1.389 . S
C574 C575 1.524 . S
C574 C588 1.377 . S
C575 C574 1.524 . S
C575 C576 1.397 . S
C575 C580 1.363 . S
C576 H553 0.950 . S
C576 C575 1.397 . S
C576 C577 1.334 . S
C577 H554 0.950 . S
C577 C576 1.334 . S
C577 C578 1.287 . S
C578 C577 1.287 . S
C578 C579 1.524 . S
C578 H597 0.913 . S
C579 H555 0.950 . S
C579 C578 1.524 . S
C579 C580 1.415 . S
C580 H556 0.950 . S
C580 C575 1.363 . S
C580 C579 1.415 . S
C581 H557 0.951 . S
C581 C582 1.366 . S
C581 C583 1.388 . S
C582 C581 1.366 . S
C582 C586 1.385 . S
C583 H558 0.951 . S
C583 C581 1.388 . S
C583 C584 1.366 . S
C584 C583 1.366 . S
C584 C585 1.414 . S
C584 C587 1.499 . S
C585 H559 0.950 . S
C585 C584 1.414 . S
C585 C586 1.374 . S
C586 H560 0.950 1_655 S
C586 C582 1.385 . S
C586 C585 1.374 . S
C587 C584 1.499 . S
C587 C588 1.373 . S
C587 C589 1.389 . S
C588 H561 0.950 . S
C588 C574 1.377 . S
C588 C587 1.373 . S
C589 C573 1.377 . S
C589 C587 1.389 . S
C589 C590 1.524 . S
C590 C589 1.524 . S
C590 C591 1.397 . S
C590 C595 1.363 . S
C591 H562 0.950 . S
C591 C590 1.397 . S
C591 C592 1.334 . S
C592 H563 0.950 . S
C592 C591 1.334 . S
C592 C593 1.287 . S
C593 C592 1.287 . S
C593 C594 1.524 . S
C593 H596 0.999 . S
C594 H564 0.950 . S
C594 C593 1.524 . S
C594 C595 1.415 . S
C595 H565 0.950 . S
C595 C590 1.363 . S
C595 C594 1.415 . S
H596 C593 0.999 . S
H597 C578 0.913 . S
H598 C616 0.951 . S
H599 C618 0.951 . S
H600 C620 0.950 . S
H601 C621 0.950 . S
H602 C623 0.950 . S
H603 C626 0.950 . S
H604 C627 0.950 . S
H605 C629 0.950 . S
H606 C630 0.950 . S
H607 C631 0.951 . S
H608 C633 0.951 . S
H609 C635 0.950 . S
H610 C636 0.950 . S
H611 C638 0.950 . S
H612 C641 0.950 . S
H613 C642 0.950 . S
H614 C644 0.950 . S
H615 C645 0.950 . S
C616 H598 0.951 . S
C616 C617 1.366 . S
C616 C618 1.388 . S
C617 C616 1.366 . S
C617 C621 1.385 . S
C618 H599 0.951 . S
C618 C616 1.388 . S
C618 C619 1.366 . S
C619 C618 1.366 . S
C619 C620 1.414 . S
C619 C622 1.499 . S
C620 H600 0.950 . S
C620 C619 1.414 . S
C620 C621 1.374 . S
C621 H601 0.950 . S
C621 C617 1.385 . S
C621 C620 1.374 . S
C622 C619 1.499 . S
C622 C623 1.373 . S
C622 C624 1.389 . S
C623 H602 0.950 . S
C623 C622 1.373 . S
C623 C639 1.377 . S
C624 C622 1.389 . S
C624 C625 1.524 . S
C624 C638 1.377 . S
C625 C624 1.524 . S
C625 C626 1.397 . S
C625 C630 1.363 . S
C626 H603 0.950 . S
C626 C625 1.397 . S
C626 C627 1.334 . S
C627 H604 0.950 . S
C627 C626 1.334 . S
C627 C628 1.287 . S
C628 C627 1.287 . S
C628 C629 1.524 . S
C628 H647 0.913 . S
C629 H605 0.950 . S
C629 C628 1.524 . S
C629 C630 1.415 . S
C630 H606 0.950 . S
C630 C625 1.363 . S
C630 C629 1.415 . S
C631 H607 0.951 . S
C631 C632 1.366 . S
C631 C633 1.388 . S
C632 C631 1.366 . S
C632 C636 1.385 . S
C633 H608 0.951 . S
C633 C631 1.388 . S
C633 C634 1.366 . S
C634 C633 1.366 . S
C634 C635 1.414 . S
C634 C637 1.499 . S
C635 H609 0.950 . S
C635 C634 1.414 . S
C635 C636 1.374 . S
C636 H610 0.950 . S
C636 C632 1.385 . S
C636 C635 1.374 . S
C637 C634 1.499 . S
C637 C638 1.373 . S
C637 C639 1.389 . S
C638 H611 0.950 . S
C638 C624 1.377 . S
C638 C637 1.373 . S
C639 C623 1.377 . S
C639 C637 1.389 . S
C639 C640 1.524 . S
C640 C639 1.524 . S
C640 C641 1.397 . S
C640 C645 1.363 . S
C641 H612 0.950 . S
C641 C640 1.397 . S
C641 C642 1.334 . S
C642 H613 0.950 . S
C642 C641 1.334 . S
C642 C643 1.287 . S
C643 C642 1.287 . S
C643 C644 1.524 . S
C643 H646 0.999 . S
C644 H614 0.950 . S
C644 C643 1.524 . S
C644 C645 1.415 . S
C645 H615 0.950 . S
C645 C640 1.363 . S
C645 C644 1.415 . S
H646 C643 0.999 . S
H647 C628 0.913 . S
H648 C666 0.951 . S
H649 C668 0.951 . S
H650 C670 0.950 . S
H651 C671 0.950 . S
H652 C673 0.950 . S
H653 C676 0.950 . S
H654 C677 0.950 . S
H655 C679 0.950 . S
H656 C680 0.950 . S
H657 C681 0.951 . S
H658 C683 0.951 . S
H659 C685 0.950 . S
H660 C686 0.950 . S
H661 C688 0.950 . S
H662 C691 0.950 . S
H663 C692 0.950 . S
H664 C694 0.950 . S
H665 C695 0.950 . S
C666 H648 0.951 . S
C666 C667 1.366 . S
C666 C668 1.388 . S
C667 C666 1.366 . S
C667 C671 1.385 . S
C668 H649 0.951 . S
C668 C666 1.388 . S
C668 C669 1.366 . S
C669 C668 1.366 . S
C669 C670 1.414 . S
C669 C672 1.499 . S
C670 H650 0.950 . S
C670 C669 1.414 . S
C670 C671 1.374 . S
C671 H651 0.950 . S
C671 C667 1.385 . S
C671 C670 1.374 . S
C672 C669 1.499 . S
C672 C673 1.373 . S
C672 C674 1.389 . S
C673 H652 0.950 . S
C673 C672 1.373 . S
C673 C689 1.377 . S
C674 C672 1.389 . S
C674 C675 1.524 . S
C674 C688 1.377 . S
C675 C674 1.524 . S
C675 C676 1.397 . S
C675 C680 1.363 . S
C676 H653 0.950 . S
C676 C675 1.397 . S
C676 C677 1.334 . S
C677 H654 0.950 . S
C677 C676 1.334 . S
C677 C678 1.287 . S
C678 C677 1.287 . S
C678 C679 1.524 . S
C678 H697 0.913 . S
C679 H655 0.950 . S
C679 C678 1.524 . S
C679 C680 1.415 . S
C680 H656 0.950 . S
C680 C675 1.363 . S
C680 C679 1.415 . S
C681 H657 0.951 . S
C681 C682 1.366 . S
C681 C683 1.388 . S
C682 C681 1.366 . S
C682 C686 1.385 . S
C683 H658 0.951 . S
C683 C681 1.388 . S
C683 C684 1.366 . S
C684 C683 1.366 . S
C684 C685 1.414 . S
C684 C687 1.499 . S
C685 H659 0.950 . S
C685 C684 1.414 . S
C685 C686 1.374 . S
C686 H660 0.950 . S
C686 C682 1.385 . S
C686 C685 1.374 . S
C687 C684 1.499 . S
C687 C688 1.373 . S
C687 C689 1.389 . S
C688 H661 0.950 . S
C688 C674 1.377 . S
C688 C687 1.373 . S
C689 C673 1.377 . S
C689 C687 1.389 . S
C689 C690 1.524 . S
C690 C689 1.524 . S
C690 C691 1.397 . S
C690 C695 1.363 . S
C691 H662 0.950 . S
C691 C690 1.397 . S
C691 C692 1.334 . S
C692 H663 0.950 . S
C692 C691 1.334 . S
C692 C693 1.287 . S
C693 C692 1.287 . S
C693 C694 1.524 . S
C693 H696 0.999 . S
C694 H664 0.950 . S
C694 C693 1.524 . S
C694 C695 1.415 . S
C695 H665 0.950 . S
C695 C690 1.363 . S
C695 C694 1.415 . S
H696 C693 0.999 . S
H697 C678 0.913 . S
H698 C716 0.951 . S
H699 C718 0.951 . S
H700 C720 0.950 . S
H701 C721 0.950 . S
H702 C723 0.950 . S
H703 C726 0.950 . S
H704 C727 0.950 . S
H705 C729 0.950 . S
H706 C730 0.950 . S
H707 C731 0.951 . S
H708 C733 0.951 . S
H709 C735 0.950 . S
H710 C736 0.950 . S
H711 C738 0.950 . S
H712 C741 0.950 . S
H713 C742 0.950 . S
H714 C744 0.950 . S
H715 C745 0.950 . S
C716 H698 0.951 . S
C716 C717 1.366 . S
C716 C718 1.388 . S
C717 C716 1.366 . S
C717 C721 1.385 . S
C718 H699 0.951 . S
C718 C716 1.388 . S
C718 C719 1.366 . S
C719 C718 1.366 . S
C719 C720 1.414 . S
C719 C722 1.499 . S
C720 H700 0.950 . S
C720 C719 1.414 . S
C720 C721 1.374 . S
C721 H701 0.950 . S
C721 C717 1.385 . S
C721 C720 1.374 . S
C722 C719 1.499 . S
C722 C723 1.373 . S
C722 C724 1.389 . S
C723 H702 0.950 . S
C723 C722 1.373 . S
C723 C739 1.377 . S
C724 C722 1.389 . S
C724 C725 1.524 . S
C724 C738 1.377 . S
C725 C724 1.524 . S
C725 C726 1.397 . S
C725 C730 1.363 . S
C726 H703 0.950 . S
C726 C725 1.397 . S
C726 C727 1.334 . S
C727 H704 0.950 . S
C727 C726 1.334 . S
C727 C728 1.287 . S
C728 C727 1.287 . S
C728 C729 1.524 . S
C728 H747 0.913 . S
C729 H705 0.950 . S
C729 C728 1.524 . S
C729 C730 1.415 . S
C730 H706 0.950 . S
C730 C725 1.363 . S
C730 C729 1.415 . S
C731 H707 0.951 . S
C731 C732 1.366 . S
C731 C733 1.388 . S
C732 C731 1.366 . S
C732 C736 1.385 . S
C733 H708 0.951 . S
C733 C731 1.388 . S
C733 C734 1.366 . S
C734 C733 1.366 . S
C734 C735 1.414 . S
C734 C737 1.499 . S
C735 H709 0.950 . S
C735 C734 1.414 . S
C735 C736 1.374 . S
C736 H710 0.950 . S
C736 C732 1.385 . S
C736 C735 1.374 . S
C737 C734 1.499 . S
C737 C738 1.373 . S
C737 C739 1.389 . S
C738 H711 0.950 . S
C738 C724 1.377 . S
C738 C737 1.373 . S
C739 C723 1.377 . S
C739 C737 1.389 . S
C739 C740 1.524 . S
C740 C739 1.524 . S
C740 C741 1.397 . S
C740 C745 1.363 . S
C741 H712 0.950 . S
C741 C740 1.397 . S
C741 C742 1.334 . S
C742 H713 0.950 . S
C742 C741 1.334 . S
C742 C743 1.287 . S
C743 C742 1.287 . S
C743 C744 1.524 . S
C743 H746 0.999 . S
C744 H714 0.950 . S
C744 C743 1.524 . S
C744 C745 1.415 . S
C745 H715 0.950 . S
C745 C740 1.363 . S
C745 C744 1.415 . S
H746 C743 0.999 . S
H747 C728 0.913 . S
H748 C766 0.951 . S
H749 C768 0.951 . S
H750 C770 0.950 . S
H751 C771 0.950 . S
H752 C773 0.950 . S
H753 C776 0.950 . S
H754 C777 0.950 . S
H755 C779 0.950 . S
H756 C780 0.950 . S
H757 C781 0.951 . S
H758 C783 0.951 . S
H759 C785 0.950 . S
H760 C786 0.950 . S
H761 C788 0.950 . S
H762 C791 0.950 . S
H763 C792 0.950 . S
H764 C794 0.950 . S
H765 C795 0.950 . S
C766 H748 0.951 . S
C766 C767 1.366 . S
C766 C768 1.388 . S
C767 C766 1.366 . S
C767 C771 1.385 . S
C768 H749 0.951 . S
C768 C766 1.388 . S
C768 C769 1.366 . S
C769 C768 1.366 . S
C769 C770 1.414 . S
C769 C772 1.499 . S
C770 H750 0.950 . S
C770 C769 1.414 . S
C770 C771 1.374 . S
C771 H751 0.950 . S
C771 C767 1.385 . S
C771 C770 1.374 . S
C772 C769 1.499 . S
C772 C773 1.373 . S
C772 C774 1.389 . S
C773 H752 0.950 . S
C773 C772 1.373 . S
C773 C789 1.377 . S
C774 C772 1.389 . S
C774 C775 1.524 . S
C774 C788 1.377 . S
C775 C774 1.524 . S
C775 C776 1.397 . S
C775 C780 1.363 . S
C776 H753 0.950 . S
C776 C775 1.397 . S
C776 C777 1.334 . S
C777 H754 0.950 . S
C777 C776 1.334 . S
C777 C778 1.287 . S
C778 C777 1.287 . S
C778 C779 1.524 . S
C778 H797 0.913 . S
C779 H755 0.950 . S
C779 C778 1.524 . S
C779 C780 1.415 . S
C780 H756 0.950 . S
C780 C775 1.363 . S
C780 C779 1.415 . S
C781 H757 0.951 . S
C781 C782 1.366 . S
C781 C783 1.388 . S
C782 C781 1.366 . S
C782 C786 1.385 . S
C783 H758 0.951 . S
C783 C781 1.388 . S
C783 C784 1.366 . S
C784 C783 1.366 . S
C784 C785 1.414 . S
C784 C787 1.499 . S
C785 H759 0.950 . S
C785 C784 1.414 . S
C785 C786 1.374 . S
C786 H760 0.950 . S
C786 C782 1.385 . S
C786 C785 1.374 . S
C787 C784 1.499 . S
C787 C788 1.373 . S
C787 C789 1.389 . S
C788 H761 0.950 . S
C788 C774 1.377 . S
C788 C787 1.373 . S
C789 C773 1.377 . S
C789 C787 1.389 . S
C789 C790 1.524 . S
C790 C789 1.524 . S
C790 C791 1.397 . S
C790 C795 1.363 . S
C791 H762 0.950 . S
C791 C790 1.397 . S
C791 C792 1.334 . S
C792 H763 0.950 . S
C792 C791 1.334 . S
C792 C793 1.287 . S
C793 C792 1.287 . S
C793 C794 1.524 . S
C793 H796 0.999 . S
C794 H764 0.950 . S
C794 C793 1.524 . S
C794 C795 1.415 . S
C795 H765 0.950 . S
C795 C790 1.363 . S
C795 C794 1.415 . S
H796 C793 0.999 . S
H797 C778 0.913 . S
H798 C816 0.951 . S
H799 C818 0.951 . S
H800 C820 0.958 1_655 S
H801 C821 0.955 1_655 S
H802 C823 0.950 . S
H803 C826 0.950 . S
H804 C827 0.950 . S
H805 C829 0.950 . S
H806 C830 0.950 . S
H807 C831 0.951 . S
H808 C833 0.951 . S
H809 C835 0.950 . S
H810 C836 0.950 . S
H811 C838 0.950 1_556 S
H812 C841 0.950 . S
H813 C842 0.950 . S
H814 C844 0.950 . S
H815 C845 0.950 . S
C816 H798 0.951 . S
C816 C817 1.366 . S
C816 C818 1.388 . S
C817 C816 1.366 . S
C817 C821 1.377 . S
C818 H799 0.951 . S
C818 C816 1.388 . S
C818 C819 1.366 . S
C819 C818 1.366 . S
C819 C820 1.414 . S
C819 C822 1.499 . S
C820 H800 0.958 1_455 S
C820 C819 1.414 . S
C820 C821 1.378 . S
C821 H801 0.955 1_455 S
C821 C817 1.377 . S
C821 C820 1.378 . S
C822 C819 1.499 . S
C822 C823 1.373 . S
C822 C824 1.389 . S
C823 H802 0.950 . S
C823 C822 1.373 . S
C823 C839 1.377 . S
C824 C822 1.389 . S
C824 C825 1.524 1_455 S
C824 C838 1.377 . S
C825 C824 1.524 1_655 S
C825 C826 1.397 . S
C825 C830 1.363 1_655 S
C826 H803 0.950 . S
C826 C825 1.397 . S
C826 C827 1.334 . S
C827 H804 0.950 . S
C827 C826 1.334 . S
C827 C828 1.287 . S
C828 C827 1.287 . S
C828 C829 1.524 . S
C828 H847 0.913 . S
C829 H805 0.950 . S
C829 C828 1.524 . S
C829 C830 1.415 1_655 S
C830 H806 0.950 . S
C830 C825 1.363 1_455 S
C830 C829 1.415 1_455 S
C831 H807 0.951 . S
C831 C832 1.366 . S
C831 C833 1.388 . S
C832 C831 1.366 . S
C832 C836 1.385 . S
C833 H808 0.951 . S
C833 C831 1.388 . S
C833 C834 1.366 . S
C834 C833 1.366 . S
C834 C835 1.414 . S
C834 C837 1.499 . S
C835 H809 0.950 . S
C835 C834 1.414 . S
C835 C836 1.374 . S
C836 H810 0.950 . S
C836 C832 1.385 . S
C836 C835 1.374 . S
C837 C834 1.499 . S
C837 C838 1.373 1_556 S
C837 C839 1.389 1_556 S
C838 H811 0.950 1_554 S
C838 C824 1.377 . S
C838 C837 1.373 1_554 S
C839 C823 1.377 . S
C839 C837 1.389 1_554 S
C839 C840 1.509 1_554 S
C840 C839 1.509 1_556 S
C840 C841 1.416 . S
C840 C845 1.357 1_556 S
C841 H812 0.950 . S
C841 C840 1.416 . S
C841 C842 1.334 . S
C842 H813 0.950 . S
C842 C841 1.334 . S
C842 C843 1.287 . S
C843 C842 1.287 . S
C843 C844 1.524 . S
C843 H846 0.999 . S
C844 H814 0.950 . S
C844 C843 1.524 . S
C844 C845 1.415 1_556 S
C845 H815 0.950 . S
C845 C840 1.357 1_554 S
C845 C844 1.415 1_554 S
H846 C843 0.999 . S
H847 C828 0.913 . S
H848 C866 0.951 . S
H849 C868 0.951 . S
H850 C870 0.950 . S
H851 C871 0.950 . S
H852 C873 0.950 . S
H853 C876 0.950 . S
H854 C877 0.950 . S
H855 C879 0.950 . S
H856 C880 0.950 . S
H857 C881 0.951 . S
H858 C883 0.951 . S
H859 C885 0.950 . S
H860 C886 0.950 . S
H861 C888 0.950 1_565 S
H862 C891 0.950 1_565 S
H863 C892 0.950 . S
H864 C894 0.950 . S
H865 C895 0.950 . S
C866 H848 0.951 . S
C866 C867 1.366 1_565 S
C866 C868 1.388 . S
C867 C866 1.366 1_545 S
C867 C871 1.385 . S
C868 H849 0.951 . S
C868 C866 1.388 . S
C868 C869 1.366 1_565 S
C869 C868 1.366 1_545 S
C869 C870 1.414 . S
C869 C872 1.499 . S
C870 H850 0.950 . S
C870 C869 1.414 . S
C870 C871 1.374 . S
C871 H851 0.950 . S
C871 C867 1.385 . S
C871 C870 1.374 . S
C872 C869 1.499 . S
C872 C873 1.373 . S
C872 C874 1.389 . S
C873 H852 0.950 . S
C873 C872 1.373 . S
C873 C889 1.377 . S
C874 C872 1.389 . S
C874 C875 1.524 1_545 S
C874 C888 1.377 . S
C875 C874 1.524 1_565 S
C875 C876 1.397 1_565 S
C875 C880 1.363 . S
C876 H853 0.950 . S
C876 C875 1.397 1_545 S
C876 C877 1.334 . S
C877 H854 0.950 . S
C877 C876 1.334 . S
C877 C878 1.287 1_545 S
C878 C877 1.287 1_565 S
C878 C879 1.524 . S
C878 H897 0.913 . S
C879 H855 0.950 . S
C879 C878 1.524 . S
C879 C880 1.415 . S
C880 H856 0.950 . S
C880 C875 1.363 . S
C880 C879 1.415 . S
C881 H857 0.951 . S
C881 C882 1.366 . S
C881 C883 1.388 . S
C882 C881 1.366 . S
C882 C886 1.385 1_545 S
C883 H858 0.951 . S
C883 C881 1.388 . S
C883 C884 1.366 . S
C884 C883 1.366 . S
C884 C885 1.414 1_545 S
C884 C887 1.499 . S
C885 H859 0.950 . S
C885 C884 1.414 1_565 S
C885 C886 1.374 . S
C886 H860 0.950 . S
C886 C882 1.385 1_565 S
C886 C885 1.374 . S
C887 C884 1.499 . S
C887 C888 1.373 . S
C887 C889 1.389 . S
C888 H861 0.950 1_545 S
C888 C874 1.377 . S
C888 C887 1.373 . S
C889 C873 1.377 . S
C889 C887 1.389 . S
C889 C890 1.524 . S
C890 C889 1.524 . S
C890 C891 1.397 . S
C890 C895 1.363 . S
C891 H862 0.950 1_545 S
C891 C890 1.397 . S
C891 C892 1.334 . S
C892 H863 0.950 . S
C892 C891 1.334 . S
C892 C893 1.287 . S
C893 C892 1.287 . S
C893 C894 1.524 . S
C893 H896 0.999 . S
C894 H864 0.950 . S
C894 C893 1.524 . S
C894 C895 1.415 . S
C895 H865 0.950 . S
C895 C890 1.363 . S
C895 C894 1.415 . S
H896 C893 0.999 . S
H897 C878 0.913 . S
H898 C916 0.951 . S
H899 C918 0.951 . S
H900 C920 0.950 . S
H901 C921 0.950 . S
H902 C923 0.950 . S
H903 C926 0.950 . S
H904 C927 0.950 . S
H905 C929 0.950 . S
H906 C930 0.950 . S
H907 C931 0.951 . S
H908 C933 0.951 . S
H909 C935 0.950 . S
H910 C936 0.950 . S
H911 C938 0.950 . S
H912 C941 0.950 . S
H913 C942 0.950 . S
H914 C944 0.950 . S
H915 C945 0.950 . S
C916 H898 0.951 . S
C916 C917 1.366 . S
C916 C918 1.388 . S
C917 C916 1.366 . S
C917 C921 1.385 . S
C918 H899 0.951 . S
C918 C916 1.388 . S
C918 C919 1.366 . S
C919 C918 1.366 . S
C919 C920 1.414 . S
C919 C922 1.499 . S
C920 H900 0.950 . S
C920 C919 1.414 . S
C920 C921 1.374 . S
C921 H901 0.950 . S
C921 C917 1.385 . S
C921 C920 1.374 . S
C922 C919 1.499 . S
C922 C923 1.373 . S
C922 C924 1.389 . S
C923 H902 0.950 . S
C923 C922 1.373 . S
C923 C939 1.377 . S
C924 C922 1.389 . S
C924 C925 1.524 . S
C924 C938 1.377 . S
C925 C924 1.524 . S
C925 C926 1.397 . S
C925 C930 1.363 . S
C926 H903 0.950 . S
C926 C925 1.397 . S
C926 C927 1.334 . S
C927 H904 0.950 . S
C927 C926 1.334 . S
C927 C928 1.287 . S
C928 C927 1.287 . S
C928 C929 1.524 . S
C928 H947 0.913 . S
C929 H905 0.950 . S
C929 C928 1.524 . S
C929 C930 1.415 . S
C930 H906 0.950 . S
C930 C925 1.363 . S
C930 C929 1.415 . S
C931 H907 0.951 . S
C931 C932 1.366 . S
C931 C933 1.388 . S
C932 C931 1.366 . S
C932 C936 1.385 . S
C933 H908 0.951 . S
C933 C931 1.388 . S
C933 C934 1.366 . S
C934 C933 1.366 . S
C934 C935 1.414 . S
C934 C937 1.499 . S
C935 H909 0.950 . S
C935 C934 1.414 . S
C935 C936 1.374 . S
C936 H910 0.950 . S
C936 C932 1.385 . S
C936 C935 1.374 . S
C937 C934 1.499 . S
C937 C938 1.373 . S
C937 C939 1.389 . S
C938 H911 0.950 . S
C938 C924 1.377 . S
C938 C937 1.373 . S
C939 C923 1.377 . S
C939 C937 1.389 . S
C939 C940 1.524 . S
C940 C939 1.524 . S
C940 C941 1.397 . S
C940 C945 1.363 . S
C941 H912 0.950 . S
C941 C940 1.397 . S
C941 C942 1.334 . S
C942 H913 0.950 . S
C942 C941 1.334 . S
C942 C943 1.287 . S
C943 C942 1.287 . S
C943 C944 1.524 . S
C943 H946 0.999 . S
C944 H914 0.950 . S
C944 C943 1.524 . S
C944 C945 1.415 . S
C945 H915 0.950 . S
C945 C940 1.363 . S
C945 C944 1.415 . S
H946 C943 0.999 . S
H947 C928 0.913 . S
H948 C966 0.951 . S
H949 C968 0.951 . S
H950 C970 0.950 . S
H951 C971 0.950 . S
H952 C973 0.950 . S
H953 C976 0.950 . S
H954 C977 0.950 . S
H955 C979 0.950 . S
H956 C980 0.950 . S
H957 C981 0.951 . S
H958 C983 0.951 . S
H959 C985 0.950 . S
H960 C986 0.950 . S
H961 C988 0.950 . S
H962 C991 0.950 . S
H963 C992 0.950 . S
H964 C994 0.950 . S
H965 C995 0.950 . S
C966 H948 0.951 . S
C966 C967 1.366 . S
C966 C968 1.388 . S
C967 C966 1.366 . S
C967 C971 1.385 . S
C968 H949 0.951 . S
C968 C966 1.388 . S
C968 C969 1.366 . S
C969 C968 1.366 . S
C969 C970 1.414 . S
C969 C972 1.499 . S
C970 H950 0.950 . S
C970 C969 1.414 . S
C970 C971 1.374 . S
C971 H951 0.950 . S
C971 C967 1.385 . S
C971 C970 1.374 . S
C972 C969 1.499 . S
C972 C973 1.373 1_545 S
C972 C974 1.389 . S
C973 H952 0.950 . S
C973 C972 1.373 1_565 S
C973 C989 1.377 . S
C974 C972 1.389 . S
C974 C975 1.524 . S
C974 C988 1.377 . S
C975 C974 1.524 . S
C975 C976 1.397 . S
C975 C980 1.363 . S
C976 H953 0.950 . S
C976 C975 1.397 . S
C976 C977 1.334 . S
C977 H954 0.950 . S
C977 C976 1.334 . S
C977 C978 1.287 . S
C978 C977 1.287 . S
C978 C979 1.524 . S
C978 H997 0.913 . S
C979 H955 0.950 . S
C979 C978 1.524 . S
C979 C980 1.415 . S
C980 H956 0.950 . S
C980 C975 1.363 . S
C980 C979 1.415 . S
C981 H957 0.951 . S
C981 C982 1.366 . S
C981 C983 1.388 . S
C982 C981 1.366 . S
C982 C986 1.385 . S
C983 H958 0.951 . S
C983 C981 1.388 . S
C983 C984 1.366 . S
C984 C983 1.366 . S
C984 C985 1.414 . S
C984 C987 1.499 . S
C985 H959 0.950 . S
C985 C984 1.414 . S
C985 C986 1.374 . S
C986 H960 0.950 . S
C986 C982 1.385 . S
C986 C985 1.374 . S
C987 C984 1.499 . S
C987 C988 1.373 . S
C987 C989 1.389 1_545 S
C988 H961 0.950 . S
C988 C974 1.377 . S
C988 C987 1.373 . S
C989 C973 1.377 . S
C989 C987 1.389 1_565 S
C989 C990 1.524 . S
C990 C989 1.524 . S
C990 C991 1.397 . S
C990 C995 1.363 . S
C991 H962 0.950 . S
C991 C990 1.397 . S
C991 C992 1.334 . S
C992 H963 0.950 . S
C992 C991 1.334 . S
C992 C993 1.287 . S
C993 C992 1.287 . S
C993 C994 1.524 . S
C993 H996 0.999 . S
C994 H964 0.950 . S
C994 C993 1.524 . S
C994 C995 1.415 . S
C995 H965 0.950 . S
C995 C990 1.363 . S
C995 C994 1.415 . S
H996 C993 0.999 . S
H997 C978 0.913 . S
H998 C1016 0.951 . S
H999 C1018 0.951 . S
H1000 C1020 0.950 . S
H1001 C1021 0.950 . S
H1002 C1023 0.950 . S
H1003 C1026 0.950 . S
H1004 C1027 0.950 . S
H1005 C1029 0.950 . S
H1006 C1030 0.950 . S
H1007 C1031 0.951 . S
H1008 C1033 0.951 . S
H1009 C1035 0.950 . S
H1010 C1036 0.950 . S
H1011 C1038 0.950 1_554 S
H1012 C1041 0.950 . S
H1013 C1042 0.950 . S
H1014 C1044 0.950 . S
H1015 C1045 0.950 1_556 S
C1016 H998 0.951 . S
C1016 C1017 1.366 . S
C1016 C1018 1.388 . S
C1017 C1016 1.366 . S
C1017 C1021 1.385 . S
C1018 H999 0.951 . S
C1018 C1016 1.388 . S
C1018 C1019 1.366 . S
C1019 C1018 1.366 . S
C1019 C1020 1.414 . S
C1019 C1022 1.499 . S
C1020 H1000 0.950 . S
C1020 C1019 1.414 . S
C1020 C1021 1.374 . S
C1021 H1001 0.950 . S
C1021 C1017 1.385 . S
C1021 C1020 1.374 . S
C1022 C1019 1.499 . S
C1022 C1023 1.373 . S
C1022 C1024 1.389 . S
C1023 H1002 0.950 . S
C1023 C1022 1.373 . S
C1023 C1039 1.377 . S
C1024 C1022 1.389 . S
C1024 C1025 1.524 . S
C1024 C1038 1.377 . S
C1025 C1024 1.524 . S
C1025 C1026 1.397 . S
C1025 C1030 1.363 . S
C1026 H1003 0.950 . S
C1026 C1025 1.397 . S
C1026 C1027 1.334 . S
C1027 H1004 0.950 . S
C1027 C1026 1.334 . S
C1027 C1028 1.287 . S
C1028 C1027 1.287 . S
C1028 C1029 1.524 . S
C1028 H1047 0.913 . S
C1029 H1005 0.950 . S
C1029 C1028 1.524 . S
C1029 C1030 1.415 . S
C1030 H1006 0.950 . S
C1030 C1025 1.363 . S
C1030 C1029 1.415 . S
C1031 H1007 0.951 . S
C1031 C1032 1.366 . S
C1031 C1033 1.388 . S
C1032 C1031 1.366 . S
C1032 C1036 1.385 . S
C1033 H1008 0.951 . S
C1033 C1031 1.388 . S
C1033 C1034 1.366 . S
C1034 C1033 1.366 . S
C1034 C1035 1.414 . S
C1034 C1037 1.499 . S
C1035 H1009 0.950 . S
C1035 C1034 1.414 . S
C1035 C1036 1.374 . S
C1036 H1010 0.950 . S
C1036 C1032 1.385 . S
C1036 C1035 1.374 . S
C1037 C1034 1.499 . S
C1037 C1038 1.373 1_554 S
C1037 C1039 1.389 1_554 S
C1038 H1011 0.950 1_556 S
C1038 C1024 1.377 . S
C1038 C1037 1.373 1_556 S
C1039 C1023 1.377 . S
C1039 C1037 1.389 1_556 S
C1039 C1040 1.524 1_556 S
C1040 C1039 1.524 1_554 S
C1040 C1041 1.397 . S
C1040 C1045 1.363 . S
C1041 H1012 0.950 . S
C1041 C1040 1.397 . S
C1041 C1042 1.334 . S
C1042 H1013 0.950 . S
C1042 C1041 1.334 . S
C1042 C1043 1.287 . S
C1043 C1042 1.287 . S
C1043 C1044 1.524 . S
C1043 H1046 0.999 . S
C1044 H1014 0.950 . S
C1044 C1043 1.524 . S
C1044 C1045 1.415 . S
C1045 H1015 0.950 1_554 S
C1045 C1040 1.363 . S
C1045 C1044 1.415 . S
H1046 C1043 0.999 . S
H1047 C1028 0.913 . S
H1048 C1066 0.951 . S
H1049 C1068 0.951 . S
H1050 C1070 0.950 . S
H1051 C1071 0.950 . S
H1052 C1073 0.950 . S
H1053 C1076 0.950 . S
H1054 C1077 0.950 . S
H1055 C1079 0.950 . S
H1056 C1080 0.950 . S
H1057 C1081 0.951 . S
H1058 C1083 0.951 . S
H1059 C1085 0.950 . S
H1060 C1086 0.952 . S
H1061 C1088 0.950 . S
H1062 C1091 0.950 . S
H1063 C1092 0.950 . S
H1064 C1094 0.950 . S
H1065 C1095 0.950 . S
C1066 H1048 0.951 . S
C1066 C1067 1.366 . S
C1066 C1068 1.388 . S
C1067 C1066 1.366 . S
C1067 C1071 1.385 1_655 S
C1068 H1049 0.951 . S
C1068 C1066 1.388 . S
C1068 C1069 1.366 1_655 S
C1069 C1068 1.366 1_455 S
C1069 C1070 1.414 . S
C1069 C1072 1.499 . S
C1070 H1050 0.950 . S
C1070 C1069 1.414 . S
C1070 C1071 1.374 . S
C1071 H1051 0.950 . S
C1071 C1067 1.385 1_455 S
C1071 C1070 1.374 . S
C1072 C1069 1.499 . S
C1072 C1073 1.373 . S
C1072 C1074 1.389 1_455 S
C1073 H1052 0.950 . S
C1073 C1072 1.373 . S
C1073 C1089 1.377 . S
C1074 C1072 1.389 1_655 S
C1074 C1075 1.524 . S
C1074 C1088 1.377 . S
C1075 C1074 1.524 . S
C1075 C1076 1.397 . S
C1075 C1080 1.363 . S
C1076 H1053 0.950 . S
C1076 C1075 1.397 . S
C1076 C1077 1.334 . S
C1077 H1054 0.950 . S
C1077 C1076 1.334 . S
C1077 C1078 1.287 . S
C1078 C1077 1.287 . S
C1078 C1079 1.524 . S
C1078 H1097 0.913 . S
C1079 H1055 0.950 . S
C1079 C1078 1.524 . S
C1079 C1080 1.415 . S
C1080 H1056 0.950 . S
C1080 C1075 1.363 . S
C1080 C1079 1.415 . S
C1081 H1057 0.951 . S
C1081 C1082 1.366 . S
C1081 C1083 1.388 . S
C1082 C1081 1.366 . S
C1082 C1086 1.382 1_455 S
C1083 H1058 0.951 . S
C1083 C1081 1.388 . S
C1083 C1084 1.366 . S
C1084 C1083 1.366 . S
C1084 C1085 1.414 1_455 S
C1084 C1087 1.499 . S
C1085 H1059 0.950 . S
C1085 C1084 1.414 1_655 S
C1085 C1086 1.374 . S
C1086 H1060 0.952 . S
C1086 C1082 1.382 1_655 S
C1086 C1085 1.374 . S
C1087 C1084 1.499 . S
C1087 C1088 1.373 1_455 S
C1087 C1089 1.389 . S
C1088 H1061 0.950 . S
C1088 C1074 1.377 . S
C1088 C1087 1.373 1_655 S
C1089 C1073 1.377 . S
C1089 C1087 1.389 . S
C1089 C1090 1.524 . S
C1090 C1089 1.524 . S
C1090 C1091 1.397 . S
C1090 C1095 1.363 . S
C1091 H1062 0.950 . S
C1091 C1090 1.397 . S
C1091 C1092 1.334 . S
C1092 H1063 0.950 . S
C1092 C1091 1.334 . S
C1092 C1093 1.287 . S
C1093 C1092 1.287 . S
C1093 C1094 1.524 . S
C1093 H1096 0.999 . S
C1094 H1064 0.950 . S
C1094 C1093 1.524 . S
C1094 C1095 1.415 . S
C1095 H1065 0.950 . S
C1095 C1090 1.363 . S
C1095 C1094 1.415 . S
H1096 C1093 0.999 . S
H1097 C1078 0.913 . S
C217 C7 0.489 . S
C232 C189 0.555 . S
C267 C51 1.794 . S
C282 C167 1.769 . S
C317 C87 1.104 . S
C332 C180 1.099 . S
C367 C16 0.294 . S
C382 C193 0.185 . S
C432 C163 1.877 . S
C417 C42 2.015 . S
C482 C176 1.246 . S
C467 C96 1.319 . S
C517 C47 1.051 . S
C532 C141 1.045 . S
C567 C91 2.998 . S
C582 C154 2.963 1_655 S
C617 C2 2.013 . S
C632 C124 1.878 . S
C682 C137 1.270 . S
C667 C56 1.333 . S
C732 C150 2.867 . S
C717 C82 3.029 . S
C767 C11 1.799 . S
C782 C128 1.782 . S
C832 C155 1.735 . S
C817 C19 1.697 . S
C867 C50 1.471 . S
C882 C129 1.502 . S
C917 C99 1.527 . S
C932 C142 1.608 . S
C982 C181 1.549 . S
C967 C59 1.484 . S
C1032 C194 1.354 . S
C1017 C90 1.340 . S
C1067 C10 1.447 1_655 S
C1082 C168 1.494 . S
