# Generated by pormake.
# Topology anh, (6,3)-cn, num edge types: 1
# Building blocks:
#     Node 0, Type 0, BuildingBlock: BETFAJ_clean_sbu_0, # of connection points: 6
#     Node 1, Type 0, BuildingBlock: BETFAJ_clean_sbu_0, # of connection points: 6
#     Node 2, Type 0, BuildingBlock: BETFAJ_clean_sbu_0, # of connection points: 6
#     Node 3, Type 1, BuildingBlock: BETDIP_clean_linker_0, # of connection points: 3
#     Node 4, Type 1, BuildingBlock: BETDIP_clean_linker_0, # of connection points: 3
#     Node 5, Type 1, BuildingBlock: BETDIP_clean_linker_0, # of connection points: 3
#     Node 6, Type 1, BuildingBlock: BETDIP_clean_linker_0, # of connection points: 3
#     Node 7, Type 1, BuildingBlock: BETDIP_clean_linker_0, # of connection points: 3
#     Node 8, Type 1, BuildingBlock: BETDIP_clean_linker_0, # of connection points: 3
#     Edge 9, Type (0, 1), BuildingBlock: XIVTED_clean_linker_0, # of connection points: 2
#     Edge 10, Type (0, 1), BuildingBlock: XIVTED_clean_linker_0, # of connection points: 2
#     Edge 11, Type (0, 1), BuildingBlock: XIVTED_clean_linker_0, # of connection points: 2
#     Edge 12, Type (0, 1), BuildingBlock: XIVTED_clean_linker_0, # of connection points: 2
#     Edge 13, Type (0, 1), BuildingBlock: XIVTED_clean_linker_0, # of connection points: 2
#     Edge 14, Type (0, 1), BuildingBlock: XIVTED_clean_linker_0, # of connection points: 2
#     Edge 15, Type (0, 1), BuildingBlock: XIVTED_clean_linker_0, # of connection points: 2
#     Edge 16, Type (0, 1), BuildingBlock: XIVTED_clean_linker_0, # of connection points: 2
#     Edge 17, Type (0, 1), BuildingBlock: XIVTED_clean_linker_0, # of connection points: 2
#     Edge 18, Type (0, 1), BuildingBlock: XIVTED_clean_linker_0, # of connection points: 2
#     Edge 19, Type (0, 1), BuildingBlock: XIVTED_clean_linker_0, # of connection points: 2
#     Edge 20, Type (0, 1), BuildingBlock: XIVTED_clean_linker_0, # of connection points: 2
#     Edge 21, Type (0, 1), BuildingBlock: XIVTED_clean_linker_0, # of connection points: 2
#     Edge 22, Type (0, 1), BuildingBlock: XIVTED_clean_linker_0, # of connection points: 2
#     Edge 23, Type (0, 1), BuildingBlock: XIVTED_clean_linker_0, # of connection points: 2
#     Edge 24, Type (0, 1), BuildingBlock: XIVTED_clean_linker_0, # of connection points: 2
#     Edge 25, Type (0, 1), BuildingBlock: XIVTED_clean_linker_0, # of connection points: 2
#     Edge 26, Type (0, 1), BuildingBlock: XIVTED_clean_linker_0, # of connection points: 2
# Relax obj value: 0.160
# Max RMSD: 0.180
# Mean RMSD: 0.127
data_MOF--net-anh--node1-BETFAJ_clean_sbu_0--node2-BETDIP_clean_linker_0--edge1-XIVTED_clean_linker_0
_symmetry_space_group_name_H-M    P1
_symmetry_Int_Tables_number       1
_symmetry_cell_setting            triclinic
loop_
_symmetry_equiv_pos_as_xyz
'x, y, z'
_cell_length_a     32.550137
_cell_length_b     38.362354
_cell_length_c     49.779157
_cell_angle_alpha  95.518176
_cell_angle_beta   89.354794
_cell_angle_gamma 129.98633
loop_
_atom_site_label
_atom_site_type_symbol
_atom_site_fract_x
_atom_site_fract_y
_atom_site_fract_z
_atom_type_partial_charge
Sm0 Sm 1.05212 0.46208 0.13852 0.0
Sm1 Sm 0.98723 0.49625 0.15185 0.0
C2 C 0.11804 0.44847 0.12089 0.0
C3 C 0.17613 0.47482 0.12648 0.0
C4 C 0.21407 0.51956 0.11948 0.0
C5 C 0.26842 0.54563 0.12721 0.0
C6 C 0.28605 0.52776 0.14232 0.0
C7 C 0.24805 0.48277 0.14903 0.0
C8 C 0.19371 0.45653 0.14106 0.0
C9 C 1.03488 0.4693 0.19221 0.0
C10 C 0.1168 0.57473 0.14533 0.0
C11 C 0.94089 0.52602 0.17636 0.0
C12 C 0.93448 0.55928 0.17083 0.0
C13 C 0.88698 0.55104 0.17684 0.0
C14 C 0.87963 0.58159 0.17073 0.0
C15 C 0.91986 0.62106 0.15858 0.0
C16 C 0.96758 0.6292 0.1527 0.0
C17 C 0.97469 0.59848 0.15863 0.0
C18 C 0.98784 0.48195 0.09621 0.0
C19 C 0.92497 0.38596 0.14381 0.0
O20 O 0.10361 0.46668 0.10689 0.0
O21 O 0.08858 0.42965 0.14135 0.0
O22 O 1.04625 0.49688 0.17573 0.0
O23 O 1.03501 0.43754 0.1808 0.0
O24 O 0.11994 0.54168 0.1421 0.0
O25 O 0.0706 0.56592 0.14864 0.0
O26 O 0.91446 0.48856 0.15938 0.0
O27 O 0.98982 0.54287 0.1831 0.0
O28 O 1.00841 0.47578 0.11427 0.0
O29 O 0.96472 0.49667 0.1076 0.0
O30 O 0.92967 0.41939 0.15832 0.0
O31 O 0.9646 0.39485 0.12938 0.0
H32 H 0.20185 0.53479 0.10833 0.0
H33 H 0.29665 0.57972 0.12111 0.0
H34 H 0.26008 0.46801 0.16082 0.0
H35 H 0.16518 0.42221 0.14686 0.0
H36 H 0.85531 0.5207 0.18599 0.0
H37 H 0.84202 0.57379 0.17511 0.0
H38 H 0.99968 0.6595 0.1437 0.0
H39 H 1.01157 0.60531 0.1536 0.0
Sm40 Sm 0.60483 0.02102 0.47253 0.0
Sm41 Sm 0.53253 0.04101 0.4628 0.0
C42 C 0.65369 0.9918 0.48997 0.0
C43 C 0.63999 0.94787 0.49338 0.0
C44 C 0.68005 0.9471 0.50224 0.0
C45 C 0.66727 0.90557 0.50615 0.0
C46 C 0.61406 0.86416 0.5014 0.0
C47 C 0.57412 0.86513 0.49223 0.0
C48 C 0.58707 0.90666 0.48814 0.0
C49 C 0.58714 0.02212 0.41887 0.0
C50 C 0.47248 0.93503 0.46401 0.0
C51 C 0.48707 0.07371 0.44676 0.0
C52 C 0.49983 0.11808 0.45293 0.0
C53 C 0.47848 0.13102 0.43618 0.0
C54 C 0.4905 0.17322 0.44227 0.0
C55 C 0.524 0.20311 0.46529 0.0
C56 C 0.5458 0.18999 0.48178 0.0
C57 C 0.53407 0.14803 0.47558 0.0
C58 C 0.55011 0.03992 0.51649 0.0
C59 C 0.66499 0.12728 0.4691 0.0
O60 O 0.63108 1.00345 0.50588 0.0
O61 O 0.65411 1.0001 0.46509 0.0
O62 O 0.55159 1.00334 0.43573 0.0
O63 O 0.63406 0.04091 0.42992 0.0
O64 O 0.51867 0.95047 0.47576 0.0
O65 O 0.46947 0.96322 0.45286 0.0
O66 O 0.52182 0.07438 0.43281 0.0
O67 O 0.47096 0.04896 0.46687 0.0
O68 O 0.58571 0.05861 0.49964 0.0
O69 O 0.50365 0.02241 0.50553 0.0
O70 O 0.61712 0.11152 0.46004 0.0
O71 O 0.67104 0.09963 0.4784 0.0
H72 H 0.72114 0.97866 0.50636 0.0
H73 H 0.6988 0.90598 0.51348 0.0
H74 H 0.53292 0.83377 0.48808 0.0
H75 H 0.55582 0.90664 0.481 0.0
H76 H 0.45244 0.10846 0.41845 0.0
H77 H 0.47367 0.18244 0.42888 0.0
H78 H 0.57101 0.21161 0.49989 0.0
H79 H 0.55127 0.13871 0.48865 0.0
Sm80 Sm 0.64373 0.5782 0.83347 0.0
Sm81 Sm 0.57329 0.48539 0.84684 0.0
C82 C 0.68585 0.65439 0.81149 0.0
C83 C 0.67161 0.68329 0.80737 0.0
C84 C 0.67753 0.69878 0.78207 0.0
C85 C 0.66414 0.72597 0.7776 0.0
C86 C 0.64475 0.73851 0.7984 0.0
C87 C 0.63894 0.72301 0.82378 0.0
C88 C 0.65194 0.69547 0.82819 0.0
C89 C 0.64928 0.57474 0.88778 0.0
C90 C 0.51212 0.52895 0.84447 0.0
C91 C 0.53043 0.40568 0.86419 0.0
C92 C 0.54038 0.37348 0.85739 0.0
C93 C 0.51988 0.33705 0.8726 0.0
C94 C 0.529 0.30629 0.86565 0.0
C95 C 0.55886 0.31146 0.84332 0.0
C96 C 0.57947 0.34834 0.82828 0.0
C97 C 0.57047 0.379 0.83529 0.0
C98 C 0.57345 0.49157 0.79234 0.0
C99 C 0.70573 0.53528 0.83871 0.0
O100 O 0.65629 0.61383 0.79755 0.0
O101 O 0.69832 0.65408 0.83629 0.0
O102 O 0.60575 0.55074 0.8731 0.0
O103 O 0.69074 0.60135 0.87395 0.0
O104 O 0.55818 0.56197 0.83386 0.0
O105 O 0.50947 0.4963 0.85418 0.0
O106 O 0.56998 0.44513 0.87754 0.0
O107 O 0.50831 0.41001 0.84452 0.0
O108 O 0.61449 0.5139 0.80842 0.0
O109 O 0.53003 0.46423 0.80468 0.0
O110 O 0.65798 0.50084 0.84721 0.0
O111 O 0.71033 0.5695 0.82996 0.0
H112 H 0.69259 0.68983 0.76572 0.0
H113 H 0.66961 0.73767 0.75789 0.0
H114 H 0.62349 0.73156 0.84012 0.0
H115 H 0.64643 0.68362 0.84785 0.0
H116 H 0.49673 0.33233 0.8898 0.0
H117 H 0.51304 0.27871 0.8779 0.0
H118 H 0.60177 0.35313 0.8107 0.0
H119 H 0.58659 0.40687 0.82322 0.0
H120 H 0.48579 0.93293 0.13872 0.0
H121 H 0.58107 0.02475 0.21008 0.0
H122 H 0.43558 0.88751 0.21729 0.0
H123 H 0.55987 0.0652 0.1793 0.0
C124 C 0.58573 0.06455 0.16562 0.0
C125 C 0.49273 0.93946 0.16053 0.0
C126 C 0.45609 0.90449 0.17675 0.0
C127 C 0.53674 0.9837 0.17279 0.0
C128 C 0.54554 0.9915 0.20108 0.0
C129 C 0.50982 0.95719 0.21756 0.0
C130 C 0.46475 0.91406 0.20505 0.0
N131 N 0.57142 0.02108 0.15717 0.0
H132 H 0.56191 0.50133 0.51438 0.0
H133 H 0.56112 0.55755 0.59329 0.0
H134 H 0.5793 0.45578 0.58587 0.0
H135 H 0.5042 0.56208 0.56786 0.0
C136 C 0.53044 0.57835 0.55147 0.0
C137 C 0.56437 0.5028 0.53621 0.0
C138 C 0.57124 0.47498 0.54817 0.0
C139 C 0.56012 0.53231 0.55228 0.0
C140 C 0.56316 0.53418 0.58063 0.0
C141 C 0.57074 0.50704 0.59283 0.0
C142 C 0.57509 0.47779 0.57649 0.0
N143 N 0.55483 0.56098 0.53956 0.0
H144 H 0.07221 0.53742 0.82414 0.0
H145 H 0.11785 0.51355 0.89738 0.0
H146 H 0.98707 0.51453 0.89654 0.0
H147 H 0.14578 0.48389 0.86973 0.0
C148 C 0.17133 0.51081 0.8569 0.0
C149 C 0.06656 0.53066 0.84505 0.0
C150 C 1.02258 0.52566 0.85853 0.0
C151 C 0.10231 0.52563 0.85888 0.0
C152 C 0.09251 0.51674 0.88605 0.0
C153 C 1.0511 0.51221 0.89934 0.0
C154 C 1.01773 0.51703 0.88561 0.0
N155 N 0.14796 0.53052 0.84689 0.0
H156 H 0.11579 0.57573 0.47229 0.0
H157 H 1.01858 0.47691 0.4032 0.0
H158 H 0.15733 0.61432 0.39162 0.0
H159 H 0.95656 0.47718 0.44036 0.0
C160 C 0.96931 0.46204 0.45133 0.0
C161 C 0.10835 0.56688 0.45056 0.0
C162 C 0.14194 0.60086 0.43317 0.0
C163 C 0.06297 0.5221 0.43967 0.0
C164 C 1.05328 0.51124 0.41149 0.0
C165 C 0.08716 0.54406 0.394 0.0
C166 C 0.13101 0.58873 0.40503 0.0
N167 N 1.02571 0.48804 0.45664 0.0
H168 H 0.58502 0.04569 0.79477 0.0
H169 H 0.58399 0.98956 0.7153 0.0
H170 H 0.59553 0.10792 0.72451 0.0
H171 H 0.52953 0.9231 0.73635 0.0
C172 C 0.55589 0.93512 0.75436 0.0
C173 C 0.5864 0.04664 0.77307 0.0
C174 C 0.59105 0.08122 0.76169 0.0
C175 C 0.58324 0.01306 0.7565 0.0
C176 C 0.58503 0.01446 0.72831 0.0
C177 C 0.58981 0.04872 0.7167 0.0
C178 C 0.59323 0.08212 0.73352 0.0
N179 N 0.57983 0.97898 0.76844 0.0
H180 H 0.71658 0.77569 0.14537 0.0
H181 H 0.77993 0.76331 0.07234 0.0
H182 H 0.62228 0.64859 0.09296 0.0
H183 H 0.88682 0.86526 0.10807 0.0
C184 C 0.85415 0.83194 0.11417 0.0
C185 C 0.71207 0.75509 0.12728 0.0
C186 C 0.66482 0.70942 0.12151 0.0
C187 C 0.75433 0.77385 0.1101 0.0
C188 C 0.74811 0.7477 0.08619 0.0
C189 C 0.6999 0.70266 0.0795 0.0
C190 C 0.65937 0.68349 0.09777 0.0
N191 N 0.80278 0.81951 0.11674 0.0
H192 H 0.34386 0.49855 0.14388 0.0
H193 H 0.61919 0.74616 0.14025 0.0
H194 H 0.36097 0.62026 0.15859 0.0
H195 H 0.60385 0.62584 0.14025 0.0
H196 H 0.52868 0.70351 0.15609 0.0
H197 H 0.44068 0.54573 0.151 0.0
C198 C 0.36777 0.53511 0.1491 0.0
C199 C 0.34413 0.55548 0.15005 0.0
C200 C 0.54555 0.6867 0.15327 0.0
C201 C 0.45564 0.61004 0.15761 0.0
C202 C 0.59739 0.71119 0.14444 0.0
C203 C 0.61829 0.68905 0.13836 0.0
C204 C 0.51455 0.63978 0.15571 0.0
C205 C 0.58846 0.64372 0.14409 0.0
C206 C 0.42329 0.56216 0.15308 0.0
C207 C 0.37755 0.60318 0.15674 0.0
N208 N 0.53761 0.62025 0.15188 0.0
N209 N 0.43168 0.62892 0.1598 0.0
H210 H 0.77304 0.17439 0.48208 0.0
H211 H 0.86262 0.41338 0.44533 0.0
H212 H 0.66461 0.19444 0.45527 0.0
H213 H 0.97833 0.40063 0.47033 0.0
H214 H 0.79026 0.33338 0.45124 0.0
H215 H 0.84877 0.25634 0.47999 0.0
C216 C 0.76501 0.19587 0.47583 0.0
C217 C 0.71205 0.17709 0.46874 0.0
C218 C 0.83131 0.34779 0.45561 0.0
C219 C 0.79878 0.27112 0.46635 0.0
C220 C 0.8728 0.3937 0.4523 0.0
C221 C 0.92668 0.4139 0.45738 0.0
C222 C 0.84325 0.32106 0.46399 0.0
C223 C 0.93735 0.38654 0.46629 0.0
C224 C 0.80835 0.24271 0.47463 0.0
C225 C 0.70444 0.20689 0.46081 0.0
N226 N 0.89599 0.34143 0.4692 0.0
N227 N 0.74703 0.25202 0.45983 0.0
H228 H 0.66689 0.81136 0.83143 0.0
H229 H 0.51853 0.85358 0.72866 0.0
H230 H 0.58951 0.73127 0.75407 0.0
H231 H 0.61844 0.94933 0.79846 0.0
H232 H 0.53828 0.80503 0.74013 0.0
H233 H 0.64388 0.85889 0.82215 0.0
C234 C 0.6448 0.80359 0.81257 0.0
C235 C 0.63032 0.76732 0.79345 0.0
C236 C 0.55592 0.83659 0.75302 0.0
C237 C 0.60395 0.82165 0.7827 0.0
C238 C 0.54451 0.86426 0.74651 0.0
C239 C 0.56693 0.90554 0.76258 0.0
C240 C 0.58998 0.85008 0.77591 0.0
C241 C 0.60035 0.91778 0.78549 0.0
C242 C 0.63196 0.8309 0.80724 0.0
C243 C 0.60218 0.75918 0.76925 0.0
N244 N 0.61091 0.89015 0.79148 0.0
N245 N 0.5899 0.78601 0.76463 0.0
H246 H 0.95066 0.6679 0.11397 0.0
H247 H 0.80894 0.77316 0.15301 0.0
H248 H 0.87091 0.64815 0.18792 0.0
H249 H 0.92451 0.82321 0.09216 0.0
H250 H 0.82554 0.72226 0.16366 0.0
H251 H 0.93679 0.72075 0.1035 0.0
C252 C 0.93061 0.67488 0.12813 0.0
C253 C 0.91193 0.65343 0.15191 0.0
C254 C 0.84728 0.74429 0.14795 0.0
C255 C 0.89513 0.7133 0.13972 0.0
C256 C 0.83744 0.77303 0.14167 0.0
C257 C 0.86468 0.80164 0.12127 0.0
C258 C 0.8846 0.74409 0.1337 0.0
C259 C 0.90251 0.80131 0.10789 0.0
C260 C 0.92251 0.70492 0.12204 0.0
C261 C 0.88525 0.6632 0.16916 0.0
N262 N 0.91113 0.77264 0.11418 0.0
N263 N 0.87752 0.69227 0.16268 0.0
H264 H 0.45914 0.86372 0.48459 0.0
H265 H 0.15444 0.67482 0.42183 0.0
H266 H 0.37303 0.89275 0.44015 0.0
H267 H 0.23286 0.63889 0.46628 0.0
H268 H 0.23347 0.75555 0.43156 0.0
H269 H 0.37748 0.78254 0.48062 0.0
C270 C 0.42329 0.85321 0.474 0.0
C271 C 0.42348 0.88546 0.46253 0.0
C272 C 0.2336 0.73031 0.43949 0.0
C273 C 0.32946 0.79237 0.45812 0.0
C274 C 0.18821 0.68409 0.43402 0.0
C275 C 0.18692 0.64999 0.44328 0.0
C276 C 0.27894 0.74313 0.45418 0.0
C277 C 0.23199 0.66408 0.45894 0.0
C278 C 0.37655 0.80678 0.47183 0.0
C279 C 0.37535 0.86951 0.44927 0.0
N280 N 0.27639 0.70955 0.46369 0.0
N281 N 0.33076 0.82444 0.44742 0.0
H282 H 0.64909 0.3292 0.82335 0.0
H283 H 0.52216 0.06648 0.80039 0.0
H284 H 0.4893 0.21784 0.84487 0.0
H285 H 0.66002 0.17408 0.76093 0.0
H286 H 0.51699 0.12292 0.82367 0.0
H287 H 0.66045 0.27405 0.80686 0.0
C288 C 0.61627 0.29318 0.82461 0.0
C289 C 0.56781 0.27831 0.83525 0.0
C290 C 0.54864 0.1342 0.8101 0.0
C291 C 0.58114 0.21477 0.81673 0.0
C292 C 0.55187 0.1021 0.797 0.0
C293 C 0.59143 0.1156 0.77861 0.0
C294 C 0.58562 0.18021 0.80499 0.0
C295 C 0.62857 0.16213 0.77475 0.0
C296 C 0.62297 0.26169 0.8153 0.0
C297 C 0.52748 0.23113 0.83701 0.0
N298 N 0.62468 0.19266 0.78773 0.0
N299 N 0.53494 0.20107 0.82772 0.0
H300 H 0.66865 0.83329 0.48805 0.0
H301 H 0.48093 0.61217 0.5668 0.0
H302 H 0.52788 0.79535 0.52687 0.0
H303 H 0.60166 0.63529 0.51503 0.0
H304 H 0.49889 0.6802 0.55312 0.0
H305 H 0.64655 0.7621 0.49859 0.0
C306 C 0.6331 0.80997 0.4988 0.0
C307 C 0.60012 0.82031 0.50665 0.0
C308 C 0.52125 0.67028 0.54461 0.0
C309 C 0.57454 0.7388 0.51875 0.0
C310 C 0.51102 0.6315 0.55242 0.0
C311 C 0.53978 0.61815 0.54201 0.0
C312 C 0.56101 0.6962 0.52645 0.0
C313 C 0.57845 0.64434 0.5235 0.0
C314 C 0.62034 0.76924 0.50467 0.0
C315 C 0.55417 0.78858 0.52023 0.0
N316 N 0.58817 0.68232 0.51642 0.0
N317 N 0.54295 0.74944 0.52599 0.0
H318 H 0.81663 0.60436 0.82984 0.0
H319 H 0.91182 0.45488 0.85098 0.0
H320 H 0.70896 0.46538 0.8488 0.0
H321 H 1.02695 0.59922 0.84487 0.0
H322 H 0.83867 0.45743 0.8459 0.0
H323 H 0.89156 0.60287 0.83152 0.0
C324 C 0.80798 0.57324 0.83429 0.0
C325 C 0.75426 0.53498 0.83917 0.0
C326 C 0.87967 0.48867 0.84507 0.0
C327 C 0.84348 0.53288 0.84097 0.0
C328 C 0.92235 0.48714 0.84756 0.0
C329 C 0.97774 0.52639 0.84728 0.0
C330 C 0.8901 0.53011 0.84238 0.0
C331 C 0.98615 0.56718 0.84416 0.0
C332 C 0.85167 0.57248 0.83529 0.0
C333 C 0.74834 0.49622 0.84486 0.0
N334 N 0.94387 0.56781 0.84184 0.0
N335 N 0.79116 0.49628 0.84546 0.0
H336 H 0.12676 0.65162 0.15476 0.0
H337 H 0.44848 0.83412 0.14998 0.0
H338 H 0.22189 0.61079 0.13841 0.0
H339 H 0.35198 0.86815 0.17948 0.0
H340 H 0.36604 0.7535 0.1396 0.0
H341 H 0.20835 0.7316 0.15825 0.0
C342 C 0.16473 0.65929 0.15177 0.0
C343 C 0.16697 0.62388 0.14639 0.0
C344 C 0.36283 0.77873 0.14796 0.0
C345 C 0.26169 0.71664 0.15037 0.0
C346 C 0.40981 0.8248 0.15358 0.0
C347 C 0.40693 0.85796 0.16522 0.0
C348 C 0.31257 0.76575 0.154 0.0
C349 C 0.35591 0.8438 0.17018 0.0
C350 C 0.21156 0.70527 0.15381 0.0
C351 C 0.21788 0.63665 0.14269 0.0
N352 N 0.31101 0.79899 0.16462 0.0
N353 N 0.26308 0.68185 0.1448 0.0
H354 H 0.45487 0.22063 0.46012 0.0
H355 H 0.64159 0.45921 0.5526 0.0
H356 H 0.61757 0.28596 0.48773 0.0
H357 H 0.50022 0.41269 0.50616 0.0
H358 H 0.63422 0.39648 0.52861 0.0
H359 H 0.47112 0.29099 0.47595 0.0
C360 C 0.49428 0.24988 0.46914 0.0
C361 C 0.53472 0.24699 0.47278 0.0
C362 C 0.60519 0.40029 0.52339 0.0
C363 C 0.55315 0.32754 0.49151 0.0
C364 C 0.60932 0.43599 0.53713 0.0
C365 C 0.5713 0.44092 0.53141 0.0
C366 C 0.5622 0.36882 0.5041 0.0
C367 C 0.5305 0.41017 0.51106 0.0
C368 C 0.50341 0.29004 0.47831 0.0
C369 C 0.5847 0.28605 0.48503 0.0
N370 N 0.52658 0.37503 0.49838 0.0
N371 N 0.59228 0.32446 0.49419 0.0
H372 H 0.41044 0.46704 0.86552 0.0
H373 H 0.2709 0.5781 0.8301 0.0
H374 H 0.49736 0.58888 0.82554 0.0
H375 H 0.19684 0.45981 0.87235 0.0
H376 H 0.35177 0.58391 0.82663 0.0
H377 H 0.33338 0.46516 0.86682 0.0
C378 C 0.41406 0.49371 0.85693 0.0
C379 C 0.46275 0.52822 0.84542 0.0
C380 C 0.31775 0.55648 0.83661 0.0
C381 C 0.37022 0.52608 0.8468 0.0
C382 C 0.27065 0.55299 0.83852 0.0
C383 C 0.22448 0.51797 0.85151 0.0
C384 C 0.32041 0.52487 0.84767 0.0
C385 C 0.22973 0.4875 0.862 0.0
C386 C 0.36906 0.49255 0.85769 0.0
C387 C 0.46207 0.56125 0.83476 0.0
N388 N 0.27512 0.49161 0.85987 0.0
N389 N 0.41771 0.5593 0.8357 0.0
H390 H 0.83354 0.35658 0.1682 0.0
H391 H 0.6731 0.08596 0.13729 0.0
H392 H 0.90056 0.30448 0.12214 0.0
H393 H 0.61219 0.14651 0.17921 0.0
H394 H 0.75597 0.16364 0.13026 0.0
H395 H 0.75215 0.27855 0.17137 0.0
C396 C 0.83127 0.32875 0.15866 0.0
C397 C 0.87449 0.33758 0.1449 0.0
C398 C 0.72424 0.15975 0.14085 0.0
C399 C 0.77997 0.24671 0.14856 0.0
C400 C 0.6769 0.11542 0.1448 0.0
C401 C 0.63555 0.10971 0.15885 0.0
C402 C 0.73009 0.19843 0.15109 0.0
C403 C 0.64288 0.14917 0.16826 0.0
C404 C 0.78442 0.28386 0.16048 0.0
C405 C 0.86842 0.29953 0.13295 0.0
N406 N 0.68889 0.19145 0.16429 0.0
N407 N 0.82222 0.25582 0.13513 0.0
H408 H 0.92197 0.46736 0.05561 0.0
H409 H 0.12659 0.5462 0.94172 0.0
H410 H 0.06958 0.49239 0.07045 0.0
H411 H 0.95509 0.45574 0.9231 0.0
H412 H 0.1101 0.53298 0.98928 0.0
H413 H 0.93645 0.46974 0.00722 0.0
C414 C 0.9572 0.47291 0.04858 0.0
C415 C 0.99445 0.47933 0.06691 0.0
C416 C 0.07621 0.51584 0.97466 0.0
C417 C 1.01197 0.4832 0.01176 0.0
C418 C 0.0855 0.52318 0.94745 0.0
C419 C 1.04222 0.5025 0.92819 0.0
C420 C 1.02337 0.48827 0.9828 0.0
C421 C 0.98989 0.47351 0.93715 0.0
C422 C 0.9654 0.47419 0.02101 0.0
C423 C 1.03961 0.48667 0.05685 0.0
N424 N 0.98201 0.46776 0.96377 0.0
N425 N 1.04757 0.48905 0.02992 0.0
H426 H 0.6529 0.07651 0.38092 0.0
H427 H 0.48297 0.89701 0.25448 0.0
H428 H 0.49423 0.95002 0.39016 0.0
H429 H 0.55899 0.03901 0.2502 0.0
H430 H 0.49912 0.91339 0.30359 0.0
H431 H 0.6326 0.06145 0.33162 0.0
C432 C 0.61388 0.04565 0.37252 0.0
C433 C 0.57509 0.01447 0.38945 0.0
C434 C 0.51211 0.94076 0.29171 0.0
C435 C 0.5524 0.99664 0.33357 0.0
C436 C 0.50261 0.93151 0.26363 0.0
C437 C 0.51945 0.96656 0.24772 0.0
C438 C 0.54003 0.98558 0.30404 0.0
C439 C 0.54627 0.01088 0.26119 0.0
C440 C 0.60234 0.03721 0.34456 0.0
C441 C 0.52506 0.97498 0.37772 0.0
N442 N 0.55624 0.01921 0.2885 0.0
N443 N 0.51535 0.9668 0.3504 0.0
H444 H 0.66039 0.53389 0.76165 0.0
H445 H 0.50011 0.49891 0.62753 0.0
H446 H 0.48961 0.45942 0.75701 0.0
H447 H 0.64541 0.51724 0.62564 0.0
H448 H 0.50157 0.49699 0.67662 0.0
H449 H 0.66132 0.54024 0.71303 0.0
C450 C 0.62314 0.51893 0.75036 0.0
C451 C 0.57477 0.49582 0.76319 0.0
C452 C 0.53317 0.50154 0.66543 0.0
C453 C 0.57569 0.50351 0.70794 0.0
C454 C 0.53255 0.50294 0.63754 0.0
C455 C 0.57264 0.50813 0.62262 0.0
C456 C 0.57465 0.50611 0.67851 0.0
C457 C 0.61356 0.51283 0.63645 0.0
C458 C 0.62369 0.52249 0.72269 0.0
C459 C 0.52765 0.4772 0.74776 0.0
N460 N 0.61365 0.51188 0.66367 0.0
N461 N 0.5293 0.48163 0.72092 0.0
H462 H 0.64729 0.09287 0.54558 0.0
H463 H 0.65904 0.1206 0.68748 0.0
H464 H 0.4767 0.99136 0.55342 0.0
H465 H 0.51883 0.97721 0.67833 0.0
H466 H 0.65469 0.12045 0.63831 0.0
H467 H 0.66272 0.09696 0.59437 0.0
C468 C 0.61315 0.07154 0.55761 0.0
C469 C 0.56062 0.04211 0.54561 0.0
C470 C 0.62547 0.08885 0.64701 0.0
C471 C 0.57782 0.0467 0.6012 0.0
C472 C 0.62762 0.08904 0.67505 0.0
C473 C 0.58938 0.0488 0.6869 0.0
C474 C 0.58431 0.04823 0.63078 0.0
C475 C 0.54942 0.00882 0.66994 0.0
C476 C 0.62193 0.07416 0.58544 0.0
C477 C 0.51779 0.01487 0.56199 0.0
N478 N 0.54754 0.00967 0.64276 0.0
N479 N 0.52734 0.01764 0.58893 0.0
H480 H 0.73836 0.61821 0.92129 0.0
H481 H 0.60673 0.64791 0.04698 0.0
H482 H 0.56976 0.55119 0.92165 0.0
H483 H 0.76974 0.69866 0.05051 0.0
H484 H 0.59097 0.608 0.00233 0.0
H485 H 0.74899 0.64294 0.96957 0.0
C486 C 0.7034 0.60823 0.93168 0.0
C487 C 0.65324 0.58312 0.91749 0.0
C488 C 0.63004 0.62745 0.01294 0.0
C489 C 0.66521 0.6118 0.97266 0.0
C490 C 0.63909 0.65014 0.03858 0.0
C491 C 0.68972 0.67671 0.05268 0.0
C492 C 0.67204 0.63166 0.00098 0.0
C493 C 0.73032 0.67911 0.04031 0.0
C494 C 0.70951 0.62238 0.95923 0.0
C495 C 0.60917 0.57071 0.93188 0.0
N496 N 0.72068 0.65712 0.0151 0.0
N497 N 0.61634 0.58575 0.95867 0.0
H498 H 0.05536 0.54408 0.22101 0.0
H499 H 0.05634 0.46578 0.36438 0.0
H500 H 1.0188 0.41632 0.2306 0.0
H501 H 0.09321 0.59399 0.35565 0.0
H502 H 1.03862 0.44582 0.31547 0.0
H503 H 0.06505 0.56157 0.27031 0.0
C504 C 1.04884 0.51952 0.23351 0.0
C505 C 1.03641 0.47876 0.22177 0.0
C506 C 1.05048 0.4783 0.32422 0.0
C507 C 1.04791 0.49865 0.27808 0.0
C508 C 0.06038 0.48964 0.35219 0.0
C509 C 0.07634 0.53166 0.36419 0.0
C510 C 0.05656 0.50916 0.30799 0.0
C511 C 0.08171 0.56149 0.34727 0.0
C512 C 0.0546 0.52959 0.26164 0.0
C513 C 1.02862 0.44822 0.23886 0.0
N514 N 0.07188 0.54969 0.32005 0.0
N515 N 1.03474 0.45887 0.26614 0.0
loop_
_geom_bond_atom_site_label_1
_geom_bond_atom_site_label_2
_geom_bond_distance
_geom_bond_site_symmetry_2
_ccdc_geom_bond_type
Sm0 C2 2.846 . S
Sm0 O20 2.543 . S
Sm0 O21 2.450 . S
Sm0 O22 2.681 . S
Sm0 O23 2.464 . S
Sm0 O24 2.396 . S
Sm0 O28 2.386 . S
Sm0 O31 2.408 . S
Sm1 C11 2.846 1_455 S
Sm1 O22 2.386 . S
Sm1 O25 2.408 . S
Sm1 O26 2.543 1_455 S
Sm1 O27 2.450 1_455 S
Sm1 O28 2.681 . S
Sm1 O29 2.464 . S
Sm1 O30 2.396 1_455 S
C2 Sm0 2.846 . S
C2 C3 1.506 . S
C2 O20 1.261 . S
C2 O21 1.242 . S
C3 C2 1.506 . S
C3 C4 1.358 . S
C3 C8 1.382 . S
C4 C3 1.358 . S
C4 C5 1.385 . S
C4 H32 0.930 . S
C5 C4 1.385 . S
C5 C6 1.395 . S
C5 H33 0.929 . S
C6 C5 1.395 . S
C6 C7 1.335 . S
C7 C6 1.335 . S
C7 C8 1.398 . S
C7 H34 0.930 . S
C8 C3 1.382 . S
C8 C7 1.398 . S
C8 H35 0.929 . S
C9 O22 1.271 . S
C9 O23 1.251 . S
C10 O24 1.252 . S
C10 O25 1.272 . S
C11 Sm1 2.846 1_655 S
C11 C12 1.506 . S
C11 O26 1.261 . S
C11 O27 1.242 . S
C12 C11 1.506 . S
C12 C13 1.358 . S
C12 C17 1.382 . S
C13 C12 1.358 . S
C13 C14 1.385 . S
C13 H36 0.930 . S
C14 C13 1.385 . S
C14 C15 1.395 . S
C14 H37 0.929 . S
C15 C14 1.395 . S
C15 C16 1.335 . S
C16 C15 1.335 . S
C16 C17 1.398 . S
C16 H38 0.930 . S
C17 C12 1.382 . S
C17 C16 1.398 . S
C17 H39 0.929 . S
C18 O28 1.271 . S
C18 O29 1.251 . S
C19 O30 1.252 . S
C19 O31 1.272 1_655 S
O20 Sm0 2.543 . S
O20 C2 1.261 . S
O21 Sm0 2.450 . S
O21 C2 1.242 . S
O22 Sm0 2.681 . S
O22 Sm1 2.386 . S
O22 C9 1.271 . S
O23 Sm0 2.464 . S
O23 C9 1.251 . S
O24 Sm0 2.396 . S
O24 C10 1.252 . S
O25 Sm1 2.408 . S
O25 C10 1.272 . S
O26 Sm1 2.543 1_655 S
O26 C11 1.261 . S
O27 Sm1 2.450 1_655 S
O27 C11 1.242 . S
O28 Sm0 2.386 . S
O28 Sm1 2.681 . S
O28 C18 1.271 . S
O29 Sm1 2.464 . S
O29 C18 1.251 . S
O30 Sm1 2.396 1_655 S
O30 C19 1.252 . S
O31 Sm0 2.408 . S
O31 C19 1.272 1_455 S
H32 C4 0.930 . S
H33 C5 0.929 . S
H34 C7 0.930 . S
H35 C8 0.929 . S
H36 C13 0.930 . S
H37 C14 0.929 . S
H38 C16 0.930 . S
H39 C17 0.929 . S
Sm40 C42 2.846 1_545 S
Sm40 O60 2.543 1_545 S
Sm40 O61 2.450 1_545 S
Sm40 O62 2.681 . S
Sm40 O63 2.464 . S
Sm40 O64 2.396 1_545 S
Sm40 O68 2.386 . S
Sm40 O71 2.408 . S
Sm41 C51 2.846 . S
Sm41 O62 2.386 . S
Sm41 O65 2.408 1_545 S
Sm41 O66 2.543 . S
Sm41 O67 2.450 . S
Sm41 O68 2.681 . S
Sm41 O69 2.464 . S
Sm41 O70 2.396 . S
C42 Sm40 2.846 1_565 S
C42 C43 1.506 . S
C42 O60 1.261 . S
C42 O61 1.242 . S
C43 C42 1.506 . S
C43 C44 1.358 . S
C43 C48 1.382 . S
C44 C43 1.358 . S
C44 C45 1.385 . S
C44 H72 0.930 . S
C45 C44 1.385 . S
C45 C46 1.395 . S
C45 H73 0.929 . S
C46 C45 1.395 . S
C46 C47 1.335 . S
C47 C46 1.335 . S
C47 C48 1.398 . S
C47 H74 0.930 . S
C48 C43 1.382 . S
C48 C47 1.398 . S
C48 H75 0.929 . S
C49 O62 1.271 . S
C49 O63 1.251 . S
C50 O64 1.252 . S
C50 O65 1.272 . S
C51 Sm41 2.846 . S
C51 C52 1.506 . S
C51 O66 1.261 . S
C51 O67 1.242 . S
C52 C51 1.506 . S
C52 C53 1.358 . S
C52 C57 1.382 . S
C53 C52 1.358 . S
C53 C54 1.385 . S
C53 H76 0.930 . S
C54 C53 1.385 . S
C54 C55 1.395 . S
C54 H77 0.929 . S
C55 C54 1.395 . S
C55 C56 1.335 . S
C56 C55 1.335 . S
C56 C57 1.398 . S
C56 H78 0.930 . S
C57 C52 1.382 . S
C57 C56 1.398 . S
C57 H79 0.929 . S
C58 O68 1.271 . S
C58 O69 1.251 . S
C59 O70 1.252 . S
C59 O71 1.272 . S
O60 Sm40 2.543 1_565 S
O60 C42 1.261 . S
O61 Sm40 2.450 1_565 S
O61 C42 1.242 . S
O62 Sm40 2.681 . S
O62 Sm41 2.386 . S
O62 C49 1.271 . S
O63 Sm40 2.464 . S
O63 C49 1.251 . S
O64 Sm40 2.396 1_565 S
O64 C50 1.252 . S
O65 Sm41 2.408 1_565 S
O65 C50 1.272 . S
O66 Sm41 2.543 . S
O66 C51 1.261 . S
O67 Sm41 2.450 . S
O67 C51 1.242 . S
O68 Sm40 2.386 . S
O68 Sm41 2.681 . S
O68 C58 1.271 . S
O69 Sm41 2.464 . S
O69 C58 1.251 . S
O70 Sm41 2.396 . S
O70 C59 1.252 . S
O71 Sm40 2.408 . S
O71 C59 1.272 . S
H72 C44 0.930 . S
H73 C45 0.929 . S
H74 C47 0.930 . S
H75 C48 0.929 . S
H76 C53 0.930 . S
H77 C54 0.929 . S
H78 C56 0.930 . S
H79 C57 0.929 . S
Sm80 C82 2.846 . S
Sm80 O100 2.543 . S
Sm80 O101 2.450 . S
Sm80 O102 2.681 . S
Sm80 O103 2.464 . S
Sm80 O104 2.396 . S
Sm80 O108 2.386 . S
Sm80 O111 2.408 . S
Sm81 C91 2.846 . S
Sm81 O102 2.386 . S
Sm81 O105 2.408 . S
Sm81 O106 2.543 . S
Sm81 O107 2.450 . S
Sm81 O108 2.681 . S
Sm81 O109 2.464 . S
Sm81 O110 2.396 . S
C82 Sm80 2.846 . S
C82 C83 1.506 . S
C82 O100 1.261 . S
C82 O101 1.242 . S
C83 C82 1.506 . S
C83 C84 1.358 . S
C83 C88 1.382 . S
C84 C83 1.358 . S
C84 C85 1.385 . S
C84 H112 0.930 . S
C85 C84 1.385 . S
C85 C86 1.395 . S
C85 H113 0.929 . S
C86 C85 1.395 . S
C86 C87 1.335 . S
C87 C86 1.335 . S
C87 C88 1.398 . S
C87 H114 0.930 . S
C88 C83 1.382 . S
C88 C87 1.398 . S
C88 H115 0.929 . S
C89 O102 1.271 . S
C89 O103 1.251 . S
C90 O104 1.252 . S
C90 O105 1.272 . S
C91 Sm81 2.846 . S
C91 C92 1.506 . S
C91 O106 1.261 . S
C91 O107 1.242 . S
C92 C91 1.506 . S
C92 C93 1.358 . S
C92 C97 1.382 . S
C93 C92 1.358 . S
C93 C94 1.385 . S
C93 H116 0.930 . S
C94 C93 1.385 . S
C94 C95 1.395 . S
C94 H117 0.929 . S
C95 C94 1.395 . S
C95 C96 1.335 . S
C96 C95 1.335 . S
C96 C97 1.398 . S
C96 H118 0.930 . S
C97 C92 1.382 . S
C97 C96 1.398 . S
C97 H119 0.929 . S
C98 O108 1.271 . S
C98 O109 1.251 . S
C99 O110 1.252 . S
C99 O111 1.272 . S
O100 Sm80 2.543 . S
O100 C82 1.261 . S
O101 Sm80 2.450 . S
O101 C82 1.242 . S
O102 Sm80 2.681 . S
O102 Sm81 2.386 . S
O102 C89 1.271 . S
O103 Sm80 2.464 . S
O103 C89 1.251 . S
O104 Sm80 2.396 . S
O104 C90 1.252 . S
O105 Sm81 2.408 . S
O105 C90 1.272 . S
O106 Sm81 2.543 . S
O106 C91 1.261 . S
O107 Sm81 2.450 . S
O107 C91 1.242 . S
O108 Sm80 2.386 . S
O108 Sm81 2.681 . S
O108 C98 1.271 . S
O109 Sm81 2.464 . S
O109 C98 1.251 . S
O110 Sm81 2.396 . S
O110 C99 1.252 . S
O111 Sm80 2.408 . S
O111 C99 1.272 . S
H112 C84 0.930 . S
H113 C85 0.929 . S
H114 C87 0.930 . S
H115 C88 0.929 . S
H116 C93 0.930 . S
H117 C94 0.929 . S
H118 C96 0.930 . S
H119 C97 0.929 . S
H120 C125 0.930 . S
H121 C128 0.930 . S
H122 C130 0.926 1_565 S
H123 C124 1.016 . S
C124 H123 1.016 . S
C124 N131 1.286 . S
C125 H120 0.930 . S
C125 C126 1.397 1_545 S
C125 C127 1.361 . S
C126 C125 1.397 1_565 S
C126 C130 1.387 1_565 S
C127 C125 1.361 . S
C127 C128 1.393 . S
C127 N131 1.413 . S
C128 H121 0.930 . S
C128 C127 1.393 . S
C128 C129 1.399 . S
C129 C128 1.399 . S
C129 C130 1.388 . S
C130 H122 0.926 1_545 S
C130 C126 1.387 1_545 S
C130 C129 1.388 . S
N131 C124 1.286 . S
N131 C127 1.413 . S
H132 C137 0.930 . S
H133 C140 0.930 . S
H134 C142 0.930 . S
H135 C136 1.016 . S
C136 H135 1.016 . S
C136 N143 1.286 . S
C137 H132 0.930 . S
C137 C138 1.397 . S
C137 C139 1.361 . S
C138 C137 1.397 . S
C138 C142 1.390 . S
C139 C137 1.361 . S
C139 C140 1.393 . S
C139 N143 1.413 . S
C140 H133 0.930 . S
C140 C139 1.393 . S
C140 C141 1.399 . S
C141 C140 1.399 . S
C141 C142 1.381 . S
C142 H134 0.930 . S
C142 C138 1.390 . S
C142 C141 1.381 . S
N143 C136 1.286 . S
N143 C139 1.413 . S
H144 C149 0.930 . S
H145 C152 0.930 . S
H146 C154 0.930 1_655 S
H147 C148 1.016 . S
C148 H147 1.016 . S
C148 N155 1.286 . S
C149 H144 0.930 . S
C149 C150 1.397 1_455 S
C149 C151 1.361 . S
C150 C149 1.397 1_655 S
C150 C154 1.390 1_655 S
C151 C149 1.361 . S
C151 C152 1.393 . S
C151 N155 1.413 . S
C152 H145 0.930 . S
C152 C151 1.393 . S
C152 C153 1.399 . S
C153 C152 1.399 . S
C153 C154 1.381 . S
C154 H146 0.930 1_455 S
C154 C150 1.390 1_455 S
C154 C153 1.381 . S
N155 C148 1.286 . S
N155 C151 1.413 . S
H156 C161 0.930 . S
H157 C164 0.930 . S
H158 C166 0.930 . S
H159 C160 1.016 . S
C160 H159 1.016 . S
C160 N167 1.286 . S
C161 H156 0.930 . S
C161 C162 1.397 . S
C161 C163 1.361 1_455 S
C162 C161 1.397 . S
C162 C166 1.390 . S
C163 C161 1.361 1_655 S
C163 C164 1.393 . S
C163 N167 1.413 . S
C164 H157 0.930 . S
C164 C163 1.393 . S
C164 C165 1.399 1_655 S
C165 C164 1.399 1_455 S
C165 C166 1.381 . S
C166 H158 0.930 . S
C166 C162 1.390 . S
C166 C165 1.381 . S
N167 C160 1.286 . S
N167 C163 1.413 . S
H168 C173 0.930 . S
H169 C176 0.905 1_565 S
H170 C178 0.930 . S
H171 C172 1.016 . S
C172 H171 1.016 . S
C172 N179 1.286 . S
C173 H168 0.930 . S
C173 C174 1.397 . S
C173 C175 1.361 . S
C174 C173 1.397 . S
C174 C178 1.390 . S
C175 C173 1.361 . S
C175 C176 1.394 . S
C175 N179 1.413 1_545 S
C176 H169 0.905 1_545 S
C176 C175 1.394 . S
C176 C177 1.424 . S
C177 C176 1.424 . S
C177 C178 1.381 . S
C178 H170 0.930 . S
C178 C174 1.390 . S
C178 C177 1.381 . S
N179 C172 1.286 . S
N179 C175 1.413 1_565 S
H180 C185 0.930 . S
H181 C188 0.930 . S
H182 C190 0.930 . S
H183 C184 1.016 . S
C184 H183 1.016 . S
C184 N191 1.286 . S
C185 H180 0.930 . S
C185 C186 1.397 . S
C185 C187 1.361 . S
C186 C185 1.397 . S
C186 C190 1.390 . S
C187 C185 1.361 . S
C187 C188 1.393 . S
C187 N191 1.413 . S
C188 H181 0.930 . S
C188 C187 1.393 . S
C188 C189 1.399 . S
C189 C188 1.399 . S
C189 C190 1.381 . S
C190 H182 0.930 . S
C190 C186 1.390 . S
C190 C189 1.381 . S
N191 C184 1.286 . S
N191 C187 1.413 . S
H192 C198 0.930 . S
H193 C202 0.930 . S
H194 C207 0.929 . S
H195 C205 0.929 . S
H196 C200 0.929 . S
H197 C206 0.929 . S
C198 H192 0.930 . S
C198 C199 1.367 . S
C198 C206 1.378 . S
C199 C198 1.367 . S
C199 C207 1.433 . S
C200 H196 0.929 . S
C200 C202 1.378 . S
C200 C204 1.350 . S
C201 C204 1.463 . S
C201 C206 1.350 . S
C201 N209 1.427 . S
C202 H193 0.930 . S
C202 C200 1.378 . S
C202 C203 1.367 . S
C203 C202 1.367 . S
C203 C205 1.433 . S
C204 C200 1.350 . S
C204 C201 1.463 . S
C204 N208 1.427 . S
C205 H195 0.929 . S
C205 C203 1.433 . S
C205 N208 1.384 . S
C206 H197 0.929 . S
C206 C198 1.378 . S
C206 C201 1.350 . S
C207 H194 0.929 . S
C207 C199 1.433 . S
C207 N209 1.384 . S
N208 C204 1.427 . S
N208 C205 1.384 . S
N209 C201 1.427 . S
N209 C207 1.384 . S
H210 C216 0.930 . S
H211 C220 0.930 . S
H212 C225 0.929 . S
H213 C223 0.929 . S
H214 C218 0.929 . S
H215 C224 0.929 . S
C216 H210 0.930 . S
C216 C217 1.367 . S
C216 C224 1.378 . S
C217 C216 1.367 . S
C217 C225 1.433 . S
C218 H214 0.929 . S
C218 C220 1.378 . S
C218 C222 1.350 . S
C219 C222 1.463 . S
C219 C224 1.350 . S
C219 N227 1.427 . S
C220 H211 0.930 . S
C220 C218 1.378 . S
C220 C221 1.367 . S
C221 C220 1.367 . S
C221 C223 1.433 . S
C222 C218 1.350 . S
C222 C219 1.463 . S
C222 N226 1.427 . S
C223 H213 0.929 . S
C223 C221 1.433 . S
C223 N226 1.384 . S
C224 H215 0.929 . S
C224 C216 1.378 . S
C224 C219 1.350 . S
C225 H212 0.929 . S
C225 C217 1.433 . S
C225 N227 1.384 . S
N226 C222 1.427 . S
N226 C223 1.384 . S
N227 C219 1.427 . S
N227 C225 1.384 . S
H228 C234 0.930 . S
H229 C238 0.930 . S
H230 C243 0.929 . S
H231 C241 0.929 . S
H232 C236 0.929 . S
H233 C242 0.929 . S
C234 H228 0.930 . S
C234 C235 1.367 . S
C234 C242 1.378 . S
C235 C234 1.367 . S
C235 C243 1.433 . S
C236 H232 0.929 . S
C236 C238 1.378 . S
C236 C240 1.350 . S
C237 C240 1.463 . S
C237 C242 1.350 . S
C237 N245 1.427 . S
C238 H229 0.930 . S
C238 C236 1.378 . S
C238 C239 1.367 . S
C239 C238 1.367 . S
C239 C241 1.433 . S
C240 C236 1.350 . S
C240 C237 1.463 . S
C240 N244 1.427 . S
C241 H231 0.929 . S
C241 C239 1.433 . S
C241 N244 1.384 . S
C242 H233 0.929 . S
C242 C234 1.378 . S
C242 C237 1.350 . S
C243 H230 0.929 . S
C243 C235 1.433 . S
C243 N245 1.384 . S
N244 C240 1.427 . S
N244 C241 1.384 . S
N245 C237 1.427 . S
N245 C243 1.384 . S
H246 C252 0.930 . S
H247 C256 0.930 . S
H248 C261 0.929 . S
H249 C259 0.929 . S
H250 C254 0.929 . S
H251 C260 0.929 . S
C252 H246 0.930 . S
C252 C253 1.367 . S
C252 C260 1.378 . S
C253 C252 1.367 . S
C253 C261 1.433 . S
C254 H250 0.929 . S
C254 C256 1.378 . S
C254 C258 1.350 . S
C255 C258 1.463 . S
C255 C260 1.350 . S
C255 N263 1.427 . S
C256 H247 0.930 . S
C256 C254 1.378 . S
C256 C257 1.367 . S
C257 C256 1.367 . S
C257 C259 1.433 . S
C258 C254 1.350 . S
C258 C255 1.463 . S
C258 N262 1.427 . S
C259 H249 0.929 . S
C259 C257 1.433 . S
C259 N262 1.384 . S
C260 H251 0.929 . S
C260 C252 1.378 . S
C260 C255 1.350 . S
C261 H248 0.929 . S
C261 C253 1.433 . S
C261 N263 1.384 . S
N262 C258 1.427 . S
N262 C259 1.384 . S
N263 C255 1.427 . S
N263 C261 1.384 . S
H264 C270 0.930 . S
H265 C274 0.930 . S
H266 C279 0.929 . S
H267 C277 0.929 . S
H268 C272 0.929 . S
H269 C278 0.929 . S
C270 H264 0.930 . S
C270 C271 1.367 . S
C270 C278 1.378 . S
C271 C270 1.367 . S
C271 C279 1.433 . S
C272 H268 0.929 . S
C272 C274 1.378 . S
C272 C276 1.350 . S
C273 C276 1.463 . S
C273 C278 1.350 . S
C273 N281 1.427 . S
C274 H265 0.930 . S
C274 C272 1.378 . S
C274 C275 1.367 . S
C275 C274 1.367 . S
C275 C277 1.433 . S
C276 C272 1.350 . S
C276 C273 1.463 . S
C276 N280 1.427 . S
C277 H267 0.929 . S
C277 C275 1.433 . S
C277 N280 1.384 . S
C278 H269 0.929 . S
C278 C270 1.378 . S
C278 C273 1.350 . S
C279 H266 0.929 . S
C279 C271 1.433 . S
C279 N281 1.384 . S
N280 C276 1.427 . S
N280 C277 1.384 . S
N281 C273 1.427 . S
N281 C279 1.384 . S
H282 C288 0.930 . S
H283 C292 0.930 . S
H284 C297 0.929 . S
H285 C295 0.929 . S
H286 C290 0.929 . S
H287 C296 0.929 . S
C288 H282 0.930 . S
C288 C289 1.367 . S
C288 C296 1.378 . S
C289 C288 1.367 . S
C289 C297 1.433 . S
C290 H286 0.929 . S
C290 C292 1.378 . S
C290 C294 1.350 . S
C291 C294 1.463 . S
C291 C296 1.350 . S
C291 N299 1.427 . S
C292 H283 0.930 . S
C292 C290 1.378 . S
C292 C293 1.367 . S
C293 C292 1.367 . S
C293 C295 1.433 . S
C294 C290 1.350 . S
C294 C291 1.463 . S
C294 N298 1.427 . S
C295 H285 0.929 . S
C295 C293 1.433 . S
C295 N298 1.384 . S
C296 H287 0.929 . S
C296 C288 1.378 . S
C296 C291 1.350 . S
C297 H284 0.929 . S
C297 C289 1.433 . S
C297 N299 1.384 . S
N298 C294 1.427 . S
N298 C295 1.384 . S
N299 C291 1.427 . S
N299 C297 1.384 . S
H300 C306 0.930 . S
H301 C310 0.930 . S
H302 C315 0.929 . S
H303 C313 0.929 . S
H304 C308 0.929 . S
H305 C314 0.929 . S
C306 H300 0.930 . S
C306 C307 1.367 . S
C306 C314 1.378 . S
C307 C306 1.367 . S
C307 C315 1.433 . S
C308 H304 0.929 . S
C308 C310 1.378 . S
C308 C312 1.350 . S
C309 C312 1.463 . S
C309 C314 1.350 . S
C309 N317 1.427 . S
C310 H301 0.930 . S
C310 C308 1.378 . S
C310 C311 1.367 . S
C311 C310 1.367 . S
C311 C313 1.433 . S
C312 C308 1.350 . S
C312 C309 1.463 . S
C312 N316 1.427 . S
C313 H303 0.929 . S
C313 C311 1.433 . S
C313 N316 1.384 . S
C314 H305 0.929 . S
C314 C306 1.378 . S
C314 C309 1.350 . S
C315 H302 0.929 . S
C315 C307 1.433 . S
C315 N317 1.384 . S
N316 C312 1.427 . S
N316 C313 1.384 . S
N317 C309 1.427 . S
N317 C315 1.384 . S
H318 C324 0.930 . S
H319 C328 0.930 . S
H320 C333 0.929 . S
H321 C331 0.929 . S
H322 C326 0.929 . S
H323 C332 0.929 . S
C324 H318 0.930 . S
C324 C325 1.367 . S
C324 C332 1.378 . S
C325 C324 1.367 . S
C325 C333 1.433 . S
C326 H322 0.929 . S
C326 C328 1.378 . S
C326 C330 1.350 . S
C327 C330 1.463 . S
C327 C332 1.350 . S
C327 N335 1.427 . S
C328 H319 0.930 . S
C328 C326 1.378 . S
C328 C329 1.367 . S
C329 C328 1.367 . S
C329 C331 1.433 . S
C330 C326 1.350 . S
C330 C327 1.463 . S
C330 N334 1.427 . S
C331 H321 0.929 . S
C331 C329 1.433 . S
C331 N334 1.384 . S
C332 H323 0.929 . S
C332 C324 1.378 . S
C332 C327 1.350 . S
C333 H320 0.929 . S
C333 C325 1.433 . S
C333 N335 1.384 . S
N334 C330 1.427 . S
N334 C331 1.384 . S
N335 C327 1.427 . S
N335 C333 1.384 . S
H336 C342 0.930 . S
H337 C346 0.930 . S
H338 C351 0.929 . S
H339 C349 0.929 . S
H340 C344 0.929 . S
H341 C350 0.929 . S
C342 H336 0.930 . S
C342 C343 1.367 . S
C342 C350 1.378 . S
C343 C342 1.367 . S
C343 C351 1.433 . S
C344 H340 0.929 . S
C344 C346 1.378 . S
C344 C348 1.350 . S
C345 C348 1.463 . S
C345 C350 1.350 . S
C345 N353 1.427 . S
C346 H337 0.930 . S
C346 C344 1.378 . S
C346 C347 1.367 . S
C347 C346 1.367 . S
C347 C349 1.433 . S
C348 C344 1.350 . S
C348 C345 1.463 . S
C348 N352 1.427 . S
C349 H339 0.929 . S
C349 C347 1.433 . S
C349 N352 1.384 . S
C350 H341 0.929 . S
C350 C342 1.378 . S
C350 C345 1.350 . S
C351 H338 0.929 . S
C351 C343 1.433 . S
C351 N353 1.384 . S
N352 C348 1.427 . S
N352 C349 1.384 . S
N353 C345 1.427 . S
N353 C351 1.384 . S
H354 C360 0.930 . S
H355 C364 0.930 . S
H356 C369 0.929 . S
H357 C367 0.929 . S
H358 C362 0.929 . S
H359 C368 0.929 . S
C360 H354 0.930 . S
C360 C361 1.367 . S
C360 C368 1.378 . S
C361 C360 1.367 . S
C361 C369 1.433 . S
C362 H358 0.929 . S
C362 C364 1.378 . S
C362 C366 1.350 . S
C363 C366 1.463 . S
C363 C368 1.350 . S
C363 N371 1.427 . S
C364 H355 0.930 . S
C364 C362 1.378 . S
C364 C365 1.367 . S
C365 C364 1.367 . S
C365 C367 1.433 . S
C366 C362 1.350 . S
C366 C363 1.463 . S
C366 N370 1.427 . S
C367 H357 0.929 . S
C367 C365 1.433 . S
C367 N370 1.384 . S
C368 H359 0.929 . S
C368 C360 1.378 . S
C368 C363 1.350 . S
C369 H356 0.929 . S
C369 C361 1.433 . S
C369 N371 1.384 . S
N370 C366 1.427 . S
N370 C367 1.384 . S
N371 C363 1.427 . S
N371 C369 1.384 . S
H372 C378 0.930 . S
H373 C382 0.930 . S
H374 C387 0.929 . S
H375 C385 0.929 . S
H376 C380 0.929 . S
H377 C386 0.929 . S
C378 H372 0.930 . S
C378 C379 1.367 . S
C378 C386 1.378 . S
C379 C378 1.367 . S
C379 C387 1.433 . S
C380 H376 0.929 . S
C380 C382 1.378 . S
C380 C384 1.350 . S
C381 C384 1.463 . S
C381 C386 1.350 . S
C381 N389 1.427 . S
C382 H373 0.930 . S
C382 C380 1.378 . S
C382 C383 1.367 . S
C383 C382 1.367 . S
C383 C385 1.433 . S
C384 C380 1.350 . S
C384 C381 1.463 . S
C384 N388 1.427 . S
C385 H375 0.929 . S
C385 C383 1.433 . S
C385 N388 1.384 . S
C386 H377 0.929 . S
C386 C378 1.378 . S
C386 C381 1.350 . S
C387 H374 0.929 . S
C387 C379 1.433 . S
C387 N389 1.384 . S
N388 C384 1.427 . S
N388 C385 1.384 . S
N389 C381 1.427 . S
N389 C387 1.384 . S
H390 C396 0.930 . S
H391 C400 0.930 . S
H392 C405 0.929 . S
H393 C403 0.929 . S
H394 C398 0.929 . S
H395 C404 0.929 . S
C396 H390 0.930 . S
C396 C397 1.367 . S
C396 C404 1.378 . S
C397 C396 1.367 . S
C397 C405 1.433 . S
C398 H394 0.929 . S
C398 C400 1.378 . S
C398 C402 1.350 . S
C399 C402 1.463 . S
C399 C404 1.350 . S
C399 N407 1.427 . S
C400 H391 0.930 . S
C400 C398 1.378 . S
C400 C401 1.367 . S
C401 C400 1.367 . S
C401 C403 1.433 . S
C402 C398 1.350 . S
C402 C399 1.463 . S
C402 N406 1.427 . S
C403 H393 0.929 . S
C403 C401 1.433 . S
C403 N406 1.384 . S
C404 H395 0.929 . S
C404 C396 1.378 . S
C404 C399 1.350 . S
C405 H392 0.929 . S
C405 C397 1.433 . S
C405 N407 1.384 . S
N406 C402 1.427 . S
N406 C403 1.384 . S
N407 C399 1.427 . S
N407 C405 1.384 . S
H408 C414 0.930 1_655 S
H409 C418 0.930 . S
H410 C423 0.929 . S
H411 C421 0.929 1_655 S
H412 C416 0.929 . S
H413 C422 0.929 1_655 S
C414 H408 0.930 1_455 S
C414 C415 1.367 . S
C414 C422 1.378 . S
C415 C414 1.367 . S
C415 C423 1.433 . S
C416 H412 0.929 . S
C416 C418 1.378 . S
C416 C420 1.350 . S
C417 C420 1.463 1_554 S
C417 C422 1.350 . S
C417 N425 1.427 . S
C418 H409 0.930 . S
C418 C416 1.378 . S
C418 C419 1.367 . S
C419 C418 1.367 . S
C419 C421 1.433 . S
C420 C416 1.350 . S
C420 C417 1.463 1_556 S
C420 N424 1.427 . S
C421 H411 0.929 1_455 S
C421 C419 1.433 . S
C421 N424 1.384 . S
C422 H413 0.929 1_455 S
C422 C414 1.378 . S
C422 C417 1.350 . S
C423 H410 0.929 . S
C423 C415 1.433 . S
C423 N425 1.384 . S
N424 C420 1.427 . S
N424 C421 1.384 . S
N425 C417 1.427 . S
N425 C423 1.384 . S
H426 C432 0.930 . S
H427 C436 0.930 1_565 S
H428 C441 0.929 . S
H429 C439 0.929 . S
H430 C434 0.937 . S
H431 C440 0.929 . S
C432 H426 0.930 . S
C432 C433 1.367 . S
C432 C440 1.378 . S
C433 C432 1.367 . S
C433 C441 1.433 1_545 S
C434 H430 0.937 . S
C434 C436 1.377 1_565 S
C434 C438 1.342 1_565 S
C435 C438 1.463 . S
C435 C440 1.350 . S
C435 N443 1.427 1_545 S
C436 H427 0.930 1_545 S
C436 C434 1.377 1_545 S
C436 C437 1.367 . S
C437 C436 1.367 . S
C437 C439 1.433 . S
C438 C434 1.342 1_545 S
C438 C435 1.463 . S
C438 N442 1.427 . S
C439 H429 0.929 . S
C439 C437 1.433 . S
C439 N442 1.384 . S
C440 H431 0.929 . S
C440 C432 1.378 . S
C440 C435 1.350 . S
C441 H428 0.929 . S
C441 C433 1.433 1_565 S
C441 N443 1.384 . S
N442 C438 1.427 . S
N442 C439 1.384 . S
N443 C435 1.427 1_565 S
N443 C441 1.384 . S
H444 C450 0.930 . S
H445 C454 0.930 . S
H446 C459 0.929 . S
H447 C457 0.929 . S
H448 C452 0.929 . S
H449 C458 0.929 . S
C450 H444 0.930 . S
C450 C451 1.367 . S
C450 C458 1.378 . S
C451 C450 1.367 . S
C451 C459 1.433 . S
C452 H448 0.929 . S
C452 C454 1.378 . S
C452 C456 1.350 . S
C453 C456 1.463 . S
C453 C458 1.350 . S
C453 N461 1.427 . S
C454 H445 0.930 . S
C454 C452 1.378 . S
C454 C455 1.367 . S
C455 C454 1.367 . S
C455 C457 1.433 . S
C456 C452 1.350 . S
C456 C453 1.463 . S
C456 N460 1.427 . S
C457 H447 0.929 . S
C457 C455 1.433 . S
C457 N460 1.384 . S
C458 H449 0.929 . S
C458 C450 1.378 . S
C458 C453 1.350 . S
C459 H446 0.929 . S
C459 C451 1.433 . S
C459 N461 1.384 . S
N460 C456 1.427 . S
N460 C457 1.384 . S
N461 C453 1.427 . S
N461 C459 1.384 . S
H462 C468 0.930 1_565 S
H463 C472 0.930 . S
H464 C477 0.929 . S
H465 C475 0.955 . S
H466 C470 0.929 . S
H467 C476 0.929 1_565 S
C468 H462 0.930 1_545 S
C468 C469 1.367 . S
C468 C476 1.378 . S
C469 C468 1.367 . S
C469 C477 1.433 . S
C470 H466 0.929 . S
C470 C472 1.378 . S
C470 C474 1.350 . S
C471 C474 1.463 . S
C471 C476 1.350 . S
C471 N479 1.427 . S
C472 H463 0.930 . S
C472 C470 1.378 . S
C472 C473 1.367 . S
C473 C472 1.367 . S
C473 C475 1.413 1_545 S
C474 C470 1.350 . S
C474 C471 1.463 . S
C474 N478 1.452 . S
C475 H465 0.955 . S
C475 C473 1.413 1_565 S
C475 N478 1.372 1_565 S
C476 H467 0.929 1_545 S
C476 C468 1.378 . S
C476 C471 1.350 . S
C477 H464 0.929 . S
C477 C469 1.433 . S
C477 N479 1.384 . S
N478 C474 1.452 . S
N478 C475 1.372 1_545 S
N479 C471 1.427 . S
N479 C477 1.384 . S
H480 C486 0.930 . S
H481 C490 0.930 . S
H482 C495 0.929 . S
H483 C493 0.929 . S
H484 C488 0.929 1_556 S
H485 C494 0.929 . S
C486 H480 0.930 . S
C486 C487 1.367 . S
C486 C494 1.378 . S
C487 C486 1.367 . S
C487 C495 1.433 . S
C488 H484 0.929 1_554 S
C488 C490 1.378 . S
C488 C492 1.350 1_554 S
C489 C492 1.463 . S
C489 C494 1.350 . S
C489 N497 1.427 . S
C490 H481 0.930 . S
C490 C488 1.378 . S
C490 C491 1.367 . S
C491 C490 1.367 . S
C491 C493 1.433 . S
C492 C488 1.350 1_556 S
C492 C489 1.463 . S
C492 N496 1.427 1_556 S
C493 H483 0.929 . S
C493 C491 1.433 . S
C493 N496 1.384 . S
C494 H485 0.929 . S
C494 C486 1.378 . S
C494 C489 1.350 . S
C495 H482 0.929 . S
C495 C487 1.433 . S
C495 N497 1.384 . S
N496 C492 1.427 1_554 S
N496 C493 1.384 . S
N497 C489 1.427 . S
N497 C495 1.384 . S
H498 C504 0.930 . S
H499 C508 0.930 . S
H500 C513 0.929 . S
H501 C511 0.929 1_655 S
H502 C506 0.929 . S
H503 C512 0.929 . S
C504 H498 0.930 . S
C504 C505 1.367 . S
C504 C512 1.378 . S
C505 C504 1.367 . S
C505 C513 1.433 . S
C506 H502 0.929 . S
C506 C508 1.378 . S
C506 C510 1.350 . S
C507 C510 1.463 . S
C507 C512 1.350 . S
C507 N515 1.427 . S
C508 H499 0.930 . S
C508 C506 1.378 . S
C508 C509 1.367 . S
C509 C508 1.367 . S
C509 C511 1.433 . S
C510 C506 1.350 . S
C510 C507 1.463 . S
C510 N514 1.427 . S
C511 H501 0.929 1_455 S
C511 C509 1.433 . S
C511 N514 1.384 . S
C512 H503 0.929 . S
C512 C504 1.378 . S
C512 C507 1.350 . S
C513 H500 0.929 . S
C513 C505 1.433 . S
C513 N515 1.384 . S
N514 C510 1.427 . S
N514 C511 1.384 . S
N515 C507 1.427 . S
N515 C513 1.384 . S
C199 C6 0.816 . S
C203 C186 0.829 . S
C217 C59 1.949 . S
C221 C160 1.882 . S
C235 C86 1.286 . S
C239 C172 1.270 . S
C253 C15 0.338 . S
C257 C184 0.306 . S
C275 C162 1.846 . S
C271 C50 1.866 . S
C293 C174 1.161 . S
C289 C95 1.150 . S
C307 C46 1.296 . S
C311 C136 1.294 . S
C325 C99 3.348 . S
C329 C150 3.322 . S
C343 C10 1.880 . S
C347 C126 1.873 . S
C365 C138 1.149 . S
C361 C55 1.152 . S
C383 C148 2.704 . S
C379 C90 2.794 . S
C397 C19 1.960 . S
C401 C124 1.907 . S
C419 C153 1.773 . S
C415 C18 1.691 . S
C433 C49 1.410 . S
C437 C129 1.474 . S
C451 C98 1.508 . S
C455 C141 1.530 . S
C473 C177 1.526 . S
C469 C58 1.519 . S
C491 C189 1.248 . S
C487 C89 1.221 . S
C505 C9 1.411 . S
C509 C165 1.444 . S
