# Generated by pormake.
# Topology ssa, (4,4)-cn, num edge types: 1
# Building blocks:
#     Node 0, Type 0, BuildingBlock: NAWXER_clean_sbu_0, # of connection points: 4
#     Node 1, Type 0, BuildingBlock: NAWXER_clean_sbu_0, # of connection points: 4
#     Node 2, Type 0, BuildingBlock: NAWXER_clean_sbu_0, # of connection points: 4
#     Node 3, Type 0, BuildingBlock: NAWXER_clean_sbu_0, # of connection points: 4
#     Node 4, Type 0, BuildingBlock: NAWXER_clean_sbu_0, # of connection points: 4
#     Node 5, Type 0, BuildingBlock: NAWXER_clean_sbu_0, # of connection points: 4
#     Node 6, Type 1, BuildingBlock: NAWXER_clean_linker_0, # of connection points: 4
#     Node 7, Type 1, BuildingBlock: NAWXER_clean_linker_0, # of connection points: 4
#     Node 8, Type 1, BuildingBlock: NAWXER_clean_linker_0, # of connection points: 4
#     Node 9, Type 1, BuildingBlock: NAWXER_clean_linker_0, # of connection points: 4
#     Node 10, Type 1, BuildingBlock: NAWXER_clean_linker_0, # of connection points: 4
#     Node 11, Type 1, BuildingBlock: NAWXER_clean_linker_0, # of connection points: 4
#     Edge 12, Type (0, 1), BuildingBlock: CIFDUS_clean_linker_0, # of connection points: 2
#     Edge 13, Type (0, 1), BuildingBlock: CIFDUS_clean_linker_0, # of connection points: 2
#     Edge 14, Type (0, 1), BuildingBlock: CIFDUS_clean_linker_0, # of connection points: 2
#     Edge 15, Type (0, 1), BuildingBlock: CIFDUS_clean_linker_0, # of connection points: 2
#     Edge 16, Type (0, 1), BuildingBlock: CIFDUS_clean_linker_0, # of connection points: 2
#     Edge 17, Type (0, 1), BuildingBlock: CIFDUS_clean_linker_0, # of connection points: 2
#     Edge 18, Type (0, 1), BuildingBlock: CIFDUS_clean_linker_0, # of connection points: 2
#     Edge 19, Type (0, 1), BuildingBlock: CIFDUS_clean_linker_0, # of connection points: 2
#     Edge 20, Type (0, 1), BuildingBlock: CIFDUS_clean_linker_0, # of connection points: 2
#     Edge 21, Type (0, 1), BuildingBlock: CIFDUS_clean_linker_0, # of connection points: 2
#     Edge 22, Type (0, 1), BuildingBlock: CIFDUS_clean_linker_0, # of connection points: 2
#     Edge 23, Type (0, 1), BuildingBlock: CIFDUS_clean_linker_0, # of connection points: 2
#     Edge 24, Type (0, 1), BuildingBlock: CIFDUS_clean_linker_0, # of connection points: 2
#     Edge 25, Type (0, 1), BuildingBlock: CIFDUS_clean_linker_0, # of connection points: 2
#     Edge 26, Type (0, 1), BuildingBlock: CIFDUS_clean_linker_0, # of connection points: 2
#     Edge 27, Type (0, 1), BuildingBlock: CIFDUS_clean_linker_0, # of connection points: 2
#     Edge 28, Type (0, 1), BuildingBlock: CIFDUS_clean_linker_0, # of connection points: 2
#     Edge 29, Type (0, 1), BuildingBlock: CIFDUS_clean_linker_0, # of connection points: 2
#     Edge 30, Type (0, 1), BuildingBlock: CIFDUS_clean_linker_0, # of connection points: 2
#     Edge 31, Type (0, 1), BuildingBlock: CIFDUS_clean_linker_0, # of connection points: 2
#     Edge 32, Type (0, 1), BuildingBlock: CIFDUS_clean_linker_0, # of connection points: 2
#     Edge 33, Type (0, 1), BuildingBlock: CIFDUS_clean_linker_0, # of connection points: 2
#     Edge 34, Type (0, 1), BuildingBlock: CIFDUS_clean_linker_0, # of connection points: 2
#     Edge 35, Type (0, 1), BuildingBlock: CIFDUS_clean_linker_0, # of connection points: 2
# Relax obj value: 0.014
# Max RMSD: 0.030
# Mean RMSD: 0.028
data_MOF--net-ssa--node1-NAWXER_clean_sbu_0--node2-NAWXER_clean_linker_0--edge1-CIFDUS_clean_linker_0
_symmetry_space_group_name_H-M    P1
_symmetry_Int_Tables_number       1
_symmetry_cell_setting            triclinic
loop_
_symmetry_equiv_pos_as_xyz
'x, y, z'
_cell_length_a     51.483016
_cell_length_b     51.458987
_cell_length_c     35.597869
_cell_angle_alpha  90.082529
_cell_angle_beta   89.915642
_cell_angle_gamma 120.01421
loop_
_atom_site_label
_atom_site_type_symbol
_atom_site_fract_x
_atom_site_fract_y
_atom_site_fract_z
_atom_type_partial_charge
C0 C 0.04177 0.55028 0.02944 0.0
C1 C 0.00215 0.46156 0.94851 0.0
O2 O 0.01581 0.52911 0.03921 0.0
Zn3 Zn 0.98283 0.48585 0.02086 0.0
O4 O 0.05382 0.54749 0.99963 0.0
Zn5 Zn 0.02237 0.50699 0.98626 0.0
O6 O 0.9862 0.51239 0.9671 0.0
O7 O 0.94872 0.49035 0.00728 0.0
O8 O 0.02683 0.4859 0.9435 0.0
O9 O 0.98478 0.45941 0.97566 0.0
O10 O 0.98084 0.46205 0.06403 0.0
O11 O 0.02341 0.48051 0.0322 0.0
C12 C 0.95945 0.50497 0.97701 0.0
C13 C 0.00661 0.46477 0.05948 0.0
C14 C 0.48908 0.01877 0.56313 0.0
C15 C 0.52977 0.97761 0.47138 0.0
O16 O 0.49124 0.99537 0.56679 0.0
Zn17 Zn 0.50903 0.99694 0.51788 0.0
O18 O 0.49778 0.03403 0.53276 0.0
Zn19 Zn 0.51755 0.03323 0.4807 0.0
O20 O 0.48736 0.02811 0.44389 0.0
O21 O 0.47481 0.98733 0.47732 0.0
O22 O 0.53023 0.00158 0.46034 0.0
O23 O 0.51972 0.96712 0.50394 0.0
O24 O 0.55225 0.03559 0.52286 0.0
O25 O 0.5559 0.0706 0.48375 0.0
C26 C 0.46923 0.00052 0.45064 0.0
C27 C 0.5674 0.06195 0.50894 0.0
C28 C 0.44691 0.43812 0.9656 0.0
C29 C 0.47995 0.53307 0.0321 0.0
O30 O 0.44329 0.45967 0.95491 0.0
Zn31 Zn 0.46217 0.48577 0.99823 0.0
O32 O 0.45991 0.44004 0.99696 0.0
Zn33 Zn 0.48106 0.47135 0.04139 0.0
O34 O 0.45761 0.45072 0.0851 0.0
O35 O 0.43276 0.46267 0.04472 0.0
O36 O 0.4867 0.51516 0.04874 0.0
O37 O 0.46554 0.52512 0.00125 0.0
O38 O 0.50811 0.49807 0.99027 0.0
O39 O 0.52198 0.47939 0.03695 0.0
C40 C 0.43381 0.45087 0.07603 0.0
C41 C 0.52811 0.49421 0.00651 0.0
C42 C 0.02308 0.57197 0.46379 0.0
C43 C 0.98623 0.48457 0.54629 0.0
O44 O 0.0335 0.57056 0.49562 0.0
Zn45 Zn 0.00407 0.52956 0.50776 0.0
O46 O 0.99864 0.54937 0.45201 0.0
Zn47 Zn 0.96711 0.50477 0.47064 0.0
O48 O 0.92987 0.5043 0.4804 0.0
O49 O 0.96466 0.53119 0.5222 0.0
O50 O 0.96972 0.48053 0.51753 0.0
O51 O 0.00902 0.51028 0.55233 0.0
O52 O 0.01111 0.50542 0.46311 0.0
O53 O 0.9691 0.48042 0.43039 0.0
C54 C 0.93779 0.52026 0.51 0.0
C55 C 0.9963 0.48763 0.43608 0.0
C56 C 0.55391 0.00568 0.05311 0.0
C57 C 0.51182 0.05958 0.98745 0.0
O58 O 0.55591 0.03039 0.06288 0.0
Zn59 Zn 0.53408 0.03404 0.02053 0.0
O60 O 0.54029 0.99293 0.0226 0.0
Zn61 Zn 0.51631 0.9996 0.97851 0.0
O62 O 0.53967 0.00371 0.9338 0.0
O63 O 0.56278 0.04176 0.97308 0.0
O64 O 0.50654 0.03516 0.97119 0.0
O65 O 0.52736 0.06782 0.01743 0.0
O66 O 0.48945 0.99807 0.0305 0.0
O67 O 0.47666 0.96469 0.98483 0.0
C68 C 0.56236 0.02894 0.94196 0.0
C69 C 0.47028 0.9732 0.01531 0.0
C70 C 0.53054 0.52517 0.55974 0.0
C71 C 0.4437 0.48194 0.47604 0.0
O72 O 0.50538 0.52347 0.56567 0.0
Zn73 Zn 0.48669 0.50443 0.51815 0.0
O74 O 0.53505 0.51546 0.52868 0.0
Zn75 Zn 0.51166 0.49433 0.47846 0.0
O76 O 0.53513 0.52324 0.43998 0.0
O77 O 0.5102 0.53809 0.47628 0.0
O78 O 0.46631 0.48094 0.46249 0.0
O79 O 0.44575 0.49374 0.50815 0.0
O80 O 0.48226 0.46107 0.5236 0.0
O81 O 0.5111 0.45637 0.48122 0.0
C82 C 0.52759 0.54262 0.44819 0.0
C83 C 0.49261 0.44556 0.50835 0.0
C84 C 0.29434 0.43595 0.22096 0.0
C85 C 0.28716 0.41434 0.19268 0.0
C86 C 0.27176 0.43561 0.24323 0.0
C87 C 0.24163 0.41309 0.23843 0.0
C88 C 0.25711 0.39174 0.188 0.0
C89 C 0.23461 0.39112 0.21067 0.0
C90 C 0.21701 0.41426 0.25869 0.0
C91 C 0.27674 0.41071 0.34934 0.0
C92 C 0.2887 0.43568 0.3736 0.0
C93 C 0.25345 0.40532 0.32458 0.0
C94 C 0.24209 0.42508 0.32331 0.0
C95 C 0.27682 0.45499 0.37269 0.0
C96 C 0.25374 0.44969 0.34793 0.0
C97 C 0.21755 0.42035 0.29757 0.0
C98 C 0.10045 0.42242 0.31666 0.0
C99 C 0.11169 0.44734 0.34097 0.0
C100 C 0.11951 0.41282 0.30199 0.0
C101 C 0.15039 0.42868 0.31013 0.0
C102 C 0.14207 0.46133 0.3516 0.0
C103 C 0.16117 0.45229 0.33616 0.0
C104 C 0.17214 0.42196 0.29125 0.0
C105 C 0.12585 0.44415 0.20159 0.0
C106 C 0.1095 0.42068 0.17616 0.0
C107 C 0.14658 0.44305 0.22573 0.0
C108 C 0.15052 0.41793 0.22589 0.0
C109 C 0.11435 0.39615 0.1751 0.0
C110 C 0.13468 0.39475 0.19989 0.0
C111 C 0.17181 0.4163 0.25231 0.0
H112 H 0.31724 0.45398 0.22463 0.0
H113 H 0.27781 0.45366 0.26314 0.0
H114 H 0.25097 0.37484 0.16636 0.0
H115 H 0.21154 0.3738 0.20598 0.0
H116 H 0.28522 0.39523 0.34975 0.0
H117 H 0.2443 0.38573 0.30657 0.0
H118 H 0.28581 0.47464 0.39058 0.0
H119 H 0.24531 0.46522 0.34759 0.0
H120 H 0.0772 0.41086 0.30797 0.0
H121 H 0.11025 0.39365 0.2833 0.0
H122 H 0.15138 0.4797 0.37152 0.0
H123 H 0.1847 0.46452 0.34375 0.0
H124 H 0.12304 0.46366 0.2022 0.0
H125 H 0.15944 0.4618 0.24444 0.0
H126 H 0.10222 0.37798 0.15535 0.0
H127 H 0.13782 0.37545 0.19906 0.0
N128 N 0.19398 0.41227 0.23775 0.0
N129 N 0.19511 0.4239 0.31208 0.0
C130 C 0.90317 0.30537 0.80259 0.0
C131 C 0.89544 0.31562 0.83496 0.0
C132 C 0.88077 0.28503 0.77838 0.0
C133 C 0.85037 0.2754 0.7856 0.0
C134 C 0.86505 0.30528 0.84264 0.0
C135 C 0.8428 0.28542 0.81826 0.0
C136 C 0.82603 0.25471 0.76001 0.0
C137 C 0.88245 0.3367 0.68906 0.0
C138 C 0.89598 0.33146 0.65783 0.0
C139 C 0.86083 0.31272 0.71016 0.0
C140 C 0.85252 0.28306 0.70069 0.0
C141 C 0.88818 0.30173 0.64912 0.0
C142 C 0.86646 0.27776 0.67016 0.0
C143 C 0.82758 0.25755 0.72053 0.0
C144 C 0.70083 0.18274 0.67095 0.0
C145 C 0.70496 0.17082 0.63737 0.0
C146 C 0.72409 0.19649 0.69708 0.0
C147 C 0.75188 0.19838 0.69031 0.0
C148 C 0.73277 0.17268 0.63072 0.0
C149 C 0.75604 0.1865 0.65682 0.0
C150 C 0.77772 0.21584 0.71555 0.0
C151 C 0.71246 0.13863 0.79072 0.0
C152 C 0.70316 0.14807 0.82262 0.0
C153 C 0.73543 0.15969 0.76757 0.0
C154 C 0.74937 0.19049 0.77592 0.0
C155 C 0.71643 0.17901 0.82981 0.0
C156 C 0.73939 0.19989 0.80697 0.0
C157 C 0.7761 0.21308 0.75508 0.0
H158 H 0.92645 0.3128 0.79631 0.0
H159 H 0.88723 0.27686 0.75411 0.0
H160 H 0.85848 0.31308 0.86721 0.0
H161 H 0.81959 0.2783 0.82464 0.0
H162 H 0.88745 0.35921 0.69611 0.0
H163 H 0.84984 0.31732 0.73306 0.0
H164 H 0.89837 0.29693 0.62546 0.0
H165 H 0.86025 0.25502 0.6623 0.0
H166 H 0.6796 0.18145 0.67703 0.0
H167 H 0.72058 0.20639 0.72205 0.0
H168 H 0.73678 0.16402 0.60494 0.0
H169 H 0.77746 0.18823 0.65064 0.0
H170 H 0.70282 0.11498 0.78449 0.0
H171 H 0.74307 0.15186 0.74408 0.0
H172 H 0.70935 0.18717 0.85353 0.0
H173 H 0.74969 0.22351 0.8139 0.0
N174 N 0.80031 0.23266 0.77561 0.0
N175 N 0.80348 0.23788 0.69988 0.0
C176 C 0.56369 0.69431 0.18075 0.0
C177 C 0.53795 0.68095 0.15785 0.0
C178 C 0.57084 0.71995 0.20179 0.0
C179 C 0.55246 0.73285 0.2003 0.0
C180 C 0.52027 0.69467 0.15531 0.0
C181 C 0.52759 0.7205 0.17617 0.0
C182 C 0.55862 0.75877 0.22435 0.0
C183 C 0.52515 0.68065 0.30448 0.0
C184 C 0.54775 0.68231 0.32811 0.0
C185 C 0.53024 0.70526 0.28262 0.0
C186 C 0.55795 0.73201 0.28425 0.0
C187 C 0.57574 0.70882 0.32905 0.0
C188 C 0.58067 0.73367 0.3076 0.0
C189 C 0.56231 0.75874 0.26356 0.0
C190 C 0.54464 0.85924 0.31473 0.0
C191 C 0.56265 0.868 0.34709 0.0
C192 C 0.54659 0.84016 0.28838 0.0
C193 C 0.5672 0.83008 0.29331 0.0
C194 C 0.5831 0.8578 0.35223 0.0
C195 C 0.58537 0.83904 0.32555 0.0
C196 C 0.56724 0.80732 0.26772 0.0
C197 C 0.59007 0.88657 0.19191 0.0
C198 C 0.57021 0.88028 0.16172 0.0
C199 C 0.58821 0.86321 0.2141 0.0
C200 C 0.56607 0.83328 0.20688 0.0
C201 C 0.54797 0.85039 0.15489 0.0
C202 C 0.54598 0.8272 0.17712 0.0
C203 C 0.56454 0.80778 0.22815 0.0
H204 H 0.57825 0.6848 0.18267 0.0
H205 H 0.59059 0.72956 0.2195 0.0
H206 H 0.50018 0.68491 0.13825 0.0
H207 H 0.5132 0.73022 0.17448 0.0
H208 H 0.50338 0.66042 0.30334 0.0
H209 H 0.51227 0.70368 0.26521 0.0
H210 H 0.59337 0.71065 0.34735 0.0
H211 H 0.6021 0.75424 0.30941 0.0
H212 H 0.52824 0.86628 0.31046 0.0
H213 H 0.53121 0.83252 0.26487 0.0
H214 H 0.59726 0.86425 0.37693 0.0
H215 H 0.60104 0.83116 0.33039 0.0
H216 H 0.60756 0.9094 0.19759 0.0
H217 H 0.60448 0.86849 0.23628 0.0
H218 H 0.53205 0.84489 0.13219 0.0
H219 H 0.5287 0.80437 0.17092 0.0
N220 N 0.55998 0.78329 0.20816 0.0
N221 N 0.56639 0.78292 0.28373 0.0
C222 C 0.85317 0.56056 0.70425 0.0
C223 C 0.84296 0.54584 0.66934 0.0
C224 C 0.83296 0.56024 0.73098 0.0
C225 C 0.80189 0.54398 0.7243 0.0
C226 C 0.8119 0.53059 0.66238 0.0
C227 C 0.79177 0.52933 0.68954 0.0
C228 C 0.77935 0.54362 0.751 0.0
C229 C 0.83208 0.5156 0.82758 0.0
C230 C 0.84248 0.53222 0.86102 0.0
C231 C 0.81282 0.5197 0.80374 0.0
C232 C 0.80447 0.5412 0.81238 0.0
C233 C 0.83425 0.55374 0.86954 0.0
C234 C 0.81553 0.55824 0.84541 0.0
C235 C 0.78101 0.54325 0.79077 0.0
C236 C 0.65805 0.50263 0.84305 0.0
C237 C 0.66335 0.52117 0.87447 0.0
C238 C 0.68049 0.50999 0.8162 0.0
C239 C 0.70866 0.5359 0.82052 0.0
C240 C 0.69128 0.54749 0.87826 0.0
C241 C 0.7139 0.55458 0.85173 0.0
C242 C 0.73369 0.54138 0.79536 0.0
C243 C 0.67326 0.56055 0.72151 0.0
C244 C 0.66424 0.544 0.68791 0.0
C245 C 0.69458 0.55927 0.74477 0.0
C246 C 0.70675 0.54103 0.73497 0.0
C247 C 0.67569 0.52506 0.67897 0.0
C248 C 0.69671 0.52365 0.70215 0.0
C249 C 0.73205 0.54194 0.75594 0.0
H250 H 0.87678 0.57241 0.7112 0.0
H251 H 0.84183 0.57305 0.75655 0.0
H252 H 0.8028 0.51988 0.63566 0.0
H253 H 0.76805 0.51701 0.68297 0.0
H254 H 0.8379 0.49864 0.82067 0.0
H255 H 0.80371 0.5054 0.7793 0.0
H256 H 0.84212 0.56691 0.89506 0.0
H257 H 0.80908 0.57462 0.85303 0.0
H258 H 0.63661 0.48231 0.83943 0.0
H259 H 0.67619 0.49489 0.7928 0.0
H260 H 0.6959 0.56205 0.90234 0.0
H261 H 0.73566 0.57441 0.85583 0.0
H262 H 0.66485 0.57542 0.72891 0.0
H263 H 0.70242 0.57348 0.76942 0.0
H264 H 0.66876 0.51167 0.65355 0.0
H265 H 0.70563 0.50935 0.69395 0.0
N266 N 0.75492 0.54306 0.7356 0.0
N267 N 0.75814 0.5423 0.81108 0.0
C268 C 0.15795 0.68906 0.18367 0.0
C269 C 0.1497 0.69639 0.14939 0.0
C270 C 0.177 0.71165 0.20854 0.0
C271 C 0.18747 0.74199 0.20006 0.0
C272 C 0.15969 0.72659 0.14119 0.0
C273 C 0.17828 0.74913 0.16633 0.0
C274 C 0.21173 0.76649 0.22229 0.0
C275 C 0.13871 0.71739 0.31056 0.0
C276 C 0.14769 0.70566 0.34038 0.0
C277 C 0.15972 0.73686 0.2842 0.0
C278 C 0.19002 0.74481 0.28716 0.0
C279 C 0.17798 0.71335 0.34264 0.0
C280 C 0.19885 0.73282 0.31658 0.0
C281 C 0.2134 0.76724 0.26197 0.0
C282 C 0.32954 0.88443 0.29204 0.0
C283 C 0.33791 0.87494 0.32461 0.0
C284 C 0.30496 0.86397 0.27049 0.0
C285 C 0.28865 0.83346 0.28064 0.0
C286 C 0.32078 0.84463 0.33532 0.0
C287 C 0.29666 0.82422 0.31357 0.0
C288 C 0.26227 0.81099 0.25888 0.0
C289 C 0.33652 0.84419 0.17193 0.0
C290 C 0.33287 0.85998 0.14215 0.0
C291 C 0.31346 0.82881 0.19796 0.0
C292 C 0.28632 0.82887 0.19452 0.0
C293 C 0.30582 0.86029 0.13904 0.0
C294 C 0.28261 0.84455 0.16476 0.0
C295 C 0.26071 0.80994 0.21928 0.0
H296 H 0.15087 0.66592 0.19038 0.0
H297 H 0.18469 0.70535 0.23333 0.0
H298 H 0.15351 0.7328 0.11503 0.0
H299 H 0.18635 0.77233 0.15879 0.0
H300 H 0.11562 0.71214 0.30812 0.0
H301 H 0.15245 0.74627 0.26217 0.0
H302 H 0.18564 0.70424 0.36459 0.0
H303 H 0.22208 0.73857 0.31945 0.0
H304 H 0.34214 0.90758 0.28293 0.0
H305 H 0.29865 0.87215 0.24618 0.0
H306 H 0.32586 0.83656 0.36077 0.0
H307 H 0.28427 0.80101 0.32257 0.0
H308 H 0.35723 0.84377 0.17506 0.0
H309 H 0.31653 0.81626 0.22021 0.0
H310 H 0.30238 0.87213 0.11619 0.0
H311 H 0.26164 0.84442 0.16129 0.0
N312 N 0.23546 0.788 0.20273 0.0
N313 N 0.23855 0.78949 0.27844 0.0
C314 C 0.42888 0.13462 0.8316 0.0
C315 C 0.45394 0.14512 0.85553 0.0
C316 C 0.42658 0.15399 0.80605 0.0
C317 C 0.44926 0.18417 0.80411 0.0
C318 C 0.47573 0.17579 0.85472 0.0
C319 C 0.47324 0.19514 0.82949 0.0
C320 C 0.44924 0.20444 0.77494 0.0
C321 C 0.46384 0.13437 0.71714 0.0
C322 C 0.4471 0.12175 0.6841 0.0
C323 C 0.46504 0.15958 0.73386 0.0
C324 C 0.44812 0.17188 0.7194 0.0
C325 C 0.43096 0.13482 0.66909 0.0
C326 C 0.43125 0.15925 0.68668 0.0
C327 C 0.4493 0.1991 0.73591 0.0
C328 C 0.49279 0.32034 0.67056 0.0
C329 C 0.47547 0.31317 0.63766 0.0
C330 C 0.48527 0.29901 0.6989 0.0
C331 C 0.46032 0.27011 0.69485 0.0
C332 C 0.45053 0.28422 0.63362 0.0
C333 C 0.44323 0.26277 0.66182 0.0
C334 C 0.45365 0.24681 0.72344 0.0
C335 C 0.43161 0.31175 0.78161 0.0
C336 C 0.44652 0.3236 0.81581 0.0
C337 C 0.43403 0.28889 0.76336 0.0
C338 C 0.4519 0.27791 0.77862 0.0
C339 C 0.4648 0.313 0.83057 0.0
C340 C 0.46741 0.29043 0.81224 0.0
C341 C 0.4523 0.25149 0.76234 0.0
H342 H 0.41135 0.11128 0.83202 0.0
H343 H 0.40759 0.14528 0.78711 0.0
H344 H 0.49552 0.18469 0.87227 0.0
H345 H 0.49089 0.21844 0.82852 0.0
H346 H 0.47641 0.12513 0.73017 0.0
H347 H 0.47972 0.16962 0.7577 0.0
H348 H 0.41859 0.12682 0.6431 0.0
H349 H 0.4185 0.16859 0.67426 0.0
H350 H 0.51198 0.34257 0.67452 0.0
H351 H 0.49927 0.30495 0.72371 0.0
H352 H 0.43693 0.27807 0.60844 0.0
H353 H 0.42418 0.24044 0.65789 0.0
H354 H 0.41718 0.31933 0.76977 0.0
H355 H 0.42102 0.27908 0.73814 0.0
H356 H 0.4769 0.322 0.85661 0.0
H357 H 0.48127 0.2824 0.82474 0.0
N358 N 0.45063 0.23027 0.78647 0.0
N359 N 0.45159 0.22066 0.71182 0.0
H360 H 0.0438 0.4438 0.0431 0.0
H361 H 0.99627 0.45596 0.135 0.0
H362 H 0.02285 0.44135 0.17976 0.0
H363 H 0.06332 0.42996 0.19269 0.0
H364 H 0.10954 0.41658 0.10019 0.0
H365 H 0.07957 0.4266 0.05547 0.0
C366 C 0.039 0.44286 0.07292 0.0
C367 C 0.01846 0.45125 0.08592 0.0
C368 C 0.05426 0.43443 0.09824 0.0
C369 C 0.012 0.44954 0.12446 0.0
C370 C 0.02734 0.4414 0.14999 0.0
C371 C 0.06648 0.42893 0.1627 0.0
C372 C 0.08869 0.42287 0.14956 0.0
C373 C 0.04907 0.43456 0.13723 0.0
C374 C 0.09249 0.42117 0.11078 0.0
C375 C 0.0755 0.42703 0.08528 0.0
H376 H 0.59076 0.11969 0.53222 0.0
H377 H 0.61024 0.0477 0.52213 0.0
H378 H 0.65601 0.07615 0.55894 0.0
H379 H 0.68743 0.11891 0.59944 0.0
H380 H 0.66696 0.19006 0.61298 0.0
H381 H 0.62448 0.16447 0.56995 0.0
C382 C 0.60554 0.11073 0.53732 0.0
C383 C 0.59748 0.08189 0.52431 0.0
C384 C 0.63123 0.12674 0.55985 0.0
C385 C 0.61626 0.07001 0.53177 0.0
C386 C 0.64227 0.08615 0.553 0.0
C387 C 0.674 0.12908 0.59248 0.0
C388 C 0.68025 0.15624 0.60955 0.0
C389 C 0.64952 0.11414 0.56806 0.0
C390 C 0.66233 0.1689 0.60066 0.0
C391 C 0.63815 0.15439 0.57587 0.0
H392 H 0.50488 0.55208 0.10055 0.0
H393 H 0.47543 0.58033 0.0033 0.0
H394 H 0.49121 0.62891 0.03332 0.0
H395 H 0.51376 0.66334 0.08736 0.0
H396 H 0.54111 0.63309 0.18484 0.0
H397 H 0.5262 0.58546 0.15408 0.0
C398 C 0.5019 0.56881 0.08572 0.0
C399 C 0.48903 0.56255 0.04964 0.0
C400 C 0.51085 0.59644 0.10312 0.0
C401 C 0.48524 0.58453 0.0311 0.0
C402 C 0.4943 0.61231 0.04825 0.0
C403 C 0.51627 0.64625 0.10197 0.0
C404 C 0.52887 0.65204 0.13831 0.0
C405 C 0.50714 0.61851 0.0843 0.0
C406 C 0.53216 0.62966 0.15661 0.0
C407 C 0.52338 0.60224 0.13917 0.0
H408 H 0.94827 0.56481 0.5593 0.0
H409 H 0.87759 0.48158 0.51383 0.0
H410 H 0.8423 0.48183 0.55962 0.0
H411 H 0.83276 0.50348 0.61528 0.0
H412 H 0.90187 0.58977 0.65656 0.0
H413 H 0.93681 0.58974 0.61057 0.0
C414 C 0.92502 0.54696 0.55909 0.0
C415 C 0.91557 0.52316 0.53331 0.0
C416 C 0.90477 0.54737 0.58529 0.0
C417 C 0.88537 0.50028 0.53318 0.0
C418 C 0.86525 0.50026 0.5596 0.0
C419 C 0.85513 0.52282 0.61392 0.0
C420 C 0.86433 0.54646 0.64014 0.0
C421 C 0.87485 0.52344 0.58618 0.0
C422 C 0.89399 0.5707 0.63788 0.0
C423 C 0.91404 0.57097 0.61111 0.0
H424 H 0.44142 0.91306 0.02764 0.0
H425 H 0.43555 0.99263 0.04729 0.0
H426 H 0.39108 0.96407 0.08643 0.0
H427 H 0.35617 0.91741 0.11883 0.0
H428 H 0.36416 0.83859 0.10367 0.0
H429 H 0.40555 0.86577 0.05935 0.0
C430 C 0.42996 0.92387 0.03997 0.0
C431 C 0.4414 0.95472 0.03447 0.0
C432 C 0.40511 0.90755 0.0637 0.0
C433 C 0.42693 0.96881 0.05117 0.0
C434 C 0.40163 0.95255 0.07362 0.0
C435 C 0.3668 0.90615 0.10547 0.0
C436 C 0.35724 0.87613 0.11443 0.0
C437 C 0.39088 0.92206 0.08069 0.0
C438 C 0.37139 0.86182 0.09738 0.0
C439 C 0.39493 0.8773 0.07196 0.0
H440 H 0.52894 0.42343 0.52644 0.0
H441 H 0.43684 0.40273 0.52818 0.0
H442 H 0.42274 0.35777 0.56555 0.0
H443 H 0.43758 0.32768 0.60347 0.0
H444 H 0.53031 0.35045 0.60646 0.0
H445 H 0.54336 0.39132 0.5618 0.0
C446 C 0.50571 0.40857 0.53427 0.0
C447 C 0.48385 0.41602 0.52447 0.0
C448 C 0.49804 0.3835 0.55719 0.0
C449 C 0.45393 0.39717 0.53539 0.0
C450 C 0.44592 0.37162 0.5569 0.0
C451 C 0.46054 0.34128 0.59379 0.0
C452 C 0.48297 0.33619 0.60824 0.0
C453 C 0.46792 0.36506 0.56886 0.0
C454 C 0.51273 0.35421 0.59595 0.0
C455 C 0.52016 0.37748 0.57035 0.0
H456 H 0.53709 0.92929 0.48528 0.0
H457 H 0.54315 0.98985 0.39733 0.0
H458 H 0.55485 0.96201 0.35171 0.0
H459 H 0.56125 0.91926 0.33579 0.0
H460 H 0.55608 0.85877 0.42292 0.0
H461 H 0.54653 0.8879 0.46979 0.0
C462 C 0.54117 0.93649 0.4562 0.0
C463 C 0.53906 0.96155 0.44484 0.0
C464 C 0.54803 0.92037 0.42986 0.0
C465 C 0.5446 0.97066 0.40701 0.0
C466 C 0.55124 0.95471 0.38075 0.0
C467 C 0.55808 0.91254 0.36508 0.0
C468 C 0.55915 0.88687 0.37589 0.0
C469 C 0.55265 0.92935 0.39175 0.0
C470 C 0.55549 0.87859 0.41398 0.0
C471 C 0.54987 0.89513 0.44073 0.0
H472 H 0.55711 0.46372 0.99169 0.0
H473 H 0.56301 0.54966 0.97775 0.0
H474 H 0.60732 0.56669 0.93777 0.0
H475 H 0.64156 0.55547 0.90231 0.0
H476 H 0.63266 0.46787 0.91127 0.0
H477 H 0.59232 0.45294 0.95737 0.0
C478 C 0.56862 0.48637 0.98053 0.0
C479 C 0.55729 0.50564 0.98786 0.0
C480 C 0.59317 0.49545 0.95616 0.0
C481 C 0.57169 0.53465 0.97256 0.0
C482 C 0.59684 0.54429 0.94958 0.0
C483 C 0.63095 0.53326 0.91475 0.0
C484 C 0.63988 0.51275 0.90349 0.0
C485 C 0.60734 0.52464 0.94047 0.0
C486 C 0.62585 0.48389 0.91936 0.0
C487 C 0.60291 0.47541 0.94578 0.0
H488 H 0.07649 0.62281 0.47781 0.0
H489 H 0.00926 0.57887 0.39184 0.0
H490 H 0.04101 0.61727 0.34663 0.0
H491 H 0.08975 0.66074 0.32986 0.0
H492 H 0.15659 0.70524 0.41609 0.0
H493 H 0.12324 0.66914 0.46249 0.0
C494 C 0.06858 0.62184 0.44935 0.0
C495 C 0.04059 0.59778 0.4383 0.0
C496 C 0.08709 0.6439 0.42324 0.0
C497 C 0.03072 0.59703 0.40124 0.0
C498 C 0.04893 0.61895 0.37521 0.0
C499 C 0.09685 0.66291 0.35891 0.0
C500 C 0.12591 0.68543 0.36918 0.0
C501 C 0.07745 0.64212 0.38566 0.0
C502 C 0.13467 0.68769 0.40706 0.0
C503 C 0.11553 0.66715 0.43375 0.0
H504 H 0.47883 0.04708 0.92405 0.0
H505 H 0.51891 0.11349 0.01187 0.0
H506 H 0.50207 0.14475 0.98036 0.0
H507 H 0.47825 0.15418 0.9261 0.0
H508 H 0.44132 0.0885 0.8369 0.0
H509 H 0.45392 0.05561 0.87148 0.0
C510 C 0.48383 0.06832 0.93655 0.0
C511 C 0.50034 0.07802 0.97016 0.0
C512 C 0.47445 0.08623 0.91814 0.0
C513 C 0.50637 0.10554 0.98593 0.0
C514 C 0.49676 0.12341 0.96792 0.0
C515 C 0.47298 0.13269 0.91417 0.0
C516 C 0.45885 0.12396 0.87881 0.0
C517 C 0.48117 0.11416 0.93369 0.0
C518 C 0.45169 0.09572 0.86424 0.0
C519 C 0.45921 0.07698 0.88381 0.0
H520 H 0.39099 0.47896 0.49564 0.0
H521 H 0.43388 0.458 0.40564 0.0
H522 H 0.3892 0.44029 0.36697 0.0
H523 H 0.33889 0.43307 0.35726 0.0
H524 H 0.29569 0.45374 0.44696 0.0
H525 H 0.33951 0.46926 0.48704 0.0
C526 C 0.39052 0.47039 0.46765 0.0
C527 C 0.41586 0.47 0.45358 0.0
C528 C 0.36471 0.46027 0.44537 0.0
C529 C 0.41477 0.45868 0.41724 0.0
C530 C 0.3892 0.44853 0.39501 0.0
C531 C 0.33886 0.44048 0.3858 0.0
C532 C 0.31414 0.44239 0.39902 0.0
C533 C 0.36416 0.44948 0.40863 0.0
C534 C 0.31462 0.45245 0.43592 0.0
C535 C 0.33963 0.46125 0.4589 0.0
H536 H 0.9665 0.40358 0.96589 0.0
H537 H 0.01396 0.46207 0.87314 0.0
H538 H 0.9874 0.42014 0.82909 0.0
H539 H 0.94519 0.3687 0.81692 0.0
H540 H 0.8972 0.31168 0.91072 0.0
H541 H 0.92956 0.35116 0.95454 0.0
C542 C 0.9714 0.40704 0.93605 0.0
C543 C 0.99174 0.43586 0.92261 0.0
C544 C 0.95568 0.38316 0.91114 0.0
C545 C 0.99833 0.44002 0.88406 0.0
C546 C 0.98296 0.41612 0.85891 0.0
C547 C 0.94238 0.36477 0.84697 0.0
C548 C 0.91862 0.33757 0.86069 0.0
C549 C 0.96078 0.38785 0.87206 0.0
C550 C 0.91506 0.33267 0.89962 0.0
C551 C 0.93353 0.35519 0.92464 0.0
H552 H 0.90723 0.50459 0.99287 0.0
H553 H 0.97012 0.52033 0.90337 0.0
H554 H 0.93932 0.52946 0.85958 0.0
H555 H 0.89422 0.53259 0.84611 0.0
H556 H 0.83236 0.51942 0.93557 0.0
H557 H 0.8629 0.50971 0.97984 0.0
C558 C 0.91418 0.5101 0.96382 0.0
C559 C 0.94092 0.51173 0.95149 0.0
C560 C 0.8965 0.51573 0.93868 0.0
C561 C 0.94974 0.51907 0.91375 0.0
C562 C 0.93208 0.5242 0.88855 0.0
C563 C 0.88747 0.52749 0.8753 0.0
C564 C 0.86113 0.52655 0.88764 0.0
C565 C 0.90538 0.52248 0.90063 0.0
C566 C 0.85269 0.52033 0.92557 0.0
C567 C 0.87009 0.51474 0.95083 0.0
H568 H 0.44912 0.94323 0.43225 0.0
H569 H 0.43347 0.01672 0.41112 0.0
H570 H 0.39129 0.98439 0.36956 0.0
H571 H 0.35818 0.93444 0.34091 0.0
H572 H 0.37814 0.8632 0.35918 0.0
H573 H 0.41921 0.8955 0.40052 0.0
C574 C 0.43635 0.95217 0.41877 0.0
C575 C 0.44392 0.98208 0.42522 0.0
C576 C 0.41289 0.93382 0.39449 0.0
C577 C 0.42781 0.99364 0.40674 0.0
C578 C 0.40377 0.97517 0.38304 0.0
C579 C 0.37173 0.92608 0.35351 0.0
C580 C 0.36446 0.89606 0.34743 0.0
C581 C 0.39603 0.94512 0.37681 0.0
C582 C 0.38242 0.88578 0.36416 0.0
C583 C 0.40614 0.90432 0.38765 0.0
H584 H 0.44542 0.43528 0.88875 0.0
H585 H 0.43191 0.38227 0.98836 0.0
H586 H 0.42838 0.34127 0.95026 0.0
H587 H 0.43408 0.32236 0.88972 0.0
H588 H 0.44933 0.3751 0.78961 0.0
H589 H 0.4469 0.41412 0.82657 0.0
C590 C 0.44099 0.41447 0.90192 0.0
C591 C 0.43905 0.41185 0.94133 0.0
C592 C 0.43974 0.3911 0.87981 0.0
C593 C 0.43365 0.38488 0.9581 0.0
C594 C 0.43174 0.36145 0.93636 0.0
C595 C 0.43682 0.34239 0.87598 0.0
C596 C 0.44237 0.3461 0.83715 0.0
C597 C 0.43568 0.36468 0.89738 0.0
C598 C 0.44513 0.37179 0.81953 0.0
C599 C 0.44384 0.39413 0.84068 0.0
H600 H 0.05248 0.51839 0.40988 0.0
H601 H 0.9741 0.43022 0.41043 0.0
H602 H 0.00271 0.40958 0.37984 0.0
H603 H 0.05139 0.41641 0.35822 0.0
H604 H 0.12824 0.50605 0.35339 0.0
H605 H 0.09888 0.52619 0.38095 0.0
C606 C 0.04161 0.49471 0.40281 0.0
C607 C 0.01145 0.47573 0.41251 0.0
C608 C 0.05803 0.48322 0.38512 0.0
C609 C 0.99735 0.4452 0.40296 0.0
C610 C 0.01375 0.43342 0.38578 0.0
C611 C 0.06166 0.4404 0.36252 0.0
C612 C 0.09241 0.45944 0.35468 0.0
C613 C 0.04433 0.45216 0.37744 0.0
C614 C 0.10507 0.49054 0.36052 0.0
C615 C 0.08819 0.50224 0.37591 0.0
H616 H 0.61758 0.07558 0.95691 0.0
H617 H 0.56326 0.01862 0.86634 0.0
H618 H 0.60269 0.04959 0.82118 0.0
H619 H 0.65113 0.09541 0.80713 0.0
H620 H 0.70507 0.15108 0.89899 0.0
H621 H 0.66711 0.11821 0.94375 0.0
C622 C 0.6144 0.06973 0.92732 0.0
C623 C 0.5874 0.04498 0.915 0.0
C624 C 0.63698 0.08767 0.90162 0.0
C625 C 0.58385 0.03755 0.8766 0.0
C626 C 0.60633 0.05536 0.85073 0.0
C627 C 0.65475 0.1001 0.83696 0.0
C628 C 0.6807 0.12612 0.8495 0.0
C629 C 0.63279 0.08086 0.86285 0.0
C630 C 0.68497 0.13177 0.88835 0.0
C631 C 0.66336 0.11284 0.91408 0.0
H632 H 0.50082 0.57607 0.44391 0.0
H633 H 0.5746 0.56875 0.39836 0.0
H634 H 0.58828 0.61231 0.35794 0.0
H635 H 0.57831 0.65195 0.33468 0.0
H636 H 0.50245 0.65637 0.37834 0.0
H637 H 0.4905 0.61444 0.42049 0.0
C638 C 0.52007 0.58411 0.42538 0.0
C639 C 0.53683 0.56936 0.42434 0.0
C640 C 0.52731 0.60857 0.40179 0.0
C641 C 0.56138 0.57977 0.3997 0.0
C642 C 0.56919 0.60465 0.37661 0.0
C643 C 0.55929 0.64369 0.3536 0.0
C644 C 0.54123 0.65707 0.35354 0.0
C645 C 0.5522 0.61915 0.37729 0.0
C646 C 0.51647 0.64618 0.37782 0.0
C647 C 0.5097 0.62232 0.40195 0.0
H648 H 0.43829 0.02138 0.57304 0.0
H649 H 0.52411 0.04717 0.6225 0.0
H650 H 0.5183 0.08071 0.66618 0.0
H651 H 0.49195 0.10728 0.68385 0.0
H652 H 0.40335 0.07777 0.63919 0.0
H653 H 0.40743 0.04149 0.59961 0.0
C654 C 0.45515 0.03363 0.5943 0.0
C655 C 0.48141 0.03173 0.59506 0.0
C656 C 0.45159 0.05279 0.61936 0.0
C657 C 0.50347 0.04798 0.62209 0.0
C658 C 0.5003 0.06739 0.64669 0.0
C659 C 0.47296 0.09247 0.66653 0.0
C660 C 0.44772 0.09633 0.66411 0.0
C661 C 0.47485 0.07066 0.64476 0.0
C662 C 0.42374 0.07663 0.64077 0.0
C663 C 0.42582 0.05544 0.6183 0.0
H664 H 0.37636 0.43508 0.05962 0.0
H665 H 0.43394 0.44255 0.1519 0.0
H666 H 0.39324 0.43076 0.19636 0.0
H667 H 0.34216 0.42172 0.20923 0.0
H668 H 0.28461 0.41317 0.11647 0.0
H669 H 0.32431 0.42181 0.07199 0.0
C670 C 0.37993 0.43384 0.08944 0.0
C671 C 0.40822 0.43993 0.10244 0.0
C672 C 0.35645 0.427 0.11478 0.0
C673 C 0.41237 0.43791 0.14113 0.0
C674 C 0.38915 0.43134 0.16659 0.0
C675 C 0.33835 0.42157 0.17925 0.0
C676 C 0.31059 0.41695 0.16612 0.0
C677 C 0.36126 0.4264 0.15379 0.0
C678 C 0.30573 0.41648 0.12723 0.0
C679 C 0.32846 0.42157 0.1018 0.0
H680 H 0.95444 0.42619 0.52838 0.0
H681 H 0.99785 0.48561 0.62192 0.0
H682 H 0.97562 0.44262 0.66508 0.0
H683 H 0.93972 0.38866 0.67629 0.0
H684 H 0.89558 0.33071 0.58145 0.0
H685 H 0.92264 0.3726 0.5387 0.0
C686 C 0.95931 0.42975 0.5582 0.0
C687 C 0.97737 0.45902 0.57208 0.0
C688 C 0.94624 0.40518 0.58259 0.0
C689 C 0.98395 0.46326 0.61063 0.0
C690 C 0.97109 0.43872 0.63527 0.0
C691 C 0.93619 0.38521 0.64625 0.0
C692 C 0.91551 0.35652 0.6322 0.0
C693 C 0.95151 0.40966 0.62163 0.0
C694 C 0.91157 0.35235 0.59313 0.0
C695 C 0.92685 0.37638 0.5686 0.0
H696 H 0.56262 0.95994 0.03376 0.0
H697 H 0.56793 0.01494 0.12828 0.0
H698 H 0.57633 0.98224 0.17047 0.0
H699 H 0.57639 0.9346 0.181 0.0
H700 H 0.56974 0.87979 0.08557 0.0
H701 H 0.56755 0.91581 0.04325 0.0
C702 C 0.56598 0.96506 0.06354 0.0
C703 C 0.56428 0.98962 0.07791 0.0
C704 C 0.57018 0.94593 0.08753 0.0
C705 C 0.56911 0.99614 0.11649 0.0
C706 C 0.5737 0.97732 0.14065 0.0
C707 C 0.57498 0.93089 0.1509 0.0
C708 C 0.57271 0.90433 0.13646 0.0
C709 C 0.57342 0.95164 0.1266 0.0
C710 C 0.57089 0.89975 0.0974 0.0
C711 C 0.56974 0.92037 0.07317 0.0
H712 H 0.58909 0.54391 0.54954 0.0
H713 H 0.52424 0.52854 0.63607 0.0
H714 H 0.56127 0.53604 0.68444 0.0
H715 H 0.61034 0.54088 0.70142 0.0
H716 H 0.67367 0.55467 0.61338 0.0
H717 H 0.63897 0.55384 0.56632 0.0
C718 C 0.58312 0.54259 0.579 0.0
C719 C 0.55387 0.5353 0.5892 0.0
C720 C 0.60418 0.54626 0.60638 0.0
C721 C 0.54663 0.53412 0.62749 0.0
C722 C 0.56773 0.53817 0.65513 0.0
C723 C 0.61662 0.54419 0.67199 0.0
C724 C 0.64426 0.54727 0.66076 0.0
C725 C 0.5963 0.54333 0.64485 0.0
C726 C 0.65225 0.55163 0.62257 0.0
C727 C 0.63248 0.55126 0.59566 0.0
H728 H 0.09269 0.60406 0.01523 0.0
H729 H 0.02712 0.55486 0.1014 0.0
H730 H 0.05432 0.5956 0.14566 0.0
H731 H 0.09754 0.64462 0.16103 0.0
H732 H 0.16251 0.69517 0.07527 0.0
H733 H 0.13478 0.65479 0.02984 0.0
C734 C 0.08433 0.60237 0.04362 0.0
C735 C 0.05795 0.57635 0.05489 0.0
C736 C 0.1 0.62615 0.06914 0.0
C737 C 0.0473 0.57461 0.09179 0.0
C738 C 0.06289 0.59789 0.11729 0.0
C739 C 0.10553 0.64674 0.13236 0.0
C740 C 0.132 0.67265 0.12149 0.0
C741 C 0.08937 0.62363 0.10642 0.0
C742 C 0.14202 0.67541 0.08417 0.0
C743 C 0.12627 0.6523 0.05826 0.0
loop_
_geom_bond_atom_site_label_1
_geom_bond_atom_site_label_2
_geom_bond_distance
_geom_bond_site_symmetry_2
_ccdc_geom_bond_type
C0 O2 1.247 . S
C0 O4 1.258 . S
C1 O8 1.247 . S
C1 O9 1.258 . S
O2 C0 1.247 . S
O2 Zn3 2.028 1_455 S
Zn3 O2 2.028 1_655 S
Zn3 O7 2.035 1_554 S
Zn3 O9 2.035 1_554 S
Zn3 O10 2.028 1_655 S
O4 C0 1.258 . S
O4 Zn5 2.035 1_554 S
Zn5 O4 2.035 1_556 S
Zn5 O6 2.028 1_455 S
Zn5 O8 2.028 1_455 S
Zn5 O11 2.035 1_556 S
O6 Zn5 2.028 1_655 S
O6 C12 1.247 . S
O7 Zn3 2.035 1_556 S
O7 C12 1.258 . S
O8 C1 1.247 . S
O8 Zn5 2.028 1_655 S
O9 C1 1.258 . S
O9 Zn3 2.035 1_556 S
O10 Zn3 2.028 1_455 S
O10 C13 1.247 . S
O11 Zn5 2.035 1_554 S
O11 C13 1.258 . S
C12 O6 1.247 . S
C12 O7 1.258 . S
C13 O10 1.247 . S
C13 O11 1.258 . S
C14 O16 1.247 . S
C14 O18 1.258 . S
C15 O22 1.247 . S
C15 O23 1.258 . S
O16 C14 1.247 . S
O16 Zn17 2.028 1_545 S
Zn17 O16 2.028 1_565 S
Zn17 O21 2.035 . S
Zn17 O23 2.035 . S
Zn17 O24 2.028 1_565 S
O18 C14 1.258 . S
O18 Zn19 2.035 . S
Zn19 O18 2.035 . S
Zn19 O20 2.028 1_545 S
Zn19 O22 2.028 1_545 S
Zn19 O25 2.035 . S
O20 Zn19 2.028 1_565 S
O20 C26 1.247 . S
O21 Zn17 2.035 . S
O21 C26 1.258 . S
O22 C15 1.247 . S
O22 Zn19 2.028 1_565 S
O23 C15 1.258 . S
O23 Zn17 2.035 . S
O24 Zn17 2.028 1_545 S
O24 C27 1.247 . S
O25 Zn19 2.035 . S
O25 C27 1.258 . S
C26 O20 1.247 . S
C26 O21 1.258 . S
C27 O24 1.247 . S
C27 O25 1.258 . S
C28 O30 1.247 . S
C28 O32 1.258 . S
C29 O36 1.247 . S
C29 O37 1.258 . S
O30 C28 1.247 . S
O30 Zn31 2.028 . S
Zn31 O30 2.028 . S
Zn31 O35 2.035 1_556 S
Zn31 O37 2.035 1_556 S
Zn31 O38 2.028 . S
O32 C28 1.258 . S
O32 Zn33 2.035 1_556 S
Zn33 O32 2.035 1_554 S
Zn33 O34 2.028 . S
Zn33 O36 2.028 . S
Zn33 O39 2.035 1_554 S
O34 Zn33 2.028 . S
O34 C40 1.247 . S
O35 Zn31 2.035 1_554 S
O35 C40 1.258 . S
O36 C29 1.247 . S
O36 Zn33 2.028 . S
O37 C29 1.258 . S
O37 Zn31 2.035 1_554 S
O38 Zn31 2.028 . S
O38 C41 1.247 . S
O39 Zn33 2.035 1_556 S
O39 C41 1.258 . S
C40 O34 1.247 . S
C40 O35 1.258 . S
C41 O38 1.247 . S
C41 O39 1.258 . S
C42 O44 1.247 . S
C42 O46 1.258 . S
C43 O50 1.247 . S
C43 O51 1.258 . S
O44 C42 1.247 . S
O44 Zn45 2.028 . S
Zn45 O44 2.028 . S
Zn45 O49 2.035 1_455 S
Zn45 O51 2.035 1_455 S
Zn45 O52 2.028 . S
O46 C42 1.258 . S
O46 Zn47 2.035 1_455 S
Zn47 O46 2.035 1_655 S
Zn47 O48 2.028 . S
Zn47 O50 2.028 . S
Zn47 O53 2.035 1_655 S
O48 Zn47 2.028 . S
O48 C54 1.247 . S
O49 Zn45 2.035 1_655 S
O49 C54 1.258 . S
O50 C43 1.247 . S
O50 Zn47 2.028 . S
O51 C43 1.258 . S
O51 Zn45 2.035 1_655 S
O52 Zn45 2.028 . S
O52 C55 1.247 . S
O53 Zn47 2.035 1_455 S
O53 C55 1.258 . S
C54 O48 1.247 . S
C54 O49 1.258 . S
C55 O52 1.247 . S
C55 O53 1.258 . S
C56 O58 1.247 . S
C56 O60 1.258 . S
C57 O64 1.247 . S
C57 O65 1.258 . S
O58 C56 1.247 . S
O58 Zn59 2.028 1_565 S
Zn59 O58 2.028 1_545 S
Zn59 O63 2.035 1_554 S
Zn59 O65 2.035 1_554 S
Zn59 O66 2.028 1_545 S
O60 C56 1.258 . S
O60 Zn61 2.035 1_554 S
Zn61 O60 2.035 1_556 S
Zn61 O62 2.028 1_565 S
Zn61 O64 2.028 1_565 S
Zn61 O67 2.035 1_556 S
O62 Zn61 2.028 1_545 S
O62 C68 1.247 . S
O63 Zn59 2.035 1_556 S
O63 C68 1.258 . S
O64 C57 1.247 . S
O64 Zn61 2.028 1_545 S
O65 C57 1.258 . S
O65 Zn59 2.035 1_556 S
O66 Zn59 2.028 1_565 S
O66 C69 1.247 . S
O67 Zn61 2.035 1_554 S
O67 C69 1.258 . S
C68 O62 1.247 . S
C68 O63 1.258 . S
C69 O66 1.247 . S
C69 O67 1.258 . S
C70 O72 1.247 . S
C70 O74 1.258 . S
C71 O78 1.247 . S
C71 O79 1.258 . S
O72 C70 1.247 . S
O72 Zn73 2.028 . S
Zn73 O72 2.028 . S
Zn73 O77 2.035 . S
Zn73 O79 2.035 . S
Zn73 O80 2.028 . S
O74 C70 1.258 . S
O74 Zn75 2.035 . S
Zn75 O74 2.035 . S
Zn75 O76 2.028 . S
Zn75 O78 2.028 . S
Zn75 O81 2.035 . S
O76 Zn75 2.028 . S
O76 C82 1.247 . S
O77 Zn73 2.035 . S
O77 C82 1.258 . S
O78 C71 1.247 . S
O78 Zn75 2.028 . S
O79 C71 1.258 . S
O79 Zn73 2.035 . S
O80 Zn73 2.028 . S
O80 C83 1.247 . S
O81 Zn75 2.035 . S
O81 C83 1.258 . S
C82 O76 1.247 . S
C82 O77 1.258 . S
C83 O80 1.247 . S
C83 O81 1.258 . S
C84 C85 1.384 . S
C84 C86 1.384 . S
C84 H112 0.931 . S
C85 C84 1.384 . S
C85 C88 1.382 . S
C86 C84 1.384 . S
C86 C87 1.381 . S
C86 H113 0.930 . S
C87 C86 1.381 . S
C87 C89 1.381 . S
C87 C90 1.487 . S
C88 C85 1.382 . S
C88 C89 1.387 . S
C88 H114 0.930 . S
C89 C87 1.381 . S
C89 C88 1.387 . S
C89 H115 0.931 . S
C90 C87 1.487 . S
C90 C97 1.399 . S
C90 N128 1.343 . S
C91 C92 1.384 . S
C91 C93 1.384 . S
C91 H116 0.931 . S
C92 C91 1.384 . S
C92 C95 1.382 . S
C93 C91 1.384 . S
C93 C94 1.381 . S
C93 H117 0.930 . S
C94 C93 1.381 . S
C94 C96 1.381 . S
C94 C97 1.487 . S
C95 C92 1.382 . S
C95 C96 1.387 . S
C95 H118 0.930 . S
C96 C94 1.381 . S
C96 C95 1.387 . S
C96 H119 0.931 . S
C97 C90 1.399 . S
C97 C94 1.487 . S
C97 N129 1.343 . S
C98 C99 1.384 . S
C98 C100 1.384 . S
C98 H120 0.931 . S
C99 C98 1.384 . S
C99 C102 1.382 . S
C100 C98 1.384 . S
C100 C101 1.381 . S
C100 H121 0.930 . S
C101 C100 1.381 . S
C101 C103 1.381 . S
C101 C104 1.487 . S
C102 C99 1.382 . S
C102 C103 1.387 . S
C102 H122 0.930 . S
C103 C101 1.381 . S
C103 C102 1.387 . S
C103 H123 0.931 . S
C104 C101 1.487 . S
C104 C111 1.399 . S
C104 N129 1.343 . S
C105 C106 1.384 . S
C105 C107 1.384 . S
C105 H124 0.931 . S
C106 C105 1.384 . S
C106 C109 1.382 . S
C107 C105 1.384 . S
C107 C108 1.381 . S
C107 H125 0.930 . S
C108 C107 1.381 . S
C108 C110 1.381 . S
C108 C111 1.487 . S
C109 C106 1.382 . S
C109 C110 1.387 . S
C109 H126 0.930 . S
C110 C108 1.381 . S
C110 C109 1.387 . S
C110 H127 0.931 . S
C111 C104 1.399 . S
C111 C108 1.487 . S
C111 N128 1.343 . S
H112 C84 0.931 . S
H113 C86 0.930 . S
H114 C88 0.930 . S
H115 C89 0.931 . S
H116 C91 0.931 . S
H117 C93 0.930 . S
H118 C95 0.930 . S
H119 C96 0.931 . S
H120 C98 0.931 . S
H121 C100 0.930 . S
H122 C102 0.930 . S
H123 C103 0.931 . S
H124 C105 0.931 . S
H125 C107 0.930 . S
H126 C109 0.930 . S
H127 C110 0.931 . S
N128 C90 1.343 . S
N128 C111 1.343 . S
N129 C97 1.343 . S
N129 C104 1.343 . S
C130 C131 1.384 . S
C130 C132 1.384 . S
C130 H158 0.931 . S
C131 C130 1.384 . S
C131 C134 1.382 . S
C132 C130 1.384 . S
C132 C133 1.381 . S
C132 H159 0.930 . S
C133 C132 1.381 . S
C133 C135 1.381 . S
C133 C136 1.487 . S
C134 C131 1.382 . S
C134 C135 1.387 . S
C134 H160 0.930 . S
C135 C133 1.381 . S
C135 C134 1.387 . S
C135 H161 0.931 . S
C136 C133 1.487 . S
C136 C143 1.399 . S
C136 N174 1.343 . S
C137 C138 1.384 . S
C137 C139 1.384 . S
C137 H162 0.931 . S
C138 C137 1.384 . S
C138 C141 1.382 . S
C139 C137 1.384 . S
C139 C140 1.381 . S
C139 H163 0.930 . S
C140 C139 1.381 . S
C140 C142 1.381 . S
C140 C143 1.487 . S
C141 C138 1.382 . S
C141 C142 1.387 . S
C141 H164 0.930 . S
C142 C140 1.381 . S
C142 C141 1.387 . S
C142 H165 0.931 . S
C143 C136 1.399 . S
C143 C140 1.487 . S
C143 N175 1.343 . S
C144 C145 1.384 . S
C144 C146 1.384 . S
C144 H166 0.931 . S
C145 C144 1.384 . S
C145 C148 1.382 . S
C146 C144 1.384 . S
C146 C147 1.381 . S
C146 H167 0.930 . S
C147 C146 1.381 . S
C147 C149 1.381 . S
C147 C150 1.487 . S
C148 C145 1.382 . S
C148 C149 1.387 . S
C148 H168 0.930 . S
C149 C147 1.381 . S
C149 C148 1.387 . S
C149 H169 0.931 . S
C150 C147 1.487 . S
C150 C157 1.399 . S
C150 N175 1.343 . S
C151 C152 1.384 . S
C151 C153 1.384 . S
C151 H170 0.931 . S
C152 C151 1.384 . S
C152 C155 1.382 . S
C153 C151 1.384 . S
C153 C154 1.381 . S
C153 H171 0.930 . S
C154 C153 1.381 . S
C154 C156 1.381 . S
C154 C157 1.487 . S
C155 C152 1.382 . S
C155 C156 1.387 . S
C155 H172 0.930 . S
C156 C154 1.381 . S
C156 C155 1.387 . S
C156 H173 0.931 . S
C157 C150 1.399 . S
C157 C154 1.487 . S
C157 N174 1.343 . S
H158 C130 0.931 . S
H159 C132 0.930 . S
H160 C134 0.930 . S
H161 C135 0.931 . S
H162 C137 0.931 . S
H163 C139 0.930 . S
H164 C141 0.930 . S
H165 C142 0.931 . S
H166 C144 0.931 . S
H167 C146 0.930 . S
H168 C148 0.930 . S
H169 C149 0.931 . S
H170 C151 0.931 . S
H171 C153 0.930 . S
H172 C155 0.930 . S
H173 C156 0.931 . S
N174 C136 1.343 . S
N174 C157 1.343 . S
N175 C143 1.343 . S
N175 C150 1.343 . S
C176 C177 1.384 . S
C176 C178 1.384 . S
C176 H204 0.931 . S
C177 C176 1.384 . S
C177 C180 1.382 . S
C178 C176 1.384 . S
C178 C179 1.381 . S
C178 H205 0.930 . S
C179 C178 1.381 . S
C179 C181 1.381 . S
C179 C182 1.487 . S
C180 C177 1.382 . S
C180 C181 1.387 . S
C180 H206 0.930 . S
C181 C179 1.381 . S
C181 C180 1.387 . S
C181 H207 0.931 . S
C182 C179 1.487 . S
C182 C189 1.399 . S
C182 N220 1.343 . S
C183 C184 1.384 . S
C183 C185 1.384 . S
C183 H208 0.931 . S
C184 C183 1.384 . S
C184 C187 1.382 . S
C185 C183 1.384 . S
C185 C186 1.381 . S
C185 H209 0.930 . S
C186 C185 1.381 . S
C186 C188 1.381 . S
C186 C189 1.487 . S
C187 C184 1.382 . S
C187 C188 1.387 . S
C187 H210 0.930 . S
C188 C186 1.381 . S
C188 C187 1.387 . S
C188 H211 0.931 . S
C189 C182 1.399 . S
C189 C186 1.487 . S
C189 N221 1.343 . S
C190 C191 1.384 . S
C190 C192 1.384 . S
C190 H212 0.931 . S
C191 C190 1.384 . S
C191 C194 1.382 . S
C192 C190 1.384 . S
C192 C193 1.381 . S
C192 H213 0.930 . S
C193 C192 1.381 . S
C193 C195 1.381 . S
C193 C196 1.487 . S
C194 C191 1.382 . S
C194 C195 1.387 . S
C194 H214 0.930 . S
C195 C193 1.381 . S
C195 C194 1.387 . S
C195 H215 0.931 . S
C196 C193 1.487 . S
C196 C203 1.399 . S
C196 N221 1.343 . S
C197 C198 1.384 . S
C197 C199 1.384 . S
C197 H216 0.931 . S
C198 C197 1.384 . S
C198 C201 1.382 . S
C199 C197 1.384 . S
C199 C200 1.381 . S
C199 H217 0.930 . S
C200 C199 1.381 . S
C200 C202 1.381 . S
C200 C203 1.487 . S
C201 C198 1.382 . S
C201 C202 1.387 . S
C201 H218 0.930 . S
C202 C200 1.381 . S
C202 C201 1.387 . S
C202 H219 0.931 . S
C203 C196 1.399 . S
C203 C200 1.487 . S
C203 N220 1.343 . S
H204 C176 0.931 . S
H205 C178 0.930 . S
H206 C180 0.930 . S
H207 C181 0.931 . S
H208 C183 0.931 . S
H209 C185 0.930 . S
H210 C187 0.930 . S
H211 C188 0.931 . S
H212 C190 0.931 . S
H213 C192 0.930 . S
H214 C194 0.930 . S
H215 C195 0.931 . S
H216 C197 0.931 . S
H217 C199 0.930 . S
H218 C201 0.930 . S
H219 C202 0.931 . S
N220 C182 1.343 . S
N220 C203 1.343 . S
N221 C189 1.343 . S
N221 C196 1.343 . S
C222 C223 1.384 . S
C222 C224 1.384 . S
C222 H250 0.931 . S
C223 C222 1.384 . S
C223 C226 1.382 . S
C224 C222 1.384 . S
C224 C225 1.381 . S
C224 H251 0.930 . S
C225 C224 1.381 . S
C225 C227 1.381 . S
C225 C228 1.487 . S
C226 C223 1.382 . S
C226 C227 1.387 . S
C226 H252 0.930 . S
C227 C225 1.381 . S
C227 C226 1.387 . S
C227 H253 0.931 . S
C228 C225 1.487 . S
C228 C235 1.399 . S
C228 N266 1.343 . S
C229 C230 1.384 . S
C229 C231 1.384 . S
C229 H254 0.931 . S
C230 C229 1.384 . S
C230 C233 1.382 . S
C231 C229 1.384 . S
C231 C232 1.381 . S
C231 H255 0.930 . S
C232 C231 1.381 . S
C232 C234 1.381 . S
C232 C235 1.487 . S
C233 C230 1.382 . S
C233 C234 1.387 . S
C233 H256 0.930 . S
C234 C232 1.381 . S
C234 C233 1.387 . S
C234 H257 0.931 . S
C235 C228 1.399 . S
C235 C232 1.487 . S
C235 N267 1.343 . S
C236 C237 1.384 . S
C236 C238 1.384 . S
C236 H258 0.931 . S
C237 C236 1.384 . S
C237 C240 1.382 . S
C238 C236 1.384 . S
C238 C239 1.381 . S
C238 H259 0.930 . S
C239 C238 1.381 . S
C239 C241 1.381 . S
C239 C242 1.487 . S
C240 C237 1.382 . S
C240 C241 1.387 . S
C240 H260 0.930 . S
C241 C239 1.381 . S
C241 C240 1.387 . S
C241 H261 0.931 . S
C242 C239 1.487 . S
C242 C249 1.399 . S
C242 N267 1.343 . S
C243 C244 1.384 . S
C243 C245 1.384 . S
C243 H262 0.931 . S
C244 C243 1.384 . S
C244 C247 1.382 . S
C245 C243 1.384 . S
C245 C246 1.381 . S
C245 H263 0.930 . S
C246 C245 1.381 . S
C246 C248 1.381 . S
C246 C249 1.487 . S
C247 C244 1.382 . S
C247 C248 1.387 . S
C247 H264 0.930 . S
C248 C246 1.381 . S
C248 C247 1.387 . S
C248 H265 0.931 . S
C249 C242 1.399 . S
C249 C246 1.487 . S
C249 N266 1.343 . S
H250 C222 0.931 . S
H251 C224 0.930 . S
H252 C226 0.930 . S
H253 C227 0.931 . S
H254 C229 0.931 . S
H255 C231 0.930 . S
H256 C233 0.930 . S
H257 C234 0.931 . S
H258 C236 0.931 . S
H259 C238 0.930 . S
H260 C240 0.930 . S
H261 C241 0.931 . S
H262 C243 0.931 . S
H263 C245 0.930 . S
H264 C247 0.930 . S
H265 C248 0.931 . S
N266 C228 1.343 . S
N266 C249 1.343 . S
N267 C235 1.343 . S
N267 C242 1.343 . S
C268 C269 1.384 . S
C268 C270 1.384 . S
C268 H296 0.931 . S
C269 C268 1.384 . S
C269 C272 1.382 . S
C270 C268 1.384 . S
C270 C271 1.381 . S
C270 H297 0.930 . S
C271 C270 1.381 . S
C271 C273 1.381 . S
C271 C274 1.487 . S
C272 C269 1.382 . S
C272 C273 1.387 . S
C272 H298 0.930 . S
C273 C271 1.381 . S
C273 C272 1.387 . S
C273 H299 0.931 . S
C274 C271 1.487 . S
C274 C281 1.399 . S
C274 N312 1.343 . S
C275 C276 1.384 . S
C275 C277 1.384 . S
C275 H300 0.931 . S
C276 C275 1.384 . S
C276 C279 1.382 . S
C277 C275 1.384 . S
C277 C278 1.381 . S
C277 H301 0.930 . S
C278 C277 1.381 . S
C278 C280 1.381 . S
C278 C281 1.487 . S
C279 C276 1.382 . S
C279 C280 1.387 . S
C279 H302 0.930 . S
C280 C278 1.381 . S
C280 C279 1.387 . S
C280 H303 0.931 . S
C281 C274 1.399 . S
C281 C278 1.487 . S
C281 N313 1.343 . S
C282 C283 1.384 . S
C282 C284 1.384 . S
C282 H304 0.931 . S
C283 C282 1.384 . S
C283 C286 1.382 . S
C284 C282 1.384 . S
C284 C285 1.381 . S
C284 H305 0.930 . S
C285 C284 1.381 . S
C285 C287 1.381 . S
C285 C288 1.487 . S
C286 C283 1.382 . S
C286 C287 1.387 . S
C286 H306 0.930 . S
C287 C285 1.381 . S
C287 C286 1.387 . S
C287 H307 0.931 . S
C288 C285 1.487 . S
C288 C295 1.399 . S
C288 N313 1.343 . S
C289 C290 1.384 . S
C289 C291 1.384 . S
C289 H308 0.931 . S
C290 C289 1.384 . S
C290 C293 1.382 . S
C291 C289 1.384 . S
C291 C292 1.381 . S
C291 H309 0.930 . S
C292 C291 1.381 . S
C292 C294 1.381 . S
C292 C295 1.487 . S
C293 C290 1.382 . S
C293 C294 1.387 . S
C293 H310 0.930 . S
C294 C292 1.381 . S
C294 C293 1.387 . S
C294 H311 0.931 . S
C295 C288 1.399 . S
C295 C292 1.487 . S
C295 N312 1.343 . S
H296 C268 0.931 . S
H297 C270 0.930 . S
H298 C272 0.930 . S
H299 C273 0.931 . S
H300 C275 0.931 . S
H301 C277 0.930 . S
H302 C279 0.930 . S
H303 C280 0.931 . S
H304 C282 0.931 . S
H305 C284 0.930 . S
H306 C286 0.930 . S
H307 C287 0.931 . S
H308 C289 0.931 . S
H309 C291 0.930 . S
H310 C293 0.930 . S
H311 C294 0.931 . S
N312 C274 1.343 . S
N312 C295 1.343 . S
N313 C281 1.343 . S
N313 C288 1.343 . S
C314 C315 1.384 . S
C314 C316 1.384 . S
C314 H342 0.931 . S
C315 C314 1.384 . S
C315 C318 1.382 . S
C316 C314 1.384 . S
C316 C317 1.381 . S
C316 H343 0.930 . S
C317 C316 1.381 . S
C317 C319 1.381 . S
C317 C320 1.487 . S
C318 C315 1.382 . S
C318 C319 1.387 . S
C318 H344 0.930 . S
C319 C317 1.381 . S
C319 C318 1.387 . S
C319 H345 0.931 . S
C320 C317 1.487 . S
C320 C327 1.399 . S
C320 N358 1.343 . S
C321 C322 1.384 . S
C321 C323 1.384 . S
C321 H346 0.931 . S
C322 C321 1.384 . S
C322 C325 1.382 . S
C323 C321 1.384 . S
C323 C324 1.381 . S
C323 H347 0.930 . S
C324 C323 1.381 . S
C324 C326 1.381 . S
C324 C327 1.487 . S
C325 C322 1.382 . S
C325 C326 1.387 . S
C325 H348 0.930 . S
C326 C324 1.381 . S
C326 C325 1.387 . S
C326 H349 0.931 . S
C327 C320 1.399 . S
C327 C324 1.487 . S
C327 N359 1.343 . S
C328 C329 1.384 . S
C328 C330 1.384 . S
C328 H350 0.931 . S
C329 C328 1.384 . S
C329 C332 1.382 . S
C330 C328 1.384 . S
C330 C331 1.381 . S
C330 H351 0.930 . S
C331 C330 1.381 . S
C331 C333 1.381 . S
C331 C334 1.487 . S
C332 C329 1.382 . S
C332 C333 1.387 . S
C332 H352 0.930 . S
C333 C331 1.381 . S
C333 C332 1.387 . S
C333 H353 0.931 . S
C334 C331 1.487 . S
C334 C341 1.399 . S
C334 N359 1.343 . S
C335 C336 1.384 . S
C335 C337 1.384 . S
C335 H354 0.931 . S
C336 C335 1.384 . S
C336 C339 1.382 . S
C337 C335 1.384 . S
C337 C338 1.381 . S
C337 H355 0.930 . S
C338 C337 1.381 . S
C338 C340 1.381 . S
C338 C341 1.487 . S
C339 C336 1.382 . S
C339 C340 1.387 . S
C339 H356 0.930 . S
C340 C338 1.381 . S
C340 C339 1.387 . S
C340 H357 0.931 . S
C341 C334 1.399 . S
C341 C338 1.487 . S
C341 N358 1.343 . S
H342 C314 0.931 . S
H343 C316 0.930 . S
H344 C318 0.930 . S
H345 C319 0.931 . S
H346 C321 0.931 . S
H347 C323 0.930 . S
H348 C325 0.930 . S
H349 C326 0.931 . S
H350 C328 0.931 . S
H351 C330 0.930 . S
H352 C332 0.930 . S
H353 C333 0.931 . S
H354 C335 0.931 . S
H355 C337 0.930 . S
H356 C339 0.930 . S
H357 C340 0.931 . S
N358 C320 1.343 . S
N358 C341 1.343 . S
N359 C327 1.343 . S
N359 C334 1.343 . S
H360 C366 0.930 . S
H361 C369 0.930 . S
H362 C370 0.930 . S
H363 C371 0.930 . S
H364 C374 0.930 . S
H365 C375 0.930 . S
C366 H360 0.930 . S
C366 C367 1.355 . S
C366 C368 1.415 . S
C367 C366 1.355 . S
C367 C369 1.419 . S
C368 C366 1.415 . S
C368 C373 1.425 . S
C368 C375 1.409 . S
C369 H361 0.930 . S
C369 C367 1.419 . S
C369 C370 1.362 . S
C370 H362 0.930 . S
C370 C369 1.362 . S
C370 C373 1.409 . S
C371 H363 0.930 . S
C371 C372 1.355 . S
C371 C373 1.415 . S
C372 C371 1.355 . S
C372 C374 1.419 . S
C373 C368 1.425 . S
C373 C370 1.409 . S
C373 C371 1.415 . S
C374 H364 0.930 . S
C374 C372 1.419 . S
C374 C375 1.362 . S
C375 H365 0.930 . S
C375 C368 1.409 . S
C375 C374 1.362 . S
H376 C382 0.930 . S
H377 C385 0.930 . S
H378 C386 0.930 . S
H379 C387 0.930 . S
H380 C390 0.930 . S
H381 C391 0.930 . S
C382 H376 0.930 . S
C382 C383 1.355 . S
C382 C384 1.415 . S
C383 C382 1.355 . S
C383 C385 1.419 . S
C384 C382 1.415 . S
C384 C389 1.425 . S
C384 C391 1.409 . S
C385 H377 0.930 . S
C385 C383 1.419 . S
C385 C386 1.362 . S
C386 H378 0.930 . S
C386 C385 1.362 . S
C386 C389 1.409 . S
C387 H379 0.930 . S
C387 C388 1.355 . S
C387 C389 1.415 . S
C388 C387 1.355 . S
C388 C390 1.419 . S
C389 C384 1.425 . S
C389 C386 1.409 . S
C389 C387 1.415 . S
C390 H380 0.930 . S
C390 C388 1.419 . S
C390 C391 1.362 . S
C391 H381 0.930 . S
C391 C384 1.409 . S
C391 C390 1.362 . S
H392 C398 0.930 . S
H393 C401 0.930 . S
H394 C402 0.930 . S
H395 C403 0.930 . S
H396 C406 0.930 . S
H397 C407 0.930 . S
C398 H392 0.930 . S
C398 C399 1.355 . S
C398 C400 1.415 . S
C399 C398 1.355 . S
C399 C401 1.419 . S
C400 C398 1.415 . S
C400 C405 1.425 . S
C400 C407 1.409 . S
C401 H393 0.930 . S
C401 C399 1.419 . S
C401 C402 1.362 . S
C402 H394 0.930 . S
C402 C401 1.362 . S
C402 C405 1.409 . S
C403 H395 0.930 . S
C403 C404 1.355 . S
C403 C405 1.415 . S
C404 C403 1.355 . S
C404 C406 1.419 . S
C405 C400 1.425 . S
C405 C402 1.409 . S
C405 C403 1.415 . S
C406 H396 0.930 . S
C406 C404 1.419 . S
C406 C407 1.362 . S
C407 H397 0.930 . S
C407 C400 1.409 . S
C407 C406 1.362 . S
H408 C414 0.930 . S
H409 C417 0.930 . S
H410 C418 0.930 . S
H411 C419 0.930 . S
H412 C422 0.930 . S
H413 C423 0.930 . S
C414 H408 0.930 . S
C414 C415 1.355 . S
C414 C416 1.415 . S
C415 C414 1.355 . S
C415 C417 1.419 . S
C416 C414 1.415 . S
C416 C421 1.425 . S
C416 C423 1.409 . S
C417 H409 0.930 . S
C417 C415 1.419 . S
C417 C418 1.362 . S
C418 H410 0.930 . S
C418 C417 1.362 . S
C418 C421 1.409 . S
C419 H411 0.930 . S
C419 C420 1.355 . S
C419 C421 1.415 . S
C420 C419 1.355 . S
C420 C422 1.419 . S
C421 C416 1.425 . S
C421 C418 1.409 . S
C421 C419 1.415 . S
C422 H412 0.930 . S
C422 C420 1.419 . S
C422 C423 1.362 . S
C423 H413 0.930 . S
C423 C416 1.409 . S
C423 C422 1.362 . S
H424 C430 0.930 . S
H425 C433 0.930 . S
H426 C434 0.930 . S
H427 C435 0.930 . S
H428 C438 0.930 . S
H429 C439 0.930 . S
C430 H424 0.930 . S
C430 C431 1.355 . S
C430 C432 1.415 . S
C431 C430 1.355 . S
C431 C433 1.419 . S
C432 C430 1.415 . S
C432 C437 1.425 . S
C432 C439 1.409 . S
C433 H425 0.930 . S
C433 C431 1.419 . S
C433 C434 1.362 . S
C434 H426 0.930 . S
C434 C433 1.362 . S
C434 C437 1.409 . S
C435 H427 0.930 . S
C435 C436 1.355 . S
C435 C437 1.415 . S
C436 C435 1.355 . S
C436 C438 1.419 . S
C437 C432 1.425 . S
C437 C434 1.409 . S
C437 C435 1.415 . S
C438 H428 0.930 . S
C438 C436 1.419 . S
C438 C439 1.362 . S
C439 H429 0.930 . S
C439 C432 1.409 . S
C439 C438 1.362 . S
H440 C446 0.930 . S
H441 C449 0.930 . S
H442 C450 0.930 . S
H443 C451 0.930 . S
H444 C454 0.930 . S
H445 C455 0.930 . S
C446 H440 0.930 . S
C446 C447 1.355 . S
C446 C448 1.415 . S
C447 C446 1.355 . S
C447 C449 1.419 . S
C448 C446 1.415 . S
C448 C453 1.425 . S
C448 C455 1.409 . S
C449 H441 0.930 . S
C449 C447 1.419 . S
C449 C450 1.362 . S
C450 H442 0.930 . S
C450 C449 1.362 . S
C450 C453 1.409 . S
C451 H443 0.930 . S
C451 C452 1.355 . S
C451 C453 1.415 . S
C452 C451 1.355 . S
C452 C454 1.419 . S
C453 C448 1.425 . S
C453 C450 1.409 . S
C453 C451 1.415 . S
C454 H444 0.930 . S
C454 C452 1.419 . S
C454 C455 1.362 . S
C455 H445 0.930 . S
C455 C448 1.409 . S
C455 C454 1.362 . S
H456 C462 0.930 . S
H457 C465 0.930 . S
H458 C466 0.930 . S
H459 C467 0.930 . S
H460 C470 0.930 . S
H461 C471 0.930 . S
C462 H456 0.930 . S
C462 C463 1.355 . S
C462 C464 1.415 . S
C463 C462 1.355 . S
C463 C465 1.419 . S
C464 C462 1.415 . S
C464 C469 1.425 . S
C464 C471 1.409 . S
C465 H457 0.930 . S
C465 C463 1.419 . S
C465 C466 1.362 . S
C466 H458 0.930 . S
C466 C465 1.362 . S
C466 C469 1.409 . S
C467 H459 0.930 . S
C467 C468 1.355 . S
C467 C469 1.415 . S
C468 C467 1.355 . S
C468 C470 1.419 . S
C469 C464 1.425 . S
C469 C466 1.409 . S
C469 C467 1.415 . S
C470 H460 0.930 . S
C470 C468 1.419 . S
C470 C471 1.362 . S
C471 H461 0.930 . S
C471 C464 1.409 . S
C471 C470 1.362 . S
H472 C478 0.930 . S
H473 C481 0.930 . S
H474 C482 0.930 . S
H475 C483 0.930 . S
H476 C486 0.930 . S
H477 C487 0.930 . S
C478 H472 0.930 . S
C478 C479 1.355 . S
C478 C480 1.415 . S
C479 C478 1.355 . S
C479 C481 1.419 . S
C480 C478 1.415 . S
C480 C485 1.425 . S
C480 C487 1.409 . S
C481 H473 0.930 . S
C481 C479 1.419 . S
C481 C482 1.362 . S
C482 H474 0.930 . S
C482 C481 1.362 . S
C482 C485 1.409 . S
C483 H475 0.930 . S
C483 C484 1.355 . S
C483 C485 1.415 . S
C484 C483 1.355 . S
C484 C486 1.419 . S
C485 C480 1.425 . S
C485 C482 1.409 . S
C485 C483 1.415 . S
C486 H476 0.930 . S
C486 C484 1.419 . S
C486 C487 1.362 . S
C487 H477 0.930 . S
C487 C480 1.409 . S
C487 C486 1.362 . S
H488 C494 0.930 . S
H489 C497 0.930 . S
H490 C498 0.930 . S
H491 C499 0.930 . S
H492 C502 0.930 . S
H493 C503 0.930 . S
C494 H488 0.930 . S
C494 C495 1.355 . S
C494 C496 1.415 . S
C495 C494 1.355 . S
C495 C497 1.419 . S
C496 C494 1.415 . S
C496 C501 1.425 . S
C496 C503 1.409 . S
C497 H489 0.930 . S
C497 C495 1.419 . S
C497 C498 1.362 . S
C498 H490 0.930 . S
C498 C497 1.362 . S
C498 C501 1.409 . S
C499 H491 0.930 . S
C499 C500 1.355 . S
C499 C501 1.415 . S
C500 C499 1.355 . S
C500 C502 1.419 . S
C501 C496 1.425 . S
C501 C498 1.409 . S
C501 C499 1.415 . S
C502 H492 0.930 . S
C502 C500 1.419 . S
C502 C503 1.362 . S
C503 H493 0.930 . S
C503 C496 1.409 . S
C503 C502 1.362 . S
H504 C510 0.930 . S
H505 C513 0.930 . S
H506 C514 0.930 . S
H507 C515 0.930 . S
H508 C518 0.930 . S
H509 C519 0.930 . S
C510 H504 0.930 . S
C510 C511 1.355 . S
C510 C512 1.415 . S
C511 C510 1.355 . S
C511 C513 1.419 . S
C512 C510 1.415 . S
C512 C517 1.425 . S
C512 C519 1.409 . S
C513 H505 0.930 . S
C513 C511 1.419 . S
C513 C514 1.362 . S
C514 H506 0.930 . S
C514 C513 1.362 . S
C514 C517 1.409 . S
C515 H507 0.930 . S
C515 C516 1.355 . S
C515 C517 1.415 . S
C516 C515 1.355 . S
C516 C518 1.419 . S
C517 C512 1.425 . S
C517 C514 1.409 . S
C517 C515 1.415 . S
C518 H508 0.930 . S
C518 C516 1.419 . S
C518 C519 1.362 . S
C519 H509 0.930 . S
C519 C512 1.409 . S
C519 C518 1.362 . S
H520 C526 0.930 . S
H521 C529 0.930 . S
H522 C530 0.930 . S
H523 C531 0.930 . S
H524 C534 0.930 . S
H525 C535 0.930 . S
C526 H520 0.930 . S
C526 C527 1.355 . S
C526 C528 1.415 . S
C527 C526 1.355 . S
C527 C529 1.419 . S
C528 C526 1.415 . S
C528 C533 1.425 . S
C528 C535 1.409 . S
C529 H521 0.930 . S
C529 C527 1.419 . S
C529 C530 1.362 . S
C530 H522 0.930 . S
C530 C529 1.362 . S
C530 C533 1.409 . S
C531 H523 0.930 . S
C531 C532 1.355 . S
C531 C533 1.415 . S
C532 C531 1.355 . S
C532 C534 1.419 . S
C533 C528 1.425 . S
C533 C530 1.409 . S
C533 C531 1.415 . S
C534 H524 0.930 . S
C534 C532 1.419 . S
C534 C535 1.362 . S
C535 H525 0.930 . S
C535 C528 1.409 . S
C535 C534 1.362 . S
H536 C542 0.930 . S
H537 C545 0.930 . S
H538 C546 0.930 . S
H539 C547 0.930 . S
H540 C550 0.930 . S
H541 C551 0.930 . S
C542 H536 0.930 . S
C542 C543 1.355 . S
C542 C544 1.415 . S
C543 C542 1.355 . S
C543 C545 1.419 . S
C544 C542 1.415 . S
C544 C549 1.425 . S
C544 C551 1.409 . S
C545 H537 0.930 . S
C545 C543 1.419 . S
C545 C546 1.362 . S
C546 H538 0.930 . S
C546 C545 1.362 . S
C546 C549 1.409 . S
C547 H539 0.930 . S
C547 C548 1.355 . S
C547 C549 1.415 . S
C548 C547 1.355 . S
C548 C550 1.419 . S
C549 C544 1.425 . S
C549 C546 1.409 . S
C549 C547 1.415 . S
C550 H540 0.930 . S
C550 C548 1.419 . S
C550 C551 1.362 . S
C551 H541 0.930 . S
C551 C544 1.409 . S
C551 C550 1.362 . S
H552 C558 0.930 . S
H553 C561 0.930 . S
H554 C562 0.930 . S
H555 C563 0.930 . S
H556 C566 0.930 . S
H557 C567 0.930 . S
C558 H552 0.930 . S
C558 C559 1.355 . S
C558 C560 1.415 . S
C559 C558 1.355 . S
C559 C561 1.419 . S
C560 C558 1.415 . S
C560 C565 1.425 . S
C560 C567 1.409 . S
C561 H553 0.930 . S
C561 C559 1.419 . S
C561 C562 1.362 . S
C562 H554 0.930 . S
C562 C561 1.362 . S
C562 C565 1.409 . S
C563 H555 0.930 . S
C563 C564 1.355 . S
C563 C565 1.415 . S
C564 C563 1.355 . S
C564 C566 1.419 . S
C565 C560 1.425 . S
C565 C562 1.409 . S
C565 C563 1.415 . S
C566 H556 0.930 . S
C566 C564 1.419 . S
C566 C567 1.362 . S
C567 H557 0.930 . S
C567 C560 1.409 . S
C567 C566 1.362 . S
H568 C574 0.930 . S
H569 C577 0.930 . S
H570 C578 0.930 . S
H571 C579 0.930 . S
H572 C582 0.930 . S
H573 C583 0.930 . S
C574 H568 0.930 . S
C574 C575 1.355 . S
C574 C576 1.415 . S
C575 C574 1.355 . S
C575 C577 1.419 . S
C576 C574 1.415 . S
C576 C581 1.425 . S
C576 C583 1.409 . S
C577 H569 0.930 . S
C577 C575 1.419 . S
C577 C578 1.362 . S
C578 H570 0.930 . S
C578 C577 1.362 . S
C578 C581 1.409 . S
C579 H571 0.930 . S
C579 C580 1.355 . S
C579 C581 1.415 . S
C580 C579 1.355 . S
C580 C582 1.419 . S
C581 C576 1.425 . S
C581 C578 1.409 . S
C581 C579 1.415 . S
C582 H572 0.930 . S
C582 C580 1.419 . S
C582 C583 1.362 . S
C583 H573 0.930 . S
C583 C576 1.409 . S
C583 C582 1.362 . S
H584 C590 0.930 . S
H585 C593 0.930 . S
H586 C594 0.930 . S
H587 C595 0.930 . S
H588 C598 0.930 . S
H589 C599 0.930 . S
C590 H584 0.930 . S
C590 C591 1.355 . S
C590 C592 1.415 . S
C591 C590 1.355 . S
C591 C593 1.419 . S
C592 C590 1.415 . S
C592 C597 1.425 . S
C592 C599 1.409 . S
C593 H585 0.930 . S
C593 C591 1.419 . S
C593 C594 1.362 . S
C594 H586 0.930 . S
C594 C593 1.362 . S
C594 C597 1.409 . S
C595 H587 0.930 . S
C595 C596 1.355 . S
C595 C597 1.415 . S
C596 C595 1.355 . S
C596 C598 1.419 . S
C597 C592 1.425 . S
C597 C594 1.409 . S
C597 C595 1.415 . S
C598 H588 0.930 . S
C598 C596 1.419 . S
C598 C599 1.362 . S
C599 H589 0.930 . S
C599 C592 1.409 . S
C599 C598 1.362 . S
H600 C606 0.930 . S
H601 C609 0.930 . S
H602 C610 0.930 . S
H603 C611 0.930 . S
H604 C614 0.930 . S
H605 C615 0.930 . S
C606 H600 0.930 . S
C606 C607 1.355 . S
C606 C608 1.415 . S
C607 C606 1.355 . S
C607 C609 1.419 . S
C608 C606 1.415 . S
C608 C613 1.425 . S
C608 C615 1.409 . S
C609 H601 0.930 . S
C609 C607 1.419 . S
C609 C610 1.362 . S
C610 H602 0.930 . S
C610 C609 1.362 . S
C610 C613 1.409 . S
C611 H603 0.930 . S
C611 C612 1.355 . S
C611 C613 1.415 . S
C612 C611 1.355 . S
C612 C614 1.419 . S
C613 C608 1.425 . S
C613 C610 1.409 . S
C613 C611 1.415 . S
C614 H604 0.930 . S
C614 C612 1.419 . S
C614 C615 1.362 . S
C615 H605 0.930 . S
C615 C608 1.409 . S
C615 C614 1.362 . S
H616 C622 0.930 . S
H617 C625 0.930 . S
H618 C626 0.930 . S
H619 C627 0.930 . S
H620 C630 0.930 . S
H621 C631 0.930 . S
C622 H616 0.930 . S
C622 C623 1.355 . S
C622 C624 1.415 . S
C623 C622 1.355 . S
C623 C625 1.419 . S
C624 C622 1.415 . S
C624 C629 1.425 . S
C624 C631 1.409 . S
C625 H617 0.930 . S
C625 C623 1.419 . S
C625 C626 1.362 . S
C626 H618 0.930 . S
C626 C625 1.362 . S
C626 C629 1.409 . S
C627 H619 0.930 . S
C627 C628 1.355 . S
C627 C629 1.415 . S
C628 C627 1.355 . S
C628 C630 1.419 . S
C629 C624 1.425 . S
C629 C626 1.409 . S
C629 C627 1.415 . S
C630 H620 0.930 . S
C630 C628 1.419 . S
C630 C631 1.362 . S
C631 H621 0.930 . S
C631 C624 1.409 . S
C631 C630 1.362 . S
H632 C638 0.930 . S
H633 C641 0.930 . S
H634 C642 0.930 . S
H635 C643 0.930 . S
H636 C646 0.930 . S
H637 C647 0.930 . S
C638 H632 0.930 . S
C638 C639 1.355 . S
C638 C640 1.415 . S
C639 C638 1.355 . S
C639 C641 1.419 . S
C640 C638 1.415 . S
C640 C645 1.425 . S
C640 C647 1.409 . S
C641 H633 0.930 . S
C641 C639 1.419 . S
C641 C642 1.362 . S
C642 H634 0.930 . S
C642 C641 1.362 . S
C642 C645 1.409 . S
C643 H635 0.930 . S
C643 C644 1.355 . S
C643 C645 1.415 . S
C644 C643 1.355 . S
C644 C646 1.419 . S
C645 C640 1.425 . S
C645 C642 1.409 . S
C645 C643 1.415 . S
C646 H636 0.930 . S
C646 C644 1.419 . S
C646 C647 1.362 . S
C647 H637 0.930 . S
C647 C640 1.409 . S
C647 C646 1.362 . S
H648 C654 0.930 . S
H649 C657 0.930 . S
H650 C658 0.930 . S
H651 C659 0.930 . S
H652 C662 0.930 . S
H653 C663 0.930 . S
C654 H648 0.930 . S
C654 C655 1.355 . S
C654 C656 1.415 . S
C655 C654 1.355 . S
C655 C657 1.419 . S
C656 C654 1.415 . S
C656 C661 1.425 . S
C656 C663 1.409 . S
C657 H649 0.930 . S
C657 C655 1.419 . S
C657 C658 1.362 . S
C658 H650 0.930 . S
C658 C657 1.362 . S
C658 C661 1.409 . S
C659 H651 0.930 . S
C659 C660 1.355 . S
C659 C661 1.415 . S
C660 C659 1.355 . S
C660 C662 1.419 . S
C661 C656 1.425 . S
C661 C658 1.409 . S
C661 C659 1.415 . S
C662 H652 0.930 . S
C662 C660 1.419 . S
C662 C663 1.362 . S
C663 H653 0.930 . S
C663 C656 1.409 . S
C663 C662 1.362 . S
H664 C670 0.930 . S
H665 C673 0.930 . S
H666 C674 0.930 . S
H667 C675 0.930 . S
H668 C678 0.930 . S
H669 C679 0.930 . S
C670 H664 0.930 . S
C670 C671 1.355 . S
C670 C672 1.415 . S
C671 C670 1.355 . S
C671 C673 1.419 . S
C672 C670 1.415 . S
C672 C677 1.425 . S
C672 C679 1.409 . S
C673 H665 0.930 . S
C673 C671 1.419 . S
C673 C674 1.362 . S
C674 H666 0.930 . S
C674 C673 1.362 . S
C674 C677 1.409 . S
C675 H667 0.930 . S
C675 C676 1.355 . S
C675 C677 1.415 . S
C676 C675 1.355 . S
C676 C678 1.419 . S
C677 C672 1.425 . S
C677 C674 1.409 . S
C677 C675 1.415 . S
C678 H668 0.930 . S
C678 C676 1.419 . S
C678 C679 1.362 . S
C679 H669 0.930 . S
C679 C672 1.409 . S
C679 C678 1.362 . S
H680 C686 0.930 . S
H681 C689 0.930 . S
H682 C690 0.930 . S
H683 C691 0.930 . S
H684 C694 0.930 . S
H685 C695 0.930 . S
C686 H680 0.930 . S
C686 C687 1.355 . S
C686 C688 1.415 . S
C687 C686 1.355 . S
C687 C689 1.419 . S
C688 C686 1.415 . S
C688 C693 1.425 . S
C688 C695 1.409 . S
C689 H681 0.930 . S
C689 C687 1.419 . S
C689 C690 1.362 . S
C690 H682 0.930 . S
C690 C689 1.362 . S
C690 C693 1.409 . S
C691 H683 0.930 . S
C691 C692 1.355 . S
C691 C693 1.415 . S
C692 C691 1.355 . S
C692 C694 1.419 . S
C693 C688 1.425 . S
C693 C690 1.409 . S
C693 C691 1.415 . S
C694 H684 0.930 . S
C694 C692 1.419 . S
C694 C695 1.362 . S
C695 H685 0.930 . S
C695 C688 1.409 . S
C695 C694 1.362 . S
H696 C702 0.930 . S
H697 C705 0.930 . S
H698 C706 0.930 . S
H699 C707 0.930 . S
H700 C710 0.930 . S
H701 C711 0.930 . S
C702 H696 0.930 . S
C702 C703 1.355 . S
C702 C704 1.415 . S
C703 C702 1.355 . S
C703 C705 1.419 . S
C704 C702 1.415 . S
C704 C709 1.425 . S
C704 C711 1.409 . S
C705 H697 0.930 . S
C705 C703 1.419 . S
C705 C706 1.362 . S
C706 H698 0.930 . S
C706 C705 1.362 . S
C706 C709 1.409 . S
C707 H699 0.930 . S
C707 C708 1.355 . S
C707 C709 1.415 . S
C708 C707 1.355 . S
C708 C710 1.419 . S
C709 C704 1.425 . S
C709 C706 1.409 . S
C709 C707 1.415 . S
C710 H700 0.930 . S
C710 C708 1.419 . S
C710 C711 1.362 . S
C711 H701 0.930 . S
C711 C704 1.409 . S
C711 C710 1.362 . S
H712 C718 0.930 . S
H713 C721 0.930 . S
H714 C722 0.930 . S
H715 C723 0.930 . S
H716 C726 0.930 . S
H717 C727 0.930 . S
C718 H712 0.930 . S
C718 C719 1.355 . S
C718 C720 1.415 . S
C719 C718 1.355 . S
C719 C721 1.419 . S
C720 C718 1.415 . S
C720 C725 1.425 . S
C720 C727 1.409 . S
C721 H713 0.930 . S
C721 C719 1.419 . S
C721 C722 1.362 . S
C722 H714 0.930 . S
C722 C721 1.362 . S
C722 C725 1.409 . S
C723 H715 0.930 . S
C723 C724 1.355 . S
C723 C725 1.415 . S
C724 C723 1.355 . S
C724 C726 1.419 . S
C725 C720 1.425 . S
C725 C722 1.409 . S
C725 C723 1.415 . S
C726 H716 0.930 . S
C726 C724 1.419 . S
C726 C727 1.362 . S
C727 H717 0.930 . S
C727 C720 1.409 . S
C727 C726 1.362 . S
H728 C734 0.930 . S
H729 C737 0.930 . S
H730 C738 0.930 . S
H731 C739 0.930 . S
H732 C742 0.930 . S
H733 C743 0.930 . S
C734 H728 0.930 . S
C734 C735 1.355 . S
C734 C736 1.415 . S
C735 C734 1.355 . S
C735 C737 1.419 . S
C736 C734 1.415 . S
C736 C741 1.425 . S
C736 C743 1.409 . S
C737 H729 0.930 . S
C737 C735 1.419 . S
C737 C738 1.362 . S
C738 H730 0.930 . S
C738 C737 1.362 . S
C738 C741 1.409 . S
C739 H731 0.930 . S
C739 C740 1.355 . S
C739 C741 1.415 . S
C740 C739 1.355 . S
C740 C742 1.419 . S
C741 C736 1.425 . S
C741 C738 1.409 . S
C741 C739 1.415 . S
C742 H732 0.930 . S
C742 C740 1.419 . S
C742 C743 1.362 . S
C743 H733 0.930 . S
C743 C736 1.409 . S
C743 C742 1.362 . S
C367 C13 1.749 . S
C372 C106 1.716 . S
C383 C27 1.745 . S
C388 C145 1.705 . S
C404 C177 1.732 . S
C399 C29 1.772 . S
C420 C223 1.735 . S
C415 C54 1.773 . S
C436 C290 1.699 . S
C431 C69 1.740 . S
C452 C329 1.699 . S
C447 C83 1.740 . S
C463 C15 1.756 . S
C468 C191 1.728 . S
C479 C41 1.740 . S
C484 C237 1.699 . S
C500 C276 1.694 . S
C495 C42 1.751 . S
C516 C315 1.681 . S
C511 C57 1.746 . S
C527 C71 1.756 . S
C532 C92 1.705 . S
C548 C131 1.722 . S
C543 C1 1.765 . S
C564 C230 1.752 . S
C559 C12 1.773 . S
C575 C26 1.742 . S
C580 C283 1.678 . S
C596 C336 1.712 . S
C591 C28 1.762 . S
C607 C55 1.742 . S
C612 C99 1.676 . S
C623 C68 1.770 . S
C628 C152 1.731 . S
C639 C82 1.740 . S
C644 C184 1.699 . S
C655 C14 1.774 . S
C660 C322 1.752 . S
C676 C85 1.715 . S
C671 C40 1.749 . S
C687 C43 1.754 . S
C692 C138 1.722 . S
C703 C56 1.771 . S
C708 C198 1.733 . S
C719 C70 1.750 . S
C724 C244 1.694 . S
C735 C0 1.767 . S
C740 C269 1.744 . S
