# Generated by pormake.
# Topology pto, (3,4)-cn, num edge types: 1
# Building blocks:
#     Node 0, Type 0, BuildingBlock: QEWDON_clean_linker_0, # of connection points: 3
#     Node 1, Type 0, BuildingBlock: QEWDON_clean_linker_0, # of connection points: 3
#     Node 2, Type 0, BuildingBlock: QEWDON_clean_linker_0, # of connection points: 3
#     Node 3, Type 0, BuildingBlock: QEWDON_clean_linker_0, # of connection points: 3
#     Node 4, Type 0, BuildingBlock: QEWDON_clean_linker_0, # of connection points: 3
#     Node 5, Type 0, BuildingBlock: QEWDON_clean_linker_0, # of connection points: 3
#     Node 6, Type 0, BuildingBlock: QEWDON_clean_linker_0, # of connection points: 3
#     Node 7, Type 0, BuildingBlock: QEWDON_clean_linker_0, # of connection points: 3
#     Node 8, Type 1, BuildingBlock: NAWXER_clean_sbu_0, # of connection points: 4
#     Node 9, Type 1, BuildingBlock: NAWXER_clean_sbu_0, # of connection points: 4
#     Node 10, Type 1, BuildingBlock: NAWXER_clean_sbu_0, # of connection points: 4
#     Node 11, Type 1, BuildingBlock: NAWXER_clean_sbu_0, # of connection points: 4
#     Node 12, Type 1, BuildingBlock: NAWXER_clean_sbu_0, # of connection points: 4
#     Node 13, Type 1, BuildingBlock: NAWXER_clean_sbu_0, # of connection points: 4
#     Edge 14, Type (0, 1), BuildingBlock: KIFKEQ_clean_linker_1, # of connection points: 2
#     Edge 15, Type (0, 1), BuildingBlock: KIFKEQ_clean_linker_1, # of connection points: 2
#     Edge 16, Type (0, 1), BuildingBlock: KIFKEQ_clean_linker_1, # of connection points: 2
#     Edge 17, Type (0, 1), BuildingBlock: KIFKEQ_clean_linker_1, # of connection points: 2
#     Edge 18, Type (0, 1), BuildingBlock: KIFKEQ_clean_linker_1, # of connection points: 2
#     Edge 19, Type (0, 1), BuildingBlock: KIFKEQ_clean_linker_1, # of connection points: 2
#     Edge 20, Type (0, 1), BuildingBlock: KIFKEQ_clean_linker_1, # of connection points: 2
#     Edge 21, Type (0, 1), BuildingBlock: KIFKEQ_clean_linker_1, # of connection points: 2
#     Edge 22, Type (0, 1), BuildingBlock: KIFKEQ_clean_linker_1, # of connection points: 2
#     Edge 23, Type (0, 1), BuildingBlock: KIFKEQ_clean_linker_1, # of connection points: 2
#     Edge 24, Type (0, 1), BuildingBlock: KIFKEQ_clean_linker_1, # of connection points: 2
#     Edge 25, Type (0, 1), BuildingBlock: KIFKEQ_clean_linker_1, # of connection points: 2
#     Edge 26, Type (0, 1), BuildingBlock: KIFKEQ_clean_linker_1, # of connection points: 2
#     Edge 27, Type (0, 1), BuildingBlock: KIFKEQ_clean_linker_1, # of connection points: 2
#     Edge 28, Type (0, 1), BuildingBlock: KIFKEQ_clean_linker_1, # of connection points: 2
#     Edge 29, Type (0, 1), BuildingBlock: KIFKEQ_clean_linker_1, # of connection points: 2
#     Edge 30, Type (0, 1), BuildingBlock: KIFKEQ_clean_linker_1, # of connection points: 2
#     Edge 31, Type (0, 1), BuildingBlock: KIFKEQ_clean_linker_1, # of connection points: 2
#     Edge 32, Type (0, 1), BuildingBlock: KIFKEQ_clean_linker_1, # of connection points: 2
#     Edge 33, Type (0, 1), BuildingBlock: KIFKEQ_clean_linker_1, # of connection points: 2
#     Edge 34, Type (0, 1), BuildingBlock: KIFKEQ_clean_linker_1, # of connection points: 2
#     Edge 35, Type (0, 1), BuildingBlock: KIFKEQ_clean_linker_1, # of connection points: 2
#     Edge 36, Type (0, 1), BuildingBlock: KIFKEQ_clean_linker_1, # of connection points: 2
#     Edge 37, Type (0, 1), BuildingBlock: KIFKEQ_clean_linker_1, # of connection points: 2
# Relax obj value: 0.023
# Max RMSD: 0.216
# Mean RMSD: 0.076
data_MOF--net-pto--node1-NAWXER_clean_sbu_0--node2-QEWDON_clean_linker_0--edge1-KIFKEQ_clean_linker_1
_symmetry_space_group_name_H-M    P1
_symmetry_Int_Tables_number       1
_symmetry_cell_setting            triclinic
loop_
_symmetry_equiv_pos_as_xyz
'x, y, z'
_cell_length_a     40.737373
_cell_length_b     42.342777
_cell_length_c     40.337149
_cell_angle_alpha  97.86327
_cell_angle_beta   106.9539
_cell_angle_gamma 100.1557
loop_
_atom_site_label
_atom_site_type_symbol
_atom_site_fract_x
_atom_site_fract_y
_atom_site_fract_z
_atom_type_partial_charge
H0 H 0.35811 0.30588 0.23842 0.0
C1 C 0.35071 0.28719 0.25247 0.0
C2 C 0.3561 0.2556 0.2442 0.0
C3 C 0.33867 0.29591 0.28072 0.0
H4 H 0.35349 0.20827 0.25892 0.0
C5 C 0.34849 0.23242 0.26445 0.0
C6 C 0.33635 0.24093 0.29306 0.0
C7 C 0.33128 0.27281 0.30078 0.0
C8 C 0.33943 0.33056 0.29246 0.0
H9 H 0.32272 0.28008 0.32314 0.0
C10 C 0.31059 0.34396 0.27783 0.0
C11 C 0.31308 0.37776 0.28724 0.0
C12 C 0.37049 0.35086 0.31684 0.0
H13 H 0.393 0.34083 0.3281 0.0
C14 C 0.37297 0.38432 0.32634 0.0
H15 H 0.28667 0.3283 0.25878 0.0
C16 C 0.34453 0.39778 0.31154 0.0
H17 H 0.34692 0.4238 0.3195 0.0
H18 H 0.39703 0.39989 0.34511 0.0
H19 H 0.34892 0.84222 0.78355 0.0
C20 C 0.33075 0.82231 0.78763 0.0
C21 C 0.34323 0.79586 0.8003 0.0
C22 C 0.29536 0.82393 0.78196 0.0
H23 H 0.32957 0.75093 0.81777 0.0
C24 C 0.31981 0.77067 0.80659 0.0
C25 C 0.28459 0.772 0.80147 0.0
C26 C 0.27249 0.79858 0.78897 0.0
C27 C 0.28297 0.85332 0.77171 0.0
H28 H 0.24522 0.7996 0.78491 0.0
C29 C 0.29207 0.86779 0.74514 0.0
C30 C 0.28127 0.89643 0.73689 0.0
C31 C 0.2626 0.86769 0.7895 0.0
H32 H 0.25562 0.85748 0.81039 0.0
C33 C 0.2517 0.89587 0.78121 0.0
H34 H 0.30775 0.85704 0.73117 0.0
C35 C 0.26105 0.91026 0.75521 0.0
H36 H 0.25225 0.93214 0.7492 0.0
H37 H 0.23615 0.90675 0.79518 0.0
H38 H 0.94812 0.76989 0.35145 0.0
C39 C 0.92539 0.77106 0.32988 0.0
C40 C 0.92013 0.7545 0.29545 0.0
C41 C 0.90156 0.78908 0.33699 0.0
H42 H 0.88578 0.7432 0.24129 0.0
C43 C 0.89062 0.75639 0.26788 0.0
C44 C 0.86687 0.77481 0.27441 0.0
C45 C 0.8727 0.79155 0.30896 0.0
C46 C 0.90568 0.80269 0.37421 0.0
H47 H 0.8539 0.80507 0.31425 0.0
C48 C 0.90607 0.8358 0.38548 0.0
C49 C 0.912 0.84841 0.4215 0.0
C50 C 0.91023 0.78217 0.39901 0.0
H51 H 0.90967 0.75655 0.3909 0.0
C52 C 0.91532 0.79437 0.43442 0.0
H53 H 0.90298 0.85183 0.36657 0.0
C54 C 0.9163 0.82721 0.44566 0.0
H55 H 0.92008 0.83597 0.47333 0.0
H56 H 0.91859 0.7783 0.45325 0.0
H57 H 0.91775 0.31209 0.98974 0.0
C58 C 0.91777 0.29619 0.96627 0.0
C59 C 0.93155 0.30946 0.94175 0.0
C60 C 0.90383 0.26234 0.96035 0.0
H61 H 0.94101 0.29901 0.89202 0.0
C62 C 0.93092 0.28863 0.91119 0.0
C63 C 0.91717 0.25476 0.90493 0.0
C64 C 0.90399 0.24181 0.92997 0.0
C65 C 0.88843 0.24793 0.98534 0.0
H66 H 0.89347 0.21569 0.92576 0.0
C67 C 0.85872 0.25686 0.99147 0.0
C68 C 0.84148 0.24033 0.01201 0.0
C69 C 0.9017 0.22314 1.00079 0.0
H70 H 0.92446 0.21584 0.99622 0.0
C71 C 0.88544 0.20726 0.02186 0.0
H72 H 0.84864 0.27606 0.97945 0.0
C73 C 0.8554 0.21547 0.02717 0.0
H74 H 0.84262 0.20163 0.04242 0.0
H75 H 0.89568 0.18797 0.03349 0.0
H76 H 0.9373 0.77087 0.82587 0.0
C77 C 0.91784 0.77636 0.8379 0.0
C78 C 0.90144 0.75271 0.85269 0.0
C79 C 0.9095 0.80704 0.83835 0.0
H80 H 0.86497 0.74255 0.8813 0.0
C81 C 0.87701 0.7605 0.86909 0.0
C82 C 0.86806 0.79127 0.86962 0.0
C83 C 0.88426 0.8142 0.8537 0.0
C84 C 0.92712 0.83127 0.82222 0.0
H85 H 0.87734 0.83773 0.85319 0.0
C86 C 0.90722 0.84694 0.79772 0.0
C87 C 0.92378 0.8676 0.7801 0.0
C88 C 0.96389 0.83745 0.82985 0.0
H89 H 0.97979 0.82589 0.84889 0.0
C90 C 0.98045 0.8585 0.81286 0.0
H91 H 0.8788 0.84198 0.79124 0.0
C92 C 0.96052 0.87331 0.78787 0.0
H93 H 0.97378 0.88938 0.77469 0.0
H94 H 0.00875 0.86311 0.81882 0.0
H95 H 0.94762 0.36024 0.39703 0.0
C96 C 0.92106 0.35813 0.37973 0.0
C97 C 0.91295 0.38355 0.36206 0.0
C98 C 0.89538 0.3296 0.37502 0.0
H99 H 0.87147 0.39922 0.32552 0.0
C100 C 0.878 0.38051 0.34048 0.0
C101 C 0.85178 0.35232 0.3361 0.0
C102 C 0.86069 0.32703 0.35364 0.0
C103 C 0.90564 0.30172 0.39061 0.0
H104 H 0.84085 0.30491 0.34982 0.0
C105 C 0.88631 0.28579 0.40972 0.0
C106 C 0.89738 0.26033 0.42571 0.0
C107 C 0.9354 0.2912 0.38667 0.0
H108 H 0.9504 0.3028 0.37164 0.0
C109 C 0.94595 0.26546 0.40185 0.0
H110 H 0.86362 0.29404 0.41333 0.0
C111 C 0.92722 0.2502 0.42144 0.0
H112 H 0.93604 0.23043 0.4333 0.0
H113 H 0.96884 0.25747 0.39863 0.0
H114 H 0.37479 0.35442 0.78708 0.0
C115 C 0.35267 0.36324 0.79146 0.0
C116 C 0.34958 0.3674 0.82545 0.0
C117 C 0.32765 0.37056 0.76313 0.0
H118 H 0.31851 0.38239 0.85721 0.0
C119 C 0.32093 0.37896 0.83097 0.0
C120 C 0.2957 0.38661 0.80293 0.0
C121 C 0.29922 0.38221 0.76907 0.0
C122 C 0.3315 0.3662 0.72744 0.0
H123 H 0.27996 0.38814 0.74735 0.0
C124 C 0.34023 0.3377 0.71358 0.0
C125 C 0.34378 0.33322 0.67972 0.0
C126 C 0.32655 0.39043 0.70707 0.0
H127 H 0.32021 0.41279 0.71725 0.0
C128 C 0.3303 0.38623 0.67354 0.0
H129 H 0.34314 0.31851 0.72872 0.0
C130 C 0.33879 0.35781 0.65985 0.0
H131 H 0.34161 0.35512 0.63379 0.0
H132 H 0.32661 0.40509 0.65809 0.0
H133 H 0.42651 0.88796 0.26811 0.0
C134 C 0.41303 0.86494 0.27188 0.0
C135 C 0.41172 0.86138 0.30568 0.0
C136 C 0.39425 0.84003 0.24228 0.0
H137 H 0.39055 0.82902 0.3352 0.0
C138 C 0.39325 0.8315 0.30968 0.0
C139 C 0.37486 0.80608 0.28028 0.0
C140 C 0.37559 0.81061 0.24662 0.0
C141 C 0.38939 0.8467 0.20642 0.0
H142 H 0.3607 0.79166 0.2235 0.0
C143 C 0.4177 0.85141 0.19303 0.0
C144 C 0.4123 0.85722 0.15847 0.0
C145 C 0.35585 0.8486 0.18552 0.0
H146 H 0.3338 0.84522 0.19557 0.0
C147 C 0.35059 0.85527 0.15171 0.0
H148 H 0.44341 0.84929 0.20898 0.0
C149 C 0.37856 0.8595 0.13818 0.0
H150 H 0.37374 0.86441 0.11173 0.0
H151 H 0.32471 0.85694 0.13584 0.0
C152 C 0.10144 0.55216 0.33216 0.0
C153 C 0.19717 0.62264 0.30871 0.0
O154 O 0.13013 0.56903 0.35491 0.0
Zn155 Zn 0.15012 0.58675 0.32152 0.0
O156 O 0.0961 0.55169 0.29912 0.0
Zn157 Zn 0.12273 0.57294 0.26582 0.0
O158 O 0.13057 0.53521 0.23838 0.0
O159 O 0.16028 0.54408 0.29542 0.0
O160 O 0.17209 0.60746 0.28049 0.0
O161 O 0.19533 0.61787 0.33861 0.0
O162 O 0.11407 0.61576 0.30049 0.0
O163 O 0.08947 0.5972 0.24294 0.0
C164 C 0.15144 0.52692 0.26414 0.0
C165 C 0.09256 0.61738 0.27073 0.0
C166 C 0.06691 0.51767 0.92263 0.0
C167 C 0.13641 0.59819 0.87875 0.0
O168 O 0.09458 0.53907 0.94131 0.0
Zn169 Zn 0.10316 0.55789 0.90231 0.0
O170 O 0.05581 0.51485 0.88896 0.0
Zn171 Zn 0.06978 0.53681 0.84895 0.0
O172 O 0.08212 0.50206 0.82156 0.0
O173 O 0.12002 0.52002 0.87549 0.0
O174 O 0.11103 0.57782 0.85437 0.0
O175 O 0.14152 0.59594 0.91093 0.0
O176 O 0.05781 0.57775 0.88351 0.0
O177 O 0.02811 0.55263 0.82832 0.0
C178 C 0.11017 0.50081 0.84521 0.0
C179 C 0.03147 0.57392 0.85535 0.0
C180 C 0.32958 0.02041 0.55332 0.0
C181 C 0.3343 0.08934 0.46563 0.0
O182 O 0.30431 0.02237 0.52691 0.0
Zn183 Zn 0.33075 0.05421 0.50833 0.0
O184 O 0.36066 0.03734 0.55856 0.0
Zn185 Zn 0.38642 0.07129 0.53429 0.0
O186 O 0.40463 0.1106 0.57094 0.0
O187 O 0.34658 0.09789 0.54815 0.0
O188 O 0.36427 0.09149 0.48886 0.0
O189 O 0.30701 0.0701 0.46676 0.0
O190 O 0.3628 0.02773 0.48801 0.0
O191 O 0.41875 0.0485 0.51915 0.0
C192 C 0.37501 0.11706 0.56971 0.0
C193 C 0.39543 0.02774 0.49375 0.0
C194 C 0.67124 0.78582 0.05899 0.0
C195 C 0.58149 0.79042 0.94991 0.0
O196 O 0.65073 0.76156 0.03559 0.0
Zn197 Zn 0.62692 0.78666 0.00323 0.0
O198 O 0.67079 0.815 0.05408 0.0
Zn199 Zn 0.64407 0.83913 0.01509 0.0
O200 O 0.62248 0.86562 0.04221 0.0
O201 O 0.60106 0.81236 0.03331 0.0
O202 O 0.60061 0.81865 0.96714 0.0
O203 O 0.58764 0.76484 0.96149 0.0
O204 O 0.6659 0.80547 0.9814 0.0
O205 O 0.68176 0.85929 0.99875 0.0
C206 C 0.60122 0.84175 0.04638 0.0
C207 C 0.68487 0.83307 0.98163 0.0
C208 C 0.84803 0.02411 0.6296 0.0
C209 C 0.82995 0.11528 0.56994 0.0
O210 O 0.81831 0.03018 0.61468 0.0
Zn211 Zn 0.83732 0.06926 0.59952 0.0
O212 O 0.87646 0.0434 0.63067 0.0
Zn213 Zn 0.89331 0.08698 0.61385 0.0
O214 O 0.91928 0.11661 0.65829 0.0
O215 O 0.86199 0.10338 0.64925 0.0
O216 O 0.86243 0.11566 0.5848 0.0
O217 O 0.80589 0.09211 0.57082 0.0
O218 O 0.86134 0.04892 0.56326 0.0
O219 O 0.91825 0.07177 0.58298 0.0
C220 C 0.89309 0.11925 0.66869 0.0
C221 C 0.89202 0.05161 0.5599 0.0
C222 C 0.62206 0.32274 0.14182 0.0
C223 C 0.53472 0.32125 0.02968 0.0
O224 O 0.6068 0.29337 0.12481 0.0
Zn225 Zn 0.56648 0.27005 0.07467 0.0
O226 O 0.61301 0.3467 0.12866 0.0
Zn227 Zn 0.57857 0.32125 0.08561 0.0
O228 O 0.53686 0.29802 0.10373 0.0
O229 O 0.53123 0.2447 0.08927 0.0
O230 O 0.55577 0.34534 0.05274 0.0
O231 O 0.53579 0.29199 0.03435 0.0
O232 O 0.59217 0.24605 0.05139 0.0
O233 O 0.61158 0.29949 0.06034 0.0
C234 C 0.5217 0.26862 0.10342 0.0
C235 C 0.61403 0.2704 0.04922 0.0
H236 H 0.24544 0.35812 0.28663 0.0
H237 H 0.31308 0.43092 0.25616 0.0
H238 H 0.1986 0.38819 0.27253 0.0
H239 H 0.26635 0.46086 0.24192 0.0
H240 H 0.16902 0.50207 0.20685 0.0
H241 H 0.2024 0.45933 0.20357 0.0
H242 H 0.2006 0.4445 0.30689 0.0
H243 H 0.16809 0.48719 0.31037 0.0
C244 C 0.24989 0.38005 0.27601 0.0
C245 C 0.28289 0.39246 0.27282 0.0
C246 C 0.2232 0.39727 0.26805 0.0
C247 C 0.22894 0.42688 0.25628 0.0
C248 C 0.26109 0.43796 0.25065 0.0
C249 C 0.28791 0.42102 0.25908 0.0
C250 C 0.17518 0.48911 0.22843 0.0
C251 C 0.16634 0.49804 0.25899 0.0
C252 C 0.1943 0.46481 0.22661 0.0
C253 C 0.20401 0.44863 0.25497 0.0
C254 C 0.19315 0.45627 0.28448 0.0
C255 C 0.1748 0.48089 0.28659 0.0
H256 H 0.24279 0.78118 0.84238 0.0
H257 H 0.27513 0.70573 0.78444 0.0
H258 H 0.20776 0.73932 0.86243 0.0
H259 H 0.24039 0.664 0.8046 0.0
H260 H 0.14094 0.59986 0.81317 0.0
H261 H 0.17624 0.64212 0.79474 0.0
H262 H 0.21852 0.69718 0.90214 0.0
H263 H 0.18291 0.65452 0.92089 0.0
C264 C 0.24209 0.75563 0.83366 0.0
C265 C 0.26148 0.74664 0.81169 0.0
C266 C 0.22244 0.73176 0.84549 0.0
C267 C 0.22147 0.69845 0.83518 0.0
C268 C 0.2405 0.68948 0.81282 0.0
C269 C 0.26043 0.71333 0.80135 0.0
C270 C 0.15777 0.62091 0.83299 0.0
C271 C 0.1591 0.62384 0.86855 0.0
C272 C 0.17813 0.64505 0.82239 0.0
C273 C 0.20013 0.67292 0.84698 0.0
C274 C 0.20155 0.67601 0.88259 0.0
C275 C 0.18139 0.65154 0.89335 0.0
H276 H 0.95044 0.71436 0.33627 0.0
H277 H 0.94544 0.74879 0.23923 0.0
H278 H 0.99317 0.6835 0.32731 0.0
H279 H 0.98787 0.71696 0.22989 0.0
H280 H 0.0355 0.622 0.21606 0.0
H281 H 0.99342 0.6563 0.21946 0.0
H282 H 0.05607 0.6999 0.32775 0.0
H283 H 0.09777 0.66608 0.32459 0.0
C284 C 0.95862 0.71554 0.31313 0.0
C285 C 0.9449 0.73447 0.28876 0.0
C286 C 0.98301 0.69775 0.30794 0.0
C287 C 0.9941 0.69818 0.27812 0.0
C288 C 0.97966 0.71619 0.25307 0.0
C289 C 0.95537 0.73431 0.25841 0.0
C290 C 0.04053 0.63932 0.24036 0.0
C291 C 0.06971 0.64099 0.27019 0.0
C292 C 0.01649 0.65891 0.24227 0.0
C293 C 0.02125 0.68027 0.27407 0.0
C294 C 0.0514 0.68315 0.30314 0.0
C295 C 0.07535 0.66382 0.30122 0.0
H296 H 0.98122 0.34947 1.00088 0.0
H297 H 0.91683 0.34925 0.89483 0.0
H298 H 0.01268 0.40588 0.00588 0.0
H299 H 0.94849 0.40453 0.89911 0.0
H300 H 0.99704 0.50604 0.9111 0.0
H301 H 0.96103 0.46064 0.9249 0.0
H302 H 0.05537 0.43171 0.98062 0.0
H303 H 0.09138 0.47854 0.96824 0.0
C304 C 0.97338 0.36174 0.97896 0.0
C305 C 0.94684 0.34499 0.94735 0.0
C306 C 0.99157 0.39387 0.98166 0.0
C307 C 0.98326 0.40981 0.95289 0.0
C308 C 0.95537 0.39341 0.92207 0.0
C309 C 0.93738 0.36151 0.91939 0.0
C310 C 0.01001 0.49054 0.9273 0.0
C311 C 0.04681 0.49547 0.93846 0.0
C312 C 0.98944 0.46438 0.93496 0.0
C313 C 0.00522 0.44196 0.95305 0.0
C314 C 0.0423 0.44852 0.96673 0.0
C315 C 0.06299 0.47527 0.95964 0.0
H316 H 0.30531 0.17505 0.27562 0.0
H317 H 0.35934 0.25469 0.36509 0.0
H318 H 0.30238 0.13714 0.31617 0.0
H319 H 0.35574 0.21725 0.40519 0.0
H320 H 0.38703 0.13648 0.4619 0.0
H321 H 0.38487 0.1717 0.41911 0.0
H322 H 0.27531 0.12498 0.36474 0.0
H323 H 0.27737 0.08911 0.40797 0.0
C324 C 0.31633 0.18447 0.30387 0.0
C325 C 0.33251 0.21788 0.31713 0.0
C326 C 0.31438 0.16286 0.32703 0.0
C327 C 0.32899 0.17422 0.36383 0.0
C328 C 0.34455 0.20769 0.37697 0.0
C329 C 0.34629 0.22922 0.35395 0.0
C330 C 0.36238 0.13351 0.44087 0.0
C331 C 0.33229 0.11001 0.43853 0.0
C332 C 0.36114 0.15389 0.41641 0.0
C333 C 0.32985 0.15134 0.38876 0.0
C334 C 0.29982 0.12742 0.38577 0.0
C335 C 0.30097 0.10703 0.41058 0.0
H336 H 0.39796 0.84646 0.8399 0.0
H337 H 0.37435 0.74536 0.78725 0.0
H338 H 0.45845 0.8438 0.8688 0.0
H339 H 0.43532 0.7427 0.81571 0.0
H340 H 0.56927 0.83729 0.91081 0.0
H341 H 0.51468 0.83825 0.86595 0.0
H342 H 0.46855 0.74101 0.8749 0.0
H343 H 0.52362 0.73969 0.91889 0.0
C344 C 0.40605 0.82397 0.83356 0.0
C345 C 0.38137 0.79606 0.81152 0.0
C346 C 0.44081 0.82238 0.85016 0.0
C347 C 0.45176 0.79288 0.84493 0.0
C348 C 0.42762 0.7656 0.82091 0.0
C349 C 0.39278 0.76716 0.80445 0.0
C350 C 0.54767 0.81587 0.9027 0.0
C351 C 0.55058 0.78856 0.91872 0.0
C352 C 0.5163 0.81649 0.8771 0.0
C353 C 0.48696 0.78995 0.86716 0.0
C354 C 0.49065 0.76181 0.88162 0.0
C355 C 0.52221 0.76107 0.90701 0.0
H356 H 0.95942 0.88922 0.4807 0.0
H357 H 0.86822 0.88666 0.39189 0.0
H358 H 0.95666 0.94311 0.50774 0.0
H359 H 0.86621 0.94155 0.41833 0.0
H360 H 0.84113 0.00604 0.50727 0.0
H361 H 0.84908 0.96161 0.46781 0.0
H362 H 0.9618 0.00031 0.50795 0.0
H363 H 0.95385 0.04451 0.54848 0.0
C364 C 0.93909 0.90047 0.46667 0.0
C365 C 0.9136 0.88341 0.43451 0.0
C366 C 0.93778 0.93164 0.48195 0.0
C367 C 0.91101 0.94667 0.46541 0.0
C368 C 0.88686 0.93048 0.43206 0.0
C369 C 0.88817 0.89916 0.41674 0.0
C370 C 0.86761 0.00549 0.50734 0.0
C371 C 0.8969 0.02857 0.53151 0.0
C372 C 0.87218 0.98005 0.4844 0.0
C373 C 0.90613 0.97709 0.4849 0.0
C374 C 0.93531 0.00151 0.50733 0.0
C375 C 0.93074 0.02698 0.53041 0.0
H376 H 0.81929 0.23922 0.07007 0.0
H377 H 0.78771 0.25784 0.96376 0.0
H378 H 0.76253 0.24552 0.07501 0.0
H379 H 0.7317 0.26605 0.96995 0.0
H380 H 0.65689 0.31406 0.02695 0.0
H381 H 0.71171 0.30788 0.01581 0.0
H382 H 0.69593 0.21017 0.03691 0.0
H383 H 0.64085 0.21584 0.0472 0.0
C384 C 0.80041 0.24465 0.04772 0.0
C385 C 0.80819 0.24758 0.01632 0.0
C386 C 0.76796 0.24843 0.05072 0.0
C387 C 0.74278 0.25597 0.02274 0.0
C388 C 0.75082 0.26028 0.99189 0.0
C389 C 0.78306 0.25582 0.98855 0.0
C390 C 0.66482 0.29106 0.0286 0.0
C391 C 0.64456 0.26544 0.03797 0.0
C392 C 0.69612 0.28757 0.0222 0.0
C393 C 0.70803 0.25868 0.02584 0.0
C394 C 0.68733 0.23276 0.0342 0.0
C395 C 0.65573 0.23596 0.03984 0.0
H396 H 0.27197 0.86886 0.66832 0.0
H397 H 0.31223 0.96036 0.74398 0.0
H398 H 0.28429 0.89699 0.62235 0.0
H399 H 0.32469 0.98831 0.69843 0.0
H400 H 0.37526 0.02004 0.61779 0.0
H401 H 0.36521 0.98807 0.66115 0.0
H402 H 0.26048 0.94164 0.59033 0.0
H403 H 0.27037 0.97391 0.54665 0.0
C404 C 0.28382 0.89487 0.67515 0.0
C405 C 0.29115 0.91249 0.70962 0.0
C406 C 0.29058 0.91097 0.64886 0.0
C407 C 0.3054 0.94483 0.65683 0.0
C408 C 0.3135 0.96218 0.69156 0.0
C409 C 0.30624 0.94623 0.71758 0.0
C410 C 0.3501 0.00292 0.61126 0.0
C411 C 0.32352 0.99969 0.57877 0.0
C412 C 0.34436 0.98468 0.6362 0.0
C413 C 0.31205 0.96245 0.62917 0.0
C414 C 0.28574 0.95846 0.59634 0.0
C415 C 0.29132 0.97707 0.57146 0.0
H416 H 0.8168 0.72284 0.23044 0.0
H417 H 0.84672 0.82831 0.25217 0.0
H418 H 0.76632 0.72357 0.18013 0.0
H419 H 0.79763 0.82939 0.20079 0.0
H420 H 0.69331 0.82618 0.12311 0.0
H421 H 0.73733 0.82208 0.17689 0.0
H422 H 0.75074 0.73228 0.12241 0.0
H423 H 0.70483 0.7356 0.06914 0.0
C424 C 0.8125 0.74618 0.22422 0.0
C425 C 0.83545 0.77553 0.24503 0.0
C426 C 0.78377 0.74666 0.19525 0.0
C427 C 0.77775 0.77652 0.18607 0.0
C428 C 0.80079 0.8059 0.2073 0.0
C429 C 0.8291 0.8054 0.23666 0.0
C430 C 0.70546 0.80538 0.12282 0.0
C431 C 0.69587 0.78128 0.09198 0.0
C432 C 0.73097 0.80315 0.15359 0.0
C433 C 0.74823 0.77715 0.15408 0.0
C434 C 0.73785 0.7525 0.12333 0.0
C435 C 0.71164 0.75439 0.09268 0.0
H436 H 0.86426 0.20248 0.86401 0.0
H437 H 0.96622 0.25841 0.87026 0.0
H438 H 0.8602 0.16902 0.80841 0.0
H439 H 0.96099 0.22648 0.81331 0.0
H440 H 0.95436 0.1437 0.72425 0.0
H441 H 0.96134 0.17484 0.78243 0.0
H442 H 0.84995 0.17308 0.74883 0.0
H443 H 0.84288 0.14094 0.6915 0.0
C444 C 0.88593 0.20758 0.85367 0.0
C445 C 0.91551 0.2333 0.87168 0.0
C446 C 0.88334 0.1887 0.82138 0.0
C447 C 0.91004 0.19526 0.80599 0.0
C448 C 0.93999 0.22052 0.82437 0.0
C449 C 0.94276 0.23918 0.85688 0.0
C450 C 0.93144 0.15008 0.72935 0.0
C451 C 0.89806 0.13974 0.70334 0.0
C452 C 0.93542 0.16803 0.76267 0.0
C453 C 0.90616 0.17633 0.77055 0.0
C454 C 0.87295 0.1665 0.74414 0.0
C455 C 0.86892 0.14827 0.71108 0.0
H456 H 0.41004 0.22407 0.24882 0.0
H457 H 0.34301 0.27285 0.17946 0.0
H458 H 0.44661 0.22306 0.21049 0.0
H459 H 0.37998 0.27233 0.14153 0.0
H460 H 0.48655 0.31255 0.12437 0.0
H461 H 0.44208 0.30372 0.15358 0.0
H462 H 0.44894 0.20273 0.14926 0.0
H463 H 0.49357 0.21148 0.11985 0.0
C464 C 0.40249 0.23372 0.22488 0.0
C465 C 0.37382 0.24887 0.21741 0.0
C466 C 0.42355 0.23327 0.203 0.0
C467 C 0.41646 0.2481 0.17335 0.0
C468 C 0.38645 0.26127 0.1646 0.0
C469 C 0.36528 0.26152 0.18628 0.0
C470 C 0.47847 0.2884 0.12944 0.0
C471 C 0.49369 0.26276 0.11989 0.0
C472 C 0.45277 0.28327 0.14592 0.0
C473 C 0.44193 0.25248 0.15356 0.0
C474 C 0.45689 0.22673 0.14378 0.0
C475 C 0.48234 0.23175 0.12687 0.0
H476 H 0.91521 0.71785 0.90572 0.0
H477 H 0.90939 0.71456 0.79663 0.0
H478 H 0.93945 0.66906 0.90569 0.0
H479 H 0.93527 0.66708 0.79708 0.0
H480 H 0.97137 0.57319 0.80145 0.0
H481 H 0.93205 0.6108 0.80031 0.0
H482 H 0.9959 0.6606 0.90661 0.0
H483 H 0.03416 0.62274 0.90814 0.0
C484 C 0.91857 0.70641 0.88159 0.0
C485 C 0.91099 0.72039 0.85139 0.0
C486 C 0.93284 0.67867 0.88165 0.0
C487 C 0.93993 0.66443 0.85156 0.0
C488 C 0.93009 0.6772 0.82068 0.0
C489 C 0.91566 0.70474 0.82057 0.0
C490 C 0.9767 0.59196 0.82466 0.0
C491 C 0.00607 0.5951 0.85474 0.0
C492 C 0.95425 0.61357 0.824 0.0
C493 C 0.96079 0.63881 0.85336 0.0
C494 C 0.98958 0.64118 0.88374 0.0
C495 C 0.01183 0.61959 0.88445 0.0
H496 H 0.90962 0.44802 0.36188 0.0
H497 H 0.98126 0.38324 0.36597 0.0
H498 H 0.95557 0.49288 0.36003 0.0
H499 H 0.02718 0.42839 0.36606 0.0
H500 H 0.10987 0.52414 0.39052 0.0
H501 H 0.06432 0.48643 0.40365 0.0
H502 H 0.98581 0.49908 0.31114 0.0
H503 H 0.0311 0.53606 0.29768 0.0
C504 C 0.9351 0.44331 0.3627 0.0
C505 C 0.94153 0.41184 0.36404 0.0
C506 C 0.96144 0.46909 0.36197 0.0
C507 C 0.99491 0.46406 0.36322 0.0
C508 C 0.00179 0.43305 0.36577 0.0
C509 C 0.97537 0.40718 0.36583 0.0
C510 C 0.08278 0.5192 0.37338 0.0
C511 C 0.074 0.53269 0.34293 0.0
C512 C 0.05683 0.49765 0.38082 0.0
C513 C 0.02165 0.48995 0.35837 0.0
C514 C 0.01266 0.50484 0.32902 0.0
C515 C 0.03863 0.52577 0.32119 0.0
H516 H 0.29965 0.43515 0.85675 0.0
H517 H 0.22576 0.36949 0.76296 0.0
H518 H 0.25252 0.45954 0.86611 0.0
H519 H 0.1781 0.39343 0.77265 0.0
H520 H 0.11294 0.47242 0.78095 0.0
H521 H 0.1563 0.4425 0.77047 0.0
H522 H 0.2014 0.44922 0.8831 0.0
H523 H 0.15913 0.47999 0.89345 0.0
C524 C 0.27316 0.42557 0.83844 0.0
C525 C 0.26641 0.40035 0.8092 0.0
C526 C 0.24603 0.43949 0.84381 0.0
C527 C 0.21133 0.42835 0.82025 0.0
C528 C 0.20453 0.4029 0.79109 0.0
C529 C 0.2318 0.38912 0.78558 0.0
C530 C 0.13188 0.46711 0.80336 0.0
C531 C 0.13289 0.47888 0.83802 0.0
C532 C 0.1567 0.44989 0.7974 0.0
C533 C 0.18277 0.44385 0.82599 0.0
C534 C 0.1824 0.45418 0.86049 0.0
C535 C 0.15796 0.47164 0.86642 0.0
H536 H 0.38853 0.76971 0.33204 0.0
H537 H 0.30771 0.77659 0.23804 0.0
H538 H 0.34834 0.72317 0.33985 0.0
H539 H 0.26784 0.73051 0.2458 0.0
H540 H 0.21335 0.63049 0.24908 0.0
H541 H 0.25893 0.6723 0.24265 0.0
H542 H 0.29392 0.71125 0.35506 0.0
H543 H 0.24855 0.66865 0.36169 0.0
C544 C 0.36226 0.76122 0.31302 0.0
C545 C 0.35146 0.77664 0.28422 0.0
C546 C 0.33924 0.73466 0.31753 0.0
C547 C 0.30494 0.72299 0.29334 0.0
C548 C 0.29431 0.73836 0.26451 0.0
C549 C 0.31724 0.7648 0.26 0.0
C550 C 0.2309 0.64778 0.27254 0.0
C551 C 0.22707 0.64645 0.30587 0.0
C552 C 0.25696 0.67187 0.26879 0.0
C553 C 0.27976 0.69542 0.29824 0.0
C554 C 0.2769 0.69335 0.33186 0.0
C555 C 0.25082 0.66904 0.33565 0.0
H556 H 0.92234 0.86273 0.71207 0.0
H557 H 0.87859 0.90656 0.78729 0.0
H558 H 0.89492 0.89374 0.6694 0.0
H559 H 0.85213 0.93881 0.74509 0.0
H560 H 0.80103 0.98778 0.65511 0.0
H561 H 0.81134 0.94296 0.68698 0.0
H562 H 0.91304 0.95132 0.67181 0.0
H563 H 0.90265 0.99482 0.64008 0.0
C564 C 0.90651 0.87884 0.71923 0.0
C565 C 0.90301 0.88285 0.753 0.0
C566 C 0.89083 0.89658 0.6949 0.0
C567 C 0.87194 0.9192 0.70414 0.0
C568 C 0.86636 0.92147 0.73711 0.0
C569 C 0.88168 0.90326 0.76134 0.0
C570 C 0.82521 0.97946 0.65816 0.0
C571 C 0.85116 0.99493 0.64544 0.0
C572 C 0.8312 0.95403 0.6765 0.0
C573 C 0.86294 0.9435 0.68178 0.0
C574 C 0.88804 0.95831 0.66773 0.0
C575 C 0.88223 0.9836 0.64984 0.0
H576 H 0.81289 0.29887 0.28525 0.0
H577 H 0.8098 0.39652 0.32991 0.0
H578 H 0.75523 0.29253 0.24188 0.0
H579 H 0.75137 0.39 0.28691 0.0
H580 H 0.67085 0.37981 0.17562 0.0
H581 H 0.72452 0.38722 0.2253 0.0
H582 H 0.69421 0.28611 0.23317 0.0
H583 H 0.64124 0.27844 0.1826 0.0
C584 C 0.79951 0.31877 0.28619 0.0
C585 C 0.81579 0.34816 0.31101 0.0
C586 C 0.76634 0.31512 0.26138 0.0
C587 C 0.74845 0.34069 0.26092 0.0
C588 C 0.76455 0.36995 0.28619 0.0
C589 C 0.79795 0.37369 0.31087 0.0
C590 C 0.67543 0.35928 0.18825 0.0
C591 C 0.65199 0.32844 0.17494 0.0
C592 C 0.70618 0.36356 0.21689 0.0
C593 C 0.71398 0.33716 0.23306 0.0
C594 C 0.6895 0.30678 0.22085 0.0
C595 C 0.65898 0.30242 0.19199 0.0
H596 H 0.31212 0.29632 0.61322 0.0
H597 H 0.39207 0.30024 0.71237 0.0
H598 H 0.32198 0.24416 0.58914 0.0
H599 H 0.40147 0.24748 0.68834 0.0
H600 H 0.42896 0.16823 0.61249 0.0
H601 H 0.4234 0.22127 0.6406 0.0
H602 H 0.31006 0.18798 0.6015 0.0
H603 H 0.31539 0.1355 0.57353 0.0
C604 C 0.33204 0.28618 0.62976 0.0
C605 C 0.35126 0.30233 0.6647 0.0
C606 C 0.33743 0.25615 0.6161 0.0
C607 C 0.36226 0.24163 0.637 0.0
C608 C 0.38222 0.25815 0.67164 0.0
C609 C 0.37664 0.28816 0.68543 0.0
C610 C 0.40291 0.17215 0.61031 0.0
C611 C 0.37264 0.14773 0.59049 0.0
C612 C 0.39974 0.20247 0.6264 0.0
C613 C 0.36627 0.20888 0.62271 0.0
C614 C 0.33618 0.18398 0.60414 0.0
C615 C 0.3393 0.1538 0.5883 0.0
H616 H 0.40743 0.82764 0.09249 0.0
H617 H 0.48191 0.88979 0.18849 0.0
H618 H 0.45426 0.82745 0.06649 0.0
H619 H 0.5293 0.88903 0.16238 0.0
H620 H 0.59355 0.89967 0.08095 0.0
H621 H 0.54863 0.90645 0.10929 0.0
H622 H 0.50671 0.80189 0.0821 0.0
H623 H 0.55078 0.79502 0.05417 0.0
C624 C 0.43376 0.84162 0.10791 0.0
C625 C 0.44098 0.85872 0.14256 0.0
C626 C 0.46063 0.84129 0.0931 0.0
C627 C 0.49541 0.85806 0.11253 0.0
C628 C 0.50265 0.87603 0.14681 0.0
C629 C 0.47566 0.87618 0.16182 0.0
C630 C 0.57479 0.87821 0.08121 0.0
C631 C 0.57563 0.84687 0.06506 0.0
C632 C 0.54924 0.88208 0.0975 0.0
C633 C 0.52401 0.8547 0.09747 0.0
C634 C 0.52545 0.82347 0.082 0.0
C635 C 0.5509 0.81959 0.0661 0.0
H636 H 0.82681 0.2337 0.40959 0.0
H637 H 0.92699 0.25251 0.49241 0.0
H638 H 0.79838 0.20352 0.44561 0.0
H639 H 0.89916 0.22256 0.52795 0.0
H640 H 0.85038 0.18019 0.59554 0.0
H641 H 0.85732 0.22213 0.56071 0.0
H642 H 0.80255 0.14979 0.46468 0.0
H643 H 0.79449 0.10813 0.49991 0.0
C644 C 0.84254 0.23181 0.4357 0.0
C645 C 0.87908 0.24505 0.44821 0.0
C646 C 0.82635 0.21454 0.45619 0.0
C647 C 0.84645 0.21085 0.48969 0.0
C648 C 0.88273 0.22543 0.50258 0.0
C649 C 0.89883 0.24225 0.48207 0.0
C650 C 0.83832 0.17373 0.56704 0.0
C651 C 0.82205 0.14113 0.55024 0.0
C652 C 0.84254 0.1976 0.54709 0.0
C653 C 0.83135 0.18903 0.50998 0.0
C654 C 0.81143 0.15715 0.49323 0.0
C655 C 0.80672 0.13329 0.51333 0.0
H656 H 0.33957 0.33224 0.87518 0.0
H657 H 0.42098 0.38636 0.8427 0.0
H658 H 0.38474 0.32021 0.92388 0.0
H659 H 0.46601 0.37407 0.89099 0.0
H660 H 0.53239 0.37875 0.00669 0.0
H661 H 0.48756 0.38928 0.95707 0.0
H662 H 0.43221 0.28782 0.93252 0.0
H663 H 0.47713 0.27715 0.98233 0.0
C664 C 0.3671 0.34161 0.87854 0.0
C665 C 0.37678 0.36022 0.85518 0.0
C666 C 0.39291 0.33447 0.90615 0.0
C667 C 0.42888 0.34617 0.91118 0.0
C668 C 0.43851 0.36491 0.8879 0.0
C669 C 0.41275 0.37174 0.86013 0.0
C670 C 0.51077 0.35862 0.99065 0.0
C671 C 0.50834 0.3271 0.99846 0.0
C672 C 0.48517 0.36465 0.96213 0.0
C673 C 0.45637 0.33939 0.94096 0.0
C674 C 0.45397 0.30781 0.9486 0.0
C675 C 0.47981 0.30168 0.97695 0.0
H676 H 0.40459 0.92368 0.30141 0.0
H677 H 0.44376 0.86468 0.37687 0.0
H678 H 0.40964 0.96732 0.34949 0.0
H679 H 0.4476 0.90856 0.42525 0.0
H680 H 0.45934 0.01075 0.50097 0.0
H681 H 0.4734 0.97368 0.457 0.0
H682 H 0.36693 0.95768 0.38629 0.0
H683 H 0.35281 0.99366 0.42941 0.0
C684 C 0.41552 0.92036 0.32824 0.0
C685 C 0.42334 0.89038 0.33518 0.0
C686 C 0.41812 0.94537 0.3558 0.0
C687 C 0.42845 0.941 0.39091 0.0
C688 C 0.43956 0.91245 0.39833 0.0
C689 C 0.43701 0.88728 0.37063 0.0
C690 C 0.43906 0.9992 0.47602 0.0
C691 C 0.40497 0.0051 0.4687 0.0
C692 C 0.4471 0.9781 0.451 0.0
C693 C 0.42136 0.96335 0.41817 0.0
C694 C 0.38744 0.96922 0.41114 0.0
C695 C 0.3793 0.98966 0.43607 0.0
H696 H 0.8079 0.75042 0.86998 0.0
H697 H 0.86786 0.85066 0.90702 0.0
H698 H 0.76468 0.76355 0.89668 0.0
H699 H 0.82283 0.86451 0.931 0.0
H700 H 0.75317 0.86818 0.00339 0.0
H701 H 0.79817 0.85947 0.97629 0.0
H702 H 0.71854 0.78977 0.88912 0.0
H703 H 0.67458 0.79712 0.91747 0.0
C704 C 0.81194 0.7753 0.88378 0.0
C705 C 0.84152 0.79941 0.8862 0.0
C706 C 0.78665 0.78305 0.89856 0.0
C707 C 0.7898 0.8153 0.91563 0.0
C708 C 0.8195 0.8394 0.91828 0.0
C709 C 0.84514 0.83151 0.90399 0.0
C710 C 0.74543 0.85147 0.97815 0.0
C711 C 0.71063 0.83316 0.96255 0.0
C712 C 0.77113 0.84641 0.96255 0.0
C713 C 0.76225 0.82336 0.93076 0.0
C714 C 0.72675 0.80683 0.91416 0.0
C715 C 0.7014 0.81134 0.93012 0.0
loop_
_geom_bond_atom_site_label_1
_geom_bond_atom_site_label_2
_geom_bond_distance
_geom_bond_site_symmetry_2
_ccdc_geom_bond_type
H0 C1 0.949 . S
C1 H0 0.949 . S
C1 C2 1.395 . S
C1 C3 1.391 . S
C2 C1 1.395 . S
C2 C5 1.390 . S
C3 C1 1.391 . S
C3 C7 1.387 . S
C3 C8 1.491 . S
H4 C5 0.950 . S
C5 C2 1.390 . S
C5 H4 0.950 . S
C5 C6 1.378 . S
C6 C5 1.378 . S
C6 C7 1.409 . S
C7 C3 1.387 . S
C7 C6 1.409 . S
C7 H9 0.951 . S
C8 C3 1.491 . S
C8 C10 1.382 . S
C8 C12 1.404 . S
H9 C7 0.951 . S
C10 C8 1.382 . S
C10 C11 1.390 . S
C10 H15 0.949 . S
C11 C10 1.390 . S
C11 C16 1.399 . S
C12 C8 1.404 . S
C12 H13 0.950 . S
C12 C14 1.375 . S
H13 C12 0.950 . S
C14 C12 1.375 . S
C14 C16 1.382 . S
C14 H18 0.950 . S
H15 C10 0.949 . S
C16 C11 1.399 . S
C16 C14 1.382 . S
C16 H17 0.952 . S
H17 C16 0.952 . S
H18 C14 0.950 . S
H19 C20 0.949 . S
C20 H19 0.949 . S
C20 C21 1.395 . S
C20 C22 1.391 . S
C21 C20 1.395 . S
C21 C24 1.390 . S
C22 C20 1.391 . S
C22 C26 1.387 . S
C22 C27 1.491 . S
H23 C24 0.950 . S
C24 C21 1.390 . S
C24 H23 0.950 . S
C24 C25 1.378 . S
C25 C24 1.378 . S
C25 C26 1.409 . S
C26 C22 1.387 . S
C26 C25 1.409 . S
C26 H28 0.951 . S
C27 C22 1.491 . S
C27 C29 1.382 . S
C27 C31 1.404 . S
H28 C26 0.951 . S
C29 C27 1.382 . S
C29 C30 1.390 . S
C29 H34 0.949 . S
C30 C29 1.390 . S
C30 C35 1.399 . S
C31 C27 1.404 . S
C31 H32 0.950 . S
C31 C33 1.375 . S
H32 C31 0.950 . S
C33 C31 1.375 . S
C33 C35 1.382 . S
C33 H37 0.950 . S
H34 C29 0.949 . S
C35 C30 1.399 . S
C35 C33 1.382 . S
C35 H36 0.952 . S
H36 C35 0.952 . S
H37 C33 0.950 . S
H38 C39 0.949 . S
C39 H38 0.949 . S
C39 C40 1.395 . S
C39 C41 1.391 . S
C40 C39 1.395 . S
C40 C43 1.390 . S
C41 C39 1.391 . S
C41 C45 1.387 . S
C41 C46 1.491 . S
H42 C43 0.950 . S
C43 C40 1.390 . S
C43 H42 0.950 . S
C43 C44 1.378 . S
C44 C43 1.378 . S
C44 C45 1.409 . S
C45 C41 1.387 . S
C45 C44 1.409 . S
C45 H47 0.951 . S
C46 C41 1.491 . S
C46 C48 1.382 . S
C46 C50 1.404 . S
H47 C45 0.951 . S
C48 C46 1.382 . S
C48 C49 1.390 . S
C48 H53 0.949 . S
C49 C48 1.390 . S
C49 C54 1.399 . S
C50 C46 1.404 . S
C50 H51 0.950 . S
C50 C52 1.375 . S
H51 C50 0.950 . S
C52 C50 1.375 . S
C52 C54 1.382 . S
C52 H56 0.950 . S
H53 C48 0.949 . S
C54 C49 1.399 . S
C54 C52 1.382 . S
C54 H55 0.952 . S
H55 C54 0.952 . S
H56 C52 0.950 . S
H57 C58 0.949 1_554 S
C58 H57 0.949 1_556 S
C58 C59 1.395 . S
C58 C60 1.391 . S
C59 C58 1.395 . S
C59 C62 1.390 . S
C60 C58 1.391 . S
C60 C64 1.387 . S
C60 C65 1.491 1_556 S
H61 C62 0.950 . S
C62 C59 1.390 . S
C62 H61 0.950 . S
C62 C63 1.378 . S
C63 C62 1.378 . S
C63 C64 1.409 . S
C64 C60 1.387 . S
C64 C63 1.409 . S
C64 H66 0.951 . S
C65 C60 1.491 1_554 S
C65 C67 1.382 . S
C65 C69 1.404 . S
H66 C64 0.951 . S
C67 C65 1.382 . S
C67 C68 1.390 . S
C67 H72 0.949 . S
C68 C67 1.390 . S
C68 C73 1.399 . S
C69 C65 1.404 . S
C69 H70 0.950 . S
C69 C71 1.375 . S
H70 C69 0.950 . S
C71 C69 1.375 . S
C71 C73 1.382 . S
C71 H75 0.950 . S
H72 C67 0.949 . S
C73 C68 1.399 . S
C73 C71 1.382 . S
C73 H74 0.952 . S
H74 C73 0.952 . S
H75 C71 0.950 . S
H76 C77 0.949 1_455 S
C77 H76 0.949 1_655 S
C77 C78 1.395 . S
C77 C79 1.391 . S
C78 C77 1.395 . S
C78 C81 1.390 . S
C79 C77 1.391 . S
C79 C83 1.387 . S
C79 C84 1.491 . S
H80 C81 0.950 . S
C81 C78 1.390 . S
C81 H80 0.950 . S
C81 C82 1.378 . S
C82 C81 1.378 . S
C82 C83 1.409 . S
C83 C79 1.387 . S
C83 C82 1.409 . S
C83 H85 0.951 . S
C84 C79 1.491 . S
C84 C86 1.382 . S
C84 C88 1.404 . S
H85 C83 0.951 . S
C86 C84 1.382 . S
C86 C87 1.390 . S
C86 H91 0.949 . S
C87 C86 1.390 . S
C87 C92 1.399 . S
C88 C84 1.404 . S
C88 H89 0.950 . S
C88 C90 1.375 . S
H89 C88 0.950 . S
C90 C88 1.375 . S
C90 C92 1.382 . S
C90 H94 0.950 . S
H91 C86 0.949 . S
C92 C87 1.399 . S
C92 C90 1.382 . S
C92 H93 0.952 . S
H93 C92 0.952 . S
H94 C90 0.950 . S
H95 C96 0.949 . S
C96 H95 0.949 . S
C96 C97 1.395 . S
C96 C98 1.391 . S
C97 C96 1.395 . S
C97 C100 1.390 . S
C98 C96 1.391 . S
C98 C102 1.387 . S
C98 C103 1.491 . S
H99 C100 0.950 . S
C100 C97 1.390 . S
C100 H99 0.950 . S
C100 C101 1.378 . S
C101 C100 1.378 . S
C101 C102 1.409 . S
C102 C98 1.387 . S
C102 C101 1.409 . S
C102 H104 0.951 . S
C103 C98 1.491 . S
C103 C105 1.382 . S
C103 C107 1.404 . S
H104 C102 0.951 . S
C105 C103 1.382 . S
C105 C106 1.390 . S
C105 H110 0.949 . S
C106 C105 1.390 . S
C106 C111 1.399 . S
C107 C103 1.404 . S
C107 H108 0.950 . S
C107 C109 1.375 . S
H108 C107 0.950 . S
C109 C107 1.375 . S
C109 C111 1.382 . S
C109 H113 0.950 . S
H110 C105 0.949 . S
C111 C106 1.399 . S
C111 C109 1.382 . S
C111 H112 0.952 . S
H112 C111 0.952 . S
H113 C109 0.950 . S
H114 C115 0.949 . S
C115 H114 0.949 . S
C115 C116 1.395 . S
C115 C117 1.391 . S
C116 C115 1.395 . S
C116 C119 1.390 . S
C117 C115 1.391 . S
C117 C121 1.387 . S
C117 C122 1.491 . S
H118 C119 0.950 . S
C119 C116 1.390 . S
C119 H118 0.950 . S
C119 C120 1.378 . S
C120 C119 1.378 . S
C120 C121 1.409 . S
C121 C117 1.387 . S
C121 C120 1.409 . S
C121 H123 0.951 . S
C122 C117 1.491 . S
C122 C124 1.382 . S
C122 C126 1.404 . S
H123 C121 0.951 . S
C124 C122 1.382 . S
C124 C125 1.390 . S
C124 H129 0.949 . S
C125 C124 1.390 . S
C125 C130 1.399 . S
C126 C122 1.404 . S
C126 H127 0.950 . S
C126 C128 1.375 . S
H127 C126 0.950 . S
C128 C126 1.375 . S
C128 C130 1.382 . S
C128 H132 0.950 . S
H129 C124 0.949 . S
C130 C125 1.399 . S
C130 C128 1.382 . S
C130 H131 0.952 . S
H131 C130 0.952 . S
H132 C128 0.950 . S
H133 C134 0.949 . S
C134 H133 0.949 . S
C134 C135 1.395 . S
C134 C136 1.391 . S
C135 C134 1.395 . S
C135 C138 1.390 . S
C136 C134 1.391 . S
C136 C140 1.387 . S
C136 C141 1.491 . S
H137 C138 0.950 . S
C138 C135 1.390 . S
C138 H137 0.950 . S
C138 C139 1.378 . S
C139 C138 1.378 . S
C139 C140 1.409 . S
C140 C136 1.387 . S
C140 C139 1.409 . S
C140 H142 0.951 . S
C141 C136 1.491 . S
C141 C143 1.382 . S
C141 C145 1.404 . S
H142 C140 0.951 . S
C143 C141 1.382 . S
C143 C144 1.390 . S
C143 H148 0.949 . S
C144 C143 1.390 . S
C144 C149 1.399 . S
C145 C141 1.404 . S
C145 H146 0.950 . S
C145 C147 1.375 . S
H146 C145 0.950 . S
C147 C145 1.375 . S
C147 C149 1.382 . S
C147 H151 0.950 . S
H148 C143 0.949 . S
C149 C144 1.399 . S
C149 C147 1.382 . S
C149 H150 0.952 . S
H150 C149 0.952 . S
H151 C147 0.950 . S
C152 O154 1.247 1_655 S
C152 O156 1.258 . S
C153 O160 1.247 . S
C153 O161 1.258 . S
O154 C152 1.247 1_455 S
O154 Zn155 2.028 . S
Zn155 O154 2.028 . S
Zn155 O159 2.035 . S
Zn155 O161 2.035 . S
Zn155 O162 2.028 . S
O156 C152 1.258 . S
O156 Zn157 2.035 1_655 S
Zn157 O156 2.035 1_455 S
Zn157 O158 2.028 . S
Zn157 O160 2.028 . S
Zn157 O163 2.035 1_455 S
O158 Zn157 2.028 . S
O158 C164 1.247 . S
O159 Zn155 2.035 . S
O159 C164 1.258 . S
O160 C153 1.247 . S
O160 Zn157 2.028 . S
O161 C153 1.258 . S
O161 Zn155 2.035 . S
O162 Zn155 2.028 . S
O162 C165 1.247 . S
O163 Zn157 2.035 1_655 S
O163 C165 1.258 1_655 S
C164 O158 1.247 . S
C164 O159 1.258 . S
C165 O162 1.247 . S
C165 O163 1.258 1_455 S
C166 O168 1.247 . S
C166 O170 1.258 . S
C167 O174 1.247 . S
C167 O175 1.258 . S
O168 C166 1.247 . S
O168 Zn169 2.028 . S
Zn169 O168 2.028 . S
Zn169 O173 2.035 . S
Zn169 O175 2.035 . S
Zn169 O176 2.028 . S
O170 C166 1.258 . S
O170 Zn171 2.035 . S
Zn171 O170 2.035 . S
Zn171 O172 2.028 . S
Zn171 O174 2.028 . S
Zn171 O177 2.035 . S
O172 Zn171 2.028 . S
O172 C178 1.247 . S
O173 Zn169 2.035 . S
O173 C178 1.258 . S
O174 C167 1.247 . S
O174 Zn171 2.028 . S
O175 C167 1.258 . S
O175 Zn169 2.035 . S
O176 Zn169 2.028 . S
O176 C179 1.247 . S
O177 Zn171 2.035 . S
O177 C179 1.258 . S
C178 O172 1.247 . S
C178 O173 1.258 . S
C179 O176 1.247 . S
C179 O177 1.258 . S
C180 O182 1.247 . S
C180 O184 1.258 . S
C181 O188 1.247 . S
C181 O189 1.258 . S
O182 C180 1.247 . S
O182 Zn183 2.028 1_565 S
Zn183 O182 2.028 1_545 S
Zn183 O187 2.035 . S
Zn183 O189 2.035 . S
Zn183 O190 2.028 1_545 S
O184 C180 1.258 . S
O184 Zn185 2.035 1_565 S
Zn185 O184 2.035 1_545 S
Zn185 O186 2.028 . S
Zn185 O188 2.028 . S
Zn185 O191 2.032 1_545 S
O186 Zn185 2.028 . S
O186 C192 1.247 . S
O187 Zn183 2.035 . S
O187 C192 1.258 . S
O188 C181 1.247 . S
O188 Zn185 2.028 . S
O189 C181 1.258 . S
O189 Zn183 2.035 . S
O190 Zn183 2.028 1_565 S
O190 C193 1.247 . S
O191 Zn185 2.032 1_565 S
O191 C193 1.260 . S
C192 O186 1.247 . S
C192 O187 1.258 . S
C193 O190 1.247 . S
C193 O191 1.260 . S
C194 O196 1.247 . S
C194 O198 1.258 . S
C195 O202 1.247 . S
C195 O203 1.258 . S
O196 C194 1.247 . S
O196 Zn197 2.028 1_554 S
Zn197 O196 2.028 1_556 S
Zn197 O201 2.035 1_556 S
Zn197 O203 2.035 . S
Zn197 O204 2.028 . S
O198 C194 1.258 . S
O198 Zn199 2.035 . S
Zn199 O198 2.035 . S
Zn199 O200 2.028 . S
Zn199 O202 2.028 1_554 S
Zn199 O205 2.035 1_554 S
O200 Zn199 2.028 . S
O200 C206 1.247 . S
O201 Zn197 2.035 1_554 S
O201 C206 1.258 . S
O202 C195 1.247 . S
O202 Zn199 2.028 1_556 S
O203 C195 1.258 . S
O203 Zn197 2.035 . S
O204 Zn197 2.028 . S
O204 C207 1.247 . S
O205 Zn199 2.035 1_556 S
O205 C207 1.258 . S
C206 O200 1.247 . S
C206 O201 1.258 . S
C207 O204 1.247 . S
C207 O205 1.258 . S
C208 O210 1.247 1_455 S
C208 O212 1.258 . S
C209 O216 1.247 1_655 S
C209 O217 1.258 . S
O210 C208 1.247 1_655 S
O210 Zn211 2.028 . S
Zn211 O210 2.028 . S
Zn211 O215 2.035 . S
Zn211 O217 2.035 . S
Zn211 O218 2.028 . S
O212 C208 1.258 . S
O212 Zn213 2.035 . S
Zn213 O212 2.035 . S
Zn213 O214 2.028 . S
Zn213 O216 2.028 . S
Zn213 O219 2.035 . S
O214 Zn213 2.028 . S
O214 C220 1.247 1_455 S
O215 Zn211 2.035 . S
O215 C220 1.258 . S
O216 C209 1.247 1_455 S
O216 Zn213 2.028 . S
O217 C209 1.258 . S
O217 Zn211 2.035 . S
O218 Zn211 2.028 . S
O218 C221 1.247 . S
O219 Zn213 2.035 . S
O219 C221 1.258 1_455 S
C220 O214 1.247 1_655 S
C220 O215 1.258 . S
C221 O218 1.247 . S
C221 O219 1.258 1_655 S
C222 O224 1.247 . S
C222 O226 1.258 . S
C223 O230 1.247 . S
C223 O231 1.258 . S
O224 C222 1.247 . S
O224 Zn225 2.028 . S
Zn225 O224 2.028 . S
Zn225 O229 2.035 . S
Zn225 O231 2.035 . S
Zn225 O232 2.028 . S
O226 C222 1.258 . S
O226 Zn227 2.035 . S
Zn227 O226 2.035 . S
Zn227 O228 2.028 . S
Zn227 O230 2.028 . S
Zn227 O233 2.035 . S
O228 Zn227 2.028 . S
O228 C234 1.247 . S
O229 Zn225 2.035 . S
O229 C234 1.258 . S
O230 C223 1.247 . S
O230 Zn227 2.028 . S
O231 C223 1.258 . S
O231 Zn225 2.035 . S
O232 Zn225 2.028 . S
O232 C235 1.247 . S
O233 Zn227 2.035 . S
O233 C235 1.258 . S
C234 O228 1.247 . S
C234 O229 1.258 . S
C235 O232 1.247 . S
C235 O233 1.258 . S
H236 C244 0.950 . S
H237 C249 0.950 . S
H238 C246 0.950 . S
H239 C248 0.950 . S
H240 C250 0.950 . S
H241 C252 0.950 . S
H242 C254 0.950 . S
H243 C255 0.950 . S
C244 H236 0.950 . S
C244 C245 1.386 . S
C244 C246 1.391 . S
C245 C244 1.386 . S
C245 C249 1.393 . S
C246 H238 0.950 . S
C246 C244 1.391 . S
C246 C247 1.400 . S
C247 C246 1.400 . S
C247 C248 1.398 . S
C247 C253 1.491 . S
C248 H239 0.950 . S
C248 C247 1.398 . S
C248 C249 1.391 . S
C249 H237 0.950 . S
C249 C245 1.393 . S
C249 C248 1.391 . S
C250 H240 0.950 . S
C250 C251 1.386 . S
C250 C252 1.391 . S
C251 C250 1.386 . S
C251 C255 1.393 . S
C252 H241 0.950 . S
C252 C250 1.391 . S
C252 C253 1.400 . S
C253 C247 1.491 . S
C253 C252 1.400 . S
C253 C254 1.398 . S
C254 H242 0.950 . S
C254 C253 1.398 . S
C254 C255 1.391 . S
C255 H243 0.950 . S
C255 C251 1.393 . S
C255 C254 1.391 . S
H256 C264 0.950 . S
H257 C269 0.950 . S
H258 C266 0.950 . S
H259 C268 0.950 . S
H260 C270 0.950 . S
H261 C272 0.950 . S
H262 C274 0.950 . S
H263 C275 0.950 . S
C264 H256 0.950 . S
C264 C265 1.386 . S
C264 C266 1.391 . S
C265 C264 1.386 . S
C265 C269 1.393 . S
C266 H258 0.950 . S
C266 C264 1.391 . S
C266 C267 1.400 . S
C267 C266 1.400 . S
C267 C268 1.398 . S
C267 C273 1.491 . S
C268 H259 0.950 . S
C268 C267 1.398 . S
C268 C269 1.391 . S
C269 H257 0.950 . S
C269 C265 1.393 . S
C269 C268 1.391 . S
C270 H260 0.950 . S
C270 C271 1.386 . S
C270 C272 1.391 . S
C271 C270 1.386 . S
C271 C275 1.393 . S
C272 H261 0.950 . S
C272 C270 1.391 . S
C272 C273 1.400 . S
C273 C267 1.491 . S
C273 C272 1.400 . S
C273 C274 1.398 . S
C274 H262 0.950 . S
C274 C273 1.398 . S
C274 C275 1.391 . S
C275 H263 0.950 . S
C275 C271 1.393 . S
C275 C274 1.391 . S
H276 C284 0.950 . S
H277 C289 0.950 . S
H278 C286 0.950 . S
H279 C288 0.950 . S
H280 C290 0.950 . S
H281 C292 0.950 1_455 S
H282 C294 0.950 . S
H283 C295 0.950 . S
C284 H276 0.950 . S
C284 C285 1.386 . S
C284 C286 1.391 . S
C285 C284 1.386 . S
C285 C289 1.393 . S
C286 H278 0.950 . S
C286 C284 1.391 . S
C286 C287 1.400 . S
C287 C286 1.400 . S
C287 C288 1.398 . S
C287 C293 1.491 . S
C288 H279 0.950 . S
C288 C287 1.398 . S
C288 C289 1.391 . S
C289 H277 0.950 . S
C289 C285 1.393 . S
C289 C288 1.391 . S
C290 H280 0.950 . S
C290 C291 1.386 1_455 S
C290 C292 1.391 1_455 S
C291 C290 1.386 1_655 S
C291 C295 1.393 . S
C292 H281 0.950 1_655 S
C292 C290 1.391 1_655 S
C292 C293 1.400 . S
C293 C287 1.491 . S
C293 C292 1.400 . S
C293 C294 1.398 . S
C294 H282 0.950 . S
C294 C293 1.398 . S
C294 C295 1.391 . S
C295 H283 0.950 . S
C295 C291 1.393 . S
C295 C294 1.391 . S
H296 C304 0.950 . S
H297 C309 0.950 . S
H298 C306 0.950 . S
H299 C308 0.950 . S
H300 C310 0.950 . S
H301 C312 0.950 . S
H302 C314 0.950 . S
H303 C315 0.950 . S
C304 H296 0.950 . S
C304 C305 1.386 . S
C304 C306 1.391 1_655 S
C305 C304 1.386 . S
C305 C309 1.393 . S
C306 H298 0.950 . S
C306 C304 1.391 1_455 S
C306 C307 1.400 . S
C307 C306 1.400 . S
C307 C308 1.398 1_455 S
C307 C313 1.491 . S
C308 H299 0.950 . S
C308 C307 1.398 1_655 S
C308 C309 1.391 . S
C309 H297 0.950 . S
C309 C305 1.393 . S
C309 C308 1.391 . S
C310 H300 0.950 . S
C310 C311 1.386 . S
C310 C312 1.391 . S
C311 C310 1.386 . S
C311 C315 1.393 . S
C312 H301 0.950 . S
C312 C310 1.391 . S
C312 C313 1.400 . S
C313 C307 1.491 . S
C313 C312 1.400 . S
C313 C314 1.398 . S
C314 H302 0.950 . S
C314 C313 1.398 . S
C314 C315 1.391 . S
C315 H303 0.950 . S
C315 C311 1.393 . S
C315 C314 1.391 . S
H316 C324 0.950 . S
H317 C329 0.950 . S
H318 C326 0.950 . S
H319 C328 0.950 . S
H320 C330 0.950 . S
H321 C332 0.950 . S
H322 C334 0.950 . S
H323 C335 0.950 . S
C324 H316 0.950 . S
C324 C325 1.386 . S
C324 C326 1.391 . S
C325 C324 1.386 . S
C325 C329 1.393 . S
C326 H318 0.950 . S
C326 C324 1.391 . S
C326 C327 1.400 . S
C327 C326 1.400 . S
C327 C328 1.398 . S
C327 C333 1.491 . S
C328 H319 0.950 . S
C328 C327 1.398 . S
C328 C329 1.391 . S
C329 H317 0.950 . S
C329 C325 1.393 . S
C329 C328 1.391 . S
C330 H320 0.950 . S
C330 C331 1.386 . S
C330 C332 1.391 . S
C331 C330 1.386 . S
C331 C335 1.393 . S
C332 H321 0.950 . S
C332 C330 1.391 . S
C332 C333 1.400 . S
C333 C327 1.491 . S
C333 C332 1.400 . S
C333 C334 1.398 . S
C334 H322 0.950 . S
C334 C333 1.398 . S
C334 C335 1.391 . S
C335 H323 0.950 . S
C335 C331 1.393 . S
C335 C334 1.391 . S
H336 C344 0.950 . S
H337 C349 0.950 . S
H338 C346 0.950 . S
H339 C348 0.950 . S
H340 C350 0.950 . S
H341 C352 0.950 . S
H342 C354 0.950 . S
H343 C355 0.950 . S
C344 H336 0.950 . S
C344 C345 1.386 . S
C344 C346 1.391 . S
C345 C344 1.386 . S
C345 C349 1.393 . S
C346 H338 0.950 . S
C346 C344 1.391 . S
C346 C347 1.400 . S
C347 C346 1.400 . S
C347 C348 1.398 . S
C347 C353 1.491 . S
C348 H339 0.950 . S
C348 C347 1.398 . S
C348 C349 1.391 . S
C349 H337 0.950 . S
C349 C345 1.393 . S
C349 C348 1.391 . S
C350 H340 0.950 . S
C350 C351 1.386 . S
C350 C352 1.391 . S
C351 C350 1.386 . S
C351 C355 1.393 . S
C352 H341 0.950 . S
C352 C350 1.391 . S
C352 C353 1.400 . S
C353 C347 1.491 . S
C353 C352 1.400 . S
C353 C354 1.398 . S
C354 H342 0.950 . S
C354 C353 1.398 . S
C354 C355 1.391 . S
C355 H343 0.950 . S
C355 C351 1.393 . S
C355 C354 1.391 . S
H356 C364 0.950 . S
H357 C369 0.950 . S
H358 C366 0.950 1_455 S
H359 C368 0.938 1_545 S
H360 C370 0.950 . S
H361 C372 0.950 . S
H362 C374 0.950 . S
H363 C375 0.950 . S
C364 H356 0.950 . S
C364 C365 1.386 . S
C364 C366 1.391 1_565 S
C365 C364 1.386 . S
C365 C369 1.393 . S
C366 H358 0.950 1_655 S
C366 C364 1.391 1_545 S
C366 C367 1.400 . S
C367 C366 1.400 . S
C367 C368 1.398 1_545 S
C367 C373 1.491 . S
C368 H359 0.938 1_565 S
C368 C367 1.398 1_565 S
C368 C369 1.391 . S
C369 H357 0.950 . S
C369 C365 1.393 . S
C369 C368 1.391 . S
C370 H360 0.950 . S
C370 C371 1.386 . S
C370 C372 1.391 . S
C371 C370 1.386 . S
C371 C375 1.393 1_655 S
C372 H361 0.950 . S
C372 C370 1.391 . S
C372 C373 1.400 . S
C373 C367 1.491 . S
C373 C372 1.400 . S
C373 C374 1.398 1_655 S
C374 H362 0.950 . S
C374 C373 1.398 1_455 S
C374 C375 1.391 . S
C375 H363 0.950 . S
C375 C371 1.393 1_455 S
C375 C374 1.391 . S
H376 C384 0.950 . S
H377 C389 0.950 . S
H378 C386 0.950 . S
H379 C388 0.950 . S
H380 C390 0.950 . S
H381 C392 0.950 . S
H382 C394 0.950 . S
H383 C395 0.950 . S
C384 H376 0.950 . S
C384 C385 1.386 . S
C384 C386 1.391 . S
C385 C384 1.386 . S
C385 C389 1.393 . S
C386 H378 0.950 . S
C386 C384 1.391 . S
C386 C387 1.400 . S
C387 C386 1.400 . S
C387 C388 1.398 . S
C387 C393 1.491 . S
C388 H379 0.950 . S
C388 C387 1.398 . S
C388 C389 1.391 . S
C389 H377 0.950 . S
C389 C385 1.393 . S
C389 C388 1.391 . S
C390 H380 0.950 . S
C390 C391 1.386 . S
C390 C392 1.391 . S
C391 C390 1.386 . S
C391 C395 1.393 . S
C392 H381 0.950 . S
C392 C390 1.391 . S
C392 C393 1.400 . S
C393 C387 1.491 . S
C393 C392 1.400 . S
C393 C394 1.398 . S
C394 H382 0.950 . S
C394 C393 1.398 . S
C394 C395 1.391 . S
C395 H383 0.950 . S
C395 C391 1.393 . S
C395 C394 1.391 . S
H396 C404 0.950 . S
H397 C409 0.950 . S
H398 C406 0.950 . S
H399 C408 0.950 . S
H400 C410 0.950 . S
H401 C412 0.950 . S
H402 C414 0.950 . S
H403 C415 0.950 . S
C404 H396 0.950 . S
C404 C405 1.386 . S
C404 C406 1.391 . S
C405 C404 1.386 . S
C405 C409 1.393 . S
C406 H398 0.950 . S
C406 C404 1.391 . S
C406 C407 1.400 . S
C407 C406 1.400 . S
C407 C408 1.398 . S
C407 C413 1.491 . S
C408 H399 0.950 . S
C408 C407 1.398 . S
C408 C409 1.391 . S
C409 H397 0.950 . S
C409 C405 1.393 . S
C409 C408 1.391 . S
C410 H400 0.950 . S
C410 C411 1.386 . S
C410 C412 1.391 . S
C411 C410 1.386 . S
C411 C415 1.393 . S
C412 H401 0.950 . S
C412 C410 1.391 . S
C412 C413 1.400 . S
C413 C407 1.491 . S
C413 C412 1.400 . S
C413 C414 1.398 . S
C414 H402 0.950 . S
C414 C413 1.398 . S
C414 C415 1.391 . S
C415 H403 0.950 . S
C415 C411 1.393 . S
C415 C414 1.391 . S
H416 C424 0.950 . S
H417 C429 0.950 . S
H418 C426 0.950 . S
H419 C428 0.950 . S
H420 C430 0.950 . S
H421 C432 0.950 . S
H422 C434 0.950 . S
H423 C435 0.950 . S
C424 H416 0.950 . S
C424 C425 1.386 . S
C424 C426 1.391 . S
C425 C424 1.386 . S
C425 C429 1.393 . S
C426 H418 0.950 . S
C426 C424 1.391 . S
C426 C427 1.400 . S
C427 C426 1.400 . S
C427 C428 1.398 . S
C427 C433 1.491 . S
C428 H419 0.950 . S
C428 C427 1.398 . S
C428 C429 1.391 . S
C429 H417 0.950 . S
C429 C425 1.393 . S
C429 C428 1.391 . S
C430 H420 0.950 . S
C430 C431 1.386 . S
C430 C432 1.391 . S
C431 C430 1.386 . S
C431 C435 1.393 . S
C432 H421 0.950 . S
C432 C430 1.391 . S
C432 C433 1.400 . S
C433 C427 1.491 . S
C433 C432 1.400 . S
C433 C434 1.398 . S
C434 H422 0.950 . S
C434 C433 1.398 . S
C434 C435 1.391 . S
C435 H423 0.950 . S
C435 C431 1.393 . S
C435 C434 1.391 . S
H436 C444 0.950 . S
H437 C449 0.950 . S
H438 C446 0.950 . S
H439 C448 0.937 1_455 S
H440 C450 0.950 . S
H441 C452 0.946 1_455 S
H442 C454 0.950 . S
H443 C455 0.950 . S
C444 H436 0.950 . S
C444 C445 1.386 . S
C444 C446 1.391 . S
C445 C444 1.386 . S
C445 C449 1.393 . S
C446 H438 0.950 . S
C446 C444 1.391 . S
C446 C447 1.400 . S
C447 C446 1.400 . S
C447 C448 1.398 . S
C447 C453 1.491 . S
C448 H439 0.937 1_655 S
C448 C447 1.398 . S
C448 C449 1.391 . S
C449 H437 0.950 . S
C449 C445 1.393 . S
C449 C448 1.391 . S
C450 H440 0.950 . S
C450 C451 1.386 1_455 S
C450 C452 1.384 1_455 S
C451 C450 1.386 1_655 S
C451 C455 1.393 . S
C452 H441 0.946 1_655 S
C452 C450 1.384 1_655 S
C452 C453 1.411 . S
C453 C447 1.491 . S
C453 C452 1.411 . S
C453 C454 1.398 . S
C454 H442 0.950 . S
C454 C453 1.398 . S
C454 C455 1.391 . S
C455 H443 0.950 . S
C455 C451 1.393 . S
C455 C454 1.391 . S
H456 C464 0.950 . S
H457 C469 0.950 . S
H458 C466 0.950 . S
H459 C468 0.950 . S
H460 C470 0.950 . S
H461 C472 0.950 . S
H462 C474 0.950 . S
H463 C475 0.950 . S
C464 H456 0.950 . S
C464 C465 1.386 . S
C464 C466 1.391 . S
C465 C464 1.386 . S
C465 C469 1.393 . S
C466 H458 0.950 . S
C466 C464 1.391 . S
C466 C467 1.400 . S
C467 C466 1.400 . S
C467 C468 1.398 . S
C467 C473 1.491 . S
C468 H459 0.950 . S
C468 C467 1.398 . S
C468 C469 1.391 . S
C469 H457 0.950 . S
C469 C465 1.393 . S
C469 C468 1.391 . S
C470 H460 0.950 . S
C470 C471 1.386 . S
C470 C472 1.391 . S
C471 C470 1.386 . S
C471 C475 1.393 . S
C472 H461 0.950 . S
C472 C470 1.391 . S
C472 C473 1.400 . S
C473 C467 1.491 . S
C473 C472 1.400 . S
C473 C474 1.398 . S
C474 H462 0.950 . S
C474 C473 1.398 . S
C474 C475 1.391 . S
C475 H463 0.950 . S
C475 C471 1.393 . S
C475 C474 1.391 . S
H476 C484 0.950 . S
H477 C489 0.950 . S
H478 C486 0.950 . S
H479 C488 0.950 1_655 S
H480 C490 0.950 . S
H481 C492 0.950 . S
H482 C494 0.950 . S
H483 C495 0.950 . S
C484 H476 0.950 . S
C484 C485 1.386 . S
C484 C486 1.391 . S
C485 C484 1.386 . S
C485 C489 1.393 1_455 S
C486 H478 0.950 . S
C486 C484 1.391 . S
C486 C487 1.400 . S
C487 C486 1.400 . S
C487 C488 1.398 . S
C487 C493 1.491 . S
C488 H479 0.950 1_455 S
C488 C487 1.398 . S
C488 C489 1.391 1_455 S
C489 H477 0.950 . S
C489 C485 1.393 1_655 S
C489 C488 1.391 1_655 S
C490 H480 0.950 . S
C490 C491 1.386 . S
C490 C492 1.391 . S
C491 C490 1.386 . S
C491 C495 1.393 . S
C492 H481 0.950 . S
C492 C490 1.391 . S
C492 C493 1.400 . S
C493 C487 1.491 . S
C493 C492 1.400 . S
C493 C494 1.398 . S
C494 H482 0.950 . S
C494 C493 1.398 . S
C494 C495 1.391 . S
C495 H483 0.950 . S
C495 C491 1.393 . S
C495 C494 1.391 . S
H496 C504 0.950 . S
H497 C509 0.950 . S
H498 C506 0.950 . S
H499 C508 0.950 . S
H500 C510 0.950 . S
H501 C512 0.950 . S
H502 C514 0.950 . S
H503 C515 0.950 . S
C504 H496 0.950 . S
C504 C505 1.386 . S
C504 C506 1.391 . S
C505 C504 1.386 . S
C505 C509 1.393 . S
C506 H498 0.950 . S
C506 C504 1.391 . S
C506 C507 1.400 . S
C507 C506 1.400 . S
C507 C508 1.398 . S
C507 C513 1.491 . S
C508 H499 0.950 . S
C508 C507 1.398 . S
C508 C509 1.391 . S
C509 H497 0.950 . S
C509 C505 1.393 . S
C509 C508 1.391 . S
C510 H500 0.950 . S
C510 C511 1.386 . S
C510 C512 1.391 . S
C511 C510 1.386 . S
C511 C515 1.393 . S
C512 H501 0.950 . S
C512 C510 1.391 . S
C512 C513 1.400 . S
C513 C507 1.491 . S
C513 C512 1.400 . S
C513 C514 1.398 . S
C514 H502 0.950 . S
C514 C513 1.398 . S
C514 C515 1.391 . S
C515 H503 0.950 . S
C515 C511 1.393 . S
C515 C514 1.391 . S
H516 C524 0.950 . S
H517 C529 0.950 . S
H518 C526 0.950 . S
H519 C528 0.950 . S
H520 C530 0.950 . S
H521 C532 0.950 . S
H522 C534 0.950 . S
H523 C535 0.950 . S
C524 H516 0.950 . S
C524 C525 1.386 . S
C524 C526 1.391 . S
C525 C524 1.386 . S
C525 C529 1.393 . S
C526 H518 0.950 . S
C526 C524 1.391 . S
C526 C527 1.400 . S
C527 C526 1.400 . S
C527 C528 1.398 . S
C527 C533 1.491 . S
C528 H519 0.950 . S
C528 C527 1.398 . S
C528 C529 1.391 . S
C529 H517 0.950 . S
C529 C525 1.393 . S
C529 C528 1.391 . S
C530 H520 0.950 . S
C530 C531 1.386 . S
C530 C532 1.391 . S
C531 C530 1.386 . S
C531 C535 1.393 . S
C532 H521 0.950 . S
C532 C530 1.391 . S
C532 C533 1.400 . S
C533 C527 1.491 . S
C533 C532 1.400 . S
C533 C534 1.398 . S
C534 H522 0.950 . S
C534 C533 1.398 . S
C534 C535 1.391 . S
C535 H523 0.950 . S
C535 C531 1.393 . S
C535 C534 1.391 . S
H536 C544 0.950 . S
H537 C549 0.950 . S
H538 C546 0.950 . S
H539 C548 0.950 . S
H540 C550 0.950 . S
H541 C552 0.950 . S
H542 C554 0.950 . S
H543 C555 0.950 . S
C544 H536 0.950 . S
C544 C545 1.386 . S
C544 C546 1.391 . S
C545 C544 1.386 . S
C545 C549 1.393 . S
C546 H538 0.950 . S
C546 C544 1.391 . S
C546 C547 1.400 . S
C547 C546 1.400 . S
C547 C548 1.398 . S
C547 C553 1.491 . S
C548 H539 0.950 . S
C548 C547 1.398 . S
C548 C549 1.391 . S
C549 H537 0.950 . S
C549 C545 1.393 . S
C549 C548 1.391 . S
C550 H540 0.950 . S
C550 C551 1.386 . S
C550 C552 1.391 . S
C551 C550 1.386 . S
C551 C555 1.393 . S
C552 H541 0.950 . S
C552 C550 1.391 . S
C552 C553 1.400 . S
C553 C547 1.491 . S
C553 C552 1.400 . S
C553 C554 1.398 . S
C554 H542 0.950 . S
C554 C553 1.398 . S
C554 C555 1.391 . S
C555 H543 0.950 . S
C555 C551 1.393 . S
C555 C554 1.391 . S
H556 C564 0.950 . S
H557 C569 0.950 . S
H558 C566 0.950 1_545 S
H559 C568 0.950 . S
H560 C570 0.950 . S
H561 C572 0.950 . S
H562 C574 0.950 . S
H563 C575 0.950 . S
C564 H556 0.950 . S
C564 C565 1.386 1_455 S
C564 C566 1.391 . S
C565 C564 1.386 1_655 S
C565 C569 1.393 . S
C566 H558 0.950 1_565 S
C566 C564 1.391 . S
C566 C567 1.391 1_455 S
C567 C566 1.391 1_655 S
C567 C568 1.409 . S
C567 C573 1.489 1_665 S
C568 H559 0.950 . S
C568 C567 1.409 . S
C568 C569 1.391 . S
C569 H557 0.950 . S
C569 C565 1.393 . S
C569 C568 1.391 . S
C570 H560 0.950 . S
C570 C571 1.386 1_655 S
C570 C572 1.391 . S
C571 C570 1.386 1_455 S
C571 C575 1.393 . S
C572 H561 0.950 . S
C572 C570 1.391 . S
C572 C573 1.400 1_655 S
C573 C567 1.489 1_445 S
C573 C572 1.400 1_455 S
C573 C574 1.398 . S
C574 H562 0.950 . S
C574 C573 1.398 . S
C574 C575 1.391 . S
C575 H563 0.950 . S
C575 C571 1.393 . S
C575 C574 1.391 . S
H576 C584 0.950 . S
H577 C589 0.950 . S
H578 C586 0.950 . S
H579 C588 0.950 . S
H580 C590 0.950 . S
H581 C592 0.950 . S
H582 C594 0.950 . S
H583 C595 0.950 . S
C584 H576 0.950 . S
C584 C585 1.386 . S
C584 C586 1.391 . S
C585 C584 1.386 . S
C585 C589 1.393 . S
C586 H578 0.950 . S
C586 C584 1.391 . S
C586 C587 1.400 . S
C587 C586 1.400 . S
C587 C588 1.398 . S
C587 C593 1.491 . S
C588 H579 0.950 . S
C588 C587 1.398 . S
C588 C589 1.391 . S
C589 H577 0.950 . S
C589 C585 1.393 . S
C589 C588 1.391 . S
C590 H580 0.950 . S
C590 C591 1.386 . S
C590 C592 1.391 . S
C591 C590 1.386 . S
C591 C595 1.393 . S
C592 H581 0.950 . S
C592 C590 1.391 . S
C592 C593 1.400 . S
C593 C587 1.491 . S
C593 C592 1.400 . S
C593 C594 1.398 . S
C594 H582 0.950 . S
C594 C593 1.398 . S
C594 C595 1.391 . S
C595 H583 0.950 . S
C595 C591 1.393 . S
C595 C594 1.391 . S
H596 C604 0.950 . S
H597 C609 0.950 . S
H598 C606 0.950 . S
H599 C608 0.950 . S
H600 C610 0.950 . S
H601 C612 0.950 . S
H602 C614 0.950 . S
H603 C615 0.950 . S
C604 H596 0.950 . S
C604 C605 1.386 . S
C604 C606 1.391 . S
C605 C604 1.386 . S
C605 C609 1.393 . S
C606 H598 0.950 . S
C606 C604 1.391 . S
C606 C607 1.400 . S
C607 C606 1.400 . S
C607 C608 1.398 . S
C607 C613 1.491 . S
C608 H599 0.950 . S
C608 C607 1.398 . S
C608 C609 1.391 . S
C609 H597 0.950 . S
C609 C605 1.393 . S
C609 C608 1.391 . S
C610 H600 0.950 . S
C610 C611 1.386 . S
C610 C612 1.391 . S
C611 C610 1.386 . S
C611 C615 1.393 . S
C612 H601 0.950 . S
C612 C610 1.391 . S
C612 C613 1.400 . S
C613 C607 1.491 . S
C613 C612 1.400 . S
C613 C614 1.398 . S
C614 H602 0.950 . S
C614 C613 1.398 . S
C614 C615 1.391 . S
C615 H603 0.950 . S
C615 C611 1.393 . S
C615 C614 1.391 . S
H616 C624 0.950 . S
H617 C629 0.950 . S
H618 C626 0.950 . S
H619 C628 0.950 . S
H620 C630 0.950 . S
H621 C632 0.950 . S
H622 C634 0.950 . S
H623 C635 0.950 . S
C624 H616 0.950 . S
C624 C625 1.386 . S
C624 C626 1.391 . S
C625 C624 1.386 . S
C625 C629 1.393 . S
C626 H618 0.950 . S
C626 C624 1.391 . S
C626 C627 1.400 . S
C627 C626 1.400 . S
C627 C628 1.398 . S
C627 C633 1.491 . S
C628 H619 0.950 . S
C628 C627 1.398 . S
C628 C629 1.391 . S
C629 H617 0.950 . S
C629 C625 1.393 . S
C629 C628 1.391 . S
C630 H620 0.950 . S
C630 C631 1.386 . S
C630 C632 1.391 . S
C631 C630 1.386 . S
C631 C635 1.393 . S
C632 H621 0.950 . S
C632 C630 1.391 . S
C632 C633 1.400 . S
C633 C627 1.491 . S
C633 C632 1.400 . S
C633 C634 1.398 . S
C634 H622 0.950 . S
C634 C633 1.398 . S
C634 C635 1.391 . S
C635 H623 0.950 . S
C635 C631 1.393 . S
C635 C634 1.391 . S
H636 C644 0.950 . S
H637 C649 0.950 . S
H638 C646 0.950 . S
H639 C648 0.950 . S
H640 C650 0.950 1_455 S
H641 C652 0.950 . S
H642 C654 0.950 . S
H643 C655 0.950 . S
C644 H636 0.950 . S
C644 C645 1.386 . S
C644 C646 1.391 . S
C645 C644 1.386 . S
C645 C649 1.393 . S
C646 H638 0.950 . S
C646 C644 1.391 . S
C646 C647 1.400 . S
C647 C646 1.400 . S
C647 C648 1.398 . S
C647 C653 1.491 . S
C648 H639 0.950 . S
C648 C647 1.398 . S
C648 C649 1.391 . S
C649 H637 0.950 . S
C649 C645 1.393 . S
C649 C648 1.391 . S
C650 H640 0.950 1_655 S
C650 C651 1.386 . S
C650 C652 1.391 . S
C651 C650 1.386 . S
C651 C655 1.393 . S
C652 H641 0.950 . S
C652 C650 1.391 . S
C652 C653 1.400 . S
C653 C647 1.491 . S
C653 C652 1.400 . S
C653 C654 1.398 . S
C654 H642 0.950 . S
C654 C653 1.398 . S
C654 C655 1.391 . S
C655 H643 0.950 . S
C655 C651 1.393 . S
C655 C654 1.391 . S
H656 C664 0.950 . S
H657 C669 0.950 . S
H658 C666 0.950 . S
H659 C668 0.950 . S
H660 C670 0.950 1_554 S
H661 C672 0.950 . S
H662 C674 0.950 . S
H663 C675 0.950 . S
C664 H656 0.950 . S
C664 C665 1.386 . S
C664 C666 1.391 . S
C665 C664 1.386 . S
C665 C669 1.393 . S
C666 H658 0.950 . S
C666 C664 1.391 . S
C666 C667 1.400 . S
C667 C666 1.400 . S
C667 C668 1.398 . S
C667 C673 1.491 . S
C668 H659 0.950 . S
C668 C667 1.398 . S
C668 C669 1.391 . S
C669 H657 0.950 . S
C669 C665 1.393 . S
C669 C668 1.391 . S
C670 H660 0.950 1_556 S
C670 C671 1.386 1_556 S
C670 C672 1.391 . S
C671 C670 1.386 1_554 S
C671 C675 1.393 . S
C672 H661 0.950 . S
C672 C670 1.391 . S
C672 C673 1.400 . S
C673 C667 1.491 . S
C673 C672 1.400 . S
C673 C674 1.398 . S
C674 H662 0.950 . S
C674 C673 1.398 . S
C674 C675 1.391 1_556 S
C675 H663 0.950 . S
C675 C671 1.393 . S
C675 C674 1.391 1_554 S
H676 C684 0.950 . S
H677 C689 0.950 . S
H678 C686 0.950 . S
H679 C688 0.950 . S
H680 C690 0.950 . S
H681 C692 0.950 . S
H682 C694 0.950 . S
H683 C695 0.950 . S
C684 H676 0.950 . S
C684 C685 1.386 . S
C684 C686 1.391 . S
C685 C684 1.386 . S
C685 C689 1.393 . S
C686 H678 0.950 . S
C686 C684 1.391 . S
C686 C687 1.400 . S
C687 C686 1.400 . S
C687 C688 1.398 . S
C687 C693 1.491 . S
C688 H679 0.950 . S
C688 C687 1.398 . S
C688 C689 1.391 . S
C689 H677 0.950 . S
C689 C685 1.393 . S
C689 C688 1.391 . S
C690 H680 0.950 . S
C690 C691 1.386 . S
C690 C692 1.391 . S
C691 C690 1.386 . S
C691 C695 1.393 . S
C692 H681 0.950 . S
C692 C690 1.391 . S
C692 C693 1.400 . S
C693 C687 1.491 . S
C693 C692 1.400 . S
C693 C694 1.398 . S
C694 H682 0.950 . S
C694 C693 1.398 . S
C694 C695 1.391 . S
C695 H683 0.950 . S
C695 C691 1.393 . S
C695 C694 1.391 . S
H696 C704 0.950 . S
H697 C709 0.950 . S
H698 C706 0.950 . S
H699 C708 0.950 . S
H700 C710 0.950 1_554 S
H701 C712 0.950 1_554 S
H702 C714 0.950 . S
H703 C715 0.950 . S
C704 H696 0.950 . S
C704 C705 1.386 . S
C704 C706 1.391 . S
C705 C704 1.386 . S
C705 C709 1.393 . S
C706 H698 0.950 . S
C706 C704 1.391 . S
C706 C707 1.400 . S
C707 C706 1.400 . S
C707 C708 1.398 . S
C707 C713 1.491 . S
C708 H699 0.950 . S
C708 C707 1.398 . S
C708 C709 1.391 . S
C709 H697 0.950 . S
C709 C705 1.393 . S
C709 C708 1.391 . S
C710 H700 0.950 1_556 S
C710 C711 1.386 . S
C710 C712 1.391 . S
C711 C710 1.386 . S
C711 C715 1.393 . S
C712 H701 0.950 1_556 S
C712 C710 1.391 . S
C712 C713 1.400 . S
C713 C707 1.491 . S
C713 C712 1.400 . S
C713 C714 1.398 . S
C714 H702 0.950 . S
C714 C713 1.398 . S
C714 C715 1.391 . S
C715 H703 0.950 . S
C715 C711 1.393 . S
C715 C714 1.391 . S
C251 C164 1.475 . S
C245 C11 1.344 . S
C271 C167 1.774 . S
C265 C25 1.746 . S
C291 C165 1.273 1_655 S
C285 C40 1.211 . S
C311 C166 1.348 . S
C305 C59 1.279 . S
C331 C181 1.831 . S
C325 C6 1.821 . S
C351 C195 1.858 . S
C345 C21 1.811 . S
C365 C49 1.500 . S
C371 C221 1.598 . S
C391 C235 1.506 . S
C385 C68 1.418 . S
C411 C180 1.817 . S
C405 C30 1.592 . S
C425 C44 1.650 . S
C431 C194 1.646 . S
C451 C220 1.597 . S
C445 C63 1.596 . S
C471 C234 1.672 . S
C465 C2 1.654 . S
C485 C78 1.761 1_455 S
C491 C179 1.773 . S
C511 C152 1.657 . S
C505 C97 1.594 . S
C525 C120 1.666 . S
C531 C178 1.675 . S
C545 C139 1.612 . S
C551 C153 1.617 . S
C571 C208 1.454 . S
C565 C87 1.386 . S
C591 C222 1.583 . S
C585 C101 1.552 . S
C611 C192 1.595 . S
C605 C125 1.473 . S
C625 C144 1.640 . S
C631 C206 1.698 . S
C651 C209 1.718 . S
C645 C106 1.483 . S
C671 C223 1.616 . S
C665 C116 1.594 . S
C691 C193 1.666 . S
C685 C135 1.637 . S
C705 C82 1.826 . S
C711 C207 1.800 . S
