# Generated by pormake.
# Topology pyr, (3,6)-cn, num edge types: 1
# Building blocks:
#     Node 0, Type 0, BuildingBlock: MIDCAF_clean_linker_0, # of connection points: 3
#     Node 1, Type 0, BuildingBlock: MIDCAF_clean_linker_0, # of connection points: 3
#     Node 2, Type 0, BuildingBlock: MIDCAF_clean_linker_0, # of connection points: 3
#     Node 3, Type 0, BuildingBlock: MIDCAF_clean_linker_0, # of connection points: 3
#     Node 4, Type 0, BuildingBlock: MIDCAF_clean_linker_0, # of connection points: 3
#     Node 5, Type 0, BuildingBlock: MIDCAF_clean_linker_0, # of connection points: 3
#     Node 6, Type 0, BuildingBlock: MIDCAF_clean_linker_0, # of connection points: 3
#     Node 7, Type 0, BuildingBlock: MIDCAF_clean_linker_0, # of connection points: 3
#     Node 8, Type 1, BuildingBlock: MIFKUJ_clean_sbu_0, # of connection points: 6
#     Node 9, Type 1, BuildingBlock: MIFKUJ_clean_sbu_0, # of connection points: 6
#     Node 10, Type 1, BuildingBlock: MIFKUJ_clean_sbu_0, # of connection points: 6
#     Node 11, Type 1, BuildingBlock: MIFKUJ_clean_sbu_0, # of connection points: 6
#     Edge 12, Type (0, 1), BuildingBlock: AJUNOK_clean_linker_0, # of connection points: 2
#     Edge 13, Type (0, 1), BuildingBlock: AJUNOK_clean_linker_0, # of connection points: 2
#     Edge 14, Type (0, 1), BuildingBlock: AJUNOK_clean_linker_0, # of connection points: 2
#     Edge 15, Type (0, 1), BuildingBlock: AJUNOK_clean_linker_0, # of connection points: 2
#     Edge 16, Type (0, 1), BuildingBlock: AJUNOK_clean_linker_0, # of connection points: 2
#     Edge 17, Type (0, 1), BuildingBlock: AJUNOK_clean_linker_0, # of connection points: 2
#     Edge 18, Type (0, 1), BuildingBlock: AJUNOK_clean_linker_0, # of connection points: 2
#     Edge 19, Type (0, 1), BuildingBlock: AJUNOK_clean_linker_0, # of connection points: 2
#     Edge 20, Type (0, 1), BuildingBlock: AJUNOK_clean_linker_0, # of connection points: 2
#     Edge 21, Type (0, 1), BuildingBlock: AJUNOK_clean_linker_0, # of connection points: 2
#     Edge 22, Type (0, 1), BuildingBlock: AJUNOK_clean_linker_0, # of connection points: 2
#     Edge 23, Type (0, 1), BuildingBlock: AJUNOK_clean_linker_0, # of connection points: 2
#     Edge 24, Type (0, 1), BuildingBlock: AJUNOK_clean_linker_0, # of connection points: 2
#     Edge 25, Type (0, 1), BuildingBlock: AJUNOK_clean_linker_0, # of connection points: 2
#     Edge 26, Type (0, 1), BuildingBlock: AJUNOK_clean_linker_0, # of connection points: 2
#     Edge 27, Type (0, 1), BuildingBlock: AJUNOK_clean_linker_0, # of connection points: 2
#     Edge 28, Type (0, 1), BuildingBlock: AJUNOK_clean_linker_0, # of connection points: 2
#     Edge 29, Type (0, 1), BuildingBlock: AJUNOK_clean_linker_0, # of connection points: 2
#     Edge 30, Type (0, 1), BuildingBlock: AJUNOK_clean_linker_0, # of connection points: 2
#     Edge 31, Type (0, 1), BuildingBlock: AJUNOK_clean_linker_0, # of connection points: 2
#     Edge 32, Type (0, 1), BuildingBlock: AJUNOK_clean_linker_0, # of connection points: 2
#     Edge 33, Type (0, 1), BuildingBlock: AJUNOK_clean_linker_0, # of connection points: 2
#     Edge 34, Type (0, 1), BuildingBlock: AJUNOK_clean_linker_0, # of connection points: 2
#     Edge 35, Type (0, 1), BuildingBlock: AJUNOK_clean_linker_0, # of connection points: 2
# Relax obj value: 0.030
# Max RMSD: 0.083
# Mean RMSD: 0.049
data_MOF--net-pyr--node1-MIFKUJ_clean_sbu_0--node2-MIDCAF_clean_linker_0--edge1-AJUNOK_clean_linker_0
_symmetry_space_group_name_H-M    P1
_symmetry_Int_Tables_number       1
_symmetry_cell_setting            triclinic
loop_
_symmetry_equiv_pos_as_xyz
'x, y, z'
_cell_length_a     38.156154
_cell_length_b     35.033106
_cell_length_c     36.183955
_cell_angle_alpha  84.996705
_cell_angle_beta   88.036425
_cell_angle_gamma 96.194183
loop_
_atom_site_label
_atom_site_type_symbol
_atom_site_fract_x
_atom_site_fract_y
_atom_site_fract_z
_atom_type_partial_charge
C0 C 0.13999 0.14926 0.35239 0.0
C1 C 0.14479 0.11138 0.36534 0.0
C2 C 0.17235 0.09375 0.34952 0.0
C3 C 0.19344 0.11301 0.31967 0.0
H4 H 0.28944 0.11919 0.25086 0.0
H5 H 0.33498 0.08815 0.22008 0.0
H6 H 0.31295 0.14687 0.11492 0.0
H7 H 0.2683 0.17927 0.14591 0.0
H8 H 0.21765 0.24797 0.14674 0.0
H9 H 0.18566 0.29696 0.11426 0.0
H10 H 0.11963 0.3004 0.21263 0.0
H11 H 0.15116 0.25182 0.24549 0.0
H12 H 0.15563 0.19724 0.31283 0.0
H13 H 0.11904 0.16351 0.3643 0.0
H14 H 0.17629 0.06436 0.35883 0.0
H15 H 0.21335 0.09805 0.30682 0.0
N16 N 0.23212 0.15344 0.25339 0.0
N17 N 0.23156 0.19908 0.20175 0.0
N18 N 0.19127 0.19872 0.25202 0.0
C19 C 0.24585 0.16884 0.21937 0.0
C20 C 0.20429 0.21428 0.21813 0.0
C21 C 0.20481 0.16843 0.26991 0.0
C22 C 0.27483 0.15142 0.20085 0.0
C23 C 0.29429 0.12561 0.22118 0.0
C24 C 0.32026 0.10755 0.20346 0.0
C25 C 0.32699 0.11422 0.16484 0.0
C26 C 0.30836 0.14099 0.14468 0.0
C27 C 0.28267 0.15947 0.16248 0.0
C28 C 0.18695 0.24572 0.1987 0.0
C29 C 0.1965 0.25926 0.16159 0.0
C30 C 0.17821 0.2871 0.14295 0.0
C31 C 0.15024 0.30178 0.16113 0.0
C32 C 0.14105 0.28906 0.19822 0.0
C33 C 0.15923 0.26131 0.21688 0.0
C34 C 0.18717 0.15014 0.30521 0.0
C35 C 0.16099 0.16848 0.3228 0.0
C36 C 0.23855 0.9045 0.65833 0.0
C37 C 0.21364 0.88206 0.63928 0.0
C38 C 0.21928 0.8439 0.63393 0.0
C39 C 0.24916 0.82851 0.64761 0.0
H40 H 0.32723 0.75627 0.61897 0.0
H41 H 0.35234 0.7029 0.59211 0.0
H42 H 0.42209 0.69364 0.68283 0.0
H43 H 0.39749 0.74697 0.70998 0.0
H44 H 0.41102 0.817 0.75613 0.0
H45 H 0.43876 0.84057 0.81042 0.0
H46 H 0.35695 0.91469 0.82396 0.0
H47 H 0.3286 0.89114 0.76911 0.0
H48 H 0.2866 0.90712 0.68712 0.0
H49 H 0.23511 0.93414 0.66251 0.0
H50 H 0.2002 0.82563 0.62004 0.0
H51 H 0.25262 0.79886 0.6435 0.0
N52 N 0.31725 0.80379 0.66864 0.0
N53 N 0.36179 0.80482 0.71161 0.0
N54 N 0.32097 0.85013 0.71198 0.0
C55 C 0.34594 0.78889 0.68275 0.0
C56 C 0.34957 0.83538 0.72645 0.0
C57 C 0.30467 0.83444 0.68308 0.0
C58 C 0.36035 0.75604 0.66663 0.0
C59 C 0.34787 0.74294 0.6333 0.0
C60 C 0.36224 0.71258 0.61782 0.0
C61 C 0.38911 0.69475 0.63548 0.0
C62 C 0.40147 0.70737 0.66879 0.0
C63 C 0.3873 0.73782 0.68422 0.0
C64 C 0.36725 0.85178 0.75837 0.0
C65 C 0.39874 0.83835 0.77044 0.0
C66 C 0.41472 0.8518 0.80158 0.0
C67 C 0.39968 0.87897 0.82153 0.0
C68 C 0.36895 0.89363 0.80897 0.0
C69 C 0.35277 0.88005 0.77767 0.0
C70 C 0.27363 0.85082 0.66739 0.0
C71 C 0.26806 0.88902 0.67242 0.0
C72 C 0.63342 0.19802 0.8961 0.0
C73 C 0.60034 0.1824 0.88546 0.0
C74 C 0.58495 0.20033 0.85483 0.0
C75 C 0.60254 0.23349 0.83502 0.0
H76 H 0.618 0.30182 0.72684 0.0
H77 H 0.59155 0.33205 0.67321 0.0
H78 H 0.6369 0.44402 0.70031 0.0
H79 H 0.66556 0.41327 0.75261 0.0
H80 H 0.73892 0.40701 0.80526 0.0
H81 H 0.7922 0.43426 0.83385 0.0
H82 H 0.78842 0.33185 0.90989 0.0
H83 H 0.73579 0.3044 0.88166 0.0
H84 H 0.67618 0.24263 0.88601 0.0
H85 H 0.64568 0.18465 0.91973 0.0
H86 H 0.55947 0.18851 0.84612 0.0
H87 H 0.59004 0.24671 0.8115 0.0
N88 N 0.64142 0.30268 0.79499 0.0
N89 N 0.68758 0.35329 0.79314 0.0
N90 N 0.68362 0.3026 0.84038 0.0
C91 C 0.65805 0.3365 0.77821 0.0
C92 C 0.70064 0.33619 0.82421 0.0
C93 C 0.65404 0.28564 0.82627 0.0
C94 C 0.64343 0.35514 0.74445 0.0
C95 C 0.62242 0.3329 0.72133 0.0
C96 C 0.60685 0.35038 0.69073 0.0
C97 C 0.61077 0.39078 0.68305 0.0
C98 C 0.63297 0.4129 0.70539 0.0
C99 C 0.64933 0.39528 0.73552 0.0
C100 C 0.733 0.35343 0.84095 0.0
C101 C 0.74947 0.39025 0.82799 0.0
C102 C 0.77984 0.40594 0.84442 0.0
C103 C 0.79447 0.38494 0.87381 0.0
C104 C 0.77796 0.34837 0.88691 0.0
C105 C 0.74764 0.3328 0.87073 0.0
C106 C 0.63561 0.24955 0.84587 0.0
C107 C 0.6508 0.23127 0.87667 0.0
C108 C 0.72153 0.62252 0.36848 0.0
C109 C 0.70438 0.58828 0.35728 0.0
C110 C 0.71849 0.57243 0.32634 0.0
C111 C 0.74944 0.59016 0.30738 0.0
H112 H 0.81937 0.58964 0.21282 0.0
H113 H 0.84942 0.55931 0.16418 0.0
H114 H 0.94643 0.62942 0.18131 0.0
H115 H 0.91676 0.66026 0.22957 0.0
H116 H 0.91197 0.73516 0.27852 0.0
H117 H 0.93829 0.79188 0.30762 0.0
H118 H 0.85572 0.77264 0.39367 0.0
H119 H 0.82956 0.71678 0.36563 0.0
H120 H 0.76491 0.6664 0.35949 0.0
H121 H 0.71178 0.63507 0.39259 0.0
H122 H 0.70568 0.54611 0.31694 0.0
H123 H 0.75988 0.5769 0.28404 0.0
N124 N 0.81624 0.62761 0.27148 0.0
N125 N 0.86537 0.6744 0.27212 0.0
N126 N 0.81851 0.67238 0.31583 0.0
C127 C 0.84839 0.64381 0.25674 0.0
C128 C 0.85045 0.6888 0.30175 0.0
C129 C 0.80113 0.64197 0.30114 0.0
C130 C 0.86568 0.62717 0.22545 0.0
C131 C 0.84704 0.59887 0.2061 0.0
C132 C 0.8641 0.58159 0.17818 0.0
C133 C 0.90017 0.59191 0.16945 0.0
C134 C 0.91863 0.62084 0.18791 0.0
C135 C 0.90154 0.63847 0.21547 0.0
C136 C 0.86838 0.72164 0.31943 0.0
C137 C 0.89966 0.74288 0.30382 0.0
C138 C 0.9148 0.7751 0.3204 0.0
C139 C 0.89872 0.78623 0.35259 0.0
C140 C 0.86834 0.76442 0.36872 0.0
C141 C 0.85335 0.73252 0.35243 0.0
C142 C 0.76696 0.62408 0.31905 0.0
C143 C 0.7523 0.64027 0.34955 0.0
C144 C 0.70221 0.87959 0.8306 0.0
C145 C 0.68636 0.86248 0.86452 0.0
C146 C 0.69925 0.8294 0.88132 0.0
C147 C 0.72689 0.81329 0.86409 0.0
H148 H 0.79747 0.73105 0.88075 0.0
H149 H 0.82841 0.68101 0.91252 0.0
H150 H 0.89638 0.68018 0.81497 0.0
H151 H 0.86592 0.73015 0.78295 0.0
H152 H 0.8626 0.78819 0.71595 0.0
H153 H 0.8952 0.82309 0.66206 0.0
H154 H 0.8304 0.91613 0.66788 0.0
H155 H 0.79774 0.88164 0.72215 0.0
H156 H 0.74102 0.87754 0.78714 0.0
H157 H 0.6935 0.90568 0.81744 0.0
H158 H 0.68759 0.81566 0.90751 0.0
H159 H 0.73596 0.78759 0.87764 0.0
N160 N 0.78544 0.78218 0.82768 0.0
N161 N 0.82524 0.78309 0.77674 0.0
N162 N 0.78479 0.82872 0.77701 0.0
C163 C 0.81241 0.76706 0.81063 0.0
C164 C 0.81164 0.8138 0.75966 0.0
C165 C 0.77138 0.813 0.81095 0.0
C166 C 0.82924 0.73485 0.82933 0.0
C167 C 0.81883 0.72011 0.86591 0.0
C168 C 0.83654 0.69159 0.88416 0.0
C169 C 0.86465 0.67701 0.86605 0.0
C170 C 0.87456 0.69087 0.8293 0.0
C171 C 0.8571 0.71958 0.81112 0.0
C172 C 0.82789 0.8324 0.72387 0.0
C173 C 0.85484 0.81583 0.70554 0.0
C174 C 0.87338 0.8356 0.67446 0.0
C175 C 0.86545 0.87234 0.66118 0.0
C176 C 0.83716 0.88792 0.67794 0.0
C177 C 0.8185 0.86813 0.70899 0.0
C178 C 0.74228 0.83002 0.82972 0.0
C179 C 0.72967 0.86351 0.81335 0.0
C180 C 0.63963 0.07527 0.22183 0.0
C181 C 0.61502 0.09532 0.20256 0.0
C182 C 0.60578 0.12988 0.21489 0.0
C183 C 0.62114 0.14451 0.24589 0.0
H184 H 0.59971 0.20817 0.33905 0.0
H185 H 0.57598 0.25966 0.37002 0.0
H186 H 0.67904 0.29323 0.41027 0.0
H187 H 0.70235 0.24075 0.38089 0.0
H188 H 0.74046 0.1586 0.405 0.0
H189 H 0.79177 0.13136 0.4309 0.0
H190 H 0.79768 0.06201 0.33869 0.0
H191 H 0.74636 0.08868 0.31251 0.0
H192 H 0.67471 0.07435 0.2668 0.0
H193 H 0.64708 0.04855 0.21262 0.0
H194 H 0.58667 0.14563 0.20037 0.0
H195 H 0.61352 0.17141 0.25448 0.0
N196 N 0.65087 0.17178 0.31227 0.0
N197 N 0.69542 0.17255 0.35532 0.0
N198 N 0.69214 0.12682 0.31162 0.0
C199 C 0.66677 0.18748 0.34128 0.0
C200 C 0.70821 0.14216 0.34074 0.0
C201 C 0.66348 0.1415 0.29718 0.0
C202 C 0.65278 0.22009 0.35796 0.0
C203 C 0.61728 0.22656 0.35452 0.0
C204 C 0.6037 0.25608 0.37218 0.0
C205 C 0.62545 0.27997 0.39325 0.0
C206 C 0.6613 0.27445 0.39536 0.0
C207 C 0.67472 0.24456 0.37828 0.0
C208 C 0.73923 0.12583 0.35661 0.0
C209 C 0.7526 0.13754 0.39016 0.0
C210 C 0.78181 0.12199 0.40511 0.0
C211 C 0.79819 0.09475 0.38664 0.0
C212 C 0.78512 0.083 0.35326 0.0
C213 C 0.75581 0.09828 0.3384 0.0
C214 C 0.64641 0.12506 0.265 0.0
C215 C 0.65543 0.09016 0.25269 0.0
C216 C 0.23779 0.56302 0.17737 0.0
C217 C 0.22138 0.58208 0.14806 0.0
C218 C 0.23728 0.61797 0.13205 0.0
C219 C 0.26837 0.63506 0.14585 0.0
H220 H 0.34906 0.72097 0.12017 0.0
H221 H 0.3782 0.78057 0.08823 0.0
H222 H 0.44205 0.79823 0.18277 0.0
H223 H 0.41373 0.73785 0.21449 0.0
H224 H 0.42042 0.66159 0.27037 0.0
H225 H 0.44645 0.63042 0.3242 0.0
H226 H 0.35885 0.54106 0.33542 0.0
H227 H 0.33263 0.57161 0.28118 0.0
H228 H 0.2805 0.56478 0.21418 0.0
H229 H 0.22654 0.53487 0.18965 0.0
H230 H 0.22519 0.63327 0.10941 0.0
H231 H 0.27954 0.66308 0.1332 0.0
N232 N 0.33262 0.66942 0.17486 0.0
N233 N 0.37506 0.67114 0.22018 0.0
N234 N 0.33009 0.61955 0.22281 0.0
C235 C 0.36184 0.68746 0.18891 0.0
C236 C 0.35936 0.63714 0.23733 0.0
C237 C 0.31653 0.63553 0.19157 0.0
C238 C 0.37919 0.72433 0.16989 0.0
C239 C 0.36935 0.73743 0.13426 0.0
C240 C 0.38596 0.77172 0.11592 0.0
C241 C 0.41274 0.79392 0.13274 0.0
C242 C 0.42215 0.78129 0.16865 0.0
C243 C 0.40573 0.74677 0.18692 0.0
C244 C 0.37444 0.61909 0.27113 0.0
C245 C 0.40651 0.63537 0.28421 0.0
C246 C 0.42149 0.61761 0.31502 0.0
C247 C 0.40459 0.58346 0.3337 0.0
C248 C 0.37222 0.56751 0.32142 0.0
C249 C 0.35736 0.58501 0.29031 0.0
C250 C 0.2843 0.61658 0.17599 0.0
C251 C 0.26881 0.58013 0.1913 0.0
C252 C 0.14642 0.21005 0.65565 0.0
C253 C 0.11522 0.18853 0.67024 0.0
C254 C 0.09737 0.20076 0.70095 0.0
C255 C 0.11138 0.23367 0.71738 0.0
H256 H 0.10376 0.30139 0.80959 0.0
H257 H 0.07448 0.3299 0.86 0.0
H258 H 0.15153 0.43008 0.84453 0.0
H259 H 0.18109 0.40194 0.79447 0.0
H260 H 0.25436 0.39389 0.74421 0.0
H261 H 0.31036 0.42336 0.71377 0.0
H262 H 0.28976 0.35855 0.61939 0.0
H263 H 0.23416 0.32877 0.64948 0.0
H264 H 0.18465 0.25785 0.65958 0.0
H265 H 0.16043 0.20147 0.6317 0.0
H266 H 0.07322 0.18444 0.71268 0.0
H267 H 0.09753 0.24234 0.74135 0.0
N268 N 0.1452 0.30213 0.7506 0.0
N269 N 0.19193 0.35217 0.74876 0.0
N270 N 0.19015 0.30785 0.7041 0.0
C271 C 0.16122 0.33383 0.76518 0.0
C272 C 0.20651 0.33925 0.71808 0.0
C273 C 0.1597 0.28902 0.71993 0.0
C274 C 0.14469 0.34945 0.79763 0.0
C275 C 0.11471 0.32934 0.81708 0.0
C276 C 0.098 0.34551 0.84607 0.0
C277 C 0.11078 0.38217 0.85595 0.0
C278 C 0.14111 0.40185 0.83722 0.0
C279 C 0.15802 0.3856 0.80858 0.0
C280 C 0.23978 0.35876 0.69949 0.0
C281 C 0.26166 0.38601 0.71694 0.0
C282 C 0.29373 0.40277 0.69962 0.0
C283 C 0.3043 0.39297 0.66439 0.0
C284 C 0.28212 0.36658 0.64652 0.0
C285 C 0.25035 0.34946 0.66395 0.0
C286 C 0.14325 0.25471 0.70307 0.0
C287 C 0.16024 0.24254 0.67176 0.0
Zn288 Zn 0.04462 -0.00347 0.55158 0.0
Zn289 Zn 0.96647 0.97629 0.47157 0.0
C290 C 0.08225 0.05879 0.58441 0.0
O291 O 0.10934 0.04371 0.5706 0.0
C292 C 0.93083 0.91373 0.43962 0.0
O293 O 0.90375 0.92844 0.45388 0.0
O294 O 0.08521 0.96511 0.56004 0.0
O295 O 0.00153 0.96632 0.5762 0.0
O296 O 0.97125 0.96425 0.52595 0.0
C297 C 0.08987 0.95441 0.59379 0.0
O298 O 0.06847 0.96439 0.61959 0.0
O299 O 0.05134 0.04422 0.57851 0.0
C300 C 0.92287 0.02717 0.43394 0.0
O301 O 0.95075 0.03337 0.41102 0.0
O302 O 0.92355 0.00417 0.46298 0.0
O303 O 0.00853 0.00937 0.44771 0.0
O304 O 0.04 0.01135 0.4972 0.0
O305 O 0.96181 0.92808 0.44555 0.0
C306 C 0.9733 0.95613 0.56055 0.0
C307 C 0.03683 0.02056 0.46286 0.0
Zn308 Zn 0.5297 0.96325 0.98823 0.0
Zn309 Zn 0.48204 0.01625 0.03631 0.0
C310 C 0.47883 0.92089 0.94893 0.0
O311 O 0.49239 0.89364 0.96917 0.0
C312 C 0.53682 0.05326 0.07567 0.0
O313 O 0.52926 0.08225 0.05292 0.0
O314 O 0.56851 0.93419 0.96798 0.0
O315 O 0.55004 0.0188 0.98355 0.0
O316 O 0.50055 0.0457 0.98726 0.0
C317 C 0.57428 0.93695 0.93292 0.0
O318 O 0.55579 0.95905 0.91195 0.0
O319 O 0.48985 0.9558 0.95291 0.0
C320 C 0.42969 0.03191 0.08949 0.0
O321 O 0.43992 0.00031 0.10592 0.0
O322 O 0.44388 0.04511 0.05796 0.0
O323 O 0.46166 0.96023 0.03763 0.0
O324 O 0.51313 0.93738 0.03886 0.0
O325 O 0.52034 0.0201 0.07346 0.0
C326 C 0.53227 0.0466 0.97478 0.0
C327 C 0.48047 0.93388 0.04841 0.0
Zn328 Zn 0.52837 0.46153 0.48203 0.0
Zn329 Zn 0.48339 0.51416 0.54191 0.0
C330 C 0.57994 0.50401 0.43385 0.0
O331 O 0.56266 0.48142 0.41196 0.0
C332 C 0.43874 0.46486 0.59699 0.0
O333 O 0.46266 0.47865 0.61906 0.0
O334 O 0.54116 0.41538 0.45746 0.0
O335 O 0.52471 0.4426 0.53695 0.0
O336 O 0.53055 0.49867 0.5604 0.0
C337 C 0.56914 0.40199 0.46813 0.0
O338 O 0.58669 0.41815 0.49438 0.0
O339 O 0.57028 0.50202 0.4681 0.0
C340 C 0.44165 0.56852 0.56657 0.0
O341 O 0.41817 0.54554 0.55106 0.0
O342 O 0.47371 0.56173 0.56621 0.0
O343 O 0.47495 0.52855 0.48768 0.0
O344 O 0.48698 0.48003 0.45564 0.0
O345 O 0.44301 0.47401 0.56218 0.0
C346 C 0.53658 0.46362 0.56154 0.0
C347 C 0.47317 0.51115 0.45829 0.0
Zn348 Zn 0.96787 0.50092 0.97472 0.0
Zn349 Zn 0.043 0.47245 0.05023 0.0
C350 C 0.92293 0.45201 0.93444 0.0
O351 O 0.95119 0.45634 0.91209 0.0
C352 C 0.08958 0.51139 0.09473 0.0
O353 O 0.06484 0.49377 0.11826 0.0
O354 O 0.96205 0.54892 0.94238 0.0
O355 O 0.9641 0.51359 0.02817 0.0
O356 O 0.00192 0.49682 0.07008 0.0
C357 C 0.9344 0.56361 0.95161 0.0
O358 O 0.91483 0.548 0.98067 0.0
O359 O 0.9237 0.46739 0.96494 0.0
C360 C 0.07961 0.41297 0.07398 0.0
O361 O 0.10001 0.43236 0.04723 0.0
O362 O 0.04959 0.42366 0.08142 0.0
O363 O 0.04582 0.45913 0.99766 0.0
O364 O 0.00873 0.47542 0.95464 0.0
O365 O 0.08607 0.50818 0.06027 0.0
C366 C 0.97449 0.51237 0.06122 0.0
C367 C 0.03566 0.45952 0.96466 0.0
C368 C 0.08247 0.08687 0.38343 0.0
C369 C 0.11825 0.08909 0.39193 0.0
C370 C 0.05652 0.06504 0.40687 0.0
C371 C 0.06519 0.04481 0.44003 0.0
H372 H 0.07452 0.10155 0.35798 0.0
H373 H 0.02938 0.06398 0.39876 0.0
S374 S 0.15508 0.04242 0.47557 0.0
N375 N 0.16118 0.07007 0.43598 0.0
N376 N 0.11218 0.02911 0.48059 0.0
C377 C 0.10084 0.04739 0.44931 0.0
C378 C 0.12743 0.06938 0.42505 0.0
C379 C 0.42849 0.92895 0.85988 0.0
C380 C 0.41575 0.89037 0.85619 0.0
C381 C 0.44773 0.93899 0.89075 0.0
C382 C 0.45471 0.91077 0.91899 0.0
H383 H 0.42483 0.95121 0.83808 0.0
H384 H 0.45827 0.96884 0.89176 0.0
S385 S 0.42256 0.80637 0.92417 0.0
N386 N 0.40829 0.82454 0.88458 0.0
N387 N 0.44406 0.84304 0.94255 0.0
C388 C 0.44028 0.8724 0.91635 0.0
C389 C 0.42091 0.8623 0.88497 0.0
C390 C 0.60755 0.44175 0.62939 0.0
C391 C 0.59118 0.40972 0.65248 0.0
C392 C 0.58952 0.45974 0.60056 0.0
C393 C 0.55467 0.44603 0.59329 0.0
H394 H 0.6347 0.45268 0.63319 0.0
H395 H 0.60324 0.48393 0.58325 0.0
S396 S 0.49879 0.3653 0.64647 0.0
N397 N 0.53668 0.36734 0.66727 0.0
N398 N 0.50401 0.39965 0.61184 0.0
C399 C 0.53791 0.41441 0.61607 0.0
C400 C 0.55583 0.39665 0.64592 0.0
C401 C 0.90934 0.57222 0.1053 0.0
C402 C 0.91898 0.57119 0.14242 0.0
C403 C 0.9272 0.55287 0.0794 0.0
C404 C 0.95512 0.53137 0.08971 0.0
H405 H 0.88818 0.58854 0.09614 0.0
H406 H 0.91914 0.55515 0.05103 0.0
S407 S 0.98868 0.51819 0.1848 0.0
N408 N 0.95703 0.54637 0.18889 0.0
N409 N 0.99034 0.5094 0.14073 0.0
C410 C 0.96446 0.52973 0.12718 0.0
C411 C 0.94647 0.54978 0.15337 0.0
C412 C 0.37732 0.11198 0.11833 0.0
C413 C 0.35276 0.09269 0.14551 0.0
C414 C 0.40176 0.09212 0.09991 0.0
C415 C 0.40279 0.05223 0.10814 0.0
H416 H 0.378 0.1428 0.11159 0.0
H417 H 0.42041 0.10829 0.07957 0.0
S418 S 0.34217 -0.01238 0.17451 0.0
N419 N 0.3294 0.03081 0.17759 0.0
N420 N 0.37584 -0.00616 0.14391 0.0
C421 C 0.37807 0.03253 0.13484 0.0
C422 C 0.35297 0.05263 0.15327 0.0
C423 C 0.1624 0.91843 0.65153 0.0
C424 C 0.1812 0.89838 0.62688 0.0
C425 C 0.13264 0.93579 0.64062 0.0
C426 C 0.1205 0.93404 0.6045 0.0
H427 H 0.1708 0.92082 0.67961 0.0
H428 H 0.11948 0.95135 0.66057 0.0
S429 S 0.15916 0.88343 0.52969 0.0
N430 N 0.18488 0.87665 0.56494 0.0
N431 N 0.12862 0.90925 0.5444 0.0
C432 C 0.13855 0.91344 0.57966 0.0
C433 C 0.16888 0.89549 0.59089 0.0
C434 C 0.82906 0.43765 0.90407 0.0
C435 C 0.82707 0.40097 0.8907 0.0
C436 C 0.85983 0.45341 0.91983 0.0
C437 C 0.88972 0.43329 0.92193 0.0
H438 H 0.80669 0.45421 0.90236 0.0
H439 H 0.86064 0.48199 0.92929 0.0
S440 S 0.89801 0.33632 0.89175 0.0
N441 N 0.85747 0.34467 0.88164 0.0
N442 N 0.91553 0.37496 0.91035 0.0
C443 C 0.88806 0.39665 0.909 0.0
C444 C 0.85662 0.38026 0.89365 0.0
C445 C 0.67098 0.52815 0.38879 0.0
C446 C 0.67283 0.56809 0.37885 0.0
C447 C 0.6413 0.50802 0.40827 0.0
C448 C 0.61263 0.52712 0.419 0.0
H449 H 0.69255 0.51223 0.38123 0.0
H450 H 0.64046 0.47708 0.41438 0.0
S451 S 0.60348 0.63093 0.39912 0.0
N452 N 0.64273 0.62581 0.38068 0.0
N453 N 0.58723 0.58772 0.41801 0.0
C454 C 0.61415 0.567 0.4099 0.0
C455 C 0.64425 0.58757 0.38972 0.0
C456 C 0.101 0.31853 0.12143 0.0
C457 C 0.13062 0.3305 0.14133 0.0
C458 C 0.08319 0.34557 0.10073 0.0
C459 C 0.09484 0.38508 0.09936 0.0
H460 H 0.09206 0.28811 0.12134 0.0
H461 H 0.0611 0.33553 0.08473 0.0
S462 S 0.16919 0.43095 0.14893 0.0
N463 N 0.16934 0.38423 0.16031 0.0
N464 N 0.1362 0.43504 0.12098 0.0
C465 C 0.12368 0.39733 0.12004 0.0
C466 C 0.14155 0.36997 0.14122 0.0
C467 C 0.55129 0.14897 0.92812 0.0
C468 C 0.58225 0.14723 0.90645 0.0
C469 C 0.53504 0.11625 0.94992 0.0
C470 C 0.5492 0.08066 0.95073 0.0
H471 H 0.54 0.17599 0.92878 0.0
H472 H 0.51158 0.11908 0.96673 0.0
S473 S 0.62857 0.06089 0.89622 0.0
N474 N 0.62559 0.10719 0.88552 0.0
N475 N 0.59517 0.04557 0.92592 0.0
C476 C 0.57984 0.07859 0.92838 0.0
C477 C 0.59634 0.1119 0.90639 0.0
C478 C 0.94031 0.82325 0.3916 0.0
C479 C 0.91123 0.82194 0.36881 0.0
C480 C 0.94743 0.85388 0.4138 0.0
C481 C 0.92517 0.8834 0.41417 0.0
H482 H 0.95652 0.79965 0.3936 0.0
H483 H 0.9694 0.85355 0.43196 0.0
S484 S 0.84864 0.89519 0.35549 0.0
N485 N 0.86245 0.85423 0.34494 0.0
N486 N 0.8754 0.91148 0.38689 0.0
C487 C 0.89723 0.88325 0.38996 0.0
C488 C 0.89036 0.85254 0.36716 0.0
C489 C 0.43139 0.66918 0.59236 0.0
C490 C 0.40367 0.66229 0.61953 0.0
C491 C 0.44466 0.63846 0.57603 0.0
C492 C 0.43005 0.60026 0.58606 0.0
H493 H 0.44256 0.69844 0.5835 0.0
H494 H 0.46563 0.64466 0.55469 0.0
S495 S 0.35876 0.5673 0.65737 0.0
N496 N 0.36349 0.61477 0.65717 0.0
N497 N 0.38774 0.55707 0.62576 0.0
C498 C 0.40279 0.59311 0.61359 0.0
C499 C 0.38974 0.62421 0.63057 0.0
C500 C 0.89836 0.88215 0.59916 0.0
C501 C 0.88957 0.89612 0.63322 0.0
C502 C 0.92429 0.90278 0.5744 0.0
C503 C 0.94272 0.93735 0.58358 0.0
H504 H 0.88561 0.85478 0.59202 0.0
H505 H 0.93109 0.89078 0.54884 0.0
S506 S 0.92859 -0.01315 0.6684 0.0
N507 N 0.90036 0.9474 0.67393 0.0
N508 N 0.94937 0.98564 0.62782 0.0
C509 C 0.93348 0.95205 0.61698 0.0
C510 C 0.9068 0.93155 0.64174 0.0
C511 C 0.57439 0.04833 0.17157 0.0
C512 C 0.59925 0.0812 0.16893 0.0
C513 C 0.55544 0.03807 0.14063 0.0
C514 C 0.56076 0.06053 0.10623 0.0
H515 H 0.56845 0.03153 0.19806 0.0
H516 H 0.53531 0.01359 0.14419 0.0
S517 S 0.62695 0.14582 0.08414 0.0
N518 N 0.63102 0.13355 0.12878 0.0
N519 N 0.59562 0.11445 0.0706 0.0
C520 C 0.58713 0.09207 0.10292 0.0
C521 C 0.60633 0.10238 0.13431 0.0
C522 C 0.40713 0.56244 0.40152 0.0
C523 C 0.42156 0.56382 0.36508 0.0
C524 C 0.42399 0.54535 0.43165 0.0
C525 C 0.45526 0.52818 0.42616 0.0
H526 H 0.38307 0.57529 0.40678 0.0
H527 H 0.41236 0.54534 0.4594 0.0
S528 S 0.50335 0.5244 0.33594 0.0
N529 N 0.46884 0.54714 0.32513 0.0
N530 N 0.49989 0.51397 0.38141 0.0
C531 C 0.46952 0.52895 0.38972 0.0
C532 C 0.45283 0.54707 0.35926 0.0
C533 C 0.07982 0.4372 0.87477 0.0
C534 C 0.09157 0.40105 0.8843 0.0
C535 C 0.0614 0.4558 0.90081 0.0
C536 C 0.0549 0.43935 0.93755 0.0
H537 H 0.08458 0.451 0.8468 0.0
H538 H 0.05264 0.4835 0.89229 0.0
S539 S 0.07972 0.34493 0.97643 0.0
N540 N 0.09482 0.34913 0.93274 0.0
N541 N 0.06096 0.38451 0.98203 0.0
C542 C 0.06659 0.40325 0.94749 0.0
C543 C 0.08469 0.38395 0.92075 0.0
C544 C 0.65677 0.88636 0.91991 0.0
C545 C 0.65652 0.87937 0.88218 0.0
C546 C 0.62976 0.90431 0.9364 0.0
C547 C 0.60159 0.9161 0.9157 0.0
H548 H 0.67845 0.87876 0.9366 0.0
H549 H 0.63144 0.90981 0.96531 0.0
S550 S 0.5864 0.89994 0.81714 0.0
N551 N 0.62401 0.8823 0.8256 0.0
N552 N 0.57371 0.9165 0.85619 0.0
C553 C 0.60048 0.90808 0.87827 0.0
C554 C 0.6278 0.88962 0.86162 0.0
C555 C 0.86317 0.09467 0.38747 0.0
C556 C 0.82952 0.07897 0.40153 0.0
C557 C 0.89329 0.07816 0.39887 0.0
C558 C 0.8907 0.04543 0.42474 0.0
H559 H 0.86613 0.11945 0.36704 0.0
H560 H 0.91875 0.09094 0.38696 0.0
S561 S 0.80785 -0.00626 0.46947 0.0
N562 N 0.79476 0.02947 0.44243 0.0
N563 N 0.85132 -0.00187 0.46416 0.0
C564 C 0.857 0.02996 0.43952 0.0
C565 C 0.82637 0.04681 0.42777 0.0
C566 C 0.18274 0.56224 0.09666 0.0
C567 C 0.18728 0.565 0.1348 0.0
C568 C 0.15086 0.54556 0.08379 0.0
C569 C 0.12226 0.53122 0.10858 0.0
H570 H 0.20422 0.57241 0.07667 0.0
H571 H 0.14888 0.5434 0.05424 0.0
S572 S 0.11996 0.53461 0.21104 0.0
N573 N 0.15998 0.55423 0.19699 0.0
N574 N 0.10023 0.5228 0.17313 0.0
C575 C 0.12627 0.53475 0.14676 0.0
C576 C 0.15872 0.5516 0.15978 0.0
C577 C 0.34074 0.43053 0.61156 0.0
C578 C 0.33887 0.4095 0.64665 0.0
C579 C 0.3733 0.44731 0.59502 0.0
C580 C 0.40509 0.44366 0.61305 0.0
H581 H 0.3168 0.43473 0.59721 0.0
H582 H 0.37341 0.46425 0.5685 0.0
S583 S 0.41445 0.38741 0.70322 0.0
N584 N 0.37155 0.38292 0.69724 0.0
N585 N 0.43258 0.415 0.66672 0.0
C586 C 0.4035 0.42166 0.64762 0.0
C587 C 0.37044 0.40444 0.66426 0.0
C588 C 0.90022 0.65702 0.91937 0.0
C589 C 0.88447 0.6484 0.88608 0.0
C590 C 0.91794 0.62984 0.93978 0.0
C591 C 0.92079 0.59352 0.92721 0.0
H592 H 0.89841 0.68479 0.9299 0.0
H593 H 0.92889 0.63696 0.96588 0.0
S594 S 0.88252 0.55596 0.84315 0.0
N595 N 0.87185 0.60052 0.84218 0.0
N596 N 0.90559 0.5495 0.88057 0.0
C597 C 0.90554 0.58459 0.89389 0.0
C598 C 0.8873 0.61212 0.87321 0.0
C599 C 0.41072 0.85674 0.09416 0.0
C600 C 0.43072 0.83002 0.11255 0.0
C601 C 0.42699 0.89035 0.07393 0.0
C602 C 0.464 0.89853 0.07097 0.0
H603 H 0.38217 0.8517 0.09549 0.0
H604 H 0.41034 0.90981 0.06015 0.0
S605 S 0.52842 0.83795 0.11423 0.0
N606 N 0.48954 0.81399 0.12651 0.0
N607 N 0.52017 0.87723 0.08894 0.0
C608 C 0.48432 0.87218 0.08952 0.0
C609 C 0.4677 0.838 0.11023 0.0
C610 C 0.12755 0.12604 0.64833 0.0
C611 C 0.10319 0.15271 0.65337 0.0
C612 C 0.12017 0.09559 0.62638 0.0
C613 C 0.08796 0.0903 0.60888 0.0
H614 H 0.15315 0.12958 0.66045 0.0
H615 H 0.14017 0.07633 0.62278 0.0
S616 S 0.01406 0.15057 0.61552 0.0
N617 N 0.04484 0.17099 0.64076 0.0
N618 N 0.03041 0.11295 0.59985 0.0
C619 C 0.06247 0.11555 0.61524 0.0
C620 C 0.07019 0.14692 0.6375 0.0
C621 C 0.58822 0.33465 0.39519 0.0
C622 C 0.61074 0.31041 0.41318 0.0
C623 C 0.5744 0.36384 0.41335 0.0
C624 C 0.58283 0.37007 0.45004 0.0
H625 H 0.58167 0.33145 0.36665 0.0
H626 H 0.55758 0.38215 0.39824 0.0
S627 S 0.63807 0.31255 0.51055 0.0
N628 N 0.63869 0.29289 0.47074 0.0
N629 N 0.61363 0.3485 0.50438 0.0
C630 C 0.60488 0.34576 0.46852 0.0
C631 C 0.6186 0.31576 0.45023 0.0
loop_
_geom_bond_atom_site_label_1
_geom_bond_atom_site_label_2
_geom_bond_distance
_geom_bond_site_symmetry_2
_ccdc_geom_bond_type
C0 C1 1.384 . S
C0 H13 0.947 . S
C0 C35 1.382 . S
C1 C0 1.384 . S
C1 C2 1.378 . S
C2 C1 1.378 . S
C2 C3 1.378 . S
C2 H14 0.952 . S
C3 C2 1.378 . S
C3 H15 0.950 . S
C3 C34 1.383 . S
H4 C23 0.947 . S
H5 C24 0.946 . S
H6 C26 0.953 . S
H7 C27 0.945 . S
H8 C29 0.952 . S
H9 C30 0.949 . S
H10 C32 0.950 . S
H11 C33 0.948 . S
H12 C35 0.951 . S
H13 C0 0.947 . S
H14 C2 0.952 . S
H15 C3 0.950 . S
N16 C19 1.382 . S
N16 C21 1.363 . S
N17 C19 1.371 . S
N17 C20 1.372 . S
N18 C20 1.361 . S
N18 C21 1.377 . S
C19 N16 1.382 . S
C19 N17 1.371 . S
C19 C22 1.480 . S
C20 N17 1.372 . S
C20 N18 1.361 . S
C20 C28 1.457 . S
C21 N16 1.363 . S
C21 N18 1.377 . S
C21 C34 1.479 . S
C22 C19 1.480 . S
C22 C23 1.383 . S
C22 C27 1.385 . S
C23 H4 0.947 . S
C23 C22 1.383 . S
C23 C24 1.388 . S
C24 H5 0.946 . S
C24 C23 1.388 . S
C24 C25 1.384 . S
C25 C24 1.384 . S
C25 C26 1.377 . S
C26 H6 0.953 . S
C26 C25 1.377 . S
C26 C27 1.369 . S
C27 H7 0.945 . S
C27 C22 1.385 . S
C27 C26 1.369 . S
C28 C20 1.457 . S
C28 C29 1.372 . S
C28 C33 1.364 . S
C29 H8 0.952 . S
C29 C28 1.372 . S
C29 C30 1.389 . S
C30 H9 0.949 . S
C30 C29 1.389 . S
C30 C31 1.387 . S
C31 C30 1.387 . S
C31 C32 1.372 . S
C32 H10 0.950 . S
C32 C31 1.372 . S
C32 C33 1.379 . S
C33 H11 0.948 . S
C33 C28 1.364 . S
C33 C32 1.379 . S
C34 C3 1.383 . S
C34 C21 1.479 . S
C34 C35 1.398 . S
C35 C0 1.382 . S
C35 H12 0.951 . S
C35 C34 1.398 . S
C36 C37 1.384 . S
C36 H49 0.947 . S
C36 C71 1.382 . S
C37 C36 1.384 . S
C37 C38 1.378 . S
C38 C37 1.378 . S
C38 C39 1.378 . S
C38 H50 0.952 . S
C39 C38 1.378 . S
C39 H51 0.950 . S
C39 C70 1.383 . S
H40 C59 0.947 . S
H41 C60 0.946 . S
H42 C62 0.953 . S
H43 C63 0.945 . S
H44 C65 0.952 . S
H45 C66 0.949 . S
H46 C68 0.950 . S
H47 C69 0.948 . S
H48 C71 0.951 . S
H49 C36 0.947 . S
H50 C38 0.952 . S
H51 C39 0.950 . S
N52 C55 1.382 . S
N52 C57 1.363 . S
N53 C55 1.371 . S
N53 C56 1.372 . S
N54 C56 1.361 . S
N54 C57 1.377 . S
C55 N52 1.382 . S
C55 N53 1.371 . S
C55 C58 1.480 . S
C56 N53 1.372 . S
C56 N54 1.361 . S
C56 C64 1.457 . S
C57 N52 1.363 . S
C57 N54 1.377 . S
C57 C70 1.479 . S
C58 C55 1.480 . S
C58 C59 1.383 . S
C58 C63 1.385 . S
C59 H40 0.947 . S
C59 C58 1.383 . S
C59 C60 1.388 . S
C60 H41 0.946 . S
C60 C59 1.388 . S
C60 C61 1.384 . S
C61 C60 1.384 . S
C61 C62 1.377 . S
C62 H42 0.953 . S
C62 C61 1.377 . S
C62 C63 1.369 . S
C63 H43 0.945 . S
C63 C58 1.385 . S
C63 C62 1.369 . S
C64 C56 1.457 . S
C64 C65 1.372 . S
C64 C69 1.364 . S
C65 H44 0.952 . S
C65 C64 1.372 . S
C65 C66 1.389 . S
C66 H45 0.949 . S
C66 C65 1.389 . S
C66 C67 1.387 . S
C67 C66 1.387 . S
C67 C68 1.372 . S
C68 H46 0.950 . S
C68 C67 1.372 . S
C68 C69 1.379 . S
C69 H47 0.948 . S
C69 C64 1.364 . S
C69 C68 1.379 . S
C70 C39 1.383 . S
C70 C57 1.479 . S
C70 C71 1.398 . S
C71 C36 1.382 . S
C71 H48 0.951 . S
C71 C70 1.398 . S
C72 C73 1.384 . S
C72 H85 0.947 . S
C72 C107 1.382 . S
C73 C72 1.384 . S
C73 C74 1.378 . S
C74 C73 1.378 . S
C74 C75 1.378 . S
C74 H86 0.952 . S
C75 C74 1.378 . S
C75 H87 0.950 . S
C75 C106 1.383 . S
H76 C95 0.947 . S
H77 C96 0.946 . S
H78 C98 0.953 . S
H79 C99 0.945 . S
H80 C101 0.952 . S
H81 C102 0.949 . S
H82 C104 0.950 . S
H83 C105 0.948 . S
H84 C107 0.951 . S
H85 C72 0.947 . S
H86 C74 0.952 . S
H87 C75 0.950 . S
N88 C91 1.382 . S
N88 C93 1.363 . S
N89 C91 1.371 . S
N89 C92 1.372 . S
N90 C92 1.361 . S
N90 C93 1.377 . S
C91 N88 1.382 . S
C91 N89 1.371 . S
C91 C94 1.480 . S
C92 N89 1.372 . S
C92 N90 1.361 . S
C92 C100 1.457 . S
C93 N88 1.363 . S
C93 N90 1.377 . S
C93 C106 1.479 . S
C94 C91 1.480 . S
C94 C95 1.383 . S
C94 C99 1.385 . S
C95 H76 0.947 . S
C95 C94 1.383 . S
C95 C96 1.388 . S
C96 H77 0.946 . S
C96 C95 1.388 . S
C96 C97 1.384 . S
C97 C96 1.384 . S
C97 C98 1.377 . S
C98 H78 0.953 . S
C98 C97 1.377 . S
C98 C99 1.369 . S
C99 H79 0.945 . S
C99 C94 1.385 . S
C99 C98 1.369 . S
C100 C92 1.457 . S
C100 C101 1.372 . S
C100 C105 1.364 . S
C101 H80 0.952 . S
C101 C100 1.372 . S
C101 C102 1.389 . S
C102 H81 0.949 . S
C102 C101 1.389 . S
C102 C103 1.387 . S
C103 C102 1.387 . S
C103 C104 1.372 . S
C104 H82 0.950 . S
C104 C103 1.372 . S
C104 C105 1.379 . S
C105 H83 0.948 . S
C105 C100 1.364 . S
C105 C104 1.379 . S
C106 C75 1.383 . S
C106 C93 1.479 . S
C106 C107 1.398 . S
C107 C72 1.382 . S
C107 H84 0.951 . S
C107 C106 1.398 . S
C108 C109 1.384 . S
C108 H121 0.947 . S
C108 C143 1.382 . S
C109 C108 1.384 . S
C109 C110 1.378 . S
C110 C109 1.378 . S
C110 C111 1.378 . S
C110 H122 0.952 . S
C111 C110 1.378 . S
C111 H123 0.950 . S
C111 C142 1.383 . S
H112 C131 0.947 . S
H113 C132 0.946 . S
H114 C134 0.953 . S
H115 C135 0.945 . S
H116 C137 0.952 . S
H117 C138 0.949 . S
H118 C140 0.950 . S
H119 C141 0.948 . S
H120 C143 0.951 . S
H121 C108 0.947 . S
H122 C110 0.952 . S
H123 C111 0.950 . S
N124 C127 1.382 . S
N124 C129 1.363 . S
N125 C127 1.371 . S
N125 C128 1.372 . S
N126 C128 1.361 . S
N126 C129 1.377 . S
C127 N124 1.382 . S
C127 N125 1.371 . S
C127 C130 1.480 . S
C128 N125 1.372 . S
C128 N126 1.361 . S
C128 C136 1.457 . S
C129 N124 1.363 . S
C129 N126 1.377 . S
C129 C142 1.479 . S
C130 C127 1.480 . S
C130 C131 1.383 . S
C130 C135 1.385 . S
C131 H112 0.947 . S
C131 C130 1.383 . S
C131 C132 1.388 . S
C132 H113 0.946 . S
C132 C131 1.388 . S
C132 C133 1.384 . S
C133 C132 1.384 . S
C133 C134 1.377 . S
C134 H114 0.953 . S
C134 C133 1.377 . S
C134 C135 1.369 . S
C135 H115 0.945 . S
C135 C130 1.385 . S
C135 C134 1.369 . S
C136 C128 1.457 . S
C136 C137 1.372 . S
C136 C141 1.364 . S
C137 H116 0.952 . S
C137 C136 1.372 . S
C137 C138 1.389 . S
C138 H117 0.949 . S
C138 C137 1.389 . S
C138 C139 1.387 . S
C139 C138 1.387 . S
C139 C140 1.372 . S
C140 H118 0.950 . S
C140 C139 1.372 . S
C140 C141 1.379 . S
C141 H119 0.948 . S
C141 C136 1.364 . S
C141 C140 1.379 . S
C142 C111 1.383 . S
C142 C129 1.479 . S
C142 C143 1.398 . S
C143 C108 1.382 . S
C143 H120 0.951 . S
C143 C142 1.398 . S
C144 C145 1.384 . S
C144 H157 0.947 . S
C144 C179 1.382 . S
C145 C144 1.384 . S
C145 C146 1.378 . S
C146 C145 1.378 . S
C146 C147 1.378 . S
C146 H158 0.952 . S
C147 C146 1.378 . S
C147 H159 0.950 . S
C147 C178 1.383 . S
H148 C167 0.947 . S
H149 C168 0.946 . S
H150 C170 0.953 . S
H151 C171 0.945 . S
H152 C173 0.952 . S
H153 C174 0.949 . S
H154 C176 0.950 . S
H155 C177 0.948 . S
H156 C179 0.951 . S
H157 C144 0.947 . S
H158 C146 0.952 . S
H159 C147 0.950 . S
N160 C163 1.382 . S
N160 C165 1.363 . S
N161 C163 1.371 . S
N161 C164 1.372 . S
N162 C164 1.361 . S
N162 C165 1.377 . S
C163 N160 1.382 . S
C163 N161 1.371 . S
C163 C166 1.480 . S
C164 N161 1.372 . S
C164 N162 1.361 . S
C164 C172 1.457 . S
C165 N160 1.363 . S
C165 N162 1.377 . S
C165 C178 1.479 . S
C166 C163 1.480 . S
C166 C167 1.383 . S
C166 C171 1.385 . S
C167 H148 0.947 . S
C167 C166 1.383 . S
C167 C168 1.388 . S
C168 H149 0.946 . S
C168 C167 1.388 . S
C168 C169 1.384 . S
C169 C168 1.384 . S
C169 C170 1.377 . S
C170 H150 0.953 . S
C170 C169 1.377 . S
C170 C171 1.369 . S
C171 H151 0.945 . S
C171 C166 1.385 . S
C171 C170 1.369 . S
C172 C164 1.457 . S
C172 C173 1.372 . S
C172 C177 1.364 . S
C173 H152 0.952 . S
C173 C172 1.372 . S
C173 C174 1.389 . S
C174 H153 0.949 . S
C174 C173 1.389 . S
C174 C175 1.387 . S
C175 C174 1.387 . S
C175 C176 1.372 . S
C176 H154 0.950 . S
C176 C175 1.372 . S
C176 C177 1.379 . S
C177 H155 0.948 . S
C177 C172 1.364 . S
C177 C176 1.379 . S
C178 C147 1.383 . S
C178 C165 1.479 . S
C178 C179 1.398 . S
C179 C144 1.382 . S
C179 H156 0.951 . S
C179 C178 1.398 . S
C180 C181 1.384 . S
C180 H193 0.947 . S
C180 C215 1.382 . S
C181 C180 1.384 . S
C181 C182 1.378 . S
C182 C181 1.378 . S
C182 C183 1.378 . S
C182 H194 0.952 . S
C183 C182 1.378 . S
C183 H195 0.950 . S
C183 C214 1.383 . S
H184 C203 0.947 . S
H185 C204 0.946 . S
H186 C206 0.953 . S
H187 C207 0.945 . S
H188 C209 0.952 . S
H189 C210 0.949 . S
H190 C212 0.950 . S
H191 C213 0.948 . S
H192 C215 0.951 . S
H193 C180 0.947 . S
H194 C182 0.952 . S
H195 C183 0.950 . S
N196 C199 1.382 . S
N196 C201 1.363 . S
N197 C199 1.371 . S
N197 C200 1.372 . S
N198 C200 1.361 . S
N198 C201 1.377 . S
C199 N196 1.382 . S
C199 N197 1.371 . S
C199 C202 1.480 . S
C200 N197 1.372 . S
C200 N198 1.361 . S
C200 C208 1.457 . S
C201 N196 1.363 . S
C201 N198 1.377 . S
C201 C214 1.479 . S
C202 C199 1.480 . S
C202 C203 1.383 . S
C202 C207 1.385 . S
C203 H184 0.947 . S
C203 C202 1.383 . S
C203 C204 1.388 . S
C204 H185 0.946 . S
C204 C203 1.388 . S
C204 C205 1.384 . S
C205 C204 1.384 . S
C205 C206 1.377 . S
C206 H186 0.953 . S
C206 C205 1.377 . S
C206 C207 1.369 . S
C207 H187 0.945 . S
C207 C202 1.385 . S
C207 C206 1.369 . S
C208 C200 1.457 . S
C208 C209 1.372 . S
C208 C213 1.364 . S
C209 H188 0.952 . S
C209 C208 1.372 . S
C209 C210 1.389 . S
C210 H189 0.949 . S
C210 C209 1.389 . S
C210 C211 1.387 . S
C211 C210 1.387 . S
C211 C212 1.372 . S
C212 H190 0.950 . S
C212 C211 1.372 . S
C212 C213 1.379 . S
C213 H191 0.948 . S
C213 C208 1.364 . S
C213 C212 1.379 . S
C214 C183 1.383 . S
C214 C201 1.479 . S
C214 C215 1.398 . S
C215 C180 1.382 . S
C215 H192 0.951 . S
C215 C214 1.398 . S
C216 C217 1.384 . S
C216 H229 0.947 . S
C216 C251 1.382 . S
C217 C216 1.384 . S
C217 C218 1.378 . S
C218 C217 1.378 . S
C218 C219 1.378 . S
C218 H230 0.952 . S
C219 C218 1.378 . S
C219 H231 0.950 . S
C219 C250 1.383 . S
H220 C239 0.947 . S
H221 C240 0.946 . S
H222 C242 0.953 . S
H223 C243 0.945 . S
H224 C245 0.952 . S
H225 C246 0.949 . S
H226 C248 0.950 . S
H227 C249 0.948 . S
H228 C251 0.951 . S
H229 C216 0.947 . S
H230 C218 0.952 . S
H231 C219 0.950 . S
N232 C235 1.382 . S
N232 C237 1.363 . S
N233 C235 1.371 . S
N233 C236 1.372 . S
N234 C236 1.361 . S
N234 C237 1.377 . S
C235 N232 1.382 . S
C235 N233 1.371 . S
C235 C238 1.480 . S
C236 N233 1.372 . S
C236 N234 1.361 . S
C236 C244 1.457 . S
C237 N232 1.363 . S
C237 N234 1.377 . S
C237 C250 1.479 . S
C238 C235 1.480 . S
C238 C239 1.383 . S
C238 C243 1.385 . S
C239 H220 0.947 . S
C239 C238 1.383 . S
C239 C240 1.388 . S
C240 H221 0.946 . S
C240 C239 1.388 . S
C240 C241 1.384 . S
C241 C240 1.384 . S
C241 C242 1.377 . S
C242 H222 0.953 . S
C242 C241 1.377 . S
C242 C243 1.369 . S
C243 H223 0.945 . S
C243 C238 1.385 . S
C243 C242 1.369 . S
C244 C236 1.457 . S
C244 C245 1.372 . S
C244 C249 1.364 . S
C245 H224 0.952 . S
C245 C244 1.372 . S
C245 C246 1.389 . S
C246 H225 0.949 . S
C246 C245 1.389 . S
C246 C247 1.387 . S
C247 C246 1.387 . S
C247 C248 1.372 . S
C248 H226 0.950 . S
C248 C247 1.372 . S
C248 C249 1.379 . S
C249 H227 0.948 . S
C249 C244 1.364 . S
C249 C248 1.379 . S
C250 C219 1.383 . S
C250 C237 1.479 . S
C250 C251 1.398 . S
C251 C216 1.382 . S
C251 H228 0.951 . S
C251 C250 1.398 . S
C252 C253 1.384 . S
C252 H265 0.947 . S
C252 C287 1.382 . S
C253 C252 1.384 . S
C253 C254 1.378 . S
C254 C253 1.378 . S
C254 C255 1.378 . S
C254 H266 0.952 . S
C255 C254 1.378 . S
C255 H267 0.950 . S
C255 C286 1.383 . S
H256 C275 0.947 . S
H257 C276 0.946 . S
H258 C278 0.953 . S
H259 C279 0.945 . S
H260 C281 0.952 . S
H261 C282 0.949 . S
H262 C284 0.950 . S
H263 C285 0.948 . S
H264 C287 0.951 . S
H265 C252 0.947 . S
H266 C254 0.952 . S
H267 C255 0.950 . S
N268 C271 1.382 . S
N268 C273 1.363 . S
N269 C271 1.371 . S
N269 C272 1.372 . S
N270 C272 1.361 . S
N270 C273 1.377 . S
C271 N268 1.382 . S
C271 N269 1.371 . S
C271 C274 1.480 . S
C272 N269 1.372 . S
C272 N270 1.361 . S
C272 C280 1.457 . S
C273 N268 1.363 . S
C273 N270 1.377 . S
C273 C286 1.479 . S
C274 C271 1.480 . S
C274 C275 1.383 . S
C274 C279 1.385 . S
C275 H256 0.947 . S
C275 C274 1.383 . S
C275 C276 1.388 . S
C276 H257 0.946 . S
C276 C275 1.388 . S
C276 C277 1.384 . S
C277 C276 1.384 . S
C277 C278 1.377 . S
C278 H258 0.953 . S
C278 C277 1.377 . S
C278 C279 1.369 . S
C279 H259 0.945 . S
C279 C274 1.385 . S
C279 C278 1.369 . S
C280 C272 1.457 . S
C280 C281 1.372 . S
C280 C285 1.364 . S
C281 H260 0.952 . S
C281 C280 1.372 . S
C281 C282 1.389 . S
C282 H261 0.949 . S
C282 C281 1.389 . S
C282 C283 1.387 . S
C283 C282 1.387 . S
C283 C284 1.372 . S
C284 H262 0.950 . S
C284 C283 1.372 . S
C284 C285 1.379 . S
C285 H263 0.948 . S
C285 C280 1.364 . S
C285 C284 1.379 . S
C286 C255 1.383 . S
C286 C273 1.479 . S
C286 C287 1.398 . S
C287 C252 1.382 . S
C287 H264 0.951 . S
C287 C286 1.398 . S
Zn288 O294 1.969 1_545 S
Zn288 O295 1.965 1_545 S
Zn288 O299 2.024 . S
Zn288 O304 1.969 . S
Zn289 O296 1.969 . S
Zn289 O302 1.969 1_565 S
Zn289 O303 1.965 1_665 S
Zn289 O305 2.024 . S
C290 O291 1.229 . S
C290 O299 1.058 . S
O291 C290 1.229 . S
C292 O293 1.229 . S
C292 O305 1.058 . S
O293 C292 1.229 . S
O294 Zn288 1.969 1_565 S
O294 C297 1.267 . S
O295 Zn288 1.965 1_565 S
O295 C306 1.260 1_455 S
O296 Zn289 1.969 . S
O296 C306 1.258 . S
C297 O294 1.267 . S
C297 O298 1.228 . S
O298 C297 1.228 . S
O299 Zn288 2.024 . S
O299 C290 1.058 . S
C300 O301 1.228 . S
C300 O302 1.267 . S
O301 C300 1.228 . S
O302 Zn289 1.969 1_545 S
O302 C300 1.267 . S
O303 Zn289 1.965 1_445 S
O303 C307 1.260 . S
O304 Zn288 1.969 . S
O304 C307 1.258 . S
O305 Zn289 2.024 . S
O305 C292 1.058 . S
C306 O295 1.260 1_655 S
C306 O296 1.258 . S
C307 O303 1.260 . S
C307 O304 1.258 . S
Zn308 O314 1.969 . S
Zn308 O315 1.965 1_565 S
Zn308 O319 2.024 . S
Zn308 O324 1.969 1_556 S
Zn309 O316 1.969 . S
Zn309 O322 1.969 . S
Zn309 O323 1.965 1_545 S
Zn309 O325 2.024 . S
C310 O311 1.229 . S
C310 O319 1.058 . S
O311 C310 1.229 . S
C312 O313 1.229 . S
C312 O325 1.058 . S
O313 C312 1.229 . S
O314 Zn308 1.969 . S
O314 C317 1.267 . S
O315 Zn308 1.965 1_545 S
O315 C326 1.260 . S
O316 Zn309 1.969 . S
O316 C326 1.258 1_554 S
C317 O314 1.267 . S
C317 O318 1.228 . S
O318 C317 1.228 . S
O319 Zn308 2.024 . S
O319 C310 1.058 . S
C320 O321 1.228 . S
C320 O322 1.267 . S
O321 C320 1.228 . S
O322 Zn309 1.969 . S
O322 C320 1.267 . S
O323 Zn309 1.965 1_565 S
O323 C327 1.260 . S
O324 Zn308 1.969 1_554 S
O324 C327 1.258 . S
O325 Zn309 2.024 . S
O325 C312 1.058 . S
C326 O315 1.260 . S
C326 O316 1.258 1_556 S
C327 O323 1.260 . S
C327 O324 1.258 . S
Zn328 O334 1.969 . S
Zn328 O335 1.965 . S
Zn328 O339 2.024 . S
Zn328 O344 1.969 . S
Zn329 O336 1.969 . S
Zn329 O342 1.969 . S
Zn329 O343 1.965 . S
Zn329 O345 2.024 . S
C330 O331 1.229 . S
C330 O339 1.058 . S
O331 C330 1.229 . S
C332 O333 1.229 . S
C332 O345 1.058 . S
O333 C332 1.229 . S
O334 Zn328 1.969 . S
O334 C337 1.267 . S
O335 Zn328 1.965 . S
O335 C346 1.260 . S
O336 Zn329 1.969 . S
O336 C346 1.258 . S
C337 O334 1.267 . S
C337 O338 1.228 . S
O338 C337 1.228 . S
O339 Zn328 2.024 . S
O339 C330 1.058 . S
C340 O341 1.228 . S
C340 O342 1.267 . S
O341 C340 1.228 . S
O342 Zn329 1.969 . S
O342 C340 1.267 . S
O343 Zn329 1.965 . S
O343 C347 1.260 . S
O344 Zn328 1.969 . S
O344 C347 1.258 . S
O345 Zn329 2.024 . S
O345 C332 1.058 . S
C346 O335 1.260 . S
C346 O336 1.258 . S
C347 O343 1.260 . S
C347 O344 1.258 . S
Zn348 O354 1.969 . S
Zn348 O355 1.965 1_556 S
Zn348 O359 2.024 . S
Zn348 O364 1.969 1_655 S
Zn349 O356 1.969 . S
Zn349 O362 1.969 . S
Zn349 O363 1.965 1_554 S
Zn349 O365 2.024 . S
C350 O351 1.229 . S
C350 O359 1.058 . S
O351 C350 1.229 . S
C352 O353 1.229 . S
C352 O365 1.058 . S
O353 C352 1.229 . S
O354 Zn348 1.969 . S
O354 C357 1.267 . S
O355 Zn348 1.965 1_554 S
O355 C366 1.260 . S
O356 Zn349 1.969 . S
O356 C366 1.258 1_455 S
C357 O354 1.267 . S
C357 O358 1.228 . S
O358 C357 1.228 . S
O359 Zn348 2.024 . S
O359 C350 1.058 . S
C360 O361 1.228 . S
C360 O362 1.267 . S
O361 C360 1.228 . S
O362 Zn349 1.969 . S
O362 C360 1.267 . S
O363 Zn349 1.965 1_556 S
O363 C367 1.260 . S
O364 Zn348 1.969 1_455 S
O364 C367 1.258 . S
O365 Zn349 2.024 . S
O365 C352 1.058 . S
C366 O355 1.260 . S
C366 O356 1.258 1_655 S
C367 O363 1.260 . S
C367 O364 1.258 . S
C368 C369 1.369 . S
C368 C370 1.419 . S
C368 H372 0.930 . S
C369 C368 1.369 . S
C369 C378 1.429 . S
C370 C368 1.419 . S
C370 C371 1.363 . S
C370 H373 0.929 . S
C371 C370 1.363 . S
C371 C377 1.428 . S
H372 C368 0.930 . S
H373 C370 0.929 . S
S374 N375 1.613 . S
S374 N376 1.610 . S
N375 S374 1.613 . S
N375 C378 1.350 . S
N376 S374 1.610 . S
N376 C377 1.351 . S
C377 C371 1.428 . S
C377 N376 1.351 . S
C377 C378 1.434 . S
C378 C369 1.429 . S
C378 N375 1.350 . S
C378 C377 1.434 . S
C379 C380 1.369 . S
C379 C381 1.419 . S
C379 H383 0.930 . S
C380 C379 1.369 . S
C380 C389 1.429 . S
C381 C379 1.419 . S
C381 C382 1.363 . S
C381 H384 0.929 . S
C382 C381 1.363 . S
C382 C388 1.428 . S
H383 C379 0.930 . S
H384 C381 0.929 . S
S385 N386 1.613 . S
S385 N387 1.610 . S
N386 S385 1.613 . S
N386 C389 1.350 . S
N387 S385 1.610 . S
N387 C388 1.351 . S
C388 C382 1.428 . S
C388 N387 1.351 . S
C388 C389 1.434 . S
C389 C380 1.429 . S
C389 N386 1.350 . S
C389 C388 1.434 . S
C390 C391 1.369 . S
C390 C392 1.419 . S
C390 H394 0.930 . S
C391 C390 1.369 . S
C391 C400 1.429 . S
C392 C390 1.419 . S
C392 C393 1.363 . S
C392 H395 0.929 . S
C393 C392 1.363 . S
C393 C399 1.428 . S
H394 C390 0.930 . S
H395 C392 0.929 . S
S396 N397 1.613 . S
S396 N398 1.610 . S
N397 S396 1.613 . S
N397 C400 1.350 . S
N398 S396 1.610 . S
N398 C399 1.351 . S
C399 C393 1.428 . S
C399 N398 1.351 . S
C399 C400 1.434 . S
C400 C391 1.429 . S
C400 N397 1.350 . S
C400 C399 1.434 . S
C401 C402 1.369 . S
C401 C403 1.419 . S
C401 H405 0.930 . S
C402 C401 1.369 . S
C402 C411 1.429 . S
C403 C401 1.419 . S
C403 C404 1.363 . S
C403 H406 0.929 . S
C404 C403 1.363 . S
C404 C410 1.428 . S
H405 C401 0.930 . S
H406 C403 0.929 . S
S407 N408 1.613 . S
S407 N409 1.610 . S
N408 S407 1.613 . S
N408 C411 1.350 . S
N409 S407 1.610 . S
N409 C410 1.351 . S
C410 C404 1.428 . S
C410 N409 1.351 . S
C410 C411 1.434 . S
C411 C402 1.429 . S
C411 N408 1.350 . S
C411 C410 1.434 . S
C412 C413 1.369 . S
C412 C414 1.419 . S
C412 H416 0.930 . S
C413 C412 1.369 . S
C413 C422 1.429 . S
C414 C412 1.419 . S
C414 C415 1.363 . S
C414 H417 0.929 . S
C415 C414 1.363 . S
C415 C421 1.428 . S
H416 C412 0.930 . S
H417 C414 0.929 . S
S418 N419 1.613 . S
S418 N420 1.610 . S
N419 S418 1.613 . S
N419 C422 1.350 . S
N420 S418 1.610 . S
N420 C421 1.351 . S
C421 C415 1.428 . S
C421 N420 1.351 . S
C421 C422 1.434 . S
C422 C413 1.429 . S
C422 N419 1.350 . S
C422 C421 1.434 . S
C423 C424 1.369 . S
C423 C425 1.419 . S
C423 H427 0.930 . S
C424 C423 1.369 . S
C424 C433 1.429 . S
C425 C423 1.419 . S
C425 C426 1.363 . S
C425 H428 0.929 . S
C426 C425 1.363 . S
C426 C432 1.428 . S
H427 C423 0.930 . S
H428 C425 0.929 . S
S429 N430 1.613 . S
S429 N431 1.610 . S
N430 S429 1.613 . S
N430 C433 1.350 . S
N431 S429 1.610 . S
N431 C432 1.351 . S
C432 C426 1.428 . S
C432 N431 1.351 . S
C432 C433 1.434 . S
C433 C424 1.429 . S
C433 N430 1.350 . S
C433 C432 1.434 . S
C434 C435 1.369 . S
C434 C436 1.419 . S
C434 H438 0.930 . S
C435 C434 1.369 . S
C435 C444 1.429 . S
C436 C434 1.419 . S
C436 C437 1.363 . S
C436 H439 0.929 . S
C437 C436 1.363 . S
C437 C443 1.428 . S
H438 C434 0.930 . S
H439 C436 0.929 . S
S440 N441 1.613 . S
S440 N442 1.610 . S
N441 S440 1.613 . S
N441 C444 1.350 . S
N442 S440 1.610 . S
N442 C443 1.351 . S
C443 C437 1.428 . S
C443 N442 1.351 . S
C443 C444 1.434 . S
C444 C435 1.429 . S
C444 N441 1.350 . S
C444 C443 1.434 . S
C445 C446 1.369 . S
C445 C447 1.419 . S
C445 H449 0.930 . S
C446 C445 1.369 . S
C446 C455 1.429 . S
C447 C445 1.419 . S
C447 C448 1.363 . S
C447 H450 0.929 . S
C448 C447 1.363 . S
C448 C454 1.428 . S
H449 C445 0.930 . S
H450 C447 0.929 . S
S451 N452 1.613 . S
S451 N453 1.610 . S
N452 S451 1.613 . S
N452 C455 1.350 . S
N453 S451 1.610 . S
N453 C454 1.351 . S
C454 C448 1.428 . S
C454 N453 1.351 . S
C454 C455 1.434 . S
C455 C446 1.429 . S
C455 N452 1.350 . S
C455 C454 1.434 . S
C456 C457 1.369 . S
C456 C458 1.419 . S
C456 H460 0.930 . S
C457 C456 1.369 . S
C457 C466 1.429 . S
C458 C456 1.419 . S
C458 C459 1.363 . S
C458 H461 0.929 . S
C459 C458 1.363 . S
C459 C465 1.428 . S
H460 C456 0.930 . S
H461 C458 0.929 . S
S462 N463 1.613 . S
S462 N464 1.610 . S
N463 S462 1.613 . S
N463 C466 1.350 . S
N464 S462 1.610 . S
N464 C465 1.351 . S
C465 C459 1.428 . S
C465 N464 1.351 . S
C465 C466 1.434 . S
C466 C457 1.429 . S
C466 N463 1.350 . S
C466 C465 1.434 . S
C467 C468 1.369 . S
C467 C469 1.419 . S
C467 H471 0.930 . S
C468 C467 1.369 . S
C468 C477 1.429 . S
C469 C467 1.419 . S
C469 C470 1.363 . S
C469 H472 0.929 . S
C470 C469 1.363 . S
C470 C476 1.428 . S
H471 C467 0.930 . S
H472 C469 0.929 . S
S473 N474 1.613 . S
S473 N475 1.610 . S
N474 S473 1.613 . S
N474 C477 1.350 . S
N475 S473 1.610 . S
N475 C476 1.351 . S
C476 C470 1.428 . S
C476 N475 1.351 . S
C476 C477 1.434 . S
C477 C468 1.429 . S
C477 N474 1.350 . S
C477 C476 1.434 . S
C478 C479 1.369 . S
C478 C480 1.419 . S
C478 H482 0.930 . S
C479 C478 1.369 . S
C479 C488 1.429 . S
C480 C478 1.419 . S
C480 C481 1.363 . S
C480 H483 0.929 . S
C481 C480 1.363 . S
C481 C487 1.428 . S
H482 C478 0.930 . S
H483 C480 0.929 . S
S484 N485 1.613 . S
S484 N486 1.610 . S
N485 S484 1.613 . S
N485 C488 1.350 . S
N486 S484 1.610 . S
N486 C487 1.351 . S
C487 C481 1.428 . S
C487 N486 1.351 . S
C487 C488 1.434 . S
C488 C479 1.429 . S
C488 N485 1.350 . S
C488 C487 1.434 . S
C489 C490 1.369 . S
C489 C491 1.419 . S
C489 H493 0.930 . S
C490 C489 1.369 . S
C490 C499 1.429 . S
C491 C489 1.419 . S
C491 C492 1.363 . S
C491 H494 0.929 . S
C492 C491 1.363 . S
C492 C498 1.428 . S
H493 C489 0.930 . S
H494 C491 0.929 . S
S495 N496 1.613 . S
S495 N497 1.610 . S
N496 S495 1.613 . S
N496 C499 1.350 . S
N497 S495 1.610 . S
N497 C498 1.351 . S
C498 C492 1.428 . S
C498 N497 1.351 . S
C498 C499 1.434 . S
C499 C490 1.429 . S
C499 N496 1.350 . S
C499 C498 1.434 . S
C500 C501 1.369 . S
C500 C502 1.419 . S
C500 H504 0.930 . S
C501 C500 1.369 . S
C501 C510 1.429 . S
C502 C500 1.419 . S
C502 C503 1.363 . S
C502 H505 0.929 . S
C503 C502 1.363 . S
C503 C509 1.428 . S
H504 C500 0.930 . S
H505 C502 0.929 . S
S506 N507 1.611 . S
S506 N508 1.610 . S
N507 S506 1.611 . S
N507 C510 1.350 . S
N508 S506 1.610 . S
N508 C509 1.351 . S
C509 C503 1.428 . S
C509 N508 1.351 . S
C509 C510 1.434 . S
C510 C501 1.429 . S
C510 N507 1.350 . S
C510 C509 1.434 . S
C511 C512 1.369 . S
C511 C513 1.419 . S
C511 H515 0.930 . S
C512 C511 1.369 . S
C512 C521 1.429 . S
C513 C511 1.419 . S
C513 C514 1.363 . S
C513 H516 0.929 . S
C514 C513 1.363 . S
C514 C520 1.428 . S
H515 C511 0.930 . S
H516 C513 0.929 . S
S517 N518 1.613 . S
S517 N519 1.610 . S
N518 S517 1.613 . S
N518 C521 1.350 . S
N519 S517 1.610 . S
N519 C520 1.351 . S
C520 C514 1.428 . S
C520 N519 1.351 . S
C520 C521 1.434 . S
C521 C512 1.429 . S
C521 N518 1.350 . S
C521 C520 1.434 . S
C522 C523 1.369 . S
C522 C524 1.419 . S
C522 H526 0.930 . S
C523 C522 1.369 . S
C523 C532 1.429 . S
C524 C522 1.419 . S
C524 C525 1.363 . S
C524 H527 0.929 . S
C525 C524 1.363 . S
C525 C531 1.428 . S
H526 C522 0.930 . S
H527 C524 0.929 . S
S528 N529 1.613 . S
S528 N530 1.610 . S
N529 S528 1.613 . S
N529 C532 1.350 . S
N530 S528 1.610 . S
N530 C531 1.351 . S
C531 C525 1.428 . S
C531 N530 1.351 . S
C531 C532 1.434 . S
C532 C523 1.429 . S
C532 N529 1.350 . S
C532 C531 1.434 . S
C533 C534 1.369 . S
C533 C535 1.419 . S
C533 H537 0.930 . S
C534 C533 1.369 . S
C534 C543 1.429 . S
C535 C533 1.419 . S
C535 C536 1.363 . S
C535 H538 0.929 . S
C536 C535 1.363 . S
C536 C542 1.428 . S
H537 C533 0.930 . S
H538 C535 0.929 . S
S539 N540 1.613 . S
S539 N541 1.610 . S
N540 S539 1.613 . S
N540 C543 1.350 . S
N541 S539 1.610 . S
N541 C542 1.351 . S
C542 C536 1.428 . S
C542 N541 1.351 . S
C542 C543 1.434 . S
C543 C534 1.429 . S
C543 N540 1.350 . S
C543 C542 1.434 . S
C544 C545 1.369 . S
C544 C546 1.419 . S
C544 H548 0.930 . S
C545 C544 1.369 . S
C545 C554 1.429 . S
C546 C544 1.419 . S
C546 C547 1.363 . S
C546 H549 0.929 . S
C547 C546 1.363 . S
C547 C553 1.428 . S
H548 C544 0.930 . S
H549 C546 0.929 . S
S550 N551 1.613 . S
S550 N552 1.610 . S
N551 S550 1.613 . S
N551 C554 1.350 . S
N552 S550 1.610 . S
N552 C553 1.351 . S
C553 C547 1.428 . S
C553 N552 1.351 . S
C553 C554 1.434 . S
C554 C545 1.429 . S
C554 N551 1.350 . S
C554 C553 1.434 . S
C555 C556 1.369 . S
C555 C557 1.419 . S
C555 H559 0.930 . S
C556 C555 1.369 . S
C556 C565 1.429 . S
C557 C555 1.419 . S
C557 C558 1.363 . S
C557 H560 0.929 . S
C558 C557 1.363 . S
C558 C564 1.428 . S
H559 C555 0.930 . S
H560 C557 0.929 . S
S561 N562 1.613 . S
S561 N563 1.610 . S
N562 S561 1.613 . S
N562 C565 1.350 . S
N563 S561 1.610 . S
N563 C564 1.351 . S
C564 C558 1.428 . S
C564 N563 1.351 . S
C564 C565 1.434 . S
C565 C556 1.429 . S
C565 N562 1.350 . S
C565 C564 1.434 . S
C566 C567 1.369 . S
C566 C568 1.419 . S
C566 H570 0.930 . S
C567 C566 1.369 . S
C567 C576 1.429 . S
C568 C566 1.419 . S
C568 C569 1.363 . S
C568 H571 0.929 . S
C569 C568 1.363 . S
C569 C575 1.428 . S
H570 C566 0.930 . S
H571 C568 0.929 . S
S572 N573 1.613 . S
S572 N574 1.610 . S
N573 S572 1.613 . S
N573 C576 1.350 . S
N574 S572 1.610 . S
N574 C575 1.351 . S
C575 C569 1.428 . S
C575 N574 1.351 . S
C575 C576 1.434 . S
C576 C567 1.429 . S
C576 N573 1.350 . S
C576 C575 1.434 . S
C577 C578 1.369 . S
C577 C579 1.419 . S
C577 H581 0.930 . S
C578 C577 1.369 . S
C578 C587 1.429 . S
C579 C577 1.419 . S
C579 C580 1.363 . S
C579 H582 0.929 . S
C580 C579 1.363 . S
C580 C586 1.428 . S
H581 C577 0.930 . S
H582 C579 0.929 . S
S583 N584 1.613 . S
S583 N585 1.610 . S
N584 S583 1.613 . S
N584 C587 1.350 . S
N585 S583 1.610 . S
N585 C586 1.351 . S
C586 C580 1.428 . S
C586 N585 1.351 . S
C586 C587 1.434 . S
C587 C578 1.429 . S
C587 N584 1.350 . S
C587 C586 1.434 . S
C588 C589 1.369 . S
C588 C590 1.419 . S
C588 H592 0.930 . S
C589 C588 1.369 . S
C589 C598 1.429 . S
C590 C588 1.419 . S
C590 C591 1.363 . S
C590 H593 0.929 . S
C591 C590 1.363 . S
C591 C597 1.428 . S
H592 C588 0.930 . S
H593 C590 0.929 . S
S594 N595 1.613 . S
S594 N596 1.610 . S
N595 S594 1.613 . S
N595 C598 1.350 . S
N596 S594 1.610 . S
N596 C597 1.351 . S
C597 C591 1.428 . S
C597 N596 1.351 . S
C597 C598 1.434 . S
C598 C589 1.429 . S
C598 N595 1.350 . S
C598 C597 1.434 . S
C599 C600 1.369 . S
C599 C601 1.419 . S
C599 H603 0.930 . S
C600 C599 1.369 . S
C600 C609 1.429 . S
C601 C599 1.419 . S
C601 C602 1.363 . S
C601 H604 0.929 . S
C602 C601 1.363 . S
C602 C608 1.428 . S
H603 C599 0.930 . S
H604 C601 0.929 . S
S605 N606 1.613 . S
S605 N607 1.610 . S
N606 S605 1.613 . S
N606 C609 1.350 . S
N607 S605 1.610 . S
N607 C608 1.351 . S
C608 C602 1.428 . S
C608 N607 1.351 . S
C608 C609 1.434 . S
C609 C600 1.429 . S
C609 N606 1.350 . S
C609 C608 1.434 . S
C610 C611 1.369 . S
C610 C612 1.419 . S
C610 H614 0.930 . S
C611 C610 1.369 . S
C611 C620 1.429 . S
C612 C610 1.419 . S
C612 C613 1.363 . S
C612 H615 0.929 . S
C613 C612 1.363 . S
C613 C619 1.428 . S
H614 C610 0.930 . S
H615 C612 0.929 . S
S616 N617 1.613 . S
S616 N618 1.610 . S
N617 S616 1.613 . S
N617 C620 1.350 . S
N618 S616 1.610 . S
N618 C619 1.351 . S
C619 C613 1.428 . S
C619 N618 1.351 . S
C619 C620 1.434 . S
C620 C611 1.429 . S
C620 N617 1.350 . S
C620 C619 1.434 . S
C621 C622 1.369 . S
C621 C623 1.419 . S
C621 H625 0.930 . S
C622 C621 1.369 . S
C622 C631 1.429 . S
C623 C621 1.419 . S
C623 C624 1.363 . S
C623 H626 0.929 . S
C624 C623 1.363 . S
C624 C630 1.428 . S
H625 C621 0.930 . S
H626 C623 0.929 . S
S627 N628 1.613 . S
S627 N629 1.610 . S
N628 S627 1.613 . S
N628 C631 1.350 . S
N629 S627 1.610 . S
N629 C630 1.351 . S
C630 C624 1.428 . S
C630 N629 1.351 . S
C630 C631 1.434 . S
C631 C622 1.429 . S
C631 N628 1.350 . S
C631 C630 1.434 . S
C369 C1 1.555 . S
C371 C307 1.489 . S
C380 C67 1.304 . S
C382 C310 1.263 . S
C393 C346 1.778 . S
C391 C97 1.801 . S
C402 C133 1.687 . S
C404 C366 1.692 . S
C415 C320 1.640 . S
C413 C25 1.689 . S
C426 C297 1.476 . S
C424 C37 1.492 . S
C437 C350 1.573 . S
C435 C103 1.711 . S
C448 C330 1.419 . S
C446 C109 1.504 . S
C457 C31 1.414 . S
C459 C360 1.327 . S
C470 C326 1.644 . S
C468 C73 1.663 . S
C479 C139 1.657 . S
C481 C292 1.626 . S
C490 C61 1.328 . S
C492 C340 1.298 . S
C503 C306 1.502 . S
C501 C175 1.514 . S
C512 C181 1.283 . S
C514 C312 1.250 . S
C523 C247 1.804 . S
C525 C347 1.792 . S
C534 C277 1.684 . S
C536 C367 1.686 . S
C545 C145 1.663 . S
C547 C317 1.637 . S
C558 C300 1.480 . S
C556 C211 1.497 . S
C569 C352 1.556 . S
C567 C217 1.690 . S
C580 C332 1.428 . S
C578 C283 1.505 . S
C589 C169 1.375 . S
C591 C357 1.323 . S
C602 C327 1.655 . S
C600 C241 1.659 . S
C613 C290 1.613 . S
C611 C253 1.657 . S
C622 C205 1.334 . S
C624 C337 1.301 . S
