# Generated by pormake.
# Topology ssa, (4,4)-cn, num edge types: 1
# Building blocks:
#     Node 0, Type 0, BuildingBlock: NAWXER_clean_sbu_0, # of connection points: 4
#     Node 1, Type 0, BuildingBlock: NAWXER_clean_sbu_0, # of connection points: 4
#     Node 2, Type 0, BuildingBlock: NAWXER_clean_sbu_0, # of connection points: 4
#     Node 3, Type 0, BuildingBlock: NAWXER_clean_sbu_0, # of connection points: 4
#     Node 4, Type 0, BuildingBlock: NAWXER_clean_sbu_0, # of connection points: 4
#     Node 5, Type 0, BuildingBlock: NAWXER_clean_sbu_0, # of connection points: 4
#     Node 6, Type 1, BuildingBlock: MUDLON_clean_linker_0, # of connection points: 4
#     Node 7, Type 1, BuildingBlock: MUDLON_clean_linker_0, # of connection points: 4
#     Node 8, Type 1, BuildingBlock: MUDLON_clean_linker_0, # of connection points: 4
#     Node 9, Type 1, BuildingBlock: MUDLON_clean_linker_0, # of connection points: 4
#     Node 10, Type 1, BuildingBlock: MUDLON_clean_linker_0, # of connection points: 4
#     Node 11, Type 1, BuildingBlock: MUDLON_clean_linker_0, # of connection points: 4
#     Edge 12, Type (0, 1), BuildingBlock: OJICUG_clean_linker_0, # of connection points: 2
#     Edge 13, Type (0, 1), BuildingBlock: OJICUG_clean_linker_0, # of connection points: 2
#     Edge 14, Type (0, 1), BuildingBlock: OJICUG_clean_linker_0, # of connection points: 2
#     Edge 15, Type (0, 1), BuildingBlock: OJICUG_clean_linker_0, # of connection points: 2
#     Edge 16, Type (0, 1), BuildingBlock: OJICUG_clean_linker_0, # of connection points: 2
#     Edge 17, Type (0, 1), BuildingBlock: OJICUG_clean_linker_0, # of connection points: 2
#     Edge 18, Type (0, 1), BuildingBlock: OJICUG_clean_linker_0, # of connection points: 2
#     Edge 19, Type (0, 1), BuildingBlock: OJICUG_clean_linker_0, # of connection points: 2
#     Edge 20, Type (0, 1), BuildingBlock: OJICUG_clean_linker_0, # of connection points: 2
#     Edge 21, Type (0, 1), BuildingBlock: OJICUG_clean_linker_0, # of connection points: 2
#     Edge 22, Type (0, 1), BuildingBlock: OJICUG_clean_linker_0, # of connection points: 2
#     Edge 23, Type (0, 1), BuildingBlock: OJICUG_clean_linker_0, # of connection points: 2
#     Edge 24, Type (0, 1), BuildingBlock: OJICUG_clean_linker_0, # of connection points: 2
#     Edge 25, Type (0, 1), BuildingBlock: OJICUG_clean_linker_0, # of connection points: 2
#     Edge 26, Type (0, 1), BuildingBlock: OJICUG_clean_linker_0, # of connection points: 2
#     Edge 27, Type (0, 1), BuildingBlock: OJICUG_clean_linker_0, # of connection points: 2
#     Edge 28, Type (0, 1), BuildingBlock: OJICUG_clean_linker_0, # of connection points: 2
#     Edge 29, Type (0, 1), BuildingBlock: OJICUG_clean_linker_0, # of connection points: 2
#     Edge 30, Type (0, 1), BuildingBlock: OJICUG_clean_linker_0, # of connection points: 2
#     Edge 31, Type (0, 1), BuildingBlock: OJICUG_clean_linker_0, # of connection points: 2
#     Edge 32, Type (0, 1), BuildingBlock: OJICUG_clean_linker_0, # of connection points: 2
#     Edge 33, Type (0, 1), BuildingBlock: OJICUG_clean_linker_0, # of connection points: 2
#     Edge 34, Type (0, 1), BuildingBlock: OJICUG_clean_linker_0, # of connection points: 2
#     Edge 35, Type (0, 1), BuildingBlock: OJICUG_clean_linker_0, # of connection points: 2
# Relax obj value: 0.011
# Max RMSD: 0.048
# Mean RMSD: 0.035
data_MOF--net-ssa--node1-NAWXER_clean_sbu_0--node2-MUDLON_clean_linker_0--edge1-OJICUG_clean_linker_0
_symmetry_space_group_name_H-M    P1
_symmetry_Int_Tables_number       1
_symmetry_cell_setting            triclinic
loop_
_symmetry_equiv_pos_as_xyz
'x, y, z'
_cell_length_a     54.639461
_cell_length_b     54.749904
_cell_length_c     30.183333
_cell_angle_alpha  90.000612
_cell_angle_beta   89.869611
_cell_angle_gamma 119.99022
loop_
_atom_site_label
_atom_site_type_symbol
_atom_site_fract_x
_atom_site_fract_y
_atom_site_fract_z
_atom_type_partial_charge
C0 C 0.04609 0.56231 0.10543 0.0
C1 C 0.98988 0.47715 0.01882 0.0
O2 O 0.02183 0.5416 0.11439 0.0
Zn3 Zn 0.01737 0.51951 0.06203 0.0
O4 O 0.05832 0.56243 0.06908 0.0
Zn5 Zn 0.0493 0.53564 0.01255 0.0
O6 O 0.04769 0.55792 0.96441 0.0
O7 O 0.01147 0.54302 0.0102 0.0
O8 O 0.01295 0.4948 -0.00068 0.0
O9 O 0.98398 0.4828 0.05685 0.0
O10 O 0.04922 0.50763 0.06844 0.0
O11 O 0.07999 0.52754 0.0139 0.0
C12 C 0.02448 0.55646 0.97505 0.0
C13 C 0.07167 0.51191 0.04812 0.0
C14 C 0.54705 0.05336 0.52606 0.0
C15 C 0.58455 0.00237 0.44402 0.0
O16 O 0.54209 0.03029 0.54482 0.0
Zn17 Zn 0.55201 0.99717 0.53499 0.0
O18 O 0.56253 0.062 0.49156 0.0
Zn19 Zn 0.56814 0.02982 0.48659 0.0
O20 O 0.52506 0.99641 0.4776 0.0
O21 O 0.5143 0.96483 0.53088 0.0
O22 O 0.58719 0.02624 0.43496 0.0
O23 O 0.57225 0.9899 0.48009 0.0
O24 O 0.57516 0.00071 0.5856 0.0
O25 O 0.5963 0.03705 0.54039 0.0
C26 C 0.50718 0.97329 0.49659 0.0
C27 C 0.59643 0.0245 0.57614 0.0
C28 C 0.48667 0.45335 0.93928 0.0
C29 C 0.52742 0.54165 0.02282 0.0
O30 O 0.48458 0.47496 0.93075 0.0
Zn31 Zn 0.50565 0.49779 0.9815 0.0
O32 O 0.49967 0.45304 0.97429 0.0
Zn33 Zn 0.52125 0.4797 0.02855 0.0
O34 O 0.49796 0.45939 0.07908 0.0
O35 O 0.47865 0.4783 0.03724 0.0
O36 O 0.53157 0.5227 0.04051 0.0
O37 O 0.51276 0.53604 0.98762 0.0
O38 O 0.54808 0.5061 0.97051 0.0
O39 O 0.55864 0.48422 0.02216 0.0
C40 C 0.47802 0.46443 0.07182 0.0
C41 C 0.56574 0.50004 0.98812 0.0
C42 C 0.08284 0.54787 0.53179 0.0
C43 C 0.03076 0.45458 0.59944 0.0
O44 O 0.09068 0.53906 0.56477 0.0
Zn45 Zn 0.05832 0.50096 0.56477 0.0
O46 O 0.06002 0.53107 0.51127 0.0
Zn47 Zn 0.02682 0.48813 0.51477 0.0
O48 O 0.99462 0.49339 0.52115 0.0
O49 O 0.02333 0.50779 0.57891 0.0
O50 O 0.01874 0.45703 0.56462 0.0
O51 O 0.05457 0.47499 0.61124 0.0
O52 O 0.06615 0.48316 0.50724 0.0
O53 O 0.03106 0.47171 0.46071 0.0
C54 C 1.00079 0.50416 0.55969 0.0
C55 C 0.05431 0.47293 0.46993 0.0
C56 C 0.51734 0.97011 0.01978 0.0
C57 C 0.47891 0.02119 0.94077 0.0
O58 O 0.52241 0.9931 0.03888 0.0
Zn59 Zn 0.51248 0.02629 0.03023 0.0
O60 O 0.50173 0.96161 0.98553 0.0
Zn61 Zn 0.4961 0.99381 0.98166 0.0
O62 O 0.53915 0.0272 0.97195 0.0
O63 O 0.55019 0.05863 0.02545 0.0
O64 O 0.47647 0.99749 0.93108 0.0
O65 O 0.49154 0.03359 0.9766 0.0
O66 O 0.48979 0.02241 0.08184 0.0
O67 O 0.4685 0.98614 0.03668 0.0
C68 C 0.55716 0.05024 0.99087 0.0
C69 C 0.46862 0.99849 0.07282 0.0
C70 C 0.59122 0.55543 0.56906 0.0
C71 C 0.50029 0.51502 0.494 0.0
O72 O 0.56964 0.55703 0.58035 0.0
Zn73 Zn 0.54613 0.5372 0.53045 0.0
O74 O 0.59104 0.54358 0.5323 0.0
Zn75 Zn 0.56222 0.52302 0.47845 0.0
O76 O 0.58028 0.54745 0.42817 0.0
O77 O 0.56459 0.56635 0.47691 0.0
O78 O 0.51857 0.51144 0.47266 0.0
O79 O 0.50735 0.52941 0.52949 0.0
O80 O 0.54109 0.49572 0.53856 0.0
O81 O 0.55841 0.486 0.47896 0.0
C82 C 0.57685 0.5678 0.43997 0.0
C83 C 0.54647 0.47883 0.51669 0.0
H84 H 0.37066 0.48052 0.31196 0.0
N85 N 0.33234 0.42408 0.30717 0.0
H86 H 0.40701 0.5033 0.36872 0.0
H87 H 0.33395 0.40249 0.38516 0.0
H88 H 0.37095 0.42503 0.44151 0.0
H89 H 0.3638 0.39988 0.298 0.0
H90 H 0.39835 0.40832 0.24046 0.0
H91 H 0.34027 0.45448 0.23051 0.0
H92 H 0.37237 0.46065 0.17049 0.0
H93 H 0.32306 0.46923 0.31482 0.0
H94 H 0.28394 0.38141 0.27876 0.0
H95 H 0.27985 0.46929 0.29703 0.0
H96 H 0.24077 0.38164 0.25871 0.0
H97 H 0.17787 0.46758 0.29689 0.0
H98 H 0.15308 0.47717 0.35577 0.0
H99 H 0.07509 0.40273 0.3187 0.0
H100 H 0.10009 0.39362 0.25924 0.0
H101 H 0.12414 0.39978 0.16337 0.0
H102 H 0.10745 0.4201 0.10669 0.0
H103 H 0.15889 0.50257 0.16403 0.0
H104 H 0.17485 0.48222 0.22089 0.0
H105 H 0.20861 0.46877 0.21981 0.0
H106 H 0.25157 0.46808 0.23708 0.0
H107 H 0.20179 0.38334 0.28847 0.0
N108 N 0.15374 0.42562 0.23509 0.0
H109 H 0.15866 0.38377 0.26912 0.0
C110 C 0.34929 0.43976 0.34466 0.0
C111 C 0.36964 0.46862 0.34122 0.0
C112 C 0.3905 0.48161 0.37359 0.0
C113 C 0.39173 0.46586 0.40934 0.0
C114 C 0.37034 0.4376 0.41427 0.0
C115 C 0.34919 0.42476 0.38231 0.0
C116 C 0.34929 0.42634 0.26882 0.0
C117 C 0.3655 0.41301 0.26998 0.0
C118 C 0.38518 0.41775 0.23667 0.0
C119 C 0.38861 0.43542 0.20045 0.0
C120 C 0.37119 0.44761 0.19827 0.0
C121 C 0.35224 0.44365 0.23243 0.0
C122 C 0.30676 0.42503 0.29878 0.0
C123 C 0.30525 0.44985 0.30322 0.0
C124 C 0.28044 0.44998 0.29242 0.0
C125 C 0.25669 0.42549 0.2763 0.0
C126 C 0.25837 0.40079 0.27176 0.0
C127 C 0.28306 0.4006 0.28303 0.0
C128 C 0.14074 0.42976 0.27377 0.0
C129 C 0.15555 0.4531 0.30187 0.0
C130 C 0.14134 0.45851 0.33559 0.0
C131 C 0.11207 0.44079 0.34174 0.0
C132 C 0.09755 0.41699 0.31443 0.0
C133 C 0.11179 0.41158 0.28081 0.0
C134 C 0.15094 0.43932 0.19615 0.0
C135 C 0.13265 0.42238 0.1626 0.0
C136 C 0.12302 0.43397 0.1305 0.0
C137 C 0.13185 0.46288 0.13115 0.0
C138 C 0.15204 0.48029 0.16243 0.0
C139 C 0.16129 0.46862 0.19495 0.0
C140 C 0.18006 0.42606 0.24276 0.0
C141 C 0.20667 0.44988 0.23432 0.0
C142 C 0.23147 0.44957 0.24471 0.0
C143 C 0.2303 0.42568 0.26434 0.0
C144 C 0.20365 0.40196 0.27269 0.0
C145 C 0.17892 0.40218 0.26185 0.0
H146 H 0.72519 0.09977 0.89176 0.0
N147 N 0.73339 0.12861 0.81725 0.0
H148 H 0.68537 0.08414 0.94352 0.0
H149 H 0.69497 0.14709 0.81864 0.0
H150 H 0.65603 0.13236 0.87073 0.0
H151 H 0.71886 0.15137 0.74833 0.0
H152 H 0.68851 0.12524 0.68622 0.0
H153 H 0.71771 0.07619 0.79363 0.0
H154 H 0.68798 0.04992 0.73072 0.0
H155 H 0.78492 0.13557 0.81328 0.0
H156 H 0.74058 0.18222 0.81623 0.0
H157 H 0.83006 0.17986 0.81235 0.0
H158 H 0.78518 0.22621 0.81757 0.0
H159 H 0.95388 0.32717 0.8935 0.0
H160 H 0.96467 0.36437 0.94818 0.0
H161 H 0.89587 0.37364 0.8982 0.0
H162 H 0.88415 0.33543 0.8453 0.0
H163 H 0.90462 0.34527 0.77592 0.0
H164 H 0.93293 0.37527 0.71575 0.0
H165 H 0.99266 0.34629 0.73274 0.0
H166 H 0.96324 0.31491 0.79295 0.0
H167 H 0.90428 0.26234 0.86358 0.0
H168 H 0.85964 0.21773 0.85964 0.0
H169 H 0.82529 0.25724 0.77576 0.0
N170 N 0.91683 0.31141 0.82793 0.0
H171 H 0.86907 0.30163 0.7817 0.0
C172 C 0.71338 0.1248 0.85161 0.0
C173 C 0.71063 0.10761 0.88783 0.0
C174 C 0.68792 0.09869 0.91719 0.0
C175 C 0.66777 0.10717 0.91105 0.0
C176 C 0.67154 0.12592 0.87657 0.0
C177 C 0.69396 0.13443 0.84677 0.0
C178 C 0.72045 0.11562 0.77576 0.0
C179 C 0.71269 0.12941 0.74428 0.0
C180 C 0.69536 0.11439 0.70862 0.0
C181 C 0.68552 0.08536 0.70374 0.0
C182 C 0.69473 0.07211 0.73392 0.0
C183 C 0.71197 0.08712 0.76955 0.0
C184 C 0.75932 0.15535 0.81536 0.0
C185 C 0.78494 0.15536 0.81392 0.0
C186 C 0.81069 0.1807 0.81376 0.0
C187 C 0.81136 0.20672 0.8153 0.0
C188 C 0.78557 0.20666 0.81587 0.0
C189 C 0.75984 0.18129 0.81558 0.0
C190 C 0.91866 0.32891 0.86484 0.0
C191 C 0.94054 0.33655 0.89544 0.0
C192 C 0.94662 0.35769 0.92658 0.0
C193 C 0.93113 0.3718 0.92702 0.0
C194 C 0.90806 0.36298 0.8983 0.0
C195 C 0.90154 0.34132 0.86787 0.0
C196 C 0.93127 0.32696 0.78853 0.0
C197 C 0.92304 0.34421 0.76605 0.0
C198 C 0.93947 0.36171 0.73159 0.0
C199 C 0.96487 0.36296 0.7194 0.0
C200 C 0.9731 0.34563 0.74146 0.0
C201 C 0.95627 0.32762 0.77551 0.0
C202 C 0.8904 0.28541 0.82279 0.0
C203 C 0.88708 0.26126 0.84426 0.0
C204 C 0.8616 0.23573 0.84167 0.0
C205 C 0.83878 0.23375 0.8172 0.0
C206 C 0.84221 0.25799 0.7954 0.0
C207 C 0.86762 0.28357 0.79842 0.0
H208 H 0.57579 0.8733 0.27138 0.0
N209 N 0.61316 0.89468 0.20218 0.0
H210 H 0.57225 0.90038 0.33289 0.0
H211 H 0.64976 0.94769 0.2232 0.0
H212 H 0.64692 0.97492 0.28536 0.0
H213 H 0.63421 0.92075 0.12565 0.0
H214 H 0.61058 0.93506 0.07093 0.0
H215 H 0.55653 0.87724 0.20015 0.0
H216 H 0.53286 0.89081 0.14535 0.0
H217 H 0.56652 0.84112 0.20044 0.0
H218 H 0.65715 0.88754 0.21429 0.0
H219 H 0.56688 0.79703 0.20271 0.0
H220 H 0.65763 0.84323 0.21923 0.0
H221 H 0.56513 0.67694 0.25117 0.0
H222 H 0.55891 0.64548 0.31227 0.0
H223 H 0.64896 0.67824 0.31627 0.0
H224 H 0.6553 0.71082 0.25549 0.0
H225 H 0.6429 0.69652 0.15569 0.0
H226 H 0.62256 0.65833 0.10137 0.0
H227 H 0.5404 0.64971 0.12263 0.0
H228 H 0.56117 0.68859 0.17601 0.0
H229 H 0.5735 0.72124 0.24511 0.0
H230 H 0.57324 0.76539 0.24691 0.0
H231 H 0.65213 0.80583 0.17426 0.0
N232 N 0.61503 0.71257 0.20882 0.0
H233 H 0.65292 0.76164 0.17488 0.0
C234 C 0.6131 0.90858 0.24267 0.0
C235 C 0.59165 0.89533 0.27462 0.0
C236 C 0.58973 0.91087 0.3099 0.0
C237 C 0.60919 0.93992 0.31388 0.0
C238 C 0.63133 0.95273 0.28291 0.0
C239 C 0.63319 0.93718 0.24769 0.0
C240 C 0.59726 0.89783 0.1668 0.0
C241 C 0.61188 0.9135 0.12938 0.0
C242 C 0.59842 0.92166 0.09831 0.0
C243 C 0.56992 0.91395 0.104 0.0
C244 C 0.55472 0.89665 0.13987 0.0
C245 C 0.56831 0.88888 0.17127 0.0
C246 C 0.61202 0.86788 0.20634 0.0
C247 C 0.58656 0.84197 0.20427 0.0
C248 C 0.58676 0.81655 0.20608 0.0
C249 C 0.61232 0.81641 0.21078 0.0
C250 C 0.6376 0.84241 0.21447 0.0
C251 C 0.63739 0.86778 0.21206 0.0
C252 C 0.61092 0.69698 0.24933 0.0
C253 C 0.58375 0.67844 0.26614 0.0
C254 C 0.58014 0.66015 0.30096 0.0
C255 C 0.60346 0.65947 0.31896 0.0
C256 C 0.63065 0.67837 0.30289 0.0
C257 C 0.6343 0.69709 0.26857 0.0
C258 C 0.60355 0.69506 0.17026 0.0
C259 C 0.6207 0.68698 0.14749 0.0
C260 C 0.609 0.66507 0.1168 0.0
C261 C 0.57979 0.65067 0.10851 0.0
C262 C 0.56297 0.66041 0.12839 0.0
C263 C 0.57479 0.68252 0.1591 0.0
C264 C 0.61359 0.73814 0.21033 0.0
C265 C 0.59094 0.73951 0.22999 0.0
C266 C 0.59066 0.76492 0.2306 0.0
C267 C 0.61272 0.78938 0.21091 0.0
C268 C 0.63508 0.78771 0.19069 0.0
C269 C 0.63549 0.76241 0.19064 0.0
H270 H 0.97288 0.62834 0.76037 0.0
N271 N 0.9184 0.59378 0.74364 0.0
H272 H 1.00064 0.62492 0.82117 0.0
H273 H 0.89703 0.5597 0.81651 0.0
H274 H 0.92452 0.55548 0.87639 0.0
H275 H 0.90142 0.53742 0.74842 0.0
H276 H 0.91618 0.5122 0.6986 0.0
H277 H 0.94136 0.61057 0.66357 0.0
H278 H 0.95596 0.58504 0.61294 0.0
H279 H 0.91067 0.63519 0.77203 0.0
H280 H 0.86446 0.54804 0.73127 0.0
H281 H 0.86626 0.63397 0.78746 0.0
H282 H 0.82025 0.54714 0.74409 0.0
H283 H 0.73129 0.61268 0.87606 0.0
H284 H 0.69361 0.59029 0.93165 0.0
H285 H 0.66067 0.51088 0.86307 0.0
H286 H 0.69785 0.53334 0.80743 0.0
H287 H 0.71746 0.55142 0.73364 0.0
H288 H 0.68475 0.54624 0.67443 0.0
H289 H 0.68469 0.62089 0.72096 0.0
H290 H 0.7169 0.62539 0.78079 0.0
H291 H 0.78333 0.63242 0.77029 0.0
H292 H 0.82736 0.633 0.75412 0.0
H293 H 0.78958 0.54656 0.79892 0.0
N294 N 0.73533 0.59013 0.80057 0.0
H295 H 0.74542 0.54571 0.81246 0.0
C296 C 0.933 0.59434 0.78379 0.0
C297 C 0.96219 0.61292 0.78633 0.0
C298 C 0.97801 0.61071 0.82079 0.0
C299 C 0.96488 0.5897 0.85341 0.0
C300 C 0.93533 0.57209 0.85215 0.0
C301 C 0.91953 0.5744 0.81776 0.0
C302 C 0.92053 0.57617 0.70993 0.0
C303 C 0.91268 0.54787 0.71848 0.0
C304 C 0.92116 0.53341 0.68999 0.0
C305 C 0.93745 0.5468 0.65226 0.0
C306 C 0.94327 0.57419 0.64172 0.0
C307 C 0.93496 0.58877 0.67052 0.0
C308 C 0.89129 0.59198 0.75024 0.0
C309 C 0.89096 0.61592 0.76585 0.0
C310 C 0.86548 0.61519 0.77435 0.0
C311 C 0.83947 0.59048 0.76682 0.0
C312 C 0.83977 0.56644 0.75097 0.0
C313 C 0.86533 0.56706 0.74313 0.0
C314 C 0.71762 0.57482 0.83776 0.0
C315 C 0.71654 0.59024 0.87397 0.0
C316 C 0.69498 0.57748 0.90549 0.0
C317 C 0.67424 0.5489 0.90148 0.0
C318 C 0.67659 0.53286 0.86721 0.0
C319 C 0.69792 0.54573 0.83535 0.0
C320 C 0.71953 0.58883 0.76162 0.0
C321 C 0.71072 0.56687 0.73066 0.0
C322 C 0.6921 0.56403 0.69671 0.0
C323 C 0.68194 0.58307 0.69314 0.0
C324 C 0.69176 0.60564 0.72317 0.0
C325 C 0.71033 0.60843 0.75706 0.0
C326 C 0.76101 0.58929 0.79297 0.0
C327 C 0.78462 0.61362 0.77657 0.0
C328 C 0.80986 0.61393 0.76766 0.0
C329 C 0.81227 0.58988 0.7755 0.0
C330 C 0.78851 0.56539 0.79186 0.0
C331 C 0.76309 0.56498 0.80013 0.0
H332 H 0.17064 0.67217 0.34228 0.0
N333 N 0.15137 0.70958 0.33796 0.0
H334 H 0.16084 0.63843 0.40208 0.0
H335 H 0.13321 0.71155 0.41888 0.0
H336 H 0.12314 0.67766 0.47896 0.0
H337 H 0.0992 0.66487 0.34202 0.0
H338 H 0.07332 0.6306 0.28489 0.0
H339 H 0.16613 0.71381 0.24835 0.0
H340 H 0.13948 0.68049 0.19068 0.0
H341 H 0.20133 0.71509 0.30795 0.0
H342 H 0.16092 0.76153 0.34986 0.0
H343 H 0.24567 0.7591 0.29701 0.0
H344 H 0.20547 0.8057 0.34155 0.0
H345 H 0.3734 0.87591 0.32 0.0
H346 H 0.41171 0.89144 0.37346 0.0
H347 H 0.37874 0.93702 0.44509 0.0
H348 H 0.33981 0.92079 0.39174 0.0
H349 H 0.34869 0.94474 0.29337 0.0
H350 H 0.37821 0.97124 0.23018 0.0
H351 H 0.37968 0.89677 0.18659 0.0
H352 H 0.34948 0.87035 0.24921 0.0
H353 H 0.32695 0.83965 0.33334 0.0
H354 H 0.28282 0.79547 0.33514 0.0
H355 H 0.23851 0.83837 0.29279 0.0
N356 N 0.33364 0.89248 0.31724 0.0
H357 H 0.28293 0.88318 0.29415 0.0
C358 C 0.15246 0.6943 0.37617 0.0
C359 C 0.16148 0.67437 0.37277 0.0
C360 C 0.15582 0.65504 0.40701 0.0
C361 C 0.14097 0.65528 0.44494 0.0
C362 C 0.13443 0.67691 0.44991 0.0
C363 C 0.14021 0.69629 0.4158 0.0
C364 C 0.13556 0.69144 0.30103 0.0
C365 C 0.10838 0.66841 0.30918 0.0
C366 C 0.09331 0.64888 0.27607 0.0
C367 C 0.10441 0.65232 0.23301 0.0
C368 C 0.13066 0.67647 0.2238 0.0
C369 C 0.14607 0.69577 0.25727 0.0
C370 C 0.1777 0.73512 0.32932 0.0
C371 C 0.20206 0.7348 0.31502 0.0
C372 C 0.2275 0.76008 0.30901 0.0
C373 C 0.22936 0.78618 0.31834 0.0
C374 C 0.20488 0.78623 0.33293 0.0
C375 C 0.17938 0.76099 0.33807 0.0
C376 C 0.3535 0.89704 0.35212 0.0
C377 C 0.37373 0.8884 0.34796 0.0
C378 C 0.39564 0.89724 0.37862 0.0
C379 C 0.39809 0.91537 0.41333 0.0
C380 C 0.37721 0.92297 0.41861 0.0
C381 C 0.35501 0.91371 0.38835 0.0
C382 C 0.34697 0.90572 0.27597 0.0
C383 C 0.35488 0.93406 0.2695 0.0
C384 C 0.37199 0.94919 0.2337 0.0
C385 C 0.38163 0.93624 0.20362 0.0
C386 C 0.37248 0.90736 0.20893 0.0
C387 C 0.35528 0.89221 0.24479 0.0
C388 C 0.30834 0.86517 0.31449 0.0
C389 C 0.30794 0.83986 0.32454 0.0
C390 C 0.28244 0.81425 0.32507 0.0
C391 C 0.25682 0.81316 0.31459 0.0
C392 C 0.25758 0.83834 0.3023 0.0
C393 C 0.28301 0.86399 0.3026 0.0
H394 H 0.4277 0.10114 0.62673 0.0
N395 N 0.44776 0.1285 0.70245 0.0
H396 H 0.45231 0.08656 0.57413 0.0
H397 H 0.50475 0.14726 0.70142 0.0
H398 H 0.52939 0.13357 0.64854 0.0
H399 H 0.4845 0.15007 0.77224 0.0
H400 H 0.48822 0.12297 0.83332 0.0
H401 H 0.41113 0.07547 0.72367 0.0
H402 H 0.41414 0.04818 0.78556 0.0
H403 H 0.40303 0.13521 0.70607 0.0
H404 H 0.4941 0.18209 0.70693 0.0
H405 H 0.40209 0.17939 0.70982 0.0
H406 H 0.49344 0.22602 0.70871 0.0
H407 H 0.42833 0.33083 0.6386 0.0
H408 H 0.45582 0.36763 0.58378 0.0
H409 H 0.53181 0.36936 0.62732 0.0
H410 H 0.5041 0.33161 0.68047 0.0
H411 H 0.49659 0.34537 0.74964 0.0
H412 H 0.50125 0.37618 0.81043 0.0
H413 H 0.41263 0.34965 0.8011 0.0
H414 H 0.40762 0.31741 0.74035 0.0
H415 H 0.41216 0.26383 0.66294 0.0
H416 H 0.4116 0.21891 0.66472 0.0
H417 H 0.48313 0.25531 0.75346 0.0
N418 N 0.44842 0.31188 0.70153 0.0
H419 H 0.48426 0.29999 0.75007 0.0
C420 C 0.46426 0.12549 0.66775 0.0
C421 C 0.4501 0.10898 0.63085 0.0
C422 C 0.46412 0.10065 0.601 0.0
C423 C 0.49273 0.10906 0.60735 0.0
C424 C 0.50746 0.12721 0.64254 0.0
C425 C 0.49331 0.13512 0.67279 0.0
C426 C 0.44748 0.11471 0.74327 0.0
C427 C 0.46874 0.12801 0.77533 0.0
C428 C 0.47078 0.11243 0.81041 0.0
C429 C 0.45162 0.08329 0.81413 0.0
C430 C 0.42951 0.07045 0.78328 0.0
C431 C 0.42755 0.08604 0.74823 0.0
C432 C 0.44848 0.15513 0.70573 0.0
C433 C 0.4228 0.15503 0.70689 0.0
C434 C 0.42234 0.18031 0.70871 0.0
C435 C 0.4477 0.20637 0.70927 0.0
C436 C 0.47348 0.2064 0.70886 0.0
C437 C 0.47389 0.18109 0.70737 0.0
C438 C 0.46415 0.32889 0.66413 0.0
C439 C 0.45074 0.33845 0.63516 0.0
C440 C 0.46641 0.35935 0.60391 0.0
C441 C 0.49586 0.37129 0.60169 0.0
C442 C 0.5091 0.3604 0.62858 0.0
C443 C 0.49329 0.33901 0.65914 0.0
C444 C 0.45138 0.32813 0.74095 0.0
C445 C 0.47778 0.3451 0.76126 0.0
C446 C 0.48056 0.36307 0.79599 0.0
C447 C 0.45727 0.36516 0.81057 0.0
C448 C 0.43088 0.34834 0.79045 0.0
C449 C 0.42797 0.32982 0.75615 0.0
C450 C 0.44799 0.28542 0.70639 0.0
C451 C 0.42758 0.26198 0.68298 0.0
C452 C 0.42722 0.23629 0.68427 0.0
C453 C 0.44734 0.23341 0.70928 0.0
C454 C 0.46757 0.25683 0.73331 0.0
C455 C 0.46805 0.28258 0.73169 0.0
C456 C 0.07264 0.47272 0.08815 0.0
C457 C 0.0873 0.49832 0.06497 0.0
H458 H 0.07533 0.44126 0.12631 0.0
C459 C 0.11678 0.51116 0.06031 0.0
H460 H 0.04989 0.46226 0.092 0.0
C461 C 0.13146 0.49926 0.08057 0.0
C462 C 0.11675 0.47397 0.10466 0.0
H463 H 0.12856 0.53095 0.04266 0.0
H464 H 0.15429 0.51004 0.07817 0.0
C465 C 0.08717 0.46055 0.10743 0.0
C466 C 0.64397 0.06499 0.59626 0.0
C467 C 0.62048 0.0387 0.60723 0.0
H468 H 0.68314 0.10009 0.61767 0.0
C469 C 0.61952 0.02707 0.64912 0.0
H470 H 0.64549 0.07451 0.56416 0.0
C471 C 0.64105 0.04186 0.6799 0.0
C472 C 0.66409 0.06859 0.66946 0.0
H473 H 0.60172 0.00691 0.6587 0.0
H474 H 0.63905 0.03278 0.71249 0.0
C475 C 0.66552 0.07976 0.627 0.0
C476 C 0.53274 0.58993 0.03176 0.0
C477 C 0.54072 0.56998 0.04325 0.0
H478 H 0.53884 0.63137 0.04359 0.0
C479 C 0.56188 0.57716 0.07522 0.0
H480 H 0.51647 0.58497 0.00726 0.0
C481 C 0.5747 0.6035 0.09543 0.0
C482 C 0.56667 0.62342 0.08447 0.0
H483 H 0.56865 0.5624 0.08482 0.0
H484 H 0.59056 0.60803 0.12053 0.0
C485 C 0.54546 0.6164 0.05254 0.0
C486 C 0.96612 0.52162 0.55888 0.0
C487 C 0.98263 0.51303 0.58266 0.0
H488 H 0.93895 0.53951 0.5624 0.0
C489 C 0.98289 0.5143 0.62911 0.0
H490 H 0.96569 0.52099 0.52301 0.0
C491 C 0.96735 0.52434 0.65143 0.0
C492 C 0.95154 0.53379 0.62779 0.0
H493 H 0.99536 0.50774 0.6483 0.0
H494 H 0.96847 0.52561 0.68726 0.0
C495 C 0.95095 0.53228 0.5813 0.0
C496 C 0.4462 0.99543 0.14682 0.0
C497 C 0.44507 0.98383 0.10486 0.0
H498 H 0.42732 0.98941 0.21097 0.0
C499 C 0.42199 0.95712 0.09471 0.0
H500 H 0.46372 0.01589 0.15579 0.0
C501 C 0.40102 0.94198 0.12627 0.0
C502 C 0.40259 0.95318 0.16873 0.0
H503 H 0.42037 0.94758 0.06261 0.0
H504 H 0.38368 0.92136 0.11754 0.0
C505 C 0.42522 0.98027 0.1784 0.0
C506 C 0.52111 0.42633 0.51093 0.0
C507 C 0.53771 0.45093 0.53556 0.0
H508 H 0.49422 0.38127 0.51309 0.0
C509 C 0.54294 0.44875 0.58042 0.0
H510 H 0.51657 0.42766 0.47637 0.0
C511 C 0.53091 0.42242 0.60092 0.0
C512 C 0.51281 0.39791 0.57717 0.0
H513 H 0.55559 0.46752 0.6 0.0
H514 H 0.53433 0.42136 0.63606 0.0
C515 C 0.50834 0.39994 0.53183 0.0
C516 C 0.60346 0.9991 0.36968 0.0
C517 C 0.59359 0.98784 0.41208 0.0
H518 H 0.61577 0.99269 0.30534 0.0
C519 C 0.59061 0.96147 0.42282 0.0
H520 H 0.60589 0.01929 0.36027 0.0
C521 C 0.59643 0.94628 0.39143 0.0
C522 C 0.60536 0.95708 0.34852 0.0
H523 H 0.5832 0.95221 0.45527 0.0
H524 H 0.59363 0.92592 0.40065 0.0
C525 C 0.60924 0.98388 0.33824 0.0
C526 C 0.6102 0.4989 0.97039 0.0
C527 C 0.59453 0.51289 0.96945 0.0
H528 H 0.64797 0.4993 0.94888 0.0
C529 C 0.60619 0.5394 0.9489 0.0
H530 H 0.60162 0.47842 0.98601 0.0
C531 C 0.63268 0.55149 0.9288 0.0
C532 C 0.64795 0.53715 0.92807 0.0
H533 H 0.59468 0.55076 0.94801 0.0
H534 H 0.64073 0.57164 0.91222 0.0
C535 C 0.6366 0.51079 0.94923 0.0
C536 C 0.12853 0.59125 0.51185 0.0
C537 C 0.09903 0.57734 0.5167 0.0
H538 H 0.1653 0.62725 0.48463 0.0
C539 C 0.08423 0.59069 0.50245 0.0
H540 H 0.1403 0.58119 0.52239 0.0
C541 C 0.09839 0.61695 0.48189 0.0
C542 C 0.12764 0.63024 0.47434 0.0
H543 H 0.06146 0.58035 0.50595 0.0
H544 H 0.08611 0.62604 0.46948 0.0
C545 C 0.14274 0.61744 0.49021 0.0
C546 C 0.45902 0.02448 0.86755 0.0
C547 C 0.46915 0.03556 0.90986 0.0
H548 H 0.44588 0.03096 0.80406 0.0
C549 C 0.4716 0.06158 0.92148 0.0
H550 H 0.45696 0.00455 0.85749 0.0
C551 C 0.46505 0.07665 0.89097 0.0
C552 C 0.45592 0.06609 0.84808 0.0
H553 H 0.47916 0.07068 0.95392 0.0
H554 H 0.46749 0.09677 0.90082 0.0
C555 C 0.45252 0.03959 0.83699 0.0
C556 C 0.45952 0.4751 0.45672 0.0
C557 C 0.47112 0.5016 0.47715 0.0
H558 H 0.42492 0.44286 0.42031 0.0
C559 C 0.45537 0.51548 0.47854 0.0
H560 H 0.47121 0.46393 0.45539 0.0
C561 C 0.42898 0.5036 0.45761 0.0
C562 C 0.41771 0.47732 0.43636 0.0
H563 H 0.464 0.53601 0.49397 0.0
H564 H 0.41761 0.51511 0.45727 0.0
C565 C 0.43297 0.46295 0.43697 0.0
C566 C 0.95922 0.42466 0.0208 0.0
C567 C 0.97105 0.45012 0.997 0.0
H568 H 0.93743 0.37938 0.0168 0.0
C569 C 0.96714 0.44946 0.951 0.0
H570 H 0.96225 0.42473 0.05626 0.0
C571 C 0.95238 0.42377 0.92884 0.0
C572 C 0.94195 0.3983 0.95215 0.0
H573 H 0.97612 0.46886 0.93203 0.0
H574 H 0.95045 0.42379 0.89312 0.0
C575 C 0.94513 0.39885 -0.00164 0.0
C576 C 0.98656 0.56819 0.95922 0.0
C577 C 0.01124 0.56824 0.94573 0.0
H578 H 0.95298 0.57561 0.94116 0.0
C579 C 0.02186 0.57775 0.90291 0.0
H580 H 0.97794 0.56122 0.99214 0.0
C581 C 0.00736 0.58573 0.87351 0.0
C582 C 0.98201 0.58454 0.88637 0.0
H583 H 0.04078 0.57799 0.89144 0.0
H584 H 0.01541 0.59161 0.84006 0.0
C585 C 0.97215 0.5763 0.92992 0.0
C586 C 0.46656 0.97308 0.45985 0.0
C587 C 0.47814 0.95783 0.47928 0.0
H588 H 0.43187 0.97143 0.42468 0.0
C589 C 0.46223 0.92825 0.48015 0.0
H590 H 0.47831 0.99593 0.45914 0.0
C591 C 0.43566 0.91416 0.45976 0.0
C592 C 0.42443 0.92953 0.43949 0.0
H593 H 0.47078 0.91608 0.49495 0.0
H594 H 0.42409 0.89132 0.45917 0.0
C595 C 0.43989 0.95909 0.44053 0.0
C596 C 0.46101 0.42805 0.86973 0.0
C597 C 0.47608 0.42925 0.90817 0.0
H598 H 0.4428 0.40635 0.8087 0.0
C599 C 0.48251 0.40772 0.91581 0.0
H600 H 0.45566 0.44425 0.86296 0.0
C601 C 0.47534 0.38632 0.88483 0.0
C602 C 0.46128 0.3857 0.8457 0.0
H603 H 0.49396 0.40782 0.94512 0.0
H604 H 0.48139 0.37056 0.89099 0.0
C605 C 0.45352 0.40632 0.83884 0.0
C606 C 0.05632 0.45302 0.39595 0.0
C607 C 0.06831 0.46346 0.4377 0.0
H608 H 0.06085 0.43791 0.33279 0.0
C609 C 0.09436 0.46552 0.44815 0.0
H610 H 0.03633 0.45123 0.38681 0.0
C611 C 0.10833 0.45778 0.4173 0.0
C612 C 0.09658 0.44775 0.37531 0.0
H613 H 0.10416 0.47337 0.48009 0.0
H614 H 0.12836 0.45963 0.42638 0.0
C615 C 0.07031 0.44524 0.36509 0.0
C616 C 0.60288 0.09494 0.9757 0.0
C617 C 0.58631 0.06542 0.97361 0.0
H618 H 0.64199 0.1316 0.95675 0.0
C619 C 0.59752 0.04994 0.95371 0.0
H620 H 0.59466 0.10728 0.99093 0.0
C621 C 0.62454 0.06364 0.93537 0.0
C622 C 0.64077 0.09317 0.93579 0.0
H623 H 0.58528 0.02713 0.95208 0.0
H624 H 0.63234 0.05116 0.91929 0.0
C625 C 0.62983 0.10878 0.95627 0.0
C626 C 0.60349 0.59738 0.37425 0.0
C627 C 0.58556 0.59249 0.41071 0.0
H628 H 0.62357 0.62283 0.31692 0.0
C629 C 0.57507 0.61094 0.41825 0.0
H630 H 0.61197 0.5836 0.36766 0.0
C631 C 0.5815 0.63316 0.38908 0.0
C632 C 0.59893 0.63769 0.35217 0.0
H633 H 0.56119 0.60777 0.44602 0.0
H634 H 0.57256 0.64662 0.39504 0.0
C635 C 0.61028 0.61992 0.34542 0.0
C636 C 0.5459 0.09783 0.54234 0.0
C637 C 0.5329 0.06829 0.54344 0.0
H638 H 0.54337 0.1342 0.56252 0.0
C639 C 0.50599 0.05252 0.56269 0.0
H640 H 0.56665 0.1104 0.52765 0.0
C641 C 0.49253 0.06594 0.58141 0.0
C642 C 0.5059 0.09546 0.58205 0.0
H643 H 0.49537 0.02968 0.56356 0.0
H644 H 0.47209 0.0532 0.59701 0.0
C645 C 0.53265 0.11138 0.56218 0.0
C646 C 0.44545 0.4753 0.11346 0.0
C647 C 0.4551 0.45644 0.10429 0.0
H648 H 0.41837 0.48434 0.15209 0.0
C649 C 0.44271 0.43039 0.12621 0.0
H650 H 0.45497 0.49572 0.09732 0.0
C651 C 0.42063 0.42315 0.15643 0.0
C652 C 0.41114 0.44225 0.16647 0.0
H653 H 0.44971 0.41543 0.1193 0.0
H654 H 0.41096 0.40248 0.17159 0.0
C655 C 0.42413 0.46854 0.14464 0.0
C656 C 0.02769 0.42567 0.66626 0.0
C657 C 0.01554 0.42899 0.62733 0.0
H658 H 0.02111 0.40176 0.72588 0.0
C659 C 0.9876 0.40854 0.6168 0.0
H660 H 0.04919 0.44099 0.67523 0.0
C661 C 0.97161 0.38629 0.64578 0.0
C662 C 0.98326 0.38377 0.6857 0.0
H663 H 0.97759 0.4103 0.58698 0.0
H664 H 0.94979 0.37148 0.63761 0.0
C665 C 0.0117 0.40315 0.69512 0.0
C666 C 0.55852 0.9706 0.05472 0.0
C667 C 0.53129 0.95496 0.03681 0.0
H668 H 0.5922 0.96969 0.08908 0.0
C669 C 0.51755 0.92538 0.03756 0.0
H670 H 0.56966 0.99345 0.05417 0.0
C671 C 0.53037 0.91171 0.05823 0.0
C672 C 0.55738 0.9275 0.07713 0.0
H673 H 0.49651 0.91294 0.02395 0.0
H674 H 0.51904 0.8889 0.06021 0.0
C675 C 0.57154 0.95702 0.0743 0.0
C676 C 0.6391 0.56255 0.58701 0.0
C677 C 0.61565 0.56514 0.59932 0.0
H678 H 0.67859 0.56658 0.60661 0.0
C679 C 0.61504 0.57532 0.6418 0.0
H680 H 0.64033 0.55489 0.55446 0.0
C681 C 0.63693 0.58184 0.67179 0.0
C682 C 0.65994 0.57838 0.65996 0.0
H683 H 0.59727 0.57748 0.65241 0.0
H684 H 0.63528 0.58863 0.70481 0.0
C685 C 0.66098 0.56909 0.61698 0.0
C686 C 0.04538 0.59194 0.16814 0.0
C687 C 0.06068 0.58591 0.13694 0.0
H688 H 0.04688 0.61839 0.22131 0.0
C689 C 0.09028 0.60248 0.13625 0.0
H690 H 0.02251 0.57971 0.16905 0.0
C691 C 0.10437 0.62417 0.16696 0.0
C692 C 0.08919 0.63023 0.1986 0.0
H693 H 0.10266 0.59819 0.11272 0.0
H694 H 0.12724 0.63561 0.16653 0.0
C695 C 0.05944 0.61406 0.19827 0.0
loop_
_geom_bond_atom_site_label_1
_geom_bond_atom_site_label_2
_geom_bond_distance
_geom_bond_site_symmetry_2
_ccdc_geom_bond_type
C0 O2 1.247 . S
C0 O4 1.258 . S
C1 O8 1.247 . S
C1 O9 1.258 . S
O2 C0 1.247 . S
O2 Zn3 2.028 1_455 S
Zn3 O2 2.028 1_655 S
Zn3 O7 2.035 . S
Zn3 O9 2.035 . S
Zn3 O10 2.028 1_655 S
O4 C0 1.258 . S
O4 Zn5 2.035 . S
Zn5 O4 2.035 . S
Zn5 O6 2.028 1_455 S
Zn5 O8 2.028 1_455 S
Zn5 O11 2.035 . S
O6 Zn5 2.028 1_655 S
O6 C12 1.247 . S
O7 Zn3 2.035 . S
O7 C12 1.258 . S
O8 C1 1.247 . S
O8 Zn5 2.028 1_655 S
O9 C1 1.258 . S
O9 Zn3 2.035 . S
O10 Zn3 2.028 1_455 S
O10 C13 1.247 . S
O11 Zn5 2.035 . S
O11 C13 1.258 . S
C12 O6 1.247 . S
C12 O7 1.258 . S
C13 O10 1.247 . S
C13 O11 1.258 . S
C14 O16 1.247 . S
C14 O18 1.258 . S
C15 O22 1.247 . S
C15 O23 1.258 . S
O16 C14 1.247 . S
O16 Zn17 2.028 1_545 S
Zn17 O16 2.028 1_565 S
Zn17 O21 2.035 . S
Zn17 O23 2.035 . S
Zn17 O24 2.028 1_565 S
O18 C14 1.258 . S
O18 Zn19 2.035 . S
Zn19 O18 2.035 . S
Zn19 O20 2.028 1_545 S
Zn19 O22 2.028 1_545 S
Zn19 O25 2.035 . S
O20 Zn19 2.028 1_565 S
O20 C26 1.247 . S
O21 Zn17 2.035 . S
O21 C26 1.258 . S
O22 C15 1.247 . S
O22 Zn19 2.028 1_565 S
O23 C15 1.258 . S
O23 Zn17 2.035 . S
O24 Zn17 2.028 1_545 S
O24 C27 1.247 . S
O25 Zn19 2.035 . S
O25 C27 1.258 . S
C26 O20 1.247 . S
C26 O21 1.258 . S
C27 O24 1.247 . S
C27 O25 1.258 . S
C28 O30 1.247 . S
C28 O32 1.258 1_556 S
C29 O36 1.247 . S
C29 O37 1.258 . S
O30 C28 1.247 . S
O30 Zn31 2.028 . S
Zn31 O30 2.028 . S
Zn31 O35 2.035 1_556 S
Zn31 O37 2.035 1_556 S
Zn31 O38 2.028 . S
O32 C28 1.258 1_554 S
O32 Zn33 2.035 . S
Zn33 O32 2.035 . S
Zn33 O34 2.028 . S
Zn33 O36 2.028 . S
Zn33 O39 2.035 . S
O34 Zn33 2.028 . S
O34 C40 1.247 . S
O35 Zn31 2.035 1_554 S
O35 C40 1.258 . S
O36 C29 1.247 . S
O36 Zn33 2.028 . S
O37 C29 1.258 . S
O37 Zn31 2.035 1_554 S
O38 Zn31 2.028 . S
O38 C41 1.247 . S
O39 Zn33 2.035 . S
O39 C41 1.258 1_554 S
C40 O34 1.247 . S
C40 O35 1.258 . S
C41 O38 1.247 . S
C41 O39 1.258 1_556 S
C42 O44 1.247 . S
C42 O46 1.258 . S
C43 O50 1.247 . S
C43 O51 1.258 . S
O44 C42 1.247 . S
O44 Zn45 2.028 . S
Zn45 O44 2.028 . S
Zn45 O49 2.035 . S
Zn45 O51 2.035 . S
Zn45 O52 2.028 . S
O46 C42 1.258 . S
O46 Zn47 2.035 . S
Zn47 O46 2.035 . S
Zn47 O48 2.028 . S
Zn47 O50 2.028 . S
Zn47 O53 2.035 . S
O48 Zn47 2.028 . S
O48 C54 1.247 . S
O49 Zn45 2.035 . S
O49 C54 1.258 . S
O50 C43 1.247 . S
O50 Zn47 2.028 . S
O51 C43 1.258 . S
O51 Zn45 2.035 . S
O52 Zn45 2.028 . S
O52 C55 1.247 . S
O53 Zn47 2.035 . S
O53 C55 1.258 . S
C54 O48 1.247 . S
C54 O49 1.258 . S
C55 O52 1.247 . S
C55 O53 1.258 . S
C56 O58 1.247 1_565 S
C56 O60 1.258 . S
C57 O64 1.247 . S
C57 O65 1.258 1_556 S
O58 C56 1.247 1_545 S
O58 Zn59 2.028 . S
Zn59 O58 2.028 . S
Zn59 O63 2.035 . S
Zn59 O65 2.035 . S
Zn59 O66 2.028 . S
O60 C56 1.258 . S
O60 Zn61 2.035 1_554 S
Zn61 O60 2.035 1_556 S
Zn61 O62 2.028 1_565 S
Zn61 O64 2.028 1_565 S
Zn61 O67 2.035 1_556 S
O62 Zn61 2.028 1_545 S
O62 C68 1.247 . S
O63 Zn59 2.035 . S
O63 C68 1.258 1_554 S
O64 C57 1.247 . S
O64 Zn61 2.028 1_545 S
O65 C57 1.258 1_554 S
O65 Zn59 2.035 . S
O66 Zn59 2.028 . S
O66 C69 1.247 1_545 S
O67 Zn61 2.035 1_554 S
O67 C69 1.258 . S
C68 O62 1.247 . S
C68 O63 1.258 1_556 S
C69 O66 1.247 1_565 S
C69 O67 1.258 . S
C70 O72 1.247 . S
C70 O74 1.258 . S
C71 O78 1.247 . S
C71 O79 1.258 . S
O72 C70 1.247 . S
O72 Zn73 2.028 . S
Zn73 O72 2.028 . S
Zn73 O77 2.035 . S
Zn73 O79 2.035 . S
Zn73 O80 2.028 . S
O74 C70 1.258 . S
O74 Zn75 2.035 . S
Zn75 O74 2.035 . S
Zn75 O76 2.028 . S
Zn75 O78 2.028 . S
Zn75 O81 2.035 . S
O76 Zn75 2.028 . S
O76 C82 1.247 . S
O77 Zn73 2.035 . S
O77 C82 1.258 . S
O78 C71 1.247 . S
O78 Zn75 2.028 . S
O79 C71 1.258 . S
O79 Zn73 2.035 . S
O80 Zn73 2.028 . S
O80 C83 1.247 . S
O81 Zn75 2.035 . S
O81 C83 1.258 . S
C82 O76 1.247 . S
C82 O77 1.258 . S
C83 O80 1.247 . S
C83 O81 1.258 . S
H84 C111 0.929 . S
N85 C110 1.433 . S
N85 C116 1.435 . S
N85 C122 1.423 . S
H86 C112 0.930 . S
H87 C115 0.931 . S
H88 C114 0.929 . S
H89 C117 0.930 . S
H90 C118 0.932 . S
H91 C121 0.929 . S
H92 C120 0.931 . S
H93 C123 0.929 . S
H94 C127 0.932 . S
H95 C124 0.931 . S
H96 C126 0.929 . S
H97 C129 0.929 . S
H98 C130 0.930 . S
H99 C132 0.929 . S
H100 C133 0.931 . S
H101 C135 0.930 . S
H102 C136 0.932 . S
H103 C138 0.931 . S
H104 C139 0.929 . S
H105 C141 0.929 . S
H106 C142 0.931 . S
H107 C144 0.929 . S
N108 C128 1.433 . S
N108 C134 1.435 . S
N108 C140 1.423 . S
H109 C145 0.932 . S
C110 N85 1.433 . S
C110 C111 1.363 . S
C110 C115 1.370 . S
C111 H84 0.929 . S
C111 C110 1.363 . S
C111 C112 1.385 . S
C112 H86 0.930 . S
C112 C111 1.385 . S
C112 C113 1.357 . S
C113 C112 1.357 . S
C113 C114 1.406 . S
C114 H88 0.929 . S
C114 C113 1.406 . S
C114 C115 1.391 . S
C115 H87 0.931 . S
C115 C110 1.370 . S
C115 C114 1.391 . S
C116 N85 1.435 . S
C116 C117 1.358 . S
C116 C121 1.371 . S
C117 H89 0.930 . S
C117 C116 1.358 . S
C117 C118 1.405 . S
C118 H90 0.932 . S
C118 C117 1.405 . S
C118 C119 1.383 . S
C119 C118 1.383 . S
C119 C120 1.393 . S
C120 H92 0.931 . S
C120 C119 1.393 . S
C120 C121 1.382 . S
C121 H91 0.929 . S
C121 C116 1.371 . S
C121 C120 1.382 . S
C122 N85 1.423 . S
C122 C123 1.362 . S
C122 C127 1.388 . S
C123 H93 0.929 . S
C123 C122 1.362 . S
C123 C124 1.376 . S
C124 H95 0.931 . S
C124 C123 1.376 . S
C124 C125 1.396 . S
C125 C124 1.396 . S
C125 C126 1.348 . S
C125 C143 1.472 . S
C126 H96 0.929 . S
C126 C125 1.348 . S
C126 C127 1.443 . S
C127 H94 0.932 . S
C127 C122 1.388 . S
C127 C126 1.443 . S
C128 N108 1.433 . S
C128 C129 1.363 . S
C128 C133 1.370 . S
C129 H97 0.929 . S
C129 C128 1.363 . S
C129 C130 1.385 . S
C130 H98 0.930 . S
C130 C129 1.385 . S
C130 C131 1.357 . S
C131 C130 1.357 . S
C131 C132 1.406 . S
C132 H99 0.929 . S
C132 C131 1.406 . S
C132 C133 1.391 . S
C133 H100 0.931 . S
C133 C128 1.370 . S
C133 C132 1.391 . S
C134 N108 1.435 . S
C134 C135 1.358 . S
C134 C139 1.371 . S
C135 H101 0.930 . S
C135 C134 1.358 . S
C135 C136 1.405 . S
C136 H102 0.932 . S
C136 C135 1.405 . S
C136 C137 1.383 . S
C137 C136 1.383 . S
C137 C138 1.393 . S
C138 H103 0.931 . S
C138 C137 1.393 . S
C138 C139 1.382 . S
C139 H104 0.929 . S
C139 C134 1.371 . S
C139 C138 1.382 . S
C140 N108 1.423 . S
C140 C141 1.362 . S
C140 C145 1.388 . S
C141 H105 0.929 . S
C141 C140 1.362 . S
C141 C142 1.376 . S
C142 H106 0.931 . S
C142 C141 1.376 . S
C142 C143 1.396 . S
C143 C125 1.472 . S
C143 C142 1.396 . S
C143 C144 1.348 . S
C144 H107 0.929 . S
C144 C143 1.348 . S
C144 C145 1.443 . S
C145 H109 0.932 . S
C145 C140 1.388 . S
C145 C144 1.443 . S
H146 C173 0.929 . S
N147 C172 1.433 . S
N147 C178 1.435 . S
N147 C184 1.423 . S
H148 C174 0.930 . S
H149 C177 0.931 . S
H150 C176 0.929 . S
H151 C179 0.930 . S
H152 C180 0.932 . S
H153 C183 0.929 . S
H154 C182 0.931 . S
H155 C185 0.929 . S
H156 C189 0.932 . S
H157 C186 0.931 . S
H158 C188 0.929 . S
H159 C191 0.929 . S
H160 C192 0.930 . S
H161 C194 0.929 . S
H162 C195 0.931 . S
H163 C197 0.930 . S
H164 C198 0.932 . S
H165 C200 0.931 . S
H166 C201 0.929 . S
H167 C203 0.929 . S
H168 C204 0.931 . S
H169 C206 0.929 . S
N170 C190 1.433 . S
N170 C196 1.435 . S
N170 C202 1.423 . S
H171 C207 0.932 . S
C172 N147 1.433 . S
C172 C173 1.363 . S
C172 C177 1.370 . S
C173 H146 0.929 . S
C173 C172 1.363 . S
C173 C174 1.385 . S
C174 H148 0.930 . S
C174 C173 1.385 . S
C174 C175 1.357 . S
C175 C174 1.357 . S
C175 C176 1.406 . S
C176 H150 0.929 . S
C176 C175 1.406 . S
C176 C177 1.391 . S
C177 H149 0.931 . S
C177 C172 1.370 . S
C177 C176 1.391 . S
C178 N147 1.435 . S
C178 C179 1.358 . S
C178 C183 1.371 . S
C179 H151 0.930 . S
C179 C178 1.358 . S
C179 C180 1.405 . S
C180 H152 0.932 . S
C180 C179 1.405 . S
C180 C181 1.383 . S
C181 C180 1.383 . S
C181 C182 1.393 . S
C182 H154 0.931 . S
C182 C181 1.393 . S
C182 C183 1.382 . S
C183 H153 0.929 . S
C183 C178 1.371 . S
C183 C182 1.382 . S
C184 N147 1.423 . S
C184 C185 1.362 . S
C184 C189 1.388 . S
C185 H155 0.929 . S
C185 C184 1.362 . S
C185 C186 1.376 . S
C186 H157 0.931 . S
C186 C185 1.376 . S
C186 C187 1.396 . S
C187 C186 1.396 . S
C187 C188 1.348 . S
C187 C205 1.472 . S
C188 H158 0.929 . S
C188 C187 1.348 . S
C188 C189 1.443 . S
C189 H156 0.932 . S
C189 C184 1.388 . S
C189 C188 1.443 . S
C190 N170 1.433 . S
C190 C191 1.363 . S
C190 C195 1.370 . S
C191 H159 0.929 . S
C191 C190 1.363 . S
C191 C192 1.385 . S
C192 H160 0.930 . S
C192 C191 1.385 . S
C192 C193 1.357 . S
C193 C192 1.357 . S
C193 C194 1.406 . S
C194 H161 0.929 . S
C194 C193 1.406 . S
C194 C195 1.391 . S
C195 H162 0.931 . S
C195 C190 1.370 . S
C195 C194 1.391 . S
C196 N170 1.435 . S
C196 C197 1.358 . S
C196 C201 1.371 . S
C197 H163 0.930 . S
C197 C196 1.358 . S
C197 C198 1.405 . S
C198 H164 0.932 . S
C198 C197 1.405 . S
C198 C199 1.383 . S
C199 C198 1.383 . S
C199 C200 1.393 . S
C200 H165 0.931 . S
C200 C199 1.393 . S
C200 C201 1.382 . S
C201 H166 0.929 . S
C201 C196 1.371 . S
C201 C200 1.382 . S
C202 N170 1.423 . S
C202 C203 1.362 . S
C202 C207 1.388 . S
C203 H167 0.929 . S
C203 C202 1.362 . S
C203 C204 1.376 . S
C204 H168 0.931 . S
C204 C203 1.376 . S
C204 C205 1.396 . S
C205 C187 1.472 . S
C205 C204 1.396 . S
C205 C206 1.348 . S
C206 H169 0.929 . S
C206 C205 1.348 . S
C206 C207 1.443 . S
C207 H171 0.932 . S
C207 C202 1.388 . S
C207 C206 1.443 . S
H208 C235 0.929 . S
N209 C234 1.433 . S
N209 C240 1.435 . S
N209 C246 1.423 . S
H210 C236 0.930 . S
H211 C239 0.931 . S
H212 C238 0.929 . S
H213 C241 0.930 . S
H214 C242 0.932 . S
H215 C245 0.929 . S
H216 C244 0.931 . S
H217 C247 0.929 . S
H218 C251 0.932 . S
H219 C248 0.931 . S
H220 C250 0.929 . S
H221 C253 0.929 . S
H222 C254 0.930 . S
H223 C256 0.929 . S
H224 C257 0.931 . S
H225 C259 0.930 . S
H226 C260 0.932 . S
H227 C262 0.931 . S
H228 C263 0.929 . S
H229 C265 0.929 . S
H230 C266 0.931 . S
H231 C268 0.929 . S
N232 C252 1.433 . S
N232 C258 1.435 . S
N232 C264 1.423 . S
H233 C269 0.932 . S
C234 N209 1.433 . S
C234 C235 1.363 . S
C234 C239 1.370 . S
C235 H208 0.929 . S
C235 C234 1.363 . S
C235 C236 1.385 . S
C236 H210 0.930 . S
C236 C235 1.385 . S
C236 C237 1.357 . S
C237 C236 1.357 . S
C237 C238 1.406 . S
C238 H212 0.929 . S
C238 C237 1.406 . S
C238 C239 1.391 . S
C239 H211 0.931 . S
C239 C234 1.370 . S
C239 C238 1.391 . S
C240 N209 1.435 . S
C240 C241 1.358 . S
C240 C245 1.371 . S
C241 H213 0.930 . S
C241 C240 1.358 . S
C241 C242 1.405 . S
C242 H214 0.932 . S
C242 C241 1.405 . S
C242 C243 1.383 . S
C243 C242 1.383 . S
C243 C244 1.393 . S
C244 H216 0.931 . S
C244 C243 1.393 . S
C244 C245 1.382 . S
C245 H215 0.929 . S
C245 C240 1.371 . S
C245 C244 1.382 . S
C246 N209 1.423 . S
C246 C247 1.362 . S
C246 C251 1.388 . S
C247 H217 0.929 . S
C247 C246 1.362 . S
C247 C248 1.376 . S
C248 H219 0.931 . S
C248 C247 1.376 . S
C248 C249 1.396 . S
C249 C248 1.396 . S
C249 C250 1.348 . S
C249 C267 1.472 . S
C250 H220 0.929 . S
C250 C249 1.348 . S
C250 C251 1.443 . S
C251 H218 0.932 . S
C251 C246 1.388 . S
C251 C250 1.443 . S
C252 N232 1.433 . S
C252 C253 1.363 . S
C252 C257 1.370 . S
C253 H221 0.929 . S
C253 C252 1.363 . S
C253 C254 1.385 . S
C254 H222 0.930 . S
C254 C253 1.385 . S
C254 C255 1.357 . S
C255 C254 1.357 . S
C255 C256 1.406 . S
C256 H223 0.929 . S
C256 C255 1.406 . S
C256 C257 1.391 . S
C257 H224 0.931 . S
C257 C252 1.370 . S
C257 C256 1.391 . S
C258 N232 1.435 . S
C258 C259 1.358 . S
C258 C263 1.371 . S
C259 H225 0.930 . S
C259 C258 1.358 . S
C259 C260 1.405 . S
C260 H226 0.932 . S
C260 C259 1.405 . S
C260 C261 1.383 . S
C261 C260 1.383 . S
C261 C262 1.393 . S
C262 H227 0.931 . S
C262 C261 1.393 . S
C262 C263 1.382 . S
C263 H228 0.929 . S
C263 C258 1.371 . S
C263 C262 1.382 . S
C264 N232 1.423 . S
C264 C265 1.362 . S
C264 C269 1.388 . S
C265 H229 0.929 . S
C265 C264 1.362 . S
C265 C266 1.376 . S
C266 H230 0.931 . S
C266 C265 1.376 . S
C266 C267 1.396 . S
C267 C249 1.472 . S
C267 C266 1.396 . S
C267 C268 1.348 . S
C268 H231 0.929 . S
C268 C267 1.348 . S
C268 C269 1.443 . S
C269 H233 0.932 . S
C269 C264 1.388 . S
C269 C268 1.443 . S
H270 C297 0.929 . S
N271 C296 1.433 . S
N271 C302 1.435 . S
N271 C308 1.423 . S
H272 C298 0.930 . S
H273 C301 0.931 . S
H274 C300 0.929 . S
H275 C303 0.930 . S
H276 C304 0.932 . S
H277 C307 0.929 . S
H278 C306 0.931 . S
H279 C309 0.929 . S
H280 C313 0.932 . S
H281 C310 0.931 . S
H282 C312 0.929 . S
H283 C315 0.929 . S
H284 C316 0.930 . S
H285 C318 0.929 . S
H286 C319 0.931 . S
H287 C321 0.930 . S
H288 C322 0.932 . S
H289 C324 0.931 . S
H290 C325 0.929 . S
H291 C327 0.929 . S
H292 C328 0.931 . S
H293 C330 0.929 . S
N294 C314 1.433 . S
N294 C320 1.435 . S
N294 C326 1.423 . S
H295 C331 0.932 . S
C296 N271 1.433 . S
C296 C297 1.363 . S
C296 C301 1.370 . S
C297 H270 0.929 . S
C297 C296 1.363 . S
C297 C298 1.385 . S
C298 H272 0.930 . S
C298 C297 1.385 . S
C298 C299 1.357 . S
C299 C298 1.357 . S
C299 C300 1.406 . S
C300 H274 0.929 . S
C300 C299 1.406 . S
C300 C301 1.391 . S
C301 H273 0.931 . S
C301 C296 1.370 . S
C301 C300 1.391 . S
C302 N271 1.435 . S
C302 C303 1.358 . S
C302 C307 1.371 . S
C303 H275 0.930 . S
C303 C302 1.358 . S
C303 C304 1.405 . S
C304 H276 0.932 . S
C304 C303 1.405 . S
C304 C305 1.383 . S
C305 C304 1.383 . S
C305 C306 1.393 . S
C306 H278 0.931 . S
C306 C305 1.393 . S
C306 C307 1.382 . S
C307 H277 0.929 . S
C307 C302 1.371 . S
C307 C306 1.382 . S
C308 N271 1.423 . S
C308 C309 1.362 . S
C308 C313 1.388 . S
C309 H279 0.929 . S
C309 C308 1.362 . S
C309 C310 1.376 . S
C310 H281 0.931 . S
C310 C309 1.376 . S
C310 C311 1.396 . S
C311 C310 1.396 . S
C311 C312 1.348 . S
C311 C329 1.472 . S
C312 H282 0.929 . S
C312 C311 1.348 . S
C312 C313 1.443 . S
C313 H280 0.932 . S
C313 C308 1.388 . S
C313 C312 1.443 . S
C314 N294 1.433 . S
C314 C315 1.363 . S
C314 C319 1.370 . S
C315 H283 0.929 . S
C315 C314 1.363 . S
C315 C316 1.385 . S
C316 H284 0.930 . S
C316 C315 1.385 . S
C316 C317 1.357 . S
C317 C316 1.357 . S
C317 C318 1.406 . S
C318 H285 0.929 . S
C318 C317 1.406 . S
C318 C319 1.391 . S
C319 H286 0.931 . S
C319 C314 1.370 . S
C319 C318 1.391 . S
C320 N294 1.435 . S
C320 C321 1.358 . S
C320 C325 1.371 . S
C321 H287 0.930 . S
C321 C320 1.358 . S
C321 C322 1.405 . S
C322 H288 0.932 . S
C322 C321 1.405 . S
C322 C323 1.383 . S
C323 C322 1.383 . S
C323 C324 1.393 . S
C324 H289 0.931 . S
C324 C323 1.393 . S
C324 C325 1.382 . S
C325 H290 0.929 . S
C325 C320 1.371 . S
C325 C324 1.382 . S
C326 N294 1.423 . S
C326 C327 1.362 . S
C326 C331 1.388 . S
C327 H291 0.929 . S
C327 C326 1.362 . S
C327 C328 1.376 . S
C328 H292 0.931 . S
C328 C327 1.376 . S
C328 C329 1.396 . S
C329 C311 1.472 . S
C329 C328 1.396 . S
C329 C330 1.348 . S
C330 H293 0.929 . S
C330 C329 1.348 . S
C330 C331 1.443 . S
C331 H295 0.932 . S
C331 C326 1.388 . S
C331 C330 1.443 . S
H332 C359 0.929 . S
N333 C358 1.433 . S
N333 C364 1.435 . S
N333 C370 1.423 . S
H334 C360 0.930 . S
H335 C363 0.931 . S
H336 C362 0.929 . S
H337 C365 0.930 . S
H338 C366 0.932 . S
H339 C369 0.929 . S
H340 C368 0.931 . S
H341 C371 0.929 . S
H342 C375 0.932 . S
H343 C372 0.931 . S
H344 C374 0.929 . S
H345 C377 0.929 . S
H346 C378 0.930 . S
H347 C380 0.929 . S
H348 C381 0.931 . S
H349 C383 0.930 . S
H350 C384 0.932 . S
H351 C386 0.931 . S
H352 C387 0.929 . S
H353 C389 0.929 . S
H354 C390 0.931 . S
H355 C392 0.929 . S
N356 C376 1.433 . S
N356 C382 1.435 . S
N356 C388 1.423 . S
H357 C393 0.932 . S
C358 N333 1.433 . S
C358 C359 1.363 . S
C358 C363 1.370 . S
C359 H332 0.929 . S
C359 C358 1.363 . S
C359 C360 1.385 . S
C360 H334 0.930 . S
C360 C359 1.385 . S
C360 C361 1.357 . S
C361 C360 1.357 . S
C361 C362 1.406 . S
C362 H336 0.929 . S
C362 C361 1.406 . S
C362 C363 1.391 . S
C363 H335 0.931 . S
C363 C358 1.370 . S
C363 C362 1.391 . S
C364 N333 1.435 . S
C364 C365 1.358 . S
C364 C369 1.371 . S
C365 H337 0.930 . S
C365 C364 1.358 . S
C365 C366 1.405 . S
C366 H338 0.932 . S
C366 C365 1.405 . S
C366 C367 1.383 . S
C367 C366 1.383 . S
C367 C368 1.393 . S
C368 H340 0.931 . S
C368 C367 1.393 . S
C368 C369 1.382 . S
C369 H339 0.929 . S
C369 C364 1.371 . S
C369 C368 1.382 . S
C370 N333 1.423 . S
C370 C371 1.362 . S
C370 C375 1.388 . S
C371 H341 0.929 . S
C371 C370 1.362 . S
C371 C372 1.376 . S
C372 H343 0.931 . S
C372 C371 1.376 . S
C372 C373 1.396 . S
C373 C372 1.396 . S
C373 C374 1.348 . S
C373 C391 1.472 . S
C374 H344 0.929 . S
C374 C373 1.348 . S
C374 C375 1.443 . S
C375 H342 0.932 . S
C375 C370 1.388 . S
C375 C374 1.443 . S
C376 N356 1.433 . S
C376 C377 1.363 . S
C376 C381 1.370 . S
C377 H345 0.929 . S
C377 C376 1.363 . S
C377 C378 1.385 . S
C378 H346 0.930 . S
C378 C377 1.385 . S
C378 C379 1.357 . S
C379 C378 1.357 . S
C379 C380 1.406 . S
C380 H347 0.929 . S
C380 C379 1.406 . S
C380 C381 1.391 . S
C381 H348 0.931 . S
C381 C376 1.370 . S
C381 C380 1.391 . S
C382 N356 1.435 . S
C382 C383 1.358 . S
C382 C387 1.371 . S
C383 H349 0.930 . S
C383 C382 1.358 . S
C383 C384 1.405 . S
C384 H350 0.932 . S
C384 C383 1.405 . S
C384 C385 1.383 . S
C385 C384 1.383 . S
C385 C386 1.393 . S
C386 H351 0.931 . S
C386 C385 1.393 . S
C386 C387 1.382 . S
C387 H352 0.929 . S
C387 C382 1.371 . S
C387 C386 1.382 . S
C388 N356 1.423 . S
C388 C389 1.362 . S
C388 C393 1.388 . S
C389 H353 0.929 . S
C389 C388 1.362 . S
C389 C390 1.376 . S
C390 H354 0.931 . S
C390 C389 1.376 . S
C390 C391 1.396 . S
C391 C373 1.472 . S
C391 C390 1.396 . S
C391 C392 1.348 . S
C392 H355 0.929 . S
C392 C391 1.348 . S
C392 C393 1.443 . S
C393 H357 0.932 . S
C393 C388 1.388 . S
C393 C392 1.443 . S
H394 C421 0.929 . S
N395 C420 1.433 . S
N395 C426 1.435 . S
N395 C432 1.423 . S
H396 C422 0.930 . S
H397 C425 0.931 . S
H398 C424 0.929 . S
H399 C427 0.930 . S
H400 C428 0.932 . S
H401 C431 0.929 . S
H402 C430 0.931 . S
H403 C433 0.929 . S
H404 C437 0.932 . S
H405 C434 0.931 . S
H406 C436 0.929 . S
H407 C439 0.929 . S
H408 C440 0.930 . S
H409 C442 0.929 . S
H410 C443 0.931 . S
H411 C445 0.930 . S
H412 C446 0.932 . S
H413 C448 0.931 . S
H414 C449 0.929 . S
H415 C451 0.929 . S
H416 C452 0.931 . S
H417 C454 0.929 . S
N418 C438 1.433 . S
N418 C444 1.435 . S
N418 C450 1.423 . S
H419 C455 0.932 . S
C420 N395 1.433 . S
C420 C421 1.363 . S
C420 C425 1.370 . S
C421 H394 0.929 . S
C421 C420 1.363 . S
C421 C422 1.385 . S
C422 H396 0.930 . S
C422 C421 1.385 . S
C422 C423 1.357 . S
C423 C422 1.357 . S
C423 C424 1.406 . S
C424 H398 0.929 . S
C424 C423 1.406 . S
C424 C425 1.391 . S
C425 H397 0.931 . S
C425 C420 1.370 . S
C425 C424 1.391 . S
C426 N395 1.435 . S
C426 C427 1.358 . S
C426 C431 1.371 . S
C427 H399 0.930 . S
C427 C426 1.358 . S
C427 C428 1.405 . S
C428 H400 0.932 . S
C428 C427 1.405 . S
C428 C429 1.383 . S
C429 C428 1.383 . S
C429 C430 1.393 . S
C430 H402 0.931 . S
C430 C429 1.393 . S
C430 C431 1.382 . S
C431 H401 0.929 . S
C431 C426 1.371 . S
C431 C430 1.382 . S
C432 N395 1.423 . S
C432 C433 1.362 . S
C432 C437 1.388 . S
C433 H403 0.929 . S
C433 C432 1.362 . S
C433 C434 1.376 . S
C434 H405 0.931 . S
C434 C433 1.376 . S
C434 C435 1.396 . S
C435 C434 1.396 . S
C435 C436 1.348 . S
C435 C453 1.472 . S
C436 H406 0.929 . S
C436 C435 1.348 . S
C436 C437 1.443 . S
C437 H404 0.932 . S
C437 C432 1.388 . S
C437 C436 1.443 . S
C438 N418 1.433 . S
C438 C439 1.363 . S
C438 C443 1.370 . S
C439 H407 0.929 . S
C439 C438 1.363 . S
C439 C440 1.385 . S
C440 H408 0.930 . S
C440 C439 1.385 . S
C440 C441 1.357 . S
C441 C440 1.357 . S
C441 C442 1.406 . S
C442 H409 0.929 . S
C442 C441 1.406 . S
C442 C443 1.391 . S
C443 H410 0.931 . S
C443 C438 1.370 . S
C443 C442 1.391 . S
C444 N418 1.435 . S
C444 C445 1.358 . S
C444 C449 1.371 . S
C445 H411 0.930 . S
C445 C444 1.358 . S
C445 C446 1.405 . S
C446 H412 0.932 . S
C446 C445 1.405 . S
C446 C447 1.383 . S
C447 C446 1.383 . S
C447 C448 1.393 . S
C448 H413 0.931 . S
C448 C447 1.393 . S
C448 C449 1.382 . S
C449 H414 0.929 . S
C449 C444 1.371 . S
C449 C448 1.382 . S
C450 N418 1.423 . S
C450 C451 1.362 . S
C450 C455 1.388 . S
C451 H415 0.929 . S
C451 C450 1.362 . S
C451 C452 1.376 . S
C452 H416 0.931 . S
C452 C451 1.376 . S
C452 C453 1.396 . S
C453 C435 1.472 . S
C453 C452 1.396 . S
C453 C454 1.348 . S
C454 H417 0.929 . S
C454 C453 1.348 . S
C454 C455 1.443 . S
C455 H419 0.932 . S
C455 C450 1.388 . S
C455 C454 1.443 . S
C456 C457 1.387 . S
C456 H460 0.950 . S
C456 C465 1.390 . S
C457 C456 1.387 . S
C457 C459 1.387 . S
H458 C465 0.950 . S
C459 C457 1.387 . S
C459 C461 1.390 . S
C459 H463 0.950 . S
H460 C456 0.950 . S
C461 C459 1.390 . S
C461 C462 1.387 . S
C461 H464 0.950 . S
C462 C461 1.387 . S
C462 C465 1.387 . S
H463 C459 0.950 . S
H464 C461 0.950 . S
C465 C456 1.390 . S
C465 H458 0.950 . S
C465 C462 1.387 . S
C466 C467 1.387 . S
C466 H470 0.950 . S
C466 C475 1.390 . S
C467 C466 1.387 . S
C467 C469 1.387 . S
H468 C475 0.950 . S
C469 C467 1.387 . S
C469 C471 1.390 . S
C469 H473 0.950 . S
H470 C466 0.950 . S
C471 C469 1.390 . S
C471 C472 1.387 . S
C471 H474 0.950 . S
C472 C471 1.387 . S
C472 C475 1.387 . S
H473 C469 0.950 . S
H474 C471 0.950 . S
C475 C466 1.390 . S
C475 H468 0.950 . S
C475 C472 1.387 . S
C476 C477 1.387 . S
C476 H480 0.950 . S
C476 C485 1.390 . S
C477 C476 1.387 . S
C477 C479 1.387 . S
H478 C485 0.950 . S
C479 C477 1.387 . S
C479 C481 1.390 . S
C479 H483 0.950 . S
H480 C476 0.950 . S
C481 C479 1.390 . S
C481 C482 1.387 . S
C481 H484 0.950 . S
C482 C481 1.387 . S
C482 C485 1.387 . S
H483 C479 0.950 . S
H484 C481 0.950 . S
C485 C476 1.390 . S
C485 H478 0.950 . S
C485 C482 1.387 . S
C486 C487 1.387 . S
C486 H490 0.950 . S
C486 C495 1.390 1_455 S
C487 C486 1.387 . S
C487 C489 1.387 . S
H488 C495 0.950 . S
C489 C487 1.387 . S
C489 C491 1.390 1_455 S
C489 H493 0.950 . S
H490 C486 0.950 . S
C491 C489 1.390 1_655 S
C491 C492 1.387 . S
C491 H494 0.950 . S
C492 C491 1.387 . S
C492 C495 1.387 . S
H493 C489 0.950 . S
H494 C491 0.950 . S
C495 C486 1.390 1_655 S
C495 H488 0.950 . S
C495 C492 1.387 . S
C496 C497 1.387 . S
C496 H500 0.949 1_565 S
C496 C505 1.390 . S
C497 C496 1.387 . S
C497 C499 1.387 . S
H498 C505 0.950 . S
C499 C497 1.387 . S
C499 C501 1.390 . S
C499 H503 0.950 . S
H500 C496 0.949 1_545 S
C501 C499 1.390 . S
C501 C502 1.387 . S
C501 H504 0.950 . S
C502 C501 1.387 . S
C502 C505 1.387 . S
H503 C499 0.950 . S
H504 C501 0.950 . S
C505 C496 1.390 . S
C505 H498 0.950 . S
C505 C502 1.387 . S
C506 C507 1.387 . S
C506 H510 0.950 . S
C506 C515 1.390 . S
C507 C506 1.387 . S
C507 C509 1.387 . S
H508 C515 0.950 . S
C509 C507 1.387 . S
C509 C511 1.390 . S
C509 H513 0.950 . S
H510 C506 0.950 . S
C511 C509 1.390 . S
C511 C512 1.387 . S
C511 H514 0.950 . S
C512 C511 1.387 . S
C512 C515 1.387 . S
H513 C509 0.950 . S
H514 C511 0.950 . S
C515 C506 1.390 . S
C515 H508 0.950 . S
C515 C512 1.387 . S
C516 C517 1.387 . S
C516 H520 0.950 . S
C516 C525 1.390 . S
C517 C516 1.387 . S
C517 C519 1.387 . S
H518 C525 0.950 . S
C519 C517 1.387 . S
C519 C521 1.390 . S
C519 H523 0.950 . S
H520 C516 0.950 . S
C521 C519 1.390 . S
C521 C522 1.387 . S
C521 H524 0.950 . S
C522 C521 1.387 . S
C522 C525 1.387 . S
H523 C519 0.950 . S
H524 C521 0.950 . S
C525 C516 1.390 . S
C525 H518 0.950 . S
C525 C522 1.387 . S
C526 C527 1.387 . S
C526 H530 0.950 1_556 S
C526 C535 1.390 . S
C527 C526 1.387 . S
C527 C529 1.387 . S
H528 C535 0.950 . S
C529 C527 1.387 . S
C529 C531 1.390 . S
C529 H533 0.950 . S
H530 C526 0.950 1_554 S
C531 C529 1.390 . S
C531 C532 1.387 . S
C531 H534 0.950 . S
C532 C531 1.387 . S
C532 C535 1.387 . S
H533 C529 0.950 . S
H534 C531 0.950 . S
C535 C526 1.390 . S
C535 H528 0.950 . S
C535 C532 1.387 . S
C536 C537 1.387 . S
C536 H540 0.950 . S
C536 C545 1.390 . S
C537 C536 1.387 . S
C537 C539 1.387 . S
H538 C545 0.950 . S
C539 C537 1.387 . S
C539 C541 1.390 . S
C539 H543 0.950 . S
H540 C536 0.950 . S
C541 C539 1.390 . S
C541 C542 1.387 . S
C541 H544 0.950 . S
C542 C541 1.387 . S
C542 C545 1.387 . S
H543 C539 0.950 . S
H544 C541 0.950 . S
C545 C536 1.390 . S
C545 H538 0.950 . S
C545 C542 1.387 . S
C546 C547 1.387 . S
C546 H550 0.950 . S
C546 C555 1.390 . S
C547 C546 1.387 . S
C547 C549 1.387 . S
H548 C555 0.950 . S
C549 C547 1.387 . S
C549 C551 1.390 . S
C549 H553 0.950 . S
H550 C546 0.950 . S
C551 C549 1.390 . S
C551 C552 1.387 . S
C551 H554 0.950 . S
C552 C551 1.387 . S
C552 C555 1.387 . S
H553 C549 0.950 . S
H554 C551 0.950 . S
C555 C546 1.390 . S
C555 H548 0.950 . S
C555 C552 1.387 . S
C556 C557 1.387 . S
C556 H560 0.950 . S
C556 C565 1.390 . S
C557 C556 1.387 . S
C557 C559 1.387 . S
H558 C565 0.950 . S
C559 C557 1.387 . S
C559 C561 1.390 . S
C559 H563 0.950 . S
H560 C556 0.950 . S
C561 C559 1.390 . S
C561 C562 1.387 . S
C561 H564 0.950 . S
C562 C561 1.387 . S
C562 C565 1.387 . S
H563 C559 0.950 . S
H564 C561 0.950 . S
C565 C556 1.390 . S
C565 H558 0.950 . S
C565 C562 1.387 . S
C566 C567 1.387 1_554 S
C566 H570 0.950 . S
C566 C575 1.390 1_554 S
C567 C566 1.387 1_556 S
C567 C569 1.387 . S
H568 C575 0.950 1_554 S
C569 C567 1.387 . S
C569 C571 1.390 . S
C569 H573 0.950 . S
H570 C566 0.950 . S
C571 C569 1.390 . S
C571 C572 1.387 . S
C571 H574 0.950 . S
C572 C571 1.387 . S
C572 C575 1.387 . S
H573 C569 0.950 . S
H574 C571 0.950 . S
C575 C566 1.390 1_556 S
C575 H568 0.950 1_556 S
C575 C572 1.387 . S
C576 C577 1.387 1_554 S
C576 H580 0.950 . S
C576 C585 1.390 . S
C577 C576 1.387 1_556 S
C577 C579 1.387 . S
H578 C585 0.950 . S
C579 C577 1.387 . S
C579 C581 1.390 . S
C579 H583 0.950 . S
H580 C576 0.950 . S
C581 C579 1.390 . S
C581 C582 1.387 . S
C581 H584 0.950 . S
C582 C581 1.387 . S
C582 C585 1.387 1_556 S
H583 C579 0.950 . S
H584 C581 0.950 . S
C585 C576 1.390 . S
C585 H578 0.950 . S
C585 C582 1.387 1_554 S
C586 C587 1.387 . S
C586 H590 0.950 . S
C586 C595 1.390 . S
C587 C586 1.387 . S
C587 C589 1.387 . S
H588 C595 0.950 . S
C589 C587 1.387 . S
C589 C591 1.390 . S
C589 H593 0.950 . S
H590 C586 0.950 . S
C591 C589 1.390 . S
C591 C592 1.387 . S
C591 H594 0.950 . S
C592 C591 1.387 . S
C592 C595 1.387 . S
H593 C589 0.950 . S
H594 C591 0.950 . S
C595 C586 1.390 . S
C595 H588 0.950 . S
C595 C592 1.387 . S
C596 C597 1.387 . S
C596 H600 0.950 . S
C596 C605 1.390 . S
C597 C596 1.387 . S
C597 C599 1.387 . S
H598 C605 0.950 . S
C599 C597 1.387 . S
C599 C601 1.390 . S
C599 H603 0.950 . S
H600 C596 0.950 . S
C601 C599 1.390 . S
C601 C602 1.387 . S
C601 H604 0.950 . S
C602 C601 1.387 . S
C602 C605 1.387 . S
H603 C599 0.950 . S
H604 C601 0.950 . S
C605 C596 1.390 . S
C605 H598 0.950 . S
C605 C602 1.387 . S
C606 C607 1.387 . S
C606 H610 0.950 . S
C606 C615 1.390 . S
C607 C606 1.387 . S
C607 C609 1.387 . S
H608 C615 0.950 . S
C609 C607 1.387 . S
C609 C611 1.390 . S
C609 H613 0.950 . S
H610 C606 0.950 . S
C611 C609 1.390 . S
C611 C612 1.387 . S
C611 H614 0.950 . S
C612 C611 1.387 . S
C612 C615 1.387 . S
H613 C609 0.950 . S
H614 C611 0.950 . S
C615 C606 1.390 . S
C615 H608 0.950 . S
C615 C612 1.387 . S
C616 C617 1.387 . S
C616 H620 0.950 . S
C616 C625 1.390 . S
C617 C616 1.387 . S
C617 C619 1.387 . S
H618 C625 0.950 . S
C619 C617 1.387 . S
C619 C621 1.390 . S
C619 H623 0.950 . S
H620 C616 0.950 . S
C621 C619 1.390 . S
C621 C622 1.387 . S
C621 H624 0.950 . S
C622 C621 1.387 . S
C622 C625 1.387 . S
H623 C619 0.950 . S
H624 C621 0.950 . S
C625 C616 1.390 . S
C625 H618 0.950 . S
C625 C622 1.387 . S
C626 C627 1.387 . S
C626 H630 0.950 . S
C626 C635 1.390 . S
C627 C626 1.387 . S
C627 C629 1.387 . S
H628 C635 0.950 . S
C629 C627 1.387 . S
C629 C631 1.390 . S
C629 H633 0.950 . S
H630 C626 0.950 . S
C631 C629 1.390 . S
C631 C632 1.387 . S
C631 H634 0.950 . S
C632 C631 1.387 . S
C632 C635 1.387 . S
H633 C629 0.950 . S
H634 C631 0.950 . S
C635 C626 1.390 . S
C635 H628 0.950 . S
C635 C632 1.387 . S
C636 C637 1.387 . S
C636 H640 0.950 . S
C636 C645 1.390 . S
C637 C636 1.387 . S
C637 C639 1.387 . S
H638 C645 0.950 . S
C639 C637 1.387 . S
C639 C641 1.390 . S
C639 H643 0.950 . S
H640 C636 0.950 . S
C641 C639 1.390 . S
C641 C642 1.387 . S
C641 H644 0.950 . S
C642 C641 1.387 . S
C642 C645 1.387 . S
H643 C639 0.950 . S
H644 C641 0.950 . S
C645 C636 1.390 . S
C645 H638 0.950 . S
C645 C642 1.387 . S
C646 C647 1.387 . S
C646 H650 0.950 . S
C646 C655 1.390 . S
C647 C646 1.387 . S
C647 C649 1.387 . S
H648 C655 0.950 . S
C649 C647 1.387 . S
C649 C651 1.390 . S
C649 H653 0.950 . S
H650 C646 0.950 . S
C651 C649 1.390 . S
C651 C652 1.387 . S
C651 H654 0.950 . S
C652 C651 1.387 . S
C652 C655 1.387 . S
H653 C649 0.950 . S
H654 C651 0.950 . S
C655 C646 1.390 . S
C655 H648 0.950 . S
C655 C652 1.387 . S
C656 C657 1.387 . S
C656 H660 0.950 . S
C656 C665 1.390 . S
C657 C656 1.387 . S
C657 C659 1.387 1_455 S
H658 C665 0.950 . S
C659 C657 1.387 1_655 S
C659 C661 1.390 . S
C659 H663 0.950 . S
H660 C656 0.950 . S
C661 C659 1.390 . S
C661 C662 1.387 . S
C661 H664 0.950 . S
C662 C661 1.387 . S
C662 C665 1.387 1_655 S
H663 C659 0.950 . S
H664 C661 0.950 . S
C665 C656 1.390 . S
C665 H658 0.950 . S
C665 C662 1.387 1_455 S
C666 C667 1.387 . S
C666 H670 0.950 1_565 S
C666 C675 1.390 . S
C667 C666 1.387 . S
C667 C669 1.387 . S
H668 C675 0.950 . S
C669 C667 1.387 . S
C669 C671 1.390 . S
C669 H673 0.950 . S
H670 C666 0.950 1_545 S
C671 C669 1.390 . S
C671 C672 1.387 . S
C671 H674 0.950 . S
C672 C671 1.387 . S
C672 C675 1.387 . S
H673 C669 0.950 . S
H674 C671 0.950 . S
C675 C666 1.390 . S
C675 H668 0.950 . S
C675 C672 1.387 . S
C676 C677 1.387 . S
C676 H680 0.950 . S
C676 C685 1.390 . S
C677 C676 1.387 . S
C677 C679 1.387 . S
H678 C685 0.950 . S
C679 C677 1.387 . S
C679 C681 1.390 . S
C679 H683 0.950 . S
H680 C676 0.950 . S
C681 C679 1.390 . S
C681 C682 1.387 . S
C681 H684 0.950 . S
C682 C681 1.387 . S
C682 C685 1.387 . S
H683 C679 0.950 . S
H684 C681 0.950 . S
C685 C676 1.390 . S
C685 H678 0.950 . S
C685 C682 1.387 . S
C686 C687 1.387 . S
C686 H690 0.950 . S
C686 C695 1.390 . S
C687 C686 1.387 . S
C687 C689 1.387 . S
H688 C695 0.950 . S
C689 C687 1.387 . S
C689 C691 1.390 . S
C689 H693 0.950 . S
H690 C686 0.950 . S
C691 C689 1.390 . S
C691 C692 1.387 . S
C691 H694 0.950 . S
C692 C691 1.387 . S
C692 C695 1.387 . S
H693 C689 0.950 . S
H694 C691 0.950 . S
C695 C686 1.390 . S
C695 H688 0.950 . S
C695 C692 1.387 . S
C457 C13 1.757 . S
C462 C137 1.633 . S
C467 C27 1.927 . S
C472 C181 1.850 . S
C482 C261 1.629 . S
C477 C29 1.726 . S
C492 C305 1.672 . S
C487 C54 1.747 . S
C502 C385 1.763 . S
C497 C69 1.902 . S
C512 C441 1.808 . S
C507 C83 1.989 . S
C517 C15 2.024 . S
C522 C237 1.743 . S
C527 C41 1.774 . S
C532 C317 1.660 . S
C542 C361 1.797 . S
C537 C42 2.000 . S
C552 C429 1.736 . S
C547 C57 1.767 . S
C557 C71 1.811 . S
C562 C113 1.602 . S
C572 C193 1.914 . S
C567 C1 1.994 1_556 S
C582 C299 1.914 . S
C577 C12 1.995 1_556 S
C587 C26 1.811 . S
C592 C379 1.599 . S
C602 C447 1.733 . S
C597 C28 1.766 . S
C607 C55 2.000 . S
C612 C131 1.797 . S
C617 C68 1.775 . S
C622 C175 1.660 . S
C627 C82 2.024 . S
C632 C255 1.743 . S
C637 C14 1.991 . S
C642 C423 1.809 . S
C652 C119 1.761 . S
C647 C40 1.901 . S
C657 C43 1.748 . S
C662 C199 1.671 . S
C667 C56 1.727 . S
C672 C243 1.630 . S
C677 C70 1.929 . S
C682 C323 1.853 . S
C687 C0 1.755 . S
C692 C367 1.630 . S
