# Generated by pormake.
# Topology eea, (3,6)-cn, num edge types: 1
# Building blocks:
#     Node 0, Type 0, BuildingBlock: MIDCAF_clean_linker_0, # of connection points: 3
#     Node 1, Type 0, BuildingBlock: MIDCAF_clean_linker_0, # of connection points: 3
#     Node 2, Type 0, BuildingBlock: MIDCAF_clean_linker_0, # of connection points: 3
#     Node 3, Type 0, BuildingBlock: MIDCAF_clean_linker_0, # of connection points: 3
#     Node 4, Type 0, BuildingBlock: MIDCAF_clean_linker_0, # of connection points: 3
#     Node 5, Type 0, BuildingBlock: MIDCAF_clean_linker_0, # of connection points: 3
#     Node 6, Type 0, BuildingBlock: MIDCAF_clean_linker_0, # of connection points: 3
#     Node 7, Type 0, BuildingBlock: MIDCAF_clean_linker_0, # of connection points: 3
#     Node 8, Type 0, BuildingBlock: MIDCAF_clean_linker_0, # of connection points: 3
#     Node 9, Type 0, BuildingBlock: MIDCAF_clean_linker_0, # of connection points: 3
#     Node 10, Type 0, BuildingBlock: MIDCAF_clean_linker_0, # of connection points: 3
#     Node 11, Type 0, BuildingBlock: MIDCAF_clean_linker_0, # of connection points: 3
#     Node 12, Type 0, BuildingBlock: MIDCAF_clean_linker_0, # of connection points: 3
#     Node 13, Type 0, BuildingBlock: MIDCAF_clean_linker_0, # of connection points: 3
#     Node 14, Type 0, BuildingBlock: MIDCAF_clean_linker_0, # of connection points: 3
#     Node 15, Type 0, BuildingBlock: MIDCAF_clean_linker_0, # of connection points: 3
#     Node 16, Type 0, BuildingBlock: MIDCAF_clean_linker_0, # of connection points: 3
#     Node 17, Type 0, BuildingBlock: MIDCAF_clean_linker_0, # of connection points: 3
#     Node 18, Type 1, BuildingBlock: CUKXOW_clean_sbu_0, # of connection points: 6
#     Node 19, Type 1, BuildingBlock: CUKXOW_clean_sbu_0, # of connection points: 6
#     Node 20, Type 1, BuildingBlock: CUKXOW_clean_sbu_0, # of connection points: 6
#     Node 21, Type 1, BuildingBlock: CUKXOW_clean_sbu_0, # of connection points: 6
#     Node 22, Type 1, BuildingBlock: CUKXOW_clean_sbu_0, # of connection points: 6
#     Node 23, Type 1, BuildingBlock: CUKXOW_clean_sbu_0, # of connection points: 6
#     Node 24, Type 1, BuildingBlock: CUKXOW_clean_sbu_0, # of connection points: 6
#     Node 25, Type 1, BuildingBlock: CUKXOW_clean_sbu_0, # of connection points: 6
#     Node 26, Type 1, BuildingBlock: CUKXOW_clean_sbu_0, # of connection points: 6
#     Edge 27, Type (0, 1), BuildingBlock: UVAHIK_clean_linker_0, # of connection points: 2
#     Edge 28, Type (0, 1), BuildingBlock: UVAHIK_clean_linker_0, # of connection points: 2
#     Edge 29, Type (0, 1), BuildingBlock: UVAHIK_clean_linker_0, # of connection points: 2
#     Edge 30, Type (0, 1), BuildingBlock: UVAHIK_clean_linker_0, # of connection points: 2
#     Edge 31, Type (0, 1), BuildingBlock: UVAHIK_clean_linker_0, # of connection points: 2
#     Edge 32, Type (0, 1), BuildingBlock: UVAHIK_clean_linker_0, # of connection points: 2
#     Edge 33, Type (0, 1), BuildingBlock: UVAHIK_clean_linker_0, # of connection points: 2
#     Edge 34, Type (0, 1), BuildingBlock: UVAHIK_clean_linker_0, # of connection points: 2
#     Edge 35, Type (0, 1), BuildingBlock: UVAHIK_clean_linker_0, # of connection points: 2
#     Edge 36, Type (0, 1), BuildingBlock: UVAHIK_clean_linker_0, # of connection points: 2
#     Edge 37, Type (0, 1), BuildingBlock: UVAHIK_clean_linker_0, # of connection points: 2
#     Edge 38, Type (0, 1), BuildingBlock: UVAHIK_clean_linker_0, # of connection points: 2
#     Edge 39, Type (0, 1), BuildingBlock: UVAHIK_clean_linker_0, # of connection points: 2
#     Edge 40, Type (0, 1), BuildingBlock: UVAHIK_clean_linker_0, # of connection points: 2
#     Edge 41, Type (0, 1), BuildingBlock: UVAHIK_clean_linker_0, # of connection points: 2
#     Edge 42, Type (0, 1), BuildingBlock: UVAHIK_clean_linker_0, # of connection points: 2
#     Edge 43, Type (0, 1), BuildingBlock: UVAHIK_clean_linker_0, # of connection points: 2
#     Edge 44, Type (0, 1), BuildingBlock: UVAHIK_clean_linker_0, # of connection points: 2
#     Edge 45, Type (0, 1), BuildingBlock: UVAHIK_clean_linker_0, # of connection points: 2
#     Edge 46, Type (0, 1), BuildingBlock: UVAHIK_clean_linker_0, # of connection points: 2
#     Edge 47, Type (0, 1), BuildingBlock: UVAHIK_clean_linker_0, # of connection points: 2
#     Edge 48, Type (0, 1), BuildingBlock: UVAHIK_clean_linker_0, # of connection points: 2
#     Edge 49, Type (0, 1), BuildingBlock: UVAHIK_clean_linker_0, # of connection points: 2
#     Edge 50, Type (0, 1), BuildingBlock: UVAHIK_clean_linker_0, # of connection points: 2
#     Edge 51, Type (0, 1), BuildingBlock: UVAHIK_clean_linker_0, # of connection points: 2
#     Edge 52, Type (0, 1), BuildingBlock: UVAHIK_clean_linker_0, # of connection points: 2
#     Edge 53, Type (0, 1), BuildingBlock: UVAHIK_clean_linker_0, # of connection points: 2
#     Edge 54, Type (0, 1), BuildingBlock: UVAHIK_clean_linker_0, # of connection points: 2
#     Edge 55, Type (0, 1), BuildingBlock: UVAHIK_clean_linker_0, # of connection points: 2
#     Edge 56, Type (0, 1), BuildingBlock: UVAHIK_clean_linker_0, # of connection points: 2
#     Edge 57, Type (0, 1), BuildingBlock: UVAHIK_clean_linker_0, # of connection points: 2
#     Edge 58, Type (0, 1), BuildingBlock: UVAHIK_clean_linker_0, # of connection points: 2
#     Edge 59, Type (0, 1), BuildingBlock: UVAHIK_clean_linker_0, # of connection points: 2
#     Edge 60, Type (0, 1), BuildingBlock: UVAHIK_clean_linker_0, # of connection points: 2
#     Edge 61, Type (0, 1), BuildingBlock: UVAHIK_clean_linker_0, # of connection points: 2
#     Edge 62, Type (0, 1), BuildingBlock: UVAHIK_clean_linker_0, # of connection points: 2
#     Edge 63, Type (0, 1), BuildingBlock: UVAHIK_clean_linker_0, # of connection points: 2
#     Edge 64, Type (0, 1), BuildingBlock: UVAHIK_clean_linker_0, # of connection points: 2
#     Edge 65, Type (0, 1), BuildingBlock: UVAHIK_clean_linker_0, # of connection points: 2
#     Edge 66, Type (0, 1), BuildingBlock: UVAHIK_clean_linker_0, # of connection points: 2
#     Edge 67, Type (0, 1), BuildingBlock: UVAHIK_clean_linker_0, # of connection points: 2
#     Edge 68, Type (0, 1), BuildingBlock: UVAHIK_clean_linker_0, # of connection points: 2
#     Edge 69, Type (0, 1), BuildingBlock: UVAHIK_clean_linker_0, # of connection points: 2
#     Edge 70, Type (0, 1), BuildingBlock: UVAHIK_clean_linker_0, # of connection points: 2
#     Edge 71, Type (0, 1), BuildingBlock: UVAHIK_clean_linker_0, # of connection points: 2
#     Edge 72, Type (0, 1), BuildingBlock: UVAHIK_clean_linker_0, # of connection points: 2
#     Edge 73, Type (0, 1), BuildingBlock: UVAHIK_clean_linker_0, # of connection points: 2
#     Edge 74, Type (0, 1), BuildingBlock: UVAHIK_clean_linker_0, # of connection points: 2
#     Edge 75, Type (0, 1), BuildingBlock: UVAHIK_clean_linker_0, # of connection points: 2
#     Edge 76, Type (0, 1), BuildingBlock: UVAHIK_clean_linker_0, # of connection points: 2
#     Edge 77, Type (0, 1), BuildingBlock: UVAHIK_clean_linker_0, # of connection points: 2
#     Edge 78, Type (0, 1), BuildingBlock: UVAHIK_clean_linker_0, # of connection points: 2
#     Edge 79, Type (0, 1), BuildingBlock: UVAHIK_clean_linker_0, # of connection points: 2
#     Edge 80, Type (0, 1), BuildingBlock: UVAHIK_clean_linker_0, # of connection points: 2
# Relax obj value: 0.017
# Max RMSD: 0.127
# Mean RMSD: 0.053
data_MOF--net-eea--node1-CUKXOW_clean_sbu_0--node2-MIDCAF_clean_linker_0--edge1-UVAHIK_clean_linker_0
_symmetry_space_group_name_H-M    P1
_symmetry_Int_Tables_number       1
_symmetry_cell_setting            triclinic
loop_
_symmetry_equiv_pos_as_xyz
'x, y, z'
_cell_length_a     82.186
_cell_length_b     79.315312
_cell_length_c     91.117478
_cell_angle_alpha  92.978497
_cell_angle_beta   92.991235
_cell_angle_gamma 119.88023
loop_
_atom_site_label
_atom_site_type_symbol
_atom_site_fract_x
_atom_site_fract_y
_atom_site_fract_z
_atom_type_partial_charge
C0 C 0.26427 0.07599 0.4193 0.0
C1 C 0.25693 0.07068 0.40446 0.0
C2 C 0.25625 0.08467 0.39603 0.0
C3 C 0.26215 0.10344 0.40248 0.0
H4 H 0.24798 0.14678 0.40002 0.0
H5 H 0.23708 0.16675 0.38828 0.0
H6 H 0.27225 0.21505 0.42065 0.0
H7 H 0.28318 0.19512 0.43251 0.0
H8 H 0.28133 0.17371 0.46679 0.0
H9 H 0.29066 0.17829 0.49317 0.0
H10 H 0.31693 0.14323 0.48655 0.0
H11 H 0.30681 0.13794 0.46036 0.0
H12 H 0.2756 0.0982 0.43725 0.0
H13 H 0.26518 0.06554 0.42599 0.0
H14 H 0.25058 0.08092 0.38458 0.0
H15 H 0.26101 0.11375 0.39578 0.0
N16 N 0.26907 0.13976 0.41776 0.0
N17 N 0.28053 0.1621 0.43884 0.0
N18 N 0.28208 0.13338 0.43874 0.0
C19 C 0.27243 0.15692 0.42472 0.0
C20 C 0.28547 0.15041 0.44588 0.0
C21 C 0.2739 0.12793 0.42469 0.0
C22 C 0.26643 0.16933 0.41725 0.0
C23 C 0.2535 0.16168 0.40462 0.0
C24 C 0.24716 0.17306 0.39793 0.0
C25 C 0.25379 0.19239 0.4036 0.0
C26 C 0.267 0.20021 0.41602 0.0
C27 C 0.27317 0.18875 0.42284 0.0
C28 C 0.29315 0.15528 0.46153 0.0
C29 C 0.28927 0.16717 0.47097 0.0
C30 C 0.29469 0.16984 0.48611 0.0
C31 C 0.30435 0.16092 0.49208 0.0
C32 C 0.30905 0.14987 0.48245 0.0
C33 C 0.30337 0.14695 0.46739 0.0
C34 C 0.26902 0.10861 0.41746 0.0
C35 C 0.27034 0.09476 0.42571 0.0
C36 C 0.93256 0.20025 0.42274 0.0
C37 C 0.93789 0.19237 0.411 0.0
C38 C 0.92497 0.17348 0.40453 0.0
C39 C 0.90725 0.1627 0.40971 0.0
H40 H 0.85128 0.11723 0.39652 0.0
H41 H 0.83 0.08448 0.38446 0.0
H42 H 0.80374 0.06655 0.42496 0.0
H43 H 0.82472 0.09916 0.43703 0.0
H44 H 0.82988 0.13921 0.45832 0.0
H45 H 0.82443 0.14454 0.48365 0.0
H46 H 0.88444 0.18145 0.49461 0.0
H47 H 0.88983 0.17671 0.46906 0.0
H48 H 0.91128 0.19585 0.43714 0.0
H49 H 0.94201 0.21487 0.42783 0.0
H50 H 0.92868 0.16677 0.39565 0.0
H51 H 0.89781 0.14811 0.40455 0.0
N52 N 0.87022 0.14156 0.41991 0.0
N53 N 0.85044 0.13552 0.43893 0.0
N54 N 0.88022 0.16381 0.44097 0.0
C55 C 0.85361 0.13 0.42553 0.0
C56 C 0.8636 0.15241 0.44669 0.0
C57 C 0.88358 0.15852 0.42752 0.0
C58 C 0.83978 0.11079 0.41777 0.0
C59 C 0.84085 0.10636 0.40282 0.0
C60 C 0.82864 0.08767 0.39588 0.0
C61 C 0.81539 0.07304 0.40384 0.0
C62 C 0.81399 0.07758 0.41864 0.0
C63 C 0.82595 0.09629 0.42551 0.0
C64 C 0.8603 0.15738 0.4617 0.0
C65 C 0.84191 0.14863 0.46609 0.0
C66 C 0.83879 0.15159 0.48066 0.0
C67 C 0.85401 0.16316 0.49127 0.0
C68 C 0.87237 0.17257 0.48673 0.0
C69 C 0.87548 0.16979 0.47208 0.0
C70 C 0.90204 0.17044 0.42161 0.0
C71 C 0.91487 0.18938 0.42803 0.0
C72 C 0.81277 0.72719 0.42325 0.0
C73 C 0.82016 0.74263 0.41411 0.0
C74 C 0.83895 0.75051 0.41074 0.0
C75 C 0.8501 0.74325 0.41643 0.0
H76 H 0.90079 0.74798 0.41404 0.0
H77 H 0.93183 0.76004 0.40569 0.0
H78 H 0.94024 0.72095 0.43225 0.0
H79 H 0.90916 0.70924 0.44109 0.0
H80 H 0.8807 0.69082 0.46691 0.0
H81 H 0.87448 0.67847 0.49124 0.0
H82 H 0.82536 0.68497 0.49067 0.0
H83 H 0.83136 0.69722 0.46649 0.0
H84 H 0.8179 0.70827 0.43617 0.0
H85 H 0.79826 0.72052 0.42587 0.0
H86 H 0.84524 0.76263 0.40396 0.0
H87 H 0.86459 0.7499 0.41375 0.0
N88 N 0.87192 0.72637 0.42727 0.0
N89 N 0.87848 0.71038 0.44561 0.0
N90 N 0.85001 0.71064 0.44433 0.0
C91 C 0.88368 0.72096 0.4337 0.0
C92 C 0.86162 0.70516 0.45099 0.0
C93 C 0.85503 0.72119 0.43245 0.0
C94 C 0.90242 0.7276 0.42825 0.0
C95 C 0.90914 0.74182 0.41809 0.0
C96 C 0.92698 0.74869 0.4132 0.0
C97 C 0.93853 0.74139 0.41821 0.0
C98 C 0.93179 0.72705 0.4283 0.0
C99 C 0.91393 0.72026 0.4333 0.0
C100 C 0.85669 0.69529 0.46479 0.0
C101 C 0.86842 0.68937 0.47187 0.0
C102 C 0.86484 0.68221 0.48576 0.0
C103 C 0.84959 0.68101 0.49286 0.0
C104 C 0.83737 0.68601 0.4855 0.0
C105 C 0.84082 0.69298 0.47161 0.0
C106 C 0.84282 0.72808 0.42579 0.0
C107 C 0.824 0.72007 0.42908 0.0
C108 C 0.06385 0.26059 0.57445 0.0
C109 C 0.05834 0.24715 0.58521 0.0
C110 C 0.07093 0.24123 0.59046 0.0
C111 C 0.08866 0.2487 0.5852 0.0
H112 H 0.13538 0.24217 0.58627 0.0
H113 H 0.1574 0.23275 0.59656 0.0
H114 H 0.20373 0.28352 0.58096 0.0
H115 H 0.18168 0.29289 0.57035 0.0
H116 H 0.16939 0.31101 0.54229 0.0
H117 H 0.1762 0.32433 0.51847 0.0
H118 H 0.1166 0.29995 0.50661 0.0
H119 H 0.10986 0.28731 0.53065 0.0
H120 H 0.08541 0.27843 0.5609 0.0
H121 H 0.05458 0.26564 0.5703 0.0
H122 H 0.06702 0.23063 0.59854 0.0
H123 H 0.09793 0.24375 0.58951 0.0
N124 N 0.12599 0.26634 0.5756 0.0
N125 N 0.14764 0.28413 0.55887 0.0
N126 N 0.11754 0.28072 0.5571 0.0
C127 C 0.1433 0.27336 0.57066 0.0
C128 C 0.13481 0.28781 0.55199 0.0
C129 C 0.11308 0.27009 0.56898 0.0
C130 C 0.15681 0.26827 0.57748 0.0
C131 C 0.15026 0.25141 0.58508 0.0
C132 C 0.16281 0.24593 0.59089 0.0
C133 C 0.18217 0.2574 0.58947 0.0
C134 C 0.18883 0.27449 0.58219 0.0
C135 C 0.17622 0.27979 0.5761 0.0
C136 C 0.13907 0.29791 0.53831 0.0
C137 C 0.15776 0.30871 0.53467 0.0
C138 C 0.16165 0.31626 0.52097 0.0
C139 C 0.14694 0.31295 0.51049 0.0
C140 C 0.12831 0.30294 0.51442 0.0
C141 C 0.12443 0.2956 0.52821 0.0
C142 C 0.09422 0.2622 0.57448 0.0
C143 C 0.08158 0.26801 0.56912 0.0
C144 C 0.72597 0.79236 0.59294 0.0
C145 C 0.7386 0.7993 0.60575 0.0
C146 C 0.74601 0.81879 0.61145 0.0
C147 C 0.74114 0.83109 0.60445 0.0
H148 H 0.75456 0.88814 0.60583 0.0
H149 H 0.76677 0.92141 0.61683 0.0
H150 H 0.72871 0.92822 0.58655 0.0
H151 H 0.7165 0.89497 0.5754 0.0
H152 H 0.71304 0.86968 0.54228 0.0
H153 H 0.70101 0.86137 0.51637 0.0
H154 H 0.67947 0.80033 0.52178 0.0
H155 H 0.6917 0.80856 0.54781 0.0
H156 H 0.71154 0.79893 0.57595 0.0
H157 H 0.71977 0.77735 0.58836 0.0
H158 H 0.75602 0.82476 0.62114 0.0
H159 H 0.7474 0.84609 0.60908 0.0
N160 N 0.73061 0.85606 0.58999 0.0
N161 N 0.71829 0.86333 0.56908 0.0
N162 N 0.71532 0.8324 0.56992 0.0
C163 C 0.72745 0.86887 0.58283 0.0
C164 C 0.71219 0.84513 0.56254 0.0
C165 C 0.72454 0.83778 0.58368 0.0
C166 C 0.73455 0.8889 0.58972 0.0
C167 C 0.74872 0.89668 0.60153 0.0
C168 C 0.75581 0.91576 0.60778 0.0
C169 C 0.74868 0.92734 0.60252 0.0
C170 C 0.73435 0.91952 0.59086 0.0
C171 C 0.72745 0.90054 0.58445 0.0
C172 C 0.70345 0.83979 0.54713 0.0
C173 C 0.7056 0.85445 0.53804 0.0
C174 C 0.69879 0.84973 0.52318 0.0
C175 C 0.68944 0.83024 0.5171 0.0
C176 C 0.68661 0.81547 0.52624 0.0
C177 C 0.69369 0.82021 0.5411 0.0
C178 C 0.72882 0.82429 0.59147 0.0
C179 C 0.72117 0.80472 0.58586 0.0
C180 C 0.19411 0.92698 0.58818 0.0
C181 C 0.1921 0.93175 0.60277 0.0
C182 C 0.17749 0.91764 0.61017 0.0
C183 C 0.16468 0.89936 0.6029 0.0
H184 H 0.11008 0.85589 0.60366 0.0
H185 H 0.07993 0.83682 0.61357 0.0
H186 H 0.0619 0.79307 0.57669 0.0
H187 H 0.09197 0.81246 0.56649 0.0
H188 H 0.11437 0.83002 0.53615 0.0
H189 H 0.11921 0.82477 0.51052 0.0
H190 H 0.17928 0.8625 0.52052 0.0
H191 H 0.17439 0.8683 0.54591 0.0
H192 H 0.18324 0.90567 0.56961 0.0
H193 H 0.2054 0.93751 0.58228 0.0
H194 H 0.17557 0.92098 0.62141 0.0
H195 H 0.15328 0.88898 0.60879 0.0
N196 N 0.13545 0.86446 0.58573 0.0
N197 N 0.12455 0.84303 0.56416 0.0
N198 N 0.15461 0.87095 0.56624 0.0
C199 C 0.12169 0.84789 0.57794 0.0
C200 C 0.14104 0.85446 0.55828 0.0
C201 C 0.15195 0.87606 0.57997 0.0
C202 C 0.10351 0.83577 0.58423 0.0
C203 C 0.09976 0.84218 0.59765 0.0
C204 C 0.08246 0.83116 0.6034 0.0
C205 C 0.06847 0.81338 0.59595 0.0
C206 C 0.07226 0.80684 0.58262 0.0
C207 C 0.08957 0.81792 0.5768 0.0
C208 C 0.14397 0.84974 0.54305 0.0
C209 C 0.12862 0.83708 0.53289 0.0
C210 C 0.13141 0.83401 0.51819 0.0
C211 C 0.14963 0.84338 0.51337 0.0
C212 C 0.16501 0.85543 0.52372 0.0
C213 C 0.16221 0.85867 0.53833 0.0
C214 C 0.16634 0.89477 0.58813 0.0
C215 C 0.18145 0.90867 0.58096 0.0
C216 C 0.9255 0.40794 0.74886 0.0
C217 C 0.91985 0.40346 0.73369 0.0
C218 C 0.92165 0.41838 0.72507 0.0
C219 C 0.92843 0.4373 0.73161 0.0
H220 H 0.9212 0.48441 0.72677 0.0
H221 H 0.91304 0.50586 0.71422 0.0
H222 H 0.94377 0.55141 0.74952 0.0
H223 H 0.95208 0.52998 0.7622 0.0
H224 H 0.95026 0.50954 0.79564 0.0
H225 H 0.95926 0.51414 0.82212 0.0
H226 H 0.97951 0.47346 0.81673 0.0
H227 H 0.9698 0.46828 0.79049 0.0
H228 H 0.93644 0.4297 0.76714 0.0
H229 H 0.92447 0.39675 0.75573 0.0
H230 H 0.91732 0.41529 0.71335 0.0
H231 H 0.9293 0.44839 0.72472 0.0
N232 N 0.93685 0.47426 0.74674 0.0
N233 N 0.94873 0.49657 0.76785 0.0
N234 N 0.94732 0.46632 0.76827 0.0
C235 C 0.94132 0.4919 0.75353 0.0
C236 C 0.95186 0.48385 0.77524 0.0
C237 C 0.9398 0.4614 0.75403 0.0
C238 C 0.93722 0.5054 0.74557 0.0
C239 C 0.92636 0.49902 0.73187 0.0
C240 C 0.92158 0.51127 0.72468 0.0
C241 C 0.92768 0.53025 0.73093 0.0
C242 C 0.93897 0.53688 0.74441 0.0
C243 C 0.94362 0.52454 0.7517 0.0
C244 C 0.95912 0.48837 0.791 0.0
C245 C 0.95679 0.50172 0.80012 0.0
C246 C 0.96201 0.5044 0.81531 0.0
C247 C 0.96988 0.49397 0.82165 0.0
C248 C 0.97299 0.48132 0.81235 0.0
C249 C 0.96754 0.47845 0.79725 0.0
C250 C 0.93375 0.44171 0.74687 0.0
C251 C 0.93247 0.42686 0.75537 0.0
C252 C 0.6053 0.52808 0.76134 0.0
C253 C 0.60781 0.52609 0.74634 0.0
C254 C 0.59229 0.51276 0.73662 0.0
C255 C 0.57467 0.50142 0.74181 0.0
H256 H 0.52849 0.4465 0.73333 0.0
H257 H 0.50653 0.41531 0.71964 0.0
H258 H 0.46445 0.40647 0.74953 0.0
H259 H 0.48635 0.43771 0.7633 0.0
H260 H 0.49885 0.46696 0.79273 0.0
H261 H 0.49274 0.47121 0.81806 0.0
H262 H 0.55241 0.50961 0.82971 0.0
H263 H 0.55846 0.50591 0.80421 0.0
H264 H 0.58616 0.51862 0.77816 0.0
H265 H 0.61701 0.53837 0.76905 0.0
H266 H 0.59385 0.51077 0.72503 0.0
H267 H 0.56308 0.49114 0.734 0.0
N268 N 0.54015 0.4747 0.75369 0.0
N269 N 0.51966 0.46665 0.77237 0.0
N270 N 0.5499 0.4943 0.77613 0.0
C271 C 0.52319 0.46265 0.75862 0.0
C272 C 0.53292 0.48244 0.78119 0.0
C273 C 0.55354 0.4906 0.76232 0.0
C274 C 0.50925 0.44458 0.74951 0.0
C275 C 0.51451 0.43806 0.73693 0.0
C276 C 0.50197 0.42014 0.72911 0.0
C277 C 0.48385 0.40844 0.73359 0.0
C278 C 0.47831 0.41526 0.74579 0.0
C279 C 0.49091 0.43311 0.75372 0.0
C280 C 0.52917 0.486 0.79643 0.0
C281 C 0.51068 0.47641 0.80066 0.0
C282 C 0.50718 0.47876 0.81524 0.0
C283 C 0.52209 0.49059 0.826 0.0
C284 C 0.54055 0.50056 0.82169 0.0
C285 C 0.54403 0.49836 0.80706 0.0
C286 C 0.57213 0.50324 0.75683 0.0
C287 C 0.5876 0.51685 0.76652 0.0
C288 C 0.48932 0.08066 0.76606 0.0
C289 C 0.49237 0.08842 0.75228 0.0
C290 C 0.50727 0.08941 0.74471 0.0
C291 C 0.51902 0.08311 0.75089 0.0
H292 H 0.57836 0.10232 0.75838 0.0
H293 H 0.60924 0.11342 0.74926 0.0
H294 H 0.61013 0.06364 0.76532 0.0
H295 H 0.57938 0.05266 0.77481 0.0
H296 H 0.55957 0.05192 0.81125 0.0
H297 H 0.55166 0.03811 0.83482 0.0
H298 H 0.4927 0.01686 0.82235 0.0
H299 H 0.50074 0.03142 0.79906 0.0
H300 H 0.49829 0.0685 0.78287 0.0
H301 H 0.47819 0.07995 0.77232 0.0
H302 H 0.50982 0.09496 0.73396 0.0
H303 H 0.53041 0.08418 0.74479 0.0
N304 N 0.54581 0.07503 0.76633 0.0
N305 N 0.55279 0.05923 0.78461 0.0
N306 N 0.52393 0.05864 0.7833 0.0
C307 C 0.55783 0.06996 0.77279 0.0
C308 C 0.53582 0.0535 0.78991 0.0
C309 C 0.52879 0.06936 0.77149 0.0
C310 C 0.57646 0.07661 0.76728 0.0
C311 C 0.58514 0.09375 0.76 0.0
C312 C 0.60283 0.10018 0.75486 0.0
C313 C 0.61196 0.08937 0.75665 0.0
C314 C 0.60329 0.07218 0.76384 0.0
C315 C 0.58577 0.06596 0.76927 0.0
C316 C 0.53081 0.04299 0.80337 0.0
C317 C 0.5449 0.0441 0.81347 0.0
C318 C 0.54033 0.03608 0.82698 0.0
C319 C 0.52155 0.02654 0.8306 0.0
C320 C 0.50737 0.02453 0.82011 0.0
C321 C 0.51196 0.03279 0.80671 0.0
C322 C 0.51602 0.07548 0.76471 0.0
C323 C 0.50093 0.07417 0.77216 0.0
C324 C 0.73328 0.60275 0.91001 0.0
C325 C 0.7277 0.58959 0.92099 0.0
C326 C 0.74 0.58328 0.92617 0.0
C327 C 0.75734 0.58977 0.92045 0.0
H328 H 0.80085 0.58 0.9218 0.0
H329 H 0.82045 0.56715 0.93074 0.0
H330 H 0.86441 0.60505 0.90439 0.0
H331 H 0.84447 0.61748 0.895 0.0
H332 H 0.82666 0.62641 0.86491 0.0
H333 H 0.83078 0.63952 0.84095 0.0
H334 H 0.78891 0.65603 0.8481 0.0
H335 H 0.78457 0.64278 0.87217 0.0
H336 H 0.75442 0.61919 0.89568 0.0
H337 H 0.72424 0.6081 0.90591 0.0
H338 H 0.73604 0.57291 0.93444 0.0
H339 H 0.76626 0.58432 0.92461 0.0
N340 N 0.79264 0.60265 0.90817 0.0
N341 N 0.8129 0.61741 0.88987 0.0
N342 N 0.78518 0.61897 0.8907 0.0
C343 C 0.80873 0.60706 0.90188 0.0
C344 C 0.80122 0.62345 0.88422 0.0
C345 C 0.78081 0.60857 0.90271 0.0
C346 C 0.82106 0.5998 0.90767 0.0
C347 C 0.81471 0.58568 0.91792 0.0
C348 C 0.82602 0.57836 0.92313 0.0
C349 C 0.84406 0.5851 0.91834 0.0
C350 C 0.85049 0.59932 0.90815 0.0
C351 C 0.83909 0.60654 0.90284 0.0
C352 C 0.80514 0.63335 0.87042 0.0
C353 C 0.81846 0.63303 0.86152 0.0
C354 C 0.82079 0.64046 0.84776 0.0
C355 C 0.81005 0.64861 0.84268 0.0
C356 C 0.79739 0.64985 0.85182 0.0
C357 C 0.79486 0.64217 0.86554 0.0
C358 C 0.76282 0.60266 0.90929 0.0
C359 C 0.75064 0.60919 0.90421 0.0
C360 C 0.39911 0.13002 0.91914 0.0
C361 C 0.40665 0.1337 0.93391 0.0
C362 C 0.40755 0.14931 0.94266 0.0
C363 C 0.40151 0.16132 0.93663 0.0
H364 H 0.41693 0.22011 0.93955 0.0
H365 H 0.42909 0.25303 0.95126 0.0
H366 H 0.39133 0.26096 0.92148 0.0
H367 H 0.37913 0.22807 0.90968 0.0
H368 H 0.37514 0.20456 0.87591 0.0
H369 H 0.36279 0.19722 0.85004 0.0
H370 H 0.34305 0.13608 0.8535 0.0
H371 H 0.35557 0.14333 0.87943 0.0
H372 H 0.3874 0.13878 0.90166 0.0
H373 H 0.39808 0.11795 0.91219 0.0
H374 H 0.41341 0.15257 0.95405 0.0
H375 H 0.40272 0.17344 0.94362 0.0
N376 N 0.39434 0.189 0.92231 0.0
N377 N 0.38103 0.19691 0.90234 0.0
N378 N 0.37959 0.16659 0.90147 0.0
C379 C 0.39038 0.20185 0.91602 0.0
C380 C 0.37553 0.17929 0.89501 0.0
C381 C 0.38895 0.17132 0.91513 0.0
C382 C 0.39708 0.22145 0.92363 0.0
C383 C 0.4111 0.22879 0.93554 0.0
C384 C 0.41816 0.24768 0.9422 0.0
C385 C 0.41118 0.25953 0.93724 0.0
C386 C 0.39687 0.25207 0.92558 0.0
C387 C 0.38997 0.23327 0.91879 0.0
C388 C 0.36647 0.17455 0.87973 0.0
C389 C 0.36799 0.1895 0.87125 0.0
C390 C 0.361 0.18534 0.85642 0.0
C391 C 0.35208 0.16612 0.8498 0.0
C392 C 0.34981 0.15102 0.85839 0.0
C393 C 0.35708 0.15521 0.87319 0.0
C394 C 0.39427 0.15787 0.92176 0.0
C395 C 0.39289 0.1419 0.91315 0.0
C396 C 0.85383 0.25692 0.91861 0.0
C397 C 0.85155 0.26168 0.93312 0.0
C398 C 0.83716 0.24738 0.94056 0.0
C399 C 0.82475 0.2289 0.93337 0.0
H400 H 0.77247 0.1799 0.93592 0.0
H401 H 0.74171 0.16069 0.94515 0.0
H402 H 0.71973 0.12745 0.90269 0.0
H403 H 0.75039 0.1467 0.89335 0.0
H404 H 0.77597 0.16073 0.8661 0.0
H405 H 0.78136 0.15562 0.84064 0.0
H406 H 0.84147 0.1913 0.85184 0.0
H407 H 0.83601 0.19708 0.87708 0.0
H408 H 0.84358 0.23547 0.90018 0.0
H409 H 0.86497 0.26762 0.91269 0.0
H410 H 0.83508 0.25071 0.95175 0.0
H411 H 0.81346 0.21835 0.93925 0.0
N412 N 0.79593 0.19372 0.91601 0.0
N413 N 0.78563 0.17255 0.89431 0.0
N414 N 0.81564 0.20051 0.89684 0.0
C415 C 0.78239 0.1772 0.90801 0.0
C416 C 0.80229 0.18406 0.88871 0.0
C417 C 0.81259 0.20547 0.91048 0.0
C418 C 0.76394 0.16492 0.91386 0.0
C419 C 0.76112 0.16847 0.92854 0.0
C420 C 0.74352 0.15739 0.93387 0.0
C421 C 0.7283 0.14261 0.92463 0.0
C422 C 0.73114 0.1389 0.91002 0.0
C423 C 0.74877 0.14987 0.90471 0.0
C424 C 0.80555 0.17947 0.87358 0.0
C425 C 0.79034 0.16736 0.86314 0.0
C426 C 0.79345 0.16436 0.84853 0.0
C427 C 0.81186 0.17319 0.84409 0.0
C428 C 0.82708 0.18467 0.85473 0.0
C429 C 0.82396 0.18789 0.86925 0.0
C430 C 0.82666 0.22432 0.91866 0.0
C431 C 0.8416 0.23844 0.91148 0.0
C432 C 0.59421 0.74099 0.0852 0.0
C433 C 0.58758 0.73644 0.0702 0.0
C434 C 0.58748 0.75097 0.06207 0.0
C435 C 0.59329 0.76951 0.06896 0.0
H436 H 0.58068 0.81418 0.06697 0.0
H437 H 0.57037 0.83492 0.05594 0.0
H438 H 0.60472 0.88135 0.08998 0.0
H439 H 0.61449 0.86033 0.10133 0.0
H440 H 0.61273 0.83885 0.13437 0.0
H441 H 0.62182 0.84305 0.16076 0.0
H442 H 0.6447 0.80479 0.15435 0.0
H443 H 0.63486 0.79995 0.12812 0.0
H444 H 0.60492 0.76237 0.1037 0.0
H445 H 0.59465 0.73013 0.09167 0.0
H446 H 0.58237 0.74781 0.05049 0.0
H447 H 0.59265 0.78026 0.06248 0.0
N448 N 0.60019 0.80544 0.08501 0.0
N449 N 0.6113 0.82692 0.10657 0.0
N450 N 0.61212 0.79778 0.10595 0.0
C451 C 0.60368 0.82246 0.09232 0.0
C452 C 0.61563 0.81467 0.11343 0.0
C453 C 0.60441 0.79304 0.09175 0.0
C454 C 0.59833 0.83553 0.0851 0.0
C455 C 0.58613 0.82885 0.07207 0.0
C456 C 0.58028 0.84081 0.06569 0.0
C457 C 0.58664 0.85982 0.07208 0.0
C458 C 0.59922 0.86666 0.08491 0.0
C459 C 0.60492 0.85463 0.09138 0.0
C460 C 0.6229 0.81891 0.12917 0.0
C461 C 0.61985 0.83148 0.13859 0.0
C462 C 0.62514 0.83394 0.15374 0.0
C463 C 0.63382 0.82409 0.15977 0.0
C464 C 0.63759 0.8122 0.15019 0.0
C465 C 0.63207 0.80953 0.13511 0.0
C466 C 0.5995 0.77392 0.08409 0.0
C467 C 0.60019 0.75953 0.09205 0.0
C468 C 0.26777 0.86098 0.09699 0.0
C469 C 0.27412 0.85348 0.08573 0.0
C470 C 0.2622 0.83419 0.07953 0.0
C471 C 0.24433 0.82281 0.08427 0.0
H472 H 0.19567 0.77159 0.07353 0.0
H473 H 0.17391 0.74025 0.05993 0.0
H474 H 0.12939 0.73485 0.08593 0.0
H475 H 0.15109 0.76627 0.09959 0.0
H476 H 0.16201 0.79728 0.12802 0.0
H477 H 0.15453 0.80272 0.15267 0.0
H478 H 0.21382 0.84112 0.1659 0.0
H479 H 0.22122 0.83628 0.1411 0.0
H480 H 0.24542 0.85575 0.11048 0.0
H481 H 0.27646 0.87584 0.10189 0.0
H482 H 0.26674 0.82775 0.07108 0.0
H483 H 0.2356 0.80802 0.07922 0.0
N484 N 0.20613 0.80148 0.09214 0.0
N485 N 0.18418 0.79512 0.1095 0.0
N486 N 0.21426 0.82301 0.1134 0.0
C487 C 0.1887 0.78996 0.09656 0.0
C488 C 0.19689 0.81159 0.118 0.0
C489 C 0.21894 0.81808 0.10043 0.0
C490 C 0.17517 0.77144 0.08773 0.0
C491 C 0.18122 0.76384 0.07631 0.0
C492 C 0.1688 0.74583 0.06856 0.0
C493 C 0.15 0.73509 0.07193 0.0
C494 C 0.14378 0.74289 0.08305 0.0
C495 C 0.15626 0.76083 0.09092 0.0
C496 C 0.19223 0.81622 0.1326 0.0
C497 C 0.17344 0.80703 0.13615 0.0
C498 C 0.16916 0.81007 0.15033 0.0
C499 C 0.18357 0.82218 0.16137 0.0
C500 C 0.20232 0.83187 0.15767 0.0
C501 C 0.20658 0.82901 0.14343 0.0
C502 C 0.23796 0.8303 0.09548 0.0
C503 C 0.24992 0.84949 0.10186 0.0
C504 C 0.14765 0.40258 0.09301 0.0
C505 C 0.15329 0.41606 0.08227 0.0
C506 C 0.17123 0.42302 0.07721 0.0
C507 C 0.18331 0.41685 0.08286 0.0
H508 H 0.23577 0.42498 0.08002 0.0
H509 H 0.26623 0.43666 0.07043 0.0
H510 H 0.27703 0.39992 0.09798 0.0
H511 H 0.24675 0.38868 0.10798 0.0
H512 H 0.22539 0.38369 0.13964 0.0
H513 H 0.21986 0.37211 0.16408 0.0
H514 H 0.16046 0.35175 0.15521 0.0
H515 H 0.16611 0.36403 0.13098 0.0
H516 H 0.15504 0.38623 0.1071 0.0
H517 H 0.13382 0.39669 0.09698 0.0
H518 H 0.17617 0.43364 0.06912 0.0
H519 H 0.19712 0.42279 0.07884 0.0
N520 N 0.20778 0.40357 0.09464 0.0
N521 N 0.21651 0.38974 0.1134 0.0
N522 N 0.18731 0.38839 0.11276 0.0
C523 C 0.22049 0.39935 0.101 0.0
C524 C 0.19993 0.38417 0.11933 0.0
C525 C 0.19114 0.39809 0.10041 0.0
C526 C 0.23879 0.4059 0.0948 0.0
C527 C 0.24458 0.41931 0.08402 0.0
C528 C 0.26205 0.42595 0.07844 0.0
C529 C 0.2741 0.41922 0.08341 0.0
C530 C 0.26823 0.40565 0.09408 0.0
C531 C 0.25081 0.39912 0.09975 0.0
C532 C 0.19623 0.37501 0.13343 0.0
C533 C 0.21111 0.37655 0.14283 0.0
C534 C 0.20792 0.36981 0.15685 0.0
C535 C 0.18974 0.36118 0.16171 0.0
C536 C 0.17472 0.35876 0.15198 0.0
C537 C 0.17794 0.3657 0.13804 0.0
C538 C 0.17783 0.40368 0.09381 0.0
C539 C 0.1598 0.3965 0.09875 0.0
C540 C 0.39275 0.91551 0.23824 0.0
C541 C 0.39011 0.91083 0.25293 0.0
C542 C 0.40558 0.91337 0.26214 0.0
C543 C 0.42319 0.92018 0.25675 0.0
H544 H 0.47317 0.92077 0.26541 0.0
H545 H 0.49568 0.91329 0.27748 0.0
H546 H 0.53182 0.93631 0.24227 0.0
H547 H 0.50931 0.9436 0.23006 0.0
H548 H 0.49889 0.96629 0.20651 0.0
H549 H 0.50505 0.97827 0.18226 0.0
H550 H 0.4453 0.9538 0.17115 0.0
H551 H 0.43917 0.9424 0.19567 0.0
H552 H 0.41187 0.92575 0.22147 0.0
H553 H 0.3811 0.91348 0.23078 0.0
H554 H 0.40415 0.91027 0.27359 0.0
H555 H 0.43477 0.92192 0.26417 0.0
N556 N 0.45799 0.92988 0.24401 0.0
N557 N 0.47825 0.94348 0.22547 0.0
N558 N 0.44789 0.93927 0.22301 0.0
C559 C 0.47495 0.93573 0.23867 0.0
C560 C 0.46484 0.94535 0.21759 0.0
C561 C 0.4444 0.93163 0.23627 0.0
C562 C 0.4893 0.93265 0.24668 0.0
C563 C 0.48596 0.92438 0.26027 0.0
C564 C 0.49892 0.92018 0.26725 0.0
C565 C 0.51545 0.92408 0.26077 0.0
C566 C 0.51906 0.93286 0.24741 0.0
C567 C 0.50617 0.93713 0.24046 0.0
C568 C 0.46853 0.95329 0.20302 0.0
C569 C 0.48705 0.9635 0.19893 0.0
C570 C 0.49058 0.97029 0.18497 0.0
C571 C 0.47566 0.96684 0.17466 0.0
C572 C 0.45715 0.95691 0.17885 0.0
C573 C 0.45363 0.95029 0.1929 0.0
C574 C 0.42581 0.92477 0.24205 0.0
C575 C 0.41041 0.92248 0.23288 0.0
C576 C 0.06966 0.4661 0.25374 0.0
C577 C 0.08333 0.47388 0.26587 0.0
C578 C 0.09015 0.4932 0.27166 0.0
C579 C 0.08346 0.50456 0.26545 0.0
H580 H 0.0871 0.55777 0.27114 0.0
H581 H 0.09666 0.59001 0.2827 0.0
H582 H 0.05459 0.59259 0.25391 0.0
H583 H 0.04554 0.56062 0.24193 0.0
H584 H 0.02782 0.52967 0.21272 0.0
H585 H 0.01655 0.52455 0.18676 0.0
H586 H 0.03918 0.48634 0.17886 0.0
H587 H 0.0498 0.49088 0.20494 0.0
H588 H 0.05269 0.47119 0.23797 0.0
H589 H 0.06426 0.45127 0.24901 0.0
H590 H 0.10057 0.49948 0.28109 0.0
H591 H 0.08907 0.51942 0.27019 0.0
N592 N 0.06671 0.52614 0.25382 0.0
N593 N 0.05176 0.53233 0.23397 0.0
N594 N 0.0542 0.50406 0.23263 0.0
C595 C 0.06093 0.53773 0.24771 0.0
C596 C 0.04839 0.51556 0.22634 0.0
C597 C 0.06326 0.50921 0.24643 0.0
C598 C 0.06564 0.55665 0.25553 0.0
C599 C 0.07978 0.56513 0.26734 0.0
C600 C 0.0852 0.58363 0.27404 0.0
C601 C 0.07647 0.59401 0.26922 0.0
C602 C 0.0619 0.58523 0.25771 0.0
C603 C 0.05663 0.56682 0.25089 0.0
C604 C 0.03986 0.51082 0.21089 0.0
C605 C 0.03022 0.52001 0.20547 0.0
C606 C 0.02386 0.51716 0.19055 0.0
C607 C 0.02719 0.50526 0.18063 0.0
C608 C 0.0362 0.49547 0.18617 0.0
C609 C 0.04237 0.49814 0.20115 0.0
C610 C 0.06997 0.49692 0.25317 0.0
C611 C 0.06313 0.47755 0.24738 0.0
C612 C 0.5247 0.59422 0.25357 0.0
C613 C 0.52231 0.59876 0.26812 0.0
C614 C 0.50733 0.5846 0.27518 0.0
C615 C 0.49456 0.56649 0.26764 0.0
H616 H 0.43733 0.5258 0.26465 0.0
H617 H 0.4062 0.50674 0.27332 0.0
H618 H 0.393 0.45966 0.24029 0.0
H619 H 0.42416 0.47868 0.23151 0.0
H620 H 0.44629 0.49746 0.20045 0.0
H621 H 0.45186 0.49196 0.17513 0.0
H622 H 0.51178 0.5296 0.18607 0.0
H623 H 0.50615 0.53569 0.21119 0.0
H624 H 0.51419 0.57324 0.23479 0.0
H625 H 0.53627 0.60481 0.24793 0.0
H626 H 0.50512 0.58776 0.28637 0.0
H627 H 0.48289 0.55606 0.27328 0.0
N628 N 0.46547 0.53216 0.24978 0.0
N629 N 0.45543 0.51072 0.22826 0.0
N630 N 0.48567 0.53837 0.23103 0.0
C631 C 0.45194 0.51569 0.24175 0.0
C632 C 0.4723 0.52197 0.22285 0.0
C633 C 0.48239 0.54356 0.24452 0.0
C634 C 0.43326 0.5038 0.24735 0.0
C635 C 0.42787 0.51136 0.25925 0.0
C636 C 0.40999 0.50051 0.26417 0.0
C637 C 0.39719 0.48178 0.25743 0.0
C638 C 0.40265 0.47404 0.24572 0.0
C639 C 0.42046 0.48498 0.24067 0.0
C640 C 0.47576 0.51716 0.20783 0.0
C641 C 0.46067 0.50444 0.19748 0.0
C642 C 0.46388 0.50122 0.18296 0.0
C643 C 0.48227 0.51047 0.17848 0.0
C644 C 0.49739 0.5226 0.189 0.0
C645 C 0.49417 0.526 0.20346 0.0
C646 C 0.49665 0.56212 0.25293 0.0
C647 C 0.51208 0.57608 0.24609 0.0
Tb648 Tb 0.51903 0.01368 0.99831 0.0
C649 C 0.51319 0.97605 0.01236 0.0
Tb650 Tb 0.47992 0.9858 0.00848 0.0
O651 O 0.5314 0.02111 0.0212 0.0
O652 O 0.50333 0.01325 0.01607 0.0
O653 O 0.52356 0.98996 0.00386 0.0
C654 C 0.45032 0.96401 0.02328 0.0
O655 O 0.4966 0.97288 0.01631 0.0
C656 C 0.48334 0.98246 0.98026 0.0
C657 C 0.48562 0.02295 0.99417 0.0
O658 O 0.45261 0.95963 0.00993 0.0
O659 O 0.46475 0.98065 0.02836 0.0
O660 O 0.46764 0.97875 0.98557 0.0
O661 O 0.49561 0.98626 0.99071 0.0
O662 O 0.4762 0.01028 0.00379 0.0
O663 O 0.50142 0.02496 0.98927 0.0
C664 C 0.54864 0.03537 0.98352 0.0
O665 O 0.54361 0.04172 0.99483 0.0
O666 O 0.53694 0.01684 0.98049 0.0
C667 C 0.51565 0.01718 0.0265 0.0
Tb668 Tb 0.98284 0.50558 0.99638 0.0
C669 C 0.02289 0.53862 0.00921 0.0
Tb670 Tb 0.01155 0.49366 0.00628 0.0
O671 O 0.9821 0.51494 0.01921 0.0
O672 O 0.9873 0.49208 0.01437 0.0
O673 O 0.00748 0.53445 0.00073 0.0
C674 C 0.03621 0.48647 0.02073 0.0
O675 O 0.02649 0.52496 0.01357 0.0
C676 C 0.00753 0.49627 0.978 0.0
C677 C 0.97153 0.46069 0.99368 0.0
O678 O 0.02179 0.48614 0.02619 0.0
O679 O 0.03677 0.49095 0.00722 0.0
O680 O 0.0119 0.48408 0.98342 0.0
O681 O 0.0071 0.50718 0.98831 0.0
O682 O 0.98659 0.4649 0.00263 0.0
O683 O 0.96832 0.47438 0.98878 0.0
C684 C 0.95849 0.51268 0.98138 0.0
O685 O 0.95692 0.50702 0.99459 0.0
O686 O 0.97372 0.51426 0.97657 0.0
C687 C 0.98667 0.5029 0.02465 0.0
Tb688 Tb 0.48051 0.49327 0.00642 0.0
C689 C 0.48709 0.4598 0.99417 0.0
Tb690 Tb 0.51988 0.5046 0.99743 0.0
O691 O 0.46905 0.48443 0.98334 0.0
O692 O 0.4968 0.5069 0.9889 0.0
O693 O 0.4765 0.46423 0.00222 0.0
C694 C 0.54985 0.51176 0.9831 0.0
O695 O 0.50373 0.47324 0.99023 0.0
C696 C 0.51553 0.50157 0.02555 0.0
C697 C 0.51326 0.5379 0.00983 0.0
O698 O 0.548 0.50817 0.99683 0.0
O699 O 0.53477 0.51117 0.97741 0.0
O700 O 0.53139 0.51352 0.0205 0.0
O701 O 0.50364 0.49106 0.01499 0.0
O702 O 0.52341 0.53357 0.00116 0.0
O703 O 0.49708 0.52433 0.01431 0.0
C704 C 0.45062 0.48661 0.02064 0.0
O705 O 0.45339 0.49201 0.00737 0.0
O706 O 0.4647 0.48503 0.02593 0.0
C707 C 0.48491 0.49644 0.97832 0.0
Tb708 Tb 0.18882 0.34839 0.3316 0.0
C709 C 0.18204 0.30933 0.34351 0.0
Tb710 Tb 0.149 0.31941 0.33976 0.0
O711 O 0.19963 0.35375 0.35478 0.0
O712 O 0.17182 0.34648 0.34881 0.0
O713 O 0.19276 0.32388 0.33562 0.0
C714 C 0.11846 0.29654 0.35326 0.0
O715 O 0.16527 0.30588 0.34725 0.0
C716 C 0.15434 0.31842 0.31182 0.0
C717 C 0.15576 0.35841 0.32772 0.0
O718 O 0.13287 0.31269 0.35915 0.0
O719 O 0.12132 0.2932 0.33982 0.0
O720 O 0.13822 0.31418 0.31657 0.0
O721 O 0.16596 0.32137 0.32257 0.0
O722 O 0.14501 0.34388 0.33562 0.0
O723 O 0.17255 0.36187 0.32406 0.0
C724 C 0.21921 0.3714 0.318 0.0
O725 O 0.21648 0.37463 0.3315 0.0
O726 O 0.20479 0.35526 0.31212 0.0
C727 C 0.18352 0.34951 0.35953 0.0
Tb728 Tb 0.65223 0.83963 0.33644 0.0
C729 C 0.6942 0.87306 0.34679 0.0
Tb730 Tb 0.68226 0.82827 0.34417 0.0
O731 O 0.63712 0.8251 0.35542 0.0
O732 O 0.66613 0.83743 0.35574 0.0
O733 O 0.67731 0.86853 0.34064 0.0
C734 C 0.70698 0.82043 0.35748 0.0
O735 O 0.6989 0.85974 0.34989 0.0
C736 C 0.67421 0.82818 0.31595 0.0
C737 C 0.64109 0.79568 0.33317 0.0
O738 O 0.70968 0.82999 0.34583 0.0
O739 O 0.69041 0.8154 0.36166 0.0
O740 O 0.68007 0.81706 0.32123 0.0
O741 O 0.67478 0.83971 0.32623 0.0
O742 O 0.65608 0.80017 0.3423 0.0
O743 O 0.63812 0.80918 0.32768 0.0
C744 C 0.63147 0.85358 0.32477 0.0
O745 O 0.63659 0.84267 0.31757 0.0
O746 O 0.63799 0.85656 0.33852 0.0
C747 C 0.65219 0.82741 0.36271 0.0
Tb748 Tb 0.1462 0.82648 0.34244 0.0
C749 C 0.15141 0.79314 0.32805 0.0
Tb750 Tb 0.18498 0.83745 0.33193 0.0
O751 O 0.13348 0.81819 0.31963 0.0
O752 O 0.16162 0.84 0.32451 0.0
O753 O 0.14176 0.79744 0.33728 0.0
C754 C 0.2141 0.84437 0.31657 0.0
O755 O 0.16754 0.80665 0.32342 0.0
C756 C 0.1819 0.83398 0.36017 0.0
C757 C 0.17957 0.87088 0.34606 0.0
O758 O 0.21016 0.83542 0.32853 0.0
O759 O 0.20163 0.84933 0.31325 0.0
O760 O 0.19759 0.84577 0.3548 0.0
O761 O 0.16953 0.82388 0.34979 0.0
O762 O 0.18943 0.86654 0.33708 0.0
O763 O 0.16335 0.85741 0.35058 0.0
C764 C 0.11712 0.81943 0.35788 0.0
O765 O 0.11956 0.82583 0.3449 0.0
O766 O 0.13111 0.81711 0.36221 0.0
C767 C 0.14913 0.82988 0.31419 0.0
Tb768 Tb 0.85679 0.68668 0.66764 0.0
C769 C 0.85335 0.64624 0.67552 0.0
Tb770 Tb 0.81835 0.6518 0.673 0.0
O771 O 0.85725 0.70209 0.68851 0.0
O772 O 0.84357 0.6716 0.68573 0.0
O773 O 0.86295 0.66278 0.66918 0.0
C774 C 0.78653 0.63043 0.68551 0.0
O775 O 0.83635 0.64039 0.67996 0.0
C776 C 0.82814 0.65247 0.6461 0.0
C777 C 0.82153 0.69219 0.6645 0.0
O778 O 0.79149 0.62465 0.67384 0.0
O779 O 0.79943 0.64814 0.69006 0.0
O780 O 0.81662 0.63645 0.65171 0.0
O781 O 0.83151 0.66677 0.6549 0.0
O782 O 0.81123 0.67465 0.66936 0.0
O783 O 0.83947 0.69939 0.66187 0.0
C784 C 0.88922 0.70948 0.65632 0.0
O785 O 0.88673 0.70897 0.67028 0.0
O786 O 0.87342 0.69729 0.64875 0.0
C787 C 0.84646 0.68594 0.6943 0.0
Tb788 Tb 0.31747 0.17367 0.66831 0.0
C789 C 0.35881 0.20831 0.679 0.0
Tb790 Tb 0.3485 0.16403 0.67699 0.0
O791 O 0.30209 0.15912 0.68718 0.0
O792 O 0.3312 0.17215 0.68796 0.0
O793 O 0.34187 0.20298 0.67251 0.0
C794 C 0.37302 0.1569 0.6915 0.0
O795 O 0.36416 0.1956 0.6825 0.0
C796 C 0.34115 0.1636 0.6486 0.0
C797 C 0.30803 0.13028 0.66533 0.0
O798 O 0.37667 0.16771 0.68051 0.0
O799 O 0.35565 0.15026 0.69434 0.0
O800 O 0.34775 0.15324 0.65417 0.0
O801 O 0.3408 0.17475 0.65872 0.0
O802 O 0.32294 0.13538 0.67474 0.0
O803 O 0.30457 0.14332 0.6596 0.0
C804 C 0.29636 0.18663 0.65572 0.0
O805 O 0.3004 0.17431 0.64933 0.0
O806 O 0.30407 0.1915 0.6692 0.0
C807 C 0.31716 0.16182 0.69474 0.0
Tb808 Tb 0.81269 0.15882 0.67194 0.0
C809 C 0.82116 0.12642 0.66068 0.0
Tb810 Tb 0.85248 0.1714 0.66353 0.0
O811 O 0.80156 0.15184 0.64868 0.0
O812 O 0.82931 0.17342 0.65484 0.0
O813 O 0.81111 0.13063 0.66955 0.0
C814 C 0.88275 0.17896 0.64949 0.0
O815 O 0.83698 0.1402 0.65591 0.0
C816 C 0.84742 0.16761 0.69152 0.0
C817 C 0.84426 0.20409 0.67507 0.0
O818 O 0.86751 0.17785 0.64359 0.0
O819 O 0.88093 0.17576 0.66329 0.0
O820 O 0.86332 0.17998 0.68674 0.0
O821 O 0.83591 0.15703 0.68079 0.0
O822 O 0.85539 0.20011 0.66732 0.0
O823 O 0.82762 0.19028 0.67873 0.0
C824 C 0.78236 0.15065 0.6861 0.0
O825 O 0.79966 0.16107 0.69181 0.0
O826 O 0.78219 0.14503 0.67246 0.0
C827 C 0.81768 0.16365 0.644 0.0
C828 C 0.29561 0.86404 0.06534 0.0
C829 C 0.29303 0.86561 0.08038 0.0
C830 C 0.31343 0.87473 0.06032 0.0
C831 C 0.35944 0.91856 0.06844 0.0
H832 H 0.3762 0.89115 0.0424 0.0
C833 C 0.43288 0.95759 0.0459 0.0
C834 C 0.43351 0.95236 0.03108 0.0
C835 C 0.41658 0.94678 0.05305 0.0
C836 C 0.37168 0.8991 0.04953 0.0
H837 H 0.30728 0.87998 0.10191 0.0
H838 H 0.33839 0.89909 0.09299 0.0
H839 H 0.34592 0.8731 0.05258 0.0
H840 H 0.41781 0.9319 0.01206 0.0
H841 H 0.38927 0.91339 0.0243 0.0
H842 H 0.38488 0.94468 0.06501 0.0
C843 C 0.32652 0.88945 0.08516 0.0
C844 C 0.35436 0.88872 0.05539 0.0
C845 C 0.30869 0.87856 0.09023 0.0
C846 C 0.41771 0.93615 0.02353 0.0
C847 C 0.4014 0.92546 0.0306 0.0
C848 C 0.37671 0.92901 0.06243 0.0
C849 C 0.32907 0.88743 0.07018 0.0
C850 C 0.34797 0.89838 0.06474 0.0
C851 C 0.40059 0.93064 0.04545 0.0
C852 C 0.38292 0.91943 0.05273 0.0
H853 H 0.28384 0.85461 0.05737 0.0
H854 H 0.31496 0.87318 0.04867 0.0
H855 H 0.35477 0.92637 0.07556 0.0
H856 H 0.44496 0.97003 0.05196 0.0
H857 H 0.41654 0.95103 0.06453 0.0
C858 C 0.12993 0.42723 0.08611 0.0
C859 C 0.14076 0.42323 0.07658 0.0
C860 C 0.11873 0.43469 0.08085 0.0
C861 C 0.11447 0.4623 0.05135 0.0
H862 H 0.06264 0.44028 0.06068 0.0
C863 C 0.06271 0.47979 0.02043 0.0
C864 C 0.04913 0.48122 0.02824 0.0
C865 C 0.07435 0.47376 0.02718 0.0
C866 C 0.07719 0.44683 0.05818 0.0
H867 H 0.14778 0.42336 0.05393 0.0
H868 H 0.12849 0.43668 0.04486 0.0
H869 H 0.08187 0.42738 0.07086 0.0
H870 H 0.03724 0.47797 0.04927 0.0
H871 H 0.05792 0.46785 0.06126 0.0
H872 H 0.10996 0.48184 0.03877 0.0
C873 C 0.12886 0.43423 0.05643 0.0
C874 C 0.08816 0.43938 0.06396 0.0
C875 C 0.13993 0.42664 0.06164 0.0
C876 C 0.0476 0.47691 0.04302 0.0
C877 C 0.05935 0.47099 0.04983 0.0
C878 C 0.10358 0.46986 0.04567 0.0
C879 C 0.11824 0.43844 0.06599 0.0
C880 C 0.10682 0.44687 0.06044 0.0
C881 C 0.07276 0.46919 0.04194 0.0
C882 C 0.08471 0.46204 0.04884 0.0
H883 H 0.13045 0.42506 0.09772 0.0
H884 H 0.11079 0.43795 0.08849 0.0
H885 H 0.12893 0.46858 0.04867 0.0
H886 H 0.0641 0.48293 0.00898 0.0
H887 H 0.08427 0.47223 0.02068 0.0
C888 C 0.58544 0.71298 0.04954 0.0
C889 C 0.58009 0.71634 0.06328 0.0
C890 C 0.5785 0.69391 0.04326 0.0
C891 C 0.55581 0.64266 0.0532 0.0
H892 H 0.54307 0.62979 0.01099 0.0
C893 C 0.51316 0.56339 0.02711 0.0
C894 C 0.52045 0.55858 0.015 0.0
C895 C 0.52059 0.58284 0.03254 0.0
C896 C 0.5467 0.63324 0.02278 0.0
H897 H 0.56279 0.7025 0.08098 0.0
H898 H 0.55033 0.66933 0.06993 0.0
H899 H 0.55577 0.66346 0.02136 0.0
H900 H 0.54095 0.57046 0.99886 0.0
H901 H 0.55376 0.60453 0.00828 0.0
H902 H 0.54633 0.61235 0.05463 0.0
C903 C 0.56035 0.6813 0.06417 0.0
C904 C 0.55405 0.65252 0.02873 0.0
C905 C 0.56743 0.70031 0.07049 0.0
C906 C 0.53506 0.57368 0.00823 0.0
C907 C 0.54234 0.59318 0.01357 0.0
C908 C 0.54829 0.62339 0.04728 0.0
C909 C 0.56591 0.67782 0.05053 0.0
C910 C 0.55859 0.65745 0.04404 0.0
C911 C 0.53532 0.59792 0.02588 0.0
C912 C 0.54358 0.61847 0.03203 0.0
H913 H 0.59528 0.7251 0.0438 0.0
H914 H 0.58327 0.69178 0.03283 0.0
H915 H 0.55956 0.64595 0.06499 0.0
H916 H 0.50196 0.55211 0.03261 0.0
H917 H 0.5148 0.58611 0.04197 0.0
C918 C 0.87233 0.28537 0.95448 0.0
C919 C 0.8636 0.28183 0.94011 0.0
C920 C 0.88392 0.30452 0.96084 0.0
C921 C 0.91057 0.35564 0.95065 0.0
H922 H 0.9113 0.36897 0.99232 0.0
C923 C 0.94555 0.43516 0.97598 0.0
C924 C 0.95813 0.44001 0.98861 0.0
C925 C 0.93375 0.41567 0.97059 0.0
C926 C 0.91129 0.36539 0.98069 0.0
H927 H 0.85949 0.2954 0.92134 0.0
H928 H 0.87916 0.32867 0.93249 0.0
H929 H 0.89117 0.3352 0.98187 0.0
H930 H 0.9678 0.42821 0.00574 0.0
H931 H 0.94691 0.39408 0.99639 0.0
H932 H 0.93035 0.38593 0.94943 0.0
C933 C 0.8777 0.31681 0.93873 0.0
C934 C 0.89984 0.34605 0.9747 0.0
C935 C 0.86635 0.29773 0.93233 0.0
C936 C 0.9583 0.42494 0.99596 0.0
C937 C 0.9463 0.40541 0.99067 0.0
C938 C 0.9218 0.37496 0.95659 0.0
C939 C 0.8868 0.32049 0.95301 0.0
C940 C 0.89928 0.34094 0.95957 0.0
C941 C 0.93411 0.40062 0.97781 0.0
C942 C 0.92222 0.38004 0.97165 0.0
H943 H 0.8705 0.27333 0.96067 0.0
H944 H 0.89087 0.30678 0.97178 0.0
H945 H 0.91089 0.35222 0.93904 0.0
H946 H 0.94512 0.44643 0.97004 0.0
H947 H 0.92436 0.41234 0.96072 0.0
C948 C 0.70695 0.57905 0.94183 0.0
C949 C 0.70897 0.58201 0.9268 0.0
C950 C 0.6892 0.57074 0.94715 0.0
C951 C 0.64134 0.56211 0.9395 0.0
H952 H 0.6281 0.52086 0.96553 0.0
C953 C 0.56751 0.52099 0.96067 0.0
C954 C 0.56702 0.51739 0.9756 0.0
C955 C 0.58423 0.52761 0.95386 0.0
C956 C 0.63163 0.53248 0.9584 0.0
H957 H 0.69387 0.57879 0.90562 0.0
H958 H 0.66288 0.5646 0.91503 0.0
H959 H 0.65867 0.53568 0.95551 0.0
H960 H 0.58335 0.51754 0.9951 0.0
H961 H 0.61261 0.52944 0.98336 0.0
H962 H 0.61451 0.55928 0.94265 0.0
C963 C 0.6751 0.56875 0.92266 0.0
C964 C 0.64913 0.54095 0.95265 0.0
C965 C 0.69286 0.57695 0.91729 0.0
C966 C 0.58336 0.52013 0.98355 0.0
C967 C 0.60009 0.52685 0.97678 0.0
C968 C 0.62387 0.55375 0.94535 0.0
C969 C 0.67308 0.56534 0.9376 0.0
C970 C 0.65423 0.55596 0.94325 0.0
C971 C 0.60078 0.53084 0.96189 0.0
C972 C 0.61888 0.53895 0.95497 0.0
H973 H 0.7191 0.58315 0.94951 0.0
H974 H 0.68809 0.5686 0.95879 0.0
H975 H 0.64498 0.57377 0.93238 0.0
H976 H 0.55503 0.51892 0.95431 0.0
H977 H 0.5842 0.53025 0.94232 0.0
C978 C 0.40991 0.1149 0.95406 0.0
C979 C 0.41414 0.12172 0.94005 0.0
C980 C 0.41736 0.10399 0.95995 0.0
C981 C 0.43992 0.07508 0.94934 0.0
H982 H 0.45602 0.08345 0.99115 0.0
C983 C 0.48402 0.04412 0.97537 0.0
C984 C 0.47793 0.03487 0.98836 0.0
C985 C 0.47621 0.05474 0.96955 0.0
C986 C 0.45145 0.08086 0.97948 0.0
H987 H 0.42968 0.12271 0.92131 0.0
H988 H 0.44299 0.10403 0.93166 0.0
H989 H 0.44232 0.10182 0.98079 0.0
H990 H 0.45906 0.02971 0.00553 0.0
H991 H 0.44558 0.04844 0.99542 0.0
H992 H 0.44942 0.05437 0.94804 0.0
C993 C 0.43354 0.10664 0.93798 0.0
C994 C 0.44353 0.09132 0.97353 0.0
C995 C 0.42595 0.11739 0.93205 0.0
C996 C 0.46404 0.03666 0.9955 0.0
C997 C 0.45639 0.04746 0.98976 0.0
C998 C 0.448 0.06476 0.95527 0.0
C999 C 0.42936 0.09981 0.95201 0.0
C1000 C 0.43765 0.08855 0.95838 0.0
C1001 C 0.4623 0.05649 0.97668 0.0
C1002 C 0.45383 0.06754 0.97039 0.0
H1003 H 0.40068 0.11786 0.96041 0.0
H1004 H 0.41356 0.09869 0.97067 0.0
H1005 H 0.43525 0.07229 0.93769 0.0
H1006 H 0.49461 0.04292 0.96955 0.0
H1007 H 0.48113 0.06169 0.95951 0.0
C1008 C 0.70755 0.12443 0.94417 0.0
C1009 C 0.70943 0.13137 0.93013 0.0
C1010 C 0.6898 0.11414 0.94944 0.0
C1011 C 0.63874 0.08658 0.93721 0.0
H1012 H 0.63379 0.09577 0.9785 0.0
C1013 C 0.57112 0.03797 0.96519 0.0
C1014 C 0.56585 0.04697 0.97612 0.0
C1015 C 0.58818 0.04864 0.95898 0.0
C1016 C 0.63485 0.09318 0.9669 0.0
H1017 H 0.69424 0.13319 0.91067 0.0
H1018 H 0.66328 0.11546 0.91992 0.0
H1019 H 0.66441 0.11374 0.96893 0.0
H1020 H 0.5738 0.07423 0.98879 0.0
H1021 H 0.6034 0.09304 0.97773 0.0
H1022 H 0.60907 0.06636 0.93512 0.0
C1023 C 0.67545 0.11759 0.92675 0.0
C1024 C 0.6525 0.10329 0.96145 0.0
C1025 C 0.6932 0.12777 0.92145 0.0
C1026 C 0.57761 0.06694 0.98043 0.0
C1027 C 0.59462 0.07765 0.97417 0.0
C1028 C 0.62107 0.07653 0.94264 0.0
C1029 C 0.67354 0.11069 0.94083 0.0
C1030 C 0.65469 0.10005 0.94656 0.0
C1031 C 0.60025 0.06857 0.96353 0.0
C1032 C 0.61892 0.07965 0.95758 0.0
H1033 H 0.71979 0.12676 0.95102 0.0
H1034 H 0.68881 0.10873 0.96022 0.0
H1035 H 0.63994 0.08359 0.9257 0.0
H1036 H 0.56228 0.02255 0.9617 0.0
H1037 H 0.59214 0.04112 0.95094 0.0
C1038 C 0.85603 0.57281 0.93868 0.0
C1039 C 0.85599 0.57716 0.92391 0.0
C1040 C 0.86667 0.56471 0.94383 0.0
C1041 C 0.90781 0.56022 0.93718 0.0
H1042 H 0.88466 0.51617 0.96079 0.0
C1043 C 0.94818 0.52298 0.95898 0.0
C1044 C 0.94568 0.5178 0.97353 0.0
C1045 C 0.93657 0.52881 0.95184 0.0
C1046 C 0.89141 0.52859 0.95434 0.0
H1047 H 0.86725 0.57642 0.90301 0.0
H1048 H 0.88623 0.56269 0.91218 0.0
H1049 H 0.866 0.52962 0.95057 0.0
H1050 H 0.9291 0.51442 0.99202 0.0
H1051 H 0.90914 0.52504 0.97977 0.0
H1052 H 0.93337 0.55964 0.94129 0.0
C1053 C 0.87795 0.56558 0.91971 0.0
C1054 C 0.88069 0.53624 0.94846 0.0
C1055 C 0.86715 0.57352 0.91449 0.0
C1056 C 0.93124 0.51826 0.98076 0.0
C1057 C 0.91974 0.52423 0.97369 0.0
C1058 C 0.9186 0.55269 0.94318 0.0
C1059 C 0.87767 0.56095 0.9344 0.0
C1060 C 0.88884 0.55226 0.93996 0.0
C1061 C 0.92232 0.5297 0.95917 0.0
C1062 C 0.91058 0.53691 0.95197 0.0
H1063 H 0.84794 0.5758 0.94633 0.0
H1064 H 0.86646 0.5616 0.95528 0.0
H1065 H 0.91447 0.57268 0.93075 0.0
H1066 H 0.9592 0.52265 0.95315 0.0
H1067 H 0.93877 0.53264 0.94059 0.0
C1068 C 0.43871 0.29234 0.94616 0.0
C1069 C 0.41912 0.2798 0.94396 0.0
C1070 C 0.44624 0.31167 0.95201 0.0
C1071 C 0.43332 0.35005 0.95806 0.0
H1072 H 0.47953 0.37554 0.98409 0.0
C1073 C 0.46074 0.42517 0.99005 0.0
C1074 C 0.47983 0.43902 0.98922 0.0
C1075 C 0.45357 0.40568 0.98484 0.0
C1076 C 0.46669 0.36862 0.97675 0.0
H1077 H 0.39202 0.27743 0.94652 0.0
H1078 H 0.40508 0.31098 0.95713 0.0
H1079 H 0.46629 0.34143 0.97474 0.0
H1080 H 0.50643 0.44317 0.98249 0.0
H1081 H 0.49388 0.40896 0.97355 0.0
H1082 H 0.43358 0.37719 0.96036 0.0
C1083 C 0.4147 0.30613 0.95395 0.0
C1084 C 0.45911 0.3491 0.97134 0.0
C1085 C 0.40719 0.28687 0.94794 0.0
C1086 C 0.49166 0.43287 0.98328 0.0
C1087 C 0.48452 0.41329 0.97822 0.0
C1088 C 0.44078 0.36947 0.9636 0.0
C1089 C 0.43433 0.31884 0.95595 0.0
C1090 C 0.44233 0.33956 0.96189 0.0
C1091 C 0.46536 0.39956 0.97883 0.0
C1092 C 0.45754 0.37895 0.97298 0.0
H1093 H 0.44823 0.28732 0.94302 0.0
H1094 H 0.4614 0.32108 0.95314 0.0
H1095 H 0.42062 0.34337 0.95057 0.0
H1096 H 0.45121 0.4294 0.99452 0.0
H1097 H 0.43879 0.39536 0.98555 0.0
C1098 C 0.14311 0.70183 0.06236 0.0
C1099 C 0.13712 0.71552 0.06421 0.0
C1100 C 0.13086 0.68315 0.05553 0.0
C1101 C 0.08004 0.64804 0.04591 0.0
H1102 H 0.09896 0.62137 0.02136 0.0
C1103 C 0.03123 0.57362 0.01276 0.0
C1104 C 0.03641 0.55931 0.01422 0.0
C1105 C 0.04362 0.59302 0.01811 0.0
C1106 C 0.09352 0.62862 0.02825 0.0
H1107 H 0.11379 0.7206 0.06006 0.0
H1108 H 0.09246 0.68811 0.04779 0.0
H1109 H 0.12032 0.65484 0.03179 0.0
H1110 H 0.05883 0.55426 0.02217 0.0
H1111 H 0.08055 0.58823 0.03136 0.0
H1112 H 0.05318 0.62182 0.04217 0.0
C1113 C 0.10648 0.6916 0.05194 0.0
C1114 C 0.10575 0.64777 0.03428 0.0
C1115 C 0.1187 0.71024 0.05892 0.0
C1116 C 0.05439 0.56491 0.02089 0.0
C1117 C 0.06687 0.58437 0.02608 0.0
C1118 C 0.06778 0.62897 0.03976 0.0
C1119 C 0.11237 0.67776 0.05024 0.0
C1120 C 0.0992 0.65767 0.0433 0.0
C1121 C 0.06153 0.59857 0.02487 0.0
C1122 C 0.07444 0.61903 0.03096 0.0
H1123 H 0.15715 0.70541 0.06653 0.0
H1124 H 0.13579 0.6728 0.05469 0.0
H1125 H 0.07454 0.65503 0.053 0.0
H1126 H 0.01746 0.56981 0.00772 0.0
H1127 H 0.03921 0.60371 0.01692 0.0
C1128 C 0.30868 0.43045 0.08691 0.0
C1129 C 0.29279 0.42654 0.07756 0.0
C1130 C 0.32631 0.43772 0.08145 0.0
C1131 C 0.35348 0.46483 0.05171 0.0
H1132 H 0.38416 0.44143 0.06039 0.0
C1133 C 0.41803 0.48109 0.02041 0.0
C1134 C 0.4336 0.4818 0.02812 0.0
C1135 C 0.40144 0.47543 0.02719 0.0
C1136 C 0.37594 0.44838 0.05806 0.0
H1137 H 0.28298 0.42676 0.05502 0.0
H1138 H 0.31382 0.43981 0.0456 0.0
H1139 H 0.35399 0.42928 0.07087 0.0
H1140 H 0.44442 0.47774 0.04901 0.0
H1141 H 0.41559 0.46832 0.06105 0.0
H1142 H 0.37539 0.48405 0.03902 0.0
C1143 C 0.31261 0.4374 0.05719 0.0
C1144 C 0.35863 0.44135 0.06403 0.0
C1145 C 0.29496 0.42997 0.0626 0.0
C1146 C 0.43253 0.47719 0.04282 0.0
C1147 C 0.41598 0.47168 0.04966 0.0
C1148 C 0.37085 0.47199 0.04586 0.0
C1149 C 0.32845 0.4414 0.06656 0.0
C1150 C 0.34715 0.44936 0.06077 0.0
C1151 C 0.40016 0.47053 0.04187 0.0
C1152 C 0.3822 0.46369 0.04881 0.0
H1153 H 0.30759 0.42827 0.09853 0.0
H1154 H 0.33835 0.44084 0.08894 0.0
H1155 H 0.34502 0.47147 0.04921 0.0
H1156 H 0.4185 0.48449 0.00902 0.0
H1157 H 0.38947 0.47441 0.02076 0.0
C1158 C 0.57586 0.88434 0.07482 0.0
C1159 C 0.57977 0.87225 0.06562 0.0
C1160 C 0.56891 0.8956 0.06882 0.0
C1161 C 0.56369 0.91544 0.03396 0.0
H1162 H 0.52635 0.9216 0.05416 0.0
C1163 C 0.5088 0.94649 0.02434 0.0
C1164 C 0.52054 0.96366 0.01781 0.0
C1165 C 0.5159 0.93505 0.02978 0.0
C1166 C 0.5366 0.91986 0.04826 0.0
H1167 H 0.57973 0.86288 0.04281 0.0
H1168 H 0.56693 0.88191 0.03237 0.0
H1169 H 0.5387 0.90199 0.06415 0.0
H1170 H 0.54901 0.98235 0.01196 0.0
H1171 H 0.56147 0.96272 0.02178 0.0
H1172 H 0.56107 0.93273 0.01778 0.0
C1173 C 0.56955 0.88296 0.04424 0.0
C1174 C 0.54392 0.90884 0.05413 0.0
C1175 C 0.57665 0.87181 0.05025 0.0
C1176 C 0.53952 0.96911 0.01681 0.0
C1177 C 0.54666 0.95778 0.02238 0.0
C1178 C 0.55624 0.92632 0.02802 0.0
C1179 C 0.56551 0.89494 0.05345 0.0
C1180 C 0.55763 0.90656 0.0471 0.0
C1181 C 0.53495 0.94062 0.02896 0.0
C1182 C 0.54265 0.92874 0.03512 0.0
H1183 H 0.57784 0.88488 0.08672 0.0
H1184 H 0.56626 0.90489 0.07626 0.0
H1185 H 0.57437 0.91419 0.02832 0.0
H1186 H 0.49408 0.94181 0.0252 0.0
H1187 H 0.50638 0.92176 0.03453 0.0
C1188 C 0.9729 0.21524 0.41565 0.0
C1189 C 0.95694 0.20357 0.40567 0.0
C1190 C 0.99085 0.22521 0.41066 0.0
C1191 C 0.01788 0.2236 0.38054 0.0
H1192 H 0.05169 0.27853 0.39262 0.0
C1193 C 0.08507 0.26968 0.35181 0.0
C1194 C 0.10095 0.28475 0.36023 0.0
C1195 C 0.06803 0.25931 0.35807 0.0
C1196 C 0.04258 0.2631 0.38934 0.0
H1197 H 0.94744 0.19378 0.38252 0.0
H1198 H 0.97881 0.21079 0.37392 0.0
H1199 H 0.02089 0.26154 0.40226 0.0
H1200 H 0.11179 0.30054 0.38184 0.0
H1201 H 0.08214 0.28203 0.39299 0.0
H1202 H 0.03952 0.22495 0.36779 0.0
C1203 C 0.97737 0.21206 0.38562 0.0
C1204 C 0.02491 0.25342 0.39481 0.0
C1205 C 0.95941 0.20228 0.39056 0.0
C1206 C 0.09968 0.289 0.37512 0.0
C1207 C 0.08266 0.2785 0.38144 0.0
C1208 C 0.03562 0.2332 0.37519 0.0
C1209 C 0.99326 0.22354 0.39562 0.0
C1210 C 0.0123 0.23365 0.39032 0.0
C1211 C 0.06655 0.26367 0.37295 0.0
C1212 C 0.04812 0.25315 0.37937 0.0
H1213 H 0.9716 0.21635 0.42737 0.0
H1214 H 0.00291 0.23386 0.41861 0.0
H1215 H 0.00853 0.20826 0.37708 0.0
H1216 H 0.08568 0.26621 0.34027 0.0
H1217 H 0.05589 0.24825 0.35111 0.0
C1218 C 0.79581 0.75262 0.41713 0.0
C1219 C 0.80849 0.75078 0.40834 0.0
C1220 C 0.78517 0.76068 0.41183 0.0
C1221 C 0.76888 0.77254 0.37712 0.0
H1222 H 0.75903 0.80546 0.40383 0.0
C1223 C 0.73549 0.81705 0.35686 0.0
C1224 C 0.71997 0.81469 0.36415 0.0
C1225 C 0.74696 0.81015 0.36257 0.0
C1226 C 0.76162 0.79622 0.39629 0.0
H1227 H 0.81966 0.75574 0.38692 0.0
H1228 H 0.80178 0.77053 0.37794 0.0
H1229 H 0.77771 0.79146 0.41304 0.0
H1230 H 0.70452 0.80397 0.38332 0.0
H1231 H 0.72479 0.79215 0.39346 0.0
H1232 H 0.75305 0.77767 0.36033 0.0
C1233 C 0.79975 0.7654 0.38885 0.0
C1234 C 0.77223 0.7881 0.40155 0.0
C1235 C 0.81023 0.75716 0.39409 0.0
C1236 C 0.71642 0.80592 0.37749 0.0
C1237 C 0.72803 0.79924 0.38331 0.0
C1238 C 0.75848 0.78085 0.37184 0.0
C1239 C 0.78708 0.76728 0.39765 0.0
C1240 C 0.77593 0.77608 0.39205 0.0
C1241 C 0.74322 0.80101 0.37577 0.0
C1242 C 0.7547 0.7927 0.38137 0.0
H1243 H 0.79426 0.74811 0.42823 0.0
H1244 H 0.77536 0.76162 0.41884 0.0
H1245 H 0.77111 0.76307 0.36954 0.0
H1246 H 0.73851 0.82378 0.34655 0.0
H1247 H 0.75869 0.81186 0.35663 0.0
C1248 C 0.23711 0.0347 0.40584 0.0
C1249 C 0.24928 0.05033 0.39805 0.0
C1250 C 0.22968 0.01547 0.39988 0.0
C1251 C 0.22116 0.98549 0.36463 0.0
H1252 H 0.21469 0.946 0.39084 0.0
C1253 C 0.20138 0.90657 0.34435 0.0
C1254 C 0.18711 0.89155 0.35143 0.0
C1255 C 0.20888 0.92608 0.34968 0.0
C1256 C 0.21629 0.95686 0.38342 0.0
H1257 H 0.26333 0.05817 0.37798 0.0
H1258 H 0.25074 0.0245 0.36765 0.0
H1259 H 0.22852 0.97988 0.40081 0.0
H1260 H 0.16953 0.88521 0.36964 0.0
H1261 H 0.18279 0.91932 0.37902 0.0
H1262 H 0.20922 0.96235 0.3472 0.0
C1263 C 0.24659 0.02708 0.37824 0.0
C1264 C 0.22416 0.97627 0.38912 0.0
C1265 C 0.25387 0.04637 0.38416 0.0
C1266 C 0.18045 0.89645 0.36391 0.0
C1267 C 0.18811 0.91595 0.36934 0.0
C1268 C 0.21346 0.96608 0.35891 0.0
C1269 C 0.2344 0.01139 0.38604 0.0
C1270 C 0.22656 0.99082 0.37983 0.0
C1271 C 0.20243 0.93094 0.3623 0.0
C1272 C 0.21083 0.95157 0.36827 0.0
H1273 H 0.23308 0.03735 0.41646 0.0
H1274 H 0.22002 0.0038 0.40605 0.0
H1275 H 0.22253 0.99624 0.35718 0.0
H1276 H 0.20678 0.90327 0.33469 0.0
H1277 H 0.21999 0.93736 0.34411 0.0
C1278 C 0.5428 0.62115 0.29014 0.0
C1279 C 0.5349 0.61855 0.27558 0.0
C1280 C 0.55466 0.63995 0.29705 0.0
C1281 C 0.58344 0.69163 0.28852 0.0
H1282 H 0.58124 0.70333 0.32999 0.0
C1283 C 0.61601 0.77013 0.31498 0.0
C1284 C 0.628 0.77496 0.32798 0.0
C1285 C 0.60475 0.75071 0.30928 0.0
C1286 C 0.58207 0.70019 0.31843 0.0
H1287 H 0.53269 0.63347 0.25699 0.0
H1288 H 0.55287 0.66613 0.26908 0.0
H1289 H 0.56145 0.66995 0.3186 0.0
H1290 H 0.63712 0.76315 0.34545 0.0
H1291 H 0.61706 0.72902 0.33556 0.0
H1292 H 0.60364 0.72198 0.28829 0.0
C1293 C 0.55051 0.65378 0.27507 0.0
C1294 C 0.57082 0.68108 0.3119 0.0
C1295 C 0.53888 0.63505 0.26813 0.0
C1296 C 0.62805 0.75988 0.3354 0.0
C1297 C 0.61655 0.74037 0.32979 0.0
C1298 C 0.59447 0.71071 0.29499 0.0
C1299 C 0.55868 0.65651 0.28959 0.0
C1300 C 0.57123 0.6766 0.29681 0.0
C1301 C 0.60504 0.73566 0.31654 0.0
C1302 C 0.59377 0.71522 0.30996 0.0
H1303 H 0.54003 0.60865 0.2961 0.0
H1304 H 0.56086 0.64147 0.30817 0.0
H1305 H 0.58453 0.68867 0.27699 0.0
H1306 H 0.61569 0.78139 0.30894 0.0
H1307 H 0.59585 0.74744 0.29912 0.0
C1308 C 0.36489 0.88847 0.26835 0.0
C1309 C 0.37128 0.90322 0.25861 0.0
C1310 C 0.34728 0.88142 0.27379 0.0
C1311 C 0.31044 0.89443 0.27936 0.0
H1312 H 0.27992 0.83951 0.28523 0.0
C1313 C 0.23481 0.86117 0.29685 0.0
C1314 C 0.23082 0.84934 0.3086 0.0
C1315 C 0.25131 0.86697 0.28988 0.0
C1316 C 0.28835 0.85489 0.28371 0.0
H1317 H 0.36406 0.92214 0.24699 0.0
H1318 H 0.33311 0.90938 0.25606 0.0
H1319 H 0.30996 0.85123 0.2746 0.0
H1320 H 0.24051 0.8338 0.32207 0.0
H1321 H 0.26933 0.84382 0.30982 0.0
H1322 H 0.28871 0.89801 0.28839 0.0
C1323 C 0.34186 0.90349 0.25971 0.0
C1324 C 0.30558 0.86164 0.27767 0.0
C1325 C 0.35953 0.91063 0.25434 0.0
C1326 C 0.2433 0.84294 0.31302 0.0
C1327 C 0.25972 0.8486 0.30598 0.0
C1328 C 0.29314 0.88765 0.28528 0.0
C1329 C 0.33554 0.88884 0.26955 0.0
C1330 C 0.31691 0.88152 0.27552 0.0
C1331 C 0.26401 0.86088 0.29446 0.0
C1332 C 0.28198 0.86784 0.28761 0.0
H1333 H 0.37344 0.88223 0.27172 0.0
H1334 H 0.343 0.87033 0.2815 0.0
H1335 H 0.31892 0.90988 0.27811 0.0
H1336 H 0.22536 0.86625 0.2932 0.0
H1337 H 0.25416 0.87626 0.28093 0.0
C1338 C 0.11017 0.46981 0.27537 0.0
C1339 C 0.09068 0.462 0.27239 0.0
C1340 C 0.11717 0.45868 0.28154 0.0
C1341 C 0.10472 0.41786 0.30401 0.0
H1342 H 0.14537 0.41484 0.28664 0.0
C1343 C 0.1293 0.3649 0.32234 0.0
C1344 C 0.14855 0.37098 0.32244 0.0
C1345 C 0.12227 0.37622 0.31656 0.0
C1346 C 0.13424 0.41576 0.2918 0.0
H1347 H 0.0632 0.43655 0.27363 0.0
H1348 H 0.07547 0.4171 0.28458 0.0
H1349 H 0.13306 0.43419 0.27591 0.0
H1350 H 0.17563 0.39399 0.31689 0.0
H1351 H 0.16352 0.41404 0.30726 0.0
H1352 H 0.10609 0.39981 0.3201 0.0
C1353 C 0.08529 0.43182 0.28209 0.0
C1354 C 0.12713 0.42678 0.28559 0.0
C1355 C 0.07829 0.44287 0.27574 0.0
C1356 C 0.16069 0.38882 0.31689 0.0
C1357 C 0.15371 0.40025 0.31126 0.0
C1358 C 0.11197 0.40701 0.31035 0.0
C1359 C 0.1048 0.43961 0.285 0.0
C1360 C 0.11229 0.42789 0.29161 0.0
C1361 C 0.13437 0.394 0.31086 0.0
C1362 C 0.1268 0.40579 0.3043 0.0
H1363 H 0.12003 0.48448 0.2728 0.0
H1364 H 0.13227 0.46508 0.28376 0.0
H1365 H 0.09341 0.41867 0.30897 0.0
H1366 H 0.11953 0.35113 0.3264 0.0
H1367 H 0.10726 0.37076 0.31623 0.0
C1368 C 0.36728 0.47933 0.26496 0.0
C1369 C 0.37814 0.47045 0.26256 0.0
C1370 C 0.34942 0.46878 0.26999 0.0
C1371 C 0.31126 0.4182 0.27437 0.0
H1372 H 0.29617 0.44474 0.30275 0.0
C1373 C 0.23741 0.37958 0.29581 0.0
C1374 C 0.23646 0.38351 0.31083 0.0
C1375 C 0.2541 0.39064 0.2892 0.0
C1376 C 0.3002 0.43703 0.29492 0.0
H1377 H 0.37893 0.44365 0.26356 0.0
H1378 H 0.34796 0.42531 0.27273 0.0
H1379 H 0.32656 0.46271 0.2929 0.0
H1380 H 0.252 0.40197 0.33076 0.0
H1381 H 0.28125 0.42089 0.31941 0.0
H1382 H 0.28526 0.39229 0.27694 0.0
C1383 C 0.35298 0.44028 0.27039 0.0
C1384 C 0.31755 0.44744 0.28909 0.0
C1385 C 0.37076 0.45078 0.2652 0.0
C1386 C 0.25236 0.39874 0.31912 0.0
C1387 C 0.26908 0.40966 0.31257 0.0
C1388 C 0.29397 0.40774 0.28031 0.0
C1389 C 0.34209 0.44916 0.27289 0.0
C1390 C 0.32336 0.43814 0.27878 0.0
C1391 C 0.27021 0.40571 0.29754 0.0
C1392 C 0.28826 0.417 0.29073 0.0
H1393 H 0.37253 0.4944 0.26281 0.0
H1394 H 0.34131 0.476 0.2715 0.0
H1395 H 0.31512 0.41061 0.2663 0.0
H1396 H 0.22528 0.36794 0.28918 0.0
H1397 H 0.25435 0.38739 0.27755 0.0
C1398 C 0.5333 0.9214 0.2829 0.0
C1399 C 0.52852 0.91829 0.26758 0.0
C1400 C 0.54516 0.91535 0.28929 0.0
C1401 C 0.58011 0.90067 0.28029 0.0
H1402 H 0.56778 0.87602 0.31691 0.0
C1403 C 0.6148 0.85838 0.30313 0.0
C1404 C 0.62015 0.8615 0.31834 0.0
C1405 C 0.60409 0.86596 0.29705 0.0
C1406 C 0.57152 0.88306 0.30676 0.0
H1407 H 0.53224 0.90622 0.24697 0.0
H1408 H 0.55277 0.89555 0.25809 0.0
H1409 H 0.54839 0.88833 0.30615 0.0
H1410 H 0.61867 0.87494 0.33916 0.0
H1411 H 0.59995 0.8882 0.32856 0.0
H1412 H 0.6031 0.89514 0.28084 0.0
C1413 C 0.54771 0.90301 0.26516 0.0
C1414 C 0.56044 0.89016 0.30061 0.0
C1415 C 0.53592 0.90912 0.25878 0.0
C1416 C 0.61466 0.8723 0.32739 0.0
C1417 C 0.60388 0.87979 0.32134 0.0
C1418 C 0.59114 0.8935 0.28642 0.0
C1419 C 0.55242 0.90599 0.28049 0.0
C1420 C 0.56456 0.89898 0.28727 0.0
C1421 C 0.59848 0.87671 0.3061 0.0
C1422 C 0.58693 0.88457 0.29969 0.0
H1423 H 0.52798 0.92863 0.28994 0.0
H1424 H 0.54874 0.91813 0.30111 0.0
H1425 H 0.58385 0.90768 0.27013 0.0
H1426 H 0.61888 0.85009 0.29592 0.0
H1427 H 0.59998 0.86317 0.2853 0.0
C1428 C 0.08387 0.62852 0.26691 0.0
C1429 C 0.08302 0.61417 0.27581 0.0
C1430 C 0.0907 0.64764 0.27295 0.0
C1431 C 0.12215 0.68286 0.30306 0.0
H1432 H 0.09553 0.71059 0.29431 0.0
C1433 C 0.15493 0.76639 0.3155 0.0
C1434 C 0.14366 0.77249 0.32251 0.0
C1435 C 0.14743 0.74687 0.31016 0.0
C1436 C 0.10307 0.70299 0.29687 0.0
H1437 H 0.08829 0.60871 0.29819 0.0
H1438 H 0.10069 0.64227 0.30859 0.0
H1439 H 0.08215 0.67658 0.28442 0.0
H1440 H 0.11565 0.7629 0.3293 0.0
H1441 H 0.10257 0.72892 0.31979 0.0
H1442 H 0.14316 0.70934 0.3154 0.0
C1443 C 0.0961 0.63862 0.29692 0.0
C1444 C 0.09549 0.68361 0.29115 0.0
C1445 C 0.08905 0.61943 0.29093 0.0
C1446 C 0.12474 0.75868 0.32401 0.0
C1447 C 0.1172 0.73924 0.3185 0.0
C1448 C 0.12986 0.70233 0.30862 0.0
C1449 C 0.09705 0.65291 0.28797 0.0
C1450 C 0.10494 0.67336 0.29421 0.0
C1451 C 0.12847 0.73315 0.31153 0.0
C1452 C 0.12037 0.71255 0.3056 0.0
H1453 H 0.0797 0.62515 0.25518 0.0
H1454 H 0.09148 0.65844 0.26577 0.0
H1455 H 0.12979 0.67533 0.30548 0.0
H1456 H 0.16956 0.77667 0.31419 0.0
H1457 H 0.15638 0.74255 0.30473 0.0
C1458 C 0.80294 0.03729 0.40422 0.0
C1459 C 0.80361 0.0528 0.39702 0.0
C1460 C 0.79177 0.0181 0.398 0.0
C1461 C 0.76553 0.98827 0.36293 0.0
H1462 H 0.74093 0.94791 0.38946 0.0
C1463 C 0.7059 0.90863 0.34491 0.0
C1464 C 0.70807 0.89386 0.351 0.0
C1465 C 0.71833 0.92826 0.34965 0.0
C1466 C 0.74784 0.95902 0.38194 0.0
H1467 H 0.79328 0.06057 0.37768 0.0
H1468 H 0.77312 0.02689 0.36697 0.0
H1469 H 0.76052 0.98174 0.3995 0.0
H1470 H 0.72516 0.88812 0.36666 0.0
H1471 H 0.74662 0.9224 0.3751 0.0
H1472 H 0.75212 0.96532 0.34534 0.0
C1473 C 0.78158 0.02954 0.37726 0.0
C1474 C 0.75915 0.97842 0.38767 0.0
C1475 C 0.79302 0.04881 0.3834 0.0
C1476 C 0.72313 0.89914 0.36172 0.0
C1477 C 0.73535 0.91874 0.36661 0.0
C1478 C 0.75394 0.96884 0.35718 0.0
C1479 C 0.78075 0.01391 0.38453 0.0
C1480 C 0.76831 0.99331 0.37827 0.0
C1481 C 0.73295 0.93345 0.36073 0.0
C1482 C 0.74514 0.95405 0.36666 0.0
H1483 H 0.81124 0.04004 0.41462 0.0
H1484 H 0.79192 0.00656 0.40375 0.0
H1485 H 0.77253 -0.00074 0.35535 0.0
H1486 H 0.69448 0.90502 0.33658 0.0
H1487 H 0.71615 0.93935 0.34499 0.0
C1488 C 0.96066 0.75372 0.39835 0.0
C1489 C 0.95761 0.74905 0.41301 0.0
C1490 C 0.97874 0.76222 0.39366 0.0
C1491 C 0.02527 0.76796 0.40095 0.0
H1492 H 0.04167 0.81375 0.37929 0.0
C1493 C 0.09943 0.80792 0.38012 0.0
C1494 C 0.10031 0.81396 0.36583 0.0
C1495 C 0.08293 0.80147 0.38723 0.0
C1496 C 0.03727 0.80087 0.38519 0.0
H1497 H 0.97125 0.74926 0.43414 0.0
H1498 H 0.00286 0.76366 0.42573 0.0
H1499 H 0.01082 0.79876 0.38885 0.0
H1500 H 0.08495 0.81832 0.34781 0.0
H1501 H 0.05603 0.80662 0.35997 0.0
H1502 H 0.05138 0.76959 0.39687 0.0
C1503 C 0.99115 0.7608 0.41797 0.0
C1504 C 0.01963 0.79234 0.3907 0.0
C1505 C 0.97305 0.75248 0.42273 0.0
C1506 C 0.08463 0.81383 0.35887 0.0
C1507 C 0.06811 0.80723 0.3659 0.0
C1508 C 0.04287 0.77637 0.39529 0.0
C1509 C 0.99418 0.76604 0.40345 0.0
C1510 C 0.01336 0.77567 0.39845 0.0
C1511 C 0.06698 0.80081 0.38012 0.0
C1512 C 0.04897 0.79278 0.38716 0.0
H1513 H 0.94906 0.75085 0.39046 0.0
H1514 H 0.98065 0.76577 0.38232 0.0
H1515 H 0.0207 0.75504 0.40684 0.0
H1516 H 0.11142 0.80799 0.38573 0.0
H1517 H 0.08266 0.79693 0.39826 0.0
C1518 C 0.25907 0.22339 0.39357 0.0
C1519 C 0.2466 0.20422 0.39675 0.0
C1520 C 0.25222 0.23454 0.38719 0.0
C1521 C 0.20941 0.23022 0.36718 0.0
H1522 H 0.23395 0.28564 0.37929 0.0
C1523 C 0.17714 0.2787 0.354 0.0
C1524 C 0.18925 0.29667 0.34859 0.0
C1525 C 0.18416 0.26711 0.35927 0.0
C1526 C 0.22706 0.27021 0.37572 0.0
H1527 H 0.21723 0.18175 0.39599 0.0
H1528 H 0.20518 0.20132 0.38526 0.0
H1529 H 0.24613 0.26608 0.38984 0.0
H1530 H 0.21823 0.31657 0.34448 0.0
H1531 H 0.23046 0.29641 0.35386 0.0
H1532 H 0.19001 0.23441 0.35337 0.0
C1533 C 0.22028 0.20763 0.38726 0.0
C1534 C 0.23407 0.25898 0.38171 0.0
C1535 C 0.22716 0.19642 0.39347 0.0
C1536 C 0.2085 0.30276 0.34851 0.0
C1537 C 0.21555 0.2913 0.35396 0.0
C1538 C 0.20226 0.24142 0.36134 0.0
C1539 C 0.23272 0.22684 0.38401 0.0
C1540 C 0.22535 0.23884 0.37751 0.0
C1541 C 0.20346 0.2734 0.35943 0.0
C1542 C 0.21104 0.26151 0.36554 0.0
H1543 H 0.27414 0.22967 0.39585 0.0
H1544 H 0.26224 0.24913 0.3846 0.0
H1545 H 0.20252 0.21484 0.36346 0.0
H1546 H 0.16223 0.27359 0.3542 0.0
H1547 H 0.17456 0.25341 0.36352 0.0
C1548 C 0.64266 0.53905 0.74849 0.0
C1549 C 0.62663 0.5375 0.74082 0.0
C1550 C 0.66023 0.54893 0.74286 0.0
C1551 C 0.68193 0.56583 0.708 0.0
H1552 H 0.72736 0.59758 0.73411 0.0
C1553 C 0.75571 0.59988 0.68671 0.0
C1554 C 0.76881 0.61907 0.69234 0.0
C1555 C 0.73866 0.58942 0.69301 0.0
C1556 C 0.7148 0.58888 0.72665 0.0
H1557 H 0.61649 0.54561 0.72154 0.0
H1558 H 0.64717 0.56317 0.71184 0.0
H1559 H 0.69698 0.58115 0.74435 0.0
H1560 H 0.77465 0.64236 0.70899 0.0
H1561 H 0.74478 0.62433 0.71978 0.0
H1562 H 0.69964 0.57408 0.69025 0.0
C1563 C 0.64614 0.55633 0.722 0.0
C1564 C 0.69739 0.57926 0.73254 0.0
C1565 C 0.62857 0.54635 0.72757 0.0
C1566 C 0.76475 0.62756 0.70445 0.0
C1567 C 0.74769 0.61716 0.7107 0.0
C1568 C 0.69931 0.57552 0.7021 0.0
C1569 C 0.66215 0.55758 0.72949 0.0
C1570 C 0.68073 0.56768 0.72328 0.0
C1571 C 0.73438 0.598 0.705 0.0
C1572 C 0.71596 0.58722 0.71135 0.0
H1573 H 0.64153 0.53216 0.75864 0.0
H1574 H 0.6722 0.54937 0.74882 0.0
H1575 H 0.66942 0.55679 0.70055 0.0
H1576 H 0.75859 0.593 0.67742 0.0
H1577 H 0.72887 0.57459 0.6885 0.0
C1578 C 0.48795 0.11255 0.73826 0.0
C1579 C 0.48021 0.09569 0.74594 0.0
C1580 C 0.47658 0.11955 0.73252 0.0
C1581 C 0.42656 0.10455 0.72239 0.0
H1582 H 0.4462 0.16041 0.72363 0.0
C1583 C 0.37941 0.13728 0.7089 0.0
C1584 C 0.38598 0.15154 0.6988 0.0
C1585 C 0.39121 0.13105 0.71504 0.0
C1586 C 0.44059 0.14478 0.72315 0.0
H1587 H 0.4543 0.07284 0.75338 0.0
H1588 H 0.43468 0.08547 0.74392 0.0
H1589 H 0.4661 0.14815 0.73355 0.0
H1590 H 0.41008 0.17095 0.6875 0.0
H1591 H 0.43089 0.16022 0.69843 0.0
H1592 H 0.40093 0.10125 0.71224 0.0
C1593 C 0.44948 0.09311 0.74208 0.0
C1594 C 0.45199 0.13774 0.72876 0.0
C1595 C 0.46081 0.08601 0.74771 0.0
C1596 C 0.40471 0.15992 0.69527 0.0
C1597 C 0.4166 0.15383 0.70154 0.0
C1598 C 0.41512 0.1116 0.71694 0.0
C1599 C 0.45721 0.10997 0.73441 0.0
C1600 C 0.44512 0.11752 0.72843 0.0
C1601 C 0.40986 0.13913 0.71131 0.0
C1602 C 0.42202 0.13177 0.71725 0.0
H1603 H 0.50286 0.12054 0.73685 0.0
H1604 H 0.48298 0.13242 0.7265 0.0
H1605 H 0.4209 0.08891 0.72168 0.0
H1606 H 0.36502 0.13063 0.71183 0.0
H1607 H 0.38574 0.11985 0.72268 0.0
C1608 C 0.89756 0.36765 0.73387 0.0
C1609 C 0.91157 0.38314 0.72701 0.0
C1610 C 0.88972 0.34844 0.7277 0.0
C1611 C 0.8845 0.31881 0.69294 0.0
H1612 H 0.87247 0.27811 0.71931 0.0
C1613 C 0.86602 0.23992 0.67379 0.0
C1614 C 0.85069 0.22472 0.67987 0.0
C1615 C 0.87277 0.25937 0.67894 0.0
C1616 C 0.87559 0.2893 0.71182 0.0
H1617 H 0.92843 0.39073 0.70836 0.0
H1618 H 0.91511 0.35709 0.69773 0.0
H1619 H 0.88602 0.31184 0.72952 0.0
H1620 H 0.83028 0.21804 0.69602 0.0
H1621 H 0.84221 0.25201 0.70507 0.0
H1622 H 0.87445 0.29613 0.67524 0.0
C1623 C 0.90984 0.35979 0.70771 0.0
C1624 C 0.88331 0.30864 0.71765 0.0
C1625 C 0.91754 0.37905 0.71381 0.0
C1626 C 0.84208 0.2294 0.69106 0.0
C1627 C 0.84897 0.24883 0.69632 0.0
C1628 C 0.87695 0.29946 0.6871 0.0
C1629 C 0.89586 0.34422 0.7146 0.0
C1630 C 0.8878 0.32365 0.7083 0.0
C1631 C 0.86447 0.264 0.69039 0.0
C1632 C 0.87235 0.28452 0.69649 0.0
H1633 H 0.89247 0.37042 0.74392 0.0
H1634 H 0.8787 0.33691 0.73315 0.0
H1635 H 0.88751 0.32992 0.6854 0.0
H1636 H 0.87294 0.23681 0.66513 0.0
H1637 H 0.88482 0.27077 0.67424 0.0
C1638 C 0.20815 0.96795 0.60227 0.0
C1639 C 0.20463 0.95173 0.60994 0.0
C1640 C 0.21967 0.98686 0.60894 0.0
C1641 C 0.24016 0.01507 0.64539 0.0
H1642 H 0.27207 0.05565 0.62116 0.0
C1643 C 0.29605 0.09474 0.66794 0.0
C1644 C 0.29552 0.10942 0.66027 0.0
C1645 C 0.28497 0.0751 0.66254 0.0
C1646 C 0.26316 0.04447 0.62804 0.0
H1647 H 0.21045 0.94252 0.63056 0.0
H1648 H 0.23106 0.97566 0.64216 0.0
H1649 H 0.2534 0.02206 0.61032 0.0
H1650 H 0.28284 0.11498 0.64099 0.0
H1651 H 0.26375 0.08079 0.63153 0.0
H1652 H 0.25035 0.03769 0.66318 0.0
C1653 C 0.2246 0.97377 0.63108 0.0
C1654 C 0.25239 0.02522 0.62183 0.0
C1655 C 0.21287 0.95479 0.62444 0.0
C1656 C 0.28353 0.10404 0.64721 0.0
C1657 C 0.27269 0.08449 0.64172 0.0
C1658 C 0.25115 0.03435 0.65166 0.0
C1659 C 0.22815 0.99004 0.6234 0.0
C1660 C 0.2405 0.01031 0.63035 0.0
C1661 C 0.27343 0.06985 0.64925 0.0
C1662 C 0.26251 0.04925 0.64296 0.0
H1663 H 0.20169 0.96602 0.59118 0.0
H1664 H 0.22168 0.99898 0.60279 0.0
H1665 H 0.23103 0.00402 0.65225 0.0
H1666 H 0.30512 0.09843 0.67805 0.0
H1667 H 0.28582 0.06407 0.66852 0.0
C1668 C 0.02348 0.23445 0.58162 0.0
C1669 C 0.03961 0.23935 0.59104 0.0
C1670 C 0.00585 0.22689 0.58714 0.0
C1671 C 0.9798 0.20141 0.61804 0.0
H1672 H 0.94727 0.22213 0.60755 0.0
C1673 C 0.91604 0.18657 0.64988 0.0
C1674 C 0.89976 0.18398 0.64194 0.0
C1675 C 0.93247 0.19214 0.6429 0.0
C1676 C 0.95603 0.21595 0.61041 0.0
H1677 H 0.04988 0.24059 0.61373 0.0
H1678 H 0.01912 0.22717 0.62329 0.0
H1679 H 0.97719 0.23419 0.59669 0.0
H1680 H 0.8876 0.18476 0.62048 0.0
H1681 H 0.91625 0.19415 0.60815 0.0
H1682 H 0.95872 0.18316 0.63174 0.0
C1683 C 0.02009 0.22894 0.6116 0.0
C1684 C 0.97319 0.2229 0.6042 0.0
C1685 C 0.03771 0.2366 0.60611 0.0
C1686 C 0.90003 0.18674 0.62685 0.0
C1687 C 0.91646 0.19223 0.61983 0.0
C1688 C 0.96261 0.19438 0.62417 0.0
C1689 C 0.00398 0.22396 0.60218 0.0
C1690 C 0.98534 0.21587 0.60811 0.0
C1691 C 0.93291 0.19513 0.62781 0.0
C1692 C 0.95063 0.20174 0.62058 0.0
H1693 H 0.0244 0.23614 0.56992 0.0
H1694 H 0.99363 0.22302 0.57961 0.0
H1695 H 0.98876 0.1955 0.62106 0.0
H1696 H 0.91618 0.1846 0.66155 0.0
H1697 H 0.94495 0.19454 0.64943 0.0
C1698 C 0.74809 0.77367 0.60424 0.0
C1699 C 0.74463 0.78659 0.61287 0.0
C1700 C 0.75492 0.76266 0.61087 0.0
C1701 C 0.78226 0.76328 0.64407 0.0
H1702 H 0.76335 0.70891 0.63089 0.0
C1703 C 0.82262 0.72257 0.65671 0.0
C1704 C 0.8121 0.70333 0.66062 0.0
C1705 C 0.81358 0.73261 0.65211 0.0
C1706 C 0.76867 0.72404 0.63478 0.0
H1707 H 0.74494 0.79739 0.63532 0.0
H1708 H 0.7572 0.77841 0.64686 0.0
H1709 H 0.74835 0.72609 0.62042 0.0
H1710 H 0.78383 0.67974 0.66308 0.0
H1711 H 0.76812 0.69728 0.65498 0.0
H1712 H 0.80273 0.7613 0.65829 0.0
C1713 C 0.75477 0.77699 0.63494 0.0
C1714 C 0.76019 0.7339 0.62869 0.0
C1715 C 0.74779 0.78789 0.62832 0.0
C1716 C 0.79238 0.69453 0.66014 0.0
C1717 C 0.78335 0.70452 0.65541 0.0
C1718 C 0.79086 0.75348 0.65005 0.0
C1719 C 0.75858 0.76441 0.62628 0.0
C1720 C 0.76697 0.75365 0.63321 0.0
C1721 C 0.79384 0.72359 0.65122 0.0
C1722 C 0.78422 0.73379 0.6454 0.0
H1723 H 0.74611 0.77251 0.59231 0.0
H1724 H 0.75793 0.75324 0.60391 0.0
H1725 H 0.78788 0.77855 0.64767 0.0
H1726 H 0.83783 0.72981 0.65699 0.0
H1727 H 0.82202 0.74725 0.64884 0.0
C1728 C 0.0488 0.80057 0.61727 0.0
C1729 C 0.04992 0.80194 0.60199 0.0
C1730 C 0.03134 0.79049 0.62302 0.0
C1731 C 0.98059 0.77243 0.61384 0.0
H1732 H 0.97463 0.74159 0.64693 0.0
C1733 C 0.90822 0.72075 0.63473 0.0
C1734 C 0.90736 0.72103 0.65007 0.0
C1735 C 0.92555 0.73096 0.62879 0.0
C1736 C 0.97613 0.7503 0.63778 0.0
H1737 H 0.03346 0.79362 0.58078 0.0
H1738 H 0.00305 0.77551 0.59076 0.0
H1739 H 0.00493 0.75811 0.63653 0.0
H1740 H 0.92373 0.73229 0.67128 0.0
H1741 H 0.95406 0.75013 0.66091 0.0
H1742 H 0.95166 0.76436 0.61503 0.0
C1743 C 0.01568 0.78254 0.59833 0.0
C1744 C 0.9935 0.75979 0.63182 0.0
C1745 C 0.03314 0.7927 0.59258 0.0
C1746 C 0.92404 0.73184 0.6594 0.0
C1747 C 0.94139 0.74194 0.65347 0.0
C1748 C 0.96318 0.76283 0.61975 0.0
C1749 C 0.01455 0.78142 0.61363 0.0
C1750 C 0.99597 0.77103 0.61981 0.0
C1751 C 0.94233 0.7415 0.6381 0.0
C1752 C 0.96079 0.75172 0.63181 0.0
H1753 H 0.06144 0.80729 0.62483 0.0
H1754 H 0.03102 0.79011 0.63487 0.0
H1755 H 0.98206 0.78122 0.60476 0.0
H1756 H 0.89553 0.71247 0.62731 0.0
H1757 H 0.92586 0.73022 0.61691 0.0
C1758 C 0.21084 0.26407 0.60538 0.0
C1759 C 0.19529 0.2513 0.59546 0.0
C1760 C 0.22266 0.25786 0.61159 0.0
C1761 C 0.23946 0.22366 0.60592 0.0
H1762 H 0.24634 0.22669 0.64859 0.0
C1763 C 0.27447 0.18551 0.63519 0.0
C1764 C 0.28531 0.19441 0.64865 0.0
C1765 C 0.26396 0.19294 0.62852 0.0
C1766 C 0.24492 0.22605 0.63666 0.0
H1767 H 0.18014 0.2224 0.58385 0.0
H1768 H 0.20113 0.21169 0.59445 0.0
H1769 H 0.22794 0.23959 0.637 0.0
H1770 H 0.29412 0.21821 0.66558 0.0
H1771 H 0.27651 0.23175 0.6537 0.0
H1772 H 0.2568 0.21065 0.60544 0.0
C1773 C 0.20403 0.22637 0.59752 0.0
C1774 C 0.23429 0.23337 0.63006 0.0
C1775 C 0.19201 0.23244 0.59154 0.0
C1776 C 0.2857 0.21098 0.65526 0.0
C1777 C 0.27548 0.21864 0.64847 0.0
C1778 C 0.2504 0.21666 0.61251 0.0
C1779 C 0.21931 0.23895 0.60772 0.0
C1780 C 0.23135 0.23208 0.61465 0.0
C1781 C 0.26436 0.20966 0.63505 0.0
C1782 C 0.25314 0.2176 0.62798 0.0
H1783 H 0.21357 0.27865 0.60858 0.0
H1784 H 0.23441 0.26781 0.61941 0.0
H1785 H 0.23747 0.22265 0.59399 0.0
H1786 H 0.27392 0.17266 0.62991 0.0
H1787 H 0.25532 0.18538 0.61835 0.0
C1788 C 0.74412 0.95423 0.61326 0.0
C1789 C 0.75631 0.94761 0.60909 0.0
C1790 C 0.75132 0.97337 0.61943 0.0
C1791 C 0.79548 0.01666 0.63689 0.0
H1792 H 0.76859 0.04384 0.62732 0.0
C1793 C 0.82628 0.10011 0.64936 0.0
C1794 C 0.81439 0.10571 0.65593 0.0
C1795 C 0.81949 0.08062 0.64426 0.0
C1796 C 0.77616 0.03636 0.63016 0.0
H1797 H 0.78555 0.95578 0.60786 0.0
H1798 H 0.79818 0.98939 0.61816 0.0
H1799 H 0.75622 0.01036 0.61695 0.0
H1800 H 0.78609 0.09523 0.66237 0.0
H1801 H 0.77422 0.06131 0.65326 0.0
H1802 H 0.81572 0.04307 0.64976 0.0
C1803 C 0.78306 0.97971 0.61712 0.0
C1804 C 0.76905 0.01713 0.62429 0.0
C1805 C 0.77585 0.96049 0.61115 0.0
C1806 C 0.79564 0.0914 0.65741 0.0
C1807 C 0.78879 0.072 0.65212 0.0
C1808 C 0.80273 0.03601 0.6426 0.0
C1809 C 0.7709 0.98642 0.62136 0.0
C1810 C 0.77856 0.00697 0.62761 0.0
C1811 C 0.80061 0.06644 0.64543 0.0
C1812 C 0.79308 0.04599 0.63934 0.0
H1813 H 0.72899 0.94451 0.61195 0.0
H1814 H 0.7415 0.97785 0.62283 0.0
H1815 H 0.80304 0.00924 0.63992 0.0
H1816 H 0.8408 0.11079 0.64807 0.0
H1817 H 0.82885 0.0767 0.63906 0.0
C1818 C 0.45203 0.38227 0.72232 0.0
C1819 C 0.47115 0.38872 0.72605 0.0
C1820 C 0.43994 0.36332 0.71584 0.0
C1821 C 0.43958 0.32021 0.69712 0.0
H1822 H 0.38933 0.2922 0.71011 0.0
C1823 C 0.39103 0.23628 0.68764 0.0
C1824 C 0.37205 0.22939 0.68285 0.0
C1825 C 0.40326 0.25613 0.69179 0.0
C1826 C 0.40326 0.29991 0.70627 0.0
H1827 H 0.49261 0.38046 0.72601 0.0
H1828 H 0.47152 0.3473 0.71505 0.0
H1829 H 0.41034 0.32616 0.71937 0.0
H1830 H 0.35111 0.23804 0.67853 0.0
H1831 H 0.37244 0.27258 0.6859 0.0
H1832 H 0.43254 0.29361 0.68436 0.0
C1833 C 0.46588 0.35696 0.71672 0.0
C1834 C 0.41529 0.31941 0.71152 0.0
C1835 C 0.47799 0.37595 0.72305 0.0
C1836 C 0.36564 0.24282 0.68215 0.0
C1837 C 0.37781 0.2626 0.68645 0.0
C1838 C 0.42759 0.30063 0.69199 0.0
C1839 C 0.44667 0.35034 0.71313 0.0
C1840 C 0.43364 0.3298 0.70706 0.0
C1841 C 0.3967 0.26943 0.69139 0.0
C1842 C 0.40934 0.29029 0.69655 0.0
H1843 H 0.44645 0.39191 0.72438 0.0
H1844 H 0.42531 0.35885 0.71297 0.0
H1845 H 0.45349 0.32784 0.69324 0.0
H1846 H 0.39643 0.22633 0.68828 0.0
H1847 H 0.41774 0.26101 0.69566 0.0
C1848 C 0.63238 0.08327 0.74048 0.0
C1849 C 0.63027 0.09581 0.75063 0.0
C1850 C 0.64931 0.08975 0.73404 0.0
C1851 C 0.69938 0.12274 0.7389 0.0
H1852 H 0.697 0.12173 0.69623 0.0
C1853 C 0.76668 0.1547 0.70769 0.0
C1854 C 0.76546 0.14522 0.69391 0.0
C1855 C 0.75044 0.14939 0.71496 0.0
C1856 C 0.69795 0.12182 0.70813 0.0
H1857 H 0.64411 0.1246 0.76242 0.0
H1858 H 0.6741 0.13577 0.75143 0.0
H1859 H 0.66824 0.11028 0.70859 0.0
H1860 H 0.74664 0.12252 0.67703 0.0
H1861 H 0.71855 0.11259 0.6899 0.0
H1862 H 0.72891 0.13347 0.73853 0.0
C1863 C 0.66257 0.12106 0.74837 0.0
C1864 C 0.68146 0.11538 0.71518 0.0
C1865 C 0.64548 0.11473 0.75457 0.0
C1866 C 0.7479 0.1302 0.68759 0.0
C1867 C 0.73176 0.12464 0.69495 0.0
C1868 C 0.71587 0.12882 0.73184 0.0
C1869 C 0.66449 0.1087 0.7379 0.0
C1870 C 0.68205 0.11574 0.73059 0.0
C1871 C 0.73275 0.13425 0.70868 0.0
C1872 C 0.71536 0.12836 0.71634 0.0
H1873 H 0.62077 0.06866 0.73724 0.0
H1874 H 0.65057 0.07998 0.72601 0.0
H1875 H 0.70008 0.12306 0.75083 0.0
H1876 H 0.78013 0.16636 0.71276 0.0
H1877 H 0.75177 0.15732 0.7254 0.0
C1878 C 0.93456 0.56242 0.72205 0.0
C1879 C 0.92163 0.54275 0.72364 0.0
C1880 C 0.92865 0.57411 0.71523 0.0
C1881 C 0.88876 0.57103 0.69146 0.0
H1882 H 0.9087 0.62447 0.70781 0.0
C1883 C 0.85136 0.61507 0.68197 0.0
C1884 C 0.86237 0.63455 0.67873 0.0
C1885 C 0.85984 0.60424 0.6858 0.0
C1886 C 0.9032 0.60965 0.703 0.0
H1887 H 0.89235 0.51998 0.71966 0.0
H1888 H 0.88193 0.54036 0.70815 0.0
H1889 H 0.92121 0.60489 0.71788 0.0
H1890 H 0.8909 0.65788 0.6768 0.0
H1891 H 0.90575 0.63895 0.68377 0.0
H1892 H 0.8702 0.57564 0.677 0.0
C1893 C 0.89675 0.54671 0.7117 0.0
C1894 C 0.91039 0.59842 0.70874 0.0
C1895 C 0.90269 0.53502 0.71836 0.0
C1896 C 0.88203 0.64289 0.67919 0.0
C1897 C 0.89055 0.63212 0.68325 0.0
C1898 C 0.88144 0.58218 0.68585 0.0
C1899 C 0.90964 0.56641 0.71001 0.0
C1900 C 0.90305 0.57886 0.70319 0.0
C1901 C 0.87952 0.61272 0.68666 0.0
C1902 C 0.88841 0.6015 0.6917 0.0
H1903 H 0.94929 0.5687 0.72591 0.0
H1904 H 0.93902 0.58914 0.71396 0.0
H1905 H 0.88307 0.55618 0.68666 0.0
H1906 H 0.83617 0.6082 0.68165 0.0
H1907 H 0.85102 0.58937 0.68849 0.0
C1908 C 0.46909 0.98048 0.15219 0.0
C1909 C 0.47946 0.97318 0.15953 0.0
C1910 C 0.47277 0.98639 0.13796 0.0
C1911 C 0.50989 0.00345 0.1126 0.0
H1912 H 0.46913 0.98527 0.08163 0.0
C1913 C 0.52355 0.01045 0.05141 0.0
C1914 C 0.51197 0.01433 0.04205 0.0
C1915 C 0.51953 0.00663 0.06597 0.0
C1916 C 0.48066 0.99076 0.0902 0.0
H1917 H 0.50149 0.96589 0.15739 0.0
H1918 H 0.50814 0.97662 0.13278 0.0
H1919 H 0.46201 0.97639 0.10673 0.0
H1920 H 0.48764 0.01811 0.04051 0.0
H1921 H 0.48066 0.01171 0.06608 0.0
H1922 H 0.52858 0.01792 0.09622 0.0
C1923 C 0.49731 0.97794 0.13812 0.0
C1924 C 0.47656 0.98562 0.10455 0.0
C1925 C 0.49352 0.97187 0.15225 0.0
C1926 C 0.49659 0.01486 0.04753 0.0
C1927 C 0.49259 0.01113 0.06212 0.0
C1928 C 0.51398 0.00873 0.09831 0.0
C1929 C 0.487 0.98529 0.13084 0.0
C1930 C 0.49116 0.99169 0.11583 0.0
C1931 C 0.50395 0.00684 0.07149 0.0
C1932 C 0.49945 0.00222 0.08688 0.0
H1933 H 0.45831 0.98192 0.15753 0.0
H1934 H 0.46471 0.99213 0.13262 0.0
H1935 H 0.5214 0.00859 0.12115 0.0
H1936 H 0.53544 0.00985 0.04738 0.0
H1937 H 0.52839 0.00306 0.07277 0.0
C1938 C 0.02467 0.52056 0.15782 0.0
C1939 C 0.02224 0.50396 0.16449 0.0
C1940 C 0.02075 0.51971 0.14263 0.0
C1941 C 0.99561 0.48523 0.10942 0.0
H1942 H 0.02805 0.53029 0.08902 0.0
C1943 C 0.99085 0.48599 0.04568 0.0
C1944 C 0.99084 0.50232 0.04046 0.0
C1945 C 0.99485 0.48557 0.06072 0.0
C1946 C 0.01882 0.51765 0.09459 0.0
H1947 H 0.01347 0.47329 0.1603 0.0
H1948 H 0.00727 0.47198 0.13369 0.0
H1949 H 0.03473 0.53053 0.1154 0.0
H1950 H 0.99494 0.53099 0.0467 0.0
H1951 H 0.00205 0.53037 0.07298 0.0
H1952 H 0.97988 0.47232 0.08842 0.0
C1953 C 0.01192 0.48561 0.14029 0.0
C1954 C 0.02258 0.51779 0.10972 0.0
C1955 C 0.01569 0.48642 0.15554 0.0
C1956 C 0.99486 0.51823 0.05048 0.0
C1957 C -0.00095 0.51791 0.06547 0.0
C1958 C 0.99196 0.48503 0.09422 0.0
C1959 C 0.01451 0.50229 0.13363 0.0
C1960 C 0.01089 0.50169 0.11738 0.0
C1961 C -0.00094 0.50158 0.07075 0.0
C1962 C 0.0034 0.50133 0.0867 0.0
H1963 H 0.02996 0.53441 0.16429 0.0
H1964 H 0.02261 0.53277 0.13795 0.0
H1965 H 0.98618 0.47268 0.11496 0.0
H1966 H 0.98763 0.47347 0.03815 0.0
H1967 H 0.99486 0.47285 0.06449 0.0
C1968 C 0.47483 0.49015 0.15422 0.0
C1969 C 0.48564 0.50812 0.1628 0.0
C1970 C 0.47781 0.48824 0.13939 0.0
C1971 C 0.51339 0.51008 0.11297 0.0
H1972 H 0.47097 0.48643 0.08311 0.0
C1973 C 0.52385 0.5172 0.05127 0.0
C1974 C 0.51185 0.50119 0.04119 0.0
C1975 C 0.52039 0.5171 0.06611 0.0
C1976 C 0.48296 0.4928 0.09132 0.0
H1977 H 0.50785 0.53825 0.1623 0.0
H1978 H 0.51329 0.53473 0.13663 0.0
H1979 H 0.46544 0.48759 0.10913 0.0
H1980 H 0.48711 0.47233 0.03863 0.0
H1981 H 0.48113 0.47194 0.06465 0.0
H1982 H 0.53094 0.51517 0.0953 0.0
C1983 C 0.50263 0.5221 0.14144 0.0
C1984 C 0.47977 0.49349 0.10621 0.0
C1985 C 0.49954 0.52407 0.15618 0.0
C1986 C 0.49641 0.48497 0.04619 0.0
C1987 C 0.49299 0.48479 0.06108 0.0
C1988 C 0.51657 0.50924 0.09812 0.0
C1989 C 0.49177 0.50419 0.13288 0.0
C1990 C 0.49499 0.50236 0.11716 0.0
C1991 C 0.50496 0.50086 0.07123 0.0
C1992 C 0.50142 0.50083 0.08708 0.0
H1993 H 0.46419 0.47748 0.15898 0.0
H1994 H 0.46935 0.47421 0.13307 0.0
H1995 H 0.52536 0.51674 0.1212 0.0
H1996 H 0.53579 0.52995 0.04764 0.0
H1997 H 0.52969 0.52989 0.07353 0.0
C1998 C 0.97106 0.479 0.845 0.0
C1999 C 0.9742 0.49558 0.83792 0.0
C2000 C 0.97527 0.48033 0.86019 0.0
C2001 C 0.98076 0.50842 0.8949 0.0
H2002 H 0.00906 0.48449 0.90915 0.0
C2003 C 0.00433 0.51372 0.95694 0.0
C2004 C 0.00375 0.49712 0.96217 0.0
C2005 C 0.00112 0.51452 0.94182 0.0
C2006 C 0.00092 0.49103 0.9054 0.0
H2007 H 0.98407 0.52659 0.84145 0.0
H2008 H 0.99096 0.52875 0.86815 0.0
H2009 H 0.00264 0.48412 0.88272 0.0
H2010 H -0.00096 0.46822 0.95592 0.0
H2011 H 0.99297 0.46932 0.92964 0.0
H2012 H 0.97856 0.51487 0.91758 0.0
C2013 C 0.98531 0.51476 0.86181 0.0
C2014 C 0.99734 0.49089 0.89025 0.0
C2015 C 0.9813 0.51348 0.84653 0.0
C2016 C -0.00027 0.48127 0.95212 0.0
C2017 C 0.99637 0.48197 0.93706 0.0
C2018 C 0.98417 0.50839 0.91011 0.0
C2019 C 0.98248 0.49821 0.86874 0.0
C2020 C 0.98708 0.49941 0.88484 0.0
C2021 C 0.9972 0.49868 0.93168 0.0
C2022 C 0.99413 0.4995 0.91554 0.0
H2023 H 0.96513 0.46485 0.83885 0.0
H2024 H 0.97263 0.46727 0.8653 0.0
H2025 H 0.97269 0.51497 0.89101 0.0
H2026 H 0.0076 0.52623 0.96449 0.0
H2027 H 0.00209 0.5277 0.93808 0.0
C2028 C 0.50481 0.4754 0.84794 0.0
C2029 C 0.51844 0.49196 0.84173 0.0
C2030 C 0.50152 0.47646 0.86274 0.0
C2031 C 0.50895 0.51152 0.89449 0.0
H2032 H 0.49806 0.46734 0.91687 0.0
C2033 C 0.50423 0.51299 0.95779 0.0
C2034 C 0.48882 0.49667 0.96274 0.0
C2035 C 0.50818 0.51293 0.94306 0.0
C2036 C 0.50095 0.47973 0.91073 0.0
H2037 H 0.53916 0.52273 0.84628 0.0
H2038 H 0.5339 0.52441 0.87226 0.0
H2039 H 0.50466 0.46639 0.89119 0.0
H2040 H 0.4653 0.46763 0.95631 0.0
H2041 H 0.47222 0.46746 0.93054 0.0
H2042 H 0.5055 0.52491 0.91422 0.0
C2043 C 0.52551 0.51066 0.86559 0.0
C2044 C 0.50468 0.47918 0.89599 0.0
C2045 C 0.5287 0.50963 0.85073 0.0
C2046 C 0.47728 0.48039 0.95273 0.0
C2047 C 0.48132 0.48024 0.93804 0.0
C2048 C 0.50539 0.51213 0.90929 0.0
C2049 C 0.51191 0.49406 0.87179 0.0
C2050 C 0.50855 0.49499 0.88763 0.0
C2051 C 0.49684 0.49649 0.93307 0.0
C2052 C 0.50119 0.49616 0.91751 0.0
H2053 H 0.49682 0.46147 0.84144 0.0
H2054 H 0.49073 0.46346 0.86706 0.0
H2055 H 0.51163 0.52385 0.88835 0.0
H2056 H 0.51322 0.52579 0.96532 0.0
H2057 H 0.52029 0.5256 0.93954 0.0
C2058 C 0.50323 0.02222 0.85264 0.0
C2059 C 0.51692 0.01995 0.84559 0.0
C2060 C 0.49958 0.01722 0.86703 0.0
C2061 C 0.50653 0.98959 0.89595 0.0
H2062 H 0.49689 0.02353 0.92171 0.0
C2063 C 0.50243 0.98494 0.95921 0.0
C2064 C 0.48708 0.9855 0.96475 0.0
C2065 C 0.50629 0.98856 0.94457 0.0
C2066 C 0.49944 0.01386 0.91461 0.0
H2067 H 0.53714 0.01004 0.84811 0.0
H2068 H 0.53125 0.00198 0.87347 0.0
H2069 H 0.50334 0.0309 0.89636 0.0
H2070 H 0.46361 0.99005 0.95951 0.0
H2071 H 0.47041 0.9965 0.93396 0.0
H2072 H 0.50294 0.97279 0.91446 0.0
C2073 C 0.52312 0.00738 0.86774 0.0
C2074 C 0.50306 0.01801 0.90006 0.0
C2075 C 0.52667 0.01222 0.85326 0.0
C2076 C 0.47551 0.9895 0.95545 0.0
C2077 C 0.47948 0.99332 0.94089 0.0
C2078 C 0.50309 0.98555 0.91059 0.0
C2079 C 0.50968 0.01004 0.87486 0.0
C2080 C 0.50642 0.00581 0.89048 0.0
C2081 C 0.49495 0.99298 0.93534 0.0
C2082 C 0.49931 0.99754 0.91999 0.0
H2083 H 0.49562 0.02838 0.8472 0.0
H2084 H 0.48887 0.01911 0.87204 0.0
H2085 H 0.50888 0.97977 0.88884 0.0
H2086 H 0.5114 0.98168 0.96618 0.0
H2087 H 0.51835 0.9883 0.94056 0.0
C2088 C 0.14035 0.32512 0.48716 0.0
C2089 C 0.15088 0.31855 0.4952 0.0
C2090 C 0.14324 0.32891 0.4724 0.0
C2091 C 0.16283 0.31681 0.44047 0.0
H2092 H 0.16186 0.36058 0.42423 0.0
C2093 C 0.19064 0.34305 0.38475 0.0
C2094 C 0.17918 0.3466 0.37495 0.0
C2095 C 0.18632 0.33963 0.39929 0.0
C2096 C 0.16198 0.34819 0.42861 0.0
H2097 H 0.17285 0.31102 0.49397 0.0
H2098 H 0.17839 0.3184 0.46862 0.0
H2099 H 0.15628 0.35502 0.4501 0.0
H2100 H 0.15465 0.35002 0.37261 0.0
H2101 H 0.14708 0.34408 0.39821 0.0
H2102 H 0.16894 0.31026 0.41908 0.0
C2103 C 0.16761 0.32023 0.47357 0.0
C2104 C 0.15876 0.34498 0.4434 0.0
C2105 C 0.16465 0.31632 0.48824 0.0
C2106 C 0.16355 0.34709 0.37998 0.0
C2107 C 0.15932 0.34385 0.3946 0.0
C2108 C 0.1662 0.32013 0.42577 0.0
C2109 C 0.15675 0.32626 0.46539 0.0
C2110 C 0.15937 0.32937 0.44954 0.0
C2111 C 0.17059 0.33991 0.40434 0.0
C2112 C 0.16601 0.33595 0.41973 0.0
H2113 H 0.12978 0.32721 0.49222 0.0
H2114 H 0.13456 0.33345 0.46641 0.0
H2115 H 0.16291 0.30435 0.44471 0.0
H2116 H 0.20278 0.34262 0.38112 0.0
H2117 H 0.19537 0.33687 0.40663 0.0
C2118 C 0.69655 0.83575 0.49093 0.0
C2119 C 0.68355 0.8256 0.50109 0.0
C2120 C 0.69119 0.83177 0.47581 0.0
C2121 C 0.65122 0.8152 0.44884 0.0
H2122 H 0.68383 0.80978 0.42207 0.0
C2123 C 0.63755 0.81135 0.38527 0.0
C2124 C 0.65366 0.82272 0.378 0.0
C2125 C 0.63932 0.80789 0.40004 0.0
C2126 C 0.6746 0.81137 0.42937 0.0
H2127 H 0.65479 0.80331 0.50348 0.0
H2128 H 0.64521 0.79662 0.47683 0.0
H2129 H 0.69053 0.81103 0.4486 0.0
H2130 H 0.68418 0.83943 0.38036 0.0
H2131 H 0.68731 0.83369 0.40595 0.0
H2132 H 0.63584 0.81657 0.42968 0.0
C2133 C 0.65959 0.80753 0.48066 0.0
C2134 C 0.67841 0.81199 0.44456 0.0
C2135 C 0.66506 0.81129 0.49584 0.0
C2136 C 0.67151 0.83037 0.38563 0.0
C2137 C 0.6733 0.82698 0.40031 0.0
C2138 C 0.64751 0.8148 0.43361 0.0
C2139 C 0.67264 0.81773 0.47052 0.0
C2140 C 0.66704 0.8144 0.45445 0.0
C2141 C 0.65725 0.81579 0.40777 0.0
C2142 C 0.65948 0.81341 0.42372 0.0
H2143 H 0.71092 0.84675 0.49469 0.0
H2144 H 0.70148 0.83999 0.46824 0.0
H2145 H 0.64229 0.81717 0.45625 0.0
H2146 H 0.62362 0.80528 0.3796 0.0
H2147 H 0.62668 0.79908 0.40542 0.0
C2148 C 0.16629 0.85729 0.4909 0.0
C2149 C 0.15263 0.84121 0.49757 0.0
C2150 C 0.16928 0.85542 0.47612 0.0
C2151 C 0.14667 0.82656 0.44089 0.0
H2152 H 0.19794 0.84887 0.43008 0.0
C2153 C 0.16345 0.81749 0.38109 0.0
C2154 C 0.17866 0.83375 0.37591 0.0
C2155 C 0.16013 0.8175 0.39599 0.0
C2156 C 0.18354 0.84276 0.43287 0.0
H2157 H 0.13135 0.81052 0.49376 0.0
H2158 H 0.13636 0.80741 0.46778 0.0
H2159 H 0.19225 0.85055 0.45594 0.0
H2160 H 0.20239 0.86272 0.38206 0.0
H2161 H 0.19651 0.86298 0.408 0.0
H2162 H 0.13794 0.81918 0.4178 0.0
C2163 C 0.14473 0.82145 0.4741 0.0
C2164 C 0.1803 0.84367 0.4477 0.0
C2165 C 0.14184 0.82326 0.48897 0.0
C2166 C 0.19063 0.84995 0.38583 0.0
C2167 C 0.18728 0.85004 0.4007 0.0
C2168 C 0.14992 0.82579 0.42602 0.0
C2169 C 0.15855 0.83749 0.46756 0.0
C2170 C 0.16185 0.83571 0.45186 0.0
C2171 C 0.17199 0.83381 0.40598 0.0
C2172 C 0.16842 0.83402 0.42182 0.0
H2173 H 0.17455 0.87146 0.49704 0.0
H2174 H 0.1798 0.86813 0.47131 0.0
H2175 H 0.13231 0.82048 0.44378 0.0
H2176 H 0.15419 0.8047 0.37365 0.0
H2177 H 0.14842 0.80465 0.39969 0.0
C2178 C 0.63602 0.80908 0.18286 0.0
C2179 C 0.63827 0.82552 0.176 0.0
C2180 C 0.6401 0.81024 0.19805 0.0
C2181 C 0.64337 0.83684 0.23296 0.0
H2182 H 0.67419 0.81575 0.24734 0.0
C2183 C 0.66789 0.84383 0.29497 0.0
C2184 C 0.66906 0.82812 0.30024 0.0
C2185 C 0.66399 0.84408 0.27988 0.0
C2186 C 0.66532 0.82145 0.24355 0.0
H2187 H 0.6466 0.85613 0.17993 0.0
H2188 H 0.65326 0.85793 0.20662 0.0
H2189 H 0.66776 0.81523 0.22089 0.0
H2190 H 0.66637 0.80004 0.29413 0.0
H2191 H 0.659 0.80011 0.26791 0.0
H2192 H 0.64049 0.8426 0.2556 0.0
C2193 C 0.64835 0.84418 0.2001 0.0
C2194 C 0.66175 0.82124 0.22839 0.0
C2195 C 0.64448 0.84311 0.18483 0.0
C2196 C 0.66577 0.81244 0.29029 0.0
C2197 C 0.66168 0.81257 0.27526 0.0
C2198 C 0.64677 0.83685 0.24817 0.0
C2199 C 0.6463 0.82778 0.20682 0.0
C2200 C 0.65065 0.82881 0.22294 0.0
C2201 C 0.66104 0.82853 0.2698 0.0
C2202 C 0.65768 0.82901 0.25365 0.0
H2203 H 0.63081 0.79516 0.17653 0.0
H2204 H 0.63813 0.79729 0.203 0.0
H2205 H 0.63464 0.84263 0.22902 0.0
H2206 H 0.67044 0.85613 0.30246 0.0
H2207 H 0.66378 0.85669 0.27608 0.0
C2208 C 0.16514 0.80752 0.18296 0.0
C2209 C 0.17917 0.8239 0.17684 0.0
C2210 C 0.16156 0.80875 0.19767 0.0
C2211 C 0.16966 0.84401 0.22957 0.0
H2212 H 0.15849 0.79968 0.25184 0.0
C2213 C 0.16756 0.84599 0.29314 0.0
C2214 C 0.15223 0.82994 0.29843 0.0
C2215 C 0.17073 0.84574 0.27823 0.0
C2216 C 0.16144 0.8121 0.24572 0.0
H2217 H 0.20011 0.85461 0.18141 0.0
H2218 H 0.19435 0.85655 0.20723 0.0
H2219 H 0.16435 0.79845 0.226 0.0
H2220 H 0.12805 0.80118 0.29242 0.0
H2221 H 0.13362 0.80068 0.26634 0.0
H2222 H 0.16711 0.85775 0.24952 0.0
C2223 C 0.18589 0.84281 0.20056 0.0
C2224 C 0.16473 0.8114 0.23089 0.0
C2225 C 0.18937 0.84162 0.18579 0.0
C2226 C 0.13998 0.81373 0.28858 0.0
C2227 C 0.14324 0.8134 0.27371 0.0
C2228 C 0.16654 0.84478 0.24447 0.0
C2229 C 0.17204 0.82633 0.20672 0.0
C2230 C 0.16876 0.82728 0.22258 0.0
C2231 C 0.15868 0.82937 0.26839 0.0
C2232 C 0.16229 0.82878 0.25266 0.0
H2233 H 0.15716 0.79355 0.1765 0.0
H2234 H 0.15056 0.79584 0.20194 0.0
H2235 H 0.17247 0.85641 0.22348 0.0
H2236 H 0.17705 0.85875 0.30053 0.0
H2237 H 0.18278 0.85821 0.27444 0.0
C2238 C 0.1966 0.34804 0.18437 0.0
C2239 C 0.18665 0.35586 0.17714 0.0
C2240 C 0.19429 0.34406 0.19913 0.0
C2241 C 0.17735 0.35673 0.23261 0.0
H2242 H 0.17519 0.31027 0.24641 0.0
C2243 C 0.14813 0.3272 0.28723 0.0
C2244 C 0.15898 0.32231 0.29656 0.0
C2245 C 0.15278 0.33162 0.27289 0.0
C2246 C 0.17598 0.3234 0.24271 0.0
H2247 H 0.16645 0.36561 0.17986 0.0
H2248 H 0.16183 0.35789 0.20523 0.0
H2249 H 0.18069 0.31714 0.22071 0.0
H2250 H 0.18276 0.31759 0.29824 0.0
H2251 H 0.19083 0.32516 0.27292 0.0
H2252 H 0.17207 0.36264 0.25449 0.0
C2253 C 0.17174 0.35521 0.19964 0.0
C2254 C 0.17916 0.32737 0.22802 0.0
C2255 C 0.17415 0.35932 0.18496 0.0
C2256 C 0.17431 0.3215 0.29124 0.0
C2257 C 0.17885 0.32571 0.27679 0.0
C2258 C 0.17398 0.35265 0.2472 0.0
C2259 C 0.18193 0.34774 0.20697 0.0
C2260 C 0.17962 0.34396 0.22275 0.0
C2261 C 0.1682 0.33097 0.26754 0.0
C2262 C 0.17303 0.33584 0.25234 0.0
H2263 H 0.2062 0.34501 0.17864 0.0
H2264 H 0.20245 0.33843 0.20447 0.0
H2265 H 0.17812 0.3699 0.22904 0.0
H2266 H 0.13624 0.32793 0.29111 0.0
H2267 H 0.14422 0.33543 0.26592 0.0
C2268 C 0.81398 0.67297 0.8246 0.0
C2269 C 0.8112 0.65452 0.82747 0.0
C2270 C 0.81546 0.67843 0.81014 0.0
C2271 C 0.8032 0.65803 0.77144 0.0
H2272 H 0.84825 0.70498 0.76291 0.0
C2273 C 0.83179 0.66611 0.71506 0.0
C2274 C 0.84022 0.68433 0.70928 0.0
C2275 C 0.82601 0.66426 0.72927 0.0
C2276 C 0.83538 0.69205 0.76511 0.0
H2277 H 0.80716 0.62711 0.81759 0.0
H2278 H 0.80953 0.63651 0.7924 0.0
H2279 H 0.84182 0.69852 0.78854 0.0
H2280 H 0.84925 0.71497 0.71373 0.0
H2281 H 0.83911 0.71178 0.73879 0.0
H2282 H 0.79688 0.65127 0.7481 0.0
C2283 C 0.81066 0.6468 0.80126 0.0
C2284 C 0.83173 0.68835 0.77978 0.0
C2285 C 0.80949 0.64149 0.81567 0.0
C2286 C 0.84278 0.70075 0.71797 0.0
C2287 C 0.83701 0.69892 0.73229 0.0
C2288 C 0.80675 0.66178 0.75681 0.0
C2289 C 0.81376 0.66534 0.79835 0.0
C2290 C 0.81595 0.67098 0.78304 0.0
C2291 C 0.82856 0.68062 0.73808 0.0
C2292 C 0.82323 0.67846 0.75348 0.0
H2293 H 0.81536 0.68326 0.83356 0.0
H2294 H 0.81786 0.69281 0.80815 0.0
H2295 H 0.79076 0.64468 0.77368 0.0
H2296 H 0.82986 0.65324 0.70867 0.0
H2297 H 0.81996 0.65004 0.73348 0.0
C2298 C 0.32805 0.1473 0.82832 0.0
C2299 C 0.34626 0.16208 0.83378 0.0
C2300 C 0.32281 0.14367 0.81311 0.0
C2301 C 0.34243 0.1487 0.77751 0.0
H2302 H 0.29944 0.15178 0.76148 0.0
C2303 C 0.3362 0.16544 0.718 0.0
C2304 C 0.31844 0.15742 0.71013 0.0
C2305 C 0.33778 0.16242 0.7328 0.0
C2306 C 0.31125 0.15043 0.76574 0.0
H2307 H 0.37337 0.18432 0.82772 0.0
H2308 H 0.36434 0.17777 0.8012 0.0
H2309 H 0.30542 0.15295 0.78819 0.0
H2310 H 0.28836 0.13962 0.71141 0.0
H2311 H 0.29108 0.13401 0.73743 0.0
H2312 H 0.34842 0.14623 0.75522 0.0
C2313 C 0.35408 0.16911 0.80864 0.0
C2314 C 0.31468 0.15117 0.78104 0.0
C2315 C 0.35919 0.17297 0.8238 0.0
C2316 C 0.30222 0.14598 0.71728 0.0
C2317 C 0.3038 0.14287 0.73216 0.0
C2318 C 0.33888 0.1477 0.76225 0.0
C2319 C 0.33585 0.15447 0.80315 0.0
C2320 C 0.33063 0.15091 0.78704 0.0
C2321 C 0.32162 0.1512 0.74013 0.0
C2322 C 0.32361 0.14921 0.75618 0.0
H2323 H 0.31783 0.13874 0.83583 0.0
H2324 H 0.30867 0.1323 0.80912 0.0
H2325 H 0.35466 0.14815 0.78188 0.0
H2326 H 0.34894 0.17453 0.71282 0.0
H2327 H 0.35171 0.16945 0.73861 0.0
C2328 C 0.80387 0.15346 0.81948 0.0
C2329 C 0.8152 0.17108 0.82837 0.0
C2330 C 0.80689 0.15179 0.80463 0.0
C2331 C 0.84314 0.17262 0.77877 0.0
H2332 H 0.8015 0.15296 0.74842 0.0
C2333 C 0.85578 0.18191 0.71761 0.0
C2334 C 0.84327 0.16681 0.70707 0.0
C2335 C 0.85194 0.1814 0.73237 0.0
C2336 C 0.81325 0.15818 0.75675 0.0
H2337 H 0.83837 0.20086 0.82839 0.0
H2338 H 0.84392 0.19766 0.80271 0.0
H2339 H 0.79555 0.15348 0.77438 0.0
H2340 H 0.817 0.13928 0.70355 0.0
H2341 H 0.81042 0.13808 0.72945 0.0
H2342 H 0.86086 0.17714 0.76131 0.0
C2343 C 0.83279 0.18514 0.80728 0.0
C2344 C 0.80982 0.15852 0.77161 0.0
C2345 C 0.82965 0.18691 0.82203 0.0
C2346 C 0.82684 0.15114 0.7115 0.0
C2347 C 0.82304 0.15053 0.72631 0.0
C2348 C 0.84655 0.1721 0.76395 0.0
C2349 C 0.82143 0.1676 0.79843 0.0
C2350 C 0.82478 0.166 0.78274 0.0
C2351 C 0.83558 0.16565 0.73694 0.0
C2352 C 0.8317 0.16515 0.75273 0.0
H2353 H 0.79279 0.14088 0.82401 0.0
H2354 H 0.79803 0.13804 0.79806 0.0
H2355 H 0.85489 0.1782 0.78715 0.0
H2356 H 0.86848 0.19425 0.71443 0.0
H2357 H 0.86171 0.19351 0.74016 0.0
C2358 C 0.30745 0.14612 0.51502 0.0
C2359 C 0.30873 0.16229 0.50832 0.0
C2360 C 0.3113 0.14714 0.53023 0.0
C2361 C 0.31162 0.17178 0.56516 0.0
H2362 H 0.34473 0.15366 0.5801 0.0
C2363 C 0.33425 0.17862 0.62749 0.0
C2364 C 0.33651 0.16354 0.63278 0.0
C2365 C 0.33079 0.17898 0.61235 0.0
C2366 C 0.33522 0.15851 0.57615 0.0
H2367 H 0.31514 0.19227 0.51254 0.0
H2368 H 0.32135 0.19378 0.53925 0.0
H2369 H 0.33902 0.15351 0.5536 0.0
H2370 H 0.33625 0.13667 0.62665 0.0
H2371 H 0.32962 0.13687 0.60031 0.0
H2372 H 0.30736 0.17627 0.58767 0.0
C2373 C 0.3174 0.18037 0.53259 0.0
C2374 C 0.33206 0.15852 0.56096 0.0
C2375 C 0.31378 0.17946 0.51731 0.0
C2376 C 0.33477 0.14857 0.6228 0.0
C2377 C 0.3311 0.14879 0.6077 0.0
C2378 C 0.3146 0.17155 0.58039 0.0
C2379 C 0.31626 0.16424 0.53917 0.0
C2380 C 0.32016 0.16505 0.55532 0.0
C2381 C 0.32935 0.16415 0.60224 0.0
C2382 C 0.32635 0.16479 0.58607 0.0
H2383 H 0.30313 0.13248 0.50856 0.0
H2384 H 0.31004 0.13438 0.53505 0.0
H2385 H 0.30224 0.17673 0.56107 0.0
H2386 H 0.33559 0.19037 0.63501 0.0
H2387 H 0.32972 0.19113 0.60857 0.0
C2388 C 0.86157 0.18186 0.51628 0.0
C2389 C 0.85075 0.16444 0.5071 0.0
C2390 C 0.85881 0.18264 0.53128 0.0
C2391 C 0.83817 0.15034 0.56127 0.0
H2392 H 0.83996 0.19583 0.58099 0.0
C2393 C 0.81019 0.14924 0.61795 0.0
C2394 C 0.82187 0.16481 0.62847 0.0
C2395 C 0.81448 0.14989 0.60329 0.0
C2396 C 0.83959 0.18311 0.57564 0.0
H2397 H 0.82861 0.13412 0.50661 0.0
H2398 H 0.82328 0.13571 0.53243 0.0
H2399 H 0.84597 0.19571 0.55501 0.0
H2400 H 0.84678 0.19352 0.632 0.0
H2401 H 0.85429 0.19473 0.60625 0.0
H2402 H 0.83135 0.13759 0.58181 0.0
C2403 C 0.83417 0.14871 0.52816 0.0
C2404 C 0.84309 0.18305 0.56078 0.0
C2405 C 0.83701 0.14789 0.51325 0.0
C2406 C 0.83768 0.18125 0.62407 0.0
C2407 C 0.84189 0.182 0.60936 0.0
C2408 C 0.83451 0.15034 0.57605 0.0
C2409 C 0.84513 0.16602 0.53741 0.0
C2410 C 0.84223 0.16657 0.55337 0.0
C2411 C 0.83041 0.16623 0.59887 0.0
C2412 C 0.83502 0.16665 0.58334 0.0
H2413 H 0.87215 0.19494 0.5119 0.0
H2414 H 0.8676 0.19619 0.53809 0.0
H2415 H 0.83785 0.13758 0.55605 0.0
H2416 H 0.7979 0.13641 0.62109 0.0
H2417 H 0.80527 0.13763 0.59539 0.0
C2418 C 0.84464 0.68817 0.51864 0.0
C2419 C 0.84716 0.67609 0.50833 0.0
C2420 C 0.84242 0.68392 0.53328 0.0
C2421 C 0.84979 0.65542 0.56119 0.0
H2422 H 0.81657 0.66783 0.58202 0.0
C2423 C 0.82871 0.63757 0.62139 0.0
C2424 C 0.83168 0.65392 0.63043 0.0
C2425 C 0.83089 0.63883 0.60628 0.0
C2426 C 0.82589 0.66431 0.57631 0.0
H2427 H 0.84947 0.65014 0.50521 0.0
H2428 H 0.84501 0.64225 0.53088 0.0
H2429 H 0.81888 0.67192 0.55579 0.0
H2430 H 0.8395 0.68442 0.63093 0.0
H2431 H 0.84296 0.68649 0.60456 0.0
H2432 H 0.8564 0.64745 0.58191 0.0
C2433 C 0.84509 0.65525 0.52767 0.0
C2434 C 0.82733 0.66675 0.56132 0.0
C2435 C 0.84757 0.65968 0.51298 0.0
C2436 C 0.8372 0.67161 0.62422 0.0
C2437 C 0.83908 0.67278 0.60914 0.0
C2438 C 0.84811 0.65268 0.57621 0.0
C2439 C 0.84239 0.66729 0.53798 0.0
C2440 C 0.83965 0.66282 0.55362 0.0
C2441 C 0.83572 0.65637 0.60002 0.0
C2442 C 0.83645 0.65753 0.58393 0.0
H2443 H 0.84469 0.70115 0.5154 0.0
H2444 H 0.84095 0.69386 0.54096 0.0
H2445 H 0.85951 0.65237 0.55565 0.0
H2446 H 0.82447 0.62379 0.62597 0.0
H2447 H 0.82821 0.62599 0.5994 0.0
loop_
_geom_bond_atom_site_label_1
_geom_bond_atom_site_label_2
_geom_bond_distance
_geom_bond_site_symmetry_2
_ccdc_geom_bond_type
C0 C1 1.384 . S
C0 H13 0.947 . S
C0 C35 1.382 . S
C1 C0 1.384 . S
C1 C2 1.378 . S
C2 C1 1.378 . S
C2 C3 1.378 . S
C2 H14 0.952 . S
C3 C2 1.378 . S
C3 H15 0.950 . S
C3 C34 1.383 . S
H4 C23 0.947 . S
H5 C24 0.946 . S
H6 C26 0.953 . S
H7 C27 0.945 . S
H8 C29 0.952 . S
H9 C30 0.949 . S
H10 C32 0.950 . S
H11 C33 0.948 . S
H12 C35 0.951 . S
H13 C0 0.947 . S
H14 C2 0.952 . S
H15 C3 0.950 . S
N16 C19 1.382 . S
N16 C21 1.363 . S
N17 C19 1.371 . S
N17 C20 1.372 . S
N18 C20 1.361 . S
N18 C21 1.377 . S
C19 N16 1.382 . S
C19 N17 1.371 . S
C19 C22 1.480 . S
C20 N17 1.372 . S
C20 N18 1.361 . S
C20 C28 1.457 . S
C21 N16 1.363 . S
C21 N18 1.377 . S
C21 C34 1.479 . S
C22 C19 1.480 . S
C22 C23 1.383 . S
C22 C27 1.385 . S
C23 H4 0.947 . S
C23 C22 1.383 . S
C23 C24 1.388 . S
C24 H5 0.946 . S
C24 C23 1.388 . S
C24 C25 1.384 . S
C25 C24 1.384 . S
C25 C26 1.377 . S
C26 H6 0.953 . S
C26 C25 1.377 . S
C26 C27 1.369 . S
C27 H7 0.945 . S
C27 C22 1.385 . S
C27 C26 1.369 . S
C28 C20 1.457 . S
C28 C29 1.372 . S
C28 C33 1.364 . S
C29 H8 0.952 . S
C29 C28 1.372 . S
C29 C30 1.389 . S
C30 H9 0.949 . S
C30 C29 1.389 . S
C30 C31 1.387 . S
C31 C30 1.387 . S
C31 C32 1.372 . S
C32 H10 0.950 . S
C32 C31 1.372 . S
C32 C33 1.379 . S
C33 H11 0.948 . S
C33 C28 1.364 . S
C33 C32 1.379 . S
C34 C3 1.383 . S
C34 C21 1.479 . S
C34 C35 1.398 . S
C35 C0 1.382 . S
C35 H12 0.951 . S
C35 C34 1.398 . S
C36 C37 1.384 . S
C36 H49 0.947 . S
C36 C71 1.382 . S
C37 C36 1.384 . S
C37 C38 1.378 . S
C38 C37 1.378 . S
C38 C39 1.378 . S
C38 H50 0.952 . S
C39 C38 1.378 . S
C39 H51 0.950 . S
C39 C70 1.383 . S
H40 C59 0.947 . S
H41 C60 0.946 . S
H42 C62 0.953 . S
H43 C63 0.945 . S
H44 C65 0.952 . S
H45 C66 0.949 . S
H46 C68 0.950 . S
H47 C69 0.948 . S
H48 C71 0.951 . S
H49 C36 0.947 . S
H50 C38 0.952 . S
H51 C39 0.950 . S
N52 C55 1.382 . S
N52 C57 1.363 . S
N53 C55 1.371 . S
N53 C56 1.372 . S
N54 C56 1.361 . S
N54 C57 1.377 . S
C55 N52 1.382 . S
C55 N53 1.371 . S
C55 C58 1.480 . S
C56 N53 1.372 . S
C56 N54 1.361 . S
C56 C64 1.457 . S
C57 N52 1.363 . S
C57 N54 1.377 . S
C57 C70 1.479 . S
C58 C55 1.480 . S
C58 C59 1.383 . S
C58 C63 1.385 . S
C59 H40 0.947 . S
C59 C58 1.383 . S
C59 C60 1.388 . S
C60 H41 0.946 . S
C60 C59 1.388 . S
C60 C61 1.384 . S
C61 C60 1.384 . S
C61 C62 1.377 . S
C62 H42 0.953 . S
C62 C61 1.377 . S
C62 C63 1.369 . S
C63 H43 0.945 . S
C63 C58 1.385 . S
C63 C62 1.369 . S
C64 C56 1.457 . S
C64 C65 1.372 . S
C64 C69 1.364 . S
C65 H44 0.952 . S
C65 C64 1.372 . S
C65 C66 1.389 . S
C66 H45 0.949 . S
C66 C65 1.389 . S
C66 C67 1.387 . S
C67 C66 1.387 . S
C67 C68 1.372 . S
C68 H46 0.950 . S
C68 C67 1.372 . S
C68 C69 1.379 . S
C69 H47 0.948 . S
C69 C64 1.364 . S
C69 C68 1.379 . S
C70 C39 1.383 . S
C70 C57 1.479 . S
C70 C71 1.398 . S
C71 C36 1.382 . S
C71 H48 0.951 . S
C71 C70 1.398 . S
C72 C73 1.384 . S
C72 H85 0.947 . S
C72 C107 1.382 . S
C73 C72 1.384 . S
C73 C74 1.378 . S
C74 C73 1.378 . S
C74 C75 1.378 . S
C74 H86 0.952 . S
C75 C74 1.378 . S
C75 H87 0.950 . S
C75 C106 1.383 . S
H76 C95 0.947 . S
H77 C96 0.946 . S
H78 C98 0.953 . S
H79 C99 0.945 . S
H80 C101 0.952 . S
H81 C102 0.949 . S
H82 C104 0.950 . S
H83 C105 0.948 . S
H84 C107 0.951 . S
H85 C72 0.947 . S
H86 C74 0.952 . S
H87 C75 0.950 . S
N88 C91 1.382 . S
N88 C93 1.363 . S
N89 C91 1.371 . S
N89 C92 1.372 . S
N90 C92 1.361 . S
N90 C93 1.377 . S
C91 N88 1.382 . S
C91 N89 1.371 . S
C91 C94 1.480 . S
C92 N89 1.372 . S
C92 N90 1.361 . S
C92 C100 1.457 . S
C93 N88 1.363 . S
C93 N90 1.377 . S
C93 C106 1.479 . S
C94 C91 1.480 . S
C94 C95 1.383 . S
C94 C99 1.385 . S
C95 H76 0.947 . S
C95 C94 1.383 . S
C95 C96 1.388 . S
C96 H77 0.946 . S
C96 C95 1.388 . S
C96 C97 1.384 . S
C97 C96 1.384 . S
C97 C98 1.377 . S
C98 H78 0.953 . S
C98 C97 1.377 . S
C98 C99 1.369 . S
C99 H79 0.945 . S
C99 C94 1.385 . S
C99 C98 1.369 . S
C100 C92 1.457 . S
C100 C101 1.372 . S
C100 C105 1.364 . S
C101 H80 0.952 . S
C101 C100 1.372 . S
C101 C102 1.389 . S
C102 H81 0.949 . S
C102 C101 1.389 . S
C102 C103 1.387 . S
C103 C102 1.387 . S
C103 C104 1.372 . S
C104 H82 0.950 . S
C104 C103 1.372 . S
C104 C105 1.379 . S
C105 H83 0.948 . S
C105 C100 1.364 . S
C105 C104 1.379 . S
C106 C75 1.383 . S
C106 C93 1.479 . S
C106 C107 1.398 . S
C107 C72 1.382 . S
C107 H84 0.951 . S
C107 C106 1.398 . S
C108 C109 1.384 . S
C108 H121 0.947 . S
C108 C143 1.382 . S
C109 C108 1.384 . S
C109 C110 1.378 . S
C110 C109 1.378 . S
C110 C111 1.378 . S
C110 H122 0.952 . S
C111 C110 1.378 . S
C111 H123 0.950 . S
C111 C142 1.383 . S
H112 C131 0.947 . S
H113 C132 0.946 . S
H114 C134 0.953 . S
H115 C135 0.945 . S
H116 C137 0.952 . S
H117 C138 0.949 . S
H118 C140 0.950 . S
H119 C141 0.948 . S
H120 C143 0.951 . S
H121 C108 0.947 . S
H122 C110 0.952 . S
H123 C111 0.950 . S
N124 C127 1.382 . S
N124 C129 1.363 . S
N125 C127 1.371 . S
N125 C128 1.372 . S
N126 C128 1.361 . S
N126 C129 1.377 . S
C127 N124 1.382 . S
C127 N125 1.371 . S
C127 C130 1.480 . S
C128 N125 1.372 . S
C128 N126 1.361 . S
C128 C136 1.457 . S
C129 N124 1.363 . S
C129 N126 1.377 . S
C129 C142 1.479 . S
C130 C127 1.480 . S
C130 C131 1.383 . S
C130 C135 1.385 . S
C131 H112 0.947 . S
C131 C130 1.383 . S
C131 C132 1.388 . S
C132 H113 0.946 . S
C132 C131 1.388 . S
C132 C133 1.384 . S
C133 C132 1.384 . S
C133 C134 1.377 . S
C134 H114 0.953 . S
C134 C133 1.377 . S
C134 C135 1.369 . S
C135 H115 0.945 . S
C135 C130 1.385 . S
C135 C134 1.369 . S
C136 C128 1.457 . S
C136 C137 1.372 . S
C136 C141 1.364 . S
C137 H116 0.952 . S
C137 C136 1.372 . S
C137 C138 1.389 . S
C138 H117 0.949 . S
C138 C137 1.389 . S
C138 C139 1.387 . S
C139 C138 1.387 . S
C139 C140 1.372 . S
C140 H118 0.950 . S
C140 C139 1.372 . S
C140 C141 1.379 . S
C141 H119 0.948 . S
C141 C136 1.364 . S
C141 C140 1.379 . S
C142 C111 1.383 . S
C142 C129 1.479 . S
C142 C143 1.398 . S
C143 C108 1.382 . S
C143 H120 0.951 . S
C143 C142 1.398 . S
C144 C145 1.384 . S
C144 H157 0.947 . S
C144 C179 1.382 . S
C145 C144 1.384 . S
C145 C146 1.378 . S
C146 C145 1.378 . S
C146 C147 1.378 . S
C146 H158 0.952 . S
C147 C146 1.378 . S
C147 H159 0.950 . S
C147 C178 1.383 . S
H148 C167 0.947 . S
H149 C168 0.946 . S
H150 C170 0.953 . S
H151 C171 0.945 . S
H152 C173 0.952 . S
H153 C174 0.949 . S
H154 C176 0.950 . S
H155 C177 0.948 . S
H156 C179 0.951 . S
H157 C144 0.947 . S
H158 C146 0.952 . S
H159 C147 0.950 . S
N160 C163 1.382 . S
N160 C165 1.363 . S
N161 C163 1.371 . S
N161 C164 1.372 . S
N162 C164 1.361 . S
N162 C165 1.377 . S
C163 N160 1.382 . S
C163 N161 1.371 . S
C163 C166 1.480 . S
C164 N161 1.372 . S
C164 N162 1.361 . S
C164 C172 1.457 . S
C165 N160 1.363 . S
C165 N162 1.377 . S
C165 C178 1.479 . S
C166 C163 1.480 . S
C166 C167 1.383 . S
C166 C171 1.385 . S
C167 H148 0.947 . S
C167 C166 1.383 . S
C167 C168 1.388 . S
C168 H149 0.946 . S
C168 C167 1.388 . S
C168 C169 1.384 . S
C169 C168 1.384 . S
C169 C170 1.377 . S
C170 H150 0.953 . S
C170 C169 1.377 . S
C170 C171 1.369 . S
C171 H151 0.945 . S
C171 C166 1.385 . S
C171 C170 1.369 . S
C172 C164 1.457 . S
C172 C173 1.372 . S
C172 C177 1.364 . S
C173 H152 0.952 . S
C173 C172 1.372 . S
C173 C174 1.389 . S
C174 H153 0.949 . S
C174 C173 1.389 . S
C174 C175 1.387 . S
C175 C174 1.387 . S
C175 C176 1.372 . S
C176 H154 0.950 . S
C176 C175 1.372 . S
C176 C177 1.379 . S
C177 H155 0.948 . S
C177 C172 1.364 . S
C177 C176 1.379 . S
C178 C147 1.383 . S
C178 C165 1.479 . S
C178 C179 1.398 . S
C179 C144 1.382 . S
C179 H156 0.951 . S
C179 C178 1.398 . S
C180 C181 1.384 . S
C180 H193 0.947 . S
C180 C215 1.382 . S
C181 C180 1.384 . S
C181 C182 1.378 . S
C182 C181 1.378 . S
C182 C183 1.378 . S
C182 H194 0.952 . S
C183 C182 1.378 . S
C183 H195 0.950 . S
C183 C214 1.383 . S
H184 C203 0.947 . S
H185 C204 0.946 . S
H186 C206 0.953 . S
H187 C207 0.945 . S
H188 C209 0.952 . S
H189 C210 0.949 . S
H190 C212 0.950 . S
H191 C213 0.948 . S
H192 C215 0.951 . S
H193 C180 0.947 . S
H194 C182 0.952 . S
H195 C183 0.950 . S
N196 C199 1.382 . S
N196 C201 1.363 . S
N197 C199 1.371 . S
N197 C200 1.372 . S
N198 C200 1.361 . S
N198 C201 1.377 . S
C199 N196 1.382 . S
C199 N197 1.371 . S
C199 C202 1.480 . S
C200 N197 1.372 . S
C200 N198 1.361 . S
C200 C208 1.457 . S
C201 N196 1.363 . S
C201 N198 1.377 . S
C201 C214 1.479 . S
C202 C199 1.480 . S
C202 C203 1.383 . S
C202 C207 1.385 . S
C203 H184 0.947 . S
C203 C202 1.383 . S
C203 C204 1.388 . S
C204 H185 0.946 . S
C204 C203 1.388 . S
C204 C205 1.384 . S
C205 C204 1.384 . S
C205 C206 1.377 . S
C206 H186 0.953 . S
C206 C205 1.377 . S
C206 C207 1.369 . S
C207 H187 0.945 . S
C207 C202 1.385 . S
C207 C206 1.369 . S
C208 C200 1.457 . S
C208 C209 1.372 . S
C208 C213 1.364 . S
C209 H188 0.952 . S
C209 C208 1.372 . S
C209 C210 1.389 . S
C210 H189 0.949 . S
C210 C209 1.389 . S
C210 C211 1.387 . S
C211 C210 1.387 . S
C211 C212 1.372 . S
C212 H190 0.950 . S
C212 C211 1.372 . S
C212 C213 1.379 . S
C213 H191 0.948 . S
C213 C208 1.364 . S
C213 C212 1.379 . S
C214 C183 1.383 . S
C214 C201 1.479 . S
C214 C215 1.398 . S
C215 C180 1.382 . S
C215 H192 0.951 . S
C215 C214 1.398 . S
C216 C217 1.384 . S
C216 H229 0.947 . S
C216 C251 1.382 . S
C217 C216 1.384 . S
C217 C218 1.378 . S
C218 C217 1.378 . S
C218 C219 1.378 . S
C218 H230 0.952 . S
C219 C218 1.378 . S
C219 H231 0.950 . S
C219 C250 1.383 . S
H220 C239 0.947 . S
H221 C240 0.946 . S
H222 C242 0.953 . S
H223 C243 0.945 . S
H224 C245 0.952 . S
H225 C246 0.949 . S
H226 C248 0.950 . S
H227 C249 0.948 . S
H228 C251 0.951 . S
H229 C216 0.947 . S
H230 C218 0.952 . S
H231 C219 0.950 . S
N232 C235 1.382 . S
N232 C237 1.363 . S
N233 C235 1.371 . S
N233 C236 1.372 . S
N234 C236 1.361 . S
N234 C237 1.377 . S
C235 N232 1.382 . S
C235 N233 1.371 . S
C235 C238 1.480 . S
C236 N233 1.372 . S
C236 N234 1.361 . S
C236 C244 1.457 . S
C237 N232 1.363 . S
C237 N234 1.377 . S
C237 C250 1.479 . S
C238 C235 1.480 . S
C238 C239 1.383 . S
C238 C243 1.385 . S
C239 H220 0.947 . S
C239 C238 1.383 . S
C239 C240 1.388 . S
C240 H221 0.946 . S
C240 C239 1.388 . S
C240 C241 1.384 . S
C241 C240 1.384 . S
C241 C242 1.377 . S
C242 H222 0.953 . S
C242 C241 1.377 . S
C242 C243 1.369 . S
C243 H223 0.945 . S
C243 C238 1.385 . S
C243 C242 1.369 . S
C244 C236 1.457 . S
C244 C245 1.372 . S
C244 C249 1.364 . S
C245 H224 0.952 . S
C245 C244 1.372 . S
C245 C246 1.389 . S
C246 H225 0.949 . S
C246 C245 1.389 . S
C246 C247 1.387 . S
C247 C246 1.387 . S
C247 C248 1.372 . S
C248 H226 0.950 . S
C248 C247 1.372 . S
C248 C249 1.379 . S
C249 H227 0.948 . S
C249 C244 1.364 . S
C249 C248 1.379 . S
C250 C219 1.383 . S
C250 C237 1.479 . S
C250 C251 1.398 . S
C251 C216 1.382 . S
C251 H228 0.951 . S
C251 C250 1.398 . S
C252 C253 1.384 . S
C252 H265 0.947 . S
C252 C287 1.382 . S
C253 C252 1.384 . S
C253 C254 1.378 . S
C254 C253 1.378 . S
C254 C255 1.378 . S
C254 H266 0.952 . S
C255 C254 1.378 . S
C255 H267 0.950 . S
C255 C286 1.383 . S
H256 C275 0.947 . S
H257 C276 0.946 . S
H258 C278 0.953 . S
H259 C279 0.945 . S
H260 C281 0.952 . S
H261 C282 0.949 . S
H262 C284 0.950 . S
H263 C285 0.948 . S
H264 C287 0.951 . S
H265 C252 0.947 . S
H266 C254 0.952 . S
H267 C255 0.950 . S
N268 C271 1.382 . S
N268 C273 1.363 . S
N269 C271 1.371 . S
N269 C272 1.372 . S
N270 C272 1.361 . S
N270 C273 1.377 . S
C271 N268 1.382 . S
C271 N269 1.371 . S
C271 C274 1.480 . S
C272 N269 1.372 . S
C272 N270 1.361 . S
C272 C280 1.457 . S
C273 N268 1.363 . S
C273 N270 1.377 . S
C273 C286 1.479 . S
C274 C271 1.480 . S
C274 C275 1.383 . S
C274 C279 1.385 . S
C275 H256 0.947 . S
C275 C274 1.383 . S
C275 C276 1.388 . S
C276 H257 0.946 . S
C276 C275 1.388 . S
C276 C277 1.384 . S
C277 C276 1.384 . S
C277 C278 1.377 . S
C278 H258 0.953 . S
C278 C277 1.377 . S
C278 C279 1.369 . S
C279 H259 0.945 . S
C279 C274 1.385 . S
C279 C278 1.369 . S
C280 C272 1.457 . S
C280 C281 1.372 . S
C280 C285 1.364 . S
C281 H260 0.952 . S
C281 C280 1.372 . S
C281 C282 1.389 . S
C282 H261 0.949 . S
C282 C281 1.389 . S
C282 C283 1.387 . S
C283 C282 1.387 . S
C283 C284 1.372 . S
C284 H262 0.950 . S
C284 C283 1.372 . S
C284 C285 1.379 . S
C285 H263 0.948 . S
C285 C280 1.364 . S
C285 C284 1.379 . S
C286 C255 1.383 . S
C286 C273 1.479 . S
C286 C287 1.398 . S
C287 C252 1.382 . S
C287 H264 0.951 . S
C287 C286 1.398 . S
C288 C289 1.384 . S
C288 H301 0.947 . S
C288 C323 1.382 . S
C289 C288 1.384 . S
C289 C290 1.378 . S
C290 C289 1.378 . S
C290 C291 1.378 . S
C290 H302 0.952 . S
C291 C290 1.378 . S
C291 H303 0.950 . S
C291 C322 1.383 . S
H292 C311 0.947 . S
H293 C312 0.946 . S
H294 C314 0.953 . S
H295 C315 0.945 . S
H296 C317 0.952 . S
H297 C318 0.949 . S
H298 C320 0.950 . S
H299 C321 0.948 . S
H300 C323 0.951 . S
H301 C288 0.947 . S
H302 C290 0.952 . S
H303 C291 0.950 . S
N304 C307 1.382 . S
N304 C309 1.363 . S
N305 C307 1.371 . S
N305 C308 1.372 . S
N306 C308 1.361 . S
N306 C309 1.377 . S
C307 N304 1.382 . S
C307 N305 1.371 . S
C307 C310 1.480 . S
C308 N305 1.372 . S
C308 N306 1.361 . S
C308 C316 1.457 . S
C309 N304 1.363 . S
C309 N306 1.377 . S
C309 C322 1.479 . S
C310 C307 1.480 . S
C310 C311 1.383 . S
C310 C315 1.385 . S
C311 H292 0.947 . S
C311 C310 1.383 . S
C311 C312 1.388 . S
C312 H293 0.946 . S
C312 C311 1.388 . S
C312 C313 1.384 . S
C313 C312 1.384 . S
C313 C314 1.377 . S
C314 H294 0.953 . S
C314 C313 1.377 . S
C314 C315 1.369 . S
C315 H295 0.945 . S
C315 C310 1.385 . S
C315 C314 1.369 . S
C316 C308 1.457 . S
C316 C317 1.372 . S
C316 C321 1.364 . S
C317 H296 0.952 . S
C317 C316 1.372 . S
C317 C318 1.389 . S
C318 H297 0.949 . S
C318 C317 1.389 . S
C318 C319 1.387 . S
C319 C318 1.387 . S
C319 C320 1.372 . S
C320 H298 0.950 . S
C320 C319 1.372 . S
C320 C321 1.379 . S
C321 H299 0.948 . S
C321 C316 1.364 . S
C321 C320 1.379 . S
C322 C291 1.383 . S
C322 C309 1.479 . S
C322 C323 1.398 . S
C323 C288 1.382 . S
C323 H300 0.951 . S
C323 C322 1.398 . S
C324 C325 1.384 . S
C324 H337 0.947 . S
C324 C359 1.382 . S
C325 C324 1.384 . S
C325 C326 1.378 . S
C326 C325 1.378 . S
C326 C327 1.378 . S
C326 H338 0.952 . S
C327 C326 1.378 . S
C327 H339 0.950 . S
C327 C358 1.383 . S
H328 C347 0.947 . S
H329 C348 0.946 . S
H330 C350 0.953 . S
H331 C351 0.945 . S
H332 C353 0.952 . S
H333 C354 0.949 . S
H334 C356 0.950 . S
H335 C357 0.948 . S
H336 C359 0.951 . S
H337 C324 0.947 . S
H338 C326 0.952 . S
H339 C327 0.950 . S
N340 C343 1.382 . S
N340 C345 1.363 . S
N341 C343 1.371 . S
N341 C344 1.372 . S
N342 C344 1.361 . S
N342 C345 1.377 . S
C343 N340 1.382 . S
C343 N341 1.371 . S
C343 C346 1.480 . S
C344 N341 1.372 . S
C344 N342 1.361 . S
C344 C352 1.457 . S
C345 N340 1.363 . S
C345 N342 1.377 . S
C345 C358 1.479 . S
C346 C343 1.480 . S
C346 C347 1.383 . S
C346 C351 1.385 . S
C347 H328 0.947 . S
C347 C346 1.383 . S
C347 C348 1.388 . S
C348 H329 0.946 . S
C348 C347 1.388 . S
C348 C349 1.384 . S
C349 C348 1.384 . S
C349 C350 1.377 . S
C350 H330 0.953 . S
C350 C349 1.377 . S
C350 C351 1.369 . S
C351 H331 0.945 . S
C351 C346 1.385 . S
C351 C350 1.369 . S
C352 C344 1.457 . S
C352 C353 1.372 . S
C352 C357 1.364 . S
C353 H332 0.952 . S
C353 C352 1.372 . S
C353 C354 1.389 . S
C354 H333 0.949 . S
C354 C353 1.389 . S
C354 C355 1.387 . S
C355 C354 1.387 . S
C355 C356 1.372 . S
C356 H334 0.950 . S
C356 C355 1.372 . S
C356 C357 1.379 . S
C357 H335 0.948 . S
C357 C352 1.364 . S
C357 C356 1.379 . S
C358 C327 1.383 . S
C358 C345 1.479 . S
C358 C359 1.398 . S
C359 C324 1.382 . S
C359 H336 0.951 . S
C359 C358 1.398 . S
C360 C361 1.384 . S
C360 H373 0.947 . S
C360 C395 1.382 . S
C361 C360 1.384 . S
C361 C362 1.378 . S
C362 C361 1.378 . S
C362 C363 1.378 . S
C362 H374 0.952 . S
C363 C362 1.378 . S
C363 H375 0.950 . S
C363 C394 1.383 . S
H364 C383 0.947 . S
H365 C384 0.946 . S
H366 C386 0.953 . S
H367 C387 0.945 . S
H368 C389 0.952 . S
H369 C390 0.949 . S
H370 C392 0.950 . S
H371 C393 0.948 . S
H372 C395 0.951 . S
H373 C360 0.947 . S
H374 C362 0.952 . S
H375 C363 0.950 . S
N376 C379 1.382 . S
N376 C381 1.363 . S
N377 C379 1.371 . S
N377 C380 1.372 . S
N378 C380 1.361 . S
N378 C381 1.377 . S
C379 N376 1.382 . S
C379 N377 1.371 . S
C379 C382 1.480 . S
C380 N377 1.372 . S
C380 N378 1.361 . S
C380 C388 1.457 . S
C381 N376 1.363 . S
C381 N378 1.377 . S
C381 C394 1.479 . S
C382 C379 1.480 . S
C382 C383 1.383 . S
C382 C387 1.385 . S
C383 H364 0.947 . S
C383 C382 1.383 . S
C383 C384 1.388 . S
C384 H365 0.946 . S
C384 C383 1.388 . S
C384 C385 1.384 . S
C385 C384 1.384 . S
C385 C386 1.377 . S
C386 H366 0.953 . S
C386 C385 1.377 . S
C386 C387 1.369 . S
C387 H367 0.945 . S
C387 C382 1.385 . S
C387 C386 1.369 . S
C388 C380 1.457 . S
C388 C389 1.372 . S
C388 C393 1.364 . S
C389 H368 0.952 . S
C389 C388 1.372 . S
C389 C390 1.389 . S
C390 H369 0.949 . S
C390 C389 1.389 . S
C390 C391 1.387 . S
C391 C390 1.387 . S
C391 C392 1.372 . S
C392 H370 0.950 . S
C392 C391 1.372 . S
C392 C393 1.379 . S
C393 H371 0.948 . S
C393 C388 1.364 . S
C393 C392 1.379 . S
C394 C363 1.383 . S
C394 C381 1.479 . S
C394 C395 1.398 . S
C395 C360 1.382 . S
C395 H372 0.951 . S
C395 C394 1.398 . S
C396 C397 1.384 . S
C396 H409 0.947 . S
C396 C431 1.382 . S
C397 C396 1.384 . S
C397 C398 1.378 . S
C398 C397 1.378 . S
C398 C399 1.378 . S
C398 H410 0.952 . S
C399 C398 1.378 . S
C399 H411 0.950 . S
C399 C430 1.383 . S
H400 C419 0.947 . S
H401 C420 0.946 . S
H402 C422 0.953 . S
H403 C423 0.945 . S
H404 C425 0.952 . S
H405 C426 0.949 . S
H406 C428 0.950 . S
H407 C429 0.948 . S
H408 C431 0.951 . S
H409 C396 0.947 . S
H410 C398 0.952 . S
H411 C399 0.950 . S
N412 C415 1.382 . S
N412 C417 1.363 . S
N413 C415 1.371 . S
N413 C416 1.372 . S
N414 C416 1.361 . S
N414 C417 1.377 . S
C415 N412 1.382 . S
C415 N413 1.371 . S
C415 C418 1.480 . S
C416 N413 1.372 . S
C416 N414 1.361 . S
C416 C424 1.457 . S
C417 N412 1.363 . S
C417 N414 1.377 . S
C417 C430 1.479 . S
C418 C415 1.480 . S
C418 C419 1.383 . S
C418 C423 1.385 . S
C419 H400 0.947 . S
C419 C418 1.383 . S
C419 C420 1.388 . S
C420 H401 0.946 . S
C420 C419 1.388 . S
C420 C421 1.384 . S
C421 C420 1.384 . S
C421 C422 1.377 . S
C422 H402 0.953 . S
C422 C421 1.377 . S
C422 C423 1.369 . S
C423 H403 0.945 . S
C423 C418 1.385 . S
C423 C422 1.369 . S
C424 C416 1.457 . S
C424 C425 1.372 . S
C424 C429 1.364 . S
C425 H404 0.952 . S
C425 C424 1.372 . S
C425 C426 1.389 . S
C426 H405 0.949 . S
C426 C425 1.389 . S
C426 C427 1.387 . S
C427 C426 1.387 . S
C427 C428 1.372 . S
C428 H406 0.950 . S
C428 C427 1.372 . S
C428 C429 1.379 . S
C429 H407 0.948 . S
C429 C424 1.364 . S
C429 C428 1.379 . S
C430 C399 1.383 . S
C430 C417 1.479 . S
C430 C431 1.398 . S
C431 C396 1.382 . S
C431 H408 0.951 . S
C431 C430 1.398 . S
C432 C433 1.384 . S
C432 H445 0.947 . S
C432 C467 1.382 . S
C433 C432 1.384 . S
C433 C434 1.378 . S
C434 C433 1.378 . S
C434 C435 1.378 . S
C434 H446 0.952 . S
C435 C434 1.378 . S
C435 H447 0.950 . S
C435 C466 1.383 . S
H436 C455 0.947 . S
H437 C456 0.946 . S
H438 C458 0.953 . S
H439 C459 0.945 . S
H440 C461 0.952 . S
H441 C462 0.949 . S
H442 C464 0.950 . S
H443 C465 0.948 . S
H444 C467 0.951 . S
H445 C432 0.947 . S
H446 C434 0.952 . S
H447 C435 0.950 . S
N448 C451 1.382 . S
N448 C453 1.363 . S
N449 C451 1.371 . S
N449 C452 1.372 . S
N450 C452 1.361 . S
N450 C453 1.377 . S
C451 N448 1.382 . S
C451 N449 1.371 . S
C451 C454 1.480 . S
C452 N449 1.372 . S
C452 N450 1.361 . S
C452 C460 1.457 . S
C453 N448 1.363 . S
C453 N450 1.377 . S
C453 C466 1.479 . S
C454 C451 1.480 . S
C454 C455 1.383 . S
C454 C459 1.385 . S
C455 H436 0.947 . S
C455 C454 1.383 . S
C455 C456 1.388 . S
C456 H437 0.946 . S
C456 C455 1.388 . S
C456 C457 1.384 . S
C457 C456 1.384 . S
C457 C458 1.377 . S
C458 H438 0.953 . S
C458 C457 1.377 . S
C458 C459 1.369 . S
C459 H439 0.945 . S
C459 C454 1.385 . S
C459 C458 1.369 . S
C460 C452 1.457 . S
C460 C461 1.372 . S
C460 C465 1.364 . S
C461 H440 0.952 . S
C461 C460 1.372 . S
C461 C462 1.389 . S
C462 H441 0.949 . S
C462 C461 1.389 . S
C462 C463 1.387 . S
C463 C462 1.387 . S
C463 C464 1.372 . S
C464 H442 0.950 . S
C464 C463 1.372 . S
C464 C465 1.379 . S
C465 H443 0.948 . S
C465 C460 1.364 . S
C465 C464 1.379 . S
C466 C435 1.383 . S
C466 C453 1.479 . S
C466 C467 1.398 . S
C467 C432 1.382 . S
C467 H444 0.951 . S
C467 C466 1.398 . S
C468 C469 1.384 . S
C468 H481 0.947 . S
C468 C503 1.382 . S
C469 C468 1.384 . S
C469 C470 1.378 . S
C470 C469 1.378 . S
C470 C471 1.378 . S
C470 H482 0.952 . S
C471 C470 1.378 . S
C471 H483 0.950 . S
C471 C502 1.383 . S
H472 C491 0.947 . S
H473 C492 0.946 . S
H474 C494 0.953 . S
H475 C495 0.945 . S
H476 C497 0.952 . S
H477 C498 0.949 . S
H478 C500 0.950 . S
H479 C501 0.948 . S
H480 C503 0.951 . S
H481 C468 0.947 . S
H482 C470 0.952 . S
H483 C471 0.950 . S
N484 C487 1.382 . S
N484 C489 1.363 . S
N485 C487 1.371 . S
N485 C488 1.372 . S
N486 C488 1.361 . S
N486 C489 1.377 . S
C487 N484 1.382 . S
C487 N485 1.371 . S
C487 C490 1.480 . S
C488 N485 1.372 . S
C488 N486 1.361 . S
C488 C496 1.457 . S
C489 N484 1.363 . S
C489 N486 1.377 . S
C489 C502 1.479 . S
C490 C487 1.480 . S
C490 C491 1.383 . S
C490 C495 1.385 . S
C491 H472 0.947 . S
C491 C490 1.383 . S
C491 C492 1.388 . S
C492 H473 0.946 . S
C492 C491 1.388 . S
C492 C493 1.384 . S
C493 C492 1.384 . S
C493 C494 1.377 . S
C494 H474 0.953 . S
C494 C493 1.377 . S
C494 C495 1.369 . S
C495 H475 0.945 . S
C495 C490 1.385 . S
C495 C494 1.369 . S
C496 C488 1.457 . S
C496 C497 1.372 . S
C496 C501 1.364 . S
C497 H476 0.952 . S
C497 C496 1.372 . S
C497 C498 1.389 . S
C498 H477 0.949 . S
C498 C497 1.389 . S
C498 C499 1.387 . S
C499 C498 1.387 . S
C499 C500 1.372 . S
C500 H478 0.950 . S
C500 C499 1.372 . S
C500 C501 1.379 . S
C501 H479 0.948 . S
C501 C496 1.364 . S
C501 C500 1.379 . S
C502 C471 1.383 . S
C502 C489 1.479 . S
C502 C503 1.398 . S
C503 C468 1.382 . S
C503 H480 0.951 . S
C503 C502 1.398 . S
C504 C505 1.384 . S
C504 H517 0.947 . S
C504 C539 1.382 . S
C505 C504 1.384 . S
C505 C506 1.378 . S
C506 C505 1.378 . S
C506 C507 1.378 . S
C506 H518 0.952 . S
C507 C506 1.378 . S
C507 H519 0.950 . S
C507 C538 1.383 . S
H508 C527 0.947 . S
H509 C528 0.946 . S
H510 C530 0.953 . S
H511 C531 0.945 . S
H512 C533 0.952 . S
H513 C534 0.949 . S
H514 C536 0.950 . S
H515 C537 0.948 . S
H516 C539 0.951 . S
H517 C504 0.947 . S
H518 C506 0.952 . S
H519 C507 0.950 . S
N520 C523 1.382 . S
N520 C525 1.363 . S
N521 C523 1.371 . S
N521 C524 1.372 . S
N522 C524 1.361 . S
N522 C525 1.377 . S
C523 N520 1.382 . S
C523 N521 1.371 . S
C523 C526 1.480 . S
C524 N521 1.372 . S
C524 N522 1.361 . S
C524 C532 1.457 . S
C525 N520 1.363 . S
C525 N522 1.377 . S
C525 C538 1.479 . S
C526 C523 1.480 . S
C526 C527 1.383 . S
C526 C531 1.385 . S
C527 H508 0.947 . S
C527 C526 1.383 . S
C527 C528 1.388 . S
C528 H509 0.946 . S
C528 C527 1.388 . S
C528 C529 1.384 . S
C529 C528 1.384 . S
C529 C530 1.377 . S
C530 H510 0.953 . S
C530 C529 1.377 . S
C530 C531 1.369 . S
C531 H511 0.945 . S
C531 C526 1.385 . S
C531 C530 1.369 . S
C532 C524 1.457 . S
C532 C533 1.372 . S
C532 C537 1.364 . S
C533 H512 0.952 . S
C533 C532 1.372 . S
C533 C534 1.389 . S
C534 H513 0.949 . S
C534 C533 1.389 . S
C534 C535 1.387 . S
C535 C534 1.387 . S
C535 C536 1.372 . S
C536 H514 0.950 . S
C536 C535 1.372 . S
C536 C537 1.379 . S
C537 H515 0.948 . S
C537 C532 1.364 . S
C537 C536 1.379 . S
C538 C507 1.383 . S
C538 C525 1.479 . S
C538 C539 1.398 . S
C539 C504 1.382 . S
C539 H516 0.951 . S
C539 C538 1.398 . S
C540 C541 1.384 . S
C540 H553 0.947 . S
C540 C575 1.382 . S
C541 C540 1.384 . S
C541 C542 1.378 . S
C542 C541 1.378 . S
C542 C543 1.378 . S
C542 H554 0.952 . S
C543 C542 1.378 . S
C543 H555 0.950 . S
C543 C574 1.383 . S
H544 C563 0.947 . S
H545 C564 0.946 . S
H546 C566 0.953 . S
H547 C567 0.945 . S
H548 C569 0.952 . S
H549 C570 0.949 . S
H550 C572 0.950 . S
H551 C573 0.948 . S
H552 C575 0.951 . S
H553 C540 0.947 . S
H554 C542 0.952 . S
H555 C543 0.950 . S
N556 C559 1.382 . S
N556 C561 1.363 . S
N557 C559 1.371 . S
N557 C560 1.372 . S
N558 C560 1.361 . S
N558 C561 1.377 . S
C559 N556 1.382 . S
C559 N557 1.371 . S
C559 C562 1.480 . S
C560 N557 1.372 . S
C560 N558 1.361 . S
C560 C568 1.457 . S
C561 N556 1.363 . S
C561 N558 1.377 . S
C561 C574 1.479 . S
C562 C559 1.480 . S
C562 C563 1.383 . S
C562 C567 1.385 . S
C563 H544 0.947 . S
C563 C562 1.383 . S
C563 C564 1.388 . S
C564 H545 0.946 . S
C564 C563 1.388 . S
C564 C565 1.384 . S
C565 C564 1.384 . S
C565 C566 1.377 . S
C566 H546 0.953 . S
C566 C565 1.377 . S
C566 C567 1.369 . S
C567 H547 0.945 . S
C567 C562 1.385 . S
C567 C566 1.369 . S
C568 C560 1.457 . S
C568 C569 1.372 . S
C568 C573 1.364 . S
C569 H548 0.952 . S
C569 C568 1.372 . S
C569 C570 1.389 . S
C570 H549 0.949 . S
C570 C569 1.389 . S
C570 C571 1.387 . S
C571 C570 1.387 . S
C571 C572 1.372 . S
C572 H550 0.950 . S
C572 C571 1.372 . S
C572 C573 1.379 . S
C573 H551 0.948 . S
C573 C568 1.364 . S
C573 C572 1.379 . S
C574 C543 1.383 . S
C574 C561 1.479 . S
C574 C575 1.398 . S
C575 C540 1.382 . S
C575 H552 0.951 . S
C575 C574 1.398 . S
C576 C577 1.384 . S
C576 H589 0.947 . S
C576 C611 1.382 . S
C577 C576 1.384 . S
C577 C578 1.378 . S
C578 C577 1.378 . S
C578 C579 1.378 . S
C578 H590 0.952 . S
C579 C578 1.378 . S
C579 H591 0.950 . S
C579 C610 1.383 . S
H580 C599 0.947 . S
H581 C600 0.946 . S
H582 C602 0.953 . S
H583 C603 0.945 . S
H584 C605 0.952 . S
H585 C606 0.949 . S
H586 C608 0.950 . S
H587 C609 0.948 . S
H588 C611 0.951 . S
H589 C576 0.947 . S
H590 C578 0.952 . S
H591 C579 0.950 . S
N592 C595 1.382 . S
N592 C597 1.363 . S
N593 C595 1.371 . S
N593 C596 1.372 . S
N594 C596 1.361 . S
N594 C597 1.377 . S
C595 N592 1.382 . S
C595 N593 1.371 . S
C595 C598 1.480 . S
C596 N593 1.372 . S
C596 N594 1.361 . S
C596 C604 1.457 . S
C597 N592 1.363 . S
C597 N594 1.377 . S
C597 C610 1.479 . S
C598 C595 1.480 . S
C598 C599 1.383 . S
C598 C603 1.385 . S
C599 H580 0.947 . S
C599 C598 1.383 . S
C599 C600 1.388 . S
C600 H581 0.946 . S
C600 C599 1.388 . S
C600 C601 1.384 . S
C601 C600 1.384 . S
C601 C602 1.377 . S
C602 H582 0.953 . S
C602 C601 1.377 . S
C602 C603 1.369 . S
C603 H583 0.945 . S
C603 C598 1.385 . S
C603 C602 1.369 . S
C604 C596 1.457 . S
C604 C605 1.372 . S
C604 C609 1.364 . S
C605 H584 0.952 . S
C605 C604 1.372 . S
C605 C606 1.389 . S
C606 H585 0.949 . S
C606 C605 1.389 . S
C606 C607 1.387 . S
C607 C606 1.387 . S
C607 C608 1.372 . S
C608 H586 0.950 . S
C608 C607 1.372 . S
C608 C609 1.379 . S
C609 H587 0.948 . S
C609 C604 1.364 . S
C609 C608 1.379 . S
C610 C579 1.383 . S
C610 C597 1.479 . S
C610 C611 1.398 . S
C611 C576 1.382 . S
C611 H588 0.951 . S
C611 C610 1.398 . S
C612 C613 1.384 . S
C612 H625 0.947 . S
C612 C647 1.382 . S
C613 C612 1.384 . S
C613 C614 1.378 . S
C614 C613 1.378 . S
C614 C615 1.378 . S
C614 H626 0.952 . S
C615 C614 1.378 . S
C615 H627 0.950 . S
C615 C646 1.383 . S
H616 C635 0.947 . S
H617 C636 0.946 . S
H618 C638 0.953 . S
H619 C639 0.945 . S
H620 C641 0.952 . S
H621 C642 0.949 . S
H622 C644 0.950 . S
H623 C645 0.948 . S
H624 C647 0.951 . S
H625 C612 0.947 . S
H626 C614 0.952 . S
H627 C615 0.950 . S
N628 C631 1.382 . S
N628 C633 1.363 . S
N629 C631 1.371 . S
N629 C632 1.372 . S
N630 C632 1.361 . S
N630 C633 1.377 . S
C631 N628 1.382 . S
C631 N629 1.371 . S
C631 C634 1.480 . S
C632 N629 1.372 . S
C632 N630 1.361 . S
C632 C640 1.457 . S
C633 N628 1.363 . S
C633 N630 1.377 . S
C633 C646 1.479 . S
C634 C631 1.480 . S
C634 C635 1.383 . S
C634 C639 1.385 . S
C635 H616 0.947 . S
C635 C634 1.383 . S
C635 C636 1.388 . S
C636 H617 0.946 . S
C636 C635 1.388 . S
C636 C637 1.384 . S
C637 C636 1.384 . S
C637 C638 1.377 . S
C638 H618 0.953 . S
C638 C637 1.377 . S
C638 C639 1.369 . S
C639 H619 0.945 . S
C639 C634 1.385 . S
C639 C638 1.369 . S
C640 C632 1.457 . S
C640 C641 1.372 . S
C640 C645 1.364 . S
C641 H620 0.952 . S
C641 C640 1.372 . S
C641 C642 1.389 . S
C642 H621 0.949 . S
C642 C641 1.389 . S
C642 C643 1.387 . S
C643 C642 1.387 . S
C643 C644 1.372 . S
C644 H622 0.950 . S
C644 C643 1.372 . S
C644 C645 1.379 . S
C645 H623 0.948 . S
C645 C640 1.364 . S
C645 C644 1.379 . S
C646 C615 1.383 . S
C646 C633 1.479 . S
C646 C647 1.398 . S
C647 C612 1.382 . S
C647 H624 0.951 . S
C647 C646 1.398 . S
Tb648 O651 2.453 . S
Tb648 O652 2.596 1_545 S
Tb648 O653 2.374 1_545 S
Tb648 O661 2.343 1_554 S
Tb648 O663 2.353 . S
Tb648 O665 2.427 1_554 S
Tb648 O666 2.513 1_554 S
C649 O653 1.251 . S
C649 O655 1.263 . S
Tb650 O652 2.343 1_556 S
Tb650 O655 2.353 1_556 S
Tb650 O658 2.427 1_556 S
Tb650 O659 2.513 1_556 S
Tb650 O660 2.453 . S
Tb650 O661 2.596 1_565 S
Tb650 O662 2.374 1_565 S
O651 Tb648 2.453 . S
O651 C667 1.245 . S
O652 Tb648 2.596 1_565 S
O652 Tb650 2.343 1_554 S
O652 C667 1.259 1_565 S
O653 Tb648 2.374 1_565 S
O653 C649 1.251 . S
C654 O658 1.275 . S
C654 O659 1.246 . S
O655 C649 1.263 . S
O655 Tb650 2.353 1_554 S
C656 O660 1.253 . S
C656 O661 1.258 1_565 S
C657 O662 1.250 . S
C657 O663 1.263 1_556 S
O658 Tb650 2.427 1_554 S
O658 C654 1.275 . S
O659 Tb650 2.513 1_554 S
O659 C654 1.246 . S
O660 Tb650 2.453 . S
O660 C656 1.253 . S
O661 Tb648 2.343 1_556 S
O661 Tb650 2.596 1_545 S
O661 C656 1.258 1_545 S
O662 Tb650 2.374 1_545 S
O662 C657 1.250 . S
O663 Tb648 2.353 . S
O663 C657 1.263 1_554 S
C664 O665 1.275 . S
C664 O666 1.246 . S
O665 Tb648 2.427 1_556 S
O665 C664 1.275 . S
O666 Tb648 2.513 1_556 S
O666 C664 1.246 . S
C667 O651 1.245 . S
C667 O652 1.259 1_545 S
Tb668 O671 2.453 . S
Tb668 O672 2.596 1_655 S
Tb668 O673 2.374 1_655 S
Tb668 O681 2.343 1_554 S
Tb668 O683 2.353 . S
Tb668 O685 2.427 1_554 S
Tb668 O686 2.513 1_554 S
C669 O673 1.251 . S
C669 O675 1.263 . S
Tb670 O672 2.343 1_556 S
Tb670 O675 2.353 1_556 S
Tb670 O678 2.427 1_556 S
Tb670 O679 2.513 1_556 S
Tb670 O680 2.453 . S
Tb670 O681 2.596 1_455 S
Tb670 O682 2.374 1_455 S
O671 Tb668 2.453 . S
O671 C687 1.245 1_655 S
O672 Tb668 2.596 1_455 S
O672 Tb670 2.343 1_554 S
O672 C687 1.259 . S
O673 Tb668 2.374 1_455 S
O673 C669 1.251 . S
C674 O678 1.275 . S
C674 O679 1.246 . S
O675 C669 1.263 . S
O675 Tb670 2.353 1_554 S
C676 O680 1.245 . S
C676 O681 1.259 1_455 S
C677 O682 1.250 . S
C677 O683 1.263 1_556 S
O678 Tb670 2.427 1_554 S
O678 C674 1.275 . S
O679 Tb670 2.513 1_554 S
O679 C674 1.246 . S
O680 Tb670 2.453 . S
O680 C676 1.245 . S
O681 Tb668 2.343 1_556 S
O681 Tb670 2.596 1_655 S
O681 C676 1.259 1_655 S
O682 Tb670 2.374 1_655 S
O682 C677 1.250 . S
O683 Tb668 2.353 . S
O683 C677 1.263 1_554 S
C684 O685 1.275 . S
C684 O686 1.246 . S
O685 Tb668 2.427 1_556 S
O685 C684 1.275 . S
O686 Tb668 2.513 1_556 S
O686 C684 1.246 . S
C687 O671 1.245 1_455 S
C687 O672 1.259 . S
Tb688 O691 2.453 . S
Tb688 O692 2.596 . S
Tb688 O693 2.374 . S
Tb688 O701 2.343 1_556 S
Tb688 O703 2.353 1_556 S
Tb688 O705 2.427 1_556 S
Tb688 O706 2.513 1_556 S
C689 O693 1.251 . S
C689 O695 1.263 1_556 S
Tb690 O692 2.343 1_554 S
Tb690 O695 2.353 . S
Tb690 O698 2.427 1_554 S
Tb690 O699 2.513 1_554 S
Tb690 O700 2.453 . S
Tb690 O701 2.596 . S
Tb690 O702 2.374 . S
O691 Tb688 2.453 . S
O691 C707 1.245 . S
O692 Tb688 2.596 . S
O692 Tb690 2.343 1_556 S
O692 C707 1.259 . S
O693 Tb688 2.374 . S
O693 C689 1.251 . S
C694 O698 1.275 . S
C694 O699 1.246 . S
O695 C689 1.263 1_554 S
O695 Tb690 2.353 . S
C696 O700 1.245 . S
C696 O701 1.259 . S
C697 O702 1.250 . S
C697 O703 1.263 . S
O698 Tb690 2.427 1_556 S
O698 C694 1.275 . S
O699 Tb690 2.513 1_556 S
O699 C694 1.246 . S
O700 Tb690 2.453 . S
O700 C696 1.245 . S
O701 Tb688 2.343 1_554 S
O701 Tb690 2.596 . S
O701 C696 1.259 . S
O702 Tb690 2.374 . S
O702 C697 1.250 . S
O703 Tb688 2.353 1_554 S
O703 C697 1.263 . S
C704 O705 1.275 . S
C704 O706 1.246 . S
O705 Tb688 2.427 1_554 S
O705 C704 1.275 . S
O706 Tb688 2.513 1_554 S
O706 C704 1.246 . S
C707 O691 1.245 . S
C707 O692 1.259 . S
Tb708 O711 2.453 . S
Tb708 O712 2.596 . S
Tb708 O713 2.374 . S
Tb708 O721 2.343 . S
Tb708 O723 2.353 . S
Tb708 O725 2.427 . S
Tb708 O726 2.513 . S
C709 O713 1.251 . S
C709 O715 1.263 . S
Tb710 O712 2.343 . S
Tb710 O715 2.353 . S
Tb710 O718 2.427 . S
Tb710 O719 2.513 . S
Tb710 O720 2.453 . S
Tb710 O721 2.596 . S
Tb710 O722 2.374 . S
O711 Tb708 2.453 . S
O711 C727 1.245 . S
O712 Tb708 2.596 . S
O712 Tb710 2.343 . S
O712 C727 1.259 . S
O713 Tb708 2.374 . S
O713 C709 1.251 . S
C714 O718 1.275 . S
C714 O719 1.246 . S
O715 C709 1.263 . S
O715 Tb710 2.353 . S
C716 O720 1.245 . S
C716 O721 1.259 . S
C717 O722 1.250 . S
C717 O723 1.263 . S
O718 Tb710 2.427 . S
O718 C714 1.275 . S
O719 Tb710 2.513 . S
O719 C714 1.246 . S
O720 Tb710 2.453 . S
O720 C716 1.245 . S
O721 Tb708 2.343 . S
O721 Tb710 2.596 . S
O721 C716 1.259 . S
O722 Tb710 2.374 . S
O722 C717 1.250 . S
O723 Tb708 2.353 . S
O723 C717 1.263 . S
C724 O725 1.275 . S
C724 O726 1.246 . S
O725 Tb708 2.427 . S
O725 C724 1.275 . S
O726 Tb708 2.513 . S
O726 C724 1.246 . S
C727 O711 1.245 . S
C727 O712 1.259 . S
Tb728 O731 2.453 . S
Tb728 O732 2.596 . S
Tb728 O733 2.374 . S
Tb728 O741 2.343 . S
Tb728 O743 2.353 . S
Tb728 O745 2.427 . S
Tb728 O746 2.513 . S
C729 O733 1.251 . S
C729 O735 1.263 . S
Tb730 O732 2.343 . S
Tb730 O735 2.353 . S
Tb730 O738 2.427 . S
Tb730 O739 2.513 . S
Tb730 O740 2.453 . S
Tb730 O741 2.596 . S
Tb730 O742 2.374 . S
O731 Tb728 2.453 . S
O731 C747 1.245 . S
O732 Tb728 2.596 . S
O732 Tb730 2.343 . S
O732 C747 1.259 . S
O733 Tb728 2.374 . S
O733 C729 1.251 . S
C734 O738 1.275 . S
C734 O739 1.246 . S
O735 C729 1.263 . S
O735 Tb730 2.353 . S
C736 O740 1.245 . S
C736 O741 1.259 . S
C737 O742 1.250 . S
C737 O743 1.263 . S
O738 Tb730 2.427 . S
O738 C734 1.275 . S
O739 Tb730 2.513 . S
O739 C734 1.246 . S
O740 Tb730 2.453 . S
O740 C736 1.245 . S
O741 Tb728 2.343 . S
O741 Tb730 2.596 . S
O741 C736 1.259 . S
O742 Tb730 2.374 . S
O742 C737 1.250 . S
O743 Tb728 2.353 . S
O743 C737 1.263 . S
C744 O745 1.275 . S
C744 O746 1.246 . S
O745 Tb728 2.427 . S
O745 C744 1.275 . S
O746 Tb728 2.513 . S
O746 C744 1.246 . S
C747 O731 1.245 . S
C747 O732 1.259 . S
Tb748 O751 2.453 . S
Tb748 O752 2.596 . S
Tb748 O753 2.374 . S
Tb748 O761 2.343 . S
Tb748 O763 2.353 . S
Tb748 O765 2.427 . S
Tb748 O766 2.513 . S
C749 O753 1.251 . S
C749 O755 1.263 . S
Tb750 O752 2.343 . S
Tb750 O755 2.353 . S
Tb750 O758 2.427 . S
Tb750 O759 2.513 . S
Tb750 O760 2.453 . S
Tb750 O761 2.596 . S
Tb750 O762 2.374 . S
O751 Tb748 2.453 . S
O751 C767 1.245 . S
O752 Tb748 2.596 . S
O752 Tb750 2.343 . S
O752 C767 1.259 . S
O753 Tb748 2.374 . S
O753 C749 1.251 . S
C754 O758 1.275 . S
C754 O759 1.246 . S
O755 C749 1.263 . S
O755 Tb750 2.353 . S
C756 O760 1.245 . S
C756 O761 1.259 . S
C757 O762 1.250 . S
C757 O763 1.263 . S
O758 Tb750 2.427 . S
O758 C754 1.275 . S
O759 Tb750 2.513 . S
O759 C754 1.246 . S
O760 Tb750 2.453 . S
O760 C756 1.245 . S
O761 Tb748 2.343 . S
O761 Tb750 2.596 . S
O761 C756 1.259 . S
O762 Tb750 2.374 . S
O762 C757 1.250 . S
O763 Tb748 2.353 . S
O763 C757 1.263 . S
C764 O765 1.275 . S
C764 O766 1.246 . S
O765 Tb748 2.427 . S
O765 C764 1.275 . S
O766 Tb748 2.513 . S
O766 C764 1.246 . S
C767 O751 1.245 . S
C767 O752 1.259 . S
Tb768 O771 2.453 . S
Tb768 O772 2.596 . S
Tb768 O773 2.374 . S
Tb768 O781 2.343 . S
Tb768 O783 2.353 . S
Tb768 O785 2.427 . S
Tb768 O786 2.513 . S
C769 O773 1.251 . S
C769 O775 1.263 . S
Tb770 O772 2.343 . S
Tb770 O775 2.353 . S
Tb770 O778 2.427 . S
Tb770 O779 2.513 . S
Tb770 O780 2.453 . S
Tb770 O781 2.596 . S
Tb770 O782 2.374 . S
O771 Tb768 2.453 . S
O771 C787 1.245 . S
O772 Tb768 2.596 . S
O772 Tb770 2.343 . S
O772 C787 1.259 . S
O773 Tb768 2.374 . S
O773 C769 1.251 . S
C774 O778 1.275 . S
C774 O779 1.246 . S
O775 C769 1.263 . S
O775 Tb770 2.353 . S
C776 O780 1.245 . S
C776 O781 1.259 . S
C777 O782 1.250 . S
C777 O783 1.263 . S
O778 Tb770 2.427 . S
O778 C774 1.275 . S
O779 Tb770 2.513 . S
O779 C774 1.246 . S
O780 Tb770 2.453 . S
O780 C776 1.245 . S
O781 Tb768 2.343 . S
O781 Tb770 2.596 . S
O781 C776 1.259 . S
O782 Tb770 2.374 . S
O782 C777 1.250 . S
O783 Tb768 2.353 . S
O783 C777 1.263 . S
C784 O785 1.275 . S
C784 O786 1.246 . S
O785 Tb768 2.427 . S
O785 C784 1.275 . S
O786 Tb768 2.513 . S
O786 C784 1.246 . S
C787 O771 1.245 . S
C787 O772 1.259 . S
Tb788 O791 2.453 . S
Tb788 O792 2.596 . S
Tb788 O793 2.374 . S
Tb788 O801 2.343 . S
Tb788 O803 2.353 . S
Tb788 O805 2.427 . S
Tb788 O806 2.513 . S
C789 O793 1.251 . S
C789 O795 1.263 . S
Tb790 O792 2.343 . S
Tb790 O795 2.353 . S
Tb790 O798 2.427 . S
Tb790 O799 2.513 . S
Tb790 O800 2.453 . S
Tb790 O801 2.596 . S
Tb790 O802 2.374 . S
O791 Tb788 2.453 . S
O791 C807 1.245 . S
O792 Tb788 2.596 . S
O792 Tb790 2.343 . S
O792 C807 1.259 . S
O793 Tb788 2.374 . S
O793 C789 1.251 . S
C794 O798 1.275 . S
C794 O799 1.246 . S
O795 C789 1.263 . S
O795 Tb790 2.353 . S
C796 O800 1.245 . S
C796 O801 1.259 . S
C797 O802 1.250 . S
C797 O803 1.263 . S
O798 Tb790 2.427 . S
O798 C794 1.275 . S
O799 Tb790 2.513 . S
O799 C794 1.246 . S
O800 Tb790 2.453 . S
O800 C796 1.245 . S
O801 Tb788 2.343 . S
O801 Tb790 2.596 . S
O801 C796 1.259 . S
O802 Tb790 2.374 . S
O802 C797 1.250 . S
O803 Tb788 2.353 . S
O803 C797 1.263 . S
C804 O805 1.275 . S
C804 O806 1.246 . S
O805 Tb788 2.427 . S
O805 C804 1.275 . S
O806 Tb788 2.513 . S
O806 C804 1.246 . S
C807 O791 1.245 . S
C807 O792 1.259 . S
Tb808 O811 2.453 . S
Tb808 O812 2.596 . S
Tb808 O813 2.374 . S
Tb808 O821 2.343 . S
Tb808 O823 2.353 . S
Tb808 O825 2.427 . S
Tb808 O826 2.513 . S
C809 O813 1.251 . S
C809 O815 1.263 . S
Tb810 O812 2.343 . S
Tb810 O815 2.353 . S
Tb810 O818 2.427 . S
Tb810 O819 2.513 . S
Tb810 O820 2.453 . S
Tb810 O821 2.596 . S
Tb810 O822 2.374 . S
O811 Tb808 2.453 . S
O811 C827 1.245 . S
O812 Tb808 2.596 . S
O812 Tb810 2.343 . S
O812 C827 1.259 . S
O813 Tb808 2.374 . S
O813 C809 1.251 . S
C814 O818 1.275 . S
C814 O819 1.246 . S
O815 C809 1.263 . S
O815 Tb810 2.353 . S
C816 O820 1.245 . S
C816 O821 1.259 . S
C817 O822 1.250 . S
C817 O823 1.263 . S
O818 Tb810 2.427 . S
O818 C814 1.275 . S
O819 Tb810 2.513 . S
O819 C814 1.246 . S
O820 Tb810 2.453 . S
O820 C816 1.245 . S
O821 Tb808 2.343 . S
O821 Tb810 2.596 . S
O821 C816 1.259 . S
O822 Tb810 2.374 . S
O822 C817 1.250 . S
O823 Tb808 2.353 . S
O823 C817 1.263 . S
C824 O825 1.275 . S
C824 O826 1.246 . S
O825 Tb808 2.427 . S
O825 C824 1.275 . S
O826 Tb808 2.513 . S
O826 C824 1.246 . S
C827 O811 1.245 . S
C827 O812 1.259 . S
C828 C829 1.349 . S
C828 C830 1.327 . S
C828 H853 0.950 . S
C829 C828 1.349 . S
C829 C845 1.349 . S
C830 C828 1.327 . S
C830 C849 1.429 . S
C830 H854 0.950 . S
C831 C848 1.574 . S
C831 C850 1.368 . S
C831 H855 0.949 . S
H832 C836 0.949 . S
C833 C834 1.349 . S
C833 C835 1.327 . S
C833 H856 0.950 . S
C834 C833 1.349 . S
C834 C846 1.349 . S
C835 C833 1.327 . S
C835 C851 1.429 . S
C835 H857 0.950 . S
C836 H832 0.949 . S
C836 C844 1.574 . S
C836 C852 1.368 . S
H837 C845 0.950 . S
H838 C843 0.950 . S
H839 C844 0.949 . S
H840 C846 0.950 . S
H841 C847 0.950 . S
H842 C848 0.949 . S
C843 H838 0.950 . S
C843 C845 1.327 . S
C843 C849 1.429 . S
C844 C836 1.574 . S
C844 H839 0.949 . S
C844 C850 1.368 . S
C845 C829 1.349 . S
C845 H837 0.950 . S
C845 C843 1.327 . S
C846 C834 1.349 . S
C846 H840 0.950 . S
C846 C847 1.327 . S
C847 H841 0.950 . S
C847 C846 1.327 . S
C847 C851 1.429 . S
C848 C831 1.574 . S
C848 H842 0.949 . S
C848 C852 1.368 . S
C849 C830 1.429 . S
C849 C843 1.429 . S
C849 C850 1.523 . S
C850 C831 1.368 . S
C850 C844 1.368 . S
C850 C849 1.523 . S
C851 C835 1.429 . S
C851 C847 1.429 . S
C851 C852 1.523 . S
C852 C836 1.368 . S
C852 C848 1.368 . S
C852 C851 1.523 . S
H853 C828 0.950 . S
H854 C830 0.950 . S
H855 C831 0.949 . S
H856 C833 0.950 . S
H857 C835 0.950 . S
C858 C859 1.349 . S
C858 C860 1.327 . S
C858 H883 0.950 . S
C859 C858 1.349 . S
C859 C875 1.349 . S
C860 C858 1.327 . S
C860 C879 1.429 . S
C860 H884 0.950 . S
C861 C878 1.574 . S
C861 C880 1.368 . S
C861 H885 0.949 . S
H862 C866 0.949 . S
C863 C864 1.349 . S
C863 C865 1.327 . S
C863 H886 0.950 . S
C864 C863 1.349 . S
C864 C876 1.349 . S
C865 C863 1.327 . S
C865 C881 1.429 . S
C865 H887 0.950 . S
C866 H862 0.949 . S
C866 C874 1.574 . S
C866 C882 1.368 . S
H867 C875 0.950 . S
H868 C873 0.950 . S
H869 C874 0.949 . S
H870 C876 0.950 . S
H871 C877 0.950 . S
H872 C878 0.949 . S
C873 H868 0.950 . S
C873 C875 1.327 . S
C873 C879 1.429 . S
C874 C866 1.574 . S
C874 H869 0.949 . S
C874 C880 1.368 . S
C875 C859 1.349 . S
C875 H867 0.950 . S
C875 C873 1.327 . S
C876 C864 1.349 . S
C876 H870 0.950 . S
C876 C877 1.327 . S
C877 H871 0.950 . S
C877 C876 1.327 . S
C877 C881 1.429 . S
C878 C861 1.574 . S
C878 H872 0.949 . S
C878 C882 1.368 . S
C879 C860 1.429 . S
C879 C873 1.429 . S
C879 C880 1.523 . S
C880 C861 1.368 . S
C880 C874 1.368 . S
C880 C879 1.523 . S
C881 C865 1.429 . S
C881 C877 1.429 . S
C881 C882 1.523 . S
C882 C866 1.368 . S
C882 C878 1.368 . S
C882 C881 1.523 . S
H883 C858 0.950 . S
H884 C860 0.950 . S
H885 C861 0.949 . S
H886 C863 0.950 . S
H887 C865 0.950 . S
C888 C889 1.349 . S
C888 C890 1.327 . S
C888 H913 0.950 . S
C889 C888 1.349 . S
C889 C905 1.349 . S
C890 C888 1.327 . S
C890 C909 1.429 . S
C890 H914 0.950 . S
C891 C908 1.574 . S
C891 C910 1.368 . S
C891 H915 0.949 . S
H892 C896 0.949 . S
C893 C894 1.349 . S
C893 C895 1.327 . S
C893 H916 0.950 . S
C894 C893 1.349 . S
C894 C906 1.349 . S
C895 C893 1.327 . S
C895 C911 1.429 . S
C895 H917 0.950 . S
C896 H892 0.949 . S
C896 C904 1.574 . S
C896 C912 1.368 . S
H897 C905 0.950 . S
H898 C903 0.950 . S
H899 C904 0.949 . S
H900 C906 0.947 . S
H901 C907 0.950 . S
H902 C908 0.949 . S
C903 H898 0.950 . S
C903 C905 1.327 . S
C903 C909 1.429 . S
C904 C896 1.574 . S
C904 H899 0.949 . S
C904 C910 1.368 . S
C905 C889 1.349 . S
C905 H897 0.950 . S
C905 C903 1.327 . S
C906 C894 1.349 . S
C906 H900 0.947 . S
C906 C907 1.327 . S
C907 H901 0.950 . S
C907 C906 1.327 . S
C907 C911 1.429 . S
C908 C891 1.574 . S
C908 H902 0.949 . S
C908 C912 1.368 . S
C909 C890 1.429 . S
C909 C903 1.429 . S
C909 C910 1.523 . S
C910 C891 1.368 . S
C910 C904 1.368 . S
C910 C909 1.523 . S
C911 C895 1.429 . S
C911 C907 1.429 . S
C911 C912 1.523 . S
C912 C896 1.368 . S
C912 C908 1.368 . S
C912 C911 1.523 . S
H913 C888 0.950 . S
H914 C890 0.950 . S
H915 C891 0.949 . S
H916 C893 0.950 . S
H917 C895 0.950 . S
C918 C919 1.349 . S
C918 C920 1.327 . S
C918 H943 0.950 . S
C919 C918 1.349 . S
C919 C935 1.349 . S
C920 C918 1.327 . S
C920 C939 1.429 . S
C920 H944 0.950 . S
C921 C938 1.574 . S
C921 C940 1.368 . S
C921 H945 0.949 . S
H922 C926 0.949 . S
C923 C924 1.349 . S
C923 C925 1.327 . S
C923 H946 0.950 . S
C924 C923 1.349 . S
C924 C936 1.349 . S
C925 C923 1.327 . S
C925 C941 1.429 . S
C925 H947 0.950 . S
C926 H922 0.949 . S
C926 C934 1.574 . S
C926 C942 1.368 . S
H927 C935 0.950 . S
H928 C933 0.950 . S
H929 C934 0.949 . S
H930 C936 0.950 1_554 S
H931 C937 0.950 . S
H932 C938 0.949 . S
C933 H928 0.950 . S
C933 C935 1.327 . S
C933 C939 1.429 . S
C934 C926 1.574 . S
C934 H929 0.949 . S
C934 C940 1.368 . S
C935 C919 1.349 . S
C935 H927 0.950 . S
C935 C933 1.327 . S
C936 C924 1.349 . S
C936 H930 0.950 1_556 S
C936 C937 1.327 . S
C937 H931 0.950 . S
C937 C936 1.327 . S
C937 C941 1.429 . S
C938 C921 1.574 . S
C938 H932 0.949 . S
C938 C942 1.368 . S
C939 C920 1.429 . S
C939 C933 1.429 . S
C939 C940 1.523 . S
C940 C921 1.368 . S
C940 C934 1.368 . S
C940 C939 1.523 . S
C941 C925 1.429 . S
C941 C937 1.429 . S
C941 C942 1.523 . S
C942 C926 1.368 . S
C942 C938 1.368 . S
C942 C941 1.523 . S
H943 C918 0.950 . S
H944 C920 0.950 . S
H945 C921 0.949 . S
H946 C923 0.950 . S
H947 C925 0.950 . S
C948 C949 1.349 . S
C948 C950 1.327 . S
C948 H973 0.950 . S
C949 C948 1.349 . S
C949 C965 1.349 . S
C950 C948 1.327 . S
C950 C969 1.429 . S
C950 H974 0.950 . S
C951 C968 1.574 . S
C951 C970 1.368 . S
C951 H975 0.949 . S
H952 C956 0.949 . S
C953 C954 1.349 . S
C953 C955 1.327 . S
C953 H976 0.950 . S
C954 C953 1.349 . S
C954 C966 1.349 . S
C955 C953 1.327 . S
C955 C971 1.429 . S
C955 H977 0.950 . S
C956 H952 0.949 . S
C956 C964 1.574 . S
C956 C972 1.368 . S
H957 C965 0.950 . S
H958 C963 0.950 . S
H959 C964 0.949 . S
H960 C966 0.950 . S
H961 C967 0.950 . S
H962 C968 0.949 . S
C963 H958 0.950 . S
C963 C965 1.327 . S
C963 C969 1.429 . S
C964 C956 1.574 . S
C964 H959 0.949 . S
C964 C970 1.368 . S
C965 C949 1.349 . S
C965 H957 0.950 . S
C965 C963 1.327 . S
C966 C954 1.349 . S
C966 H960 0.950 . S
C966 C967 1.327 . S
C967 H961 0.950 . S
C967 C966 1.327 . S
C967 C971 1.429 . S
C968 C951 1.574 . S
C968 H962 0.949 . S
C968 C972 1.368 . S
C969 C950 1.429 . S
C969 C963 1.429 . S
C969 C970 1.523 . S
C970 C951 1.368 . S
C970 C964 1.368 . S
C970 C969 1.523 . S
C971 C955 1.429 . S
C971 C967 1.429 . S
C971 C972 1.523 . S
C972 C956 1.368 . S
C972 C968 1.368 . S
C972 C971 1.523 . S
H973 C948 0.950 . S
H974 C950 0.950 . S
H975 C951 0.949 . S
H976 C953 0.950 . S
H977 C955 0.950 . S
C978 C979 1.349 . S
C978 C980 1.327 . S
C978 H1003 0.950 . S
C979 C978 1.349 . S
C979 C995 1.349 . S
C980 C978 1.327 . S
C980 C999 1.429 . S
C980 H1004 0.950 . S
C981 C998 1.574 . S
C981 C1000 1.368 . S
C981 H1005 0.949 . S
H982 C986 0.949 . S
C983 C984 1.349 . S
C983 C985 1.327 . S
C983 H1006 0.950 . S
C984 C983 1.349 . S
C984 C996 1.344 . S
C985 C983 1.327 . S
C985 C1001 1.429 . S
C985 H1007 0.950 . S
C986 H982 0.949 . S
C986 C994 1.574 . S
C986 C1002 1.368 . S
H987 C995 0.950 . S
H988 C993 0.950 . S
H989 C994 0.949 . S
H990 C996 0.958 1_554 S
H991 C997 0.950 1_554 S
H992 C998 0.949 . S
C993 H988 0.950 . S
C993 C995 1.327 . S
C993 C999 1.429 . S
C994 C986 1.574 . S
C994 H989 0.949 . S
C994 C1000 1.368 . S
C995 C979 1.349 . S
C995 H987 0.950 . S
C995 C993 1.327 . S
C996 C984 1.344 . S
C996 H990 0.958 1_556 S
C996 C997 1.324 . S
C997 H991 0.950 1_556 S
C997 C996 1.324 . S
C997 C1001 1.429 . S
C998 C981 1.574 . S
C998 H992 0.949 . S
C998 C1002 1.368 . S
C999 C980 1.429 . S
C999 C993 1.429 . S
C999 C1000 1.523 . S
C1000 C981 1.368 . S
C1000 C994 1.368 . S
C1000 C999 1.523 . S
C1001 C985 1.429 . S
C1001 C997 1.429 . S
C1001 C1002 1.523 . S
C1002 C986 1.368 . S
C1002 C998 1.368 . S
C1002 C1001 1.523 . S
H1003 C978 0.950 . S
H1004 C980 0.950 . S
H1005 C981 0.949 . S
H1006 C983 0.950 . S
H1007 C985 0.950 . S
C1008 C1009 1.349 . S
C1008 C1010 1.327 . S
C1008 H1033 0.950 . S
C1009 C1008 1.349 . S
C1009 C1025 1.349 . S
C1010 C1008 1.327 . S
C1010 C1029 1.429 . S
C1010 H1034 0.950 . S
C1011 C1028 1.574 . S
C1011 C1030 1.368 . S
C1011 H1035 0.949 . S
H1012 C1016 0.949 . S
C1013 C1014 1.349 . S
C1013 C1015 1.327 . S
C1013 H1036 0.950 . S
C1014 C1013 1.349 . S
C1014 C1026 1.349 . S
C1015 C1013 1.327 . S
C1015 C1031 1.429 . S
C1015 H1037 0.950 . S
C1016 H1012 0.949 . S
C1016 C1024 1.574 . S
C1016 C1032 1.368 . S
H1017 C1025 0.950 . S
H1018 C1023 0.950 . S
H1019 C1024 0.949 . S
H1020 C1026 0.950 1_554 S
H1021 C1027 0.950 . S
H1022 C1028 0.949 . S
C1023 H1018 0.950 . S
C1023 C1025 1.327 . S
C1023 C1029 1.429 . S
C1024 C1016 1.574 . S
C1024 H1019 0.949 . S
C1024 C1030 1.368 . S
C1025 C1009 1.349 . S
C1025 H1017 0.950 . S
C1025 C1023 1.327 . S
C1026 C1014 1.349 . S
C1026 H1020 0.950 1_556 S
C1026 C1027 1.327 . S
C1027 H1021 0.950 . S
C1027 C1026 1.327 . S
C1027 C1031 1.429 . S
C1028 C1011 1.574 . S
C1028 H1022 0.949 . S
C1028 C1032 1.368 . S
C1029 C1010 1.429 . S
C1029 C1023 1.429 . S
C1029 C1030 1.523 . S
C1030 C1011 1.368 . S
C1030 C1024 1.368 . S
C1030 C1029 1.523 . S
C1031 C1015 1.429 . S
C1031 C1027 1.429 . S
C1031 C1032 1.523 . S
C1032 C1016 1.368 . S
C1032 C1028 1.368 . S
C1032 C1031 1.523 . S
H1033 C1008 0.950 . S
H1034 C1010 0.950 . S
H1035 C1011 0.949 . S
H1036 C1013 0.950 . S
H1037 C1015 0.950 . S
C1038 C1039 1.349 . S
C1038 C1040 1.327 . S
C1038 H1063 0.950 . S
C1039 C1038 1.349 . S
C1039 C1055 1.349 . S
C1040 C1038 1.327 . S
C1040 C1059 1.429 . S
C1040 H1064 0.950 . S
C1041 C1058 1.574 . S
C1041 C1060 1.368 . S
C1041 H1065 0.949 . S
H1042 C1046 0.949 . S
C1043 C1044 1.349 . S
C1043 C1045 1.327 . S
C1043 H1066 0.950 . S
C1044 C1043 1.349 . S
C1044 C1056 1.349 . S
C1045 C1043 1.327 . S
C1045 C1061 1.429 . S
C1045 H1067 0.950 . S
C1046 H1042 0.949 . S
C1046 C1054 1.574 . S
C1046 C1062 1.368 . S
H1047 C1055 0.950 . S
H1048 C1053 0.950 . S
H1049 C1054 0.949 . S
H1050 C1056 0.950 . S
H1051 C1057 0.950 . S
H1052 C1058 0.949 . S
C1053 H1048 0.950 . S
C1053 C1055 1.327 . S
C1053 C1059 1.429 . S
C1054 C1046 1.574 . S
C1054 H1049 0.949 . S
C1054 C1060 1.368 . S
C1055 C1039 1.349 . S
C1055 H1047 0.950 . S
C1055 C1053 1.327 . S
C1056 C1044 1.349 . S
C1056 H1050 0.950 . S
C1056 C1057 1.327 . S
C1057 H1051 0.950 . S
C1057 C1056 1.327 . S
C1057 C1061 1.429 . S
C1058 C1041 1.574 . S
C1058 H1052 0.949 . S
C1058 C1062 1.368 . S
C1059 C1040 1.429 . S
C1059 C1053 1.429 . S
C1059 C1060 1.523 . S
C1060 C1041 1.368 . S
C1060 C1054 1.368 . S
C1060 C1059 1.523 . S
C1061 C1045 1.429 . S
C1061 C1057 1.429 . S
C1061 C1062 1.523 . S
C1062 C1046 1.368 . S
C1062 C1058 1.368 . S
C1062 C1061 1.523 . S
H1063 C1038 0.950 . S
H1064 C1040 0.950 . S
H1065 C1041 0.949 . S
H1066 C1043 0.950 . S
H1067 C1045 0.950 . S
C1068 C1069 1.349 . S
C1068 C1070 1.327 . S
C1068 H1093 0.950 . S
C1069 C1068 1.349 . S
C1069 C1085 1.349 . S
C1070 C1068 1.327 . S
C1070 C1089 1.429 . S
C1070 H1094 0.950 . S
C1071 C1088 1.574 . S
C1071 C1090 1.368 . S
C1071 H1095 0.949 . S
H1072 C1076 0.949 . S
C1073 C1074 1.349 . S
C1073 C1075 1.327 . S
C1073 H1096 0.950 . S
C1074 C1073 1.349 . S
C1074 C1086 1.349 . S
C1075 C1073 1.327 . S
C1075 C1091 1.429 . S
C1075 H1097 0.950 . S
C1076 H1072 0.949 . S
C1076 C1084 1.574 . S
C1076 C1092 1.368 . S
H1077 C1085 0.950 . S
H1078 C1083 0.950 . S
H1079 C1084 0.949 . S
H1080 C1086 0.950 1_554 S
H1081 C1087 0.952 . S
H1082 C1088 0.949 . S
C1083 H1078 0.950 . S
C1083 C1085 1.327 . S
C1083 C1089 1.429 . S
C1084 C1076 1.574 . S
C1084 H1079 0.949 . S
C1084 C1090 1.368 . S
C1085 C1069 1.349 . S
C1085 H1077 0.950 . S
C1085 C1083 1.327 . S
C1086 C1074 1.349 . S
C1086 H1080 0.950 1_556 S
C1086 C1087 1.327 . S
C1087 H1081 0.952 . S
C1087 C1086 1.327 . S
C1087 C1091 1.429 . S
C1088 C1071 1.574 . S
C1088 H1082 0.949 . S
C1088 C1092 1.368 . S
C1089 C1070 1.429 . S
C1089 C1083 1.429 . S
C1089 C1090 1.523 . S
C1090 C1071 1.368 . S
C1090 C1084 1.368 . S
C1090 C1089 1.523 . S
C1091 C1075 1.429 . S
C1091 C1087 1.429 . S
C1091 C1092 1.523 . S
C1092 C1076 1.368 . S
C1092 C1088 1.368 . S
C1092 C1091 1.523 . S
H1093 C1068 0.950 . S
H1094 C1070 0.950 . S
H1095 C1071 0.949 . S
H1096 C1073 0.950 . S
H1097 C1075 0.950 . S
C1098 C1099 1.349 . S
C1098 C1100 1.327 . S
C1098 H1123 0.950 . S
C1099 C1098 1.349 . S
C1099 C1115 1.349 . S
C1100 C1098 1.327 . S
C1100 C1119 1.429 . S
C1100 H1124 0.950 . S
C1101 C1118 1.574 . S
C1101 C1120 1.368 . S
C1101 H1125 0.949 . S
H1102 C1106 0.949 . S
C1103 C1104 1.349 . S
C1103 C1105 1.327 . S
C1103 H1126 0.950 . S
C1104 C1103 1.349 . S
C1104 C1116 1.349 . S
C1105 C1103 1.327 . S
C1105 C1121 1.429 . S
C1105 H1127 0.950 . S
C1106 H1102 0.949 . S
C1106 C1114 1.574 . S
C1106 C1122 1.368 . S
H1107 C1115 0.950 . S
H1108 C1113 0.950 . S
H1109 C1114 0.949 . S
H1110 C1116 0.950 . S
H1111 C1117 0.950 . S
H1112 C1118 0.949 . S
C1113 H1108 0.950 . S
C1113 C1115 1.327 . S
C1113 C1119 1.429 . S
C1114 C1106 1.574 . S
C1114 H1109 0.949 . S
C1114 C1120 1.368 . S
C1115 C1099 1.349 . S
C1115 H1107 0.950 . S
C1115 C1113 1.327 . S
C1116 C1104 1.349 . S
C1116 H1110 0.950 . S
C1116 C1117 1.327 . S
C1117 H1111 0.950 . S
C1117 C1116 1.327 . S
C1117 C1121 1.429 . S
C1118 C1101 1.574 . S
C1118 H1112 0.949 . S
C1118 C1122 1.368 . S
C1119 C1100 1.429 . S
C1119 C1113 1.429 . S
C1119 C1120 1.523 . S
C1120 C1101 1.368 . S
C1120 C1114 1.368 . S
C1120 C1119 1.523 . S
C1121 C1105 1.429 . S
C1121 C1117 1.429 . S
C1121 C1122 1.523 . S
C1122 C1106 1.368 . S
C1122 C1118 1.368 . S
C1122 C1121 1.523 . S
H1123 C1098 0.950 . S
H1124 C1100 0.950 . S
H1125 C1101 0.949 . S
H1126 C1103 0.950 . S
H1127 C1105 0.950 . S
C1128 C1129 1.349 . S
C1128 C1130 1.327 . S
C1128 H1153 0.950 . S
C1129 C1128 1.349 . S
C1129 C1145 1.349 . S
C1130 C1128 1.327 . S
C1130 C1149 1.429 . S
C1130 H1154 0.950 . S
C1131 C1148 1.574 . S
C1131 C1150 1.368 . S
C1131 H1155 0.949 . S
H1132 C1136 0.949 . S
C1133 C1134 1.349 . S
C1133 C1135 1.327 . S
C1133 H1156 0.950 . S
C1134 C1133 1.349 . S
C1134 C1146 1.349 . S
C1135 C1133 1.327 . S
C1135 C1151 1.429 . S
C1135 H1157 0.950 . S
C1136 H1132 0.949 . S
C1136 C1144 1.574 . S
C1136 C1152 1.368 . S
H1137 C1145 0.950 . S
H1138 C1143 0.950 . S
H1139 C1144 0.949 . S
H1140 C1146 0.950 . S
H1141 C1147 0.950 . S
H1142 C1148 0.949 . S
C1143 H1138 0.950 . S
C1143 C1145 1.327 . S
C1143 C1149 1.429 . S
C1144 C1136 1.574 . S
C1144 H1139 0.949 . S
C1144 C1150 1.368 . S
C1145 C1129 1.349 . S
C1145 H1137 0.950 . S
C1145 C1143 1.327 . S
C1146 C1134 1.349 . S
C1146 H1140 0.950 . S
C1146 C1147 1.327 . S
C1147 H1141 0.950 . S
C1147 C1146 1.327 . S
C1147 C1151 1.429 . S
C1148 C1131 1.574 . S
C1148 H1142 0.949 . S
C1148 C1152 1.368 . S
C1149 C1130 1.429 . S
C1149 C1143 1.429 . S
C1149 C1150 1.523 . S
C1150 C1131 1.368 . S
C1150 C1144 1.368 . S
C1150 C1149 1.523 . S
C1151 C1135 1.429 . S
C1151 C1147 1.429 . S
C1151 C1152 1.523 . S
C1152 C1136 1.368 . S
C1152 C1148 1.368 . S
C1152 C1151 1.523 . S
H1153 C1128 0.950 . S
H1154 C1130 0.950 . S
H1155 C1131 0.949 . S
H1156 C1133 0.950 . S
H1157 C1135 0.950 . S
C1158 C1159 1.349 . S
C1158 C1160 1.327 . S
C1158 H1183 0.950 . S
C1159 C1158 1.349 . S
C1159 C1175 1.349 . S
C1160 C1158 1.327 . S
C1160 C1179 1.429 . S
C1160 H1184 0.950 . S
C1161 C1178 1.574 . S
C1161 C1180 1.368 . S
C1161 H1185 0.949 . S
H1162 C1166 0.949 . S
C1163 C1164 1.349 . S
C1163 C1165 1.327 . S
C1163 H1186 0.950 1_554 S
C1164 C1163 1.349 . S
C1164 C1176 1.349 . S
C1165 C1163 1.327 . S
C1165 C1181 1.429 . S
C1165 H1187 0.950 . S
C1166 H1162 0.949 . S
C1166 C1174 1.574 . S
C1166 C1182 1.368 . S
H1167 C1175 0.950 . S
H1168 C1173 0.950 . S
H1169 C1174 0.949 . S
H1170 C1176 0.950 . S
H1171 C1177 0.950 . S
H1172 C1178 0.949 . S
C1173 H1168 0.950 . S
C1173 C1175 1.327 . S
C1173 C1179 1.429 . S
C1174 C1166 1.574 . S
C1174 H1169 0.949 . S
C1174 C1180 1.368 . S
C1175 C1159 1.349 . S
C1175 H1167 0.950 . S
C1175 C1173 1.327 . S
C1176 C1164 1.349 . S
C1176 H1170 0.950 . S
C1176 C1177 1.327 . S
C1177 H1171 0.950 . S
C1177 C1176 1.327 . S
C1177 C1181 1.429 . S
C1178 C1161 1.574 . S
C1178 H1172 0.949 . S
C1178 C1182 1.368 . S
C1179 C1160 1.429 . S
C1179 C1173 1.429 . S
C1179 C1180 1.523 . S
C1180 C1161 1.368 . S
C1180 C1174 1.368 . S
C1180 C1179 1.523 . S
C1181 C1165 1.429 . S
C1181 C1177 1.429 . S
C1181 C1182 1.523 . S
C1182 C1166 1.368 . S
C1182 C1178 1.368 . S
C1182 C1181 1.523 . S
H1183 C1158 0.950 . S
H1184 C1160 0.950 . S
H1185 C1161 0.949 . S
H1186 C1163 0.950 1_556 S
H1187 C1165 0.950 . S
C1188 C1189 1.349 . S
C1188 C1190 1.327 . S
C1188 H1213 0.950 . S
C1189 C1188 1.349 . S
C1189 C1205 1.349 . S
C1190 C1188 1.327 . S
C1190 C1209 1.429 . S
C1190 H1214 0.950 . S
C1191 C1208 1.574 . S
C1191 C1210 1.368 . S
C1191 H1215 0.949 1_455 S
H1192 C1196 0.949 . S
C1193 C1194 1.349 . S
C1193 C1195 1.327 . S
C1193 H1216 0.950 . S
C1194 C1193 1.349 . S
C1194 C1206 1.349 . S
C1195 C1193 1.327 . S
C1195 C1211 1.429 . S
C1195 H1217 0.950 . S
C1196 H1192 0.949 . S
C1196 C1204 1.574 . S
C1196 C1212 1.368 . S
H1197 C1205 0.950 . S
H1198 C1203 0.950 . S
H1199 C1204 0.949 . S
H1200 C1206 0.950 . S
H1201 C1207 0.950 . S
H1202 C1208 0.949 . S
C1203 H1198 0.950 . S
C1203 C1205 1.327 . S
C1203 C1209 1.429 . S
C1204 C1196 1.574 . S
C1204 H1199 0.949 . S
C1204 C1210 1.368 . S
C1205 C1189 1.349 . S
C1205 H1197 0.950 . S
C1205 C1203 1.327 . S
C1206 C1194 1.349 . S
C1206 H1200 0.950 . S
C1206 C1207 1.327 . S
C1207 H1201 0.950 . S
C1207 C1206 1.327 . S
C1207 C1211 1.429 . S
C1208 C1191 1.574 . S
C1208 H1202 0.949 . S
C1208 C1212 1.368 . S
C1209 C1190 1.429 . S
C1209 C1203 1.429 . S
C1209 C1210 1.523 1_655 S
C1210 C1191 1.368 . S
C1210 C1204 1.368 . S
C1210 C1209 1.523 1_455 S
C1211 C1195 1.429 . S
C1211 C1207 1.429 . S
C1211 C1212 1.523 . S
C1212 C1196 1.368 . S
C1212 C1208 1.368 . S
C1212 C1211 1.523 . S
H1213 C1188 0.950 . S
H1214 C1190 0.950 . S
H1215 C1191 0.949 1_655 S
H1216 C1193 0.950 . S
H1217 C1195 0.950 . S
C1218 C1219 1.349 . S
C1218 C1220 1.327 . S
C1218 H1243 0.950 . S
C1219 C1218 1.349 . S
C1219 C1235 1.349 . S
C1220 C1218 1.327 . S
C1220 C1239 1.429 . S
C1220 H1244 0.950 . S
C1221 C1238 1.574 . S
C1221 C1240 1.368 . S
C1221 H1245 0.949 . S
H1222 C1226 0.949 . S
C1223 C1224 1.349 . S
C1223 C1225 1.327 . S
C1223 H1246 0.950 . S
C1224 C1223 1.349 . S
C1224 C1236 1.349 . S
C1225 C1223 1.327 . S
C1225 C1241 1.429 . S
C1225 H1247 0.950 . S
C1226 H1222 0.949 . S
C1226 C1234 1.574 . S
C1226 C1242 1.368 . S
H1227 C1235 0.950 . S
H1228 C1233 0.950 . S
H1229 C1234 0.949 . S
H1230 C1236 0.950 . S
H1231 C1237 0.950 . S
H1232 C1238 0.949 . S
C1233 H1228 0.950 . S
C1233 C1235 1.327 . S
C1233 C1239 1.429 . S
C1234 C1226 1.574 . S
C1234 H1229 0.949 . S
C1234 C1240 1.368 . S
C1235 C1219 1.349 . S
C1235 H1227 0.950 . S
C1235 C1233 1.327 . S
C1236 C1224 1.349 . S
C1236 H1230 0.950 . S
C1236 C1237 1.327 . S
C1237 H1231 0.950 . S
C1237 C1236 1.327 . S
C1237 C1241 1.429 . S
C1238 C1221 1.574 . S
C1238 H1232 0.949 . S
C1238 C1242 1.368 . S
C1239 C1220 1.429 . S
C1239 C1233 1.429 . S
C1239 C1240 1.523 . S
C1240 C1221 1.368 . S
C1240 C1234 1.368 . S
C1240 C1239 1.523 . S
C1241 C1225 1.429 . S
C1241 C1237 1.429 . S
C1241 C1242 1.523 . S
C1242 C1226 1.368 . S
C1242 C1238 1.368 . S
C1242 C1241 1.523 . S
H1243 C1218 0.950 . S
H1244 C1220 0.950 . S
H1245 C1221 0.949 . S
H1246 C1223 0.950 . S
H1247 C1225 0.950 . S
C1248 C1249 1.349 . S
C1248 C1250 1.327 . S
C1248 H1273 0.950 . S
C1249 C1248 1.349 . S
C1249 C1265 1.349 . S
C1250 C1248 1.327 . S
C1250 C1269 1.429 . S
C1250 H1274 0.950 . S
C1251 C1268 1.574 . S
C1251 C1270 1.368 . S
C1251 H1275 0.949 . S
H1252 C1256 0.949 . S
C1253 C1254 1.349 . S
C1253 C1255 1.327 . S
C1253 H1276 0.950 . S
C1254 C1253 1.349 . S
C1254 C1266 1.349 . S
C1255 C1253 1.327 . S
C1255 C1271 1.429 . S
C1255 H1277 0.950 . S
C1256 H1252 0.949 . S
C1256 C1264 1.574 . S
C1256 C1272 1.368 . S
H1257 C1265 0.950 . S
H1258 C1263 0.950 . S
H1259 C1264 0.949 . S
H1260 C1266 0.950 . S
H1261 C1267 0.950 . S
H1262 C1268 0.949 . S
C1263 H1258 0.950 . S
C1263 C1265 1.327 . S
C1263 C1269 1.429 . S
C1264 C1256 1.574 . S
C1264 H1259 0.949 . S
C1264 C1270 1.368 . S
C1265 C1249 1.349 . S
C1265 H1257 0.950 . S
C1265 C1263 1.327 . S
C1266 C1254 1.349 . S
C1266 H1260 0.950 . S
C1266 C1267 1.327 . S
C1267 H1261 0.950 . S
C1267 C1266 1.327 . S
C1267 C1271 1.429 . S
C1268 C1251 1.574 . S
C1268 H1262 0.949 . S
C1268 C1272 1.368 . S
C1269 C1250 1.429 . S
C1269 C1263 1.429 . S
C1269 C1270 1.523 1_545 S
C1270 C1251 1.368 . S
C1270 C1264 1.368 . S
C1270 C1269 1.523 1_565 S
C1271 C1255 1.429 . S
C1271 C1267 1.429 . S
C1271 C1272 1.523 . S
C1272 C1256 1.368 . S
C1272 C1268 1.368 . S
C1272 C1271 1.523 . S
H1273 C1248 0.950 . S
H1274 C1250 0.950 . S
H1275 C1251 0.949 . S
H1276 C1253 0.950 . S
H1277 C1255 0.950 . S
C1278 C1279 1.349 . S
C1278 C1280 1.327 . S
C1278 H1303 0.950 . S
C1279 C1278 1.349 . S
C1279 C1295 1.349 . S
C1280 C1278 1.327 . S
C1280 C1299 1.429 . S
C1280 H1304 0.950 . S
C1281 C1298 1.574 . S
C1281 C1300 1.368 . S
C1281 H1305 0.949 . S
H1282 C1286 0.949 . S
C1283 C1284 1.349 . S
C1283 C1285 1.327 . S
C1283 H1306 0.950 . S
C1284 C1283 1.349 . S
C1284 C1296 1.349 . S
C1285 C1283 1.327 . S
C1285 C1301 1.429 . S
C1285 H1307 0.950 . S
C1286 H1282 0.949 . S
C1286 C1294 1.574 . S
C1286 C1302 1.368 . S
H1287 C1295 0.950 . S
H1288 C1293 0.950 . S
H1289 C1294 0.949 . S
H1290 C1296 0.950 . S
H1291 C1297 0.950 . S
H1292 C1298 0.949 . S
C1293 H1288 0.950 . S
C1293 C1295 1.327 . S
C1293 C1299 1.429 . S
C1294 C1286 1.574 . S
C1294 H1289 0.949 . S
C1294 C1300 1.368 . S
C1295 C1279 1.349 . S
C1295 H1287 0.950 . S
C1295 C1293 1.327 . S
C1296 C1284 1.349 . S
C1296 H1290 0.950 . S
C1296 C1297 1.327 . S
C1297 H1291 0.950 . S
C1297 C1296 1.327 . S
C1297 C1301 1.429 . S
C1298 C1281 1.574 . S
C1298 H1292 0.949 . S
C1298 C1302 1.368 . S
C1299 C1280 1.429 . S
C1299 C1293 1.429 . S
C1299 C1300 1.523 . S
C1300 C1281 1.368 . S
C1300 C1294 1.368 . S
C1300 C1299 1.523 . S
C1301 C1285 1.429 . S
C1301 C1297 1.429 . S
C1301 C1302 1.523 . S
C1302 C1286 1.368 . S
C1302 C1298 1.368 . S
C1302 C1301 1.523 . S
H1303 C1278 0.950 . S
H1304 C1280 0.950 . S
H1305 C1281 0.949 . S
H1306 C1283 0.950 . S
H1307 C1285 0.950 . S
C1308 C1309 1.349 . S
C1308 C1310 1.327 . S
C1308 H1333 0.950 . S
C1309 C1308 1.349 . S
C1309 C1325 1.349 . S
C1310 C1308 1.327 . S
C1310 C1329 1.429 . S
C1310 H1334 0.950 . S
C1311 C1328 1.574 . S
C1311 C1330 1.368 . S
C1311 H1335 0.949 . S
H1312 C1316 0.949 . S
C1313 C1314 1.349 . S
C1313 C1315 1.327 . S
C1313 H1336 0.950 . S
C1314 C1313 1.349 . S
C1314 C1326 1.349 . S
C1315 C1313 1.327 . S
C1315 C1331 1.429 . S
C1315 H1337 0.950 . S
C1316 H1312 0.949 . S
C1316 C1324 1.574 . S
C1316 C1332 1.368 . S
H1317 C1325 0.950 . S
H1318 C1323 0.950 . S
H1319 C1324 0.949 . S
H1320 C1326 0.950 . S
H1321 C1327 0.950 . S
H1322 C1328 0.949 . S
C1323 H1318 0.950 . S
C1323 C1325 1.327 . S
C1323 C1329 1.429 . S
C1324 C1316 1.574 . S
C1324 H1319 0.949 . S
C1324 C1330 1.368 . S
C1325 C1309 1.349 . S
C1325 H1317 0.950 . S
C1325 C1323 1.327 . S
C1326 C1314 1.349 . S
C1326 H1320 0.950 . S
C1326 C1327 1.327 . S
C1327 H1321 0.950 . S
C1327 C1326 1.327 . S
C1327 C1331 1.429 . S
C1328 C1311 1.574 . S
C1328 H1322 0.949 . S
C1328 C1332 1.368 . S
C1329 C1310 1.429 . S
C1329 C1323 1.429 . S
C1329 C1330 1.523 . S
C1330 C1311 1.368 . S
C1330 C1324 1.368 . S
C1330 C1329 1.523 . S
C1331 C1315 1.429 . S
C1331 C1327 1.429 . S
C1331 C1332 1.523 . S
C1332 C1316 1.368 . S
C1332 C1328 1.368 . S
C1332 C1331 1.523 . S
H1333 C1308 0.950 . S
H1334 C1310 0.950 . S
H1335 C1311 0.949 . S
H1336 C1313 0.950 . S
H1337 C1315 0.950 . S
C1338 C1339 1.349 . S
C1338 C1340 1.327 . S
C1338 H1363 0.950 . S
C1339 C1338 1.349 . S
C1339 C1355 1.349 . S
C1340 C1338 1.327 . S
C1340 C1359 1.429 . S
C1340 H1364 0.950 . S
C1341 C1358 1.574 . S
C1341 C1360 1.368 . S
C1341 H1365 0.949 . S
H1342 C1346 0.949 . S
C1343 C1344 1.349 . S
C1343 C1345 1.327 . S
C1343 H1366 0.950 . S
C1344 C1343 1.349 . S
C1344 C1356 1.349 . S
C1345 C1343 1.327 . S
C1345 C1361 1.429 . S
C1345 H1367 0.950 . S
C1346 H1342 0.949 . S
C1346 C1354 1.574 . S
C1346 C1362 1.368 . S
H1347 C1355 0.950 . S
H1348 C1353 0.950 . S
H1349 C1354 0.949 . S
H1350 C1356 0.950 . S
H1351 C1357 0.950 . S
H1352 C1358 0.949 . S
C1353 H1348 0.950 . S
C1353 C1355 1.327 . S
C1353 C1359 1.429 . S
C1354 C1346 1.574 . S
C1354 H1349 0.949 . S
C1354 C1360 1.368 . S
C1355 C1339 1.349 . S
C1355 H1347 0.950 . S
C1355 C1353 1.327 . S
C1356 C1344 1.349 . S
C1356 H1350 0.950 . S
C1356 C1357 1.327 . S
C1357 H1351 0.950 . S
C1357 C1356 1.327 . S
C1357 C1361 1.429 . S
C1358 C1341 1.574 . S
C1358 H1352 0.949 . S
C1358 C1362 1.368 . S
C1359 C1340 1.429 . S
C1359 C1353 1.429 . S
C1359 C1360 1.523 . S
C1360 C1341 1.368 . S
C1360 C1354 1.368 . S
C1360 C1359 1.523 . S
C1361 C1345 1.429 . S
C1361 C1357 1.429 . S
C1361 C1362 1.523 . S
C1362 C1346 1.368 . S
C1362 C1358 1.368 . S
C1362 C1361 1.523 . S
H1363 C1338 0.950 . S
H1364 C1340 0.950 . S
H1365 C1341 0.949 . S
H1366 C1343 0.950 . S
H1367 C1345 0.950 . S
C1368 C1369 1.349 . S
C1368 C1370 1.327 . S
C1368 H1393 0.950 . S
C1369 C1368 1.349 . S
C1369 C1385 1.349 . S
C1370 C1368 1.327 . S
C1370 C1389 1.429 . S
C1370 H1394 0.950 . S
C1371 C1388 1.574 . S
C1371 C1390 1.368 . S
C1371 H1395 0.949 . S
H1372 C1376 0.949 . S
C1373 C1374 1.349 . S
C1373 C1375 1.327 . S
C1373 H1396 0.950 . S
C1374 C1373 1.349 . S
C1374 C1386 1.349 . S
C1375 C1373 1.327 . S
C1375 C1391 1.429 . S
C1375 H1397 0.950 . S
C1376 H1372 0.949 . S
C1376 C1384 1.574 . S
C1376 C1392 1.368 . S
H1377 C1385 0.950 . S
H1378 C1383 0.950 . S
H1379 C1384 0.949 . S
H1380 C1386 0.950 . S
H1381 C1387 0.950 . S
H1382 C1388 0.949 . S
C1383 H1378 0.950 . S
C1383 C1385 1.327 . S
C1383 C1389 1.429 . S
C1384 C1376 1.574 . S
C1384 H1379 0.949 . S
C1384 C1390 1.368 . S
C1385 C1369 1.349 . S
C1385 H1377 0.950 . S
C1385 C1383 1.327 . S
C1386 C1374 1.349 . S
C1386 H1380 0.950 . S
C1386 C1387 1.327 . S
C1387 H1381 0.950 . S
C1387 C1386 1.327 . S
C1387 C1391 1.429 . S
C1388 C1371 1.574 . S
C1388 H1382 0.949 . S
C1388 C1392 1.368 . S
C1389 C1370 1.429 . S
C1389 C1383 1.429 . S
C1389 C1390 1.523 . S
C1390 C1371 1.368 . S
C1390 C1384 1.368 . S
C1390 C1389 1.523 . S
C1391 C1375 1.429 . S
C1391 C1387 1.429 . S
C1391 C1392 1.523 . S
C1392 C1376 1.368 . S
C1392 C1388 1.368 . S
C1392 C1391 1.523 . S
H1393 C1368 0.950 . S
H1394 C1370 0.950 . S
H1395 C1371 0.949 . S
H1396 C1373 0.950 . S
H1397 C1375 0.950 . S
C1398 C1399 1.349 . S
C1398 C1400 1.327 . S
C1398 H1423 0.950 . S
C1399 C1398 1.349 . S
C1399 C1415 1.349 . S
C1400 C1398 1.327 . S
C1400 C1419 1.429 . S
C1400 H1424 0.950 . S
C1401 C1418 1.574 . S
C1401 C1420 1.368 . S
C1401 H1425 0.949 . S
H1402 C1406 0.949 . S
C1403 C1404 1.349 . S
C1403 C1405 1.327 . S
C1403 H1426 0.950 . S
C1404 C1403 1.349 . S
C1404 C1416 1.349 . S
C1405 C1403 1.327 . S
C1405 C1421 1.429 . S
C1405 H1427 0.950 . S
C1406 H1402 0.949 . S
C1406 C1414 1.574 . S
C1406 C1422 1.368 . S
H1407 C1415 0.950 . S
H1408 C1413 0.950 . S
H1409 C1414 0.949 . S
H1410 C1416 0.950 . S
H1411 C1417 0.950 . S
H1412 C1418 0.949 . S
C1413 H1408 0.950 . S
C1413 C1415 1.327 . S
C1413 C1419 1.429 . S
C1414 C1406 1.574 . S
C1414 H1409 0.949 . S
C1414 C1420 1.368 . S
C1415 C1399 1.349 . S
C1415 H1407 0.950 . S
C1415 C1413 1.327 . S
C1416 C1404 1.349 . S
C1416 H1410 0.950 . S
C1416 C1417 1.327 . S
C1417 H1411 0.950 . S
C1417 C1416 1.327 . S
C1417 C1421 1.429 . S
C1418 C1401 1.574 . S
C1418 H1412 0.949 . S
C1418 C1422 1.368 . S
C1419 C1400 1.429 . S
C1419 C1413 1.429 . S
C1419 C1420 1.523 . S
C1420 C1401 1.368 . S
C1420 C1414 1.368 . S
C1420 C1419 1.523 . S
C1421 C1405 1.429 . S
C1421 C1417 1.429 . S
C1421 C1422 1.523 . S
C1422 C1406 1.368 . S
C1422 C1418 1.368 . S
C1422 C1421 1.523 . S
H1423 C1398 0.950 . S
H1424 C1400 0.950 . S
H1425 C1401 0.949 . S
H1426 C1403 0.950 . S
H1427 C1405 0.950 . S
C1428 C1429 1.349 . S
C1428 C1430 1.327 . S
C1428 H1453 0.950 . S
C1429 C1428 1.349 . S
C1429 C1445 1.349 . S
C1430 C1428 1.327 . S
C1430 C1449 1.429 . S
C1430 H1454 0.950 . S
C1431 C1448 1.574 . S
C1431 C1450 1.368 . S
C1431 H1455 0.949 . S
H1432 C1436 0.949 . S
C1433 C1434 1.349 . S
C1433 C1435 1.327 . S
C1433 H1456 0.950 . S
C1434 C1433 1.349 . S
C1434 C1446 1.349 . S
C1435 C1433 1.327 . S
C1435 C1451 1.429 . S
C1435 H1457 0.950 . S
C1436 H1432 0.949 . S
C1436 C1444 1.574 . S
C1436 C1452 1.368 . S
H1437 C1445 0.950 . S
H1438 C1443 0.950 . S
H1439 C1444 0.949 . S
H1440 C1446 0.950 . S
H1441 C1447 0.950 . S
H1442 C1448 0.949 . S
C1443 H1438 0.950 . S
C1443 C1445 1.327 . S
C1443 C1449 1.429 . S
C1444 C1436 1.574 . S
C1444 H1439 0.949 . S
C1444 C1450 1.368 . S
C1445 C1429 1.349 . S
C1445 H1437 0.950 . S
C1445 C1443 1.327 . S
C1446 C1434 1.349 . S
C1446 H1440 0.950 . S
C1446 C1447 1.327 . S
C1447 H1441 0.950 . S
C1447 C1446 1.327 . S
C1447 C1451 1.429 . S
C1448 C1431 1.574 . S
C1448 H1442 0.949 . S
C1448 C1452 1.368 . S
C1449 C1430 1.429 . S
C1449 C1443 1.429 . S
C1449 C1450 1.523 . S
C1450 C1431 1.368 . S
C1450 C1444 1.368 . S
C1450 C1449 1.523 . S
C1451 C1435 1.429 . S
C1451 C1447 1.429 . S
C1451 C1452 1.523 . S
C1452 C1436 1.368 . S
C1452 C1448 1.368 . S
C1452 C1451 1.523 . S
H1453 C1428 0.950 . S
H1454 C1430 0.950 . S
H1455 C1431 0.949 . S
H1456 C1433 0.950 . S
H1457 C1435 0.950 . S
C1458 C1459 1.349 . S
C1458 C1460 1.327 . S
C1458 H1483 0.950 . S
C1459 C1458 1.349 . S
C1459 C1475 1.349 . S
C1460 C1458 1.327 . S
C1460 C1479 1.429 . S
C1460 H1484 0.950 . S
C1461 C1478 1.574 . S
C1461 C1480 1.368 . S
C1461 H1485 0.949 . S
H1462 C1466 0.949 . S
C1463 C1464 1.349 . S
C1463 C1465 1.327 . S
C1463 H1486 0.950 . S
C1464 C1463 1.349 . S
C1464 C1476 1.349 . S
C1465 C1463 1.327 . S
C1465 C1481 1.429 . S
C1465 H1487 0.950 . S
C1466 H1462 0.949 . S
C1466 C1474 1.574 . S
C1466 C1482 1.368 . S
H1467 C1475 0.950 . S
H1468 C1473 0.950 . S
H1469 C1474 0.949 . S
H1470 C1476 0.950 . S
H1471 C1477 0.950 . S
H1472 C1478 0.949 . S
C1473 H1468 0.950 . S
C1473 C1475 1.327 . S
C1473 C1479 1.429 . S
C1474 C1466 1.574 . S
C1474 H1469 0.949 . S
C1474 C1480 1.368 . S
C1475 C1459 1.349 . S
C1475 H1467 0.950 . S
C1475 C1473 1.327 . S
C1476 C1464 1.349 . S
C1476 H1470 0.950 . S
C1476 C1477 1.327 . S
C1477 H1471 0.950 . S
C1477 C1476 1.327 . S
C1477 C1481 1.429 . S
C1478 C1461 1.574 . S
C1478 H1472 0.949 . S
C1478 C1482 1.368 . S
C1479 C1460 1.429 . S
C1479 C1473 1.429 . S
C1479 C1480 1.523 1_545 S
C1480 C1461 1.368 . S
C1480 C1474 1.368 . S
C1480 C1479 1.523 1_565 S
C1481 C1465 1.429 . S
C1481 C1477 1.429 . S
C1481 C1482 1.523 . S
C1482 C1466 1.368 . S
C1482 C1478 1.368 . S
C1482 C1481 1.523 . S
H1483 C1458 0.950 . S
H1484 C1460 0.950 . S
H1485 C1461 0.949 . S
H1486 C1463 0.950 . S
H1487 C1465 0.950 . S
C1488 C1489 1.349 . S
C1488 C1490 1.327 . S
C1488 H1513 0.950 . S
C1489 C1488 1.349 . S
C1489 C1505 1.349 . S
C1490 C1488 1.327 . S
C1490 C1509 1.436 . S
C1490 H1514 0.950 . S
C1491 C1508 1.574 . S
C1491 C1510 1.368 . S
C1491 H1515 0.949 . S
H1492 C1496 0.949 . S
C1493 C1494 1.349 . S
C1493 C1495 1.327 . S
C1493 H1516 0.950 . S
C1494 C1493 1.349 . S
C1494 C1506 1.349 . S
C1495 C1493 1.327 . S
C1495 C1511 1.429 . S
C1495 H1517 0.950 . S
C1496 H1492 0.949 . S
C1496 C1504 1.574 . S
C1496 C1512 1.368 . S
H1497 C1505 0.950 . S
H1498 C1503 0.950 1_455 S
H1499 C1504 0.949 . S
H1500 C1506 0.950 . S
H1501 C1507 0.950 . S
H1502 C1508 0.949 . S
C1503 H1498 0.950 1_655 S
C1503 C1505 1.327 . S
C1503 C1509 1.429 . S
C1504 C1496 1.574 . S
C1504 H1499 0.949 . S
C1504 C1510 1.368 . S
C1505 C1489 1.349 . S
C1505 H1497 0.950 . S
C1505 C1503 1.327 . S
C1506 C1494 1.349 . S
C1506 H1500 0.950 . S
C1506 C1507 1.327 . S
C1507 H1501 0.950 . S
C1507 C1506 1.327 . S
C1507 C1511 1.429 . S
C1508 C1491 1.574 . S
C1508 H1502 0.949 . S
C1508 C1512 1.368 . S
C1509 C1490 1.436 . S
C1509 C1503 1.429 . S
C1509 C1510 1.515 1_655 S
C1510 C1491 1.368 . S
C1510 C1504 1.368 . S
C1510 C1509 1.515 1_455 S
C1511 C1495 1.429 . S
C1511 C1507 1.429 . S
C1511 C1512 1.523 . S
C1512 C1496 1.368 . S
C1512 C1508 1.368 . S
C1512 C1511 1.523 . S
H1513 C1488 0.950 . S
H1514 C1490 0.950 . S
H1515 C1491 0.949 . S
H1516 C1493 0.950 . S
H1517 C1495 0.950 . S
C1518 C1519 1.349 . S
C1518 C1520 1.327 . S
C1518 H1543 0.950 . S
C1519 C1518 1.349 . S
C1519 C1535 1.349 . S
C1520 C1518 1.327 . S
C1520 C1539 1.429 . S
C1520 H1544 0.950 . S
C1521 C1538 1.574 . S
C1521 C1540 1.368 . S
C1521 H1545 0.949 . S
H1522 C1526 0.949 . S
C1523 C1524 1.349 . S
C1523 C1525 1.327 . S
C1523 H1546 0.950 . S
C1524 C1523 1.349 . S
C1524 C1536 1.349 . S
C1525 C1523 1.327 . S
C1525 C1541 1.429 . S
C1525 H1547 0.950 . S
C1526 H1522 0.949 . S
C1526 C1534 1.574 . S
C1526 C1542 1.368 . S
H1527 C1535 0.950 . S
H1528 C1533 0.950 . S
H1529 C1534 0.949 . S
H1530 C1536 0.950 . S
H1531 C1537 0.950 . S
H1532 C1538 0.949 . S
C1533 H1528 0.950 . S
C1533 C1535 1.327 . S
C1533 C1539 1.429 . S
C1534 C1526 1.574 . S
C1534 H1529 0.949 . S
C1534 C1540 1.368 . S
C1535 C1519 1.349 . S
C1535 H1527 0.950 . S
C1535 C1533 1.327 . S
C1536 C1524 1.349 . S
C1536 H1530 0.950 . S
C1536 C1537 1.327 . S
C1537 H1531 0.950 . S
C1537 C1536 1.327 . S
C1537 C1541 1.429 . S
C1538 C1521 1.574 . S
C1538 H1532 0.949 . S
C1538 C1542 1.368 . S
C1539 C1520 1.429 . S
C1539 C1533 1.429 . S
C1539 C1540 1.523 . S
C1540 C1521 1.368 . S
C1540 C1534 1.368 . S
C1540 C1539 1.523 . S
C1541 C1525 1.429 . S
C1541 C1537 1.429 . S
C1541 C1542 1.523 . S
C1542 C1526 1.368 . S
C1542 C1538 1.368 . S
C1542 C1541 1.523 . S
H1543 C1518 0.950 . S
H1544 C1520 0.950 . S
H1545 C1521 0.949 . S
H1546 C1523 0.950 . S
H1547 C1525 0.950 . S
C1548 C1549 1.349 . S
C1548 C1550 1.327 . S
C1548 H1573 0.950 . S
C1549 C1548 1.349 . S
C1549 C1565 1.349 . S
C1550 C1548 1.327 . S
C1550 C1569 1.429 . S
C1550 H1574 0.950 . S
C1551 C1568 1.574 . S
C1551 C1570 1.368 . S
C1551 H1575 0.949 . S
H1552 C1556 0.949 . S
C1553 C1554 1.349 . S
C1553 C1555 1.327 . S
C1553 H1576 0.950 . S
C1554 C1553 1.349 . S
C1554 C1566 1.349 . S
C1555 C1553 1.327 . S
C1555 C1571 1.429 . S
C1555 H1577 0.950 . S
C1556 H1552 0.949 . S
C1556 C1564 1.574 . S
C1556 C1572 1.368 . S
H1557 C1565 0.950 . S
H1558 C1563 0.950 . S
H1559 C1564 0.949 . S
H1560 C1566 0.950 . S
H1561 C1567 0.950 . S
H1562 C1568 0.949 . S
C1563 H1558 0.950 . S
C1563 C1565 1.327 . S
C1563 C1569 1.429 . S
C1564 C1556 1.574 . S
C1564 H1559 0.949 . S
C1564 C1570 1.368 . S
C1565 C1549 1.349 . S
C1565 H1557 0.950 . S
C1565 C1563 1.327 . S
C1566 C1554 1.349 . S
C1566 H1560 0.950 . S
C1566 C1567 1.327 . S
C1567 H1561 0.950 . S
C1567 C1566 1.327 . S
C1567 C1571 1.429 . S
C1568 C1551 1.574 . S
C1568 H1562 0.949 . S
C1568 C1572 1.368 . S
C1569 C1550 1.429 . S
C1569 C1563 1.429 . S
C1569 C1570 1.523 . S
C1570 C1551 1.368 . S
C1570 C1564 1.368 . S
C1570 C1569 1.523 . S
C1571 C1555 1.429 . S
C1571 C1567 1.429 . S
C1571 C1572 1.523 . S
C1572 C1556 1.368 . S
C1572 C1568 1.368 . S
C1572 C1571 1.523 . S
H1573 C1548 0.950 . S
H1574 C1550 0.950 . S
H1575 C1551 0.949 . S
H1576 C1553 0.950 . S
H1577 C1555 0.950 . S
C1578 C1579 1.349 . S
C1578 C1580 1.327 . S
C1578 H1603 0.950 . S
C1579 C1578 1.349 . S
C1579 C1595 1.349 . S
C1580 C1578 1.327 . S
C1580 C1599 1.429 . S
C1580 H1604 0.950 . S
C1581 C1598 1.574 . S
C1581 C1600 1.368 . S
C1581 H1605 0.949 . S
H1582 C1586 0.949 . S
C1583 C1584 1.349 . S
C1583 C1585 1.327 . S
C1583 H1606 0.950 . S
C1584 C1583 1.349 . S
C1584 C1596 1.349 . S
C1585 C1583 1.327 . S
C1585 C1601 1.429 . S
C1585 H1607 0.950 . S
C1586 H1582 0.949 . S
C1586 C1594 1.574 . S
C1586 C1602 1.368 . S
H1587 C1595 0.950 . S
H1588 C1593 0.950 . S
H1589 C1594 0.949 . S
H1590 C1596 0.950 . S
H1591 C1597 0.950 . S
H1592 C1598 0.949 . S
C1593 H1588 0.950 . S
C1593 C1595 1.327 . S
C1593 C1599 1.429 . S
C1594 C1586 1.574 . S
C1594 H1589 0.949 . S
C1594 C1600 1.368 . S
C1595 C1579 1.349 . S
C1595 H1587 0.950 . S
C1595 C1593 1.327 . S
C1596 C1584 1.349 . S
C1596 H1590 0.950 . S
C1596 C1597 1.327 . S
C1597 H1591 0.950 . S
C1597 C1596 1.327 . S
C1597 C1601 1.429 . S
C1598 C1581 1.574 . S
C1598 H1592 0.949 . S
C1598 C1602 1.368 . S
C1599 C1580 1.429 . S
C1599 C1593 1.429 . S
C1599 C1600 1.523 . S
C1600 C1581 1.368 . S
C1600 C1594 1.368 . S
C1600 C1599 1.523 . S
C1601 C1585 1.429 . S
C1601 C1597 1.429 . S
C1601 C1602 1.523 . S
C1602 C1586 1.368 . S
C1602 C1598 1.368 . S
C1602 C1601 1.523 . S
H1603 C1578 0.950 . S
H1604 C1580 0.950 . S
H1605 C1581 0.949 . S
H1606 C1583 0.950 . S
H1607 C1585 0.950 . S
C1608 C1609 1.349 . S
C1608 C1610 1.327 . S
C1608 H1633 0.950 . S
C1609 C1608 1.349 . S
C1609 C1625 1.349 . S
C1610 C1608 1.327 . S
C1610 C1629 1.429 . S
C1610 H1634 0.950 . S
C1611 C1628 1.574 . S
C1611 C1630 1.368 . S
C1611 H1635 0.949 . S
H1612 C1616 0.949 . S
C1613 C1614 1.349 . S
C1613 C1615 1.327 . S
C1613 H1636 0.950 . S
C1614 C1613 1.349 . S
C1614 C1626 1.349 . S
C1615 C1613 1.327 . S
C1615 C1631 1.429 . S
C1615 H1637 0.950 . S
C1616 H1612 0.949 . S
C1616 C1624 1.574 . S
C1616 C1632 1.368 . S
H1617 C1625 0.950 . S
H1618 C1623 0.950 . S
H1619 C1624 0.949 . S
H1620 C1626 0.950 . S
H1621 C1627 0.950 . S
H1622 C1628 0.949 . S
C1623 H1618 0.950 . S
C1623 C1625 1.327 . S
C1623 C1629 1.429 . S
C1624 C1616 1.574 . S
C1624 H1619 0.949 . S
C1624 C1630 1.368 . S
C1625 C1609 1.349 . S
C1625 H1617 0.950 . S
C1625 C1623 1.327 . S
C1626 C1614 1.349 . S
C1626 H1620 0.950 . S
C1626 C1627 1.327 . S
C1627 H1621 0.950 . S
C1627 C1626 1.327 . S
C1627 C1631 1.429 . S
C1628 C1611 1.574 . S
C1628 H1622 0.949 . S
C1628 C1632 1.368 . S
C1629 C1610 1.429 . S
C1629 C1623 1.429 . S
C1629 C1630 1.523 . S
C1630 C1611 1.368 . S
C1630 C1624 1.368 . S
C1630 C1629 1.523 . S
C1631 C1615 1.429 . S
C1631 C1627 1.429 . S
C1631 C1632 1.523 . S
C1632 C1616 1.368 . S
C1632 C1628 1.368 . S
C1632 C1631 1.523 . S
H1633 C1608 0.950 . S
H1634 C1610 0.950 . S
H1635 C1611 0.949 . S
H1636 C1613 0.950 . S
H1637 C1615 0.950 . S
C1638 C1639 1.349 . S
C1638 C1640 1.327 . S
C1638 H1663 0.950 . S
C1639 C1638 1.349 . S
C1639 C1655 1.349 . S
C1640 C1638 1.327 . S
C1640 C1659 1.429 . S
C1640 H1664 0.950 . S
C1641 C1658 1.574 . S
C1641 C1660 1.368 . S
C1641 H1665 0.949 . S
H1642 C1646 0.949 . S
C1643 C1644 1.349 . S
C1643 C1645 1.327 . S
C1643 H1666 0.950 . S
C1644 C1643 1.349 . S
C1644 C1656 1.349 . S
C1645 C1643 1.327 . S
C1645 C1661 1.429 . S
C1645 H1667 0.950 . S
C1646 H1642 0.949 . S
C1646 C1654 1.574 . S
C1646 C1662 1.368 . S
H1647 C1655 0.950 . S
H1648 C1653 0.950 . S
H1649 C1654 0.949 . S
H1650 C1656 0.950 . S
H1651 C1657 0.950 . S
H1652 C1658 0.949 . S
C1653 H1648 0.950 . S
C1653 C1655 1.327 . S
C1653 C1659 1.429 . S
C1654 C1646 1.574 . S
C1654 H1649 0.949 . S
C1654 C1660 1.368 . S
C1655 C1639 1.349 . S
C1655 H1647 0.950 . S
C1655 C1653 1.327 . S
C1656 C1644 1.349 . S
C1656 H1650 0.950 . S
C1656 C1657 1.327 . S
C1657 H1651 0.950 . S
C1657 C1656 1.327 . S
C1657 C1661 1.429 . S
C1658 C1641 1.574 . S
C1658 H1652 0.949 . S
C1658 C1662 1.368 . S
C1659 C1640 1.429 . S
C1659 C1653 1.429 . S
C1659 C1660 1.523 1_565 S
C1660 C1641 1.368 . S
C1660 C1654 1.368 . S
C1660 C1659 1.523 1_545 S
C1661 C1645 1.429 . S
C1661 C1657 1.429 . S
C1661 C1662 1.523 . S
C1662 C1646 1.368 . S
C1662 C1658 1.368 . S
C1662 C1661 1.523 . S
H1663 C1638 0.950 . S
H1664 C1640 0.950 . S
H1665 C1641 0.949 . S
H1666 C1643 0.950 . S
H1667 C1645 0.950 . S
C1668 C1669 1.349 . S
C1668 C1670 1.327 . S
C1668 H1693 0.950 . S
C1669 C1668 1.349 . S
C1669 C1685 1.349 . S
C1670 C1668 1.327 . S
C1670 C1689 1.429 . S
C1670 H1694 0.950 1_455 S
C1671 C1688 1.574 . S
C1671 C1690 1.368 . S
C1671 H1695 0.951 . S
H1672 C1676 0.949 . S
C1673 C1674 1.349 . S
C1673 C1675 1.327 . S
C1673 H1696 0.950 . S
C1674 C1673 1.349 . S
C1674 C1686 1.349 . S
C1675 C1673 1.327 . S
C1675 C1691 1.429 . S
C1675 H1697 0.950 . S
C1676 H1672 0.949 . S
C1676 C1684 1.574 . S
C1676 C1692 1.368 . S
H1677 C1685 0.950 . S
H1678 C1683 0.950 . S
H1679 C1684 0.949 . S
H1680 C1686 0.950 . S
H1681 C1687 0.950 . S
H1682 C1688 0.949 . S
C1683 H1678 0.950 . S
C1683 C1685 1.327 . S
C1683 C1689 1.429 . S
C1684 C1676 1.574 . S
C1684 H1679 0.949 . S
C1684 C1690 1.368 . S
C1685 C1669 1.349 . S
C1685 H1677 0.950 . S
C1685 C1683 1.327 . S
C1686 C1674 1.349 . S
C1686 H1680 0.950 . S
C1686 C1687 1.327 . S
C1687 H1681 0.950 . S
C1687 C1686 1.327 . S
C1687 C1691 1.429 . S
C1688 C1671 1.574 . S
C1688 H1682 0.949 . S
C1688 C1692 1.368 . S
C1689 C1670 1.429 . S
C1689 C1683 1.429 . S
C1689 C1690 1.523 1_455 S
C1690 C1671 1.368 . S
C1690 C1684 1.368 . S
C1690 C1689 1.523 1_655 S
C1691 C1675 1.429 . S
C1691 C1687 1.429 . S
C1691 C1692 1.523 . S
C1692 C1676 1.368 . S
C1692 C1688 1.368 . S
C1692 C1691 1.523 . S
H1693 C1668 0.950 . S
H1694 C1670 0.950 1_655 S
H1695 C1671 0.951 . S
H1696 C1673 0.950 . S
H1697 C1675 0.950 . S
C1698 C1699 1.349 . S
C1698 C1700 1.327 . S
C1698 H1723 0.950 . S
C1699 C1698 1.349 . S
C1699 C1715 1.349 . S
C1700 C1698 1.327 . S
C1700 C1719 1.429 . S
C1700 H1724 0.950 . S
C1701 C1718 1.574 . S
C1701 C1720 1.368 . S
C1701 H1725 0.949 . S
H1702 C1706 0.949 . S
C1703 C1704 1.349 . S
C1703 C1705 1.327 . S
C1703 H1726 0.950 . S
C1704 C1703 1.349 . S
C1704 C1716 1.349 . S
C1705 C1703 1.327 . S
C1705 C1721 1.429 . S
C1705 H1727 0.950 . S
C1706 H1702 0.949 . S
C1706 C1714 1.574 . S
C1706 C1722 1.368 . S
H1707 C1715 0.950 . S
H1708 C1713 0.950 . S
H1709 C1714 0.949 . S
H1710 C1716 0.950 . S
H1711 C1717 0.950 . S
H1712 C1718 0.949 . S
C1713 H1708 0.950 . S
C1713 C1715 1.327 . S
C1713 C1719 1.429 . S
C1714 C1706 1.574 . S
C1714 H1709 0.949 . S
C1714 C1720 1.368 . S
C1715 C1699 1.349 . S
C1715 H1707 0.950 . S
C1715 C1713 1.327 . S
C1716 C1704 1.349 . S
C1716 H1710 0.950 . S
C1716 C1717 1.327 . S
C1717 H1711 0.950 . S
C1717 C1716 1.327 . S
C1717 C1721 1.429 . S
C1718 C1701 1.574 . S
C1718 H1712 0.949 . S
C1718 C1722 1.368 . S
C1719 C1700 1.429 . S
C1719 C1713 1.429 . S
C1719 C1720 1.523 . S
C1720 C1701 1.368 . S
C1720 C1714 1.368 . S
C1720 C1719 1.523 . S
C1721 C1705 1.429 . S
C1721 C1717 1.429 . S
C1721 C1722 1.523 . S
C1722 C1706 1.368 . S
C1722 C1718 1.368 . S
C1722 C1721 1.523 . S
H1723 C1698 0.950 . S
H1724 C1700 0.950 . S
H1725 C1701 0.949 . S
H1726 C1703 0.950 . S
H1727 C1705 0.950 . S
C1728 C1729 1.349 . S
C1728 C1730 1.327 . S
C1728 H1753 0.950 . S
C1729 C1728 1.349 . S
C1729 C1745 1.349 . S
C1730 C1728 1.327 . S
C1730 C1749 1.429 . S
C1730 H1754 0.950 . S
C1731 C1748 1.574 . S
C1731 C1750 1.368 . S
C1731 H1755 0.949 . S
H1732 C1736 0.949 . S
C1733 C1734 1.349 . S
C1733 C1735 1.327 . S
C1733 H1756 0.950 . S
C1734 C1733 1.349 . S
C1734 C1746 1.349 . S
C1735 C1733 1.327 . S
C1735 C1751 1.429 . S
C1735 H1757 0.950 . S
C1736 H1732 0.949 . S
C1736 C1744 1.574 . S
C1736 C1752 1.368 . S
H1737 C1745 0.950 . S
H1738 C1743 0.950 . S
H1739 C1744 0.949 1_455 S
H1740 C1746 0.950 . S
H1741 C1747 0.950 . S
H1742 C1748 0.949 . S
C1743 H1738 0.950 . S
C1743 C1745 1.327 . S
C1743 C1749 1.429 . S
C1744 C1736 1.574 . S
C1744 H1739 0.949 1_655 S
C1744 C1750 1.368 . S
C1745 C1729 1.349 . S
C1745 H1737 0.950 . S
C1745 C1743 1.327 . S
C1746 C1734 1.349 . S
C1746 H1740 0.950 . S
C1746 C1747 1.327 . S
C1747 H1741 0.950 . S
C1747 C1746 1.327 . S
C1747 C1751 1.429 . S
C1748 C1731 1.574 . S
C1748 H1742 0.949 . S
C1748 C1752 1.368 . S
C1749 C1730 1.429 . S
C1749 C1743 1.429 . S
C1749 C1750 1.523 1_455 S
C1750 C1731 1.368 . S
C1750 C1744 1.368 . S
C1750 C1749 1.523 1_655 S
C1751 C1735 1.429 . S
C1751 C1747 1.429 . S
C1751 C1752 1.523 . S
C1752 C1736 1.368 . S
C1752 C1748 1.368 . S
C1752 C1751 1.523 . S
H1753 C1728 0.950 . S
H1754 C1730 0.950 . S
H1755 C1731 0.949 . S
H1756 C1733 0.950 . S
H1757 C1735 0.950 . S
C1758 C1759 1.349 . S
C1758 C1760 1.327 . S
C1758 H1783 0.950 . S
C1759 C1758 1.349 . S
C1759 C1775 1.349 . S
C1760 C1758 1.327 . S
C1760 C1779 1.429 . S
C1760 H1784 0.950 . S
C1761 C1778 1.574 . S
C1761 C1780 1.368 . S
C1761 H1785 0.949 . S
H1762 C1766 0.949 . S
C1763 C1764 1.349 . S
C1763 C1765 1.327 . S
C1763 H1786 0.950 . S
C1764 C1763 1.349 . S
C1764 C1776 1.349 . S
C1765 C1763 1.327 . S
C1765 C1781 1.429 . S
C1765 H1787 0.950 . S
C1766 H1762 0.949 . S
C1766 C1774 1.574 . S
C1766 C1782 1.368 . S
H1767 C1775 0.950 . S
H1768 C1773 0.950 . S
H1769 C1774 0.949 . S
H1770 C1776 0.950 . S
H1771 C1777 0.950 . S
H1772 C1778 0.949 . S
C1773 H1768 0.950 . S
C1773 C1775 1.327 . S
C1773 C1779 1.429 . S
C1774 C1766 1.574 . S
C1774 H1769 0.949 . S
C1774 C1780 1.368 . S
C1775 C1759 1.349 . S
C1775 H1767 0.950 . S
C1775 C1773 1.327 . S
C1776 C1764 1.349 . S
C1776 H1770 0.950 . S
C1776 C1777 1.327 . S
C1777 H1771 0.950 . S
C1777 C1776 1.327 . S
C1777 C1781 1.429 . S
C1778 C1761 1.574 . S
C1778 H1772 0.949 . S
C1778 C1782 1.368 . S
C1779 C1760 1.429 . S
C1779 C1773 1.429 . S
C1779 C1780 1.523 . S
C1780 C1761 1.368 . S
C1780 C1774 1.368 . S
C1780 C1779 1.523 . S
C1781 C1765 1.429 . S
C1781 C1777 1.429 . S
C1781 C1782 1.523 . S
C1782 C1766 1.368 . S
C1782 C1778 1.368 . S
C1782 C1781 1.523 . S
H1783 C1758 0.950 . S
H1784 C1760 0.950 . S
H1785 C1761 0.949 . S
H1786 C1763 0.950 . S
H1787 C1765 0.950 . S
C1788 C1789 1.349 . S
C1788 C1790 1.327 . S
C1788 H1813 0.950 . S
C1789 C1788 1.349 . S
C1789 C1805 1.349 . S
C1790 C1788 1.327 . S
C1790 C1809 1.429 . S
C1790 H1814 0.950 . S
C1791 C1808 1.574 . S
C1791 C1810 1.368 . S
C1791 H1815 0.949 . S
H1792 C1796 0.949 . S
C1793 C1794 1.349 . S
C1793 C1795 1.327 . S
C1793 H1816 0.950 . S
C1794 C1793 1.349 . S
C1794 C1806 1.349 . S
C1795 C1793 1.327 . S
C1795 C1811 1.429 . S
C1795 H1817 0.950 . S
C1796 H1792 0.949 . S
C1796 C1804 1.574 . S
C1796 C1812 1.368 . S
H1797 C1805 0.950 . S
H1798 C1803 0.950 . S
H1799 C1804 0.949 . S
H1800 C1806 0.950 . S
H1801 C1807 0.950 . S
H1802 C1808 0.949 . S
C1803 H1798 0.950 . S
C1803 C1805 1.327 . S
C1803 C1809 1.429 . S
C1804 C1796 1.574 . S
C1804 H1799 0.949 . S
C1804 C1810 1.368 . S
C1805 C1789 1.349 . S
C1805 H1797 0.950 . S
C1805 C1803 1.327 . S
C1806 C1794 1.349 . S
C1806 H1800 0.950 . S
C1806 C1807 1.327 . S
C1807 H1801 0.950 . S
C1807 C1806 1.327 . S
C1807 C1811 1.429 . S
C1808 C1791 1.574 . S
C1808 H1802 0.949 . S
C1808 C1812 1.368 . S
C1809 C1790 1.429 . S
C1809 C1803 1.429 . S
C1809 C1810 1.523 1_565 S
C1810 C1791 1.368 . S
C1810 C1804 1.368 . S
C1810 C1809 1.523 1_545 S
C1811 C1795 1.429 . S
C1811 C1807 1.429 . S
C1811 C1812 1.523 . S
C1812 C1796 1.368 . S
C1812 C1808 1.368 . S
C1812 C1811 1.523 . S
H1813 C1788 0.950 . S
H1814 C1790 0.950 . S
H1815 C1791 0.949 . S
H1816 C1793 0.950 . S
H1817 C1795 0.950 . S
C1818 C1819 1.349 . S
C1818 C1820 1.327 . S
C1818 H1843 0.950 . S
C1819 C1818 1.349 . S
C1819 C1835 1.349 . S
C1820 C1818 1.327 . S
C1820 C1839 1.429 . S
C1820 H1844 0.950 . S
C1821 C1838 1.574 . S
C1821 C1840 1.368 . S
C1821 H1845 0.949 . S
H1822 C1826 0.949 . S
C1823 C1824 1.349 . S
C1823 C1825 1.327 . S
C1823 H1846 0.950 . S
C1824 C1823 1.349 . S
C1824 C1836 1.349 . S
C1825 C1823 1.327 . S
C1825 C1841 1.429 . S
C1825 H1847 0.950 . S
C1826 H1822 0.949 . S
C1826 C1834 1.574 . S
C1826 C1842 1.368 . S
H1827 C1835 0.950 . S
H1828 C1833 0.950 . S
H1829 C1834 0.949 . S
H1830 C1836 0.950 . S
H1831 C1837 0.950 . S
H1832 C1838 0.949 . S
C1833 H1828 0.950 . S
C1833 C1835 1.327 . S
C1833 C1839 1.429 . S
C1834 C1826 1.574 . S
C1834 H1829 0.949 . S
C1834 C1840 1.368 . S
C1835 C1819 1.349 . S
C1835 H1827 0.950 . S
C1835 C1833 1.327 . S
C1836 C1824 1.349 . S
C1836 H1830 0.950 . S
C1836 C1837 1.327 . S
C1837 H1831 0.950 . S
C1837 C1836 1.327 . S
C1837 C1841 1.429 . S
C1838 C1821 1.574 . S
C1838 H1832 0.949 . S
C1838 C1842 1.368 . S
C1839 C1820 1.429 . S
C1839 C1833 1.429 . S
C1839 C1840 1.523 . S
C1840 C1821 1.368 . S
C1840 C1834 1.368 . S
C1840 C1839 1.523 . S
C1841 C1825 1.429 . S
C1841 C1837 1.429 . S
C1841 C1842 1.523 . S
C1842 C1826 1.368 . S
C1842 C1838 1.368 . S
C1842 C1841 1.523 . S
H1843 C1818 0.950 . S
H1844 C1820 0.950 . S
H1845 C1821 0.949 . S
H1846 C1823 0.950 . S
H1847 C1825 0.950 . S
C1848 C1849 1.349 . S
C1848 C1850 1.327 . S
C1848 H1873 0.950 . S
C1849 C1848 1.349 . S
C1849 C1865 1.349 . S
C1850 C1848 1.327 . S
C1850 C1869 1.429 . S
C1850 H1874 0.950 . S
C1851 C1868 1.574 . S
C1851 C1870 1.368 . S
C1851 H1875 0.949 . S
H1852 C1856 0.949 . S
C1853 C1854 1.349 . S
C1853 C1855 1.327 . S
C1853 H1876 0.950 . S
C1854 C1853 1.349 . S
C1854 C1866 1.349 . S
C1855 C1853 1.327 . S
C1855 C1871 1.429 . S
C1855 H1877 0.950 . S
C1856 H1852 0.949 . S
C1856 C1864 1.574 . S
C1856 C1872 1.368 . S
H1857 C1865 0.950 . S
H1858 C1863 0.950 . S
H1859 C1864 0.949 . S
H1860 C1866 0.950 . S
H1861 C1867 0.950 . S
H1862 C1868 0.949 . S
C1863 H1858 0.950 . S
C1863 C1865 1.327 . S
C1863 C1869 1.429 . S
C1864 C1856 1.574 . S
C1864 H1859 0.949 . S
C1864 C1870 1.368 . S
C1865 C1849 1.349 . S
C1865 H1857 0.950 . S
C1865 C1863 1.327 . S
C1866 C1854 1.349 . S
C1866 H1860 0.950 . S
C1866 C1867 1.327 . S
C1867 H1861 0.950 . S
C1867 C1866 1.327 . S
C1867 C1871 1.429 . S
C1868 C1851 1.574 . S
C1868 H1862 0.949 . S
C1868 C1872 1.368 . S
C1869 C1850 1.429 . S
C1869 C1863 1.429 . S
C1869 C1870 1.523 . S
C1870 C1851 1.368 . S
C1870 C1864 1.368 . S
C1870 C1869 1.523 . S
C1871 C1855 1.429 . S
C1871 C1867 1.429 . S
C1871 C1872 1.523 . S
C1872 C1856 1.368 . S
C1872 C1868 1.368 . S
C1872 C1871 1.523 . S
H1873 C1848 0.950 . S
H1874 C1850 0.950 . S
H1875 C1851 0.949 . S
H1876 C1853 0.950 . S
H1877 C1855 0.950 . S
C1878 C1879 1.349 . S
C1878 C1880 1.327 . S
C1878 H1903 0.950 . S
C1879 C1878 1.349 . S
C1879 C1895 1.349 . S
C1880 C1878 1.327 . S
C1880 C1899 1.429 . S
C1880 H1904 0.950 . S
C1881 C1898 1.574 . S
C1881 C1900 1.368 . S
C1881 H1905 0.949 . S
H1882 C1886 0.949 . S
C1883 C1884 1.349 . S
C1883 C1885 1.327 . S
C1883 H1906 0.950 . S
C1884 C1883 1.349 . S
C1884 C1896 1.349 . S
C1885 C1883 1.327 . S
C1885 C1901 1.429 . S
C1885 H1907 0.950 . S
C1886 H1882 0.949 . S
C1886 C1894 1.574 . S
C1886 C1902 1.368 . S
H1887 C1895 0.950 . S
H1888 C1893 0.950 . S
H1889 C1894 0.949 . S
H1890 C1896 0.950 . S
H1891 C1897 0.950 . S
H1892 C1898 0.949 . S
C1893 H1888 0.950 . S
C1893 C1895 1.327 . S
C1893 C1899 1.429 . S
C1894 C1886 1.574 . S
C1894 H1889 0.949 . S
C1894 C1900 1.368 . S
C1895 C1879 1.349 . S
C1895 H1887 0.950 . S
C1895 C1893 1.327 . S
C1896 C1884 1.349 . S
C1896 H1890 0.950 . S
C1896 C1897 1.327 . S
C1897 H1891 0.950 . S
C1897 C1896 1.327 . S
C1897 C1901 1.429 . S
C1898 C1881 1.574 . S
C1898 H1892 0.949 . S
C1898 C1902 1.368 . S
C1899 C1880 1.429 . S
C1899 C1893 1.429 . S
C1899 C1900 1.523 . S
C1900 C1881 1.368 . S
C1900 C1894 1.368 . S
C1900 C1899 1.523 . S
C1901 C1885 1.429 . S
C1901 C1897 1.429 . S
C1901 C1902 1.523 . S
C1902 C1886 1.368 . S
C1902 C1898 1.368 . S
C1902 C1901 1.523 . S
H1903 C1878 0.950 . S
H1904 C1880 0.950 . S
H1905 C1881 0.949 . S
H1906 C1883 0.950 . S
H1907 C1885 0.950 . S
C1908 C1909 1.349 . S
C1908 C1910 1.327 . S
C1908 H1933 0.950 . S
C1909 C1908 1.349 . S
C1909 C1925 1.349 . S
C1910 C1908 1.327 . S
C1910 C1929 1.429 . S
C1910 H1934 0.950 . S
C1911 C1928 1.574 . S
C1911 C1930 1.368 . S
C1911 H1935 0.949 . S
H1912 C1916 0.949 . S
C1913 C1914 1.349 . S
C1913 C1915 1.327 . S
C1913 H1936 0.950 . S
C1914 C1913 1.349 . S
C1914 C1926 1.351 1_565 S
C1915 C1913 1.327 . S
C1915 C1931 1.429 . S
C1915 H1937 0.950 . S
C1916 H1912 0.949 . S
C1916 C1924 1.574 . S
C1916 C1932 1.368 . S
H1917 C1925 0.950 . S
H1918 C1923 0.950 . S
H1919 C1924 0.949 . S
H1920 C1926 0.946 . S
H1921 C1927 0.928 1_545 S
H1922 C1928 0.949 . S
C1923 H1918 0.950 . S
C1923 C1925 1.327 . S
C1923 C1929 1.429 . S
C1924 C1916 1.574 . S
C1924 H1919 0.949 . S
C1924 C1930 1.368 . S
C1925 C1909 1.349 . S
C1925 H1917 0.950 . S
C1925 C1923 1.327 . S
C1926 C1914 1.351 1_545 S
C1926 H1920 0.946 . S
C1926 C1927 1.328 1_545 S
C1927 H1921 0.928 1_565 S
C1927 C1926 1.328 1_565 S
C1927 C1931 1.429 . S
C1928 C1911 1.574 . S
C1928 H1922 0.949 . S
C1928 C1932 1.368 . S
C1929 C1910 1.429 . S
C1929 C1923 1.429 . S
C1929 C1930 1.523 . S
C1930 C1911 1.368 . S
C1930 C1924 1.368 . S
C1930 C1929 1.523 . S
C1931 C1915 1.429 . S
C1931 C1927 1.429 . S
C1931 C1932 1.523 . S
C1932 C1916 1.368 . S
C1932 C1928 1.368 . S
C1932 C1931 1.523 . S
H1933 C1908 0.950 . S
H1934 C1910 0.950 . S
H1935 C1911 0.949 . S
H1936 C1913 0.950 . S
H1937 C1915 0.950 . S
C1938 C1939 1.349 . S
C1938 C1940 1.327 . S
C1938 H1963 0.950 . S
C1939 C1938 1.349 . S
C1939 C1955 1.349 . S
C1940 C1938 1.327 . S
C1940 C1959 1.429 . S
C1940 H1964 0.950 . S
C1941 C1958 1.574 . S
C1941 C1960 1.368 . S
C1941 H1965 0.949 1_455 S
H1942 C1946 0.949 . S
C1943 C1944 1.349 1_655 S
C1943 C1945 1.334 . S
C1943 H1966 0.950 . S
C1944 C1943 1.349 1_455 S
C1944 C1956 1.349 . S
C1945 C1943 1.334 . S
C1945 C1961 1.392 1_655 S
C1945 H1967 0.985 . S
C1946 H1942 0.949 . S
C1946 C1954 1.574 . S
C1946 C1962 1.368 . S
H1947 C1955 0.950 . S
H1948 C1953 0.971 . S
H1949 C1954 0.949 . S
H1950 C1956 0.950 . S
H1951 C1957 0.950 . S
H1952 C1958 0.949 1_655 S
C1953 H1948 0.971 . S
C1953 C1955 1.327 . S
C1953 C1959 1.429 . S
C1954 C1946 1.574 . S
C1954 H1949 0.949 . S
C1954 C1960 1.368 . S
C1955 C1939 1.349 . S
C1955 H1947 0.950 . S
C1955 C1953 1.327 . S
C1956 C1944 1.349 . S
C1956 H1950 0.950 . S
C1956 C1957 1.327 . S
C1957 H1951 0.950 . S
C1957 C1956 1.327 . S
C1957 C1961 1.429 . S
C1958 C1941 1.574 . S
C1958 H1952 0.949 1_455 S
C1958 C1962 1.368 . S
C1959 C1940 1.429 . S
C1959 C1953 1.429 . S
C1959 C1960 1.523 . S
C1960 C1941 1.368 . S
C1960 C1954 1.368 . S
C1960 C1959 1.523 . S
C1961 C1945 1.392 1_455 S
C1961 C1957 1.429 . S
C1961 C1962 1.523 . S
C1962 C1946 1.368 . S
C1962 C1958 1.368 . S
C1962 C1961 1.523 . S
H1963 C1938 0.950 . S
H1964 C1940 0.950 . S
H1965 C1941 0.949 1_655 S
H1966 C1943 0.950 . S
H1967 C1945 0.985 . S
C1968 C1969 1.349 . S
C1968 C1970 1.327 . S
C1968 H1993 0.950 . S
C1969 C1968 1.349 . S
C1969 C1985 1.349 . S
C1970 C1968 1.327 . S
C1970 C1989 1.429 . S
C1970 H1994 0.950 . S
C1971 C1988 1.574 . S
C1971 C1990 1.368 . S
C1971 H1995 0.949 . S
H1972 C1976 0.949 . S
C1973 C1974 1.349 . S
C1973 C1975 1.327 . S
C1973 H1996 0.950 . S
C1974 C1973 1.349 . S
C1974 C1986 1.349 . S
C1975 C1973 1.327 . S
C1975 C1991 1.429 . S
C1975 H1997 0.950 . S
C1976 H1972 0.949 . S
C1976 C1984 1.574 . S
C1976 C1992 1.368 . S
H1977 C1985 0.950 . S
H1978 C1983 0.950 . S
H1979 C1984 0.949 . S
H1980 C1986 0.950 . S
H1981 C1987 0.950 . S
H1982 C1988 0.949 . S
C1983 H1978 0.950 . S
C1983 C1985 1.327 . S
C1983 C1989 1.429 . S
C1984 C1976 1.574 . S
C1984 H1979 0.949 . S
C1984 C1990 1.368 . S
C1985 C1969 1.349 . S
C1985 H1977 0.950 . S
C1985 C1983 1.327 . S
C1986 C1974 1.349 . S
C1986 H1980 0.950 . S
C1986 C1987 1.327 . S
C1987 H1981 0.950 . S
C1987 C1986 1.327 . S
C1987 C1991 1.429 . S
C1988 C1971 1.574 . S
C1988 H1982 0.949 . S
C1988 C1992 1.368 . S
C1989 C1970 1.429 . S
C1989 C1983 1.429 . S
C1989 C1990 1.523 . S
C1990 C1971 1.368 . S
C1990 C1984 1.368 . S
C1990 C1989 1.523 . S
C1991 C1975 1.429 . S
C1991 C1987 1.429 . S
C1991 C1992 1.523 . S
C1992 C1976 1.368 . S
C1992 C1988 1.368 . S
C1992 C1991 1.523 . S
H1993 C1968 0.950 . S
H1994 C1970 0.950 . S
H1995 C1971 0.949 . S
H1996 C1973 0.950 . S
H1997 C1975 0.950 . S
C1998 C1999 1.349 . S
C1998 C2000 1.327 . S
C1998 H2023 0.950 . S
C1999 C1998 1.349 . S
C1999 C2015 1.349 . S
C2000 C1998 1.327 . S
C2000 C2019 1.429 . S
C2000 H2024 0.950 . S
C2001 C2018 1.574 . S
C2001 C2020 1.368 . S
C2001 H2025 0.949 . S
H2002 C2006 0.949 . S
C2003 C2004 1.349 . S
C2003 C2005 1.327 . S
C2003 H2026 0.950 . S
C2004 C2003 1.349 . S
C2004 C2016 1.349 . S
C2005 C2003 1.327 . S
C2005 C2021 1.429 . S
C2005 H2027 0.950 . S
C2006 H2002 0.949 . S
C2006 C2014 1.574 . S
C2006 C2022 1.368 . S
H2007 C2015 0.950 . S
H2008 C2013 0.950 . S
H2009 C2014 0.949 . S
H2010 C2016 0.950 . S
H2011 C2017 0.950 . S
H2012 C2018 0.949 . S
C2013 H2008 0.950 . S
C2013 C2015 1.327 . S
C2013 C2019 1.429 . S
C2014 C2006 1.574 . S
C2014 H2009 0.949 . S
C2014 C2020 1.368 . S
C2015 C1999 1.349 . S
C2015 H2007 0.950 . S
C2015 C2013 1.327 . S
C2016 C2004 1.349 . S
C2016 H2010 0.950 . S
C2016 C2017 1.327 . S
C2017 H2011 0.950 . S
C2017 C2016 1.327 . S
C2017 C2021 1.429 . S
C2018 C2001 1.574 . S
C2018 H2012 0.949 . S
C2018 C2022 1.368 . S
C2019 C2000 1.429 . S
C2019 C2013 1.429 . S
C2019 C2020 1.523 . S
C2020 C2001 1.368 . S
C2020 C2014 1.368 . S
C2020 C2019 1.523 . S
C2021 C2005 1.429 . S
C2021 C2017 1.429 . S
C2021 C2022 1.523 . S
C2022 C2006 1.368 . S
C2022 C2018 1.368 . S
C2022 C2021 1.523 . S
H2023 C1998 0.950 . S
H2024 C2000 0.950 . S
H2025 C2001 0.949 . S
H2026 C2003 0.950 . S
H2027 C2005 0.950 . S
C2028 C2029 1.349 . S
C2028 C2030 1.327 . S
C2028 H2053 0.950 . S
C2029 C2028 1.349 . S
C2029 C2045 1.349 . S
C2030 C2028 1.327 . S
C2030 C2049 1.429 . S
C2030 H2054 0.950 . S
C2031 C2048 1.574 . S
C2031 C2050 1.368 . S
C2031 H2055 0.949 . S
H2032 C2036 0.949 . S
C2033 C2034 1.349 . S
C2033 C2035 1.327 . S
C2033 H2056 0.950 . S
C2034 C2033 1.349 . S
C2034 C2046 1.349 . S
C2035 C2033 1.327 . S
C2035 C2051 1.429 . S
C2035 H2057 0.950 . S
C2036 H2032 0.949 . S
C2036 C2044 1.574 . S
C2036 C2052 1.368 . S
H2037 C2045 0.950 . S
H2038 C2043 0.950 . S
H2039 C2044 0.949 . S
H2040 C2046 0.950 . S
H2041 C2047 0.950 . S
H2042 C2048 0.949 . S
C2043 H2038 0.950 . S
C2043 C2045 1.327 . S
C2043 C2049 1.429 . S
C2044 C2036 1.574 . S
C2044 H2039 0.949 . S
C2044 C2050 1.368 . S
C2045 C2029 1.349 . S
C2045 H2037 0.950 . S
C2045 C2043 1.327 . S
C2046 C2034 1.349 . S
C2046 H2040 0.950 . S
C2046 C2047 1.327 . S
C2047 H2041 0.950 . S
C2047 C2046 1.327 . S
C2047 C2051 1.429 . S
C2048 C2031 1.574 . S
C2048 H2042 0.949 . S
C2048 C2052 1.368 . S
C2049 C2030 1.429 . S
C2049 C2043 1.429 . S
C2049 C2050 1.523 . S
C2050 C2031 1.368 . S
C2050 C2044 1.368 . S
C2050 C2049 1.523 . S
C2051 C2035 1.429 . S
C2051 C2047 1.429 . S
C2051 C2052 1.523 . S
C2052 C2036 1.368 . S
C2052 C2048 1.368 . S
C2052 C2051 1.523 . S
H2053 C2028 0.950 . S
H2054 C2030 0.950 . S
H2055 C2031 0.949 . S
H2056 C2033 0.950 . S
H2057 C2035 0.950 . S
C2058 C2059 1.349 . S
C2058 C2060 1.327 . S
C2058 H2083 0.950 . S
C2059 C2058 1.349 . S
C2059 C2075 1.349 . S
C2060 C2058 1.327 . S
C2060 C2079 1.429 . S
C2060 H2084 0.950 . S
C2061 C2078 1.574 . S
C2061 C2080 1.368 . S
C2061 H2085 0.949 . S
H2062 C2066 0.949 . S
C2063 C2064 1.349 1_565 S
C2063 C2065 1.327 . S
C2063 H2086 0.950 . S
C2064 C2063 1.349 1_545 S
C2064 C2076 1.349 . S
C2065 C2063 1.327 . S
C2065 C2081 1.429 1_565 S
C2065 H2087 0.950 . S
C2066 H2062 0.949 . S
C2066 C2074 1.574 . S
C2066 C2082 1.368 . S
H2067 C2075 0.950 . S
H2068 C2073 0.950 . S
H2069 C2074 0.949 . S
H2070 C2076 0.950 . S
H2071 C2077 0.950 . S
H2072 C2078 0.949 1_565 S
C2073 H2068 0.950 . S
C2073 C2075 1.327 . S
C2073 C2079 1.429 . S
C2074 C2066 1.574 . S
C2074 H2069 0.949 . S
C2074 C2080 1.368 . S
C2075 C2059 1.349 . S
C2075 H2067 0.950 . S
C2075 C2073 1.327 . S
C2076 C2064 1.349 . S
C2076 H2070 0.950 . S
C2076 C2077 1.327 . S
C2077 H2071 0.950 . S
C2077 C2076 1.327 . S
C2077 C2081 1.429 . S
C2078 C2061 1.574 . S
C2078 H2072 0.949 1_545 S
C2078 C2082 1.368 . S
C2079 C2060 1.429 . S
C2079 C2073 1.429 . S
C2079 C2080 1.523 . S
C2080 C2061 1.368 . S
C2080 C2074 1.368 . S
C2080 C2079 1.523 . S
C2081 C2065 1.429 1_545 S
C2081 C2077 1.429 . S
C2081 C2082 1.523 . S
C2082 C2066 1.368 . S
C2082 C2078 1.368 . S
C2082 C2081 1.523 . S
H2083 C2058 0.950 . S
H2084 C2060 0.950 . S
H2085 C2061 0.949 . S
H2086 C2063 0.950 . S
H2087 C2065 0.950 . S
C2088 C2089 1.349 . S
C2088 C2090 1.327 . S
C2088 H2113 0.950 . S
C2089 C2088 1.349 . S
C2089 C2105 1.349 . S
C2090 C2088 1.327 . S
C2090 C2109 1.429 . S
C2090 H2114 0.950 . S
C2091 C2108 1.574 . S
C2091 C2110 1.368 . S
C2091 H2115 0.949 . S
H2092 C2096 0.949 . S
C2093 C2094 1.349 . S
C2093 C2095 1.327 . S
C2093 H2116 0.950 . S
C2094 C2093 1.349 . S
C2094 C2106 1.349 . S
C2095 C2093 1.327 . S
C2095 C2111 1.429 . S
C2095 H2117 0.950 . S
C2096 H2092 0.949 . S
C2096 C2104 1.574 . S
C2096 C2112 1.368 . S
H2097 C2105 0.950 . S
H2098 C2103 0.950 . S
H2099 C2104 0.949 . S
H2100 C2106 0.950 . S
H2101 C2107 0.950 . S
H2102 C2108 0.949 . S
C2103 H2098 0.950 . S
C2103 C2105 1.327 . S
C2103 C2109 1.429 . S
C2104 C2096 1.574 . S
C2104 H2099 0.949 . S
C2104 C2110 1.368 . S
C2105 C2089 1.349 . S
C2105 H2097 0.950 . S
C2105 C2103 1.327 . S
C2106 C2094 1.349 . S
C2106 H2100 0.950 . S
C2106 C2107 1.327 . S
C2107 H2101 0.950 . S
C2107 C2106 1.327 . S
C2107 C2111 1.429 . S
C2108 C2091 1.574 . S
C2108 H2102 0.949 . S
C2108 C2112 1.368 . S
C2109 C2090 1.429 . S
C2109 C2103 1.429 . S
C2109 C2110 1.523 . S
C2110 C2091 1.368 . S
C2110 C2104 1.368 . S
C2110 C2109 1.523 . S
C2111 C2095 1.429 . S
C2111 C2107 1.429 . S
C2111 C2112 1.523 . S
C2112 C2096 1.368 . S
C2112 C2108 1.368 . S
C2112 C2111 1.523 . S
H2113 C2088 0.950 . S
H2114 C2090 0.950 . S
H2115 C2091 0.949 . S
H2116 C2093 0.950 . S
H2117 C2095 0.950 . S
C2118 C2119 1.349 . S
C2118 C2120 1.327 . S
C2118 H2143 0.950 . S
C2119 C2118 1.349 . S
C2119 C2135 1.349 . S
C2120 C2118 1.327 . S
C2120 C2139 1.429 . S
C2120 H2144 0.950 . S
C2121 C2138 1.574 . S
C2121 C2140 1.368 . S
C2121 H2145 0.949 . S
H2122 C2126 0.949 . S
C2123 C2124 1.349 . S
C2123 C2125 1.327 . S
C2123 H2146 0.950 . S
C2124 C2123 1.349 . S
C2124 C2136 1.349 . S
C2125 C2123 1.327 . S
C2125 C2141 1.429 . S
C2125 H2147 0.950 . S
C2126 H2122 0.949 . S
C2126 C2134 1.574 . S
C2126 C2142 1.368 . S
H2127 C2135 0.950 . S
H2128 C2133 0.950 . S
H2129 C2134 0.949 . S
H2130 C2136 0.950 . S
H2131 C2137 0.950 . S
H2132 C2138 0.949 . S
C2133 H2128 0.950 . S
C2133 C2135 1.327 . S
C2133 C2139 1.429 . S
C2134 C2126 1.574 . S
C2134 H2129 0.949 . S
C2134 C2140 1.368 . S
C2135 C2119 1.349 . S
C2135 H2127 0.950 . S
C2135 C2133 1.327 . S
C2136 C2124 1.349 . S
C2136 H2130 0.950 . S
C2136 C2137 1.327 . S
C2137 H2131 0.950 . S
C2137 C2136 1.327 . S
C2137 C2141 1.429 . S
C2138 C2121 1.574 . S
C2138 H2132 0.949 . S
C2138 C2142 1.368 . S
C2139 C2120 1.429 . S
C2139 C2133 1.429 . S
C2139 C2140 1.523 . S
C2140 C2121 1.368 . S
C2140 C2134 1.368 . S
C2140 C2139 1.523 . S
C2141 C2125 1.429 . S
C2141 C2137 1.429 . S
C2141 C2142 1.523 . S
C2142 C2126 1.368 . S
C2142 C2138 1.368 . S
C2142 C2141 1.523 . S
H2143 C2118 0.950 . S
H2144 C2120 0.950 . S
H2145 C2121 0.949 . S
H2146 C2123 0.950 . S
H2147 C2125 0.950 . S
C2148 C2149 1.349 . S
C2148 C2150 1.327 . S
C2148 H2173 0.950 . S
C2149 C2148 1.349 . S
C2149 C2165 1.349 . S
C2150 C2148 1.327 . S
C2150 C2169 1.429 . S
C2150 H2174 0.950 . S
C2151 C2168 1.574 . S
C2151 C2170 1.368 . S
C2151 H2175 0.949 . S
H2152 C2156 0.949 . S
C2153 C2154 1.349 . S
C2153 C2155 1.327 . S
C2153 H2176 0.950 . S
C2154 C2153 1.349 . S
C2154 C2166 1.349 . S
C2155 C2153 1.327 . S
C2155 C2171 1.429 . S
C2155 H2177 0.950 . S
C2156 H2152 0.949 . S
C2156 C2164 1.574 . S
C2156 C2172 1.368 . S
H2157 C2165 0.950 . S
H2158 C2163 0.950 . S
H2159 C2164 0.949 . S
H2160 C2166 0.950 . S
H2161 C2167 0.950 . S
H2162 C2168 0.949 . S
C2163 H2158 0.950 . S
C2163 C2165 1.327 . S
C2163 C2169 1.429 . S
C2164 C2156 1.574 . S
C2164 H2159 0.949 . S
C2164 C2170 1.368 . S
C2165 C2149 1.349 . S
C2165 H2157 0.950 . S
C2165 C2163 1.327 . S
C2166 C2154 1.349 . S
C2166 H2160 0.950 . S
C2166 C2167 1.327 . S
C2167 H2161 0.950 . S
C2167 C2166 1.327 . S
C2167 C2171 1.429 . S
C2168 C2151 1.574 . S
C2168 H2162 0.949 . S
C2168 C2172 1.368 . S
C2169 C2150 1.429 . S
C2169 C2163 1.429 . S
C2169 C2170 1.523 . S
C2170 C2151 1.368 . S
C2170 C2164 1.368 . S
C2170 C2169 1.523 . S
C2171 C2155 1.429 . S
C2171 C2167 1.429 . S
C2171 C2172 1.523 . S
C2172 C2156 1.368 . S
C2172 C2168 1.368 . S
C2172 C2171 1.523 . S
H2173 C2148 0.950 . S
H2174 C2150 0.950 . S
H2175 C2151 0.949 . S
H2176 C2153 0.950 . S
H2177 C2155 0.950 . S
C2178 C2179 1.349 . S
C2178 C2180 1.327 . S
C2178 H2203 0.950 . S
C2179 C2178 1.349 . S
C2179 C2195 1.349 . S
C2180 C2178 1.327 . S
C2180 C2199 1.429 . S
C2180 H2204 0.950 . S
C2181 C2198 1.574 . S
C2181 C2200 1.368 . S
C2181 H2205 0.949 . S
H2182 C2186 0.949 . S
C2183 C2184 1.349 . S
C2183 C2185 1.327 . S
C2183 H2206 0.950 . S
C2184 C2183 1.349 . S
C2184 C2196 1.349 . S
C2185 C2183 1.327 . S
C2185 C2201 1.429 . S
C2185 H2207 0.950 . S
C2186 H2182 0.949 . S
C2186 C2194 1.574 . S
C2186 C2202 1.368 . S
H2187 C2195 0.950 . S
H2188 C2193 0.950 . S
H2189 C2194 0.949 . S
H2190 C2196 0.950 . S
H2191 C2197 0.950 . S
H2192 C2198 0.949 . S
C2193 H2188 0.950 . S
C2193 C2195 1.327 . S
C2193 C2199 1.429 . S
C2194 C2186 1.574 . S
C2194 H2189 0.949 . S
C2194 C2200 1.368 . S
C2195 C2179 1.349 . S
C2195 H2187 0.950 . S
C2195 C2193 1.327 . S
C2196 C2184 1.349 . S
C2196 H2190 0.950 . S
C2196 C2197 1.327 . S
C2197 H2191 0.950 . S
C2197 C2196 1.327 . S
C2197 C2201 1.429 . S
C2198 C2181 1.574 . S
C2198 H2192 0.949 . S
C2198 C2202 1.368 . S
C2199 C2180 1.429 . S
C2199 C2193 1.429 . S
C2199 C2200 1.523 . S
C2200 C2181 1.368 . S
C2200 C2194 1.368 . S
C2200 C2199 1.523 . S
C2201 C2185 1.429 . S
C2201 C2197 1.429 . S
C2201 C2202 1.523 . S
C2202 C2186 1.368 . S
C2202 C2198 1.368 . S
C2202 C2201 1.523 . S
H2203 C2178 0.950 . S
H2204 C2180 0.950 . S
H2205 C2181 0.949 . S
H2206 C2183 0.950 . S
H2207 C2185 0.950 . S
C2208 C2209 1.349 . S
C2208 C2210 1.327 . S
C2208 H2233 0.950 . S
C2209 C2208 1.349 . S
C2209 C2225 1.349 . S
C2210 C2208 1.327 . S
C2210 C2229 1.429 . S
C2210 H2234 0.950 . S
C2211 C2228 1.574 . S
C2211 C2230 1.368 . S
C2211 H2235 0.949 . S
H2212 C2216 0.949 . S
C2213 C2214 1.349 . S
C2213 C2215 1.327 . S
C2213 H2236 0.950 . S
C2214 C2213 1.349 . S
C2214 C2226 1.349 . S
C2215 C2213 1.327 . S
C2215 C2231 1.429 . S
C2215 H2237 0.950 . S
C2216 H2212 0.949 . S
C2216 C2224 1.574 . S
C2216 C2232 1.368 . S
H2217 C2225 0.950 . S
H2218 C2223 0.950 . S
H2219 C2224 0.949 . S
H2220 C2226 0.950 . S
H2221 C2227 0.950 . S
H2222 C2228 0.949 . S
C2223 H2218 0.950 . S
C2223 C2225 1.327 . S
C2223 C2229 1.429 . S
C2224 C2216 1.574 . S
C2224 H2219 0.949 . S
C2224 C2230 1.368 . S
C2225 C2209 1.349 . S
C2225 H2217 0.950 . S
C2225 C2223 1.327 . S
C2226 C2214 1.349 . S
C2226 H2220 0.950 . S
C2226 C2227 1.327 . S
C2227 H2221 0.950 . S
C2227 C2226 1.327 . S
C2227 C2231 1.429 . S
C2228 C2211 1.574 . S
C2228 H2222 0.949 . S
C2228 C2232 1.368 . S
C2229 C2210 1.429 . S
C2229 C2223 1.429 . S
C2229 C2230 1.523 . S
C2230 C2211 1.368 . S
C2230 C2224 1.368 . S
C2230 C2229 1.523 . S
C2231 C2215 1.429 . S
C2231 C2227 1.429 . S
C2231 C2232 1.523 . S
C2232 C2216 1.368 . S
C2232 C2228 1.368 . S
C2232 C2231 1.523 . S
H2233 C2208 0.950 . S
H2234 C2210 0.950 . S
H2235 C2211 0.949 . S
H2236 C2213 0.950 . S
H2237 C2215 0.950 . S
C2238 C2239 1.349 . S
C2238 C2240 1.327 . S
C2238 H2263 0.950 . S
C2239 C2238 1.349 . S
C2239 C2255 1.349 . S
C2240 C2238 1.327 . S
C2240 C2259 1.429 . S
C2240 H2264 0.950 . S
C2241 C2258 1.574 . S
C2241 C2260 1.368 . S
C2241 H2265 0.949 . S
H2242 C2246 0.949 . S
C2243 C2244 1.349 . S
C2243 C2245 1.327 . S
C2243 H2266 0.950 . S
C2244 C2243 1.349 . S
C2244 C2256 1.349 . S
C2245 C2243 1.327 . S
C2245 C2261 1.429 . S
C2245 H2267 0.950 . S
C2246 H2242 0.949 . S
C2246 C2254 1.574 . S
C2246 C2262 1.368 . S
H2247 C2255 0.950 . S
H2248 C2253 0.950 . S
H2249 C2254 0.949 . S
H2250 C2256 0.950 . S
H2251 C2257 0.950 . S
H2252 C2258 0.949 . S
C2253 H2248 0.950 . S
C2253 C2255 1.327 . S
C2253 C2259 1.429 . S
C2254 C2246 1.574 . S
C2254 H2249 0.949 . S
C2254 C2260 1.368 . S
C2255 C2239 1.349 . S
C2255 H2247 0.950 . S
C2255 C2253 1.327 . S
C2256 C2244 1.349 . S
C2256 H2250 0.950 . S
C2256 C2257 1.327 . S
C2257 H2251 0.950 . S
C2257 C2256 1.327 . S
C2257 C2261 1.429 . S
C2258 C2241 1.574 . S
C2258 H2252 0.949 . S
C2258 C2262 1.368 . S
C2259 C2240 1.429 . S
C2259 C2253 1.429 . S
C2259 C2260 1.523 . S
C2260 C2241 1.368 . S
C2260 C2254 1.368 . S
C2260 C2259 1.523 . S
C2261 C2245 1.429 . S
C2261 C2257 1.429 . S
C2261 C2262 1.523 . S
C2262 C2246 1.368 . S
C2262 C2258 1.368 . S
C2262 C2261 1.523 . S
H2263 C2238 0.950 . S
H2264 C2240 0.950 . S
H2265 C2241 0.949 . S
H2266 C2243 0.950 . S
H2267 C2245 0.950 . S
C2268 C2269 1.349 . S
C2268 C2270 1.327 . S
C2268 H2293 0.950 . S
C2269 C2268 1.349 . S
C2269 C2285 1.349 . S
C2270 C2268 1.327 . S
C2270 C2289 1.429 . S
C2270 H2294 0.950 . S
C2271 C2288 1.574 . S
C2271 C2290 1.368 . S
C2271 H2295 0.949 . S
H2272 C2276 0.949 . S
C2273 C2274 1.349 . S
C2273 C2275 1.327 . S
C2273 H2296 0.950 . S
C2274 C2273 1.349 . S
C2274 C2286 1.349 . S
C2275 C2273 1.327 . S
C2275 C2291 1.429 . S
C2275 H2297 0.950 . S
C2276 H2272 0.949 . S
C2276 C2284 1.574 . S
C2276 C2292 1.368 . S
H2277 C2285 0.950 . S
H2278 C2283 0.950 . S
H2279 C2284 0.949 . S
H2280 C2286 0.950 . S
H2281 C2287 0.950 . S
H2282 C2288 0.949 . S
C2283 H2278 0.950 . S
C2283 C2285 1.327 . S
C2283 C2289 1.429 . S
C2284 C2276 1.574 . S
C2284 H2279 0.949 . S
C2284 C2290 1.368 . S
C2285 C2269 1.349 . S
C2285 H2277 0.950 . S
C2285 C2283 1.327 . S
C2286 C2274 1.349 . S
C2286 H2280 0.950 . S
C2286 C2287 1.327 . S
C2287 H2281 0.950 . S
C2287 C2286 1.327 . S
C2287 C2291 1.429 . S
C2288 C2271 1.574 . S
C2288 H2282 0.949 . S
C2288 C2292 1.368 . S
C2289 C2270 1.429 . S
C2289 C2283 1.429 . S
C2289 C2290 1.523 . S
C2290 C2271 1.368 . S
C2290 C2284 1.368 . S
C2290 C2289 1.523 . S
C2291 C2275 1.429 . S
C2291 C2287 1.429 . S
C2291 C2292 1.523 . S
C2292 C2276 1.368 . S
C2292 C2288 1.368 . S
C2292 C2291 1.523 . S
H2293 C2268 0.950 . S
H2294 C2270 0.950 . S
H2295 C2271 0.949 . S
H2296 C2273 0.950 . S
H2297 C2275 0.950 . S
C2298 C2299 1.349 . S
C2298 C2300 1.327 . S
C2298 H2323 0.950 . S
C2299 C2298 1.349 . S
C2299 C2315 1.349 . S
C2300 C2298 1.327 . S
C2300 C2319 1.429 . S
C2300 H2324 0.950 . S
C2301 C2318 1.574 . S
C2301 C2320 1.368 . S
C2301 H2325 0.949 . S
H2302 C2306 0.949 . S
C2303 C2304 1.349 . S
C2303 C2305 1.327 . S
C2303 H2326 0.950 . S
C2304 C2303 1.349 . S
C2304 C2316 1.349 . S
C2305 C2303 1.327 . S
C2305 C2321 1.429 . S
C2305 H2327 0.950 . S
C2306 H2302 0.949 . S
C2306 C2314 1.574 . S
C2306 C2322 1.368 . S
H2307 C2315 0.950 . S
H2308 C2313 0.950 . S
H2309 C2314 0.949 . S
H2310 C2316 0.950 . S
H2311 C2317 0.950 . S
H2312 C2318 0.949 . S
C2313 H2308 0.950 . S
C2313 C2315 1.327 . S
C2313 C2319 1.429 . S
C2314 C2306 1.574 . S
C2314 H2309 0.949 . S
C2314 C2320 1.368 . S
C2315 C2299 1.349 . S
C2315 H2307 0.950 . S
C2315 C2313 1.327 . S
C2316 C2304 1.349 . S
C2316 H2310 0.950 . S
C2316 C2317 1.327 . S
C2317 H2311 0.950 . S
C2317 C2316 1.327 . S
C2317 C2321 1.429 . S
C2318 C2301 1.574 . S
C2318 H2312 0.949 . S
C2318 C2322 1.368 . S
C2319 C2300 1.429 . S
C2319 C2313 1.429 . S
C2319 C2320 1.523 . S
C2320 C2301 1.368 . S
C2320 C2314 1.368 . S
C2320 C2319 1.523 . S
C2321 C2305 1.429 . S
C2321 C2317 1.429 . S
C2321 C2322 1.523 . S
C2322 C2306 1.368 . S
C2322 C2318 1.368 . S
C2322 C2321 1.523 . S
H2323 C2298 0.950 . S
H2324 C2300 0.950 . S
H2325 C2301 0.949 . S
H2326 C2303 0.950 . S
H2327 C2305 0.950 . S
C2328 C2329 1.349 . S
C2328 C2330 1.327 . S
C2328 H2353 0.950 . S
C2329 C2328 1.349 . S
C2329 C2345 1.349 . S
C2330 C2328 1.327 . S
C2330 C2349 1.429 . S
C2330 H2354 0.950 . S
C2331 C2348 1.574 . S
C2331 C2350 1.368 . S
C2331 H2355 0.949 . S
H2332 C2336 0.949 . S
C2333 C2334 1.349 . S
C2333 C2335 1.327 . S
C2333 H2356 0.950 . S
C2334 C2333 1.349 . S
C2334 C2346 1.349 . S
C2335 C2333 1.327 . S
C2335 C2351 1.429 . S
C2335 H2357 0.950 . S
C2336 H2332 0.949 . S
C2336 C2344 1.574 . S
C2336 C2352 1.368 . S
H2337 C2345 0.950 . S
H2338 C2343 0.950 . S
H2339 C2344 0.949 . S
H2340 C2346 0.950 . S
H2341 C2347 0.950 . S
H2342 C2348 0.949 . S
C2343 H2338 0.950 . S
C2343 C2345 1.327 . S
C2343 C2349 1.429 . S
C2344 C2336 1.574 . S
C2344 H2339 0.949 . S
C2344 C2350 1.368 . S
C2345 C2329 1.349 . S
C2345 H2337 0.950 . S
C2345 C2343 1.327 . S
C2346 C2334 1.349 . S
C2346 H2340 0.950 . S
C2346 C2347 1.327 . S
C2347 H2341 0.950 . S
C2347 C2346 1.327 . S
C2347 C2351 1.429 . S
C2348 C2331 1.574 . S
C2348 H2342 0.949 . S
C2348 C2352 1.368 . S
C2349 C2330 1.429 . S
C2349 C2343 1.429 . S
C2349 C2350 1.523 . S
C2350 C2331 1.368 . S
C2350 C2344 1.368 . S
C2350 C2349 1.523 . S
C2351 C2335 1.429 . S
C2351 C2347 1.429 . S
C2351 C2352 1.523 . S
C2352 C2336 1.368 . S
C2352 C2348 1.368 . S
C2352 C2351 1.523 . S
H2353 C2328 0.950 . S
H2354 C2330 0.950 . S
H2355 C2331 0.949 . S
H2356 C2333 0.950 . S
H2357 C2335 0.950 . S
C2358 C2359 1.349 . S
C2358 C2360 1.327 . S
C2358 H2383 0.950 . S
C2359 C2358 1.349 . S
C2359 C2375 1.349 . S
C2360 C2358 1.327 . S
C2360 C2379 1.429 . S
C2360 H2384 0.950 . S
C2361 C2378 1.574 . S
C2361 C2380 1.368 . S
C2361 H2385 0.949 . S
H2362 C2366 0.949 . S
C2363 C2364 1.349 . S
C2363 C2365 1.327 . S
C2363 H2386 0.950 . S
C2364 C2363 1.349 . S
C2364 C2376 1.349 . S
C2365 C2363 1.327 . S
C2365 C2381 1.429 . S
C2365 H2387 0.950 . S
C2366 H2362 0.949 . S
C2366 C2374 1.574 . S
C2366 C2382 1.368 . S
H2367 C2375 0.950 . S
H2368 C2373 0.950 . S
H2369 C2374 0.949 . S
H2370 C2376 0.950 . S
H2371 C2377 0.950 . S
H2372 C2378 0.949 . S
C2373 H2368 0.950 . S
C2373 C2375 1.327 . S
C2373 C2379 1.429 . S
C2374 C2366 1.574 . S
C2374 H2369 0.949 . S
C2374 C2380 1.368 . S
C2375 C2359 1.349 . S
C2375 H2367 0.950 . S
C2375 C2373 1.327 . S
C2376 C2364 1.349 . S
C2376 H2370 0.950 . S
C2376 C2377 1.327 . S
C2377 H2371 0.950 . S
C2377 C2376 1.327 . S
C2377 C2381 1.429 . S
C2378 C2361 1.574 . S
C2378 H2372 0.949 . S
C2378 C2382 1.368 . S
C2379 C2360 1.429 . S
C2379 C2373 1.429 . S
C2379 C2380 1.523 . S
C2380 C2361 1.368 . S
C2380 C2374 1.368 . S
C2380 C2379 1.523 . S
C2381 C2365 1.429 . S
C2381 C2377 1.429 . S
C2381 C2382 1.523 . S
C2382 C2366 1.368 . S
C2382 C2378 1.368 . S
C2382 C2381 1.523 . S
H2383 C2358 0.950 . S
H2384 C2360 0.950 . S
H2385 C2361 0.949 . S
H2386 C2363 0.950 . S
H2387 C2365 0.950 . S
C2388 C2389 1.349 . S
C2388 C2390 1.327 . S
C2388 H2413 0.950 . S
C2389 C2388 1.349 . S
C2389 C2405 1.349 . S
C2390 C2388 1.327 . S
C2390 C2409 1.429 . S
C2390 H2414 0.950 . S
C2391 C2408 1.574 . S
C2391 C2410 1.368 . S
C2391 H2415 0.949 . S
H2392 C2396 0.949 . S
C2393 C2394 1.349 . S
C2393 C2395 1.327 . S
C2393 H2416 0.950 . S
C2394 C2393 1.349 . S
C2394 C2406 1.349 . S
C2395 C2393 1.327 . S
C2395 C2411 1.429 . S
C2395 H2417 0.950 . S
C2396 H2392 0.949 . S
C2396 C2404 1.574 . S
C2396 C2412 1.368 . S
H2397 C2405 0.950 . S
H2398 C2403 0.950 . S
H2399 C2404 0.949 . S
H2400 C2406 0.950 . S
H2401 C2407 0.950 . S
H2402 C2408 0.949 . S
C2403 H2398 0.950 . S
C2403 C2405 1.327 . S
C2403 C2409 1.429 . S
C2404 C2396 1.574 . S
C2404 H2399 0.949 . S
C2404 C2410 1.368 . S
C2405 C2389 1.349 . S
C2405 H2397 0.950 . S
C2405 C2403 1.327 . S
C2406 C2394 1.349 . S
C2406 H2400 0.950 . S
C2406 C2407 1.327 . S
C2407 H2401 0.950 . S
C2407 C2406 1.327 . S
C2407 C2411 1.429 . S
C2408 C2391 1.574 . S
C2408 H2402 0.949 . S
C2408 C2412 1.368 . S
C2409 C2390 1.429 . S
C2409 C2403 1.429 . S
C2409 C2410 1.523 . S
C2410 C2391 1.368 . S
C2410 C2404 1.368 . S
C2410 C2409 1.523 . S
C2411 C2395 1.429 . S
C2411 C2407 1.429 . S
C2411 C2412 1.523 . S
C2412 C2396 1.368 . S
C2412 C2408 1.368 . S
C2412 C2411 1.523 . S
H2413 C2388 0.950 . S
H2414 C2390 0.950 . S
H2415 C2391 0.949 . S
H2416 C2393 0.950 . S
H2417 C2395 0.950 . S
C2418 C2419 1.349 . S
C2418 C2420 1.327 . S
C2418 H2443 0.950 . S
C2419 C2418 1.349 . S
C2419 C2435 1.349 . S
C2420 C2418 1.327 . S
C2420 C2439 1.429 . S
C2420 H2444 0.950 . S
C2421 C2438 1.574 . S
C2421 C2440 1.368 . S
C2421 H2445 0.949 . S
H2422 C2426 0.949 . S
C2423 C2424 1.349 . S
C2423 C2425 1.327 . S
C2423 H2446 0.950 . S
C2424 C2423 1.349 . S
C2424 C2436 1.349 . S
C2425 C2423 1.327 . S
C2425 C2441 1.429 . S
C2425 H2447 0.950 . S
C2426 H2422 0.949 . S
C2426 C2434 1.574 . S
C2426 C2442 1.368 . S
H2427 C2435 0.950 . S
H2428 C2433 0.950 . S
H2429 C2434 0.949 . S
H2430 C2436 0.950 . S
H2431 C2437 0.950 . S
H2432 C2438 0.949 . S
C2433 H2428 0.950 . S
C2433 C2435 1.327 . S
C2433 C2439 1.429 . S
C2434 C2426 1.574 . S
C2434 H2429 0.949 . S
C2434 C2440 1.368 . S
C2435 C2419 1.349 . S
C2435 H2427 0.950 . S
C2435 C2433 1.327 . S
C2436 C2424 1.349 . S
C2436 H2430 0.950 . S
C2436 C2437 1.327 . S
C2437 H2431 0.950 . S
C2437 C2436 1.327 . S
C2437 C2441 1.429 . S
C2438 C2421 1.574 . S
C2438 H2432 0.949 . S
C2438 C2442 1.368 . S
C2439 C2420 1.429 . S
C2439 C2433 1.429 . S
C2439 C2440 1.523 . S
C2440 C2421 1.368 . S
C2440 C2434 1.368 . S
C2440 C2439 1.523 . S
C2441 C2425 1.429 . S
C2441 C2437 1.429 . S
C2441 C2442 1.523 . S
C2442 C2426 1.368 . S
C2442 C2438 1.368 . S
C2442 C2441 1.523 . S
H2443 C2418 0.950 . S
H2444 C2420 0.950 . S
H2445 C2421 0.949 . S
H2446 C2423 0.950 . S
H2447 C2425 0.950 . S
C829 C469 1.556 . S
C834 C654 1.531 . S
C859 C505 1.539 . S
C864 C674 1.506 . S
C889 C433 1.573 . S
C894 C697 1.559 . S
C919 C397 1.452 . S
C924 C677 1.440 . S
C954 C694 1.392 . S
C949 C325 1.409 . S
C979 C361 1.435 . S
C984 C657 1.425 . S
C1014 C664 1.531 . S
C1009 C421 1.559 . S
C1044 C684 1.506 . S
C1039 C349 1.537 . S
C1069 C385 1.568 . S
C1074 C689 1.560 . S
C1099 C493 1.450 . S
C1104 C669 1.441 . S
C1129 C529 1.413 . S
C1134 C704 1.392 . S
C1164 C649 1.426 . S
C1159 C457 1.437 . S
C1194 C714 1.531 . S
C1189 C37 1.556 . S
C1219 C73 1.539 . S
C1224 C734 1.506 . S
C1249 C1 1.573 . S
C1254 C757 1.559 . S
C1279 C613 1.452 . S
C1284 C737 1.441 . S
C1309 C541 1.409 . S
C1314 C754 1.392 . S
C1339 C577 1.435 . S
C1344 C717 1.425 . S
C1369 C637 1.559 . S
C1374 C724 1.531 . S
C1399 C565 1.537 . S
C1404 C744 1.506 . S
C1434 C749 1.560 . S
C1429 C601 1.568 . S
C1459 C61 1.450 . S
C1464 C729 1.441 . S
C1494 C764 1.392 . S
C1489 C97 1.413 . S
C1519 C25 1.437 . S
C1524 C709 1.426 . S
C1554 C774 1.531 . S
C1549 C253 1.555 . S
C1579 C289 1.539 . S
C1584 C794 1.506 . S
C1614 C817 1.559 . S
C1609 C217 1.573 . S
C1644 C797 1.440 . S
C1639 C181 1.452 . S
C1674 C814 1.392 . S
C1669 C109 1.409 . S
C1699 C145 1.435 . S
C1704 C777 1.425 . S
C1729 C205 1.559 . S
C1734 C784 1.531 . S
C1759 C133 1.537 . S
C1764 C804 1.506 . S
C1794 C809 1.560 . S
C1789 C169 1.568 . S
C1819 C277 1.450 . S
C1824 C789 1.441 . S
C1849 C313 1.413 . S
C1854 C824 1.392 . S
C1879 C241 1.437 . S
C1884 C769 1.426 . S
C1909 C571 1.218 . S
C1914 C667 1.188 1_565 S
C1944 C687 1.646 . S
C1939 C607 1.717 . S
C1969 C643 1.491 . S
C1974 C696 1.446 . S
C1999 C247 1.714 . S
C2004 C676 1.646 1_655 S
C2029 C283 1.495 . S
C2034 C707 1.446 . S
C2064 C656 1.183 1_545 S
C2059 C319 1.216 . S
C2089 C139 1.218 . S
C2094 C727 1.189 . S
C2119 C175 1.717 . S
C2124 C747 1.647 . S
C2149 C211 1.491 . S
C2154 C756 1.446 . S
C2179 C463 1.714 . S
C2184 C736 1.646 . S
C2214 C767 1.446 . S
C2209 C499 1.495 . S
C2239 C535 1.216 . S
C2244 C716 1.188 . S
C2269 C355 1.218 . S
C2274 C787 1.188 . S
C2299 C391 1.717 . S
C2304 C807 1.646 . S
C2334 C816 1.446 . S
C2329 C427 1.492 . S
C2359 C31 1.714 . S
C2364 C796 1.646 . S
C2389 C67 1.495 . S
C2394 C827 1.446 . S
C2419 C103 1.216 . S
C2424 C776 1.188 . S
