# Generated by pormake.
# Topology eea, (3,6)-cn, num edge types: 1
# Building blocks:
#     Node 0, Type 0, BuildingBlock: MIDCAF_clean_linker_0, # of connection points: 3
#     Node 1, Type 0, BuildingBlock: MIDCAF_clean_linker_0, # of connection points: 3
#     Node 2, Type 0, BuildingBlock: MIDCAF_clean_linker_0, # of connection points: 3
#     Node 3, Type 0, BuildingBlock: MIDCAF_clean_linker_0, # of connection points: 3
#     Node 4, Type 0, BuildingBlock: MIDCAF_clean_linker_0, # of connection points: 3
#     Node 5, Type 0, BuildingBlock: MIDCAF_clean_linker_0, # of connection points: 3
#     Node 6, Type 0, BuildingBlock: MIDCAF_clean_linker_0, # of connection points: 3
#     Node 7, Type 0, BuildingBlock: MIDCAF_clean_linker_0, # of connection points: 3
#     Node 8, Type 0, BuildingBlock: MIDCAF_clean_linker_0, # of connection points: 3
#     Node 9, Type 0, BuildingBlock: MIDCAF_clean_linker_0, # of connection points: 3
#     Node 10, Type 0, BuildingBlock: MIDCAF_clean_linker_0, # of connection points: 3
#     Node 11, Type 0, BuildingBlock: MIDCAF_clean_linker_0, # of connection points: 3
#     Node 12, Type 0, BuildingBlock: MIDCAF_clean_linker_0, # of connection points: 3
#     Node 13, Type 0, BuildingBlock: MIDCAF_clean_linker_0, # of connection points: 3
#     Node 14, Type 0, BuildingBlock: MIDCAF_clean_linker_0, # of connection points: 3
#     Node 15, Type 0, BuildingBlock: MIDCAF_clean_linker_0, # of connection points: 3
#     Node 16, Type 0, BuildingBlock: MIDCAF_clean_linker_0, # of connection points: 3
#     Node 17, Type 0, BuildingBlock: MIDCAF_clean_linker_0, # of connection points: 3
#     Node 18, Type 1, BuildingBlock: HISSIN_clean_sbu_0, # of connection points: 6
#     Node 19, Type 1, BuildingBlock: HISSIN_clean_sbu_0, # of connection points: 6
#     Node 20, Type 1, BuildingBlock: HISSIN_clean_sbu_0, # of connection points: 6
#     Node 21, Type 1, BuildingBlock: HISSIN_clean_sbu_0, # of connection points: 6
#     Node 22, Type 1, BuildingBlock: HISSIN_clean_sbu_0, # of connection points: 6
#     Node 23, Type 1, BuildingBlock: HISSIN_clean_sbu_0, # of connection points: 6
#     Node 24, Type 1, BuildingBlock: HISSIN_clean_sbu_0, # of connection points: 6
#     Node 25, Type 1, BuildingBlock: HISSIN_clean_sbu_0, # of connection points: 6
#     Node 26, Type 1, BuildingBlock: HISSIN_clean_sbu_0, # of connection points: 6
#     Edge 27, Type (0, 1), BuildingBlock: CIFDUS_clean_linker_0, # of connection points: 2
#     Edge 28, Type (0, 1), BuildingBlock: CIFDUS_clean_linker_0, # of connection points: 2
#     Edge 29, Type (0, 1), BuildingBlock: CIFDUS_clean_linker_0, # of connection points: 2
#     Edge 30, Type (0, 1), BuildingBlock: CIFDUS_clean_linker_0, # of connection points: 2
#     Edge 31, Type (0, 1), BuildingBlock: CIFDUS_clean_linker_0, # of connection points: 2
#     Edge 32, Type (0, 1), BuildingBlock: CIFDUS_clean_linker_0, # of connection points: 2
#     Edge 33, Type (0, 1), BuildingBlock: CIFDUS_clean_linker_0, # of connection points: 2
#     Edge 34, Type (0, 1), BuildingBlock: CIFDUS_clean_linker_0, # of connection points: 2
#     Edge 35, Type (0, 1), BuildingBlock: CIFDUS_clean_linker_0, # of connection points: 2
#     Edge 36, Type (0, 1), BuildingBlock: CIFDUS_clean_linker_0, # of connection points: 2
#     Edge 37, Type (0, 1), BuildingBlock: CIFDUS_clean_linker_0, # of connection points: 2
#     Edge 38, Type (0, 1), BuildingBlock: CIFDUS_clean_linker_0, # of connection points: 2
#     Edge 39, Type (0, 1), BuildingBlock: CIFDUS_clean_linker_0, # of connection points: 2
#     Edge 40, Type (0, 1), BuildingBlock: CIFDUS_clean_linker_0, # of connection points: 2
#     Edge 41, Type (0, 1), BuildingBlock: CIFDUS_clean_linker_0, # of connection points: 2
#     Edge 42, Type (0, 1), BuildingBlock: CIFDUS_clean_linker_0, # of connection points: 2
#     Edge 43, Type (0, 1), BuildingBlock: CIFDUS_clean_linker_0, # of connection points: 2
#     Edge 44, Type (0, 1), BuildingBlock: CIFDUS_clean_linker_0, # of connection points: 2
#     Edge 45, Type (0, 1), BuildingBlock: CIFDUS_clean_linker_0, # of connection points: 2
#     Edge 46, Type (0, 1), BuildingBlock: CIFDUS_clean_linker_0, # of connection points: 2
#     Edge 47, Type (0, 1), BuildingBlock: CIFDUS_clean_linker_0, # of connection points: 2
#     Edge 48, Type (0, 1), BuildingBlock: CIFDUS_clean_linker_0, # of connection points: 2
#     Edge 49, Type (0, 1), BuildingBlock: CIFDUS_clean_linker_0, # of connection points: 2
#     Edge 50, Type (0, 1), BuildingBlock: CIFDUS_clean_linker_0, # of connection points: 2
#     Edge 51, Type (0, 1), BuildingBlock: CIFDUS_clean_linker_0, # of connection points: 2
#     Edge 52, Type (0, 1), BuildingBlock: CIFDUS_clean_linker_0, # of connection points: 2
#     Edge 53, Type (0, 1), BuildingBlock: CIFDUS_clean_linker_0, # of connection points: 2
#     Edge 54, Type (0, 1), BuildingBlock: CIFDUS_clean_linker_0, # of connection points: 2
#     Edge 55, Type (0, 1), BuildingBlock: CIFDUS_clean_linker_0, # of connection points: 2
#     Edge 56, Type (0, 1), BuildingBlock: CIFDUS_clean_linker_0, # of connection points: 2
#     Edge 57, Type (0, 1), BuildingBlock: CIFDUS_clean_linker_0, # of connection points: 2
#     Edge 58, Type (0, 1), BuildingBlock: CIFDUS_clean_linker_0, # of connection points: 2
#     Edge 59, Type (0, 1), BuildingBlock: CIFDUS_clean_linker_0, # of connection points: 2
#     Edge 60, Type (0, 1), BuildingBlock: CIFDUS_clean_linker_0, # of connection points: 2
#     Edge 61, Type (0, 1), BuildingBlock: CIFDUS_clean_linker_0, # of connection points: 2
#     Edge 62, Type (0, 1), BuildingBlock: CIFDUS_clean_linker_0, # of connection points: 2
#     Edge 63, Type (0, 1), BuildingBlock: CIFDUS_clean_linker_0, # of connection points: 2
#     Edge 64, Type (0, 1), BuildingBlock: CIFDUS_clean_linker_0, # of connection points: 2
#     Edge 65, Type (0, 1), BuildingBlock: CIFDUS_clean_linker_0, # of connection points: 2
#     Edge 66, Type (0, 1), BuildingBlock: CIFDUS_clean_linker_0, # of connection points: 2
#     Edge 67, Type (0, 1), BuildingBlock: CIFDUS_clean_linker_0, # of connection points: 2
#     Edge 68, Type (0, 1), BuildingBlock: CIFDUS_clean_linker_0, # of connection points: 2
#     Edge 69, Type (0, 1), BuildingBlock: CIFDUS_clean_linker_0, # of connection points: 2
#     Edge 70, Type (0, 1), BuildingBlock: CIFDUS_clean_linker_0, # of connection points: 2
#     Edge 71, Type (0, 1), BuildingBlock: CIFDUS_clean_linker_0, # of connection points: 2
#     Edge 72, Type (0, 1), BuildingBlock: CIFDUS_clean_linker_0, # of connection points: 2
#     Edge 73, Type (0, 1), BuildingBlock: CIFDUS_clean_linker_0, # of connection points: 2
#     Edge 74, Type (0, 1), BuildingBlock: CIFDUS_clean_linker_0, # of connection points: 2
#     Edge 75, Type (0, 1), BuildingBlock: CIFDUS_clean_linker_0, # of connection points: 2
#     Edge 76, Type (0, 1), BuildingBlock: CIFDUS_clean_linker_0, # of connection points: 2
#     Edge 77, Type (0, 1), BuildingBlock: CIFDUS_clean_linker_0, # of connection points: 2
#     Edge 78, Type (0, 1), BuildingBlock: CIFDUS_clean_linker_0, # of connection points: 2
#     Edge 79, Type (0, 1), BuildingBlock: CIFDUS_clean_linker_0, # of connection points: 2
#     Edge 80, Type (0, 1), BuildingBlock: CIFDUS_clean_linker_0, # of connection points: 2
# Relax obj value: 0.035
# Max RMSD: 0.132
# Mean RMSD: 0.080
data_MOF--net-eea--node1-HISSIN_clean_sbu_0--node2-MIDCAF_clean_linker_0--edge1-CIFDUS_clean_linker_0
_symmetry_space_group_name_H-M    P1
_symmetry_Int_Tables_number       1
_symmetry_cell_setting            triclinic
loop_
_symmetry_equiv_pos_as_xyz
'x, y, z'
_cell_length_a     55.915293
_cell_length_b     55.915259
_cell_length_c     81.459408
_cell_angle_alpha  93.324421
_cell_angle_beta   93.689548
_cell_angle_gamma 119.81672
loop_
_atom_site_label
_atom_site_type_symbol
_atom_site_fract_x
_atom_site_fract_y
_atom_site_fract_z
_atom_type_partial_charge
C0 C 0.28782 0.05468 0.41023 0.0
C1 C 0.26703 0.04287 0.3968 0.0
C2 C 0.25876 0.05979 0.38904 0.0
C3 C 0.27044 0.08773 0.39489 0.0
H4 H 0.2752 0.16256 0.38473 0.0
H5 H 0.25801 0.19077 0.3727 0.0
H6 H 0.28744 0.24574 0.41806 0.0
H7 H 0.30537 0.21819 0.42988 0.0
H8 H 0.33731 0.20897 0.45892 0.0
H9 H 0.35697 0.22004 0.48777 0.0
H10 H 0.36642 0.14787 0.48459 0.0
H11 H 0.34713 0.13687 0.45572 0.0
H12 H 0.31511 0.0908 0.42664 0.0
H13 H 0.29501 0.04231 0.41628 0.0
H14 H 0.24261 0.05125 0.37875 0.0
H15 H 0.26306 0.09997 0.38887 0.0
N16 N 0.29334 0.1448 0.40857 0.0
N17 N 0.31709 0.17937 0.43076 0.0
N18 N 0.31696 0.13745 0.43073 0.0
C19 C 0.30136 0.17051 0.41589 0.0
C20 C 0.3251 0.16302 0.43822 0.0
C21 C 0.30112 0.12815 0.41592 0.0
C22 C 0.29169 0.18807 0.40828 0.0
C23 C 0.27814 0.18075 0.39211 0.0
C24 C 0.26812 0.19683 0.38524 0.0
C25 C 0.27127 0.2205 0.39442 0.0
C26 C 0.28503 0.22792 0.41053 0.0
C27 C 0.29521 0.21198 0.41735 0.0
C28 C 0.34026 0.1718 0.45503 0.0
C29 C 0.34395 0.19566 0.46426 0.0
C30 C 0.3551 0.20197 0.48082 0.0
C31 C 0.36296 0.18466 0.48845 0.0
C32 C 0.3607 0.16168 0.479 0.0
C33 C 0.34944 0.15529 0.46248 0.0
C34 C 0.29059 0.09933 0.40867 0.0
C35 C 0.29946 0.08256 0.41609 0.0
C36 C 0.98792 0.2147 0.42148 0.0
C37 C 0.98705 0.21534 0.40419 0.0
C38 C 0.96124 0.19981 0.39455 0.0
C39 C 0.93713 0.18366 0.40196 0.0
H40 H 0.85312 0.11153 0.3928 0.0
H41 H 0.81806 0.06697 0.37836 0.0
H42 H 0.80522 0.03079 0.42484 0.0
H43 H 0.83876 0.07567 0.43923 0.0
H44 H 0.84655 0.123 0.46893 0.0
H45 H 0.84054 0.13457 0.4969 0.0
H46 H 0.91656 0.21324 0.49942 0.0
H47 H 0.92301 0.20154 0.4713 0.0
H48 H 0.96524 0.19878 0.4422 0.0
H49 H 0.00737 0.22578 0.42934 0.0
H50 H 0.95955 0.20017 0.38127 0.0
H51 H 0.91763 0.17171 0.39419 0.0
N52 N 0.89241 0.14133 0.41849 0.0
N53 N 0.86814 0.13037 0.44187 0.0
N54 N 0.9108 0.17156 0.44301 0.0
C55 C 0.87004 0.12377 0.42593 0.0
C56 C 0.88823 0.15433 0.45048 0.0
C57 C 0.91298 0.16516 0.42701 0.0
C58 C 0.84858 0.09702 0.41711 0.0
C59 C 0.84257 0.09401 0.39988 0.0
C60 C 0.8226 0.06839 0.39162 0.0
C61 C 0.80872 0.04505 0.40037 0.0
C62 C 0.81487 0.04826 0.41766 0.0
C63 C 0.83431 0.074 0.42594 0.0
C64 C 0.88523 0.16139 0.46776 0.0
C65 C 0.86209 0.1428 0.47536 0.0
C66 C 0.8585 0.14949 0.49141 0.0
C67 C 0.87791 0.17494 0.5003 0.0
C68 C 0.90132 0.19341 0.49288 0.0
C69 C 0.90494 0.18672 0.47675 0.0
C70 C 0.93816 0.18315 0.4192 0.0
C71 C 0.96373 0.19907 0.42889 0.0
C72 C 0.7997 0.76591 0.42405 0.0
C73 C 0.80133 0.77696 0.40882 0.0
C74 C 0.82389 0.78227 0.3999 0.0
C75 C 0.8444 0.77684 0.40609 0.0
H76 H 0.92626 0.79905 0.4027 0.0
H77 H 0.96685 0.81303 0.388 0.0
H78 H 0.98598 0.75834 0.414 0.0
H79 H 0.94583 0.74515 0.42923 0.0
H80 H 0.91644 0.7271 0.4642 0.0
H81 H 0.9112 0.70673 0.49043 0.0
H82 H 0.83413 0.7062 0.49347 0.0
H83 H 0.83934 0.72671 0.46756 0.0
H84 H 0.81828 0.75202 0.44204 0.0
H85 H 0.7828 0.76189 0.43134 0.0
H86 H 0.82556 0.79035 0.388 0.0
H87 H 0.86142 0.78116 0.39883 0.0
N88 N 0.88763 0.76756 0.42004 0.0
N89 N 0.90461 0.74953 0.44004 0.0
N90 N 0.86195 0.74749 0.44197 0.0
C91 C 0.9077 0.76237 0.42597 0.0
C92 C 0.88174 0.74208 0.44813 0.0
C93 C 0.86465 0.76013 0.42793 0.0
C94 C 0.93269 0.7709 0.41715 0.0
C95 C 0.9391 0.78998 0.40532 0.0
C96 C 0.96237 0.79791 0.39679 0.0
C97 C 0.97973 0.78675 0.39969 0.0
C98 C 0.97338 0.76772 0.41159 0.0
C99 C 0.95023 0.76001 0.42028 0.0
C100 C 0.87842 0.72876 0.46375 0.0
C101 C 0.89835 0.7226 0.47044 0.0
C102 C 0.8953 0.7108 0.48543 0.0
C103 C 0.87236 0.70506 0.49408 0.0
C104 C 0.85228 0.71081 0.48725 0.0
C105 C 0.85525 0.72246 0.4723 0.0
C106 C 0.84283 0.76585 0.42134 0.0
C107 C 0.82018 0.76039 0.43022 0.0
C108 C 0.01216 0.22234 0.60123 0.0
C109 C 0.01051 0.21949 0.61825 0.0
C110 C 0.03328 0.22121 0.62781 0.0
C111 C 0.0568 0.22519 0.62054 0.0
H112 H 0.13491 0.23208 0.63099 0.0
H113 H 0.16859 0.22396 0.64634 0.0
H114 H 0.19113 0.20248 0.60025 0.0
H115 H 0.15859 0.21213 0.58502 0.0
H116 H 0.14802 0.23989 0.55411 0.0
H117 H 0.15721 0.25412 0.52654 0.0
H118 H 0.09094 0.27281 0.52492 0.0
H119 H 0.08177 0.25878 0.55279 0.0
H120 H 0.03618 0.22828 0.5808 0.0
H121 H 0.99494 0.22079 0.59341 0.0
H122 H 0.03308 0.21971 0.641 0.0
H123 H 0.07381 0.22628 0.62835 0.0
N124 N 0.10183 0.22644 0.6044 0.0
N125 N 0.12752 0.23506 0.58166 0.0
N126 N 0.08698 0.23793 0.58 0.0
C127 C 0.12402 0.22831 0.59741 0.0
C128 C 0.10928 0.24011 0.57288 0.0
C129 C 0.08308 0.23101 0.59578 0.0
C130 C 0.14413 0.22285 0.60679 0.0
C131 C 0.14711 0.22566 0.62416 0.0
C132 C 0.16636 0.22081 0.63296 0.0
C133 C 0.18276 0.21252 0.62461 0.0
C134 C 0.17944 0.20943 0.60719 0.0
C135 C 0.16059 0.21478 0.59841 0.0
C136 C 0.11411 0.24815 0.55577 0.0
C137 C 0.13528 0.24697 0.54795 0.0
C138 C 0.14048 0.25498 0.53204 0.0
C139 C 0.12476 0.26452 0.52348 0.0
C140 C 0.10357 0.26575 0.53124 0.0
C141 C 0.09821 0.25753 0.54717 0.0
C142 C 0.05837 0.22779 0.6035 0.0
C143 C 0.03582 0.22654 0.59396 0.0
C144 C 0.7343 0.77449 0.62315 0.0
C145 C 0.74855 0.78303 0.63913 0.0
C146 C 0.75155 0.80696 0.64785 0.0
C147 C 0.74118 0.82243 0.64057 0.0
H148 H 0.74429 0.89644 0.64745 0.0
H149 H 0.75932 0.94267 0.66043 0.0
H150 H 0.72131 0.95869 0.61784 0.0
H151 H 0.70671 0.91268 0.60464 0.0
H152 H 0.69556 0.8756 0.57106 0.0
H153 H 0.68041 0.86513 0.54165 0.0
H154 H 0.66216 0.7808 0.54438 0.0
H155 H 0.67834 0.79158 0.5738 0.0
H156 H 0.71339 0.78294 0.60343 0.0
H157 H 0.73128 0.75589 0.61622 0.0
H158 H 0.76265 0.81423 0.66013 0.0
H159 H 0.7444 0.84107 0.64755 0.0
N160 N 0.72383 0.85639 0.62417 0.0
N161 N 0.70527 0.86603 0.60056 0.0
N162 N 0.70649 0.82472 0.60035 0.0
C163 C 0.71717 0.87351 0.61646 0.0
C164 C 0.69976 0.84163 0.59244 0.0
C165 C 0.71852 0.83193 0.61623 0.0
C166 C 0.72446 0.90083 0.62491 0.0
C167 C 0.73894 0.90969 0.64086 0.0
C168 C 0.74745 0.93618 0.64837 0.0
C169 C 0.74166 0.95441 0.64012 0.0
C170 C 0.7265 0.94529 0.62439 0.0
C171 C 0.718 0.91882 0.61687 0.0
C172 C 0.68833 0.83448 0.57481 0.0
C173 C 0.68812 0.85474 0.56546 0.0
C174 C 0.67925 0.84867 0.54856 0.0
C175 C 0.67007 0.82211 0.5406 0.0
C176 C 0.66954 0.80161 0.55005 0.0
C177 C 0.67868 0.80776 0.56694 0.0
C178 C 0.72757 0.81433 0.6244 0.0
C179 C 0.72389 0.78994 0.61587 0.0
C180 C 0.19579 0.9704 0.60573 0.0
C181 C 0.19346 0.97641 0.62234 0.0
C182 C 0.17309 0.95546 0.63053 0.0
C183 C 0.15517 0.92923 0.62223 0.0
H184 H 0.07185 0.86468 0.61874 0.0
H185 H 0.03016 0.83367 0.6308 0.0
H186 H 0.02633 0.76353 0.6027 0.0
H187 H 0.06732 0.79499 0.5899 0.0
H188 H 0.10733 0.81282 0.55618 0.0
H189 H 0.11468 0.80349 0.52763 0.0
H190 H 0.15656 0.89108 0.52248 0.0
H191 H 0.14992 0.90057 0.55088 0.0
H192 H 0.18016 0.94033 0.58459 0.0
H193 H 0.21103 0.98618 0.59901 0.0
H194 H 0.17105 0.95927 0.64341 0.0
H195 H 0.13969 0.91365 0.62893 0.0
N196 N 0.11571 0.87694 0.60376 0.0
N197 N 0.10205 0.84489 0.58025 0.0
N198 N 0.14178 0.88889 0.58119 0.0
C199 C 0.0977 0.8516 0.59567 0.0
C200 C 0.12405 0.86362 0.57292 0.0
C201 C 0.13792 0.89562 0.59667 0.0
C202 C 0.07286 0.83227 0.60335 0.0
C203 C 0.06215 0.84262 0.61516 0.0
C204 C 0.03827 0.82474 0.62219 0.0
C205 C 0.02475 0.79595 0.61783 0.0
C206 C 0.03578 0.78559 0.60616 0.0
C207 C 0.05941 0.80358 0.59888 0.0
C208 C 0.12811 0.85742 0.55577 0.0
C209 C 0.11811 0.83003 0.54893 0.0
C210 C 0.12237 0.82469 0.53268 0.0
C211 C 0.13605 0.8466 0.52295 0.0
C212 C 0.14581 0.87387 0.52975 0.0
C213 C 0.14212 0.87926 0.54602 0.0
C214 C 0.1573 0.92328 0.60556 0.0
C215 C 0.17795 0.94412 0.59744 0.0
C216 C 0.95557 0.39111 0.74748 0.0
C217 C 0.9419 0.38092 0.73141 0.0
C218 C 0.93888 0.39904 0.72136 0.0
C219 C 0.94809 0.42638 0.7275 0.0
H220 H 0.92465 0.48447 0.72219 0.0
H221 H 0.90511 0.50888 0.70799 0.0
H222 H 0.95968 0.58351 0.74035 0.0
H223 H 0.97834 0.55866 0.75505 0.0
H224 H 0.98061 0.53648 0.79478 0.0
H225 H 0.99365 0.54615 0.82458 0.0
H226 H 0.0266 0.49076 0.8222 0.0
H227 H 0.0128 0.48042 0.79258 0.0
H228 H 0.97449 0.42539 0.76625 0.0
H229 H 0.95808 0.37762 0.75555 0.0
H230 H 0.92893 0.39194 0.7088 0.0
H231 H 0.94475 0.43951 0.71952 0.0
N232 N 0.9592 0.47938 0.7423 0.0
N233 N 0.97573 0.51348 0.76491 0.0
N234 N 0.97974 0.47387 0.76665 0.0
C235 C 0.96342 0.50408 0.74913 0.0
C236 C 0.98405 0.49849 0.77372 0.0
C237 C 0.9674 0.46419 0.75094 0.0
C238 C 0.95295 0.51958 0.73984 0.0
C239 C 0.9326 0.50614 0.72624 0.0
C240 C 0.92147 0.5202 0.71801 0.0
C241 C 0.93066 0.54817 0.72305 0.0
C242 C 0.95162 0.56181 0.73636 0.0
C243 C 0.96247 0.54762 0.74474 0.0
C244 C 0.99531 0.50738 0.79133 0.0
C245 C 0.99095 0.52664 0.80058 0.0
C246 C 0.99851 0.53225 0.81768 0.0
C247 C 0.01078 0.5189 0.82583 0.0
C248 C 0.01652 0.50085 0.81639 0.0
C249 C 0.00874 0.49504 0.79937 0.0
C250 C 0.96061 0.43626 0.74384 0.0
C251 C 0.96486 0.4185 0.75363 0.0
C252 C 0.65717 0.56806 0.75243 0.0
C253 C 0.66414 0.55701 0.73881 0.0
C254 C 0.64484 0.53025 0.7314 0.0
C255 C 0.61925 0.5149 0.73744 0.0
H256 H 0.53113 0.45235 0.72252 0.0
H257 H 0.49869 0.4067 0.70835 0.0
H258 H 0.47764 0.37461 0.75567 0.0
H259 H 0.50853 0.42075 0.76962 0.0
H260 H 0.50545 0.47763 0.79107 0.0
H261 H 0.49494 0.48982 0.81759 0.0
H262 H 0.57933 0.55738 0.82818 0.0
H263 H 0.59018 0.54495 0.8015 0.0
H264 H 0.62688 0.56172 0.76907 0.0
H265 H 0.67143 0.58876 0.75829 0.0
H266 H 0.64968 0.52088 0.72108 0.0
H267 H 0.60509 0.49427 0.73144 0.0
N268 N 0.56637 0.48392 0.74954 0.0
N269 N 0.53673 0.47625 0.77012 0.0
N270 N 0.57965 0.51751 0.77217 0.0
C271 C 0.54212 0.46753 0.7557 0.0
C272 C 0.55522 0.5013 0.77837 0.0
C273 C 0.58534 0.50888 0.75771 0.0
C274 C 0.52225 0.44 0.74712 0.0
C275 C 0.51936 0.43548 0.72982 0.0
C276 C 0.5009 0.40922 0.72173 0.0
C277 C 0.48552 0.38669 0.7308 0.0
C278 C 0.48856 0.3914 0.74818 0.0
C279 C 0.50645 0.41784 0.75622 0.0
C280 C 0.54876 0.51018 0.79416 0.0
C281 C 0.52184 0.4952 0.79895 0.0
C282 C 0.51569 0.50234 0.81413 0.0
C283 C 0.53628 0.5246 0.82496 0.0
C284 C 0.56309 0.53999 0.82011 0.0
C285 C 0.56925 0.53294 0.80481 0.0
C286 C 0.61229 0.52581 0.75113 0.0
C287 C 0.63155 0.55261 0.75855 0.0
C288 C 0.46949 0.10532 0.75853 0.0
C289 C 0.47238 0.11507 0.74285 0.0
C290 C 0.49528 0.11877 0.73474 0.0
C291 C 0.51477 0.11282 0.74212 0.0
H292 H 0.59336 0.12408 0.73885 0.0
H293 H 0.63669 0.13695 0.72726 0.0
H294 H 0.65689 0.09497 0.76381 0.0
H295 H 0.6139 0.08265 0.7757 0.0
H296 H 0.56731 0.04825 0.80135 0.0
H297 H 0.55809 0.02806 0.82777 0.0
H298 H 0.50387 0.06071 0.83615 0.0
H299 H 0.51264 0.08052 0.80983 0.0
H300 H 0.48591 0.09189 0.778 0.0
H301 H 0.45237 0.10263 0.76526 0.0
H302 H 0.49797 0.12591 0.72255 0.0
H303 H 0.53205 0.11579 0.73547 0.0
N304 N 0.55554 0.10173 0.75859 0.0
N305 N 0.5691 0.08362 0.78027 0.0
N306 N 0.52772 0.0847 0.78016 0.0
C307 C 0.57414 0.09551 0.76582 0.0
C308 C 0.54595 0.07823 0.78752 0.0
C309 C 0.53221 0.09629 0.76567 0.0
C310 C 0.60006 0.10237 0.75828 0.0
C311 C 0.60695 0.11748 0.74442 0.0
C312 C 0.6318 0.12477 0.73769 0.0
C313 C 0.65037 0.11706 0.7446 0.0
C314 C 0.64331 0.10165 0.75833 0.0
C315 C 0.61851 0.09443 0.76509 0.0
C316 C 0.54071 0.06599 0.80348 0.0
C317 C 0.55344 0.05112 0.80884 0.0
C318 C 0.54808 0.03945 0.82389 0.0
C319 C 0.53035 0.04294 0.83398 0.0
C320 C 0.51778 0.05791 0.82866 0.0
C321 C 0.52272 0.06911 0.81354 0.0
C322 C 0.51179 0.10295 0.75779 0.0
C323 C 0.48889 0.0993 0.76589 0.0
C324 C 0.69413 0.56712 0.93563 0.0
C325 C 0.69107 0.56059 0.95207 0.0
C326 C 0.71268 0.55935 0.96111 0.0
C327 C 0.73672 0.56465 0.95394 0.0
H328 H 0.79862 0.53879 0.95192 0.0
H329 H 0.83142 0.52599 0.96353 0.0
H330 H 0.89616 0.58954 0.93894 0.0
H331 H 0.86302 0.60128 0.92673 0.0
H332 H 0.83719 0.60659 0.89028 0.0
H333 H 0.84705 0.62838 0.86469 0.0
H334 H 0.77607 0.63938 0.86642 0.0
H335 H 0.76615 0.6177 0.89221 0.0
H336 H 0.7198 0.5777 0.91584 0.0
H337 H 0.67776 0.56774 0.92814 0.0
H338 H 0.71131 0.5548 0.97387 0.0
H339 H 0.753 0.56377 0.96134 0.0
N340 N 0.78419 0.57173 0.93737 0.0
N341 N 0.81314 0.59056 0.91645 0.0
N342 N 0.77121 0.59058 0.91586 0.0
C343 C 0.80799 0.57798 0.9306 0.0
C344 C 0.79489 0.59689 0.90896 0.0
C345 C 0.76571 0.57805 0.93008 0.0
C346 C 0.82815 0.57098 0.93836 0.0
C347 C 0.81988 0.55005 0.94904 0.0
C348 C 0.8388 0.54282 0.95577 0.0
C349 C 0.8666 0.55668 0.95221 0.0
C350 C 0.87488 0.57795 0.94172 0.0
C351 C 0.85587 0.58485 0.93479 0.0
C352 C 0.80082 0.61031 0.89336 0.0
C353 C 0.82362 0.61363 0.88528 0.0
C354 C 0.82922 0.62599 0.87052 0.0
C355 C 0.81228 0.6355 0.8635 0.0
C356 C 0.78961 0.63243 0.8716 0.0
C357 C 0.78387 0.61987 0.88634 0.0
C358 C 0.73989 0.5716 0.93759 0.0
C359 C 0.71825 0.57269 0.92852 0.0
C360 C 0.39832 0.1052 0.9528 0.0
C361 C 0.40987 0.11184 0.96941 0.0
C362 C 0.41144 0.1348 0.97852 0.0
C363 C 0.40264 0.15134 0.97101 0.0
H364 H 0.39334 0.22471 0.97818 0.0
H365 H 0.41219 0.27174 0.99133 0.0
H366 H 0.43136 0.30321 0.94371 0.0
H367 H 0.41075 0.2562 0.93062 0.0
H368 H 0.35926 0.20864 0.90193 0.0
H369 H 0.34292 0.19908 0.87265 0.0
H370 H 0.33852 0.11968 0.87174 0.0
H371 H 0.35454 0.12896 0.90122 0.0
H372 H 0.38137 0.11634 0.93236 0.0
H373 H 0.39709 0.08786 0.94536 0.0
H374 H 0.41976 0.14018 0.99142 0.0
H375 H 0.40471 0.16921 0.97833 0.0
N376 N 0.39332 0.18985 0.95354 0.0
N377 N 0.37835 0.20178 0.92945 0.0
N378 N 0.37396 0.15791 0.92981 0.0
C379 C 0.38982 0.20858 0.94541 0.0
C380 C 0.37007 0.17638 0.92159 0.0
C381 C 0.38553 0.16447 0.9458 0.0
C382 C 0.40045 0.23685 0.9534 0.0
C383 C 0.40137 0.24176 0.97058 0.0
C384 C 0.41242 0.26878 0.9781 0.0
C385 C 0.42343 0.29151 0.96864 0.0
C386 C 0.4225 0.28637 0.95142 0.0
C387 C 0.41082 0.25936 0.94388 0.0
C388 C 0.35848 0.16968 0.90397 0.0
C389 C 0.35471 0.18905 0.89558 0.0
C390 C 0.34545 0.18364 0.87875 0.0
C391 C 0.33971 0.15876 0.86986 0.0
C392 C 0.34264 0.13899 0.87829 0.0
C393 C 0.35195 0.14439 0.89518 0.0
C394 C 0.392 0.14527 0.95423 0.0
C395 C 0.3894 0.12166 0.94531 0.0
C396 C 0.84112 0.28418 0.94749 0.0
C397 C 0.84476 0.2882 0.9649 0.0
C398 C 0.82999 0.26518 0.97373 0.0
C399 C 0.81193 0.23898 0.96539 0.0
H400 H 0.73754 0.16884 0.96946 0.0
H401 H 0.69663 0.13798 0.98218 0.0
H402 H 0.6647 0.08162 0.93741 0.0
H403 H 0.70573 0.1129 0.9244 0.0
H404 H 0.74381 0.13032 0.89273 0.0
H405 H 0.7551 0.11962 0.86569 0.0
H406 H 0.83582 0.19342 0.87462 0.0
H407 H 0.82489 0.20405 0.90139 0.0
H408 H 0.82121 0.25551 0.92577 0.0
H409 H 0.85154 0.3014 0.9402 0.0
H410 H 0.83259 0.26723 0.98712 0.0
H411 H 0.80089 0.22169 0.97255 0.0
N412 N 0.76746 0.1886 0.94616 0.0
N413 N 0.75455 0.15655 0.92272 0.0
N414 N 0.79442 0.2005 0.924 0.0
C415 C 0.74964 0.16322 0.93802 0.0
C416 C 0.77711 0.17513 0.91569 0.0
C417 C 0.78976 0.20735 0.9392 0.0
C418 C 0.725 0.14346 0.94584 0.0
C419 C 0.72192 0.14987 0.96225 0.0
C420 C 0.69849 0.13205 0.96963 0.0
C421 C 0.67742 0.10731 0.96083 0.0
C422 C 0.68049 0.10068 0.94446 0.0
C423 C 0.70407 0.11853 0.93705 0.0
C424 C 0.7834 0.16806 0.89928 0.0
C425 C 0.76399 0.14419 0.88893 0.0
C426 C 0.77038 0.13811 0.87343 0.0
C427 C 0.79641 0.15559 0.8681 0.0
C428 C 0.81575 0.17931 0.87847 0.0
C429 C 0.80933 0.18551 0.89381 0.0
C430 C 0.80868 0.23505 0.94804 0.0
C431 C 0.82355 0.25787 0.93918 0.0
C432 C 0.62453 0.72973 0.07828 0.0
C433 C 0.59933 0.71369 0.06813 0.0
C434 C 0.58345 0.726 0.06375 0.0
C435 C 0.59245 0.75348 0.06938 0.0
H436 H 0.58558 0.821 0.05802 0.0
H437 H 0.56293 0.84461 0.04628 0.0
H438 H 0.60776 0.91279 0.08459 0.0
H439 H 0.63002 0.88899 0.0966 0.0
H440 H 0.66066 0.8812 0.12794 0.0
H441 H 0.67655 0.89305 0.15738 0.0
H442 H 0.67705 0.81621 0.15918 0.0
H443 H 0.66204 0.80471 0.12979 0.0
H444 H 0.65254 0.76879 0.09219 0.0
H445 H 0.63758 0.7212 0.08167 0.0
H446 H 0.56362 0.71424 0.05631 0.0
H447 H 0.57945 0.76209 0.066 0.0
N448 N 0.61571 0.81235 0.07928 0.0
N449 N 0.63658 0.84738 0.1014 0.0
N450 N 0.6405 0.80761 0.10193 0.0
C451 C 0.62147 0.83751 0.08635 0.0
C452 C 0.64619 0.83257 0.10928 0.0
C453 C 0.62536 0.79742 0.08694 0.0
C454 C 0.60949 0.85294 0.07837 0.0
C455 C 0.59082 0.84112 0.0639 0.0
C456 C 0.57789 0.85472 0.0571 0.0
C457 C 0.58338 0.88049 0.06456 0.0
C458 C 0.6027 0.89271 0.07871 0.0
C459 C 0.61559 0.87911 0.08554 0.0
C460 C 0.65968 0.84181 0.1265 0.0
C461 C 0.6646 0.86703 0.13455 0.0
C462 C 0.67356 0.87377 0.15145 0.0
C463 C 0.67773 0.85543 0.16068 0.0
C464 C 0.67429 0.83096 0.15244 0.0
C465 C 0.66547 0.82427 0.13555 0.0
C466 C 0.61723 0.76919 0.07984 0.0
C467 C 0.63324 0.7571 0.0842 0.0
C468 C 0.299 0.88186 0.08417 0.0
C469 C 0.30705 0.86754 0.07311 0.0
C470 C 0.28929 0.83885 0.06913 0.0
C471 C 0.26403 0.82496 0.07583 0.0
H472 H 0.18476 0.75636 0.06435 0.0
H473 H 0.15 0.70945 0.05293 0.0
H474 H 0.09979 0.70417 0.09225 0.0
H475 H 0.13398 0.75118 0.10339 0.0
H476 H 0.14947 0.81746 0.11962 0.0
H477 H 0.1372 0.82856 0.14594 0.0
H478 H 0.22204 0.86332 0.16731 0.0
H479 H 0.23452 0.85322 0.14057 0.0
H480 H 0.26828 0.87967 0.09937 0.0
H481 H 0.31184 0.90403 0.08733 0.0
H482 H 0.29496 0.827 0.06091 0.0
H483 H 0.25088 0.80288 0.07244 0.0
N484 N 0.20886 0.79931 0.08635 0.0
N485 N 0.17892 0.79771 0.10558 0.0
N486 N 0.22377 0.83624 0.10715 0.0
C487 C 0.18379 0.78571 0.09227 0.0
C488 C 0.19867 0.82284 0.11309 0.0
C489 C 0.2289 0.82463 0.09364 0.0
C490 C 0.16229 0.7576 0.08483 0.0
C491 C 0.16625 0.74527 0.07052 0.0
C492 C 0.14638 0.71829 0.06402 0.0
C493 C 0.12216 0.70297 0.07173 0.0
C494 C 0.11802 0.71547 0.08588 0.0
C495 C 0.13778 0.74245 0.09232 0.0
C496 C 0.19286 0.83417 0.12814 0.0
C497 C 0.16561 0.82797 0.12986 0.0
C498 C 0.15856 0.83417 0.14498 0.0
C499 C 0.17847 0.8462 0.15887 0.0
C500 C 0.20619 0.85411 0.15686 0.0
C501 C 0.21336 0.8483 0.14157 0.0
C502 C 0.256 0.83933 0.08685 0.0
C503 C 0.27389 0.8679 0.09104 0.0
C504 C 0.1538 0.45217 0.08599 0.0
C505 C 0.15091 0.45036 0.06858 0.0
C506 C 0.16755 0.44276 0.05993 0.0
C507 C 0.1867 0.43749 0.06844 0.0
H508 H 0.27058 0.45903 0.06866 0.0
H509 H 0.31372 0.47092 0.05729 0.0
H510 H 0.33438 0.43202 0.09569 0.0
H511 H 0.29143 0.42079 0.10744 0.0
H512 H 0.2515 0.39897 0.13691 0.0
H513 H 0.24195 0.3814 0.16393 0.0
H514 H 0.17288 0.39577 0.1637 0.0
H515 H 0.1824 0.4135 0.13692 0.0
H516 H 0.17423 0.44795 0.10786 0.0
H517 H 0.14195 0.45857 0.09318 0.0
H518 H 0.16563 0.44054 0.04655 0.0
H519 H 0.19916 0.43171 0.06139 0.0
N520 N 0.23269 0.43773 0.08806 0.0
N521 N 0.24656 0.42297 0.11135 0.0
N522 N 0.20493 0.42383 0.10988 0.0
C523 C 0.25148 0.43279 0.09628 0.0
C524 C 0.22327 0.4184 0.11823 0.0
C525 C 0.20941 0.43332 0.09478 0.0
C526 C 0.27742 0.43895 0.08903 0.0
C527 C 0.28419 0.45286 0.0747 0.0
C528 C 0.30896 0.45957 0.06808 0.0
C529 C 0.3276 0.4524 0.07552 0.0
C530 C 0.32072 0.43822 0.08975 0.0
C531 C 0.29597 0.43163 0.09645 0.0
C532 C 0.21777 0.40773 0.13469 0.0
C533 C 0.23431 0.39845 0.14263 0.0
C534 C 0.22875 0.38822 0.15807 0.0
C535 C 0.20671 0.38727 0.16598 0.0
C536 C 0.19024 0.39656 0.15805 0.0
C537 C 0.19564 0.40658 0.1426 0.0
C538 C 0.18927 0.43906 0.08578 0.0
C539 C 0.1725 0.44628 0.09447 0.0
C540 C 0.34661 0.87328 0.26871 0.0
C541 C 0.349 0.87629 0.28614 0.0
C542 C 0.37552 0.88734 0.29483 0.0
C543 C 0.39874 0.8944 0.28639 0.0
H544 H 0.47782 0.90091 0.29246 0.0
H545 H 0.51401 0.89353 0.305 0.0
H546 H 0.53587 0.88183 0.2564 0.0
H547 H 0.50071 0.89073 0.244 0.0
H548 H 0.49255 0.93845 0.22167 0.0
H549 H 0.49822 0.95644 0.19499 0.0
H550 H 0.41058 0.92824 0.18765 0.0
H551 H 0.40506 0.91105 0.21485 0.0
H552 H 0.36742 0.87809 0.24687 0.0
H553 H 0.32661 0.86443 0.26152 0.0
H554 H 0.3785 0.89075 0.3082 0.0
H555 H 0.41876 0.9026 0.2935 0.0
N556 N 0.44176 0.89519 0.26757 0.0
N557 N 0.46587 0.90931 0.24429 0.0
N558 N 0.42262 0.90646 0.24483 0.0
C559 C 0.46422 0.90059 0.25958 0.0
C560 C 0.44534 0.91253 0.23687 0.0
C561 C 0.42082 0.8979 0.26025 0.0
C562 C 0.4864 0.8964 0.26725 0.0
C563 C 0.49044 0.89685 0.28448 0.0
C564 C 0.51111 0.89241 0.29165 0.0
C565 C 0.52788 0.88685 0.28174 0.0
C566 C 0.52378 0.8865 0.26448 0.0
C567 C 0.50346 0.89145 0.25734 0.0
C568 C 0.4483 0.92315 0.22041 0.0
C569 C 0.47439 0.93595 0.21439 0.0
C570 C 0.47764 0.94617 0.19898 0.0
C571 C 0.45483 0.94358 0.18902 0.0
C572 C 0.42868 0.93086 0.19505 0.0
C573 C 0.42547 0.92087 0.21061 0.0
C574 C 0.39624 0.89125 0.26903 0.0
C575 C 0.37001 0.88097 0.26026 0.0
C576 C 0.06621 0.43499 0.28834 0.0
C577 C 0.07761 0.44044 0.30495 0.0
C578 C 0.07946 0.46296 0.31469 0.0
C579 C 0.07065 0.47999 0.30793 0.0
H580 H 0.09368 0.56476 0.31075 0.0
H581 H 0.11024 0.61114 0.32392 0.0
H582 H 0.04072 0.61216 0.29805 0.0
H583 H 0.02536 0.56642 0.28406 0.0
H584 H 0.02111 0.54077 0.24428 0.0
H585 H 0.00943 0.53756 0.21472 0.0
H586 H 0.01495 0.4634 0.20771 0.0
H587 H 0.02652 0.46634 0.23747 0.0
H588 H 0.04896 0.44744 0.26866 0.0
H589 H 0.0642 0.41756 0.28057 0.0
H590 H 0.08844 0.46793 0.32747 0.0
H591 H 0.07283 0.49739 0.31581 0.0
N592 N 0.05699 0.51751 0.29317 0.0
N593 N 0.03965 0.53067 0.27068 0.0
N594 N 0.04102 0.4894 0.26787 0.0
C595 C 0.05074 0.53574 0.28665 0.0
C596 C 0.03477 0.50763 0.26116 0.0
C597 C 0.05193 0.49412 0.28394 0.0
C598 C 0.05841 0.56215 0.29628 0.0
C599 C 0.0818 0.57482 0.30804 0.0
C600 C 0.0912 0.60142 0.31567 0.0
C601 C 0.07704 0.61572 0.31197 0.0
C602 C 0.05267 0.60223 0.30087 0.0
C603 C 0.04368 0.5759 0.29294 0.0
C604 C 0.02504 0.50394 0.24332 0.0
C605 C 0.01969 0.52361 0.23654 0.0
C606 C 0.01313 0.5219 0.21954 0.0
C607 C 0.01162 0.50045 0.20888 0.0
C608 C 0.01589 0.48014 0.21565 0.0
C609 C 0.02259 0.48188 0.2327 0.0
C610 C 0.05976 0.47495 0.29122 0.0
C611 C 0.05734 0.45204 0.28154 0.0
C612 C 0.52449 0.62545 0.2781 0.0
C613 C 0.52031 0.63225 0.29414 0.0
C614 C 0.499 0.61162 0.30201 0.0
C615 C 0.48212 0.58492 0.29399 0.0
H616 H 0.39896 0.51843 0.2886 0.0
H617 H 0.35552 0.48678 0.29895 0.0
H618 H 0.3544 0.41767 0.27142 0.0
H619 H 0.39724 0.44956 0.26047 0.0
H620 H 0.42746 0.47203 0.22386 0.0
H621 H 0.44033 0.4618 0.19733 0.0
H622 H 0.52196 0.53386 0.2085 0.0
H623 H 0.5094 0.54399 0.23492 0.0
H624 H 0.51154 0.59432 0.25774 0.0
H625 H 0.54039 0.64091 0.27155 0.0
H626 H 0.49547 0.61599 0.31447 0.0
H627 H 0.46593 0.56956 0.30043 0.0
N628 N 0.44445 0.53176 0.27523 0.0
N629 N 0.43536 0.49846 0.25314 0.0
N630 N 0.47562 0.54214 0.25529 0.0
C631 C 0.42783 0.50598 0.26722 0.0
C632 C 0.4593 0.5165 0.24711 0.0
C633 C 0.46841 0.54994 0.26935 0.0
C634 C 0.40157 0.48653 0.27369 0.0
C635 C 0.38946 0.49647 0.28476 0.0
C636 C 0.36457 0.47825 0.29079 0.0
C637 C 0.35135 0.44956 0.28609 0.0
C638 C 0.36365 0.43964 0.2751 0.0
C639 C 0.38834 0.45792 0.26888 0.0
C640 C 0.46733 0.50893 0.2315 0.0
C641 C 0.44824 0.48553 0.22073 0.0
C642 C 0.45554 0.47973 0.2055 0.0
C643 C 0.48214 0.49704 0.20084 0.0
C644 C 0.50141 0.51995 0.21181 0.0
C645 C 0.49409 0.52586 0.22693 0.0
C646 C 0.48634 0.57816 0.27795 0.0
C647 C 0.5078 0.59871 0.27014 0.0
Eu648 Eu 0.46971 0.95655 0.98806 0.0
Eu649 Eu 0.49508 0.99675 0.02342 0.0
C650 C 0.45841 0.0062 0.99634 0.0
C651 C 0.46519 0.93733 0.94264 0.0
C652 C 0.49152 0.96068 0.94231 0.0
C653 C 0.45841 0.93297 0.91262 0.0
C654 C 0.50099 0.97048 0.9273 0.0
C655 C 0.44884 0.9233 0.92771 0.0
C656 C 0.48436 0.95699 0.9123 0.0
C657 C 0.45406 0.92923 0.95855 0.0
O658 O 0.45073 0.9657 0.0263 0.0
O659 O 0.44045 0.93056 1.00591 0.0
C660 C 0.43493 0.94007 0.01946 0.0
O661 O 0.50193 0.94867 1.00069 0.0
O662 O 0.49265 0.02379 0.04281 0.0
O663 O 0.52662 0.01545 0.0447 0.0
O664 O 0.49557 0.95764 0.02716 0.0
C665 C 0.50448 0.94624 0.01653 0.0
O666 O 0.50499 0.9973 0.98246 0.0
O667 O 0.53066 0.01101 1.00774 0.0
O668 O 0.48181 0.01884 1.00606 0.0
O669 O 0.47009 0.9266 0.96975 0.0
O670 O 0.44301 0.94302 0.96468 0.0
O671 O 0.44672 0.97973 0.99128 0.0
C672 C 0.50746 0.01743 0.06933 0.0
C673 C 0.52962 0.02375 0.08122 0.0
C674 C 0.47513 0.99236 0.08906 0.0
C675 C 0.5246 0.01405 0.09678 0.0
C676 C 0.48014 0.00185 0.07344 0.0
C677 C 0.4973 0.998 0.10079 0.0
C678 C 0.51309 0.02529 0.05241 0.0
C679 C 0.52876 0.012 0.99166 0.0
H680 H 0.50451 0.97172 0.9537 0.0
H681 H 0.44508 0.92229 0.90126 0.0
H682 H 0.52119 0.98884 0.92743 0.0
H683 H 0.42839 0.90536 0.92774 0.0
H684 H 0.55082 0.03563 0.07831 0.0
H685 H 0.45389 0.9798 0.09174 0.0
H686 H 0.54208 0.01891 0.10565 0.0
H687 H 0.46259 0.99639 0.06448 0.0
Eu688 Eu 0.01495 0.50199 1.00122 0.0
Eu689 Eu 0.97803 0.48573 0.0335 0.0
C690 C 0.96057 0.44251 1.00063 0.0
C691 C 0.03908 0.51433 0.95778 0.0
C692 C 0.04915 0.50091 0.94768 0.0
C693 C 0.02031 0.52465 0.93318 0.0
C694 C 0.04457 0.49904 0.93049 0.0
C695 C 0.02465 0.52628 0.95041 0.0
C696 C 0.03003 0.5108 0.92307 0.0
C697 C 0.04375 0.51527 0.97588 0.0
O698 O 0.01676 0.48526 0.04194 0.0
O699 O 0.02983 0.47867 0.01663 0.0
C700 C 0.03127 0.47831 0.03279 0.0
O701 O 0.04165 0.53332 0.02248 0.0
O702 O 0.95518 0.45579 0.05057 0.0
O703 O 0.95798 0.49589 0.05267 0.0
O704 O 0.0072 0.53215 0.03672 0.0
C705 C 0.03301 0.54486 0.03321 0.0
O706 O 0.98556 0.51866 0.99784 0.0
O707 O 0.95179 0.49107 0.01381 0.0
O708 O 0.9619 0.44605 0.01681 0.0
O709 O 0.0399 0.53277 0.98505 0.0
O710 O 0.03419 0.49137 0.98181 0.0
O711 O 0.9757 0.46274 0.99191 0.0
C712 C 0.95577 0.47455 0.07714 0.0
C713 C 0.98312 0.48912 0.08473 0.0
C714 C 0.93926 0.46072 0.10373 0.0
C715 C 0.98852 0.48949 0.10177 0.0
C716 C 0.9339 0.46045 0.08671 0.0
C717 C 0.96664 0.47514 0.11143 0.0
C718 C 0.94984 0.47263 0.05917 0.0
C719 C 0.96052 0.50851 1.00255 0.0
H720 H 0.06043 0.49167 0.9531 0.0
H721 H 0.00884 0.53369 0.92775 0.0
H722 H 0.05255 0.48851 0.92299 0.0
H723 H 0.01654 0.53666 0.95792 0.0
H724 H 1.00027 0.49987 0.07744 0.0
H725 H 0.92197 0.44976 0.11087 0.0
H726 H 0.00984 0.50053 0.10733 0.0
H727 H 0.91267 0.44901 0.08099 0.0
Eu728 Eu 0.51815 0.4973 0.02951 0.0
Eu729 Eu 0.497 0.51314 0.99513 0.0
C730 C 0.52723 0.55785 0.02592 0.0
C731 C 0.52446 0.48563 0.07436 0.0
C732 C 0.50922 0.49858 0.07816 0.0
C733 C 0.52193 0.47159 0.10211 0.0
C734 C 0.50033 0.49799 0.09384 0.0
C735 C 0.53081 0.47219 0.0864 0.0
C736 C 0.50647 0.48438 0.10599 0.0
C737 C 0.53214 0.48463 0.05756 0.0
O738 O 0.54246 0.5275 0.99428 0.0
O739 O 0.54754 0.49881 0.01144 0.0
C740 C 0.55612 0.51552 0.99975 0.0
O741 O 0.48951 0.45713 0.01376 0.0
O742 O 0.50243 0.54522 0.97932 0.0
O743 O 0.46956 0.50285 0.97236 0.0
O744 O 0.49446 0.4726 0.98806 0.0
C745 C 0.48689 0.45248 0.99758 0.0
O746 O 0.48071 0.50014 0.03507 0.0
O747 O 0.45904 0.49093 1.0087 0.0
O748 O 0.50522 0.5462 0.01512 0.0
O749 O 0.512 0.46682 0.04674 0.0
O750 O 0.54693 0.50842 0.05183 0.0
O751 O 0.53905 0.54398 0.03101 0.0
C752 C 0.49285 0.5294 0.95119 0.0
C753 C 0.50821 0.51684 0.94682 0.0
C754 C 0.49752 0.54737 0.92447 0.0
C755 C 0.51802 0.51937 0.93132 0.0
C756 C 0.48762 0.54472 0.93998 0.0
C757 C 0.51283 0.5347 0.91995 0.0
C758 C 0.4836 0.52771 0.96772 0.0
C759 C 0.45834 0.49204 0.02483 0.0
H760 H 0.504 0.50892 0.06894 0.0
H761 H 0.52672 0.46066 0.11112 0.0
H762 H 0.48881 0.50837 0.09647 0.0
H763 H 0.54229 0.46182 0.08358 0.0
H764 H 0.51266 0.50514 0.95543 0.0
H765 H 0.49348 0.55961 0.9161 0.0
H766 H 0.52936 0.50901 0.92817 0.0
H767 H 0.4761 0.55484 0.94328 0.0
Eu768 Eu 0.15906 0.30261 0.32461 0.0
Eu769 Eu 0.17766 0.3394 0.36147 0.0
C770 C 0.15027 0.35406 0.33069 0.0
C771 C 0.15564 0.28826 0.27872 0.0
C772 C 0.17368 0.3167 0.27811 0.0
C773 C 0.15376 0.2808 0.24889 0.0
C774 C 0.18164 0.32715 0.26299 0.0
C775 C 0.1458 0.27035 0.26406 0.0
C776 C 0.17166 0.30936 0.24817 0.0
C777 C 0.14702 0.27754 0.29467 0.0
O778 O 0.14114 0.29796 0.36413 0.0
O779 O 0.1201 0.28639 0.33753 0.0
C780 C 0.11895 0.28452 0.3535 0.0
O781 O 0.16762 0.27763 0.34224 0.0
O782 O 0.16787 0.36044 0.38103 0.0
O783 O 0.2049 0.35754 0.38467 0.0
O784 O 0.19904 0.31427 0.36059 0.0
C785 C 0.18828 0.28853 0.35406 0.0
O786 O 0.2046 0.33406 0.32577 0.0
O787 O 0.20953 0.36767 0.34568 0.0
O788 O 0.14998 0.35074 0.34651 0.0
O789 O 0.16667 0.27944 0.30517 0.0
O790 O 0.1313 0.28533 0.30167 0.0
O791 O 0.15983 0.34232 0.32077 0.0
C792 C 0.18034 0.35396 0.4078 0.0
C793 C 0.16239 0.32569 0.40903 0.0
C794 C 0.18198 0.36334 0.43748 0.0
C795 C 0.15419 0.3163 0.42438 0.0
C796 C 0.19011 0.3727 0.4221 0.0
C797 C 0.16385 0.33501 0.43881 0.0
C798 C 0.18819 0.364 0.39157 0.0
C799 C 0.21839 0.35951 0.33316 0.0
H800 H 0.18153 0.33083 0.28935 0.0
H801 H 0.14547 0.26659 0.2377 0.0
H802 H 0.19576 0.34917 0.26292 0.0
H803 H 0.13181 0.24835 0.26432 0.0
H804 H 0.15455 0.3109 0.39811 0.0
H805 H 0.19012 0.37828 0.44834 0.0
H806 H 0.13994 0.29444 0.42488 0.0
H807 H 0.20397 0.3946 0.42138 0.0
Eu808 Eu 0.68442 0.8477 0.33469 0.0
Eu809 Eu 0.64622 0.82638 0.36598 0.0
C810 C 0.63331 0.78536 0.33354 0.0
C811 C 0.71352 0.86128 0.29256 0.0
C812 C 0.68767 0.85021 0.28323 0.0
C813 C 0.73581 0.86867 0.26729 0.0
C814 C 0.68595 0.84869 0.26598 0.0
C815 C 0.7375 0.87026 0.28453 0.0
C816 C 0.71004 0.85814 0.25784 0.0
C817 C 0.71598 0.86463 0.31066 0.0
O818 O 0.67835 0.81322 0.36884 0.0
O819 O 0.71187 0.84774 0.35606 0.0
C820 C 0.70435 0.82828 0.36604 0.0
O821 O 0.69303 0.88583 0.35059 0.0
O822 O 0.62529 0.79494 0.38283 0.0
O823 O 0.62236 0.83222 0.38423 0.0
O824 O 0.68242 0.86827 0.37557 0.0
C825 C 0.69487 0.88924 0.36678 0.0
O826 O 0.64371 0.84337 0.32504 0.0
O827 O 0.62738 0.84559 0.35001 0.0
O828 O 0.62252 0.79393 0.34462 0.0
O829 O 0.70461 0.87784 0.31723 0.0
O830 O 0.71139 0.84297 0.31814 0.0
O831 O 0.65898 0.80101 0.33022 0.0
C832 C 0.62191 0.81239 0.4093 0.0
C833 C 0.6331 0.83819 0.41875 0.0
C834 C 0.61822 0.79047 0.43467 0.0
C835 C 0.63663 0.84005 0.43599 0.0
C836 C 0.61446 0.78857 0.41741 0.0
C837 C 0.62921 0.81622 0.44412 0.0
C838 C 0.61716 0.80984 0.39108 0.0
C839 C 0.62652 0.84661 0.33391 0.0
H840 H 0.66893 0.84309 0.28928 0.0
H841 H 0.75472 0.87631 0.26138 0.0
H842 H 0.66577 0.84011 0.259 0.0
H843 H 0.75762 0.87893 0.29161 0.0
H844 H 0.6391 0.85698 0.41289 0.0
H845 H 0.61213 0.77175 0.44063 0.0
H846 H 0.64546 0.86021 0.44298 0.0
H847 H 0.6056 0.76843 0.4104 0.0
Eu848 Eu 0.18035 0.82771 0.35937 0.0
Eu849 Eu 0.14914 0.83841 0.32674 0.0
C850 C 0.19136 0.88758 0.35334 0.0
C851 C 0.19844 0.82201 0.40384 0.0
C852 C 0.19791 0.84516 0.41103 0.0
C853 C 0.18638 0.80069 0.42949 0.0
C854 C 0.1916 0.84602 0.42728 0.0
C855 C 0.19296 0.79995 0.41326 0.0
C856 C 0.18526 0.82359 0.43663 0.0
C857 C 0.20217 0.8195 0.3862 0.0
O858 O 0.18484 0.83616 0.31701 0.0
O859 O 0.21229 0.84288 0.3412 0.0
C860 C 0.20854 0.84175 0.32499 0.0
O861 O 0.16316 0.78979 0.34121 0.0
O862 O 0.13817 0.86517 0.31357 0.0
O863 O 0.1246 0.82357 0.30272 0.0
O864 O 0.12685 0.79261 0.32882 0.0
C865 C 0.13884 0.77829 0.33253 0.0
O866 O 0.13769 0.81562 0.36603 0.0
O867 O 0.12376 0.83707 0.34749 0.0
O868 O 0.18552 0.87927 0.33749 0.0
O869 O 0.18061 0.79983 0.37695 0.0
O870 O 0.21428 0.84243 0.37911 0.0
O871 O 0.18435 0.86961 0.3643 0.0
C872 C 0.13645 0.85759 0.28457 0.0
C873 C 0.11714 0.85297 0.2712 0.0
C874 C 0.17304 0.87458 0.26638 0.0
C875 C 0.12559 0.85851 0.25541 0.0
C876 C 0.16455 0.86907 0.28218 0.0
C877 C 0.15349 0.86859 0.25274 0.0
C878 C 0.12673 0.84739 0.3004 0.0
C879 C 0.12082 0.82426 0.3609 0.0
H880 H 0.20183 0.8624 0.40401 0.0
H881 H 0.18134 0.78294 0.43624 0.0
H882 H 0.19149 0.86424 0.43247 0.0
H883 H 0.19299 0.78178 0.40788 0.0
H884 H 0.09537 0.84406 0.27284 0.0
H885 H 0.19461 0.88211 0.26472 0.0
H886 H 0.11012 0.85408 0.24519 0.0
H887 H 0.17969 0.87266 0.29242 0.0
Eu888 Eu 0.83822 0.65209 0.6616 0.0
Eu889 Eu 0.85554 0.69145 0.69744 0.0
C890 C 0.82623 0.70182 0.66587 0.0
C891 C 0.83328 0.63654 0.61599 0.0
C892 C 0.84865 0.66528 0.61529 0.0
C893 C 0.82983 0.62952 0.58603 0.0
C894 C 0.85427 0.6761 0.60009 0.0
C895 C 0.82411 0.61868 0.60131 0.0
C896 C 0.84464 0.65838 0.58526 0.0
C897 C 0.82633 0.62566 0.63207 0.0
O898 O 0.8203 0.6496 0.70123 0.0
O899 O 0.7995 0.63587 0.67463 0.0
C900 C 0.79829 0.63459 0.69063 0.0
O901 O 0.84885 0.6291 0.67984 0.0
O902 O 0.84264 0.7093 0.71708 0.0
O903 O 0.88478 0.71717 0.71879 0.0
O904 O 0.87589 0.6657 0.69968 0.0
C905 C 0.86707 0.64038 0.69302 0.0
O906 O 0.88335 0.68377 0.66258 0.0
O907 O 0.88672 0.71857 0.68078 0.0
O908 O 0.82629 0.69965 0.6818 0.0
O909 O 0.84732 0.62994 0.6423 0.0
O910 O 0.80938 0.63141 0.63931 0.0
O911 O 0.83675 0.69043 0.65644 0.0
C912 C 0.86259 0.70965 0.74354 0.0
C913 C 0.87792 0.69822 0.75038 0.0
C914 C 0.83725 0.70003 0.7678 0.0
C915 C 0.87277 0.6876 0.76569 0.0
C916 C 0.84257 0.71088 0.75255 0.0
C917 C 0.85203 0.68791 0.77447 0.0
C918 C 0.86571 0.71841 0.72663 0.0
C919 C 0.89619 0.70975 0.66891 0.0
H920 H 0.85599 0.67939 0.62653 0.0
H921 H 0.82198 0.61537 0.57481 0.0
H922 H 0.86606 0.69839 0.59993 0.0
H923 H 0.8122 0.59644 0.60165 0.0
H924 H 0.89352 0.69694 0.74379 0.0
H925 H 0.82093 0.70037 0.77409 0.0
H926 H 0.88493 0.67892 0.77059 0.0
H927 H 0.83042 0.71951 0.74754 0.0
Eu928 Eu 0.36221 0.18893 0.66409 0.0
Eu929 Eu 0.32298 0.16868 0.69494 0.0
C930 C 0.30966 0.12751 0.66263 0.0
C931 C 0.38779 0.20134 0.62159 0.0
C932 C 0.36062 0.18638 0.61376 0.0
C933 C 0.40515 0.21323 0.59499 0.0
C934 C 0.35571 0.18504 0.59662 0.0
C935 C 0.41003 0.21458 0.61215 0.0
C936 C 0.37792 0.19868 0.58707 0.0
C937 C 0.39292 0.20456 0.63963 0.0
O938 O 0.3543 0.15445 0.69833 0.0
O939 O 0.38892 0.18761 0.68536 0.0
C940 C 0.38048 0.16849 0.69561 0.0
O941 O 0.37243 0.22758 0.68003 0.0
O942 O 0.29939 0.13645 0.71069 0.0
O943 O 0.30155 0.1762 0.71423 0.0
O944 O 0.35979 0.2099 0.70479 0.0
C945 C 0.3734 0.23082 0.69617 0.0
O946 O 0.32232 0.18613 0.65425 0.0
O947 O 0.30504 0.18872 0.67879 0.0
O948 O 0.29901 0.13683 0.67339 0.0
O949 O 0.38438 0.21958 0.64727 0.0
O950 O 0.38683 0.18211 0.64665 0.0
O951 O 0.33568 0.14231 0.65977 0.0
C952 C 0.30141 0.15425 0.73787 0.0
C953 C 0.32935 0.16717 0.74429 0.0
C954 C 0.28781 0.14606 0.76559 0.0
C955 C 0.33651 0.16975 0.7613 0.0
C956 C 0.28067 0.14354 0.74855 0.0
C957 C 0.31583 0.15944 0.77215 0.0
C958 C 0.29403 0.15253 0.72009 0.0
C959 C 0.3052 0.19017 0.66272 0.0
H960 H 0.34322 0.1761 0.62094 0.0
H961 H 0.42264 0.22417 0.58798 0.0
H962 H 0.33454 0.17335 0.59084 0.0
H963 H 0.43111 0.22637 0.61807 0.0
H964 H 0.34561 0.17545 0.73616 0.0
H965 H 0.27145 0.13814 0.77366 0.0
H966 H 0.35825 0.17982 0.76596 0.0
H967 H 0.259 0.13354 0.74374 0.0
Eu968 Eu 0.84084 0.16135 0.69846 0.0
Eu969 Eu 0.81967 0.17698 0.66426 0.0
C970 C 0.85218 0.22213 0.69446 0.0
C971 C 0.84329 0.14624 0.74285 0.0
C972 C 0.82605 0.15705 0.74632 0.0
C973 C 0.83865 0.12962 0.77 0.0
C974 C 0.81532 0.15434 0.76156 0.0
C975 C 0.84937 0.13234 0.75472 0.0
C976 C 0.82161 0.14073 0.77364 0.0
C977 C 0.85446 0.14906 0.72678 0.0
O978 O 0.86476 0.19043 0.66266 0.0
O979 O 0.87065 0.16299 0.68056 0.0
C980 C 0.87873 0.17894 0.66844 0.0
O981 O 0.8102 0.12138 0.68312 0.0
O982 O 0.82515 0.20818 0.64773 0.0
O983 O 0.79071 0.16617 0.64216 0.0
O984 O 0.81813 0.13673 0.65759 0.0
C985 C 0.80914 0.11647 0.66706 0.0
O986 O 0.80375 0.16482 0.7042 0.0
O987 O 0.78183 0.15512 0.67791 0.0
O988 O 0.82936 0.21067 0.68431 0.0
O989 O 0.838 0.13055 0.71478 0.0
O990 O 0.86658 0.17396 0.72213 0.0
O991 O 0.86404 0.20784 0.69855 0.0
C992 C 0.81215 0.19023 0.61987 0.0
C993 C 0.83083 0.18145 0.61597 0.0
C994 C 0.80696 0.19818 0.59126 0.0
C995 C 0.83742 0.18088 0.59977 0.0
C996 C 0.80037 0.19873 0.60749 0.0
C997 C 0.82544 0.18909 0.5872 0.0
C998 C 0.80496 0.19045 0.63683 0.0
C999 C 0.7813 0.15672 0.69403 0.0
H1000 H 0.82111 0.16784 0.73729 0.0
H1001 H 0.84361 0.11872 0.77894 0.0
H1002 H 0.80262 0.16349 0.764 0.0
H1003 H 0.86244 0.12365 0.75218 0.0
H1004 H 0.8401 0.17481 0.62544 0.0
H1005 H 0.79764 0.20493 0.5819 0.0
H1006 H 0.85141 0.17341 0.59702 0.0
H1007 H 0.78603 0.2057 0.61036 0.0
H1008 H 0.31758 0.85865 0.04164 0.0
H1009 H 0.35678 0.91027 0.08782 0.0
H1010 H 0.39965 0.93668 0.07531 0.0
H1011 H 0.42566 0.94598 0.05121 0.0
H1012 H 0.38767 0.89343 1.00532 0.0
H1013 H 0.34486 0.86594 0.01798 0.0
C1014 C 0.33559 0.87536 0.04909 0.0
C1015 C 0.33368 0.88256 0.06564 0.0
C1016 C 0.36043 0.89025 0.0419 0.0
C1017 C 0.35729 0.90459 0.07496 0.0
C1018 C 0.38194 0.91961 0.06786 0.0
C1019 C 0.40804 0.92848 0.04396 0.0
C1020 C 0.40974 0.92193 0.02729 0.0
C1021 C 0.38363 0.91281 0.05131 0.0
C1022 C 0.3869 0.8989 0.01817 0.0
C1023 C 0.36238 0.88327 0.02539 0.0
H1024 H 0.10029 0.44022 0.07704 0.0
H1025 H 0.15612 0.47468 0.03961 0.0
H1026 H 0.12329 0.48446 0.02474 0.0
H1027 H 0.07932 0.48473 0.02272 0.0
H1028 H 0.02592 0.45467 0.06159 0.0
H1029 H 0.05756 0.44234 0.07571 0.0
C1030 C 0.10562 0.45026 0.06578 0.0
C1031 C 0.1308 0.45652 0.05952 0.0
C1032 C 0.08707 0.45676 0.05753 0.0
C1033 C 0.13676 0.46899 0.04464 0.0
C1034 C 0.11807 0.47487 0.03616 0.0
C1035 C 0.07456 0.47531 0.03423 0.0
C1036 C 0.05027 0.47045 0.04106 0.0
C1037 C 0.0932 0.46893 0.04251 0.0
C1038 C 0.04454 0.45865 0.0561 0.0
C1039 C 0.06259 0.45157 0.06417 0.0
H1040 H 0.5707 0.68549 0.03851 0.0
H1041 H 0.60513 0.67506 0.08473 0.0
H1042 H 0.58721 0.62633 0.07546 0.0
H1043 H 0.55995 0.58598 0.05459 0.0
H1044 H 0.52216 0.59628 1.00969 0.0
H1045 H 0.5425 0.64552 0.01834 0.0
C1046 C 0.57401 0.67259 0.04672 0.0
C1047 C 0.58924 0.68413 0.06234 0.0
C1048 C 0.56278 0.64438 0.04161 0.0
C1049 C 0.59389 0.66702 0.07253 0.0
C1050 C 0.5834 0.639 0.06731 0.0
C1051 C 0.55625 0.59908 0.04673 0.0
C1052 C 0.53955 0.58753 0.03156 0.0
C1053 C 0.56761 0.62739 0.05192 0.0
C1054 C 0.53474 0.60463 0.02151 0.0
C1055 C 0.54646 0.63282 0.0264 0.0
H1056 H 0.89362 0.32891 0.95574 0.0
H1057 H 0.83895 0.31098 0.99414 0.0
H1058 H 0.87052 0.35644 1.00886 0.0
H1059 H 0.91326 0.40175 1.01066 0.0
H1060 H 0.96553 0.42111 0.97102 0.0
H1061 H 0.93478 0.37487 0.95673 0.0
C1062 C 0.88824 0.33498 0.96717 0.0
C1063 C 0.86385 0.31624 0.97377 0.0
C1064 C 0.90601 0.36154 0.97534 0.0
C1065 C 0.85779 0.32455 0.98886 0.0
C1066 C 0.87572 0.35072 0.99725 0.0
C1067 C 0.91792 0.39578 0.99891 0.0
C1068 C 0.94166 0.41471 0.99194 0.0
C1069 C 0.89988 0.36937 0.99061 0.0
C1070 C 0.9473 0.4069 0.97661 0.0
C1071 C 0.92978 0.38045 0.96846 0.0
H1072 H 0.66342 0.52272 0.97369 0.0
H1073 H 0.6613 0.58707 0.94787 0.0
H1074 H 0.61934 0.57841 0.95998 0.0
H1075 H 0.5834 0.55298 0.97807 0.0
H1076 H 0.58654 0.49001 1.00486 0.0
H1077 H 0.62821 0.49819 0.99244 0.0
C1078 C 0.65404 0.53512 0.97084 0.0
C1079 C 0.6656 0.55544 0.95976 0.0
C1080 C 0.63008 0.53038 0.97809 0.0
C1081 C 0.6527 0.57092 0.95608 0.0
C1082 C 0.62877 0.56615 0.96311 0.0
C1083 C 0.59317 0.54103 0.98123 0.0
C1084 C 0.58176 0.52089 0.99241 0.0
C1085 C 0.61726 0.54593 0.97412 0.0
C1086 C 0.59484 0.5057 0.99635 0.0
C1087 C 0.61869 0.51033 0.98922 0.0
H1088 H 0.38818 0.0559 0.96568 0.0
H1089 H 0.45792 0.1316 0.98987 0.0
H1090 H 0.47846 0.1055 1.00094 0.0
H1091 H 0.47775 0.0615 1.00268 0.0
H1092 H 0.40876 0.98604 0.9776 0.0
H1093 H 0.38709 0.01184 0.96777 0.0
C1094 C 0.40793 0.06671 0.97331 0.0
C1095 C 0.42146 0.09567 0.9769 0.0
C1096 C 0.41991 0.05166 0.97939 0.0
C1097 C 0.44683 0.10928 0.98708 0.0
C1098 C 0.45874 0.0944 0.99331 0.0
C1099 C 0.45793 0.05066 0.99512 0.0
C1100 C 0.445 0.02189 0.99085 0.0
C1101 C 0.4456 0.06563 0.9894 0.0
C1102 C 0.41928 0.0082 0.98104 0.0
C1103 C 0.40682 0.02292 0.97541 0.0
H1104 H 0.62365 0.08118 0.94718 0.0
H1105 H 0.67457 0.09246 0.99232 0.0
H1106 H 0.63318 0.0647 1.00595 0.0
H1107 H 0.58253 0.03749 1.00516 0.0
H1108 H 0.53157 0.02551 0.95986 0.0
H1109 H 0.57293 0.05303 0.9462 0.0
C1110 C 0.6257 0.07726 0.95994 0.0
C1111 C 0.65218 0.08897 0.96872 0.0
C1112 C 0.60179 0.06124 0.96771 0.0
C1113 C 0.65443 0.084 0.98533 0.0
C1114 C 0.63077 0.06806 0.99313 0.0
C1115 C 0.58044 0.041 0.99232 0.0
C1116 C 0.55394 0.02948 0.98359 0.0
C1117 C 0.60434 0.05674 0.98448 0.0
C1118 C 0.55168 0.03406 0.9669 0.0
C1119 C 0.57535 0.04982 0.95905 0.0
H1120 H 0.86967 0.54009 0.98278 0.0
H1121 H 0.90932 0.55583 0.93771 0.0
H1122 H 0.9427 0.54386 0.94951 0.0
H1123 H 0.96017 0.52779 0.9725 0.0
H1124 H 0.91791 0.50876 0.01656 0.0
H1125 H 0.8858 0.52257 1.00512 0.0
C1126 C 0.88531 0.54055 0.97539 0.0
C1127 C 0.88684 0.549 0.95935 0.0
C1128 C 0.90403 0.53293 0.98207 0.0
C1129 C 0.90779 0.54996 0.95019 0.0
C1130 C 0.92684 0.54288 0.95689 0.0
C1131 C 0.94398 0.52678 0.97959 0.0
C1132 C 0.94147 0.51727 0.99535 0.0
C1133 C 0.92515 0.53429 0.97281 0.0
C1134 C 0.92022 0.51583 1.00435 0.0
C1135 C 0.90185 0.52379 0.99784 0.0
H1136 H 0.42309 0.33565 0.95608 0.0
H1137 H 0.453 0.31296 0.99933 0.0
H1138 H 0.47418 0.36033 0.01228 0.0
H1139 H 0.48534 0.40859 1.0111 0.0
H1140 H 0.4594 0.43198 0.96676 0.0
H1141 H 0.4364 0.38405 0.95424 0.0
C1142 C 0.43461 0.341 0.96822 0.0
C1143 C 0.43624 0.32047 0.97665 0.0
C1144 C 0.44772 0.36853 0.97537 0.0
C1145 C 0.45076 0.32798 0.9926 0.0
C1146 C 0.4632 0.35521 0.99998 0.0
C1147 C 0.47464 0.40315 0.9987 0.0
C1148 C 0.47398 0.42371 0.98988 0.0
C1149 C 0.4619 0.37566 0.99146 0.0
C1150 C 0.46032 0.41651 0.97376 0.0
C1151 C 0.44706 0.38911 0.96662 0.0
H1152 H 0.13271 0.66304 0.06 0.0
H1153 H 0.06541 0.67723 0.06926 0.0
H1154 H 0.03184 0.62905 0.05924 0.0
H1155 H 0.02157 0.58311 0.04704 0.0
H1156 H 0.0892 0.57009 0.0366 0.0
H1157 H 0.1226 0.61761 0.04775 0.0
C1158 C 0.11071 0.65573 0.05964 0.0
C1159 C 0.10165 0.6738 0.06534 0.0
C1160 C 0.09153 0.62815 0.05367 0.0
C1161 C 0.07301 0.66373 0.06512 0.0
C1162 C 0.05377 0.63619 0.05932 0.0
C1163 C 0.04362 0.59064 0.04736 0.0
C1164 C 0.05288 0.57312 0.04101 0.0
C1165 C 0.06279 0.61822 0.05353 0.0
C1166 C 0.08152 0.58321 0.04134 0.0
C1167 C 0.10065 0.61039 0.04771 0.0
H1168 H 0.33667 0.45136 0.04301 0.0
H1169 H 0.37872 0.47109 0.09244 0.0
H1170 H 0.42257 0.48468 0.08115 0.0
H1171 H 0.44917 0.49185 0.0573 0.0
H1172 H 0.40736 0.47339 1.00785 0.0
H1173 H 0.36337 0.45901 0.01916 0.0
C1174 C 0.35544 0.45889 0.05134 0.0
C1175 C 0.35426 0.46016 0.06858 0.0
C1176 C 0.38072 0.4671 0.04477 0.0
C1177 C 0.37882 0.46948 0.07914 0.0
C1178 C 0.404 0.47749 0.07269 0.0
C1179 C 0.43048 0.48475 0.04896 0.0
C1180 C 0.43169 0.4838 0.03172 0.0
C1181 C 0.40521 0.47649 0.05553 0.0
C1182 C 0.40715 0.47444 0.02116 0.0
C1183 C 0.38193 0.46615 0.02761 0.0
H1184 H 0.57099 0.88474 0.03229 0.0
H1185 H 0.56144 0.90649 0.08219 0.0
H1186 H 0.53606 0.9284 0.0717 0.0
H1187 H 0.51644 0.9412 0.0485 0.0
H1188 H 0.52532 0.91928 0.99846 0.0
H1189 H 0.55068 0.89715 1.0089 0.0
C1190 C 0.56317 0.89409 0.04086 0.0
C1191 C 0.56824 0.89406 0.05801 0.0
C1192 C 0.54834 0.90648 0.03473 0.0
C1193 C 0.55826 0.9066 0.06895 0.0
C1194 C 0.54354 0.91896 0.06296 0.0
C1195 C 0.52378 0.9315 0.03983 0.0
C1196 C 0.51892 0.93188 0.02271 0.0
C1197 C 0.53846 0.919 0.04589 0.0
C1198 C 0.52873 0.91927 0.0117 0.0
C1199 C 0.54328 0.90665 0.01766 0.0
H1200 H 1.0004 0.20328 0.37415 0.0
H1201 H 0.03244 0.26513 0.41645 0.0
H1202 H 0.07604 0.29087 0.40471 0.0
H1203 H 0.10516 0.29608 0.38262 0.0
H1204 H 0.07253 0.23729 0.33903 0.0
H1205 H 0.0286 0.21045 0.35092 0.0
C1206 C 0.01665 0.22262 0.38072 0.0
C1207 C 0.01304 0.23189 0.39636 0.0
C1208 C 0.04152 0.23793 0.37364 0.0
C1209 C 0.03469 0.25692 0.40466 0.0
C1210 C 0.05963 0.27187 0.39788 0.0
C1211 C 0.08847 0.2773 0.37574 0.0
C1212 C 0.0921 0.26836 0.3601 0.0
C1213 C 0.06331 0.26247 0.38246 0.0
C1214 C 0.07015 0.24444 0.35113 0.0
C1215 C 0.04512 0.22913 0.35794 0.0
H1216 H 0.80882 0.82178 0.39351 0.0
H1217 H 0.74507 0.74578 0.40946 0.0
H1218 H 0.70952 0.75552 0.39835 0.0
H1219 H 0.69643 0.78494 0.3833 0.0
H1220 H 0.76045 0.86008 0.36658 0.0
H1221 H 0.79587 0.85112 0.37863 0.0
C1222 C 0.78714 0.80719 0.39443 0.0
C1223 C 0.77968 0.78304 0.40227 0.0
C1224 C 0.76679 0.81272 0.38784 0.0
C1225 C 0.75147 0.76468 0.40365 0.0
C1226 C 0.7311 0.77015 0.39721 0.0
C1227 C 0.71813 0.79943 0.38236 0.0
C1228 C 0.7257 0.8231 0.374 0.0
C1229 C 0.7385 0.79404 0.3892 0.0
C1230 C 0.75395 0.84161 0.37287 0.0
C1231 C 0.77428 0.83653 0.37977 0.0
H1232 H 0.25298 0.0181 0.3652 0.0
H1233 H 0.25035 1.00012 0.41608 0.0
H1234 H 0.22725 0.9506 0.40716 0.0
H1235 H 0.20699 0.91236 0.38494 0.0
H1236 H 0.2088 0.93033 0.33402 0.0
H1237 H 0.2327 0.97984 0.34297 0.0
C1238 C 0.24718 0.00333 0.37433 0.0
C1239 C 0.25343 0.01281 0.39127 0.0
C1240 C 0.23366 0.97486 0.36913 0.0
C1241 C 0.24614 0.99341 0.40296 0.0
C1242 C 0.23276 0.96507 0.39787 0.0
C1243 C 0.2126 0.92708 0.37578 0.0
C1244 C 0.20604 0.91759 0.35884 0.0
C1245 C 0.22633 0.95556 0.38099 0.0
C1246 C 0.21354 0.93701 0.34716 0.0
C1247 C 0.22723 0.96536 0.35225 0.0
H1248 H 0.57594 0.66673 0.29361 0.0
H1249 H 0.5042 0.66219 0.31352 0.0
H1250 H 0.53289 0.70885 0.32751 0.0
H1251 H 0.57806 0.75095 0.33396 0.0
H1252 H 0.64966 0.75655 0.31328 0.0
H1253 H 0.62107 0.70961 0.29939 0.0
C1254 C 0.56648 0.67603 0.30084 0.0
C1255 C 0.53792 0.66082 0.30254 0.0
C1256 C 0.58302 0.7031 0.30866 0.0
C1257 C 0.52618 0.67314 0.31221 0.0
C1258 C 0.54254 0.69994 0.32013 0.0
C1259 C 0.58749 0.74196 0.32643 0.0
C1260 C 0.61601 0.75724 0.32473 0.0
C1261 C 0.57096 0.71507 0.31845 0.0
C1262 C 0.62776 0.74528 0.3148 0.0
C1263 C 0.61144 0.71841 0.30688 0.0
H1264 H 0.30233 0.87897 0.27708 0.0
H1265 H 0.33905 0.85391 0.31584 0.0
H1266 H 0.29947 0.84178 0.33132 0.0
H1267 H 0.25434 0.83827 0.33404 0.0
H1268 H 0.21586 0.85939 0.29422 0.0
H1269 H 0.25582 0.87223 0.27883 0.0
C1270 C 0.30161 0.87043 0.28877 0.0
C1271 C 0.32408 0.86779 0.29526 0.0
C1272 C 0.27831 0.86261 0.29745 0.0
C1273 C 0.32261 0.85701 0.31062 0.0
C1274 C 0.29978 0.84975 0.31947 0.0
C1275 C 0.25469 0.84564 0.32198 0.0
C1276 C 0.23221 0.84805 0.31536 0.0
C1277 C 0.27758 0.85259 0.31305 0.0
C1278 C 0.23284 0.8573 0.29962 0.0
C1279 C 0.25575 0.86475 0.29082 0.0
H1280 H 0.10839 0.42165 0.29043 0.0
H1281 H 0.07155 0.42127 0.33543 0.0
H1282 H 0.0915 0.3953 0.34758 0.0
H1283 H 0.11944 0.37273 0.34541 0.0
H1284 H 0.15524 0.37223 0.30006 0.0
H1285 H 0.13547 0.39833 0.28804 0.0
C1286 C 0.1044 0.41556 0.30281 0.0
C1287 C 0.08851 0.4234 0.312 0.0
C1288 C 0.11584 0.40057 0.30969 0.0
C1289 C 0.08397 0.41576 0.32815 0.0
C1290 C 0.09529 0.40084 0.33509 0.0
C1291 C 0.12303 0.37844 0.33293 0.0
C1292 C 0.13887 0.3706 0.32369 0.0
C1293 C 0.11138 0.39326 0.32601 0.0
C1294 C 0.14312 0.37797 0.30747 0.0
C1295 C 0.1318 0.39289 0.30056 0.0
H1296 H 0.33577 0.45252 0.31697 0.0
H1297 H 0.30683 0.40279 0.26968 0.0
H1298 H 0.26375 0.37046 0.28025 0.0
H1299 H 0.23413 0.35636 0.30276 0.0
H1300 H 0.26137 0.40742 0.34947 0.0
H1301 H 0.30508 0.43958 0.33911 0.0
C1302 C 0.31995 0.43485 0.30887 0.0
C1303 C 0.32481 0.43012 0.29255 0.0
C1304 C 0.29486 0.41661 0.3149 0.0
C1305 C 0.30408 0.40675 0.28239 0.0
C1306 C 0.27927 0.38832 0.28838 0.0
C1307 C 0.24965 0.37448 0.31071 0.0
C1308 C 0.24461 0.37939 0.32691 0.0
C1309 C 0.27449 0.39301 0.30461 0.0
C1310 C 0.26475 0.40319 0.33695 0.0
C1311 C 0.28976 0.42154 0.33105 0.0
H1312 H 0.52488 0.8591 0.30871 0.0
H1313 H 0.57916 0.9015 0.2719 0.0
H1314 H 0.6136 0.89123 0.28409 0.0
H1315 H 0.62899 0.87126 0.30573 0.0
H1316 H 0.57616 0.83262 0.34379 0.0
H1317 H 0.54078 0.8409 0.33077 0.0
C1318 C 0.54439 0.86655 0.30346 0.0
C1319 C 0.54922 0.88106 0.28935 0.0
C1320 C 0.56448 0.8613 0.3108 0.0
C1321 C 0.57449 0.88987 0.28257 0.0
C1322 C 0.59437 0.88419 0.28961 0.0
C1323 C 0.60966 0.86456 0.31109 0.0
C1324 C 0.60515 0.85132 0.32567 0.0
C1325 C 0.58961 0.86997 0.30375 0.0
C1326 C 0.58017 0.843 0.33262 0.0
C1327 C 0.5599 0.84768 0.32517 0.0
H1328 H 0.07518 0.65713 0.29684 0.0
H1329 H 0.10531 0.64082 0.34261 0.0
H1330 H 0.12791 0.6898 0.3527 0.0
H1331 H 0.13984 0.73753 0.34834 0.0
H1332 H 0.10585 0.75277 0.30378 0.0
H1333 H 0.08337 0.70365 0.29356 0.0
C1334 C 0.08608 0.66399 0.30919 0.0
C1335 C 0.08864 0.6451 0.31884 0.0
C1336 C 0.09839 0.69204 0.31513 0.0
C1337 C 0.10345 0.65483 0.33469 0.0
C1338 C 0.11626 0.68286 0.34055 0.0
C1339 C 0.1275 0.73 0.3364 0.0
C1340 C 0.12466 0.7486 0.32672 0.0
C1341 C 0.11411 0.70169 0.3308 0.0
C1342 C 0.10827 0.73871 0.31141 0.0
C1343 C 0.09549 0.7107 0.30557 0.0
H1344 H 0.76167 0.00363 0.41108 0.0
H1345 H 0.81063 0.02353 0.36967 0.0
H1346 H 0.77865 0.97795 0.3554 0.0
H1347 H 0.73816 0.93178 0.35504 0.0
H1348 H 0.69175 0.90975 0.39739 0.0
H1349 H 0.72198 0.95668 0.41115 0.0
C1350 C 0.76566 0.99799 0.39903 0.0
C1351 C 0.78864 0.0173 0.39152 0.0
C1352 C 0.74777 0.97126 0.3911 0.0
C1353 C 0.79289 0.00955 0.3757 0.0
C1354 C 0.77475 0.9833 0.36755 0.0
C1355 C 0.73453 0.93729 0.36725 0.0
C1356 C 0.71269 0.91746 0.37516 0.0
C1357 C 0.75228 0.96396 0.37518 0.0
C1358 C 0.70849 0.92472 0.39107 0.0
C1359 C 0.72571 0.95152 0.39891 0.0
H1360 H 0.03075 0.79508 0.41086 0.0
H1361 H 0.98376 0.79642 0.36707 0.0
H1362 H 0.02365 0.80993 0.35158 0.0
H1363 H 0.07157 0.82 0.35012 0.0
H1364 H 0.11736 0.81559 0.39342 0.0
H1365 H 0.07819 0.80431 0.4093 0.0
C1366 C 0.02906 0.798 0.39788 0.0
C1367 C 0.00417 0.79478 0.39023 0.0
C1368 C 0.05192 0.8052 0.3889 0.0
C1369 C 0.00271 0.7992 0.37344 0.0
C1370 C 0.02549 0.80675 0.36449 0.0
C1371 C 0.07302 0.81677 0.36306 0.0
C1372 C 0.09735 0.81866 0.37056 0.0
C1373 C 0.05019 0.80974 0.37207 0.0
C1374 C 0.09882 0.81412 0.3873 0.0
C1375 C 0.07643 0.80768 0.39642 0.0
H1376 H 0.22209 0.20176 0.37547 0.0
H1377 H 0.29488 0.27693 0.39762 0.0
H1378 H 0.27533 0.30435 0.38738 0.0
H1379 H 0.2376 0.30707 0.37234 0.0
H1380 H 0.16561 0.23228 0.3491 0.0
H1381 H 0.1851 0.20467 0.35934 0.0
C1382 C 0.23388 0.22416 0.37786 0.0
C1383 C 0.25987 0.23719 0.38741 0.0
C1384 C 0.22268 0.23988 0.37175 0.0
C1385 C 0.27463 0.26626 0.39057 0.0
C1386 C 0.26354 0.282 0.38464 0.0
C1387 C 0.22612 0.28472 0.36952 0.0
C1388 C 0.20012 0.27175 0.36005 0.0
C1389 C 0.23753 0.26902 0.37531 0.0
C1390 C 0.18568 0.2428 0.35637 0.0
C1391 C 0.19679 0.22698 0.36223 0.0
H1392 H 0.67496 0.56045 0.70663 0.0
H1393 H 0.71488 0.58964 0.75658 0.0
H1394 H 0.75986 0.61565 0.74607 0.0
H1395 H 0.78777 0.63006 0.72277 0.0
H1396 H 0.74798 0.60026 0.67279 0.0
H1397 H 0.70306 0.57391 0.68332 0.0
C1398 C 0.69352 0.57224 0.71524 0.0
C1399 C 0.69148 0.57308 0.73238 0.0
C1400 C 0.71935 0.58686 0.70913 0.0
C1401 C 0.71574 0.58893 0.74333 0.0
C1402 C 0.74152 0.60363 0.73733 0.0
C1403 C 0.76934 0.61766 0.71414 0.0
C1404 C 0.77131 0.61715 0.697 0.0
C1405 C 0.74355 0.60273 0.72026 0.0
C1406 C 0.74712 0.60103 0.68605 0.0
C1407 C 0.72139 0.58601 0.69205 0.0
H1408 H 0.48194 0.15861 0.72542 0.0
H1409 H 0.41589 0.08567 0.74276 0.0
H1410 H 0.38178 0.09622 0.73028 0.0
H1411 H 0.37054 0.12575 0.714 0.0
H1412 H 0.43674 0.19786 0.69599 0.0
H1413 H 0.47077 0.18781 0.70901 0.0
C1414 C 0.46007 0.14483 0.72633 0.0
C1415 C 0.45158 0.12138 0.73504 0.0
C1416 C 0.4405 0.15085 0.71898 0.0
C1417 C 0.42312 0.10407 0.73633 0.0
C1418 C 0.40354 0.11 0.72911 0.0
C1419 C 0.39241 0.13932 0.71296 0.0
C1420 C 0.40098 0.1625 0.70399 0.0
C1421 C 0.41198 0.13332 0.72039 0.0
C1422 C 0.42945 0.1798 0.70275 0.0
C1423 C 0.449 0.17409 0.71021 0.0
H1424 H 0.89119 0.34758 0.71468 0.0
H1425 H 0.96414 0.34729 0.73516 0.0
H1426 H 0.94247 0.29782 0.726 0.0
H1427 H 0.90289 0.25483 0.71189 0.0
H1428 H 0.83048 0.25593 0.691 0.0
H1429 H 0.85204 0.30504 0.70049 0.0
C1430 C 0.90253 0.3368 0.71695 0.0
C1431 C 0.9293 0.35113 0.72549 0.0
C1432 C 0.89002 0.30851 0.71161 0.0
C1433 C 0.94344 0.33669 0.72869 0.0
C1434 C 0.93109 0.30844 0.72341 0.0
C1435 C 0.89178 0.26578 0.70947 0.0
C1436 C 0.86511 0.25169 0.70075 0.0
C1437 C 0.90437 0.29414 0.71487 0.0
C1438 C 0.85105 0.26624 0.69766 0.0
C1439 C 0.86335 0.29435 0.70307 0.0
H1440 H 0.24885 0.01031 0.62075 0.0
H1441 H 0.17921 0.00585 0.64342 0.0
H1442 H 0.20911 0.05192 0.65794 0.0
H1443 H 0.25465 0.09343 0.66405 0.0
H1444 H 0.32439 0.09892 0.64097 0.0
H1445 H 0.29461 0.05259 0.62652 0.0
C1446 C 0.24017 0.01953 0.62874 0.0
C1447 C 0.21184 0.00456 0.63104 0.0
C1448 C 0.25742 0.04621 0.63693 0.0
C1449 C 0.20102 0.01668 0.64164 0.0
C1450 C 0.21805 0.04312 0.64986 0.0
C1451 C 0.26344 0.08457 0.65587 0.0
C1452 C 0.29176 0.09965 0.65364 0.0
C1453 C 0.24625 0.05803 0.6476 0.0
C1454 C 0.30266 0.0878 0.64293 0.0
C1455 C 0.28566 0.06129 0.63466 0.0
H1456 H 0.9861 0.18602 0.64246 0.0
H1457 H 0.97773 0.2422 0.61157 0.0
H1458 H 0.93628 0.23429 0.62412 0.0
H1459 H 0.90266 0.21192 0.64405 0.0
H1460 H 0.91189 0.15693 0.6756 0.0
H1461 H 0.95303 0.16439 0.66281 0.0
C1462 C 0.97547 0.19684 0.63858 0.0
C1463 C 0.98519 0.2147 0.62602 0.0
C1464 C 0.9518 0.19252 0.64603 0.0
C1465 C 0.97063 0.22803 0.621 0.0
C1466 C 0.94698 0.22368 0.62826 0.0
C1467 C 0.91366 0.20158 0.64819 0.0
C1468 C 0.90409 0.1839 0.66084 0.0
C1469 C 0.9374 0.206 0.6408 0.0
C1470 C 0.91871 0.1707 0.66596 0.0
C1471 C 0.94227 0.17492 0.65862 0.0
H1472 H 0.77714 0.76209 0.62404 0.0
H1473 H 0.7482 0.76957 0.67087 0.0
H1474 H 0.77023 0.74567 0.68332 0.0
H1475 H 0.79759 0.72271 0.6809 0.0
H1476 H 0.82584 0.71437 0.63392 0.0
H1477 H 0.80392 0.73837 0.6215 0.0
C1478 C 0.77536 0.75819 0.63692 0.0
C1479 C 0.76104 0.76759 0.64651 0.0
C1480 C 0.78799 0.74437 0.64397 0.0
C1481 C 0.75935 0.76281 0.66326 0.0
C1482 C 0.77185 0.74906 0.67037 0.0
C1483 C 0.79906 0.72619 0.66795 0.0
C1484 C 0.81342 0.71681 0.65838 0.0
C1485 C 0.78629 0.73985 0.66085 0.0
C1486 C 0.81494 0.72138 0.64159 0.0
C1487 C 0.80239 0.73509 0.63446 0.0
H1488 H 0.01172 0.80083 0.64927 0.0
H1489 H 0.97933 0.74828 0.60295 0.0
H1490 H 0.93737 0.71704 0.61489 0.0
H1491 H 0.90962 0.70474 0.63821 0.0
H1492 H 0.93974 0.75873 0.68386 0.0
H1493 H 0.98263 0.78986 0.67221 0.0
C1494 C 0.99539 0.78279 0.64166 0.0
C1495 C 0.99901 0.77696 0.62521 0.0
C1496 C 0.97084 0.76525 0.64844 0.0
C1497 C 0.97762 0.7531 0.61574 0.0
C1498 C 0.95341 0.73529 0.6225 0.0
C1499 C 0.92559 0.7233 0.64565 0.0
C1500 C 0.92169 0.72934 0.66193 0.0
C1501 C 0.94985 0.74116 0.63882 0.0
C1502 C 0.94231 0.75368 0.6713 0.0
C1503 C 0.96683 0.77138 0.66466 0.0
H1504 H 0.23339 0.22258 0.61626 0.0
H1505 H 0.17822 0.19 0.65419 0.0
H1506 H 0.21164 0.18158 0.66961 0.0
H1507 H 0.25616 0.18242 0.67214 0.0
H1508 H 0.30939 0.21141 0.63308 0.0
H1509 H 0.27674 0.22157 0.61815 0.0
C1510 C 0.22835 0.21324 0.62777 0.0
C1511 C 0.20317 0.2071 0.63398 0.0
C1512 C 0.24733 0.20766 0.63639 0.0
C1513 C 0.19756 0.19554 0.64916 0.0
C1514 C 0.2166 0.19045 0.65797 0.0
C1515 C 0.26066 0.19106 0.66039 0.0
C1516 C 0.28525 0.19626 0.65378 0.0
C1517 C 0.24153 0.1964 0.6517 0.0
C1518 C 0.29059 0.20714 0.63844 0.0
C1519 C 0.27195 0.21301 0.6299 0.0
H1520 H 0.76515 0.00158 0.62487 0.0
H1521 H 0.7423 0.9718 0.67234 0.0
H1522 H 0.76138 0.01934 0.68488 0.0
H1523 H 0.78472 0.06927 0.68236 0.0
H1524 H 0.80686 0.09886 0.63471 0.0
H1525 H 0.78752 0.05136 0.62222 0.0
C1526 C 0.76399 0.00544 0.63791 0.0
C1527 C 0.75228 0.98317 0.64764 0.0
C1528 C 0.7749 0.03277 0.64502 0.0
C1529 C 0.75146 0.9886 0.6646 0.0
C1530 C 0.76226 0.01575 0.67177 0.0
C1531 C 0.78534 0.06537 0.66924 0.0
C1532 C 0.79728 0.08763 0.65951 0.0
C1533 C 0.77413 0.038 0.6621 0.0
C1534 C 0.7978 0.08214 0.64251 0.0
C1535 C 0.78675 0.05497 0.63534 0.0
H1536 H 0.43646 0.3458 0.73988 0.0
H1537 H 0.49263 0.36327 0.70234 0.0
H1538 H 0.46214 0.31735 0.68805 0.0
H1539 H 0.4202 0.27185 0.68641 0.0
H1540 H 0.36653 0.25221 0.7253 0.0
H1541 H 0.39595 0.2992 0.73918 0.0
C1542 C 0.44238 0.33955 0.72873 0.0
C1543 C 0.46685 0.35835 0.7222 0.0
C1544 C 0.42528 0.31263 0.72086 0.0
C1545 C 0.47367 0.34974 0.70751 0.0
C1546 C 0.45637 0.32329 0.69938 0.0
C1547 C 0.4149 0.27792 0.69789 0.0
C1548 C 0.39117 0.25882 0.70478 0.0
C1549 C 0.43218 0.3046 0.70594 0.0
C1550 C 0.38475 0.26667 0.7198 0.0
C1551 C 0.4015 0.2935 0.72769 0.0
H1552 H 0.65986 0.1179 0.71211 0.0
H1553 H 0.70128 0.13503 0.76153 0.0
H1554 H 0.74517 0.14858 0.7503 0.0
H1555 H 0.77191 0.15599 0.7265 0.0
H1556 H 0.73068 0.13965 0.67706 0.0
H1557 H 0.68677 0.12591 0.6883 0.0
C1558 C 0.67852 0.12487 0.72045 0.0
C1559 C 0.67714 0.12536 0.73766 0.0
C1560 C 0.7038 0.13293 0.71391 0.0
C1561 C 0.70154 0.13402 0.74823 0.0
C1562 C 0.72674 0.14199 0.74182 0.0
C1563 C 0.75338 0.1495 0.71815 0.0
C1564 C 0.75473 0.14893 0.70093 0.0
C1565 C 0.72812 0.14155 0.72469 0.0
C1566 C 0.73037 0.14036 0.69035 0.0
C1567 C 0.70518 0.13245 0.69677 0.0
H1568 H 0.91893 0.58578 0.73738 0.0
H1569 H 0.91334 0.54332 0.69004 0.0
H1570 H 0.89141 0.5666 0.67672 0.0
H1571 H 0.8749 0.60014 0.6784 0.0
H1572 H 0.88407 0.64493 0.72551 0.0
H1573 H 0.9039 0.61992 0.73897 0.0
C1574 C 0.91335 0.58187 0.7241 0.0
C1575 C 0.91788 0.5628 0.71478 0.0
C1576 C 0.90136 0.59579 0.71646 0.0
C1577 C 0.9098 0.55759 0.69762 0.0
C1578 C 0.89739 0.57103 0.68995 0.0
C1579 C 0.8811 0.60422 0.69162 0.0
C1580 C 0.87803 0.62427 0.70096 0.0
C1581 C 0.89311 0.59022 0.69924 0.0
C1582 C 0.8864 0.62967 0.71805 0.0
C1583 C 0.8977 0.61538 0.72576 0.0
H1584 H 0.48807 0.94144 0.16665 0.0
H1585 H 0.42998 0.96966 0.17403 0.0
H1586 H 0.43728 0.98818 0.14721 0.0
H1587 H 0.46146 0.9978 0.12201 0.0
H1588 H 0.5211 0.97139 0.11554 0.0
H1589 H 0.51249 0.95146 0.1419 0.0
C1590 C 0.47721 0.95192 0.16254 0.0
C1591 C 0.45857 0.95419 0.17245 0.0
C1592 C 0.48199 0.9631 0.14731 0.0
C1593 C 0.44419 0.96726 0.16662 0.0
C1594 C 0.44853 0.97808 0.15133 0.0
C1595 C 0.47245 0.98757 0.12637 0.0
C1596 C 0.49198 0.98618 0.11689 0.0
C1597 C 0.46751 0.97627 0.14161 0.0
C1598 C 0.50626 0.97307 0.12273 0.0
C1599 C 0.50122 0.96152 0.13774 0.0
H1600 H 0.97662 0.45612 0.18675 0.0
H1601 H 0.03537 0.54382 0.19031 0.0
H1602 H 0.02678 0.54372 0.16055 0.0
H1603 H 0.00224 0.5189 0.13355 0.0
H1604 H 0.94362 0.43116 0.1298 0.0
H1605 H 0.95246 0.43109 0.15957 0.0
C1606 C 0.98767 0.47514 0.18097 0.0
C1607 C 0.0065 0.49995 0.19073 0.0
C1608 C 0.9826 0.47495 0.16383 0.0
C1609 C 0.02047 0.52452 0.1831 0.0
C1610 C 0.01569 0.52446 0.16607 0.0
C1611 C 0.9916 0.49972 0.13923 0.0
C1612 C 0.97231 0.4751 0.12948 0.0
C1613 C 0.99675 0.49983 0.15633 0.0
C1614 C 0.95835 0.45048 0.13706 0.0
C1615 C 0.96349 0.45038 0.15407 0.0
H1616 H 0.45114 0.48447 0.1712 0.0
H1617 H 0.53012 0.49934 0.1934 0.0
H1618 H 0.54429 0.49591 0.16602 0.0
H1619 H 0.53522 0.49124 0.13581 0.0
H1620 H 0.45607 0.47599 0.11356 0.0
H1621 H 0.44103 0.47711 0.14093 0.0
C1622 C 0.47125 0.48648 0.17004 0.0
C1623 C 0.48958 0.49224 0.1843 0.0
C1624 C 0.47936 0.48472 0.15426 0.0
C1625 C 0.51576 0.4952 0.1826 0.0
C1626 C 0.52386 0.4932 0.16696 0.0
C1627 C 0.51452 0.48775 0.13693 0.0
C1628 C 0.49689 0.48371 0.12264 0.0
C1629 C 0.50598 0.48837 0.1527 0.0
C1630 C 0.47026 0.47961 0.12435 0.0
C1631 C 0.46157 0.48008 0.14 0.0
H1632 H 0.00215 0.47907 0.84603 0.0
H1633 H 0.03094 0.56654 0.84693 0.0
H1634 H 0.03852 0.57163 0.87714 0.0
H1635 H 0.03766 0.55119 0.90333 0.0
H1636 H 0.01024 0.464 0.90196 0.0
H1637 H 0.00194 0.45895 0.87184 0.0
C1638 C 0.0105 0.49937 0.85278 0.0
C1639 C 0.01612 0.52241 0.84418 0.0
C1640 C 0.01509 0.50219 0.87007 0.0
C1641 C 0.02622 0.5484 0.85322 0.0
C1642 C 0.03068 0.55135 0.87049 0.0
C1643 C 0.02971 0.53109 0.8964 0.0
C1644 C 0.02461 0.50801 0.90482 0.0
C1645 C 0.02519 0.52838 0.87905 0.0
C1646 C 0.01458 0.48212 0.89573 0.0
C1647 C 0.00975 0.4792 0.87853 0.0
H1648 H 0.56745 0.5356 0.85438 0.0
H1649 H 0.49035 0.52624 0.83284 0.0
H1650 H 0.47685 0.52983 0.86039 0.0
H1651 H 0.48539 0.532 0.89046 0.0
H1652 H 0.56282 0.54216 0.9121 0.0
H1653 H 0.57773 0.54184 0.88462 0.0
C1654 C 0.54796 0.53493 0.85572 0.0
C1655 C 0.52984 0.53045 0.84159 0.0
C1656 C 0.54023 0.53679 0.87159 0.0
C1657 C 0.50449 0.52928 0.84354 0.0
C1658 C 0.49677 0.53137 0.85927 0.0
C1659 C 0.50575 0.53468 0.88921 0.0
C1660 C 0.52282 0.53683 0.90333 0.0
C1661 C 0.51423 0.53456 0.87338 0.0
C1662 C 0.54901 0.53991 0.90143 0.0
C1663 C 0.55764 0.5399 0.88572 0.0
H1664 H 0.51358 0.98986 0.84015 0.0
H1665 H 0.53462 0.06988 0.8638 0.0
H1666 H 0.52334 0.05054 0.89025 0.0
H1667 H 0.50576 0.01061 0.90638 0.0
H1668 H 0.48283 0.93001 0.88276 0.0
H1669 H 0.49644 0.94972 0.85654 0.0
C1670 C 0.51594 0.00304 0.85116 0.0
C1671 C 0.52491 0.03122 0.85008 0.0
C1672 C 0.5089 0.99164 0.86627 0.0
C1673 C 0.52758 0.04808 0.86435 0.0
C1674 C 0.52117 0.03705 0.87946 0.0
C1675 C 0.50407 0.99743 0.89554 0.0
C1676 C 0.49343 0.96893 0.89651 0.0
C1677 C 0.51156 0.00883 0.88052 0.0
C1678 C 0.49083 0.95199 0.88228 0.0
C1679 C 0.49868 0.96327 0.86732 0.0
H1680 H 0.12783 0.31016 0.51097 0.0
H1681 H 0.13543 0.23849 0.49799 0.0
H1682 H 0.14794 0.25378 0.47078 0.0
H1683 H 0.15805 0.28811 0.45092 0.0
H1684 H 0.14985 0.35952 0.4636 0.0
H1685 H 0.13641 0.3438 0.49062 0.0
C1686 C 0.13189 0.29772 0.50211 0.0
C1687 C 0.13079 0.27327 0.50658 0.0
C1688 C 0.13919 0.3067 0.48645 0.0
C1689 C 0.13648 0.25759 0.49499 0.0
C1690 C 0.14354 0.26627 0.47939 0.0
C1691 C 0.15301 0.3001 0.4595 0.0
C1692 C 0.15508 0.32504 0.45518 0.0
C1693 C 0.14518 0.29089 0.47502 0.0
C1694 C 0.14887 0.34047 0.46663 0.0
C1695 C 0.14099 0.3314 0.48208 0.0
H1696 H 0.64151 0.84027 0.52169 0.0
H1697 H 0.6811 0.79092 0.51854 0.0
H1698 H 0.67045 0.78339 0.48855 0.0
H1699 H 0.65232 0.79305 0.46304 0.0
H1700 H 0.61491 0.84432 0.46612 0.0
H1701 H 0.62293 0.84946 0.4963 0.0
C1702 C 0.64799 0.82801 0.51446 0.0
C1703 C 0.66215 0.81626 0.52242 0.0
C1704 C 0.64244 0.82434 0.49718 0.0
C1705 C 0.66984 0.79993 0.51282 0.0
C1706 C 0.66398 0.7958 0.49563 0.0
C1707 C 0.64567 0.80509 0.47035 0.0
C1708 C 0.63312 0.81835 0.46241 0.0
C1709 C 0.65058 0.80816 0.48767 0.0
C1710 C 0.6249 0.83418 0.47198 0.0
C1711 C 0.62937 0.83703 0.48922 0.0
H1712 H 0.1628 0.8205 0.51196 0.0
H1713 H 0.1194 0.8619 0.49553 0.0
H1714 H 0.12966 0.85721 0.46717 0.0
H1715 H 0.15242 0.843 0.44738 0.0
H1716 H 0.19887 0.80455 0.464 0.0
H1717 H 0.18557 0.80592 0.49187 0.0
C1718 C 0.15536 0.82813 0.50208 0.0
C1719 C 0.14035 0.84144 0.5057 0.0
C1720 C 0.16197 0.82599 0.4859 0.0
C1721 C 0.13104 0.85163 0.49294 0.0
C1722 C 0.13694 0.84899 0.47677 0.0
C1723 C 0.15994 0.83519 0.45711 0.0
C1724 C 0.17682 0.8239 0.45357 0.0
C1725 C 0.15274 0.8366 0.47317 0.0
C1726 C 0.18568 0.81317 0.4663 0.0
C1727 C 0.17821 0.81408 0.48228 0.0
H1728 H 0.71285 0.84614 0.18055 0.0
H1729 H 0.65479 0.87569 0.18201 0.0
H1730 H 0.66053 0.88011 0.21214 0.0
H1731 H 0.68009 0.87332 0.23804 0.0
H1732 H 0.73653 0.84185 0.23671 0.0
H1733 H 0.7332 0.84024 0.20655 0.0
C1734 C 0.70142 0.85351 0.18746 0.0
C1735 C 0.68339 0.86052 0.17899 0.0
C1736 C 0.70434 0.85544 0.2048 0.0
C1737 C 0.66912 0.87052 0.18816 0.0
C1738 C 0.67216 0.87279 0.20541 0.0
C1739 C 0.6915 0.86593 0.23113 0.0
C1740 C 0.70834 0.85751 0.23957 0.0
C1741 C 0.68937 0.86491 0.21384 0.0
C1742 C 0.72351 0.84857 0.23049 0.0
C1743 C 0.72155 0.84755 0.21326 0.0
H1744 H 0.20536 0.88764 0.1845 0.0
H1745 H 0.13182 0.80771 0.17098 0.0
H1746 H 0.11713 0.80862 0.19829 0.0
H1747 H 0.12586 0.83064 0.22637 0.0
H1748 H 0.19968 0.90969 0.24088 0.0
H1749 H 0.21382 0.9103 0.21296 0.0
C1750 C 0.18616 0.87043 0.18755 0.0
C1751 C 0.16962 0.84781 0.17555 0.0
C1752 C 0.17794 0.87079 0.2035 0.0
C1753 C 0.1447 0.82573 0.17975 0.0
C1754 C 0.13634 0.82607 0.19545 0.0
C1755 C 0.14481 0.84828 0.22337 0.0
C1756 C 0.16156 0.87019 0.23564 0.0
C1757 C 0.15283 0.84838 0.20743 0.0
C1758 C 0.18645 0.89252 0.23165 0.0
C1759 C 0.1945 0.89289 0.21569 0.0
H1760 H 0.20536 0.34114 0.17643 0.0
H1761 H 0.19463 0.40978 0.19254 0.0
H1762 H 0.18306 0.39188 0.21929 0.0
H1763 H 0.17501 0.3563 0.23792 0.0
H1764 H 0.18598 0.28772 0.22207 0.0
H1765 H 0.1983 0.30595 0.19542 0.0
C1766 C 0.20077 0.35232 0.18587 0.0
C1767 C 0.20079 0.37673 0.18246 0.0
C1768 C 0.19401 0.34184 0.20124 0.0
C1769 C 0.19444 0.39077 0.19476 0.0
C1770 C 0.18792 0.38061 0.21009 0.0
C1771 C 0.1804 0.34549 0.22871 0.0
C1772 C 0.17957 0.32067 0.23202 0.0
C1773 C 0.18749 0.35609 0.21343 0.0
C1774 C 0.18613 0.30669 0.2198 0.0
C1775 C 0.19334 0.31718 0.20458 0.0
H1776 H 0.82568 0.61759 0.83575 0.0
H1777 H 0.81245 0.68261 0.85594 0.0
H1778 H 0.82363 0.70464 0.83026 0.0
H1779 H 0.83827 0.70597 0.80233 0.0
H1780 H 0.85007 0.63996 0.78199 0.0
H1781 H 0.8391 0.61826 0.80764 0.0
C1782 C 0.82541 0.63668 0.83456 0.0
C1783 C 0.81836 0.6485 0.84776 0.0
C1784 C 0.83186 0.64921 0.8198 0.0
C1785 C 0.8176 0.67297 0.84592 0.0
C1786 C 0.82414 0.68565 0.83128 0.0
C1787 C 0.83819 0.6867 0.80342 0.0
C1788 C 0.84524 0.67481 0.79022 0.0
C1789 C 0.83139 0.674 0.81815 0.0
C1790 C 0.84533 0.64997 0.79202 0.0
C1791 C 0.83881 0.63737 0.80665 0.0
H1792 H 0.36276 0.19545 0.8474 0.0
H1793 H 0.299 0.11139 0.85167 0.0
H1794 H 0.28604 0.10402 0.82175 0.0
H1795 H 0.2928 0.12173 0.7944 0.0
H1796 H 0.35627 0.20614 0.79054 0.0
H1797 H 0.36934 0.21313 0.82032 0.0
C1798 C 0.34583 0.1756 0.84181 0.0
C1799 C 0.33174 0.15406 0.85174 0.0
C1800 C 0.3385 0.17156 0.82468 0.0
C1801 C 0.31027 0.12825 0.84427 0.0
C1802 C 0.30278 0.12407 0.82719 0.0
C1803 C 0.30935 0.14169 0.80012 0.0
C1804 C 0.32358 0.16336 0.79027 0.0
C1805 C 0.31673 0.14561 0.81728 0.0
C1806 C 0.34524 0.18901 0.79781 0.0
C1807 C 0.35263 0.19309 0.81484 0.0
H1808 H 0.76478 0.14048 0.83837 0.0
H1809 H 0.84444 0.15794 0.86102 0.0
H1810 H 0.85871 0.15349 0.83386 0.0
H1811 H 0.84986 0.14796 0.80367 0.0
H1812 H 0.77023 0.1303 0.78077 0.0
H1813 H 0.75469 0.13157 0.808 0.0
C1814 C 0.78507 0.14283 0.83735 0.0
C1815 C 0.8036 0.14975 0.85168 0.0
C1816 C 0.79327 0.14051 0.82164 0.0
C1817 C 0.82994 0.153 0.85016 0.0
C1818 C 0.8381 0.15041 0.83464 0.0
C1819 C 0.82891 0.14386 0.80461 0.0
C1820 C 0.81133 0.13919 0.79017 0.0
C1821 C 0.82013 0.14467 0.82029 0.0
C1822 C 0.78438 0.13438 0.79167 0.0
C1823 C 0.77542 0.13497 0.80724 0.0
H1824 H 0.33805 0.19628 0.51251 0.0
H1825 H 0.4059 0.18225 0.50484 0.0
H1826 H 0.41688 0.18584 0.53477 0.0
H1827 H 0.4059 0.19114 0.56305 0.0
H1828 H 0.33798 0.20524 0.57048 0.0
H1829 H 0.32827 0.20339 0.54065 0.0
C1830 C 0.35555 0.1945 0.5174 0.0
C1831 C 0.37121 0.18912 0.50651 0.0
C1832 C 0.36153 0.19632 0.53454 0.0
C1833 C 0.39346 0.18625 0.513 0.0
C1834 C 0.39974 0.18833 0.53009 0.0
C1835 C 0.38917 0.19411 0.55813 0.0
C1836 C 0.37259 0.19815 0.56895 0.0
C1837 C 0.38372 0.19306 0.54097 0.0
C1838 C 0.35076 0.20163 0.5624 0.0
C1839 C 0.34531 0.20077 0.54536 0.0
H1840 H 0.82984 0.16712 0.51096 0.0
H1841 H 0.916 0.19851 0.52767 0.0
H1842 H 0.90769 0.2071 0.55595 0.0
H1843 H 0.87537 0.20349 0.5761 0.0
H1844 H 0.78884 0.1702 0.5593 0.0
H1845 H 0.79792 0.16463 0.53086 0.0
C1846 C 0.84678 0.17574 0.52081 0.0
C1847 C 0.87343 0.18192 0.51726 0.0
C1848 C 0.84179 0.18026 0.53701 0.0
C1849 C 0.89532 0.1937 0.53007 0.0
C1850 C 0.89055 0.19845 0.54625 0.0
C1851 C 0.85849 0.19493 0.56622 0.0
C1852 C 0.83145 0.18719 0.56984 0.0
C1853 C 0.86377 0.19144 0.5499 0.0
C1854 C 0.8099 0.17661 0.55685 0.0
C1855 C 0.81502 0.17324 0.54059 0.0
H1856 H 0.85736 0.72135 0.52167 0.0
H1857 H 0.88089 0.66311 0.50298 0.0
H1858 H 0.87453 0.64348 0.52954 0.0
H1859 H 0.86147 0.64246 0.55802 0.0
H1860 H 0.83765 0.70078 0.57626 0.0
H1861 H 0.84477 0.72064 0.54991 0.0
C1862 C 0.8609 0.70422 0.52336 0.0
C1863 C 0.8694 0.69359 0.51033 0.0
C1864 C 0.85713 0.69303 0.53859 0.0
C1865 C 0.8745 0.67179 0.51285 0.0
C1866 C 0.87072 0.66045 0.528 0.0
C1867 C 0.85771 0.65942 0.55617 0.0
C1868 C 0.84911 0.67016 0.56911 0.0
C1869 C 0.86189 0.67082 0.54094 0.0
C1870 C 0.84462 0.69235 0.56659 0.0
C1871 C 0.84856 0.70365 0.5515 0.0
loop_
_geom_bond_atom_site_label_1
_geom_bond_atom_site_label_2
_geom_bond_distance
_geom_bond_site_symmetry_2
_ccdc_geom_bond_type
C0 C1 1.384 . S
C0 H13 0.947 . S
C0 C35 1.382 . S
C1 C0 1.384 . S
C1 C2 1.378 . S
C2 C1 1.378 . S
C2 C3 1.378 . S
C2 H14 0.952 . S
C3 C2 1.378 . S
C3 H15 0.950 . S
C3 C34 1.383 . S
H4 C23 0.947 . S
H5 C24 0.946 . S
H6 C26 0.953 . S
H7 C27 0.945 . S
H8 C29 0.952 . S
H9 C30 0.949 . S
H10 C32 0.950 . S
H11 C33 0.948 . S
H12 C35 0.951 . S
H13 C0 0.947 . S
H14 C2 0.952 . S
H15 C3 0.950 . S
N16 C19 1.382 . S
N16 C21 1.363 . S
N17 C19 1.371 . S
N17 C20 1.372 . S
N18 C20 1.361 . S
N18 C21 1.377 . S
C19 N16 1.382 . S
C19 N17 1.371 . S
C19 C22 1.480 . S
C20 N17 1.372 . S
C20 N18 1.361 . S
C20 C28 1.457 . S
C21 N16 1.363 . S
C21 N18 1.377 . S
C21 C34 1.479 . S
C22 C19 1.480 . S
C22 C23 1.383 . S
C22 C27 1.385 . S
C23 H4 0.947 . S
C23 C22 1.383 . S
C23 C24 1.388 . S
C24 H5 0.946 . S
C24 C23 1.388 . S
C24 C25 1.384 . S
C25 C24 1.384 . S
C25 C26 1.377 . S
C26 H6 0.953 . S
C26 C25 1.377 . S
C26 C27 1.369 . S
C27 H7 0.945 . S
C27 C22 1.385 . S
C27 C26 1.369 . S
C28 C20 1.457 . S
C28 C29 1.372 . S
C28 C33 1.364 . S
C29 H8 0.952 . S
C29 C28 1.372 . S
C29 C30 1.389 . S
C30 H9 0.949 . S
C30 C29 1.389 . S
C30 C31 1.387 . S
C31 C30 1.387 . S
C31 C32 1.372 . S
C32 H10 0.950 . S
C32 C31 1.372 . S
C32 C33 1.379 . S
C33 H11 0.948 . S
C33 C28 1.364 . S
C33 C32 1.379 . S
C34 C3 1.383 . S
C34 C21 1.479 . S
C34 C35 1.398 . S
C35 C0 1.382 . S
C35 H12 0.951 . S
C35 C34 1.398 . S
C36 C37 1.384 . S
C36 H49 0.947 . S
C36 C71 1.382 . S
C37 C36 1.384 . S
C37 C38 1.378 . S
C38 C37 1.378 . S
C38 C39 1.378 . S
C38 H50 0.952 . S
C39 C38 1.378 . S
C39 H51 0.950 . S
C39 C70 1.383 . S
H40 C59 0.947 . S
H41 C60 0.946 . S
H42 C62 0.953 . S
H43 C63 0.945 . S
H44 C65 0.952 . S
H45 C66 0.949 . S
H46 C68 0.950 . S
H47 C69 0.948 . S
H48 C71 0.951 . S
H49 C36 0.947 . S
H50 C38 0.952 . S
H51 C39 0.950 . S
N52 C55 1.382 . S
N52 C57 1.363 . S
N53 C55 1.371 . S
N53 C56 1.372 . S
N54 C56 1.361 . S
N54 C57 1.377 . S
C55 N52 1.382 . S
C55 N53 1.371 . S
C55 C58 1.480 . S
C56 N53 1.372 . S
C56 N54 1.361 . S
C56 C64 1.457 . S
C57 N52 1.363 . S
C57 N54 1.377 . S
C57 C70 1.479 . S
C58 C55 1.480 . S
C58 C59 1.383 . S
C58 C63 1.385 . S
C59 H40 0.947 . S
C59 C58 1.383 . S
C59 C60 1.388 . S
C60 H41 0.946 . S
C60 C59 1.388 . S
C60 C61 1.384 . S
C61 C60 1.384 . S
C61 C62 1.377 . S
C62 H42 0.953 . S
C62 C61 1.377 . S
C62 C63 1.369 . S
C63 H43 0.945 . S
C63 C58 1.385 . S
C63 C62 1.369 . S
C64 C56 1.457 . S
C64 C65 1.372 . S
C64 C69 1.364 . S
C65 H44 0.952 . S
C65 C64 1.372 . S
C65 C66 1.389 . S
C66 H45 0.949 . S
C66 C65 1.389 . S
C66 C67 1.387 . S
C67 C66 1.387 . S
C67 C68 1.372 . S
C68 H46 0.950 . S
C68 C67 1.372 . S
C68 C69 1.379 . S
C69 H47 0.948 . S
C69 C64 1.364 . S
C69 C68 1.379 . S
C70 C39 1.383 . S
C70 C57 1.479 . S
C70 C71 1.398 . S
C71 C36 1.382 . S
C71 H48 0.951 . S
C71 C70 1.398 . S
C72 C73 1.384 . S
C72 H85 0.947 . S
C72 C107 1.382 . S
C73 C72 1.384 . S
C73 C74 1.378 . S
C74 C73 1.378 . S
C74 C75 1.378 . S
C74 H86 0.952 . S
C75 C74 1.378 . S
C75 H87 0.950 . S
C75 C106 1.383 . S
H76 C95 0.947 . S
H77 C96 0.946 . S
H78 C98 0.953 . S
H79 C99 0.945 . S
H80 C101 0.952 . S
H81 C102 0.949 . S
H82 C104 0.950 . S
H83 C105 0.948 . S
H84 C107 0.951 . S
H85 C72 0.947 . S
H86 C74 0.952 . S
H87 C75 0.950 . S
N88 C91 1.382 . S
N88 C93 1.363 . S
N89 C91 1.371 . S
N89 C92 1.372 . S
N90 C92 1.361 . S
N90 C93 1.377 . S
C91 N88 1.382 . S
C91 N89 1.371 . S
C91 C94 1.480 . S
C92 N89 1.372 . S
C92 N90 1.361 . S
C92 C100 1.457 . S
C93 N88 1.363 . S
C93 N90 1.377 . S
C93 C106 1.479 . S
C94 C91 1.480 . S
C94 C95 1.383 . S
C94 C99 1.385 . S
C95 H76 0.947 . S
C95 C94 1.383 . S
C95 C96 1.388 . S
C96 H77 0.946 . S
C96 C95 1.388 . S
C96 C97 1.384 . S
C97 C96 1.384 . S
C97 C98 1.377 . S
C98 H78 0.953 . S
C98 C97 1.377 . S
C98 C99 1.369 . S
C99 H79 0.945 . S
C99 C94 1.385 . S
C99 C98 1.369 . S
C100 C92 1.457 . S
C100 C101 1.372 . S
C100 C105 1.364 . S
C101 H80 0.952 . S
C101 C100 1.372 . S
C101 C102 1.389 . S
C102 H81 0.949 . S
C102 C101 1.389 . S
C102 C103 1.387 . S
C103 C102 1.387 . S
C103 C104 1.372 . S
C104 H82 0.950 . S
C104 C103 1.372 . S
C104 C105 1.379 . S
C105 H83 0.948 . S
C105 C100 1.364 . S
C105 C104 1.379 . S
C106 C75 1.383 . S
C106 C93 1.479 . S
C106 C107 1.398 . S
C107 C72 1.382 . S
C107 H84 0.951 . S
C107 C106 1.398 . S
C108 C109 1.384 . S
C108 H121 0.947 . S
C108 C143 1.382 . S
C109 C108 1.384 . S
C109 C110 1.378 . S
C110 C109 1.378 . S
C110 C111 1.378 . S
C110 H122 0.952 . S
C111 C110 1.378 . S
C111 H123 0.950 . S
C111 C142 1.383 . S
H112 C131 0.947 . S
H113 C132 0.946 . S
H114 C134 0.953 . S
H115 C135 0.945 . S
H116 C137 0.952 . S
H117 C138 0.949 . S
H118 C140 0.950 . S
H119 C141 0.948 . S
H120 C143 0.951 . S
H121 C108 0.947 . S
H122 C110 0.952 . S
H123 C111 0.950 . S
N124 C127 1.382 . S
N124 C129 1.363 . S
N125 C127 1.371 . S
N125 C128 1.372 . S
N126 C128 1.361 . S
N126 C129 1.377 . S
C127 N124 1.382 . S
C127 N125 1.371 . S
C127 C130 1.480 . S
C128 N125 1.372 . S
C128 N126 1.361 . S
C128 C136 1.457 . S
C129 N124 1.363 . S
C129 N126 1.377 . S
C129 C142 1.479 . S
C130 C127 1.480 . S
C130 C131 1.383 . S
C130 C135 1.385 . S
C131 H112 0.947 . S
C131 C130 1.383 . S
C131 C132 1.388 . S
C132 H113 0.946 . S
C132 C131 1.388 . S
C132 C133 1.384 . S
C133 C132 1.384 . S
C133 C134 1.377 . S
C134 H114 0.953 . S
C134 C133 1.377 . S
C134 C135 1.369 . S
C135 H115 0.945 . S
C135 C130 1.385 . S
C135 C134 1.369 . S
C136 C128 1.457 . S
C136 C137 1.372 . S
C136 C141 1.364 . S
C137 H116 0.952 . S
C137 C136 1.372 . S
C137 C138 1.389 . S
C138 H117 0.949 . S
C138 C137 1.389 . S
C138 C139 1.387 . S
C139 C138 1.387 . S
C139 C140 1.372 . S
C140 H118 0.950 . S
C140 C139 1.372 . S
C140 C141 1.379 . S
C141 H119 0.948 . S
C141 C136 1.364 . S
C141 C140 1.379 . S
C142 C111 1.383 . S
C142 C129 1.479 . S
C142 C143 1.398 . S
C143 C108 1.382 . S
C143 H120 0.951 . S
C143 C142 1.398 . S
C144 C145 1.384 . S
C144 H157 0.947 . S
C144 C179 1.382 . S
C145 C144 1.384 . S
C145 C146 1.378 . S
C146 C145 1.378 . S
C146 C147 1.378 . S
C146 H158 0.952 . S
C147 C146 1.378 . S
C147 H159 0.950 . S
C147 C178 1.383 . S
H148 C167 0.947 . S
H149 C168 0.946 . S
H150 C170 0.953 . S
H151 C171 0.945 . S
H152 C173 0.952 . S
H153 C174 0.949 . S
H154 C176 0.950 . S
H155 C177 0.948 . S
H156 C179 0.951 . S
H157 C144 0.947 . S
H158 C146 0.952 . S
H159 C147 0.950 . S
N160 C163 1.382 . S
N160 C165 1.363 . S
N161 C163 1.371 . S
N161 C164 1.372 . S
N162 C164 1.361 . S
N162 C165 1.377 . S
C163 N160 1.382 . S
C163 N161 1.371 . S
C163 C166 1.480 . S
C164 N161 1.372 . S
C164 N162 1.361 . S
C164 C172 1.457 . S
C165 N160 1.363 . S
C165 N162 1.377 . S
C165 C178 1.479 . S
C166 C163 1.480 . S
C166 C167 1.383 . S
C166 C171 1.385 . S
C167 H148 0.947 . S
C167 C166 1.383 . S
C167 C168 1.388 . S
C168 H149 0.946 . S
C168 C167 1.388 . S
C168 C169 1.384 . S
C169 C168 1.384 . S
C169 C170 1.377 . S
C170 H150 0.953 . S
C170 C169 1.377 . S
C170 C171 1.369 . S
C171 H151 0.945 . S
C171 C166 1.385 . S
C171 C170 1.369 . S
C172 C164 1.457 . S
C172 C173 1.372 . S
C172 C177 1.364 . S
C173 H152 0.952 . S
C173 C172 1.372 . S
C173 C174 1.389 . S
C174 H153 0.949 . S
C174 C173 1.389 . S
C174 C175 1.387 . S
C175 C174 1.387 . S
C175 C176 1.372 . S
C176 H154 0.950 . S
C176 C175 1.372 . S
C176 C177 1.379 . S
C177 H155 0.948 . S
C177 C172 1.364 . S
C177 C176 1.379 . S
C178 C147 1.383 . S
C178 C165 1.479 . S
C178 C179 1.398 . S
C179 C144 1.382 . S
C179 H156 0.951 . S
C179 C178 1.398 . S
C180 C181 1.384 . S
C180 H193 0.947 . S
C180 C215 1.382 . S
C181 C180 1.384 . S
C181 C182 1.378 . S
C182 C181 1.378 . S
C182 C183 1.378 . S
C182 H194 0.952 . S
C183 C182 1.378 . S
C183 H195 0.950 . S
C183 C214 1.383 . S
H184 C203 0.947 . S
H185 C204 0.946 . S
H186 C206 0.953 . S
H187 C207 0.945 . S
H188 C209 0.952 . S
H189 C210 0.949 . S
H190 C212 0.950 . S
H191 C213 0.948 . S
H192 C215 0.951 . S
H193 C180 0.947 . S
H194 C182 0.952 . S
H195 C183 0.950 . S
N196 C199 1.382 . S
N196 C201 1.363 . S
N197 C199 1.371 . S
N197 C200 1.372 . S
N198 C200 1.361 . S
N198 C201 1.377 . S
C199 N196 1.382 . S
C199 N197 1.371 . S
C199 C202 1.480 . S
C200 N197 1.372 . S
C200 N198 1.361 . S
C200 C208 1.457 . S
C201 N196 1.363 . S
C201 N198 1.377 . S
C201 C214 1.479 . S
C202 C199 1.480 . S
C202 C203 1.383 . S
C202 C207 1.385 . S
C203 H184 0.947 . S
C203 C202 1.383 . S
C203 C204 1.388 . S
C204 H185 0.946 . S
C204 C203 1.388 . S
C204 C205 1.384 . S
C205 C204 1.384 . S
C205 C206 1.377 . S
C206 H186 0.953 . S
C206 C205 1.377 . S
C206 C207 1.369 . S
C207 H187 0.945 . S
C207 C202 1.385 . S
C207 C206 1.369 . S
C208 C200 1.457 . S
C208 C209 1.372 . S
C208 C213 1.364 . S
C209 H188 0.952 . S
C209 C208 1.372 . S
C209 C210 1.389 . S
C210 H189 0.949 . S
C210 C209 1.389 . S
C210 C211 1.387 . S
C211 C210 1.387 . S
C211 C212 1.372 . S
C212 H190 0.950 . S
C212 C211 1.372 . S
C212 C213 1.379 . S
C213 H191 0.948 . S
C213 C208 1.364 . S
C213 C212 1.379 . S
C214 C183 1.383 . S
C214 C201 1.479 . S
C214 C215 1.398 . S
C215 C180 1.382 . S
C215 H192 0.951 . S
C215 C214 1.398 . S
C216 C217 1.384 . S
C216 H229 0.947 . S
C216 C251 1.382 . S
C217 C216 1.384 . S
C217 C218 1.378 . S
C218 C217 1.378 . S
C218 C219 1.378 . S
C218 H230 0.952 . S
C219 C218 1.378 . S
C219 H231 0.950 . S
C219 C250 1.383 . S
H220 C239 0.947 . S
H221 C240 0.946 . S
H222 C242 0.953 . S
H223 C243 0.945 . S
H224 C245 0.952 . S
H225 C246 0.949 . S
H226 C248 0.934 1_455 S
H227 C249 0.948 . S
H228 C251 0.951 . S
H229 C216 0.947 . S
H230 C218 0.952 . S
H231 C219 0.950 . S
N232 C235 1.382 . S
N232 C237 1.363 . S
N233 C235 1.371 . S
N233 C236 1.372 . S
N234 C236 1.361 . S
N234 C237 1.377 . S
C235 N232 1.382 . S
C235 N233 1.371 . S
C235 C238 1.480 . S
C236 N233 1.372 . S
C236 N234 1.361 . S
C236 C244 1.457 . S
C237 N232 1.363 . S
C237 N234 1.377 . S
C237 C250 1.479 . S
C238 C235 1.480 . S
C238 C239 1.383 . S
C238 C243 1.385 . S
C239 H220 0.947 . S
C239 C238 1.383 . S
C239 C240 1.388 . S
C240 H221 0.946 . S
C240 C239 1.388 . S
C240 C241 1.384 . S
C241 C240 1.384 . S
C241 C242 1.377 . S
C242 H222 0.953 . S
C242 C241 1.377 . S
C242 C243 1.369 . S
C243 H223 0.945 . S
C243 C238 1.385 . S
C243 C242 1.369 . S
C244 C236 1.457 . S
C244 C245 1.372 . S
C244 C249 1.364 . S
C245 H224 0.952 . S
C245 C244 1.372 . S
C245 C246 1.389 . S
C246 H225 0.949 . S
C246 C245 1.389 . S
C246 C247 1.387 . S
C247 C246 1.387 . S
C247 C248 1.372 . S
C248 H226 0.934 1_655 S
C248 C247 1.372 . S
C248 C249 1.379 . S
C249 H227 0.948 . S
C249 C244 1.364 . S
C249 C248 1.379 . S
C250 C219 1.383 . S
C250 C237 1.479 . S
C250 C251 1.398 . S
C251 C216 1.382 . S
C251 H228 0.951 . S
C251 C250 1.398 . S
C252 C253 1.384 . S
C252 H265 0.947 . S
C252 C287 1.382 . S
C253 C252 1.384 . S
C253 C254 1.378 . S
C254 C253 1.378 . S
C254 C255 1.378 . S
C254 H266 0.952 . S
C255 C254 1.378 . S
C255 H267 0.950 . S
C255 C286 1.383 . S
H256 C275 0.947 . S
H257 C276 0.946 . S
H258 C278 0.953 . S
H259 C279 0.945 . S
H260 C281 0.952 . S
H261 C282 0.949 . S
H262 C284 0.950 . S
H263 C285 0.948 . S
H264 C287 0.951 . S
H265 C252 0.947 . S
H266 C254 0.952 . S
H267 C255 0.950 . S
N268 C271 1.382 . S
N268 C273 1.363 . S
N269 C271 1.371 . S
N269 C272 1.372 . S
N270 C272 1.361 . S
N270 C273 1.377 . S
C271 N268 1.382 . S
C271 N269 1.371 . S
C271 C274 1.480 . S
C272 N269 1.372 . S
C272 N270 1.361 . S
C272 C280 1.457 . S
C273 N268 1.363 . S
C273 N270 1.377 . S
C273 C286 1.479 . S
C274 C271 1.480 . S
C274 C275 1.383 . S
C274 C279 1.385 . S
C275 H256 0.947 . S
C275 C274 1.383 . S
C275 C276 1.388 . S
C276 H257 0.946 . S
C276 C275 1.388 . S
C276 C277 1.384 . S
C277 C276 1.384 . S
C277 C278 1.377 . S
C278 H258 0.953 . S
C278 C277 1.377 . S
C278 C279 1.369 . S
C279 H259 0.945 . S
C279 C274 1.385 . S
C279 C278 1.369 . S
C280 C272 1.457 . S
C280 C281 1.372 . S
C280 C285 1.364 . S
C281 H260 0.952 . S
C281 C280 1.372 . S
C281 C282 1.389 . S
C282 H261 0.949 . S
C282 C281 1.389 . S
C282 C283 1.387 . S
C283 C282 1.387 . S
C283 C284 1.372 . S
C284 H262 0.950 . S
C284 C283 1.372 . S
C284 C285 1.379 . S
C285 H263 0.948 . S
C285 C280 1.364 . S
C285 C284 1.379 . S
C286 C255 1.383 . S
C286 C273 1.479 . S
C286 C287 1.398 . S
C287 C252 1.382 . S
C287 H264 0.951 . S
C287 C286 1.398 . S
C288 C289 1.384 . S
C288 H301 0.947 . S
C288 C323 1.382 . S
C289 C288 1.384 . S
C289 C290 1.378 . S
C290 C289 1.378 . S
C290 C291 1.378 . S
C290 H302 0.952 . S
C291 C290 1.378 . S
C291 H303 0.950 . S
C291 C322 1.383 . S
H292 C311 0.947 . S
H293 C312 0.946 . S
H294 C314 0.953 . S
H295 C315 0.945 . S
H296 C317 0.952 . S
H297 C318 0.949 . S
H298 C320 0.950 . S
H299 C321 0.948 . S
H300 C323 0.951 . S
H301 C288 0.947 . S
H302 C290 0.952 . S
H303 C291 0.950 . S
N304 C307 1.382 . S
N304 C309 1.363 . S
N305 C307 1.371 . S
N305 C308 1.372 . S
N306 C308 1.361 . S
N306 C309 1.377 . S
C307 N304 1.382 . S
C307 N305 1.371 . S
C307 C310 1.480 . S
C308 N305 1.372 . S
C308 N306 1.361 . S
C308 C316 1.457 . S
C309 N304 1.363 . S
C309 N306 1.377 . S
C309 C322 1.479 . S
C310 C307 1.480 . S
C310 C311 1.383 . S
C310 C315 1.385 . S
C311 H292 0.947 . S
C311 C310 1.383 . S
C311 C312 1.388 . S
C312 H293 0.946 . S
C312 C311 1.388 . S
C312 C313 1.384 . S
C313 C312 1.384 . S
C313 C314 1.377 . S
C314 H294 0.953 . S
C314 C313 1.377 . S
C314 C315 1.369 . S
C315 H295 0.945 . S
C315 C310 1.385 . S
C315 C314 1.369 . S
C316 C308 1.457 . S
C316 C317 1.372 . S
C316 C321 1.364 . S
C317 H296 0.952 . S
C317 C316 1.372 . S
C317 C318 1.389 . S
C318 H297 0.949 . S
C318 C317 1.389 . S
C318 C319 1.387 . S
C319 C318 1.387 . S
C319 C320 1.372 . S
C320 H298 0.950 . S
C320 C319 1.372 . S
C320 C321 1.379 . S
C321 H299 0.948 . S
C321 C316 1.364 . S
C321 C320 1.379 . S
C322 C291 1.383 . S
C322 C309 1.479 . S
C322 C323 1.398 . S
C323 C288 1.382 . S
C323 H300 0.951 . S
C323 C322 1.398 . S
C324 C325 1.384 . S
C324 H337 0.947 . S
C324 C359 1.382 . S
C325 C324 1.384 . S
C325 C326 1.378 . S
C326 C325 1.378 . S
C326 C327 1.378 . S
C326 H338 0.952 . S
C327 C326 1.378 . S
C327 H339 0.950 . S
C327 C358 1.383 . S
H328 C347 0.947 . S
H329 C348 0.946 . S
H330 C350 0.953 . S
H331 C351 0.945 . S
H332 C353 0.952 . S
H333 C354 0.949 . S
H334 C356 0.950 . S
H335 C357 0.948 . S
H336 C359 0.951 . S
H337 C324 0.947 . S
H338 C326 0.952 . S
H339 C327 0.950 . S
N340 C343 1.382 . S
N340 C345 1.363 . S
N341 C343 1.371 . S
N341 C344 1.372 . S
N342 C344 1.361 . S
N342 C345 1.377 . S
C343 N340 1.382 . S
C343 N341 1.371 . S
C343 C346 1.480 . S
C344 N341 1.372 . S
C344 N342 1.361 . S
C344 C352 1.457 . S
C345 N340 1.363 . S
C345 N342 1.377 . S
C345 C358 1.479 . S
C346 C343 1.480 . S
C346 C347 1.383 . S
C346 C351 1.385 . S
C347 H328 0.947 . S
C347 C346 1.383 . S
C347 C348 1.388 . S
C348 H329 0.946 . S
C348 C347 1.388 . S
C348 C349 1.384 . S
C349 C348 1.384 . S
C349 C350 1.377 . S
C350 H330 0.953 . S
C350 C349 1.377 . S
C350 C351 1.369 . S
C351 H331 0.945 . S
C351 C346 1.385 . S
C351 C350 1.369 . S
C352 C344 1.457 . S
C352 C353 1.372 . S
C352 C357 1.364 . S
C353 H332 0.952 . S
C353 C352 1.372 . S
C353 C354 1.389 . S
C354 H333 0.949 . S
C354 C353 1.389 . S
C354 C355 1.387 . S
C355 C354 1.387 . S
C355 C356 1.372 . S
C356 H334 0.950 . S
C356 C355 1.372 . S
C356 C357 1.379 . S
C357 H335 0.948 . S
C357 C352 1.364 . S
C357 C356 1.379 . S
C358 C327 1.383 . S
C358 C345 1.479 . S
C358 C359 1.398 . S
C359 C324 1.382 . S
C359 H336 0.951 . S
C359 C358 1.398 . S
C360 C361 1.384 . S
C360 H373 0.947 . S
C360 C395 1.382 . S
C361 C360 1.384 . S
C361 C362 1.378 . S
C362 C361 1.378 . S
C362 C363 1.378 . S
C362 H374 0.952 . S
C363 C362 1.378 . S
C363 H375 0.950 . S
C363 C394 1.383 . S
H364 C383 0.947 . S
H365 C384 0.946 . S
H366 C386 0.953 . S
H367 C387 0.945 . S
H368 C389 0.952 . S
H369 C390 0.949 . S
H370 C392 0.950 . S
H371 C393 0.948 . S
H372 C395 0.951 . S
H373 C360 0.947 . S
H374 C362 0.952 . S
H375 C363 0.950 . S
N376 C379 1.382 . S
N376 C381 1.363 . S
N377 C379 1.371 . S
N377 C380 1.372 . S
N378 C380 1.361 . S
N378 C381 1.377 . S
C379 N376 1.382 . S
C379 N377 1.371 . S
C379 C382 1.480 . S
C380 N377 1.372 . S
C380 N378 1.361 . S
C380 C388 1.457 . S
C381 N376 1.363 . S
C381 N378 1.377 . S
C381 C394 1.479 . S
C382 C379 1.480 . S
C382 C383 1.383 . S
C382 C387 1.385 . S
C383 H364 0.947 . S
C383 C382 1.383 . S
C383 C384 1.388 . S
C384 H365 0.946 . S
C384 C383 1.388 . S
C384 C385 1.384 . S
C385 C384 1.384 . S
C385 C386 1.377 . S
C386 H366 0.953 . S
C386 C385 1.377 . S
C386 C387 1.369 . S
C387 H367 0.945 . S
C387 C382 1.385 . S
C387 C386 1.369 . S
C388 C380 1.457 . S
C388 C389 1.372 . S
C388 C393 1.364 . S
C389 H368 0.952 . S
C389 C388 1.372 . S
C389 C390 1.389 . S
C390 H369 0.949 . S
C390 C389 1.389 . S
C390 C391 1.387 . S
C391 C390 1.387 . S
C391 C392 1.372 . S
C392 H370 0.950 . S
C392 C391 1.372 . S
C392 C393 1.379 . S
C393 H371 0.948 . S
C393 C388 1.364 . S
C393 C392 1.379 . S
C394 C363 1.383 . S
C394 C381 1.479 . S
C394 C395 1.398 . S
C395 C360 1.382 . S
C395 H372 0.951 . S
C395 C394 1.398 . S
C396 C397 1.384 . S
C396 H409 0.947 . S
C396 C431 1.382 . S
C397 C396 1.384 . S
C397 C398 1.378 . S
C398 C397 1.378 . S
C398 C399 1.378 . S
C398 H410 0.952 . S
C399 C398 1.378 . S
C399 H411 0.950 . S
C399 C430 1.383 . S
H400 C419 0.947 . S
H401 C420 0.946 . S
H402 C422 0.953 . S
H403 C423 0.945 . S
H404 C425 0.952 . S
H405 C426 0.949 . S
H406 C428 0.950 . S
H407 C429 0.948 . S
H408 C431 0.951 . S
H409 C396 0.947 . S
H410 C398 0.952 . S
H411 C399 0.950 . S
N412 C415 1.382 . S
N412 C417 1.363 . S
N413 C415 1.371 . S
N413 C416 1.372 . S
N414 C416 1.361 . S
N414 C417 1.377 . S
C415 N412 1.382 . S
C415 N413 1.371 . S
C415 C418 1.480 . S
C416 N413 1.372 . S
C416 N414 1.361 . S
C416 C424 1.457 . S
C417 N412 1.363 . S
C417 N414 1.377 . S
C417 C430 1.479 . S
C418 C415 1.480 . S
C418 C419 1.383 . S
C418 C423 1.385 . S
C419 H400 0.947 . S
C419 C418 1.383 . S
C419 C420 1.388 . S
C420 H401 0.946 . S
C420 C419 1.388 . S
C420 C421 1.384 . S
C421 C420 1.384 . S
C421 C422 1.377 . S
C422 H402 0.953 . S
C422 C421 1.377 . S
C422 C423 1.369 . S
C423 H403 0.945 . S
C423 C418 1.385 . S
C423 C422 1.369 . S
C424 C416 1.457 . S
C424 C425 1.372 . S
C424 C429 1.364 . S
C425 H404 0.952 . S
C425 C424 1.372 . S
C425 C426 1.389 . S
C426 H405 0.949 . S
C426 C425 1.389 . S
C426 C427 1.387 . S
C427 C426 1.387 . S
C427 C428 1.372 . S
C428 H406 0.950 . S
C428 C427 1.372 . S
C428 C429 1.379 . S
C429 H407 0.948 . S
C429 C424 1.364 . S
C429 C428 1.379 . S
C430 C399 1.383 . S
C430 C417 1.479 . S
C430 C431 1.398 . S
C431 C396 1.382 . S
C431 H408 0.951 . S
C431 C430 1.398 . S
C432 C433 1.384 . S
C432 H445 0.947 . S
C432 C467 1.382 . S
C433 C432 1.384 . S
C433 C434 1.378 . S
C434 C433 1.378 . S
C434 C435 1.378 . S
C434 H446 0.952 . S
C435 C434 1.378 . S
C435 H447 0.950 . S
C435 C466 1.383 . S
H436 C455 0.947 . S
H437 C456 0.946 . S
H438 C458 0.953 . S
H439 C459 0.945 . S
H440 C461 0.952 . S
H441 C462 0.949 . S
H442 C464 0.950 . S
H443 C465 0.948 . S
H444 C467 0.951 . S
H445 C432 0.947 . S
H446 C434 0.952 . S
H447 C435 0.950 . S
N448 C451 1.382 . S
N448 C453 1.363 . S
N449 C451 1.371 . S
N449 C452 1.372 . S
N450 C452 1.361 . S
N450 C453 1.377 . S
C451 N448 1.382 . S
C451 N449 1.371 . S
C451 C454 1.480 . S
C452 N449 1.372 . S
C452 N450 1.361 . S
C452 C460 1.457 . S
C453 N448 1.363 . S
C453 N450 1.377 . S
C453 C466 1.479 . S
C454 C451 1.480 . S
C454 C455 1.383 . S
C454 C459 1.385 . S
C455 H436 0.947 . S
C455 C454 1.383 . S
C455 C456 1.388 . S
C456 H437 0.946 . S
C456 C455 1.388 . S
C456 C457 1.384 . S
C457 C456 1.384 . S
C457 C458 1.377 . S
C458 H438 0.953 . S
C458 C457 1.377 . S
C458 C459 1.369 . S
C459 H439 0.945 . S
C459 C454 1.385 . S
C459 C458 1.369 . S
C460 C452 1.457 . S
C460 C461 1.372 . S
C460 C465 1.364 . S
C461 H440 0.952 . S
C461 C460 1.372 . S
C461 C462 1.389 . S
C462 H441 0.949 . S
C462 C461 1.389 . S
C462 C463 1.387 . S
C463 C462 1.387 . S
C463 C464 1.372 . S
C464 H442 0.950 . S
C464 C463 1.372 . S
C464 C465 1.379 . S
C465 H443 0.948 . S
C465 C460 1.364 . S
C465 C464 1.379 . S
C466 C435 1.383 . S
C466 C453 1.479 . S
C466 C467 1.398 . S
C467 C432 1.382 . S
C467 H444 0.951 . S
C467 C466 1.398 . S
C468 C469 1.384 . S
C468 H481 0.947 . S
C468 C503 1.382 . S
C469 C468 1.384 . S
C469 C470 1.378 . S
C470 C469 1.378 . S
C470 C471 1.378 . S
C470 H482 0.952 . S
C471 C470 1.378 . S
C471 H483 0.950 . S
C471 C502 1.383 . S
H472 C491 0.947 . S
H473 C492 0.946 . S
H474 C494 0.953 . S
H475 C495 0.945 . S
H476 C497 0.952 . S
H477 C498 0.949 . S
H478 C500 0.950 . S
H479 C501 0.948 . S
H480 C503 0.951 . S
H481 C468 0.947 . S
H482 C470 0.952 . S
H483 C471 0.950 . S
N484 C487 1.382 . S
N484 C489 1.363 . S
N485 C487 1.371 . S
N485 C488 1.372 . S
N486 C488 1.361 . S
N486 C489 1.377 . S
C487 N484 1.382 . S
C487 N485 1.371 . S
C487 C490 1.480 . S
C488 N485 1.372 . S
C488 N486 1.361 . S
C488 C496 1.457 . S
C489 N484 1.363 . S
C489 N486 1.377 . S
C489 C502 1.479 . S
C490 C487 1.480 . S
C490 C491 1.383 . S
C490 C495 1.385 . S
C491 H472 0.947 . S
C491 C490 1.383 . S
C491 C492 1.388 . S
C492 H473 0.946 . S
C492 C491 1.388 . S
C492 C493 1.384 . S
C493 C492 1.384 . S
C493 C494 1.377 . S
C494 H474 0.953 . S
C494 C493 1.377 . S
C494 C495 1.369 . S
C495 H475 0.945 . S
C495 C490 1.385 . S
C495 C494 1.369 . S
C496 C488 1.457 . S
C496 C497 1.372 . S
C496 C501 1.364 . S
C497 H476 0.952 . S
C497 C496 1.372 . S
C497 C498 1.389 . S
C498 H477 0.949 . S
C498 C497 1.389 . S
C498 C499 1.387 . S
C499 C498 1.387 . S
C499 C500 1.372 . S
C500 H478 0.950 . S
C500 C499 1.372 . S
C500 C501 1.379 . S
C501 H479 0.948 . S
C501 C496 1.364 . S
C501 C500 1.379 . S
C502 C471 1.383 . S
C502 C489 1.479 . S
C502 C503 1.398 . S
C503 C468 1.382 . S
C503 H480 0.951 . S
C503 C502 1.398 . S
C504 C505 1.384 . S
C504 H517 0.947 . S
C504 C539 1.382 . S
C505 C504 1.384 . S
C505 C506 1.378 . S
C506 C505 1.378 . S
C506 C507 1.378 . S
C506 H518 0.952 . S
C507 C506 1.378 . S
C507 H519 0.950 . S
C507 C538 1.383 . S
H508 C527 0.947 . S
H509 C528 0.946 . S
H510 C530 0.953 . S
H511 C531 0.945 . S
H512 C533 0.952 . S
H513 C534 0.949 . S
H514 C536 0.950 . S
H515 C537 0.948 . S
H516 C539 0.951 . S
H517 C504 0.947 . S
H518 C506 0.952 . S
H519 C507 0.950 . S
N520 C523 1.382 . S
N520 C525 1.363 . S
N521 C523 1.371 . S
N521 C524 1.372 . S
N522 C524 1.361 . S
N522 C525 1.377 . S
C523 N520 1.382 . S
C523 N521 1.371 . S
C523 C526 1.480 . S
C524 N521 1.372 . S
C524 N522 1.361 . S
C524 C532 1.457 . S
C525 N520 1.363 . S
C525 N522 1.377 . S
C525 C538 1.479 . S
C526 C523 1.480 . S
C526 C527 1.383 . S
C526 C531 1.385 . S
C527 H508 0.947 . S
C527 C526 1.383 . S
C527 C528 1.388 . S
C528 H509 0.946 . S
C528 C527 1.388 . S
C528 C529 1.384 . S
C529 C528 1.384 . S
C529 C530 1.377 . S
C530 H510 0.953 . S
C530 C529 1.377 . S
C530 C531 1.369 . S
C531 H511 0.945 . S
C531 C526 1.385 . S
C531 C530 1.369 . S
C532 C524 1.457 . S
C532 C533 1.372 . S
C532 C537 1.364 . S
C533 H512 0.952 . S
C533 C532 1.372 . S
C533 C534 1.389 . S
C534 H513 0.949 . S
C534 C533 1.389 . S
C534 C535 1.387 . S
C535 C534 1.387 . S
C535 C536 1.372 . S
C536 H514 0.950 . S
C536 C535 1.372 . S
C536 C537 1.379 . S
C537 H515 0.948 . S
C537 C532 1.364 . S
C537 C536 1.379 . S
C538 C507 1.383 . S
C538 C525 1.479 . S
C538 C539 1.398 . S
C539 C504 1.382 . S
C539 H516 0.951 . S
C539 C538 1.398 . S
C540 C541 1.384 . S
C540 H553 0.947 . S
C540 C575 1.382 . S
C541 C540 1.384 . S
C541 C542 1.378 . S
C542 C541 1.378 . S
C542 C543 1.378 . S
C542 H554 0.952 . S
C543 C542 1.378 . S
C543 H555 0.950 . S
C543 C574 1.383 . S
H544 C563 0.947 . S
H545 C564 0.946 . S
H546 C566 0.953 . S
H547 C567 0.945 . S
H548 C569 0.952 . S
H549 C570 0.949 . S
H550 C572 0.950 . S
H551 C573 0.948 . S
H552 C575 0.951 . S
H553 C540 0.947 . S
H554 C542 0.952 . S
H555 C543 0.950 . S
N556 C559 1.382 . S
N556 C561 1.363 . S
N557 C559 1.371 . S
N557 C560 1.372 . S
N558 C560 1.361 . S
N558 C561 1.377 . S
C559 N556 1.382 . S
C559 N557 1.371 . S
C559 C562 1.480 . S
C560 N557 1.372 . S
C560 N558 1.361 . S
C560 C568 1.457 . S
C561 N556 1.363 . S
C561 N558 1.377 . S
C561 C574 1.479 . S
C562 C559 1.480 . S
C562 C563 1.383 . S
C562 C567 1.385 . S
C563 H544 0.947 . S
C563 C562 1.383 . S
C563 C564 1.388 . S
C564 H545 0.946 . S
C564 C563 1.388 . S
C564 C565 1.384 . S
C565 C564 1.384 . S
C565 C566 1.377 . S
C566 H546 0.953 . S
C566 C565 1.377 . S
C566 C567 1.369 . S
C567 H547 0.945 . S
C567 C562 1.385 . S
C567 C566 1.369 . S
C568 C560 1.457 . S
C568 C569 1.372 . S
C568 C573 1.364 . S
C569 H548 0.952 . S
C569 C568 1.372 . S
C569 C570 1.389 . S
C570 H549 0.949 . S
C570 C569 1.389 . S
C570 C571 1.387 . S
C571 C570 1.387 . S
C571 C572 1.372 . S
C572 H550 0.950 . S
C572 C571 1.372 . S
C572 C573 1.379 . S
C573 H551 0.948 . S
C573 C568 1.364 . S
C573 C572 1.379 . S
C574 C543 1.383 . S
C574 C561 1.479 . S
C574 C575 1.398 . S
C575 C540 1.382 . S
C575 H552 0.951 . S
C575 C574 1.398 . S
C576 C577 1.384 . S
C576 H589 0.947 . S
C576 C611 1.382 . S
C577 C576 1.384 . S
C577 C578 1.378 . S
C578 C577 1.378 . S
C578 C579 1.378 . S
C578 H590 0.952 . S
C579 C578 1.378 . S
C579 H591 0.950 . S
C579 C610 1.383 . S
H580 C599 0.947 . S
H581 C600 0.946 . S
H582 C602 0.953 . S
H583 C603 0.945 . S
H584 C605 0.952 . S
H585 C606 0.949 . S
H586 C608 0.950 1_655 S
H587 C609 0.948 . S
H588 C611 0.951 . S
H589 C576 0.947 . S
H590 C578 0.952 . S
H591 C579 0.950 . S
N592 C595 1.382 . S
N592 C597 1.363 . S
N593 C595 1.371 . S
N593 C596 1.372 . S
N594 C596 1.361 . S
N594 C597 1.377 . S
C595 N592 1.382 . S
C595 N593 1.371 . S
C595 C598 1.480 . S
C596 N593 1.372 . S
C596 N594 1.361 . S
C596 C604 1.457 . S
C597 N592 1.363 . S
C597 N594 1.377 . S
C597 C610 1.479 . S
C598 C595 1.480 . S
C598 C599 1.383 . S
C598 C603 1.385 . S
C599 H580 0.947 . S
C599 C598 1.383 . S
C599 C600 1.388 . S
C600 H581 0.946 . S
C600 C599 1.388 . S
C600 C601 1.384 . S
C601 C600 1.384 . S
C601 C602 1.377 . S
C602 H582 0.953 . S
C602 C601 1.377 . S
C602 C603 1.369 . S
C603 H583 0.945 . S
C603 C598 1.385 . S
C603 C602 1.369 . S
C604 C596 1.457 . S
C604 C605 1.372 . S
C604 C609 1.364 . S
C605 H584 0.952 . S
C605 C604 1.372 . S
C605 C606 1.389 . S
C606 H585 0.949 . S
C606 C605 1.389 . S
C606 C607 1.387 . S
C607 C606 1.387 . S
C607 C608 1.372 . S
C608 H586 0.950 1_455 S
C608 C607 1.372 . S
C608 C609 1.379 . S
C609 H587 0.948 . S
C609 C604 1.364 . S
C609 C608 1.379 . S
C610 C579 1.383 . S
C610 C597 1.479 . S
C610 C611 1.398 . S
C611 C576 1.382 . S
C611 H588 0.951 . S
C611 C610 1.398 . S
C612 C613 1.384 . S
C612 H625 0.947 . S
C612 C647 1.382 . S
C613 C612 1.384 . S
C613 C614 1.378 . S
C614 C613 1.378 . S
C614 C615 1.378 . S
C614 H626 0.952 . S
C615 C614 1.378 . S
C615 H627 0.950 . S
C615 C646 1.383 . S
H616 C635 0.947 . S
H617 C636 0.946 . S
H618 C638 0.953 . S
H619 C639 0.945 . S
H620 C641 0.952 . S
H621 C642 0.949 . S
H622 C644 0.950 . S
H623 C645 0.948 . S
H624 C647 0.951 . S
H625 C612 0.947 . S
H626 C614 0.952 . S
H627 C615 0.950 . S
N628 C631 1.382 . S
N628 C633 1.363 . S
N629 C631 1.371 . S
N629 C632 1.372 . S
N630 C632 1.361 . S
N630 C633 1.377 . S
C631 N628 1.382 . S
C631 N629 1.371 . S
C631 C634 1.480 . S
C632 N629 1.372 . S
C632 N630 1.361 . S
C632 C640 1.457 . S
C633 N628 1.363 . S
C633 N630 1.377 . S
C633 C646 1.479 . S
C634 C631 1.480 . S
C634 C635 1.383 . S
C634 C639 1.385 . S
C635 H616 0.947 . S
C635 C634 1.383 . S
C635 C636 1.388 . S
C636 H617 0.946 . S
C636 C635 1.388 . S
C636 C637 1.384 . S
C637 C636 1.384 . S
C637 C638 1.377 . S
C638 H618 0.953 . S
C638 C637 1.377 . S
C638 C639 1.369 . S
C639 H619 0.945 . S
C639 C634 1.385 . S
C639 C638 1.369 . S
C640 C632 1.457 . S
C640 C641 1.372 . S
C640 C645 1.364 . S
C641 H620 0.952 . S
C641 C640 1.372 . S
C641 C642 1.389 . S
C642 H621 0.949 . S
C642 C641 1.389 . S
C642 C643 1.387 . S
C643 C642 1.387 . S
C643 C644 1.372 . S
C644 H622 0.950 . S
C644 C643 1.372 . S
C644 C645 1.379 . S
C645 H623 0.948 . S
C645 C640 1.364 . S
C645 C644 1.379 . S
C646 C615 1.383 . S
C646 C633 1.479 . S
C646 C647 1.398 . S
C647 C612 1.382 . S
C647 H624 0.951 . S
C647 C646 1.398 . S
Eu648 C657 2.828 . S
Eu648 O659 2.392 1_556 S
Eu648 O661 2.418 . S
Eu648 O666 2.373 1_565 S
Eu648 O669 2.488 . S
Eu648 O670 2.452 1_565 S
Eu648 O671 2.349 1_565 S
Eu649 O658 2.373 1_545 S
Eu649 O662 2.488 . S
Eu649 O663 2.461 1_545 S
Eu649 O664 2.349 1_545 S
Eu649 O667 2.392 . S
Eu649 O668 2.418 . S
Eu649 C678 2.828 . S
C650 O668 1.199 1_556 S
C650 O671 1.283 . S
C651 C652 1.379 1_565 S
C651 C655 1.373 . S
C651 C657 1.505 . S
C652 C651 1.379 1_545 S
C652 C654 1.369 . S
C652 H680 0.930 . S
C653 C655 1.383 . S
C653 C656 1.382 1_565 S
C653 H681 0.930 . S
C654 C652 1.369 . S
C654 C656 1.392 . S
C654 H682 0.930 . S
C655 C651 1.373 . S
C655 C653 1.383 . S
C655 H683 0.931 . S
C656 C653 1.382 1_545 S
C656 C654 1.392 . S
C657 Eu648 2.828 . S
C657 C651 1.505 . S
C657 O669 1.249 . S
C657 O670 1.215 1_565 S
O658 Eu649 2.373 1_565 S
O658 C660 1.258 . S
O659 Eu648 2.392 1_554 S
O659 C660 1.242 . S
C660 O658 1.258 . S
C660 O659 1.242 . S
O661 Eu648 2.418 . S
O661 C665 1.244 1_556 S
O662 Eu649 2.488 . S
O662 C678 1.249 . S
O663 Eu649 2.461 1_565 S
O663 C678 1.229 1_565 S
O664 Eu649 2.349 1_565 S
O664 C665 1.265 . S
C665 O661 1.244 1_554 S
C665 O664 1.265 . S
O666 Eu648 2.373 1_545 S
O666 C679 1.258 . S
O667 Eu649 2.392 . S
O667 C679 1.242 1_554 S
O668 Eu649 2.418 . S
O668 C650 1.199 1_554 S
O669 Eu648 2.488 . S
O669 C657 1.249 . S
O670 Eu648 2.452 1_545 S
O670 C657 1.215 1_545 S
O671 Eu648 2.349 1_545 S
O671 C650 1.283 . S
C672 C673 1.379 1_545 S
C672 C676 1.373 . S
C672 C678 1.505 . S
C673 C672 1.379 1_565 S
C673 C675 1.369 . S
C673 H684 0.930 . S
C674 C676 1.383 . S
C674 C677 1.382 1_545 S
C674 H685 0.930 . S
C675 C673 1.369 . S
C675 C677 1.392 . S
C675 H686 0.930 . S
C676 C672 1.373 . S
C676 C674 1.383 . S
C676 H687 0.931 . S
C677 C674 1.382 1_565 S
C677 C675 1.392 . S
C678 Eu649 2.828 . S
C678 O662 1.249 . S
C678 O663 1.229 1_545 S
C678 C672 1.505 . S
C679 O666 1.258 . S
C679 O667 1.242 1_556 S
H680 C652 0.930 . S
H681 C653 0.930 . S
H682 C654 0.930 . S
H683 C655 0.931 . S
H684 C673 0.930 . S
H685 C674 0.930 . S
H686 C675 0.930 . S
H687 C676 0.931 . S
Eu688 C697 2.828 . S
Eu688 O699 2.392 1_556 S
Eu688 O701 2.418 . S
Eu688 O706 2.373 1_455 S
Eu688 O709 2.488 . S
Eu688 O710 2.471 1_455 S
Eu688 O711 2.349 1_455 S
Eu689 O698 2.373 1_655 S
Eu689 O702 2.488 . S
Eu689 O703 2.471 1_655 S
Eu689 O704 2.349 1_655 S
Eu689 O707 2.395 1_554 S
Eu689 O708 2.418 . S
Eu689 C718 2.828 . S
C690 O708 1.244 1_556 S
C690 O711 1.265 . S
C691 C692 1.379 1_455 S
C691 C695 1.373 . S
C691 C697 1.505 . S
C692 C691 1.379 1_655 S
C692 C694 1.369 . S
C692 H720 0.930 . S
C693 C695 1.383 . S
C693 C696 1.382 1_455 S
C693 H721 0.930 . S
C694 C692 1.369 . S
C694 C696 1.392 . S
C694 H722 0.930 . S
C695 C691 1.373 . S
C695 C693 1.383 . S
C695 H723 0.931 . S
C696 C693 1.382 1_655 S
C696 C694 1.392 . S
C697 Eu688 2.828 . S
C697 C691 1.505 . S
C697 O709 1.249 . S
C697 O710 1.244 1_455 S
O698 Eu689 2.373 1_455 S
O698 C700 1.258 . S
O699 Eu688 2.392 1_554 S
O699 C700 1.242 . S
C700 O698 1.258 . S
C700 O699 1.242 . S
O701 Eu688 2.418 . S
O701 C705 1.244 1_556 S
O702 Eu689 2.488 . S
O702 C718 1.249 . S
O703 Eu689 2.471 1_455 S
O703 C718 1.244 1_455 S
O704 Eu689 2.349 1_455 S
O704 C705 1.265 . S
C705 O701 1.244 1_554 S
C705 O704 1.265 . S
O706 Eu688 2.373 1_655 S
O706 C719 1.258 . S
O707 Eu689 2.395 1_556 S
O707 C719 1.238 . S
O708 Eu689 2.418 . S
O708 C690 1.244 1_554 S
O709 Eu688 2.488 . S
O709 C697 1.249 . S
O710 Eu688 2.471 1_655 S
O710 C697 1.244 1_655 S
O711 Eu688 2.349 1_655 S
O711 C690 1.265 . S
C712 C713 1.379 1_655 S
C712 C716 1.373 . S
C712 C718 1.505 . S
C713 C712 1.379 1_455 S
C713 C715 1.369 . S
C713 H724 0.930 . S
C714 C716 1.383 . S
C714 C717 1.382 1_655 S
C714 H725 0.930 . S
C715 C713 1.369 . S
C715 C717 1.392 . S
C715 H726 0.930 . S
C716 C712 1.373 . S
C716 C714 1.383 . S
C716 H727 0.931 . S
C717 C714 1.382 1_455 S
C717 C715 1.392 . S
C718 Eu689 2.828 . S
C718 O702 1.249 . S
C718 O703 1.244 1_655 S
C718 C712 1.505 . S
C719 O706 1.258 . S
C719 O707 1.238 . S
H720 C692 0.930 . S
H721 C693 0.930 . S
H722 C694 0.930 . S
H723 C695 0.931 . S
H724 C713 0.930 . S
H725 C714 0.930 . S
H726 C715 0.930 . S
H727 C716 0.931 . S
Eu728 C737 2.828 . S
Eu728 O739 2.392 . S
Eu728 O741 2.418 . S
Eu728 O746 2.373 . S
Eu728 O749 2.488 . S
Eu728 O750 2.471 . S
Eu728 O751 2.349 . S
Eu729 O738 2.373 . S
Eu729 O742 2.488 . S
Eu729 O743 2.471 . S
Eu729 O744 2.349 . S
Eu729 O747 2.392 1_556 S
Eu729 O748 2.418 . S
Eu729 C758 2.828 . S
C730 O748 1.244 1_554 S
C730 O751 1.265 . S
C731 C732 1.379 . S
C731 C735 1.373 . S
C731 C737 1.505 . S
C732 C731 1.379 . S
C732 C734 1.369 . S
C732 H760 0.930 . S
C733 C735 1.383 . S
C733 C736 1.382 . S
C733 H761 0.930 . S
C734 C732 1.369 . S
C734 C736 1.392 . S
C734 H762 0.930 . S
C735 C731 1.373 . S
C735 C733 1.383 . S
C735 H763 0.931 . S
C736 C733 1.382 . S
C736 C734 1.392 . S
C737 Eu728 2.828 . S
C737 C731 1.505 . S
C737 O749 1.249 . S
C737 O750 1.244 . S
O738 Eu729 2.373 . S
O738 C740 1.258 . S
O739 Eu728 2.392 . S
O739 C740 1.242 1_554 S
C740 O738 1.258 . S
C740 O739 1.242 1_556 S
O741 Eu728 2.418 . S
O741 C745 1.244 1_554 S
O742 Eu729 2.488 . S
O742 C758 1.249 . S
O743 Eu729 2.471 . S
O743 C758 1.244 . S
O744 Eu729 2.349 . S
O744 C745 1.265 . S
C745 O741 1.244 1_556 S
C745 O744 1.265 . S
O746 Eu728 2.373 . S
O746 C759 1.258 . S
O747 Eu729 2.392 1_554 S
O747 C759 1.242 . S
O748 Eu729 2.418 . S
O748 C730 1.244 1_556 S
O749 Eu728 2.488 . S
O749 C737 1.249 . S
O750 Eu728 2.471 . S
O750 C737 1.244 . S
O751 Eu728 2.349 . S
O751 C730 1.265 . S
C752 C753 1.379 . S
C752 C756 1.373 . S
C752 C758 1.505 . S
C753 C752 1.379 . S
C753 C755 1.369 . S
C753 H764 0.930 . S
C754 C756 1.383 . S
C754 C757 1.382 . S
C754 H765 0.930 . S
C755 C753 1.369 . S
C755 C757 1.392 . S
C755 H766 0.930 . S
C756 C752 1.373 . S
C756 C754 1.383 . S
C756 H767 0.931 . S
C757 C754 1.382 . S
C757 C755 1.392 . S
C758 Eu729 2.828 . S
C758 O742 1.249 . S
C758 O743 1.244 . S
C758 C752 1.505 . S
C759 O746 1.258 . S
C759 O747 1.242 . S
H760 C732 0.930 . S
H761 C733 0.930 . S
H762 C734 0.930 . S
H763 C735 0.931 . S
H764 C753 0.930 . S
H765 C754 0.930 . S
H766 C755 0.930 . S
H767 C756 0.931 . S
Eu768 C777 2.828 . S
Eu768 O779 2.392 . S
Eu768 O781 2.418 . S
Eu768 O786 2.373 . S
Eu768 O789 2.488 . S
Eu768 O790 2.471 . S
Eu768 O791 2.349 . S
Eu769 O778 2.373 . S
Eu769 O782 2.488 . S
Eu769 O783 2.471 . S
Eu769 O784 2.349 . S
Eu769 O787 2.392 . S
Eu769 O788 2.418 . S
Eu769 C798 2.828 . S
C770 O788 1.244 . S
C770 O791 1.265 . S
C771 C772 1.379 . S
C771 C775 1.373 . S
C771 C777 1.505 . S
C772 C771 1.379 . S
C772 C774 1.369 . S
C772 H800 0.930 . S
C773 C775 1.383 . S
C773 C776 1.382 . S
C773 H801 0.930 . S
C774 C772 1.369 . S
C774 C776 1.392 . S
C774 H802 0.930 . S
C775 C771 1.373 . S
C775 C773 1.383 . S
C775 H803 0.931 . S
C776 C773 1.382 . S
C776 C774 1.392 . S
C777 Eu768 2.828 . S
C777 C771 1.505 . S
C777 O789 1.249 . S
C777 O790 1.244 . S
O778 Eu769 2.373 . S
O778 C780 1.258 . S
O779 Eu768 2.392 . S
O779 C780 1.242 . S
C780 O778 1.258 . S
C780 O779 1.242 . S
O781 Eu768 2.418 . S
O781 C785 1.244 . S
O782 Eu769 2.488 . S
O782 C798 1.249 . S
O783 Eu769 2.471 . S
O783 C798 1.244 . S
O784 Eu769 2.349 . S
O784 C785 1.265 . S
C785 O781 1.244 . S
C785 O784 1.265 . S
O786 Eu768 2.373 . S
O786 C799 1.258 . S
O787 Eu769 2.392 . S
O787 C799 1.242 . S
O788 Eu769 2.418 . S
O788 C770 1.244 . S
O789 Eu768 2.488 . S
O789 C777 1.249 . S
O790 Eu768 2.471 . S
O790 C777 1.244 . S
O791 Eu768 2.349 . S
O791 C770 1.265 . S
C792 C793 1.379 . S
C792 C796 1.373 . S
C792 C798 1.505 . S
C793 C792 1.379 . S
C793 C795 1.369 . S
C793 H804 0.930 . S
C794 C796 1.383 . S
C794 C797 1.382 . S
C794 H805 0.930 . S
C795 C793 1.369 . S
C795 C797 1.392 . S
C795 H806 0.930 . S
C796 C792 1.373 . S
C796 C794 1.383 . S
C796 H807 0.931 . S
C797 C794 1.382 . S
C797 C795 1.392 . S
C798 Eu769 2.828 . S
C798 O782 1.249 . S
C798 O783 1.244 . S
C798 C792 1.505 . S
C799 O786 1.258 . S
C799 O787 1.242 . S
H800 C772 0.930 . S
H801 C773 0.930 . S
H802 C774 0.930 . S
H803 C775 0.931 . S
H804 C793 0.930 . S
H805 C794 0.930 . S
H806 C795 0.930 . S
H807 C796 0.931 . S
Eu808 C817 2.828 . S
Eu808 O819 2.392 . S
Eu808 O821 2.418 . S
Eu808 O826 2.373 . S
Eu808 O829 2.488 . S
Eu808 O830 2.471 . S
Eu808 O831 2.349 . S
Eu809 O818 2.373 . S
Eu809 O822 2.488 . S
Eu809 O823 2.471 . S
Eu809 O824 2.349 . S
Eu809 O827 2.392 . S
Eu809 O828 2.418 . S
Eu809 C838 2.828 . S
C810 O828 1.244 . S
C810 O831 1.265 . S
C811 C812 1.379 . S
C811 C815 1.373 . S
C811 C817 1.505 . S
C812 C811 1.379 . S
C812 C814 1.369 . S
C812 H840 0.930 . S
C813 C815 1.383 . S
C813 C816 1.382 . S
C813 H841 0.930 . S
C814 C812 1.369 . S
C814 C816 1.392 . S
C814 H842 0.930 . S
C815 C811 1.373 . S
C815 C813 1.383 . S
C815 H843 0.931 . S
C816 C813 1.382 . S
C816 C814 1.392 . S
C817 Eu808 2.828 . S
C817 C811 1.505 . S
C817 O829 1.249 . S
C817 O830 1.244 . S
O818 Eu809 2.373 . S
O818 C820 1.258 . S
O819 Eu808 2.392 . S
O819 C820 1.242 . S
C820 O818 1.258 . S
C820 O819 1.242 . S
O821 Eu808 2.418 . S
O821 C825 1.244 . S
O822 Eu809 2.488 . S
O822 C838 1.249 . S
O823 Eu809 2.471 . S
O823 C838 1.244 . S
O824 Eu809 2.349 . S
O824 C825 1.265 . S
C825 O821 1.244 . S
C825 O824 1.265 . S
O826 Eu808 2.373 . S
O826 C839 1.258 . S
O827 Eu809 2.392 . S
O827 C839 1.242 . S
O828 Eu809 2.418 . S
O828 C810 1.244 . S
O829 Eu808 2.488 . S
O829 C817 1.249 . S
O830 Eu808 2.471 . S
O830 C817 1.244 . S
O831 Eu808 2.349 . S
O831 C810 1.265 . S
C832 C833 1.379 . S
C832 C836 1.373 . S
C832 C838 1.505 . S
C833 C832 1.379 . S
C833 C835 1.369 . S
C833 H844 0.930 . S
C834 C836 1.383 . S
C834 C837 1.382 . S
C834 H845 0.930 . S
C835 C833 1.369 . S
C835 C837 1.392 . S
C835 H846 0.930 . S
C836 C832 1.373 . S
C836 C834 1.383 . S
C836 H847 0.931 . S
C837 C834 1.382 . S
C837 C835 1.392 . S
C838 Eu809 2.828 . S
C838 O822 1.249 . S
C838 O823 1.244 . S
C838 C832 1.505 . S
C839 O826 1.258 . S
C839 O827 1.242 . S
H840 C812 0.930 . S
H841 C813 0.930 . S
H842 C814 0.930 . S
H843 C815 0.931 . S
H844 C833 0.930 . S
H845 C834 0.930 . S
H846 C835 0.930 . S
H847 C836 0.931 . S
Eu848 C857 2.828 . S
Eu848 O859 2.392 . S
Eu848 O861 2.418 . S
Eu848 O866 2.373 . S
Eu848 O869 2.488 . S
Eu848 O870 2.471 . S
Eu848 O871 2.349 . S
Eu849 O858 2.373 . S
Eu849 O862 2.488 . S
Eu849 O863 2.471 . S
Eu849 O864 2.349 . S
Eu849 O867 2.392 . S
Eu849 O868 2.418 . S
Eu849 C878 2.828 . S
C850 O868 1.244 . S
C850 O871 1.265 . S
C851 C852 1.379 . S
C851 C855 1.373 . S
C851 C857 1.505 . S
C852 C851 1.379 . S
C852 C854 1.369 . S
C852 H880 0.930 . S
C853 C855 1.383 . S
C853 C856 1.382 . S
C853 H881 0.930 . S
C854 C852 1.369 . S
C854 C856 1.392 . S
C854 H882 0.930 . S
C855 C851 1.373 . S
C855 C853 1.383 . S
C855 H883 0.931 . S
C856 C853 1.382 . S
C856 C854 1.392 . S
C857 Eu848 2.828 . S
C857 C851 1.505 . S
C857 O869 1.249 . S
C857 O870 1.244 . S
O858 Eu849 2.373 . S
O858 C860 1.258 . S
O859 Eu848 2.392 . S
O859 C860 1.242 . S
C860 O858 1.258 . S
C860 O859 1.242 . S
O861 Eu848 2.418 . S
O861 C865 1.244 . S
O862 Eu849 2.488 . S
O862 C878 1.249 . S
O863 Eu849 2.471 . S
O863 C878 1.244 . S
O864 Eu849 2.349 . S
O864 C865 1.265 . S
C865 O861 1.244 . S
C865 O864 1.265 . S
O866 Eu848 2.373 . S
O866 C879 1.258 . S
O867 Eu849 2.392 . S
O867 C879 1.242 . S
O868 Eu849 2.418 . S
O868 C850 1.244 . S
O869 Eu848 2.488 . S
O869 C857 1.249 . S
O870 Eu848 2.471 . S
O870 C857 1.244 . S
O871 Eu848 2.349 . S
O871 C850 1.265 . S
C872 C873 1.379 . S
C872 C876 1.373 . S
C872 C878 1.505 . S
C873 C872 1.379 . S
C873 C875 1.369 . S
C873 H884 0.930 . S
C874 C876 1.383 . S
C874 C877 1.382 . S
C874 H885 0.930 . S
C875 C873 1.369 . S
C875 C877 1.392 . S
C875 H886 0.930 . S
C876 C872 1.373 . S
C876 C874 1.383 . S
C876 H887 0.931 . S
C877 C874 1.382 . S
C877 C875 1.392 . S
C878 Eu849 2.828 . S
C878 O862 1.249 . S
C878 O863 1.244 . S
C878 C872 1.505 . S
C879 O866 1.258 . S
C879 O867 1.242 . S
H880 C852 0.930 . S
H881 C853 0.930 . S
H882 C854 0.930 . S
H883 C855 0.931 . S
H884 C873 0.930 . S
H885 C874 0.930 . S
H886 C875 0.930 . S
H887 C876 0.931 . S
Eu888 C897 2.828 . S
Eu888 O899 2.392 . S
Eu888 O901 2.418 . S
Eu888 O906 2.373 . S
Eu888 O909 2.488 . S
Eu888 O910 2.471 . S
Eu888 O911 2.349 . S
Eu889 O898 2.373 . S
Eu889 O902 2.488 . S
Eu889 O903 2.471 . S
Eu889 O904 2.349 . S
Eu889 O907 2.392 . S
Eu889 O908 2.418 . S
Eu889 C918 2.828 . S
C890 O908 1.244 . S
C890 O911 1.265 . S
C891 C892 1.379 . S
C891 C895 1.373 . S
C891 C897 1.505 . S
C892 C891 1.379 . S
C892 C894 1.369 . S
C892 H920 0.930 . S
C893 C895 1.383 . S
C893 C896 1.382 . S
C893 H921 0.930 . S
C894 C892 1.369 . S
C894 C896 1.392 . S
C894 H922 0.930 . S
C895 C891 1.373 . S
C895 C893 1.383 . S
C895 H923 0.931 . S
C896 C893 1.382 . S
C896 C894 1.392 . S
C897 Eu888 2.828 . S
C897 C891 1.505 . S
C897 O909 1.249 . S
C897 O910 1.244 . S
O898 Eu889 2.373 . S
O898 C900 1.258 . S
O899 Eu888 2.392 . S
O899 C900 1.242 . S
C900 O898 1.258 . S
C900 O899 1.242 . S
O901 Eu888 2.418 . S
O901 C905 1.244 . S
O902 Eu889 2.488 . S
O902 C918 1.249 . S
O903 Eu889 2.471 . S
O903 C918 1.244 . S
O904 Eu889 2.349 . S
O904 C905 1.265 . S
C905 O901 1.244 . S
C905 O904 1.265 . S
O906 Eu888 2.373 . S
O906 C919 1.258 . S
O907 Eu889 2.392 . S
O907 C919 1.242 . S
O908 Eu889 2.418 . S
O908 C890 1.244 . S
O909 Eu888 2.488 . S
O909 C897 1.249 . S
O910 Eu888 2.471 . S
O910 C897 1.244 . S
O911 Eu888 2.349 . S
O911 C890 1.265 . S
C912 C913 1.379 . S
C912 C916 1.373 . S
C912 C918 1.505 . S
C913 C912 1.379 . S
C913 C915 1.369 . S
C913 H924 0.930 . S
C914 C916 1.383 . S
C914 C917 1.382 . S
C914 H925 0.930 . S
C915 C913 1.369 . S
C915 C917 1.392 . S
C915 H926 0.930 . S
C916 C912 1.373 . S
C916 C914 1.383 . S
C916 H927 0.931 . S
C917 C914 1.382 . S
C917 C915 1.392 . S
C918 Eu889 2.828 . S
C918 O902 1.249 . S
C918 O903 1.244 . S
C918 C912 1.505 . S
C919 O906 1.258 . S
C919 O907 1.242 . S
H920 C892 0.930 . S
H921 C893 0.930 . S
H922 C894 0.930 . S
H923 C895 0.931 . S
H924 C913 0.930 . S
H925 C914 0.930 . S
H926 C915 0.930 . S
H927 C916 0.931 . S
Eu928 C937 2.828 . S
Eu928 O939 2.392 . S
Eu928 O941 2.418 . S
Eu928 O946 2.373 . S
Eu928 O949 2.488 . S
Eu928 O950 2.471 . S
Eu928 O951 2.349 . S
Eu929 O938 2.373 . S
Eu929 O942 2.488 . S
Eu929 O943 2.471 . S
Eu929 O944 2.349 . S
Eu929 O947 2.392 . S
Eu929 O948 2.418 . S
Eu929 C958 2.828 . S
C930 O948 1.244 . S
C930 O951 1.265 . S
C931 C932 1.379 . S
C931 C935 1.373 . S
C931 C937 1.505 . S
C932 C931 1.379 . S
C932 C934 1.369 . S
C932 H960 0.930 . S
C933 C935 1.383 . S
C933 C936 1.382 . S
C933 H961 0.930 . S
C934 C932 1.369 . S
C934 C936 1.392 . S
C934 H962 0.930 . S
C935 C931 1.373 . S
C935 C933 1.383 . S
C935 H963 0.931 . S
C936 C933 1.382 . S
C936 C934 1.392 . S
C937 Eu928 2.828 . S
C937 C931 1.505 . S
C937 O949 1.249 . S
C937 O950 1.244 . S
O938 Eu929 2.373 . S
O938 C940 1.258 . S
O939 Eu928 2.392 . S
O939 C940 1.242 . S
C940 O938 1.258 . S
C940 O939 1.242 . S
O941 Eu928 2.418 . S
O941 C945 1.244 . S
O942 Eu929 2.488 . S
O942 C958 1.249 . S
O943 Eu929 2.471 . S
O943 C958 1.244 . S
O944 Eu929 2.349 . S
O944 C945 1.265 . S
C945 O941 1.244 . S
C945 O944 1.265 . S
O946 Eu928 2.373 . S
O946 C959 1.258 . S
O947 Eu929 2.392 . S
O947 C959 1.242 . S
O948 Eu929 2.418 . S
O948 C930 1.244 . S
O949 Eu928 2.488 . S
O949 C937 1.249 . S
O950 Eu928 2.471 . S
O950 C937 1.244 . S
O951 Eu928 2.349 . S
O951 C930 1.265 . S
C952 C953 1.379 . S
C952 C956 1.373 . S
C952 C958 1.505 . S
C953 C952 1.379 . S
C953 C955 1.369 . S
C953 H964 0.930 . S
C954 C956 1.383 . S
C954 C957 1.382 . S
C954 H965 0.930 . S
C955 C953 1.369 . S
C955 C957 1.392 . S
C955 H966 0.930 . S
C956 C952 1.373 . S
C956 C954 1.383 . S
C956 H967 0.931 . S
C957 C954 1.382 . S
C957 C955 1.392 . S
C958 Eu929 2.828 . S
C958 O942 1.249 . S
C958 O943 1.244 . S
C958 C952 1.505 . S
C959 O946 1.258 . S
C959 O947 1.242 . S
H960 C932 0.930 . S
H961 C933 0.930 . S
H962 C934 0.930 . S
H963 C935 0.931 . S
H964 C953 0.930 . S
H965 C954 0.930 . S
H966 C955 0.930 . S
H967 C956 0.931 . S
Eu968 C977 2.828 . S
Eu968 O979 2.392 . S
Eu968 O981 2.418 . S
Eu968 O986 2.373 . S
Eu968 O989 2.488 . S
Eu968 O990 2.471 . S
Eu968 O991 2.349 . S
Eu969 O978 2.373 . S
Eu969 O982 2.488 . S
Eu969 O983 2.471 . S
Eu969 O984 2.349 . S
Eu969 O987 2.392 . S
Eu969 O988 2.418 . S
Eu969 C998 2.828 . S
C970 O988 1.244 . S
C970 O991 1.265 . S
C971 C972 1.379 . S
C971 C975 1.373 . S
C971 C977 1.505 . S
C972 C971 1.379 . S
C972 C974 1.369 . S
C972 H1000 0.930 . S
C973 C975 1.383 . S
C973 C976 1.382 . S
C973 H1001 0.930 . S
C974 C972 1.369 . S
C974 C976 1.392 . S
C974 H1002 0.930 . S
C975 C971 1.373 . S
C975 C973 1.383 . S
C975 H1003 0.931 . S
C976 C973 1.382 . S
C976 C974 1.392 . S
C977 Eu968 2.828 . S
C977 C971 1.505 . S
C977 O989 1.249 . S
C977 O990 1.244 . S
O978 Eu969 2.373 . S
O978 C980 1.258 . S
O979 Eu968 2.392 . S
O979 C980 1.242 . S
C980 O978 1.258 . S
C980 O979 1.242 . S
O981 Eu968 2.418 . S
O981 C985 1.244 . S
O982 Eu969 2.488 . S
O982 C998 1.249 . S
O983 Eu969 2.471 . S
O983 C998 1.244 . S
O984 Eu969 2.349 . S
O984 C985 1.265 . S
C985 O981 1.244 . S
C985 O984 1.265 . S
O986 Eu968 2.373 . S
O986 C999 1.258 . S
O987 Eu969 2.392 . S
O987 C999 1.242 . S
O988 Eu969 2.418 . S
O988 C970 1.244 . S
O989 Eu968 2.488 . S
O989 C977 1.249 . S
O990 Eu968 2.471 . S
O990 C977 1.244 . S
O991 Eu968 2.349 . S
O991 C970 1.265 . S
C992 C993 1.379 . S
C992 C996 1.373 . S
C992 C998 1.505 . S
C993 C992 1.379 . S
C993 C995 1.369 . S
C993 H1004 0.930 . S
C994 C996 1.383 . S
C994 C997 1.382 . S
C994 H1005 0.930 . S
C995 C993 1.369 . S
C995 C997 1.392 . S
C995 H1006 0.930 . S
C996 C992 1.373 . S
C996 C994 1.383 . S
C996 H1007 0.931 . S
C997 C994 1.382 . S
C997 C995 1.392 . S
C998 Eu969 2.828 . S
C998 O982 1.249 . S
C998 O983 1.244 . S
C998 C992 1.505 . S
C999 O986 1.258 . S
C999 O987 1.242 . S
H1000 C972 0.930 . S
H1001 C973 0.930 . S
H1002 C974 0.930 . S
H1003 C975 0.931 . S
H1004 C993 0.930 . S
H1005 C994 0.930 . S
H1006 C995 0.930 . S
H1007 C996 0.931 . S
H1008 C1014 0.930 . S
H1009 C1017 0.930 . S
H1010 C1018 0.930 . S
H1011 C1019 0.930 . S
H1012 C1022 0.930 1_556 S
H1013 C1023 0.930 1_556 S
C1014 H1008 0.930 . S
C1014 C1015 1.355 . S
C1014 C1016 1.415 . S
C1015 C1014 1.355 . S
C1015 C1017 1.419 . S
C1016 C1014 1.415 . S
C1016 C1021 1.425 . S
C1016 C1023 1.409 . S
C1017 H1009 0.930 . S
C1017 C1015 1.419 . S
C1017 C1018 1.362 . S
C1018 H1010 0.930 . S
C1018 C1017 1.362 . S
C1018 C1021 1.409 . S
C1019 H1011 0.930 . S
C1019 C1020 1.355 . S
C1019 C1021 1.415 . S
C1020 C1019 1.355 . S
C1020 C1022 1.419 . S
C1021 C1016 1.425 . S
C1021 C1018 1.409 . S
C1021 C1019 1.415 . S
C1022 H1012 0.930 1_554 S
C1022 C1020 1.419 . S
C1022 C1023 1.362 . S
C1023 H1013 0.930 1_554 S
C1023 C1016 1.409 . S
C1023 C1022 1.362 . S
H1024 C1030 0.930 . S
H1025 C1033 0.930 . S
H1026 C1034 0.930 . S
H1027 C1035 0.930 . S
H1028 C1038 0.930 . S
H1029 C1039 0.930 . S
C1030 H1024 0.930 . S
C1030 C1031 1.355 . S
C1030 C1032 1.415 . S
C1031 C1030 1.355 . S
C1031 C1033 1.419 . S
C1032 C1030 1.415 . S
C1032 C1037 1.425 . S
C1032 C1039 1.409 . S
C1033 H1025 0.930 . S
C1033 C1031 1.419 . S
C1033 C1034 1.362 . S
C1034 H1026 0.930 . S
C1034 C1033 1.362 . S
C1034 C1037 1.409 . S
C1035 H1027 0.930 . S
C1035 C1036 1.355 . S
C1035 C1037 1.415 . S
C1036 C1035 1.355 . S
C1036 C1038 1.419 . S
C1037 C1032 1.425 . S
C1037 C1034 1.409 . S
C1037 C1035 1.415 . S
C1038 H1028 0.930 . S
C1038 C1036 1.419 . S
C1038 C1039 1.362 . S
C1039 H1029 0.930 . S
C1039 C1032 1.409 . S
C1039 C1038 1.362 . S
H1040 C1046 0.973 . S
H1041 C1049 0.930 . S
H1042 C1050 0.930 . S
H1043 C1051 0.930 . S
H1044 C1054 0.930 . S
H1045 C1055 0.930 . S
C1046 H1040 0.973 . S
C1046 C1047 1.355 . S
C1046 C1048 1.415 . S
C1047 C1046 1.355 . S
C1047 C1049 1.419 . S
C1048 C1046 1.415 . S
C1048 C1053 1.425 . S
C1048 C1055 1.409 1_554 S
C1049 H1041 0.930 . S
C1049 C1047 1.419 . S
C1049 C1050 1.362 . S
C1050 H1042 0.930 . S
C1050 C1049 1.362 . S
C1050 C1053 1.409 . S
C1051 H1043 0.930 . S
C1051 C1052 1.355 . S
C1051 C1053 1.415 . S
C1052 C1051 1.355 . S
C1052 C1054 1.419 1_554 S
C1053 C1048 1.425 . S
C1053 C1050 1.409 . S
C1053 C1051 1.415 . S
C1054 H1044 0.930 . S
C1054 C1052 1.419 1_556 S
C1054 C1055 1.362 . S
C1055 H1045 0.930 . S
C1055 C1048 1.409 1_556 S
C1055 C1054 1.362 . S
H1056 C1062 0.930 . S
H1057 C1065 0.930 . S
H1058 C1066 0.930 . S
H1059 C1067 0.930 . S
H1060 C1070 0.930 . S
H1061 C1071 0.930 . S
C1062 H1056 0.930 . S
C1062 C1063 1.355 . S
C1062 C1064 1.415 . S
C1063 C1062 1.355 . S
C1063 C1065 1.419 . S
C1064 C1062 1.415 . S
C1064 C1069 1.425 . S
C1064 C1071 1.409 . S
C1065 H1057 0.930 . S
C1065 C1063 1.419 . S
C1065 C1066 1.362 . S
C1066 H1058 0.930 . S
C1066 C1065 1.362 . S
C1066 C1069 1.409 . S
C1067 H1059 0.930 . S
C1067 C1068 1.355 . S
C1067 C1069 1.415 . S
C1068 C1067 1.355 . S
C1068 C1070 1.419 . S
C1069 C1064 1.425 . S
C1069 C1066 1.409 . S
C1069 C1067 1.415 . S
C1070 H1060 0.930 . S
C1070 C1068 1.419 . S
C1070 C1071 1.362 . S
C1071 H1061 0.930 . S
C1071 C1064 1.409 . S
C1071 C1070 1.362 . S
H1072 C1078 0.930 . S
H1073 C1081 0.930 . S
H1074 C1082 0.930 . S
H1075 C1083 0.930 . S
H1076 C1086 0.930 . S
H1077 C1087 0.930 . S
C1078 H1072 0.930 . S
C1078 C1079 1.355 . S
C1078 C1080 1.415 . S
C1079 C1078 1.355 . S
C1079 C1081 1.419 . S
C1080 C1078 1.415 . S
C1080 C1085 1.425 . S
C1080 C1087 1.409 . S
C1081 H1073 0.930 . S
C1081 C1079 1.419 . S
C1081 C1082 1.362 . S
C1082 H1074 0.930 . S
C1082 C1081 1.362 . S
C1082 C1085 1.409 . S
C1083 H1075 0.930 . S
C1083 C1084 1.355 . S
C1083 C1085 1.415 . S
C1084 C1083 1.355 . S
C1084 C1086 1.419 . S
C1085 C1080 1.425 . S
C1085 C1082 1.409 . S
C1085 C1083 1.415 . S
C1086 H1076 0.930 . S
C1086 C1084 1.419 . S
C1086 C1087 1.362 . S
C1087 H1077 0.930 . S
C1087 C1080 1.409 . S
C1087 C1086 1.362 . S
H1088 C1094 0.930 . S
H1089 C1097 0.930 . S
H1090 C1098 0.930 . S
H1091 C1099 0.930 . S
H1092 C1102 0.930 1_554 S
H1093 C1103 0.930 . S
C1094 H1088 0.930 . S
C1094 C1095 1.355 . S
C1094 C1096 1.415 . S
C1095 C1094 1.355 . S
C1095 C1097 1.419 . S
C1096 C1094 1.415 . S
C1096 C1101 1.425 . S
C1096 C1103 1.409 . S
C1097 H1089 0.930 . S
C1097 C1095 1.419 . S
C1097 C1098 1.362 . S
C1098 H1090 0.930 . S
C1098 C1097 1.362 . S
C1098 C1101 1.409 . S
C1099 H1091 0.930 . S
C1099 C1100 1.355 . S
C1099 C1101 1.415 . S
C1100 C1099 1.355 . S
C1100 C1102 1.419 . S
C1101 C1096 1.425 . S
C1101 C1098 1.409 . S
C1101 C1099 1.415 . S
C1102 H1092 0.930 1_556 S
C1102 C1100 1.419 . S
C1102 C1103 1.362 . S
C1103 H1093 0.930 . S
C1103 C1096 1.409 . S
C1103 C1102 1.362 . S
H1104 C1110 0.930 . S
H1105 C1113 0.930 . S
H1106 C1114 0.930 1_554 S
H1107 C1115 0.930 1_554 S
H1108 C1118 0.930 . S
H1109 C1119 0.930 . S
C1110 H1104 0.930 . S
C1110 C1111 1.355 . S
C1110 C1112 1.415 . S
C1111 C1110 1.355 . S
C1111 C1113 1.419 . S
C1112 C1110 1.415 . S
C1112 C1117 1.425 . S
C1112 C1119 1.409 . S
C1113 H1105 0.930 . S
C1113 C1111 1.419 . S
C1113 C1114 1.362 . S
C1114 H1106 0.930 1_556 S
C1114 C1113 1.362 . S
C1114 C1117 1.409 . S
C1115 H1107 0.930 1_556 S
C1115 C1116 1.355 . S
C1115 C1117 1.415 . S
C1116 C1115 1.355 . S
C1116 C1118 1.419 . S
C1117 C1112 1.425 . S
C1117 C1114 1.409 . S
C1117 C1115 1.415 . S
C1118 H1108 0.930 . S
C1118 C1116 1.419 . S
C1118 C1119 1.362 . S
C1119 H1109 0.930 . S
C1119 C1112 1.409 . S
C1119 C1118 1.362 . S
H1120 C1126 0.930 . S
H1121 C1129 0.930 . S
H1122 C1130 0.930 . S
H1123 C1131 0.930 . S
H1124 C1134 0.930 1_554 S
H1125 C1135 0.903 1_554 S
C1126 H1120 0.930 . S
C1126 C1127 1.355 . S
C1126 C1128 1.415 . S
C1127 C1126 1.355 . S
C1127 C1129 1.419 . S
C1128 C1126 1.415 . S
C1128 C1133 1.425 . S
C1128 C1135 1.409 . S
C1129 H1121 0.930 . S
C1129 C1127 1.419 . S
C1129 C1130 1.362 . S
C1130 H1122 0.930 . S
C1130 C1129 1.362 . S
C1130 C1133 1.409 . S
C1131 H1123 0.930 . S
C1131 C1132 1.355 . S
C1131 C1133 1.415 . S
C1132 C1131 1.355 . S
C1132 C1134 1.419 . S
C1133 C1128 1.425 . S
C1133 C1130 1.409 . S
C1133 C1131 1.415 . S
C1134 H1124 0.930 1_556 S
C1134 C1132 1.419 . S
C1134 C1135 1.362 . S
C1135 H1125 0.903 1_556 S
C1135 C1128 1.409 . S
C1135 C1134 1.362 . S
H1136 C1142 0.930 . S
H1137 C1145 0.930 . S
H1138 C1146 0.930 . S
H1139 C1147 0.930 . S
H1140 C1150 0.930 . S
H1141 C1151 0.930 . S
C1142 H1136 0.930 . S
C1142 C1143 1.355 . S
C1142 C1144 1.415 . S
C1143 C1142 1.355 . S
C1143 C1145 1.419 . S
C1144 C1142 1.415 . S
C1144 C1149 1.425 . S
C1144 C1151 1.409 . S
C1145 H1137 0.930 . S
C1145 C1143 1.419 . S
C1145 C1146 1.362 . S
C1146 H1138 0.930 . S
C1146 C1145 1.362 . S
C1146 C1149 1.409 . S
C1147 H1139 0.930 . S
C1147 C1148 1.355 . S
C1147 C1149 1.415 . S
C1148 C1147 1.355 . S
C1148 C1150 1.419 . S
C1149 C1144 1.425 . S
C1149 C1146 1.409 . S
C1149 C1147 1.415 . S
C1150 H1140 0.930 . S
C1150 C1148 1.419 . S
C1150 C1151 1.362 . S
C1151 H1141 0.930 . S
C1151 C1144 1.409 . S
C1151 C1150 1.362 . S
H1152 C1158 0.930 . S
H1153 C1161 0.930 . S
H1154 C1162 0.930 . S
H1155 C1163 0.930 . S
H1156 C1166 0.969 . S
H1157 C1167 0.930 . S
C1158 H1152 0.930 . S
C1158 C1159 1.355 . S
C1158 C1160 1.415 . S
C1159 C1158 1.355 . S
C1159 C1161 1.419 . S
C1160 C1158 1.415 . S
C1160 C1165 1.425 . S
C1160 C1167 1.409 . S
C1161 H1153 0.930 . S
C1161 C1159 1.419 . S
C1161 C1162 1.362 . S
C1162 H1154 0.930 . S
C1162 C1161 1.362 . S
C1162 C1165 1.409 . S
C1163 H1155 0.930 . S
C1163 C1164 1.355 . S
C1163 C1165 1.415 . S
C1164 C1163 1.355 . S
C1164 C1166 1.419 . S
C1165 C1160 1.425 . S
C1165 C1162 1.409 . S
C1165 C1163 1.415 . S
C1166 H1156 0.969 . S
C1166 C1164 1.419 . S
C1166 C1167 1.362 . S
C1167 H1157 0.930 . S
C1167 C1160 1.409 . S
C1167 C1166 1.362 . S
H1168 C1174 0.930 . S
H1169 C1177 0.930 . S
H1170 C1178 0.930 . S
H1171 C1179 0.930 . S
H1172 C1182 0.901 1_556 S
H1173 C1183 0.930 . S
C1174 H1168 0.930 . S
C1174 C1175 1.355 . S
C1174 C1176 1.415 . S
C1175 C1174 1.355 . S
C1175 C1177 1.419 . S
C1176 C1174 1.415 . S
C1176 C1181 1.425 . S
C1176 C1183 1.409 . S
C1177 H1169 0.930 . S
C1177 C1175 1.419 . S
C1177 C1178 1.362 . S
C1178 H1170 0.930 . S
C1178 C1177 1.362 . S
C1178 C1181 1.409 . S
C1179 H1171 0.930 . S
C1179 C1180 1.355 . S
C1179 C1181 1.415 . S
C1180 C1179 1.355 . S
C1180 C1182 1.419 . S
C1181 C1176 1.425 . S
C1181 C1178 1.409 . S
C1181 C1179 1.415 . S
C1182 H1172 0.901 1_554 S
C1182 C1180 1.419 . S
C1182 C1183 1.362 . S
C1183 H1173 0.930 . S
C1183 C1176 1.409 . S
C1183 C1182 1.362 . S
H1184 C1190 0.930 . S
H1185 C1193 0.930 . S
H1186 C1194 0.930 . S
H1187 C1195 0.930 . S
H1188 C1198 0.896 1_556 S
H1189 C1199 0.930 . S
C1190 H1184 0.930 . S
C1190 C1191 1.355 . S
C1190 C1192 1.415 . S
C1191 C1190 1.355 . S
C1191 C1193 1.419 . S
C1192 C1190 1.415 . S
C1192 C1197 1.425 . S
C1192 C1199 1.409 . S
C1193 H1185 0.930 . S
C1193 C1191 1.419 . S
C1193 C1194 1.362 . S
C1194 H1186 0.930 . S
C1194 C1193 1.362 . S
C1194 C1197 1.409 . S
C1195 H1187 0.930 . S
C1195 C1196 1.355 . S
C1195 C1197 1.415 . S
C1196 C1195 1.355 . S
C1196 C1198 1.419 . S
C1197 C1192 1.425 . S
C1197 C1194 1.409 . S
C1197 C1195 1.415 . S
C1198 H1188 0.896 1_554 S
C1198 C1196 1.419 . S
C1198 C1199 1.362 . S
C1199 H1189 0.930 . S
C1199 C1192 1.409 . S
C1199 C1198 1.362 . S
H1200 C1206 0.930 1_655 S
H1201 C1209 0.930 1_655 S
H1202 C1210 0.930 . S
H1203 C1211 0.930 . S
H1204 C1214 0.930 . S
H1205 C1215 0.930 . S
C1206 H1200 0.930 1_455 S
C1206 C1207 1.355 1_455 S
C1206 C1208 1.415 . S
C1207 C1206 1.355 1_655 S
C1207 C1209 1.419 1_655 S
C1208 C1206 1.415 . S
C1208 C1213 1.425 . S
C1208 C1215 1.409 . S
C1209 H1201 0.930 1_455 S
C1209 C1207 1.419 1_455 S
C1209 C1210 1.362 . S
C1210 H1202 0.930 . S
C1210 C1209 1.362 . S
C1210 C1213 1.409 . S
C1211 H1203 0.930 . S
C1211 C1212 1.355 . S
C1211 C1213 1.415 . S
C1212 C1211 1.355 . S
C1212 C1214 1.419 . S
C1213 C1208 1.425 . S
C1213 C1210 1.409 . S
C1213 C1211 1.415 . S
C1214 H1204 0.930 . S
C1214 C1212 1.419 . S
C1214 C1215 1.362 . S
C1215 H1205 0.930 . S
C1215 C1208 1.409 . S
C1215 C1214 1.362 . S
H1216 C1222 0.930 . S
H1217 C1225 0.930 . S
H1218 C1226 0.930 . S
H1219 C1227 0.930 . S
H1220 C1230 0.930 . S
H1221 C1231 0.930 . S
C1222 H1216 0.930 . S
C1222 C1223 1.355 . S
C1222 C1224 1.415 . S
C1223 C1222 1.355 . S
C1223 C1225 1.419 . S
C1224 C1222 1.415 . S
C1224 C1229 1.425 . S
C1224 C1231 1.409 . S
C1225 H1217 0.930 . S
C1225 C1223 1.419 . S
C1225 C1226 1.362 . S
C1226 H1218 0.930 . S
C1226 C1225 1.362 . S
C1226 C1229 1.409 . S
C1227 H1219 0.930 . S
C1227 C1228 1.355 . S
C1227 C1229 1.415 . S
C1228 C1227 1.355 . S
C1228 C1230 1.419 . S
C1229 C1224 1.425 . S
C1229 C1226 1.409 . S
C1229 C1227 1.415 . S
C1230 H1220 0.930 . S
C1230 C1228 1.419 . S
C1230 C1231 1.362 . S
C1231 H1221 0.930 . S
C1231 C1224 1.409 . S
C1231 C1230 1.362 . S
H1232 C1238 0.930 . S
H1233 C1241 0.930 . S
H1234 C1242 0.930 . S
H1235 C1243 0.930 . S
H1236 C1246 0.930 . S
H1237 C1247 0.930 . S
C1238 H1232 0.930 . S
C1238 C1239 1.355 . S
C1238 C1240 1.415 1_545 S
C1239 C1238 1.355 . S
C1239 C1241 1.419 . S
C1240 C1238 1.415 1_565 S
C1240 C1245 1.425 . S
C1240 C1247 1.409 . S
C1241 H1233 0.930 . S
C1241 C1239 1.419 . S
C1241 C1242 1.362 1_545 S
C1242 H1234 0.930 . S
C1242 C1241 1.362 1_565 S
C1242 C1245 1.409 . S
C1243 H1235 0.930 . S
C1243 C1244 1.355 . S
C1243 C1245 1.415 . S
C1244 C1243 1.355 . S
C1244 C1246 1.419 . S
C1245 C1240 1.425 . S
C1245 C1242 1.409 . S
C1245 C1243 1.415 . S
C1246 H1236 0.930 . S
C1246 C1244 1.419 . S
C1246 C1247 1.362 . S
C1247 H1237 0.930 . S
C1247 C1240 1.409 . S
C1247 C1246 1.362 . S
H1248 C1254 0.930 . S
H1249 C1257 0.930 . S
H1250 C1258 0.930 . S
H1251 C1259 0.930 . S
H1252 C1262 0.930 . S
H1253 C1263 0.930 . S
C1254 H1248 0.930 . S
C1254 C1255 1.355 . S
C1254 C1256 1.415 . S
C1255 C1254 1.355 . S
C1255 C1257 1.419 . S
C1256 C1254 1.415 . S
C1256 C1261 1.425 . S
C1256 C1263 1.409 . S
C1257 H1249 0.930 . S
C1257 C1255 1.419 . S
C1257 C1258 1.362 . S
C1258 H1250 0.930 . S
C1258 C1257 1.362 . S
C1258 C1261 1.409 . S
C1259 H1251 0.930 . S
C1259 C1260 1.355 . S
C1259 C1261 1.415 . S
C1260 C1259 1.355 . S
C1260 C1262 1.419 . S
C1261 C1256 1.425 . S
C1261 C1258 1.409 . S
C1261 C1259 1.415 . S
C1262 H1252 0.930 . S
C1262 C1260 1.419 . S
C1262 C1263 1.362 . S
C1263 H1253 0.930 . S
C1263 C1256 1.409 . S
C1263 C1262 1.362 . S
H1264 C1270 0.930 . S
H1265 C1273 0.930 . S
H1266 C1274 0.930 . S
H1267 C1275 0.930 . S
H1268 C1278 0.930 . S
H1269 C1279 0.930 . S
C1270 H1264 0.930 . S
C1270 C1271 1.355 . S
C1270 C1272 1.415 . S
C1271 C1270 1.355 . S
C1271 C1273 1.419 . S
C1272 C1270 1.415 . S
C1272 C1277 1.425 . S
C1272 C1279 1.409 . S
C1273 H1265 0.930 . S
C1273 C1271 1.419 . S
C1273 C1274 1.362 . S
C1274 H1266 0.930 . S
C1274 C1273 1.362 . S
C1274 C1277 1.409 . S
C1275 H1267 0.930 . S
C1275 C1276 1.355 . S
C1275 C1277 1.415 . S
C1276 C1275 1.355 . S
C1276 C1278 1.419 . S
C1277 C1272 1.425 . S
C1277 C1274 1.409 . S
C1277 C1275 1.415 . S
C1278 H1268 0.930 . S
C1278 C1276 1.419 . S
C1278 C1279 1.362 . S
C1279 H1269 0.930 . S
C1279 C1272 1.409 . S
C1279 C1278 1.362 . S
H1280 C1286 0.930 . S
H1281 C1289 0.930 . S
H1282 C1290 0.930 . S
H1283 C1291 0.930 . S
H1284 C1294 0.930 . S
H1285 C1295 0.930 . S
C1286 H1280 0.930 . S
C1286 C1287 1.355 . S
C1286 C1288 1.415 . S
C1287 C1286 1.355 . S
C1287 C1289 1.419 . S
C1288 C1286 1.415 . S
C1288 C1293 1.425 . S
C1288 C1295 1.409 . S
C1289 H1281 0.930 . S
C1289 C1287 1.419 . S
C1289 C1290 1.362 . S
C1290 H1282 0.930 . S
C1290 C1289 1.362 . S
C1290 C1293 1.409 . S
C1291 H1283 0.930 . S
C1291 C1292 1.355 . S
C1291 C1293 1.415 . S
C1292 C1291 1.355 . S
C1292 C1294 1.419 . S
C1293 C1288 1.425 . S
C1293 C1290 1.409 . S
C1293 C1291 1.415 . S
C1294 H1284 0.930 . S
C1294 C1292 1.419 . S
C1294 C1295 1.362 . S
C1295 H1285 0.930 . S
C1295 C1288 1.409 . S
C1295 C1294 1.362 . S
H1296 C1302 0.930 . S
H1297 C1305 0.930 . S
H1298 C1306 0.930 . S
H1299 C1307 0.930 . S
H1300 C1310 0.930 . S
H1301 C1311 0.930 . S
C1302 H1296 0.930 . S
C1302 C1303 1.355 . S
C1302 C1304 1.415 . S
C1303 C1302 1.355 . S
C1303 C1305 1.419 . S
C1304 C1302 1.415 . S
C1304 C1309 1.425 . S
C1304 C1311 1.409 . S
C1305 H1297 0.930 . S
C1305 C1303 1.419 . S
C1305 C1306 1.362 . S
C1306 H1298 0.930 . S
C1306 C1305 1.362 . S
C1306 C1309 1.409 . S
C1307 H1299 0.930 . S
C1307 C1308 1.355 . S
C1307 C1309 1.415 . S
C1308 C1307 1.355 . S
C1308 C1310 1.419 . S
C1309 C1304 1.425 . S
C1309 C1306 1.409 . S
C1309 C1307 1.415 . S
C1310 H1300 0.930 . S
C1310 C1308 1.419 . S
C1310 C1311 1.362 . S
C1311 H1301 0.930 . S
C1311 C1304 1.409 . S
C1311 C1310 1.362 . S
H1312 C1318 0.930 . S
H1313 C1321 0.930 . S
H1314 C1322 0.930 . S
H1315 C1323 0.930 . S
H1316 C1326 0.930 . S
H1317 C1327 0.930 . S
C1318 H1312 0.930 . S
C1318 C1319 1.355 . S
C1318 C1320 1.415 . S
C1319 C1318 1.355 . S
C1319 C1321 1.419 . S
C1320 C1318 1.415 . S
C1320 C1325 1.425 . S
C1320 C1327 1.409 . S
C1321 H1313 0.930 . S
C1321 C1319 1.419 . S
C1321 C1322 1.362 . S
C1322 H1314 0.930 . S
C1322 C1321 1.362 . S
C1322 C1325 1.409 . S
C1323 H1315 0.930 . S
C1323 C1324 1.355 . S
C1323 C1325 1.415 . S
C1324 C1323 1.355 . S
C1324 C1326 1.419 . S
C1325 C1320 1.425 . S
C1325 C1322 1.409 . S
C1325 C1323 1.415 . S
C1326 H1316 0.930 . S
C1326 C1324 1.419 . S
C1326 C1327 1.362 . S
C1327 H1317 0.930 . S
C1327 C1320 1.409 . S
C1327 C1326 1.362 . S
H1328 C1334 0.930 . S
H1329 C1337 0.930 . S
H1330 C1338 0.930 . S
H1331 C1339 0.930 . S
H1332 C1342 0.930 . S
H1333 C1343 0.930 . S
C1334 H1328 0.930 . S
C1334 C1335 1.355 . S
C1334 C1336 1.415 . S
C1335 C1334 1.355 . S
C1335 C1337 1.419 . S
C1336 C1334 1.415 . S
C1336 C1341 1.425 . S
C1336 C1343 1.409 . S
C1337 H1329 0.930 . S
C1337 C1335 1.419 . S
C1337 C1338 1.362 . S
C1338 H1330 0.930 . S
C1338 C1337 1.362 . S
C1338 C1341 1.409 . S
C1339 H1331 0.930 . S
C1339 C1340 1.355 . S
C1339 C1341 1.415 . S
C1340 C1339 1.355 . S
C1340 C1342 1.419 . S
C1341 C1336 1.425 . S
C1341 C1338 1.409 . S
C1341 C1339 1.415 . S
C1342 H1332 0.930 . S
C1342 C1340 1.419 . S
C1342 C1343 1.362 . S
C1343 H1333 0.930 . S
C1343 C1336 1.409 . S
C1343 C1342 1.362 . S
H1344 C1350 0.930 . S
H1345 C1353 0.930 . S
H1346 C1354 0.930 . S
H1347 C1355 0.930 . S
H1348 C1358 0.930 . S
H1349 C1359 0.930 . S
C1350 H1344 0.930 . S
C1350 C1351 1.355 . S
C1350 C1352 1.415 1_545 S
C1351 C1350 1.355 . S
C1351 C1353 1.419 . S
C1352 C1350 1.415 1_565 S
C1352 C1357 1.425 . S
C1352 C1359 1.409 . S
C1353 H1345 0.930 . S
C1353 C1351 1.419 . S
C1353 C1354 1.362 1_545 S
C1354 H1346 0.930 . S
C1354 C1353 1.362 1_565 S
C1354 C1357 1.409 . S
C1355 H1347 0.930 . S
C1355 C1356 1.355 . S
C1355 C1357 1.415 . S
C1356 C1355 1.355 . S
C1356 C1358 1.419 . S
C1357 C1352 1.425 . S
C1357 C1354 1.409 . S
C1357 C1355 1.415 . S
C1358 H1348 0.930 . S
C1358 C1356 1.419 . S
C1358 C1359 1.362 . S
C1359 H1349 0.930 . S
C1359 C1352 1.409 . S
C1359 C1358 1.362 . S
H1360 C1366 0.930 . S
H1361 C1369 0.930 . S
H1362 C1370 0.930 . S
H1363 C1371 0.930 . S
H1364 C1374 0.930 . S
H1365 C1375 0.930 . S
C1366 H1360 0.930 . S
C1366 C1367 1.355 . S
C1366 C1368 1.415 . S
C1367 C1366 1.355 . S
C1367 C1369 1.419 1_455 S
C1368 C1366 1.415 . S
C1368 C1373 1.425 . S
C1368 C1375 1.409 . S
C1369 H1361 0.930 . S
C1369 C1367 1.419 1_655 S
C1369 C1370 1.362 1_655 S
C1370 H1362 0.930 . S
C1370 C1369 1.362 1_455 S
C1370 C1373 1.409 . S
C1371 H1363 0.930 . S
C1371 C1372 1.355 . S
C1371 C1373 1.415 . S
C1372 C1371 1.355 . S
C1372 C1374 1.419 . S
C1373 C1368 1.425 . S
C1373 C1370 1.409 . S
C1373 C1371 1.415 . S
C1374 H1364 0.930 . S
C1374 C1372 1.419 . S
C1374 C1375 1.362 . S
C1375 H1365 0.930 . S
C1375 C1368 1.409 . S
C1375 C1374 1.362 . S
H1376 C1382 0.930 . S
H1377 C1385 0.930 . S
H1378 C1386 0.930 . S
H1379 C1387 0.930 . S
H1380 C1390 0.930 . S
H1381 C1391 0.930 . S
C1382 H1376 0.930 . S
C1382 C1383 1.355 . S
C1382 C1384 1.415 . S
C1383 C1382 1.355 . S
C1383 C1385 1.419 . S
C1384 C1382 1.415 . S
C1384 C1389 1.425 . S
C1384 C1391 1.409 . S
C1385 H1377 0.930 . S
C1385 C1383 1.419 . S
C1385 C1386 1.362 . S
C1386 H1378 0.930 . S
C1386 C1385 1.362 . S
C1386 C1389 1.409 . S
C1387 H1379 0.930 . S
C1387 C1388 1.355 . S
C1387 C1389 1.415 . S
C1388 C1387 1.355 . S
C1388 C1390 1.419 . S
C1389 C1384 1.425 . S
C1389 C1386 1.409 . S
C1389 C1387 1.415 . S
C1390 H1380 0.930 . S
C1390 C1388 1.419 . S
C1390 C1391 1.362 . S
C1391 H1381 0.930 . S
C1391 C1384 1.409 . S
C1391 C1390 1.362 . S
H1392 C1398 0.930 . S
H1393 C1401 0.930 . S
H1394 C1402 0.930 . S
H1395 C1403 0.930 . S
H1396 C1406 0.930 . S
H1397 C1407 0.930 . S
C1398 H1392 0.930 . S
C1398 C1399 1.355 . S
C1398 C1400 1.415 . S
C1399 C1398 1.355 . S
C1399 C1401 1.419 . S
C1400 C1398 1.415 . S
C1400 C1405 1.425 . S
C1400 C1407 1.409 . S
C1401 H1393 0.930 . S
C1401 C1399 1.419 . S
C1401 C1402 1.362 . S
C1402 H1394 0.930 . S
C1402 C1401 1.362 . S
C1402 C1405 1.409 . S
C1403 H1395 0.930 . S
C1403 C1404 1.355 . S
C1403 C1405 1.415 . S
C1404 C1403 1.355 . S
C1404 C1406 1.419 . S
C1405 C1400 1.425 . S
C1405 C1402 1.409 . S
C1405 C1403 1.415 . S
C1406 H1396 0.930 . S
C1406 C1404 1.419 . S
C1406 C1407 1.362 . S
C1407 H1397 0.930 . S
C1407 C1400 1.409 . S
C1407 C1406 1.362 . S
H1408 C1414 0.930 . S
H1409 C1417 0.930 . S
H1410 C1418 0.930 . S
H1411 C1419 0.930 . S
H1412 C1422 0.930 . S
H1413 C1423 0.930 . S
C1414 H1408 0.930 . S
C1414 C1415 1.355 . S
C1414 C1416 1.415 . S
C1415 C1414 1.355 . S
C1415 C1417 1.419 . S
C1416 C1414 1.415 . S
C1416 C1421 1.425 . S
C1416 C1423 1.409 . S
C1417 H1409 0.930 . S
C1417 C1415 1.419 . S
C1417 C1418 1.362 . S
C1418 H1410 0.930 . S
C1418 C1417 1.362 . S
C1418 C1421 1.409 . S
C1419 H1411 0.930 . S
C1419 C1420 1.355 . S
C1419 C1421 1.415 . S
C1420 C1419 1.355 . S
C1420 C1422 1.419 . S
C1421 C1416 1.425 . S
C1421 C1418 1.409 . S
C1421 C1419 1.415 . S
C1422 H1412 0.930 . S
C1422 C1420 1.419 . S
C1422 C1423 1.362 . S
C1423 H1413 0.930 . S
C1423 C1416 1.409 . S
C1423 C1422 1.362 . S
H1424 C1430 0.930 . S
H1425 C1433 0.930 . S
H1426 C1434 0.930 . S
H1427 C1435 0.930 . S
H1428 C1438 0.930 . S
H1429 C1439 0.930 . S
C1430 H1424 0.930 . S
C1430 C1431 1.355 . S
C1430 C1432 1.415 . S
C1431 C1430 1.355 . S
C1431 C1433 1.419 . S
C1432 C1430 1.415 . S
C1432 C1437 1.425 . S
C1432 C1439 1.409 . S
C1433 H1425 0.930 . S
C1433 C1431 1.419 . S
C1433 C1434 1.362 . S
C1434 H1426 0.930 . S
C1434 C1433 1.362 . S
C1434 C1437 1.409 . S
C1435 H1427 0.930 . S
C1435 C1436 1.355 . S
C1435 C1437 1.415 . S
C1436 C1435 1.355 . S
C1436 C1438 1.419 . S
C1437 C1432 1.425 . S
C1437 C1434 1.409 . S
C1437 C1435 1.415 . S
C1438 H1428 0.930 . S
C1438 C1436 1.419 . S
C1438 C1439 1.362 . S
C1439 H1429 0.930 . S
C1439 C1432 1.409 . S
C1439 C1438 1.362 . S
H1440 C1446 0.930 . S
H1441 C1449 0.930 . S
H1442 C1450 0.930 . S
H1443 C1451 0.930 . S
H1444 C1454 0.930 . S
H1445 C1455 0.930 . S
C1446 H1440 0.930 . S
C1446 C1447 1.355 . S
C1446 C1448 1.415 1_565 S
C1447 C1446 1.355 . S
C1447 C1449 1.419 . S
C1448 C1446 1.415 1_545 S
C1448 C1453 1.425 . S
C1448 C1455 1.409 . S
C1449 H1441 0.930 . S
C1449 C1447 1.419 . S
C1449 C1450 1.362 1_565 S
C1450 H1442 0.930 . S
C1450 C1449 1.362 1_545 S
C1450 C1453 1.409 . S
C1451 H1443 0.930 . S
C1451 C1452 1.355 . S
C1451 C1453 1.415 . S
C1452 C1451 1.355 . S
C1452 C1454 1.419 . S
C1453 C1448 1.425 . S
C1453 C1450 1.409 . S
C1453 C1451 1.415 . S
C1454 H1444 0.930 . S
C1454 C1452 1.419 . S
C1454 C1455 1.362 . S
C1455 H1445 0.930 . S
C1455 C1448 1.409 . S
C1455 C1454 1.362 . S
H1456 C1462 0.930 . S
H1457 C1465 0.930 . S
H1458 C1466 0.930 . S
H1459 C1467 0.930 . S
H1460 C1470 0.930 . S
H1461 C1471 0.930 . S
C1462 H1456 0.930 . S
C1462 C1463 1.355 . S
C1462 C1464 1.415 . S
C1463 C1462 1.355 . S
C1463 C1465 1.419 . S
C1464 C1462 1.415 . S
C1464 C1469 1.425 . S
C1464 C1471 1.409 . S
C1465 H1457 0.930 . S
C1465 C1463 1.419 . S
C1465 C1466 1.362 . S
C1466 H1458 0.930 . S
C1466 C1465 1.362 . S
C1466 C1469 1.409 . S
C1467 H1459 0.930 . S
C1467 C1468 1.355 . S
C1467 C1469 1.415 . S
C1468 C1467 1.355 . S
C1468 C1470 1.419 . S
C1469 C1464 1.425 . S
C1469 C1466 1.409 . S
C1469 C1467 1.415 . S
C1470 H1460 0.930 . S
C1470 C1468 1.419 . S
C1470 C1471 1.362 . S
C1471 H1461 0.930 . S
C1471 C1464 1.409 . S
C1471 C1470 1.362 . S
H1472 C1478 0.930 . S
H1473 C1481 0.930 . S
H1474 C1482 0.930 . S
H1475 C1483 0.930 . S
H1476 C1486 0.930 . S
H1477 C1487 0.930 . S
C1478 H1472 0.930 . S
C1478 C1479 1.355 . S
C1478 C1480 1.415 . S
C1479 C1478 1.355 . S
C1479 C1481 1.419 . S
C1480 C1478 1.415 . S
C1480 C1485 1.425 . S
C1480 C1487 1.409 . S
C1481 H1473 0.930 . S
C1481 C1479 1.419 . S
C1481 C1482 1.362 . S
C1482 H1474 0.930 . S
C1482 C1481 1.362 . S
C1482 C1485 1.409 . S
C1483 H1475 0.930 . S
C1483 C1484 1.355 . S
C1483 C1485 1.415 . S
C1484 C1483 1.355 . S
C1484 C1486 1.419 . S
C1485 C1480 1.425 . S
C1485 C1482 1.409 . S
C1485 C1483 1.415 . S
C1486 H1476 0.930 . S
C1486 C1484 1.419 . S
C1486 C1487 1.362 . S
C1487 H1477 0.930 . S
C1487 C1480 1.409 . S
C1487 C1486 1.362 . S
H1488 C1494 0.930 . S
H1489 C1497 0.930 . S
H1490 C1498 0.930 . S
H1491 C1499 0.930 . S
H1492 C1502 0.930 . S
H1493 C1503 0.930 . S
C1494 H1488 0.930 . S
C1494 C1495 1.355 . S
C1494 C1496 1.415 1_455 S
C1495 C1494 1.355 . S
C1495 C1497 1.419 1_455 S
C1496 C1494 1.415 1_655 S
C1496 C1501 1.425 . S
C1496 C1503 1.409 . S
C1497 H1489 0.930 . S
C1497 C1495 1.419 1_655 S
C1497 C1498 1.362 . S
C1498 H1490 0.930 . S
C1498 C1497 1.362 . S
C1498 C1501 1.409 . S
C1499 H1491 0.930 . S
C1499 C1500 1.355 . S
C1499 C1501 1.415 . S
C1500 C1499 1.355 . S
C1500 C1502 1.419 . S
C1501 C1496 1.425 . S
C1501 C1498 1.409 . S
C1501 C1499 1.415 . S
C1502 H1492 0.930 . S
C1502 C1500 1.419 . S
C1502 C1503 1.362 . S
C1503 H1493 0.930 . S
C1503 C1496 1.409 . S
C1503 C1502 1.362 . S
H1504 C1510 0.930 . S
H1505 C1513 0.930 . S
H1506 C1514 0.930 . S
H1507 C1515 0.930 . S
H1508 C1518 0.930 . S
H1509 C1519 0.930 . S
C1510 H1504 0.930 . S
C1510 C1511 1.355 . S
C1510 C1512 1.415 . S
C1511 C1510 1.355 . S
C1511 C1513 1.419 . S
C1512 C1510 1.415 . S
C1512 C1517 1.425 . S
C1512 C1519 1.409 . S
C1513 H1505 0.930 . S
C1513 C1511 1.419 . S
C1513 C1514 1.362 . S
C1514 H1506 0.930 . S
C1514 C1513 1.362 . S
C1514 C1517 1.409 . S
C1515 H1507 0.930 . S
C1515 C1516 1.355 . S
C1515 C1517 1.415 . S
C1516 C1515 1.355 . S
C1516 C1518 1.419 . S
C1517 C1512 1.425 . S
C1517 C1514 1.409 . S
C1517 C1515 1.415 . S
C1518 H1508 0.930 . S
C1518 C1516 1.419 . S
C1518 C1519 1.362 . S
C1519 H1509 0.930 . S
C1519 C1512 1.409 . S
C1519 C1518 1.362 . S
H1520 C1526 0.930 . S
H1521 C1529 0.930 . S
H1522 C1530 0.930 . S
H1523 C1531 0.930 . S
H1524 C1534 0.930 . S
H1525 C1535 0.930 . S
C1526 H1520 0.930 . S
C1526 C1527 1.355 . S
C1526 C1528 1.415 1_565 S
C1527 C1526 1.355 . S
C1527 C1529 1.419 . S
C1528 C1526 1.415 1_545 S
C1528 C1533 1.425 . S
C1528 C1535 1.409 . S
C1529 H1521 0.930 . S
C1529 C1527 1.419 . S
C1529 C1530 1.362 1_565 S
C1530 H1522 0.930 . S
C1530 C1529 1.362 1_545 S
C1530 C1533 1.409 . S
C1531 H1523 0.930 . S
C1531 C1532 1.355 . S
C1531 C1533 1.415 . S
C1532 C1531 1.355 . S
C1532 C1534 1.419 . S
C1533 C1528 1.425 . S
C1533 C1530 1.409 . S
C1533 C1531 1.415 . S
C1534 H1524 0.930 . S
C1534 C1532 1.419 . S
C1534 C1535 1.362 . S
C1535 H1525 0.930 . S
C1535 C1528 1.409 . S
C1535 C1534 1.362 . S
H1536 C1542 0.930 . S
H1537 C1545 0.930 . S
H1538 C1546 0.930 . S
H1539 C1547 0.930 . S
H1540 C1550 0.930 . S
H1541 C1551 0.930 . S
C1542 H1536 0.930 . S
C1542 C1543 1.355 . S
C1542 C1544 1.415 . S
C1543 C1542 1.355 . S
C1543 C1545 1.419 . S
C1544 C1542 1.415 . S
C1544 C1549 1.425 . S
C1544 C1551 1.409 . S
C1545 H1537 0.930 . S
C1545 C1543 1.419 . S
C1545 C1546 1.362 . S
C1546 H1538 0.930 . S
C1546 C1545 1.362 . S
C1546 C1549 1.409 . S
C1547 H1539 0.930 . S
C1547 C1548 1.355 . S
C1547 C1549 1.415 . S
C1548 C1547 1.355 . S
C1548 C1550 1.419 . S
C1549 C1544 1.425 . S
C1549 C1546 1.409 . S
C1549 C1547 1.415 . S
C1550 H1540 0.930 . S
C1550 C1548 1.419 . S
C1550 C1551 1.362 . S
C1551 H1541 0.930 . S
C1551 C1544 1.409 . S
C1551 C1550 1.362 . S
H1552 C1558 0.930 . S
H1553 C1561 0.930 . S
H1554 C1562 0.930 . S
H1555 C1563 0.930 . S
H1556 C1566 0.930 . S
H1557 C1567 0.930 . S
C1558 H1552 0.930 . S
C1558 C1559 1.355 . S
C1558 C1560 1.415 . S
C1559 C1558 1.355 . S
C1559 C1561 1.419 . S
C1560 C1558 1.415 . S
C1560 C1565 1.425 . S
C1560 C1567 1.409 . S
C1561 H1553 0.930 . S
C1561 C1559 1.419 . S
C1561 C1562 1.362 . S
C1562 H1554 0.930 . S
C1562 C1561 1.362 . S
C1562 C1565 1.409 . S
C1563 H1555 0.930 . S
C1563 C1564 1.355 . S
C1563 C1565 1.415 . S
C1564 C1563 1.355 . S
C1564 C1566 1.419 . S
C1565 C1560 1.425 . S
C1565 C1562 1.409 . S
C1565 C1563 1.415 . S
C1566 H1556 0.930 . S
C1566 C1564 1.419 . S
C1566 C1567 1.362 . S
C1567 H1557 0.930 . S
C1567 C1560 1.409 . S
C1567 C1566 1.362 . S
H1568 C1574 0.930 . S
H1569 C1577 0.930 . S
H1570 C1578 0.930 . S
H1571 C1579 0.930 . S
H1572 C1582 0.930 . S
H1573 C1583 0.930 . S
C1574 H1568 0.930 . S
C1574 C1575 1.355 . S
C1574 C1576 1.415 . S
C1575 C1574 1.355 . S
C1575 C1577 1.419 . S
C1576 C1574 1.415 . S
C1576 C1581 1.425 . S
C1576 C1583 1.409 . S
C1577 H1569 0.930 . S
C1577 C1575 1.419 . S
C1577 C1578 1.362 . S
C1578 H1570 0.930 . S
C1578 C1577 1.362 . S
C1578 C1581 1.409 . S
C1579 H1571 0.930 . S
C1579 C1580 1.355 . S
C1579 C1581 1.415 . S
C1580 C1579 1.355 . S
C1580 C1582 1.419 . S
C1581 C1576 1.425 . S
C1581 C1578 1.409 . S
C1581 C1579 1.415 . S
C1582 H1572 0.930 . S
C1582 C1580 1.419 . S
C1582 C1583 1.362 . S
C1583 H1573 0.930 . S
C1583 C1576 1.409 . S
C1583 C1582 1.362 . S
H1584 C1590 0.930 . S
H1585 C1593 0.930 1_545 S
H1586 C1594 0.930 . S
H1587 C1595 0.930 . S
H1588 C1598 0.930 . S
H1589 C1599 0.930 . S
C1590 H1584 0.930 . S
C1590 C1591 1.355 . S
C1590 C1592 1.415 . S
C1591 C1590 1.355 . S
C1591 C1593 1.419 . S
C1592 C1590 1.415 . S
C1592 C1597 1.425 . S
C1592 C1599 1.409 . S
C1593 H1585 0.930 1_565 S
C1593 C1591 1.419 . S
C1593 C1594 1.362 1_565 S
C1594 H1586 0.930 . S
C1594 C1593 1.362 1_545 S
C1594 C1597 1.409 1_545 S
C1595 H1587 0.930 . S
C1595 C1596 1.355 1_545 S
C1595 C1597 1.415 1_545 S
C1596 C1595 1.355 1_565 S
C1596 C1598 1.419 . S
C1597 C1592 1.425 . S
C1597 C1594 1.409 1_565 S
C1597 C1595 1.415 1_565 S
C1598 H1588 0.930 . S
C1598 C1596 1.419 . S
C1598 C1599 1.362 . S
C1599 H1589 0.930 . S
C1599 C1592 1.409 . S
C1599 C1598 1.362 . S
H1600 C1606 0.930 . S
H1601 C1609 0.930 . S
H1602 C1610 0.930 . S
H1603 C1611 0.930 . S
H1604 C1614 0.925 . S
H1605 C1615 0.930 . S
C1606 H1600 0.930 . S
C1606 C1607 1.355 1_655 S
C1606 C1608 1.415 1_655 S
C1607 C1606 1.355 1_455 S
C1607 C1609 1.419 . S
C1608 C1606 1.415 1_455 S
C1608 C1613 1.425 . S
C1608 C1615 1.409 1_455 S
C1609 H1601 0.930 . S
C1609 C1607 1.419 . S
C1609 C1610 1.362 . S
C1610 H1602 0.930 . S
C1610 C1609 1.362 . S
C1610 C1613 1.409 . S
C1611 H1603 0.930 . S
C1611 C1612 1.355 . S
C1611 C1613 1.415 . S
C1612 C1611 1.355 . S
C1612 C1614 1.420 1_455 S
C1613 C1608 1.425 . S
C1613 C1610 1.409 . S
C1613 C1611 1.415 . S
C1614 H1604 0.925 . S
C1614 C1612 1.420 1_655 S
C1614 C1615 1.367 . S
C1615 H1605 0.930 . S
C1615 C1608 1.409 1_655 S
C1615 C1614 1.367 . S
H1616 C1622 0.930 . S
H1617 C1625 0.930 . S
H1618 C1626 0.930 . S
H1619 C1627 0.930 . S
H1620 C1630 0.930 . S
H1621 C1631 0.930 . S
C1622 H1616 0.930 . S
C1622 C1623 1.355 . S
C1622 C1624 1.415 . S
C1623 C1622 1.355 . S
C1623 C1625 1.419 . S
C1624 C1622 1.415 . S
C1624 C1629 1.425 . S
C1624 C1631 1.409 . S
C1625 H1617 0.930 . S
C1625 C1623 1.419 . S
C1625 C1626 1.362 . S
C1626 H1618 0.930 . S
C1626 C1625 1.362 . S
C1626 C1629 1.409 . S
C1627 H1619 0.930 . S
C1627 C1628 1.355 . S
C1627 C1629 1.415 . S
C1628 C1627 1.355 . S
C1628 C1630 1.419 . S
C1629 C1624 1.425 . S
C1629 C1626 1.409 . S
C1629 C1627 1.415 . S
C1630 H1620 0.930 . S
C1630 C1628 1.419 . S
C1630 C1631 1.362 . S
C1631 H1621 0.930 . S
C1631 C1624 1.409 . S
C1631 C1630 1.362 . S
H1632 C1638 0.930 . S
H1633 C1641 0.930 . S
H1634 C1642 0.930 . S
H1635 C1643 0.930 . S
H1636 C1646 0.930 . S
H1637 C1647 0.930 . S
C1638 H1632 0.930 . S
C1638 C1639 1.355 . S
C1638 C1640 1.415 . S
C1639 C1638 1.355 . S
C1639 C1641 1.419 1_655 S
C1640 C1638 1.415 . S
C1640 C1645 1.425 1_655 S
C1640 C1647 1.409 . S
C1641 H1633 0.930 . S
C1641 C1639 1.419 1_455 S
C1641 C1642 1.362 . S
C1642 H1634 0.930 . S
C1642 C1641 1.362 . S
C1642 C1645 1.409 . S
C1643 H1635 0.930 . S
C1643 C1644 1.355 1_455 S
C1643 C1645 1.415 . S
C1644 C1643 1.355 1_655 S
C1644 C1646 1.419 . S
C1645 C1640 1.425 1_455 S
C1645 C1642 1.409 . S
C1645 C1643 1.415 . S
C1646 H1636 0.930 . S
C1646 C1644 1.419 . S
C1646 C1647 1.362 . S
C1647 H1637 0.930 . S
C1647 C1640 1.409 . S
C1647 C1646 1.362 . S
H1648 C1654 0.930 . S
H1649 C1657 0.930 . S
H1650 C1658 0.930 . S
H1651 C1659 0.930 . S
H1652 C1662 0.930 . S
H1653 C1663 0.930 . S
C1654 H1648 0.930 . S
C1654 C1655 1.355 . S
C1654 C1656 1.415 . S
C1655 C1654 1.355 . S
C1655 C1657 1.419 . S
C1656 C1654 1.415 . S
C1656 C1661 1.425 . S
C1656 C1663 1.409 . S
C1657 H1649 0.930 . S
C1657 C1655 1.419 . S
C1657 C1658 1.362 . S
C1658 H1650 0.930 . S
C1658 C1657 1.362 . S
C1658 C1661 1.409 . S
C1659 H1651 0.930 . S
C1659 C1660 1.355 . S
C1659 C1661 1.415 . S
C1660 C1659 1.355 . S
C1660 C1662 1.419 . S
C1661 C1656 1.425 . S
C1661 C1658 1.409 . S
C1661 C1659 1.415 . S
C1662 H1652 0.930 . S
C1662 C1660 1.419 . S
C1662 C1663 1.362 . S
C1663 H1653 0.930 . S
C1663 C1656 1.409 . S
C1663 C1662 1.362 . S
H1664 C1670 0.930 . S
H1665 C1673 0.930 . S
H1666 C1674 0.930 . S
H1667 C1675 0.930 . S
H1668 C1678 0.930 . S
H1669 C1679 0.930 . S
C1670 H1664 0.930 . S
C1670 C1671 1.355 . S
C1670 C1672 1.415 . S
C1671 C1670 1.355 . S
C1671 C1673 1.419 . S
C1672 C1670 1.415 . S
C1672 C1677 1.425 . S
C1672 C1679 1.409 . S
C1673 H1665 0.930 . S
C1673 C1671 1.419 . S
C1673 C1674 1.362 . S
C1674 H1666 0.930 . S
C1674 C1673 1.362 . S
C1674 C1677 1.409 . S
C1675 H1667 0.930 . S
C1675 C1676 1.355 . S
C1675 C1677 1.415 . S
C1676 C1675 1.355 . S
C1676 C1678 1.419 . S
C1677 C1672 1.425 . S
C1677 C1674 1.409 . S
C1677 C1675 1.415 . S
C1678 H1668 0.930 . S
C1678 C1676 1.419 . S
C1678 C1679 1.362 . S
C1679 H1669 0.930 . S
C1679 C1672 1.409 . S
C1679 C1678 1.362 . S
H1680 C1686 0.930 . S
H1681 C1689 0.930 . S
H1682 C1690 0.930 . S
H1683 C1691 0.930 . S
H1684 C1694 0.930 . S
H1685 C1695 0.930 . S
C1686 H1680 0.930 . S
C1686 C1687 1.355 . S
C1686 C1688 1.415 . S
C1687 C1686 1.355 . S
C1687 C1689 1.419 . S
C1688 C1686 1.415 . S
C1688 C1693 1.425 . S
C1688 C1695 1.409 . S
C1689 H1681 0.930 . S
C1689 C1687 1.419 . S
C1689 C1690 1.362 . S
C1690 H1682 0.930 . S
C1690 C1689 1.362 . S
C1690 C1693 1.409 . S
C1691 H1683 0.930 . S
C1691 C1692 1.355 . S
C1691 C1693 1.415 . S
C1692 C1691 1.355 . S
C1692 C1694 1.419 . S
C1693 C1688 1.425 . S
C1693 C1690 1.409 . S
C1693 C1691 1.415 . S
C1694 H1684 0.930 . S
C1694 C1692 1.419 . S
C1694 C1695 1.362 . S
C1695 H1685 0.930 . S
C1695 C1688 1.409 . S
C1695 C1694 1.362 . S
H1696 C1702 0.930 . S
H1697 C1705 0.930 . S
H1698 C1706 0.930 . S
H1699 C1707 0.930 . S
H1700 C1710 0.930 . S
H1701 C1711 0.930 . S
C1702 H1696 0.930 . S
C1702 C1703 1.355 . S
C1702 C1704 1.415 . S
C1703 C1702 1.355 . S
C1703 C1705 1.419 . S
C1704 C1702 1.415 . S
C1704 C1709 1.425 . S
C1704 C1711 1.409 . S
C1705 H1697 0.930 . S
C1705 C1703 1.419 . S
C1705 C1706 1.362 . S
C1706 H1698 0.930 . S
C1706 C1705 1.362 . S
C1706 C1709 1.409 . S
C1707 H1699 0.930 . S
C1707 C1708 1.355 . S
C1707 C1709 1.415 . S
C1708 C1707 1.355 . S
C1708 C1710 1.419 . S
C1709 C1704 1.425 . S
C1709 C1706 1.409 . S
C1709 C1707 1.415 . S
C1710 H1700 0.930 . S
C1710 C1708 1.419 . S
C1710 C1711 1.362 . S
C1711 H1701 0.930 . S
C1711 C1704 1.409 . S
C1711 C1710 1.362 . S
H1712 C1718 0.930 . S
H1713 C1721 0.930 . S
H1714 C1722 0.930 . S
H1715 C1723 0.930 . S
H1716 C1726 0.930 . S
H1717 C1727 0.930 . S
C1718 H1712 0.930 . S
C1718 C1719 1.355 . S
C1718 C1720 1.415 . S
C1719 C1718 1.355 . S
C1719 C1721 1.419 . S
C1720 C1718 1.415 . S
C1720 C1725 1.425 . S
C1720 C1727 1.409 . S
C1721 H1713 0.930 . S
C1721 C1719 1.419 . S
C1721 C1722 1.362 . S
C1722 H1714 0.930 . S
C1722 C1721 1.362 . S
C1722 C1725 1.409 . S
C1723 H1715 0.930 . S
C1723 C1724 1.355 . S
C1723 C1725 1.415 . S
C1724 C1723 1.355 . S
C1724 C1726 1.419 . S
C1725 C1720 1.425 . S
C1725 C1722 1.409 . S
C1725 C1723 1.415 . S
C1726 H1716 0.930 . S
C1726 C1724 1.419 . S
C1726 C1727 1.362 . S
C1727 H1717 0.930 . S
C1727 C1720 1.409 . S
C1727 C1726 1.362 . S
H1728 C1734 0.930 . S
H1729 C1737 0.930 . S
H1730 C1738 0.930 . S
H1731 C1739 0.930 . S
H1732 C1742 0.930 . S
H1733 C1743 0.930 . S
C1734 H1728 0.930 . S
C1734 C1735 1.355 . S
C1734 C1736 1.415 . S
C1735 C1734 1.355 . S
C1735 C1737 1.419 . S
C1736 C1734 1.415 . S
C1736 C1741 1.425 . S
C1736 C1743 1.409 . S
C1737 H1729 0.930 . S
C1737 C1735 1.419 . S
C1737 C1738 1.362 . S
C1738 H1730 0.930 . S
C1738 C1737 1.362 . S
C1738 C1741 1.409 . S
C1739 H1731 0.930 . S
C1739 C1740 1.355 . S
C1739 C1741 1.415 . S
C1740 C1739 1.355 . S
C1740 C1742 1.419 . S
C1741 C1736 1.425 . S
C1741 C1738 1.409 . S
C1741 C1739 1.415 . S
C1742 H1732 0.930 . S
C1742 C1740 1.419 . S
C1742 C1743 1.362 . S
C1743 H1733 0.930 . S
C1743 C1736 1.409 . S
C1743 C1742 1.362 . S
H1744 C1750 0.930 . S
H1745 C1753 0.930 . S
H1746 C1754 0.930 . S
H1747 C1755 0.930 . S
H1748 C1758 0.930 . S
H1749 C1759 0.930 . S
C1750 H1744 0.930 . S
C1750 C1751 1.355 . S
C1750 C1752 1.415 . S
C1751 C1750 1.355 . S
C1751 C1753 1.419 . S
C1752 C1750 1.415 . S
C1752 C1757 1.425 . S
C1752 C1759 1.409 . S
C1753 H1745 0.930 . S
C1753 C1751 1.419 . S
C1753 C1754 1.362 . S
C1754 H1746 0.930 . S
C1754 C1753 1.362 . S
C1754 C1757 1.409 . S
C1755 H1747 0.930 . S
C1755 C1756 1.355 . S
C1755 C1757 1.415 . S
C1756 C1755 1.355 . S
C1756 C1758 1.419 . S
C1757 C1752 1.425 . S
C1757 C1754 1.409 . S
C1757 C1755 1.415 . S
C1758 H1748 0.930 . S
C1758 C1756 1.419 . S
C1758 C1759 1.362 . S
C1759 H1749 0.930 . S
C1759 C1752 1.409 . S
C1759 C1758 1.362 . S
H1760 C1766 0.930 . S
H1761 C1769 0.930 . S
H1762 C1770 0.930 . S
H1763 C1771 0.930 . S
H1764 C1774 0.930 . S
H1765 C1775 0.930 . S
C1766 H1760 0.930 . S
C1766 C1767 1.355 . S
C1766 C1768 1.415 . S
C1767 C1766 1.355 . S
C1767 C1769 1.419 . S
C1768 C1766 1.415 . S
C1768 C1773 1.425 . S
C1768 C1775 1.409 . S
C1769 H1761 0.930 . S
C1769 C1767 1.419 . S
C1769 C1770 1.362 . S
C1770 H1762 0.930 . S
C1770 C1769 1.362 . S
C1770 C1773 1.409 . S
C1771 H1763 0.930 . S
C1771 C1772 1.355 . S
C1771 C1773 1.415 . S
C1772 C1771 1.355 . S
C1772 C1774 1.419 . S
C1773 C1768 1.425 . S
C1773 C1770 1.409 . S
C1773 C1771 1.415 . S
C1774 H1764 0.930 . S
C1774 C1772 1.419 . S
C1774 C1775 1.362 . S
C1775 H1765 0.930 . S
C1775 C1768 1.409 . S
C1775 C1774 1.362 . S
H1776 C1782 0.930 . S
H1777 C1785 0.930 . S
H1778 C1786 0.930 . S
H1779 C1787 0.930 . S
H1780 C1790 0.930 . S
H1781 C1791 0.930 . S
C1782 H1776 0.930 . S
C1782 C1783 1.355 . S
C1782 C1784 1.415 . S
C1783 C1782 1.355 . S
C1783 C1785 1.419 . S
C1784 C1782 1.415 . S
C1784 C1789 1.425 . S
C1784 C1791 1.409 . S
C1785 H1777 0.930 . S
C1785 C1783 1.419 . S
C1785 C1786 1.362 . S
C1786 H1778 0.930 . S
C1786 C1785 1.362 . S
C1786 C1789 1.409 . S
C1787 H1779 0.930 . S
C1787 C1788 1.355 . S
C1787 C1789 1.415 . S
C1788 C1787 1.355 . S
C1788 C1790 1.419 . S
C1789 C1784 1.425 . S
C1789 C1786 1.409 . S
C1789 C1787 1.415 . S
C1790 H1780 0.930 . S
C1790 C1788 1.419 . S
C1790 C1791 1.362 . S
C1791 H1781 0.930 . S
C1791 C1784 1.409 . S
C1791 C1790 1.362 . S
H1792 C1798 0.930 . S
H1793 C1801 0.930 . S
H1794 C1802 0.930 . S
H1795 C1803 0.930 . S
H1796 C1806 0.930 . S
H1797 C1807 0.930 . S
C1798 H1792 0.930 . S
C1798 C1799 1.355 . S
C1798 C1800 1.415 . S
C1799 C1798 1.355 . S
C1799 C1801 1.419 . S
C1800 C1798 1.415 . S
C1800 C1805 1.425 . S
C1800 C1807 1.409 . S
C1801 H1793 0.930 . S
C1801 C1799 1.419 . S
C1801 C1802 1.362 . S
C1802 H1794 0.930 . S
C1802 C1801 1.362 . S
C1802 C1805 1.409 . S
C1803 H1795 0.930 . S
C1803 C1804 1.355 . S
C1803 C1805 1.415 . S
C1804 C1803 1.355 . S
C1804 C1806 1.419 . S
C1805 C1800 1.425 . S
C1805 C1802 1.409 . S
C1805 C1803 1.415 . S
C1806 H1796 0.930 . S
C1806 C1804 1.419 . S
C1806 C1807 1.362 . S
C1807 H1797 0.930 . S
C1807 C1800 1.409 . S
C1807 C1806 1.362 . S
H1808 C1814 0.930 . S
H1809 C1817 0.930 . S
H1810 C1818 0.930 . S
H1811 C1819 0.930 . S
H1812 C1822 0.930 . S
H1813 C1823 0.930 . S
C1814 H1808 0.930 . S
C1814 C1815 1.355 . S
C1814 C1816 1.415 . S
C1815 C1814 1.355 . S
C1815 C1817 1.419 . S
C1816 C1814 1.415 . S
C1816 C1821 1.425 . S
C1816 C1823 1.409 . S
C1817 H1809 0.930 . S
C1817 C1815 1.419 . S
C1817 C1818 1.362 . S
C1818 H1810 0.930 . S
C1818 C1817 1.362 . S
C1818 C1821 1.409 . S
C1819 H1811 0.930 . S
C1819 C1820 1.355 . S
C1819 C1821 1.415 . S
C1820 C1819 1.355 . S
C1820 C1822 1.419 . S
C1821 C1816 1.425 . S
C1821 C1818 1.409 . S
C1821 C1819 1.415 . S
C1822 H1812 0.930 . S
C1822 C1820 1.419 . S
C1822 C1823 1.362 . S
C1823 H1813 0.930 . S
C1823 C1816 1.409 . S
C1823 C1822 1.362 . S
H1824 C1830 0.930 . S
H1825 C1833 0.930 . S
H1826 C1834 0.930 . S
H1827 C1835 0.930 . S
H1828 C1838 0.930 . S
H1829 C1839 0.930 . S
C1830 H1824 0.930 . S
C1830 C1831 1.355 . S
C1830 C1832 1.415 . S
C1831 C1830 1.355 . S
C1831 C1833 1.419 . S
C1832 C1830 1.415 . S
C1832 C1837 1.425 . S
C1832 C1839 1.409 . S
C1833 H1825 0.930 . S
C1833 C1831 1.419 . S
C1833 C1834 1.362 . S
C1834 H1826 0.930 . S
C1834 C1833 1.362 . S
C1834 C1837 1.409 . S
C1835 H1827 0.930 . S
C1835 C1836 1.355 . S
C1835 C1837 1.415 . S
C1836 C1835 1.355 . S
C1836 C1838 1.419 . S
C1837 C1832 1.425 . S
C1837 C1834 1.409 . S
C1837 C1835 1.415 . S
C1838 H1828 0.930 . S
C1838 C1836 1.419 . S
C1838 C1839 1.362 . S
C1839 H1829 0.930 . S
C1839 C1832 1.409 . S
C1839 C1838 1.362 . S
H1840 C1846 0.930 . S
H1841 C1849 0.930 . S
H1842 C1850 0.930 . S
H1843 C1851 0.930 . S
H1844 C1854 0.930 . S
H1845 C1855 0.930 . S
C1846 H1840 0.930 . S
C1846 C1847 1.355 . S
C1846 C1848 1.415 . S
C1847 C1846 1.355 . S
C1847 C1849 1.419 . S
C1848 C1846 1.415 . S
C1848 C1853 1.425 . S
C1848 C1855 1.409 . S
C1849 H1841 0.930 . S
C1849 C1847 1.419 . S
C1849 C1850 1.362 . S
C1850 H1842 0.930 . S
C1850 C1849 1.362 . S
C1850 C1853 1.409 . S
C1851 H1843 0.930 . S
C1851 C1852 1.355 . S
C1851 C1853 1.415 . S
C1852 C1851 1.355 . S
C1852 C1854 1.419 . S
C1853 C1848 1.425 . S
C1853 C1850 1.409 . S
C1853 C1851 1.415 . S
C1854 H1844 0.930 . S
C1854 C1852 1.419 . S
C1854 C1855 1.362 . S
C1855 H1845 0.930 . S
C1855 C1848 1.409 . S
C1855 C1854 1.362 . S
H1856 C1862 0.930 . S
H1857 C1865 0.930 . S
H1858 C1866 0.930 . S
H1859 C1867 0.930 . S
H1860 C1870 0.930 . S
H1861 C1871 0.930 . S
C1862 H1856 0.930 . S
C1862 C1863 1.355 . S
C1862 C1864 1.415 . S
C1863 C1862 1.355 . S
C1863 C1865 1.419 . S
C1864 C1862 1.415 . S
C1864 C1869 1.425 . S
C1864 C1871 1.409 . S
C1865 H1857 0.930 . S
C1865 C1863 1.419 . S
C1865 C1866 1.362 . S
C1866 H1858 0.930 . S
C1866 C1865 1.362 . S
C1866 C1869 1.409 . S
C1867 H1859 0.930 . S
C1867 C1868 1.355 . S
C1867 C1869 1.415 . S
C1868 C1867 1.355 . S
C1868 C1870 1.419 . S
C1869 C1864 1.425 . S
C1869 C1866 1.409 . S
C1869 C1867 1.415 . S
C1870 H1860 0.930 . S
C1870 C1868 1.419 . S
C1870 C1871 1.362 . S
C1871 H1861 0.930 . S
C1871 C1864 1.409 . S
C1871 C1870 1.362 . S
C1015 C469 1.685 . S
C1020 C660 1.691 . S
C1031 C505 1.778 . S
C1036 C700 1.777 . S
C1047 C433 1.753 . S
C1052 C730 1.740 . S
C1063 C397 1.588 . S
C1068 C690 1.589 . S
C1084 C740 1.502 . S
C1079 C325 1.504 . S
C1095 C361 1.450 . S
C1100 C650 1.500 . S
C1116 C679 1.704 . S
C1111 C421 1.708 . S
C1132 C719 1.767 . S
C1127 C349 1.771 . S
C1143 C385 1.758 . S
C1148 C745 1.769 . S
C1159 C493 1.603 . S
C1164 C705 1.577 . S
C1175 C529 1.495 . S
C1180 C759 1.490 . S
C1196 C665 1.468 . S
C1191 C457 1.456 . S
C1212 C780 1.719 . S
C1207 C37 1.717 . S
C1223 C73 1.789 . S
C1228 C820 1.776 . S
C1239 C1 1.751 . S
C1244 C850 1.745 . S
C1255 C613 1.607 . S
C1260 C810 1.611 . S
C1271 C541 1.479 . S
C1276 C860 1.495 . S
C1287 C577 1.512 . S
C1292 C770 1.517 . S
C1303 C637 1.689 . S
C1308 C799 1.689 . S
C1319 C565 1.783 . S
C1324 C839 1.782 . S
C1340 C865 1.785 . S
C1335 C601 1.775 . S
C1351 C61 1.596 . S
C1356 C825 1.597 . S
C1372 C879 1.490 . S
C1367 C97 1.494 1_455 S
C1383 C25 1.510 . S
C1388 C785 1.506 . S
C1404 C900 1.689 . S
C1399 C253 1.681 . S
C1415 C289 1.792 . S
C1420 C940 1.781 . S
C1436 C970 1.762 . S
C1431 C217 1.790 . S
C1452 C930 1.585 . S
C1447 C181 1.585 . S
C1468 C980 1.502 . S
C1463 C109 1.505 1_655 S
C1479 C145 1.493 . S
C1484 C890 1.518 . S
C1495 C205 1.710 . S
C1500 C919 1.713 . S
C1511 C133 1.785 . S
C1516 C959 1.780 . S
C1532 C985 1.793 . S
C1527 C169 1.798 . S
C1543 C277 1.593 . S
C1548 C945 1.593 . S
C1559 C313 1.495 . S
C1564 C999 1.490 . S
C1575 C241 1.488 . S
C1580 C905 1.508 . S
C1591 C571 1.348 . S
C1596 C677 1.345 . S
C1612 C717 1.823 . S
C1607 C607 1.848 . S
C1623 C643 1.585 . S
C1628 C736 1.578 . S
C1639 C247 1.865 . S
C1644 C696 1.830 . S
C1655 C283 1.578 . S
C1660 C757 1.582 . S
C1676 C656 1.362 . S
C1671 C319 1.351 . S
C1687 C139 1.362 . S
C1692 C797 1.360 . S
C1703 C175 1.853 . S
C1708 C837 1.816 . S
C1719 C211 1.563 . S
C1724 C856 1.563 . S
C1735 C463 1.844 . S
C1740 C816 1.802 . S
C1756 C877 1.558 . S
C1751 C499 1.570 . S
C1767 C535 1.354 . S
C1772 C776 1.362 . S
C1783 C355 1.348 . S
C1788 C917 1.346 . S
C1799 C391 1.866 . S
C1804 C957 1.840 . S
C1820 C976 1.584 . S
C1815 C427 1.578 . S
C1831 C31 1.868 . S
C1836 C936 1.848 . S
C1847 C67 1.576 . S
C1852 C997 1.558 . S
C1863 C103 1.354 . S
C1868 C896 1.322 . S
