# Generated by pormake.
# Topology pth, (4,4)-cn, num edge types: 1
# Building blocks:
#     Node 0, Type 0, BuildingBlock: CEKHIL_clean_sbu_0, # of connection points: 4
#     Node 1, Type 0, BuildingBlock: CEKHIL_clean_sbu_0, # of connection points: 4
#     Node 2, Type 0, BuildingBlock: CEKHIL_clean_sbu_0, # of connection points: 4
#     Node 3, Type 1, BuildingBlock: AZAVOO_clean_linker_0, # of connection points: 4
#     Node 4, Type 1, BuildingBlock: AZAVOO_clean_linker_0, # of connection points: 4
#     Node 5, Type 1, BuildingBlock: AZAVOO_clean_linker_0, # of connection points: 4
#     Edge 6, Type (0, 1), BuildingBlock: ZUJKAS_clean_linker_0, # of connection points: 2
#     Edge 7, Type (0, 1), BuildingBlock: ZUJKAS_clean_linker_0, # of connection points: 2
#     Edge 8, Type (0, 1), BuildingBlock: ZUJKAS_clean_linker_0, # of connection points: 2
#     Edge 9, Type (0, 1), BuildingBlock: ZUJKAS_clean_linker_0, # of connection points: 2
#     Edge 10, Type (0, 1), BuildingBlock: ZUJKAS_clean_linker_0, # of connection points: 2
#     Edge 11, Type (0, 1), BuildingBlock: ZUJKAS_clean_linker_0, # of connection points: 2
#     Edge 12, Type (0, 1), BuildingBlock: ZUJKAS_clean_linker_0, # of connection points: 2
#     Edge 13, Type (0, 1), BuildingBlock: ZUJKAS_clean_linker_0, # of connection points: 2
#     Edge 14, Type (0, 1), BuildingBlock: ZUJKAS_clean_linker_0, # of connection points: 2
#     Edge 15, Type (0, 1), BuildingBlock: ZUJKAS_clean_linker_0, # of connection points: 2
#     Edge 16, Type (0, 1), BuildingBlock: ZUJKAS_clean_linker_0, # of connection points: 2
#     Edge 17, Type (0, 1), BuildingBlock: ZUJKAS_clean_linker_0, # of connection points: 2
# Relax obj value: 0.097
# Max RMSD: 0.224
# Mean RMSD: 0.144
data_MOF--net-pth--node1-CEKHIL_clean_sbu_0--node2-AZAVOO_clean_linker_0--edge1-ZUJKAS_clean_linker_0
_symmetry_space_group_name_H-M    P1
_symmetry_Int_Tables_number       1
_symmetry_cell_setting            triclinic
loop_
_symmetry_equiv_pos_as_xyz
'x, y, z'
_cell_length_a     32.387121
_cell_length_b     32.776633
_cell_length_c     89.63767
_cell_angle_alpha  93.003613
_cell_angle_beta   89.088277
_cell_angle_gamma 120.30018
loop_
_atom_site_label
_atom_site_type_symbol
_atom_site_fract_x
_atom_site_fract_y
_atom_site_fract_z
_atom_type_partial_charge
Co0 Co 0.06037 0.06072 0.0781 0.0
O1 O 0.02691 0.00389 0.08882 0.0
O2 O 0.09144 0.0236 0.07525 0.0
C3 C 0.06226 0.10935 0.09715 0.0
O4 O 0.10537 0.117 0.06595 0.0
Co5 Co 0.01338 0.1204 0.07195 0.0
O6 O 0.07852 0.1682 0.0658 0.0
C7 C 0.98504 0.03229 0.05369 0.0
C8 C 0.05909 0.99404 0.08409 0.0
C9 C 0.11028 0.15708 0.06277 0.0
O10 O 0.01791 0.02803 0.06006 0.0
O11 O 0.97541 0.06472 0.05759 0.0
O12 O 0.09394 0.09618 0.09635 0.0
O13 O 0.02859 0.09007 0.08713 0.0
Co14 Co 0.03329 0.07965 0.39882 0.0
O15 O 0.99671 0.09443 0.38571 0.0
O16 O 0.06313 0.14748 0.39766 0.0
C17 C 0.03346 0.02256 0.38373 0.0
O18 O 0.08181 0.078 0.41261 0.0
Co19 Co 0.99024 0.97977 0.41153 0.0
O20 O 0.05768 0.00242 0.41714 0.0
C21 C 0.96433 0.04815 0.42495 0.0
C22 C 0.02889 0.13858 0.38832 0.0
C23 C 0.08905 0.04633 0.41792 0.0
O24 O 0.99435 0.08049 0.41653 0.0
O25 O 0.95528 0.00528 0.42386 0.0
O26 O 0.06368 0.06684 0.38166 0.0
O27 O 0.00158 0.01462 0.39376 0.0
Co28 Co 0.04318 0.06652 0.73273 0.0
O29 O 0.09062 0.09072 0.71739 0.0
O30 O 0.08227 0.03745 0.73324 0.0
C31 C 0.98127 0.0544 0.71831 0.0
O32 O 0.99748 0.03118 0.74945 0.0
Co33 Co 0.99031 0.11884 0.74361 0.0
O34 O 0.94934 0.06087 0.75449 0.0
C35 C 0.09086 0.15728 0.75248 0.0
C36 C 0.10513 0.0632 0.7221 0.0
C37 C 0.96157 0.03004 0.75621 0.0
O38 O 0.08866 0.11907 0.74709 0.0
O39 O 0.05651 0.16564 0.75125 0.0
O40 O 0.99499 0.02331 0.71809 0.0
O41 O 0.00759 0.09307 0.72621 0.0
H42 H 0.99607 0.46306 0.14255 0.0
H43 H 0.13352 0.87887 0.25655 0.0
H44 H 0.97006 0.45274 0.22188 0.0
H45 H 0.97193 0.38568 0.2094 0.0
H46 H 0.11631 0.44104 0.22579 0.0
H47 H 0.1146 0.50893 0.23779 0.0
H48 H 0.97734 0.5337 0.20207 0.0
H49 H 0.97221 0.50282 0.17629 0.0
H50 H 0.11123 0.51642 0.18151 0.0
H51 H 0.11623 0.54803 0.20718 0.0
H52 H 0.99159 0.63198 0.21706 0.0
H53 H 0.99749 0.67967 0.19611 0.0
H54 H 0.13422 0.69417 0.18463 0.0
H55 H 0.12812 0.6467 0.20566 0.0
H56 H 0.99177 0.64411 0.25135 0.0
H57 H 0.00323 0.72243 0.25824 0.0
H58 H 0.14976 0.78673 0.24351 0.0
H59 H 0.13792 0.7081 0.23684 0.0
H60 H 0.98303 0.57348 0.27169 0.0
H61 H 0.9868 0.61921 0.29461 0.0
H62 H 0.14015 0.7052 0.29015 0.0
H63 H 0.13562 0.66004 0.26701 0.0
H64 H 0.97061 0.47157 0.25886 0.0
H65 H 0.96582 0.42298 0.27937 0.0
H66 H 0.11806 0.51269 0.28723 0.0
H67 H 0.12188 0.56183 0.26704 0.0
O68 O 0.99901 0.47569 0.15272 0.0
O69 O 0.07023 0.48266 0.15607 0.0
O70 O 0.05234 0.81266 0.26126 0.0
O71 O 0.12787 0.84753 0.25378 0.0
C72 C 0.04628 0.53236 0.23412 0.0
C73 C 0.04951 0.56069 0.22224 0.0
C74 C 0.05523 0.60594 0.22534 0.0
C75 C 0.05771 0.62283 0.24028 0.0
C76 C 0.05513 0.59476 0.25213 0.0
C77 C 0.04927 0.54948 0.24907 0.0
C78 C 0.04235 0.48584 0.23059 0.0
C79 C 0.00148 0.44951 0.22317 0.0
C80 C 0.00263 0.41117 0.21607 0.0
C81 C 0.04461 0.40849 0.2164 0.0
C82 C 0.0838 0.44264 0.2251 0.0
C83 C 0.0827 0.48111 0.23212 0.0
C84 C 0.04706 0.54293 0.20649 0.0
C85 C 0.00674 0.53023 0.19758 0.0
C86 C 0.00386 0.51248 0.18288 0.0
C87 C 0.04126 0.50704 0.17684 0.0
C88 C 0.08176 0.5201 0.18581 0.0
C89 C 0.08468 0.53806 0.20048 0.0
C90 C 0.05941 0.6359 0.21287 0.0
C91 C 0.02294 0.64578 0.21008 0.0
C92 C 0.02641 0.67302 0.19813 0.0
C93 C 0.06629 0.69055 0.1887 0.0
C94 C 0.10281 0.68065 0.19158 0.0
C95 C 0.09948 0.65374 0.2036 0.0
C96 C 0.06404 0.67053 0.24363 0.0
C97 C 0.02627 0.67519 0.24961 0.0
C98 C 0.03293 0.71994 0.25353 0.0
C99 C 0.07748 0.76087 0.25146 0.0
C100 C 0.11504 0.75598 0.24527 0.0
C101 C 0.10835 0.71117 0.24139 0.0
C102 C 0.059 0.61378 0.2677 0.0
C103 C 0.01753 0.60125 0.27595 0.0
C104 C 0.01983 0.62743 0.28904 0.0
C105 C 0.06372 0.66635 0.29407 0.0
C106 C 0.1057 0.67606 0.2864 0.0
C107 C 0.1033 0.65006 0.27329 0.0
C108 C 0.04654 0.52016 0.26151 0.0
C109 C 0.00281 0.48068 0.26508 0.0
C110 C 0.00027 0.45284 0.27674 0.0
C111 C 0.04159 0.46379 0.28499 0.0
C112 C 0.08538 0.50358 0.28133 0.0
C113 C 0.08776 0.53157 0.26973 0.0
C114 C 0.0379 0.48777 0.16127 0.0
C115 C 0.08493 0.80846 0.2558 0.0
H116 H 0.60887 0.07547 0.47538 0.0
H117 H 0.30618 0.14393 0.59636 0.0
H118 H 0.59196 0.02039 0.55342 0.0
H119 H 0.66064 0.02565 0.5401 0.0
H120 H 0.74903 0.16881 0.5584 0.0
H121 H 0.67948 0.1633 0.57153 0.0
H122 H 0.51884 0.03215 0.53398 0.0
H123 H 0.54536 0.03733 0.50807 0.0
H124 H 0.66272 0.17883 0.51853 0.0
H125 H 0.63535 0.17341 0.54434 0.0
H126 H 0.43005 0.03144 0.55082 0.0
H127 H 0.38288 0.03588 0.53061 0.0
H128 H 0.49473 0.17964 0.52384 0.0
H129 H 0.54084 0.17531 0.54447 0.0
H130 H 0.41784 0.02122 0.58406 0.0
H131 H 0.34622 0.02368 0.59168 0.0
H132 H 0.41968 0.17358 0.58445 0.0
H133 H 0.4913 0.1707 0.57706 0.0
H134 H 0.48326 0.00708 0.60137 0.0
H135 H 0.44145 0.99553 0.62523 0.0
H136 H 0.49861 0.14632 0.63105 0.0
H137 H 0.53977 0.15746 0.60713 0.0
H138 H 0.57828 0.00885 0.58655 0.0
H139 H 0.62622 0.99778 0.60504 0.0
H140 H 0.67685 0.13981 0.62354 0.0
H141 H 0.62933 0.15072 0.60484 0.0
O142 O 0.59863 0.07441 0.48563 0.0
O143 O 0.6586 0.14687 0.49162 0.0
O144 O 0.29801 0.06492 0.59707 0.0
O145 O 0.334 0.14194 0.59339 0.0
C146 C 0.58715 0.09246 0.56789 0.0
C147 C 0.56009 0.09832 0.55686 0.0
C148 C 0.51819 0.09912 0.56084 0.0
C149 C 0.5036 0.09451 0.57588 0.0
C150 C 0.53081 0.0888 0.58691 0.0
C151 C 0.57248 0.08754 0.58291 0.0
C152 C 0.63084 0.09149 0.56336 0.0
C153 C 0.62654 0.05227 0.55494 0.0
C154 C 0.66587 0.05541 0.54735 0.0
C155 C 0.71019 0.09787 0.54808 0.0
C156 C 0.71518 0.13588 0.55748 0.0
C157 C 0.67573 0.13264 0.56511 0.0
C158 C 0.5752 0.10239 0.54101 0.0
C159 C 0.55003 0.06435 0.5306 0.0
C160 C 0.56536 0.06736 0.51583 0.0
C161 C 0.60624 0.10846 0.51123 0.0
C162 C 0.63114 0.14666 0.5217 0.0
C163 C 0.61563 0.14366 0.53644 0.0
C164 C 0.48875 0.10307 0.54911 0.0
C165 C 0.44402 0.06406 0.54508 0.0
C166 C 0.41742 0.06652 0.53343 0.0
C167 C 0.43523 0.108 0.52552 0.0
C168 C 0.47981 0.14733 0.52978 0.0
C169 C 0.5063 0.14488 0.54149 0.0
C170 C 0.45977 0.09584 0.58011 0.0
C171 C 0.41842 0.05457 0.5842 0.0
C172 C 0.37755 0.05607 0.5885 0.0
C173 C 0.37725 0.09888 0.58869 0.0
C174 C 0.4187 0.14007 0.58444 0.0
C175 C 0.45962 0.13853 0.58019 0.0
C176 C 0.51438 0.08307 0.60258 0.0
C177 C 0.48777 0.03766 0.60802 0.0
C178 C 0.46376 0.03112 0.62156 0.0
C179 C 0.4667 0.07003 0.62992 0.0
C180 C 0.49612 0.1158 0.6249 0.0
C181 C 0.51957 0.12223 0.61127 0.0
C182 C 0.60049 0.08059 0.59437 0.0
C183 C 0.59972 0.03748 0.59462 0.0
C184 C 0.62684 0.03115 0.60524 0.0
C185 C 0.65534 0.06794 0.61574 0.0
C186 C 0.65569 0.11101 0.61549 0.0
C187 C 0.62841 0.11722 0.6049 0.0
C188 C 0.62286 0.11127 0.49559 0.0
C189 C 0.33396 0.10069 0.59331 0.0
H190 H 0.61259 0.67885 -0.0003 0.0
H191 H 0.30527 0.27043 0.88598 0.0
H192 H 0.59748 0.68515 0.91988 0.0
H193 H 0.66417 0.75183 0.93341 0.0
H194 H 0.7544 0.69314 0.9218 0.0
H195 H 0.68687 0.62593 0.90846 0.0
H196 H 0.52352 0.60781 0.94059 0.0
H197 H 0.54927 0.63924 0.96625 0.0
H198 H 0.66648 0.61201 0.96166 0.0
H199 H 0.63985 0.57998 0.93611 0.0
H200 H 0.43591 0.51504 0.92528 0.0
H201 H 0.38648 0.46659 0.94543 0.0
H202 H 0.49681 0.43539 0.95642 0.0
H203 H 0.5454 0.48295 0.93596 0.0
H204 H 0.42882 0.50657 0.88991 0.0
H205 H 0.35548 0.43252 0.88304 0.0
H206 H 0.41881 0.35369 0.89883 0.0
H207 H 0.49222 0.42805 0.90545 0.0
H208 H 0.50706 0.58451 0.87069 0.0
H209 H 0.46756 0.54901 0.84658 0.0
H210 H 0.49609 0.4348 0.85126 0.0
H211 H 0.53736 0.4718 0.87494 0.0
H212 H 0.58771 0.67171 0.88585 0.0
H213 H 0.63861 0.724 0.86658 0.0
H214 H 0.69296 0.6296 0.85625 0.0
H215 H 0.64188 0.57751 0.8756 0.0
O216 O 0.60237 0.66528 0.98966 0.0
O217 O 0.66226 0.65093 0.98667 0.0
O218 O 0.30304 0.34243 0.88057 0.0
O219 O 0.33381 0.30023 0.88862 0.0
C220 C 0.59425 0.60481 0.90914 0.0
C221 C 0.56602 0.57568 0.92063 0.0
C222 C 0.5242 0.53223 0.91703 0.0
C223 C 0.51073 0.51772 0.90192 0.0
C224 C 0.5396 0.54643 0.89039 0.0
C225 C 0.58128 0.59016 0.89403 0.0
C226 C 0.63741 0.65075 0.91329 0.0
C227 C 0.63213 0.68764 0.91981 0.0
C228 C 0.67032 0.7257 0.92753 0.0
C229 C 0.71439 0.7274 0.92884 0.0
C230 C 0.72065 0.69238 0.92116 0.0
C231 C 0.68237 0.65431 0.9134 0.0
C232 C 0.57984 0.59168 0.93652 0.0
C233 C 0.5544 0.60818 0.94523 0.0
C234 C 0.56934 0.62631 0.95985 0.0
C235 C 0.61007 0.62833 0.96599 0.0
C236 C 0.63503 0.61105 0.95727 0.0
C237 C 0.61991 0.59273 0.94269 0.0
C238 C 0.49411 0.50236 0.92916 0.0
C239 C 0.44919 0.49748 0.932 0.0
C240 C 0.42125 0.47014 0.94358 0.0
C241 C 0.4378 0.44725 0.95257 0.0
C242 C 0.48283 0.45213 0.94962 0.0
C243 C 0.51074 0.47948 0.93801 0.0
C244 C 0.46582 0.47263 0.89814 0.0
C245 C 0.42679 0.47326 0.89185 0.0
C246 C 0.38493 0.43092 0.88796 0.0
C247 C 0.38129 0.38715 0.89038 0.0
C248 C 0.42042 0.38675 0.89681 0.0
C249 C 0.46233 0.42914 0.90064 0.0
C250 C 0.52484 0.53058 0.87458 0.0
C251 C 0.50618 0.55271 0.86623 0.0
C252 C 0.48309 0.53202 0.85255 0.0
C253 C 0.47795 0.48862 0.84707 0.0
C254 C 0.49968 0.46838 0.85503 0.0
C255 C 0.52312 0.48934 0.86862 0.0
C256 C 0.61118 0.62092 0.88208 0.0
C257 C 0.61051 0.66231 0.87937 0.0
C258 C 0.63938 0.69194 0.86833 0.0
C259 C 0.66973 0.68085 0.8599 0.0
C260 C 0.67022 0.63922 0.86265 0.0
C261 C 0.64097 0.60937 0.87361 0.0
C262 C 0.62658 0.64876 0.98139 0.0
C263 C 0.33697 0.34206 0.88621 0.0
H264 H -0.00073 0.1409 0.10166 0.0
H265 H 0.99839 0.19152 0.12258 0.0
H266 H 0.12596 0.20203 0.14089 0.0
H267 H 0.12686 0.15106 0.12009 0.0
H268 H 0.05227 0.17928 0.1618 0.0
H269 H 0.089 0.33485 0.12996 0.0
H270 H 0.03984 0.2796 0.12281 0.0
H271 H 0.0994 0.28873 0.12238 0.0
C272 C 0.02735 0.15432 0.11007 0.0
C273 C 0.0632 0.14214 0.10923 0.0
C274 C 0.02687 0.18332 0.12198 0.0
C275 C 0.06236 0.20079 0.13318 0.0
C276 C 0.09833 0.18892 0.13232 0.0
H277 H 0.12125 0.42537 0.19923 0.0
H278 H 0.12665 0.37264 0.18011 0.0
C279 C 0.09886 0.15996 0.12042 0.0
C280 C 0.06128 0.23045 0.14602 0.0
H281 H 0.06693 0.33541 0.15529 0.0
C282 C 0.05562 0.21351 0.16042 0.0
C283 C 0.06612 0.2752 0.14415 0.0
C284 C 0.07436 0.29599 0.12902 0.0
C285 C 0.05406 0.23998 0.17301 0.0
C286 C 0.05768 0.28418 0.17109 0.0
C287 C 0.06389 0.30133 0.15671 0.0
C288 C 0.05575 0.31378 0.18381 0.0
C289 C 0.04929 0.2208 0.18827 0.0
C290 C 0.01428 0.29784 0.19239 0.0
C291 C 0.01124 0.32779 0.2035 0.0
C292 C 0.04957 0.37423 0.20613 0.0
C293 C 0.09147 0.38952 0.19774 0.0
C294 C 0.09447 0.3596 0.18669 0.0
H295 H 0.05887 0.19267 0.1882 0.0
H296 H 0.07238 0.24942 0.19661 0.0
H297 H 0.01165 0.20527 0.19193 0.0
H298 H 0.9837 0.26283 0.19018 0.0
H299 H 0.97854 0.31499 0.20979 0.0
H300 H 0.90195 0.9906 0.44559 0.0
H301 H 0.86897 0.01281 0.46698 0.0
H302 H 0.9412 0.15729 0.45396 0.0
H303 H 0.97484 0.13556 0.43234 0.0
H304 H 0.92901 0.08884 0.49018 0.0
H305 H 0.7952 0.11614 0.46066 0.0
H306 H 0.81787 0.07999 0.45237 0.0
H307 H 0.85536 0.1431 0.45371 0.0
C308 C 0.91068 0.0271 0.44711 0.0
C309 C 0.94119 0.0613 0.43719 0.0
C310 C 0.89185 0.0397 0.45941 0.0
C311 C 0.90273 0.08658 0.46201 0.0
C312 C 0.93228 0.12082 0.45204 0.0
H313 H 0.76628 0.17382 0.53146 0.0
H314 H 0.82179 0.17927 0.51181 0.0
C315 C 0.9514 0.10829 0.43971 0.0
C316 C 0.8836 0.09915 0.47543 0.0
H317 H 0.79567 0.12139 0.48687 0.0
C318 C 0.90025 0.09657 0.4895 0.0
C319 C 0.84647 0.10957 0.47443 0.0
C320 C 0.82729 0.11228 0.45952 0.0
C321 C 0.87965 0.10275 0.50267 0.0
C322 C 0.84067 0.11056 0.50169 0.0
C323 C 0.82549 0.11527 0.48761 0.0
C324 C 0.81254 0.11015 0.51494 0.0
C325 C 0.89956 0.10041 0.5175 0.0
C326 C 0.7895 0.06978 0.52338 0.0
C327 C 0.75817 0.06675 0.53473 0.0
C328 C 0.74891 0.10388 0.53775 0.0
C329 C 0.77328 0.14495 0.52961 0.0
C330 C 0.80471 0.14798 0.51828 0.0
H331 H 0.9378 0.11057 0.5166 0.0
H332 H 0.89627 0.12391 0.52622 0.0
H333 H 0.87945 0.06355 0.52115 0.0
H334 H 0.79417 0.03972 0.52079 0.0
H335 H 0.74005 0.03474 0.54083 0.0
H336 H 0.89306 0.0235 0.7758 0.0
H337 H 0.84749 0.96128 0.7931 0.0
H338 H 0.9205 0.88793 0.77765 0.0
H339 H 0.96668 0.95021 0.76027 0.0
H340 H 0.81383 0.83115 0.77951 0.0
H341 H 0.90467 0.93738 0.83152 0.0
H342 H 0.88535 0.96529 0.81881 0.0
H343 H 0.93142 0.95259 0.81332 0.0
C344 C 0.8996 0.99423 0.77605 0.0
C345 C 0.93373 0.992 0.76665 0.0
C346 C 0.8736 0.9588 0.78599 0.0
C347 C 0.88103 0.92037 0.78673 0.0
C348 C 0.91451 0.91753 0.77727 0.0
H349 H 0.76447 0.71177 0.85531 0.0
H350 H 0.81708 0.76727 0.83695 0.0
C351 C 0.94089 0.95319 0.76738 0.0
C352 C 0.85315 0.88293 0.79726 0.0
H353 H 0.83394 0.86335 0.83443 0.0
C354 C 0.81841 0.83797 0.79152 0.0
C355 C 0.85958 0.89198 0.81289 0.0
C356 C 0.89751 0.93928 0.81957 0.0
C357 C 0.78877 0.80216 0.80107 0.0
C358 C 0.79404 0.81178 0.8167 0.0
C359 C 0.82984 0.85625 0.82243 0.0
C360 C 0.76181 0.77663 0.8273 0.0
C361 C 0.7519 0.75436 0.7944 0.0
C362 C 0.71345 0.76379 0.82796 0.0
C363 C 0.68344 0.73234 0.83846 0.0
C364 C 0.70124 0.71304 0.84844 0.0
C365 C 0.74964 0.72565 0.84765 0.0
C366 C 0.77974 0.75745 0.83723 0.0
H367 H 0.7593 0.74936 0.7825 0.0
H368 H 0.75058 0.72558 0.80078 0.0
H369 H 0.71611 0.75111 0.79498 0.0
H370 H 0.69912 0.77868 0.82051 0.0
H371 H 0.64626 0.72304 0.83875 0.0
H372 H 0.13445 0.97812 0.0835 0.0
H373 H 0.14157 0.91923 0.09734 0.0
H374 H 0.99624 0.86188 0.11221 0.0
H375 H 0.98885 0.92016 0.09846 0.0
H376 H 0.13145 0.91595 0.1284 0.0
H377 H 0.00308 0.74267 0.10095 0.0
H378 H 0.0259 0.79775 0.0918 0.0
H379 H 0.97749 0.77953 0.10478 0.0
C380 C 0.10364 0.95208 0.08938 0.0
C381 C 0.06115 0.9538 0.08995 0.0
C382 C 0.1078 0.9186 0.09731 0.0
C383 C 0.06929 0.88593 0.10569 0.0
C384 C 0.0261 0.88613 0.1056 0.0
H385 H 0.04645 0.76222 0.18841 0.0
H386 H 0.05173 0.80902 0.16732 0.0
C387 C 0.02205 0.91971 0.09781 0.0
C388 C 0.07554 0.8556 0.11603 0.0
H389 H 0.02449 0.74164 0.12653 0.0
C390 C 0.10871 0.87775 0.12784 0.0
C391 C 0.04604 0.80578 0.11523 0.0
C392 C 0.01144 0.77996 0.10242 0.0
C393 C 0.11131 0.85163 0.13932 0.0
C394 C 0.07961 0.8022 0.13903 0.0
C395 C 0.04833 0.77967 0.1268 0.0
C396 C 0.07671 0.77376 0.15172 0.0
C397 C 0.1473 0.87725 0.15183 0.0
C398 C 0.0881 0.73784 0.14984 0.0
C399 C 0.08496 0.71093 0.16186 0.0
C400 C 0.06981 0.71915 0.17593 0.0
C401 C 0.05792 0.75485 0.1777 0.0
C402 C 0.06134 0.78188 0.16571 0.0
H403 H 0.17692 0.91203 0.14846 0.0
H404 H 0.12925 0.88371 0.16153 0.0
H405 H 0.16263 0.85575 0.15548 0.0
H406 H 0.09964 0.73082 0.13908 0.0
H407 H 0.09377 0.68326 0.16011 0.0
H408 H 0.12321 0.99046 0.42694 0.0
H409 H 0.19239 0.01358 0.44304 0.0
H410 H 0.22622 0.15887 0.44398 0.0
H411 H 0.15673 0.13615 0.42785 0.0
H412 H 0.29429 0.08552 0.43981 0.0
H413 H 0.20556 0.12023 0.48863 0.0
H414 H 0.17256 0.0862 0.47209 0.0
H415 H 0.20944 0.14929 0.47174 0.0
C416 C 0.1455 0.02744 0.43044 0.0
C417 C 0.13405 0.06137 0.42624 0.0
C418 C 0.18514 0.04057 0.4396 0.0
C419 C 0.21393 0.08776 0.44481 0.0
C420 C 0.204 0.12216 0.44016 0.0
H421 H 0.42222 0.18115 0.51836 0.0
H422 H 0.37496 0.18286 0.4976 0.0
C423 C 0.16441 0.10911 0.43091 0.0
C424 C 0.25244 0.0999 0.45582 0.0
H425 H 0.27959 0.12612 0.49298 0.0
C426 C 0.29148 0.09495 0.45141 0.0
C427 C 0.24859 0.11233 0.47091 0.0
C428 C 0.20673 0.11714 0.47624 0.0
C429 C 0.32643 0.10117 0.46179 0.0
C430 C 0.32141 0.11143 0.47702 0.0
C431 C 0.28331 0.11818 0.48131 0.0
C432 C 0.3531 0.11195 0.48887 0.0
C433 C 0.36822 0.09644 0.45635 0.0
C434 C 0.35629 0.07146 0.49089 0.0
C435 C 0.38348 0.0705 0.50264 0.0
C436 C 0.40761 0.10983 0.51275 0.0
C437 C 0.40455 0.15048 0.51067 0.0
C438 C 0.37741 0.15145 0.49886 0.0
H439 H 0.37549 0.1046 0.44439 0.0
H440 H 0.40114 0.12025 0.46301 0.0
H441 H 0.35971 0.05942 0.45742 0.0
H442 H 0.33692 0.04015 0.48354 0.0
H443 H 0.38552 0.03884 0.50381 0.0
H444 H 0.17741 0.16132 0.75346 0.0
H445 H 0.25018 0.2208 0.76671 0.0
H446 H 0.17735 0.29363 0.783 0.0
H447 H 0.1048 0.23507 0.76954 0.0
H448 H 0.26723 0.3545 0.77284 0.0
H449 H 0.27295 0.22997 0.8114 0.0
H450 H 0.27239 0.21379 0.79193 0.0
H451 H 0.22128 0.21415 0.79991 0.0
C452 C 0.17677 0.18989 0.7599 0.0
C453 C 0.13507 0.19318 0.76052 0.0
C454 C 0.21839 0.22378 0.76751 0.0
C455 C 0.21894 0.26119 0.77604 0.0
C456 C 0.17766 0.26495 0.77651 0.0
H457 H 0.39206 0.48052 0.8403 0.0
H458 H 0.33455 0.42908 0.82099 0.0
C459 C 0.13616 0.23134 0.76882 0.0
C460 C 0.26231 0.2965 0.78457 0.0
H461 H 0.33678 0.30888 0.81318 0.0
C462 C 0.28257 0.34451 0.78162 0.0
C463 C 0.28233 0.28336 0.796 0.0
C464 C 0.26096 0.23259 0.80012 0.0
C465 C 0.32194 0.37981 0.78993 0.0
C466 C 0.34126 0.36669 0.80152 0.0
C467 C 0.32195 0.31868 0.8042 0.0
C468 C 0.37892 0.40223 0.81183 0.0
C469 C 0.34243 0.43086 0.78631 0.0
C470 C 0.42311 0.40438 0.81302 0.0
C471 C 0.45646 0.43423 0.82398 0.0
C472 C 0.44587 0.46196 0.83408 0.0
C473 C 0.40198 0.46056 0.83254 0.0
C474 C 0.36889 0.43101 0.82153 0.0
H475 H 0.33231 0.43413 0.77484 0.0
H476 H 0.32834 0.44777 0.7943 0.0
H477 H 0.38204 0.45057 0.78738 0.0
H478 H 0.43136 0.38223 0.80566 0.0
H479 H 0.49008 0.43479 0.82475 0.0
H480 H 0.94404 0.11261 0.71786 0.0
H481 H 0.88155 0.1057 0.70122 0.0
H482 H 0.86421 0.97508 0.68144 0.0
H483 H 0.92704 0.98186 0.69804 0.0
H484 H 0.87767 0.04198 0.66067 0.0
H485 H 0.73567 0.01626 0.70091 0.0
H486 H 0.79351 0.06573 0.70593 0.0
H487 H 0.78421 0.00677 0.70548 0.0
C488 C 0.92649 0.08206 0.71011 0.0
C489 C 0.94047 0.0478 0.70923 0.0
C490 C 0.89059 0.07803 0.70067 0.0
C491 C 0.8679 0.03962 0.69022 0.0
C492 C 0.88112 0.00485 0.6895 0.0
H493 H 0.63045 0.99107 0.63229 0.0
H494 H 0.68074 0.98062 0.65007 0.0
C495 C 0.91694 0.00874 0.699 0.0
C496 C 0.83314 0.03788 0.67931 0.0
H497 H 0.72833 0.03828 0.67648 0.0
C498 C 0.84475 0.04064 0.6641 0.0
C499 C 0.79006 0.03571 0.68381 0.0
C500 C 0.77478 0.03049 0.69991 0.0
C501 C 0.81525 0.04308 0.65332 0.0
C502 C 0.77337 0.04326 0.65791 0.0
C503 C 0.76077 0.03865 0.67304 0.0
C504 C 0.74294 0.04952 0.6472 0.0
C505 C 0.82921 0.04566 0.63711 0.0
C506 C 0.76116 0.09194 0.63988 0.0
C507 C 0.73263 0.09799 0.62973 0.0
C508 C 0.68527 0.06172 0.62674 0.0
C509 C 0.66697 0.01941 0.63423 0.0
C510 C 0.69551 0.01348 0.64443 0.0
H511 H 0.85497 0.03308 0.63503 0.0
H512 H 0.79728 0.02424 0.62979 0.0
H513 H 0.84651 0.08296 0.63391 0.0
H514 H 0.7975 0.12042 0.64203 0.0
H515 H 0.74789 0.13082 0.62406 0.0
H516 H 0.99585 0.96013 0.04104 0.0
H517 H 0.95405 0.90875 0.01908 0.0
H518 H 0.87271 0.97891 0.01506 0.0
H519 H 0.9137 0.03008 0.03704 0.0
H520 H 0.81742 0.87997 0.01245 0.0
H521 H 0.97578 0.94868 0.97553 0.0
H522 H 0.98304 0.92894 0.99311 0.0
H523 H 0.97527 0.97942 0.99278 0.0
C524 C 0.96901 0.96464 0.03552 0.0
C525 C 0.95836 -0.00052 0.04081 0.0
C526 C 0.94541 0.93543 0.02291 0.0
C527 C 0.91094 0.94064 0.01532 0.0
C528 C 0.89947 0.97458 0.02072 0.0
H529 H 0.74466 0.82175 0.93367 0.0
H530 H 0.79561 0.87466 0.95429 0.0
C531 C 0.92298 0.00379 0.03331 0.0
C532 C 0.8861 0.9103 0.00185 0.0
H533 H 0.90379 0.88273 0.96591 0.0
C534 C 0.83628 0.8806 0.00228 0.0
C535 C 0.91088 0.91146 0.98858 0.0
C536 C 0.96414 0.94409 0.98735 0.0
C537 C 0.81062 0.85165 0.9898 0.0
C538 C 0.83542 0.85263 0.97661 0.0
C539 C 0.88514 0.88223 0.97612 0.0
C540 C 0.80966 0.82283 0.96325 0.0
C541 C 0.75709 0.82003 0.99069 0.0
C542 C 0.80181 0.77676 0.96141 0.0
C543 C 0.77269 0.74648 0.94972 0.0
C544 C 0.751 0.76189 0.9397 0.0
C545 C 0.76067 0.80884 0.94126 0.0
C546 C 0.78982 0.8391 0.95296 0.0
H547 H 0.74315 0.82303 0.00185 0.0
H548 H 0.73931 0.82935 0.98211 0.0
H549 H 0.74723 0.78261 0.98825 0.0
H550 H 0.81669 0.76368 0.96935 0.0
H551 H 0.76524 0.71028 0.94901 0.0
H552 H 0.979 0.92808 0.38795 0.0
H553 H 0.98662 0.8639 0.37563 0.0
H554 H 0.10462 0.96505 0.35 0.0
H555 H 0.09782 0.02957 0.36249 0.0
H556 H 0.97754 0.83831 0.34584 0.0
H557 H 0.15816 0.88728 0.36621 0.0
H558 H 0.12432 0.9125 0.37452 0.0
H559 H 0.1569 0.93483 0.35758 0.0
C560 C 0.00678 0.93671 0.37976 0.0
C561 C 0.03794 0.98386 0.37621 0.0
C562 C 0.0111 0.9 0.37275 0.0
C563 C 0.04672 0.90979 0.36211 0.0
C564 C 0.07766 0.95683 0.35846 0.0
H565 H 0.11528 0.7627 0.29472 0.0
H566 H 0.11144 0.81836 0.31301 0.0
C567 C 0.07347 0.9936 0.36551 0.0
C568 C 0.04982 0.87063 0.35421 0.0
H569 H 0.12669 0.83064 0.34543 0.0
C570 C 0.00989 0.8362 0.34591 0.0
C571 C 0.09205 0.86793 0.35439 0.0
C572 C 0.13514 0.90234 0.36378 0.0
C573 C 0.01174 0.80029 0.33724 0.0
C574 C 0.05449 0.79857 0.33703 0.0
C575 C 0.094 0.83218 0.34564 0.0
C576 C 0.0599 0.76439 0.327 0.0
C577 C 0.96869 0.76567 0.32787 0.0
C578 C 0.03303 0.71562 0.32906 0.0
C579 C 0.03544 0.68355 0.31867 0.0
C580 C 0.06489 0.69985 0.30609 0.0
C581 C 0.09295 0.7489 0.30441 0.0
C582 C 0.0906 0.78082 0.3148 0.0
H583 H 0.94135 0.77656 0.32743 0.0
H584 H 0.97951 0.76199 0.31629 0.0
H585 H 0.95195 0.73038 0.3327 0.0
H586 H 0.00955 0.70239 0.33853 0.0
H587 H 0.01378 0.64602 0.32035 0.0
H588 H 0.15545 0.02364 0.73251 0.0
H589 H 0.22474 0.02388 0.72093 0.0
H590 H 0.21478 0.09818 0.68408 0.0
H591 H 0.147 0.09951 0.69578 0.0
H592 H 0.23451 0.98617 0.69516 0.0
H593 H 0.35336 0.17959 0.69485 0.0
H594 H 0.29863 0.1528 0.70531 0.0
H595 H 0.29772 0.1624 0.68572 0.0
C596 C 0.16829 0.04023 0.72198 0.0
C597 C 0.14611 0.06193 0.71511 0.0
C598 C 0.20786 0.04038 0.71539 0.0
C599 C 0.22574 0.0621 0.70182 0.0
C600 C 0.20273 0.08265 0.6948 0.0
H601 H 0.37097 0.00973 0.63097 0.0
H602 H 0.31646 0.00504 0.65076 0.0
C603 C 0.16369 0.08302 0.70144 0.0
C604 C 0.26719 0.06191 0.69458 0.0
H605 H 0.3715 0.1332 0.67693 0.0
C606 C 0.2649 0.01841 0.69139 0.0
C607 C 0.3076 0.10402 0.69003 0.0
C608 C 0.31474 0.15233 0.69432 0.0
C609 C 0.30035 0.01562 0.68293 0.0
C610 C 0.33826 0.05728 0.67711 0.0
C611 C 0.34211 0.10106 0.68114 0.0
C612 C 0.3721 0.05619 0.66593 0.0
C613 C 0.2965 0.96799 0.68025 0.0
C614 C 0.42165 0.0871 0.66767 0.0
C615 C 0.45286 0.09051 0.65619 0.0
C616 C 0.43507 0.06272 0.64284 0.0
C617 C 0.38574 0.03076 0.64129 0.0
C618 C 0.35455 0.02789 0.65265 0.0
H619 H 0.27853 0.94501 0.68972 0.0
H620 H 0.27443 0.94999 0.67007 0.0
H621 H 0.33217 0.97137 0.67872 0.0
H622 H 0.43606 0.10954 0.67776 0.0
H623 H 0.49076 0.11549 0.65763 0.0
H624 H 0.17624 0.14017 0.04849 0.0
H625 H 0.23797 0.19108 0.03121 0.0
H626 H 0.20067 0.29912 0.03979 0.0
H627 H 0.13861 0.24848 0.05688 0.0
H628 H 0.19978 0.27445 0.00978 0.0
H629 H 0.36893 0.31122 0.03697 0.0
H630 H 0.32396 0.24968 0.03494 0.0
H631 H 0.3134 0.28901 0.04697 0.0
C632 C 0.18178 0.17513 0.04694 0.0
C633 C 0.15219 0.19006 0.05402 0.0
C634 C 0.21725 0.20427 0.03709 0.0
C635 C 0.22409 0.249 0.03429 0.0
C636 C 0.19598 0.26472 0.0418 0.0
H637 H 0.38601 0.46836 0.97266 0.0
H638 H 0.33512 0.41991 0.99254 0.0
C639 C 0.16048 0.23566 0.05158 0.0
C640 C 0.25726 0.27772 0.02254 0.0
H641 H 0.37441 0.33551 0.01215 0.0
C642 C 0.238 0.288 0.01034 0.0
C643 C 0.30701 0.29493 0.02323 0.0
C644 C 0.32976 0.28606 0.03628 0.0
C645 C 0.26706 0.31488 0.99878 0.0
C646 C 0.31687 0.33262 -0.00045 0.0
C647 C 0.33618 0.32192 0.01164 0.0
C648 C 0.34938 0.36275 0.98792 0.0
C649 C 0.24407 0.32342 0.9857 0.0
C650 C 0.37521 0.34717 0.979 0.0
C651 C 0.40427 0.37475 0.96759 0.0
C652 C 0.40814 0.4185 0.96496 0.0
C653 C 0.38304 0.43442 0.97419 0.0
C654 C 0.35405 0.40686 0.98558 0.0
H655 H 0.20501 0.29779 0.98494 0.0
H656 H 0.24919 0.35954 0.98708 0.0
H657 H 0.2607 0.3209 0.97502 0.0
H658 H 0.3721 0.31323 0.98067 0.0
H659 H 0.42285 0.36132 0.96062 0.0
H660 H 0.96688 0.1278 0.36623 0.0
H661 H 0.97014 0.18867 0.35089 0.0
H662 H 0.09173 0.29564 0.37656 0.0
H663 H 0.08952 0.23451 0.39176 0.0
H664 H 0.96315 0.26678 0.35716 0.0
H665 H 0.14279 0.31842 0.33449 0.0
H666 H 0.10905 0.26641 0.34505 0.0
H667 H 0.14103 0.32394 0.35449 0.0
C668 C 0.9942 0.16429 0.36869 0.0
C669 C 0.02824 0.17629 0.38012 0.0
C670 C 0.99599 0.19908 0.35991 0.0
C671 C 0.03175 0.24661 0.36237 0.0
C672 C 0.06456 0.25903 0.37421 0.0
H673 H 0.09011 0.49157 0.31189 0.0
H674 H 0.08782 0.44119 0.33148 0.0
C675 C 0.06303 0.22412 0.38296 0.0
C676 C 0.03493 0.28256 0.35227 0.0
H677 H 0.10706 0.36146 0.32686 0.0
C678 C 0.99469 0.2876 0.35058 0.0
C679 C 0.07608 0.30963 0.34364 0.0
C680 C 0.11956 0.30416 0.34437 0.0
C681 C 0.99438 0.31865 0.34043 0.0
C682 C 0.03524 0.34517 0.33171 0.0
C683 C 0.07587 0.34108 0.33362 0.0
C684 C 0.03576 0.37573 0.32004 0.0
C685 C 0.95032 0.32283 0.33903 0.0
C686 C 0.00758 0.35545 0.30708 0.0
C687 C 0.00929 0.38398 0.29575 0.0
C688 C 0.03917 0.43348 0.29719 0.0
C689 C 0.0672 0.45361 0.31028 0.0
C690 C 0.06572 0.42495 0.32155 0.0
H691 H 0.92596 0.30789 0.34862 0.0
H692 H 0.96029 0.36041 0.33825 0.0
H693 H 0.9305 0.30318 0.32865 0.0
H694 H 0.98482 0.31741 0.30561 0.0
H695 H 0.98792 0.3671 0.28574 0.0
loop_
_geom_bond_atom_site_label_1
_geom_bond_atom_site_label_2
_geom_bond_distance
_geom_bond_site_symmetry_2
_ccdc_geom_bond_type
Co0 O1 2.216 . S
Co0 O2 2.091 . S
Co0 O4 2.004 . S
Co0 O10 2.021 . S
Co0 O12 2.137 . S
Co0 O13 2.244 . S
O1 Co0 2.216 . S
O1 C8 1.247 . S
O2 Co0 2.091 . S
O2 C8 1.261 . S
C3 O12 1.247 . S
C3 O13 1.272 . S
O4 Co0 2.004 . S
O4 C9 1.259 . S
Co5 O6 2.061 . S
Co5 O11 2.052 1_455 S
Co5 O13 2.135 . S
O6 Co5 2.061 . S
O6 C9 1.235 . S
C7 O10 1.238 . S
C7 O11 1.241 1_455 S
C8 O1 1.247 . S
C8 O2 1.261 . S
C9 O4 1.259 . S
C9 O6 1.235 . S
O10 Co0 2.021 . S
O10 C7 1.238 . S
O11 Co5 2.052 1_655 S
O11 C7 1.241 1_655 S
O12 Co0 2.137 . S
O12 C3 1.247 . S
O13 Co0 2.244 . S
O13 C3 1.272 . S
O13 Co5 2.135 . S
Co14 O15 2.216 . S
Co14 O16 2.091 . S
Co14 O18 2.004 . S
Co14 O24 2.021 . S
Co14 O26 2.137 . S
Co14 O27 2.244 1_545 S
O15 Co14 2.216 . S
O15 C22 1.247 . S
O16 Co14 2.091 . S
O16 C22 1.261 . S
C17 O26 1.247 . S
C17 O27 1.272 1_545 S
O18 Co14 2.004 . S
O18 C23 1.259 . S
Co19 O20 2.061 1_565 S
Co19 O25 2.052 1_465 S
Co19 O27 2.135 . S
O20 Co19 2.061 1_545 S
O20 C23 1.235 . S
C21 O24 1.238 1_655 S
C21 O25 1.241 . S
C22 O15 1.247 . S
C22 O16 1.261 . S
C23 O18 1.259 . S
C23 O20 1.235 . S
O24 Co14 2.021 . S
O24 C21 1.238 1_455 S
O25 Co19 2.052 1_645 S
O25 C21 1.241 . S
O26 Co14 2.137 . S
O26 C17 1.247 . S
O27 Co14 2.244 1_565 S
O27 C17 1.272 1_565 S
O27 Co19 2.135 . S
Co28 O29 2.216 . S
Co28 O30 2.091 . S
Co28 O32 2.004 . S
Co28 O38 2.021 . S
Co28 O40 2.137 . S
Co28 O41 2.244 . S
O29 Co28 2.216 . S
O29 C36 1.247 . S
O30 Co28 2.091 . S
O30 C36 1.261 . S
C31 O40 1.247 . S
C31 O41 1.272 . S
O32 Co28 2.004 . S
O32 C37 1.259 . S
Co33 O34 2.061 . S
Co33 O39 2.052 . S
Co33 O41 2.135 . S
O34 Co33 2.061 . S
O34 C37 1.235 . S
C35 O38 1.238 . S
C35 O39 1.241 . S
C36 O29 1.247 . S
C36 O30 1.261 . S
C37 O32 1.259 . S
C37 O34 1.235 . S
O38 Co28 2.021 . S
O38 C35 1.238 . S
O39 Co33 2.052 . S
O39 C35 1.241 . S
O40 Co28 2.137 . S
O40 C31 1.247 . S
O41 Co28 2.244 . S
O41 C31 1.272 . S
O41 Co33 2.135 . S
H42 O68 0.856 . S
H43 O71 0.854 . S
H44 C79 0.930 . S
H45 C80 0.930 . S
H46 C82 0.930 . S
H47 C83 0.930 . S
H48 C85 0.931 1_655 S
H49 C86 0.930 1_655 S
H50 C88 0.930 . S
H51 C89 0.929 . S
H52 C91 0.930 1_655 S
H53 C92 0.931 1_655 S
H54 C94 0.930 . S
H55 C95 0.929 . S
H56 C97 0.931 1_655 S
H57 C98 0.930 1_655 S
H58 C100 0.930 . S
H59 C101 0.932 . S
H60 C103 0.930 . S
H61 C104 0.929 . S
H62 C106 0.931 . S
H63 C107 0.930 . S
H64 C109 0.932 . S
H65 C110 0.931 1_655 S
H66 C112 0.930 . S
H67 C113 0.929 . S
O68 H42 0.856 . S
O68 C114 1.300 . S
O69 C114 1.209 . S
O70 C115 1.199 . S
O71 H43 0.854 . S
O71 C115 1.297 . S
C72 C73 1.404 . S
C72 C77 1.397 . S
C72 C78 1.492 . S
C73 C72 1.404 . S
C73 C74 1.396 . S
C73 C84 1.492 . S
C74 C73 1.396 . S
C74 C75 1.397 . S
C74 C90 1.509 . S
C75 C74 1.397 . S
C75 C76 1.412 . S
C75 C96 1.485 . S
C76 C75 1.412 . S
C76 C77 1.388 . S
C76 C102 1.490 . S
C77 C72 1.397 . S
C77 C76 1.388 . S
C77 C108 1.519 . S
C78 C72 1.492 . S
C78 C79 1.363 1_455 S
C78 C83 1.390 . S
C79 H44 0.930 . S
C79 C78 1.363 1_655 S
C79 C80 1.372 . S
C80 H45 0.930 . S
C80 C79 1.372 . S
C80 C81 1.383 1_655 S
C81 C80 1.383 1_455 S
C81 C82 1.395 . S
C82 H46 0.930 . S
C82 C81 1.395 . S
C82 C83 1.362 . S
C83 H47 0.930 . S
C83 C78 1.390 . S
C83 C82 1.362 . S
C84 C73 1.492 . S
C84 C85 1.377 . S
C84 C89 1.397 . S
C85 H48 0.931 1_455 S
C85 C84 1.377 . S
C85 C86 1.376 . S
C86 H49 0.930 1_455 S
C86 C85 1.376 . S
C86 C87 1.376 . S
C87 C86 1.376 . S
C87 C88 1.378 . S
C87 C114 1.486 . S
C88 H50 0.930 . S
C88 C87 1.378 . S
C88 C89 1.376 . S
C89 H51 0.929 . S
C89 C84 1.397 . S
C89 C88 1.376 . S
C90 C74 1.509 . S
C90 C91 1.391 . S
C90 C95 1.386 . S
C91 H52 0.930 1_455 S
C91 C90 1.391 . S
C91 C92 1.375 . S
C92 H53 0.931 1_455 S
C92 C91 1.375 . S
C92 C93 1.375 . S
C93 C92 1.375 . S
C93 C94 1.361 . S
C94 H54 0.930 . S
C94 C93 1.361 . S
C94 C95 1.399 . S
C95 H55 0.929 . S
C95 C90 1.386 . S
C95 C94 1.399 . S
C96 C75 1.485 . S
C96 C97 1.394 . S
C96 C101 1.360 . S
C97 H56 0.931 1_455 S
C97 C96 1.394 . S
C97 C98 1.372 . S
C98 H57 0.930 1_455 S
C98 C97 1.372 . S
C98 C99 1.397 . S
C99 C98 1.397 . S
C99 C100 1.390 . S
C99 C115 1.476 . S
C100 H58 0.930 . S
C100 C99 1.390 . S
C100 C101 1.366 . S
C101 H59 0.932 . S
C101 C96 1.360 . S
C101 C100 1.366 . S
C102 C76 1.490 . S
C102 C103 1.380 1_455 S
C102 C107 1.386 . S
C103 H60 0.930 . S
C103 C102 1.380 1_655 S
C103 C104 1.381 . S
C104 H61 0.929 . S
C104 C103 1.381 . S
C104 C105 1.371 1_655 S
C105 C104 1.371 1_455 S
C105 C106 1.380 . S
C106 H62 0.931 . S
C106 C105 1.380 . S
C106 C107 1.387 . S
C107 H63 0.930 . S
C107 C102 1.386 . S
C107 C106 1.387 . S
C108 C77 1.519 . S
C108 C109 1.376 1_455 S
C108 C113 1.361 . S
C109 H64 0.932 . S
C109 C108 1.376 1_655 S
C109 C110 1.385 1_655 S
C110 H65 0.931 1_455 S
C110 C109 1.385 1_455 S
C110 C111 1.363 . S
C111 C110 1.363 . S
C111 C112 1.385 . S
C112 H66 0.930 . S
C112 C111 1.385 . S
C112 C113 1.396 . S
C113 H67 0.929 . S
C113 C108 1.361 . S
C113 C112 1.396 . S
C114 O68 1.300 . S
C114 O69 1.209 . S
C114 C87 1.486 . S
C115 O70 1.199 . S
C115 O71 1.297 . S
C115 C99 1.476 . S
H116 O142 0.856 . S
H117 O145 0.854 . S
H118 C153 0.930 . S
H119 C154 0.930 1_565 S
H120 C156 0.930 . S
H121 C157 0.930 . S
H122 C159 0.931 . S
H123 C160 0.930 . S
H124 C162 0.930 . S
H125 C163 0.929 . S
H126 C165 0.930 . S
H127 C166 0.931 . S
H128 C168 0.930 . S
H129 C169 0.929 . S
H130 C171 0.931 . S
H131 C172 0.930 . S
H132 C174 0.930 . S
H133 C175 0.932 . S
H134 C177 0.930 . S
H135 C178 0.929 . S
H136 C180 0.931 . S
H137 C181 0.930 . S
H138 C183 0.929 . S
H139 C184 0.931 . S
H140 C186 0.930 . S
H141 C187 0.929 . S
O142 H116 0.856 . S
O142 C188 1.300 . S
O143 C188 1.209 . S
O144 C189 1.199 . S
O145 H117 0.854 . S
O145 C189 1.297 . S
C146 C147 1.404 . S
C146 C151 1.397 . S
C146 C152 1.492 . S
C147 C146 1.404 . S
C147 C148 1.396 . S
C147 C158 1.492 . S
C148 C147 1.396 . S
C148 C149 1.397 . S
C148 C164 1.509 . S
C149 C148 1.397 . S
C149 C150 1.412 . S
C149 C170 1.485 . S
C150 C149 1.412 . S
C150 C151 1.388 . S
C150 C176 1.490 . S
C151 C146 1.397 . S
C151 C150 1.388 . S
C151 C182 1.519 . S
C152 C146 1.492 . S
C152 C153 1.363 . S
C152 C157 1.390 . S
C153 H118 0.930 . S
C153 C152 1.363 . S
C153 C154 1.372 . S
C154 H119 0.930 1_545 S
C154 C153 1.372 . S
C154 C155 1.383 . S
C155 C154 1.383 . S
C155 C156 1.395 . S
C156 H120 0.930 . S
C156 C155 1.395 . S
C156 C157 1.362 . S
C157 H121 0.930 . S
C157 C152 1.390 . S
C157 C156 1.362 . S
C158 C147 1.492 . S
C158 C159 1.377 . S
C158 C163 1.397 . S
C159 H122 0.931 . S
C159 C158 1.377 . S
C159 C160 1.376 . S
C160 H123 0.930 . S
C160 C159 1.376 . S
C160 C161 1.376 . S
C161 C160 1.376 . S
C161 C162 1.378 . S
C161 C188 1.486 . S
C162 H124 0.930 . S
C162 C161 1.378 . S
C162 C163 1.376 . S
C163 H125 0.929 . S
C163 C158 1.397 . S
C163 C162 1.376 . S
C164 C148 1.509 . S
C164 C165 1.391 . S
C164 C169 1.386 . S
C165 H126 0.930 . S
C165 C164 1.391 . S
C165 C166 1.375 . S
C166 H127 0.931 . S
C166 C165 1.375 . S
C166 C167 1.375 . S
C167 C166 1.375 . S
C167 C168 1.361 . S
C168 H128 0.930 . S
C168 C167 1.361 . S
C168 C169 1.399 . S
C169 H129 0.929 . S
C169 C164 1.386 . S
C169 C168 1.399 . S
C170 C149 1.485 . S
C170 C171 1.394 . S
C170 C175 1.360 . S
C171 H130 0.931 . S
C171 C170 1.394 . S
C171 C172 1.372 . S
C172 H131 0.930 . S
C172 C171 1.372 . S
C172 C173 1.397 . S
C173 C172 1.397 . S
C173 C174 1.390 . S
C173 C189 1.476 . S
C174 H132 0.930 . S
C174 C173 1.390 . S
C174 C175 1.366 . S
C175 H133 0.932 . S
C175 C170 1.360 . S
C175 C174 1.366 . S
C176 C150 1.490 . S
C176 C177 1.380 . S
C176 C181 1.386 . S
C177 H134 0.930 . S
C177 C176 1.380 . S
C177 C178 1.381 . S
C178 H135 0.929 . S
C178 C177 1.381 . S
C178 C179 1.371 . S
C179 C178 1.371 . S
C179 C180 1.380 . S
C180 H136 0.931 . S
C180 C179 1.380 . S
C180 C181 1.387 . S
C181 H137 0.930 . S
C181 C176 1.386 . S
C181 C180 1.387 . S
C182 C151 1.519 . S
C182 C183 1.377 . S
C182 C187 1.361 . S
C183 H138 0.929 . S
C183 C182 1.377 . S
C183 C184 1.386 . S
C184 H139 0.931 . S
C184 C183 1.386 . S
C184 C185 1.363 . S
C185 C184 1.363 . S
C185 C186 1.385 . S
C186 H140 0.930 . S
C186 C185 1.385 . S
C186 C187 1.396 . S
C187 H141 0.929 . S
C187 C182 1.361 . S
C187 C186 1.396 . S
C188 O142 1.300 . S
C188 O143 1.209 . S
C188 C161 1.486 . S
C189 O144 1.199 . S
C189 O145 1.297 . S
C189 C173 1.476 . S
H190 O216 0.856 . S
H191 O219 0.854 . S
H192 C227 0.930 . S
H193 C228 0.930 . S
H194 C230 0.930 . S
H195 C231 0.930 . S
H196 C233 0.931 . S
H197 C234 0.930 . S
H198 C236 0.930 . S
H199 C237 0.929 . S
H200 C239 0.930 . S
H201 C240 0.931 . S
H202 C242 0.930 . S
H203 C243 0.929 . S
H204 C245 0.931 . S
H205 C246 0.930 . S
H206 C248 0.930 . S
H207 C249 0.932 . S
H208 C251 0.930 . S
H209 C252 0.929 . S
H210 C254 0.931 . S
H211 C255 0.930 . S
H212 C257 0.929 . S
H213 C258 0.931 . S
H214 C260 0.930 . S
H215 C261 0.929 . S
O216 H190 0.856 . S
O216 C262 1.300 1_554 S
O217 C262 1.197 1_554 S
O218 C263 1.199 . S
O219 H191 0.854 . S
O219 C263 1.297 . S
C220 C221 1.404 . S
C220 C225 1.397 . S
C220 C226 1.492 . S
C221 C220 1.404 . S
C221 C222 1.396 . S
C221 C232 1.492 . S
C222 C221 1.396 . S
C222 C223 1.397 . S
C222 C238 1.509 . S
C223 C222 1.397 . S
C223 C224 1.412 . S
C223 C244 1.485 . S
C224 C223 1.412 . S
C224 C225 1.388 . S
C224 C250 1.490 . S
C225 C220 1.397 . S
C225 C224 1.388 . S
C225 C256 1.519 . S
C226 C220 1.492 . S
C226 C227 1.363 . S
C226 C231 1.390 . S
C227 H192 0.930 . S
C227 C226 1.363 . S
C227 C228 1.372 . S
C228 H193 0.930 . S
C228 C227 1.372 . S
C228 C229 1.383 . S
C229 C228 1.383 . S
C229 C230 1.395 . S
C230 H194 0.930 . S
C230 C229 1.395 . S
C230 C231 1.362 . S
C231 H195 0.930 . S
C231 C226 1.390 . S
C231 C230 1.362 . S
C232 C221 1.492 . S
C232 C233 1.377 . S
C232 C237 1.397 . S
C233 H196 0.931 . S
C233 C232 1.377 . S
C233 C234 1.376 . S
C234 H197 0.930 . S
C234 C233 1.376 . S
C234 C235 1.376 . S
C235 C234 1.376 . S
C235 C236 1.378 . S
C235 C262 1.486 . S
C236 H198 0.930 . S
C236 C235 1.378 . S
C236 C237 1.376 . S
C237 H199 0.929 . S
C237 C232 1.397 . S
C237 C236 1.376 . S
C238 C222 1.509 . S
C238 C239 1.391 . S
C238 C243 1.386 . S
C239 H200 0.930 . S
C239 C238 1.391 . S
C239 C240 1.375 . S
C240 H201 0.931 . S
C240 C239 1.375 . S
C240 C241 1.375 . S
C241 C240 1.375 . S
C241 C242 1.361 . S
C242 H202 0.930 . S
C242 C241 1.361 . S
C242 C243 1.399 . S
C243 H203 0.929 . S
C243 C238 1.386 . S
C243 C242 1.399 . S
C244 C223 1.485 . S
C244 C245 1.394 . S
C244 C249 1.360 . S
C245 H204 0.931 . S
C245 C244 1.394 . S
C245 C246 1.372 . S
C246 H205 0.930 . S
C246 C245 1.372 . S
C246 C247 1.397 . S
C247 C246 1.397 . S
C247 C248 1.390 . S
C247 C263 1.476 . S
C248 H206 0.930 . S
C248 C247 1.390 . S
C248 C249 1.366 . S
C249 H207 0.932 . S
C249 C244 1.360 . S
C249 C248 1.366 . S
C250 C224 1.490 . S
C250 C251 1.380 . S
C250 C255 1.386 . S
C251 H208 0.930 . S
C251 C250 1.380 . S
C251 C252 1.381 . S
C252 H209 0.929 . S
C252 C251 1.381 . S
C252 C253 1.371 . S
C253 C252 1.371 . S
C253 C254 1.380 . S
C254 H210 0.931 . S
C254 C253 1.380 . S
C254 C255 1.387 . S
C255 H211 0.930 . S
C255 C250 1.386 . S
C255 C254 1.387 . S
C256 C225 1.519 . S
C256 C257 1.377 . S
C256 C261 1.361 . S
C257 H212 0.929 . S
C257 C256 1.377 . S
C257 C258 1.386 . S
C258 H213 0.931 . S
C258 C257 1.386 . S
C258 C259 1.363 . S
C259 C258 1.363 . S
C259 C260 1.385 . S
C260 H214 0.930 . S
C260 C259 1.385 . S
C260 C261 1.396 . S
C261 H215 0.929 . S
C261 C256 1.361 . S
C261 C260 1.396 . S
C262 O216 1.300 1_556 S
C262 O217 1.197 1_556 S
C262 C235 1.486 . S
C263 O218 1.199 . S
C263 O219 1.297 . S
C263 C247 1.476 . S
H264 C272 0.929 1_655 S
H265 C274 0.930 1_655 S
H266 C276 0.930 . S
H267 C279 0.929 . S
H268 C282 0.930 1_655 S
H269 C284 0.960 . S
H270 C284 0.960 . S
H271 C284 0.960 . S
C272 H264 0.929 1_455 S
C272 C273 1.377 . S
C272 C274 1.384 . S
C273 C272 1.377 . S
C273 C279 1.390 . S
C274 H265 0.930 1_455 S
C274 C272 1.384 . S
C274 C275 1.372 . S
C275 C274 1.372 . S
C275 C276 1.400 . S
C275 C280 1.490 . S
C276 H266 0.930 . S
C276 C275 1.400 . S
C276 C279 1.386 . S
H277 C293 0.930 . S
H278 C294 0.931 . S
C279 H267 0.929 . S
C279 C273 1.390 . S
C279 C276 1.386 . S
C280 C275 1.490 . S
C280 C282 1.395 . S
C280 C283 1.403 . S
H281 C287 0.930 . S
C282 H268 0.930 1_455 S
C282 C280 1.395 . S
C282 C285 1.403 . S
C283 C280 1.403 . S
C283 C284 1.524 . S
C283 C287 1.400 . S
C284 H269 0.960 . S
C284 H270 0.960 . S
C284 H271 0.960 . S
C284 C283 1.524 . S
C285 C282 1.403 . S
C285 C286 1.392 . S
C285 C289 1.495 1_455 S
C286 C285 1.392 . S
C286 C287 1.385 . S
C286 C288 1.478 . S
C287 H281 0.930 . S
C287 C283 1.400 . S
C287 C286 1.385 . S
C288 C286 1.478 . S
C288 C290 1.381 1_455 S
C288 C294 1.383 . S
C289 C285 1.495 1_655 S
C289 H295 0.959 . S
C289 H296 0.961 . S
C289 H297 0.960 . S
C290 C288 1.381 1_655 S
C290 C291 1.394 . S
C290 H298 0.930 . S
C291 C290 1.394 . S
C291 C292 1.383 1_655 S
C291 H299 0.929 . S
C292 C291 1.383 1_455 S
C292 C293 1.377 . S
C293 H277 0.930 . S
C293 C292 1.377 . S
C293 C294 1.379 . S
C294 H278 0.931 . S
C294 C288 1.383 . S
C294 C293 1.379 . S
H295 C289 0.959 . S
H296 C289 0.961 . S
H297 C289 0.960 . S
H298 C290 0.930 . S
H299 C291 0.929 . S
H300 C308 0.931 1_565 S
H301 C310 0.930 1_565 S
H302 C312 0.930 . S
H303 C315 0.929 . S
H304 C318 0.930 . S
H305 C320 0.960 . S
H306 C320 0.960 . S
H307 C320 0.960 . S
C308 H300 0.931 1_545 S
C308 C309 1.377 . S
C308 C310 1.384 . S
C309 C308 1.377 . S
C309 C315 1.390 . S
C310 H301 0.930 1_545 S
C310 C308 1.384 . S
C310 C311 1.372 . S
C311 C310 1.372 . S
C311 C312 1.400 . S
C311 C316 1.490 . S
C312 H302 0.930 . S
C312 C311 1.400 . S
C312 C315 1.386 . S
H313 C329 0.930 . S
H314 C330 0.931 . S
C315 H303 0.929 . S
C315 C309 1.390 . S
C315 C312 1.386 . S
C316 C311 1.490 . S
C316 C318 1.395 . S
C316 C319 1.403 . S
H317 C323 0.930 . S
C318 H304 0.930 . S
C318 C316 1.395 . S
C318 C321 1.403 . S
C319 C316 1.403 . S
C319 C320 1.524 . S
C319 C323 1.400 . S
C320 H305 0.960 . S
C320 H306 0.960 . S
C320 H307 0.960 . S
C320 C319 1.524 . S
C321 C318 1.403 . S
C321 C322 1.392 . S
C321 C325 1.495 . S
C322 C321 1.392 . S
C322 C323 1.385 . S
C322 C324 1.478 . S
C323 H317 0.930 . S
C323 C319 1.400 . S
C323 C322 1.385 . S
C324 C322 1.478 . S
C324 C326 1.381 . S
C324 C330 1.383 . S
C325 C321 1.495 . S
C325 H331 0.959 . S
C325 H332 0.961 . S
C325 H333 0.960 . S
C326 C324 1.381 . S
C326 C327 1.394 . S
C326 H334 0.930 1_545 S
C327 C326 1.394 . S
C327 C328 1.383 . S
C327 H335 0.929 1_545 S
C328 C327 1.383 . S
C328 C329 1.377 . S
C329 H313 0.930 . S
C329 C328 1.377 . S
C329 C330 1.379 . S
C330 H314 0.931 . S
C330 C324 1.383 . S
C330 C329 1.379 . S
H331 C325 0.959 . S
H332 C325 0.961 . S
H333 C325 0.960 . S
H334 C326 0.930 1_565 S
H335 C327 0.929 1_565 S
H336 C344 0.929 . S
H337 C346 0.930 . S
H338 C348 0.930 . S
H339 C351 0.929 1_455 S
H340 C354 0.930 . S
H341 C356 0.960 . S
H342 C356 0.960 . S
H343 C356 0.960 . S
C344 H336 0.929 . S
C344 C345 1.377 . S
C344 C346 1.384 . S
C345 C344 1.377 . S
C345 C351 1.390 . S
C346 H337 0.930 . S
C346 C344 1.384 . S
C346 C347 1.372 . S
C347 C346 1.372 . S
C347 C348 1.400 . S
C347 C352 1.490 . S
C348 H338 0.930 . S
C348 C347 1.400 . S
C348 C351 1.386 . S
H349 C365 0.930 . S
H350 C366 0.931 . S
C351 H339 0.929 1_655 S
C351 C345 1.390 . S
C351 C348 1.386 . S
C352 C347 1.490 . S
C352 C354 1.395 . S
C352 C355 1.403 . S
H353 C359 0.930 . S
C354 H340 0.930 . S
C354 C352 1.395 . S
C354 C357 1.403 . S
C355 C352 1.403 . S
C355 C356 1.524 . S
C355 C359 1.400 . S
C356 H341 0.960 . S
C356 H342 0.960 . S
C356 H343 0.960 . S
C356 C355 1.524 . S
C357 C354 1.403 . S
C357 C358 1.392 . S
C357 C361 1.495 . S
C358 C357 1.392 . S
C358 C359 1.385 . S
C358 C360 1.478 . S
C359 H353 0.930 . S
C359 C355 1.400 . S
C359 C358 1.385 . S
C360 C358 1.478 . S
C360 C362 1.381 . S
C360 C366 1.383 . S
C361 C357 1.495 . S
C361 H367 0.959 . S
C361 H368 0.961 . S
C361 H369 0.960 . S
C362 C360 1.381 . S
C362 C363 1.394 . S
C362 H370 0.930 . S
C363 C362 1.394 . S
C363 C364 1.383 . S
C363 H371 0.929 . S
C364 C363 1.383 . S
C364 C365 1.377 . S
C365 H349 0.930 . S
C365 C364 1.377 . S
C365 C366 1.379 . S
C366 H350 0.931 . S
C366 C360 1.383 . S
C366 C365 1.379 . S
H367 C361 0.959 . S
H368 C361 0.961 . S
H369 C361 0.960 . S
H370 C362 0.930 . S
H371 C363 0.929 . S
H372 C380 0.929 1_545 S
H373 C382 0.930 . S
H374 C384 0.930 . S
H375 C387 0.929 . S
H376 C390 0.930 . S
H377 C392 0.960 1_655 S
H378 C392 0.960 . S
H379 C392 0.960 1_655 S
C380 H372 0.929 1_565 S
C380 C381 1.377 . S
C380 C382 1.384 . S
C381 C380 1.377 . S
C381 C387 1.390 . S
C382 H373 0.930 . S
C382 C380 1.384 . S
C382 C383 1.372 . S
C383 C382 1.372 . S
C383 C384 1.400 . S
C383 C388 1.490 . S
C384 H374 0.930 . S
C384 C383 1.400 . S
C384 C387 1.386 . S
H385 C401 0.914 1_655 S
H386 C402 0.931 . S
C387 H375 0.929 . S
C387 C381 1.390 . S
C387 C384 1.386 . S
C388 C383 1.490 . S
C388 C390 1.395 . S
C388 C391 1.403 . S
H389 C395 0.930 . S
C390 H376 0.930 . S
C390 C388 1.395 . S
C390 C393 1.403 . S
C391 C388 1.403 . S
C391 C392 1.524 . S
C391 C395 1.400 . S
C392 H377 0.960 1_455 S
C392 H378 0.960 . S
C392 H379 0.960 1_455 S
C392 C391 1.524 . S
C393 C390 1.403 . S
C393 C394 1.392 . S
C393 C397 1.495 . S
C394 C393 1.392 . S
C394 C395 1.385 . S
C394 C396 1.478 . S
C395 H389 0.930 . S
C395 C391 1.400 . S
C395 C394 1.385 . S
C396 C394 1.478 . S
C396 C398 1.381 . S
C396 C402 1.383 . S
C397 C393 1.495 . S
C397 H403 0.959 . S
C397 H404 0.961 . S
C397 H405 0.960 . S
C398 C396 1.381 . S
C398 C399 1.394 . S
C398 H406 0.930 . S
C399 C398 1.394 . S
C399 C400 1.383 . S
C399 H407 0.929 . S
C400 C399 1.383 . S
C400 C401 1.377 . S
C401 H385 0.914 1_455 S
C401 C400 1.377 . S
C401 C402 1.379 . S
C402 H386 0.931 . S
C402 C396 1.383 . S
C402 C401 1.379 . S
H403 C397 0.959 . S
H404 C397 0.961 . S
H405 C397 0.960 . S
H406 C398 0.930 . S
H407 C399 0.929 . S
H408 C416 0.929 . S
H409 C418 0.930 . S
H410 C420 0.930 . S
H411 C423 0.929 . S
H412 C426 0.930 . S
H413 C428 0.960 . S
H414 C428 0.960 . S
H415 C428 0.960 . S
C416 H408 0.929 . S
C416 C417 1.377 . S
C416 C418 1.384 . S
C417 C416 1.377 . S
C417 C423 1.390 . S
C418 H409 0.930 . S
C418 C416 1.384 . S
C418 C419 1.372 . S
C419 C418 1.372 . S
C419 C420 1.400 . S
C419 C424 1.490 . S
C420 H410 0.930 . S
C420 C419 1.400 . S
C420 C423 1.386 . S
H421 C437 0.930 . S
H422 C438 0.931 . S
C423 H411 0.929 . S
C423 C417 1.390 . S
C423 C420 1.386 . S
C424 C419 1.490 . S
C424 C426 1.395 . S
C424 C427 1.403 . S
H425 C431 0.930 . S
C426 H412 0.930 . S
C426 C424 1.395 . S
C426 C429 1.403 . S
C427 C424 1.403 . S
C427 C428 1.524 . S
C427 C431 1.400 . S
C428 H413 0.960 . S
C428 H414 0.960 . S
C428 H415 0.960 . S
C428 C427 1.524 . S
C429 C426 1.403 . S
C429 C430 1.392 . S
C429 C433 1.495 . S
C430 C429 1.392 . S
C430 C431 1.385 . S
C430 C432 1.478 . S
C431 H425 0.930 . S
C431 C427 1.400 . S
C431 C430 1.385 . S
C432 C430 1.478 . S
C432 C434 1.381 . S
C432 C438 1.383 . S
C433 C429 1.495 . S
C433 H439 0.959 . S
C433 H440 0.961 . S
C433 H441 0.960 . S
C434 C432 1.381 . S
C434 C435 1.394 . S
C434 H442 0.930 . S
C435 C434 1.394 . S
C435 C436 1.383 . S
C435 H443 0.929 . S
C436 C435 1.383 . S
C436 C437 1.377 . S
C437 H421 0.930 . S
C437 C436 1.377 . S
C437 C438 1.379 . S
C438 H422 0.931 . S
C438 C432 1.383 . S
C438 C437 1.379 . S
H439 C433 0.959 . S
H440 C433 0.961 . S
H441 C433 0.960 . S
H442 C434 0.930 . S
H443 C435 0.929 . S
H444 C452 0.929 . S
H445 C454 0.930 . S
H446 C456 0.930 . S
H447 C459 0.929 . S
H448 C462 0.930 . S
H449 C464 0.960 . S
H450 C464 0.960 . S
H451 C464 0.960 . S
C452 H444 0.929 . S
C452 C453 1.377 . S
C452 C454 1.384 . S
C453 C452 1.377 . S
C453 C459 1.390 . S
C454 H445 0.930 . S
C454 C452 1.384 . S
C454 C455 1.372 . S
C455 C454 1.372 . S
C455 C456 1.400 . S
C455 C460 1.490 . S
C456 H446 0.930 . S
C456 C455 1.400 . S
C456 C459 1.386 . S
H457 C473 0.930 . S
H458 C474 0.931 . S
C459 H447 0.929 . S
C459 C453 1.390 . S
C459 C456 1.386 . S
C460 C455 1.490 . S
C460 C462 1.395 . S
C460 C463 1.403 . S
H461 C467 0.930 . S
C462 H448 0.930 . S
C462 C460 1.395 . S
C462 C465 1.403 . S
C463 C460 1.403 . S
C463 C464 1.524 . S
C463 C467 1.400 . S
C464 H449 0.960 . S
C464 H450 0.960 . S
C464 H451 0.960 . S
C464 C463 1.524 . S
C465 C462 1.403 . S
C465 C466 1.392 . S
C465 C469 1.495 . S
C466 C465 1.392 . S
C466 C467 1.385 . S
C466 C468 1.478 . S
C467 H461 0.930 . S
C467 C463 1.400 . S
C467 C466 1.385 . S
C468 C466 1.478 . S
C468 C470 1.381 . S
C468 C474 1.383 . S
C469 C465 1.495 . S
C469 H475 0.959 . S
C469 H476 0.961 . S
C469 H477 0.960 . S
C470 C468 1.381 . S
C470 C471 1.394 . S
C470 H478 0.930 . S
C471 C470 1.394 . S
C471 C472 1.383 . S
C471 H479 0.929 . S
C472 C471 1.383 . S
C472 C473 1.377 . S
C473 H457 0.930 . S
C473 C472 1.377 . S
C473 C474 1.379 . S
C474 H458 0.931 . S
C474 C468 1.383 . S
C474 C473 1.379 . S
H475 C469 0.959 . S
H476 C469 0.961 . S
H477 C469 0.960 . S
H478 C470 0.930 . S
H479 C471 0.929 . S
H480 C488 0.929 1_455 S
H481 C490 0.930 . S
H482 C492 0.930 . S
H483 C495 0.929 . S
H484 C498 0.930 . S
H485 C500 0.960 . S
H486 C500 0.960 . S
H487 C500 0.960 . S
C488 H480 0.929 1_655 S
C488 C489 1.377 . S
C488 C490 1.384 . S
C489 C488 1.377 . S
C489 C495 1.390 . S
C490 H481 0.930 . S
C490 C488 1.384 . S
C490 C491 1.372 . S
C491 C490 1.372 . S
C491 C492 1.400 . S
C491 C496 1.490 . S
C492 H482 0.930 . S
C492 C491 1.400 . S
C492 C495 1.386 . S
H493 C509 0.930 . S
H494 C510 0.931 . S
C495 H483 0.929 . S
C495 C489 1.390 . S
C495 C492 1.386 . S
C496 C491 1.490 . S
C496 C498 1.395 . S
C496 C499 1.403 . S
H497 C503 0.930 . S
C498 H484 0.930 . S
C498 C496 1.395 . S
C498 C501 1.403 . S
C499 C496 1.403 . S
C499 C500 1.524 . S
C499 C503 1.400 . S
C500 H485 0.960 . S
C500 H486 0.960 . S
C500 H487 0.960 . S
C500 C499 1.524 . S
C501 C498 1.403 . S
C501 C502 1.392 . S
C501 C505 1.495 . S
C502 C501 1.392 . S
C502 C503 1.385 . S
C502 C504 1.478 . S
C503 H497 0.930 . S
C503 C499 1.400 . S
C503 C502 1.385 . S
C504 C502 1.478 . S
C504 C506 1.381 . S
C504 C510 1.383 . S
C505 C501 1.495 . S
C505 H511 0.959 . S
C505 H512 0.961 . S
C505 H513 0.960 . S
C506 C504 1.381 . S
C506 C507 1.394 . S
C506 H514 0.930 . S
C507 C506 1.394 . S
C507 C508 1.383 . S
C507 H515 0.929 . S
C508 C507 1.383 . S
C508 C509 1.377 . S
C509 H493 0.930 . S
C509 C508 1.377 . S
C509 C510 1.379 . S
C510 H494 0.931 . S
C510 C504 1.383 . S
C510 C509 1.379 . S
H511 C505 0.959 . S
H512 C505 0.961 . S
H513 C505 0.960 . S
H514 C506 0.930 . S
H515 C507 0.929 . S
H516 C524 0.929 . S
H517 C526 0.930 . S
H518 C528 0.930 . S
H519 C531 0.929 . S
H520 C534 0.930 . S
H521 C536 0.960 . S
H522 C536 0.960 . S
H523 C536 0.960 . S
C524 H516 0.929 . S
C524 C525 1.377 . S
C524 C526 1.384 . S
C525 C524 1.377 . S
C525 C531 1.390 1_565 S
C526 H517 0.930 . S
C526 C524 1.384 . S
C526 C527 1.372 . S
C527 C526 1.372 . S
C527 C528 1.400 . S
C527 C532 1.490 . S
C528 H518 0.930 . S
C528 C527 1.400 . S
C528 C531 1.386 1_565 S
H529 C545 0.930 . S
H530 C546 0.931 . S
C531 H519 0.929 . S
C531 C525 1.390 1_545 S
C531 C528 1.386 1_545 S
C532 C527 1.490 . S
C532 C534 1.395 . S
C532 C535 1.403 1_554 S
H533 C539 0.930 . S
C534 H520 0.930 . S
C534 C532 1.395 . S
C534 C537 1.403 1_554 S
C535 C532 1.403 1_556 S
C535 C536 1.524 . S
C535 C539 1.400 . S
C536 H521 0.960 . S
C536 H522 0.960 . S
C536 H523 0.960 . S
C536 C535 1.524 . S
C537 C534 1.403 1_556 S
C537 C538 1.392 . S
C537 C541 1.495 1_556 S
C538 C537 1.392 . S
C538 C539 1.385 . S
C538 C540 1.478 . S
C539 H533 0.930 . S
C539 C535 1.400 . S
C539 C538 1.385 . S
C540 C538 1.478 . S
C540 C542 1.381 . S
C540 C546 1.383 . S
C541 C537 1.495 1_554 S
C541 H547 0.959 . S
C541 H548 0.961 1_554 S
C541 H549 0.961 . S
C542 C540 1.381 . S
C542 C543 1.394 . S
C542 H550 0.930 . S
C543 C542 1.394 . S
C543 C544 1.383 . S
C543 H551 0.929 . S
C544 C543 1.383 . S
C544 C545 1.377 . S
C545 H529 0.930 . S
C545 C544 1.377 . S
C545 C546 1.379 . S
C546 H530 0.931 . S
C546 C540 1.383 . S
C546 C545 1.379 . S
H547 C541 0.959 . S
H548 C541 0.961 1_556 S
H549 C541 0.961 . S
H550 C542 0.930 . S
H551 C543 0.929 . S
H552 C560 0.929 1_655 S
H553 C562 0.930 1_655 S
H554 C564 0.930 . S
H555 C567 0.929 . S
H556 C570 0.930 . S
H557 C572 0.960 . S
H558 C572 0.960 . S
H559 C572 0.960 . S
C560 H552 0.929 1_455 S
C560 C561 1.377 . S
C560 C562 1.384 . S
C561 C560 1.377 . S
C561 C567 1.390 . S
C562 H553 0.930 1_455 S
C562 C560 1.384 . S
C562 C563 1.372 . S
C563 C562 1.372 . S
C563 C564 1.400 . S
C563 C568 1.490 . S
C564 H554 0.930 . S
C564 C563 1.400 . S
C564 C567 1.386 . S
H565 C581 0.930 . S
H566 C582 0.931 . S
C567 H555 0.929 . S
C567 C561 1.390 . S
C567 C564 1.386 . S
C568 C563 1.490 . S
C568 C570 1.395 1_455 S
C568 C571 1.403 . S
H569 C575 0.930 . S
C570 H556 0.930 . S
C570 C568 1.395 1_655 S
C570 C573 1.403 . S
C571 C568 1.403 . S
C571 C572 1.524 . S
C571 C575 1.400 . S
C572 H557 0.960 . S
C572 H558 0.960 . S
C572 H559 0.960 . S
C572 C571 1.524 . S
C573 C570 1.403 . S
C573 C574 1.392 1_655 S
C573 C577 1.495 . S
C574 C573 1.392 1_455 S
C574 C575 1.385 . S
C574 C576 1.478 . S
C575 H569 0.930 . S
C575 C571 1.400 . S
C575 C574 1.385 . S
C576 C574 1.478 . S
C576 C578 1.381 1_455 S
C576 C582 1.383 . S
C577 C573 1.495 . S
C577 H583 0.959 . S
C577 H584 0.961 . S
C577 H585 0.960 . S
C578 C576 1.381 1_655 S
C578 C579 1.394 . S
C578 H586 0.930 . S
C579 C578 1.394 . S
C579 C580 1.383 1_655 S
C579 H587 0.929 . S
C580 C579 1.383 1_455 S
C580 C581 1.377 . S
C581 H565 0.930 . S
C581 C580 1.377 . S
C581 C582 1.379 . S
C582 H566 0.931 . S
C582 C576 1.383 . S
C582 C581 1.379 . S
H583 C577 0.959 . S
H584 C577 0.961 . S
H585 C577 0.960 . S
H586 C578 0.930 . S
H587 C579 0.929 . S
H588 C596 0.929 . S
H589 C598 0.930 . S
H590 C600 0.930 . S
H591 C603 0.929 . S
H592 C606 0.930 . S
H593 C608 0.960 . S
H594 C608 0.960 . S
H595 C608 0.960 . S
C596 H588 0.929 . S
C596 C597 1.377 . S
C596 C598 1.384 . S
C597 C596 1.377 . S
C597 C603 1.390 . S
C598 H589 0.930 . S
C598 C596 1.384 . S
C598 C599 1.372 . S
C599 C598 1.372 . S
C599 C600 1.400 . S
C599 C604 1.490 . S
C600 H590 0.930 . S
C600 C599 1.400 . S
C600 C603 1.386 . S
H601 C617 0.930 . S
H602 C618 0.931 . S
C603 H591 0.929 . S
C603 C597 1.390 . S
C603 C600 1.386 . S
C604 C599 1.490 . S
C604 C606 1.395 . S
C604 C607 1.403 . S
H605 C611 0.930 . S
C606 H592 0.930 . S
C606 C604 1.395 . S
C606 C609 1.403 . S
C607 C604 1.403 . S
C607 C608 1.524 . S
C607 C611 1.400 . S
C608 H593 0.960 . S
C608 H594 0.960 . S
C608 H595 0.960 . S
C608 C607 1.524 . S
C609 C606 1.403 . S
C609 C610 1.392 . S
C609 C613 1.495 . S
C610 C609 1.392 . S
C610 C611 1.385 . S
C610 C612 1.478 . S
C611 H605 0.930 . S
C611 C607 1.400 . S
C611 C610 1.385 . S
C612 C610 1.478 . S
C612 C614 1.381 . S
C612 C618 1.383 . S
C613 C609 1.495 . S
C613 H619 0.959 . S
C613 H620 0.961 1_545 S
C613 H621 0.960 . S
C614 C612 1.381 . S
C614 C615 1.394 . S
C614 H622 0.930 . S
C615 C614 1.394 . S
C615 C616 1.383 . S
C615 H623 0.929 . S
C616 C615 1.383 . S
C616 C617 1.377 . S
C617 H601 0.930 . S
C617 C616 1.377 . S
C617 C618 1.379 . S
C618 H602 0.931 . S
C618 C612 1.383 . S
C618 C617 1.379 . S
H619 C613 0.959 . S
H620 C613 0.961 1_565 S
H621 C613 0.960 . S
H622 C614 0.930 . S
H623 C615 0.929 . S
H624 C632 0.929 . S
H625 C634 0.930 . S
H626 C636 0.930 . S
H627 C639 0.929 . S
H628 C642 0.930 . S
H629 C644 0.960 . S
H630 C644 0.960 . S
H631 C644 0.960 . S
C632 H624 0.929 . S
C632 C633 1.377 . S
C632 C634 1.384 . S
C633 C632 1.377 . S
C633 C639 1.390 . S
C634 H625 0.930 . S
C634 C632 1.384 . S
C634 C635 1.372 . S
C635 C634 1.372 . S
C635 C636 1.400 . S
C635 C640 1.490 . S
C636 H626 0.930 . S
C636 C635 1.400 . S
C636 C639 1.386 . S
H637 C653 0.930 . S
H638 C654 0.931 1_554 S
C639 H627 0.929 . S
C639 C633 1.390 . S
C639 C636 1.386 . S
C640 C635 1.490 . S
C640 C642 1.395 . S
C640 C643 1.403 . S
H641 C647 0.930 . S
C642 H628 0.930 . S
C642 C640 1.395 . S
C642 C645 1.403 1_554 S
C643 C640 1.403 . S
C643 C644 1.524 . S
C643 C647 1.400 . S
C644 H629 0.960 . S
C644 H630 0.960 . S
C644 H631 0.960 . S
C644 C643 1.524 . S
C645 C642 1.403 1_556 S
C645 C646 1.392 . S
C645 C649 1.495 . S
C646 C645 1.392 . S
C646 C647 1.385 1_556 S
C646 C648 1.478 . S
C647 H641 0.930 . S
C647 C643 1.400 . S
C647 C646 1.385 1_554 S
C648 C646 1.478 . S
C648 C650 1.381 . S
C648 C654 1.383 . S
C649 C645 1.495 . S
C649 H655 0.959 . S
C649 H656 0.961 . S
C649 H657 0.960 . S
C650 C648 1.381 . S
C650 C651 1.394 . S
C650 H658 0.930 . S
C651 C650 1.394 . S
C651 C652 1.383 . S
C651 H659 0.929 . S
C652 C651 1.383 . S
C652 C653 1.377 . S
C653 H637 0.930 . S
C653 C652 1.377 . S
C653 C654 1.379 . S
C654 H638 0.931 1_556 S
C654 C648 1.383 . S
C654 C653 1.379 . S
H655 C649 0.959 . S
H656 C649 0.961 . S
H657 C649 0.960 . S
H658 C650 0.930 . S
H659 C651 0.929 . S
H660 C668 0.929 1_655 S
H661 C670 0.930 1_655 S
H662 C672 0.930 . S
H663 C675 0.929 . S
H664 C678 0.930 1_655 S
H665 C680 0.960 . S
H666 C680 0.960 . S
H667 C680 0.960 . S
C668 H660 0.929 1_455 S
C668 C669 1.377 . S
C668 C670 1.384 . S
C669 C668 1.377 . S
C669 C675 1.390 . S
C670 H661 0.930 1_455 S
C670 C668 1.384 . S
C670 C671 1.372 . S
C671 C670 1.372 . S
C671 C672 1.400 . S
C671 C676 1.490 . S
C672 H662 0.930 . S
C672 C671 1.400 . S
C672 C675 1.386 . S
H673 C689 0.930 . S
H674 C690 0.931 . S
C675 H663 0.929 . S
C675 C669 1.390 . S
C675 C672 1.386 . S
C676 C671 1.490 . S
C676 C678 1.395 . S
C676 C679 1.403 . S
H677 C683 0.930 . S
C678 H664 0.930 1_455 S
C678 C676 1.395 . S
C678 C681 1.403 . S
C679 C676 1.403 . S
C679 C680 1.524 . S
C679 C683 1.400 . S
C680 H665 0.960 . S
C680 H666 0.960 . S
C680 H667 0.960 . S
C680 C679 1.524 . S
C681 C678 1.403 . S
C681 C682 1.392 . S
C681 C685 1.495 1_455 S
C682 C681 1.392 . S
C682 C683 1.385 . S
C682 C684 1.478 . S
C683 H677 0.930 . S
C683 C679 1.400 . S
C683 C682 1.385 . S
C684 C682 1.478 . S
C684 C686 1.381 . S
C684 C690 1.383 . S
C685 C681 1.495 1_655 S
C685 H691 0.959 . S
C685 H692 0.961 . S
C685 H693 0.960 . S
C686 C684 1.381 . S
C686 C687 1.394 . S
C686 H694 0.930 1_455 S
C687 C686 1.394 . S
C687 C688 1.383 . S
C687 H695 0.929 1_455 S
C688 C687 1.383 . S
C688 C689 1.377 . S
C689 H673 0.930 . S
C689 C688 1.377 . S
C689 C690 1.379 . S
C690 H674 0.931 . S
C690 C684 1.383 . S
C690 C689 1.379 . S
H691 C685 0.959 . S
H692 C685 0.961 . S
H693 C685 0.960 . S
H694 C686 0.930 1_655 S
H695 C687 0.929 1_655 S
C292 C81 1.440 . S
C273 C3 1.481 . S
C309 C21 1.402 . S
C328 C155 1.400 . S
C345 C37 2.181 1_665 S
C364 C259 2.205 . S
C381 C8 0.732 1_565 S
C400 C93 0.730 . S
C436 C167 0.710 . S
C417 C23 0.687 . S
C453 C35 1.448 . S
C472 C253 1.406 . S
C508 C185 2.207 . S
C489 C31 2.210 1_655 S
C525 C7 1.457 1_665 S
C544 C229 1.406 . S
C580 C105 1.400 . S
C561 C17 1.497 1_565 S
C616 C179 1.331 . S
C597 C36 1.377 . S
C652 C241 0.718 . S
C633 C9 0.736 . S
C669 C22 2.247 . S
C688 C111 2.241 . S
