# Generated by pormake.
# Topology nom, (4,4)-cn, num edge types: 1
# Building blocks:
#     Node 0, Type 0, BuildingBlock: GIZVER_clean_linker_0, # of connection points: 4
#     Node 1, Type 0, BuildingBlock: GIZVER_clean_linker_0, # of connection points: 4
#     Node 2, Type 0, BuildingBlock: GIZVER_clean_linker_0, # of connection points: 4
#     Node 3, Type 0, BuildingBlock: GIZVER_clean_linker_0, # of connection points: 4
#     Node 4, Type 0, BuildingBlock: GIZVER_clean_linker_0, # of connection points: 4
#     Node 5, Type 0, BuildingBlock: GIZVER_clean_linker_0, # of connection points: 4
#     Node 6, Type 1, BuildingBlock: TATPOV_clean_sbu_0, # of connection points: 4
#     Node 7, Type 1, BuildingBlock: TATPOV_clean_sbu_0, # of connection points: 4
#     Node 8, Type 1, BuildingBlock: TATPOV_clean_sbu_0, # of connection points: 4
#     Node 9, Type 1, BuildingBlock: TATPOV_clean_sbu_0, # of connection points: 4
#     Node 10, Type 1, BuildingBlock: TATPOV_clean_sbu_0, # of connection points: 4
#     Node 11, Type 1, BuildingBlock: TATPOV_clean_sbu_0, # of connection points: 4
#     Edge 12, Type (0, 1), BuildingBlock: MIFKUJ_clean_linker_0, # of connection points: 2
#     Edge 13, Type (0, 1), BuildingBlock: MIFKUJ_clean_linker_0, # of connection points: 2
#     Edge 14, Type (0, 1), BuildingBlock: MIFKUJ_clean_linker_0, # of connection points: 2
#     Edge 15, Type (0, 1), BuildingBlock: MIFKUJ_clean_linker_0, # of connection points: 2
#     Edge 16, Type (0, 1), BuildingBlock: MIFKUJ_clean_linker_0, # of connection points: 2
#     Edge 17, Type (0, 1), BuildingBlock: MIFKUJ_clean_linker_0, # of connection points: 2
#     Edge 18, Type (0, 1), BuildingBlock: MIFKUJ_clean_linker_0, # of connection points: 2
#     Edge 19, Type (0, 1), BuildingBlock: MIFKUJ_clean_linker_0, # of connection points: 2
#     Edge 20, Type (0, 1), BuildingBlock: MIFKUJ_clean_linker_0, # of connection points: 2
#     Edge 21, Type (0, 1), BuildingBlock: MIFKUJ_clean_linker_0, # of connection points: 2
#     Edge 22, Type (0, 1), BuildingBlock: MIFKUJ_clean_linker_0, # of connection points: 2
#     Edge 23, Type (0, 1), BuildingBlock: MIFKUJ_clean_linker_0, # of connection points: 2
#     Edge 24, Type (0, 1), BuildingBlock: MIFKUJ_clean_linker_0, # of connection points: 2
#     Edge 25, Type (0, 1), BuildingBlock: MIFKUJ_clean_linker_0, # of connection points: 2
#     Edge 26, Type (0, 1), BuildingBlock: MIFKUJ_clean_linker_0, # of connection points: 2
#     Edge 27, Type (0, 1), BuildingBlock: MIFKUJ_clean_linker_0, # of connection points: 2
#     Edge 28, Type (0, 1), BuildingBlock: MIFKUJ_clean_linker_0, # of connection points: 2
#     Edge 29, Type (0, 1), BuildingBlock: MIFKUJ_clean_linker_0, # of connection points: 2
#     Edge 30, Type (0, 1), BuildingBlock: MIFKUJ_clean_linker_0, # of connection points: 2
#     Edge 31, Type (0, 1), BuildingBlock: MIFKUJ_clean_linker_0, # of connection points: 2
#     Edge 32, Type (0, 1), BuildingBlock: MIFKUJ_clean_linker_0, # of connection points: 2
#     Edge 33, Type (0, 1), BuildingBlock: MIFKUJ_clean_linker_0, # of connection points: 2
#     Edge 34, Type (0, 1), BuildingBlock: MIFKUJ_clean_linker_0, # of connection points: 2
#     Edge 35, Type (0, 1), BuildingBlock: MIFKUJ_clean_linker_0, # of connection points: 2
# Relax obj value: 0.020
# Max RMSD: 0.118
# Mean RMSD: 0.090
data_MOF--net-nom--node1-TATPOV_clean_sbu_0--node2-GIZVER_clean_linker_0--edge1-MIFKUJ_clean_linker_0
_symmetry_space_group_name_H-M    P1
_symmetry_Int_Tables_number       1
_symmetry_cell_setting            triclinic
loop_
_symmetry_equiv_pos_as_xyz
'x, y, z'
_cell_length_a     59.687702
_cell_length_b     60.46681
_cell_length_c     58.68491
_cell_angle_alpha  90.634414
_cell_angle_beta   90.653917
_cell_angle_gamma 120.03066
loop_
_atom_site_label
_atom_site_type_symbol
_atom_site_fract_x
_atom_site_fract_y
_atom_site_fract_z
_atom_type_partial_charge
H0 H 0.98229 0.50491 0.35529 0.0
H1 H 0.98401 0.48936 0.28384 0.0
H2 H 0.9186 0.43888 0.3239 0.0
H3 H 0.00878 0.53927 0.32875 0.0
H4 H 0.00966 0.53242 0.29934 0.0
H5 H 0.03008 0.52249 0.35765 0.0
H6 H 0.10555 0.54153 0.33468 0.0
H7 H 0.04733 0.53346 0.28627 0.0
C8 C 0.97399 0.49226 0.34055 0.0
C9 C 0.94982 0.46994 0.34225 0.0
C10 C 0.98654 0.4992 0.3195 0.0
C11 C 0.97461 0.48352 0.30012 0.0
C12 C 0.94981 0.4617 0.30133 0.0
C13 C 0.93816 0.45475 0.3227 0.0
C14 C 0.00989 0.52547 0.31677 0.0
C15 C 0.03525 0.52624 0.32129 0.0
C16 C 0.04312 0.52553 0.34381 0.0
C17 C 0.06841 0.53071 0.34873 0.0
C18 C 0.08557 0.53587 0.33078 0.0
C19 C 0.07828 0.5371 0.30822 0.0
C20 C 0.05289 0.53181 0.30354 0.0
H21 H 0.457 0.9828 0.51234 0.0
H22 H 0.48552 0.00725 0.44488 0.0
H23 H 0.46816 0.93297 0.46719 0.0
H24 H 0.46072 0.02125 0.49913 0.0
H25 H 0.45802 0.0223 0.46894 0.0
H26 H 0.50885 0.03877 0.51518 0.0
H27 H 0.55796 0.1137 0.48848 0.0
H28 H 0.48826 0.0611 0.4524 0.0
C29 C 0.46415 0.97965 0.49644 0.0
C30 C 0.46209 0.95582 0.49193 0.0
C31 C 0.47304 0.99852 0.47963 0.0
C32 C 0.48016 0.99341 0.4583 0.0
C33 C 0.47855 0.96979 0.45371 0.0
C34 C 0.47037 0.95157 0.4709 0.0
C35 C 0.4706 0.02205 0.48295 0.0
C36 C 0.49645 0.04651 0.48307 0.0
C37 C 0.51366 0.0525 0.50174 0.0
C38 C 0.53606 0.07672 0.50386 0.0
C39 C 0.54152 0.09451 0.4866 0.0
C40 C 0.52447 0.08896 0.46808 0.0
C41 C 0.50196 0.06495 0.46626 0.0
H42 H 0.43403 0.49022 0.62026 0.0
H43 H 0.45757 0.4959 0.69077 0.0
H44 H 0.44286 0.55266 0.66235 0.0
H45 H 0.43258 0.45395 0.63837 0.0
H46 H 0.43606 0.45411 0.66859 0.0
H47 H 0.47256 0.47396 0.61402 0.0
H48 H 0.53542 0.46661 0.64112 0.0
H49 H 0.47506 0.45882 0.68538 0.0
C50 C 0.43988 0.50073 0.63636 0.0
C51 C 0.43883 0.52332 0.63887 0.0
C52 C 0.44721 0.49101 0.65495 0.0
C53 C 0.45316 0.50398 0.67617 0.0
C54 C 0.45185 0.52643 0.6789 0.0
C55 C 0.44538 0.53622 0.66002 0.0
C56 C 0.44531 0.46519 0.65307 0.0
C57 C 0.47153 0.46754 0.65029 0.0
C58 C 0.48259 0.47181 0.62859 0.0
C59 C 0.50588 0.47192 0.6255 0.0
C60 C 0.51826 0.46803 0.64409 0.0
C61 C 0.50725 0.46297 0.66572 0.0
C62 C 0.48399 0.46315 0.66883 0.0
H63 H 0.96284 0.42748 0.79123 0.0
H64 H 0.97617 0.44718 0.8629 0.0
H65 H 0.90427 0.43056 0.8306 0.0
H66 H 0.99785 0.42601 0.81247 0.0
H67 H 1.00284 0.43346 0.84224 0.0
H68 H 0.01637 0.46013 0.78402 0.0
H69 H 0.08046 0.53171 0.80691 0.0
H70 H 0.03097 0.47737 0.85602 0.0
C71 C 0.9566 0.43157 0.80721 0.0
C72 C 0.93187 0.42884 0.80856 0.0
C73 C 0.97301 0.4389 0.82669 0.0
C74 C 0.96413 0.44282 0.84767 0.0
C75 C 0.9391 0.43931 0.84928 0.0
C76 C 0.92362 0.43327 0.82948 0.0
C77 C 0.99869 0.43971 0.82574 0.0
C78 C 0.02055 0.46617 0.82062 0.0
C79 C 0.02724 0.47335 0.79787 0.0
C80 C 0.0486 0.4972 0.79304 0.0
C81 C 0.06314 0.51394 0.81091 0.0
C82 C 0.05725 0.50701 0.83372 0.0
C83 C 0.03558 0.48314 0.83849 0.0
H84 H 0.59377 0.0518 0.01071 0.0
H85 H 0.57273 0.02842 0.94032 0.0
H86 H 0.58069 0.09917 0.96465 0.0
H87 H 0.59587 0.01571 0.99623 0.0
H88 H 0.59709 0.01251 0.9661 0.0
H89 H 0.55209 0.99427 0.01539 0.0
H90 H 0.49675 0.92283 0.98337 0.0
H91 H 0.56184 0.97713 0.94583 0.0
C92 C 0.58791 0.05484 0.99403 0.0
C93 C 0.58723 0.07741 0.99001 0.0
C94 C 0.58198 0.03665 0.97629 0.0
C95 C 0.57594 0.04156 0.95434 0.0
C96 C 0.57505 0.06393 0.95031 0.0
C97 C 0.58016 0.08135 0.96823 0.0
C98 C 0.58513 0.01363 0.97999 0.0
C99 C 0.55939 0.98899 0.98033 0.0
C100 C 0.54502 0.98171 0.00051 0.0
C101 C 0.52219 0.95785 0.00174 0.0
C102 C 0.51361 0.94174 0.98241 0.0
C103 C 0.52762 0.94853 0.9623 0.0
C104 C 0.55056 0.97218 0.9612 0.0
H105 H 0.56373 0.5404 0.13519 0.0
H106 H 0.55114 0.54085 0.20723 0.0
H107 H 0.5508 0.47637 0.17555 0.0
H108 H 0.57796 0.5808 0.15683 0.0
H109 H 0.57139 0.58053 0.18641 0.0
H110 H 0.5425 0.56856 0.12747 0.0
H111 H 0.48247 0.58358 0.14738 0.0
H112 H 0.53248 0.57985 0.19862 0.0
C113 C 0.55881 0.53062 0.1513 0.0
C114 C 0.55632 0.50629 0.1528 0.0
C115 C 0.55652 0.54305 0.17083 0.0
C116 C 0.55167 0.53087 0.19196 0.0
C117 C 0.54934 0.50665 0.19372 0.0
C118 C 0.55097 0.49431 0.17398 0.0
C119 C 0.56292 0.57057 0.16981 0.0
C120 C 0.53943 0.57271 0.16384 0.0
C121 C 0.5318 0.57146 0.14083 0.0
C122 C 0.51111 0.57518 0.13506 0.0
C123 C 0.49778 0.57969 0.15218 0.0
C124 C 0.50533 0.58152 0.17511 0.0
C125 C 0.52616 0.5779 0.18096 0.0
Zn126 Zn 0.68313 0.45144 0.41677 0.0
Zn127 Zn 0.65523 0.40115 0.41608 0.0
O128 O 0.69374 0.40924 0.41587 0.0
O129 O 0.7164 0.45123 0.41664 0.0
O130 O 0.63451 0.36244 0.4172 0.0
O131 O 0.66763 0.45399 0.44607 0.0
O132 O 0.64311 0.41214 0.44491 0.0
C133 C 0.7156 0.42994 0.41606 0.0
C134 C 0.64874 0.43157 0.37771 0.0
O135 O 0.64219 0.41002 0.38655 0.0
O136 O 0.66615 0.45197 0.38724 0.0
C137 C 0.63959 0.34818 0.40478 0.0
O138 O 0.65867 0.3588 0.39038 0.0
C139 C 0.64982 0.43368 0.45448 0.0
Zn140 Zn 0.23305 0.68316 0.5886 0.0
Zn141 Zn 0.26204 0.66134 0.58596 0.0
O142 O 0.28811 0.7006 0.5866 0.0
O143 O 0.264 0.71837 0.59096 0.0
O144 O 0.28574 0.64639 0.58568 0.0
O145 O 0.21608 0.66375 0.61667 0.0
O146 O 0.23934 0.64486 0.61419 0.0
C147 C 0.28609 0.72055 0.58895 0.0
C148 C 0.22309 0.65204 0.54772 0.0
O149 O 0.24033 0.64785 0.55627 0.0
O150 O 0.21716 0.66692 0.55794 0.0
C151 C 0.2773 0.62262 0.58264 0.0
O152 O 0.25235 0.60719 0.57922 0.0
C153 C 0.22191 0.64764 0.62402 0.0
Zn154 Zn 0.5681 0.23656 0.73074 0.0
Zn155 Zn 0.61981 0.26632 0.7345 0.0
O156 O 0.60594 0.29189 0.73368 0.0
O157 O 0.56358 0.26725 0.73187 0.0
O158 O 0.65872 0.28934 0.73704 0.0
O159 O 0.56841 0.21908 0.75974 0.0
O160 O 0.61084 0.24318 0.76251 0.0
C161 C 0.58337 0.28935 0.73283 0.0
C162 C 0.59504 0.22949 0.6936 0.0
O163 O 0.61492 0.24585 0.70492 0.0
O164 O 0.57255 0.22285 0.70052 0.0
C165 C 0.67394 0.2808 0.73298 0.0
O166 O 0.66409 0.25656 0.72733 0.0
C167 C 0.58957 0.22525 0.77003 0.0
Zn168 Zn 0.33769 0.58497 0.91599 0.0
Zn169 Zn 0.36394 0.63493 0.91273 0.0
O170 O 0.32511 0.62606 0.91351 0.0
O171 O 0.30416 0.58436 0.91764 0.0
O172 O 0.3852 0.67377 0.91188 0.0
O173 O 0.35625 0.58534 0.94446 0.0
O174 O 0.37902 0.62715 0.94183 0.0
C175 C 0.30388 0.60503 0.91579 0.0
C176 C 0.36713 0.60088 0.87519 0.0
O177 O 0.37399 0.62316 0.88314 0.0
O178 O 0.35129 0.58134 0.88596 0.0
C179 C 0.37726 0.68819 0.90393 0.0
O180 O 0.35364 0.67785 0.89537 0.0
C181 C 0.37406 0.60669 0.95205 0.0
Zn182 Zn 0.77207 0.43814 0.08217 0.0
Zn183 Zn 0.74328 0.38838 0.07439 0.0
O184 O 0.7169 0.40156 0.07435 0.0
O185 O 0.74178 0.4433 0.07746 0.0
O186 O 0.72071 0.35019 0.06838 0.0
O187 O 0.79514 0.44126 0.05637 0.0
O188 O 0.76928 0.40048 0.04795 0.0
C189 C 0.71947 0.42385 0.07514 0.0
C190 C 0.7753 0.40942 0.11886 0.0
O191 O 0.76129 0.39065 0.1054 0.0
O192 O 0.78135 0.4319 0.11341 0.0
C193 C 0.7299 0.33528 0.07021 0.0
O194 O 0.75441 0.34498 0.07604 0.0
C195 C 0.78931 0.4219 0.04382 0.0
Zn196 Zn 0.34324 0.78659 0.22227 0.0
Zn197 Zn 0.37222 0.76443 0.22579 0.0
O198 O 0.33396 0.73497 0.22735 0.0
O199 O 0.31004 0.75296 0.22324 0.0
O200 O 0.39232 0.74552 0.22686 0.0
O201 O 0.3596 0.8021 0.19257 0.0
O202 O 0.38423 0.78474 0.19592 0.0
C203 C 0.31172 0.73311 0.22595 0.0
C204 C 0.37852 0.80442 0.26137 0.0
O205 O 0.38522 0.78873 0.25388 0.0
O206 O 0.36077 0.80639 0.2512 0.0
C207 C 0.38376 0.72491 0.21517 0.0
O208 O 0.36257 0.71696 0.20273 0.0
C209 C 0.37761 0.79887 0.18516 0.0
H210 H 0.08699 0.57489 0.27854 0.0
H211 H 0.12612 0.6006 0.25707 0.0
H212 H 0.15591 0.55184 0.27782 0.0
H213 H 0.11665 0.52602 0.2995 0.0
H214 H 0.18915 0.59971 0.28857 0.0
H215 H 0.14249 0.55659 0.22095 0.0
H216 H 0.10624 0.53856 0.19302 0.0
H217 H 0.11779 0.61348 0.18118 0.0
H218 H 0.15388 0.63195 0.20929 0.0
H219 H 0.30719 0.68662 0.23548 0.0
H220 H 0.26732 0.64633 0.24249 0.0
H221 H 0.22234 0.68285 0.22933 0.0
H222 H 0.26181 0.72288 0.22204 0.0
H223 H 0.19864 0.63515 0.21119 0.0
H224 H 0.23893 0.67614 0.28359 0.0
H225 H 0.27438 0.69468 0.31235 0.0
H226 H 0.27374 0.62344 0.31544 0.0
H227 H 0.23848 0.60458 0.28646 0.0
C228 C 0.10138 0.56901 0.27783 0.0
C229 C 0.09874 0.54845 0.2908 0.0
C230 C 0.12386 0.5838 0.26555 0.0
C231 C 0.14404 0.57819 0.26579 0.0
C232 C 0.14066 0.5566 0.27744 0.0
C233 C 0.11821 0.54184 0.28978 0.0
C234 C 0.16971 0.59673 0.25652 0.0
C235 C 0.19132 0.60694 0.27141 0.0
C236 C 0.17252 0.60664 0.23433 0.0
C237 C 0.15083 0.59564 0.21736 0.0
C238 C 0.13719 0.56921 0.21252 0.0
C239 C 0.11668 0.55891 0.19663 0.0
C240 C 0.10969 0.57486 0.18535 0.0
C241 C 0.12323 0.60115 0.18992 0.0
C242 C 0.14374 0.61155 0.20581 0.0
C243 C 0.28879 0.68599 0.23384 0.0
C244 C 0.28775 0.70807 0.22843 0.0
C245 C 0.26602 0.66296 0.23789 0.0
C246 C 0.24184 0.66164 0.23667 0.0
C247 C 0.24074 0.68338 0.23035 0.0
C248 C 0.2634 0.70633 0.22631 0.0
C249 C 0.21774 0.63832 0.2434 0.0
C250 C 0.19649 0.62737 0.22811 0.0
C251 C 0.21515 0.62774 0.26526 0.0
C252 C 0.23633 0.63906 0.28266 0.0
C253 C 0.24651 0.6645 0.29027 0.0
C254 C 0.26653 0.67506 0.30663 0.0
C255 C 0.27637 0.66028 0.31566 0.0
C256 C 0.26614 0.63489 0.30839 0.0
C257 C 0.24614 0.62425 0.292 0.0
H258 H 0.29186 0.66848 0.32833 0.0
H259 H 0.09381 0.56684 0.17305 0.0
H260 H 0.55583 0.1069 0.43143 0.0
H261 H 0.57134 0.14862 0.41381 0.0
H262 H 0.52042 0.16187 0.45621 0.0
H263 H 0.50421 0.11977 0.47296 0.0
H264 H 0.52518 0.18432 0.41726 0.0
H265 H 0.58391 0.18166 0.47235 0.0
H266 H 0.61095 0.16538 0.48881 0.0
H267 H 0.65667 0.18628 0.42848 0.0
H268 H 0.62958 0.20228 0.4115 0.0
H269 H 0.59806 0.31986 0.43193 0.0
H270 H 0.57503 0.27359 0.4369 0.0
H271 H 0.62455 0.26633 0.38809 0.0
H272 H 0.64781 0.31261 0.38311 0.0
H273 H 0.62026 0.24016 0.42675 0.0
H274 H 0.56184 0.2474 0.37412 0.0
H275 H 0.53418 0.26427 0.36047 0.0
H276 H 0.48772 0.2363 0.42006 0.0
H277 H 0.51532 0.21956 0.43422 0.0
C278 C 0.54729 0.11838 0.43621 0.0
C279 C 0.52869 0.1102 0.45327 0.0
C280 C 0.55633 0.1423 0.4264 0.0
C281 C 0.54751 0.1587 0.43408 0.0
C282 C 0.52757 0.14966 0.44999 0.0
C283 C 0.51824 0.12559 0.45951 0.0
C284 C 0.5608 0.18605 0.42753 0.0
C285 C 0.54596 0.19654 0.41942 0.0
C286 C 0.58796 0.20209 0.43023 0.0
C287 C 0.60456 0.19292 0.44056 0.0
C288 C 0.59965 0.18266 0.46255 0.0
C289 C 0.61497 0.17348 0.47197 0.0
C290 C 0.63548 0.17475 0.45967 0.0
C291 C 0.64075 0.18527 0.43796 0.0
C292 C 0.62542 0.1944 0.42843 0.0
C293 C 0.60397 0.30843 0.42213 0.0
C294 C 0.62482 0.31999 0.40712 0.0
C295 C 0.59068 0.28194 0.42491 0.0
C296 C 0.5979 0.26643 0.41271 0.0
C297 C 0.6186 0.2779 0.39764 0.0
C298 C 0.63184 0.30437 0.39479 0.0
C299 C 0.58466 0.23843 0.41647 0.0
C300 C 0.59954 0.22787 0.42424 0.0
C301 C 0.5575 0.22251 0.41389 0.0
C302 C 0.54078 0.2324 0.40531 0.0
C303 C 0.54584 0.245 0.38439 0.0
C304 C 0.53015 0.25451 0.37655 0.0
C305 C 0.50924 0.25141 0.38941 0.0
C306 C 0.50393 0.23871 0.41012 0.0
C307 C 0.51957 0.22918 0.41805 0.0
H308 H 0.49712 0.25879 0.38331 0.0
H309 H 0.64733 0.16763 0.46699 0.0
H310 H 0.45762 0.57104 0.62196 0.0
H311 H 0.43166 0.58756 0.60454 0.0
H312 H 0.36592 0.51123 0.60015 0.0
H313 H 0.39186 0.49459 0.61761 0.0
H314 H 0.36762 0.54463 0.56414 0.0
H315 H 0.3718 0.54125 0.646 0.0
H316 H 0.39513 0.54916 0.68285 0.0
H317 H 0.43378 0.62998 0.67192 0.0
H318 H 0.41108 0.6225 0.63475 0.0
H319 H 0.26565 0.57293 0.57698 0.0
H320 H 0.29504 0.55591 0.58021 0.0
H321 H 0.35895 0.6319 0.59379 0.0
H322 H 0.32965 0.64905 0.59085 0.0
H323 H 0.35883 0.59865 0.62368 0.0
H324 H 0.35192 0.6016 0.5423 0.0
H325 H 0.32914 0.5928 0.5051 0.0
H326 H 0.29488 0.51213 0.51523 0.0
H327 H 0.31719 0.52044 0.55265 0.0
C328 C 0.43796 0.55767 0.61638 0.0
C329 C 0.42665 0.5316 0.62134 0.0
C330 C 0.42312 0.56712 0.60651 0.0
C331 C 0.39675 0.55066 0.60153 0.0
C332 C 0.38624 0.52423 0.60393 0.0
C333 C 0.40111 0.51474 0.61382 0.0
C334 C 0.37945 0.56135 0.59777 0.0
C335 C 0.36549 0.55628 0.57716 0.0
C336 C 0.37688 0.57668 0.61478 0.0
C337 C 0.38993 0.5813 0.63748 0.0
C338 C 0.38539 0.5607 0.65139 0.0
C339 C 0.39849 0.5651 0.67233 0.0
C340 C 0.41596 0.59005 0.6797 0.0
C341 C 0.42027 0.61066 0.66617 0.0
C342 C 0.40729 0.60635 0.64516 0.0
C343 C 0.28598 0.58607 0.58053 0.0
C344 C 0.29527 0.61237 0.58367 0.0
C345 C 0.3028 0.57631 0.58225 0.0
C346 C 0.32927 0.59265 0.58704 0.0
C347 C 0.33861 0.61892 0.59006 0.0
C348 C 0.32183 0.62871 0.58832 0.0
C349 C 0.34704 0.58225 0.58984 0.0
C350 C 0.36102 0.5872 0.61048 0.0
C351 C 0.34943 0.56669 0.57289 0.0
C352 C 0.33604 0.56165 0.55038 0.0
C353 C 0.33937 0.58198 0.53668 0.0
C354 C 0.32657 0.57708 0.51554 0.0
C355 C 0.31052 0.55193 0.50783 0.0
C356 C 0.30729 0.53161 0.52123 0.0
C357 C 0.32003 0.5364 0.5424 0.0
H358 H 0.30064 0.54818 0.49146 0.0
H359 H 0.4261 0.59342 0.69591 0.0
H360 H 0.9048 0.44942 0.78971 0.0
H361 H 0.86393 0.42604 0.76821 0.0
H362 H 0.87336 0.35993 0.76436 0.0
H363 H 0.91451 0.38342 0.7858 0.0
H364 H 0.84527 0.36639 0.72477 0.0
H365 H 0.84043 0.35762 0.80732 0.0
H366 H 0.85125 0.37453 0.84676 0.0
H367 H 0.82205 0.42525 0.83306 0.0
H368 H 0.81059 0.40818 0.79373 0.0
H369 H 0.71163 0.26823 0.72664 0.0
H370 H 0.75839 0.29577 0.73189 0.0
H371 H 0.74756 0.35937 0.74879 0.0
H372 H 0.70076 0.33188 0.74392 0.0
H373 H 0.77757 0.35473 0.77956 0.0
H374 H 0.77453 0.35583 0.69793 0.0
H375 H 0.76327 0.33712 0.65908 0.0
H376 H 0.80774 0.30004 0.67006 0.0
H377 H 0.81898 0.31825 0.70912 0.0
C378 C 0.8987 0.43028 0.78341 0.0
C379 C 0.9127 0.41816 0.78947 0.0
C380 C 0.87534 0.41692 0.77119 0.0
C381 C 0.86547 0.39115 0.76499 0.0
C382 C 0.8807 0.37982 0.76893 0.0
C383 C 0.90423 0.39327 0.78111 0.0
C384 C 0.8377 0.37517 0.75844 0.0
C385 C 0.83039 0.36361 0.73672 0.0
C386 C 0.81834 0.37174 0.77396 0.0
C387 C 0.82487 0.38182 0.79764 0.0
C388 C 0.83642 0.37245 0.81277 0.0
C389 C 0.84266 0.38206 0.83512 0.0
C390 C 0.83767 0.40122 0.84243 0.0
C391 C 0.82606 0.41052 0.82746 0.0
C392 C 0.81952 0.40077 0.80517 0.0
C393 C 0.71919 0.28813 0.73131 0.0
C394 C 0.70241 0.29781 0.73499 0.0
C395 C 0.74599 0.30391 0.73413 0.0
C396 C 0.75656 0.32973 0.74052 0.0
C397 C 0.73987 0.33953 0.7438 0.0
C398 C 0.71309 0.32377 0.74103 0.0
C399 C 0.78474 0.34602 0.74563 0.0
C400 C 0.79225 0.35756 0.76734 0.0
C401 C 0.80407 0.34914 0.73003 0.0
C402 C 0.7974 0.33822 0.70654 0.0
C403 C 0.78174 0.34352 0.69213 0.0
C404 C 0.77539 0.33303 0.67006 0.0
C405 C 0.78473 0.31735 0.66212 0.0
C406 C 0.80049 0.31217 0.67624 0.0
C407 C 0.80689 0.32259 0.69834 0.0
H408 H 0.77979 0.30925 0.64503 0.0
H409 H 0.84269 0.40874 0.8597 0.0
H410 H 0.48639 0.93249 0.93336 0.0
H411 H 0.46279 0.89012 0.915 0.0
H412 H 0.52399 0.87563 0.935 0.0
H413 H 0.54791 0.91834 0.95269 0.0
H414 H 0.50067 0.84969 0.89604 0.0
H415 H 0.47478 0.86265 0.9696 0.0
H416 H 0.45962 0.88197 -0.0017 0.0
H417 H 0.38969 0.85749 0.95913 0.0
H418 H 0.40451 0.83813 0.93005 0.0
H419 H 0.42843 0.71579 0.91702 0.0
H420 H 0.45591 0.76227 0.91972 0.0
H421 H 0.39227 0.77107 0.89584 0.0
H422 H 0.36462 0.7246 0.89311 0.0
H423 H 0.41609 0.80037 0.93383 0.0
H424 H 0.44217 0.78449 0.86125 0.0
H425 H 0.45795 0.76379 0.83456 0.0
H426 H 0.52832 0.79262 0.87415 0.0
H427 H 0.5128 0.81322 0.90127 0.0
C428 C 0.49538 0.92075 0.9327 0.0
C429 C 0.51903 0.92867 0.94417 0.0
C430 C 0.48176 0.89642 0.9225 0.0
C431 C 0.4913 0.87942 0.92416 0.0
C432 C 0.51619 0.88835 0.93355 0.0
C433 C 0.52996 0.91282 0.94351 0.0
C434 C 0.47404 0.85162 0.91929 0.0
C435 C 0.48222 0.83889 0.90435 0.0
C436 C 0.44985 0.83747 0.93007 0.0
C437 C 0.44089 0.84915 0.94752 0.0
C438 C 0.45625 0.86153 0.967 0.0
C439 C 0.44773 0.87251 0.98334 0.0
C440 C 0.42378 0.87109 0.98049 0.0
C441 C 0.40827 0.85862 0.9613 0.0
C442 C 0.41671 0.84762 0.94489 0.0
C443 C 0.42029 0.72759 0.91221 0.0
C444 C 0.39427 0.71642 0.90486 0.0
C445 C 0.43609 0.75418 0.91365 0.0
C446 C 0.42624 0.77019 0.90779 0.0
C447 C 0.40032 0.75911 0.90038 0.0
C448 C 0.38455 0.73252 0.8988 0.0
C449 C 0.44259 0.79844 0.91044 0.0
C450 C 0.43432 0.81123 0.92519 0.0
C451 C 0.46679 0.8125 0.89973 0.0
C452 C 0.47622 0.80022 0.8834 0.0
C453 C 0.46092 0.78626 0.86436 0.0
C454 C 0.46984 0.77457 0.84914 0.0
C455 C 0.4941 0.77684 0.85268 0.0
C456 C 0.50952 0.79086 0.87143 0.0
C457 C 0.50069 0.80257 0.88672 0.0
H458 H 0.50096 0.76778 0.84087 0.0
H459 H 0.41722 0.87958 0.99319 0.0
H460 H 0.59869 0.53036 0.126 0.0
H461 H 0.61726 0.51014 0.10272 0.0
H462 H 0.55045 0.43626 0.11422 0.0
H463 H 0.53175 0.45649 0.13761 0.0
H464 H 0.59333 0.43713 0.12738 0.0
H465 H 0.56598 0.46003 0.05988 0.0
H466 H 0.5595 0.48799 0.03365 0.0
H467 H 0.64175 0.53706 0.02942 0.0
H468 H 0.64876 0.50962 0.05589 0.0
H469 H 0.66774 0.38749 0.07763 0.0
H470 H 0.63122 0.39516 0.08125 0.0
H471 H 0.68348 0.47621 0.07574 0.0
H472 H 0.71964 0.46877 0.07169 0.0
H473 H 0.63915 0.46324 0.05405 0.0
H474 H 0.66532 0.44693 0.12794 0.0
H475 H 0.67309 0.4211 0.15578 0.0
H476 H 0.59368 0.3615 0.14889 0.0
H477 H 0.58554 0.38691 0.12079 0.0
C478 C 0.58743 0.50994 0.1228 0.0
C479 C 0.56382 0.49501 0.13377 0.0
C480 C 0.59811 0.49834 0.10948 0.0
C481 C 0.5853 0.47162 0.10673 0.0
C482 C 0.56074 0.45688 0.11616 0.0
C483 C 0.55006 0.46847 0.12949 0.0
C484 C 0.59923 0.45912 0.0971 0.0
C485 C 0.60272 0.44229 0.11101 0.0
C486 C 0.61197 0.46622 0.07599 0.0
C487 C 0.60789 0.48279 0.05998 0.0
C488 C 0.5827 0.47688 0.05349 0.0
C489 C 0.57893 0.49262 0.03855 0.0
C490 C 0.6002 0.5143 0.02989 0.0
C491 C 0.62529 0.52025 0.03613 0.0
C492 C 0.62918 0.50458 0.05107 0.0
C493 C 0.67134 0.40689 0.07681 0.0
C494 C 0.69667 0.42753 0.07467 0.0
C495 C 0.65047 0.41125 0.07895 0.0
C496 C 0.65465 0.43631 0.07907 0.0
C497 C 0.67971 0.45672 0.07569 0.0
C498 C 0.70046 0.45241 0.07354 0.0
C499 C 0.63371 0.44191 0.08465 0.0
C500 C 0.62905 0.45751 0.07006 0.0
C501 C 0.62003 0.43391 0.10525 0.0
C502 C 0.62492 0.41863 0.12206 0.0
C503 C 0.64958 0.42823 0.13224 0.0
C504 C 0.65404 0.41369 0.14808 0.0
C505 C 0.63391 0.38963 0.15403 0.0
C506 C 0.60926 0.3801 0.14421 0.0
C507 C 0.60472 0.39456 0.12833 0.0
H508 H 0.63739 0.37841 0.16631 0.0
H509 H 0.59724 0.52647 0.01833 0.0
H510 H 0.4242 0.90808 0.47945 0.0
H511 H 0.39886 0.87177 0.50356 0.0
H512 H 0.43978 0.91708 0.56314 0.0
H513 H 0.46596 0.95392 0.53875 0.0
H514 H 0.43149 0.86553 0.5628 0.0
H515 H 0.38301 0.90829 0.55504 0.0
H516 H 0.36347 0.92994 0.53434 0.0
H517 H 0.31628 0.86163 0.49457 0.0
H518 H 0.33582 0.83967 0.51479 0.0
H519 H 0.29077 0.76523 0.60458 0.0
H520 H 0.3253 0.80851 0.59694 0.0
H521 H 0.36717 0.77808 0.56137 0.0
H522 H 0.33291 0.7346 0.56962 0.0
H523 H 0.33617 0.82768 0.55731 0.0
H524 H 0.4311 0.82257 0.55853 0.0
H525 H 0.45096 0.80222 0.58078 0.0
H526 H 0.40519 0.79753 0.6384 0.0
H527 H 0.38532 0.81817 0.61663 0.0
C528 C 0.42825 0.91033 0.49764 0.0
C529 C 0.44735 0.93384 0.50717 0.0
C530 C 0.41357 0.88955 0.51141 0.0
C531 C 0.41736 0.89176 0.53512 0.0
C532 C 0.43663 0.91503 0.54484 0.0
C533 C 0.45141 0.93604 0.53095 0.0
C534 C 0.40017 0.86975 0.54936 0.0
C535 C 0.41065 0.85729 0.56186 0.0
C536 C 0.37304 0.85936 0.54843 0.0
C537 C 0.36099 0.87238 0.53637 0.0
C538 C 0.36858 0.89793 0.54179 0.0
C539 C 0.35749 0.91025 0.53015 0.0
C540 C 0.33867 0.89718 0.51313 0.0
C541 C 0.33086 0.87173 0.50775 0.0
C542 C 0.3419 0.85933 0.51932 0.0
C543 C 0.30759 0.76774 0.59555 0.0
C544 C 0.30901 0.74649 0.58752 0.0
C545 C 0.32733 0.79253 0.59118 0.0
C546 C 0.34887 0.79667 0.57852 0.0
C547 C 0.35098 0.77548 0.57147 0.0
C548 C 0.33132 0.75059 0.57611 0.0
C549 C 0.36729 0.82277 0.57041 0.0
C550 C 0.357 0.83599 0.5588 0.0
C551 C 0.39453 0.83395 0.57254 0.0
C552 C 0.40658 0.82175 0.58586 0.0
C553 C 0.42536 0.81732 0.57599 0.0
C554 C 0.4366 0.8057 0.58851 0.0
C555 C 0.42929 0.79853 0.61097 0.0
C556 C 0.41077 0.80301 0.62098 0.0
C557 C 0.39948 0.81463 0.60854 0.0
H558 H 0.43801 0.78953 0.62063 0.0
H559 H 0.33011 0.90675 0.50414 0.0
H560 H 0.48115 0.42068 0.69175 0.0
H561 H 0.49974 0.39817 0.71164 0.0
H562 H 0.57658 0.45986 0.6981 0.0
H563 H 0.55806 0.4826 0.67836 0.0
H564 H 0.56867 0.41498 0.68113 0.0
H565 H 0.55671 0.4453 0.75263 0.0
H566 H 0.53311 0.45437 0.78205 0.0
H567 H 0.47852 0.37421 0.78689 0.0
H568 H 0.50157 0.36465 0.75725 0.0
H569 H 0.61999 0.33978 0.72629 0.0
H570 H 0.61243 0.37591 0.72211 0.0
H571 H 0.53103 0.32581 0.73338 0.0
H572 H 0.53836 0.28994 0.73773 0.0
H573 H 0.54777 0.37078 0.75511 0.0
H574 H 0.55421 0.34131 0.67995 0.0
H575 H 0.57499 0.3311 0.64868 0.0
H576 H 0.63743 0.40882 0.64938 0.0
H577 H 0.61716 0.4194 0.6809 0.0
C578 C 0.50199 0.42999 0.69388 0.0
C579 C 0.51814 0.45334 0.68334 0.0
C580 C 0.51262 0.41703 0.70518 0.0
C581 C 0.53957 0.42726 0.70625 0.0
C582 C 0.55574 0.45155 0.6974 0.0
C583 C 0.54513 0.46454 0.68617 0.0
C584 C 0.55055 0.41112 0.71353 0.0
C585 C 0.5647 0.40586 0.69758 0.0
C586 C 0.54472 0.39864 0.73469 0.0
C587 C 0.53081 0.40428 0.75259 0.0
C588 C 0.53956 0.42961 0.75983 0.0
C589 C 0.5263 0.43484 0.77658 0.0
C590 C 0.50431 0.41489 0.78631 0.0
C591 C 0.49556 0.38965 0.77934 0.0
C592 C 0.50874 0.38431 0.76259 0.0
C593 C 0.60055 0.33656 0.72813 0.0
C594 C 0.57977 0.31191 0.73215 0.0
C595 C 0.59624 0.35719 0.72567 0.0
C596 C 0.57111 0.35351 0.72723 0.0
C597 C 0.55058 0.32915 0.73213 0.0
C598 C 0.55483 0.30859 0.73448 0.0
C599 C 0.5656 0.37447 0.72259 0.0
C600 C 0.55232 0.38047 0.73893 0.0
C601 C 0.57198 0.38749 0.70167 0.0
C602 C 0.5844 0.38104 0.68303 0.0
C603 C 0.57253 0.35614 0.67362 0.0
C604 C 0.58417 0.35031 0.65581 0.0
C605 C 0.60758 0.36927 0.64712 0.0
C606 C 0.61935 0.39413 0.65619 0.0
C607 C 0.6078 0.40005 0.67403 0.0
H608 H 0.61655 0.36472 0.63331 0.0
H609 H 0.49406 0.41898 0.79927 0.0
H610 H 0.07639 0.49178 0.86898 0.0
H611 H 0.11604 0.51858 0.89111 0.0
H612 H 0.12235 0.58586 0.86036 0.0
H613 H 0.08233 0.55916 0.83848 0.0
H614 H 0.16424 0.58043 0.85244 0.0
H615 H 0.11697 0.58031 0.91696 0.0
H616 H 0.08323 0.56187 0.946 0.0
H617 H 0.11541 0.51701 0.97097 0.0
H618 H 0.14913 0.53488 0.94186 0.0
H619 H 0.29183 0.64081 0.90007 0.0
H620 H 0.24819 0.63447 0.89361 0.0
H621 H 0.21504 0.55952 0.92261 0.0
H622 H 0.25804 0.5659 0.92953 0.0
H623 H 0.18684 0.57976 0.9339 0.0
H624 H 0.22473 0.56992 0.8642 0.0
H625 H 0.25689 0.5844 0.83369 0.0
H626 H 0.24071 0.64415 0.81745 0.0
H627 H 0.20867 0.63018 0.84809 0.0
C628 C 0.08553 0.51233 0.86767 0.0
C629 C 0.07637 0.5233 0.85175 0.0
C630 C 0.10832 0.52768 0.88029 0.0
C631 C 0.12229 0.55424 0.87726 0.0
C632 C 0.11196 0.56542 0.86287 0.0
C633 C 0.0891 0.55012 0.85038 0.0
C634 C 0.1493 0.56948 0.88622 0.0
C635 C 0.16919 0.58095 0.87037 0.0
C636 C 0.15574 0.56967 0.90951 0.0
C637 C 0.13554 0.55888 0.92712 0.0
C638 C 0.11675 0.56638 0.92853 0.0
C639 C 0.09765 0.55605 0.94503 0.0
C640 C 0.09716 0.53826 0.96031 0.0
C641 C 0.11582 0.5308 0.95914 0.0
C642 C 0.13496 0.54106 0.94266 0.0
C643 C 0.27522 0.62326 0.90552 0.0
C644 C 0.2784 0.60371 0.91498 0.0
C645 C 0.2503 0.61959 0.90172 0.0
C646 C 0.22826 0.59631 0.90728 0.0
C647 C 0.23163 0.57761 0.91813 0.0
C648 C 0.25633 0.58125 0.92192 0.0
C649 C 0.20168 0.5899 0.89999 0.0
C650 C 0.18188 0.57999 0.9161 0.0
C651 C 0.1952 0.59071 0.87685 0.0
C652 C 0.21464 0.59928 0.85863 0.0
C653 C 0.22823 0.58629 0.85426 0.0
C654 C 0.24639 0.59437 0.83692 0.0
C655 C 0.25091 0.61524 0.8237 0.0
C656 C 0.23725 0.62804 0.82775 0.0
C657 C 0.2191 0.62007 0.84511 0.0
H658 H 0.26495 0.62144 0.81026 0.0
H659 H 0.08235 0.53028 0.97307 0.0
H660 H 0.6325 0.09843 0.0149 0.0
H661 H 0.65386 0.1402 0.03444 0.0
H662 H 0.58642 0.14734 0.02191 0.0
H663 H 0.56503 0.10562 0.00243 0.0
H664 H 0.62922 0.18694 0.00521 0.0
H665 H 0.60511 0.14306 0.07598 0.0
H666 H 0.60159 0.1119 0.1045 0.0
H667 H 0.68443 0.1482 0.10926 0.0
H668 H 0.68846 0.17938 0.08051 0.0
H669 H 0.67841 0.30873 0.05793 0.0
H670 H 0.65173 0.26301 0.04929 0.0
H671 H 0.71723 0.25299 0.06297 0.0
H672 H 0.74394 0.29861 0.07198 0.0
H673 H 0.67418 0.21446 0.08051 0.0
H674 H 0.69871 0.25593 0.00852 0.0
H675 H 0.70337 0.28661 0.97903 0.0
H676 H 0.62086 0.25411 0.97554 0.0
H677 H 0.61573 0.22345 0.00526 0.0
C678 C 0.62187 0.10846 0.0171 0.0
C679 C 0.59715 0.09881 0.00702 0.0
C680 C 0.63414 0.13242 0.02818 0.0
C681 C 0.62183 0.14704 0.0295 0.0
C682 C 0.59639 0.13652 0.02096 0.0
C683 C 0.58414 0.11263 0.00991 0.0
C684 C 0.63639 0.17428 0.03723 0.0
C685 C 0.63861 0.1929 0.02188 0.0
C686 C 0.64943 0.18216 0.05863 0.0
C687 C 0.64708 0.16342 0.07592 0.0
C688 C 0.62258 0.14427 0.08295 0.0
C689 C 0.62049 0.12663 0.09919 0.0
C690 C 0.64277 0.12803 0.10864 0.0
C691 C 0.66719 0.14712 0.1019 0.0
C692 C 0.66939 0.1648 0.08565 0.0
C693 C 0.68715 0.29681 0.05918 0.0
C694 C 0.71339 0.30742 0.0655 0.0
C695 C 0.67186 0.27065 0.05418 0.0
C696 C 0.68253 0.25455 0.05522 0.0
C697 C 0.70855 0.26499 0.06204 0.0
C698 C 0.72384 0.29114 0.06708 0.0
C699 C 0.66679 0.22703 0.04853 0.0
C700 C 0.66453 0.20843 0.06396 0.0
C701 C 0.65383 0.21908 0.02709 0.0
C702 C 0.65686 0.23759 0.00931 0.0
C703 C 0.68158 0.25548 0.00162 0.0
C704 C 0.6843 0.27284 0.98483 0.0
C705 C 0.66243 0.27236 0.97547 0.0
C706 C 0.63779 0.25449 0.98284 0.0
C707 C 0.63496 0.23711 -0.00035 0.0
H708 H 0.66458 0.2858 0.96246 0.0
H709 H 0.64111 0.11436 0.12122 0.0
H710 H 0.52931 0.62396 0.20272 0.0
H711 H 0.50882 0.64725 0.21819 0.0
H712 H 0.43379 0.58438 0.19854 0.0
H713 H 0.45411 0.56105 0.1833 0.0
H714 H 0.45054 0.63149 0.17554 0.0
H715 H 0.44389 0.59975 0.25165 0.0
H716 H 0.46107 0.59241 0.2874 0.0
H717 H 0.50987 0.67333 0.29792 0.0
H718 H 0.49326 0.68116 0.26204 0.0
H719 H 0.36629 0.67718 0.19726 0.0
H720 H 0.38828 0.65243 0.19677 0.0
H721 H 0.45387 0.7137 0.23269 0.0
H722 H 0.43153 0.73846 0.23378 0.0
H723 H 0.44518 0.66979 0.24892 0.0
H724 H 0.45514 0.70347 0.17493 0.0
H725 H 0.44422 0.71406 0.1375 0.0
H726 H 0.39669 0.63424 0.12078 0.0
H727 H 0.40692 0.62314 0.15828 0.0
C728 C 0.50838 0.6146 0.20284 0.0
C729 C 0.49326 0.5908 0.19172 0.0
C730 C 0.49671 0.62797 0.21156 0.0
C731 C 0.46982 0.6176 0.20929 0.0
C732 C 0.45456 0.59269 0.20043 0.0
C733 C 0.46616 0.57934 0.19182 0.0
C734 C 0.45824 0.63419 0.21161 0.0
C735 C 0.44895 0.63956 0.19162 0.0
C736 C 0.45756 0.64574 0.23244 0.0
C737 C 0.46753 0.64103 0.25402 0.0
C738 C 0.45848 0.61598 0.26146 0.0
C739 C 0.46807 0.61173 0.28178 0.0
C740 C 0.48661 0.63239 0.29489 0.0
C741 C 0.49554 0.65735 0.28773 0.0
C742 C 0.48602 0.6617 0.26741 0.0
C743 C 0.3854 0.68546 0.20508 0.0
C744 C 0.39724 0.70991 0.21539 0.0
C745 C 0.39802 0.67129 0.20471 0.0
C746 C 0.42297 0.68135 0.21431 0.0
C747 C 0.43467 0.70555 0.22509 0.0
C748 C 0.42192 0.71971 0.22564 0.0
C749 C 0.4367 0.66653 0.2128 0.0
C750 C 0.44665 0.66171 0.2328 0.0
C751 C 0.43868 0.6559 0.1918 0.0
C752 C 0.43152 0.66248 0.16959 0.0
C753 C 0.44204 0.68816 0.16343 0.0
C754 C 0.43605 0.69426 0.14215 0.0
C755 C 0.4197 0.67484 0.12681 0.0
C756 C 0.40927 0.64927 0.13272 0.0
C757 C 0.41514 0.64307 0.15399 0.0
H758 H 0.41517 0.6796 0.11031 0.0
H759 H 0.494 0.62905 0.31063 0.0
H760 H 0.92438 0.42548 0.36568 0.0
H761 H 0.88675 0.41308 0.38972 0.0
H762 H 0.89978 0.48991 0.38708 0.0
H763 H 0.93764 0.50243 0.36364 0.0
H764 H 0.87697 0.46717 0.42668 0.0
H765 H 0.86728 0.44444 0.34542 0.0
H766 H 0.87224 0.42162 0.31255 0.0
H767 H 0.82365 0.34979 0.34416 0.0
H768 H 0.81924 0.37221 0.37769 0.0
H769 H 0.76398 0.47105 0.41306 0.0
H770 H 0.80476 0.47179 0.40987 0.0
H771 H 0.76509 0.38959 0.4135 0.0
H772 H 0.72348 0.38859 0.41615 0.0
H773 H 0.79987 0.4058 0.38065 0.0
H774 H 0.80324 0.42744 0.45889 0.0
H775 H 0.79896 0.44958 0.49264 0.0
H776 H 0.85803 0.52158 0.46765 0.0
H777 H 0.86243 0.49995 0.43357 0.0
C778 C 0.91984 0.43994 0.37115 0.0
C779 C 0.93372 0.46484 0.36267 0.0
C780 C 0.89828 0.43283 0.38476 0.0
C781 C 0.89002 0.45039 0.38961 0.0
C782 C 0.90568 0.47599 0.38342 0.0
C783 C 0.92742 0.48318 0.37007 0.0
C784 C 0.86337 0.44169 0.3975 0.0
C785 C 0.86008 0.45368 0.41671 0.0
C786 C 0.84124 0.42345 0.38482 0.0
C787 C 0.84326 0.41004 0.36426 0.0
C788 C 0.85788 0.42379 0.34551 0.0
C789 C 0.86071 0.41094 0.3268 0.0
C790 C 0.84837 0.3843 0.32629 0.0
C791 C 0.83326 0.37044 0.34458 0.0
C792 C 0.8307 0.38321 0.3635 0.0
C793 C 0.76374 0.45303 0.41337 0.0
C794 C 0.74035 0.42973 0.41498 0.0
C795 C 0.78724 0.45353 0.4117 0.0
C796 C 0.78816 0.43081 0.41198 0.0
C797 C 0.76488 0.4074 0.41349 0.0
C798 C 0.74114 0.40686 0.41503 0.0
C799 C 0.81351 0.43198 0.40944 0.0
C800 C 0.81659 0.41868 0.39111 0.0
C801 C 0.83543 0.44889 0.423 0.0
C802 C 0.8331 0.46203 0.44362 0.0
C803 C 0.81523 0.44801 0.46053 0.0
C804 C 0.81279 0.46047 0.47973 0.0
C805 C 0.8282 0.48697 0.48228 0.0
C806 C 0.84612 0.50106 0.46566 0.0
C807 C 0.84864 0.48869 0.44641 0.0
H808 H 0.82626 0.49659 0.49715 0.0
H809 H 0.85043 0.37441 0.31169 0.0
H810 H 0.09941 0.51477 0.36888 0.0
H811 H 0.12461 0.53155 0.40446 0.0
H812 H 0.08691 0.57534 0.41733 0.0
H813 H 0.06203 0.55899 0.38174 0.0
H814 H 0.13992 0.60476 0.41669 0.0
H815 H 0.07606 0.52692 0.45111 0.0
H816 H 0.04934 0.48022 0.45481 0.0
H817 H 0.11795 0.47449 0.46168 0.0
H818 H 0.14511 0.52115 0.4577 0.0
H819 H 0.18607 0.65765 0.52533 0.0
H820 H 0.15996 0.63366 0.49226 0.0
H821 H 0.20068 0.59159 0.48892 0.0
H822 H 0.22684 0.61537 0.52258 0.0
H823 H 0.14876 0.56012 0.48363 0.0
H824 H 0.21276 0.63713 0.45037 0.0
H825 H 0.24036 0.68365 0.44601 0.0
H826 H 0.1729 0.6907 0.43562 0.0
H827 H 0.14485 0.64425 0.44024 0.0
C828 C 0.09606 0.52748 0.37961 0.0
C829 C 0.0788 0.53562 0.37249 0.0
C830 C 0.11041 0.53699 0.39994 0.0
C831 C 0.10771 0.55478 0.41345 0.0
C832 C 0.0893 0.56165 0.4071 0.0
C833 C 0.07489 0.55208 0.38687 0.0
C834 C 0.12595 0.56841 0.43271 0.0
C835 C 0.1416 0.59503 0.43149 0.0
C836 C 0.12892 0.55556 0.45147 0.0
C837 C 0.11262 0.52751 0.45386 0.0
C838 C 0.08546 0.51568 0.45319 0.0
C839 C 0.07023 0.48922 0.45539 0.0
C840 C 0.08194 0.47439 0.45841 0.0
C841 C 0.10891 0.486 0.4593 0.0
C842 C 0.12423 0.51246 0.4571 0.0
C843 C 0.1897 0.64345 0.51754 0.0
C844 C 0.20867 0.63853 0.52659 0.0
C845 C 0.17475 0.62977 0.49855 0.0
C846 C 0.17854 0.61102 0.48796 0.0
C847 C 0.19748 0.60603 0.49683 0.0
C848 C 0.21251 0.61974 0.51596 0.0
C849 C 0.16227 0.59655 0.46785 0.0
C850 C 0.14715 0.56982 0.4688 0.0
C851 C 0.15989 0.60924 0.44866 0.0
C852 C 0.17669 0.63721 0.44583 0.0
C853 C 0.20379 0.64862 0.44733 0.0
C854 C 0.21952 0.67498 0.44478 0.0
C855 C 0.20839 0.69013 0.44059 0.0
C856 C 0.1815 0.67894 0.43889 0.0
C857 C 0.16567 0.65259 0.44144 0.0
H858 H 0.2206 0.71053 0.43862 0.0
H859 H 0.07012 0.45391 0.46011 0.0
H860 H 0.58869 0.10648 0.50972 0.0
H861 H 0.61132 0.13156 0.54396 0.0
H862 H 0.54035 0.09287 0.58122 0.0
H863 H 0.51758 0.0682 0.54712 0.0
H864 H 0.59716 0.1642 0.56064 0.0
H865 H 0.55294 0.09654 0.63768 0.0
H866 H 0.54149 0.05283 0.64828 0.0
H867 H 0.59686 0.05436 0.60133 0.0
H868 H 0.60895 0.09822 0.59067 0.0
H869 H 0.56133 0.20833 0.65769 0.0
H870 H 0.56378 0.18315 0.6259 0.0
H871 H 0.63678 0.19507 0.65235 0.0
H872 H 0.63485 0.22101 0.68399 0.0
H873 H 0.59336 0.14041 0.64172 0.0
H874 H 0.64489 0.22248 0.60906 0.0
H875 H 0.65571 0.26604 0.59851 0.0
H876 H 0.58691 0.23541 0.55647 0.0
H877 H 0.57545 0.19167 0.56705 0.0
C878 C 0.5781 0.10278 0.5254 0.0
C879 C 0.55124 0.08561 0.5256 0.0
C880 C 0.59107 0.1171 0.54495 0.0
C881 C 0.57751 0.11419 0.5651 0.0
C882 C 0.55131 0.09523 0.56595 0.0
C883 C 0.53828 0.08103 0.54638 0.0
C884 C 0.58906 0.13367 0.58371 0.0
C885 C 0.5968 0.15905 0.57834 0.0
C886 C 0.58874 0.127 0.60678 0.0
C887 C 0.58178 0.10068 0.6133 0.0
C888 C 0.56282 0.08764 0.62972 0.0
C889 C 0.55617 0.06281 0.63571 0.0
C890 C 0.56841 0.05081 0.62546 0.0
C891 C 0.58735 0.06364 0.60921 0.0
C892 C 0.59407 0.08848 0.60316 0.0
C893 C 0.57808 0.2059 0.65657 0.0
C894 C 0.59791 0.21663 0.67326 0.0
C895 C 0.57945 0.19154 0.63844 0.0
C896 C 0.60042 0.18729 0.63691 0.0
C897 C 0.62047 0.19823 0.65332 0.0
C898 C 0.6194 0.21312 0.67124 0.0
C899 C 0.60042 0.17043 0.61852 0.0
C900 C 0.59454 0.14558 0.62395 0.0
C901 C 0.60241 0.17752 0.59548 0.0
C902 C 0.60924 0.20379 0.58897 0.0
C903 C 0.63195 0.22504 0.59772 0.0
C904 C 0.63822 0.24976 0.5917 0.0
C905 C 0.62199 0.25349 0.57686 0.0
C906 C 0.59947 0.23249 0.56797 0.0
C907 C 0.59309 0.20772 0.57395 0.0
H908 H 0.62689 0.27265 0.57221 0.0
H909 H 0.56323 0.03158 0.63011 0.0
H910 H 0.47621 0.57684 0.6924 0.0
H911 H 0.46691 0.5944 0.72649 0.0
H912 H 0.418 0.51808 0.75071 0.0
H913 H 0.42689 0.50043 0.71665 0.0
H914 H 0.39314 0.54661 0.7457 0.0
H915 H 0.47283 0.55694 0.77843 0.0
H916 H 0.51983 0.57309 0.77937 0.0
H917 H 0.53468 0.65026 0.77772 0.0
H918 H 0.48773 0.63453 0.77646 0.0
H919 H 0.35591 0.55579 0.85489 0.0
H920 H 0.37498 0.54882 0.82129 0.0
H921 H 0.42263 0.63022 0.81327 0.0
H922 H 0.40378 0.63753 0.84761 0.0
H923 H 0.45023 0.60572 0.80711 0.0
H924 H 0.37196 0.59694 0.77737 0.0
H925 H 0.32527 0.58222 0.77552 0.0
H926 H 0.30798 0.50439 0.76952 0.0
H927 H 0.35456 0.51859 0.77166 0.0
C928 C 0.46407 0.56387 0.70534 0.0
C929 C 0.45222 0.53725 0.70183 0.0
C930 C 0.45881 0.57392 0.72479 0.0
C931 C 0.44164 0.5575 0.741 0.0
C932 C 0.43127 0.53104 0.73832 0.0
C933 C 0.4366 0.52099 0.71896 0.0
C934 C 0.43208 0.56747 0.75934 0.0
C935 C 0.40556 0.55931 0.75928 0.0
C936 C 0.44857 0.58512 0.77629 0.0
C937 C 0.47677 0.59455 0.77708 0.0
C938 C 0.48611 0.57734 0.77805 0.0
C939 C 0.51274 0.58642 0.77869 0.0
C940 C 0.53023 0.61268 0.77853 0.0
C941 C 0.52111 0.62992 0.7778 0.0
C942 C 0.4945 0.62093 0.77714 0.0
C943 C 0.37033 0.57233 0.84602 0.0
C944 C 0.3782 0.59726 0.85393 0.0
C945 C 0.38118 0.56828 0.8267 0.0
C946 C 0.39996 0.58898 0.81456 0.0
C947 C 0.40806 0.61397 0.82235 0.0
C948 C 0.39719 0.6181 0.84188 0.0
C949 C 0.41107 0.58397 0.79398 0.0
C950 C 0.43783 0.59321 0.79343 0.0
C951 C 0.39487 0.56753 0.7762 0.0
C952 C 0.36679 0.55885 0.77481 0.0
C953 C 0.3582 0.57667 0.77581 0.0
C954 C 0.33175 0.56842 0.77469 0.0
C955 C 0.31367 0.54239 0.77244 0.0
C956 C 0.32201 0.52455 0.77126 0.0
C957 C 0.34844 0.5327 0.77239 0.0
H958 H 0.2932 0.53604 0.77157 0.0
H959 H 0.55084 0.61967 0.77904 0.0
H960 H 0.89157 0.40442 0.86375 0.0
H961 H 0.87005 0.40555 0.89834 0.0
H962 H 0.93941 0.47367 0.92122 0.0
H963 H 0.9609 0.47329 0.88568 0.0
H964 H 0.91268 0.43382 0.95562 0.0
H965 H 0.89783 0.48352 0.90302 0.0
H966 H 0.88584 0.49642 0.86737 0.0
H967 H 0.80771 0.43459 0.87264 0.0
H968 H 0.81945 0.42058 0.9078 0.0
H969 H 0.8395 0.45902 0.03877 0.0
H970 H 0.86833 0.46364 0.00769 0.0
H971 H 0.80729 0.39543 0.97502 0.0
H972 H 0.77827 0.39032 0.00638 0.0
H973 H 0.83379 0.44108 0.94697 0.0
H974 H 0.852 0.39014 -0.00107 0.0
H975 H 0.8646 0.38119 0.03636 0.0
H976 H 0.93769 0.45086 0.0338 0.0
H977 H 0.92535 0.46044 0.99649 0.0
C978 C 0.90216 0.41988 0.87593 0.0
C979 C 0.92763 0.4392 0.87165 0.0
C980 C 0.88992 0.42036 0.8958 0.0
C981 C 0.90301 0.43991 0.91211 0.0
C982 C 0.92898 0.45852 0.90867 0.0
C983 C 0.94121 0.45825 0.88846 0.0
C984 C 0.88884 0.44077 0.93231 0.0
C985 C 0.8957 0.43587 0.95383 0.0
C986 C 0.86656 0.44323 0.92984 0.0
C987 C 0.85966 0.45078 0.90798 0.0
C988 C 0.87822 0.4723 0.89636 0.0
C989 C 0.87144 0.47987 0.87624 0.0
C990 C 0.84604 0.46632 0.86773 0.0
C991 C 0.82739 0.44508 0.87925 0.0
C992 C 0.83414 0.43723 0.89922 0.0
C993 C 0.83216 0.44495 0.025 0.0
C994 C 0.80655 0.42434 0.02494 0.0
C995 C 0.84873 0.44758 0.00734 0.0
C996 C 0.83992 0.42983 0.98919 0.0
C997 C 0.81438 0.40927 0.98898 0.0
C998 C 0.79788 0.40637 0.00687 0.0
C999 C 0.85712 0.4333 0.96999 0.0
C1000 C 0.85084 0.43914 0.9487 0.0
C1001 C 0.88005 0.43208 0.97277 0.0
C1002 C 0.88763 0.42614 0.99503 0.0
C1003 C 0.87067 0.40367 0.00644 0.0
C1004 C 0.87778 0.39845 0.02762 0.0
C1005 C 0.90189 0.41548 0.03749 0.0
C1006 C 0.919 0.43771 0.02615 0.0
C1007 C 0.91196 0.44302 0.00498 0.0
H1008 H 0.90735 0.41143 0.0539 0.0
H1009 H 0.8408 0.47229 0.85221 0.0
H1010 H 0.54365 0.96147 0.0442 0.0
H1011 H 0.52145 0.93631 0.07757 0.0
H1012 H 0.44829 0.90451 0.04137 0.0
H1013 H 0.47 0.9305 0.00846 0.0
H1014 H 0.47606 0.92976 0.10398 0.0
H1015 H 0.42271 0.83633 0.04895 0.0
H1016 H 0.42925 0.8167 0.01446 0.0
H1017 H 0.51149 0.86584 0.02162 0.0
H1018 H 0.50552 0.88524 0.05649 0.0
H1019 H 0.36991 0.83254 0.16048 0.0
H1020 H 0.39737 0.86113 0.13117 0.0
H1021 H 0.44699 0.82847 0.13577 0.0
H1022 H 0.41951 0.79959 0.16535 0.0
H1023 H 0.43701 0.83619 0.09129 0.0
H1024 H 0.46652 0.88395 0.16113 0.0
H1025 H 0.46214 0.90157 0.19782 0.0
H1026 H 0.43199 0.94347 0.16295 0.0
H1027 H 0.43583 0.92579 0.12606 0.0
C1028 C 0.52274 0.94989 0.04364 0.0
C1029 C 0.50863 0.94773 0.02355 0.0
C1030 C 0.51013 0.93535 0.06264 0.0
C1031 C 0.48337 0.91821 0.06165 0.0
C1032 C 0.46903 0.91737 0.04228 0.0
C1033 C 0.48149 0.93222 0.02351 0.0
C1034 C 0.47046 0.90001 0.08019 0.0
C1035 C 0.46753 0.90931 0.10125 0.0
C1036 C 0.45985 0.87338 0.07667 0.0
C1037 C 0.46362 0.86248 0.05522 0.0
C1038 C 0.4422 0.84293 0.04319 0.0
C1039 C 0.44581 0.83173 0.02365 0.0
C1040 C 0.47077 0.83994 0.01593 0.0
C1041 C 0.49216 0.85949 0.02764 0.0
C1042 C 0.48867 0.87063 0.04728 0.0
C1043 C 0.38649 0.83117 0.15517 0.0
C1044 C 0.39258 0.81383 0.16541 0.0
C1045 C 0.40227 0.84768 0.13848 0.0
C1046 C 0.42445 0.84723 0.13162 0.0
C1047 C 0.43002 0.82921 0.14099 0.0
C1048 C 0.41428 0.8127 0.15784 0.0
C1049 C 0.44184 0.86586 0.11482 0.0
C1050 C 0.44559 0.85664 0.09405 0.0
C1051 C 0.45344 0.89255 0.1187 0.0
C1052 C 0.45128 0.90338 0.14084 0.0
C1053 C 0.45878 0.89677 0.1613 0.0
C1054 C 0.45642 0.90679 0.18213 0.0
C1055 C 0.44675 0.92359 0.18272 0.0
C1056 C 0.43947 0.93044 0.16247 0.0
C1057 C 0.44176 0.92045 0.14159 0.0
H1058 H 0.44494 0.93132 0.19887 0.0
H1059 H 0.47353 0.83122 0.00081 0.0
H1060 H 0.51988 0.45756 0.20855 0.0
H1061 H 0.53016 0.43864 0.241 0.0
H1062 H 0.59297 0.51305 0.26105 0.0
H1063 H 0.58282 0.53202 0.22889 0.0
H1064 H 0.60578 0.47308 0.24946 0.0
H1065 H 0.54672 0.48827 0.29461 0.0
H1066 H 0.50407 0.48317 0.30324 0.0
H1067 H 0.47128 0.40182 0.30594 0.0
H1068 H 0.5137 0.40643 0.29699 0.0
H1069 H 0.66401 0.47332 0.35164 0.0
H1070 H 0.64084 0.47878 0.32 0.0
H1071 H 0.57991 0.40031 0.32497 0.0
H1072 H 0.60311 0.39467 0.3573 0.0
H1073 H 0.56062 0.433 0.3208 0.0
H1074 H 0.6187 0.41653 0.28031 0.0
H1075 H 0.66009 0.41933 0.27053 0.0
H1076 H 0.69287 0.49909 0.25661 0.0
H1077 H 0.6518 0.49688 0.26663 0.0
C1078 C 0.53533 0.46995 0.22034 0.0
C1079 C 0.55058 0.49626 0.21619 0.0
C1080 C 0.54118 0.45913 0.23881 0.0
C1081 C 0.56243 0.47447 0.25323 0.0
C1082 C 0.57649 0.50094 0.25005 0.0
C1083 C 0.57051 0.51179 0.23179 0.0
C1084 C 0.57226 0.46285 0.26971 0.0
C1085 C 0.59602 0.46446 0.26515 0.0
C1086 C 0.55876 0.45039 0.28948 0.0
C1087 C 0.5333 0.44767 0.29483 0.0
C1088 C 0.53036 0.46927 0.29678 0.0
C1089 C 0.50624 0.46648 0.3018 0.0
C1090 C 0.48496 0.44218 0.30505 0.0
C1091 C 0.48777 0.42063 0.30336 0.0
C1092 C 0.51185 0.42332 0.29834 0.0
C1093 C 0.6458 0.45705 0.34597 0.0
C1094 C 0.63543 0.43352 0.35702 0.0
C1095 C 0.6326 0.46021 0.32776 0.0
C1096 C 0.60876 0.4399 0.31996 0.0
C1097 C 0.59834 0.41621 0.33071 0.0
C1098 C 0.61168 0.41297 0.34904 0.0
C1099 C 0.59481 0.44429 0.30105 0.0
C1100 C 0.57022 0.44121 0.30496 0.0
C1101 C 0.60733 0.45504 0.28039 0.0
C1102 C 0.63216 0.45655 0.27435 0.0
C1103 C 0.63479 0.43472 0.27533 0.0
C1104 C 0.65819 0.43619 0.26971 0.0
C1105 C 0.6791 0.45937 0.26298 0.0
C1106 C 0.67665 0.48113 0.26182 0.0
C1107 C 0.65329 0.47977 0.26743 0.0
H1108 H 0.6972 0.46047 0.25863 0.0
H1109 H 0.46631 0.44006 0.30894 0.0
H1110 H 0.50271 0.94405 0.43867 0.0
H1111 H 0.49238 0.91878 0.4032 0.0
H1112 H 0.4455 0.95034 0.38035 0.0
H1113 H 0.4554 0.97529 0.41573 0.0
H1114 H 0.4185 0.89746 0.38525 0.0
H1115 H 0.49734 0.96185 0.35138 0.0
H1116 H 0.54455 0.99044 0.3494 0.0
H1117 H 0.55585 0.92568 0.35036 0.0
H1118 H 0.5087 0.8967 0.35267 0.0
H1119 H 0.37064 0.84176 0.27887 0.0
H1120 H 0.39366 0.87139 0.3102 0.0
H1121 H 0.44047 0.83628 0.32046 0.0
H1122 H 0.41768 0.80652 0.2884 0.0
H1123 H 0.46964 0.88836 0.32356 0.0
H1124 H 0.39268 0.82388 0.35676 0.0
H1125 H 0.34591 0.79388 0.3602 0.0
H1126 H 0.33163 0.85674 0.36312 0.0
H1127 H 0.37829 0.88713 0.35936 0.0
C1128 C 0.49094 0.94625 0.4257 0.0
C1129 C 0.47967 0.96146 0.43007 0.0
C1130 C 0.4851 0.93184 0.40545 0.0
C1131 C 0.46797 0.93252 0.38929 0.0
C1132 C 0.45871 0.94954 0.39267 0.0
C1133 C 0.46461 0.96398 0.41283 0.0
C1134 C 0.45637 0.91279 0.37092 0.0
C1135 C 0.42963 0.89572 0.37156 0.0
C1136 C 0.47116 0.90971 0.35384 0.0
C1137 C 0.4995 0.92712 0.35245 0.0
C1138 C 0.5099 0.95371 0.3514 0.0
C1139 C 0.53665 0.96999 0.35016 0.0
C1140 C 0.5532 0.95989 0.34982 0.0
C1141 C 0.54302 0.93348 0.35065 0.0
C1142 C 0.51628 0.91712 0.3519 0.0
C1143 C 0.38572 0.84012 0.28776 0.0
C1144 C 0.39214 0.82156 0.2812 0.0
C1145 C 0.39888 0.85713 0.30574 0.0
C1146 C 0.41855 0.85584 0.31789 0.0
C1147 C 0.4253 0.83754 0.31133 0.0
C1148 C 0.41215 0.82048 0.29313 0.0
C1149 C 0.43161 0.87363 0.33749 0.0
C1150 C 0.45855 0.8901 0.33728 0.0
C1151 C 0.41712 0.876 0.35529 0.0
C1152 C 0.38899 0.85778 0.3576 0.0
C1153 C 0.37956 0.83131 0.35796 0.0
C1154 C 0.35306 0.81423 0.36 0.0
C1155 C 0.3358 0.82339 0.36184 0.0
C1156 C 0.34502 0.84966 0.36169 0.0
C1157 C 0.37149 0.86683 0.35963 0.0
H1158 H 0.3153 0.81014 0.36342 0.0
H1159 H 0.5739 0.97252 0.34886 0.0
H1160 H 0.48452 0.43288 0.5949 0.0
H1161 H 0.50708 0.42579 0.56346 0.0
H1162 H 0.57227 0.50163 0.57436 0.0
H1163 H 0.55 0.50844 0.60629 0.0
H1164 H 0.55819 0.48317 0.526 0.0
H1165 H 0.5778 0.46158 0.59943 0.0
H1166 H 0.56722 0.44027 0.63653 0.0
H1167 H 0.52835 0.36696 0.60245 0.0
H1168 H 0.53814 0.38789 0.5651 0.0
H1169 H 0.66189 0.47611 0.48023 0.0
H1170 H 0.63494 0.48142 0.50809 0.0
H1171 H 0.57759 0.40159 0.50061 0.0
H1172 H 0.60461 0.39597 0.47256 0.0
H1173 H 0.58513 0.42016 0.54606 0.0
H1174 H 0.56811 0.44252 0.47224 0.0
H1175 H 0.5798 0.46468 0.43556 0.0
H1176 H 0.61498 0.53727 0.47084 0.0
H1177 H 0.60384 0.51554 0.50778 0.0
C1178 C 0.5032 0.44837 0.58991 0.0
C1179 C 0.5155 0.47131 0.60266 0.0
C1180 C 0.51613 0.44423 0.57216 0.0
C1181 C 0.54136 0.46311 0.56683 0.0
C1182 C 0.55276 0.48689 0.57825 0.0
C1183 C 0.54003 0.49084 0.59632 0.0
C1184 C 0.5569 0.45707 0.55124 0.0
C1185 C 0.56424 0.46954 0.5304 0.0
C1186 C 0.56439 0.43897 0.557 0.0
C1187 C 0.55837 0.42632 0.57944 0.0
C1188 C 0.56668 0.44093 0.59983 0.0
C1189 C 0.56089 0.42892 0.62091 0.0
C1190 C 0.54707 0.40228 0.62185 0.0
C1191 C 0.539 0.3876 0.60169 0.0
C1192 C 0.54464 0.39953 0.58056 0.0
C1193 C 0.64371 0.45953 0.48467 0.0
C1194 C 0.63527 0.43565 0.47394 0.0
C1195 C 0.6283 0.46265 0.50057 0.0
C1196 C 0.60406 0.44203 0.50604 0.0
C1197 C 0.59619 0.41778 0.49647 0.0
C1198 C 0.61166 0.41461 0.48048 0.0
C1199 C 0.58655 0.44634 0.52076 0.0
C1200 C 0.57886 0.43358 0.54151 0.0
C1201 C 0.57882 0.46426 0.51498 0.0
C1202 C 0.58532 0.4774 0.49278 0.0
C1203 C 0.5785 0.46321 0.47219 0.0
C1204 C 0.58501 0.47569 0.45135 0.0
C1205 C 0.59818 0.50236 0.45087 0.0
C1206 C 0.6048 0.51661 0.47124 0.0
C1207 C 0.59837 0.50422 0.49213 0.0
H1208 H 0.6032 0.51199 0.43471 0.0
H1209 H 0.5427 0.39301 0.63818 0.0
H1210 H 0.05219 0.53618 0.76796 0.0
H1211 H 0.0792 0.55461 0.7346 0.0
H1212 H 0.09686 0.4936 0.73382 0.0
H1213 H 0.0694 0.47491 0.76709 0.0
H1214 H 0.14055 0.54217 0.73647 0.0
H1215 H 0.06508 0.49752 0.68973 0.0
H1216 H 0.01995 0.4817 0.67716 0.0
H1217 H 0.03667 0.55874 0.66746 0.0
H1218 H 0.08183 0.57506 0.68031 0.0
H1219 H 0.22136 0.60446 0.63924 0.0
H1220 H 0.19037 0.57286 0.66543 0.0
H1221 H 0.15569 0.61984 0.67581 0.0
H1222 H 0.1863 0.65128 0.64989 0.0
H1223 H 0.11972 0.57077 0.66445 0.0
H1224 H 0.19256 0.61514 0.71681 0.0
H1225 H 0.23736 0.63155 0.73075 0.0
H1226 H 0.22521 0.55529 0.73051 0.0
H1227 H 0.18039 0.53846 0.71629 0.0
C1228 C 0.061 0.5262 0.76004 0.0
C1229 C 0.05853 0.50402 0.76976 0.0
C1230 C 0.0765 0.53675 0.74109 0.0
C1231 C 0.09003 0.52545 0.73176 0.0
C1232 C 0.0865 0.50252 0.74074 0.0
C1233 C 0.07065 0.49175 0.75953 0.0
C1234 C 0.11 0.53935 0.71451 0.0
C1235 C 0.13598 0.54791 0.72042 0.0
C1236 C 0.10402 0.54721 0.69385 0.0
C1237 C 0.07684 0.53752 0.68614 0.0
C1238 C 0.0591 0.51111 0.68511 0.0
C1239 C 0.03351 0.50205 0.67789 0.0
C1240 C 0.02544 0.51921 0.67155 0.0
C1241 C 0.04295 0.54547 0.67238 0.0
C1242 C 0.06856 0.55463 0.6796 0.0
C1243 C 0.20744 0.60825 0.64744 0.0
C1244 C 0.20622 0.63033 0.64235 0.0
C1245 C 0.1897 0.59015 0.66234 0.0
C1246 C 0.17058 0.59392 0.67238 0.0
C1247 C 0.17009 0.61642 0.66804 0.0
C1248 C 0.18773 0.63445 0.65328 0.0
C1249 C 0.15028 0.5742 0.68675 0.0
C1250 C 0.12425 0.56458 0.68026 0.0
C1251 C 0.15623 0.56546 0.70692 0.0
C1252 C 0.18325 0.57559 0.71518 0.0
C1253 C 0.19953 0.6019 0.71949 0.0
C1254 C 0.2249 0.61127 0.7275 0.0
C1255 C 0.23416 0.59449 0.73143 0.0
C1256 C 0.21804 0.56828 0.7274 0.0
C1257 C 0.19265 0.55882 0.71937 0.0
H1258 H 0.2538 0.60177 0.73767 0.0
H1259 H 0.00562 0.51215 0.66596 0.0
H1260 H 0.53701 0.07159 0.93328 0.0
H1261 H 0.53942 0.09554 0.89903 0.0
H1262 H 0.6119 0.10043 0.88221 0.0
H1263 H 0.60917 0.07592 0.9162 0.0
H1264 H 0.61284 0.14858 0.88787 0.0
H1265 H 0.56554 0.06849 0.84733 0.0
H1266 H 0.52975 0.02442 0.84071 0.0
H1267 H 0.47526 0.0511 0.83916 0.0
H1268 H 0.51069 0.09532 0.8461 0.0
H1269 H 0.62976 0.22048 0.78726 0.0
H1270 H 0.62752 0.19052 0.81606 0.0
H1271 H 0.54676 0.1655 0.82576 0.0
H1272 H 0.54867 0.19469 0.79648 0.0
H1273 H 0.55186 0.12586 0.8221 0.0
H1274 H 0.59591 0.20395 0.86582 0.0
H1275 H 0.62971 0.24831 0.87495 0.0
H1276 H 0.6878 0.22627 0.87349 0.0
H1277 H 0.65436 0.1818 0.86406 0.0
C1278 C 0.55286 0.0769 0.92172 0.0
C1279 C 0.57273 0.0717 0.92707 0.0
C1280 C 0.55432 0.09066 0.90228 0.0
C1281 C 0.57589 0.09979 0.88818 0.0
C1282 C 0.59509 0.09347 0.89288 0.0
C1283 C 0.59339 0.07929 0.91211 0.0
C1284 C 0.57968 0.11825 0.8702 0.0
C1285 C 0.59985 0.14357 0.8732 0.0
C1286 C 0.56213 0.11179 0.85162 0.0
C1287 C 0.54077 0.08521 0.84744 0.0
C1288 C 0.5459 0.06495 0.84579 0.0
C1289 C 0.52568 0.03993 0.84193 0.0
C1290 C 0.50024 0.03495 0.83957 0.0
C1291 C 0.49498 0.05498 0.84101 0.0
C1292 C 0.51513 0.08003 0.84488 0.0
C1293 C 0.61164 0.20887 0.7958 0.0
C1294 C 0.58938 0.20992 0.78958 0.0
C1295 C 0.61038 0.19174 0.81229 0.0
C1296 C 0.58696 0.17574 0.82318 0.0
C1297 C 0.56499 0.17746 0.8175 0.0
C1298 C 0.56615 0.19428 0.80084 0.0
C1299 C 0.58495 0.15645 0.83981 0.0
C1300 C 0.56506 0.13095 0.83661 0.0
C1301 C 0.60248 0.16285 0.85848 0.0
C1302 C 0.62267 0.18961 0.86396 0.0
C1303 C 0.61592 0.20861 0.86723 0.0
C1304 C 0.63501 0.23376 0.87251 0.0
C1305 C 0.6609 0.24012 0.87473 0.0
C1306 C 0.66774 0.22132 0.87172 0.0
C1307 C 0.64873 0.19614 0.86642 0.0
H1308 H 0.67564 0.25961 0.87883 0.0
H1309 H 0.48461 0.01557 0.83658 0.0
H1310 H 0.53453 0.61773 0.11001 0.0
H1311 H 0.51624 0.6265 0.07594 0.0
H1312 H 0.454 0.54816 0.07394 0.0
H1313 H 0.47214 0.53955 0.10823 0.0
H1314 H 0.47185 0.56865 0.03032 0.0
H1315 H 0.44518 0.5893 0.10071 0.0
H1316 H 0.45144 0.6108 0.13806 0.0
H1317 H 0.48962 0.68391 0.10616 0.0
H1318 H 0.48418 0.66283 0.06862 0.0
H1319 H 0.36567 0.56669 0.97848 0.0
H1320 H 0.39442 0.56526 0.00735 0.0
H1321 H 0.44786 0.64561 -0.00088 0.0
H1322 H 0.41899 0.64731 0.96983 0.0
H1323 H 0.43989 0.62895 0.04557 0.0
H1324 H 0.46253 0.60705 0.97428 0.0
H1325 H 0.45388 0.58427 0.93726 0.0
H1326 H 0.421 0.51253 0.97137 0.0
H1327 H 0.4291 0.53485 0.00859 0.0
C1328 C 0.51754 0.60221 0.10168 0.0
C1329 C 0.50487 0.5779 0.11133 0.0
C1330 C 0.50698 0.60727 0.08243 0.0
C1331 C 0.48364 0.58804 0.07265 0.0
C1332 C 0.47206 0.56322 0.08126 0.0
C1333 C 0.48247 0.55824 0.10068 0.0
C1334 C 0.46991 0.59424 0.05494 0.0
C1335 C 0.46483 0.5818 0.03364 0.0
C1336 C 0.46117 0.61177 0.05924 0.0
C1337 C 0.46468 0.62448 0.08187 0.0
C1338 C 0.45525 0.60997 0.10167 0.0
C1339 C 0.4586 0.62209 0.12289 0.0
C1340 C 0.47105 0.64872 0.1245 0.0
C1341 C 0.4801 0.66328 0.10489 0.0
C1342 C 0.47693 0.65126 0.08364 0.0
C1343 C 0.3834 0.5842 0.98286 0.0
C1344 C 0.39016 0.60709 0.97163 0.0
C1345 C 0.39984 0.58329 -0.00064 0.0
C1346 C 0.42345 0.6052 0.00502 0.0
C1347 C 0.42976 0.62846 0.99481 0.0
C1348 C 0.41326 0.62939 0.97814 0.0
C1349 C 0.44164 0.60317 0.02105 0.0
C1350 C 0.44742 0.61626 0.04208 0.0
C1351 C 0.45092 0.58613 0.01657 0.0
C1352 C 0.44628 0.57263 0.99423 0.0
C1353 C 0.4533 0.5864 0.97388 0.0
C1354 C 0.44851 0.57357 0.95286 0.0
C1355 C 0.43686 0.54697 0.95196 0.0
C1356 C 0.43002 0.53314 0.97209 0.0
C1357 C 0.43474 0.54588 0.99316 0.0
H1358 H 0.43316 0.53707 0.93567 0.0
H1359 H 0.47361 0.65811 0.14092 0.0
H1360 H 0.95053 0.4833 0.26011 0.0
H1361 H 0.91881 0.46477 0.22909 0.0
H1362 H 0.87916 0.3935 0.26433 0.0
H1363 H 0.91209 0.41103 0.29476 0.0
H1364 H 0.89783 0.41678 0.20063 0.0
H1365 H 0.81231 0.38496 0.26191 0.0
H1366 H 0.80076 0.39672 0.29855 0.0
H1367 H 0.86495 0.47309 0.29365 0.0
H1368 H 0.87651 0.46195 0.2568 0.0
H1369 H 0.78419 0.37019 0.12901 0.0
H1370 H 0.81071 0.36918 0.1609 0.0
H1371 H 0.8198 0.44018 0.18727 0.0
H1372 H 0.79346 0.44121 0.15582 0.0
H1373 H 0.81358 0.40855 0.22108 0.0
H1374 H 0.86452 0.4396 0.15264 0.0
H1375 H 0.87491 0.43566 0.11276 0.0
H1376 H 0.88231 0.37068 0.12978 0.0
H1377 H 0.87162 0.37407 0.16973 0.0
C1378 C 0.93588 0.46333 0.26099 0.0
C1379 C 0.93391 0.44887 0.28031 0.0
C1380 C 0.91754 0.45285 0.24324 0.0
C1381 C 0.8965 0.42796 0.24465 0.0
C1382 C 0.89517 0.41287 0.26309 0.0
C1383 C 0.91396 0.42307 0.28055 0.0
C1384 C 0.87495 0.41881 0.22781 0.0
C1385 C 0.87923 0.4145 0.20514 0.0
C1386 C 0.85083 0.4162 0.23369 0.0
C1387 C 0.84559 0.42243 0.25682 0.0
C1388 C 0.82409 0.40419 0.26877 0.0
C1389 C 0.81737 0.41082 0.28945 0.0
C1390 C 0.832 0.43569 0.29832 0.0
C1391 C 0.8536 0.45386 0.28672 0.0
C1392 C 0.86032 0.44735 0.26599 0.0
C1393 C 0.79134 0.38521 0.14195 0.0
C1394 C 0.78694 0.40589 0.13986 0.0
C1395 C 0.80661 0.3847 0.16003 0.0
C1396 C 0.81747 0.40477 0.17628 0.0
C1397 C 0.81165 0.4245 0.17493 0.0
C1398 C 0.79664 0.42511 0.15689 0.0
C1399 C 0.83645 0.40673 0.19384 0.0
C1400 C 0.83177 0.40976 0.21669 0.0
C1401 C 0.86039 0.40881 0.18801 0.0
C1402 C 0.86695 0.40688 0.16407 0.0
C1403 C 0.86817 0.42436 0.14783 0.0
C1404 C 0.87414 0.42224 0.12523 0.0
C1405 C 0.87918 0.40288 0.11872 0.0
C1406 C 0.87834 0.38563 0.13483 0.0
C1407 C 0.87233 0.38764 0.15745 0.0
H1408 H 0.8838 0.40127 0.10122 0.0
H1409 H 0.82673 0.44081 0.3143 0.0
loop_
_geom_bond_atom_site_label_1
_geom_bond_atom_site_label_2
_geom_bond_distance
_geom_bond_site_symmetry_2
_ccdc_geom_bond_type
H0 C8 0.930 . S
H1 C11 0.930 . S
H2 C13 0.930 . S
H3 C14 0.981 . S
H4 C14 0.970 . S
H5 C16 0.930 . S
H6 C18 0.930 . S
H7 C20 0.930 . S
C8 H0 0.930 . S
C8 C9 1.382 . S
C8 C10 1.426 . S
C9 C8 1.382 . S
C9 C13 1.389 . S
C10 C8 1.426 . S
C10 C11 1.375 . S
C10 C14 1.532 1_655 S
C11 H1 0.930 . S
C11 C10 1.375 . S
C11 C12 1.416 . S
C12 C11 1.416 . S
C12 C13 1.371 . S
C13 H2 0.930 . S
C13 C9 1.389 . S
C13 C12 1.371 . S
C14 H3 0.981 . S
C14 H4 0.970 . S
C14 C10 1.532 1_455 S
C14 C15 1.499 . S
C15 C14 1.499 . S
C15 C16 1.370 . S
C15 C20 1.415 . S
C16 H5 0.930 . S
C16 C15 1.370 . S
C16 C17 1.407 . S
C17 C16 1.407 . S
C17 C18 1.365 . S
C18 H6 0.930 . S
C18 C17 1.365 . S
C18 C19 1.393 . S
C19 C18 1.393 . S
C19 C20 1.387 . S
C20 H7 0.930 . S
C20 C15 1.415 . S
C20 C19 1.387 . S
H21 C29 0.930 . S
H22 C32 0.930 . S
H23 C34 0.930 . S
H24 C35 0.970 . S
H25 C35 0.970 . S
H26 C37 0.930 . S
H27 C39 0.930 . S
H28 C41 0.930 . S
C29 H21 0.930 . S
C29 C30 1.382 . S
C29 C31 1.426 . S
C30 C29 1.382 . S
C30 C34 1.389 . S
C31 C29 1.426 . S
C31 C32 1.375 . S
C31 C35 1.532 1_565 S
C32 H22 0.930 . S
C32 C31 1.375 . S
C32 C33 1.416 . S
C33 C32 1.416 . S
C33 C34 1.371 . S
C34 H23 0.930 . S
C34 C30 1.389 . S
C34 C33 1.371 . S
C35 H24 0.970 . S
C35 H25 0.970 . S
C35 C31 1.532 1_545 S
C35 C36 1.499 . S
C36 C35 1.499 . S
C36 C37 1.370 . S
C36 C41 1.415 . S
C37 H26 0.930 . S
C37 C36 1.370 . S
C37 C38 1.407 . S
C38 C37 1.407 . S
C38 C39 1.365 . S
C39 H27 0.930 . S
C39 C38 1.365 . S
C39 C40 1.393 . S
C40 C39 1.393 . S
C40 C41 1.387 . S
C41 H28 0.930 . S
C41 C36 1.415 . S
C41 C40 1.387 . S
H42 C50 0.930 . S
H43 C53 0.930 . S
H44 C55 0.930 . S
H45 C56 0.970 . S
H46 C56 0.970 . S
H47 C58 0.930 . S
H48 C60 0.930 . S
H49 C62 0.930 . S
C50 H42 0.930 . S
C50 C51 1.382 . S
C50 C52 1.426 . S
C51 C50 1.382 . S
C51 C55 1.389 . S
C52 C50 1.426 . S
C52 C53 1.375 . S
C52 C56 1.532 . S
C53 H43 0.930 . S
C53 C52 1.375 . S
C53 C54 1.416 . S
C54 C53 1.416 . S
C54 C55 1.371 . S
C55 H44 0.930 . S
C55 C51 1.389 . S
C55 C54 1.371 . S
C56 H45 0.970 . S
C56 H46 0.970 . S
C56 C52 1.532 . S
C56 C57 1.499 . S
C57 C56 1.499 . S
C57 C58 1.370 . S
C57 C62 1.415 . S
C58 H47 0.930 . S
C58 C57 1.370 . S
C58 C59 1.407 . S
C59 C58 1.407 . S
C59 C60 1.365 . S
C60 H48 0.930 . S
C60 C59 1.365 . S
C60 C61 1.393 . S
C61 C60 1.393 . S
C61 C62 1.387 . S
C62 H49 0.930 . S
C62 C57 1.415 . S
C62 C61 1.387 . S
H63 C71 0.930 . S
H64 C74 0.930 . S
H65 C76 0.930 . S
H66 C77 0.970 . S
H67 C77 0.970 . S
H68 C79 0.930 . S
H69 C81 0.930 . S
H70 C83 0.930 . S
C71 H63 0.930 . S
C71 C72 1.382 . S
C71 C73 1.426 . S
C72 C71 1.382 . S
C72 C76 1.389 . S
C73 C71 1.426 . S
C73 C74 1.375 . S
C73 C77 1.532 1_655 S
C74 H64 0.930 . S
C74 C73 1.375 . S
C74 C75 1.416 . S
C75 C74 1.416 . S
C75 C76 1.371 . S
C76 H65 0.930 . S
C76 C72 1.389 . S
C76 C75 1.371 . S
C77 H66 0.970 . S
C77 H67 0.970 . S
C77 C73 1.532 1_455 S
C77 C78 1.499 . S
C78 C77 1.499 . S
C78 C79 1.370 . S
C78 C83 1.415 . S
C79 H68 0.930 . S
C79 C78 1.370 . S
C79 C80 1.407 . S
C80 C79 1.407 . S
C80 C81 1.365 . S
C81 H69 0.930 . S
C81 C80 1.365 . S
C81 C82 1.393 . S
C82 C81 1.393 . S
C82 C83 1.387 . S
C83 H70 0.930 . S
C83 C78 1.415 . S
C83 C82 1.387 . S
H84 C92 0.930 . S
H85 C95 0.930 . S
H86 C97 0.930 . S
H87 C98 0.970 1_554 S
H88 C98 0.970 . S
H89 C100 0.930 . S
H90 C102 0.930 . S
H91 C104 0.930 . S
C92 H84 0.930 . S
C92 C93 1.382 1_554 S
C92 C94 1.426 1_554 S
C93 C92 1.382 1_556 S
C93 C97 1.389 . S
C94 C92 1.426 1_556 S
C94 C95 1.375 . S
C94 C98 1.532 . S
C95 H85 0.930 . S
C95 C94 1.375 . S
C95 C96 1.416 . S
C96 C95 1.416 . S
C96 C97 1.371 . S
C97 H86 0.930 . S
C97 C93 1.389 . S
C97 C96 1.371 . S
C98 H87 0.970 1_556 S
C98 H88 0.970 . S
C98 C94 1.532 . S
C98 C99 1.499 1_545 S
C99 C98 1.499 1_565 S
C99 C100 1.370 1_556 S
C99 C104 1.415 . S
C100 H89 0.930 . S
C100 C99 1.370 1_554 S
C100 C101 1.407 . S
C101 C100 1.407 . S
C101 C102 1.365 . S
C102 H90 0.930 . S
C102 C101 1.365 . S
C102 C103 1.393 1_554 S
C103 C102 1.393 1_556 S
C103 C104 1.387 . S
C104 H91 0.930 . S
C104 C99 1.415 . S
C104 C103 1.387 . S
H105 C113 0.930 . S
H106 C116 0.930 . S
H107 C118 0.930 . S
H108 C119 0.970 . S
H109 C119 0.970 . S
H110 C121 0.930 . S
H111 C123 0.930 . S
H112 C125 0.930 . S
C113 H105 0.930 . S
C113 C114 1.382 . S
C113 C115 1.426 . S
C114 C113 1.382 . S
C114 C118 1.389 . S
C115 C113 1.426 . S
C115 C116 1.375 . S
C115 C119 1.532 . S
C116 H106 0.930 . S
C116 C115 1.375 . S
C116 C117 1.416 . S
C117 C116 1.416 . S
C117 C118 1.371 . S
C118 H107 0.930 . S
C118 C114 1.389 . S
C118 C117 1.371 . S
C119 H108 0.970 . S
C119 H109 0.970 . S
C119 C115 1.532 . S
C119 C120 1.499 . S
C120 C119 1.499 . S
C120 C121 1.370 . S
C120 C125 1.415 . S
C121 H110 0.930 . S
C121 C120 1.370 . S
C121 C122 1.407 . S
C122 C121 1.407 . S
C122 C123 1.365 . S
C123 H111 0.930 . S
C123 C122 1.365 . S
C123 C124 1.393 . S
C124 C123 1.393 . S
C124 C125 1.387 . S
C125 H112 0.930 . S
C125 C120 1.415 . S
C125 C124 1.387 . S
Zn126 O129 2.031 . S
Zn126 O131 2.049 . S
Zn126 O136 2.067 . S
Zn127 O128 1.962 . S
Zn127 O130 1.986 . S
Zn127 O132 1.996 . S
Zn127 O135 1.943 . S
O128 Zn127 1.962 . S
O128 C133 1.254 . S
O129 Zn126 2.031 . S
O129 C133 1.269 . S
O130 Zn127 1.986 . S
O130 C137 1.262 . S
O131 Zn126 2.049 . S
O131 C139 1.260 . S
O132 Zn127 1.996 . S
O132 C139 1.257 . S
C133 O128 1.254 . S
C133 O129 1.269 . S
C134 O135 1.249 . S
C134 O136 1.270 . S
O135 Zn127 1.943 . S
O135 C134 1.249 . S
O136 Zn126 2.067 . S
O136 C134 1.270 . S
C137 O130 1.262 . S
C137 O138 1.232 . S
O138 C137 1.232 . S
C139 O131 1.260 . S
C139 O132 1.257 . S
Zn140 O143 2.031 . S
Zn140 O145 2.049 . S
Zn140 O150 2.067 . S
Zn141 O142 1.962 . S
Zn141 O144 1.986 . S
Zn141 O146 1.996 . S
Zn141 O149 1.943 . S
O142 Zn141 1.962 . S
O142 C147 1.254 . S
O143 Zn140 2.031 . S
O143 C147 1.269 . S
O144 Zn141 1.986 . S
O144 C151 1.262 . S
O145 Zn140 2.049 . S
O145 C153 1.260 . S
O146 Zn141 1.996 . S
O146 C153 1.257 . S
C147 O142 1.254 . S
C147 O143 1.269 . S
C148 O149 1.249 . S
C148 O150 1.270 . S
O149 Zn141 1.943 . S
O149 C148 1.249 . S
O150 Zn140 2.067 . S
O150 C148 1.270 . S
C151 O144 1.262 . S
C151 O152 1.232 . S
O152 C151 1.232 . S
C153 O145 1.260 . S
C153 O146 1.257 . S
Zn154 O157 2.031 . S
Zn154 O159 2.049 . S
Zn154 O164 2.067 . S
Zn155 O156 1.962 . S
Zn155 O158 1.986 . S
Zn155 O160 1.996 . S
Zn155 O163 1.943 . S
O156 Zn155 1.962 . S
O156 C161 1.254 . S
O157 Zn154 2.031 . S
O157 C161 1.269 . S
O158 Zn155 1.986 . S
O158 C165 1.262 . S
O159 Zn154 2.049 . S
O159 C167 1.260 . S
O160 Zn155 1.996 . S
O160 C167 1.257 . S
C161 O156 1.254 . S
C161 O157 1.269 . S
C162 O163 1.249 . S
C162 O164 1.270 . S
O163 Zn155 1.943 . S
O163 C162 1.249 . S
O164 Zn154 2.067 . S
O164 C162 1.270 . S
C165 O158 1.262 . S
C165 O166 1.232 . S
O166 C165 1.232 . S
C167 O159 1.260 . S
C167 O160 1.257 . S
Zn168 O171 2.031 . S
Zn168 O173 2.049 . S
Zn168 O178 2.067 . S
Zn169 O170 1.962 . S
Zn169 O172 1.986 . S
Zn169 O174 1.996 . S
Zn169 O177 1.943 . S
O170 Zn169 1.962 . S
O170 C175 1.254 . S
O171 Zn168 2.031 . S
O171 C175 1.269 . S
O172 Zn169 1.986 . S
O172 C179 1.262 . S
O173 Zn168 2.049 . S
O173 C181 1.260 . S
O174 Zn169 1.996 . S
O174 C181 1.257 . S
C175 O170 1.254 . S
C175 O171 1.269 . S
C176 O177 1.249 . S
C176 O178 1.270 . S
O177 Zn169 1.943 . S
O177 C176 1.249 . S
O178 Zn168 2.067 . S
O178 C176 1.270 . S
C179 O172 1.262 . S
C179 O180 1.232 . S
O180 C179 1.232 . S
C181 O173 1.260 . S
C181 O174 1.257 . S
Zn182 O185 2.031 . S
Zn182 O187 2.049 . S
Zn182 O192 2.067 . S
Zn183 O184 1.962 . S
Zn183 O186 1.986 . S
Zn183 O188 1.996 . S
Zn183 O191 1.943 . S
O184 Zn183 1.962 . S
O184 C189 1.254 . S
O185 Zn182 2.031 . S
O185 C189 1.269 . S
O186 Zn183 1.986 . S
O186 C193 1.262 . S
O187 Zn182 2.049 . S
O187 C195 1.260 . S
O188 Zn183 1.996 . S
O188 C195 1.257 . S
C189 O184 1.254 . S
C189 O185 1.269 . S
C190 O191 1.249 . S
C190 O192 1.270 . S
O191 Zn183 1.943 . S
O191 C190 1.249 . S
O192 Zn182 2.067 . S
O192 C190 1.270 . S
C193 O186 1.262 . S
C193 O194 1.232 . S
O194 C193 1.232 . S
C195 O187 1.260 . S
C195 O188 1.257 . S
Zn196 O199 2.031 . S
Zn196 O201 2.049 . S
Zn196 O206 2.067 . S
Zn197 O198 1.962 . S
Zn197 O200 1.986 . S
Zn197 O202 1.996 . S
Zn197 O205 1.943 . S
O198 Zn197 1.962 . S
O198 C203 1.254 . S
O199 Zn196 2.031 . S
O199 C203 1.269 . S
O200 Zn197 1.986 . S
O200 C207 1.262 . S
O201 Zn196 2.049 . S
O201 C209 1.260 . S
O202 Zn197 1.996 . S
O202 C209 1.257 . S
C203 O198 1.254 . S
C203 O199 1.269 . S
C204 O205 1.249 . S
C204 O206 1.270 . S
O205 Zn197 1.943 . S
O205 C204 1.249 . S
O206 Zn196 2.067 . S
O206 C204 1.270 . S
C207 O200 1.262 . S
C207 O208 1.232 . S
O208 C207 1.232 . S
C209 O201 1.260 . S
C209 O202 1.257 . S
H210 C228 0.951 . S
H211 C230 0.951 . S
H212 C232 0.950 . S
H213 C233 0.950 . S
H214 C235 0.950 . S
H215 C238 0.950 . S
H216 C239 0.950 . S
H217 C241 0.950 . S
H218 C242 0.950 . S
H219 C243 0.951 . S
H220 C245 0.951 . S
H221 C247 0.950 . S
H222 C248 0.950 . S
H223 C250 0.950 . S
H224 C253 0.950 . S
H225 C254 0.950 . S
H226 C256 0.950 . S
H227 C257 0.950 . S
C228 H210 0.951 . S
C228 C229 1.366 . S
C228 C230 1.388 . S
C229 C228 1.366 . S
C229 C233 1.385 . S
C230 H211 0.951 . S
C230 C228 1.388 . S
C230 C231 1.366 . S
C231 C230 1.366 . S
C231 C232 1.414 . S
C231 C234 1.499 . S
C232 H212 0.950 . S
C232 C231 1.414 . S
C232 C233 1.374 . S
C233 H213 0.950 . S
C233 C229 1.385 . S
C233 C232 1.374 . S
C234 C231 1.499 . S
C234 C235 1.373 . S
C234 C236 1.389 . S
C235 H214 0.950 . S
C235 C234 1.373 . S
C235 C251 1.377 . S
C236 C234 1.389 . S
C236 C237 1.524 . S
C236 C250 1.377 . S
C237 C236 1.524 . S
C237 C238 1.397 . S
C237 C242 1.363 . S
C238 H215 0.950 . S
C238 C237 1.397 . S
C238 C239 1.334 . S
C239 H216 0.950 . S
C239 C238 1.334 . S
C239 C240 1.287 . S
C240 C239 1.287 . S
C240 C241 1.524 . S
C240 H259 0.913 . S
C241 H217 0.950 . S
C241 C240 1.524 . S
C241 C242 1.415 . S
C242 H218 0.950 . S
C242 C237 1.363 . S
C242 C241 1.415 . S
C243 H219 0.951 . S
C243 C244 1.366 . S
C243 C245 1.388 . S
C244 C243 1.366 . S
C244 C248 1.385 . S
C245 H220 0.951 . S
C245 C243 1.388 . S
C245 C246 1.366 . S
C246 C245 1.366 . S
C246 C247 1.414 . S
C246 C249 1.499 . S
C247 H221 0.950 . S
C247 C246 1.414 . S
C247 C248 1.374 . S
C248 H222 0.950 . S
C248 C244 1.385 . S
C248 C247 1.374 . S
C249 C246 1.499 . S
C249 C250 1.373 . S
C249 C251 1.389 . S
C250 H223 0.950 . S
C250 C236 1.377 . S
C250 C249 1.373 . S
C251 C235 1.377 . S
C251 C249 1.389 . S
C251 C252 1.524 . S
C252 C251 1.524 . S
C252 C253 1.397 . S
C252 C257 1.363 . S
C253 H224 0.950 . S
C253 C252 1.397 . S
C253 C254 1.334 . S
C254 H225 0.950 . S
C254 C253 1.334 . S
C254 C255 1.287 . S
C255 C254 1.287 . S
C255 C256 1.524 . S
C255 H258 0.999 . S
C256 H226 0.950 . S
C256 C255 1.524 . S
C256 C257 1.415 . S
C257 H227 0.950 . S
C257 C252 1.363 . S
C257 C256 1.415 . S
H258 C255 0.999 . S
H259 C240 0.913 . S
H260 C278 0.951 . S
H261 C280 0.951 . S
H262 C282 0.950 . S
H263 C283 0.950 . S
H264 C285 0.950 . S
H265 C288 0.950 . S
H266 C289 0.950 . S
H267 C291 0.950 . S
H268 C292 0.950 . S
H269 C293 0.951 . S
H270 C295 0.951 . S
H271 C297 0.950 . S
H272 C298 0.950 . S
H273 C300 0.950 . S
H274 C303 0.950 . S
H275 C304 0.950 . S
H276 C306 0.950 . S
H277 C307 0.950 . S
C278 H260 0.951 . S
C278 C279 1.366 . S
C278 C280 1.388 . S
C279 C278 1.366 . S
C279 C283 1.385 . S
C280 H261 0.951 . S
C280 C278 1.388 . S
C280 C281 1.366 . S
C281 C280 1.366 . S
C281 C282 1.414 . S
C281 C284 1.499 . S
C282 H262 0.950 . S
C282 C281 1.414 . S
C282 C283 1.374 . S
C283 H263 0.950 . S
C283 C279 1.385 . S
C283 C282 1.374 . S
C284 C281 1.499 . S
C284 C285 1.373 . S
C284 C286 1.389 . S
C285 H264 0.950 . S
C285 C284 1.373 . S
C285 C301 1.377 . S
C286 C284 1.389 . S
C286 C287 1.524 . S
C286 C300 1.377 . S
C287 C286 1.524 . S
C287 C288 1.397 . S
C287 C292 1.363 . S
C288 H265 0.950 . S
C288 C287 1.397 . S
C288 C289 1.334 . S
C289 H266 0.950 . S
C289 C288 1.334 . S
C289 C290 1.287 . S
C290 C289 1.287 . S
C290 C291 1.524 . S
C290 H309 0.913 . S
C291 H267 0.950 . S
C291 C290 1.524 . S
C291 C292 1.415 . S
C292 H268 0.950 . S
C292 C287 1.363 . S
C292 C291 1.415 . S
C293 H269 0.951 . S
C293 C294 1.366 . S
C293 C295 1.388 . S
C294 C293 1.366 . S
C294 C298 1.385 . S
C295 H270 0.951 . S
C295 C293 1.388 . S
C295 C296 1.366 . S
C296 C295 1.366 . S
C296 C297 1.414 . S
C296 C299 1.499 . S
C297 H271 0.950 . S
C297 C296 1.414 . S
C297 C298 1.374 . S
C298 H272 0.950 . S
C298 C294 1.385 . S
C298 C297 1.374 . S
C299 C296 1.499 . S
C299 C300 1.373 . S
C299 C301 1.389 . S
C300 H273 0.950 . S
C300 C286 1.377 . S
C300 C299 1.373 . S
C301 C285 1.377 . S
C301 C299 1.389 . S
C301 C302 1.524 . S
C302 C301 1.524 . S
C302 C303 1.397 . S
C302 C307 1.363 . S
C303 H274 0.950 . S
C303 C302 1.397 . S
C303 C304 1.334 . S
C304 H275 0.950 . S
C304 C303 1.334 . S
C304 C305 1.287 . S
C305 C304 1.287 . S
C305 C306 1.524 . S
C305 H308 0.999 . S
C306 H276 0.950 . S
C306 C305 1.524 . S
C306 C307 1.415 . S
C307 H277 0.950 . S
C307 C302 1.363 . S
C307 C306 1.415 . S
H308 C305 0.999 . S
H309 C290 0.913 . S
H310 C328 0.951 . S
H311 C330 0.951 . S
H312 C332 0.950 . S
H313 C333 0.950 . S
H314 C335 0.950 . S
H315 C338 0.950 . S
H316 C339 0.950 . S
H317 C341 0.950 . S
H318 C342 0.950 . S
H319 C343 0.951 . S
H320 C345 0.951 . S
H321 C347 0.950 . S
H322 C348 0.950 . S
H323 C350 0.950 . S
H324 C353 0.950 . S
H325 C354 0.950 . S
H326 C356 0.950 . S
H327 C357 0.950 . S
C328 H310 0.951 . S
C328 C329 1.366 . S
C328 C330 1.388 . S
C329 C328 1.366 . S
C329 C333 1.385 . S
C330 H311 0.951 . S
C330 C328 1.388 . S
C330 C331 1.366 . S
C331 C330 1.366 . S
C331 C332 1.414 . S
C331 C334 1.499 . S
C332 H312 0.950 . S
C332 C331 1.414 . S
C332 C333 1.374 . S
C333 H313 0.950 . S
C333 C329 1.385 . S
C333 C332 1.374 . S
C334 C331 1.499 . S
C334 C335 1.373 . S
C334 C336 1.389 . S
C335 H314 0.950 . S
C335 C334 1.373 . S
C335 C351 1.377 . S
C336 C334 1.389 . S
C336 C337 1.524 . S
C336 C350 1.377 . S
C337 C336 1.524 . S
C337 C338 1.397 . S
C337 C342 1.363 . S
C338 H315 0.950 . S
C338 C337 1.397 . S
C338 C339 1.334 . S
C339 H316 0.950 . S
C339 C338 1.334 . S
C339 C340 1.287 . S
C340 C339 1.287 . S
C340 C341 1.524 . S
C340 H359 0.913 . S
C341 H317 0.950 . S
C341 C340 1.524 . S
C341 C342 1.415 . S
C342 H318 0.950 . S
C342 C337 1.363 . S
C342 C341 1.415 . S
C343 H319 0.951 . S
C343 C344 1.366 . S
C343 C345 1.388 . S
C344 C343 1.366 . S
C344 C348 1.385 . S
C345 H320 0.951 . S
C345 C343 1.388 . S
C345 C346 1.366 . S
C346 C345 1.366 . S
C346 C347 1.414 . S
C346 C349 1.499 . S
C347 H321 0.950 . S
C347 C346 1.414 . S
C347 C348 1.374 . S
C348 H322 0.950 . S
C348 C344 1.385 . S
C348 C347 1.374 . S
C349 C346 1.499 . S
C349 C350 1.373 . S
C349 C351 1.389 . S
C350 H323 0.950 . S
C350 C336 1.377 . S
C350 C349 1.373 . S
C351 C335 1.377 . S
C351 C349 1.389 . S
C351 C352 1.524 . S
C352 C351 1.524 . S
C352 C353 1.397 . S
C352 C357 1.363 . S
C353 H324 0.950 . S
C353 C352 1.397 . S
C353 C354 1.334 . S
C354 H325 0.950 . S
C354 C353 1.334 . S
C354 C355 1.287 . S
C355 C354 1.287 . S
C355 C356 1.524 . S
C355 H358 0.999 . S
C356 H326 0.950 . S
C356 C355 1.524 . S
C356 C357 1.415 . S
C357 H327 0.950 . S
C357 C352 1.363 . S
C357 C356 1.415 . S
H358 C355 0.999 . S
H359 C340 0.913 . S
H360 C378 0.951 . S
H361 C380 0.951 . S
H362 C382 0.950 . S
H363 C383 0.950 . S
H364 C385 0.950 . S
H365 C388 0.950 . S
H366 C389 0.950 . S
H367 C391 0.950 . S
H368 C392 0.950 . S
H369 C393 0.951 . S
H370 C395 0.951 . S
H371 C397 0.950 . S
H372 C398 0.950 . S
H373 C400 0.950 . S
H374 C403 0.950 . S
H375 C404 0.950 . S
H376 C406 0.950 . S
H377 C407 0.950 . S
C378 H360 0.951 . S
C378 C379 1.366 . S
C378 C380 1.388 . S
C379 C378 1.366 . S
C379 C383 1.385 . S
C380 H361 0.951 . S
C380 C378 1.388 . S
C380 C381 1.366 . S
C381 C380 1.366 . S
C381 C382 1.414 . S
C381 C384 1.499 . S
C382 H362 0.950 . S
C382 C381 1.414 . S
C382 C383 1.374 . S
C383 H363 0.950 . S
C383 C379 1.385 . S
C383 C382 1.374 . S
C384 C381 1.499 . S
C384 C385 1.373 . S
C384 C386 1.389 . S
C385 H364 0.950 . S
C385 C384 1.373 . S
C385 C401 1.377 . S
C386 C384 1.389 . S
C386 C387 1.524 . S
C386 C400 1.377 . S
C387 C386 1.524 . S
C387 C388 1.397 . S
C387 C392 1.363 . S
C388 H365 0.950 . S
C388 C387 1.397 . S
C388 C389 1.334 . S
C389 H366 0.950 . S
C389 C388 1.334 . S
C389 C390 1.287 . S
C390 C389 1.287 . S
C390 C391 1.524 . S
C390 H409 0.913 . S
C391 H367 0.950 . S
C391 C390 1.524 . S
C391 C392 1.415 . S
C392 H368 0.950 . S
C392 C387 1.363 . S
C392 C391 1.415 . S
C393 H369 0.951 . S
C393 C394 1.366 . S
C393 C395 1.388 . S
C394 C393 1.366 . S
C394 C398 1.385 . S
C395 H370 0.951 . S
C395 C393 1.388 . S
C395 C396 1.366 . S
C396 C395 1.366 . S
C396 C397 1.414 . S
C396 C399 1.499 . S
C397 H371 0.950 . S
C397 C396 1.414 . S
C397 C398 1.374 . S
C398 H372 0.950 . S
C398 C394 1.385 . S
C398 C397 1.374 . S
C399 C396 1.499 . S
C399 C400 1.373 . S
C399 C401 1.389 . S
C400 H373 0.950 . S
C400 C386 1.377 . S
C400 C399 1.373 . S
C401 C385 1.377 . S
C401 C399 1.389 . S
C401 C402 1.524 . S
C402 C401 1.524 . S
C402 C403 1.397 . S
C402 C407 1.363 . S
C403 H374 0.950 . S
C403 C402 1.397 . S
C403 C404 1.334 . S
C404 H375 0.950 . S
C404 C403 1.334 . S
C404 C405 1.287 . S
C405 C404 1.287 . S
C405 C406 1.524 . S
C405 H408 0.999 . S
C406 H376 0.950 . S
C406 C405 1.524 . S
C406 C407 1.415 . S
C407 H377 0.950 . S
C407 C402 1.363 . S
C407 C406 1.415 . S
H408 C405 0.999 . S
H409 C390 0.913 . S
H410 C428 0.951 . S
H411 C430 0.951 . S
H412 C432 0.950 . S
H413 C433 0.950 . S
H414 C435 0.950 . S
H415 C438 0.950 . S
H416 C439 0.950 1_554 S
H417 C441 0.950 . S
H418 C442 0.950 . S
H419 C443 0.951 . S
H420 C445 0.951 . S
H421 C447 0.950 . S
H422 C448 0.950 . S
H423 C450 0.950 . S
H424 C453 0.950 . S
H425 C454 0.950 . S
H426 C456 0.950 . S
H427 C457 0.950 . S
C428 H410 0.951 . S
C428 C429 1.366 . S
C428 C430 1.388 . S
C429 C428 1.366 . S
C429 C433 1.385 . S
C430 H411 0.951 . S
C430 C428 1.388 . S
C430 C431 1.366 . S
C431 C430 1.366 . S
C431 C432 1.414 . S
C431 C434 1.499 . S
C432 H412 0.950 . S
C432 C431 1.414 . S
C432 C433 1.374 . S
C433 H413 0.950 . S
C433 C429 1.385 . S
C433 C432 1.374 . S
C434 C431 1.499 . S
C434 C435 1.373 . S
C434 C436 1.389 . S
C435 H414 0.950 . S
C435 C434 1.373 . S
C435 C451 1.377 . S
C436 C434 1.389 . S
C436 C437 1.524 . S
C436 C450 1.377 . S
C437 C436 1.524 . S
C437 C438 1.397 . S
C437 C442 1.363 . S
C438 H415 0.950 . S
C438 C437 1.397 . S
C438 C439 1.334 . S
C439 H416 0.950 1_556 S
C439 C438 1.334 . S
C439 C440 1.287 . S
C440 C439 1.287 . S
C440 C441 1.524 . S
C440 H459 0.913 . S
C441 H417 0.950 . S
C441 C440 1.524 . S
C441 C442 1.415 . S
C442 H418 0.950 . S
C442 C437 1.363 . S
C442 C441 1.415 . S
C443 H419 0.951 . S
C443 C444 1.366 . S
C443 C445 1.388 . S
C444 C443 1.366 . S
C444 C448 1.385 . S
C445 H420 0.951 . S
C445 C443 1.388 . S
C445 C446 1.366 . S
C446 C445 1.366 . S
C446 C447 1.414 . S
C446 C449 1.499 . S
C447 H421 0.950 . S
C447 C446 1.414 . S
C447 C448 1.374 . S
C448 H422 0.950 . S
C448 C444 1.385 . S
C448 C447 1.374 . S
C449 C446 1.499 . S
C449 C450 1.373 . S
C449 C451 1.389 . S
C450 H423 0.950 . S
C450 C436 1.377 . S
C450 C449 1.373 . S
C451 C435 1.377 . S
C451 C449 1.389 . S
C451 C452 1.524 . S
C452 C451 1.524 . S
C452 C453 1.397 . S
C452 C457 1.363 . S
C453 H424 0.950 . S
C453 C452 1.397 . S
C453 C454 1.334 . S
C454 H425 0.950 . S
C454 C453 1.334 . S
C454 C455 1.287 . S
C455 C454 1.287 . S
C455 C456 1.524 . S
C455 H458 0.999 . S
C456 H426 0.950 . S
C456 C455 1.524 . S
C456 C457 1.415 . S
C457 H427 0.950 . S
C457 C452 1.363 . S
C457 C456 1.415 . S
H458 C455 0.999 . S
H459 C440 0.913 . S
H460 C478 0.951 . S
H461 C480 0.951 . S
H462 C482 0.950 . S
H463 C483 0.950 . S
H464 C485 0.950 . S
H465 C488 0.950 . S
H466 C489 0.950 . S
H467 C491 0.950 . S
H468 C492 0.950 . S
H469 C493 0.951 . S
H470 C495 0.951 . S
H471 C497 0.950 . S
H472 C498 0.950 . S
H473 C500 0.950 . S
H474 C503 0.950 . S
H475 C504 0.950 . S
H476 C506 0.950 . S
H477 C507 0.950 . S
C478 H460 0.951 . S
C478 C479 1.366 . S
C478 C480 1.388 . S
C479 C478 1.366 . S
C479 C483 1.385 . S
C480 H461 0.951 . S
C480 C478 1.388 . S
C480 C481 1.366 . S
C481 C480 1.366 . S
C481 C482 1.414 . S
C481 C484 1.499 . S
C482 H462 0.950 . S
C482 C481 1.414 . S
C482 C483 1.374 . S
C483 H463 0.950 . S
C483 C479 1.385 . S
C483 C482 1.374 . S
C484 C481 1.499 . S
C484 C485 1.373 . S
C484 C486 1.389 . S
C485 H464 0.950 . S
C485 C484 1.373 . S
C485 C501 1.377 . S
C486 C484 1.389 . S
C486 C487 1.524 . S
C486 C500 1.377 . S
C487 C486 1.524 . S
C487 C488 1.397 . S
C487 C492 1.363 . S
C488 H465 0.950 . S
C488 C487 1.397 . S
C488 C489 1.334 . S
C489 H466 0.950 . S
C489 C488 1.334 . S
C489 C490 1.287 . S
C490 C489 1.287 . S
C490 C491 1.524 . S
C490 H509 0.913 . S
C491 H467 0.950 . S
C491 C490 1.524 . S
C491 C492 1.415 . S
C492 H468 0.950 . S
C492 C487 1.363 . S
C492 C491 1.415 . S
C493 H469 0.951 . S
C493 C494 1.366 . S
C493 C495 1.388 . S
C494 C493 1.366 . S
C494 C498 1.385 . S
C495 H470 0.951 . S
C495 C493 1.388 . S
C495 C496 1.366 . S
C496 C495 1.366 . S
C496 C497 1.414 . S
C496 C499 1.499 . S
C497 H471 0.950 . S
C497 C496 1.414 . S
C497 C498 1.374 . S
C498 H472 0.950 . S
C498 C494 1.385 . S
C498 C497 1.374 . S
C499 C496 1.499 . S
C499 C500 1.373 . S
C499 C501 1.389 . S
C500 H473 0.950 . S
C500 C486 1.377 . S
C500 C499 1.373 . S
C501 C485 1.377 . S
C501 C499 1.389 . S
C501 C502 1.524 . S
C502 C501 1.524 . S
C502 C503 1.397 . S
C502 C507 1.363 . S
C503 H474 0.950 . S
C503 C502 1.397 . S
C503 C504 1.334 . S
C504 H475 0.950 . S
C504 C503 1.334 . S
C504 C505 1.287 . S
C505 C504 1.287 . S
C505 C506 1.524 . S
C505 H508 0.999 . S
C506 H476 0.950 . S
C506 C505 1.524 . S
C506 C507 1.415 . S
C507 H477 0.950 . S
C507 C502 1.363 . S
C507 C506 1.415 . S
H508 C505 0.999 . S
H509 C490 0.913 . S
H510 C528 0.951 . S
H511 C530 0.951 . S
H512 C532 0.950 . S
H513 C533 0.950 . S
H514 C535 0.950 . S
H515 C538 0.950 . S
H516 C539 0.950 . S
H517 C541 0.950 . S
H518 C542 0.950 . S
H519 C543 0.951 . S
H520 C545 0.951 . S
H521 C547 0.950 . S
H522 C548 0.950 . S
H523 C550 0.950 . S
H524 C553 0.950 . S
H525 C554 0.950 . S
H526 C556 0.950 . S
H527 C557 0.950 . S
C528 H510 0.951 . S
C528 C529 1.366 . S
C528 C530 1.388 . S
C529 C528 1.366 . S
C529 C533 1.385 . S
C530 H511 0.951 . S
C530 C528 1.388 . S
C530 C531 1.366 . S
C531 C530 1.366 . S
C531 C532 1.414 . S
C531 C534 1.499 . S
C532 H512 0.950 . S
C532 C531 1.414 . S
C532 C533 1.374 . S
C533 H513 0.950 . S
C533 C529 1.385 . S
C533 C532 1.374 . S
C534 C531 1.499 . S
C534 C535 1.373 . S
C534 C536 1.389 . S
C535 H514 0.950 . S
C535 C534 1.373 . S
C535 C551 1.377 . S
C536 C534 1.389 . S
C536 C537 1.524 . S
C536 C550 1.377 . S
C537 C536 1.524 . S
C537 C538 1.397 . S
C537 C542 1.363 . S
C538 H515 0.950 . S
C538 C537 1.397 . S
C538 C539 1.334 . S
C539 H516 0.950 . S
C539 C538 1.334 . S
C539 C540 1.287 . S
C540 C539 1.287 . S
C540 C541 1.524 . S
C540 H559 0.913 . S
C541 H517 0.950 . S
C541 C540 1.524 . S
C541 C542 1.415 . S
C542 H518 0.950 . S
C542 C537 1.363 . S
C542 C541 1.415 . S
C543 H519 0.951 . S
C543 C544 1.366 . S
C543 C545 1.388 . S
C544 C543 1.366 . S
C544 C548 1.385 . S
C545 H520 0.951 . S
C545 C543 1.388 . S
C545 C546 1.366 . S
C546 C545 1.366 . S
C546 C547 1.414 . S
C546 C549 1.499 . S
C547 H521 0.950 . S
C547 C546 1.414 . S
C547 C548 1.374 . S
C548 H522 0.950 . S
C548 C544 1.385 . S
C548 C547 1.374 . S
C549 C546 1.499 . S
C549 C550 1.373 . S
C549 C551 1.389 . S
C550 H523 0.950 . S
C550 C536 1.377 . S
C550 C549 1.373 . S
C551 C535 1.377 . S
C551 C549 1.389 . S
C551 C552 1.524 . S
C552 C551 1.524 . S
C552 C553 1.397 . S
C552 C557 1.363 . S
C553 H524 0.950 . S
C553 C552 1.397 . S
C553 C554 1.334 . S
C554 H525 0.950 . S
C554 C553 1.334 . S
C554 C555 1.287 . S
C555 C554 1.287 . S
C555 C556 1.524 . S
C555 H558 0.999 . S
C556 H526 0.950 . S
C556 C555 1.524 . S
C556 C557 1.415 . S
C557 H527 0.950 . S
C557 C552 1.363 . S
C557 C556 1.415 . S
H558 C555 0.999 . S
H559 C540 0.913 . S
H560 C578 0.951 . S
H561 C580 0.951 . S
H562 C582 0.950 . S
H563 C583 0.950 . S
H564 C585 0.950 . S
H565 C588 0.950 . S
H566 C589 0.950 . S
H567 C591 0.950 . S
H568 C592 0.950 . S
H569 C593 0.951 . S
H570 C595 0.951 . S
H571 C597 0.950 . S
H572 C598 0.950 . S
H573 C600 0.950 . S
H574 C603 0.950 . S
H575 C604 0.950 . S
H576 C606 0.950 . S
H577 C607 0.950 . S
C578 H560 0.951 . S
C578 C579 1.366 . S
C578 C580 1.388 . S
C579 C578 1.366 . S
C579 C583 1.385 . S
C580 H561 0.951 . S
C580 C578 1.388 . S
C580 C581 1.366 . S
C581 C580 1.366 . S
C581 C582 1.414 . S
C581 C584 1.499 . S
C582 H562 0.950 . S
C582 C581 1.414 . S
C582 C583 1.374 . S
C583 H563 0.950 . S
C583 C579 1.385 . S
C583 C582 1.374 . S
C584 C581 1.499 . S
C584 C585 1.373 . S
C584 C586 1.389 . S
C585 H564 0.950 . S
C585 C584 1.373 . S
C585 C601 1.377 . S
C586 C584 1.389 . S
C586 C587 1.524 . S
C586 C600 1.377 . S
C587 C586 1.524 . S
C587 C588 1.397 . S
C587 C592 1.363 . S
C588 H565 0.950 . S
C588 C587 1.397 . S
C588 C589 1.334 . S
C589 H566 0.950 . S
C589 C588 1.334 . S
C589 C590 1.287 . S
C590 C589 1.287 . S
C590 C591 1.524 . S
C590 H609 0.913 . S
C591 H567 0.950 . S
C591 C590 1.524 . S
C591 C592 1.415 . S
C592 H568 0.950 . S
C592 C587 1.363 . S
C592 C591 1.415 . S
C593 H569 0.951 . S
C593 C594 1.366 . S
C593 C595 1.388 . S
C594 C593 1.366 . S
C594 C598 1.385 . S
C595 H570 0.951 . S
C595 C593 1.388 . S
C595 C596 1.366 . S
C596 C595 1.366 . S
C596 C597 1.414 . S
C596 C599 1.499 . S
C597 H571 0.950 . S
C597 C596 1.414 . S
C597 C598 1.374 . S
C598 H572 0.950 . S
C598 C594 1.385 . S
C598 C597 1.374 . S
C599 C596 1.499 . S
C599 C600 1.373 . S
C599 C601 1.389 . S
C600 H573 0.950 . S
C600 C586 1.377 . S
C600 C599 1.373 . S
C601 C585 1.377 . S
C601 C599 1.389 . S
C601 C602 1.524 . S
C602 C601 1.524 . S
C602 C603 1.397 . S
C602 C607 1.363 . S
C603 H574 0.950 . S
C603 C602 1.397 . S
C603 C604 1.334 . S
C604 H575 0.950 . S
C604 C603 1.334 . S
C604 C605 1.287 . S
C605 C604 1.287 . S
C605 C606 1.524 . S
C605 H608 0.999 . S
C606 H576 0.950 . S
C606 C605 1.524 . S
C606 C607 1.415 . S
C607 H577 0.950 . S
C607 C602 1.363 . S
C607 C606 1.415 . S
H608 C605 0.999 . S
H609 C590 0.913 . S
H610 C628 0.951 . S
H611 C630 0.951 . S
H612 C632 0.950 . S
H613 C633 0.950 . S
H614 C635 0.950 . S
H615 C638 0.950 . S
H616 C639 0.950 . S
H617 C641 0.950 . S
H618 C642 0.950 . S
H619 C643 0.951 . S
H620 C645 0.951 . S
H621 C647 0.950 . S
H622 C648 0.950 . S
H623 C650 0.950 . S
H624 C653 0.950 . S
H625 C654 0.950 . S
H626 C656 0.950 . S
H627 C657 0.950 . S
C628 H610 0.951 . S
C628 C629 1.366 . S
C628 C630 1.388 . S
C629 C628 1.366 . S
C629 C633 1.385 . S
C630 H611 0.951 . S
C630 C628 1.388 . S
C630 C631 1.366 . S
C631 C630 1.366 . S
C631 C632 1.414 . S
C631 C634 1.499 . S
C632 H612 0.950 . S
C632 C631 1.414 . S
C632 C633 1.374 . S
C633 H613 0.950 . S
C633 C629 1.385 . S
C633 C632 1.374 . S
C634 C631 1.499 . S
C634 C635 1.373 . S
C634 C636 1.389 . S
C635 H614 0.950 . S
C635 C634 1.373 . S
C635 C651 1.377 . S
C636 C634 1.389 . S
C636 C637 1.524 . S
C636 C650 1.377 . S
C637 C636 1.524 . S
C637 C638 1.397 . S
C637 C642 1.363 . S
C638 H615 0.950 . S
C638 C637 1.397 . S
C638 C639 1.334 . S
C639 H616 0.950 . S
C639 C638 1.334 . S
C639 C640 1.287 . S
C640 C639 1.287 . S
C640 C641 1.524 . S
C640 H659 0.913 . S
C641 H617 0.950 . S
C641 C640 1.524 . S
C641 C642 1.415 . S
C642 H618 0.950 . S
C642 C637 1.363 . S
C642 C641 1.415 . S
C643 H619 0.951 . S
C643 C644 1.366 . S
C643 C645 1.388 . S
C644 C643 1.366 . S
C644 C648 1.385 . S
C645 H620 0.951 . S
C645 C643 1.388 . S
C645 C646 1.366 . S
C646 C645 1.366 . S
C646 C647 1.414 . S
C646 C649 1.499 . S
C647 H621 0.950 . S
C647 C646 1.414 . S
C647 C648 1.374 . S
C648 H622 0.950 . S
C648 C644 1.385 . S
C648 C647 1.374 . S
C649 C646 1.499 . S
C649 C650 1.373 . S
C649 C651 1.389 . S
C650 H623 0.950 . S
C650 C636 1.377 . S
C650 C649 1.373 . S
C651 C635 1.377 . S
C651 C649 1.389 . S
C651 C652 1.524 . S
C652 C651 1.524 . S
C652 C653 1.397 . S
C652 C657 1.363 . S
C653 H624 0.950 . S
C653 C652 1.397 . S
C653 C654 1.334 . S
C654 H625 0.950 . S
C654 C653 1.334 . S
C654 C655 1.287 . S
C655 C654 1.287 . S
C655 C656 1.524 . S
C655 H658 0.999 . S
C656 H626 0.950 . S
C656 C655 1.524 . S
C656 C657 1.415 . S
C657 H627 0.950 . S
C657 C652 1.363 . S
C657 C656 1.415 . S
H658 C655 0.999 . S
H659 C640 0.913 . S
H660 C678 0.951 . S
H661 C680 0.951 . S
H662 C682 0.950 1_556 S
H663 C683 0.950 . S
H664 C685 0.950 1_556 S
H665 C688 0.950 . S
H666 C689 0.950 . S
H667 C691 0.950 . S
H668 C692 0.950 . S
H669 C693 0.951 . S
H670 C695 0.951 . S
H671 C697 0.950 . S
H672 C698 0.950 . S
H673 C700 0.950 . S
H674 C703 0.984 . S
H675 C704 0.950 . S
H676 C706 0.950 . S
H677 C707 0.950 . S
C678 H660 0.951 . S
C678 C679 1.366 . S
C678 C680 1.388 . S
C679 C678 1.366 . S
C679 C683 1.385 1_554 S
C680 H661 0.951 . S
C680 C678 1.388 . S
C680 C681 1.366 . S
C681 C680 1.366 . S
C681 C682 1.414 . S
C681 C684 1.499 . S
C682 H662 0.950 1_554 S
C682 C681 1.414 . S
C682 C683 1.374 1_554 S
C683 H663 0.950 . S
C683 C679 1.385 1_556 S
C683 C682 1.374 1_556 S
C684 C681 1.499 . S
C684 C685 1.373 . S
C684 C686 1.389 . S
C685 H664 0.950 1_554 S
C685 C684 1.373 . S
C685 C701 1.377 . S
C686 C684 1.389 . S
C686 C687 1.524 . S
C686 C700 1.377 . S
C687 C686 1.524 . S
C687 C688 1.397 . S
C687 C692 1.363 . S
C688 H665 0.950 . S
C688 C687 1.397 . S
C688 C689 1.334 . S
C689 H666 0.950 . S
C689 C688 1.334 . S
C689 C690 1.287 . S
C690 C689 1.287 . S
C690 C691 1.524 . S
C690 H709 0.913 . S
C691 H667 0.950 . S
C691 C690 1.524 . S
C691 C692 1.415 . S
C692 H668 0.950 . S
C692 C687 1.363 . S
C692 C691 1.415 . S
C693 H669 0.951 . S
C693 C694 1.366 . S
C693 C695 1.388 . S
C694 C693 1.366 . S
C694 C698 1.385 . S
C695 H670 0.951 . S
C695 C693 1.388 . S
C695 C696 1.366 . S
C696 C695 1.366 . S
C696 C697 1.414 . S
C696 C699 1.499 . S
C697 H671 0.950 . S
C697 C696 1.414 . S
C697 C698 1.374 . S
C698 H672 0.950 . S
C698 C694 1.385 . S
C698 C697 1.374 . S
C699 C696 1.499 . S
C699 C700 1.373 . S
C699 C701 1.389 . S
C700 H673 0.950 . S
C700 C686 1.377 . S
C700 C699 1.373 . S
C701 C685 1.377 . S
C701 C699 1.389 . S
C701 C702 1.524 1_554 S
C702 C701 1.524 1_556 S
C702 C703 1.394 1_556 S
C702 C707 1.363 . S
C703 H674 0.984 . S
C703 C702 1.394 1_554 S
C703 C704 1.304 1_554 S
C704 H675 0.950 . S
C704 C703 1.304 1_556 S
C704 C705 1.287 . S
C705 C704 1.287 . S
C705 C706 1.524 . S
C705 H708 0.999 . S
C706 H676 0.950 . S
C706 C705 1.524 . S
C706 C707 1.415 . S
C707 H677 0.950 . S
C707 C702 1.363 . S
C707 C706 1.415 . S
H708 C705 0.999 . S
H709 C690 0.913 . S
H710 C728 0.951 . S
H711 C730 0.951 . S
H712 C732 0.950 . S
H713 C733 0.950 . S
H714 C735 0.950 . S
H715 C738 0.950 . S
H716 C739 0.950 . S
H717 C741 0.950 . S
H718 C742 0.950 . S
H719 C743 0.951 . S
H720 C745 0.951 . S
H721 C747 0.950 . S
H722 C748 0.950 . S
H723 C750 0.950 . S
H724 C753 0.950 . S
H725 C754 0.950 . S
H726 C756 0.950 . S
H727 C757 0.950 . S
C728 H710 0.951 . S
C728 C729 1.366 . S
C728 C730 1.388 . S
C729 C728 1.366 . S
C729 C733 1.385 . S
C730 H711 0.951 . S
C730 C728 1.388 . S
C730 C731 1.366 . S
C731 C730 1.366 . S
C731 C732 1.414 . S
C731 C734 1.499 . S
C732 H712 0.950 . S
C732 C731 1.414 . S
C732 C733 1.374 . S
C733 H713 0.950 . S
C733 C729 1.385 . S
C733 C732 1.374 . S
C734 C731 1.499 . S
C734 C735 1.373 . S
C734 C736 1.389 . S
C735 H714 0.950 . S
C735 C734 1.373 . S
C735 C751 1.377 . S
C736 C734 1.389 . S
C736 C737 1.524 . S
C736 C750 1.377 . S
C737 C736 1.524 . S
C737 C738 1.397 . S
C737 C742 1.363 . S
C738 H715 0.950 . S
C738 C737 1.397 . S
C738 C739 1.334 . S
C739 H716 0.950 . S
C739 C738 1.334 . S
C739 C740 1.287 . S
C740 C739 1.287 . S
C740 C741 1.524 . S
C740 H759 0.913 . S
C741 H717 0.950 . S
C741 C740 1.524 . S
C741 C742 1.415 . S
C742 H718 0.950 . S
C742 C737 1.363 . S
C742 C741 1.415 . S
C743 H719 0.951 . S
C743 C744 1.366 . S
C743 C745 1.388 . S
C744 C743 1.366 . S
C744 C748 1.385 . S
C745 H720 0.951 . S
C745 C743 1.388 . S
C745 C746 1.366 . S
C746 C745 1.366 . S
C746 C747 1.414 . S
C746 C749 1.499 . S
C747 H721 0.950 . S
C747 C746 1.414 . S
C747 C748 1.374 . S
C748 H722 0.950 . S
C748 C744 1.385 . S
C748 C747 1.374 . S
C749 C746 1.499 . S
C749 C750 1.373 . S
C749 C751 1.389 . S
C750 H723 0.950 . S
C750 C736 1.377 . S
C750 C749 1.373 . S
C751 C735 1.377 . S
C751 C749 1.389 . S
C751 C752 1.524 . S
C752 C751 1.524 . S
C752 C753 1.397 . S
C752 C757 1.363 . S
C753 H724 0.950 . S
C753 C752 1.397 . S
C753 C754 1.334 . S
C754 H725 0.950 . S
C754 C753 1.334 . S
C754 C755 1.287 . S
C755 C754 1.287 . S
C755 C756 1.524 . S
C755 H758 0.999 . S
C756 H726 0.950 . S
C756 C755 1.524 . S
C756 C757 1.415 . S
C757 H727 0.950 . S
C757 C752 1.363 . S
C757 C756 1.415 . S
H758 C755 0.999 . S
H759 C740 0.913 . S
H760 C778 0.951 . S
H761 C780 0.951 . S
H762 C782 0.950 . S
H763 C783 0.950 . S
H764 C785 0.950 . S
H765 C788 0.950 . S
H766 C789 0.950 . S
H767 C791 0.950 . S
H768 C792 0.950 . S
H769 C793 0.951 . S
H770 C795 0.951 . S
H771 C797 0.950 . S
H772 C798 0.950 . S
H773 C800 0.950 . S
H774 C803 0.950 . S
H775 C804 0.950 . S
H776 C806 0.950 . S
H777 C807 0.950 . S
C778 H760 0.951 . S
C778 C779 1.366 . S
C778 C780 1.388 . S
C779 C778 1.366 . S
C779 C783 1.385 . S
C780 H761 0.951 . S
C780 C778 1.388 . S
C780 C781 1.366 . S
C781 C780 1.366 . S
C781 C782 1.414 . S
C781 C784 1.499 . S
C782 H762 0.950 . S
C782 C781 1.414 . S
C782 C783 1.374 . S
C783 H763 0.950 . S
C783 C779 1.385 . S
C783 C782 1.374 . S
C784 C781 1.499 . S
C784 C785 1.373 . S
C784 C786 1.389 . S
C785 H764 0.950 . S
C785 C784 1.373 . S
C785 C801 1.377 . S
C786 C784 1.389 . S
C786 C787 1.524 . S
C786 C800 1.377 . S
C787 C786 1.524 . S
C787 C788 1.397 . S
C787 C792 1.363 . S
C788 H765 0.950 . S
C788 C787 1.397 . S
C788 C789 1.334 . S
C789 H766 0.950 . S
C789 C788 1.334 . S
C789 C790 1.287 . S
C790 C789 1.287 . S
C790 C791 1.524 . S
C790 H809 0.913 . S
C791 H767 0.950 . S
C791 C790 1.524 . S
C791 C792 1.415 . S
C792 H768 0.950 . S
C792 C787 1.363 . S
C792 C791 1.415 . S
C793 H769 0.951 . S
C793 C794 1.366 . S
C793 C795 1.388 . S
C794 C793 1.366 . S
C794 C798 1.385 . S
C795 H770 0.951 . S
C795 C793 1.388 . S
C795 C796 1.366 . S
C796 C795 1.366 . S
C796 C797 1.414 . S
C796 C799 1.499 . S
C797 H771 0.950 . S
C797 C796 1.414 . S
C797 C798 1.374 . S
C798 H772 0.950 . S
C798 C794 1.385 . S
C798 C797 1.374 . S
C799 C796 1.499 . S
C799 C800 1.373 . S
C799 C801 1.389 . S
C800 H773 0.950 . S
C800 C786 1.377 . S
C800 C799 1.373 . S
C801 C785 1.377 . S
C801 C799 1.389 . S
C801 C802 1.524 . S
C802 C801 1.524 . S
C802 C803 1.397 . S
C802 C807 1.363 . S
C803 H774 0.950 . S
C803 C802 1.397 . S
C803 C804 1.334 . S
C804 H775 0.950 . S
C804 C803 1.334 . S
C804 C805 1.287 . S
C805 C804 1.287 . S
C805 C806 1.524 . S
C805 H808 0.999 . S
C806 H776 0.950 . S
C806 C805 1.524 . S
C806 C807 1.415 . S
C807 H777 0.950 . S
C807 C802 1.363 . S
C807 C806 1.415 . S
H808 C805 0.999 . S
H809 C790 0.913 . S
H810 C828 0.951 . S
H811 C830 0.951 . S
H812 C832 0.950 . S
H813 C833 0.950 . S
H814 C835 0.950 . S
H815 C838 0.950 . S
H816 C839 0.950 . S
H817 C841 0.950 . S
H818 C842 0.950 . S
H819 C843 0.951 . S
H820 C845 0.951 . S
H821 C847 0.950 . S
H822 C848 0.950 . S
H823 C850 0.950 . S
H824 C853 0.950 . S
H825 C854 0.950 . S
H826 C856 0.950 . S
H827 C857 0.950 . S
C828 H810 0.951 . S
C828 C829 1.366 . S
C828 C830 1.388 . S
C829 C828 1.366 . S
C829 C833 1.385 . S
C830 H811 0.951 . S
C830 C828 1.388 . S
C830 C831 1.366 . S
C831 C830 1.366 . S
C831 C832 1.414 . S
C831 C834 1.499 . S
C832 H812 0.950 . S
C832 C831 1.414 . S
C832 C833 1.374 . S
C833 H813 0.950 . S
C833 C829 1.385 . S
C833 C832 1.374 . S
C834 C831 1.499 . S
C834 C835 1.373 . S
C834 C836 1.389 . S
C835 H814 0.950 . S
C835 C834 1.373 . S
C835 C851 1.377 . S
C836 C834 1.389 . S
C836 C837 1.524 . S
C836 C850 1.377 . S
C837 C836 1.524 . S
C837 C838 1.397 . S
C837 C842 1.363 . S
C838 H815 0.950 . S
C838 C837 1.397 . S
C838 C839 1.334 . S
C839 H816 0.950 . S
C839 C838 1.334 . S
C839 C840 1.287 . S
C840 C839 1.287 . S
C840 C841 1.524 . S
C840 H859 0.913 . S
C841 H817 0.950 . S
C841 C840 1.524 . S
C841 C842 1.415 . S
C842 H818 0.950 . S
C842 C837 1.363 . S
C842 C841 1.415 . S
C843 H819 0.951 . S
C843 C844 1.366 . S
C843 C845 1.388 . S
C844 C843 1.366 . S
C844 C848 1.385 . S
C845 H820 0.951 . S
C845 C843 1.388 . S
C845 C846 1.366 . S
C846 C845 1.366 . S
C846 C847 1.414 . S
C846 C849 1.499 . S
C847 H821 0.950 . S
C847 C846 1.414 . S
C847 C848 1.374 . S
C848 H822 0.950 . S
C848 C844 1.385 . S
C848 C847 1.374 . S
C849 C846 1.499 . S
C849 C850 1.373 . S
C849 C851 1.389 . S
C850 H823 0.950 . S
C850 C836 1.377 . S
C850 C849 1.373 . S
C851 C835 1.377 . S
C851 C849 1.389 . S
C851 C852 1.524 . S
C852 C851 1.524 . S
C852 C853 1.397 . S
C852 C857 1.363 . S
C853 H824 0.950 . S
C853 C852 1.397 . S
C853 C854 1.334 . S
C854 H825 0.950 . S
C854 C853 1.334 . S
C854 C855 1.287 . S
C855 C854 1.287 . S
C855 C856 1.524 . S
C855 H858 0.999 . S
C856 H826 0.950 . S
C856 C855 1.524 . S
C856 C857 1.415 . S
C857 H827 0.950 . S
C857 C852 1.363 . S
C857 C856 1.415 . S
H858 C855 0.999 . S
H859 C840 0.913 . S
H860 C878 0.951 . S
H861 C880 0.951 . S
H862 C882 0.950 . S
H863 C883 0.950 . S
H864 C885 0.950 . S
H865 C888 0.950 . S
H866 C889 0.950 . S
H867 C891 0.950 . S
H868 C892 0.950 . S
H869 C893 0.951 . S
H870 C895 0.951 . S
H871 C897 0.950 . S
H872 C898 0.950 . S
H873 C900 0.950 . S
H874 C903 0.950 . S
H875 C904 0.950 . S
H876 C906 0.950 . S
H877 C907 0.950 . S
C878 H860 0.951 . S
C878 C879 1.366 . S
C878 C880 1.388 . S
C879 C878 1.366 . S
C879 C883 1.385 . S
C880 H861 0.951 . S
C880 C878 1.388 . S
C880 C881 1.366 . S
C881 C880 1.366 . S
C881 C882 1.414 . S
C881 C884 1.499 . S
C882 H862 0.950 . S
C882 C881 1.414 . S
C882 C883 1.374 . S
C883 H863 0.950 . S
C883 C879 1.385 . S
C883 C882 1.374 . S
C884 C881 1.499 . S
C884 C885 1.373 . S
C884 C886 1.389 . S
C885 H864 0.950 . S
C885 C884 1.373 . S
C885 C901 1.377 . S
C886 C884 1.389 . S
C886 C887 1.524 . S
C886 C900 1.377 . S
C887 C886 1.524 . S
C887 C888 1.397 . S
C887 C892 1.363 . S
C888 H865 0.950 . S
C888 C887 1.397 . S
C888 C889 1.334 . S
C889 H866 0.950 . S
C889 C888 1.334 . S
C889 C890 1.287 . S
C890 C889 1.287 . S
C890 C891 1.524 . S
C890 H909 0.913 . S
C891 H867 0.950 . S
C891 C890 1.524 . S
C891 C892 1.415 . S
C892 H868 0.950 . S
C892 C887 1.363 . S
C892 C891 1.415 . S
C893 H869 0.951 . S
C893 C894 1.366 . S
C893 C895 1.388 . S
C894 C893 1.366 . S
C894 C898 1.385 . S
C895 H870 0.951 . S
C895 C893 1.388 . S
C895 C896 1.366 . S
C896 C895 1.366 . S
C896 C897 1.414 . S
C896 C899 1.499 . S
C897 H871 0.950 . S
C897 C896 1.414 . S
C897 C898 1.374 . S
C898 H872 0.950 . S
C898 C894 1.385 . S
C898 C897 1.374 . S
C899 C896 1.499 . S
C899 C900 1.373 . S
C899 C901 1.389 . S
C900 H873 0.950 . S
C900 C886 1.377 . S
C900 C899 1.373 . S
C901 C885 1.377 . S
C901 C899 1.389 . S
C901 C902 1.524 . S
C902 C901 1.524 . S
C902 C903 1.397 . S
C902 C907 1.363 . S
C903 H874 0.950 . S
C903 C902 1.397 . S
C903 C904 1.334 . S
C904 H875 0.950 . S
C904 C903 1.334 . S
C904 C905 1.287 . S
C905 C904 1.287 . S
C905 C906 1.524 . S
C905 H908 0.999 . S
C906 H876 0.950 . S
C906 C905 1.524 . S
C906 C907 1.415 . S
C907 H877 0.950 . S
C907 C902 1.363 . S
C907 C906 1.415 . S
H908 C905 0.999 . S
H909 C890 0.913 . S
H910 C928 0.951 . S
H911 C930 0.951 . S
H912 C932 0.950 . S
H913 C933 0.950 . S
H914 C935 0.950 . S
H915 C938 0.950 . S
H916 C939 0.950 . S
H917 C941 0.950 . S
H918 C942 0.950 . S
H919 C943 0.951 . S
H920 C945 0.951 . S
H921 C947 0.950 . S
H922 C948 0.950 . S
H923 C950 0.950 . S
H924 C953 0.950 . S
H925 C954 0.950 . S
H926 C956 0.950 . S
H927 C957 0.950 . S
C928 H910 0.951 . S
C928 C929 1.366 . S
C928 C930 1.388 . S
C929 C928 1.366 . S
C929 C933 1.385 . S
C930 H911 0.951 . S
C930 C928 1.388 . S
C930 C931 1.366 . S
C931 C930 1.366 . S
C931 C932 1.414 . S
C931 C934 1.499 . S
C932 H912 0.950 . S
C932 C931 1.414 . S
C932 C933 1.374 . S
C933 H913 0.950 . S
C933 C929 1.385 . S
C933 C932 1.374 . S
C934 C931 1.499 . S
C934 C935 1.373 . S
C934 C936 1.389 . S
C935 H914 0.950 . S
C935 C934 1.373 . S
C935 C951 1.377 . S
C936 C934 1.389 . S
C936 C937 1.524 . S
C936 C950 1.377 . S
C937 C936 1.524 . S
C937 C938 1.397 . S
C937 C942 1.363 . S
C938 H915 0.950 . S
C938 C937 1.397 . S
C938 C939 1.334 . S
C939 H916 0.950 . S
C939 C938 1.334 . S
C939 C940 1.287 . S
C940 C939 1.287 . S
C940 C941 1.524 . S
C940 H959 0.913 . S
C941 H917 0.950 . S
C941 C940 1.524 . S
C941 C942 1.415 . S
C942 H918 0.950 . S
C942 C937 1.363 . S
C942 C941 1.415 . S
C943 H919 0.951 . S
C943 C944 1.366 . S
C943 C945 1.388 . S
C944 C943 1.366 . S
C944 C948 1.385 . S
C945 H920 0.951 . S
C945 C943 1.388 . S
C945 C946 1.366 . S
C946 C945 1.366 . S
C946 C947 1.414 . S
C946 C949 1.499 . S
C947 H921 0.950 . S
C947 C946 1.414 . S
C947 C948 1.374 . S
C948 H922 0.950 . S
C948 C944 1.385 . S
C948 C947 1.374 . S
C949 C946 1.499 . S
C949 C950 1.373 . S
C949 C951 1.389 . S
C950 H923 0.950 . S
C950 C936 1.377 . S
C950 C949 1.373 . S
C951 C935 1.377 . S
C951 C949 1.389 . S
C951 C952 1.524 . S
C952 C951 1.524 . S
C952 C953 1.397 . S
C952 C957 1.363 . S
C953 H924 0.950 . S
C953 C952 1.397 . S
C953 C954 1.334 . S
C954 H925 0.950 . S
C954 C953 1.334 . S
C954 C955 1.287 . S
C955 C954 1.287 . S
C955 C956 1.524 . S
C955 H958 0.999 . S
C956 H926 0.950 . S
C956 C955 1.524 . S
C956 C957 1.415 . S
C957 H927 0.950 . S
C957 C952 1.363 . S
C957 C956 1.415 . S
H958 C955 0.999 . S
H959 C940 0.913 . S
H960 C978 0.951 . S
H961 C980 0.951 . S
H962 C982 0.950 . S
H963 C983 0.950 . S
H964 C985 0.950 . S
H965 C988 0.950 . S
H966 C989 0.950 . S
H967 C991 0.950 . S
H968 C992 0.950 . S
H969 C993 0.951 . S
H970 C995 0.951 . S
H971 C997 0.950 . S
H972 C998 0.950 . S
H973 C1000 0.950 . S
H974 C1003 0.950 . S
H975 C1004 0.950 . S
H976 C1006 0.950 . S
H977 C1007 0.950 . S
C978 H960 0.951 . S
C978 C979 1.366 . S
C978 C980 1.388 . S
C979 C978 1.366 . S
C979 C983 1.385 . S
C980 H961 0.951 . S
C980 C978 1.388 . S
C980 C981 1.366 . S
C981 C980 1.366 . S
C981 C982 1.414 . S
C981 C984 1.499 . S
C982 H962 0.950 . S
C982 C981 1.414 . S
C982 C983 1.374 . S
C983 H963 0.950 . S
C983 C979 1.385 . S
C983 C982 1.374 . S
C984 C981 1.499 . S
C984 C985 1.373 . S
C984 C986 1.389 . S
C985 H964 0.950 . S
C985 C984 1.373 . S
C985 C1001 1.377 . S
C986 C984 1.389 . S
C986 C987 1.524 . S
C986 C1000 1.377 . S
C987 C986 1.524 . S
C987 C988 1.397 . S
C987 C992 1.363 . S
C988 H965 0.950 . S
C988 C987 1.397 . S
C988 C989 1.334 . S
C989 H966 0.950 . S
C989 C988 1.334 . S
C989 C990 1.287 . S
C990 C989 1.287 . S
C990 C991 1.524 . S
C990 H1009 0.913 . S
C991 H967 0.950 . S
C991 C990 1.524 . S
C991 C992 1.415 . S
C992 H968 0.950 . S
C992 C987 1.363 . S
C992 C991 1.415 . S
C993 H969 0.951 . S
C993 C994 1.366 . S
C993 C995 1.388 . S
C994 C993 1.366 . S
C994 C998 1.385 1_554 S
C995 H970 0.951 . S
C995 C993 1.388 . S
C995 C996 1.366 1_554 S
C996 C995 1.366 1_556 S
C996 C997 1.414 . S
C996 C999 1.499 . S
C997 H971 0.950 . S
C997 C996 1.414 . S
C997 C998 1.374 . S
C998 H972 0.950 . S
C998 C994 1.385 1_556 S
C998 C997 1.374 . S
C999 C996 1.499 . S
C999 C1000 1.373 . S
C999 C1001 1.389 . S
C1000 H973 0.950 . S
C1000 C986 1.377 . S
C1000 C999 1.373 . S
C1001 C985 1.377 . S
C1001 C999 1.389 . S
C1001 C1002 1.524 . S
C1002 C1001 1.524 . S
C1002 C1003 1.397 . S
C1002 C1007 1.363 . S
C1003 H974 0.950 . S
C1003 C1002 1.397 . S
C1003 C1004 1.334 . S
C1004 H975 0.950 . S
C1004 C1003 1.334 . S
C1004 C1005 1.287 . S
C1005 C1004 1.287 . S
C1005 C1006 1.524 . S
C1005 H1008 0.999 . S
C1006 H976 0.950 . S
C1006 C1005 1.524 . S
C1006 C1007 1.415 . S
C1007 H977 0.950 . S
C1007 C1002 1.363 . S
C1007 C1006 1.415 . S
H1008 C1005 0.999 . S
H1009 C990 0.913 . S
H1010 C1028 0.951 . S
H1011 C1030 0.951 . S
H1012 C1032 0.950 . S
H1013 C1033 0.950 . S
H1014 C1035 0.950 . S
H1015 C1038 0.950 . S
H1016 C1039 0.950 . S
H1017 C1041 0.950 . S
H1018 C1042 0.950 . S
H1019 C1043 0.951 . S
H1020 C1045 0.951 . S
H1021 C1047 0.950 . S
H1022 C1048 0.950 . S
H1023 C1050 0.950 . S
H1024 C1053 0.950 . S
H1025 C1054 0.950 . S
H1026 C1056 0.950 . S
H1027 C1057 0.950 . S
C1028 H1010 0.951 . S
C1028 C1029 1.366 . S
C1028 C1030 1.388 . S
C1029 C1028 1.366 . S
C1029 C1033 1.385 . S
C1030 H1011 0.951 . S
C1030 C1028 1.388 . S
C1030 C1031 1.366 . S
C1031 C1030 1.366 . S
C1031 C1032 1.414 . S
C1031 C1034 1.499 . S
C1032 H1012 0.950 . S
C1032 C1031 1.414 . S
C1032 C1033 1.374 . S
C1033 H1013 0.950 . S
C1033 C1029 1.385 . S
C1033 C1032 1.374 . S
C1034 C1031 1.499 . S
C1034 C1035 1.373 . S
C1034 C1036 1.389 . S
C1035 H1014 0.950 . S
C1035 C1034 1.373 . S
C1035 C1051 1.377 . S
C1036 C1034 1.389 . S
C1036 C1037 1.524 . S
C1036 C1050 1.377 . S
C1037 C1036 1.524 . S
C1037 C1038 1.397 . S
C1037 C1042 1.363 . S
C1038 H1015 0.950 . S
C1038 C1037 1.397 . S
C1038 C1039 1.334 . S
C1039 H1016 0.950 . S
C1039 C1038 1.334 . S
C1039 C1040 1.287 . S
C1040 C1039 1.287 . S
C1040 C1041 1.524 . S
C1040 H1059 0.913 . S
C1041 H1017 0.950 . S
C1041 C1040 1.524 . S
C1041 C1042 1.415 . S
C1042 H1018 0.950 . S
C1042 C1037 1.363 . S
C1042 C1041 1.415 . S
C1043 H1019 0.951 . S
C1043 C1044 1.366 . S
C1043 C1045 1.388 . S
C1044 C1043 1.366 . S
C1044 C1048 1.385 . S
C1045 H1020 0.951 . S
C1045 C1043 1.388 . S
C1045 C1046 1.366 . S
C1046 C1045 1.366 . S
C1046 C1047 1.414 . S
C1046 C1049 1.499 . S
C1047 H1021 0.950 . S
C1047 C1046 1.414 . S
C1047 C1048 1.374 . S
C1048 H1022 0.950 . S
C1048 C1044 1.385 . S
C1048 C1047 1.374 . S
C1049 C1046 1.499 . S
C1049 C1050 1.373 . S
C1049 C1051 1.389 . S
C1050 H1023 0.950 . S
C1050 C1036 1.377 . S
C1050 C1049 1.373 . S
C1051 C1035 1.377 . S
C1051 C1049 1.389 . S
C1051 C1052 1.524 . S
C1052 C1051 1.524 . S
C1052 C1053 1.397 . S
C1052 C1057 1.363 . S
C1053 H1024 0.950 . S
C1053 C1052 1.397 . S
C1053 C1054 1.334 . S
C1054 H1025 0.950 . S
C1054 C1053 1.334 . S
C1054 C1055 1.287 . S
C1055 C1054 1.287 . S
C1055 C1056 1.524 . S
C1055 H1058 0.999 . S
C1056 H1026 0.950 . S
C1056 C1055 1.524 . S
C1056 C1057 1.415 . S
C1057 H1027 0.950 . S
C1057 C1052 1.363 . S
C1057 C1056 1.415 . S
H1058 C1055 0.999 . S
H1059 C1040 0.913 . S
H1060 C1078 0.951 . S
H1061 C1080 0.951 . S
H1062 C1082 0.950 . S
H1063 C1083 0.950 . S
H1064 C1085 0.950 . S
H1065 C1088 0.950 . S
H1066 C1089 0.950 . S
H1067 C1091 0.950 . S
H1068 C1092 0.950 . S
H1069 C1093 0.951 . S
H1070 C1095 0.951 . S
H1071 C1097 0.950 . S
H1072 C1098 0.950 . S
H1073 C1100 0.950 . S
H1074 C1103 0.950 . S
H1075 C1104 0.950 . S
H1076 C1106 0.950 . S
H1077 C1107 0.950 . S
C1078 H1060 0.951 . S
C1078 C1079 1.366 . S
C1078 C1080 1.388 . S
C1079 C1078 1.366 . S
C1079 C1083 1.385 . S
C1080 H1061 0.951 . S
C1080 C1078 1.388 . S
C1080 C1081 1.366 . S
C1081 C1080 1.366 . S
C1081 C1082 1.414 . S
C1081 C1084 1.499 . S
C1082 H1062 0.950 . S
C1082 C1081 1.414 . S
C1082 C1083 1.374 . S
C1083 H1063 0.950 . S
C1083 C1079 1.385 . S
C1083 C1082 1.374 . S
C1084 C1081 1.499 . S
C1084 C1085 1.373 . S
C1084 C1086 1.389 . S
C1085 H1064 0.950 . S
C1085 C1084 1.373 . S
C1085 C1101 1.377 . S
C1086 C1084 1.389 . S
C1086 C1087 1.524 . S
C1086 C1100 1.377 . S
C1087 C1086 1.524 . S
C1087 C1088 1.397 . S
C1087 C1092 1.363 . S
C1088 H1065 0.950 . S
C1088 C1087 1.397 . S
C1088 C1089 1.334 . S
C1089 H1066 0.950 . S
C1089 C1088 1.334 . S
C1089 C1090 1.287 . S
C1090 C1089 1.287 . S
C1090 C1091 1.524 . S
C1090 H1109 0.913 . S
C1091 H1067 0.950 . S
C1091 C1090 1.524 . S
C1091 C1092 1.415 . S
C1092 H1068 0.950 . S
C1092 C1087 1.363 . S
C1092 C1091 1.415 . S
C1093 H1069 0.951 . S
C1093 C1094 1.366 . S
C1093 C1095 1.388 . S
C1094 C1093 1.366 . S
C1094 C1098 1.385 . S
C1095 H1070 0.951 . S
C1095 C1093 1.388 . S
C1095 C1096 1.366 . S
C1096 C1095 1.366 . S
C1096 C1097 1.414 . S
C1096 C1099 1.499 . S
C1097 H1071 0.950 . S
C1097 C1096 1.414 . S
C1097 C1098 1.374 . S
C1098 H1072 0.950 . S
C1098 C1094 1.385 . S
C1098 C1097 1.374 . S
C1099 C1096 1.499 . S
C1099 C1100 1.373 . S
C1099 C1101 1.389 . S
C1100 H1073 0.950 . S
C1100 C1086 1.377 . S
C1100 C1099 1.373 . S
C1101 C1085 1.377 . S
C1101 C1099 1.389 . S
C1101 C1102 1.524 . S
C1102 C1101 1.524 . S
C1102 C1103 1.397 . S
C1102 C1107 1.363 . S
C1103 H1074 0.950 . S
C1103 C1102 1.397 . S
C1103 C1104 1.334 . S
C1104 H1075 0.950 . S
C1104 C1103 1.334 . S
C1104 C1105 1.287 . S
C1105 C1104 1.287 . S
C1105 C1106 1.524 . S
C1105 H1108 0.999 . S
C1106 H1076 0.950 . S
C1106 C1105 1.524 . S
C1106 C1107 1.415 . S
C1107 H1077 0.950 . S
C1107 C1102 1.363 . S
C1107 C1106 1.415 . S
H1108 C1105 0.999 . S
H1109 C1090 0.913 . S
H1110 C1128 0.951 . S
H1111 C1130 0.951 . S
H1112 C1132 0.950 . S
H1113 C1133 0.950 . S
H1114 C1135 0.950 . S
H1115 C1138 0.950 . S
H1116 C1139 0.950 . S
H1117 C1141 0.950 . S
H1118 C1142 0.950 . S
H1119 C1143 0.951 . S
H1120 C1145 0.951 . S
H1121 C1147 0.950 . S
H1122 C1148 0.950 . S
H1123 C1150 0.950 . S
H1124 C1153 0.950 . S
H1125 C1154 0.950 . S
H1126 C1156 0.950 . S
H1127 C1157 0.950 . S
C1128 H1110 0.951 . S
C1128 C1129 1.366 . S
C1128 C1130 1.388 . S
C1129 C1128 1.366 . S
C1129 C1133 1.385 . S
C1130 H1111 0.951 . S
C1130 C1128 1.388 . S
C1130 C1131 1.366 . S
C1131 C1130 1.366 . S
C1131 C1132 1.414 . S
C1131 C1134 1.499 . S
C1132 H1112 0.950 . S
C1132 C1131 1.414 . S
C1132 C1133 1.374 . S
C1133 H1113 0.950 . S
C1133 C1129 1.385 . S
C1133 C1132 1.374 . S
C1134 C1131 1.499 . S
C1134 C1135 1.373 . S
C1134 C1136 1.389 . S
C1135 H1114 0.950 . S
C1135 C1134 1.373 . S
C1135 C1151 1.377 . S
C1136 C1134 1.389 . S
C1136 C1137 1.524 . S
C1136 C1150 1.377 . S
C1137 C1136 1.524 . S
C1137 C1138 1.397 . S
C1137 C1142 1.363 . S
C1138 H1115 0.950 . S
C1138 C1137 1.397 . S
C1138 C1139 1.334 . S
C1139 H1116 0.950 . S
C1139 C1138 1.334 . S
C1139 C1140 1.287 . S
C1140 C1139 1.287 . S
C1140 C1141 1.524 . S
C1140 H1159 0.913 . S
C1141 H1117 0.950 . S
C1141 C1140 1.524 . S
C1141 C1142 1.415 . S
C1142 H1118 0.950 . S
C1142 C1137 1.363 . S
C1142 C1141 1.415 . S
C1143 H1119 0.951 . S
C1143 C1144 1.366 . S
C1143 C1145 1.388 . S
C1144 C1143 1.366 . S
C1144 C1148 1.385 . S
C1145 H1120 0.951 . S
C1145 C1143 1.388 . S
C1145 C1146 1.366 . S
C1146 C1145 1.366 . S
C1146 C1147 1.414 . S
C1146 C1149 1.499 . S
C1147 H1121 0.950 . S
C1147 C1146 1.414 . S
C1147 C1148 1.374 . S
C1148 H1122 0.950 . S
C1148 C1144 1.385 . S
C1148 C1147 1.374 . S
C1149 C1146 1.499 . S
C1149 C1150 1.373 . S
C1149 C1151 1.389 . S
C1150 H1123 0.950 . S
C1150 C1136 1.377 . S
C1150 C1149 1.373 . S
C1151 C1135 1.377 . S
C1151 C1149 1.389 . S
C1151 C1152 1.524 . S
C1152 C1151 1.524 . S
C1152 C1153 1.397 . S
C1152 C1157 1.363 . S
C1153 H1124 0.950 . S
C1153 C1152 1.397 . S
C1153 C1154 1.334 . S
C1154 H1125 0.950 . S
C1154 C1153 1.334 . S
C1154 C1155 1.287 . S
C1155 C1154 1.287 . S
C1155 C1156 1.524 . S
C1155 H1158 0.999 . S
C1156 H1126 0.950 . S
C1156 C1155 1.524 . S
C1156 C1157 1.415 . S
C1157 H1127 0.950 . S
C1157 C1152 1.363 . S
C1157 C1156 1.415 . S
H1158 C1155 0.999 . S
H1159 C1140 0.913 . S
H1160 C1178 0.951 . S
H1161 C1180 0.951 . S
H1162 C1182 0.950 . S
H1163 C1183 0.950 . S
H1164 C1185 0.950 . S
H1165 C1188 0.950 . S
H1166 C1189 0.950 . S
H1167 C1191 0.950 . S
H1168 C1192 0.950 . S
H1169 C1193 0.951 . S
H1170 C1195 0.951 . S
H1171 C1197 0.950 . S
H1172 C1198 0.950 . S
H1173 C1200 0.950 . S
H1174 C1203 0.950 . S
H1175 C1204 0.950 . S
H1176 C1206 0.950 . S
H1177 C1207 0.950 . S
C1178 H1160 0.951 . S
C1178 C1179 1.366 . S
C1178 C1180 1.388 . S
C1179 C1178 1.366 . S
C1179 C1183 1.385 . S
C1180 H1161 0.951 . S
C1180 C1178 1.388 . S
C1180 C1181 1.366 . S
C1181 C1180 1.366 . S
C1181 C1182 1.414 . S
C1181 C1184 1.499 . S
C1182 H1162 0.950 . S
C1182 C1181 1.414 . S
C1182 C1183 1.374 . S
C1183 H1163 0.950 . S
C1183 C1179 1.385 . S
C1183 C1182 1.374 . S
C1184 C1181 1.499 . S
C1184 C1185 1.373 . S
C1184 C1186 1.389 . S
C1185 H1164 0.950 . S
C1185 C1184 1.373 . S
C1185 C1201 1.377 . S
C1186 C1184 1.389 . S
C1186 C1187 1.524 . S
C1186 C1200 1.377 . S
C1187 C1186 1.524 . S
C1187 C1188 1.397 . S
C1187 C1192 1.363 . S
C1188 H1165 0.950 . S
C1188 C1187 1.397 . S
C1188 C1189 1.334 . S
C1189 H1166 0.950 . S
C1189 C1188 1.334 . S
C1189 C1190 1.287 . S
C1190 C1189 1.287 . S
C1190 C1191 1.524 . S
C1190 H1209 0.913 . S
C1191 H1167 0.950 . S
C1191 C1190 1.524 . S
C1191 C1192 1.415 . S
C1192 H1168 0.950 . S
C1192 C1187 1.363 . S
C1192 C1191 1.415 . S
C1193 H1169 0.951 . S
C1193 C1194 1.366 . S
C1193 C1195 1.388 . S
C1194 C1193 1.366 . S
C1194 C1198 1.385 . S
C1195 H1170 0.951 . S
C1195 C1193 1.388 . S
C1195 C1196 1.366 . S
C1196 C1195 1.366 . S
C1196 C1197 1.414 . S
C1196 C1199 1.499 . S
C1197 H1171 0.950 . S
C1197 C1196 1.414 . S
C1197 C1198 1.374 . S
C1198 H1172 0.950 . S
C1198 C1194 1.385 . S
C1198 C1197 1.374 . S
C1199 C1196 1.499 . S
C1199 C1200 1.373 . S
C1199 C1201 1.389 . S
C1200 H1173 0.950 . S
C1200 C1186 1.377 . S
C1200 C1199 1.373 . S
C1201 C1185 1.377 . S
C1201 C1199 1.389 . S
C1201 C1202 1.524 . S
C1202 C1201 1.524 . S
C1202 C1203 1.397 . S
C1202 C1207 1.363 . S
C1203 H1174 0.950 . S
C1203 C1202 1.397 . S
C1203 C1204 1.334 . S
C1204 H1175 0.950 . S
C1204 C1203 1.334 . S
C1204 C1205 1.287 . S
C1205 C1204 1.287 . S
C1205 C1206 1.524 . S
C1205 H1208 0.999 . S
C1206 H1176 0.950 . S
C1206 C1205 1.524 . S
C1206 C1207 1.415 . S
C1207 H1177 0.950 . S
C1207 C1202 1.363 . S
C1207 C1206 1.415 . S
H1208 C1205 0.999 . S
H1209 C1190 0.913 . S
H1210 C1228 0.951 . S
H1211 C1230 0.951 . S
H1212 C1232 0.950 . S
H1213 C1233 0.950 . S
H1214 C1235 0.950 . S
H1215 C1238 0.950 . S
H1216 C1239 0.950 . S
H1217 C1241 0.950 . S
H1218 C1242 0.950 . S
H1219 C1243 0.951 . S
H1220 C1245 0.951 . S
H1221 C1247 0.950 . S
H1222 C1248 0.950 . S
H1223 C1250 0.950 . S
H1224 C1253 0.950 . S
H1225 C1254 0.950 . S
H1226 C1256 0.950 . S
H1227 C1257 0.950 . S
C1228 H1210 0.951 . S
C1228 C1229 1.366 . S
C1228 C1230 1.388 . S
C1229 C1228 1.366 . S
C1229 C1233 1.385 . S
C1230 H1211 0.951 . S
C1230 C1228 1.388 . S
C1230 C1231 1.366 . S
C1231 C1230 1.366 . S
C1231 C1232 1.414 . S
C1231 C1234 1.499 . S
C1232 H1212 0.950 . S
C1232 C1231 1.414 . S
C1232 C1233 1.374 . S
C1233 H1213 0.950 . S
C1233 C1229 1.385 . S
C1233 C1232 1.374 . S
C1234 C1231 1.499 . S
C1234 C1235 1.373 . S
C1234 C1236 1.389 . S
C1235 H1214 0.950 . S
C1235 C1234 1.373 . S
C1235 C1251 1.377 . S
C1236 C1234 1.389 . S
C1236 C1237 1.524 . S
C1236 C1250 1.377 . S
C1237 C1236 1.524 . S
C1237 C1238 1.397 . S
C1237 C1242 1.363 . S
C1238 H1215 0.950 . S
C1238 C1237 1.397 . S
C1238 C1239 1.334 . S
C1239 H1216 0.950 . S
C1239 C1238 1.334 . S
C1239 C1240 1.287 . S
C1240 C1239 1.287 . S
C1240 C1241 1.524 . S
C1240 H1259 0.913 . S
C1241 H1217 0.950 . S
C1241 C1240 1.524 . S
C1241 C1242 1.415 . S
C1242 H1218 0.950 . S
C1242 C1237 1.363 . S
C1242 C1241 1.415 . S
C1243 H1219 0.951 . S
C1243 C1244 1.366 . S
C1243 C1245 1.388 . S
C1244 C1243 1.366 . S
C1244 C1248 1.385 . S
C1245 H1220 0.951 . S
C1245 C1243 1.388 . S
C1245 C1246 1.366 . S
C1246 C1245 1.366 . S
C1246 C1247 1.414 . S
C1246 C1249 1.499 . S
C1247 H1221 0.950 . S
C1247 C1246 1.414 . S
C1247 C1248 1.374 . S
C1248 H1222 0.950 . S
C1248 C1244 1.385 . S
C1248 C1247 1.374 . S
C1249 C1246 1.499 . S
C1249 C1250 1.373 . S
C1249 C1251 1.389 . S
C1250 H1223 0.950 . S
C1250 C1236 1.377 . S
C1250 C1249 1.373 . S
C1251 C1235 1.377 . S
C1251 C1249 1.389 . S
C1251 C1252 1.524 . S
C1252 C1251 1.524 . S
C1252 C1253 1.397 . S
C1252 C1257 1.363 . S
C1253 H1224 0.950 . S
C1253 C1252 1.397 . S
C1253 C1254 1.334 . S
C1254 H1225 0.950 . S
C1254 C1253 1.334 . S
C1254 C1255 1.287 . S
C1255 C1254 1.287 . S
C1255 C1256 1.524 . S
C1255 H1258 0.999 . S
C1256 H1226 0.950 . S
C1256 C1255 1.524 . S
C1256 C1257 1.415 . S
C1257 H1227 0.950 . S
C1257 C1252 1.363 . S
C1257 C1256 1.415 . S
H1258 C1255 0.999 . S
H1259 C1240 0.913 . S
H1260 C1278 0.951 . S
H1261 C1280 0.951 . S
H1262 C1282 0.950 . S
H1263 C1283 0.950 . S
H1264 C1285 0.950 . S
H1265 C1288 0.950 . S
H1266 C1289 0.950 . S
H1267 C1291 0.950 . S
H1268 C1292 0.950 . S
H1269 C1293 0.951 . S
H1270 C1295 0.951 . S
H1271 C1297 0.950 . S
H1272 C1298 0.950 . S
H1273 C1300 0.950 . S
H1274 C1303 0.950 . S
H1275 C1304 0.950 . S
H1276 C1306 0.950 . S
H1277 C1307 0.950 . S
C1278 H1260 0.951 . S
C1278 C1279 1.366 . S
C1278 C1280 1.388 . S
C1279 C1278 1.366 . S
C1279 C1283 1.385 . S
C1280 H1261 0.951 . S
C1280 C1278 1.388 . S
C1280 C1281 1.366 . S
C1281 C1280 1.366 . S
C1281 C1282 1.414 . S
C1281 C1284 1.499 . S
C1282 H1262 0.950 . S
C1282 C1281 1.414 . S
C1282 C1283 1.374 . S
C1283 H1263 0.950 . S
C1283 C1279 1.385 . S
C1283 C1282 1.374 . S
C1284 C1281 1.499 . S
C1284 C1285 1.373 . S
C1284 C1286 1.389 . S
C1285 H1264 0.950 . S
C1285 C1284 1.373 . S
C1285 C1301 1.377 . S
C1286 C1284 1.389 . S
C1286 C1287 1.524 . S
C1286 C1300 1.377 . S
C1287 C1286 1.524 . S
C1287 C1288 1.397 . S
C1287 C1292 1.363 . S
C1288 H1265 0.950 . S
C1288 C1287 1.397 . S
C1288 C1289 1.334 . S
C1289 H1266 0.950 . S
C1289 C1288 1.334 . S
C1289 C1290 1.287 . S
C1290 C1289 1.287 . S
C1290 C1291 1.524 . S
C1290 H1309 0.913 . S
C1291 H1267 0.950 . S
C1291 C1290 1.524 . S
C1291 C1292 1.415 . S
C1292 H1268 0.950 . S
C1292 C1287 1.363 . S
C1292 C1291 1.415 . S
C1293 H1269 0.951 . S
C1293 C1294 1.366 . S
C1293 C1295 1.388 . S
C1294 C1293 1.366 . S
C1294 C1298 1.385 . S
C1295 H1270 0.951 . S
C1295 C1293 1.388 . S
C1295 C1296 1.366 . S
C1296 C1295 1.366 . S
C1296 C1297 1.414 . S
C1296 C1299 1.499 . S
C1297 H1271 0.950 . S
C1297 C1296 1.414 . S
C1297 C1298 1.374 . S
C1298 H1272 0.950 . S
C1298 C1294 1.385 . S
C1298 C1297 1.374 . S
C1299 C1296 1.499 . S
C1299 C1300 1.373 . S
C1299 C1301 1.389 . S
C1300 H1273 0.950 . S
C1300 C1286 1.377 . S
C1300 C1299 1.373 . S
C1301 C1285 1.377 . S
C1301 C1299 1.389 . S
C1301 C1302 1.524 . S
C1302 C1301 1.524 . S
C1302 C1303 1.397 . S
C1302 C1307 1.363 . S
C1303 H1274 0.950 . S
C1303 C1302 1.397 . S
C1303 C1304 1.334 . S
C1304 H1275 0.950 . S
C1304 C1303 1.334 . S
C1304 C1305 1.287 . S
C1305 C1304 1.287 . S
C1305 C1306 1.524 . S
C1305 H1308 0.999 . S
C1306 H1276 0.950 . S
C1306 C1305 1.524 . S
C1306 C1307 1.415 . S
C1307 H1277 0.950 . S
C1307 C1302 1.363 . S
C1307 C1306 1.415 . S
H1308 C1305 0.999 . S
H1309 C1290 0.913 . S
H1310 C1328 0.951 . S
H1311 C1330 0.951 . S
H1312 C1332 0.950 . S
H1313 C1333 0.950 . S
H1314 C1335 0.950 . S
H1315 C1338 0.950 . S
H1316 C1339 0.950 . S
H1317 C1341 0.950 . S
H1318 C1342 0.950 . S
H1319 C1343 0.951 . S
H1320 C1345 0.951 . S
H1321 C1347 0.950 . S
H1322 C1348 0.950 . S
H1323 C1350 0.950 . S
H1324 C1353 0.950 . S
H1325 C1354 0.950 . S
H1326 C1356 0.950 . S
H1327 C1357 0.914 1_554 S
C1328 H1310 0.951 . S
C1328 C1329 1.366 . S
C1328 C1330 1.388 . S
C1329 C1328 1.366 . S
C1329 C1333 1.385 . S
C1330 H1311 0.951 . S
C1330 C1328 1.388 . S
C1330 C1331 1.366 . S
C1331 C1330 1.366 . S
C1331 C1332 1.414 . S
C1331 C1334 1.499 . S
C1332 H1312 0.950 . S
C1332 C1331 1.414 . S
C1332 C1333 1.374 . S
C1333 H1313 0.950 . S
C1333 C1329 1.385 . S
C1333 C1332 1.374 . S
C1334 C1331 1.499 . S
C1334 C1335 1.373 . S
C1334 C1336 1.389 . S
C1335 H1314 0.950 . S
C1335 C1334 1.373 . S
C1335 C1351 1.377 . S
C1336 C1334 1.389 . S
C1336 C1337 1.524 . S
C1336 C1350 1.377 . S
C1337 C1336 1.524 . S
C1337 C1338 1.397 . S
C1337 C1342 1.363 . S
C1338 H1315 0.950 . S
C1338 C1337 1.397 . S
C1338 C1339 1.334 . S
C1339 H1316 0.950 . S
C1339 C1338 1.334 . S
C1339 C1340 1.287 . S
C1340 C1339 1.287 . S
C1340 C1341 1.524 . S
C1340 H1359 0.913 . S
C1341 H1317 0.950 . S
C1341 C1340 1.524 . S
C1341 C1342 1.415 . S
C1342 H1318 0.950 . S
C1342 C1337 1.363 . S
C1342 C1341 1.415 . S
C1343 H1319 0.951 . S
C1343 C1344 1.366 . S
C1343 C1345 1.388 . S
C1344 C1343 1.366 . S
C1344 C1348 1.385 . S
C1345 H1320 0.951 . S
C1345 C1343 1.388 . S
C1345 C1346 1.366 . S
C1346 C1345 1.366 . S
C1346 C1347 1.414 . S
C1346 C1349 1.499 1_556 S
C1347 H1321 0.950 . S
C1347 C1346 1.414 . S
C1347 C1348 1.374 . S
C1348 H1322 0.950 . S
C1348 C1344 1.385 . S
C1348 C1347 1.374 . S
C1349 C1346 1.499 1_554 S
C1349 C1350 1.373 . S
C1349 C1351 1.389 . S
C1350 H1323 0.950 . S
C1350 C1336 1.377 . S
C1350 C1349 1.373 . S
C1351 C1335 1.377 . S
C1351 C1349 1.389 . S
C1351 C1352 1.524 1_554 S
C1352 C1351 1.524 1_556 S
C1352 C1353 1.397 . S
C1352 C1357 1.369 . S
C1353 H1324 0.950 . S
C1353 C1352 1.397 . S
C1353 C1354 1.334 . S
C1354 H1325 0.950 . S
C1354 C1353 1.334 . S
C1354 C1355 1.287 . S
C1355 C1354 1.287 . S
C1355 C1356 1.524 . S
C1355 H1358 0.999 . S
C1356 H1326 0.950 . S
C1356 C1355 1.524 . S
C1356 C1357 1.446 . S
C1357 H1327 0.914 1_556 S
C1357 C1352 1.369 . S
C1357 C1356 1.446 . S
H1358 C1355 0.999 . S
H1359 C1340 0.913 . S
H1360 C1378 0.951 . S
H1361 C1380 0.951 . S
H1362 C1382 0.950 . S
H1363 C1383 0.950 . S
H1364 C1385 0.950 . S
H1365 C1388 0.950 . S
H1366 C1389 0.950 . S
H1367 C1391 0.950 . S
H1368 C1392 0.950 . S
H1369 C1393 0.951 . S
H1370 C1395 0.951 . S
H1371 C1397 0.950 . S
H1372 C1398 0.950 . S
H1373 C1400 0.950 . S
H1374 C1403 0.950 . S
H1375 C1404 0.950 . S
H1376 C1406 0.950 . S
H1377 C1407 0.950 . S
C1378 H1360 0.951 . S
C1378 C1379 1.366 . S
C1378 C1380 1.388 . S
C1379 C1378 1.366 . S
C1379 C1383 1.385 . S
C1380 H1361 0.951 . S
C1380 C1378 1.388 . S
C1380 C1381 1.366 . S
C1381 C1380 1.366 . S
C1381 C1382 1.414 . S
C1381 C1384 1.499 . S
C1382 H1362 0.950 . S
C1382 C1381 1.414 . S
C1382 C1383 1.374 . S
C1383 H1363 0.950 . S
C1383 C1379 1.385 . S
C1383 C1382 1.374 . S
C1384 C1381 1.499 . S
C1384 C1385 1.373 . S
C1384 C1386 1.389 . S
C1385 H1364 0.950 . S
C1385 C1384 1.373 . S
C1385 C1401 1.377 . S
C1386 C1384 1.389 . S
C1386 C1387 1.524 . S
C1386 C1400 1.377 . S
C1387 C1386 1.524 . S
C1387 C1388 1.397 . S
C1387 C1392 1.363 . S
C1388 H1365 0.950 . S
C1388 C1387 1.397 . S
C1388 C1389 1.334 . S
C1389 H1366 0.950 . S
C1389 C1388 1.334 . S
C1389 C1390 1.287 . S
C1390 C1389 1.287 . S
C1390 C1391 1.524 . S
C1390 H1409 0.913 . S
C1391 H1367 0.950 . S
C1391 C1390 1.524 . S
C1391 C1392 1.415 . S
C1392 H1368 0.950 . S
C1392 C1387 1.363 . S
C1392 C1391 1.415 . S
C1393 H1369 0.951 . S
C1393 C1394 1.366 . S
C1393 C1395 1.388 . S
C1394 C1393 1.366 . S
C1394 C1398 1.385 . S
C1395 H1370 0.951 . S
C1395 C1393 1.388 . S
C1395 C1396 1.366 . S
C1396 C1395 1.366 . S
C1396 C1397 1.414 . S
C1396 C1399 1.499 . S
C1397 H1371 0.950 . S
C1397 C1396 1.414 . S
C1397 C1398 1.374 . S
C1398 H1372 0.950 . S
C1398 C1394 1.385 . S
C1398 C1397 1.374 . S
C1399 C1396 1.499 . S
C1399 C1400 1.373 . S
C1399 C1401 1.389 . S
C1400 H1373 0.950 . S
C1400 C1386 1.377 . S
C1400 C1399 1.373 . S
C1401 C1385 1.377 . S
C1401 C1399 1.389 . S
C1401 C1402 1.524 . S
C1402 C1401 1.524 . S
C1402 C1403 1.397 . S
C1402 C1407 1.363 . S
C1403 H1374 0.950 . S
C1403 C1402 1.397 . S
C1403 C1404 1.334 . S
C1404 H1375 0.950 . S
C1404 C1403 1.334 . S
C1404 C1405 1.287 . S
C1405 C1404 1.287 . S
C1405 C1406 1.524 . S
C1405 H1408 0.999 . S
C1406 H1376 0.950 . S
C1406 C1405 1.524 . S
C1406 C1407 1.415 . S
C1407 H1377 0.950 . S
C1407 C1402 1.363 . S
C1407 C1406 1.415 . S
H1408 C1405 0.999 . S
H1409 C1390 0.913 . S
C244 C203 1.577 . S
C229 C19 1.498 . S
C279 C40 1.392 . S
C294 C137 1.461 . S
C329 C51 1.316 . S
C344 C151 1.395 . S
C379 C72 1.362 . S
C394 C165 1.450 . S
C444 C179 1.465 . S
C429 C103 1.390 . S
C479 C114 1.421 . S
C494 C189 1.517 . S
C529 C30 1.487 . S
C544 C147 1.584 . S
C579 C61 1.547 . S
C594 C161 1.641 . S
C629 C82 1.468 . S
C644 C175 1.559 . S
C694 C193 1.454 . S
C679 C93 1.362 1_554 S
C744 C207 1.506 . S
C729 C124 1.429 . S
C794 C133 1.561 . S
C779 C9 1.469 . S
C829 C17 1.450 . S
C844 C148 1.467 . S
C879 C38 1.521 . S
C894 C162 1.544 . S
C944 C176 1.548 . S
C929 C54 1.519 . S
C979 C75 1.410 . S
C994 C195 1.424 . S
C1044 C209 1.396 . S
C1029 C101 1.387 . S
C1094 C134 1.441 . S
C1079 C117 1.416 . S
C1144 C204 1.437 . S
C1129 C33 1.412 . S
C1179 C59 1.310 . S
C1194 C139 1.320 . S
C1244 C153 1.335 . S
C1229 C80 1.321 . S
C1279 C96 1.383 . S
C1294 C167 1.402 . S
C1329 C122 1.410 . S
C1344 C181 1.418 . S
C1379 C12 1.451 . S
C1394 C190 1.470 . S
