# Generated by pormake.
# Topology zzz, (3,6)-cn, num edge types: 1
# Building blocks:
#     Node 0, Type 0, BuildingBlock: BELTOD_clean_linker_0, # of connection points: 3
#     Node 1, Type 0, BuildingBlock: BELTOD_clean_linker_0, # of connection points: 3
#     Node 2, Type 0, BuildingBlock: BELTOD_clean_linker_0, # of connection points: 3
#     Node 3, Type 0, BuildingBlock: BELTOD_clean_linker_0, # of connection points: 3
#     Node 4, Type 0, BuildingBlock: BELTOD_clean_linker_0, # of connection points: 3
#     Node 5, Type 0, BuildingBlock: BELTOD_clean_linker_0, # of connection points: 3
#     Node 6, Type 0, BuildingBlock: BELTOD_clean_linker_0, # of connection points: 3
#     Node 7, Type 0, BuildingBlock: BELTOD_clean_linker_0, # of connection points: 3
#     Node 8, Type 1, BuildingBlock: HISSIN_clean_sbu_0, # of connection points: 6
#     Node 9, Type 1, BuildingBlock: HISSIN_clean_sbu_0, # of connection points: 6
#     Node 10, Type 1, BuildingBlock: HISSIN_clean_sbu_0, # of connection points: 6
#     Node 11, Type 1, BuildingBlock: HISSIN_clean_sbu_0, # of connection points: 6
#     Edge 12, Type (0, 1), BuildingBlock: EZIPEK_clean_linker_0, # of connection points: 2
#     Edge 13, Type (0, 1), BuildingBlock: EZIPEK_clean_linker_0, # of connection points: 2
#     Edge 14, Type (0, 1), BuildingBlock: EZIPEK_clean_linker_0, # of connection points: 2
#     Edge 15, Type (0, 1), BuildingBlock: EZIPEK_clean_linker_0, # of connection points: 2
#     Edge 16, Type (0, 1), BuildingBlock: EZIPEK_clean_linker_0, # of connection points: 2
#     Edge 17, Type (0, 1), BuildingBlock: EZIPEK_clean_linker_0, # of connection points: 2
#     Edge 18, Type (0, 1), BuildingBlock: EZIPEK_clean_linker_0, # of connection points: 2
#     Edge 19, Type (0, 1), BuildingBlock: EZIPEK_clean_linker_0, # of connection points: 2
#     Edge 20, Type (0, 1), BuildingBlock: EZIPEK_clean_linker_0, # of connection points: 2
#     Edge 21, Type (0, 1), BuildingBlock: EZIPEK_clean_linker_0, # of connection points: 2
#     Edge 22, Type (0, 1), BuildingBlock: EZIPEK_clean_linker_0, # of connection points: 2
#     Edge 23, Type (0, 1), BuildingBlock: EZIPEK_clean_linker_0, # of connection points: 2
#     Edge 24, Type (0, 1), BuildingBlock: EZIPEK_clean_linker_0, # of connection points: 2
#     Edge 25, Type (0, 1), BuildingBlock: EZIPEK_clean_linker_0, # of connection points: 2
#     Edge 26, Type (0, 1), BuildingBlock: EZIPEK_clean_linker_0, # of connection points: 2
#     Edge 27, Type (0, 1), BuildingBlock: EZIPEK_clean_linker_0, # of connection points: 2
#     Edge 28, Type (0, 1), BuildingBlock: EZIPEK_clean_linker_0, # of connection points: 2
#     Edge 29, Type (0, 1), BuildingBlock: EZIPEK_clean_linker_0, # of connection points: 2
#     Edge 30, Type (0, 1), BuildingBlock: EZIPEK_clean_linker_0, # of connection points: 2
#     Edge 31, Type (0, 1), BuildingBlock: EZIPEK_clean_linker_0, # of connection points: 2
#     Edge 32, Type (0, 1), BuildingBlock: EZIPEK_clean_linker_0, # of connection points: 2
#     Edge 33, Type (0, 1), BuildingBlock: EZIPEK_clean_linker_0, # of connection points: 2
#     Edge 34, Type (0, 1), BuildingBlock: EZIPEK_clean_linker_0, # of connection points: 2
#     Edge 35, Type (0, 1), BuildingBlock: EZIPEK_clean_linker_0, # of connection points: 2
# Relax obj value: 0.453
# Max RMSD: 0.243
# Mean RMSD: 0.185
data_MOF--net-zzz--node1-HISSIN_clean_sbu_0--node2-BELTOD_clean_linker_0--edge1-EZIPEK_clean_linker_0
_symmetry_space_group_name_H-M    P1
_symmetry_Int_Tables_number       1
_symmetry_cell_setting            triclinic
loop_
_symmetry_equiv_pos_as_xyz
'x, y, z'
_cell_length_a     40.415874
_cell_length_b     40.351184
_cell_length_c     15.698108
_cell_angle_alpha  89.588057
_cell_angle_beta   92.60451
_cell_angle_gamma 91.173573
loop_
_atom_site_label
_atom_site_type_symbol
_atom_site_fract_x
_atom_site_fract_y
_atom_site_fract_z
_atom_type_partial_charge
P0 P 0.72704 0.48937 0.34716 0.0
H1 H 0.74274 0.49593 0.5309 0.0
H2 H 0.79552 0.508 0.60787 0.0
H3 H 0.83654 0.54376 0.37527 0.0
H4 H 0.78344 0.53233 0.29802 0.0
H5 H 0.66339 0.46489 0.28308 0.0
H6 H 0.62502 0.48203 0.1675 0.0
H7 H 0.68483 0.56991 0.1278 0.0
H8 H 0.72357 0.55274 0.24585 0.0
H9 H 0.75487 0.42357 0.37854 0.0
H10 H 0.75379 0.49765 0.17876 0.0
O11 O 0.70652 0.46573 0.41569 0.0
H12 H 0.79787 0.39372 0.30604 0.0
H13 H 0.79733 0.46866 0.10884 0.0
C14 C 0.75875 0.51308 0.40798 0.0
C15 C 0.76241 0.50782 0.49663 0.0
C16 C 0.79275 0.51453 0.54091 0.0
C17 C 0.82016 0.52653 0.49741 0.0
C18 C 0.81575 0.53458 0.41034 0.0
C19 C 0.78524 0.52818 0.36622 0.0
C20 C 0.696 0.50792 0.27524 0.0
C21 C 0.66776 0.48856 0.2522 0.0
C22 C 0.64584 0.49822 0.18566 0.0
C23 C 0.65174 0.5274 0.13939 0.0
C24 C 0.67947 0.54754 0.16357 0.0
C25 C 0.70154 0.53779 0.231 0.0
C26 C 0.7509 0.46267 0.28362 0.0
C27 C 0.76307 0.43286 0.31799 0.0
C28 C 0.78763 0.41592 0.27702 0.0
C29 C 0.80095 0.42937 0.20299 0.0
C30 C 0.78738 0.45806 0.16616 0.0
C31 C 0.76243 0.47452 0.206 0.0
P32 P 0.04607 0.73054 0.33064 0.0
H33 H 0.02672 0.74274 0.50614 0.0
H34 H 0.01544 0.79475 0.57757 0.0
H35 H 1.00334 0.84363 0.33389 0.0
H36 H 0.01385 0.79129 0.26174 0.0
H37 H 0.08199 0.67944 0.25048 0.0
H38 H 0.06929 0.63945 0.13715 0.0
H39 H 0.96902 0.67395 0.11421 0.0
H40 H 0.98221 0.71509 0.22817 0.0
H41 H 0.10418 0.76498 0.40749 0.0
H42 H 0.05587 0.75454 0.15795 0.0
O43 O 0.06351 0.70848 0.41042 0.0
H44 H 0.13556 0.81345 0.35654 0.0
H45 H 0.08662 0.8029 0.10809 0.0
C46 C 0.0211 0.7625 0.37774 0.0
C47 C 0.02012 0.76406 0.46725 0.0
C48 C 0.01406 0.79404 0.50854 0.0
C49 C 0.00898 0.82341 0.46151 0.0
C50 C 1.00725 0.82143 0.3719 0.0
C51 C 0.0129 0.79127 0.33053 0.0
C52 C 0.0331 0.70038 0.24854 0.0
C53 C 0.05713 0.67852 0.22156 0.0
C54 C 0.04991 0.65558 0.15647 0.0
C55 C 0.01822 0.65345 0.11618 0.0
C56 C 0.99374 0.67503 0.1438 0.0
C57 C 1.00119 0.69849 0.20906 0.0
C58 C 0.07803 0.7559 0.28618 0.0
C59 C 0.10148 0.77209 0.34093 0.0
C60 C 0.11918 0.79982 0.31222 0.0
C61 C 0.11288 0.81186 0.22914 0.0
C62 C 0.09164 0.79393 0.17253 0.0
C63 C 0.07428 0.76614 0.20088 0.0
P64 P 0.79954 0.03523 0.30691 0.0
H65 H 0.78569 0.01522 0.48358 0.0
H66 H 0.73358 0.0076 0.55542 0.0
H67 H 0.68011 1.00489 0.31208 0.0
H68 H 0.73241 0.01229 0.23956 0.0
H69 H 0.86938 0.05035 0.28583 0.0
H70 H 0.90767 0.04051 0.17377 0.0
H71 H 0.83476 0.97717 0.04499 0.0
H72 H 0.79594 0.98676 0.15956 0.0
H73 H 0.78139 0.10136 0.36302 0.0
H74 H 0.77337 0.04384 0.13189 0.0
O75 O 0.82253 0.05094 0.38863 0.0
H76 H 0.74247 0.14145 0.2989 0.0
H77 H 0.7342 0.083 0.06978 0.0
C78 C 0.76373 0.01436 0.35506 0.0
C79 C 0.7631 0.01176 0.44471 0.0
C80 C 0.73304 0.00769 0.48638 0.0
C81 C 0.70244 1.00603 0.43993 0.0
C82 C 0.70314 1.00619 0.35008 0.0
C83 C 0.7333 0.01014 0.30834 0.0
C84 C 0.82957 0.01882 0.23352 0.0
C85 C 0.86167 0.03328 0.23565 0.0
C86 C 0.88373 0.0279 0.17072 0.0
C87 C 0.87449 0.00802 0.10027 0.0
C88 C 0.84282 0.9924 0.09883 0.0
C89 C 0.8206 0.99774 0.16469 0.0
C90 C 0.78055 0.06968 0.25203 0.0
C91 C 0.77234 0.09796 0.29764 0.0
C92 C 0.75011 0.12077 0.26136 0.0
C93 C 0.73517 0.11473 0.18038 0.0
C94 C 0.74543 0.08794 0.13255 0.0
C95 C 0.76797 0.0656 0.16806 0.0
P96 P 0.48883 0.80983 0.3177 0.0
H97 H 0.50618 0.79896 0.49976 0.0
H98 H 0.51701 0.74747 0.57852 0.0
H99 H 0.53245 0.69741 0.34283 0.0
H100 H 0.52232 0.74922 0.26355 0.0
H101 H 0.45529 0.86272 0.22807 0.0
H102 H 0.46968 0.90183 0.11559 0.0
H103 H 0.56791 0.86221 0.11581 0.0
H104 H 0.55303 0.82207 0.22903 0.0
H105 H 0.43107 0.77447 0.38054 0.0
H106 H 0.48027 0.78546 0.14334 0.0
O107 O 0.47036 0.83227 0.39008 0.0
H108 H 0.40048 0.72564 0.3234 0.0
H109 H 0.45008 0.73685 0.08716 0.0
C110 C 0.5135 0.77852 0.37493 0.0
C111 C 0.51343 0.7775 0.46466 0.0
C112 C 0.51922 0.74782 0.51002 0.0
C113 C 0.5251 0.71829 0.46683 0.0
C114 C 0.52791 0.71978 0.37782 0.0
C115 C 0.5225 0.74962 0.33251 0.0
C116 C 0.5031 0.83949 0.238 0.0
C117 C 0.4801 0.86242 0.20469 0.0
C118 C 0.48828 0.88483 0.14008 0.0
C119 C 0.51987 0.88522 0.10648 0.0
C120 C 0.54331 0.86251 0.14037 0.0
C121 C 0.5349 0.83963 0.2052 0.0
C122 C 0.45755 0.7839 0.2657 0.0
C123 C 0.43413 0.76738 0.315 0.0
C124 C 0.41689 0.73944 0.28285 0.0
C125 C 0.42346 0.72761 0.20168 0.0
C126 C 0.44481 0.74571 0.15003 0.0
C127 C 0.46183 0.77364 0.1819 0.0
P128 P 0.30593 0.45947 0.06898 0.0
H129 H 0.28717 0.43887 0.89361 0.0
H130 H 0.23777 0.45267 0.80604 0.0
H131 H 0.22329 0.53791 0.96246 0.0
H132 H 0.2731 0.52435 0.05001 0.0
H133 H 0.36029 0.4201 0.13848 0.0
H134 H 0.40568 0.43277 0.24082 0.0
H135 H 0.38659 0.53704 0.21301 0.0
H136 H 0.34118 0.5243 0.1069 0.0
H137 H 0.24054 0.42994 0.08875 0.0
H138 H 0.3056 0.49886 0.2278 0.0
O139 O 0.30714 0.41933 0.04437 0.0
H140 H 0.19367 0.45003 0.1665 0.0
H141 H 0.259 0.51946 0.30138 0.0
C142 C 0.28406 0.48023 0.97982 0.0
C143 C 0.27451 0.46148 0.9072 0.0
C144 C 0.24589 0.46916 0.85733 0.0
C145 C 0.22598 0.49574 0.87903 0.0
C146 C 0.23777 0.51692 0.94504 0.0
C147 C 0.26665 0.50939 0.9945 0.0
C148 C 0.34695 0.47118 0.11425 0.0
C149 C 0.36651 0.44588 0.15083 0.0
C150 C 0.39247 0.45307 0.21028 0.0
C151 C 0.39933 0.48578 0.23623 0.0
C152 C 0.38176 0.51154 0.19445 0.0
C153 C 0.356 0.50429 0.13313 0.0
C154 C 0.27669 0.46305 0.15128 0.0
C155 C 0.24511 0.44829 0.13816 0.0
C156 C 0.21834 0.45991 0.18174 0.0
C157 C 0.22305 0.48671 0.23766 0.0
C158 C 0.25503 0.49908 0.25726 0.0
C159 C 0.28174 0.48716 0.21479 0.0
P160 P 0.06623 0.28734 0.10406 0.0
H161 H 0.08986 0.27693 0.93229 0.0
H162 H 0.07587 0.23169 0.83404 0.0
H163 H 0.98501 0.21314 0.96036 0.0
H164 H 0.99922 0.25835 0.06042 0.0
H165 H 0.09055 0.30505 0.27309 0.0
H166 H 0.07907 0.34878 0.37363 0.0
H167 H 1.00257 0.38549 0.19983 0.0
H168 H 0.01443 0.34114 0.09721 0.0
H169 H 0.10799 0.2294 0.09414 0.0
H170 H 0.02409 0.25948 0.23332 0.0
O171 O 0.10513 0.29798 0.08274 0.0
H172 H 0.09561 0.1712 0.1297 0.0
H173 H 0.0119 0.20164 0.26835 0.0
C174 C 0.0458 0.27154 1.00528 0.0
C175 C 0.06601 0.26452 0.93695 0.0
C176 C 0.0582 0.2382 0.88069 0.0
C177 C 0.02982 0.21813 0.89086 0.0
C178 C 1.00736 0.2278 0.9517 0.0
C179 C 0.01526 0.25416 1.00832 0.0
C180 C 0.05309 0.31919 0.17756 0.0
C181 C 0.07098 0.32218 0.25628 0.0
C182 C 0.06457 0.34736 0.31396 0.0
C183 C 0.04 0.37066 0.29506 0.0
C184 C 0.02169 0.36784 0.21631 0.0
C185 C 0.02833 0.34243 0.15772 0.0
C186 C 0.06727 0.24885 0.16224 0.0
C187 C 0.08802 0.22372 0.13594 0.0
C188 C 0.08075 0.19053 0.15508 0.0
C189 C 0.0526 0.18238 0.20026 0.0
C190 C 0.03372 0.20765 0.23319 0.0
C191 C 0.04095 0.2407 0.21409 0.0
P192 P 0.24198 0.05905 0.12556 0.0
H193 H 0.28988 0.09998 0.03484 0.0
H194 H 0.33421 0.08829 0.94055 0.0
H195 H 0.30088 0.9865 0.92362 0.0
H196 H 0.25538 0.99836 0.01897 0.0
H197 H 0.18048 0.09732 0.13091 0.0
H198 H 0.13432 0.09021 0.22514 0.0
H199 H 0.16138 0.98892 0.27216 0.0
H200 H 0.20816 0.99607 0.17838 0.0
H201 H 0.29476 0.00995 0.15879 0.0
H202 H 0.2329 0.07241 0.30429 0.0
O203 O 0.24368 0.10025 0.13522 0.0
H204 H 0.3156 0.98387 0.28967 0.0
H205 H 0.25316 0.04493 0.43624 0.0
C206 C 0.26817 0.05034 0.03429 0.0
C207 C 0.29095 0.07521 1.0094 0.0
C208 C 0.31686 0.0685 0.95541 0.0
C209 C 0.32153 0.03646 0.92441 0.0
C210 C 0.2981 0.01155 0.94607 0.0
C211 C 0.27173 0.01841 1.00006 0.0
C212 C 0.19862 0.04737 0.14647 0.0
C213 C 0.17596 0.07298 0.1579 0.0
C214 C 0.14955 0.0691 0.21316 0.0
C215 C 0.14449 0.03926 0.25803 0.0
C216 C 0.16468 0.01238 0.23934 0.0
C217 C 0.19124 0.01632 0.18404 0.0
C218 C 0.26242 0.0435 0.22136 0.0
C219 C 0.2857 0.01836 0.21828 0.0
C220 C 0.29737 1.0031 0.29314 0.0
C221 C 0.28559 0.01235 0.37195 0.0
C222 C 0.26233 0.03745 0.37566 0.0
C223 C 0.25118 0.05328 0.30068 0.0
P224 P 0.462 0.24412 0.07587 0.0
H225 H 0.43848 0.26408 0.90279 0.0
H226 H 0.45501 0.312 0.8174 0.0
H227 H 0.54589 0.32145 0.96987 0.0
H228 H 0.52951 0.273 0.05532 0.0
H229 H 0.41936 0.19802 0.16378 0.0
H230 H 0.4299 0.15312 0.26494 0.0
H231 H 0.53322 0.15625 0.20836 0.0
H232 H 0.52259 0.20218 0.10592 0.0
H233 H 0.44342 0.31285 0.08924 0.0
H234 H 0.50024 0.24261 0.24163 0.0
O235 O 0.42137 0.24473 0.05138 0.0
H236 H 0.47098 0.35841 0.16898 0.0
H237 H 0.52711 0.28786 0.32041 0.0
C238 C 0.48255 0.26441 0.98666 0.0
C239 C 0.46277 0.27516 0.91584 0.0
C240 C 0.47207 0.303 0.86711 0.0
C241 C 0.50152 0.32094 0.88745 0.0
C242 C 0.523 0.30824 0.95251 0.0
C243 C 0.51378 0.28013 1.00087 0.0
C244 C 0.46996 0.20345 0.1249 0.0
C245 C 0.4442 0.1885 0.16999 0.0
C246 C 0.45024 0.16285 0.22901 0.0
C247 C 0.48237 0.15119 0.24557 0.0
C248 C 0.50813 0.1647 0.19711 0.0
C249 C 0.50202 0.19069 0.13759 0.0
C250 C 0.47002 0.27426 0.15822 0.0
C251 C 0.46057 0.30708 0.14206 0.0
C252 C 0.4764 0.33304 0.18687 0.0
C253 C 0.50134 0.32617 0.24893 0.0
C254 C 0.50804 0.29336 0.27189 0.0
C255 C 0.49253 0.26748 0.22657 0.0
Eu256 Eu 0.9787 0.02871 0.61862 0.0
Eu257 Eu 0.04276 0.01147 0.74553 0.0
C258 C 0.01669 0.0861 0.73175 0.0
C259 C 0.93479 0.04792 0.41441 0.0
C260 C 0.92633 0.07883 0.37943 0.0
C261 C 0.97456 0.04121 0.30465 0.0
C262 C 0.94455 0.0923 0.31384 0.0
C263 C 0.95662 0.02784 0.37122 0.0
C264 C 0.97091 0.07467 0.28254 0.0
C265 C 0.93165 0.04332 0.5067 0.0
O266 O 0.99868 0.00963 0.83336 0.0
O267 O 0.95355 0.01209 0.73846 0.0
C268 C 0.96627 0.0092 0.81686 0.0
O269 O 0.9925 0.9767 0.58214 0.0
O270 O 0.07051 0.02065 0.86603 0.0
O271 O 0.08978 0.98737 0.77425 0.0
O272 O 0.02417 0.96059 0.69987 0.0
C273 C 1.00811 0.95374 0.62689 0.0
O274 O 0.0228 0.03883 0.53532 0.0
O275 O 0.06618 0.01784 0.61709 0.0
O276 O 0.04307 0.06757 0.73243 0.0
O277 O 0.93557 0.01343 0.53744 0.0
O278 O 0.94848 0.06541 0.55189 0.0
O279 O 0.98789 0.07408 0.7029 0.0
C280 C 0.10246 0.97646 0.91875 0.0
C281 C 0.08137 0.94941 0.93509 0.0
C282 C 0.14146 0.95742 0.02996 0.0
C283 C 0.09043 0.92631 0.9978 0.0
C284 C 0.13238 0.9806 0.96687 0.0
C285 C 0.12062 0.92998 0.04487 0.0
C286 C 0.09368 0.99991 0.85034 0.0
C287 C 0.054 0.02994 0.54444 0.0
H288 H 0.90935 0.09456 0.41111 0.0
H289 H 0.99444 0.02718 0.27956 0.0
H290 H 0.94106 0.11803 0.29605 0.0
H291 H 0.96339 1.00372 0.39631 0.0
H292 H 0.05813 0.94601 0.89868 0.0
H293 H 0.16472 0.96059 0.06628 0.0
H294 H 0.07403 0.90531 1.00916 0.0
H295 H 0.14882 1.00152 0.95503 0.0
Eu296 Eu 0.52286 0.05028 0.73302 0.0
Eu297 Eu 0.49823 0.98633 0.62315 0.0
C298 C 0.52538 0.97816 0.81969 0.0
C299 C 0.56941 0.11542 0.87149 0.0
C300 C 0.59579 0.09424 0.89029 0.0
C301 C 0.59596 0.15778 0.96166 0.0
C302 C 0.62188 0.10458 0.94537 0.0
C303 C 0.56969 0.14734 0.90653 0.0
C304 C 0.62191 0.13618 0.98208 0.0
C305 C 0.5411 0.10389 0.81775 0.0
O306 O 0.45002 0.00671 0.6729 0.0
O307 O 0.47199 0.03797 0.78336 0.0
C308 C 0.44643 0.02293 0.74459 0.0
O309 O 0.49419 0.06998 0.6156 0.0
O310 O 0.49435 0.93234 0.61038 0.0
O311 O 0.47302 0.96414 0.51181 0.0
O312 O 0.50522 0.02792 0.52649 0.0
C313 C 0.49766 0.05903 0.53785 0.0
O314 O 0.56815 0.03809 0.65677 0.0
O315 O 0.55375 0.98646 0.60388 0.0
O316 O 0.50336 0.96884 0.76024 0.0
O317 O 0.54665 0.09934 0.73774 0.0
O318 O 0.52356 0.07969 0.84906 0.0
O319 O 0.54182 0.00654 0.81282 0.0
C320 C 0.44071 0.91937 0.55235 0.0
C321 C 0.42169 0.91327 0.47707 0.0
C322 C 0.39065 0.93043 0.62609 0.0
C323 C 0.38788 0.91962 0.47426 0.0
C324 C 0.42457 0.92429 0.6288 0.0
C325 C 0.37325 0.93173 0.54688 0.0
C326 C 0.47381 0.93426 0.54404 0.0
C327 C 0.57537 0.01119 0.61421 0.0
H328 H 0.59585 0.06954 0.86362 0.0
H329 H 0.59568 0.18217 0.98996 0.0
H330 H 0.64178 0.08766 0.96091 0.0
H331 H 0.54936 0.1639 0.89241 0.0
H332 H 0.43364 0.90917 0.41772 0.0
H333 H 0.37957 0.93951 0.68277 0.0
H334 H 0.37452 0.92004 0.41283 0.0
H335 H 0.43874 0.92889 0.68795 0.0
Eu336 Eu 0.48997 0.5288 0.74235 0.0
Eu337 Eu 0.55747 0.51495 0.64163 0.0
C338 C 0.56324 0.53678 0.83607 0.0
C339 C 0.4289 0.5639 0.89329 0.0
C340 C 0.44997 0.59126 0.9105 0.0
C341 C 0.39202 0.58248 1.00035 0.0
C342 C 0.44197 0.61426 0.97153 0.0
C343 C 0.40001 0.55939 0.93878 0.0
C344 C 0.41291 0.61014 0.01628 0.0
C345 C 0.43737 0.54 0.82857 0.0
O346 O 0.54612 0.46656 0.71303 0.0
O347 O 0.49086 0.47278 0.73435 0.0
C348 C 0.51735 0.45438 0.7364 0.0
O349 O 0.4718 0.52083 0.60528 0.0
O350 O 0.6068 0.49383 0.64028 0.0
O351 O 0.58861 0.52306 0.5335 0.0
O352 O 0.51665 0.49599 0.54915 0.0
C353 C 0.48567 0.50559 0.54272 0.0
O354 O 0.5086 0.5805 0.70523 0.0
O355 O 0.5426 0.56633 0.59853 0.0
O356 O 0.57519 0.54202 0.76081 0.0
O357 O 0.44219 0.55222 0.75299 0.0
O358 O 0.46 0.51895 0.85229 0.0
O359 O 0.53213 0.52757 0.84355 0.0
C360 C 0.6153 0.47412 0.50188 0.0
C361 C 0.61472 0.44137 0.5333 0.0
C362 C 0.59856 0.45399 0.36113 0.0
C363 C 0.60313 0.41569 0.48062 0.0
C364 C 0.61037 0.47969 0.41371 0.0
C365 C 0.59259 0.4226 0.39635 0.0
C366 C 0.61054 0.50174 0.56057 0.0
C367 C 0.52557 0.58841 0.63787 0.0
H368 H 0.47252 0.59486 0.87647 0.0
H369 H 0.36964 0.57895 0.03503 0.0
H370 H 0.4584 0.63543 0.98371 0.0
H371 H 0.3837 0.53815 0.92655 0.0
H372 H 0.61916 0.4361 0.60056 0.0
H373 H 0.59073 0.45941 0.29569 0.0
H374 H 0.59887 0.39134 0.50804 0.0
H375 H 0.61136 0.50461 0.3876 0.0
Eu376 Eu 0.03003 0.54487 0.63912 0.0
Eu377 Eu 0.01257 0.48313 0.76261 0.0
C378 C 0.08852 0.50737 0.74373 0.0
C379 C 0.0693 0.58978 0.46357 0.0
C380 C 0.10188 0.60239 0.47452 0.0
C381 C 0.08616 0.55607 0.34643 0.0
C382 C 0.12683 0.59001 0.42591 0.0
C383 C 0.06123 0.56839 0.3949 0.0
C384 C 0.1192 0.56521 0.36571 0.0
C385 C 0.04682 0.59201 0.53454 0.0
O386 O 0.99648 0.52852 0.83491 0.0
O387 O 0.02997 0.56697 0.77169 0.0
C388 C 0.01166 0.55778 0.83519 0.0
O389 O 0.97444 0.54719 0.64824 0.0
O390 O 0.01495 0.45898 0.88754 0.0
O391 O 0.99186 0.43332 0.77952 0.0
O392 O 0.96478 0.49306 0.68594 0.0
C393 C 0.95432 0.52138 0.65381 0.0
O394 O 0.02302 0.50071 0.54981 0.0
O395 O 0.03402 0.45933 0.64651 0.0
O396 O 0.06613 0.49703 0.7964 0.0
O397 O 0.01898 0.57519 0.52616 0.0
O398 O 0.06093 0.58808 0.61023 0.0
O399 O 0.07936 0.51986 0.66884 0.0
C400 C 0.96891 0.42474 0.91228 0.0
C401 C 0.94087 0.44464 0.90624 0.0
C402 C 0.94304 0.39078 0.01985 0.0
C403 C 0.91423 0.43791 0.95733 0.0
C404 C 0.96981 0.39757 0.96853 0.0
C405 C 0.91535 0.41127 0.01513 0.0
C406 C 0.99749 0.43315 0.86184 0.0
C407 C 0.02963 0.46949 0.56693 0.0
H408 H 0.10864 0.61915 0.52636 0.0
H409 H 0.08 0.53726 0.29903 0.0
H410 H 0.15235 0.5975 0.44044 0.0
H411 H 0.03628 0.55857 0.3837 0.0
H412 H 0.93989 0.46575 0.86316 0.0
H413 H 0.94427 0.37028 0.06475 0.0
H414 H 0.89307 0.454 0.9535 0.0
H415 H 0.99139 0.38206 0.9738 0.0
C416 C 0.08879 0.0222 0.31901 0.0
C417 C 0.12068 0.03746 0.33049 0.0
C418 C 0.10675 0.05201 0.47778 0.0
C419 C 0.07651 0.03334 0.46959 0.0
N420 N 0.04209 0.9953 0.3852 0.0
N421 N 0.16176 0.06302 0.42634 0.0
C422 C 0.06837 0.01711 0.3907 0.0
C423 C 0.13009 0.05128 0.41154 0.0
N424 N 0.0775 0.01332 0.23896 0.0
N425 N 0.11268 0.07171 0.54747 0.0
H426 H 0.1794 0.06329 0.37989 0.0
H427 H 0.17136 0.06987 0.48649 0.0
H428 H 0.09603 0.07355 0.596 0.0
H429 H 0.13242 0.08866 0.55314 0.0
H430 H 0.0532 1.00537 0.22468 0.0
H431 H 0.0917 0.01659 0.18554 0.0
H432 H 0.03712 0.97997 0.33286 0.0
H433 H 0.02701 0.99026 0.43601 0.0
C434 C 0.50643 0.1366 0.39398 0.0
C435 C 0.48858 0.12666 0.31789 0.0
C436 C 0.47389 0.07371 0.38888 0.0
C437 C 0.49436 0.08238 0.46195 0.0
N438 N 0.53642 0.11955 0.52345 0.0
N439 N 0.46062 0.08283 0.23801 0.0
C440 C 0.51237 0.11314 0.46148 0.0
C441 C 0.47393 0.09429 0.31401 0.0
N442 N 0.51659 0.16891 0.40385 0.0
N443 N 0.45302 0.0467 0.39214 0.0
H444 H 0.46057 0.09695 0.18207 0.0
H445 H 0.45261 0.05836 0.22866 0.0
H446 H 0.45129 0.03174 0.44622 0.0
H447 H 0.43504 0.04109 0.34451 0.0
H448 H 0.52628 0.1784 0.46151 0.0
H449 H 0.51254 0.18704 0.3571 0.0
H450 H 0.55274 0.13983 0.52127 0.0
H451 H 0.54257 0.10278 0.57202 0.0
C452 C 0.41176 0.48035 0.39499 0.0
C453 C 0.42178 0.49195 0.3141 0.0
C454 C 0.4738 0.51369 0.3832 0.0
C455 C 0.46501 0.49917 0.46228 0.0
N456 N 0.42859 0.46266 0.53812 0.0
N457 N 0.46448 0.51563 0.229 0.0
C458 C 0.43481 0.48079 0.46652 0.0
C459 C 0.45345 0.50751 0.3076 0.0
N460 N 0.3797 0.47003 0.40445 0.0
N461 N 0.50074 0.53464 0.38083 0.0
H462 H 0.45015 0.51189 0.1728 0.0
H463 H 0.48864 0.52367 0.2189 0.0
H464 H 0.51613 0.53994 0.43431 0.0
H465 H 0.5063 0.54891 0.32763 0.0
H466 H 0.37005 0.46459 0.46347 0.0
H467 H 0.36175 0.47012 0.35454 0.0
H468 H 0.40869 0.44596 0.54175 0.0
H469 H 0.44518 0.46167 0.59092 0.0
C470 C 0.05206 0.42831 0.35544 0.0
C471 C 0.03422 0.39762 0.35918 0.0
C472 C 0.01024 0.41589 0.49301 0.0
C473 C 0.03103 0.44489 0.49458 0.0
N474 N 0.07487 0.47653 0.43118 0.0
N475 N 0.99842 0.36081 0.43584 0.0
C476 C 0.05254 0.45066 0.42627 0.0
C477 C 0.01387 0.39111 0.42921 0.0
N478 N 0.06854 0.43619 0.28369 0.0
N479 N 0.98583 0.41262 0.55017 0.0
H480 H 0.99899 0.3428 0.38862 0.0
H481 H 0.98679 0.35273 0.4903 0.0
H482 H 0.98187 0.43019 0.59674 0.0
H483 H 0.96748 0.39414 0.54658 0.0
H484 H 0.07897 0.45951 0.27218 0.0
H485 H 0.0694 0.42019 0.23197 0.0
H486 H 0.09358 0.48012 0.3885 0.0
H487 H 0.07667 0.49289 0.48233 0.0
C488 C 0.89654 0.03299 0.96441 0.0
C489 C 0.89694 0.00672 0.02529 0.0
C490 C 0.9415 0.98055 0.94687 0.0
C491 C 0.9428 0.00817 0.88995 0.0
N492 N 0.92577 0.06396 0.8572 0.0
N493 N 0.92283 0.95747 0.08093 0.0
C494 C 0.92133 0.03519 0.90208 0.0
C495 C 0.92032 0.98104 0.0182 0.0
N496 N 0.87198 0.05577 0.96516 0.0
N497 N 0.95965 0.95325 0.93104 0.0
H498 H 0.90721 0.95656 0.13206 0.0
H499 H 0.94166 0.94025 0.08554 0.0
H500 H 0.97525 0.95204 0.88005 0.0
H501 H 0.95738 0.93093 0.96411 0.0
H502 H 0.86786 0.07322 0.91684 0.0
H503 H 0.8538 0.05546 1.01027 0.0
H504 H 0.91379 0.08585 0.87002 0.0
H505 H 0.94392 0.06704 0.81275 0.0
C506 C 0.53157 0.89808 0.95093 0.0
C507 C 0.52735 0.9094 0.03531 0.0
C508 C 0.52463 0.96692 0.9801 0.0
C509 C 0.53032 0.95571 0.89634 0.0
N510 N 0.54776 0.91153 0.8074 0.0
N511 N 0.52825 0.95538 0.13238 0.0
C512 C 0.5365 0.92154 0.88367 0.0
C513 C 0.52663 0.94412 0.05041 0.0
N514 N 0.52902 0.86496 0.93363 0.0
N515 N 0.51519 0.99879 0.99232 0.0
H516 H 0.53013 0.93948 0.18502 0.0
H517 H 0.53109 0.98037 0.1479 0.0
H518 H 0.51288 0.01617 0.94315 0.0
H519 H 0.50686 0.00722 0.04997 0.0
H520 H 0.52796 0.85554 0.87195 0.0
H521 H 0.52514 0.84696 0.98026 0.0
H522 H 0.5558 0.88762 0.7967 0.0
H523 H 0.55235 0.92805 0.75767 0.0
C524 C 0.60203 0.55319 0.06095 0.0
C525 C 0.631 0.53383 0.05948 0.0
C526 C 0.61435 0.51521 0.91489 0.0
C527 C 0.58669 0.53654 0.91308 0.0
N528 N 0.55685 0.57958 0.98006 0.0
N529 N 0.6682 0.5019 0.97873 0.0
C530 C 0.58125 0.55661 0.98506 0.0
C531 C 0.63828 0.51678 0.98416 0.0
N532 N 0.59393 0.56756 0.13552 0.0
N533 N 0.61659 0.49158 0.85361 0.0
H534 H 0.68619 0.50199 0.02854 0.0
H535 H 0.67639 0.49223 0.92223 0.0
H536 H 0.59861 0.48796 0.80484 0.0
H537 H 0.6342 0.47307 0.85653 0.0
H538 H 0.57135 0.57878 0.14395 0.0
H539 H 0.60915 0.56647 0.19094 0.0
H540 H 0.55356 0.59718 0.02692 0.0
H541 H 0.54144 0.5828 0.92562 0.0
C542 C 1.00531 0.63899 0.95952 0.0
C543 C 0.01161 0.62849 0.04538 0.0
C544 C 0.01728 0.57109 0.99437 0.0
C545 C 0.00891 0.58127 0.90911 0.0
N546 N 0.98674 0.62377 0.81552 0.0
N547 N 0.01556 0.58306 0.14557 0.0
C548 C 1.00041 0.6149 0.89335 0.0
C549 C 0.01498 0.59403 0.06296 0.0
N550 N 1.0057 0.67204 0.93995 0.0
N551 N 0.02949 0.54019 1.00987 0.0
H552 H 0.01344 0.59897 0.19707 0.0
H553 H 0.01474 0.55805 0.1624 0.0
H554 H 0.03271 0.52296 0.962 0.0
H555 H 0.03947 0.53276 0.06914 0.0
H556 H 1.00508 0.68107 0.87757 0.0
H557 H 0.00961 0.69049 0.98564 0.0
H558 H 0.97698 0.64707 0.8027 0.0
H559 H 0.98192 0.60679 0.76649 0.0
C560 C 0.01394 0.13699 0.14702 0.0
C561 C 0.03982 0.14785 0.20519 0.0
C562 C 0.02572 0.10421 0.30506 0.0
C563 C 0.99892 0.09399 0.24846 0.0
N564 N 0.97381 0.09353 0.10692 0.0
N565 N 0.07754 0.1352 0.32297 0.0
C566 C 0.99543 0.10782 0.16584 0.0
C567 C 0.04842 0.12882 0.27804 0.0
N568 N 1.0057 0.15581 0.07704 0.0
N569 N 0.02767 0.093 0.38736 0.0
H570 H 0.09424 0.1537 0.30462 0.0
H571 H 0.08652 0.12004 0.37248 0.0
H572 H 0.01079 0.07605 0.41153 0.0
H573 H 0.04437 0.10264 0.43373 0.0
H574 H 0.98491 0.15123 0.03692 0.0
H575 H 0.01902 0.17722 0.06198 0.0
H576 H 0.97197 0.10089 0.04317 0.0
H577 H 0.95999 0.07215 0.12056 0.0
C578 C 0.29059 0.96312 0.46808 0.0
C579 C 0.29988 0.99633 0.44951 0.0
C580 C 0.35388 0.9894 0.52061 0.0
C581 C 0.34588 0.95519 0.53312 0.0
N582 N 0.30485 0.91156 0.54108 0.0
N583 N 0.33407 0.04416 0.48371 0.0
C584 C 0.31334 0.94283 0.51515 0.0
C585 C 0.32922 0.01057 0.48616 0.0
N586 N 0.26088 0.9508 0.43611 0.0
N587 N 0.38573 1.00102 0.53329 0.0
H588 H 0.31633 0.06012 0.45753 0.0
H589 H 0.35407 0.05637 0.51463 0.0
H590 H 0.40504 0.98664 0.55752 0.0
H591 H 0.39373 0.02441 0.51356 0.0
H592 H 0.25376 0.92591 0.439 0.0
H593 H 0.24353 0.96591 0.40449 0.0
H594 H 0.28095 0.90152 0.53467 0.0
H595 H 0.32155 0.89657 0.57542 0.0
C596 C 0.55598 0.35594 0.24964 0.0
C597 C 0.5237 0.35287 0.28159 0.0
C598 C 0.5352 0.39974 0.37604 0.0
C599 C 0.56878 0.3997 0.35271 0.0
N600 N 0.61231 0.37687 0.27298 0.0
N601 N 0.48307 0.36923 0.38005 0.0
C602 C 0.57953 0.37765 0.29072 0.0
C603 C 0.51331 0.37419 0.34582 0.0
N604 N 0.56373 0.33872 0.17877 0.0
N605 N 0.52413 0.4246 0.42559 0.0
H606 H 0.46614 0.35098 0.35837 0.0
H607 H 0.47573 0.38152 0.43394 0.0
H608 H 0.53945 0.44376 0.44962 0.0
H609 H 0.49923 0.42788 0.43701 0.0
H610 H 0.58569 0.3424 0.14749 0.0
H611 H 0.54696 0.32276 0.14648 0.0
H612 H 0.62232 0.35874 0.23553 0.0
H613 H 0.63005 0.39315 0.30053 0.0
C614 C 0.186 0.50084 0.35465 0.0
C615 C 0.19456 0.50473 0.26862 0.0
C616 C 0.15533 0.54996 0.24786 0.0
C617 C 0.14576 0.54508 0.33266 0.0
N618 N 0.14823 0.5138 0.46466 0.0
N619 N 0.18562 0.52995 0.12958 0.0
C620 C 0.1601 0.51996 0.38565 0.0
C621 C 0.17857 0.52832 0.21394 0.0
N622 N 0.20311 0.47926 0.4069 0.0
N623 N 0.14309 0.57613 0.20118 0.0
H624 H 0.20371 0.51578 0.10307 0.0
H625 H 0.17221 0.54374 0.0842 0.0
H626 H 0.12583 0.59232 0.22419 0.0
H627 H 0.1516 0.58342 0.14223 0.0
H628 H 0.20117 0.47819 0.47273 0.0
H629 H 0.22079 0.4633 0.3849 0.0
H630 H 0.15484 0.4935 0.50248 0.0
H631 H 0.12972 0.52762 0.49074 0.0
C632 C 0.1475 0.84773 0.13733 0.0
C633 C 0.12451 0.84522 0.20259 0.0
C634 C 0.11303 0.90425 0.18664 0.0
C635 C 0.12956 0.90441 0.10931 0.0
N636 N 0.16467 0.87774 0.01179 0.0
N637 N 0.08461 0.871 0.29016 0.0
C638 C 0.14816 0.8768 0.08584 0.0
C639 C 0.10769 0.87368 0.22931 0.0
N640 N 0.16802 0.82197 0.12408 0.0
N641 N 0.10177 0.93329 0.21745 0.0
H642 H 0.07948 0.84901 0.32249 0.0
H643 H 0.06888 0.89006 0.30478 0.0
H644 H 0.10565 0.95585 0.18624 0.0
H645 H 0.09184 0.93546 0.27719 0.0
H646 H 0.18711 0.82302 0.08175 0.0
H647 H 0.16771 0.8005 0.16163 0.0
H648 H 0.17543 0.85714 0.98569 0.0
H649 H 0.16643 0.89911 0.97433 0.0
C650 C 0.67412 0.12435 0.17901 0.0
C651 C 0.7057 0.13295 0.14805 0.0
C652 C 0.67967 0.15634 0.01819 0.0
C653 C 0.64861 0.14485 0.04588 0.0
N654 N 0.61448 0.12956 0.16174 0.0
N655 N 0.73831 0.16575 0.05361 0.0
C656 C 0.64529 0.13323 0.13016 0.0
C657 C 0.70828 0.1523 0.07295 0.0
N658 N 0.67164 0.10509 0.25049 0.0
N659 N 0.68183 0.16918 0.93787 0.0
H660 H 0.75939 0.16283 0.09374 0.0
H661 H 0.74176 0.18188 1.00261 0.0
H662 H 0.66087 0.17347 0.89831 0.0
H663 H 0.70412 0.17463 0.90965 0.0
H664 H 0.64945 0.09438 0.2693 0.0
H665 H 0.69203 0.09803 0.2887 0.0
H666 H 0.61045 0.12384 0.22529 0.0
H667 H 0.593 0.13555 0.12601 0.0
C668 C 0.38771 0.6921 0.10467 0.0
C669 C 0.41174 0.69436 0.17293 0.0
C670 C 0.42337 0.63544 0.15867 0.0
C671 C 0.40525 0.63549 0.07956 0.0
N672 N 0.36818 0.66235 0.97772 0.0
N673 N 0.45285 0.66842 0.26675 0.0
C674 C 0.38613 0.66315 0.0536 0.0
C675 C 0.42909 0.66585 0.20214 0.0
N676 N 0.367 0.71795 0.08837 0.0
N677 N 0.43573 0.60637 0.19051 0.0
H678 H 0.45796 0.69026 0.30021 0.0
H679 H 0.46896 0.64947 0.28401 0.0
H680 H 0.43186 0.58388 0.15876 0.0
H681 H 0.44688 0.60399 0.25131 0.0
H682 H 0.3472 0.71707 0.04362 0.0
H683 H 0.36797 0.73934 0.12549 0.0
H684 H 0.35689 0.68297 0.94996 0.0
H685 H 0.36569 0.64105 0.94051 0.0
C686 C 0.86265 0.42608 0.20362 0.0
C687 C 0.83125 0.41599 0.16733 0.0
C688 C 0.85789 0.39213 0.04544 0.0
C689 C 0.88826 0.40712 0.07483 0.0
N690 N 0.92085 0.43744 0.18165 0.0
N691 N 0.79821 0.38788 0.05776 0.0
C692 C 0.8912 0.42315 0.15495 0.0
C693 C 0.82872 0.39802 0.08993 0.0
N694 N 0.86501 0.43913 0.28384 0.0
N695 N 0.85723 0.37249 0.97477 0.0
H696 H 0.77672 0.39038 0.09141 0.0
H697 H 0.79384 0.378 0.99717 0.0
H698 H 0.87843 0.36791 0.94153 0.0
H699 H 0.83657 0.35873 0.95276 0.0
H700 H 0.88734 0.4437 0.31767 0.0
H701 H 0.84448 0.44324 0.31972 0.0
H702 H 0.92391 0.45322 0.23365 0.0
H703 H 0.94258 0.43478 0.14922 0.0
C704 C 1.00751 0.1804 0.76959 0.0
C705 C 0.02637 0.18467 0.84762 0.0
C706 C 0.03456 0.12429 0.85396 0.0
C707 C 0.01918 0.12025 0.7713 0.0
N708 N 0.99545 0.14617 0.64441 0.0
N709 N 0.0648 0.16093 0.95207 0.0
C710 C 1.00667 0.1488 0.72753 0.0
C711 C 0.04206 0.1567 0.88587 0.0
N712 N 0.9903 0.20649 0.73567 0.0
N713 N 0.04023 0.09722 0.9049 0.0
H714 H 0.07111 0.18408 0.97753 0.0
H715 H 0.07939 0.14177 0.97658 0.0
H716 H 0.03292 0.07327 0.88684 0.0
H717 H 0.0483 0.09902 0.96876 0.0
H718 H 0.97329 0.20426 0.68409 0.0
H719 H 0.99135 0.22998 0.76314 0.0
H720 H 0.98911 0.16651 0.60631 0.0
H721 H 0.99536 0.12394 0.61094 0.0
C722 C 0.37977 0.01295 0.91323 0.0
C723 C 0.35212 0.02945 0.87399 0.0
C724 C 0.38614 0.04165 0.74895 0.0
C725 C 0.41304 0.0235 0.78601 0.0
N726 N 0.43272 0.98651 0.89731 0.0
N727 N 0.32737 0.054 0.74697 0.0
C728 C 0.40895 0.00758 0.86636 0.0
C729 C 0.35491 0.0421 0.78952 0.0
N730 N 0.37886 1.00368 0.99702 0.0
N731 N 0.3909 0.06012 0.67717 0.0
H732 H 0.30435 0.05469 0.77438 0.0
H733 H 0.32665 0.06029 0.68245 0.0
H734 H 0.413 0.06019 0.64534 0.0
H735 H 0.37401 0.07742 0.65346 0.0
H736 H 0.39943 0.99531 0.03262 0.0
H737 H 0.35817 0.00679 0.03325 0.0
H738 H 0.42994 0.97137 0.9506 0.0
H739 H 0.4541 0.98186 0.86509 0.0
C740 C 0.50027 0.3838 0.89604 0.0
C741 C 0.50738 0.35503 0.84879 0.0
C742 C 0.5204 0.39117 0.72563 0.0
C743 C 0.51513 0.41993 0.77491 0.0
N744 N 0.50704 0.4433 0.9132 0.0
N745 N 0.52849 0.33144 0.72241 0.0
C746 C 0.507 0.41608 0.86182 0.0
C747 C 0.5187 0.35881 0.76456 0.0
N748 N 0.48587 0.38038 0.97286 0.0
N749 N 0.52583 0.39472 0.64071 0.0
H750 H 0.52718 0.30764 0.74862 0.0
H751 H 0.54013 0.33246 0.66464 0.0
H752 H 0.52751 0.41782 0.61081 0.0
H753 H 0.52639 0.37497 0.59856 0.0
H754 H 0.47638 0.40012 1.00572 0.0
H755 H 0.48076 0.35742 1.00074 0.0
H756 H 0.50513 0.44191 0.97906 0.0
H757 H 0.51226 0.46721 0.89147 0.0
C758 C 0.16724 0.47321 0.85397 0.0
C759 C 0.19123 0.49876 0.84019 0.0
C760 C 0.14768 0.5312 0.76446 0.0
C761 C 0.12469 0.50407 0.77064 0.0
N762 N 0.11656 0.44586 0.80167 0.0
N763 N 0.20542 0.54948 0.76743 0.0
C764 C 0.13569 0.47408 0.80959 0.0
C765 C 0.18178 0.52696 0.79077 0.0
N766 N 0.17385 0.44875 0.91261 0.0
N767 N 0.13683 0.56162 0.73835 0.0
H768 H 0.23046 0.54711 0.78521 0.0
H769 H 0.20065 0.56866 0.72412 0.0
H770 H 0.1121 0.56636 0.72219 0.0
H771 H 0.15179 0.58295 0.74097 0.0
H772 H 0.15598 0.43153 0.93131 0.0
H773 H 0.19595 0.44776 0.94938 0.0
H774 H 0.12477 0.42267 0.82208 0.0
H775 H 0.09419 0.44487 0.76584 0.0
C776 C 0.97849 0.86977 0.53249 0.0
C777 C 1.00867 0.8565 0.50609 0.0
C778 C 0.03853 0.90702 0.55849 0.0
C779 C 1.00873 0.91933 0.59009 0.0
N780 N 0.95114 0.91041 0.61762 0.0
N781 N 0.06827 0.86019 0.50565 0.0
C782 C 0.97891 0.90011 0.57976 0.0
C783 C 0.03892 0.87449 0.52269 0.0
N784 N 0.94928 0.85367 0.51072 0.0
N785 N 0.06621 0.92708 0.55872 0.0
H786 H 0.06966 0.83693 0.47766 0.0
H787 H 0.09132 0.8702 0.52496 0.0
H788 H 0.06715 0.95076 0.5849 0.0
H789 H 0.08743 0.9214 0.52702 0.0
H790 H 0.9261 0.86357 0.51923 0.0
H791 H 0.94819 0.83113 0.47842 0.0
H792 H 0.92943 0.89619 0.62043 0.0
H793 H 0.95064 0.93224 0.65272 0.0
C794 C 0.65902 0.97979 0.53608 0.0
C795 C 0.66988 0.00697 0.48527 0.0
C796 C 0.61762 0.0352 0.51285 0.0
C797 C 0.60825 0.00969 0.5708 0.0
N798 N 0.62342 0.95994 0.64753 0.0
N799 N 0.66219 0.06388 0.44243 0.0
C800 C 0.6299 0.98253 0.58493 0.0
C801 C 0.6499 0.0356 0.47869 0.0
N802 N 0.67599 0.95087 0.53585 0.0
N803 N 0.59505 0.05824 0.48627 0.0
H804 H 0.68587 0.06556 0.41882 0.0
H805 H 0.65029 0.08652 0.44379 0.0
H806 H 0.57076 0.05787 0.50576 0.0
H807 H 0.59925 0.07534 0.43769 0.0
H808 H 0.66756 0.929 0.56386 0.0
H809 H 0.69715 0.94797 0.5012 0.0
H810 H 0.63984 0.94156 0.66728 0.0
H811 H 0.60297 0.96145 0.68541 0.0
C812 C 0.55476 0.67334 0.55374 0.0
C813 C 0.5251 0.6855 0.51381 0.0
C814 C 0.49542 0.63432 0.55699 0.0
C815 C 0.52462 0.62298 0.6011 0.0
N816 N 0.58079 0.63376 0.65225 0.0
N817 N 0.46595 0.68007 0.48902 0.0
C818 C 0.55394 0.64313 0.60237 0.0
C819 C 0.49507 0.66669 0.51903 0.0
N820 N 0.58391 0.69033 0.54335 0.0
N821 N 0.46839 0.6135 0.54766 0.0
H822 H 0.46468 0.70324 0.45929 0.0
H823 H 0.44277 0.66943 0.49919 0.0
H824 H 0.46738 0.58995 0.57534 0.0
H825 H 0.44791 0.61845 0.50733 0.0
H826 H 0.60702 0.68125 0.56236 0.0
H827 H 0.58523 0.71277 0.5101 0.0
H828 H 0.60185 0.64864 0.66333 0.0
H829 H 0.58091 0.61203 0.68868 0.0
C830 C 0.87497 0.49866 0.52285 0.0
C831 C 0.85429 0.52565 0.53937 0.0
C832 C 0.8978 0.54824 0.63935 0.0
C833 C 0.91973 0.52317 0.61505 0.0
N834 N 0.93101 0.47945 0.51666 0.0
N835 N 0.84717 0.57836 0.60615 0.0
C836 C 0.90878 0.49966 0.5523 0.0
C837 C 0.86607 0.55114 0.5956 0.0
N838 N 0.86213 0.47142 0.48094 0.0
N839 N 0.90666 0.56838 0.70654 0.0
H840 H 0.82372 0.58084 0.57643 0.0
H841 H 0.85566 0.59942 0.63898 0.0
H842 H 0.92919 0.56645 0.74114 0.0
H843 H 0.8906 0.58493 0.73286 0.0
H844 H 0.87504 0.44946 0.47642 0.0
H845 H 0.83751 0.46954 0.45821 0.0
H846 H 0.92491 0.46421 0.46473 0.0
H847 H 0.95633 0.48063 0.53221 0.0
loop_
_geom_bond_atom_site_label_1
_geom_bond_atom_site_label_2
_geom_bond_distance
_geom_bond_site_symmetry_2
_ccdc_geom_bond_type
P0 O11 1.490 . S
P0 C14 1.812 . S
P0 C20 1.803 . S
P0 C26 1.819 . S
H1 C15 0.941 . S
H2 C16 0.939 . S
H3 C18 0.940 . S
H4 C19 0.940 . S
H5 C21 0.939 . S
H6 C22 0.942 . S
H7 C24 0.940 . S
H8 C25 0.939 . S
H9 C27 0.941 . S
H10 C31 0.939 . S
O11 P0 1.490 . S
H12 C28 0.939 . S
H13 C30 0.940 . S
C14 P0 1.812 . S
C14 C15 1.389 . S
C14 C19 1.391 . S
C15 H1 0.941 . S
C15 C14 1.389 . S
C15 C16 1.397 . S
C16 H2 0.939 . S
C16 C15 1.397 . S
C16 C17 1.378 . S
C17 C16 1.378 . S
C17 C18 1.378 . S
C18 H3 0.940 . S
C18 C17 1.378 . S
C18 C19 1.396 . S
C19 H4 0.940 . S
C19 C14 1.391 . S
C19 C18 1.396 . S
C20 P0 1.803 . S
C20 C21 1.378 . S
C20 C25 1.400 . S
C21 H5 0.939 . S
C21 C20 1.378 . S
C21 C22 1.361 . S
C22 H6 0.942 . S
C22 C21 1.361 . S
C22 C23 1.369 . S
C23 C22 1.369 . S
C23 C24 1.404 . S
C24 H7 0.940 . S
C24 C23 1.404 . S
C24 C25 1.389 . S
C25 H8 0.939 . S
C25 C20 1.400 . S
C25 C24 1.389 . S
C26 P0 1.819 . S
C26 C27 1.391 . S
C26 C31 1.391 . S
C27 H9 0.941 . S
C27 C26 1.391 . S
C27 C28 1.396 . S
C28 H12 0.939 . S
C28 C27 1.396 . S
C28 C29 1.397 . S
C29 C28 1.397 . S
C29 C30 1.385 . S
C30 H13 0.940 . S
C30 C29 1.385 . S
C30 C31 1.388 . S
C31 H10 0.939 . S
C31 C26 1.391 . S
C31 C30 1.388 . S
P32 O43 1.490 . S
P32 C46 1.812 1_455 S
P32 C52 1.803 1_455 S
P32 C58 1.819 1_455 S
H33 C47 0.941 . S
H34 C48 0.939 1_455 S
H35 C50 0.940 . S
H36 C51 0.940 . S
H37 C53 0.939 . S
H38 C54 0.942 . S
H39 C56 0.940 . S
H40 C57 0.939 . S
H41 C59 0.941 . S
H42 C63 0.939 . S
O43 P32 1.490 . S
H44 C60 0.939 1_455 S
H45 C62 0.940 . S
C46 P32 1.812 1_655 S
C46 C47 1.389 1_655 S
C46 C51 1.391 . S
C47 H33 0.941 . S
C47 C46 1.389 1_455 S
C47 C48 1.396 1_455 S
C48 H34 0.939 1_655 S
C48 C47 1.396 1_655 S
C48 C49 1.379 . S
C49 C48 1.379 . S
C49 C50 1.378 . S
C50 H35 0.940 . S
C50 C49 1.378 . S
C50 C51 1.396 . S
C51 H36 0.940 . S
C51 C46 1.391 . S
C51 C50 1.396 . S
C52 P32 1.803 1_655 S
C52 C53 1.378 1_655 S
C52 C57 1.400 . S
C53 H37 0.939 . S
C53 C52 1.378 1_455 S
C53 C54 1.361 . S
C54 H38 0.942 . S
C54 C53 1.361 . S
C54 C55 1.369 1_455 S
C55 C54 1.369 1_655 S
C55 C56 1.404 . S
C56 H39 0.940 . S
C56 C55 1.404 . S
C56 C57 1.389 . S
C57 H40 0.939 . S
C57 C52 1.400 . S
C57 C56 1.389 . S
C58 P32 1.819 1_655 S
C58 C59 1.391 1_655 S
C58 C63 1.391 . S
C59 H41 0.941 . S
C59 C58 1.391 1_455 S
C59 C60 1.396 1_455 S
C60 H44 0.939 1_655 S
C60 C59 1.396 1_655 S
C60 C61 1.397 . S
C61 C60 1.397 . S
C61 C62 1.385 . S
C62 H45 0.940 . S
C62 C61 1.385 . S
C62 C63 1.388 . S
C63 H42 0.939 . S
C63 C58 1.391 . S
C63 C62 1.388 . S
P64 O75 1.490 . S
P64 C78 1.812 . S
P64 C84 1.803 . S
P64 C90 1.819 . S
H65 C79 0.941 . S
H66 C80 0.939 . S
H67 C82 0.940 . S
H68 C83 0.940 . S
H69 C85 0.939 . S
H70 C86 0.942 . S
H71 C88 0.940 . S
H72 C89 0.939 . S
H73 C91 0.941 . S
H74 C95 0.939 . S
O75 P64 1.490 . S
H76 C92 0.939 . S
H77 C94 0.940 . S
C78 P64 1.812 . S
C78 C79 1.389 . S
C78 C83 1.391 1_545 S
C79 H65 0.941 . S
C79 C78 1.389 . S
C79 C80 1.397 . S
C80 H66 0.939 . S
C80 C79 1.397 . S
C80 C81 1.378 1_545 S
C81 C80 1.378 1_565 S
C81 C82 1.378 . S
C82 H67 0.940 . S
C82 C81 1.378 . S
C82 C83 1.396 . S
C83 H68 0.940 . S
C83 C78 1.391 1_565 S
C83 C82 1.396 . S
C84 P64 1.803 . S
C84 C85 1.378 . S
C84 C89 1.400 1_545 S
C85 H69 0.939 . S
C85 C84 1.378 . S
C85 C86 1.361 . S
C86 H70 0.942 . S
C86 C85 1.361 . S
C86 C87 1.369 1_545 S
C87 C86 1.369 1_565 S
C87 C88 1.404 . S
C88 H71 0.940 . S
C88 C87 1.404 . S
C88 C89 1.389 . S
C89 H72 0.939 . S
C89 C84 1.400 1_565 S
C89 C88 1.389 . S
C90 P64 1.819 . S
C90 C91 1.391 . S
C90 C95 1.391 1_545 S
C91 H73 0.941 . S
C91 C90 1.391 . S
C91 C92 1.396 . S
C92 H76 0.939 . S
C92 C91 1.396 . S
C92 C93 1.397 1_545 S
C93 C92 1.397 1_565 S
C93 C94 1.385 . S
C94 H77 0.940 . S
C94 C93 1.385 . S
C94 C95 1.388 . S
C95 H74 0.939 . S
C95 C90 1.391 1_565 S
C95 C94 1.388 . S
P96 O107 1.490 . S
P96 C110 1.812 . S
P96 C116 1.803 . S
P96 C122 1.819 . S
H97 C111 0.941 . S
H98 C112 0.939 . S
H99 C114 0.940 . S
H100 C115 0.940 . S
H101 C117 0.939 . S
H102 C118 0.942 . S
H103 C120 0.940 . S
H104 C121 0.939 . S
H105 C123 0.941 . S
H106 C127 0.939 . S
O107 P96 1.490 . S
H108 C124 0.939 . S
H109 C126 0.940 . S
C110 P96 1.812 . S
C110 C111 1.389 . S
C110 C115 1.391 . S
C111 H97 0.941 . S
C111 C110 1.389 . S
C111 C112 1.397 . S
C112 H98 0.939 . S
C112 C111 1.397 . S
C112 C113 1.378 . S
C113 C112 1.378 . S
C113 C114 1.378 . S
C114 H99 0.940 . S
C114 C113 1.378 . S
C114 C115 1.396 . S
C115 H100 0.940 . S
C115 C110 1.391 . S
C115 C114 1.396 . S
C116 P96 1.803 . S
C116 C117 1.378 . S
C116 C121 1.400 . S
C117 H101 0.939 . S
C117 C116 1.378 . S
C117 C118 1.361 . S
C118 H102 0.942 . S
C118 C117 1.361 . S
C118 C119 1.369 . S
C119 C118 1.369 . S
C119 C120 1.404 . S
C120 H103 0.940 . S
C120 C119 1.404 . S
C120 C121 1.389 . S
C121 H104 0.939 . S
C121 C116 1.400 . S
C121 C120 1.389 . S
C122 P96 1.819 . S
C122 C123 1.391 . S
C122 C127 1.391 . S
C123 H105 0.941 . S
C123 C122 1.391 . S
C123 C124 1.396 . S
C124 H108 0.939 . S
C124 C123 1.396 . S
C124 C125 1.397 . S
C125 C124 1.397 . S
C125 C126 1.385 . S
C126 H109 0.940 . S
C126 C125 1.385 . S
C126 C127 1.388 . S
C127 H106 0.939 . S
C127 C122 1.391 . S
C127 C126 1.388 . S
P128 O139 1.490 . S
P128 C142 1.812 1_554 S
P128 C148 1.803 . S
P128 C154 1.819 . S
H129 C143 0.941 . S
H130 C144 0.939 . S
H131 C146 0.940 . S
H132 C147 0.940 1_554 S
H133 C149 0.939 . S
H134 C150 0.942 . S
H135 C152 0.940 . S
H136 C153 0.939 . S
H137 C155 0.941 . S
H138 C159 0.939 . S
O139 P128 1.490 . S
H140 C156 0.939 . S
H141 C158 0.940 . S
C142 P128 1.812 1_556 S
C142 C143 1.389 . S
C142 C147 1.391 . S
C143 H129 0.941 . S
C143 C142 1.389 . S
C143 C144 1.397 . S
C144 H130 0.939 . S
C144 C143 1.397 . S
C144 C145 1.378 . S
C145 C144 1.378 . S
C145 C146 1.378 . S
C146 H131 0.940 . S
C146 C145 1.378 . S
C146 C147 1.396 . S
C147 H132 0.940 1_556 S
C147 C142 1.391 . S
C147 C146 1.396 . S
C148 P128 1.803 . S
C148 C149 1.378 . S
C148 C153 1.400 . S
C149 H133 0.939 . S
C149 C148 1.378 . S
C149 C150 1.361 . S
C150 H134 0.942 . S
C150 C149 1.361 . S
C150 C151 1.369 . S
C151 C150 1.369 . S
C151 C152 1.404 . S
C152 H135 0.940 . S
C152 C151 1.404 . S
C152 C153 1.389 . S
C153 H136 0.939 . S
C153 C148 1.400 . S
C153 C152 1.389 . S
C154 P128 1.819 . S
C154 C155 1.391 . S
C154 C159 1.391 . S
C155 H137 0.941 . S
C155 C154 1.391 . S
C155 C156 1.396 . S
C156 H140 0.939 . S
C156 C155 1.396 . S
C156 C157 1.397 . S
C157 C156 1.397 . S
C157 C158 1.385 . S
C158 H141 0.940 . S
C158 C157 1.385 . S
C158 C159 1.388 . S
C159 H138 0.939 . S
C159 C154 1.391 . S
C159 C158 1.388 . S
P160 O171 1.490 . S
P160 C174 1.812 1_554 S
P160 C180 1.803 . S
P160 C186 1.819 . S
H161 C175 0.941 . S
H162 C176 0.939 . S
H163 C178 0.940 . S
H164 C179 0.940 . S
H165 C181 0.939 . S
H166 C182 0.942 . S
H167 C184 0.940 . S
H168 C185 0.939 1_556 S
H169 C187 0.941 . S
H170 C191 0.939 . S
O171 P160 1.490 . S
H172 C188 0.939 . S
H173 C190 0.940 . S
C174 P160 1.812 1_556 S
C174 C175 1.389 . S
C174 C179 1.391 . S
C175 H161 0.941 . S
C175 C174 1.389 . S
C175 C176 1.397 . S
C176 H162 0.939 . S
C176 C175 1.397 . S
C176 C177 1.378 . S
C177 C176 1.378 . S
C177 C178 1.378 . S
C178 H163 0.940 . S
C178 C177 1.378 . S
C178 C179 1.396 . S
C179 H164 0.940 . S
C179 C174 1.391 . S
C179 C178 1.396 . S
C180 P160 1.803 . S
C180 C181 1.378 . S
C180 C185 1.400 . S
C181 H165 0.939 . S
C181 C180 1.378 . S
C181 C182 1.361 . S
C182 H166 0.942 . S
C182 C181 1.361 . S
C182 C183 1.369 . S
C183 C182 1.369 . S
C183 C184 1.404 . S
C184 H167 0.940 . S
C184 C183 1.404 . S
C184 C185 1.389 . S
C185 H168 0.939 1_554 S
C185 C180 1.400 . S
C185 C184 1.389 . S
C186 P160 1.819 . S
C186 C187 1.391 . S
C186 C191 1.391 . S
C187 H169 0.941 . S
C187 C186 1.391 . S
C187 C188 1.396 . S
C188 H172 0.939 . S
C188 C187 1.396 . S
C188 C189 1.397 . S
C189 C188 1.397 . S
C189 C190 1.385 . S
C190 H173 0.940 . S
C190 C189 1.385 . S
C190 C191 1.388 . S
C191 H170 0.939 . S
C191 C186 1.391 . S
C191 C190 1.388 . S
P192 O203 1.490 . S
P192 C206 1.812 1_554 S
P192 C212 1.803 . S
P192 C218 1.819 . S
H193 C207 0.941 . S
H194 C208 0.939 . S
H195 C210 0.940 . S
H196 C211 0.940 . S
H197 C213 0.939 . S
H198 C214 0.942 . S
H199 C216 0.940 . S
H200 C217 0.939 1_556 S
H201 C219 0.941 . S
H202 C223 0.939 . S
O203 P192 1.490 . S
H204 C220 0.939 . S
H205 C222 0.940 . S
C206 P192 1.812 1_556 S
C206 C207 1.389 . S
C206 C211 1.391 . S
C207 H193 0.941 . S
C207 C206 1.389 . S
C207 C208 1.397 . S
C208 H194 0.939 . S
C208 C207 1.397 . S
C208 C209 1.378 . S
C209 C208 1.378 . S
C209 C210 1.378 . S
C210 H195 0.940 . S
C210 C209 1.378 . S
C210 C211 1.396 . S
C211 H196 0.940 . S
C211 C206 1.391 . S
C211 C210 1.396 . S
C212 P192 1.803 . S
C212 C213 1.378 . S
C212 C217 1.400 . S
C213 H197 0.939 . S
C213 C212 1.378 . S
C213 C214 1.361 . S
C214 H198 0.942 . S
C214 C213 1.361 . S
C214 C215 1.369 . S
C215 C214 1.369 . S
C215 C216 1.404 . S
C216 H199 0.940 . S
C216 C215 1.404 . S
C216 C217 1.389 . S
C217 H200 0.939 1_554 S
C217 C212 1.400 . S
C217 C216 1.389 . S
C218 P192 1.819 . S
C218 C219 1.391 . S
C218 C223 1.391 . S
C219 H201 0.941 . S
C219 C218 1.391 . S
C219 C220 1.396 . S
C220 H204 0.939 . S
C220 C219 1.396 . S
C220 C221 1.397 . S
C221 C220 1.397 . S
C221 C222 1.385 . S
C222 H205 0.940 . S
C222 C221 1.385 . S
C222 C223 1.388 . S
C223 H202 0.939 . S
C223 C218 1.391 . S
C223 C222 1.388 . S
P224 O235 1.490 . S
P224 C238 1.812 1_554 S
P224 C244 1.803 . S
P224 C250 1.819 . S
H225 C239 0.941 . S
H226 C240 0.939 . S
H227 C242 0.940 . S
H228 C243 0.940 1_554 S
H229 C245 0.939 . S
H230 C246 0.942 . S
H231 C248 0.940 . S
H232 C249 0.939 . S
H233 C251 0.941 . S
H234 C255 0.939 . S
O235 P224 1.490 . S
H236 C252 0.939 . S
H237 C254 0.940 . S
C238 P224 1.812 1_556 S
C238 C239 1.389 . S
C238 C243 1.391 . S
C239 H225 0.941 . S
C239 C238 1.389 . S
C239 C240 1.397 . S
C240 H226 0.939 . S
C240 C239 1.397 . S
C240 C241 1.378 . S
C241 C240 1.378 . S
C241 C242 1.378 . S
C242 H227 0.940 . S
C242 C241 1.378 . S
C242 C243 1.396 . S
C243 H228 0.940 1_556 S
C243 C238 1.391 . S
C243 C242 1.396 . S
C244 P224 1.803 . S
C244 C245 1.378 . S
C244 C249 1.400 . S
C245 H229 0.939 . S
C245 C244 1.378 . S
C245 C246 1.361 . S
C246 H230 0.942 . S
C246 C245 1.361 . S
C246 C247 1.369 . S
C247 C246 1.369 . S
C247 C248 1.404 . S
C248 H231 0.940 . S
C248 C247 1.404 . S
C248 C249 1.389 . S
C249 H232 0.939 . S
C249 C244 1.400 . S
C249 C248 1.389 . S
C250 P224 1.819 . S
C250 C251 1.391 . S
C250 C255 1.391 . S
C251 H233 0.941 . S
C251 C250 1.391 . S
C251 C252 1.396 . S
C252 H236 0.939 . S
C252 C251 1.396 . S
C252 C253 1.397 . S
C253 C252 1.397 . S
C253 C254 1.385 . S
C254 H237 0.940 . S
C254 C253 1.385 . S
C254 C255 1.388 . S
C255 H234 0.939 . S
C255 C250 1.391 . S
C255 C254 1.388 . S
Eu256 C265 2.828 . S
Eu256 O267 2.392 . S
Eu256 O269 2.418 1_545 S
Eu256 O274 2.373 1_655 S
Eu256 O277 2.488 . S
Eu256 O278 2.471 . S
Eu256 O279 2.349 1_655 S
Eu257 O266 2.373 1_455 S
Eu257 O270 2.488 . S
Eu257 O271 2.471 . S
Eu257 O272 2.349 . S
Eu257 O275 2.392 1_565 S
Eu257 O276 2.418 1_565 S
Eu257 C286 2.828 . S
C258 O276 1.244 . S
C258 O279 1.265 . S
C259 C260 1.379 1_655 S
C259 C263 1.373 . S
C259 C265 1.505 . S
C260 C259 1.379 1_455 S
C260 C262 1.369 . S
C260 H288 0.930 . S
C261 C263 1.383 . S
C261 C264 1.382 . S
C261 H289 0.930 . S
C262 C260 1.369 . S
C262 C264 1.392 1_455 S
C262 H290 0.930 . S
C263 C259 1.373 . S
C263 C261 1.383 . S
C263 H291 0.931 . S
C264 C261 1.382 . S
C264 C262 1.392 1_655 S
C265 Eu256 2.828 . S
C265 C259 1.505 . S
C265 O277 1.249 . S
C265 O278 1.244 . S
O266 Eu257 2.373 1_655 S
O266 C268 1.258 . S
O267 Eu256 2.392 . S
O267 C268 1.242 1_545 S
C268 O266 1.258 . S
C268 O267 1.242 1_565 S
O269 Eu256 2.418 1_565 S
O269 C273 1.244 . S
O270 Eu257 2.488 . S
O270 C286 1.249 . S
O271 Eu257 2.471 . S
O271 C286 1.244 . S
O272 Eu257 2.349 . S
O272 C273 1.265 1_455 S
C273 O269 1.244 . S
C273 O272 1.265 1_655 S
O274 Eu256 2.373 1_455 S
O274 C287 1.258 . S
O275 Eu257 2.392 1_545 S
O275 C287 1.242 . S
O276 Eu257 2.418 1_545 S
O276 C258 1.244 . S
O277 Eu256 2.488 . S
O277 C265 1.249 . S
O278 Eu256 2.471 . S
O278 C265 1.244 . S
O279 Eu256 2.349 1_455 S
O279 C258 1.265 . S
C280 C281 1.379 . S
C280 C284 1.373 1_556 S
C280 C286 1.505 . S
C281 C280 1.379 . S
C281 C283 1.369 1_556 S
C281 H292 0.913 1_455 S
C282 C284 1.383 . S
C282 C285 1.382 . S
C282 H293 0.930 . S
C283 C281 1.369 1_554 S
C283 C285 1.392 . S
C283 H294 0.930 1_455 S
C284 C280 1.373 1_554 S
C284 C282 1.383 . S
C284 H295 0.931 . S
C285 C282 1.382 . S
C285 C283 1.392 . S
C286 Eu257 2.828 . S
C286 O270 1.249 . S
C286 O271 1.244 . S
C286 C280 1.505 . S
C287 O274 1.258 . S
C287 O275 1.242 . S
H288 C260 0.930 . S
H289 C261 0.930 . S
H290 C262 0.930 . S
H291 C263 0.931 . S
H292 C281 0.913 1_655 S
H293 C282 0.930 . S
H294 C283 0.930 1_655 S
H295 C284 0.931 . S
Eu296 C305 2.828 . S
Eu296 O307 2.392 . S
Eu296 O309 2.418 . S
Eu296 O314 2.373 . S
Eu296 O317 2.488 . S
Eu296 O318 2.471 . S
Eu296 O319 2.349 1_545 S
Eu297 O306 2.373 1_565 S
Eu297 O310 2.488 . S
Eu297 O311 2.471 1_565 S
Eu297 O312 2.349 1_565 S
Eu297 O315 2.392 . S
Eu297 O316 2.418 . S
Eu297 C326 2.828 . S
C298 O316 1.244 . S
C298 O319 1.265 . S
C299 C300 1.379 . S
C299 C303 1.373 . S
C299 C305 1.505 . S
C300 C299 1.379 . S
C300 C302 1.369 . S
C300 H328 0.930 1_545 S
C301 C303 1.383 . S
C301 C304 1.382 . S
C301 H329 0.930 . S
C302 C300 1.369 . S
C302 C304 1.392 . S
C302 H330 0.930 1_546 S
C303 C299 1.373 . S
C303 C301 1.383 . S
C303 H331 0.931 . S
C304 C301 1.382 . S
C304 C302 1.392 . S
C305 Eu296 2.828 . S
C305 C299 1.505 . S
C305 O317 1.249 . S
C305 O318 1.244 . S
O306 Eu297 2.373 1_545 S
O306 C308 1.258 . S
O307 Eu296 2.392 . S
O307 C308 1.242 . S
C308 O306 1.258 . S
C308 O307 1.242 . S
O309 Eu296 2.418 . S
O309 C313 1.244 . S
O310 Eu297 2.488 . S
O310 C326 1.249 . S
O311 Eu297 2.471 1_545 S
O311 C326 1.244 1_545 S
O312 Eu297 2.349 1_545 S
O312 C313 1.265 . S
C313 O309 1.244 . S
C313 O312 1.265 . S
O314 Eu296 2.373 . S
O314 C327 1.258 1_545 S
O315 Eu297 2.392 . S
O315 C327 1.242 . S
O316 Eu297 2.418 . S
O316 C298 1.244 . S
O317 Eu296 2.488 . S
O317 C305 1.249 . S
O318 Eu296 2.471 . S
O318 C305 1.244 . S
O319 Eu296 2.349 1_565 S
O319 C298 1.265 . S
C320 C321 1.379 1_565 S
C320 C324 1.373 . S
C320 C326 1.505 . S
C321 C320 1.379 1_545 S
C321 C323 1.369 . S
C321 H332 0.930 . S
C322 C324 1.383 . S
C322 C325 1.382 . S
C322 H333 0.930 . S
C323 C321 1.369 . S
C323 C325 1.392 1_545 S
C323 H334 0.930 . S
C324 C320 1.373 . S
C324 C322 1.383 . S
C324 H335 0.931 . S
C325 C322 1.382 . S
C325 C323 1.392 1_565 S
C326 Eu297 2.828 . S
C326 O310 1.249 . S
C326 O311 1.244 1_565 S
C326 C320 1.505 . S
C327 O314 1.258 1_565 S
C327 O315 1.242 . S
H328 C300 0.930 1_565 S
H329 C301 0.930 . S
H330 C302 0.930 1_564 S
H331 C303 0.931 . S
H332 C321 0.930 . S
H333 C322 0.930 . S
H334 C323 0.930 . S
H335 C324 0.931 . S
Eu336 C345 2.828 . S
Eu336 O347 2.392 . S
Eu336 O349 2.418 . S
Eu336 O354 2.373 . S
Eu336 O357 2.488 . S
Eu336 O358 2.471 . S
Eu336 O359 2.349 . S
Eu337 O346 2.373 . S
Eu337 O350 2.488 . S
Eu337 O351 2.471 . S
Eu337 O352 2.349 . S
Eu337 O355 2.392 . S
Eu337 O356 2.418 . S
Eu337 C366 2.828 . S
C338 O356 1.244 . S
C338 O359 1.265 . S
C339 C340 1.379 . S
C339 C343 1.373 . S
C339 C345 1.505 . S
C340 C339 1.379 . S
C340 C342 1.369 . S
C340 H368 0.930 . S
C341 C343 1.383 . S
C341 C344 1.382 . S
C341 H369 0.930 . S
C342 C340 1.369 . S
C342 C344 1.392 . S
C342 H370 0.930 . S
C343 C339 1.373 . S
C343 C341 1.383 . S
C343 H371 0.931 . S
C344 C341 1.382 . S
C344 C342 1.392 . S
C345 Eu336 2.828 . S
C345 C339 1.505 . S
C345 O357 1.249 . S
C345 O358 1.244 . S
O346 Eu337 2.373 . S
O346 C348 1.258 . S
O347 Eu336 2.392 . S
O347 C348 1.242 . S
C348 O346 1.258 . S
C348 O347 1.242 . S
O349 Eu336 2.418 . S
O349 C353 1.244 . S
O350 Eu337 2.488 . S
O350 C366 1.249 . S
O351 Eu337 2.471 . S
O351 C366 1.244 . S
O352 Eu337 2.349 . S
O352 C353 1.265 . S
C353 O349 1.244 . S
C353 O352 1.265 . S
O354 Eu336 2.373 . S
O354 C367 1.258 . S
O355 Eu337 2.392 . S
O355 C367 1.242 . S
O356 Eu337 2.418 . S
O356 C338 1.244 . S
O357 Eu336 2.488 . S
O357 C345 1.249 . S
O358 Eu336 2.471 . S
O358 C345 1.244 . S
O359 Eu336 2.349 . S
O359 C338 1.265 . S
C360 C361 1.379 . S
C360 C364 1.373 . S
C360 C366 1.505 . S
C361 C360 1.379 . S
C361 C363 1.369 . S
C361 H372 0.930 . S
C362 C364 1.383 . S
C362 C365 1.382 . S
C362 H373 0.930 . S
C363 C361 1.369 . S
C363 C365 1.392 . S
C363 H374 0.930 . S
C364 C360 1.373 . S
C364 C362 1.383 . S
C364 H375 0.931 . S
C365 C362 1.382 . S
C365 C363 1.392 . S
C366 Eu337 2.828 . S
C366 O350 1.249 . S
C366 O351 1.244 . S
C366 C360 1.505 . S
C367 O354 1.258 . S
C367 O355 1.242 . S
H368 C340 0.930 . S
H369 C341 0.930 . S
H370 C342 0.930 . S
H371 C343 0.931 . S
H372 C361 0.930 . S
H373 C362 0.930 . S
H374 C363 0.930 . S
H375 C364 0.931 . S
Eu376 C385 2.828 . S
Eu376 O387 2.392 . S
Eu376 O389 2.418 1_455 S
Eu376 O394 2.373 . S
Eu376 O397 2.488 . S
Eu376 O398 2.471 . S
Eu376 O399 2.349 . S
Eu377 O386 2.373 . S
Eu377 O390 2.488 . S
Eu377 O391 2.471 . S
Eu377 O392 2.349 . S
Eu377 O395 2.392 1_655 S
Eu377 O396 2.418 1_655 S
Eu377 C406 2.828 . S
C378 O396 1.244 . S
C378 O399 1.265 . S
C379 C380 1.379 . S
C379 C383 1.373 . S
C379 C385 1.505 . S
C380 C379 1.379 . S
C380 C382 1.369 . S
C380 H408 0.930 . S
C381 C383 1.383 . S
C381 C384 1.382 . S
C381 H409 0.930 . S
C382 C380 1.369 . S
C382 C384 1.392 . S
C382 H410 0.930 . S
C383 C379 1.373 . S
C383 C381 1.383 . S
C383 H411 0.931 . S
C384 C381 1.382 . S
C384 C382 1.392 . S
C385 Eu376 2.828 . S
C385 C379 1.505 . S
C385 O397 1.249 . S
C385 O398 1.244 . S
O386 Eu377 2.373 . S
O386 C388 1.258 . S
O387 Eu376 2.392 . S
O387 C388 1.242 1_455 S
C388 O386 1.258 . S
C388 O387 1.242 1_655 S
O389 Eu376 2.418 1_655 S
O389 C393 1.244 . S
O390 Eu377 2.488 . S
O390 C406 1.249 . S
O391 Eu377 2.471 . S
O391 C406 1.244 . S
O392 Eu377 2.349 . S
O392 C393 1.265 . S
C393 O389 1.244 . S
C393 O392 1.265 . S
O394 Eu376 2.373 . S
O394 C407 1.258 . S
O395 Eu377 2.392 1_455 S
O395 C407 1.242 . S
O396 Eu377 2.418 1_455 S
O396 C378 1.244 . S
O397 Eu376 2.488 . S
O397 C385 1.249 . S
O398 Eu376 2.471 . S
O398 C385 1.244 . S
O399 Eu376 2.349 . S
O399 C378 1.265 . S
C400 C401 1.379 . S
C400 C404 1.373 1_556 S
C400 C406 1.505 . S
C401 C400 1.379 . S
C401 C403 1.369 1_556 S
C401 H412 0.930 . S
C402 C404 1.383 . S
C402 C405 1.382 . S
C402 H413 0.930 . S
C403 C401 1.369 1_554 S
C403 C405 1.392 . S
C403 H414 0.930 1_554 S
C404 C400 1.373 1_554 S
C404 C402 1.383 . S
C404 H415 0.931 . S
C405 C402 1.382 . S
C405 C403 1.392 . S
C406 Eu377 2.828 . S
C406 O390 1.249 . S
C406 O391 1.244 . S
C406 C400 1.505 . S
C407 O394 1.258 . S
C407 O395 1.242 . S
H408 C380 0.930 . S
H409 C381 0.930 . S
H410 C382 0.930 . S
H411 C383 0.931 . S
H412 C401 0.930 . S
H413 C402 0.930 . S
H414 C403 0.930 1_556 S
H415 C404 0.931 . S
C416 C417 1.363 . S
C416 C422 1.379 . S
C416 N424 1.356 1_545 S
C417 C416 1.363 . S
C417 C423 1.363 . S
C418 C419 1.363 . S
C418 C423 1.379 . S
C418 N425 1.356 . S
C419 C418 1.363 . S
C419 C422 1.363 . S
N420 C422 1.356 1_565 S
N420 H432 0.984 . S
N420 H433 0.985 . S
N421 C423 1.356 . S
N421 H426 0.984 . S
N421 H427 0.985 . S
C422 C416 1.379 . S
C422 C419 1.363 . S
C422 N420 1.356 1_545 S
C423 C417 1.363 . S
C423 C418 1.379 . S
C423 N421 1.356 . S
N424 C416 1.356 1_565 S
N424 H430 0.984 . S
N424 H431 0.984 1_565 S
N425 C418 1.356 . S
N425 H428 0.984 . S
N425 H429 0.985 . S
H426 N421 0.984 . S
H427 N421 0.985 . S
H428 N425 0.984 . S
H429 N425 0.985 . S
H430 N424 0.984 . S
H431 N424 0.984 1_545 S
H432 N420 0.984 . S
H433 N420 0.985 . S
C434 C435 1.363 . S
C434 C440 1.379 . S
C434 N442 1.356 . S
C435 C434 1.363 . S
C435 C441 1.363 . S
C436 C437 1.363 . S
C436 C441 1.379 . S
C436 N443 1.356 . S
C437 C436 1.363 . S
C437 C440 1.363 . S
N438 C440 1.356 . S
N438 H450 0.984 . S
N438 H451 0.985 . S
N439 C441 1.356 . S
N439 H444 0.984 . S
N439 H445 0.985 . S
C440 C434 1.379 . S
C440 C437 1.363 . S
C440 N438 1.356 . S
C441 C435 1.363 . S
C441 C436 1.379 . S
C441 N439 1.356 . S
N442 C434 1.356 . S
N442 H448 0.984 . S
N442 H449 0.984 . S
N443 C436 1.356 . S
N443 H446 0.984 . S
N443 H447 0.985 . S
H444 N439 0.984 . S
H445 N439 0.985 . S
H446 N443 0.984 . S
H447 N443 0.985 . S
H448 N442 0.984 . S
H449 N442 0.984 . S
H450 N438 0.984 . S
H451 N438 0.985 . S
C452 C453 1.363 . S
C452 C458 1.379 . S
C452 N460 1.356 . S
C453 C452 1.363 . S
C453 C459 1.363 . S
C454 C455 1.363 . S
C454 C459 1.379 . S
C454 N461 1.356 . S
C455 C454 1.363 . S
C455 C458 1.363 . S
N456 C458 1.356 . S
N456 H468 0.984 . S
N456 H469 0.985 . S
N457 C459 1.356 . S
N457 H462 0.984 . S
N457 H463 0.985 . S
C458 C452 1.379 . S
C458 C455 1.363 . S
C458 N456 1.356 . S
C459 C453 1.363 . S
C459 C454 1.379 . S
C459 N457 1.356 . S
N460 C452 1.356 . S
N460 H466 0.984 . S
N460 H467 0.984 . S
N461 C454 1.356 . S
N461 H464 0.984 . S
N461 H465 0.985 . S
H462 N457 0.984 . S
H463 N457 0.985 . S
H464 N461 0.984 . S
H465 N461 0.985 . S
H466 N460 0.984 . S
H467 N460 0.984 . S
H468 N456 0.984 . S
H469 N456 0.985 . S
C470 C471 1.363 . S
C470 C476 1.379 . S
C470 N478 1.356 . S
C471 C470 1.363 . S
C471 C477 1.363 . S
C472 C473 1.363 . S
C472 C477 1.379 . S
C472 N479 1.356 . S
C473 C472 1.363 . S
C473 C476 1.363 . S
N474 C476 1.356 . S
N474 H486 0.984 . S
N474 H487 0.985 . S
N475 C477 1.356 . S
N475 H480 0.984 . S
N475 H481 0.985 . S
C476 C470 1.379 . S
C476 C473 1.363 . S
C476 N474 1.356 . S
C477 C471 1.363 . S
C477 C472 1.379 . S
C477 N475 1.356 . S
N478 C470 1.356 . S
N478 H484 0.984 . S
N478 H485 0.984 . S
N479 C472 1.356 . S
N479 H482 0.984 . S
N479 H483 0.985 . S
H480 N475 0.984 . S
H481 N475 0.985 . S
H482 N479 0.984 . S
H483 N479 0.985 . S
H484 N478 0.984 . S
H485 N478 0.984 . S
H486 N474 0.984 . S
H487 N474 0.985 . S
C488 C489 1.363 1_545 S
C488 C494 1.379 . S
C488 N496 1.356 . S
C489 C488 1.363 1_565 S
C489 C495 1.363 . S
C490 C491 1.363 1_554 S
C490 C495 1.379 . S
C490 N497 1.356 1_554 S
C491 C490 1.363 1_556 S
C491 C494 1.363 1_566 S
N492 C494 1.356 1_556 S
N492 H504 0.984 . S
N492 H505 0.985 . S
N493 C495 1.356 . S
N493 H498 0.984 . S
N493 H499 0.985 . S
C494 C488 1.379 . S
C494 C491 1.363 1_544 S
C494 N492 1.356 1_554 S
C495 C489 1.363 . S
C495 C490 1.379 . S
C495 N493 1.356 . S
N496 C488 1.356 . S
N496 H502 0.984 . S
N496 H503 0.984 . S
N497 C490 1.356 1_556 S
N497 H500 0.984 . S
N497 H501 0.985 . S
H498 N493 0.984 . S
H499 N493 0.985 . S
H500 N497 0.984 . S
H501 N497 0.985 . S
H502 N496 0.984 . S
H503 N496 0.984 . S
H504 N492 0.984 . S
H505 N492 0.985 . S
C506 C507 1.363 . S
C506 C512 1.379 1_554 S
C506 N514 1.356 . S
C507 C506 1.363 . S
C507 C513 1.363 . S
C508 C509 1.363 . S
C508 C513 1.379 1_556 S
C508 N515 1.356 . S
C509 C508 1.363 . S
C509 C512 1.363 . S
N510 C512 1.356 . S
N510 H522 0.984 . S
N510 H523 0.985 . S
N511 C513 1.356 . S
N511 H516 0.984 . S
N511 H517 0.985 1_565 S
C512 C506 1.379 1_556 S
C512 C509 1.363 . S
C512 N510 1.356 . S
C513 C507 1.363 . S
C513 C508 1.379 1_554 S
C513 N511 1.356 . S
N514 C506 1.356 . S
N514 H520 0.984 . S
N514 H521 0.984 . S
N515 C508 1.356 . S
N515 H518 0.984 . S
N515 H519 0.985 1_565 S
H516 N511 0.984 . S
H517 N511 0.985 1_545 S
H518 N515 0.984 . S
H519 N515 0.985 1_545 S
H520 N514 0.984 . S
H521 N514 0.984 . S
H522 N510 0.984 . S
H523 N510 0.985 . S
C524 C525 1.363 . S
C524 C530 1.379 1_554 S
C524 N532 1.356 . S
C525 C524 1.363 . S
C525 C531 1.363 . S
C526 C527 1.363 . S
C526 C531 1.379 1_556 S
C526 N533 1.356 . S
C527 C526 1.363 . S
C527 C530 1.363 . S
N528 C530 1.356 . S
N528 H540 0.984 . S
N528 H541 0.985 . S
N529 C531 1.356 . S
N529 H534 0.984 . S
N529 H535 0.985 . S
C530 C524 1.379 1_556 S
C530 C527 1.363 . S
C530 N528 1.356 . S
C531 C525 1.363 . S
C531 C526 1.379 1_554 S
C531 N529 1.356 . S
N532 C524 1.356 . S
N532 H538 0.984 . S
N532 H539 0.984 . S
N533 C526 1.356 . S
N533 H536 0.984 . S
N533 H537 0.985 . S
H534 N529 0.984 . S
H535 N529 0.985 . S
H536 N533 0.984 . S
H537 N533 0.985 . S
H538 N532 0.984 . S
H539 N532 0.984 . S
H540 N528 0.984 . S
H541 N528 0.985 . S
C542 C543 1.363 . S
C542 C548 1.379 1_554 S
C542 N550 1.356 . S
C543 C542 1.363 . S
C543 C549 1.363 . S
C544 C545 1.364 1_454 S
C544 C549 1.379 1_455 S
C544 N551 1.355 1_554 S
C545 C544 1.364 1_656 S
C545 C548 1.363 . S
N546 C548 1.356 . S
N546 H558 0.984 . S
N546 H559 0.985 . S
N547 C549 1.356 1_455 S
N547 H552 0.984 1_455 S
N547 H553 0.985 . S
C548 C542 1.379 1_556 S
C548 C545 1.363 . S
C548 N546 1.356 . S
C549 C543 1.363 . S
C549 C544 1.379 1_655 S
C549 N547 1.356 1_655 S
N550 C542 1.356 . S
N550 H556 0.984 . S
N550 H557 0.984 . S
N551 C544 1.355 1_556 S
N551 H554 0.984 . S
N551 H555 0.985 1_556 S
H552 N547 0.984 1_655 S
H553 N547 0.985 . S
H554 N551 0.984 . S
H555 N551 0.985 1_554 S
H556 N550 0.984 . S
H557 N550 0.984 . S
H558 N546 0.984 . S
H559 N546 0.985 . S
C560 C561 1.363 . S
C560 C566 1.354 1_455 S
C560 N568 1.356 . S
C561 C560 1.363 . S
C561 C567 1.363 . S
C562 C563 1.363 1_455 S
C562 C567 1.379 . S
C562 N569 1.356 . S
C563 C562 1.363 1_655 S
C563 C566 1.367 . S
N564 C566 1.382 . S
N564 H576 0.984 . S
N564 H577 0.985 . S
N565 C567 1.356 . S
N565 H570 0.984 . S
N565 H571 0.985 . S
C566 C560 1.354 1_655 S
C566 C563 1.367 . S
C566 N564 1.382 . S
C567 C561 1.363 . S
C567 C562 1.379 . S
C567 N565 1.356 . S
N568 C560 1.356 . S
N568 H574 0.984 . S
N568 H575 0.984 . S
N569 C562 1.356 . S
N569 H572 0.984 1_455 S
N569 H573 0.985 . S
H570 N565 0.984 . S
H571 N565 0.985 . S
H572 N569 0.984 1_655 S
H573 N569 0.985 . S
H574 N568 0.984 . S
H575 N568 0.984 . S
H576 N564 0.984 . S
H577 N564 0.985 . S
C578 C579 1.363 . S
C578 C584 1.379 1_545 S
C578 N586 1.356 . S
C579 C578 1.363 . S
C579 C585 1.363 . S
C580 C581 1.363 1_545 S
C580 C585 1.379 . S
C580 N587 1.356 . S
C581 C580 1.363 1_565 S
C581 C584 1.363 . S
N582 C584 1.356 . S
N582 H594 0.984 . S
N582 H595 0.985 . S
N583 C585 1.356 . S
N583 H588 0.984 . S
N583 H589 0.985 . S
C584 C578 1.379 1_565 S
C584 C581 1.363 . S
C584 N582 1.356 . S
C585 C579 1.363 . S
C585 C580 1.379 . S
C585 N583 1.356 . S
N586 C578 1.356 . S
N586 H592 0.984 1_545 S
N586 H593 0.984 . S
N587 C580 1.356 . S
N587 H590 0.984 1_545 S
N587 H591 0.985 . S
H588 N583 0.984 . S
H589 N583 0.985 . S
H590 N587 0.984 1_565 S
H591 N587 0.985 . S
H592 N586 0.984 1_565 S
H593 N586 0.984 . S
H594 N582 0.984 . S
H595 N582 0.985 . S
C596 C597 1.363 . S
C596 C602 1.379 . S
C596 N604 1.356 . S
C597 C596 1.363 . S
C597 C603 1.363 . S
C598 C599 1.363 . S
C598 C603 1.379 . S
C598 N605 1.356 . S
C599 C598 1.363 . S
C599 C602 1.363 . S
N600 C602 1.356 . S
N600 H612 0.984 . S
N600 H613 0.985 . S
N601 C603 1.356 . S
N601 H606 0.984 . S
N601 H607 0.985 . S
C602 C596 1.379 . S
C602 C599 1.363 . S
C602 N600 1.356 . S
C603 C597 1.363 . S
C603 C598 1.379 . S
C603 N601 1.356 . S
N604 C596 1.356 . S
N604 H610 0.984 . S
N604 H611 0.984 . S
N605 C598 1.356 . S
N605 H608 0.984 . S
N605 H609 0.985 . S
H606 N601 0.984 . S
H607 N601 0.985 . S
H608 N605 0.984 . S
H609 N605 0.985 . S
H610 N604 0.984 . S
H611 N604 0.984 . S
H612 N600 0.984 . S
H613 N600 0.985 . S
C614 C615 1.363 . S
C614 C620 1.379 . S
C614 N622 1.356 . S
C615 C614 1.363 . S
C615 C621 1.363 . S
C616 C617 1.363 . S
C616 C621 1.379 . S
C616 N623 1.356 . S
C617 C616 1.363 . S
C617 C620 1.363 . S
N618 C620 1.356 . S
N618 H630 0.984 . S
N618 H631 0.985 . S
N619 C621 1.356 . S
N619 H624 0.984 . S
N619 H625 0.985 . S
C620 C614 1.379 . S
C620 C617 1.363 . S
C620 N618 1.356 . S
C621 C615 1.363 . S
C621 C616 1.379 . S
C621 N619 1.356 . S
N622 C614 1.356 . S
N622 H628 0.984 . S
N622 H629 0.984 . S
N623 C616 1.356 . S
N623 H626 0.984 . S
N623 H627 0.985 . S
H624 N619 0.984 . S
H625 N619 0.985 . S
H626 N623 0.984 . S
H627 N623 0.985 . S
H628 N622 0.984 . S
H629 N622 0.984 . S
H630 N618 0.984 . S
H631 N618 0.985 . S
C632 C633 1.363 . S
C632 C638 1.379 1_655 S
C632 N640 1.356 . S
C633 C632 1.363 . S
C633 C639 1.363 . S
C634 C635 1.363 1_655 S
C634 C639 1.379 . S
C634 N641 1.356 1_655 S
C635 C634 1.363 1_455 S
C635 C638 1.363 . S
N636 C638 1.356 . S
N636 H648 0.984 1_554 S
N636 H649 0.985 . S
N637 C639 1.356 . S
N637 H642 0.984 . S
N637 H643 0.985 . S
C638 C632 1.379 1_455 S
C638 C635 1.363 . S
C638 N636 1.356 . S
C639 C633 1.363 . S
C639 C634 1.379 . S
C639 N637 1.356 . S
N640 C632 1.356 . S
N640 H646 0.984 1_554 S
N640 H647 0.984 . S
N641 C634 1.356 1_455 S
N641 H644 0.984 . S
N641 H645 0.985 1_455 S
H642 N637 0.984 . S
H643 N637 0.985 . S
H644 N641 0.984 . S
H645 N641 0.985 1_655 S
H646 N640 0.984 1_556 S
H647 N640 0.984 . S
H648 N636 0.984 1_556 S
H649 N636 0.985 . S
C650 C651 1.363 . S
C650 C656 1.379 1_565 S
C650 N658 1.356 . S
C651 C650 1.363 . S
C651 C657 1.363 . S
C652 C653 1.363 . S
C652 C657 1.379 1_545 S
C652 N659 1.356 1_554 S
C653 C652 1.363 . S
C653 C656 1.363 . S
N654 C656 1.356 . S
N654 H666 0.984 . S
N654 H667 0.985 . S
N655 C657 1.356 . S
N655 H660 0.984 . S
N655 H661 0.985 . S
C656 C650 1.379 1_545 S
C656 C653 1.363 . S
C656 N654 1.356 . S
C657 C651 1.363 . S
C657 C652 1.379 1_565 S
C657 N655 1.356 . S
N658 C650 1.356 . S
N658 H664 0.984 . S
N658 H665 0.984 . S
N659 C652 1.356 1_556 S
N659 H662 0.984 . S
N659 H663 0.985 . S
H660 N655 0.984 . S
H661 N655 0.985 . S
H662 N659 0.984 . S
H663 N659 0.985 . S
H664 N658 0.984 . S
H665 N658 0.984 . S
H666 N654 0.984 . S
H667 N654 0.985 . S
C668 C669 1.363 . S
C668 C674 1.379 1_554 S
C668 N676 1.356 . S
C669 C668 1.363 . S
C669 C675 1.363 . S
C670 C671 1.363 1_554 S
C670 C675 1.379 . S
C670 N677 1.356 . S
C671 C670 1.363 1_556 S
C671 C674 1.363 . S
N672 C674 1.356 . S
N672 H684 0.984 . S
N672 H685 0.985 . S
N673 C675 1.356 . S
N673 H678 0.984 . S
N673 H679 0.985 . S
C674 C668 1.379 1_556 S
C674 C671 1.363 . S
C674 N672 1.356 . S
C675 C669 1.363 . S
C675 C670 1.379 . S
C675 N673 1.356 . S
N676 C668 1.356 . S
N676 H682 0.984 . S
N676 H683 0.984 . S
N677 C670 1.356 . S
N677 H680 0.984 1_554 S
N677 H681 0.985 . S
H678 N673 0.984 . S
H679 N673 0.985 . S
H680 N677 0.984 1_556 S
H681 N677 0.985 . S
H682 N676 0.984 . S
H683 N676 0.984 . S
H684 N672 0.984 . S
H685 N672 0.985 . S
C686 C687 1.363 . S
C686 C692 1.379 . S
C686 N694 1.356 . S
C687 C686 1.363 . S
C687 C693 1.363 . S
C688 C689 1.363 . S
C688 C693 1.379 . S
C688 N695 1.356 . S
C689 C688 1.363 . S
C689 C692 1.363 . S
N690 C692 1.356 . S
N690 H702 0.984 . S
N690 H703 0.985 . S
N691 C693 1.356 . S
N691 H696 0.984 . S
N691 H697 0.985 1_554 S
C692 C686 1.379 . S
C692 C689 1.363 . S
C692 N690 1.356 . S
C693 C687 1.363 . S
C693 C688 1.379 . S
C693 N691 1.356 . S
N694 C686 1.356 . S
N694 H700 0.984 . S
N694 H701 0.984 . S
N695 C688 1.356 . S
N695 H698 0.984 . S
N695 H699 0.985 . S
H696 N691 0.984 . S
H697 N691 0.985 1_556 S
H698 N695 0.984 . S
H699 N695 0.985 . S
H700 N694 0.984 . S
H701 N694 0.984 . S
H702 N690 0.984 . S
H703 N690 0.985 . S
C704 C705 1.363 . S
C704 C710 1.379 . S
C704 N712 1.356 . S
C705 C704 1.363 . S
C705 C711 1.363 . S
C706 C707 1.363 . S
C706 C711 1.379 . S
C706 N713 1.356 . S
C707 C706 1.363 . S
C707 C710 1.363 . S
N708 C710 1.356 . S
N708 H720 0.984 1_455 S
N708 H721 0.985 . S
N709 C711 1.356 . S
N709 H714 0.984 . S
N709 H715 0.985 . S
C710 C704 1.379 . S
C710 C707 1.363 . S
C710 N708 1.356 . S
C711 C705 1.363 . S
C711 C706 1.379 . S
C711 N709 1.356 . S
N712 C704 1.356 . S
N712 H718 0.984 1_455 S
N712 H719 0.984 . S
N713 C706 1.356 . S
N713 H716 0.984 . S
N713 H717 0.985 . S
H714 N709 0.984 . S
H715 N709 0.985 . S
H716 N713 0.984 . S
H717 N713 0.985 . S
H718 N712 0.984 1_655 S
H719 N712 0.984 . S
H720 N708 0.984 1_655 S
H721 N708 0.985 . S
C722 C723 1.363 . S
C722 C728 1.379 . S
C722 N730 1.356 1_545 S
C723 C722 1.363 . S
C723 C729 1.363 . S
C724 C725 1.363 . S
C724 C729 1.379 . S
C724 N731 1.356 . S
C725 C724 1.363 . S
C725 C728 1.363 . S
N726 C728 1.356 1_565 S
N726 H738 0.984 . S
N726 H739 0.985 . S
N727 C729 1.356 . S
N727 H732 0.984 . S
N727 H733 0.985 . S
C728 C722 1.379 . S
C728 C725 1.363 . S
C728 N726 1.356 1_545 S
C729 C723 1.363 . S
C729 C724 1.379 . S
C729 N727 1.356 . S
N730 C722 1.356 1_565 S
N730 H736 0.984 . S
N730 H737 0.979 1_565 S
N731 C724 1.356 . S
N731 H734 0.984 . S
N731 H735 0.985 . S
H732 N727 0.984 . S
H733 N727 0.985 . S
H734 N731 0.984 . S
H735 N731 0.985 . S
H736 N730 0.984 . S
H737 N730 0.979 1_545 S
H738 N726 0.984 . S
H739 N726 0.985 . S
C740 C741 1.363 . S
C740 C746 1.379 . S
C740 N748 1.356 . S
C741 C740 1.363 . S
C741 C747 1.363 . S
C742 C743 1.363 . S
C742 C747 1.379 . S
C742 N749 1.356 . S
C743 C742 1.363 . S
C743 C746 1.363 . S
N744 C746 1.356 . S
N744 H756 0.984 . S
N744 H757 0.985 . S
N745 C747 1.356 . S
N745 H750 0.984 . S
N745 H751 0.985 . S
C746 C740 1.379 . S
C746 C743 1.363 . S
C746 N744 1.356 . S
C747 C741 1.363 . S
C747 C742 1.379 . S
C747 N745 1.356 . S
N748 C740 1.356 . S
N748 H754 0.984 . S
N748 H755 0.984 . S
N749 C742 1.356 . S
N749 H752 0.984 . S
N749 H753 0.985 . S
H750 N745 0.984 . S
H751 N745 0.985 . S
H752 N749 0.984 . S
H753 N749 0.985 . S
H754 N748 0.984 . S
H755 N748 0.984 . S
H756 N744 0.984 . S
H757 N744 0.985 . S
C758 C759 1.363 . S
C758 C764 1.379 . S
C758 N766 1.356 . S
C759 C758 1.363 . S
C759 C765 1.363 . S
C760 C761 1.363 . S
C760 C765 1.379 . S
C760 N767 1.356 . S
C761 C760 1.363 . S
C761 C764 1.363 . S
N762 C764 1.356 . S
N762 H774 0.984 . S
N762 H775 0.985 . S
N763 C765 1.356 . S
N763 H768 0.984 . S
N763 H769 0.985 . S
C764 C758 1.379 . S
C764 C761 1.363 . S
C764 N762 1.356 . S
C765 C759 1.363 . S
C765 C760 1.379 . S
C765 N763 1.356 . S
N766 C758 1.356 . S
N766 H772 0.984 . S
N766 H773 0.984 . S
N767 C760 1.356 . S
N767 H770 0.984 . S
N767 H771 0.985 . S
H768 N763 0.984 . S
H769 N763 0.985 . S
H770 N767 0.984 . S
H771 N767 0.985 . S
H772 N766 0.984 . S
H773 N766 0.984 . S
H774 N762 0.984 . S
H775 N762 0.985 . S
C776 C777 1.363 . S
C776 C782 1.379 . S
C776 N784 1.356 . S
C777 C776 1.363 . S
C777 C783 1.363 . S
C778 C779 1.363 . S
C778 C783 1.379 . S
C778 N785 1.356 1_655 S
C779 C778 1.363 . S
C779 C782 1.363 . S
N780 C782 1.356 . S
N780 H792 0.984 . S
N780 H793 0.985 . S
N781 C783 1.356 . S
N781 H786 0.984 . S
N781 H787 0.985 1_655 S
C782 C776 1.379 . S
C782 C779 1.363 . S
C782 N780 1.356 . S
C783 C777 1.363 . S
C783 C778 1.379 . S
C783 N781 1.356 . S
N784 C776 1.356 . S
N784 H790 0.984 . S
N784 H791 0.984 . S
N785 C778 1.356 1_455 S
N785 H788 0.984 . S
N785 H789 0.985 . S
H786 N781 0.984 . S
H787 N781 0.985 1_455 S
H788 N785 0.984 . S
H789 N785 0.985 . S
H790 N784 0.984 . S
H791 N784 0.984 . S
H792 N780 0.984 . S
H793 N780 0.985 . S
C794 C795 1.363 . S
C794 C800 1.379 . S
C794 N802 1.356 . S
C795 C794 1.363 . S
C795 C801 1.362 1_565 S
C796 C797 1.363 1_545 S
C796 C801 1.379 . S
C796 N803 1.356 . S
C797 C796 1.363 1_565 S
C797 C800 1.363 . S
N798 C800 1.356 . S
N798 H810 0.984 . S
N798 H811 0.985 . S
N799 C801 1.357 . S
N799 H804 0.984 . S
N799 H805 0.985 . S
C800 C794 1.379 . S
C800 C797 1.363 . S
C800 N798 1.356 . S
C801 C795 1.362 1_545 S
C801 C796 1.379 . S
C801 N799 1.357 . S
N802 C794 1.356 . S
N802 H808 0.984 . S
N802 H809 0.984 . S
N803 C796 1.356 . S
N803 H806 0.984 . S
N803 H807 0.985 . S
H804 N799 0.984 . S
H805 N799 0.985 . S
H806 N803 0.984 . S
H807 N803 0.985 . S
H808 N802 0.984 . S
H809 N802 0.984 . S
H810 N798 0.984 . S
H811 N798 0.985 . S
C812 C813 1.363 . S
C812 C818 1.379 . S
C812 N820 1.356 . S
C813 C812 1.363 . S
C813 C819 1.363 . S
C814 C815 1.363 . S
C814 C819 1.379 . S
C814 N821 1.356 . S
C815 C814 1.363 . S
C815 C818 1.363 . S
N816 C818 1.356 . S
N816 H828 0.984 . S
N816 H829 0.985 . S
N817 C819 1.356 . S
N817 H822 0.984 . S
N817 H823 0.985 . S
C818 C812 1.379 . S
C818 C815 1.363 . S
C818 N816 1.356 . S
C819 C813 1.363 . S
C819 C814 1.379 . S
C819 N817 1.356 . S
N820 C812 1.356 . S
N820 H826 0.984 . S
N820 H827 0.984 . S
N821 C814 1.356 . S
N821 H824 0.984 . S
N821 H825 0.985 . S
H822 N817 0.984 . S
H823 N817 0.985 . S
H824 N821 0.984 . S
H825 N821 0.985 . S
H826 N820 0.984 . S
H827 N820 0.984 . S
H828 N816 0.984 . S
H829 N816 0.985 . S
C830 C831 1.363 . S
C830 C836 1.379 . S
C830 N838 1.356 . S
C831 C830 1.363 . S
C831 C837 1.363 . S
C832 C833 1.363 . S
C832 C837 1.379 . S
C832 N839 1.356 . S
C833 C832 1.363 . S
C833 C836 1.363 . S
N834 C836 1.356 . S
N834 H846 0.984 . S
N834 H847 0.985 . S
N835 C837 1.356 . S
N835 H840 0.984 . S
N835 H841 0.985 . S
C836 C830 1.379 . S
C836 C833 1.363 . S
C836 N834 1.356 . S
C837 C831 1.363 . S
C837 C832 1.379 . S
C837 N835 1.356 . S
N838 C830 1.356 . S
N838 H844 0.984 . S
N838 H845 0.984 . S
N839 C832 1.356 . S
N839 H842 0.984 . S
N839 H843 0.985 . S
H840 N835 0.984 . S
H841 N835 0.985 . S
H842 N839 0.984 . S
H843 N839 0.985 . S
H844 N838 0.984 . S
H845 N838 0.984 . S
H846 N834 0.984 . S
H847 N834 0.985 . S
C417 C215 2.753 . S
C419 C287 2.967 . S
C437 C313 2.659 . S
C435 C247 2.314 . S
C455 C353 2.582 . S
C453 C151 2.321 . S
C473 C407 2.895 . S
C471 C183 2.711 . S
C491 C268 2.966 . S
C489 C87 2.696 . S
C507 C119 2.382 . S
C509 C298 2.658 . S
C525 C23 2.282 . S
C527 C338 2.583 . S
C543 C55 2.637 . S
C545 C388 2.896 . S
C563 C264 0.859 . S
C561 C189 0.901 . S
C581 C325 0.956 . S
C579 C221 1.027 . S
C599 C365 0.703 . S
C597 C253 0.685 . S
C615 C157 0.737 . S
C617 C384 0.741 . S
C633 C61 0.799 . S
C635 C285 0.860 . S
C653 C304 0.956 1_554 S
C651 C93 0.881 . S
C671 C344 0.703 . S
C669 C125 0.711 . S
C687 C29 0.745 . S
C689 C405 0.741 . S
C705 C177 2.607 . S
C707 C258 2.996 . S
C723 C209 3.022 . S
C725 C308 3.372 . S
C743 C348 3.169 . S
C741 C241 2.782 . S
C761 C378 2.764 . S
C759 C145 2.385 . S
C777 C49 2.553 . S
C779 C273 2.996 . S
C797 C327 3.371 . S
C795 C81 3.003 . S
C815 C367 3.169 . S
C813 C113 2.877 . S
C831 C17 2.365 . S
C833 C393 2.764 . S
