# Generated by pormake.
# Topology pth, (4,4)-cn, num edge types: 1
# Building blocks:
#     Node 0, Type 0, BuildingBlock: AZAVOO_clean_sbu_0, # of connection points: 4
#     Node 1, Type 0, BuildingBlock: AZAVOO_clean_sbu_0, # of connection points: 4
#     Node 2, Type 0, BuildingBlock: AZAVOO_clean_sbu_0, # of connection points: 4
#     Node 3, Type 1, BuildingBlock: MIFKUJ_clean_linker_1, # of connection points: 4
#     Node 4, Type 1, BuildingBlock: MIFKUJ_clean_linker_1, # of connection points: 4
#     Node 5, Type 1, BuildingBlock: MIFKUJ_clean_linker_1, # of connection points: 4
#     Edge 6, Type (0, 1), BuildingBlock: MIFKUJ_clean_linker_0, # of connection points: 2
#     Edge 7, Type (0, 1), BuildingBlock: MIFKUJ_clean_linker_0, # of connection points: 2
#     Edge 8, Type (0, 1), BuildingBlock: MIFKUJ_clean_linker_0, # of connection points: 2
#     Edge 9, Type (0, 1), BuildingBlock: MIFKUJ_clean_linker_0, # of connection points: 2
#     Edge 10, Type (0, 1), BuildingBlock: MIFKUJ_clean_linker_0, # of connection points: 2
#     Edge 11, Type (0, 1), BuildingBlock: MIFKUJ_clean_linker_0, # of connection points: 2
#     Edge 12, Type (0, 1), BuildingBlock: MIFKUJ_clean_linker_0, # of connection points: 2
#     Edge 13, Type (0, 1), BuildingBlock: MIFKUJ_clean_linker_0, # of connection points: 2
#     Edge 14, Type (0, 1), BuildingBlock: MIFKUJ_clean_linker_0, # of connection points: 2
#     Edge 15, Type (0, 1), BuildingBlock: MIFKUJ_clean_linker_0, # of connection points: 2
#     Edge 16, Type (0, 1), BuildingBlock: MIFKUJ_clean_linker_0, # of connection points: 2
#     Edge 17, Type (0, 1), BuildingBlock: MIFKUJ_clean_linker_0, # of connection points: 2
# Relax obj value: 0.066
# Max RMSD: 0.210
# Mean RMSD: 0.113
data_MOF--net-pth--node1-AZAVOO_clean_sbu_0--node2-MIFKUJ_clean_linker_1--edge1-MIFKUJ_clean_linker_0
_symmetry_space_group_name_H-M    P1
_symmetry_Int_Tables_number       1
_symmetry_cell_setting            triclinic
loop_
_symmetry_equiv_pos_as_xyz
'x, y, z'
_cell_length_a     36.582486
_cell_length_b     37.276364
_cell_length_c     78.104022
_cell_angle_alpha  90.759311
_cell_angle_beta   92.458138
_cell_angle_gamma 121.76461
loop_
_atom_site_label
_atom_site_type_symbol
_atom_site_fract_x
_atom_site_fract_y
_atom_site_fract_z
_atom_type_partial_charge
Mg0 Mg 0.08959 0.05289 0.03969 0.0
O1 O 0.02808 0.0083 0.02321 0.0
O2 O 0.01247 0.04672 0.00621 0.0
Mg3 Mg 0.0638 0.11617 0.01207 0.0
C4 C 0.00429 0.01116 0.01156 0.0
C5 C 0.1045 0.00461 0.06829 0.0
O6 O 0.14046 0.04172 0.07005 0.0
O7 O 0.05287 0.07177 0.05671 0.0
O8 O 0.03977 0.11112 0.03913 0.0
O9 O 0.129 0.05157 0.01878 0.0
O10 O 0.10929 0.09807 0.02131 0.0
C11 C 0.03725 0.09479 0.05365 0.0
C12 C 0.12798 0.08322 0.01271 0.0
O13 O 0.0763 -0.00128 0.05666 0.0
Mg14 Mg 0.95588 -0.00156 0.36305 0.0
O15 O 0.0124 0.01545 0.38228 0.0
O16 O 0.02218 0.06796 0.39989 0.0
Mg17 Mg 0.97324 0.08557 0.39152 0.0
C18 C 0.0322 0.04158 0.395 0.0
C19 C 0.96534 0.92371 0.35091 0.0
O20 O 0.94525 0.90829 0.36502 0.0
O21 O -0.00154 0.05721 0.34839 0.0
O22 O 0.00488 0.10838 0.36586 0.0
O23 O 0.90869 0.95342 0.38118 0.0
O24 O 0.93031 0.02091 0.38051 0.0
C25 C 0.01224 0.09602 0.35179 0.0
C26 C 0.90803 0.98524 0.38761 0.0
O27 O 0.97438 0.96016 0.34666 0.0
Mg28 Mg 0.98937 0.98483 0.69801 0.0
O29 O 0.0359 0.04133 0.71588 0.0
O30 O -0.00223 0.05233 0.73453 0.0
Mg31 Mg 0.9269 0.0007 0.72925 0.0
C32 C 0.03358 0.06207 0.72847 0.0
C33 C 0.04308 0.97552 0.67076 0.0
O34 O 0.01262 0.93584 0.67235 0.0
O35 O 0.96686 0.02376 0.68408 0.0
O36 O 0.92624 0.02887 0.70335 0.0
O37 O 0.99461 0.94168 0.71615 0.0
O38 O 0.94604 0.95969 0.71717 0.0
C39 C 0.94171 0.03583 0.68855 0.0
C40 C 0.96312 0.9401 0.72382 0.0
O41 O 0.04263 0.00396 0.6797 0.0
H42 H 0.09372 0.46542 0.19193 0.0
H43 H 0.08305 0.4031 0.17619 0.0
H44 H 0.95419 0.36985 0.15962 0.0
H45 H 0.96577 0.43286 0.17496 0.0
H46 H 0.03416 0.52229 0.17242 0.0
H47 H 0.10657 0.50127 0.23289 0.0
H48 H 0.11307 0.44673 0.24727 0.0
H49 H 0.98418 0.35238 0.22789 0.0
H50 H 0.97768 0.40724 0.2138 0.0
H51 H 0.97503 0.54519 0.23286 0.0
H52 H 0.97075 0.59804 0.24985 0.0
H53 H 0.0978 0.69391 0.23537 0.0
H54 H 0.10089 0.64072 0.21779 0.0
H55 H 0.0423 0.52453 0.23609 0.0
H56 H 0.98067 0.58205 0.19447 0.0
H57 H 0.98685 0.64232 0.17951 0.0
H58 H 0.1077 0.6696 0.16043 0.0
H59 H 0.1016 0.60983 0.17557 0.0
C60 C 0.03058 0.45369 0.1845 0.0
C61 C 0.06335 0.44477 0.18479 0.0
C62 C 0.05698 0.40891 0.17594 0.0
C63 C 0.01766 0.38133 0.1667 0.0
C64 C 0.98505 0.39067 0.1664 0.0
C65 C 0.99158 0.42665 0.17514 0.0
C66 C 0.0357 0.48977 0.19477 0.0
C67 C 0.036 0.52285 0.18633 0.0
C68 C 0.0392 0.49099 0.21288 0.0
C69 C 0.04171 0.45817 0.22229 0.0
C70 C 0.07963 0.46886 0.23189 0.0
C71 C 0.08346 0.43766 0.23992 0.0
C72 C 0.04923 0.39529 0.2386 0.0
C73 C 0.01097 0.38481 0.22921 0.0
C74 C 0.00725 0.41602 0.22112 0.0
C75 C 0.03827 0.58915 0.22415 0.0
C76 C 0.00195 0.57762 0.23339 0.0
C77 C -0.00029 0.60787 0.24317 0.0
C78 C 0.03411 0.65025 0.24413 0.0
C79 C 0.07053 0.66171 0.23478 0.0
C80 C 0.07253 0.63137 0.22483 0.0
C81 C 0.03963 0.55658 0.21374 0.0
C82 C 0.04065 0.52413 0.22217 0.0
C83 C 0.03849 0.55658 0.19564 0.0
C84 C 0.04084 0.59177 0.18618 0.0
C85 C 0.00847 0.60112 0.18708 0.0
C86 C 0.01193 0.63534 0.17847 0.0
C87 C 0.04788 0.66077 0.1689 0.0
C88 C 0.07995 0.65094 0.16791 0.0
C89 C 0.07634 0.61664 0.17641 0.0
H90 H 0.60226 0.0957 0.49418 0.0
H91 H 0.64831 0.07632 0.48003 0.0
H92 H 0.61612 0.97892 0.51635 0.0
H93 H 0.56949 0.99781 0.53018 0.0
H94 H 0.51609 0.04952 0.49866 0.0
H95 H 0.64584 0.12084 0.53385 0.0
H96 H 0.70748 0.12982 0.55142 0.0
H97 H 0.62065 0.04264 0.58731 0.0
H98 H 0.55923 0.0329 0.56959 0.0
H99 H 0.44863 0.01588 0.56314 0.0
H100 H 0.38907 0.01046 0.57824 0.0
H101 H 0.39893 0.11393 0.55009 0.0
H102 H 0.45948 0.11972 0.5351 0.0
H103 H 0.53231 0.08089 0.56141 0.0
H104 H 0.40263 0.00412 0.52373 0.0
H105 H 0.34168 -0.00155 0.50685 0.0
H106 H 0.42994 0.09789 0.47512 0.0
H107 H 0.49091 0.10476 0.49245 0.0
C108 C 0.58288 0.04851 0.51332 0.0
C109 C 0.60511 0.07015 0.49904 0.0
C110 C 0.63161 0.05924 0.49107 0.0
C111 C 0.63596 0.02622 0.49715 0.0
C112 C 0.6132 0.00429 0.51132 0.0
C113 C 0.58686 0.0153 0.51931 0.0
C114 C 0.55489 0.05999 0.5219 0.0
C115 C 0.52006 0.05717 0.51233 0.0
C116 C 0.5602 0.07 0.53971 0.0
C117 C 0.59781 0.07597 0.55033 0.0
C118 C 0.64005 0.10331 0.54541 0.0
C119 C 0.67524 0.10853 0.55545 0.0
C120 C 0.66877 0.08712 0.57074 0.0
C121 C 0.62656 0.06001 0.5757 0.0
C122 C 0.59145 0.05443 0.56558 0.0
C123 C 0.45826 0.068 0.54794 0.0
C124 C 0.43828 0.03769 0.56032 0.0
C125 C 0.40398 0.03435 0.5688 0.0
C126 C 0.38902 0.0614 0.56516 0.0
C127 C 0.40986 0.09269 0.55313 0.0
C128 C 0.44425 0.09593 0.54454 0.0
C129 C 0.4926 0.06864 0.53832 0.0
C130 C 0.5288 0.07395 0.54769 0.0
C131 C 0.4886 0.06107 0.52032 0.0
C132 C 0.45138 0.05561 0.50962 0.0
C133 C 0.40892 0.02511 0.51329 0.0
C134 C 0.37415 0.02173 0.50361 0.0
C135 C 0.38127 0.0479 0.48978 0.0
C136 C 0.42369 0.07727 0.4857 0.0
C137 C 0.45845 0.0812 0.49558 0.0
H138 H 0.51771 0.43845 0.83114 0.0
H139 H 0.45986 0.38786 0.81076 0.0
H140 H 0.37056 0.4121 0.83514 0.0
H141 H 0.42878 0.46408 0.85466 0.0
H142 H 0.55465 0.52118 0.83785 0.0
H143 H 0.48845 0.40042 0.87291 0.0
H144 H 0.42869 0.33766 0.8847 0.0
H145 H 0.37924 0.41301 0.90336 0.0
H146 H 0.44084 0.47597 0.89243 0.0
H147 H 0.56197 0.5961 0.90241 0.0
H148 H 0.61504 0.65294 0.9223 0.0
H149 H 0.71173 0.62718 0.90749 0.0
H150 H 0.65832 0.56999 0.88777 0.0
H151 H 0.53216 0.50935 0.90027 0.0
H152 H 0.61225 0.63381 0.86674 0.0
H153 H 0.67742 0.69219 0.85541 0.0
H154 H 0.70311 0.60284 0.83168 0.0
H155 H 0.63891 0.54478 0.84367 0.0
C156 C 0.47739 0.45448 0.84461 0.0
C157 C 0.48572 0.43309 0.83194 0.0
C158 C 0.45253 0.40393 0.82041 0.0
C159 C 0.41045 0.39571 0.82135 0.0
C160 C 0.40259 0.41793 0.83386 0.0
C161 C 0.43576 0.44725 0.84523 0.0
C162 C 0.51187 0.48434 0.8573 0.0
C163 C 0.55007 0.51825 0.85151 0.0
C164 C 0.506 0.48062 0.87509 0.0
C165 C 0.46904 0.44269 0.88193 0.0
C166 C 0.46468 0.40325 0.8796 0.0
C167 C 0.43016 0.36731 0.8862 0.0
C168 C 0.39888 0.37001 0.89504 0.0
C169 C 0.40306 0.40969 0.89699 0.0
C170 C 0.43813 0.44576 0.89069 0.0
C171 C 0.60636 0.57914 0.89355 0.0
C172 C 0.5945 0.60246 0.90359 0.0
C173 C 0.62488 0.63508 0.91483 0.0
C174 C 0.66754 0.64461 0.91635 0.0
C175 C 0.67902 0.62035 0.90665 0.0
C176 C 0.64866 0.58788 0.89533 0.0
C177 C 0.57469 0.54667 0.88082 0.0
C178 C 0.53694 0.5122 0.88662 0.0
C179 C 0.58167 0.54943 0.86307 0.0
C180 C 0.62099 0.58499 0.85618 0.0
C181 C 0.63227 0.62687 0.8593 0.0
C182 C 0.66933 0.66018 0.85269 0.0
C183 C 0.69554 0.65218 0.84267 0.0
C184 C 0.68408 0.61015 0.83959 0.0
C185 C 0.64713 0.5769 0.84626 0.0
H186 H 0.97889 0.11884 0.05088 0.0
H187 H 0.96397 0.15573 0.07289 0.0
H188 H 0.04349 0.13835 0.11003 0.0
H189 H 0.05772 0.10029 0.08809 0.0
H190 H 0.97493 0.13882 0.12479 0.0
H191 H 0.08979 0.22412 0.08812 0.0
H192 H 0.12234 0.24756 0.06029 0.0
H193 H 0.0306 0.28226 0.0462 0.0
H194 H 0.99708 0.2584 0.07386 0.0
H195 H 0.04391 0.32735 0.17633 0.0
H196 H 0.03746 0.26855 0.1593 0.0
H197 H 0.96843 0.28995 0.1186 0.0
H198 H 0.97667 0.34993 0.13509 0.0
H199 H 0.03134 0.28514 0.10659 0.0
H200 H 0.9184 0.20261 0.14445 0.0
H201 H 0.88662 0.1787 0.17238 0.0
H202 H 0.97613 0.14027 0.1849 0.0
H203 H 0.00879 0.16438 0.15711 0.0
C204 C 0.99222 0.12181 0.06385 0.0
C205 C 0.02012 0.10744 0.06771 0.0
C206 C 0.98364 0.14285 0.07641 0.0
C207 C 0.00353 0.15064 0.09294 0.0
C208 C 0.02803 0.1328 0.0973 0.0
C209 C 0.03618 0.11114 0.08475 0.0
C210 C 0.00392 0.1824 0.10466 0.0
C211 C 0.98751 0.17092 0.12093 0.0
C212 C 0.02022 0.22419 0.09953 0.0
C213 C 0.04069 0.23911 0.08298 0.0
C214 C 0.0764 0.2365 0.07904 0.0
C215 C 0.09503 0.24987 0.0633 0.0
C216 C 0.07848 0.26629 0.05147 0.0
C217 C 0.04334 0.26948 0.05537 0.0
C218 C 0.02453 0.25606 0.07107 0.0
C219 C 0.02746 0.3196 0.16373 0.0
C220 C 0.01105 0.34356 0.15703 0.0
C221 C 0.02324 0.28557 0.15412 0.0
C222 C 0.00212 0.2746 0.13774 0.0
C223 C 0.98473 0.29776 0.13124 0.0
C224 C 0.98921 0.3319 0.14075 0.0
C225 C 0.00128 0.24154 0.12667 0.0
C226 C 0.01827 0.25298 0.1105 0.0
C227 C 0.98574 0.19997 0.13201 0.0
C228 C 0.96626 0.18562 0.14875 0.0
C229 C 0.93154 0.18938 0.15321 0.0
C230 C 0.91332 0.17571 0.169 0.0
C231 C 0.92936 0.158 0.1804 0.0
C232 C 0.96372 0.15397 0.17605 0.0
C233 C 0.98206 0.16758 0.16027 0.0
H234 H 0.91508 0.14725 0.19257 0.0
H235 H 0.09295 0.27663 0.03929 0.0
H236 H 0.91064 0.04842 0.40678 0.0
H237 H 0.86479 0.04193 0.42953 0.0
H238 H 0.79936 0.90622 0.42458 0.0
H239 H 0.84639 0.91248 0.40177 0.0
H240 H 0.74448 0.93877 0.42299 0.0
H241 H 0.85571 0.94904 0.46003 0.0
H242 H 0.93025 0.97681 0.47125 0.0
H243 H 0.94596 0.09724 0.48284 0.0
H244 H 0.87173 0.07044 0.47143 0.0
H245 H 0.61865 0.94699 0.48881 0.0
H246 H 0.6645 0.92826 0.47409 0.0
H247 H 0.76195 0.06038 0.47144 0.0
H248 H 0.71675 0.07927 0.48646 0.0
H249 H 0.79675 0.0132 0.48013 0.0
H250 H 0.69312 0.0076 0.43758 0.0
H251 H 0.62002 0.98248 0.42518 0.0
H252 H 0.59158 0.85502 0.42325 0.0
H253 H 0.6644 0.87938 0.43586 0.0
C254 C 0.88731 0.01715 0.41067 0.0
C255 C 0.88246 0.981 0.40247 0.0
C256 C 0.86106 0.0135 0.42376 0.0
C257 C 0.829 0.97363 0.42884 0.0
C258 C 0.82421 0.93729 0.4209 0.0
C259 C 0.85111 0.94096 0.40791 0.0
C260 C 0.79861 0.97085 0.44141 0.0
C261 C 0.75553 0.95389 0.4357 0.0
C262 C 0.81341 0.99136 0.45782 0.0
C263 C 0.85812 0.00772 0.46479 0.0
C264 C 0.87514 0.98154 0.46485 0.0
C265 C 0.91734 0.9971 0.47127 0.0
C266 C 0.94284 0.03877 0.47774 0.0
C267 C 0.92616 0.06496 0.47783 0.0
C268 C 0.88398 0.04956 0.47141 0.0
C269 C 0.65008 0.972 0.48528 0.0
C270 C 0.66404 0.01463 0.48868 0.0
C271 C 0.6761 0.96125 0.47681 0.0
C272 C 0.71646 0.99295 0.47159 0.0
C273 C 0.7309 0.03545 0.47538 0.0
C274 C 0.70489 0.04621 0.48379 0.0
C275 C 0.74306 0.98233 0.46147 0.0
C276 C 0.7854 0.99692 0.46764 0.0
C277 C 0.72767 0.95985 0.44543 0.0
C278 C 0.68394 0.94521 0.43787 0.0
C279 C 0.67113 0.97417 0.43466 0.0
C280 C 0.62979 0.96009 0.42756 0.0
C281 C 0.60112 0.91716 0.42349 0.0
C282 C 0.61378 0.88825 0.42645 0.0
C283 C 0.65508 0.90217 0.43357 0.0
H284 H 0.56913 0.90632 0.41799 0.0
H285 H 0.97551 0.05077 0.48269 0.0
H286 H 0.99438 0.89852 0.74209 0.0
H287 H 0.96363 0.85563 0.76711 0.0
H288 H 0.86484 0.8859 0.76607 0.0
H289 H 0.89515 0.92855 0.74131 0.0
H290 H 0.89411 0.88703 0.79866 0.0
H291 H 0.84692 0.79481 0.74706 0.0
H292 H 0.85884 0.76411 0.72131 0.0
H293 H 0.92584 0.7202 0.7525 0.0
H294 H 0.91473 0.75112 0.77843 0.0
H295 H 0.70176 0.7209 0.82778 0.0
H296 H 0.7619 0.77576 0.81284 0.0
H297 H 0.83501 0.7175 0.82412 0.0
H298 H 0.77488 0.66248 0.83935 0.0
H299 H 0.83456 0.7333 0.79072 0.0
H300 H 0.86635 0.81239 0.84307 0.0
H301 H 0.85186 0.84156 0.86859 0.0
H302 H 0.81301 0.90963 0.83641 0.0
H303 H 0.82663 0.88037 0.81067 0.0
C304 C 0.9664 0.89638 0.74733 0.0
C305 C 0.94718 0.91691 0.73969 0.0
C306 C 0.94889 0.87189 0.76161 0.0
C307 C 0.91181 0.86742 0.76837 0.0
C308 C 0.89361 0.88912 0.76112 0.0
C309 C 0.911 0.91348 0.74691 0.0
C310 C 0.88965 0.83796 0.78217 0.0
C311 C 0.8811 0.8534 0.79698 0.0
C312 C 0.87389 0.79431 0.78019 0.0
C313 C 0.88051 0.77573 0.76463 0.0
C314 C 0.86449 0.7789 0.7484 0.0
C315 C 0.87104 0.76141 0.73378 0.0
C316 C 0.89323 0.74035 0.73526 0.0
C317 C 0.90878 0.73662 0.75137 0.0
C318 C 0.90236 0.75411 0.76603 0.0
C319 C 0.73096 0.72023 0.82746 0.0
C320 C 0.7335 0.68729 0.83476 0.0
C321 C 0.76537 0.75166 0.8189 0.0
C322 C 0.80314 0.75098 0.81753 0.0
C323 C 0.80618 0.71864 0.82507 0.0
C324 C 0.77173 0.68714 0.83368 0.0
C325 C 0.83762 0.78213 0.80695 0.0
C326 C 0.84851 0.76702 0.79272 0.0
C327 C 0.85542 0.82606 0.80946 0.0
C328 C 0.84735 0.84399 0.82492 0.0
C329 C 0.85444 0.83335 0.84142 0.0
C330 C 0.84642 0.84994 0.85593 0.0
C331 C 0.83148 0.87739 0.85412 0.0
C332 C 0.82461 0.88837 0.83779 0.0
C333 C 0.83255 0.87184 0.82323 0.0
H334 H 0.82528 0.8902 0.86537 0.0
H335 H 0.89826 0.72682 0.72393 0.0
H336 H 0.16054 0.0053 0.09276 0.0
H337 H 0.14921 0.94763 0.1108 0.0
H338 H 0.02106 0.86817 0.08737 0.0
H339 H 0.03199 0.92577 0.06929 0.0
H340 H 0.02437 0.8627 0.12291 0.0
H341 H 0.09899 0.85545 0.0748 0.0
H342 H 0.1575 0.88394 0.05482 0.0
H343 H 0.24995 0.91387 0.09686 0.0
H344 H 0.19202 0.88607 0.11712 0.0
H345 H 0.98623 0.6642 0.14923 0.0
H346 H 0.99458 0.72392 0.13329 0.0
H347 H 0.12738 0.7997 0.1524 0.0
H348 H 0.11929 0.73997 0.16819 0.0
H349 H 0.12136 0.80764 0.11923 0.0
H350 H 0.04947 0.81555 0.16746 0.0
H351 H 0.99284 0.78891 0.18824 0.0
H352 H 0.89774 0.76022 0.14745 0.0
H353 H 0.95378 0.78622 0.12638 0.0
C354 C 0.12988 0.97562 0.09146 0.0
C355 C 0.09725 0.97004 0.07951 0.0
C356 C 0.12351 0.94268 0.10177 0.0
C357 C 0.08445 0.90356 0.1003 0.0
C358 C 0.05144 0.89815 0.08868 0.0
C359 C 0.05784 0.93103 0.07831 0.0
C360 C 0.07848 0.86798 0.11061 0.0
C361 C 0.04519 0.85024 0.12198 0.0
C362 C 0.1064 0.85258 0.10968 0.0
C363 C 0.14122 0.86905 0.09749 0.0
C364 C 0.13183 0.8684 0.0798 0.0
C365 C 0.16489 0.88437 0.06842 0.0
C366 C 0.20743 0.9008 0.07457 0.0
C367 C 0.21699 0.90118 0.09211 0.0
C368 C 0.18405 0.88529 0.10355 0.0
C369 C 0.01702 0.69377 0.15018 0.0
C370 C 0.05214 0.69743 0.15991 0.0
C371 C 0.02177 0.72788 0.14109 0.0
C372 C 0.06153 0.76642 0.14176 0.0
C373 C 0.09645 0.77024 0.15165 0.0
C374 C 0.09182 0.7361 0.16063 0.0
C375 C 0.06728 0.80227 0.13164 0.0
C376 C 0.10052 0.82005 0.12024 0.0
C377 C 0.03956 0.81793 0.13269 0.0
C378 C 0.00577 0.80247 0.14532 0.0
C379 C 0.01643 0.80327 0.1629 0.0
C380 C 0.98444 0.78834 0.17474 0.0
C381 C 0.94169 0.77278 0.16916 0.0
C382 C 0.93086 0.77224 0.15174 0.0
C383 C 0.96274 0.78712 0.13985 0.0
H384 H 0.91696 0.76122 0.17835 0.0
H385 H 0.23297 0.91315 0.06574 0.0
H386 H 0.08366 0.01496 0.38321 0.0
H387 H 0.14319 0.01551 0.39894 0.0
H388 H 0.11901 0.0658 0.44423 0.0
H389 H 0.06104 0.06738 0.42829 0.0
H390 H 0.19978 0.10445 0.4418 0.0
H391 H 0.08801 0.95792 0.43748 0.0
H392 H 0.03324 0.89011 0.42299 0.0
H393 H 0.13131 0.88844 0.3953 0.0
H394 H 0.18635 0.9566 0.40927 0.0
H395 H 0.31424 0.05057 0.50212 0.0
H396 H 0.25471 0.04872 0.48554 0.0
H397 H 0.30596 0.03698 0.43853 0.0
H398 H 0.36597 0.03947 0.45505 0.0
H399 H 0.21274 0.97849 0.44189 0.0
H400 H 0.32375 0.12669 0.44691 0.0
H401 H 0.37723 0.19268 0.46289 0.0
H402 H 0.27727 0.18776 0.49159 0.0
H403 H 0.22325 0.12134 0.47594 0.0
C404 C 0.09106 0.02608 0.39653 0.0
C405 C 0.0677 0.04109 0.40453 0.0
C406 C 0.12494 0.02616 0.40555 0.0
C407 C 0.13523 0.04 0.4229 0.0
C408 C 0.11182 0.05499 0.43088 0.0
C409 C 0.07861 0.05581 0.42176 0.0
C410 C 0.17079 0.03964 0.43271 0.0
C411 C 0.20211 0.07662 0.44196 0.0
C412 C 0.17453 0.00365 0.43276 0.0
C413 C 0.14126 0.96263 0.42429 0.0
C414 C 0.0978 0.94328 0.42817 0.0
C415 C 0.06667 0.90475 0.42003 0.0
C416 C 0.07868 0.88503 0.40814 0.0
C417 C 0.12187 0.90375 0.40441 0.0
C418 C 0.15307 0.94236 0.41243 0.0
C419 C 0.31258 0.04733 0.48825 0.0
C420 C 0.34457 0.0452 0.47981 0.0
C421 C 0.27877 0.04644 0.47883 0.0
C422 C 0.27619 0.04286 0.46086 0.0
C423 C 0.30754 0.03977 0.45241 0.0
C424 C 0.34177 0.04138 0.46181 0.0
C425 C 0.24105 0.04301 0.45087 0.0
C426 C 0.21001 0.00609 0.44165 0.0
C427 C 0.23714 0.07874 0.45105 0.0
C428 C 0.26953 0.11882 0.46038 0.0
C429 C 0.31323 0.13947 0.45673 0.0
C430 C 0.34363 0.177 0.46571 0.0
C431 C 0.33068 0.19434 0.47828 0.0
C432 C 0.28727 0.17426 0.48187 0.0
C433 C 0.25674 0.13669 0.47294 0.0
H434 H 0.35426 0.2234 0.48522 0.0
H435 H 0.05453 0.85518 0.40188 0.0
H436 H 0.0442 0.13073 0.74633 0.0
H437 H 0.11095 0.18898 0.76046 0.0
H438 H 0.17996 0.13144 0.74378 0.0
H439 H 0.11374 0.0737 0.72919 0.0
H440 H 0.18552 0.15926 0.7827 0.0
H441 H 0.20404 0.20457 0.72376 0.0
H442 H 0.17979 0.22113 0.69671 0.0
H443 H 0.16691 0.31486 0.72353 0.0
H444 H 0.19046 0.29835 0.7508 0.0
H445 H 0.3961 0.31905 0.81018 0.0
H446 H 0.33454 0.26405 0.79264 0.0
H447 H 0.28039 0.34253 0.7896 0.0
H448 H 0.34311 0.39872 0.80623 0.0
H449 H 0.26668 0.30323 0.76015 0.0
H450 H 0.24557 0.26213 0.81812 0.0
H451 H 0.26402 0.24667 0.84669 0.0
H452 H 0.27435 0.14674 0.82432 0.0
H453 H 0.2565 0.16198 0.79556 0.0
C454 C 0.07364 0.1306 0.74561 0.0
C455 C 0.07383 0.09775 0.73665 0.0
C456 C 0.11163 0.16384 0.75365 0.0
C457 C 0.1501 0.16427 0.7531 0.0
C458 C 0.15044 0.13149 0.74428 0.0
C459 C 0.11269 0.09873 0.73591 0.0
C460 C 0.18988 0.19869 0.76204 0.0
C461 C 0.20379 0.19062 0.7777 0.0
C462 C 0.2124 0.23977 0.75573 0.0
C463 C 0.19852 0.24987 0.73934 0.0
C464 C 0.1956 0.22839 0.72392 0.0
C465 C 0.18209 0.23784 0.70854 0.0
C466 C 0.17169 0.26893 0.70841 0.0
C467 C 0.17491 0.29073 0.72365 0.0
C468 C 0.18837 0.28136 0.73907 0.0
C469 C 0.37158 0.32503 0.80549 0.0
C470 C 0.37443 0.36323 0.80976 0.0
C471 C 0.33608 0.29329 0.79564 0.0
C472 C 0.30238 0.29879 0.79012 0.0
C473 C 0.30584 0.33743 0.79383 0.0
C474 C 0.34154 0.36936 0.80351 0.0
C475 C 0.263 0.26392 0.78086 0.0
C476 C 0.24883 0.27188 0.76518 0.0
C477 C 0.23958 0.22292 0.78738 0.0
C478 C 0.25015 0.2135 0.80466 0.0
C479 C 0.2521 0.23707 0.81927 0.0
C480 C 0.26239 0.22831 0.8355 0.0
C481 C 0.27048 0.19583 0.83731 0.0
C482 C 0.26815 0.17194 0.82289 0.0
C483 C 0.25791 0.1806 0.80662 0.0
H484 H 0.27845 0.18911 0.84989 0.0
H485 H 0.16124 0.27621 0.69649 0.0
H486 H 0.95477 0.04377 0.65404 0.0
H487 H 0.91816 0.06323 0.63254 0.0
H488 H 0.85668 0.08918 0.6726 0.0
H489 H 0.89282 0.0699 0.69409 0.0
H490 H 0.7995 0.03017 0.64806 0.0
H491 H 0.93022 0.16797 0.65044 0.0
H492 H 0.00829 0.21757 0.64857 0.0
H493 H -0.0004 0.17589 0.59622 0.0
H494 H 0.92152 0.12559 0.59784 0.0
H495 H 0.68276 0.10257 0.60525 0.0
H496 H 0.73897 0.10369 0.62372 0.0
H497 H 0.79399 0.08457 0.57935 0.0
H498 H 0.73784 0.08397 0.56071 0.0
H499 H 0.85679 0.13862 0.60403 0.0
H500 H 0.72865 0.00174 0.60091 0.0
H501 H 0.6508 0.94996 0.60193 0.0
H502 H 0.65532 0.986 0.65479 0.0
H503 H 0.73311 0.03852 0.65401 0.0
C504 C 0.93421 0.05452 0.65831 0.0
C505 C 0.92623 0.05464 0.67578 0.0
C506 C 0.9134 0.06571 0.646 0.0
C507 C 0.88454 0.07736 0.65101 0.0
C508 C 0.87866 0.08002 0.66849 0.0
C509 C 0.89938 0.06895 0.68076 0.0
C510 C 0.85667 0.08211 0.63813 0.0
C511 C 0.81205 0.05429 0.6386 0.0
C512 C 0.87321 0.11235 0.62533 0.0
C513 C 0.9201 0.14268 0.62432 0.0
C514 C 0.94501 0.1691 0.63857 0.0
C515 C 0.98925 0.19741 0.63755 0.0
C516 C 0.00891 0.1998 0.6223 0.0
C517 C 0.98434 0.17396 0.60803 0.0
C518 C 0.94008 0.14558 0.60899 0.0
C519 C 0.70706 0.09897 0.59943 0.0
C520 C 0.70565 0.09254 0.5816 0.0
C521 C 0.7392 0.09975 0.60997 0.0
C522 C 0.77014 0.09345 0.60291 0.0
C523 C 0.77033 0.08941 0.58503 0.0
C524 C 0.73827 0.089 0.57442 0.0
C525 C 0.79967 0.08753 0.61439 0.0
C526 C 0.84439 0.11462 0.61354 0.0
C527 C 0.78338 0.05619 0.62677 0.0
C528 C 0.73665 0.02433 0.62735 0.0
C529 C 0.71298 -0.00116 0.61272 0.0
C530 C 0.66887 0.96933 0.61326 0.0
C531 C 0.64811 0.96475 0.62841 0.0
C532 C 0.67144 0.98961 0.64306 0.0
C533 C 0.71556 0.01924 0.64258 0.0
H534 H 0.61395 0.94189 0.6288 0.0
H535 H 0.04317 0.22173 0.62153 0.0
H536 H 0.9833 0.92974 0.0157 0.0
H537 H 0.92387 0.86555 0.00122 0.0
H538 H 0.88132 0.93928 0.97485 0.0
H539 H 0.94058 0.00372 0.98927 0.0
H540 H 0.81387 0.86526 0.98748 0.0
H541 H 0.93772 0.90901 0.95423 0.0
H542 H 0.01264 0.92969 0.94991 0.0
H543 H 0.98596 0.80989 0.96736 0.0
H544 H 0.911 0.78873 0.97202 0.0
H545 H 0.68139 0.72388 0.91904 0.0
H546 H 0.73639 0.7838 0.93708 0.0
H547 H 0.78256 0.70656 0.95722 0.0
H548 H 0.72784 0.64657 0.93896 0.0
H549 H 0.84772 0.78039 0.94929 0.0
H550 H 0.72303 0.73447 0.98123 0.0
H551 H 0.64819 0.71339 0.98595 0.0
H552 H 0.67575 0.83574 0.97174 0.0
H553 H 0.75064 0.85738 0.9667 0.0
C554 C 0.96117 0.93236 0.00692 0.0
C555 C 0.9669 0.97196 0.00357 0.0
C556 C 0.92731 0.89563 -0.00137 0.0
C557 C 0.89852 0.8978 0.98686 0.0
C558 C 0.90328 0.93702 0.98388 0.0
C559 C 0.93728 0.9738 0.99208 0.0
C560 C 0.86425 0.85937 0.97723 0.0
C561 C 0.82117 0.84685 0.97899 0.0
C562 C 0.87392 0.8349 0.96654 0.0
C563 C 0.9189 0.84748 0.96365 0.0
C564 C 0.94793 0.88722 0.95729 0.0
C565 C 0.99038 0.899 0.95475 0.0
C566 C 0.00409 0.87117 0.9584 0.0
C567 C 0.97532 0.83144 0.96456 0.0
C568 C 0.93285 0.81953 0.96714 0.0
C569 C 0.70295 0.71955 0.92746 0.0
C570 C 0.70023 0.68052 0.92766 0.0
C571 C 0.73433 0.75379 0.93779 0.0
C572 C 0.7632 0.74952 0.9487 0.0
C573 C 0.76057 0.71056 0.94891 0.0
C574 C 0.72939 0.67637 0.93847 0.0
C575 C 0.79707 0.78615 0.95943 0.0
C576 C 0.8402 0.79846 0.95787 0.0
C577 C 0.78737 0.81028 0.97037 0.0
C578 C 0.74237 0.79742 0.97345 0.0
C579 C 0.71306 0.75678 0.97899 0.0
C580 C 0.67063 0.74475 0.98174 0.0
C581 C 0.6572 0.77318 0.97911 0.0
C582 C 0.68619 0.81374 0.97376 0.0
C583 C 0.72865 0.82593 0.97097 0.0
H584 H 0.62434 0.7638 0.98125 0.0
H585 H 0.03696 0.88034 0.95643 0.0
H586 H 0.9433 0.84201 0.35451 0.0
H587 H 0.96039 0.80014 0.33603 0.0
H588 H 0.03022 0.90667 0.30416 0.0
H589 H 0.01239 0.94856 0.32238 0.0
H590 H 0.97975 0.83609 0.28499 0.0
H591 H 0.08256 0.87641 0.33306 0.0
H592 H 0.10659 0.88338 0.36355 0.0
H593 H 0.03043 0.74864 0.36719 0.0
H594 H 0.00538 0.7409 0.33679 0.0
H595 H 0.06335 0.73315 0.23752 0.0
H596 H 0.05828 0.78446 0.25544 0.0
H597 H 0.99265 0.68987 0.2927 0.0
H598 H 0.00013 0.63946 0.27551 0.0
H599 H 0.04765 0.76051 0.30851 0.0
H600 H 0.93894 0.71895 0.26246 0.0
H601 H 0.91191 0.70878 0.23221 0.0
H602 H 0.99487 0.84162 0.22509 0.0
H603 H 0.02276 0.85251 0.25527 0.0
C604 C 0.96243 0.85663 0.34361 0.0
C605 C 0.97656 0.89865 0.33994 0.0
C606 C 0.97234 0.83269 0.33309 0.0
C607 C 0.99712 0.85046 0.31884 0.0
C608 C 0.01116 0.89237 0.31511 0.0
C609 C 0.00101 0.91627 0.32557 0.0
C610 C 0.0075 0.82495 0.30765 0.0
C611 C 0.99525 0.82011 0.29008 0.0
C612 C 0.02689 0.80338 0.31435 0.0
C613 C 0.04189 0.80811 0.33266 0.0
C614 C 0.07067 0.84829 0.3404 0.0
C615 C 0.08451 0.85236 0.35767 0.0
C616 C 0.07002 0.81645 0.36731 0.0
C617 C 0.04162 0.77641 0.35971 0.0
C618 C 0.02763 0.77217 0.34246 0.0
C619 C 0.04842 0.72345 0.24966 0.0
C620 C 0.03183 0.682 0.25499 0.0
C621 C 0.04505 0.75269 0.25978 0.0
C622 C 0.02439 0.74083 0.27529 0.0
C623 C 0.00853 0.69974 0.28076 0.0
C624 C 0.01238 0.67075 0.27078 0.0
C625 C 0.01906 0.77087 0.28593 0.0
C626 C 0.03244 0.77673 0.30339 0.0
C627 C 0.00021 0.79291 0.27917 0.0
C628 C 0.98325 0.78647 0.26107 0.0
C629 C 0.95162 0.74595 0.25441 0.0
C630 C 0.93611 0.74006 0.23729 0.0
C631 C 0.95174 0.77452 0.22673 0.0
C632 C 0.98284 0.81496 0.23328 0.0
C633 C -0.00152 0.82101 0.2504 0.0
H634 H 0.93965 0.76989 0.21348 0.0
H635 H 0.08083 0.81952 0.38065 0.0
H636 H 0.10984 0.05454 0.66398 0.0
H637 H 0.16817 0.07278 0.645 0.0
H638 H 0.11321 0.94068 0.63185 0.0
H639 H 0.05504 0.92212 0.65088 0.0
H640 H 0.19875 0.98076 0.63995 0.0
H641 H 0.10414 0.00485 0.60389 0.0
H642 H 0.06098 0.03629 0.59659 0.0
H643 H 0.17467 0.16049 0.60207 0.0
H644 H 0.21845 0.1298 0.60964 0.0
H645 H 0.31337 0.98818 0.5697 0.0
H646 H 0.25444 0.97806 0.58671 0.0
H647 H 0.3206 0.11246 0.59746 0.0
H648 H 0.37995 0.12284 0.58032 0.0
H649 H 0.23262 0.07605 0.59144 0.0
H650 H 0.32756 0.0527 0.62674 0.0
H651 H 0.37137 0.02199 0.63411 0.0
H652 H 0.25778 0.89754 0.63061 0.0
H653 H 0.21334 0.92746 0.62295 0.0
C654 C 0.11006 0.02936 0.657 0.0
C655 C 0.07781 0.98685 0.65895 0.0
C656 C 0.14332 0.03987 0.6461 0.0
C657 C 0.14482 0.00809 0.63693 0.0
C658 C 0.11262 0.96568 0.63882 0.0
C659 C 0.07935 0.95515 0.64968 0.0
C660 C 0.18067 0.01877 0.62577 0.0
C661 C 0.2058 0.00118 0.62922 0.0
C662 C 0.19074 0.04656 0.61213 0.0
C663 C 0.16449 0.06504 0.60751 0.0
C664 C 0.11988 0.03888 0.60368 0.0
C665 C 0.09532 0.05656 0.59946 0.0
C666 C 0.11505 0.10036 0.59892 0.0
C667 C 0.15942 0.12657 0.60253 0.0
C668 C 0.18413 0.10905 0.60677 0.0
C669 C 0.31531 0.01561 0.57564 0.0
C670 C 0.35152 0.05624 0.57393 0.0
C671 C 0.28161 0.00979 0.58532 0.0
C672 C 0.28359 0.04443 0.59361 0.0
C673 C 0.31861 0.08532 0.59121 0.0
C674 C 0.3524 0.0912 0.58143 0.0
C675 C 0.25004 0.03734 0.60545 0.0
C676 C 0.22556 0.05574 0.6022 0.0
C677 C 0.2406 0.01042 0.61936 0.0
C678 C 0.26717 0.99231 0.62413 0.0
C679 C 0.31196 0.01876 0.62742 0.0
C680 C 0.3369 0.0015 0.63167 0.0
C681 C 0.31738 0.95784 0.63279 0.0
C682 C 0.27286 0.93135 0.62972 0.0
C683 C 0.24777 0.94844 0.62544 0.0
H684 H 0.33675 0.94453 0.63608 0.0
H685 H 0.09597 0.11399 0.59565 0.0
H686 H 0.15616 0.05166 0.988 0.0
H687 H 0.19194 0.08626 0.96198 0.0
H688 H 0.1804 0.19249 0.97537 0.0
H689 H 0.14366 0.15773 0.00079 0.0
H690 H 0.16688 0.17845 0.94263 0.0
H691 H 0.27442 0.18913 0.98494 0.0
H692 H 0.30743 0.16055 0.00416 0.0
H693 H 0.31937 0.0949 0.96126 0.0
H694 H 0.28597 0.12279 0.94181 0.0
H695 H 0.36154 0.36648 0.92517 0.0
H696 H 0.30522 0.30437 0.93852 0.0
H697 H 0.30089 0.22464 0.89705 0.0
H698 H 0.35544 0.28701 0.8828 0.0
H699 H 0.31551 0.21011 0.93699 0.0
H700 H 0.22097 0.21677 0.8943 0.0
H701 H 0.19338 0.25323 0.87696 0.0
H702 H 0.16156 0.29351 0.92272 0.0
H703 H 0.18966 0.25788 0.94037 0.0
C704 C 0.16092 0.08219 0.98524 0.0
C705 C 0.14727 0.10206 0.99646 0.0
C706 C 0.18142 0.10196 0.97041 0.0
C707 C 0.18932 0.14223 0.9668 0.0
C708 C 0.1745 0.16135 0.97778 0.0
C709 C 0.15359 0.14146 0.99239 0.0
C710 C 0.21526 0.16625 0.95232 0.0
C711 C 0.19926 0.18508 0.94134 0.0
C712 C 0.25723 0.1743 0.95032 0.0
C713 C 0.2772 0.15753 0.96199 0.0
C714 C 0.28381 0.16835 0.97964 0.0
C715 C 0.30262 0.15233 0.99057 0.0
C716 C 0.31533 0.1258 0.98394 0.0
C717 C 0.30938 0.11535 0.96637 0.0
C718 C 0.29052 0.13125 0.9554 0.0
C719 C 0.348 0.33604 0.91855 0.0
C720 C 0.36323 0.33205 0.90282 0.0
C721 C 0.31603 0.30051 0.92632 0.0
C722 C 0.29909 0.26018 0.91872 0.0
C723 C 0.31379 0.25568 0.90306 0.0
C724 C 0.34522 0.29138 0.89504 0.0
C725 C 0.26748 0.22309 0.92786 0.0
C726 C 0.28253 0.2021 0.93789 0.0
C727 C 0.22501 0.21369 0.92922 0.0
C728 C 0.20772 0.23488 0.91866 0.0
C729 C 0.20846 0.23372 0.90068 0.0
C730 C 0.19265 0.25417 0.89079 0.0
C731 C 0.17579 0.27573 0.89873 0.0
C732 C 0.17463 0.2768 0.91658 0.0
C733 C 0.19045 0.25643 0.92654 0.0
H734 H 0.16357 0.29155 0.89106 0.0
H735 H 0.32991 0.11343 0.99242 0.0
H736 H 0.02669 0.08185 0.31886 0.0
H737 H 0.04998 0.13139 0.29566 0.0
H738 H 0.06658 0.22942 0.33107 0.0
H739 H 0.04458 0.18081 0.35426 0.0
H740 H 0.00821 0.16447 0.28341 0.0
H741 H 0.13549 0.32511 0.31913 0.0
H742 H 0.19722 0.35176 0.34022 0.0
H743 H 0.2122 0.24865 0.32619 0.0
H744 H 0.15098 0.22168 0.30482 0.0
H745 H 0.99007 0.33202 0.25752 0.0
H746 H 0.99712 0.27868 0.2724 0.0
H747 H 0.12438 0.33036 0.25411 0.0
H748 H 0.11759 0.38428 0.23926 0.0
H749 H 0.12512 0.31565 0.28684 0.0
H750 H 0.0407 0.23497 0.23762 0.0
H751 H 0.98197 0.20771 0.21508 0.0
H752 H 0.88845 0.14839 0.25298 0.0
H753 H 0.94656 0.17579 0.27579 0.0
C754 C 0.03635 0.11424 0.32179 0.0
C755 C 0.03329 0.12719 0.33841 0.0
C756 C 0.04958 0.1425 0.3085 0.0
C757 C 0.06019 0.18419 0.3116 0.0
C758 C 0.05937 0.1977 0.32837 0.0
C759 C 0.04637 0.16962 0.34163 0.0
C760 C 0.06668 0.21219 0.29721 0.0
C761 C 0.03415 0.19737 0.28402 0.0
C762 C 0.10117 0.25485 0.29768 0.0
C763 C 0.13844 0.27126 0.31039 0.0
C764 C 0.15212 0.30826 0.32044 0.0
C765 C 0.18699 0.32339 0.33248 0.0
C766 C 0.20857 0.30188 0.33456 0.0
C767 C 0.19538 0.26523 0.32459 0.0
C768 C 0.16054 0.24997 0.31253 0.0
C769 C 0.01932 0.33169 0.25647 0.0
C770 C 0.05322 0.36221 0.24719 0.0
C771 C 0.02331 0.30114 0.26496 0.0
C772 C 0.06102 0.30009 0.26414 0.0
C773 C 0.09496 0.33051 0.25486 0.0
C774 C 0.09108 0.36132 0.24644 0.0
C775 C 0.06534 0.26835 0.27374 0.0
C776 C 0.09986 0.2825 0.28599 0.0
C777 C 0.03325 0.22484 0.27215 0.0
C778 C -0.00193 0.20759 0.25844 0.0
C779 C 0.00761 0.21626 0.24117 0.0
C780 C 0.97441 0.20077 0.22833 0.0
C781 C 0.9315 0.17638 0.2326 0.0
C782 C 0.92171 0.16727 0.2497 0.0
C783 C 0.95478 0.18271 0.26258 0.0
H784 H 0.90581 0.16454 0.22268 0.0
H785 H 0.23554 0.31364 0.3439 0.0
loop_
_geom_bond_atom_site_label_1
_geom_bond_atom_site_label_2
_geom_bond_distance
_geom_bond_site_symmetry_2
_ccdc_geom_bond_type
Mg0 O1 2.028 1_545 S
Mg0 O7 1.986 . S
Mg0 O9 2.114 . S
Mg0 O10 2.251 . S
Mg0 O13 2.010 . S
O1 Mg0 2.028 1_565 S
O1 C4 1.250 1_455 S
O2 Mg3 2.029 . S
O2 C4 1.255 1_445 S
Mg3 O2 2.029 . S
Mg3 O8 2.032 . S
Mg3 O10 2.079 . S
C4 O1 1.250 1_655 S
C4 O2 1.255 1_665 S
C5 O6 1.264 . S
C5 O13 1.249 1_565 S
O6 C5 1.264 . S
O7 Mg0 1.986 . S
O7 C11 1.246 . S
O8 Mg3 2.032 . S
O8 C11 1.259 . S
O9 Mg0 2.114 . S
O9 C12 1.252 . S
O10 Mg0 2.251 . S
O10 Mg3 2.079 . S
O10 C12 1.273 . S
C11 O7 1.246 . S
C11 O8 1.259 . S
C12 O9 1.252 . S
C12 O10 1.273 . S
O13 Mg0 2.010 . S
O13 C5 1.249 1_545 S
Mg14 O15 2.028 1_655 S
Mg14 O21 1.986 1_655 S
Mg14 O23 2.114 1_545 S
Mg14 O24 2.251 . S
Mg14 O27 2.010 1_545 S
O15 Mg14 2.028 1_455 S
O15 C18 1.250 . S
O16 Mg17 2.028 . S
O16 C18 1.248 . S
Mg17 O16 2.028 . S
Mg17 O22 2.032 . S
Mg17 O24 2.079 1_455 S
C18 O15 1.250 . S
C18 O16 1.248 . S
C19 O20 1.264 . S
C19 O27 1.249 . S
O20 C19 1.264 . S
O21 Mg14 1.986 1_455 S
O21 C25 1.246 . S
O22 Mg17 2.032 . S
O22 C25 1.259 . S
O23 Mg14 2.114 1_565 S
O23 C26 1.252 1_565 S
O24 Mg14 2.251 . S
O24 Mg17 2.079 1_655 S
O24 C26 1.273 . S
C25 O21 1.246 . S
C25 O22 1.259 . S
C26 O23 1.252 1_545 S
C26 O24 1.273 . S
O27 Mg14 2.010 1_565 S
O27 C19 1.249 . S
Mg28 O29 2.028 1_565 S
Mg28 O35 1.986 1_465 S
Mg28 O37 2.114 . S
Mg28 O38 2.251 1_455 S
Mg28 O41 2.010 . S
O29 Mg28 2.028 1_545 S
O29 C32 1.250 . S
O30 Mg31 2.028 1_455 S
O30 C32 1.248 . S
Mg31 O30 2.028 1_655 S
Mg31 O36 2.032 . S
Mg31 O38 2.079 1_545 S
C32 O29 1.250 . S
C32 O30 1.248 . S
C33 O34 1.264 . S
C33 O41 1.249 . S
O34 C33 1.264 . S
O35 Mg28 1.986 1_645 S
O35 C39 1.246 . S
O36 Mg31 2.032 . S
O36 C39 1.259 . S
O37 Mg28 2.114 . S
O37 C40 1.252 1_455 S
O38 Mg28 2.251 1_655 S
O38 Mg31 2.079 1_565 S
O38 C40 1.273 . S
C39 O35 1.246 . S
C39 O36 1.259 . S
C40 O37 1.252 1_655 S
C40 O38 1.273 . S
O41 Mg28 2.010 . S
O41 C33 1.249 . S
H42 C61 0.949 . S
H43 C62 0.950 . S
H44 C64 0.950 1_655 S
H45 C65 0.950 1_655 S
H46 C67 0.950 . S
H47 C70 0.950 . S
H48 C71 0.950 . S
H49 C73 0.951 . S
H50 C74 0.949 . S
H51 C76 0.949 . S
H52 C77 0.950 . S
H53 C79 0.950 . S
H54 C80 0.950 . S
H55 C82 0.950 . S
H56 C85 0.950 1_655 S
H57 C86 0.950 1_655 S
H58 C88 0.951 . S
H59 C89 0.949 . S
C60 C61 1.376 . S
C60 C65 1.386 . S
C60 C66 1.483 . S
C61 H42 0.949 . S
C61 C60 1.376 . S
C61 C62 1.397 . S
C62 H43 0.950 . S
C62 C61 1.397 . S
C62 C63 1.391 . S
C63 C62 1.391 . S
C63 C64 1.405 . S
C64 H44 0.950 1_455 S
C64 C63 1.405 . S
C64 C65 1.367 . S
C65 H45 0.950 1_455 S
C65 C60 1.386 . S
C65 C64 1.367 . S
C66 C60 1.483 . S
C66 C67 1.382 . S
C66 C68 1.403 . S
C67 H46 0.950 . S
C67 C66 1.382 . S
C67 C83 1.411 . S
C68 C66 1.403 . S
C68 C69 1.489 . S
C68 C82 1.411 . S
C69 C68 1.489 . S
C69 C70 1.383 . S
C69 C74 1.382 1_455 S
C70 H47 0.950 . S
C70 C69 1.383 . S
C70 C71 1.395 . S
C71 H48 0.950 . S
C71 C70 1.395 . S
C71 C72 1.288 . S
C72 C71 1.288 . S
C72 C73 1.392 1_455 S
C73 H49 0.951 . S
C73 C72 1.392 1_655 S
C73 C74 1.392 . S
C74 H50 0.949 . S
C74 C69 1.382 1_655 S
C74 C73 1.392 . S
C75 C76 1.376 1_455 S
C75 C80 1.386 . S
C75 C81 1.483 . S
C76 H51 0.949 . S
C76 C75 1.376 1_655 S
C76 C77 1.397 . S
C77 H52 0.950 . S
C77 C76 1.397 . S
C77 C78 1.391 1_655 S
C78 C77 1.391 1_455 S
C78 C79 1.405 . S
C79 H53 0.950 . S
C79 C78 1.405 . S
C79 C80 1.367 . S
C80 H54 0.950 . S
C80 C75 1.386 . S
C80 C79 1.367 . S
C81 C75 1.483 . S
C81 C82 1.382 . S
C81 C83 1.403 . S
C82 H55 0.950 . S
C82 C68 1.411 . S
C82 C81 1.382 . S
C83 C67 1.411 . S
C83 C81 1.403 . S
C83 C84 1.489 . S
C84 C83 1.489 . S
C84 C85 1.383 . S
C84 C89 1.382 . S
C85 H56 0.950 1_455 S
C85 C84 1.383 . S
C85 C86 1.395 . S
C86 H57 0.950 1_455 S
C86 C85 1.395 . S
C86 C87 1.288 . S
C87 C86 1.288 . S
C87 C88 1.392 . S
C88 H58 0.951 . S
C88 C87 1.392 . S
C88 C89 1.392 . S
C89 H59 0.949 . S
C89 C84 1.382 . S
C89 C88 1.392 . S
H90 C109 0.949 . S
H91 C110 0.950 . S
H92 C112 0.950 1_565 S
H93 C113 0.950 1_565 S
H94 C115 0.950 . S
H95 C118 0.950 . S
H96 C119 0.950 . S
H97 C121 0.951 1_565 S
H98 C122 0.949 1_565 S
H99 C124 0.949 1_565 S
H100 C125 0.950 1_565 S
H101 C127 0.950 . S
H102 C128 0.950 . S
H103 C130 0.950 . S
H104 C133 0.950 1_565 S
H105 C134 0.954 . S
H106 C136 0.951 . S
H107 C137 0.949 . S
C108 C109 1.376 . S
C108 C113 1.386 . S
C108 C114 1.483 . S
C109 H90 0.949 . S
C109 C108 1.376 . S
C109 C110 1.397 . S
C110 H91 0.950 . S
C110 C109 1.397 . S
C110 C111 1.391 . S
C111 C110 1.391 . S
C111 C112 1.405 . S
C112 H92 0.950 1_545 S
C112 C111 1.405 . S
C112 C113 1.367 . S
C113 H93 0.950 1_545 S
C113 C108 1.386 . S
C113 C112 1.367 . S
C114 C108 1.483 . S
C114 C115 1.382 . S
C114 C116 1.403 . S
C115 H94 0.950 . S
C115 C114 1.382 . S
C115 C131 1.411 . S
C116 C114 1.403 . S
C116 C117 1.489 . S
C116 C130 1.411 . S
C117 C116 1.489 . S
C117 C118 1.383 . S
C117 C122 1.382 . S
C118 H95 0.950 . S
C118 C117 1.383 . S
C118 C119 1.395 . S
C119 H96 0.950 . S
C119 C118 1.395 . S
C119 C120 1.288 . S
C120 C119 1.288 . S
C120 C121 1.392 . S
C121 H97 0.951 1_545 S
C121 C120 1.392 . S
C121 C122 1.392 . S
C122 H98 0.949 1_545 S
C122 C117 1.382 . S
C122 C121 1.392 . S
C123 C124 1.376 . S
C123 C128 1.386 . S
C123 C129 1.483 . S
C124 H99 0.949 1_545 S
C124 C123 1.376 . S
C124 C125 1.397 . S
C125 H100 0.950 1_545 S
C125 C124 1.397 . S
C125 C126 1.391 . S
C126 C125 1.391 . S
C126 C127 1.405 . S
C127 H101 0.950 . S
C127 C126 1.405 . S
C127 C128 1.367 . S
C128 H102 0.950 . S
C128 C123 1.386 . S
C128 C127 1.367 . S
C129 C123 1.483 . S
C129 C130 1.382 . S
C129 C131 1.403 . S
C130 H103 0.950 . S
C130 C116 1.411 . S
C130 C129 1.382 . S
C131 C115 1.411 . S
C131 C129 1.403 . S
C131 C132 1.489 . S
C132 C131 1.489 . S
C132 C133 1.383 . S
C132 C137 1.382 . S
C133 H104 0.950 1_545 S
C133 C132 1.383 . S
C133 C134 1.395 . S
C134 H105 0.954 . S
C134 C133 1.395 . S
C134 C135 1.288 . S
C135 C134 1.288 . S
C135 C136 1.392 . S
C136 H106 0.951 . S
C136 C135 1.392 . S
C136 C137 1.392 . S
C137 H107 0.949 . S
C137 C132 1.382 . S
C137 C136 1.392 . S
H138 C157 0.949 . S
H139 C158 0.950 . S
H140 C160 0.950 . S
H141 C161 0.950 . S
H142 C163 0.950 . S
H143 C166 0.950 . S
H144 C167 0.950 . S
H145 C169 0.951 . S
H146 C170 0.949 . S
H147 C172 0.949 . S
H148 C173 0.950 . S
H149 C175 0.950 . S
H150 C176 0.950 . S
H151 C178 0.950 . S
H152 C181 0.950 . S
H153 C182 0.950 . S
H154 C184 0.951 . S
H155 C185 0.949 . S
C156 C157 1.376 . S
C156 C161 1.386 . S
C156 C162 1.483 . S
C157 H138 0.949 . S
C157 C156 1.376 . S
C157 C158 1.397 . S
C158 H139 0.950 . S
C158 C157 1.397 . S
C158 C159 1.391 . S
C159 C158 1.391 . S
C159 C160 1.405 . S
C160 H140 0.950 . S
C160 C159 1.405 . S
C160 C161 1.367 . S
C161 H141 0.950 . S
C161 C156 1.386 . S
C161 C160 1.367 . S
C162 C156 1.483 . S
C162 C163 1.382 . S
C162 C164 1.403 . S
C163 H142 0.950 . S
C163 C162 1.382 . S
C163 C179 1.411 . S
C164 C162 1.403 . S
C164 C165 1.489 . S
C164 C178 1.411 . S
C165 C164 1.489 . S
C165 C166 1.383 . S
C165 C170 1.382 . S
C166 H143 0.950 . S
C166 C165 1.383 . S
C166 C167 1.395 . S
C167 H144 0.950 . S
C167 C166 1.395 . S
C167 C168 1.288 . S
C168 C167 1.288 . S
C168 C169 1.392 . S
C169 H145 0.951 . S
C169 C168 1.392 . S
C169 C170 1.392 . S
C170 H146 0.949 . S
C170 C165 1.382 . S
C170 C169 1.392 . S
C171 C172 1.376 . S
C171 C176 1.386 . S
C171 C177 1.483 . S
C172 H147 0.949 . S
C172 C171 1.376 . S
C172 C173 1.397 . S
C173 H148 0.950 . S
C173 C172 1.397 . S
C173 C174 1.391 . S
C174 C173 1.391 . S
C174 C175 1.405 . S
C175 H149 0.950 . S
C175 C174 1.405 . S
C175 C176 1.367 . S
C176 H150 0.950 . S
C176 C171 1.386 . S
C176 C175 1.367 . S
C177 C171 1.483 . S
C177 C178 1.382 . S
C177 C179 1.403 . S
C178 H151 0.950 . S
C178 C164 1.411 . S
C178 C177 1.382 . S
C179 C163 1.411 . S
C179 C177 1.403 . S
C179 C180 1.489 . S
C180 C179 1.489 . S
C180 C181 1.383 . S
C180 C185 1.382 . S
C181 H152 0.950 . S
C181 C180 1.383 . S
C181 C182 1.395 . S
C182 H153 0.950 . S
C182 C181 1.395 . S
C182 C183 1.288 . S
C183 C182 1.288 . S
C183 C184 1.392 . S
C184 H154 0.951 . S
C184 C183 1.392 . S
C184 C185 1.392 . S
C185 H155 0.949 . S
C185 C180 1.382 . S
C185 C184 1.392 . S
H186 C204 0.951 1_655 S
H187 C206 0.951 1_655 S
H188 C208 0.950 . S
H189 C209 0.950 . S
H190 C211 0.950 . S
H191 C214 0.950 . S
H192 C215 0.950 . S
H193 C217 0.950 . S
H194 C218 0.950 1_655 S
H195 C219 0.951 . S
H196 C221 0.951 . S
H197 C223 0.950 1_655 S
H198 C224 0.950 1_655 S
H199 C226 0.950 . S
H200 C229 0.950 . S
H201 C230 0.950 . S
H202 C232 0.950 . S
H203 C233 0.950 . S
C204 H186 0.951 1_455 S
C204 C205 1.366 . S
C204 C206 1.388 . S
C205 C204 1.366 . S
C205 C209 1.385 . S
C206 H187 0.951 1_455 S
C206 C204 1.388 . S
C206 C207 1.366 . S
C207 C206 1.366 . S
C207 C208 1.414 . S
C207 C210 1.499 . S
C208 H188 0.950 . S
C208 C207 1.414 . S
C208 C209 1.374 . S
C209 H189 0.950 . S
C209 C205 1.385 . S
C209 C208 1.374 . S
C210 C207 1.499 . S
C210 C211 1.373 . S
C210 C212 1.389 . S
C211 H190 0.950 . S
C211 C210 1.373 . S
C211 C227 1.377 . S
C212 C210 1.389 . S
C212 C213 1.524 . S
C212 C226 1.377 . S
C213 C212 1.524 . S
C213 C214 1.397 . S
C213 C218 1.363 . S
C214 H191 0.950 . S
C214 C213 1.397 . S
C214 C215 1.334 . S
C215 H192 0.950 . S
C215 C214 1.334 . S
C215 C216 1.287 . S
C216 C215 1.287 . S
C216 C217 1.524 . S
C216 H235 0.913 . S
C217 H193 0.950 . S
C217 C216 1.524 . S
C217 C218 1.415 . S
C218 H194 0.950 1_455 S
C218 C213 1.363 . S
C218 C217 1.415 . S
C219 H195 0.951 . S
C219 C220 1.366 . S
C219 C221 1.388 . S
C220 C219 1.366 . S
C220 C224 1.385 . S
C221 H196 0.951 . S
C221 C219 1.388 . S
C221 C222 1.366 . S
C222 C221 1.366 . S
C222 C223 1.414 . S
C222 C225 1.499 . S
C223 H197 0.950 1_455 S
C223 C222 1.414 . S
C223 C224 1.374 . S
C224 H198 0.950 1_455 S
C224 C220 1.385 . S
C224 C223 1.374 . S
C225 C222 1.499 . S
C225 C226 1.373 . S
C225 C227 1.389 . S
C226 H199 0.950 . S
C226 C212 1.377 . S
C226 C225 1.373 . S
C227 C211 1.377 . S
C227 C225 1.389 . S
C227 C228 1.524 . S
C228 C227 1.524 . S
C228 C229 1.397 1_455 S
C228 C233 1.363 . S
C229 H200 0.950 . S
C229 C228 1.397 1_655 S
C229 C230 1.334 . S
C230 H201 0.950 . S
C230 C229 1.334 . S
C230 C231 1.287 1_655 S
C231 C230 1.287 1_455 S
C231 C232 1.524 . S
C231 H234 0.999 . S
C232 H202 0.950 . S
C232 C231 1.524 . S
C232 C233 1.415 . S
C233 H203 0.950 . S
C233 C228 1.363 . S
C233 C232 1.415 . S
H234 C231 0.999 . S
H235 C216 0.913 . S
H236 C254 0.951 . S
H237 C256 0.951 . S
H238 C258 0.950 . S
H239 C259 0.950 . S
H240 C261 0.950 . S
H241 C264 0.950 . S
H242 C265 0.950 . S
H243 C267 0.950 . S
H244 C268 0.950 1_545 S
H245 C269 0.951 . S
H246 C271 0.951 . S
H247 C273 0.950 . S
H248 C274 0.950 . S
H249 C276 0.950 . S
H250 C279 0.950 . S
H251 C280 0.950 . S
H252 C282 0.950 . S
H253 C283 0.950 . S
C254 H236 0.951 . S
C254 C255 1.371 . S
C254 C256 1.388 . S
C255 C254 1.371 . S
C255 C259 1.388 1_545 S
C256 H237 0.951 . S
C256 C254 1.388 . S
C256 C257 1.366 . S
C257 C256 1.366 . S
C257 C258 1.414 1_545 S
C257 C260 1.499 . S
C258 H238 0.950 . S
C258 C257 1.414 1_565 S
C258 C259 1.374 . S
C259 H239 0.950 . S
C259 C255 1.388 1_565 S
C259 C258 1.374 . S
C260 C257 1.499 . S
C260 C261 1.373 . S
C260 C262 1.389 . S
C261 H240 0.950 . S
C261 C260 1.373 . S
C261 C277 1.377 . S
C262 C260 1.389 . S
C262 C263 1.524 1_545 S
C262 C276 1.377 . S
C263 C262 1.524 1_565 S
C263 C264 1.397 . S
C263 C268 1.363 . S
C264 H241 0.950 . S
C264 C263 1.397 . S
C264 C265 1.334 . S
C265 H242 0.950 . S
C265 C264 1.334 . S
C265 C266 1.287 . S
C266 C265 1.287 . S
C266 C267 1.524 . S
C266 H285 0.913 . S
C267 H243 0.950 . S
C267 C266 1.524 . S
C267 C268 1.415 . S
C268 H244 0.950 1_565 S
C268 C263 1.363 . S
C268 C267 1.415 . S
C269 H245 0.951 . S
C269 C270 1.366 . S
C269 C271 1.388 . S
C270 C269 1.366 . S
C270 C274 1.385 . S
C271 H246 0.951 . S
C271 C269 1.388 . S
C271 C272 1.366 . S
C272 C271 1.366 . S
C272 C273 1.414 . S
C272 C275 1.499 . S
C273 H247 0.950 . S
C273 C272 1.414 . S
C273 C274 1.374 . S
C274 H248 0.950 . S
C274 C270 1.385 . S
C274 C273 1.374 . S
C275 C272 1.499 . S
C275 C276 1.373 . S
C275 C277 1.389 . S
C276 H249 0.950 . S
C276 C262 1.377 . S
C276 C275 1.373 . S
C277 C261 1.377 . S
C277 C275 1.389 . S
C277 C278 1.524 . S
C278 C277 1.524 . S
C278 C279 1.397 . S
C278 C283 1.363 . S
C279 H250 0.950 . S
C279 C278 1.397 . S
C279 C280 1.334 . S
C280 H251 0.950 . S
C280 C279 1.334 . S
C280 C281 1.287 . S
C281 C280 1.287 . S
C281 C282 1.524 . S
C281 H284 0.999 . S
C282 H252 0.950 . S
C282 C281 1.524 . S
C282 C283 1.415 . S
C283 H253 0.950 . S
C283 C278 1.363 . S
C283 C282 1.415 . S
H284 C281 0.999 . S
H285 C266 0.913 . S
H286 C304 0.951 . S
H287 C306 0.951 . S
H288 C308 0.950 . S
H289 C309 0.950 . S
H290 C311 0.950 . S
H291 C314 0.950 . S
H292 C315 0.950 . S
H293 C317 0.950 . S
H294 C318 0.950 . S
H295 C319 0.951 . S
H296 C321 0.951 . S
H297 C323 0.950 . S
H298 C324 0.950 . S
H299 C326 0.950 . S
H300 C329 0.950 . S
H301 C330 0.950 . S
H302 C332 0.950 . S
H303 C333 0.950 . S
C304 H286 0.951 . S
C304 C305 1.366 . S
C304 C306 1.388 . S
C305 C304 1.366 . S
C305 C309 1.385 . S
C306 H287 0.951 . S
C306 C304 1.388 . S
C306 C307 1.366 . S
C307 C306 1.366 . S
C307 C308 1.414 . S
C307 C310 1.499 . S
C308 H288 0.950 . S
C308 C307 1.414 . S
C308 C309 1.374 . S
C309 H289 0.950 . S
C309 C305 1.385 . S
C309 C308 1.374 . S
C310 C307 1.499 . S
C310 C311 1.373 . S
C310 C312 1.389 . S
C311 H290 0.950 . S
C311 C310 1.373 . S
C311 C327 1.377 . S
C312 C310 1.389 . S
C312 C313 1.524 . S
C312 C326 1.377 . S
C313 C312 1.524 . S
C313 C314 1.397 . S
C313 C318 1.363 . S
C314 H291 0.950 . S
C314 C313 1.397 . S
C314 C315 1.334 . S
C315 H292 0.950 . S
C315 C314 1.334 . S
C315 C316 1.287 . S
C316 C315 1.287 . S
C316 C317 1.524 . S
C316 H335 0.913 . S
C317 H293 0.950 . S
C317 C316 1.524 . S
C317 C318 1.415 . S
C318 H294 0.950 . S
C318 C313 1.363 . S
C318 C317 1.415 . S
C319 H295 0.951 . S
C319 C320 1.366 . S
C319 C321 1.388 . S
C320 C319 1.366 . S
C320 C324 1.385 . S
C321 H296 0.951 . S
C321 C319 1.388 . S
C321 C322 1.366 . S
C322 C321 1.366 . S
C322 C323 1.414 . S
C322 C325 1.499 . S
C323 H297 0.950 . S
C323 C322 1.414 . S
C323 C324 1.374 . S
C324 H298 0.950 . S
C324 C320 1.385 . S
C324 C323 1.374 . S
C325 C322 1.499 . S
C325 C326 1.373 . S
C325 C327 1.389 . S
C326 H299 0.950 . S
C326 C312 1.377 . S
C326 C325 1.373 . S
C327 C311 1.377 . S
C327 C325 1.389 . S
C327 C328 1.524 . S
C328 C327 1.524 . S
C328 C329 1.397 . S
C328 C333 1.363 . S
C329 H300 0.950 . S
C329 C328 1.397 . S
C329 C330 1.334 . S
C330 H301 0.950 . S
C330 C329 1.334 . S
C330 C331 1.287 . S
C331 C330 1.287 . S
C331 C332 1.524 . S
C331 H334 0.999 . S
C332 H302 0.950 . S
C332 C331 1.524 . S
C332 C333 1.415 . S
C333 H303 0.950 . S
C333 C328 1.363 . S
C333 C332 1.415 . S
H334 C331 0.999 . S
H335 C316 0.913 . S
H336 C354 0.951 . S
H337 C356 0.951 . S
H338 C358 0.950 . S
H339 C359 0.950 . S
H340 C361 0.950 1_655 S
H341 C364 0.950 . S
H342 C365 0.950 . S
H343 C367 0.950 . S
H344 C368 0.950 . S
H345 C369 0.951 1_655 S
H346 C371 0.951 1_655 S
H347 C373 0.950 . S
H348 C374 0.950 . S
H349 C376 0.950 . S
H350 C379 0.950 . S
H351 C380 0.950 . S
H352 C382 0.950 . S
H353 C383 0.950 . S
C354 H336 0.951 . S
C354 C355 1.366 . S
C354 C356 1.388 . S
C355 C354 1.366 . S
C355 C359 1.385 . S
C356 H337 0.951 . S
C356 C354 1.388 . S
C356 C357 1.366 . S
C357 C356 1.366 . S
C357 C358 1.414 . S
C357 C360 1.499 . S
C358 H338 0.950 . S
C358 C357 1.414 . S
C358 C359 1.374 . S
C359 H339 0.950 . S
C359 C355 1.385 . S
C359 C358 1.374 . S
C360 C357 1.499 . S
C360 C361 1.373 . S
C360 C362 1.389 . S
C361 H340 0.950 1_455 S
C361 C360 1.373 . S
C361 C377 1.377 . S
C362 C360 1.389 . S
C362 C363 1.524 . S
C362 C376 1.377 . S
C363 C362 1.524 . S
C363 C364 1.397 . S
C363 C368 1.363 . S
C364 H341 0.950 . S
C364 C363 1.397 . S
C364 C365 1.334 . S
C365 H342 0.950 . S
C365 C364 1.334 . S
C365 C366 1.287 . S
C366 C365 1.287 . S
C366 C367 1.524 . S
C366 H385 0.913 . S
C367 H343 0.950 . S
C367 C366 1.524 . S
C367 C368 1.415 . S
C368 H344 0.950 . S
C368 C363 1.363 . S
C368 C367 1.415 . S
C369 H345 0.951 1_455 S
C369 C370 1.366 . S
C369 C371 1.388 . S
C370 C369 1.366 . S
C370 C374 1.385 . S
C371 H346 0.951 1_455 S
C371 C369 1.388 . S
C371 C372 1.366 . S
C372 C371 1.366 . S
C372 C373 1.414 . S
C372 C375 1.499 . S
C373 H347 0.950 . S
C373 C372 1.414 . S
C373 C374 1.374 . S
C374 H348 0.950 . S
C374 C370 1.385 . S
C374 C373 1.374 . S
C375 C372 1.499 . S
C375 C376 1.373 . S
C375 C377 1.389 . S
C376 H349 0.950 . S
C376 C362 1.377 . S
C376 C375 1.373 . S
C377 C361 1.377 . S
C377 C375 1.389 . S
C377 C378 1.524 1_455 S
C378 C377 1.524 1_655 S
C378 C379 1.397 . S
C378 C383 1.363 . S
C379 H350 0.950 . S
C379 C378 1.397 . S
C379 C380 1.334 . S
C380 H351 0.950 . S
C380 C379 1.334 . S
C380 C381 1.287 . S
C381 C380 1.287 . S
C381 C382 1.524 . S
C381 H384 0.999 . S
C382 H352 0.950 . S
C382 C381 1.524 . S
C382 C383 1.415 . S
C383 H353 0.950 . S
C383 C378 1.363 . S
C383 C382 1.415 . S
H384 C381 0.999 . S
H385 C366 0.913 . S
H386 C404 0.951 . S
H387 C406 0.951 . S
H388 C408 0.950 . S
H389 C409 0.950 . S
H390 C411 0.950 . S
H391 C414 0.950 . S
H392 C415 0.950 . S
H393 C417 0.950 . S
H394 C418 0.950 . S
H395 C419 0.951 . S
H396 C421 0.951 . S
H397 C423 0.950 . S
H398 C424 0.950 . S
H399 C426 0.950 1_565 S
H400 C429 0.950 . S
H401 C430 0.950 . S
H402 C432 0.950 . S
H403 C433 0.950 . S
C404 H386 0.951 . S
C404 C405 1.366 . S
C404 C406 1.388 . S
C405 C404 1.366 . S
C405 C409 1.385 . S
C406 H387 0.951 . S
C406 C404 1.388 . S
C406 C407 1.366 . S
C407 C406 1.366 . S
C407 C408 1.414 . S
C407 C410 1.499 . S
C408 H388 0.950 . S
C408 C407 1.414 . S
C408 C409 1.374 . S
C409 H389 0.950 . S
C409 C405 1.385 . S
C409 C408 1.374 . S
C410 C407 1.499 . S
C410 C411 1.373 . S
C410 C412 1.389 . S
C411 H390 0.950 . S
C411 C410 1.373 . S
C411 C427 1.377 . S
C412 C410 1.389 . S
C412 C413 1.524 1_545 S
C412 C426 1.377 . S
C413 C412 1.524 1_565 S
C413 C414 1.397 . S
C413 C418 1.363 . S
C414 H391 0.950 . S
C414 C413 1.397 . S
C414 C415 1.334 . S
C415 H392 0.950 . S
C415 C414 1.334 . S
C415 C416 1.287 . S
C416 C415 1.287 . S
C416 C417 1.524 . S
C416 H435 0.913 . S
C417 H393 0.950 . S
C417 C416 1.524 . S
C417 C418 1.415 . S
C418 H394 0.950 . S
C418 C413 1.363 . S
C418 C417 1.415 . S
C419 H395 0.951 . S
C419 C420 1.366 . S
C419 C421 1.388 . S
C420 C419 1.366 . S
C420 C424 1.385 . S
C421 H396 0.951 . S
C421 C419 1.388 . S
C421 C422 1.366 . S
C422 C421 1.366 . S
C422 C423 1.414 . S
C422 C425 1.499 . S
C423 H397 0.950 . S
C423 C422 1.414 . S
C423 C424 1.374 . S
C424 H398 0.950 . S
C424 C420 1.385 . S
C424 C423 1.374 . S
C425 C422 1.499 . S
C425 C426 1.373 . S
C425 C427 1.389 . S
C426 H399 0.950 1_545 S
C426 C412 1.377 . S
C426 C425 1.373 . S
C427 C411 1.377 . S
C427 C425 1.389 . S
C427 C428 1.524 . S
C428 C427 1.524 . S
C428 C429 1.397 . S
C428 C433 1.363 . S
C429 H400 0.950 . S
C429 C428 1.397 . S
C429 C430 1.334 . S
C430 H401 0.950 . S
C430 C429 1.334 . S
C430 C431 1.287 . S
C431 C430 1.287 . S
C431 C432 1.524 . S
C431 H434 0.999 . S
C432 H402 0.950 . S
C432 C431 1.524 . S
C432 C433 1.415 . S
C433 H403 0.950 . S
C433 C428 1.363 . S
C433 C432 1.415 . S
H434 C431 0.999 . S
H435 C416 0.913 . S
H436 C454 0.951 . S
H437 C456 0.951 . S
H438 C458 0.950 . S
H439 C459 0.950 . S
H440 C461 0.950 . S
H441 C464 0.950 . S
H442 C465 0.950 . S
H443 C467 0.950 . S
H444 C468 0.950 . S
H445 C469 0.951 . S
H446 C471 0.951 . S
H447 C473 0.950 . S
H448 C474 0.950 . S
H449 C476 0.950 . S
H450 C479 0.950 . S
H451 C480 0.950 . S
H452 C482 0.950 . S
H453 C483 0.950 . S
C454 H436 0.951 . S
C454 C455 1.366 . S
C454 C456 1.388 . S
C455 C454 1.366 . S
C455 C459 1.385 . S
C456 H437 0.951 . S
C456 C454 1.388 . S
C456 C457 1.366 . S
C457 C456 1.366 . S
C457 C458 1.414 . S
C457 C460 1.499 . S
C458 H438 0.950 . S
C458 C457 1.414 . S
C458 C459 1.374 . S
C459 H439 0.950 . S
C459 C455 1.385 . S
C459 C458 1.374 . S
C460 C457 1.499 . S
C460 C461 1.373 . S
C460 C462 1.389 . S
C461 H440 0.950 . S
C461 C460 1.373 . S
C461 C477 1.377 . S
C462 C460 1.389 . S
C462 C463 1.524 . S
C462 C476 1.377 . S
C463 C462 1.524 . S
C463 C464 1.397 . S
C463 C468 1.363 . S
C464 H441 0.950 . S
C464 C463 1.397 . S
C464 C465 1.334 . S
C465 H442 0.950 . S
C465 C464 1.334 . S
C465 C466 1.287 . S
C466 C465 1.287 . S
C466 C467 1.524 . S
C466 H485 0.913 . S
C467 H443 0.950 . S
C467 C466 1.524 . S
C467 C468 1.415 . S
C468 H444 0.950 . S
C468 C463 1.363 . S
C468 C467 1.415 . S
C469 H445 0.951 . S
C469 C470 1.366 . S
C469 C471 1.388 . S
C470 C469 1.366 . S
C470 C474 1.385 . S
C471 H446 0.951 . S
C471 C469 1.388 . S
C471 C472 1.366 . S
C472 C471 1.366 . S
C472 C473 1.414 . S
C472 C475 1.499 . S
C473 H447 0.950 . S
C473 C472 1.414 . S
C473 C474 1.374 . S
C474 H448 0.950 . S
C474 C470 1.385 . S
C474 C473 1.374 . S
C475 C472 1.499 . S
C475 C476 1.373 . S
C475 C477 1.389 . S
C476 H449 0.950 . S
C476 C462 1.377 . S
C476 C475 1.373 . S
C477 C461 1.377 . S
C477 C475 1.389 . S
C477 C478 1.524 . S
C478 C477 1.524 . S
C478 C479 1.397 . S
C478 C483 1.363 . S
C479 H450 0.950 . S
C479 C478 1.397 . S
C479 C480 1.334 . S
C480 H451 0.950 . S
C480 C479 1.334 . S
C480 C481 1.287 . S
C481 C480 1.287 . S
C481 C482 1.524 . S
C481 H484 0.999 . S
C482 H452 0.950 . S
C482 C481 1.524 . S
C482 C483 1.415 . S
C483 H453 0.950 . S
C483 C478 1.363 . S
C483 C482 1.415 . S
H484 C481 0.999 . S
H485 C466 0.913 . S
H486 C504 0.951 . S
H487 C506 0.951 . S
H488 C508 0.950 . S
H489 C509 0.950 . S
H490 C511 0.950 1_565 S
H491 C514 0.950 . S
H492 C515 0.950 . S
H493 C517 0.950 . S
H494 C518 0.950 . S
H495 C519 0.951 . S
H496 C521 0.951 . S
H497 C523 0.950 . S
H498 C524 0.950 . S
H499 C526 0.950 . S
H500 C529 0.950 . S
H501 C530 0.950 . S
H502 C532 0.950 . S
H503 C533 0.950 . S
C504 H486 0.951 . S
C504 C505 1.366 . S
C504 C506 1.388 . S
C505 C504 1.366 . S
C505 C509 1.385 . S
C506 H487 0.951 . S
C506 C504 1.388 . S
C506 C507 1.366 . S
C507 C506 1.366 . S
C507 C508 1.414 . S
C507 C510 1.499 . S
C508 H488 0.950 . S
C508 C507 1.414 . S
C508 C509 1.374 . S
C509 H489 0.950 . S
C509 C505 1.385 . S
C509 C508 1.374 . S
C510 C507 1.499 . S
C510 C511 1.373 . S
C510 C512 1.389 . S
C511 H490 0.950 1_545 S
C511 C510 1.373 . S
C511 C527 1.377 . S
C512 C510 1.389 . S
C512 C513 1.524 . S
C512 C526 1.377 . S
C513 C512 1.524 . S
C513 C514 1.397 . S
C513 C518 1.363 . S
C514 H491 0.950 . S
C514 C513 1.397 . S
C514 C515 1.334 . S
C515 H492 0.950 . S
C515 C514 1.334 . S
C515 C516 1.287 . S
C516 C515 1.287 . S
C516 C517 1.524 . S
C516 H535 0.913 . S
C517 H493 0.950 . S
C517 C516 1.524 . S
C517 C518 1.415 . S
C518 H494 0.950 . S
C518 C513 1.363 . S
C518 C517 1.415 . S
C519 H495 0.951 . S
C519 C520 1.366 . S
C519 C521 1.388 . S
C520 C519 1.366 . S
C520 C524 1.385 . S
C521 H496 0.951 . S
C521 C519 1.388 . S
C521 C522 1.366 . S
C522 C521 1.366 . S
C522 C523 1.414 . S
C522 C525 1.499 . S
C523 H497 0.950 . S
C523 C522 1.414 . S
C523 C524 1.374 . S
C524 H498 0.950 . S
C524 C520 1.385 . S
C524 C523 1.374 . S
C525 C522 1.499 . S
C525 C526 1.373 . S
C525 C527 1.389 . S
C526 H499 0.950 . S
C526 C512 1.377 . S
C526 C525 1.373 . S
C527 C511 1.377 . S
C527 C525 1.389 . S
C527 C528 1.524 1_545 S
C528 C527 1.524 1_565 S
C528 C529 1.397 . S
C528 C533 1.363 . S
C529 H500 0.950 . S
C529 C528 1.397 . S
C529 C530 1.334 . S
C530 H501 0.950 . S
C530 C529 1.334 . S
C530 C531 1.287 . S
C531 C530 1.287 . S
C531 C532 1.524 . S
C531 H534 0.999 . S
C532 H502 0.950 . S
C532 C531 1.524 . S
C532 C533 1.415 . S
C533 H503 0.950 . S
C533 C528 1.363 . S
C533 C532 1.415 . S
H534 C531 0.999 . S
H535 C516 0.913 . S
H536 C554 0.951 . S
H537 C556 0.951 . S
H538 C558 0.950 . S
H539 C559 0.950 . S
H540 C561 0.950 . S
H541 C564 0.950 . S
H542 C565 0.950 1_455 S
H543 C567 0.950 . S
H544 C568 0.950 . S
H545 C569 0.951 . S
H546 C571 0.951 . S
H547 C573 0.950 . S
H548 C574 0.950 . S
H549 C576 0.950 . S
H550 C579 0.950 . S
H551 C580 0.950 . S
H552 C582 0.950 . S
H553 C583 0.950 . S
C554 H536 0.951 . S
C554 C555 1.366 . S
C554 C556 1.388 1_554 S
C555 C554 1.366 . S
C555 C559 1.385 . S
C556 H537 0.951 . S
C556 C554 1.388 1_556 S
C556 C557 1.366 . S
C557 C556 1.366 . S
C557 C558 1.414 . S
C557 C560 1.499 . S
C558 H538 0.950 . S
C558 C557 1.414 . S
C558 C559 1.374 1_556 S
C559 H539 0.950 . S
C559 C555 1.385 . S
C559 C558 1.374 1_554 S
C560 C557 1.499 . S
C560 C561 1.373 . S
C560 C562 1.389 . S
C561 H540 0.950 . S
C561 C560 1.373 . S
C561 C577 1.377 . S
C562 C560 1.389 . S
C562 C563 1.524 . S
C562 C576 1.377 . S
C563 C562 1.524 . S
C563 C564 1.397 . S
C563 C568 1.363 . S
C564 H541 0.950 . S
C564 C563 1.397 . S
C564 C565 1.334 . S
C565 H542 0.950 1_655 S
C565 C564 1.334 . S
C565 C566 1.281 1_655 S
C566 C565 1.281 1_455 S
C566 C567 1.523 1_455 S
C566 H585 0.920 . S
C567 H543 0.950 . S
C567 C566 1.523 1_655 S
C567 C568 1.415 . S
C568 H544 0.950 . S
C568 C563 1.363 . S
C568 C567 1.415 . S
C569 H545 0.951 . S
C569 C570 1.366 . S
C569 C571 1.388 . S
C570 C569 1.366 . S
C570 C574 1.385 . S
C571 H546 0.951 . S
C571 C569 1.388 . S
C571 C572 1.366 . S
C572 C571 1.366 . S
C572 C573 1.414 . S
C572 C575 1.499 . S
C573 H547 0.950 . S
C573 C572 1.414 . S
C573 C574 1.374 . S
C574 H548 0.950 . S
C574 C570 1.385 . S
C574 C573 1.374 . S
C575 C572 1.499 . S
C575 C576 1.373 . S
C575 C577 1.389 . S
C576 H549 0.950 . S
C576 C562 1.377 . S
C576 C575 1.373 . S
C577 C561 1.377 . S
C577 C575 1.389 . S
C577 C578 1.524 . S
C578 C577 1.524 . S
C578 C579 1.397 . S
C578 C583 1.363 . S
C579 H550 0.950 . S
C579 C578 1.397 . S
C579 C580 1.334 . S
C580 H551 0.950 . S
C580 C579 1.334 . S
C580 C581 1.287 . S
C581 C580 1.287 . S
C581 C582 1.524 . S
C581 H584 0.999 . S
C582 H552 0.950 . S
C582 C581 1.524 . S
C582 C583 1.415 . S
C583 H553 0.950 . S
C583 C578 1.363 . S
C583 C582 1.415 . S
H584 C581 0.999 . S
H585 C566 0.920 . S
H586 C604 0.951 . S
H587 C606 0.951 . S
H588 C608 0.950 . S
H589 C609 0.950 . S
H590 C611 0.950 . S
H591 C614 0.950 . S
H592 C615 0.950 . S
H593 C617 0.950 . S
H594 C618 0.950 . S
H595 C619 0.951 . S
H596 C621 0.951 . S
H597 C623 0.950 . S
H598 C624 0.950 . S
H599 C626 0.949 1_655 S
H600 C629 0.950 . S
H601 C630 0.950 . S
H602 C632 0.950 . S
H603 C633 0.950 . S
C604 H586 0.951 . S
C604 C605 1.366 . S
C604 C606 1.388 . S
C605 C604 1.366 . S
C605 C609 1.385 1_655 S
C606 H587 0.951 . S
C606 C604 1.388 . S
C606 C607 1.366 . S
C607 C606 1.366 . S
C607 C608 1.414 1_655 S
C607 C610 1.499 1_655 S
C608 H588 0.950 . S
C608 C607 1.414 1_455 S
C608 C609 1.374 . S
C609 H589 0.950 . S
C609 C605 1.385 1_455 S
C609 C608 1.374 . S
C610 C607 1.499 1_455 S
C610 C611 1.373 . S
C610 C612 1.376 . S
C611 H590 0.950 . S
C611 C610 1.373 . S
C611 C627 1.377 . S
C612 C610 1.376 . S
C612 C613 1.527 1_455 S
C612 C626 1.392 . S
C613 C612 1.527 1_655 S
C613 C614 1.390 1_655 S
C613 C618 1.367 . S
C614 H591 0.950 . S
C614 C613 1.390 1_455 S
C614 C615 1.334 . S
C615 H592 0.950 . S
C615 C614 1.334 . S
C615 C616 1.287 . S
C616 C615 1.287 . S
C616 C617 1.524 1_455 S
C616 H635 0.913 . S
C617 H593 0.950 . S
C617 C616 1.524 1_655 S
C617 C618 1.415 . S
C618 H594 0.950 . S
C618 C613 1.367 . S
C618 C617 1.415 . S
C619 H595 0.951 . S
C619 C620 1.366 . S
C619 C621 1.388 . S
C620 C619 1.366 . S
C620 C624 1.385 1_455 S
C621 H596 0.951 . S
C621 C619 1.388 . S
C621 C622 1.366 . S
C622 C621 1.366 . S
C622 C623 1.414 1_455 S
C622 C625 1.499 . S
C623 H597 0.950 . S
C623 C622 1.414 1_655 S
C623 C624 1.374 . S
C624 H598 0.950 . S
C624 C620 1.385 1_655 S
C624 C623 1.374 . S
C625 C622 1.499 . S
C625 C626 1.373 . S
C625 C627 1.389 . S
C626 H599 0.949 1_455 S
C626 C612 1.392 . S
C626 C625 1.373 . S
C627 C611 1.377 . S
C627 C625 1.389 . S
C627 C628 1.524 . S
C628 C627 1.524 . S
C628 C629 1.397 1_455 S
C628 C633 1.363 . S
C629 H600 0.950 . S
C629 C628 1.397 1_655 S
C629 C630 1.334 . S
C630 H601 0.950 . S
C630 C629 1.334 . S
C630 C631 1.287 1_655 S
C631 C630 1.287 1_455 S
C631 C632 1.524 . S
C631 H634 0.999 . S
C632 H602 0.950 . S
C632 C631 1.524 . S
C632 C633 1.415 . S
C633 H603 0.950 . S
C633 C628 1.363 . S
C633 C632 1.415 . S
H634 C631 0.999 . S
H635 C616 0.913 . S
H636 C654 0.951 . S
H637 C656 0.951 . S
H638 C658 0.950 . S
H639 C659 0.950 . S
H640 C661 0.952 . S
H641 C664 0.950 1_565 S
H642 C665 0.950 . S
H643 C667 0.950 . S
H644 C668 0.950 . S
H645 C669 0.951 1_565 S
H646 C671 0.953 1_565 S
H647 C673 0.950 . S
H648 C674 0.950 . S
H649 C676 0.950 . S
H650 C679 0.950 . S
H651 C680 0.950 . S
H652 C682 0.950 . S
H653 C683 0.950 . S
C654 H636 0.951 . S
C654 C655 1.371 . S
C654 C656 1.388 . S
C655 C654 1.371 . S
C655 C659 1.377 1_545 S
C656 H637 0.951 . S
C656 C654 1.388 . S
C656 C657 1.366 . S
C657 C656 1.366 . S
C657 C658 1.414 1_545 S
C657 C660 1.499 . S
C658 H638 0.950 . S
C658 C657 1.414 1_565 S
C658 C659 1.374 . S
C659 H639 0.950 . S
C659 C655 1.377 1_565 S
C659 C658 1.374 . S
C660 C657 1.499 . S
C660 C661 1.371 1_545 S
C660 C662 1.389 . S
C661 H640 0.952 . S
C661 C660 1.371 1_565 S
C661 C677 1.377 1_565 S
C662 C660 1.389 . S
C662 C663 1.524 . S
C662 C676 1.377 . S
C663 C662 1.524 . S
C663 C664 1.397 . S
C663 C668 1.363 . S
C664 H641 0.950 1_545 S
C664 C663 1.397 . S
C664 C665 1.334 . S
C665 H642 0.950 . S
C665 C664 1.334 . S
C665 C666 1.287 . S
C666 C665 1.287 . S
C666 C667 1.524 . S
C666 H685 0.913 . S
C667 H643 0.950 . S
C667 C666 1.524 . S
C667 C668 1.415 . S
C668 H644 0.950 . S
C668 C663 1.363 . S
C668 C667 1.415 . S
C669 H645 0.951 1_545 S
C669 C670 1.366 . S
C669 C671 1.389 . S
C670 C669 1.366 . S
C670 C674 1.385 . S
C671 H646 0.953 1_545 S
C671 C669 1.389 . S
C671 C672 1.362 . S
C672 C671 1.362 . S
C672 C673 1.414 . S
C672 C675 1.499 . S
C673 H647 0.950 . S
C673 C672 1.414 . S
C673 C674 1.374 . S
C674 H648 0.950 . S
C674 C670 1.385 . S
C674 C673 1.374 . S
C675 C672 1.499 . S
C675 C676 1.373 . S
C675 C677 1.389 . S
C676 H649 0.950 . S
C676 C662 1.377 . S
C676 C675 1.373 . S
C677 C661 1.377 1_545 S
C677 C675 1.389 . S
C677 C678 1.524 1_545 S
C678 C677 1.524 1_565 S
C678 C679 1.397 1_565 S
C678 C683 1.363 . S
C679 H650 0.950 . S
C679 C678 1.397 1_545 S
C679 C680 1.334 . S
C680 H651 0.950 . S
C680 C679 1.334 . S
C680 C681 1.287 1_545 S
C681 C680 1.287 1_565 S
C681 C682 1.524 . S
C681 H684 0.999 . S
C682 H652 0.950 . S
C682 C681 1.524 . S
C682 C683 1.415 . S
C683 H653 0.950 . S
C683 C678 1.363 . S
C683 C682 1.415 . S
H684 C681 0.999 . S
H685 C666 0.913 . S
H686 C704 0.951 . S
H687 C706 0.951 . S
H688 C708 0.950 . S
H689 C709 0.950 . S
H690 C711 0.950 . S
H691 C714 0.950 1_554 S
H692 C715 0.950 . S
H693 C717 0.950 . S
H694 C718 0.950 . S
H695 C719 0.951 . S
H696 C721 0.951 . S
H697 C723 0.950 . S
H698 C724 0.950 . S
H699 C726 0.950 . S
H700 C729 0.950 . S
H701 C730 0.950 . S
H702 C732 0.950 . S
H703 C733 0.950 . S
C704 H686 0.951 . S
C704 C705 1.366 1_556 S
C704 C706 1.388 . S
C705 C704 1.366 1_554 S
C705 C709 1.385 . S
C706 H687 0.951 . S
C706 C704 1.388 . S
C706 C707 1.366 . S
C707 C706 1.366 . S
C707 C708 1.414 1_556 S
C707 C710 1.499 . S
C708 H688 0.950 . S
C708 C707 1.414 1_554 S
C708 C709 1.374 . S
C709 H689 0.950 . S
C709 C705 1.385 . S
C709 C708 1.374 . S
C710 C707 1.499 . S
C710 C711 1.373 . S
C710 C712 1.389 . S
C711 H690 0.950 . S
C711 C710 1.373 . S
C711 C727 1.377 . S
C712 C710 1.389 . S
C712 C713 1.524 . S
C712 C726 1.377 . S
C713 C712 1.524 . S
C713 C714 1.397 . S
C713 C718 1.363 . S
C714 H691 0.950 1_556 S
C714 C713 1.397 . S
C714 C715 1.334 1_556 S
C715 H692 0.950 . S
C715 C714 1.334 1_554 S
C715 C716 1.287 1_554 S
C716 C715 1.287 1_556 S
C716 C717 1.524 . S
C716 H735 0.913 1_556 S
C717 H693 0.950 . S
C717 C716 1.524 . S
C717 C718 1.415 . S
C718 H694 0.950 . S
C718 C713 1.363 . S
C718 C717 1.415 . S
C719 H695 0.951 . S
C719 C720 1.366 . S
C719 C721 1.388 . S
C720 C719 1.366 . S
C720 C724 1.385 . S
C721 H696 0.951 . S
C721 C719 1.388 . S
C721 C722 1.366 . S
C722 C721 1.366 . S
C722 C723 1.414 . S
C722 C725 1.499 . S
C723 H697 0.950 . S
C723 C722 1.414 . S
C723 C724 1.374 . S
C724 H698 0.950 . S
C724 C720 1.385 . S
C724 C723 1.374 . S
C725 C722 1.499 . S
C725 C726 1.373 . S
C725 C727 1.389 . S
C726 H699 0.950 . S
C726 C712 1.377 . S
C726 C725 1.373 . S
C727 C711 1.377 . S
C727 C725 1.389 . S
C727 C728 1.524 . S
C728 C727 1.524 . S
C728 C729 1.397 . S
C728 C733 1.363 . S
C729 H700 0.950 . S
C729 C728 1.397 . S
C729 C730 1.334 . S
C730 H701 0.950 . S
C730 C729 1.334 . S
C730 C731 1.287 . S
C731 C730 1.287 . S
C731 C732 1.524 . S
C731 H734 0.999 . S
C732 H702 0.950 . S
C732 C731 1.524 . S
C732 C733 1.415 . S
C733 H703 0.950 . S
C733 C728 1.363 . S
C733 C732 1.415 . S
H734 C731 0.999 . S
H735 C716 0.913 1_554 S
H736 C754 0.951 . S
H737 C756 0.951 . S
H738 C758 0.950 1_655 S
H739 C759 0.950 1_655 S
H740 C761 0.950 . S
H741 C764 0.950 . S
H742 C765 0.950 . S
H743 C767 0.950 . S
H744 C768 0.950 . S
H745 C769 0.951 . S
H746 C771 0.951 . S
H747 C773 0.950 . S
H748 C774 0.950 . S
H749 C776 0.950 . S
H750 C779 0.950 . S
H751 C780 0.950 . S
H752 C782 0.950 . S
H753 C783 0.950 . S
C754 H736 0.951 . S
C754 C755 1.366 . S
C754 C756 1.388 . S
C755 C754 1.366 . S
C755 C759 1.385 . S
C756 H737 0.951 . S
C756 C754 1.388 . S
C756 C757 1.366 . S
C757 C756 1.366 . S
C757 C758 1.414 . S
C757 C760 1.499 . S
C758 H738 0.950 1_455 S
C758 C757 1.414 . S
C758 C759 1.374 . S
C759 H739 0.950 1_455 S
C759 C755 1.385 . S
C759 C758 1.374 . S
C760 C757 1.499 . S
C760 C761 1.373 1_455 S
C760 C762 1.389 . S
C761 H740 0.950 . S
C761 C760 1.373 1_655 S
C761 C777 1.377 . S
C762 C760 1.389 . S
C762 C763 1.524 . S
C762 C776 1.377 . S
C763 C762 1.524 . S
C763 C764 1.397 . S
C763 C768 1.363 . S
C764 H741 0.950 . S
C764 C763 1.397 . S
C764 C765 1.334 . S
C765 H742 0.950 . S
C765 C764 1.334 . S
C765 C766 1.287 . S
C766 C765 1.287 . S
C766 C767 1.524 . S
C766 H785 0.913 . S
C767 H743 0.950 . S
C767 C766 1.524 . S
C767 C768 1.415 . S
C768 H744 0.950 . S
C768 C763 1.363 . S
C768 C767 1.415 . S
C769 H745 0.951 . S
C769 C770 1.366 1_655 S
C769 C771 1.388 . S
C770 C769 1.366 1_455 S
C770 C774 1.385 . S
C771 H746 0.951 . S
C771 C769 1.388 . S
C771 C772 1.366 1_655 S
C772 C771 1.366 1_455 S
C772 C773 1.414 . S
C772 C775 1.499 . S
C773 H747 0.950 . S
C773 C772 1.414 . S
C773 C774 1.374 . S
C774 H748 0.950 . S
C774 C770 1.385 . S
C774 C773 1.374 . S
C775 C772 1.499 . S
C775 C776 1.373 . S
C775 C777 1.389 1_455 S
C776 H749 0.950 . S
C776 C762 1.377 . S
C776 C775 1.373 . S
C777 C761 1.377 . S
C777 C775 1.389 1_655 S
C777 C778 1.524 . S
C778 C777 1.524 . S
C778 C779 1.397 . S
C778 C783 1.363 . S
C779 H750 0.950 . S
C779 C778 1.397 . S
C779 C780 1.334 . S
C780 H751 0.950 . S
C780 C779 1.334 . S
C780 C781 1.287 . S
C781 C780 1.287 . S
C781 C782 1.524 . S
C781 H784 0.999 . S
C782 H752 0.950 . S
C782 C781 1.524 . S
C782 C783 1.415 . S
C783 H753 0.950 . S
C783 C778 1.363 . S
C783 C782 1.415 . S
H784 C781 0.999 . S
H785 C766 0.913 . S
C220 C63 1.358 . S
C205 C11 1.336 . S
C255 C26 1.521 . S
C270 C111 1.541 . S
C305 C40 1.399 . S
C320 C183 1.397 . S
C355 C5 1.205 . S
C370 C87 1.350 . S
C420 C135 1.524 . S
C405 C18 1.513 . S
C455 C32 1.376 . S
C470 C159 1.392 . S
C520 C120 1.228 . S
C505 C39 1.216 . S
C555 C4 1.385 . S
C570 C174 1.399 . S
C620 C78 1.365 . S
C605 C19 1.214 . S
C670 C126 1.261 . S
C655 C33 1.124 1_545 S
C720 C168 1.415 . S
C705 C12 1.406 . S
C755 C25 1.342 . S
C770 C72 1.364 . S
