# Generated by pormake.
# Topology anh, (6,3)-cn, num edge types: 1
# Building blocks:
#     Node 0, Type 0, BuildingBlock: HISSIN_clean_sbu_0, # of connection points: 6
#     Node 1, Type 0, BuildingBlock: HISSIN_clean_sbu_0, # of connection points: 6
#     Node 2, Type 0, BuildingBlock: HISSIN_clean_sbu_0, # of connection points: 6
#     Node 3, Type 1, BuildingBlock: KAKCAD_clean_linker_0, # of connection points: 3
#     Node 4, Type 1, BuildingBlock: KAKCAD_clean_linker_0, # of connection points: 3
#     Node 5, Type 1, BuildingBlock: KAKCAD_clean_linker_0, # of connection points: 3
#     Node 6, Type 1, BuildingBlock: KAKCAD_clean_linker_0, # of connection points: 3
#     Node 7, Type 1, BuildingBlock: KAKCAD_clean_linker_0, # of connection points: 3
#     Node 8, Type 1, BuildingBlock: KAKCAD_clean_linker_0, # of connection points: 3
#     Edge 9, Type (0, 1), BuildingBlock: CIFDUS_clean_linker_0, # of connection points: 2
#     Edge 10, Type (0, 1), BuildingBlock: CIFDUS_clean_linker_0, # of connection points: 2
#     Edge 11, Type (0, 1), BuildingBlock: CIFDUS_clean_linker_0, # of connection points: 2
#     Edge 12, Type (0, 1), BuildingBlock: CIFDUS_clean_linker_0, # of connection points: 2
#     Edge 13, Type (0, 1), BuildingBlock: CIFDUS_clean_linker_0, # of connection points: 2
#     Edge 14, Type (0, 1), BuildingBlock: CIFDUS_clean_linker_0, # of connection points: 2
#     Edge 15, Type (0, 1), BuildingBlock: CIFDUS_clean_linker_0, # of connection points: 2
#     Edge 16, Type (0, 1), BuildingBlock: CIFDUS_clean_linker_0, # of connection points: 2
#     Edge 17, Type (0, 1), BuildingBlock: CIFDUS_clean_linker_0, # of connection points: 2
#     Edge 18, Type (0, 1), BuildingBlock: CIFDUS_clean_linker_0, # of connection points: 2
#     Edge 19, Type (0, 1), BuildingBlock: CIFDUS_clean_linker_0, # of connection points: 2
#     Edge 20, Type (0, 1), BuildingBlock: CIFDUS_clean_linker_0, # of connection points: 2
#     Edge 21, Type (0, 1), BuildingBlock: CIFDUS_clean_linker_0, # of connection points: 2
#     Edge 22, Type (0, 1), BuildingBlock: CIFDUS_clean_linker_0, # of connection points: 2
#     Edge 23, Type (0, 1), BuildingBlock: CIFDUS_clean_linker_0, # of connection points: 2
#     Edge 24, Type (0, 1), BuildingBlock: CIFDUS_clean_linker_0, # of connection points: 2
#     Edge 25, Type (0, 1), BuildingBlock: CIFDUS_clean_linker_0, # of connection points: 2
#     Edge 26, Type (0, 1), BuildingBlock: CIFDUS_clean_linker_0, # of connection points: 2
# Relax obj value: 0.259
# Max RMSD: 0.191
# Mean RMSD: 0.158
data_MOF--net-anh--node1-HISSIN_clean_sbu_0--node2-KAKCAD_clean_linker_0--edge1-CIFDUS_clean_linker_0
_symmetry_space_group_name_H-M    P1
_symmetry_Int_Tables_number       1
_symmetry_cell_setting            triclinic
loop_
_symmetry_equiv_pos_as_xyz
'x, y, z'
_cell_length_a     33.221049
_cell_length_b     33.31286
_cell_length_c     59.999613
_cell_angle_alpha  92.798698
_cell_angle_beta   90.216798
_cell_angle_gamma 120.06408
loop_
_atom_site_label
_atom_site_type_symbol
_atom_site_fract_x
_atom_site_fract_y
_atom_site_fract_z
_atom_type_partial_charge
Eu0 Eu 1.08169 0.49682 0.16515 0.0
Eu1 Eu 0.1343 0.60558 0.18016 0.0
C2 C 1.09797 0.53171 0.21757 0.0
C3 C 0.98562 0.374 0.15068 0.0
C4 C 0.95236 0.38776 0.15371 0.0
C5 C 0.92362 0.29387 0.14486 0.0
C6 C 0.90507 0.35493 0.15222 0.0
C7 C 0.97111 0.32696 0.14618 0.0
C8 C 0.89018 0.30763 0.14785 0.0
C9 C 1.03523 0.40901 0.15167 0.0
O10 O 0.19377 0.59163 0.17078 0.0
O11 O 0.15735 0.51219 0.16999 0.0
C12 C 0.19606 0.55297 0.16939 0.0
O13 O 0.11816 0.53704 0.13513 0.0
O14 O 0.19048 0.67535 0.17456 0.0
O15 O 0.14407 0.66434 0.20197 0.0
O16 O 0.11061 0.59935 0.14469 0.0
C17 C 0.11738 0.57417 0.12954 0.0
O18 O 1.02276 0.5144 0.16157 0.0
O19 O 1.05756 0.587 0.17934 0.0
O20 O 0.13286 0.571 0.21163 0.0
O21 O 1.04696 0.44299 0.13858 0.0
O22 O 1.05464 0.42371 0.17159 0.0
O23 O 1.06859 0.501 0.20235 0.0
C24 C 0.17444 0.73546 0.18374 0.0
C25 C 0.13504 0.73979 0.18776 0.0
C26 C 0.21386 0.8128 0.16998 0.0
C27 C 0.13574 0.78114 0.18353 0.0
C28 C 0.21323 0.77182 0.17429 0.0
C29 C 0.17571 0.81862 0.17515 0.0
C30 C 0.17724 0.69469 0.19005 0.0
C31 C 1.02031 0.55087 0.16959 0.0
H32 H 0.96297 0.42393 0.15728 0.0
H33 H 0.91302 0.25762 0.14148 0.0
H34 H 0.88017 0.36646 0.15505 0.0
H35 H 0.99644 0.31586 0.14371 0.0
H36 H 0.10433 0.71196 0.19481 0.0
H37 H 0.24572 0.84107 0.16401 0.0
H38 H 0.10577 0.78445 0.18764 0.0
H39 H 0.24396 0.76926 0.17102 0.0
Eu40 Eu 0.62704 1.02442 0.50667 0.0
Eu41 Eu 0.55976 0.06947 0.50927 0.0
C42 C 0.59765 1.04955 0.55543 0.0
C43 C 0.71054 0.97387 0.49239 0.0
C44 C 0.69468 0.92654 0.49457 0.0
C45 C 0.78244 0.98324 0.47726 0.0
C46 C 0.72329 0.9082 0.48897 0.0
C47 C 0.75374 1.00148 0.4827 0.0
C48 C 0.7684 0.93704 0.48138 0.0
C49 C 0.68808 0.99689 0.50428 0.0
O50 O 0.63177 0.13574 0.50709 0.0
O51 O 0.67864 0.10337 0.5054 0.0
C52 C 0.67371 0.14039 0.50527 0.0
O53 O 0.60201 1.02047 0.47121 0.0
O54 O 0.5316 0.11014 0.52482 0.0
O55 O 0.50163 0.07121 0.49329 0.0
O56 O 0.59095 0.08262 0.47559 0.0
C57 C 0.59761 1.0537 0.46284 0.0
O58 O 0.55467 0.9585 0.50184 0.0
O59 O 0.50751 0.99042 0.50514 0.0
O60 O 0.57328 0.06522 0.54564 0.0
O61 O 0.69466 1.03587 0.49708 0.0
O62 O 0.6474 0.9725 0.51298 0.0
O63 O 0.61997 1.03251 0.54401 0.0
C64 C 0.50211 0.14151 0.49978 0.0
C65 C 0.46367 0.14741 0.5031 0.0
C66 C 0.54423 0.21766 0.48495 0.0
C67 C 0.46603 0.189 0.49805 0.0
C68 C 0.54177 0.17606 0.48995 0.0
C69 C 0.50705 0.22525 0.48975 0.0
C70 C 0.50211 0.10115 0.50828 0.0
C71 C 0.51246 0.95352 0.5021 0.0
H72 H 0.66178 0.9045 0.50215 0.0
H73 H 0.81693 1.00612 0.47136 0.0
H74 H 0.7117 0.87253 0.49254 0.0
H75 H 0.7671 1.0382 0.48095 0.0
H76 H 0.43268 0.12075 0.51054 0.0
H77 H 0.57657 0.24506 0.47886 0.0
H78 H 0.43674 0.19375 0.50174 0.0
H79 H 0.5717 0.1718 0.48724 0.0
Eu80 Eu 0.5712 0.51685 0.83432 0.0
Eu81 Eu 0.68147 0.5752 0.84605 0.0
C82 C 0.6099 0.53606 0.88502 0.0
C83 C 0.44823 0.48821 0.81999 0.0
C84 C 0.46431 0.53458 0.81533 0.0
C85 C 0.3688 0.47251 0.81751 0.0
C86 C 0.43286 0.55031 0.81271 0.0
C87 C 0.40035 0.45688 0.82025 0.0
C88 C 0.38486 0.51983 0.81471 0.0
C89 C 0.48105 0.47408 0.82745 0.0
O90 O 0.6632 0.49823 0.8455 0.0
O91 O 0.59001 0.4592 0.82911 0.0
C92 C 0.62773 0.45932 0.83636 0.0
O93 O 0.60145 0.53969 0.80061 0.0
O94 O 0.75239 0.58932 0.84079 0.0
O95 O 0.7383 0.62394 0.86864 0.0
O96 O 0.68012 0.57839 0.80897 0.0
C97 C 0.64495 0.56291 0.79465 0.0
O98 O 0.58773 0.5939 0.83723 0.0
O99 O 0.66739 0.63281 0.83623 0.0
O100 O 0.64623 0.57311 0.8783 0.0
O101 O 0.50963 0.4738 0.81271 0.0
O102 O 0.50192 0.49323 0.8467 0.0
O103 O 0.58131 0.50382 0.87026 0.0
C104 C 0.81199 0.66531 0.8523 0.0
C105 C 0.81314 0.70813 0.85434 0.0
C106 C 0.89449 0.70596 0.84531 0.0
C107 C 0.85523 0.74975 0.85263 0.0
C108 C 0.85264 0.66457 0.84713 0.0
C109 C 0.89662 0.74912 0.84871 0.0
C110 C 0.77006 0.62133 0.85703 0.0
C111 C 0.62781 0.63326 0.83547 0.0
H112 H 0.50129 0.5592 0.81509 0.0
H113 H 0.33199 0.44813 0.81882 0.0
H114 H 0.44645 0.58703 0.81082 0.0
H115 H 0.38747 0.42092 0.82376 0.0
H116 H 0.782 0.70956 0.85807 0.0
H117 H 0.92572 0.70401 0.8427 0.0
H118 H 0.85572 0.78241 0.85523 0.0
H119 H 0.85247 0.63194 0.84548 0.0
C120 C 0.5815 0.08342 0.32096 0.0
C121 C 0.54809 1.04737 0.33324 0.0
C122 C 0.56918 0.09328 0.30054 0.0
C123 C 0.52318 0.06731 0.29199 0.0
C124 C 0.48996 1.03064 0.30404 0.0
C125 C 0.50232 1.0207 0.32446 0.0
C126 C 0.51006 0.07801 0.27037 0.0
C127 C 0.53879 0.08655 0.25213 0.0
C128 C 0.52637 0.09566 0.23146 0.0
C129 C 0.48425 0.09532 0.22882 0.0
C130 C 0.45424 0.08578 0.24685 0.0
C131 C 0.46837 0.07861 0.26775 0.0
C132 C 0.40616 0.07758 0.24323 0.0
C133 C 0.39578 0.10022 0.22682 0.0
C134 C 0.36912 1.04247 0.25444 0.0
C135 C 0.32323 1.02736 0.24804 0.0
C136 C 0.31282 1.04625 0.22994 0.0
C137 C 0.55872 0.10654 0.21299 0.0
C138 C 0.57875 0.15028 0.20405 0.0
C139 C 0.57491 0.07614 0.20667 0.0
C140 C 0.61293 0.0906 0.1929 0.0
C141 C 0.636 0.13607 0.18559 0.0
C142 C 0.61727 0.16508 0.19057 0.0
C143 C 0.34952 0.08451 0.22015 0.0
H144 H 0.61711 0.10437 0.32728 0.0
H145 H 0.5955 0.12184 0.29166 0.0
H146 H 0.4544 1.00959 0.29768 0.0
H147 H 0.47573 0.99304 0.33368 0.0
H148 H 0.57105 0.08611 0.25397 0.0
H149 H 0.44674 0.07299 0.28204 0.0
H150 H 0.47424 0.10038 0.21246 0.0
H151 H 0.42333 0.1284 0.21828 0.0
H152 H 0.37509 1.02352 0.26695 0.0
H153 H 0.29622 0.99739 0.25586 0.0
H154 H 0.56691 0.17433 0.20888 0.0
H155 H 0.55955 1.04203 0.21329 0.0
H156 H 0.34265 0.10018 0.20632 0.0
H157 H 0.63429 0.20048 0.18548 0.0
H158 H 0.62571 0.06698 0.18895 0.0
C159 C 0.70833 0.64445 0.65882 0.0
C160 C 0.74094 0.64299 0.67326 0.0
C161 C 0.71537 0.6476 0.63595 0.0
C162 C 0.75544 0.65002 0.62702 0.0
C163 C 0.78948 0.6514 0.64144 0.0
C164 C 0.78221 0.64769 0.66439 0.0
C165 C 0.75883 0.64608 0.60259 0.0
C166 C 0.79629 0.68048 0.5913 0.0
C167 C 0.79701 0.67722 0.56781 0.0
C168 C 0.76068 0.6382 0.55599 0.0
C169 C 0.72346 0.6037 0.56715 0.0
C170 C 0.7227 0.60791 0.59042 0.0
C171 C 0.68507 0.56346 0.55445 0.0
C172 C 0.63849 0.54849 0.55933 0.0
C173 C 0.69498 0.53875 0.53791 0.0
C174 C 0.65913 0.49834 0.52727 0.0
C175 C 0.61252 0.48198 0.53282 0.0
C176 C 0.83006 0.71721 0.55505 0.0
C177 C 0.83774 0.76177 0.56119 0.0
C178 C 0.8448 0.7096 0.53409 0.0
C179 C 0.85926 0.74319 0.51827 0.0
C180 C 0.85991 0.7851 0.52336 0.0
C181 C 0.85272 0.79551 0.54548 0.0
C182 C 0.60251 0.50823 0.54853 0.0
H183 H 0.67679 0.64217 0.66514 0.0
H184 H 0.68886 0.64693 0.62509 0.0
H185 H 0.8205 0.65295 0.63483 0.0
H186 H 0.80792 0.64641 0.67501 0.0
H187 H 0.82362 0.71054 0.60069 0.0
H188 H 0.69404 0.58113 0.59918 0.0
H189 H 0.75961 0.63588 0.5379 0.0
H190 H 0.62996 0.56754 0.57174 0.0
H191 H 0.73063 0.54947 0.53393 0.0
H192 H 0.66834 0.47861 0.51562 0.0
H193 H 0.82697 0.769 0.57717 0.0
H194 H 0.84061 0.67597 0.52913 0.0
H195 H 0.56698 0.49693 0.55295 0.0
H196 H 0.8529 0.82748 0.55001 0.0
H197 H 0.86548 0.73462 0.50146 0.0
C198 C 0.2199 0.70591 0.00523 0.0
C199 C 0.18151 0.70449 0.01571 0.0
C200 C 0.23167 0.72248 0.98389 0.0
C201 C 0.20512 0.73772 0.97253 0.0
C202 C 0.16734 0.73723 0.98326 0.0
C203 C 0.15574 0.7209 0.00463 0.0
C204 C 0.21432 0.75046 0.94894 0.0
C205 C 0.22355 0.72299 0.93372 0.0
C206 C 0.22757 0.73133 0.91097 0.0
C207 C 0.2222 0.7674 0.90325 0.0
C208 C 0.21181 0.79476 0.9181 0.0
C209 C 0.20941 0.78689 0.94104 0.0
C210 C 0.19524 0.82499 0.90908 0.0
C211 C 0.21336 0.84859 0.8895 0.0
C212 C 0.15564 0.82387 0.91795 0.0
C213 C 0.1317 0.84096 0.90625 0.0
C214 C 0.14654 0.85944 0.88528 0.0
C215 C 0.23377 0.69973 0.89515 0.0
C216 C 0.27265 0.71675 0.88168 0.0
C217 C 0.20189 0.65187 0.89441 0.0
C218 C 0.2099 0.62115 0.88116 0.0
C219 C 0.25046 0.63764 0.86874 0.0
C220 C 0.28115 0.68594 0.8687 0.0
C221 C 0.18919 0.86563 0.87768 0.0
H222 H 0.24086 0.6942 0.01353 0.0
H223 H 0.26132 0.72293 0.9762 0.0
H224 H 0.14559 0.74784 0.97483 0.0
H225 H 0.12566 0.71977 0.01219 0.0
H226 H 0.22601 0.69386 0.9394 0.0
H227 H 0.20199 0.80806 0.95269 0.0
H228 H 0.22261 0.77158 0.88544 0.0
H229 H 0.24452 0.85116 0.88252 0.0
H230 H 0.14023 0.80574 0.93285 0.0
H231 H 0.09884 0.83497 0.91266 0.0
H232 H 0.29759 0.75363 0.88205 0.0
H233 H 0.17122 0.63819 0.90444 0.0
H234 H 0.2021 0.88053 0.86181 0.0
H235 H 0.31302 0.69993 0.85958 0.0
H236 H 0.18497 0.58433 0.88119 0.0
C237 C 1.05618 0.51923 0.36254 0.0
C238 C 0.09885 0.53243 0.35233 0.0
C239 C 1.0531 0.51889 0.38598 0.0
C240 C 1.09257 0.5316 0.39983 0.0
C241 C 0.13462 0.54279 0.38946 0.0
C242 C 0.13771 0.54329 0.36618 0.0
C243 C 1.09097 0.53503 0.42493 0.0
C244 C 1.05276 0.50182 0.43643 0.0
C245 C 1.05108 0.5037 0.46001 0.0
C246 C 1.09066 0.54176 0.47221 0.0
C247 C 0.13017 0.57657 0.46077 0.0
C248 C 0.12852 0.57187 0.43726 0.0
C249 C 0.17439 0.61881 0.47164 0.0
C250 C 0.17312 0.65262 0.48631 0.0
C251 C 0.21908 0.63013 0.46399 0.0
C252 C 0.25981 0.67336 0.46982 0.0
C253 C 0.25852 0.7083 0.48366 0.0
C254 C 1.00741 0.46428 0.47044 0.0
C255 C 0.96218 0.44929 0.46135 0.0
C256 C 1.00982 0.43657 0.48691 0.0
C257 C 0.9695 0.39512 0.49319 0.0
C258 C 0.92443 0.37928 0.48351 0.0
C259 C 0.92193 0.40831 0.46778 0.0
C260 C 0.21404 0.69614 0.49215 0.0
H261 H 1.02555 0.51085 0.35247 0.0
H262 H 1.02013 0.51022 0.39325 0.0
H263 H 0.16553 0.55154 0.39939 0.0
H264 H 0.17093 0.55261 0.359 0.0
H265 H 1.02439 0.47309 0.42683 0.0
H266 H 0.15697 0.59823 0.42825 0.0
H267 H 1.09071 0.54421 0.49026 0.0
H268 H 0.14003 0.64642 0.4925 0.0
H269 H 0.22242 0.6058 0.45259 0.0
H270 H 0.29216 0.67991 0.46256 0.0
H271 H 0.95794 0.4689 0.44859 0.0
H272 H 1.04334 0.44575 0.49431 0.0
H273 H 0.21033 0.72061 0.50323 0.0
H274 H 0.8889 0.39843 0.45961 0.0
H275 H 0.97401 0.37509 0.50561 0.0
C276 C 0.59112 0.99015 0.69973 0.0
C277 C 0.615 1.03116 0.68827 0.0
C278 C 0.59154 0.99159 0.72316 0.0
C279 C 0.61656 1.03406 0.73594 0.0
C280 C 0.64081 0.07506 0.72434 0.0
C281 C 0.63967 0.07365 0.70089 0.0
C282 C 0.61687 1.03558 0.76113 0.0
C283 C 0.61501 0.99891 0.77276 0.0
C284 C 0.61363 0.99819 0.79624 0.0
C285 C 0.61489 1.0374 0.80843 0.0
C286 C 0.61757 0.07587 0.79696 0.0
C287 C 0.61825 0.07338 0.77346 0.0
C288 C 0.61901 0.11949 0.80782 0.0
C289 C 0.5798 0.11789 0.81777 0.0
C290 C 0.65614 0.16443 0.80368 0.0
C291 C 0.65394 0.20548 0.80877 0.0
C292 C 0.61397 0.20393 0.81786 0.0
C293 C 0.6088 0.95425 0.80628 0.0
C294 C 0.57062 0.91018 0.79954 0.0
C295 C 0.64531 0.9538 0.81836 0.0
C296 C 0.64364 0.91129 0.8232 0.0
C297 C 0.60533 0.86703 0.81622 0.0
C298 C 0.56879 0.86803 0.80442 0.0
C299 C 0.57731 0.15896 0.82263 0.0
H300 H 0.57132 0.95686 0.69053 0.0
H301 H 0.57148 0.95925 0.7312 0.0
H302 H 0.66132 0.10845 0.73332 0.0
H303 H 0.65891 0.10584 0.69261 0.0
H304 H 0.61501 0.97027 0.7634 0.0
H305 H 0.61851 0.10109 0.76461 0.0
H306 H 0.61357 1.03788 0.82645 0.0
H307 H 0.54981 0.08451 0.82078 0.0
H308 H 0.68661 0.16776 0.79552 0.0
H309 H 0.68302 0.23844 0.80449 0.0
H310 H 0.54228 0.90822 0.78964 0.0
H311 H 0.67616 0.98645 0.82335 0.0
H312 H 0.54586 0.15516 0.82984 0.0
H313 H 0.53885 0.83594 0.79806 0.0
H314 H 0.67276 0.9133 0.83237 0.0
C315 C 0.60975 0.51383 0.02979 0.0
C316 C 0.60566 0.5487 0.01946 0.0
C317 C 0.60862 0.51167 0.05314 0.0
C318 C 0.60256 0.54381 0.06674 0.0
C319 C 0.59734 0.57796 0.05634 0.0
C320 C 0.59924 0.5806 0.03306 0.0
C321 C 0.60227 0.54215 0.09167 0.0
C322 C 0.63681 0.53796 0.10312 0.0
C323 C 0.63802 0.53616 0.12656 0.0
C324 C 0.60157 0.53843 0.13871 0.0
C325 C 0.56564 0.54291 0.12728 0.0
C326 C 0.56758 0.54489 0.10383 0.0
C327 C 0.52463 0.54501 0.13816 0.0
C328 C 0.49226 0.50999 0.15147 0.0
C329 C 0.5127 0.5783 0.13179 0.0
C330 C 0.47016 0.57588 0.13761 0.0
C331 C 0.4366 0.53975 0.15008 0.0
C332 C 0.6776 0.53035 0.13649 0.0
C333 C 0.68599 0.49569 0.12693 0.0
C334 C 0.71229 0.56311 0.15191 0.0
C335 C 0.75366 0.56154 0.15703 0.0
C336 C 0.76233 0.52711 0.14698 0.0
C337 C 0.72689 0.49418 0.1319 0.0
C338 C 0.44936 0.50739 0.15725 0.0
H339 H 0.61504 0.48893 0.01986 0.0
H340 H 0.61238 0.48469 0.06057 0.0
H341 H 0.59281 0.60337 0.06628 0.0
H342 H 0.59571 0.60774 0.02566 0.0
H343 H 0.66387 0.53683 0.09354 0.0
H344 H 0.54069 0.54726 0.0947 0.0
H345 H 0.60106 0.53657 0.15667 0.0
H346 H 0.49901 0.48313 0.15659 0.0
H347 H 0.53592 0.60583 0.12142 0.0
H348 H 0.46291 0.60163 0.13139 0.0
H349 H 0.66123 0.47013 0.11468 0.0
H350 H 0.70842 0.59119 0.15937 0.0
H351 H 0.42584 0.47925 0.1672 0.0
H352 H 0.73106 0.46752 0.12304 0.0
H353 H 0.77901 0.58772 0.16883 0.0
H354 H 0.22129 0.48317 0.16601 0.0
H355 H 0.28115 0.63179 0.16575 0.0
H356 H 0.35789 0.64104 0.16018 0.0
H357 H 0.41016 0.60814 0.15509 0.0
H358 H 0.35121 0.45958 0.1551 0.0
H359 H 0.27444 0.45007 0.16124 0.0
C360 C 0.25099 0.51771 0.16481 0.0
C361 C 0.24393 0.55666 0.16641 0.0
C362 C 0.2964 0.52318 0.16157 0.0
C363 C 0.28405 0.60079 0.1647 0.0
C364 C 0.32861 0.60627 0.16145 0.0
C365 C 0.38079 0.57343 0.15628 0.0
C366 C 0.38834 0.53478 0.15459 0.0
C367 C 0.33554 0.56785 0.15978 0.0
C368 C 0.34838 0.49055 0.15662 0.0
C369 C 0.30365 0.48489 0.16 0.0
H370 H 0.76906 0.16841 0.50485 0.0
H371 H 0.67674 0.22302 0.49726 0.0
H372 H 0.74312 0.29908 0.49 0.0
H373 H 0.8287 0.3519 0.48522 0.0
H374 H 0.92088 0.29725 0.49364 0.0
H375 H 0.85466 0.22172 0.50115 0.0
C376 C 0.76313 0.19683 0.50173 0.0
C377 C 0.71656 0.18856 0.50178 0.0
C378 C 0.80229 0.24162 0.49764 0.0
C379 C 0.71116 0.22703 0.49758 0.0
C380 C 0.74959 0.27109 0.4933 0.0
C381 C 0.83472 0.32369 0.48864 0.0
C382 C 0.88141 0.33207 0.48882 0.0
C383 C 0.79557 0.27912 0.49317 0.0
C384 C 0.88669 0.29374 0.49361 0.0
C385 C 0.84824 0.24973 0.49782 0.0
H386 H 0.55571 0.65539 0.83248 0.0
H387 H 0.70512 0.71922 0.8312 0.0
H388 H 0.712 0.79439 0.8258 0.0
H389 H 0.6766 0.84432 0.82072 0.0
H390 H 0.5273 0.78115 0.82278 0.0
H391 H 0.52031 0.70603 0.82825 0.0
C392 C 0.58992 0.6856 0.83108 0.0
C393 C 0.62979 0.68006 0.83237 0.0
C394 C 0.59402 0.73014 0.82791 0.0
C395 C 0.67342 0.72087 0.83039 0.0
C396 C 0.67755 0.76459 0.82725 0.0
C397 C 0.64235 0.81447 0.82252 0.0
C398 C 0.6026 0.82017 0.82088 0.0
C399 C 0.63822 0.77005 0.82593 0.0
C400 C 0.55896 0.77946 0.82327 0.0
C401 C 0.55476 0.73574 0.82664 0.0
H402 H 0.9288 0.48004 0.15749 0.0
H403 H 1.00845 0.62685 0.1755 0.0
H404 H 0.9388 0.63315 0.17065 0.0
H405 H 0.85406 0.59785 0.16049 0.0
H406 H 0.7739 0.44984 0.14491 0.0
H407 H 0.8434 0.44411 0.14938 0.0
C408 C 0.93121 0.51354 0.16042 0.0
C409 C 0.9752 0.55291 0.1669 0.0
C410 C 0.89007 0.5171 0.15783 0.0
C411 C 0.97606 0.59561 0.17061 0.0
C412 C 0.93576 0.59936 0.16777 0.0
C413 C 0.85122 0.56407 0.15821 0.0
C414 C 0.8071 0.52462 0.15168 0.0
C415 C 0.89226 0.56042 0.16132 0.0
C416 C 0.80621 0.48163 0.14905 0.0
C417 C 0.84652 0.47801 0.15186 0.0
H418 H 0.41699 0.9255 0.50216 0.0
H419 H 0.50812 0.86895 0.49397 0.0
H420 H 0.44067 0.79089 0.48796 0.0
H421 H 0.35468 0.73671 0.48482 0.0
H422 H 0.26355 0.79355 0.49261 0.0
H423 H 0.33078 0.87109 0.49912 0.0
C424 C 0.42244 0.89627 0.4991 0.0
C425 C 0.46902 0.9046 0.49863 0.0
C426 C 0.38267 0.85033 0.49561 0.0
C427 C 0.47377 0.86504 0.49456 0.0
C428 C 0.43471 0.81977 0.49106 0.0
C429 C 0.34896 0.76575 0.48781 0.0
C430 C 0.30223 0.75724 0.48824 0.0
C431 C 0.38874 0.81164 0.49148 0.0
C432 C 0.29768 0.79696 0.4925 0.0
C433 C 0.33674 0.84218 0.49609 0.0
H434 H 0.55933 0.36611 0.82451 0.0
H435 H 0.70511 0.4506 0.8429 0.0
H436 H 0.71418 0.38229 0.8389 0.0
H437 H 0.68166 0.29722 0.83004 0.0
H438 H 0.53542 0.21212 0.81264 0.0
H439 H 0.52632 0.28039 0.81656 0.0
C440 C 0.59321 0.36986 0.8277 0.0
C441 C 0.63146 0.4149 0.83405 0.0
C442 C 0.59838 0.32943 0.82559 0.0
C443 C 0.67468 0.41747 0.83807 0.0
C444 C 0.68004 0.37792 0.83574 0.0
C445 C 0.64763 0.29322 0.82701 0.0
C446 C 0.60931 0.24794 0.82106 0.0
C447 C 0.64227 0.33347 0.82946 0.0
C448 C 0.5658 0.24518 0.81757 0.0
C449 C 0.5605 0.28481 0.81967 0.0
H450 H 0.75947 0.85541 0.46459 0.0
H451 H 0.85455 0.98372 0.50129 0.0
H452 H 0.90074 0.95016 0.51344 0.0
H453 H 0.90233 0.87913 0.52094 0.0
H454 H 0.80444 0.74974 0.48585 0.0
H455 H 0.77259 0.78908 0.46521 0.0
C456 C 0.79114 0.87635 0.47466 0.0
C457 C 0.80304 0.92153 0.48239 0.0
C458 C 0.81692 0.85643 0.4821 0.0
C459 C 0.84454 0.94874 0.49514 0.0
C460 C 0.8708 0.92943 0.50229 0.0
C461 C 0.87519 0.85998 0.50818 0.0
C462 C 0.85511 0.81152 0.50535 0.0
C463 C 0.85565 0.88249 0.49698 0.0
C464 C 0.82053 0.78711 0.48847 0.0
C465 C 0.80172 0.80947 0.47684 0.0
H466 H 0.97341 0.77473 0.82391 0.0
H467 H 0.92399 0.81951 0.8809 0.0
H468 H 1.00376 0.87257 0.89405 0.0
H469 H 1.08417 0.88823 0.89489 0.0
H470 H 0.1308 0.83312 0.84073 0.0
H471 H 1.05704 0.8044 0.82066 0.0
C472 C 0.98022 0.79707 0.83889 0.0
C473 C 0.94284 0.792 0.85177 0.0
C474 C 1.02612 0.82546 0.84709 0.0
C475 C 0.95203 0.82225 0.87073 0.0
C476 C 0.99778 0.85232 0.87843 0.0
C477 C 1.07861 0.87104 0.87842 0.0
C478 C 0.11235 0.86123 0.86983 0.0
C479 C 1.03473 0.8515 0.86763 0.0
C480 C 0.10544 0.84074 0.84803 0.0
C481 C 1.06278 0.82354 0.83661 0.0
H482 H 0.14848 0.85997 0.20716 0.0
H483 H 0.21811 0.88492 0.14451 0.0
H484 H 0.26008 0.96823 0.15417 0.0
H485 H 0.29468 1.02653 0.18535 0.0
H486 H 0.22637 1.00128 0.24832 0.0
H487 H 0.16455 0.92594 0.23312 0.0
C488 C 0.17095 0.88363 0.19506 0.0
C489 C 0.18215 0.86617 0.17569 0.0
C490 C 0.19594 0.93142 0.201 0.0
C491 C 0.21052 0.89751 0.16001 0.0
C492 C 0.23465 0.94519 0.16555 0.0
C493 C 0.26505 1.00587 0.19545 0.0
C494 C 0.26651 1.01815 0.21834 0.0
C495 C 0.23063 0.96184 0.18685 0.0
C496 C 0.22701 0.99154 0.23089 0.0
C497 C 0.19184 0.94821 0.22226 0.0
H498 H 0.48383 0.26815 0.52221 0.0
H499 H 0.54923 0.29019 0.45849 0.0
H500 H 0.58102 0.37399 0.46458 0.0
H501 H 0.60174 0.44058 0.49109 0.0
H502 H 0.54133 0.41671 0.55614 0.0
H503 H 0.49424 0.33419 0.54596 0.0
C504 C 0.50353 0.29101 0.50924 0.0
C505 C 0.51478 0.27311 0.49008 0.0
C506 C 0.52292 0.339 0.5132 0.0
C507 C 0.54078 0.30333 0.47356 0.0
C508 C 0.55903 0.35119 0.47706 0.0
C509 C 0.57776 0.41737 0.50291 0.0
C510 C 0.57592 0.43478 0.5245 0.0
C511 C 0.55233 0.36947 0.49735 0.0
C512 C 0.5436 0.40449 0.53939 0.0
C513 C 0.51694 0.35706 0.53369 0.0
H514 H 0.3193 0.49701 0.84563 0.0
H515 H 0.38085 0.58678 0.79133 0.0
H516 H 0.33974 0.62837 0.80181 0.0
H517 H 0.29355 0.64445 0.82909 0.0
H518 H 0.23725 0.55673 0.88467 0.0
H519 H 0.26752 0.50803 0.87038 0.0
C520 C 0.32266 0.5247 0.8356 0.0
C521 C 0.35321 0.53888 0.81777 0.0
C522 C 0.29994 0.54901 0.84202 0.0
C523 C 0.35783 0.5755 0.80527 0.0
C524 C 0.33441 0.5993 0.81128 0.0
C525 C 0.2877 0.61454 0.83801 0.0
C526 C 0.26335 0.60464 0.85803 0.0
C527 C 0.30666 0.58735 0.83012 0.0
C528 C 0.25528 0.56509 0.86909 0.0
C529 C 0.27303 0.53735 0.86106 0.0
H530 H 0.84955 0.22742 0.16908 0.0
H531 H 0.81832 0.31072 0.12733 0.0
H532 H 0.73511 0.26016 0.13275 0.0
H533 H 0.67246 0.19791 0.15285 0.0
H534 H 0.70549 0.11887 0.19687 0.0
H535 H 0.78622 0.16066 0.18624 0.0
C536 C 0.82445 0.23378 0.16072 0.0
C537 C 0.83995 0.27289 0.14802 0.0
C538 C 0.77688 0.20526 0.1643 0.0
C539 C 0.80711 0.2811 0.13746 0.0
C540 C 0.7596 0.25222 0.14053 0.0
C541 C 0.69723 0.18958 0.16 0.0
C542 C 0.68274 0.15552 0.1758 0.0
C543 C 0.74422 0.21512 0.15453 0.0
C544 C 0.71522 0.14447 0.18448 0.0
C545 C 0.76171 0.1688 0.17862 0.0
H546 H 0.11968 0.6502 0.11401 0.0
H547 H 0.13923 0.53514 0.09367 0.0
H548 H 0.16092 0.56543 0.05658 0.0
H549 H 0.17553 0.62551 0.0302 0.0
H550 H 0.15665 0.74061 0.05121 0.0
H551 H 0.1333 0.70917 0.08786 0.0
C552 C 0.12847 0.6315 0.10148 0.0
C553 C 0.12788 0.59045 0.10664 0.0
C554 C 0.14117 0.64922 0.08035 0.0
C555 C 0.13935 0.56677 0.09014 0.0
C556 C 0.15188 0.58416 0.06896 0.0
C557 C 0.16665 0.64385 0.04288 0.0
C558 C 0.16791 0.68539 0.03802 0.0
C559 C 0.15326 0.62556 0.06394 0.0
C560 C 0.15557 0.70839 0.05448 0.0
C561 C 0.14237 0.69053 0.07545 0.0
H562 H 0.56543 0.98624 0.42915 0.0
H563 H 0.63357 0.13466 0.44273 0.0
H564 H 0.62801 0.14587 0.40325 0.0
H565 H 0.59695 0.11341 0.36576 0.0
H566 H 0.52485 0.96505 0.3517 0.0
H567 H 0.53844 0.95371 0.39047 0.0
C568 C 0.57978 1.02096 0.4233 0.0
C569 C 0.59969 1.05956 0.43869 0.0
C570 C 0.57515 1.02709 0.4006 0.0
C571 C 0.61776 0.10444 0.4311 0.0
C572 C 0.61456 0.11089 0.40857 0.0
C573 C 0.58507 0.07863 0.37104 0.0
C574 C 0.55997 1.04015 0.35595 0.0
C575 C 0.59229 0.07244 0.39329 0.0
C576 C 0.54394 0.99521 0.36314 0.0
C577 C 0.5518 0.98874 0.38525 0.0
H578 H 0.72824 0.62271 0.77748 0.0
H579 H 0.5845 0.52613 0.75846 0.0
H580 H 0.60176 0.54268 0.71933 0.0
H581 H 0.65775 0.58328 0.69059 0.0
H582 H 0.80084 0.68188 0.7097 0.0
H583 H 0.78374 0.66504 0.74883 0.0
C584 C 0.70061 0.60511 0.76481 0.0
C585 C 0.65514 0.57301 0.77093 0.0
C586 C 0.71068 0.61499 0.74238 0.0
C587 C 0.61979 0.55097 0.75425 0.0
C588 C 0.62963 0.56038 0.73187 0.0
C589 C 0.68512 0.60171 0.70331 0.0
C590 C 0.73053 0.63396 0.69717 0.0
C591 C 0.67494 0.59228 0.72576 0.0
C592 C 0.76572 0.65657 0.71389 0.0
C593 C 0.75591 0.64714 0.73629 0.0
H594 H 0.61859 0.99855 0.58306 0.0
H595 H 0.58218 0.10608 0.58416 0.0
H596 H 0.58561 0.1109 0.62488 0.0
H597 H 0.598 0.08417 0.66054 0.0
H598 H 0.63036 0.97396 0.65973 0.0
H599 H 0.62932 0.97053 0.61887 0.0
C600 C 0.61157 1.02315 0.5922 0.0
C601 C 0.60025 1.05197 0.58039 0.0
C602 C 0.61273 1.0252 0.61582 0.0
C603 C 0.59079 0.08328 0.59266 0.0
C604 C 0.59283 0.08617 0.61603 0.0
C605 C 0.60508 1.05958 0.65141 0.0
C606 C 0.61439 1.02946 0.66327 0.0
C607 C 0.60365 1.05726 0.62783 0.0
C608 C 0.62281 0.99736 0.65109 0.0
C609 C 0.62237 0.99549 0.62768 0.0
H610 H 0.65059 0.60279 0.91896 0.0
H611 H 0.55229 0.45678 0.90631 0.0
H612 H 0.54262 0.44739 0.94653 0.0
H613 H 0.56293 0.48071 0.98563 0.0
H614 H 0.65902 0.6274 0.99766 0.0
H615 H 0.66853 0.63637 0.95755 0.0
C616 C 0.62697 0.56884 0.92494 0.0
C617 C 0.6024 0.5305 0.90949 0.0
C618 C 0.62117 0.5638 0.94811 0.0
C619 C 0.57164 0.48695 0.91771 0.0
C620 C 0.56618 0.48153 0.94076 0.0
C621 C 0.58601 0.51459 0.97944 0.0
C622 C 0.61025 0.55333 0.99475 0.0
C623 C 0.59093 0.51967 0.95617 0.0
C624 C 0.63961 0.59707 0.98636 0.0
C625 C 0.64523 0.60221 0.96337 0.0
H626 H 0.1546 0.58659 0.2526 0.0
H627 H 1.02581 0.45849 0.23782 0.0
H628 H 1.01398 0.44739 0.27786 0.0
H629 H 1.0403 0.47461 0.3175 0.0
H630 H 0.16953 0.60295 0.33125 0.0
H631 H 0.18085 0.6131 0.29142 0.0
C632 C 0.12389 0.55606 0.25801 0.0
C633 C 1.09118 0.52346 0.24198 0.0
C634 C 0.1173 0.54989 0.28108 0.0
C635 C 1.05173 0.4842 0.24961 0.0
C636 C 1.04487 0.47788 0.27259 0.0
C637 C 1.07081 0.50488 0.31177 0.0
C638 C 0.10417 0.53775 0.32759 0.0
C639 C 1.07735 0.51061 0.28855 0.0
C640 C 0.14361 0.5766 0.31967 0.0
C641 C 0.15007 0.58263 0.2968 0.0
loop_
_geom_bond_atom_site_label_1
_geom_bond_atom_site_label_2
_geom_bond_distance
_geom_bond_site_symmetry_2
_ccdc_geom_bond_type
Eu0 C9 2.828 . S
Eu0 O11 2.392 1_655 S
Eu0 O13 2.418 . S
Eu0 O18 2.373 . S
Eu0 O21 2.488 . S
Eu0 O22 2.471 . S
Eu0 O23 2.349 . S
Eu1 O10 2.373 . S
Eu1 O14 2.488 . S
Eu1 O15 2.471 . S
Eu1 O16 2.349 . S
Eu1 O19 2.392 1_455 S
Eu1 O20 2.418 . S
Eu1 C30 2.828 . S
C2 O20 1.244 . S
C2 O23 1.265 1_455 S
C3 C4 1.379 . S
C3 C7 1.373 . S
C3 C9 1.505 . S
C4 C3 1.379 . S
C4 C6 1.369 . S
C4 H32 0.930 . S
C5 C7 1.383 . S
C5 C8 1.382 . S
C5 H33 0.930 . S
C6 C4 1.369 . S
C6 C8 1.392 . S
C6 H34 0.930 . S
C7 C3 1.373 . S
C7 C5 1.383 . S
C7 H35 0.931 . S
C8 C5 1.382 . S
C8 C6 1.392 . S
C9 Eu0 2.828 . S
C9 C3 1.505 . S
C9 O21 1.249 . S
C9 O22 1.244 . S
O10 Eu1 2.373 . S
O10 C12 1.258 . S
O11 Eu0 2.392 1_455 S
O11 C12 1.242 . S
C12 O10 1.258 . S
C12 O11 1.242 . S
O13 Eu0 2.418 . S
O13 C17 1.244 . S
O14 Eu1 2.488 . S
O14 C30 1.249 . S
O15 Eu1 2.471 . S
O15 C30 1.244 . S
O16 Eu1 2.349 . S
O16 C17 1.265 1_455 S
C17 O13 1.244 . S
C17 O16 1.265 1_655 S
O18 Eu0 2.373 . S
O18 C31 1.258 . S
O19 Eu1 2.392 1_655 S
O19 C31 1.242 . S
O20 Eu1 2.418 . S
O20 C2 1.244 . S
O21 Eu0 2.488 . S
O21 C9 1.249 . S
O22 Eu0 2.471 . S
O22 C9 1.244 . S
O23 Eu0 2.349 . S
O23 C2 1.265 1_655 S
C24 C25 1.379 . S
C24 C28 1.373 . S
C24 C30 1.505 . S
C25 C24 1.379 . S
C25 C27 1.369 . S
C25 H36 0.930 . S
C26 C28 1.383 . S
C26 C29 1.382 . S
C26 H37 0.930 . S
C27 C25 1.369 . S
C27 C29 1.392 . S
C27 H38 0.930 . S
C28 C24 1.373 . S
C28 C26 1.383 . S
C28 H39 0.931 . S
C29 C26 1.382 . S
C29 C27 1.392 . S
C30 Eu1 2.828 . S
C30 O14 1.249 . S
C30 O15 1.244 . S
C30 C24 1.505 . S
C31 O18 1.258 . S
C31 O19 1.242 . S
H32 C4 0.930 . S
H33 C5 0.930 . S
H34 C6 0.930 . S
H35 C7 0.931 . S
H36 C25 0.930 . S
H37 C26 0.930 . S
H38 C27 0.930 . S
H39 C28 0.931 . S
Eu40 C49 2.828 . S
Eu40 O51 2.392 1_565 S
Eu40 O53 2.418 . S
Eu40 O58 2.373 . S
Eu40 O61 2.488 . S
Eu40 O62 2.471 . S
Eu40 O63 2.349 . S
Eu41 O50 2.373 . S
Eu41 O54 2.488 . S
Eu41 O55 2.471 . S
Eu41 O56 2.349 . S
Eu41 O59 2.392 1_545 S
Eu41 O60 2.418 . S
Eu41 C70 2.828 . S
C42 O60 1.244 . S
C42 O63 1.265 1_545 S
C43 C44 1.379 . S
C43 C47 1.373 . S
C43 C49 1.505 . S
C44 C43 1.379 . S
C44 C46 1.369 . S
C44 H72 0.930 . S
C45 C47 1.383 . S
C45 C48 1.382 . S
C45 H73 0.930 . S
C46 C44 1.369 . S
C46 C48 1.392 . S
C46 H74 0.930 . S
C47 C43 1.373 . S
C47 C45 1.383 . S
C47 H75 0.931 . S
C48 C45 1.382 . S
C48 C46 1.392 . S
C49 Eu40 2.828 . S
C49 C43 1.505 . S
C49 O61 1.249 . S
C49 O62 1.244 . S
O50 Eu41 2.373 . S
O50 C52 1.258 . S
O51 Eu40 2.392 1_545 S
O51 C52 1.242 . S
C52 O50 1.258 . S
C52 O51 1.242 . S
O53 Eu40 2.418 . S
O53 C57 1.244 1_565 S
O54 Eu41 2.488 . S
O54 C70 1.249 . S
O55 Eu41 2.471 . S
O55 C70 1.244 . S
O56 Eu41 2.349 . S
O56 C57 1.265 . S
C57 O53 1.244 1_545 S
C57 O56 1.265 . S
O58 Eu40 2.373 . S
O58 C71 1.258 . S
O59 Eu41 2.392 1_565 S
O59 C71 1.242 . S
O60 Eu41 2.418 . S
O60 C42 1.244 . S
O61 Eu40 2.488 . S
O61 C49 1.249 . S
O62 Eu40 2.471 . S
O62 C49 1.244 . S
O63 Eu40 2.349 . S
O63 C42 1.265 1_565 S
C64 C65 1.379 . S
C64 C68 1.373 . S
C64 C70 1.505 . S
C65 C64 1.379 . S
C65 C67 1.369 . S
C65 H76 0.930 . S
C66 C68 1.383 . S
C66 C69 1.382 . S
C66 H77 0.930 . S
C67 C65 1.369 . S
C67 C69 1.392 . S
C67 H78 0.930 . S
C68 C64 1.373 . S
C68 C66 1.383 . S
C68 H79 0.931 . S
C69 C66 1.382 . S
C69 C67 1.392 . S
C70 Eu41 2.828 . S
C70 O54 1.249 . S
C70 O55 1.244 . S
C70 C64 1.505 . S
C71 O58 1.258 . S
C71 O59 1.242 . S
H72 C44 0.930 . S
H73 C45 0.930 . S
H74 C46 0.930 . S
H75 C47 0.931 . S
H76 C65 0.930 . S
H77 C66 0.930 . S
H78 C67 0.930 . S
H79 C68 0.931 . S
Eu80 C89 2.828 . S
Eu80 O91 2.392 . S
Eu80 O93 2.418 . S
Eu80 O98 2.373 . S
Eu80 O101 2.488 . S
Eu80 O102 2.471 . S
Eu80 O103 2.349 . S
Eu81 O90 2.373 . S
Eu81 O94 2.488 . S
Eu81 O95 2.471 . S
Eu81 O96 2.349 . S
Eu81 O99 2.392 . S
Eu81 O100 2.418 . S
Eu81 C110 2.828 . S
C82 O100 1.244 . S
C82 O103 1.265 . S
C83 C84 1.379 . S
C83 C87 1.373 . S
C83 C89 1.505 . S
C84 C83 1.379 . S
C84 C86 1.369 . S
C84 H112 0.930 . S
C85 C87 1.383 . S
C85 C88 1.382 . S
C85 H113 0.930 . S
C86 C84 1.369 . S
C86 C88 1.392 . S
C86 H114 0.930 . S
C87 C83 1.373 . S
C87 C85 1.383 . S
C87 H115 0.931 . S
C88 C85 1.382 . S
C88 C86 1.392 . S
C89 Eu80 2.828 . S
C89 C83 1.505 . S
C89 O101 1.249 . S
C89 O102 1.244 . S
O90 Eu81 2.373 . S
O90 C92 1.258 . S
O91 Eu80 2.392 . S
O91 C92 1.242 . S
C92 O90 1.258 . S
C92 O91 1.242 . S
O93 Eu80 2.418 . S
O93 C97 1.244 . S
O94 Eu81 2.488 . S
O94 C110 1.249 . S
O95 Eu81 2.471 . S
O95 C110 1.244 . S
O96 Eu81 2.349 . S
O96 C97 1.265 . S
C97 O93 1.244 . S
C97 O96 1.265 . S
O98 Eu80 2.373 . S
O98 C111 1.258 . S
O99 Eu81 2.392 . S
O99 C111 1.242 . S
O100 Eu81 2.418 . S
O100 C82 1.244 . S
O101 Eu80 2.488 . S
O101 C89 1.249 . S
O102 Eu80 2.471 . S
O102 C89 1.244 . S
O103 Eu80 2.349 . S
O103 C82 1.265 . S
C104 C105 1.379 . S
C104 C108 1.373 . S
C104 C110 1.505 . S
C105 C104 1.379 . S
C105 C107 1.369 . S
C105 H116 0.930 . S
C106 C108 1.383 . S
C106 C109 1.382 . S
C106 H117 0.930 . S
C107 C105 1.369 . S
C107 C109 1.392 . S
C107 H118 0.930 . S
C108 C104 1.373 . S
C108 C106 1.383 . S
C108 H119 0.931 . S
C109 C106 1.382 . S
C109 C107 1.392 . S
C110 Eu81 2.828 . S
C110 O94 1.249 . S
C110 O95 1.244 . S
C110 C104 1.505 . S
C111 O98 1.258 . S
C111 O99 1.242 . S
H112 C84 0.930 . S
H113 C85 0.930 . S
H114 C86 0.930 . S
H115 C87 0.931 . S
H116 C105 0.930 . S
H117 C106 0.930 . S
H118 C107 0.930 . S
H119 C108 0.931 . S
C120 C121 1.386 . S
C120 C122 1.397 . S
C120 H144 0.931 . S
C121 C120 1.386 . S
C121 C125 1.397 1_545 S
C122 C120 1.397 . S
C122 C123 1.384 . S
C122 H145 0.930 . S
C123 C122 1.384 . S
C123 C124 1.377 1_545 S
C123 C126 1.481 . S
C124 C123 1.377 1_565 S
C124 C125 1.389 . S
C124 H146 0.929 . S
C125 C121 1.397 1_565 S
C125 C124 1.389 . S
C125 H147 0.931 . S
C126 C123 1.481 . S
C126 C127 1.387 . S
C126 C131 1.390 1_545 S
C127 C126 1.387 . S
C127 C128 1.401 . S
C127 H148 0.930 . S
C128 C127 1.401 . S
C128 C129 1.376 . S
C128 C137 1.511 . S
C129 C128 1.376 . S
C129 C130 1.392 1_545 S
C129 H150 0.931 . S
C130 C129 1.392 1_565 S
C130 C131 1.361 . S
C130 C132 1.500 . S
C131 C126 1.390 1_565 S
C131 C130 1.361 . S
C131 H149 0.931 . S
C132 C130 1.500 . S
C132 C133 1.371 . S
C132 C134 1.365 . S
C133 C132 1.371 . S
C133 C143 1.386 . S
C133 H151 0.931 . S
C134 C132 1.365 . S
C134 C135 1.409 . S
C134 H152 0.929 . S
C135 C134 1.409 . S
C135 C136 1.380 . S
C135 H153 0.930 . S
C136 C135 1.380 . S
C136 C143 1.357 . S
C137 C128 1.511 . S
C137 C138 1.341 . S
C137 C139 1.371 . S
C138 C137 1.341 . S
C138 C142 1.394 . S
C138 H154 0.930 . S
C139 C137 1.371 . S
C139 C140 1.392 . S
C139 H155 0.931 . S
C140 C139 1.392 . S
C140 C141 1.331 . S
C140 H158 0.932 . S
C141 C140 1.331 . S
C141 C142 1.336 . S
C142 C138 1.394 . S
C142 C141 1.336 . S
C142 H157 0.929 . S
C143 C133 1.386 . S
C143 C136 1.357 . S
C143 H156 0.928 . S
H144 C120 0.931 . S
H145 C122 0.930 . S
H146 C124 0.929 . S
H147 C125 0.931 . S
H148 C127 0.930 . S
H149 C131 0.931 . S
H150 C129 0.931 . S
H151 C133 0.931 . S
H152 C134 0.929 . S
H153 C135 0.930 . S
H154 C138 0.930 . S
H155 C139 0.931 . S
H156 C143 0.928 . S
H157 C142 0.929 . S
H158 C140 0.932 . S
C159 C160 1.386 . S
C159 C161 1.397 . S
C159 H183 0.931 . S
C160 C159 1.386 . S
C160 C164 1.397 . S
C161 C159 1.397 . S
C161 C162 1.384 . S
C161 H184 0.930 . S
C162 C161 1.384 . S
C162 C163 1.377 . S
C162 C165 1.481 . S
C163 C162 1.377 . S
C163 C164 1.389 . S
C163 H185 0.929 . S
C164 C160 1.397 . S
C164 C163 1.389 . S
C164 H186 0.931 . S
C165 C162 1.481 . S
C165 C166 1.387 . S
C165 C170 1.390 . S
C166 C165 1.387 . S
C166 C167 1.401 . S
C166 H187 0.930 . S
C167 C166 1.401 . S
C167 C168 1.376 . S
C167 C176 1.511 . S
C168 C167 1.376 . S
C168 C169 1.392 . S
C168 H189 0.931 . S
C169 C168 1.392 . S
C169 C170 1.361 . S
C169 C171 1.500 . S
C170 C165 1.390 . S
C170 C169 1.361 . S
C170 H188 0.931 . S
C171 C169 1.500 . S
C171 C172 1.371 . S
C171 C173 1.365 . S
C172 C171 1.371 . S
C172 C182 1.386 . S
C172 H190 0.931 . S
C173 C171 1.365 . S
C173 C174 1.409 . S
C173 H191 0.929 . S
C174 C173 1.409 . S
C174 C175 1.380 . S
C174 H192 0.930 . S
C175 C174 1.380 . S
C175 C182 1.357 . S
C176 C167 1.511 . S
C176 C177 1.341 . S
C176 C178 1.371 . S
C177 C176 1.341 . S
C177 C181 1.394 . S
C177 H193 0.930 . S
C178 C176 1.371 . S
C178 C179 1.392 . S
C178 H194 0.931 . S
C179 C178 1.392 . S
C179 C180 1.331 . S
C179 H197 0.932 . S
C180 C179 1.331 . S
C180 C181 1.336 . S
C181 C177 1.394 . S
C181 C180 1.336 . S
C181 H196 0.929 . S
C182 C172 1.386 . S
C182 C175 1.357 . S
C182 H195 0.928 . S
H183 C159 0.931 . S
H184 C161 0.930 . S
H185 C163 0.929 . S
H186 C164 0.931 . S
H187 C166 0.930 . S
H188 C170 0.931 . S
H189 C168 0.931 . S
H190 C172 0.931 . S
H191 C173 0.929 . S
H192 C174 0.930 . S
H193 C177 0.930 . S
H194 C178 0.931 . S
H195 C182 0.928 . S
H196 C181 0.929 . S
H197 C179 0.932 . S
C198 C199 1.386 1_556 S
C198 C200 1.397 . S
C198 H222 0.931 1_556 S
C199 C198 1.386 1_554 S
C199 C203 1.397 1_454 S
C200 C198 1.397 . S
C200 C201 1.384 . S
C200 H223 0.930 . S
C201 C200 1.384 . S
C201 C202 1.357 1_455 S
C201 C204 1.481 . S
C202 C201 1.357 1_655 S
C202 C203 1.391 . S
C202 H224 0.949 . S
C203 C199 1.397 1_656 S
C203 C202 1.391 . S
C203 H225 0.916 1_556 S
C204 C201 1.481 . S
C204 C205 1.387 . S
C204 C209 1.390 . S
C205 C204 1.387 . S
C205 C206 1.401 . S
C205 H226 0.930 . S
C206 C205 1.401 . S
C206 C207 1.376 . S
C206 C215 1.511 . S
C207 C206 1.376 . S
C207 C208 1.392 . S
C207 H228 0.931 . S
C208 C207 1.392 . S
C208 C209 1.361 . S
C208 C210 1.500 1_455 S
C209 C204 1.390 . S
C209 C208 1.361 . S
C209 H227 0.931 1_455 S
C210 C208 1.500 1_655 S
C210 C211 1.371 . S
C210 C212 1.365 . S
C211 C210 1.371 . S
C211 C221 1.386 . S
C211 H229 0.908 1_655 S
C212 C210 1.365 . S
C212 C213 1.409 . S
C212 H230 0.929 . S
C213 C212 1.409 . S
C213 C214 1.380 . S
C213 H231 0.930 . S
C214 C213 1.380 . S
C214 C221 1.357 . S
C215 C206 1.511 . S
C215 C216 1.341 . S
C215 C217 1.371 . S
C216 C215 1.341 . S
C216 C220 1.394 . S
C216 H232 0.930 . S
C217 C215 1.371 . S
C217 C218 1.392 . S
C217 H233 0.931 . S
C218 C217 1.392 . S
C218 C219 1.331 . S
C218 H236 0.932 . S
C219 C218 1.331 . S
C219 C220 1.336 . S
C220 C216 1.394 . S
C220 C219 1.336 . S
C220 H235 0.929 . S
C221 C211 1.386 . S
C221 C214 1.357 . S
C221 H234 0.928 . S
H222 C198 0.931 1_554 S
H223 C200 0.930 . S
H224 C202 0.949 . S
H225 C203 0.916 1_554 S
H226 C205 0.930 . S
H227 C209 0.931 1_655 S
H228 C207 0.931 . S
H229 C211 0.908 1_455 S
H230 C212 0.929 . S
H231 C213 0.930 . S
H232 C216 0.930 . S
H233 C217 0.931 . S
H234 C221 0.928 . S
H235 C220 0.929 . S
H236 C218 0.932 . S
C237 C238 1.386 1_655 S
C237 C239 1.397 . S
C237 H261 0.931 . S
C238 C237 1.386 1_455 S
C238 C242 1.397 . S
C239 C237 1.397 . S
C239 C240 1.384 1_655 S
C239 H262 0.930 . S
C240 C239 1.384 1_455 S
C240 C241 1.377 . S
C240 C243 1.481 . S
C241 C240 1.377 . S
C241 C242 1.389 . S
C241 H263 0.929 . S
C242 C238 1.397 . S
C242 C241 1.389 . S
C242 H264 0.931 . S
C243 C240 1.481 . S
C243 C244 1.387 1_455 S
C243 C248 1.390 . S
C244 C243 1.387 1_655 S
C244 C245 1.401 . S
C244 H265 0.930 . S
C245 C244 1.401 . S
C245 C246 1.376 1_655 S
C245 C254 1.511 . S
C246 C245 1.376 1_455 S
C246 C247 1.392 . S
C246 H267 0.931 . S
C247 C246 1.392 . S
C247 C248 1.361 . S
C247 C249 1.500 . S
C248 C243 1.390 . S
C248 C247 1.361 . S
C248 H266 0.931 . S
C249 C247 1.500 . S
C249 C250 1.371 . S
C249 C251 1.365 . S
C250 C249 1.371 . S
C250 C260 1.386 . S
C250 H268 0.931 . S
C251 C249 1.365 . S
C251 C252 1.409 . S
C251 H269 0.929 . S
C252 C251 1.409 . S
C252 C253 1.380 . S
C252 H270 0.930 . S
C253 C252 1.380 . S
C253 C260 1.357 . S
C254 C245 1.511 . S
C254 C255 1.341 . S
C254 C256 1.371 . S
C255 C254 1.341 . S
C255 C259 1.394 . S
C255 H271 0.930 . S
C256 C254 1.371 . S
C256 C257 1.392 . S
C256 H272 0.931 . S
C257 C256 1.392 . S
C257 C258 1.331 . S
C257 H275 0.932 . S
C258 C257 1.331 . S
C258 C259 1.336 . S
C259 C255 1.394 . S
C259 C258 1.336 . S
C259 H274 0.929 . S
C260 C250 1.386 . S
C260 C253 1.357 . S
C260 H273 0.928 . S
H261 C237 0.931 . S
H262 C239 0.930 . S
H263 C241 0.929 . S
H264 C242 0.931 . S
H265 C244 0.930 . S
H266 C248 0.931 . S
H267 C246 0.931 . S
H268 C250 0.931 . S
H269 C251 0.929 . S
H270 C252 0.930 . S
H271 C255 0.930 . S
H272 C256 0.931 . S
H273 C260 0.928 . S
H274 C259 0.929 . S
H275 C257 0.932 . S
C276 C277 1.386 1_565 S
C276 C278 1.397 . S
C276 H300 0.931 . S
C277 C276 1.386 1_545 S
C277 C281 1.397 . S
C278 C276 1.397 . S
C278 C279 1.384 1_565 S
C278 H301 0.930 . S
C279 C278 1.384 1_545 S
C279 C280 1.377 . S
C279 C282 1.481 . S
C280 C279 1.377 . S
C280 C281 1.389 . S
C280 H302 0.929 . S
C281 C277 1.397 . S
C281 C280 1.389 . S
C281 H303 0.931 . S
C282 C279 1.481 . S
C282 C283 1.387 1_545 S
C282 C287 1.390 . S
C283 C282 1.387 1_565 S
C283 C284 1.401 . S
C283 H304 0.930 . S
C284 C283 1.401 . S
C284 C285 1.376 1_565 S
C284 C293 1.511 . S
C285 C284 1.376 1_545 S
C285 C286 1.392 . S
C285 H306 0.931 . S
C286 C285 1.392 . S
C286 C287 1.361 . S
C286 C288 1.500 . S
C287 C282 1.390 . S
C287 C286 1.361 . S
C287 H305 0.931 . S
C288 C286 1.500 . S
C288 C289 1.371 . S
C288 C290 1.365 . S
C289 C288 1.371 . S
C289 C299 1.386 . S
C289 H307 0.931 . S
C290 C288 1.365 . S
C290 C291 1.409 . S
C290 H308 0.929 . S
C291 C290 1.409 . S
C291 C292 1.380 . S
C291 H309 0.930 . S
C292 C291 1.380 . S
C292 C299 1.357 . S
C293 C284 1.511 . S
C293 C294 1.341 . S
C293 C295 1.371 . S
C294 C293 1.341 . S
C294 C298 1.394 . S
C294 H310 0.930 . S
C295 C293 1.371 . S
C295 C296 1.392 . S
C295 H311 0.931 . S
C296 C295 1.392 . S
C296 C297 1.331 . S
C296 H314 0.932 . S
C297 C296 1.331 . S
C297 C298 1.336 . S
C298 C294 1.394 . S
C298 C297 1.336 . S
C298 H313 0.929 . S
C299 C289 1.386 . S
C299 C292 1.357 . S
C299 H312 0.928 . S
H300 C276 0.931 . S
H301 C278 0.930 . S
H302 C280 0.929 . S
H303 C281 0.931 . S
H304 C283 0.930 . S
H305 C287 0.931 . S
H306 C285 0.931 . S
H307 C289 0.931 . S
H308 C290 0.929 . S
H309 C291 0.930 . S
H310 C294 0.930 . S
H311 C295 0.931 . S
H312 C299 0.928 . S
H313 C298 0.929 . S
H314 C296 0.932 . S
C315 C316 1.386 . S
C315 C317 1.397 . S
C315 H339 0.931 . S
C316 C315 1.386 . S
C316 C320 1.397 . S
C317 C315 1.397 . S
C317 C318 1.384 . S
C317 H340 0.930 . S
C318 C317 1.384 . S
C318 C319 1.377 . S
C318 C321 1.481 . S
C319 C318 1.377 . S
C319 C320 1.389 . S
C319 H341 0.929 . S
C320 C316 1.397 . S
C320 C319 1.389 . S
C320 H342 0.931 . S
C321 C318 1.481 . S
C321 C322 1.387 . S
C321 C326 1.390 . S
C322 C321 1.387 . S
C322 C323 1.401 . S
C322 H343 0.930 . S
C323 C322 1.401 . S
C323 C324 1.376 . S
C323 C332 1.511 . S
C324 C323 1.376 . S
C324 C325 1.392 . S
C324 H345 0.931 . S
C325 C324 1.392 . S
C325 C326 1.361 . S
C325 C327 1.500 . S
C326 C321 1.390 . S
C326 C325 1.361 . S
C326 H344 0.931 . S
C327 C325 1.500 . S
C327 C328 1.371 . S
C327 C329 1.365 . S
C328 C327 1.371 . S
C328 C338 1.386 . S
C328 H346 0.931 . S
C329 C327 1.365 . S
C329 C330 1.409 . S
C329 H347 0.929 . S
C330 C329 1.409 . S
C330 C331 1.380 . S
C330 H348 0.930 . S
C331 C330 1.380 . S
C331 C338 1.357 . S
C332 C323 1.511 . S
C332 C333 1.341 . S
C332 C334 1.371 . S
C333 C332 1.341 . S
C333 C337 1.394 . S
C333 H349 0.930 . S
C334 C332 1.371 . S
C334 C335 1.392 . S
C334 H350 0.931 . S
C335 C334 1.392 . S
C335 C336 1.331 . S
C335 H353 0.932 . S
C336 C335 1.331 . S
C336 C337 1.336 . S
C337 C333 1.394 . S
C337 C336 1.336 . S
C337 H352 0.929 . S
C338 C328 1.386 . S
C338 C331 1.357 . S
C338 H351 0.928 . S
H339 C315 0.931 . S
H340 C317 0.930 . S
H341 C319 0.929 . S
H342 C320 0.931 . S
H343 C322 0.930 . S
H344 C326 0.931 . S
H345 C324 0.931 . S
H346 C328 0.931 . S
H347 C329 0.929 . S
H348 C330 0.930 . S
H349 C333 0.930 . S
H350 C334 0.931 . S
H351 C338 0.928 . S
H352 C337 0.929 . S
H353 C335 0.932 . S
H354 C360 0.930 . S
H355 C363 0.930 . S
H356 C364 0.930 . S
H357 C365 0.930 . S
H358 C368 0.930 . S
H359 C369 0.930 . S
C360 H354 0.930 . S
C360 C361 1.355 . S
C360 C362 1.415 . S
C361 C360 1.355 . S
C361 C363 1.419 . S
C362 C360 1.415 . S
C362 C367 1.425 . S
C362 C369 1.409 . S
C363 H355 0.930 . S
C363 C361 1.419 . S
C363 C364 1.362 . S
C364 H356 0.930 . S
C364 C363 1.362 . S
C364 C367 1.409 . S
C365 H357 0.930 . S
C365 C366 1.355 . S
C365 C367 1.415 . S
C366 C365 1.355 . S
C366 C368 1.419 . S
C367 C362 1.425 . S
C367 C364 1.409 . S
C367 C365 1.415 . S
C368 H358 0.930 . S
C368 C366 1.419 . S
C368 C369 1.362 . S
C369 H359 0.930 . S
C369 C362 1.409 . S
C369 C368 1.362 . S
H370 C376 0.930 . S
H371 C379 0.930 . S
H372 C380 0.930 . S
H373 C381 0.930 . S
H374 C384 0.930 . S
H375 C385 0.930 . S
C376 H370 0.930 . S
C376 C377 1.355 . S
C376 C378 1.415 . S
C377 C376 1.355 . S
C377 C379 1.419 . S
C378 C376 1.415 . S
C378 C383 1.425 . S
C378 C385 1.409 . S
C379 H371 0.930 . S
C379 C377 1.419 . S
C379 C380 1.362 . S
C380 H372 0.930 . S
C380 C379 1.362 . S
C380 C383 1.409 . S
C381 H373 0.930 . S
C381 C382 1.355 . S
C381 C383 1.415 . S
C382 C381 1.355 . S
C382 C384 1.419 . S
C383 C378 1.425 . S
C383 C380 1.409 . S
C383 C381 1.415 . S
C384 H374 0.930 . S
C384 C382 1.419 . S
C384 C385 1.362 . S
C385 H375 0.930 . S
C385 C378 1.409 . S
C385 C384 1.362 . S
H386 C392 0.930 . S
H387 C395 0.930 . S
H388 C396 0.930 . S
H389 C397 0.930 . S
H390 C400 0.930 . S
H391 C401 0.930 . S
C392 H386 0.930 . S
C392 C393 1.355 . S
C392 C394 1.415 . S
C393 C392 1.355 . S
C393 C395 1.419 . S
C394 C392 1.415 . S
C394 C399 1.425 . S
C394 C401 1.409 . S
C395 H387 0.930 . S
C395 C393 1.419 . S
C395 C396 1.362 . S
C396 H388 0.930 . S
C396 C395 1.362 . S
C396 C399 1.409 . S
C397 H389 0.930 . S
C397 C398 1.355 . S
C397 C399 1.415 . S
C398 C397 1.355 . S
C398 C400 1.419 . S
C399 C394 1.425 . S
C399 C396 1.409 . S
C399 C397 1.415 . S
C400 H390 0.930 . S
C400 C398 1.419 . S
C400 C401 1.362 . S
C401 H391 0.930 . S
C401 C394 1.409 . S
C401 C400 1.362 . S
H402 C408 0.930 . S
H403 C411 0.930 . S
H404 C412 0.930 . S
H405 C413 0.930 . S
H406 C416 0.930 . S
H407 C417 0.930 . S
C408 H402 0.930 . S
C408 C409 1.355 . S
C408 C410 1.415 . S
C409 C408 1.355 . S
C409 C411 1.419 . S
C410 C408 1.415 . S
C410 C415 1.425 . S
C410 C417 1.409 . S
C411 H403 0.930 . S
C411 C409 1.419 . S
C411 C412 1.362 . S
C412 H404 0.930 . S
C412 C411 1.362 . S
C412 C415 1.409 . S
C413 H405 0.930 . S
C413 C414 1.355 . S
C413 C415 1.415 . S
C414 C413 1.355 . S
C414 C416 1.419 . S
C415 C410 1.425 . S
C415 C412 1.409 . S
C415 C413 1.415 . S
C416 H406 0.930 . S
C416 C414 1.419 . S
C416 C417 1.362 . S
C417 H407 0.930 . S
C417 C410 1.409 . S
C417 C416 1.362 . S
H418 C424 0.930 . S
H419 C427 0.930 . S
H420 C428 0.930 . S
H421 C429 0.930 . S
H422 C432 0.930 . S
H423 C433 0.930 . S
C424 H418 0.930 . S
C424 C425 1.355 . S
C424 C426 1.415 . S
C425 C424 1.355 . S
C425 C427 1.419 . S
C426 C424 1.415 . S
C426 C431 1.425 . S
C426 C433 1.409 . S
C427 H419 0.930 . S
C427 C425 1.419 . S
C427 C428 1.362 . S
C428 H420 0.930 . S
C428 C427 1.362 . S
C428 C431 1.409 . S
C429 H421 0.930 . S
C429 C430 1.355 . S
C429 C431 1.415 . S
C430 C429 1.355 . S
C430 C432 1.419 . S
C431 C426 1.425 . S
C431 C428 1.409 . S
C431 C429 1.415 . S
C432 H422 0.930 . S
C432 C430 1.419 . S
C432 C433 1.362 . S
C433 H423 0.930 . S
C433 C426 1.409 . S
C433 C432 1.362 . S
H434 C440 0.930 . S
H435 C443 0.930 . S
H436 C444 0.930 . S
H437 C445 0.930 . S
H438 C448 0.930 . S
H439 C449 0.930 . S
C440 H434 0.930 . S
C440 C441 1.355 . S
C440 C442 1.415 . S
C441 C440 1.355 . S
C441 C443 1.419 . S
C442 C440 1.415 . S
C442 C447 1.425 . S
C442 C449 1.409 . S
C443 H435 0.930 . S
C443 C441 1.419 . S
C443 C444 1.362 . S
C444 H436 0.930 . S
C444 C443 1.362 . S
C444 C447 1.409 . S
C445 H437 0.930 . S
C445 C446 1.355 . S
C445 C447 1.415 . S
C446 C445 1.355 . S
C446 C448 1.419 . S
C447 C442 1.425 . S
C447 C444 1.409 . S
C447 C445 1.415 . S
C448 H438 0.930 . S
C448 C446 1.419 . S
C448 C449 1.362 . S
C449 H439 0.930 . S
C449 C442 1.409 . S
C449 C448 1.362 . S
H450 C456 0.930 . S
H451 C459 0.930 . S
H452 C460 0.930 . S
H453 C461 0.930 . S
H454 C464 0.930 . S
H455 C465 0.930 . S
C456 H450 0.930 . S
C456 C457 1.355 . S
C456 C458 1.415 . S
C457 C456 1.355 . S
C457 C459 1.419 . S
C458 C456 1.415 . S
C458 C463 1.425 . S
C458 C465 1.409 . S
C459 H451 0.930 . S
C459 C457 1.419 . S
C459 C460 1.362 . S
C460 H452 0.930 . S
C460 C459 1.362 . S
C460 C463 1.409 . S
C461 H453 0.930 . S
C461 C462 1.355 . S
C461 C463 1.415 . S
C462 C461 1.355 . S
C462 C464 1.419 . S
C463 C458 1.425 . S
C463 C460 1.409 . S
C463 C461 1.415 . S
C464 H454 0.930 . S
C464 C462 1.419 . S
C464 C465 1.362 . S
C465 H455 0.930 . S
C465 C458 1.409 . S
C465 C464 1.362 . S
H466 C472 0.930 . S
H467 C475 0.930 . S
H468 C476 0.930 . S
H469 C477 0.930 . S
H470 C480 0.930 . S
H471 C481 0.930 . S
C472 H466 0.930 . S
C472 C473 1.355 . S
C472 C474 1.415 . S
C473 C472 1.355 . S
C473 C475 1.419 . S
C474 C472 1.415 . S
C474 C479 1.425 . S
C474 C481 1.409 . S
C475 H467 0.930 . S
C475 C473 1.419 . S
C475 C476 1.362 . S
C476 H468 0.930 . S
C476 C475 1.362 . S
C476 C479 1.409 . S
C477 H469 0.930 . S
C477 C478 1.355 . S
C477 C479 1.415 . S
C478 C477 1.355 . S
C478 C480 1.419 . S
C479 C474 1.425 . S
C479 C476 1.409 . S
C479 C477 1.415 . S
C480 H470 0.930 . S
C480 C478 1.419 . S
C480 C481 1.362 . S
C481 H471 0.930 . S
C481 C474 1.409 . S
C481 C480 1.362 . S
H482 C488 0.930 . S
H483 C491 0.930 . S
H484 C492 0.930 . S
H485 C493 0.930 . S
H486 C496 0.930 . S
H487 C497 0.930 . S
C488 H482 0.930 . S
C488 C489 1.355 . S
C488 C490 1.415 . S
C489 C488 1.355 . S
C489 C491 1.419 . S
C490 C488 1.415 . S
C490 C495 1.425 . S
C490 C497 1.409 . S
C491 H483 0.930 . S
C491 C489 1.419 . S
C491 C492 1.362 . S
C492 H484 0.930 . S
C492 C491 1.362 . S
C492 C495 1.409 . S
C493 H485 0.930 . S
C493 C494 1.355 . S
C493 C495 1.415 . S
C494 C493 1.355 . S
C494 C496 1.419 . S
C495 C490 1.425 . S
C495 C492 1.409 . S
C495 C493 1.415 . S
C496 H486 0.930 . S
C496 C494 1.419 . S
C496 C497 1.362 . S
C497 H487 0.930 . S
C497 C490 1.409 . S
C497 C496 1.362 . S
H498 C504 0.930 . S
H499 C507 0.930 . S
H500 C508 0.930 . S
H501 C509 0.930 . S
H502 C512 0.930 . S
H503 C513 0.930 . S
C504 H498 0.930 . S
C504 C505 1.355 . S
C504 C506 1.415 . S
C505 C504 1.355 . S
C505 C507 1.419 . S
C506 C504 1.415 . S
C506 C511 1.425 . S
C506 C513 1.409 . S
C507 H499 0.930 . S
C507 C505 1.419 . S
C507 C508 1.362 . S
C508 H500 0.930 . S
C508 C507 1.362 . S
C508 C511 1.409 . S
C509 H501 0.930 . S
C509 C510 1.355 . S
C509 C511 1.415 . S
C510 C509 1.355 . S
C510 C512 1.419 . S
C511 C506 1.425 . S
C511 C508 1.409 . S
C511 C509 1.415 . S
C512 H502 0.930 . S
C512 C510 1.419 . S
C512 C513 1.362 . S
C513 H503 0.930 . S
C513 C506 1.409 . S
C513 C512 1.362 . S
H514 C520 0.930 . S
H515 C523 0.930 . S
H516 C524 0.930 . S
H517 C525 0.930 . S
H518 C528 0.930 . S
H519 C529 0.930 . S
C520 H514 0.930 . S
C520 C521 1.355 . S
C520 C522 1.415 . S
C521 C520 1.355 . S
C521 C523 1.419 . S
C522 C520 1.415 . S
C522 C527 1.425 . S
C522 C529 1.409 . S
C523 H515 0.930 . S
C523 C521 1.419 . S
C523 C524 1.362 . S
C524 H516 0.930 . S
C524 C523 1.362 . S
C524 C527 1.409 . S
C525 H517 0.930 . S
C525 C526 1.355 . S
C525 C527 1.415 . S
C526 C525 1.355 . S
C526 C528 1.419 . S
C527 C522 1.425 . S
C527 C524 1.409 . S
C527 C525 1.415 . S
C528 H518 0.930 . S
C528 C526 1.419 . S
C528 C529 1.362 . S
C529 H519 0.930 . S
C529 C522 1.409 . S
C529 C528 1.362 . S
H530 C536 0.930 . S
H531 C539 0.930 . S
H532 C540 0.930 . S
H533 C541 0.930 . S
H534 C544 0.930 . S
H535 C545 0.930 . S
C536 H530 0.930 . S
C536 C537 1.355 . S
C536 C538 1.415 . S
C537 C536 1.355 . S
C537 C539 1.419 . S
C538 C536 1.415 . S
C538 C543 1.425 . S
C538 C545 1.409 . S
C539 H531 0.930 . S
C539 C537 1.419 . S
C539 C540 1.362 . S
C540 H532 0.930 . S
C540 C539 1.362 . S
C540 C543 1.409 . S
C541 H533 0.930 . S
C541 C542 1.355 . S
C541 C543 1.415 . S
C542 C541 1.355 . S
C542 C544 1.419 . S
C543 C538 1.425 . S
C543 C540 1.409 . S
C543 C541 1.415 . S
C544 H534 0.930 . S
C544 C542 1.419 . S
C544 C545 1.362 . S
C545 H535 0.930 . S
C545 C538 1.409 . S
C545 C544 1.362 . S
H546 C552 0.930 . S
H547 C555 0.930 . S
H548 C556 0.930 . S
H549 C557 0.930 . S
H550 C560 0.930 1_655 S
H551 C561 0.930 . S
C552 H546 0.930 . S
C552 C553 1.355 1_655 S
C552 C554 1.415 1_655 S
C553 C552 1.355 1_455 S
C553 C555 1.419 . S
C554 C552 1.415 1_455 S
C554 C559 1.425 . S
C554 C561 1.409 1_455 S
C555 H547 0.930 . S
C555 C553 1.419 . S
C555 C556 1.362 . S
C556 H548 0.930 . S
C556 C555 1.362 . S
C556 C559 1.409 . S
C557 H549 0.930 . S
C557 C558 1.355 . S
C557 C559 1.415 . S
C558 C557 1.355 . S
C558 C560 1.419 . S
C559 C554 1.425 . S
C559 C556 1.409 . S
C559 C557 1.415 . S
C560 H550 0.930 1_455 S
C560 C558 1.419 . S
C560 C561 1.362 1_455 S
C561 H551 0.930 . S
C561 C554 1.409 1_655 S
C561 C560 1.362 1_655 S
H562 C568 0.930 . S
H563 C571 0.930 . S
H564 C572 0.930 . S
H565 C573 0.930 . S
H566 C576 0.930 . S
H567 C577 0.930 . S
C568 H562 0.930 . S
C568 C569 1.355 1_565 S
C568 C570 1.427 . S
C569 C568 1.355 1_545 S
C569 C571 1.419 . S
C570 C568 1.427 . S
C570 C575 1.394 1_565 S
C570 C577 1.426 . S
C571 H563 0.930 . S
C571 C569 1.419 . S
C571 C572 1.362 . S
C572 H564 0.930 . S
C572 C571 1.362 . S
C572 C575 1.409 . S
C573 H565 0.930 . S
C573 C574 1.355 . S
C573 C575 1.415 . S
C574 C573 1.355 . S
C574 C576 1.419 1_545 S
C575 C570 1.394 1_545 S
C575 C572 1.409 . S
C575 C573 1.415 . S
C576 H566 0.930 . S
C576 C574 1.419 1_565 S
C576 C577 1.362 . S
C577 H567 0.930 . S
C577 C570 1.426 . S
C577 C576 1.362 . S
H578 C584 0.930 . S
H579 C587 0.930 . S
H580 C588 0.930 . S
H581 C589 0.930 . S
H582 C592 0.930 . S
H583 C593 0.930 . S
C584 H578 0.930 . S
C584 C585 1.355 . S
C584 C586 1.415 . S
C585 C584 1.355 . S
C585 C587 1.419 . S
C586 C584 1.415 . S
C586 C591 1.425 . S
C586 C593 1.409 . S
C587 H579 0.930 . S
C587 C585 1.419 . S
C587 C588 1.362 . S
C588 H580 0.930 . S
C588 C587 1.362 . S
C588 C591 1.409 . S
C589 H581 0.930 . S
C589 C590 1.355 . S
C589 C591 1.415 . S
C590 C589 1.355 . S
C590 C592 1.419 . S
C591 C586 1.425 . S
C591 C588 1.409 . S
C591 C589 1.415 . S
C592 H582 0.930 . S
C592 C590 1.419 . S
C592 C593 1.362 . S
C593 H583 0.930 . S
C593 C586 1.409 . S
C593 C592 1.362 . S
H594 C600 0.930 . S
H595 C603 0.930 . S
H596 C604 0.930 . S
H597 C605 0.930 . S
H598 C608 0.930 . S
H599 C609 0.930 . S
C600 H594 0.930 . S
C600 C601 1.355 1_565 S
C600 C602 1.415 . S
C601 C600 1.355 1_545 S
C601 C603 1.419 . S
C602 C600 1.415 . S
C602 C607 1.425 1_565 S
C602 C609 1.409 . S
C603 H595 0.930 . S
C603 C601 1.419 . S
C603 C604 1.362 . S
C604 H596 0.930 . S
C604 C603 1.362 . S
C604 C607 1.409 . S
C605 H597 0.930 . S
C605 C606 1.355 . S
C605 C607 1.415 . S
C606 C605 1.355 . S
C606 C608 1.419 1_545 S
C607 C602 1.425 1_545 S
C607 C604 1.409 . S
C607 C605 1.415 . S
C608 H598 0.930 . S
C608 C606 1.419 1_565 S
C608 C609 1.362 . S
C609 H599 0.930 . S
C609 C602 1.409 . S
C609 C608 1.362 . S
H610 C616 0.930 . S
H611 C619 0.930 . S
H612 C620 0.930 . S
H613 C621 0.930 . S
H614 C624 0.930 . S
H615 C625 0.930 . S
C616 H610 0.930 . S
C616 C617 1.355 . S
C616 C618 1.415 . S
C617 C616 1.355 . S
C617 C619 1.419 . S
C618 C616 1.415 . S
C618 C623 1.425 . S
C618 C625 1.409 . S
C619 H611 0.930 . S
C619 C617 1.419 . S
C619 C620 1.362 . S
C620 H612 0.930 . S
C620 C619 1.362 . S
C620 C623 1.409 . S
C621 H613 0.930 . S
C621 C622 1.355 . S
C621 C623 1.415 . S
C622 C621 1.355 . S
C622 C624 1.419 . S
C623 C618 1.425 . S
C623 C620 1.409 . S
C623 C621 1.415 . S
C624 H614 0.930 . S
C624 C622 1.419 . S
C624 C625 1.362 . S
C625 H615 0.930 . S
C625 C618 1.409 . S
C625 C624 1.362 . S
H626 C632 0.930 . S
H627 C635 0.930 . S
H628 C636 0.930 . S
H629 C637 0.930 . S
H630 C640 0.930 . S
H631 C641 0.930 . S
C632 H626 0.930 . S
C632 C633 1.355 1_455 S
C632 C634 1.415 . S
C633 C632 1.355 1_655 S
C633 C635 1.419 . S
C634 C632 1.415 . S
C634 C639 1.425 1_455 S
C634 C641 1.409 . S
C635 H627 0.930 . S
C635 C633 1.419 . S
C635 C636 1.362 . S
C636 H628 0.930 . S
C636 C635 1.362 . S
C636 C639 1.409 . S
C637 H629 0.930 . S
C637 C638 1.355 1_655 S
C637 C639 1.415 . S
C638 C637 1.355 1_455 S
C638 C640 1.419 . S
C639 C634 1.425 1_655 S
C639 C636 1.409 . S
C639 C637 1.415 . S
C640 H630 0.930 . S
C640 C638 1.419 . S
C640 C641 1.362 . S
C641 H631 0.930 . S
C641 C634 1.409 . S
C641 C640 1.362 . S
C361 C12 2.994 . S
C366 C331 2.950 . S
C377 C52 2.987 . S
C382 C258 2.949 . S
C393 C111 3.034 . S
C398 C297 2.989 . S
C409 C31 3.160 . S
C414 C336 3.073 . S
C430 C253 3.100 . S
C425 C71 3.169 . S
C446 C292 3.046 . S
C441 C92 3.113 . S
C457 C48 0.523 . S
C462 C180 0.476 . S
C473 C109 0.510 . S
C478 C214 0.545 . S
C489 C29 0.643 . S
C494 C136 0.559 . S
C510 C175 0.406 . S
C505 C69 0.607 . S
C526 C219 0.354 . S
C521 C88 0.326 . S
C537 C8 0.451 . S
C542 C141 0.306 . S
C558 C199 1.074 . S
C553 C17 1.032 1_455 S
C569 C57 1.059 . S
C574 C121 1.047 . S
C585 C97 1.036 . S
C590 C160 1.091 . S
C606 C277 1.788 . S
C601 C42 1.698 . S
C622 C316 1.789 1_556 S
C617 C82 1.733 . S
C633 C2 1.765 1_655 S
C638 C238 1.789 . S
