# Generated by pormake.
# Topology ptr, (4,4)-cn, num edge types: 1
# Building blocks:
#     Node 0, Type 0, BuildingBlock: KUFVIS_clean_sbu_0, # of connection points: 4
#     Node 1, Type 0, BuildingBlock: KUFVIS_clean_sbu_0, # of connection points: 4
#     Node 2, Type 0, BuildingBlock: KUFVIS_clean_sbu_0, # of connection points: 4
#     Node 3, Type 0, BuildingBlock: KUFVIS_clean_sbu_0, # of connection points: 4
#     Node 4, Type 0, BuildingBlock: KUFVIS_clean_sbu_0, # of connection points: 4
#     Node 5, Type 0, BuildingBlock: KUFVIS_clean_sbu_0, # of connection points: 4
#     Node 6, Type 0, BuildingBlock: KUFVIS_clean_sbu_0, # of connection points: 4
#     Node 7, Type 0, BuildingBlock: KUFVIS_clean_sbu_0, # of connection points: 4
#     Node 8, Type 0, BuildingBlock: KUFVIS_clean_sbu_0, # of connection points: 4
#     Node 9, Type 0, BuildingBlock: KUFVIS_clean_sbu_0, # of connection points: 4
#     Node 10, Type 0, BuildingBlock: KUFVIS_clean_sbu_0, # of connection points: 4
#     Node 11, Type 0, BuildingBlock: KUFVIS_clean_sbu_0, # of connection points: 4
#     Node 12, Type 0, BuildingBlock: KUFVIS_clean_sbu_0, # of connection points: 4
#     Node 13, Type 0, BuildingBlock: KUFVIS_clean_sbu_0, # of connection points: 4
#     Node 14, Type 0, BuildingBlock: KUFVIS_clean_sbu_0, # of connection points: 4
#     Node 15, Type 0, BuildingBlock: KUFVIS_clean_sbu_0, # of connection points: 4
#     Node 16, Type 0, BuildingBlock: KUFVIS_clean_sbu_0, # of connection points: 4
#     Node 17, Type 0, BuildingBlock: KUFVIS_clean_sbu_0, # of connection points: 4
#     Node 18, Type 1, BuildingBlock: MUDLON_clean_linker_0, # of connection points: 4
#     Node 19, Type 1, BuildingBlock: MUDLON_clean_linker_0, # of connection points: 4
#     Node 20, Type 1, BuildingBlock: MUDLON_clean_linker_0, # of connection points: 4
#     Node 21, Type 1, BuildingBlock: MUDLON_clean_linker_0, # of connection points: 4
#     Node 22, Type 1, BuildingBlock: MUDLON_clean_linker_0, # of connection points: 4
#     Node 23, Type 1, BuildingBlock: MUDLON_clean_linker_0, # of connection points: 4
#     Node 24, Type 1, BuildingBlock: MUDLON_clean_linker_0, # of connection points: 4
#     Node 25, Type 1, BuildingBlock: MUDLON_clean_linker_0, # of connection points: 4
#     Node 26, Type 1, BuildingBlock: MUDLON_clean_linker_0, # of connection points: 4
#     Node 27, Type 1, BuildingBlock: MUDLON_clean_linker_0, # of connection points: 4
#     Node 28, Type 1, BuildingBlock: MUDLON_clean_linker_0, # of connection points: 4
#     Node 29, Type 1, BuildingBlock: MUDLON_clean_linker_0, # of connection points: 4
#     Node 30, Type 1, BuildingBlock: MUDLON_clean_linker_0, # of connection points: 4
#     Node 31, Type 1, BuildingBlock: MUDLON_clean_linker_0, # of connection points: 4
#     Node 32, Type 1, BuildingBlock: MUDLON_clean_linker_0, # of connection points: 4
#     Node 33, Type 1, BuildingBlock: MUDLON_clean_linker_0, # of connection points: 4
#     Node 34, Type 1, BuildingBlock: MUDLON_clean_linker_0, # of connection points: 4
#     Node 35, Type 1, BuildingBlock: MUDLON_clean_linker_0, # of connection points: 4
#     Edge 36, Type (0, 1), None
#     Edge 37, Type (0, 1), None
#     Edge 38, Type (0, 1), None
#     Edge 39, Type (0, 1), None
#     Edge 40, Type (0, 1), None
#     Edge 41, Type (0, 1), None
#     Edge 42, Type (0, 1), None
#     Edge 43, Type (0, 1), None
#     Edge 44, Type (0, 1), None
#     Edge 45, Type (0, 1), None
#     Edge 46, Type (0, 1), None
#     Edge 47, Type (0, 1), None
#     Edge 48, Type (0, 1), None
#     Edge 49, Type (0, 1), None
#     Edge 50, Type (0, 1), None
#     Edge 51, Type (0, 1), None
#     Edge 52, Type (0, 1), None
#     Edge 53, Type (0, 1), None
#     Edge 54, Type (0, 1), None
#     Edge 55, Type (0, 1), None
#     Edge 56, Type (0, 1), None
#     Edge 57, Type (0, 1), None
#     Edge 58, Type (0, 1), None
#     Edge 59, Type (0, 1), None
#     Edge 60, Type (0, 1), None
#     Edge 61, Type (0, 1), None
#     Edge 62, Type (0, 1), None
#     Edge 63, Type (0, 1), None
#     Edge 64, Type (0, 1), None
#     Edge 65, Type (0, 1), None
#     Edge 66, Type (0, 1), None
#     Edge 67, Type (0, 1), None
#     Edge 68, Type (0, 1), None
#     Edge 69, Type (0, 1), None
#     Edge 70, Type (0, 1), None
#     Edge 71, Type (0, 1), None
#     Edge 72, Type (0, 1), None
#     Edge 73, Type (0, 1), None
#     Edge 74, Type (0, 1), None
#     Edge 75, Type (0, 1), None
#     Edge 76, Type (0, 1), None
#     Edge 77, Type (0, 1), None
#     Edge 78, Type (0, 1), None
#     Edge 79, Type (0, 1), None
#     Edge 80, Type (0, 1), None
#     Edge 81, Type (0, 1), None
#     Edge 82, Type (0, 1), None
#     Edge 83, Type (0, 1), None
#     Edge 84, Type (0, 1), None
#     Edge 85, Type (0, 1), None
#     Edge 86, Type (0, 1), None
#     Edge 87, Type (0, 1), None
#     Edge 88, Type (0, 1), None
#     Edge 89, Type (0, 1), None
#     Edge 90, Type (0, 1), None
#     Edge 91, Type (0, 1), None
#     Edge 92, Type (0, 1), None
#     Edge 93, Type (0, 1), None
#     Edge 94, Type (0, 1), None
#     Edge 95, Type (0, 1), None
#     Edge 96, Type (0, 1), None
#     Edge 97, Type (0, 1), None
#     Edge 98, Type (0, 1), None
#     Edge 99, Type (0, 1), None
#     Edge 100, Type (0, 1), None
#     Edge 101, Type (0, 1), None
#     Edge 102, Type (0, 1), None
#     Edge 103, Type (0, 1), None
#     Edge 104, Type (0, 1), None
#     Edge 105, Type (0, 1), None
#     Edge 106, Type (0, 1), None
#     Edge 107, Type (0, 1), None
# Relax obj value: 0.035
# Max RMSD: 0.133
# Mean RMSD: 0.078
data_MOF--net-ptr--node1-KUFVIS_clean_sbu_0--node2-MUDLON_clean_linker_0--edge1-none
_symmetry_space_group_name_H-M    P1
_symmetry_Int_Tables_number       1
_symmetry_cell_setting            triclinic
loop_
_symmetry_equiv_pos_as_xyz
'x, y, z'
_cell_length_a     61.905768
_cell_length_b     61.578141
_cell_length_c     36.16062
_cell_angle_alpha  89.534335
_cell_angle_beta   90.888327
_cell_angle_gamma 119.40325
loop_
_atom_site_label
_atom_site_type_symbol
_atom_site_fract_x
_atom_site_fract_y
_atom_site_fract_z
_atom_type_partial_charge
Mn0 Mn 0.99995 0.34653 0.01453 0.0
Mn1 Mn 0.05465 0.39896 0.02797 0.0
C2 C 0.01181 0.37981 0.97442 0.0
C3 C 0.97782 0.30715 0.98749 0.0
C4 C 0.00928 0.38467 0.075 0.0
O5 O 0.01833 0.3355 0.0506 0.0
O6 O 0.05555 0.37058 0.05368 0.0
C7 C 0.08729 0.38601 0.98574 0.0
N8 N 0.07789 0.40154 0.99167 0.0
C9 C 0.10187 0.42862 0.94217 0.0
C10 C 0.11195 0.413 0.93569 0.0
C11 C 0.10461 0.3916 0.95755 0.0
C12 C 0.08492 0.42226 0.97095 0.0
H13 H 0.08156 0.36946 1.00235 0.0
C14 C 0.04075 0.34775 0.06238 0.0
O15 O 0.96907 0.31315 0.01569 0.0
O16 O 0.99948 0.32354 0.97595 0.0
N17 N 0.05614 0.42764 1.00455 0.0
C18 C 0.0431 0.43952 1.01235 0.0
C19 C 0.04732 0.46065 0.99175 0.0
C20 C 0.06494 0.46939 0.96348 0.0
C21 C 0.07826 0.45695 0.95615 0.0
C22 C 0.07341 0.43611 0.97779 0.0
H23 H 0.02941 0.43276 0.03388 0.0
O24 O 0.98869 0.36292 0.97701 0.0
O25 O 0.02733 0.37659 0.99533 0.0
O26 O 0.99414 0.36513 0.05698 0.0
O27 O 0.03203 0.39823 0.06639 0.0
C28 C 0.09563 0.46398 0.92752 0.0
C29 C 0.10744 0.44984 0.92056 0.0
H30 H 0.12512 0.4171 0.91373 0.0
H31 H 0.11219 0.37938 0.95256 0.0
H32 H 0.0369 0.47009 0.99749 0.0
H33 H 0.06791 0.48549 0.94733 0.0
H34 H 0.0997 0.47997 0.91026 0.0
H35 H 0.12044 0.45519 0.89807 0.0
Mn36 Mn 0.65363 0.65302 0.04059 0.0
Mn37 Mn 0.6539 0.59925 0.02479 0.0
C38 C 0.63245 0.61939 0.07973 0.0
C39 C 0.6714 0.6922 0.06823 0.0
C40 C 0.62329 0.61616 0.97916 0.0
O41 O 0.68251 0.66356 1.00535 0.0
O42 O 0.6825 0.62709 0.9991 0.0
C43 C 0.69981 0.6099 0.06568 0.0
N44 N 0.67494 0.59525 0.06011 0.0
C45 C 0.67263 0.5669 0.10807 0.0
C46 C 0.69825 0.58158 0.11416 0.0
C47 C 0.71189 0.60319 0.09291 0.0
C48 C 0.66165 0.57439 0.08032 0.0
H49 H 0.71032 0.62657 0.04949 0.0
C50 C 0.69143 0.65042 0.99229 0.0
O51 O 0.65659 0.68686 0.03979 0.0
O52 O 0.67641 0.6752 0.07987 0.0
N53 N 0.62728 0.57099 0.04817 0.0
C54 C 0.60247 0.56015 0.04099 0.0
C55 C 0.58602 0.53896 0.06113 0.0
C56 C 0.59526 0.52908 0.08825 0.0
C57 C 0.62088 0.54051 0.09504 0.0
C58 C 0.63638 0.56152 0.07398 0.0
H59 H 0.59529 0.56775 0.02026 0.0
O60 O 0.62661 0.6369 0.07749 0.0
O61 O 0.65054 0.62208 0.05874 0.0
O62 O 0.62894 0.63589 0.9976 0.0
O63 O 0.63158 0.60134 0.98709 0.0
C64 C 0.63162 0.53226 0.12245 0.0
C65 C 0.65746 0.54546 0.129 0.0
H66 H 0.70761 0.57658 0.13533 0.0
H67 H 0.73165 0.6147 0.0976 0.0
H68 H 0.56626 0.53031 0.05585 0.0
H69 H 0.58249 0.51284 0.1039 0.0
H70 H 0.62015 0.51598 0.13901 0.0
H71 H 0.66544 0.53918 0.15059 0.0
Mn72 Mn 0.34538 0.99984 0.04275 0.0
Mn73 Mn 0.39907 0.05314 0.02998 0.0
C74 C 0.37847 0.01048 0.0831 0.0
C75 C 0.30649 0.97959 0.07072 0.0
C76 C 0.38255 0.00684 0.98273 0.0
O77 O 0.33543 0.0192 1.00678 0.0
O78 O 0.37163 0.05534 1.00372 0.0
C79 C 0.38827 0.08782 0.07153 0.0
N80 N 0.40277 0.07721 0.06613 0.0
C81 C 0.43035 0.10102 0.11588 0.0
C82 C 0.4158 0.11232 0.12183 0.0
C83 C 0.39464 0.10566 0.0996 0.0
C84 C 0.4232 0.08353 0.0873 0.0
H85 H 0.37195 0.08266 0.05457 0.0
C86 C 0.34864 0.04151 0.995 0.0
O87 O 0.3112 0.96986 0.04229 0.0
O88 O 0.32382 1.00123 0.08152 0.0
N89 N 0.42692 0.05336 0.05407 0.0
C90 C 0.4378 0.03931 0.0466 0.0
C91 C 0.45857 0.04282 0.06754 0.0
C92 C 0.46801 0.06082 0.09576 0.0
C93 C 0.45659 0.07516 0.10275 0.0
C94 C 0.43601 0.0709 0.08089 0.0
H95 H 0.43055 0.02539 0.02504 0.0
O96 O 0.36091 0.98754 0.08023 0.0
O97 O 0.37606 0.02648 0.0622 0.0
O98 O 0.36267 0.99247 1.00014 0.0
O99 O 0.39709 0.02952 0.99184 0.0
C100 C 0.4645 0.09315 0.13106 0.0
C101 C 0.45136 0.10603 0.13767 0.0
H102 H 0.42055 0.12595 0.14363 0.0
H103 H 0.38325 0.1142 0.10415 0.0
H104 H 0.46723 0.03162 0.06206 0.0
H105 H 0.48389 0.0633 0.11209 0.0
H106 H 0.48048 0.09702 0.14819 0.0
H107 H 0.45738 0.11952 0.15991 0.0
Mn108 Mn 0.00305 0.65874 1.00707 0.0
Mn109 Mn 0.05646 0.65791 0.02252 0.0
C110 C 0.01428 0.63641 0.9682 0.0
C111 C 0.98163 0.67665 0.97827 0.0
C112 C 0.01039 0.62821 0.06829 0.0
O113 O 0.02177 0.6879 0.04254 0.0
O114 O 0.05747 0.68664 0.04908 0.0
C115 C 0.09049 0.70394 0.98234 0.0
N116 N 0.08055 0.67892 0.98741 0.0
C117 C 0.10525 0.67628 0.93879 0.0
C118 C 0.1159 0.70206 0.93319 0.0
C119 C 0.10845 0.71593 0.95502 0.0
C120 C 0.08759 0.66539 0.9666 0.0
H121 H 0.08472 0.71462 0.99899 0.0
C122 C 0.04352 0.69603 0.05636 0.0
O123 O 0.97263 0.66233 1.007 0.0
O124 O 0.00334 0.6814 0.9674 0.0
N125 N 0.05783 0.63102 0.9986 0.0
C126 C 0.04448 0.60613 1.00579 0.0
C127 C 0.04897 0.58947 0.98539 0.0
C128 C 0.06721 0.59858 0.95801 0.0
C129 C 0.08079 0.6243 0.95124 0.0
C130 C 0.07561 0.64001 0.97261 0.0
H131 H 0.03041 0.59905 0.02676 0.0
O132 O 0.99132 0.63107 0.97044 0.0
O133 O 0.03004 0.65476 0.98888 0.0
O134 O 0.99622 0.63435 0.0504 0.0
O135 O 0.03289 0.63568 0.05965 0.0
C136 C 0.09891 0.63492 0.92364 0.0
C137 C 0.11109 0.66088 0.91737 0.0
H138 H 0.12962 0.71135 0.91198 0.0
H139 H 0.11648 0.73581 0.95073 0.0
H140 H 0.03835 0.56964 0.99069 0.0
H141 H 0.07051 0.58565 0.94221 0.0
H142 H 0.10339 0.62327 0.90675 0.0
H143 H 0.1247 0.66878 0.89569 0.0
Mn144 Mn 0.3466 0.34944 0.03733 0.0
Mn145 Mn 0.39978 0.348 0.0249 0.0
C146 C 0.37967 0.37054 0.07785 0.0
C147 C 0.30743 0.3324 0.06373 0.0
C148 C 0.38469 0.37963 0.97798 0.0
O149 O 0.33608 0.32032 1.0019 0.0
O150 O 0.37203 0.31954 0.9978 0.0
C151 C 0.38733 0.3015 0.06557 0.0
N152 N 0.40248 0.32643 0.06068 0.0
C153 C 0.42919 0.32807 0.11094 0.0
C154 C 0.41397 0.30237 0.11635 0.0
C155 C 0.39294 0.28905 0.09358 0.0
C156 C 0.42284 0.33942 0.0823 0.0
H157 H 0.37107 0.29124 0.04828 0.0
C158 C 0.34898 0.31094 0.98965 0.0
O159 O 0.31312 0.34706 0.03519 0.0
O160 O 0.324 0.32702 0.07596 0.0
N161 N 0.42789 0.37432 0.04973 0.0
C162 C 0.43945 0.39928 0.04283 0.0
C163 C 0.46019 0.41546 0.06436 0.0
C164 C 0.46889 0.40581 0.09261 0.0
C165 C 0.4568 0.38003 0.09898 0.0
C166 C 0.43633 0.36479 0.07646 0.0
H167 H 0.43273 0.40681 0.02134 0.0
O168 O 0.36255 0.37678 0.07453 0.0
O169 O 0.37691 0.35208 0.05722 0.0
O170 O 0.3645 0.37382 0.99469 0.0
O171 O 0.39905 0.37103 0.98721 0.0
C172 C 0.46382 0.36893 0.12749 0.0
C173 C 0.45004 0.34297 0.13345 0.0
H174 H 0.41808 0.29274 0.13815 0.0
H175 H 0.38102 0.26924 0.09774 0.0
H176 H 0.46936 0.43534 0.05936 0.0
H177 H 0.48469 0.41838 0.10947 0.0
H178 H 0.47953 0.38025 0.14541 0.0
H179 H 0.45538 0.33471 0.15584 0.0
Mn180 Mn 0.654 0.00343 1.00984 0.0
Mn181 Mn 0.60077 0.94976 0.02421 0.0
C182 C 0.62077 0.99168 0.96951 0.0
C183 C 0.69306 0.02489 0.98311 0.0
C184 C 0.6166 0.99654 0.06965 0.0
O185 O 0.66461 0.9846 0.0458 0.0
O186 O 0.62851 0.94847 0.0511 0.0
C187 C 0.61226 0.91495 0.9844 0.0
N188 N 0.59741 0.92524 0.98911 0.0
C189 C 0.56994 0.90032 0.93999 0.0
C190 C 0.58484 0.88932 0.93478 0.0
C191 C 0.60612 0.8967 0.95705 0.0
C192 C 0.57685 0.91821 0.96794 0.0
H193 H 0.62869 0.92068 1.00135 0.0
C194 C 0.65165 0.96253 0.05861 0.0
O195 O 0.68746 0.03405 1.01125 0.0
O196 O 0.67646 0.0031 0.97144 0.0
N197 N 0.57265 0.94866 0.99958 0.0
C198 C 0.56153 0.96261 1.00604 0.0
C199 C 0.54066 0.95847 0.98479 0.0
C200 C 0.53139 0.93997 0.95731 0.0
C201 C 0.54306 0.92574 0.95134 0.0
C202 C 0.56372 0.93062 0.97349 0.0
H203 H 0.56868 0.97695 0.02699 0.0
O204 O 0.63791 0.01483 0.97206 0.0
O205 O 0.62356 0.97608 0.9909 0.0
O206 O 0.63637 0.01062 0.05194 0.0
O207 O 0.60219 0.97366 0.06152 0.0
C208 C 0.53542 0.90736 0.92365 0.0
C209 C 0.54885 0.89467 0.91796 0.0
H210 H 0.58029 0.87539 0.9135 0.0
H211 H 0.61779 0.88841 0.95304 0.0
H212 H 0.53181 0.9696 0.98946 0.0
H213 H 0.51546 0.93702 0.94069 0.0
H214 H 0.51945 0.9031 0.90621 0.0
H215 H 0.54304 0.88089 0.89616 0.0
Mn216 Mn 0.66771 0.68111 0.34488 0.0
Mn217 Mn 0.7208 0.73494 0.36083 0.0
C218 C 0.67964 0.71449 0.30478 0.0
C219 C 0.6466 0.64178 0.31739 0.0
C220 C 0.6738 0.71952 0.40377 0.0
O221 O 0.68603 0.67049 0.38173 0.0
O222 O 0.72114 0.70728 0.38956 0.0
C223 C 0.75563 0.72204 0.32485 0.0
N224 N 0.74573 0.7374 0.32788 0.0
C225 C 0.772 0.76432 0.27996 0.0
C226 C 0.78261 0.74889 0.27649 0.0
C227 C 0.77434 0.72764 0.29899 0.0
C228 C 0.75355 0.75791 0.30641 0.0
H229 H 0.74925 0.70565 0.34202 0.0
C230 C 0.70742 0.68397 0.39653 0.0
O231 O 0.63727 0.64743 0.34519 0.0
O232 O 0.66834 0.65849 0.30648 0.0
N233 N 0.72295 0.76311 0.33486 0.0
C234 C 0.70951 0.77494 0.33976 0.0
C235 C 0.71475 0.79605 0.31834 0.0
C236 C 0.73385 0.80486 0.29232 0.0
C237 C 0.74751 0.79244 0.2879 0.0
C238 C 0.74154 0.7716 0.3102 0.0
H239 H 0.69478 0.76821 0.35969 0.0
O240 O 0.65661 0.69724 0.30664 0.0
O241 O 0.69505 0.71176 0.32665 0.0
O242 O 0.66036 0.69888 0.38694 0.0
O243 O 0.69637 0.73441 0.3956 0.0
C244 C 0.76643 0.79958 0.2617 0.0
C245 C 0.77863 0.7855 0.25767 0.0
H246 H 0.79692 0.75304 0.25639 0.0
H247 H 0.78234 0.71556 0.29633 0.0
H248 H 0.70408 0.80549 0.32181 0.0
H249 H 0.73774 0.82107 0.27573 0.0
H250 H 0.77151 0.81565 0.24411 0.0
H251 H 0.79286 0.79094 0.23701 0.0
Mn252 Mn 0.31988 0.98754 0.37579 0.0
Mn253 Mn 0.32027 0.93377 0.36059 0.0
C254 C 0.29855 0.95395 0.41495 0.0
C255 C 0.33759 0.02674 0.40344 0.0
C256 C 0.28967 0.95044 0.31445 0.0
O257 O 0.34889 0.99807 0.34084 0.0
O258 O 0.34885 0.96158 0.33479 0.0
C259 C 0.36619 0.94474 0.40174 0.0
N260 N 0.34134 0.93 0.39613 0.0
C261 C 0.3391 0.90184 0.44435 0.0
C262 C 0.36471 0.91663 0.45049 0.0
C263 C 0.3783 0.9382 0.42914 0.0
C264 C 0.32809 0.90918 0.41645 0.0
H265 H 0.37666 0.96138 0.38546 0.0
C266 C 0.35781 0.9849 0.32791 0.0
O267 O 0.32289 0.02143 0.37486 0.0
O268 O 0.3425 0.0097 0.4152 0.0
N269 N 0.2937 0.90551 0.38405 0.0
C270 C 0.26889 0.89453 0.37675 0.0
C271 C 0.25249 0.87335 0.39695 0.0
C272 C 0.26176 0.86362 0.42424 0.0
C273 C 0.28738 0.8752 0.43115 0.0
C274 C 0.30284 0.89619 0.41003 0.0
H275 H 0.26169 0.90201 0.35587 0.0
O276 O 0.29271 0.97146 0.41246 0.0
O277 O 0.31673 0.95663 0.39421 0.0
O278 O 0.29534 0.9703 0.33259 0.0
O279 O 0.29794 0.93564 0.32275 0.0
C280 C 0.29816 0.86709 0.45871 0.0
C281 C 0.32398 0.88042 0.46535 0.0
H282 H 0.37409 0.91175 0.47178 0.0
H283 H 0.39804 0.94979 0.43386 0.0
H284 H 0.23273 0.86459 0.39157 0.0
H285 H 0.24903 0.84739 0.43993 0.0
H286 H 0.28672 0.85081 0.47531 0.0
H287 H 0.33198 0.87425 0.48705 0.0
Mn288 Mn 0.01227 0.33246 0.37691 0.0
Mn289 Mn 0.06572 0.38602 0.3642 0.0
C290 C 0.04534 0.3434 0.4174 0.0
C291 C 0.97335 0.31198 0.40469 0.0
C292 C 0.04955 0.33978 0.31691 0.0
O293 O 1.00216 0.35165 0.34088 0.0
O294 O 0.03816 0.38802 0.33802 0.0
C295 C 0.05467 0.4205 0.40582 0.0
N296 N 0.06928 0.41002 0.40039 0.0
C297 C 0.09683 0.43393 0.4501 0.0
C298 C 0.08216 0.44511 0.45609 0.0
C299 C 0.06097 0.43832 0.43388 0.0
C300 C 0.08974 0.41645 0.42152 0.0
H301 H 0.03832 0.41525 0.38888 0.0
C302 C 0.01521 0.37402 0.32923 0.0
O303 O 0.97822 0.30232 0.37633 0.0
O304 O 0.99055 0.33367 0.41555 0.0
N305 N 0.09365 0.38639 0.38828 0.0
C306 C 0.10463 0.37243 0.38083 0.0
C307 C 0.12544 0.37605 0.40176 0.0
C308 C 0.13482 0.39406 0.42995 0.0
C309 C 0.12329 0.40831 0.43694 0.0
C310 C 0.10267 0.40393 0.4151 0.0
H311 H 0.09742 0.3585 0.35928 0.0
O312 O 0.02794 0.3204 0.41451 0.0
O313 O 0.04281 0.35927 0.39639 0.0
O314 O 0.02975 0.32527 0.33438 0.0
O315 O 0.06391 0.36251 0.32599 0.0
C316 C 0.13114 0.42631 0.46523 0.0
C317 C 0.11788 0.43907 0.47186 0.0
H318 H 0.08685 0.45873 0.47788 0.0
H319 H 0.04948 0.44677 0.43846 0.0
H320 H 0.13417 0.36492 0.39629 0.0
H321 H 0.15073 0.39664 0.44628 0.0
H322 H 0.14717 0.43028 0.48231 0.0
H323 H 0.12386 0.45256 0.49409 0.0
Mn324 Mn 0.66779 0.99016 0.34151 0.0
Mn325 Mn 0.72078 0.98831 0.35631 0.0
C326 C 0.67826 0.9673 0.30259 0.0
C327 C 0.64727 0.00903 0.31232 0.0
C328 C 0.67481 0.95939 0.40272 0.0
O329 O 0.68715 0.0193 0.37671 0.0
O330 O 0.72263 0.01753 0.38268 0.0
C331 C 0.75513 0.03381 0.31532 0.0
N332 N 0.74474 0.00877 0.32064 0.0
C333 C 0.76815 0.00512 0.27091 0.0
C334 C 0.77924 0.03092 0.26506 0.0
C335 C 0.77268 0.04531 0.28735 0.0
C336 C 0.75099 0.99475 0.29948 0.0
H337 H 0.74998 0.04488 0.33224 0.0
C338 C 0.70898 0.02725 0.39011 0.0
O339 O 0.6379 0.99487 0.34116 0.0
O340 O 0.66877 0.01299 0.30179 0.0
N341 N 0.72127 0.96092 0.33246 0.0
C342 C 0.70753 0.93611 0.33996 0.0
C343 C 0.71104 0.91898 0.31907 0.0
C344 C 0.72868 0.92755 0.29082 0.0
C345 C 0.74275 0.9532 0.28386 0.0
C346 C 0.7386 0.9694 0.3058 0.0
H347 H 0.69382 0.92943 0.36146 0.0
O348 O 0.65544 0.96239 0.30496 0.0
O349 O 0.69429 0.98549 0.32319 0.0
O350 O 0.6607 0.96573 0.38499 0.0
O351 O 0.69722 0.9666 0.39383 0.0
C352 C 0.76026 0.96328 0.25537 0.0
C353 C 0.77296 0.98922 0.24891 0.0
H354 H 0.79261 0.03982 0.24329 0.0
H355 H 0.78106 0.0652 0.28285 0.0
H356 H 0.70005 0.89921 0.32454 0.0
H357 H 0.73109 0.91426 0.27444 0.0
H358 H 0.7638 0.9512 0.23787 0.0
H359 H 0.7861 0.9967 0.22657 0.0
Mn360 Mn 0.01302 0.68157 0.36992 0.0
Mn361 Mn 0.0667 0.68114 0.35728 0.0
C362 C 0.04604 0.70305 0.41036 0.0
C363 C 0.97386 0.66386 0.39667 0.0
C364 C 0.05096 0.71239 0.31069 0.0
O365 O 0.00292 0.65263 0.33428 0.0
O366 O 0.03922 0.65257 0.32999 0.0
C367 C 0.05485 0.63467 0.39759 0.0
N368 N 0.06974 0.65966 0.39287 0.0
C369 C 0.09658 0.66154 0.44309 0.0
C370 C 0.08163 0.63579 0.44832 0.0
C371 C 0.06067 0.62231 0.4255 0.0
C372 C 0.09003 0.6728 0.41455 0.0
H373 H 0.03864 0.62429 0.38025 0.0
C374 C 0.01613 0.64365 0.32184 0.0
O375 O 0.97924 0.67856 0.36821 0.0
O376 O 0.99072 0.6588 0.40857 0.0
N377 N 0.09461 0.70761 0.38224 0.0
C378 C 0.10591 0.73258 0.37546 0.0
C379 C 0.12656 0.74888 0.39704 0.0
C380 C 0.13544 0.73935 0.42521 0.0
C381 C 0.12363 0.71357 0.43144 0.0
C382 C 0.10324 0.6982 0.40887 0.0
H383 H 0.09905 0.74002 0.35403 0.0
O384 O 0.02862 0.70887 0.40721 0.0
O385 O 0.04359 0.68473 0.38968 0.0
O386 O 0.03065 0.70619 0.32733 0.0
O387 O 0.06558 0.70409 0.31987 0.0
C388 C 0.13084 0.70257 0.45987 0.0
C389 C 0.11734 0.67658 0.46567 0.0
H390 H 0.08591 0.62622 0.47005 0.0
H391 H 0.04896 0.60246 0.42952 0.0
H392 H 0.13552 0.76877 0.39214 0.0
H393 H 0.15117 0.75202 0.44212 0.0
H394 H 0.14648 0.71399 0.47784 0.0
H395 H 0.12282 0.6684 0.48799 0.0
Mn396 Mn 0.3218 0.33828 0.34379 0.0
Mn397 Mn 0.2684 0.28476 0.35823 0.0
C398 C 0.28861 0.32654 0.30335 0.0
C399 C 0.3609 0.35952 0.31702 0.0
C400 C 0.28435 0.33168 0.40339 0.0
O401 O 0.33225 0.31942 0.37997 0.0
O402 O 0.29604 0.2834 0.38527 0.0
C403 C 0.27973 0.24972 0.31876 0.0
N404 N 0.26496 0.26011 0.32332 0.0
C405 C 0.23739 0.23506 0.27437 0.0
C406 C 0.25222 0.22395 0.26932 0.0
C407 C 0.2735 0.23135 0.29157 0.0
C408 C 0.24439 0.25308 0.30215 0.0
H409 H 0.29616 0.25545 0.33571 0.0
C410 C 0.31919 0.29737 0.39282 0.0
O411 O 0.35535 0.36882 0.34505 0.0
O412 O 0.34423 0.33772 0.3055 0.0
N413 N 0.24036 0.28373 0.33347 0.0
C414 C 0.22932 0.29778 0.33975 0.0
C415 C 0.20846 0.29364 0.31848 0.0
C416 C 0.1991 0.27502 0.29117 0.0
C417 C 0.21069 0.26069 0.28538 0.0
C418 C 0.23135 0.26559 0.30753 0.0
H419 H 0.23653 0.3122 0.36058 0.0
O420 O 0.30582 0.34968 0.30579 0.0
O421 O 0.29131 0.31097 0.32489 0.0
O422 O 0.30418 0.34568 0.38573 0.0
O423 O 0.2699 0.3088 0.39534 0.0
C424 C 0.20294 0.24218 0.25788 0.0
C425 C 0.2163 0.22939 0.25235 0.0
H426 H 0.24759 0.20994 0.24817 0.0
H427 H 0.28511 0.22297 0.28769 0.0
H428 H 0.19968 0.30484 0.32301 0.0
H429 H 0.18317 0.27207 0.27454 0.0
H430 H 0.18696 0.23789 0.24047 0.0
H431 H 0.21041 0.21551 0.23069 0.0
Mn432 Mn 0.33426 0.015 0.67996 0.0
Mn433 Mn 0.38921 0.06694 0.6944 0.0
C434 C 0.34694 0.04847 0.63985 0.0
C435 C 0.31191 0.97567 0.65277 0.0
C436 C 0.34354 0.05313 0.74047 0.0
O437 O 0.35202 0.00348 0.71647 0.0
O438 O 0.38941 0.03827 0.72024 0.0
C439 C 0.42188 0.0535 0.65322 0.0
N440 N 0.41275 0.06929 0.65882 0.0
C441 C 0.43803 0.09673 0.61056 0.0
C442 C 0.44785 0.08084 0.60442 0.0
C443 C 0.4397 0.05911 0.6258 0.0
C444 C 0.42051 0.09029 0.6385 0.0
H445 H 0.41558 0.03674 0.66953 0.0
C446 C 0.37436 0.01546 0.72864 0.0
O447 O 0.30308 0.98183 0.68069 0.0
O448 O 0.33373 0.99188 0.64153 0.0
N449 N 0.39143 0.0959 0.67087 0.0
C450 C 0.37854 0.10802 0.67813 0.0
C451 C 0.38357 0.12952 0.65788 0.0
C452 C 0.40185 0.13839 0.63057 0.0
C453 C 0.41493 0.12564 0.6237 0.0
C454 C 0.40922 0.1044 0.6449 0.0
H455 H 0.36442 0.10121 0.69902 0.0
O456 O 0.32371 0.03182 0.64208 0.0
O457 O 0.36208 0.04491 0.66117 0.0
O458 O 0.32839 0.03371 0.72223 0.0
O459 O 0.36639 0.06649 0.73223 0.0
C460 C 0.43297 0.13282 0.59605 0.0
C461 C 0.4445 0.11836 0.58945 0.0
H462 H 0.46143 0.08499 0.58309 0.0
H463 H 0.44708 0.04669 0.62108 0.0
H464 H 0.37332 0.13919 0.66323 0.0
H465 H 0.40552 0.15486 0.61482 0.0
H466 H 0.43786 0.1492 0.57929 0.0
H467 H 0.45802 0.12382 0.56768 0.0
Mn468 Mn 0.98538 0.32049 0.70953 0.0
Mn469 Mn 0.98667 0.26711 0.69481 0.0
C470 C 0.96434 0.28687 0.74881 0.0
C471 C 1.00238 0.35972 0.737 0.0
C472 C 0.95573 0.28312 0.64821 0.0
O473 O 0.0146 0.33136 0.67478 0.0
O474 O 0.01514 0.29513 0.66918 0.0
C475 C 0.0326 0.27868 0.73642 0.0
N476 N 0.00781 0.26368 0.7306 0.0
C477 C 0.00579 0.23564 0.77887 0.0
C478 C 0.03134 0.2507 0.78522 0.0
C479 C 0.04479 0.27234 0.76395 0.0
C480 C 0.9947 0.24279 0.75085 0.0
H481 H 0.04297 0.29537 0.72019 0.0
C482 C 0.02384 0.3184 0.66214 0.0
O483 O 0.98776 0.35412 0.70828 0.0
O484 O 0.00767 0.34299 0.74897 0.0
N485 N 0.96023 0.23867 0.71813 0.0
C486 C 0.93543 0.22741 0.71062 0.0
C487 C 0.91915 0.20611 0.73069 0.0
C488 C 0.92853 0.19655 0.75808 0.0
C489 C 0.95414 0.20842 0.76522 0.0
C490 C 0.96948 0.22952 0.74422 0.0
H491 H 0.92814 0.23474 0.68965 0.0
O492 O 0.95815 0.30412 0.7461 0.0
O493 O 0.98268 0.2898 0.72821 0.0
O494 O 0.96105 0.30292 0.66627 0.0
O495 O 0.96429 0.2686 0.65668 0.0
C496 C 0.96501 0.2005 0.79291 0.0
C497 C 0.9908 0.21413 0.79978 0.0
H498 H 0.04077 0.24597 0.80661 0.0
H499 H 0.06448 0.28413 0.76883 0.0
H500 H 0.8994 0.19711 0.72513 0.0
H501 H 0.91589 0.18021 0.77366 0.0
H502 H 0.95366 0.18416 0.80945 0.0
H503 H 0.99886 0.2081 0.82157 0.0
Mn504 Mn 0.67785 0.66633 0.70635 0.0
Mn505 Mn 0.73249 0.71861 0.69311 0.0
C506 C 0.71068 0.67652 0.74681 0.0
C507 C 0.639 0.6465 0.73444 0.0
C508 C 0.71583 0.67157 0.64814 0.0
O509 O 0.6683 0.68591 0.67039 0.0
O510 O 0.70571 0.72028 0.66382 0.0
C511 C 0.7208 0.7542 0.73016 0.0
N512 N 0.73542 0.7435 0.72719 0.0
C513 C 0.76145 0.76787 0.77791 0.0
C514 C 0.74679 0.7793 0.78133 0.0
C515 C 0.72636 0.77241 0.75737 0.0
C516 C 0.75516 0.75004 0.75003 0.0
H517 H 0.70499 0.74882 0.71196 0.0
C518 C 0.68243 0.7073 0.65625 0.0
O519 O 0.6435 0.63664 0.70596 0.0
O520 O 0.65647 0.66812 0.74509 0.0
N521 N 0.75984 0.71942 0.71979 0.0
C522 C 0.7711 0.70547 0.71438 0.0
C523 C 0.79131 0.70935 0.73706 0.0
C524 C 0.79982 0.72761 0.76488 0.0
C525 C 0.78811 0.74193 0.76962 0.0
C526 C 0.76817 0.73736 0.746 0.0
H527 H 0.76451 0.69129 0.69321 0.0
O528 O 0.69292 0.65369 0.74387 0.0
O529 O 0.70876 0.69274 0.72575 0.0
O530 O 0.69488 0.65845 0.6638 0.0
O531 O 0.73124 0.69395 0.65762 0.0
C532 C 0.79504 0.76012 0.79745 0.0
C533 C 0.78172 0.77308 0.8016 0.0
H534 H 0.75088 0.7932 0.80249 0.0
H535 H 0.71487 0.78103 0.75999 0.0
H536 H 0.80021 0.69818 0.73328 0.0
H537 H 0.8152 0.73032 0.78263 0.0
H538 H 0.81036 0.76404 0.81615 0.0
H539 H 0.78701 0.78677 0.82344 0.0
Mn540 Mn 0.33449 0.32555 0.67503 0.0
Mn541 Mn 0.38723 0.32327 0.69017 0.0
C542 C 0.3448 0.30244 0.63633 0.0
C543 C 0.31422 0.3446 0.64565 0.0
C544 C 0.34116 0.29485 0.73659 0.0
O545 O 0.35396 0.35467 0.71024 0.0
O546 O 0.38934 0.3527 0.71618 0.0
C547 C 0.4219 0.36845 0.64888 0.0
N548 N 0.41131 0.34342 0.65446 0.0
C549 C 0.4347 0.33931 0.60511 0.0
C550 C 0.446 0.36508 0.599 0.0
C551 C 0.43955 0.37971 0.62096 0.0
C552 C 0.41745 0.32918 0.63361 0.0
H553 H 0.41685 0.3797 0.66556 0.0
C554 C 0.37578 0.36252 0.72362 0.0
O555 O 0.30476 0.33051 0.67452 0.0
O556 O 0.3357 0.3484 0.63519 0.0
N557 N 0.38745 0.29563 0.66672 0.0
C558 C 0.37352 0.27087 0.67443 0.0
C559 C 0.3769 0.25353 0.65387 0.0
C560 C 0.39461 0.26184 0.62574 0.0
C561 C 0.40888 0.28744 0.61855 0.0
C562 C 0.40485 0.30386 0.64016 0.0
H563 H 0.35977 0.2644 0.69586 0.0
O564 O 0.32203 0.29771 0.63854 0.0
O565 O 0.36087 0.3206 0.65693 0.0
O566 O 0.32713 0.30116 0.71862 0.0
O567 O 0.36356 0.30189 0.72779 0.0
C568 C 0.42649 0.29727 0.59016 0.0
C569 C 0.4394 0.32318 0.58346 0.0
H570 H 0.45945 0.37381 0.57727 0.0
H571 H 0.44809 0.39959 0.61626 0.0
H572 H 0.36576 0.2338 0.65952 0.0
H573 H 0.39693 0.24839 0.60961 0.0
H574 H 0.42996 0.28502 0.57293 0.0
H575 H 0.45261 0.33047 0.56118 0.0
Mn576 Mn 0.67878 0.01536 0.70331 0.0
Mn577 Mn 0.73209 0.01404 0.69151 0.0
C578 C 0.71174 0.03656 0.74399 0.0
C579 C 0.63957 0.99827 0.72963 0.0
C580 C 0.71703 0.0455 0.64412 0.0
O581 O 0.66839 0.98619 0.66801 0.0
O582 O 0.70444 0.98556 0.66439 0.0
C583 C 0.71959 0.96761 0.7324 0.0
N584 N 0.73473 0.99253 0.72747 0.0
C585 C 0.76137 0.99427 0.77789 0.0
C586 C 0.74616 0.96858 0.78335 0.0
C587 C 0.72517 0.9552 0.76053 0.0
C588 C 0.75504 0.00557 0.74915 0.0
H589 H 0.70336 0.95731 0.71506 0.0
C590 C 0.68141 0.97688 0.65602 0.0
O591 O 0.64524 0.01287 0.70102 0.0
O592 O 0.65617 0.99297 0.74197 0.0
N593 N 0.76011 0.04041 0.7164 0.0
C594 C 0.77167 0.06537 0.70942 0.0
C595 C 0.79237 0.08159 0.73098 0.0
C596 C 0.80103 0.07199 0.75934 0.0
C597 C 0.78896 0.04622 0.7658 0.0
C598 C 0.76853 0.03094 0.74324 0.0
H599 H 0.76497 0.07285 0.68782 0.0
O600 O 0.69461 0.04277 0.74045 0.0
O601 O 0.70907 0.0181 0.72348 0.0
O602 O 0.69676 0.03968 0.6606 0.0
O603 O 0.73141 0.03698 0.65366 0.0
C604 C 0.79595 0.03517 0.79441 0.0
C605 C 0.78218 0.00921 0.80044 0.0
H606 H 0.75025 0.95898 0.80523 0.0
H607 H 0.71326 0.9354 0.76472 0.0
H608 H 0.80154 0.10146 0.7259 0.0
H609 H 0.81681 0.08459 0.77623 0.0
H610 H 0.81163 0.04652 0.81237 0.0
H611 H 0.78749 1.00099 0.82291 0.0
Mn612 Mn 0.98767 0.67173 0.67598 0.0
Mn613 Mn 0.93482 0.61813 0.69247 0.0
C614 C 0.95395 0.65905 0.63619 0.0
C615 C 0.02646 0.69318 0.64845 0.0
C616 C 0.95038 0.66559 0.73588 0.0
O617 O 0.99904 0.65373 0.71216 0.0
O618 O 0.96298 0.61797 0.72005 0.0
C619 C 0.9471 0.58304 0.65514 0.0
N620 N 0.93186 0.59298 0.6589 0.0
C621 C 0.9043 0.56636 0.61114 0.0
C622 C 0.9196 0.55572 0.60692 0.0
C623 C 0.94112 0.56414 0.62896 0.0
C624 C 0.9111 0.585 0.63788 0.0
H625 H 0.9637 0.58953 0.67195 0.0
C626 C 0.98627 0.63208 0.72643 0.0
O627 O 0.02095 0.70258 0.67639 0.0
O628 O 0.00989 0.67122 0.63732 0.0
N629 N 0.90634 0.61582 0.66733 0.0
C630 C 0.89473 0.62943 0.67277 0.0
C631 C 0.87345 0.62413 0.65173 0.0
C632 C 0.86426 0.60482 0.62552 0.0
C633 C 0.87649 0.59103 0.62048 0.0
C634 C 0.89755 0.59708 0.64238 0.0
H635 H 0.90177 0.64433 0.69284 0.0
O636 O 0.97089 0.68232 0.63814 0.0
O637 O 0.95716 0.64389 0.65799 0.0
O638 O 0.97037 0.67916 0.71829 0.0
O639 O 0.93577 0.6427 0.72814 0.0
C640 C 0.86894 0.57187 0.59406 0.0
C641 C 0.88287 0.55959 0.58934 0.0
H642 H 0.91515 0.54126 0.58658 0.0
H643 H 0.9531 0.55611 0.62572 0.0
H644 H 0.86417 0.63493 0.65565 0.0
H645 H 0.84791 0.60089 0.60923 0.0
H646 H 0.85265 0.56665 0.57687 0.0
H647 H 0.87711 0.54519 0.5685 0.0
H648 H 0.25435 0.27795 0.19884 0.0
N649 N 0.23072 0.30021 0.16931 0.0
H650 H 0.27994 0.28955 0.25531 0.0
H651 H 0.23789 0.33731 0.21828 0.0
H652 H 0.262 0.34765 0.27609 0.0
H653 H 0.23625 0.27189 0.11951 0.0
H654 H 0.26953 0.2853 0.07394 0.0
H655 H 0.26371 0.34849 0.15078 0.0
H656 H 0.29568 0.36194 0.10357 0.0
H657 H 0.22347 0.3395 0.14885 0.0
H658 H 0.18619 0.2633 0.18668 0.0
H659 H 0.18473 0.3404 0.15056 0.0
H660 H 0.14716 0.26426 0.1896 0.0
H661 H 0.08877 0.35464 0.20414 0.0
H662 H 0.07957 0.36813 0.2615 0.0
H663 H 0.03341 0.29136 0.29441 0.0
H664 H 0.04354 0.27782 0.23643 0.0
H665 H 0.0278 0.28536 0.14747 0.0
H666 H 0.01407 0.30228 0.09652 0.0
H667 H 0.08769 0.36623 0.09144 0.0
H668 H 0.10108 0.34922 0.14199 0.0
H669 H 0.11922 0.34325 0.20064 0.0
H670 H 0.15707 0.341 0.19607 0.0
H671 H 0.11531 0.26637 0.15202 0.0
N672 N 0.07185 0.30647 0.18147 0.0
H673 H 0.07698 0.26854 0.15759 0.0
C674 C 0.24366 0.30626 0.20456 0.0
C675 C 0.2556 0.29294 0.21585 0.0
C676 C 0.26992 0.29934 0.24829 0.0
C677 C 0.27173 0.31854 0.27097 0.0
C678 C 0.26009 0.33216 0.25964 0.0
C679 C 0.24624 0.32618 0.22662 0.0
C680 C 0.24694 0.30912 0.13786 0.0
C681 C 0.24867 0.29161 0.11531 0.0
C682 C 0.2676 0.29925 0.08937 0.0
C683 C 0.28465 0.32463 0.08479 0.0
C684 C 0.28221 0.34231 0.10589 0.0
C685 C 0.26379 0.33463 0.13269 0.0
C686 C 0.20783 0.30113 0.16742 0.0
C687 C 0.207 0.32283 0.15725 0.0
C688 C 0.18472 0.32342 0.15865 0.0
C689 C 0.16278 0.30245 0.1704 0.0
C690 C 0.16359 0.28067 0.17999 0.0
C691 C 0.18588 0.28009 0.1785 0.0
C692 C 0.06714 0.31507 0.21598 0.0
C693 C 0.07705 0.34057 0.22372 0.0
C694 C 0.07168 0.34831 0.2568 0.0
C695 C 0.05583 0.33083 0.28283 0.0
C696 C 0.04573 0.3053 0.27504 0.0
C697 C 0.05152 0.29755 0.24202 0.0
C698 C 0.06536 0.31589 0.14882 0.0
C699 C 0.04101 0.30283 0.1349 0.0
C700 C 0.03324 0.31256 0.10573 0.0
C701 C 0.04971 0.33576 0.0899 0.0
C702 C 0.07442 0.34838 0.10296 0.0
C703 C 0.08216 0.3386 0.13205 0.0
C704 C 0.09491 0.30586 0.17971 0.0
C705 C 0.1179 0.32627 0.19023 0.0
C706 C 0.13978 0.32507 0.18723 0.0
C707 C 0.13933 0.30354 0.17353 0.0
C708 C 0.11635 0.28315 0.16308 0.0
C709 C 0.09444 0.28437 0.1661 0.0
H710 H 0.72888 0.74926 0.20227 0.0
N711 N 0.70627 0.77211 0.17123 0.0
H712 H 0.717 0.72359 0.25829 0.0
H713 H 0.66918 0.76511 0.21874 0.0
H714 H 0.65848 0.74092 0.27646 0.0
H715 H 0.65793 0.73987 0.1526 0.0
H716 H 0.6433 0.70619 0.10691 0.0
H717 H 0.73355 0.76368 0.12343 0.0
H718 H 0.71896 0.72889 0.07933 0.0
H719 H 0.73625 0.81465 0.20549 0.0
H720 H 0.67286 0.78161 0.13147 0.0
H721 H 0.73429 0.85328 0.20572 0.0
H722 H 0.67174 0.82019 0.12982 0.0
H723 H 0.72234 0.97787 0.19549 0.0
H724 H 0.71336 0.99366 0.25189 0.0
H725 H 0.65704 0.91914 0.27997 0.0
H726 H 0.66498 0.90353 0.22287 0.0
H727 H 0.6488 0.91447 0.15984 0.0
H728 H 0.62919 0.9274 0.11226 0.0
H729 H 0.70095 0.97635 0.06561 0.0
H730 H 0.72041 0.96231 0.1127 0.0
H731 H 0.73888 0.92687 0.17287 0.0
H732 H 0.74138 0.88846 0.17162 0.0
H733 H 0.66138 0.84562 0.16356 0.0
N734 N 0.69859 0.93173 0.16926 0.0
H735 H 0.65929 0.88388 0.16281 0.0
C736 C 0.70038 0.7596 0.20666 0.0
C737 C 0.71377 0.74789 0.21865 0.0
C738 C 0.70719 0.73353 0.25084 0.0
C739 C 0.68775 0.73147 0.27267 0.0
C740 C 0.67412 0.74299 0.2607 0.0
C741 C 0.68028 0.75687 0.22784 0.0
C742 C 0.69689 0.75483 0.14059 0.0
C743 C 0.67133 0.73839 0.13548 0.0
C744 C 0.663 0.71912 0.10951 0.0
C745 C 0.68006 0.71535 0.08939 0.0
C746 C 0.70551 0.73182 0.09412 0.0
C747 C 0.71381 0.75164 0.11914 0.0
C748 C 0.70476 0.79488 0.1689 0.0
C749 C 0.72204 0.81574 0.18909 0.0
C750 C 0.72101 0.83794 0.18885 0.0
C751 C 0.70282 0.84005 0.16777 0.0
C752 C 0.6857 0.81924 0.14706 0.0
C753 C 0.68649 0.79692 0.14781 0.0
C754 C 0.69483 0.9395 0.20505 0.0
C755 C 0.70843 0.96486 0.21419 0.0
C756 C 0.70348 0.9738 0.2465 0.0
C757 C 0.68538 0.95738 0.27099 0.0
C758 C 0.67167 0.93199 0.26202 0.0
C759 C 0.67631 0.92307 0.22933 0.0
C760 C 0.68612 0.93692 0.13925 0.0
C761 C 0.66027 0.92721 0.13862 0.0
C762 C 0.64908 0.93486 0.11151 0.0
C763 C 0.66351 0.95292 0.0851 0.0
C764 C 0.68932 0.96244 0.08557 0.0
C765 C 0.70044 0.95434 0.11224 0.0
C766 C 0.69904 0.90849 0.16776 0.0
C767 C 0.72195 0.90914 0.17049 0.0
C768 C 0.72327 0.88709 0.17015 0.0
C769 C 0.70157 0.86372 0.16753 0.0
C770 C 0.67857 0.86315 0.16486 0.0
C771 C 0.67732 0.88523 0.16468 0.0
H772 H 0.10534 0.75915 0.21776 0.0
N773 N 0.07354 0.76772 0.17438 0.0
H774 H 0.09555 0.73593 0.27554 0.0
H775 H 0.03148 0.74935 0.21208 0.0
H776 H 0.02139 0.72597 0.27041 0.0
H777 H 0.04187 0.76124 0.11906 0.0
H778 H 0.02862 0.73081 0.06829 0.0
H779 H 0.09035 0.73475 0.16096 0.0
H780 H 0.07804 0.7053 0.11034 0.0
H781 H 0.11911 0.77661 0.14844 0.0
H782 H 0.08049 0.81207 0.19488 0.0
H783 H 0.15689 0.81626 0.14628 0.0
H784 H 0.11899 0.85207 0.19458 0.0
H785 H 0.26647 0.91696 0.19671 0.0
H786 H 0.29002 0.9245 0.2542 0.0
H787 H 0.25455 0.96415 0.29745 0.0
H788 H 0.23001 0.95546 0.23982 0.0
H789 H 0.25283 0.9787 0.15889 0.0
H790 H 0.28454 0.99966 0.11193 0.0
H791 H 0.27836 0.92917 0.08161 0.0
H792 H 0.24707 0.90834 0.12935 0.0
H793 H 0.22664 0.88446 0.18778 0.0
H794 H 0.18813 0.84529 0.18508 0.0
H795 H 0.14847 0.88482 0.15754 0.0
N796 N 0.23221 0.93153 0.18001 0.0
H797 H 0.18736 0.9244 0.16229 0.0
C798 C 0.06904 0.75593 0.21035 0.0
C799 C 0.08705 0.75223 0.22912 0.0
C800 C 0.08137 0.73887 0.26231 0.0
C801 C 0.05758 0.7289 0.27767 0.0
C802 C 0.03989 0.73341 0.25953 0.0
C803 C 0.04559 0.7467 0.22616 0.0
C804 C 0.06724 0.75057 0.14373 0.0
C805 C 0.04991 0.74916 0.11701 0.0
C806 C 0.04239 0.7318 0.08808 0.0
C807 C 0.05245 0.71579 0.08502 0.0
C808 C 0.07016 0.71758 0.11145 0.0
C809 C 0.07722 0.73448 0.14067 0.0
C810 C 0.09649 0.79116 0.17152 0.0
C811 C 0.11852 0.79282 0.15812 0.0
C812 C 0.14046 0.81572 0.15727 0.0
C813 C 0.1412 0.83753 0.17036 0.0
C814 C 0.11916 0.83583 0.18365 0.0
C815 C 0.09712 0.81294 0.18409 0.0
C816 C 0.246 0.9352 0.21419 0.0
C817 C 0.26322 0.92671 0.21877 0.0
C818 C 0.27679 0.93116 0.25173 0.0
C819 C 0.27403 0.94479 0.28056 0.0
C820 C 0.25704 0.95354 0.27582 0.0
C821 C 0.243 0.94856 0.24304 0.0
C822 C 0.24751 0.94202 0.14782 0.0
C823 C 0.25789 0.96768 0.14154 0.0
C824 C 0.27597 0.9796 0.11471 0.0
C825 C 0.28385 0.96602 0.09306 0.0
C826 C 0.27238 0.94003 0.09757 0.0
C827 C 0.25453 0.92812 0.12504 0.0
C828 C 0.20997 0.90765 0.17571 0.0
C829 C 0.2098 0.88492 0.1813 0.0
C830 C 0.18759 0.8623 0.17932 0.0
C831 C 0.16499 0.86172 0.17119 0.0
C832 C 0.16535 0.88446 0.16458 0.0
C833 C 0.18759 0.90712 0.16692 0.0
H834 H 0.35597 0.27177 0.85195 0.0
N835 N 0.30835 0.23895 0.87219 0.0
H836 H 0.36928 0.29481 0.79465 0.0
H837 H 0.27962 0.23868 0.81574 0.0
H838 H 0.29302 0.26242 0.75744 0.0
H839 H 0.28672 0.26166 0.90513 0.0
H840 H 0.30353 0.29233 0.95513 0.0
H841 H 0.35074 0.25153 0.91275 0.0
H842 H 0.36785 0.28224 0.96246 0.0
H843 H 0.33955 0.22652 0.83396 0.0
H844 H 0.28057 0.19898 0.91362 0.0
H845 H 0.3394 0.18758 0.83573 0.0
H846 H 0.28163 0.15984 0.9175 0.0
H847 H 0.35929 0.09234 0.85431 0.0
H848 H 0.3723 0.08276 0.79681 0.0
H849 H 0.29571 0.03852 0.76188 0.0
H850 H 0.28273 0.04909 0.81988 0.0
H851 H 0.28829 0.03239 0.90806 0.0
H852 H 0.30342 0.01674 0.95902 0.0
H853 H 0.36917 0.08907 0.96799 0.0
H854 H 0.35415 0.10429 0.91766 0.0
H855 H 0.35122 0.12418 0.86589 0.0
H856 H 0.35071 0.16302 0.86884 0.0
H857 H 0.27166 0.12261 0.88748 0.0
N858 N 0.31157 0.07689 0.87567 0.0
H859 H 0.27283 0.08345 0.8875 0.0
C860 C 0.31666 0.25329 0.83831 0.0
C861 C 0.34196 0.26956 0.8318 0.0
C862 C 0.3496 0.28259 0.79861 0.0
C863 C 0.33221 0.28024 0.77121 0.0
C864 C 0.30685 0.26451 0.77794 0.0
C865 C 0.29919 0.25098 0.81114 0.0
C866 C 0.31739 0.25434 0.90502 0.0
C867 C 0.30421 0.26577 0.91807 0.0
C868 C 0.31391 0.28333 0.94664 0.0
C869 C 0.33722 0.29003 0.96267 0.0
C870 C 0.34995 0.27774 0.95063 0.0
C871 C 0.34014 0.26005 0.9222 0.0
C872 C 0.30978 0.21607 0.8736 0.0
C873 C 0.32663 0.21238 0.85233 0.0
C874 C 0.32678 0.1898 0.85365 0.0
C875 C 0.31063 0.17032 0.87695 0.0
C876 C 0.2941 0.17412 0.89871 0.0
C877 C 0.2936 0.19663 0.89681 0.0
C878 C 0.3199 0.0717 0.8414 0.0
C879 C 0.34519 0.08101 0.83422 0.0
C880 C 0.35264 0.07541 0.80109 0.0
C881 C 0.33505 0.05995 0.77447 0.0
C882 C 0.30974 0.05052 0.7817 0.0
C883 C 0.3023 0.05653 0.81476 0.0
C884 C 0.31987 0.06947 0.90865 0.0
C885 C 0.30576 0.04493 0.92152 0.0
C886 C 0.31446 0.03604 0.95069 0.0
C887 C 0.33764 0.05157 0.96756 0.0
C888 C 0.3513 0.07647 0.95561 0.0
C889 C 0.34259 0.0853 0.92654 0.0
C890 C 0.312 0.10059 0.87701 0.0
C891 C 0.33378 0.12343 0.87129 0.0
C892 C 0.33338 0.14589 0.87242 0.0
C893 C 0.31109 0.14623 0.87806 0.0
C894 C 0.2893 0.12332 0.88367 0.0
C895 C 0.28985 0.10084 0.88337 0.0
H896 H 0.74596 0.02333 0.85065 0.0
N897 N 0.76981 0.06933 0.87767 0.0
H898 H 0.72015 0.00882 0.79456 0.0
H899 H 0.76302 0.09872 0.82572 0.0
H900 H 0.73873 0.08435 0.76844 0.0
H901 H 0.76279 0.03331 0.92494 0.0
H902 H 0.72937 0.01339 0.97024 0.0
H903 H 0.7386 0.08647 0.89888 0.0
H904 H 0.7066 0.06788 0.94603 0.0
H905 H 0.77708 0.11687 0.88602 0.0
H906 H 0.81485 0.07438 0.87419 0.0
H907 H 0.81648 0.15527 0.88677 0.0
H908 H 0.8548 0.11283 0.87696 0.0
H909 H 0.97869 0.25182 0.85361 0.0
H910 H 0.99236 0.2775 0.79767 0.0
H911 H 0.91719 0.26055 0.77459 0.0
H912 H 0.90377 0.23645 0.83229 0.0
H913 H 0.96826 0.23557 0.93176 0.0
H914 H 0.98793 0.26946 0.97733 0.0
H915 H 0.93609 0.2945 0.94731 0.0
H916 H 0.91746 0.26158 0.90028 0.0
H917 H 0.89103 0.21907 0.92062 0.0
H918 H 0.85211 0.18049 0.92085 0.0
H919 H 0.88162 0.14843 0.84422 0.0
N920 N 0.93345 0.22886 0.88199 0.0
H921 H 0.92134 0.18692 0.84596 0.0
C922 C 0.75699 0.06216 0.84236 0.0
C923 C 0.7448 0.03685 0.83261 0.0
C924 C 0.73034 0.02861 0.80038 0.0
C925 C 0.72864 0.04567 0.7763 0.0
C926 C 0.74053 0.07098 0.78603 0.0
C927 C 0.75452 0.0792 0.81885 0.0
C928 C 0.75373 0.06179 0.90921 0.0
C929 C 0.75107 0.04141 0.93027 0.0
C930 C 0.73205 0.03007 0.95602 0.0
C931 C 0.7159 0.03951 0.96201 0.0
C932 C 0.71936 0.06078 0.94255 0.0
C933 C 0.73783 0.07158 0.91582 0.0
C934 C 0.79292 0.09255 0.88 0.0
C935 C 0.79384 0.11568 0.88413 0.0
C936 C 0.81661 0.13781 0.88478 0.0
C937 C 0.83909 0.1374 0.88198 0.0
C938 C 0.83802 0.11411 0.87847 0.0
C939 C 0.8152 0.09203 0.87726 0.0
C940 C 0.94018 0.24174 0.84686 0.0
C941 C 0.96507 0.2533 0.83622 0.0
C942 C 0.9728 0.26762 0.804 0.0
C943 C 0.95559 0.26976 0.78078 0.0
C944 C 0.93064 0.25839 0.79142 0.0
C945 C 0.92298 0.2446 0.8243 0.0
C946 C 0.94108 0.24567 0.91321 0.0
C947 C 0.96068 0.2479 0.93583 0.0
C948 C 0.97185 0.26717 0.96178 0.0
C949 C 0.96306 0.28408 0.96628 0.0
C950 C 0.94267 0.28119 0.94499 0.0
C951 C 0.93204 0.26242 0.91817 0.0
C952 C 0.90958 0.2062 0.8831 0.0
C953 C 0.88949 0.20395 0.90386 0.0
C954 C 0.86685 0.18165 0.90377 0.0
C955 C 0.86343 0.16111 0.88249 0.0
C956 C 0.88349 0.16351 0.86158 0.0
C957 C 0.90624 0.18565 0.86221 0.0
H958 H 0.74404 0.72155 0.85451 0.0
N959 N 0.76638 0.69751 0.88213 0.0
H960 H 0.71955 0.71244 0.79704 0.0
H961 H 0.76018 0.66262 0.82966 0.0
H962 H 0.73678 0.65442 0.77162 0.0
H963 H 0.73481 0.64742 0.89086 0.0
H964 H 0.70352 0.62777 0.93827 0.0
H965 H 0.75837 0.71947 0.93926 0.0
H966 H 0.72612 0.69995 0.98625 0.0
H967 H 0.81047 0.7378 0.87444 0.0
H968 H 0.77581 0.65841 0.89158 0.0
H969 H 0.85113 0.74025 0.87305 0.0
H970 H 0.81582 0.66044 0.88876 0.0
H971 H 0.96995 0.72752 0.82424 0.0
H972 H 0.97839 0.71187 0.7673 0.0
H973 H 0.90876 0.64338 0.77871 0.0
H974 H 0.90065 0.65931 0.83539 0.0
H975 H 0.91699 0.65691 0.89635 0.0
H976 H 0.93787 0.64602 0.94498 0.0
H977 H 0.99288 0.7235 0.9568 0.0
H978 H 0.9708 0.73467 0.90977 0.0
H979 H 0.91624 0.73148 0.83258 0.0
H980 H 0.87626 0.73023 0.83619 0.0
H981 H 0.85352 0.67337 0.92057 0.0
N982 N 0.93154 0.70375 0.86907 0.0
H983 H 0.89249 0.67388 0.9159 0.0
C984 C 0.75444 0.69325 0.84624 0.0
C985 C 0.74294 0.7072 0.83619 0.0
C986 C 0.72921 0.70217 0.80329 0.0
C987 C 0.72737 0.68356 0.77925 0.0
C988 C 0.73868 0.66942 0.78925 0.0
C989 C 0.75213 0.67419 0.82245 0.0
C990 C 0.74947 0.68499 0.91202 0.0
C991 C 0.73376 0.65899 0.91229 0.0
C992 C 0.71564 0.64776 0.93934 0.0
C993 C 0.71231 0.66229 0.96609 0.0
C994 C 0.7282 0.68824 0.96603 0.0
C995 C 0.7467 0.6994 0.9394 0.0
C996 C 0.79001 0.69809 0.8834 0.0
C997 C 0.81164 0.72093 0.87801 0.0
C998 C 0.83483 0.72221 0.87685 0.0
C999 C 0.83689 0.70053 0.88076 0.0
C1000 C 0.81513 0.67763 0.88634 0.0
C1001 C 0.79201 0.67642 0.88782 0.0
C1002 C 0.93479 0.69462 0.83409 0.0
C1003 C 0.95644 0.70926 0.81408 0.0
C1004 C 0.96119 0.70026 0.78153 0.0
C1005 C 0.94434 0.67627 0.76835 0.0
C1006 C 0.92225 0.66189 0.788 0.0
C1007 C 0.91754 0.67094 0.82053 0.0
C1008 C 0.94191 0.69681 0.9001 0.0
C1009 C 0.93291 0.67173 0.91036 0.0
C1010 C 0.94481 0.66549 0.93822 0.0
C1011 C 0.96659 0.68402 0.95506 0.0
C1012 C 0.97576 0.709 0.94474 0.0
C1013 C 0.96325 0.71535 0.91791 0.0
C1014 C 0.90781 0.7028 0.87351 0.0
C1015 C 0.90259 0.71872 0.85182 0.0
C1016 C 0.87974 0.7181 0.85415 0.0
C1017 C 0.8615 0.70164 0.87865 0.0
C1018 C 0.86684 0.68594 0.90081 0.0
C1019 C 0.88955 0.68636 0.89818 0.0
H1020 H 0.69634 0.61652 0.54913 0.0
N1021 N 0.73865 0.64005 0.51197 0.0
H1022 H 0.68599 0.62931 0.60738 0.0
H1023 H 0.77067 0.67872 0.55708 0.0
H1024 H 0.76076 0.69128 0.61458 0.0
H1025 H 0.75582 0.68989 0.49921 0.0
H1026 H 0.74288 0.70802 0.44975 0.0
H1027 H 0.70602 0.61619 0.45767 0.0
H1028 H 0.69215 0.63433 0.40825 0.0
H1029 H 0.74296 0.59922 0.51612 0.0
H1030 H 0.78588 0.67846 0.49784 0.0
H1031 H 0.78051 0.59581 0.51055 0.0
H1032 H 0.82337 0.67559 0.49462 0.0
H1033 H 0.91963 0.60861 0.53329 0.0
H1034 H 0.94502 0.62105 0.58995 0.0
H1035 H 0.92762 0.67994 0.60673 0.0
H1036 H 0.90377 0.66874 0.54836 0.0
H1037 H 0.9275 0.67891 0.48086 0.0
H1038 H 0.96001 0.6928 0.43412 0.0
H1039 H 0.93784 0.61624 0.40953 0.0
H1040 H 0.90426 0.60237 0.45466 0.0
H1041 H 0.85535 0.60175 0.53871 0.0
H1042 H 0.81707 0.60382 0.54085 0.0
H1043 H 0.84663 0.66329 0.46009 0.0
N1044 N 0.89637 0.63069 0.50161 0.0
H1045 H 0.88505 0.66215 0.45989 0.0
C1046 C 0.73422 0.6465 0.54842 0.0
C1047 C 0.71054 0.63263 0.56372 0.0
C1048 C 0.70467 0.63994 0.59704 0.0
C1049 C 0.72245 0.66144 0.61566 0.0
C1050 C 0.74647 0.6747 0.601 0.0
C1051 C 0.75226 0.66743 0.56782 0.0
C1052 C 0.73216 0.65153 0.48193 0.0
C1053 C 0.74238 0.67753 0.47912 0.0
C1054 C 0.73483 0.68794 0.45072 0.0
C1055 C 0.71649 0.67265 0.42488 0.0
C1056 C 0.70631 0.64665 0.42767 0.0
C1057 C 0.71423 0.63626 0.45578 0.0
C1058 C 0.76133 0.63898 0.50768 0.0
C1059 C 0.76048 0.61589 0.51113 0.0
C1060 C 0.78207 0.61406 0.50826 0.0
C1061 C 0.80524 0.63545 0.50231 0.0
C1062 C 0.80597 0.65859 0.49856 0.0
C1063 C 0.78433 0.66031 0.50083 0.0
C1064 C 0.90936 0.63734 0.53686 0.0
C1065 C 0.92098 0.62398 0.54944 0.0
C1066 C 0.93512 0.63082 0.58207 0.0
C1067 C 0.93704 0.65049 0.60375 0.0
C1068 C 0.92563 0.6641 0.59113 0.0
C1069 C 0.91201 0.6577 0.55785 0.0
C1070 C 0.91294 0.63952 0.47049 0.0
C1071 C 0.92885 0.66512 0.46418 0.0
C1072 C 0.9474 0.67303 0.43754 0.0
C1073 C 0.951 0.65552 0.41786 0.0
C1074 C 0.93501 0.63002 0.42381 0.0
C1075 C 0.9159 0.62212 0.44951 0.0
C1076 C 0.87348 0.63181 0.49968 0.0
C1077 C 0.85356 0.61528 0.52159 0.0
C1078 C 0.83153 0.61636 0.52245 0.0
C1079 C 0.82855 0.6338 0.5007 0.0
C1080 C 0.8483 0.64998 0.47794 0.0
C1081 C 0.87052 0.64919 0.47763 0.0
H1082 H 0.39484 0.08218 0.53581 0.0
N1083 N 0.37316 0.10655 0.50669 0.0
H1084 H 0.38304 0.05627 0.59158 0.0
H1085 H 0.3374 0.10079 0.55614 0.0
H1086 H 0.32707 0.07656 0.61375 0.0
H1087 H 0.3247 0.07422 0.48896 0.0
H1088 H 0.30972 0.04053 0.44316 0.0
H1089 H 0.40004 0.09837 0.45778 0.0
H1090 H 0.38513 0.06368 0.41347 0.0
H1091 H 0.40248 0.1488 0.54229 0.0
H1092 H 0.34014 0.11628 0.46625 0.0
H1093 H 0.40051 0.18743 0.54243 0.0
H1094 H 0.33896 0.15484 0.46474 0.0
H1095 H 0.38926 0.31245 0.52985 0.0
H1096 H 0.38008 0.32851 0.58576 0.0
H1097 H 0.32343 0.25418 0.61405 0.0
H1098 H 0.3316 0.23829 0.55738 0.0
H1099 H 0.31577 0.249 0.49393 0.0
H1100 H 0.29644 0.26212 0.4462 0.0
H1101 H 0.36845 0.31106 0.40027 0.0
H1102 H 0.38764 0.29683 0.44754 0.0
H1103 H 0.4057 0.26126 0.50864 0.0
H1104 H 0.40812 0.22279 0.50796 0.0
H1105 H 0.32818 0.18008 0.49849 0.0
N1106 N 0.3655 0.26623 0.50396 0.0
H1107 H 0.32617 0.2184 0.49733 0.0
C1108 C 0.36749 0.09394 0.54209 0.0
C1109 C 0.38032 0.08141 0.553 0.0
C1110 C 0.37383 0.06694 0.58509 0.0
C1111 C 0.35519 0.06567 0.60801 0.0
C1112 C 0.34216 0.07805 0.59717 0.0
C1113 C 0.34812 0.09195 0.56435 0.0
C1114 C 0.36354 0.08929 0.47603 0.0
C1115 C 0.33795 0.07278 0.4714 0.0
C1116 C 0.32942 0.05354 0.44535 0.0
C1117 C 0.34633 0.04992 0.42455 0.0
C1118 C 0.3718 0.0665 0.42875 0.0
C1119 C 0.38028 0.08625 0.45392 0.0
C1120 C 0.37153 0.12928 0.50466 0.0
C1121 C 0.3885 0.14999 0.52543 0.0
C1122 C 0.38745 0.17218 0.52519 0.0
C1123 C 0.36955 0.17444 0.50356 0.0
C1124 C 0.35271 0.15377 0.48236 0.0
C1125 C 0.35352 0.13146 0.48307 0.0
C1126 C 0.36162 0.27414 0.53956 0.0
C1127 C 0.37524 0.29953 0.5485 0.0
C1128 C 0.37015 0.30863 0.58053 0.0
C1129 C 0.3519 0.29234 0.60494 0.0
C1130 C 0.33816 0.26693 0.59615 0.0
C1131 C 0.34294 0.25785 0.56373 0.0
C1132 C 0.3532 0.27141 0.47371 0.0
C1133 C 0.32736 0.26176 0.47281 0.0
C1134 C 0.31633 0.26954 0.44563 0.0
C1135 C 0.33091 0.28766 0.41939 0.0
C1136 C 0.35671 0.29711 0.4201 0.0
C1137 C 0.36767 0.28888 0.44686 0.0
C1138 C 0.3659 0.24295 0.50283 0.0
C1139 C 0.38877 0.24355 0.5061 0.0
C1140 C 0.39004 0.22147 0.50608 0.0
C1141 C 0.36833 0.19812 0.50319 0.0
C1142 C 0.34538 0.19761 0.50002 0.0
C1143 C 0.34417 0.21971 0.49958 0.0
H1144 H 0.77156 0.09088 0.55052 0.0
N1145 N 0.74013 0.09984 0.50693 0.0
H1146 H 0.76157 0.0681 0.60872 0.0
H1147 H 0.6982 0.08233 0.54468 0.0
H1148 H 0.6879 0.05941 0.60342 0.0
H1149 H 0.70829 0.0932 0.45188 0.0
H1150 H 0.69457 0.06239 0.40165 0.0
H1151 H 0.75685 0.06677 0.49362 0.0
H1152 H 0.74405 0.0369 0.44344 0.0
H1153 H 0.78576 0.10858 0.4816 0.0
H1154 H 0.74697 0.14426 0.52668 0.0
H1155 H 0.82359 0.14823 0.47948 0.0
H1156 H 0.78548 0.18423 0.52644 0.0
H1157 H 0.93292 0.2492 0.53064 0.0
H1158 H 0.95632 0.25699 0.58833 0.0
H1159 H 0.92043 0.29649 0.63065 0.0
H1160 H 0.89607 0.28757 0.57282 0.0
H1161 H 0.91915 0.31079 0.49212 0.0
H1162 H 0.95104 0.33187 0.44545 0.0
H1163 H 0.94542 0.26154 0.4156 0.0
H1164 H 0.91394 0.2406 0.46308 0.0
H1165 H 0.89312 0.21662 0.5215 0.0
H1166 H 0.85465 0.17741 0.51842 0.0
H1167 H 0.8151 0.21683 0.48948 0.0
N1168 N 0.89865 0.26364 0.51329 0.0
H1169 H 0.85392 0.25644 0.49462 0.0
C1170 C 0.73551 0.08822 0.54301 0.0
C1171 C 0.75333 0.08431 0.56192 0.0
C1172 C 0.74754 0.07122 0.59536 0.0
C1173 C 0.72383 0.06175 0.6108 0.0
C1174 C 0.70635 0.06648 0.59248 0.0
C1175 C 0.71215 0.07949 0.55888 0.0
C1176 C 0.73373 0.08259 0.47642 0.0
C1177 C 0.71627 0.08106 0.44988 0.0
C1178 C 0.70847 0.06348 0.42126 0.0
C1179 C 0.71837 0.04732 0.41832 0.0
C1180 C 0.73628 0.04927 0.44449 0.0
C1181 C 0.74363 0.06642 0.47343 0.0
C1182 C 0.76308 0.12326 0.50399 0.0
C1183 C 0.78515 0.12484 0.49098 0.0
C1184 C 0.80711 0.14774 0.49016 0.0
C1185 C 0.80779 0.1696 0.50289 0.0
C1186 C 0.78569 0.16796 0.51577 0.0
C1187 C 0.76365 0.14509 0.51618 0.0
C1188 C 0.91228 0.26736 0.54764 0.0
C1189 C 0.92955 0.25897 0.55254 0.0
C1190 C 0.94303 0.26356 0.58562 0.0
C1191 C 0.94012 0.27723 0.61423 0.0
C1192 C 0.92304 0.28585 0.60919 0.0
C1193 C 0.9091 0.28074 0.57629 0.0
C1194 C 0.91409 0.2742 0.48126 0.0
C1195 C 0.92437 0.29984 0.47493 0.0
C1196 C 0.94256 0.31182 0.44827 0.0
C1197 C 0.95064 0.29832 0.42684 0.0
C1198 C 0.93928 0.27234 0.43139 0.0
C1199 C 0.92132 0.26037 0.4587 0.0
C1200 C 0.87647 0.23975 0.50879 0.0
C1201 C 0.87631 0.21705 0.51463 0.0
C1202 C 0.85413 0.1944 0.51244 0.0
C1203 C 0.83157 0.19379 0.50382 0.0
C1204 C 0.83195 0.21651 0.4969 0.0
C1205 C 0.85414 0.23918 0.49948 0.0
H1206 H 0.0246 0.60414 0.18343 0.0
N1207 N 0.97674 0.57212 0.20362 0.0
H1208 H 0.03831 0.62719 0.12609 0.0
H1209 H 0.94841 0.57239 0.14709 0.0
H1210 H 0.96217 0.59612 0.08889 0.0
H1211 H 0.9547 0.59457 0.23612 0.0
H1212 H 0.97094 0.62498 0.28651 0.0
H1213 H 0.01899 0.58494 0.24463 0.0
H1214 H 0.03556 0.61544 0.29471 0.0
H1215 H 0.00691 0.55856 0.16483 0.0
H1216 H 0.94923 0.53288 0.24649 0.0
H1217 H 0.00625 0.51939 0.16746 0.0
H1218 H 0.94975 0.49348 0.25109 0.0
H1219 H 0.02531 0.4236 0.18905 0.0
H1220 H 0.03816 0.41376 0.13161 0.0
H1221 H 0.96155 0.37056 0.09626 0.0
H1222 H 0.94873 0.38139 0.15419 0.0
H1223 H 0.95466 0.36448 0.24243 0.0
H1224 H 0.97 0.34899 0.29331 0.0
H1225 H 0.03536 0.4216 0.30246 0.0
H1226 H 0.02014 0.43667 0.25221 0.0
H1227 H 0.01764 0.45593 0.19907 0.0
H1228 H 0.01769 0.49507 0.20124 0.0
H1229 H 0.93883 0.45573 0.22164 0.0
N1230 N 0.97769 0.40899 0.21004 0.0
H1231 H 0.93944 0.41627 0.22231 0.0
C1232 C 0.98534 0.58638 0.16971 0.0
C1233 C 0.01073 0.60223 0.16322 0.0
C1234 C 0.01859 0.61525 0.13003 0.0
C1235 C 1.00134 0.6133 0.10266 0.0
C1236 C 0.97591 0.5979 0.10935 0.0
C1237 C 0.96804 0.58439 0.14251 0.0
C1238 C 0.98557 0.58756 0.23641 0.0
C1239 C 0.97215 0.59876 0.24931 0.0
C1240 C 0.98151 0.61615 0.27812 0.0
C1241 C 0.00472 0.62291 0.29455 0.0
C1242 C 0.01772 0.61087 0.28259 0.0
C1243 C 0.00824 0.59335 0.25392 0.0
C1244 C 0.9779 0.5491 0.20552 0.0
C1245 C 0.99421 0.54481 0.18386 0.0
C1246 C 0.99404 0.52208 0.18564 0.0
C1247 C 0.97809 0.50305 0.20969 0.0
C1248 C 0.96206 0.50743 0.23176 0.0
C1249 C 0.96189 0.53008 0.22944 0.0
C1250 C 0.98593 0.40352 0.1759 0.0
C1251 C 0.01118 0.41243 0.16889 0.0
C1252 C 0.01854 0.40669 0.1358 0.0
C1253 C 1.00089 0.39147 0.10909 0.0
C1254 C 0.97561 0.38236 0.11619 0.0
C1255 C 0.96827 0.38853 0.1492 0.0
C1256 C 0.98604 0.40169 0.24311 0.0
C1257 C 0.97208 0.37712 0.25593 0.0
C1258 C 0.98091 0.36831 0.28504 0.0
C1259 C 0.00405 0.38397 0.3019 0.0
C1260 C 0.01752 0.40891 0.29007 0.0
C1261 C 0.0087 0.41766 0.26105 0.0
C1262 C 0.97847 0.43286 0.21101 0.0
C1263 C 1.00035 0.45548 0.20464 0.0
C1264 C 1.00028 0.47811 0.20535 0.0
C1265 C 0.97821 0.47882 0.21127 0.0
C1266 C 0.95631 0.45614 0.21758 0.0
C1267 C 0.95654 0.43349 0.21766 0.0
H1268 H 0.64702 0.58406 0.18399 0.0
N1269 N 0.60213 0.56214 0.21356 0.0
H1270 H 0.66048 0.60943 0.12774 0.0
H1271 H 0.57235 0.56991 0.16438 0.0
H1272 H 0.5855 0.59369 0.10637 0.0
H1273 H 0.58566 0.5945 0.23168 0.0
H1274 H 0.60444 0.62804 0.27776 0.0
H1275 H 0.63809 0.57036 0.26207 0.0
H1276 H 0.65795 0.60493 0.30655 0.0
H1277 H 0.58913 0.52023 0.17677 0.0
H1278 H 0.56041 0.55234 0.25432 0.0
H1279 H 0.54925 0.4819 0.1758 0.0
H1280 H 0.5213 0.51397 0.25497 0.0
H1281 H 0.41408 0.35731 0.18437 0.0
H1282 H 0.38829 0.34281 0.12823 0.0
H1283 H 0.40663 0.41831 0.10239 0.0
H1284 H 0.43089 0.43266 0.15975 0.0
H1285 H 0.40675 0.42076 0.23244 0.0
H1286 H 0.37472 0.40247 0.27959 0.0
H1287 H 0.39701 0.34768 0.30437 0.0
H1288 H 0.43046 0.3673 0.25906 0.0
H1289 H 0.48262 0.40797 0.20707 0.0
H1290 H 0.52276 0.44624 0.20931 0.0
H1291 H 0.48512 0.48921 0.2209 0.0
N1292 N 0.43776 0.40329 0.21153 0.0
H1293 H 0.44551 0.45098 0.2204 0.0
C1294 C 0.60864 0.57463 0.17811 0.0
C1295 C 0.63339 0.58571 0.16687 0.0
C1296 C 0.64098 0.59986 0.13449 0.0
C1297 C 0.62376 0.60227 0.11169 0.0
C1298 C 0.59894 0.59131 0.12286 0.0
C1299 C 0.59143 0.5777 0.15592 0.0
C1300 C 0.61004 0.57942 0.24422 0.0
C1301 C 0.60067 0.59591 0.2491 0.0
C1302 C 0.61143 0.61507 0.27533 0.0
C1303 C 0.63231 0.61867 0.29599 0.0
C1304 C 0.64154 0.60214 0.29141 0.0
C1305 C 0.63023 0.58245 0.26613 0.0
C1306 C 0.57818 0.53956 0.21516 0.0
C1307 C 0.57434 0.51901 0.19377 0.0
C1308 C 0.55151 0.49696 0.19355 0.0
C1309 C 0.53184 0.49463 0.21536 0.0
C1310 C 0.53574 0.51511 0.23721 0.0
C1311 C 0.55849 0.53731 0.23698 0.0
C1312 C 0.42497 0.39612 0.17619 0.0
C1313 C 0.41288 0.37082 0.16635 0.0
C1314 C 0.39844 0.36259 0.13409 0.0
C1315 C 0.39667 0.37965 0.11008 0.0
C1316 C 0.40849 0.40495 0.1199 0.0
C1317 C 0.42246 0.41315 0.15275 0.0
C1318 C 0.42165 0.39592 0.24304 0.0
C1319 C 0.40587 0.40586 0.2495 0.0
C1320 C 0.38737 0.39523 0.27624 0.0
C1321 C 0.38377 0.37397 0.29588 0.0
C1322 C 0.3998 0.36436 0.29002 0.0
C1323 C 0.41884 0.37553 0.26425 0.0
C1324 C 0.461 0.4264 0.21373 0.0
C1325 C 0.48315 0.42569 0.21042 0.0
C1326 C 0.50608 0.44767 0.21134 0.0
C1327 C 0.50738 0.47104 0.21519 0.0
C1328 C 0.48505 0.47166 0.21859 0.0
C1329 C 0.46217 0.44963 0.21813 0.0
H1330 H 0.58295 0.9865 0.18636 0.0
N1331 N 0.59723 0.03518 0.20187 0.0
H1332 H 0.59079 0.97046 0.12982 0.0
H1333 H 0.62034 0.06095 0.14162 0.0
H1334 H 0.62933 0.04508 0.08503 0.0
H1335 H 0.64457 0.0611 0.22178 0.0
H1336 H 0.66639 0.05036 0.2692 0.0
H1337 H 0.57531 0.99777 0.25369 0.0
H1338 H 0.59698 0.98737 0.30196 0.0
H1339 H 0.55042 0.99461 0.19242 0.0
H1340 H 0.58993 0.07226 0.22301 0.0
H1341 H 0.5113 0.99423 0.19787 0.0
H1342 H 0.55046 0.07173 0.23063 0.0
H1343 H 0.41112 0.05553 0.19095 0.0
H1344 H 0.38682 0.04621 0.13332 0.0
H1345 H 0.40531 0.98906 0.10793 0.0
H1346 H 0.4285 0.99742 0.16651 0.0
H1347 H 0.42554 0.05378 0.27596 0.0
H1348 H 0.39287 0.03434 0.32239 0.0
H1349 H 0.36974 0.96223 0.27374 0.0
H1350 H 0.40159 0.98184 0.22693 0.0
H1351 H 0.44322 0.99387 0.24006 0.0
H1352 H 0.48285 0.99503 0.23882 0.0
H1353 H 0.51712 0.0704 0.19655 0.0
N1354 N 0.43372 0.03181 0.21894 0.0
H1355 H 0.47732 0.06953 0.19998 0.0
C1356 C 0.60056 0.02496 0.16794 0.0
C1357 C 0.59247 0.99938 0.1641 0.0
C1358 C 0.5971 0.99024 0.1317 0.0
C1359 C 0.61058 0.00649 0.10279 0.0
C1360 C 0.61886 0.03209 0.10675 0.0
C1361 C 0.61367 0.04116 0.13893 0.0
C1362 C 0.60839 0.03038 0.23406 0.0
C1363 C 0.634 0.04531 0.23973 0.0
C1364 C 0.6464 0.03915 0.26682 0.0
C1365 C 0.63335 0.01809 0.28933 0.0
C1366 C 0.60744 0.00391 0.28532 0.0
C1367 C 0.59505 0.00982 0.25759 0.0
C1368 C 0.5734 0.03372 0.2067 0.0
C1369 C 0.55082 0.01164 0.20048 0.0
C1370 C 0.52822 0.01135 0.20409 0.0
C1371 C 0.52753 0.03297 0.21461 0.0
C1372 C 0.55016 0.05483 0.22175 0.0
C1373 C 0.57276 0.05516 0.21771 0.0
C1374 C 0.42201 0.02757 0.18286 0.0
C1375 C 0.41034 0.04133 0.17261 0.0
C1376 C 0.39675 0.03621 0.13957 0.0
C1377 C 0.39528 0.01778 0.11549 0.0
C1378 C 0.40691 0.00393 0.12558 0.0
C1379 C 0.42018 0.00874 0.15901 0.0
C1380 C 0.41641 0.01933 0.24844 0.0
C1381 C 0.41364 0.03374 0.27581 0.0
C1382 C 0.3949 0.02263 0.30212 0.0
C1383 C 0.37878 0.99672 0.30185 0.0
C1384 C 0.38204 0.98219 0.27503 0.0
C1385 C 0.40038 0.99338 0.24829 0.0
C1386 C 0.45714 0.03185 0.22037 0.0
C1387 C 0.45913 0.01084 0.23103 0.0
C1388 C 0.48199 0.01141 0.22989 0.0
C1389 C 0.50336 0.03277 0.21745 0.0
C1390 C 0.50128 0.05374 0.20692 0.0
C1391 C 0.47849 0.05326 0.20858 0.0
H1392 H 0.3761 0.94462 0.90238 0.0
N1393 N 0.40456 0.97314 0.84742 0.0
H1394 H 0.36608 0.95833 0.9603 0.0
H1395 H 0.4218 0.02137 0.87005 0.0
H1396 H 0.4127 0.03502 0.92734 0.0
H1397 H 0.43424 0.01573 0.80791 0.0
H1398 H 0.42121 0.03317 0.75756 0.0
H1399 H 0.36046 0.95266 0.81355 0.0
H1400 H 0.34708 0.97006 0.76277 0.0
H1401 H 0.40945 0.93507 0.82344 0.0
H1402 H 0.45201 0.00964 0.8669 0.0
H1403 H 0.44765 0.93263 0.818 0.0
H1404 H 0.4897 0.00711 0.86242 0.0
H1405 H 0.5866 0.9435 0.86457 0.0
H1406 H 0.61215 0.95488 0.92109 0.0
H1407 H 0.59405 0.01276 0.94266 0.0
H1408 H 0.56999 0.00266 0.88485 0.0
H1409 H 0.5962 0.01415 0.81754 0.0
H1410 H 0.62813 0.02773 0.77024 0.0
H1411 H 0.60138 0.95122 0.73917 0.0
H1412 H 0.56818 0.93771 0.78491 0.0
H1413 H 0.5183 0.92907 0.85285 0.0
H1414 H 0.47938 0.93026 0.85573 0.0
H1415 H 0.51729 0.00641 0.81681 0.0
N1416 N 0.56292 0.96583 0.8354 0.0
H1417 H 0.55591 0.00529 0.81508 0.0
C1418 C 0.39993 0.98182 0.88192 0.0
C1419 C 0.3842 0.96437 0.90794 0.0
C1420 C 0.37847 0.97222 0.94093 0.0
C1421 C 0.38873 0.99777 0.94868 0.0
C1422 C 0.40469 0.01517 0.92266 0.0
C1423 C 0.40999 0.00735 0.88963 0.0
C1424 C 0.39826 0.98275 0.81479 0.0
C1425 C 0.41529 0.00536 0.79804 0.0
C1426 C 0.40774 0.0154 0.76907 0.0
C1427 C 0.383 0.00316 0.75612 0.0
C1428 C 0.36627 0.98005 0.77191 0.0
C1429 C 0.37386 0.97005 0.80097 0.0
C1430 C 0.42753 0.97235 0.84574 0.0
C1431 C 0.42694 0.95081 0.83206 0.0
C1432 C 0.44878 0.94943 0.82911 0.0
C1433 C 0.47181 0.96971 0.83969 0.0
C1434 C 0.47238 0.99127 0.85348 0.0
C1435 C 0.45058 0.99263 0.85642 0.0
C1436 C 0.57585 0.97172 0.87068 0.0
C1437 C 0.58781 0.95839 0.88176 0.0
C1438 C 0.6021 0.96466 0.91424 0.0
C1439 C 0.60386 0.98373 0.93716 0.0
C1440 C 0.59218 0.99736 0.92604 0.0
C1441 C 0.57836 0.99151 0.893 0.0
C1442 C 0.57918 0.97485 0.80398 0.0
C1443 C 0.59617 1.00036 0.79915 0.0
C1444 C 0.61455 0.00812 0.77228 0.0
C1445 C 0.61679 0.9905 0.75071 0.0
C1446 C 0.5996 0.96513 0.75495 0.0
C1447 C 0.58072 0.95743 0.78099 0.0
C1448 C 0.5401 0.96689 0.83359 0.0
C1449 C 0.51809 0.94591 0.84466 0.0
C1450 C 0.49587 0.94662 0.84614 0.0
C1451 C 0.49518 0.96846 0.83658 0.0
C1452 C 0.51719 0.98938 0.82486 0.0
C1453 C 0.5394 0.98866 0.82346 0.0
H1454 H 0.05937 0.64773 0.86189 0.0
N1455 N 0.0354 0.60175 0.83449 0.0
H1456 H 0.05008 0.66305 0.91849 0.0
H1457 H 1.00135 0.57329 0.88676 0.0
H1458 H 0.99305 0.5884 0.94452 0.0
H1459 H 0.05641 0.63407 0.77939 0.0
H1460 H 0.03599 0.64783 0.73356 0.0
H1461 H 0.98539 0.58275 0.82514 0.0
H1462 H 0.96478 0.59588 0.77919 0.0
H1463 H 0.00404 0.55859 0.79475 0.0
H1464 H 0.06587 0.59034 0.87182 0.0
H1465 H 0.00475 0.51979 0.79553 0.0
H1466 H 0.06572 0.5507 0.87432 0.0
H1467 H 0.05762 0.41361 0.86865 0.0
H1468 H 0.04692 0.38761 0.92425 0.0
H1469 H 0.99182 0.40825 0.95089 0.0
H1470 H 1.0011 0.43272 0.89408 0.0
H1471 H 0.06346 0.43116 0.7935 0.0
H1472 H 0.04958 0.39698 0.74851 0.0
H1473 H 0.97354 0.37299 0.77533 0.0
H1474 H 0.98744 0.40583 0.82208 0.0
H1475 H 0.99508 0.44496 0.83215 0.0
H1476 H 0.99515 0.48437 0.8305 0.0
H1477 H 0.07505 0.52365 0.84252 0.0
N1478 N 0.03561 0.4382 0.8418 0.0
H1479 H 0.07453 0.48372 0.84604 0.0
C1480 C 0.03142 0.60937 0.87031 0.0
C1481 C 0.04522 0.63459 0.88018 0.0
C1482 C 0.04013 0.64325 0.91267 0.0
C1483 C 0.02171 0.62667 0.93664 0.0
C1484 C 0.00789 0.60138 0.92698 0.0
C1485 C 0.01265 0.59276 0.89407 0.0
C1486 C 0.0225 0.60718 0.80529 0.0
C1487 C 0.03638 0.62545 0.77903 0.0
C1488 C 0.02469 0.63339 0.75309 0.0
C1489 C 0.99874 0.62296 0.75268 0.0
C1490 C 0.98477 0.6042 0.77852 0.0
C1491 C 0.99652 0.59663 0.80484 0.0
C1492 C 0.03481 0.57784 0.83386 0.0
C1493 C 0.01762 0.5574 0.81242 0.0
C1494 C 0.01792 0.53481 0.81299 0.0
C1495 C 0.03516 0.53179 0.83519 0.0
C1496 C 0.05236 0.55223 0.85641 0.0
C1497 C 0.05232 0.57493 0.85536 0.0
C1498 C 0.03065 0.42564 0.87718 0.0
C1499 C 0.04351 0.4129 0.88675 0.0
C1500 C 0.03763 0.39832 0.9187 0.0
C1501 C 0.01953 0.39709 0.94275 0.0
C1502 C 0.00649 0.40967 0.93333 0.0
C1503 C 0.01189 0.42376 0.90077 0.0
C1504 C 0.02657 0.42159 0.81045 0.0
C1505 C 0.04379 0.41901 0.78881 0.0
C1506 C 0.03589 0.39954 0.76325 0.0
C1507 C 0.01054 0.38283 0.7581 0.0
C1508 C 0.99317 0.38615 0.77819 0.0
C1509 C 1.0011 0.40511 0.80466 0.0
C1510 C 0.03491 0.46129 0.83922 0.0
C1511 C 0.01265 0.46193 0.83431 0.0
C1512 C 0.01275 0.4847 0.83316 0.0
C1513 C 0.03511 0.50745 0.83629 0.0
C1514 C 0.05738 0.50666 0.84069 0.0
C1515 C 0.0572 0.48384 0.84235 0.0
H1516 H 0.43883 0.42541 0.88416 0.0
N1517 N 0.40719 0.43451 0.8413 0.0
H1518 H 0.42908 0.40233 0.94212 0.0
H1519 H 0.36546 0.41686 0.87955 0.0
H1520 H 0.35542 0.3937 0.93804 0.0
H1521 H 0.37527 0.42821 0.7865 0.0
H1522 H 0.36147 0.39769 0.73584 0.0
H1523 H 0.42372 0.40139 0.8273 0.0
H1524 H 0.41085 0.37182 0.77676 0.0
H1525 H 0.4526 0.44325 0.81503 0.0
H1526 H 0.41424 0.47891 0.86168 0.0
H1527 H 0.49036 0.4829 0.81223 0.0
H1528 H 0.45273 0.51889 0.86084 0.0
H1529 H 0.60032 0.58402 0.86064 0.0
H1530 H 0.62387 0.59101 0.91807 0.0
H1531 H 0.58798 0.62975 0.96316 0.0
H1532 H 0.56346 0.62161 0.90561 0.0
H1533 H 0.58634 0.6456 0.82438 0.0
H1534 H 0.61757 0.66661 0.77677 0.0
H1535 H 0.61085 0.5961 0.74519 0.0
H1536 H 0.58007 0.57523 0.79355 0.0
H1537 H 0.56032 0.55133 0.8525 0.0
H1538 H 0.52185 0.51213 0.85029 0.0
H1539 H 0.4819 0.55149 0.82351 0.0
N1540 N 0.56572 0.59834 0.84507 0.0
H1541 H 0.52076 0.59112 0.82788 0.0
C1542 C 0.40276 0.42277 0.87728 0.0
C1543 C 0.42066 0.41878 0.89578 0.0
C1544 C 0.41501 0.40552 0.92907 0.0
C1545 C 0.39137 0.39599 0.94479 0.0
C1546 C 0.37381 0.4008 0.92689 0.0
C1547 C 0.37947 0.41397 0.89343 0.0
C1548 C 0.40064 0.41736 0.81062 0.0
C1549 C 0.38319 0.41604 0.78422 0.0
C1550 C 0.37536 0.39863 0.75534 0.0
C1551 C 0.38522 0.38246 0.75202 0.0
C1552 C 0.40312 0.3842 0.77808 0.0
C1553 C 0.41049 0.40117 0.80725 0.0
C1554 C 0.43013 0.45791 0.83825 0.0
C1555 C 0.45208 0.4595 0.82464 0.0
C1556 C 0.474 0.4824 0.82343 0.0
C1557 C 0.4748 0.50427 0.8364 0.0
C1558 C 0.45284 0.50262 0.84996 0.0
C1559 C 0.43082 0.47974 0.85073 0.0
C1560 C 0.57969 0.60188 0.87904 0.0
C1561 C 0.59702 0.59349 0.88306 0.0
C1562 C 0.61056 0.59759 0.916 0.0
C1563 C 0.60765 0.61078 0.94532 0.0
C1564 C 0.59057 0.61946 0.94113 0.0
C1565 C 0.57656 0.61481 0.90838 0.0
C1566 C 0.58081 0.60892 0.81271 0.0
C1567 C 0.59118 0.6346 0.80663 0.0
C1568 C 0.60898 0.64654 0.77941 0.0
C1569 C 0.61656 0.63296 0.75719 0.0
C1570 C 0.60509 0.60696 0.76157 0.0
C1571 C 0.58754 0.59503 0.7894 0.0
C1572 C 0.5435 0.57444 0.84086 0.0
C1573 C 0.54342 0.55175 0.8463 0.0
C1574 C 0.52123 0.5291 0.84459 0.0
C1575 C 0.49857 0.52847 0.83684 0.0
C1576 C 0.49884 0.55118 0.83028 0.0
C1577 C 0.52106 0.57386 0.8324 0.0
H1578 H 0.68961 0.93642 0.51821 0.0
N1579 N 0.6418 0.90442 0.53903 0.0
H1580 H 0.70297 0.95874 0.46037 0.0
H1581 H 0.61325 0.90374 0.48225 0.0
H1582 H 0.62668 0.92713 0.42372 0.0
H1583 H 0.61983 0.92714 0.57083 0.0
H1584 H 0.63615 0.95801 0.62066 0.0
H1585 H 0.68426 0.91773 0.58044 0.0
H1586 H 0.70068 0.9484 0.62977 0.0
H1587 H 0.68006 0.89522 0.52275 0.0
H1588 H 0.60448 0.86063 0.56005 0.0
H1589 H 0.67898 0.85546 0.52516 0.0
H1590 H 0.6035 0.82034 0.56358 0.0
H1591 H 0.68101 0.77346 0.49792 0.0
H1592 H 0.69408 0.76414 0.44008 0.0
H1593 H 0.63105 0.68965 0.44187 0.0
H1594 H 0.61796 0.69935 0.50027 0.0
H1595 H 0.61668 0.70901 0.59378 0.0
H1596 H 0.63355 0.6941 0.64362 0.0
H1597 H 0.70755 0.74236 0.60362 0.0
H1598 H 0.69066 0.75641 0.55387 0.0
H1599 H 0.67897 0.7865 0.56565 0.0
H1600 H 0.67818 0.82536 0.56806 0.0
H1601 H 0.60336 0.78853 0.5239 0.0
N1602 N 0.64146 0.74113 0.5399 0.0
H1603 H 0.60398 0.74904 0.5226 0.0
C1604 C 0.65029 0.91796 0.50459 0.0
C1605 C 0.67562 0.93379 0.49778 0.0
C1606 C 0.68329 0.94665 0.46442 0.0
C1607 C 0.66589 0.94455 0.43717 0.0
C1608 C 0.64052 0.92905 0.44408 0.0
C1609 C 0.63285 0.9157 0.47741 0.0
C1610 C 0.65067 0.92006 0.57162 0.0
C1611 C 0.63728 0.93141 0.58411 0.0
C1612 C 0.64668 0.94908 0.61259 0.0
C1613 C 0.66989 0.95593 0.6291 0.0
C1614 C 0.68284 0.94377 0.61758 0.0
C1615 C 0.67336 0.92604 0.58924 0.0
C1616 C 0.64216 0.8811 0.54102 0.0
C1617 C 0.66317 0.87919 0.53161 0.0
C1618 C 0.66263 0.85626 0.53335 0.0
C1619 C 0.64118 0.83462 0.5447 0.0
C1620 C 0.62025 0.83655 0.55433 0.0
C1621 C 0.62081 0.85957 0.55254 0.0
C1622 C 0.64842 0.73702 0.5037 0.0
C1623 C 0.66973 0.75524 0.4858 0.0
C1624 C 0.67723 0.74982 0.45253 0.0
C1625 C 0.66371 0.72604 0.43628 0.0
C1626 C 0.64187 0.70816 0.45345 0.0
C1627 C 0.63439 0.71363 0.48686 0.0
C1628 C 0.65224 0.73398 0.57019 0.0
C1629 C 0.63654 0.71646 0.59607 0.0
C1630 C 0.64621 0.70795 0.62444 0.0
C1631 C 0.67193 0.71713 0.62777 0.0
C1632 C 0.68768 0.73507 0.60222 0.0
C1633 C 0.67798 0.74317 0.57356 0.0
C1634 C 0.64133 0.76446 0.54407 0.0
C1635 C 0.66218 0.78639 0.55693 0.0
C1636 C 0.66182 0.80889 0.55797 0.0
C1637 C 0.64078 0.8102 0.54593 0.0
C1638 C 0.6198 0.7882 0.53378 0.0
C1639 C 0.62014 0.76563 0.53286 0.0
H1640 H 0.31258 0.9187 0.51977 0.0
N1641 N 0.26745 0.89653 0.54854 0.0
H1642 H 0.32635 0.9441 0.46356 0.0
H1643 H 0.23795 0.90432 0.49886 0.0
H1644 H 0.25143 0.92817 0.44095 0.0
H1645 H 0.25126 0.92918 0.56632 0.0
H1646 H 0.26997 0.96252 0.61273 0.0
H1647 H 0.3025 0.90381 0.59817 0.0
H1648 H 0.32225 0.9381 0.64307 0.0
H1649 H 0.25552 0.85448 0.51302 0.0
H1650 H 0.22494 0.88681 0.58683 0.0
H1651 H 0.21582 0.81595 0.51126 0.0
H1652 H 0.186 0.8482 0.587 0.0
H1653 H 0.08116 0.69085 0.51688 0.0
H1654 H 0.05541 0.67585 0.46077 0.0
H1655 H 0.07247 0.75093 0.43446 0.0
H1656 H 0.09671 0.76575 0.49173 0.0
H1657 H 0.07246 0.75403 0.56342 0.0
H1658 H 0.04008 0.73575 0.61008 0.0
H1659 H 0.06283 0.68158 0.63693 0.0
H1660 H 0.09659 0.70119 0.5921 0.0
H1661 H 0.14905 0.74197 0.54129 0.0
H1662 H 0.18895 0.78046 0.54425 0.0
H1663 H 0.15049 0.82285 0.55251 0.0
N1664 N 0.10396 0.73685 0.54393 0.0
H1665 H 0.11111 0.78441 0.55155 0.0
C1666 C 0.2742 0.90917 0.51324 0.0
C1667 C 0.29904 0.92034 0.5024 0.0
C1668 C 0.30681 0.93449 0.47004 0.0
C1669 C 0.28969 0.93686 0.44691 0.0
C1670 C 0.2648 0.92583 0.45771 0.0
C1671 C 0.2571 0.9122 0.49072 0.0
C1672 C 0.27509 0.91354 0.5795 0.0
C1673 C 0.26595 0.93025 0.58417 0.0
C1674 C 0.27665 0.94928 0.61062 0.0
C1675 C 0.29719 0.95246 0.63179 0.0
C1676 C 0.30607 0.93561 0.62757 0.0
C1677 C 0.29484 0.9161 0.60202 0.0
C1678 C 0.24361 0.87384 0.54974 0.0
C1679 C 0.24036 0.85323 0.5291 0.0
C1680 C 0.21763 0.83108 0.52844 0.0
C1681 C 0.19749 0.82873 0.54909 0.0
C1682 C 0.20082 0.84932 0.57014 0.0
C1683 C 0.22346 0.87164 0.57027 0.0
C1684 C 0.09143 0.72948 0.50844 0.0
C1685 C 0.07972 0.70417 0.49873 0.0
C1686 C 0.06529 0.69566 0.4665 0.0
C1687 C 0.06314 0.71246 0.44241 0.0
C1688 C 0.07463 0.73778 0.45205 0.0
C1689 C 0.08859 0.74625 0.48485 0.0
C1690 C 0.08758 0.7295 0.57511 0.0
C1691 C 0.07158 0.73927 0.58082 0.0
C1692 C 0.05288 0.72864 0.60725 0.0
C1693 C 0.04933 0.70756 0.62731 0.0
C1694 C 0.06556 0.69811 0.6222 0.0
C1695 C 0.08479 0.70928 0.59673 0.0
C1696 C 0.12703 0.76011 0.5463 0.0
C1697 C 0.14935 0.75962 0.54406 0.0
C1698 C 0.17214 0.78172 0.54538 0.0
C1699 C 0.17316 0.805 0.54851 0.0
C1700 C 0.15065 0.80539 0.5508 0.0
C1701 C 0.1279 0.78324 0.55002 0.0
H1702 H 0.2502 0.32192 0.51967 0.0
N1703 N 0.26434 0.37062 0.53478 0.0
H1704 H 0.25838 0.30578 0.46353 0.0
H1705 H 0.2876 0.39625 0.47449 0.0
H1706 H 0.29694 0.38026 0.41831 0.0
H1707 H 0.31172 0.39648 0.55458 0.0
H1708 H 0.33348 0.38579 0.60217 0.0
H1709 H 0.24237 0.33343 0.5869 0.0
H1710 H 0.26398 0.3231 0.63533 0.0
H1711 H 0.21759 0.32998 0.52478 0.0
H1712 H 0.25679 0.40741 0.55657 0.0
H1713 H 0.17836 0.32927 0.531 0.0
H1714 H 0.21721 0.40654 0.56489 0.0
H1715 H 0.07722 0.38883 0.52514 0.0
H1716 H 0.05311 0.37913 0.46728 0.0
H1717 H 0.07242 0.32242 0.44297 0.0
H1718 H 0.09539 0.33114 0.50177 0.0
H1719 H 0.09131 0.38757 0.61015 0.0
H1720 H 0.05842 0.368 0.65625 0.0
H1721 H 0.03653 0.29585 0.60874 0.0
H1722 H 0.06856 0.31556 0.56225 0.0
H1723 H 0.11019 0.32801 0.5747 0.0
H1724 H 0.15002 0.32958 0.57287 0.0
H1725 H 0.18357 0.40512 0.53141 0.0
N1726 N 0.10015 0.3656 0.55376 0.0
H1727 H 0.14358 0.40379 0.53538 0.0
C1728 C 0.26776 0.36031 0.50098 0.0
C1729 C 0.25978 0.33475 0.49738 0.0
C1730 C 0.26463 0.32555 0.46523 0.0
C1731 C 0.27822 0.34174 0.43632 0.0
C1732 C 0.28639 0.36733 0.44004 0.0
C1733 C 0.28099 0.37645 0.47196 0.0
C1734 C 0.27549 0.3659 0.56706 0.0
C1735 C 0.30112 0.38077 0.57266 0.0
C1736 C 0.31349 0.37464 0.59984 0.0
C1737 C 0.30039 0.35367 0.62251 0.0
C1738 C 0.27447 0.33957 0.61856 0.0
C1739 C 0.26212 0.34543 0.59074 0.0
C1740 C 0.24044 0.36901 0.5396 0.0
C1741 C 0.21791 0.3469 0.53322 0.0
C1742 C 0.19524 0.34642 0.53729 0.0
C1743 C 0.19443 0.36786 0.5484 0.0
C1744 C 0.217 0.38977 0.55559 0.0
C1745 C 0.23967 0.39029 0.55112 0.0
C1746 C 0.0885 0.36112 0.51761 0.0
C1747 C 0.07665 0.37464 0.507 0.0
C1748 C 0.06318 0.36931 0.47383 0.0
C1749 C 0.062 0.3509 0.44997 0.0
C1750 C 0.07379 0.33727 0.46044 0.0
C1751 C 0.08694 0.34229 0.494 0.0
C1752 C 0.08283 0.3531 0.58325 0.0
C1753 C 0.07965 0.3675 0.6102 0.0
C1754 C 0.06077 0.35632 0.63631 0.0
C1755 C 0.04492 0.33036 0.63627 0.0
C1756 C 0.0486 0.31586 0.60988 0.0
C1757 C 0.06707 0.32711 0.58333 0.0
C1758 C 0.12374 0.366 0.55538 0.0
C1759 C 0.126 0.3451 0.56575 0.0
C1760 C 0.14896 0.34592 0.56426 0.0
C1761 C 0.17018 0.36744 0.55181 0.0
C1762 C 0.16785 0.38833 0.54174 0.0
C1763 C 0.14495 0.3876 0.54372 0.0
loop_
_geom_bond_atom_site_label_1
_geom_bond_atom_site_label_2
_geom_bond_distance
_geom_bond_site_symmetry_2
_ccdc_geom_bond_type
Mn0 O5 2.095 1_655 S
Mn0 O15 2.162 . S
Mn0 O16 2.297 1_554 S
Mn0 O24 2.385 1_554 S
Mn0 O25 2.209 1_654 S
Mn0 O26 2.094 . S
Mn1 O6 2.121 . S
Mn1 N8 2.257 1_554 S
Mn1 N17 2.282 1_554 S
Mn1 O25 2.215 1_554 S
Mn1 O27 2.117 . S
C2 O24 1.234 1_455 S
C2 O25 1.283 . S
C3 O15 1.281 1_556 S
C3 O16 1.236 . S
C4 O26 1.232 1_455 S
C4 O27 1.286 . S
O5 Mn0 2.095 1_455 S
O5 C14 1.250 . S
O6 Mn1 2.121 . S
O6 C14 1.258 . S
C7 N8 1.326 . S
C7 C11 1.460 . S
C7 H13 0.929 . S
N8 Mn1 2.257 1_556 S
N8 C7 1.326 . S
N8 C12 1.362 . S
C9 C10 1.258 . S
C9 C12 1.431 . S
C9 C29 1.449 . S
C10 C9 1.258 . S
C10 C11 1.477 . S
C10 H30 0.931 . S
C11 C7 1.460 . S
C11 C10 1.477 . S
C11 H31 0.930 . S
C12 N8 1.362 . S
C12 C9 1.431 . S
C12 C22 1.476 . S
H13 C7 0.929 . S
C14 O5 1.250 . S
C14 O6 1.258 . S
O15 Mn0 2.162 . S
O15 C3 1.281 1_554 S
O16 Mn0 2.297 1_556 S
O16 C3 1.236 . S
N17 Mn1 2.282 1_556 S
N17 C18 1.328 1_556 S
N17 C22 1.318 . S
C18 N17 1.328 1_554 S
C18 C19 1.457 1_554 S
C18 H23 0.929 . S
C19 C18 1.457 1_556 S
C19 C20 1.291 . S
C19 H32 0.931 . S
C20 C19 1.291 . S
C20 C21 1.373 . S
C20 H33 0.929 . S
C21 C20 1.373 . S
C21 C22 1.396 . S
C21 C28 1.403 . S
C22 C12 1.476 . S
C22 N17 1.318 . S
C22 C21 1.396 . S
H23 C18 0.929 . S
O24 Mn0 2.385 1_556 S
O24 C2 1.234 1_655 S
O25 Mn0 2.209 1_456 S
O25 Mn1 2.215 1_556 S
O25 C2 1.283 . S
O26 Mn0 2.094 . S
O26 C4 1.232 1_655 S
O27 Mn1 2.117 . S
O27 C4 1.286 . S
C28 C21 1.403 . S
C28 C29 1.399 . S
C28 H34 0.929 . S
C29 C9 1.449 . S
C29 C28 1.399 . S
C29 H35 0.930 . S
H30 C10 0.931 . S
H31 C11 0.930 . S
H32 C19 0.931 . S
H33 C20 0.929 . S
H34 C28 0.929 . S
H35 C29 0.930 . S
Mn36 O41 2.095 1_554 S
Mn36 O51 2.162 . S
Mn36 O52 2.297 . S
Mn36 O60 2.385 . S
Mn36 O61 2.209 . S
Mn36 O62 2.094 1_554 S
Mn37 O42 2.121 1_554 S
Mn37 N44 2.257 . S
Mn37 N53 2.282 . S
Mn37 O61 2.215 . S
Mn37 O63 2.117 1_554 S
C38 O60 1.234 . S
C38 O61 1.283 . S
C39 O51 1.281 . S
C39 O52 1.236 . S
C40 O62 1.240 . S
C40 O63 1.264 . S
O41 Mn36 2.095 1_556 S
O41 C50 1.250 . S
O42 Mn37 2.121 1_556 S
O42 C50 1.258 . S
C43 N44 1.326 . S
C43 C47 1.460 . S
C43 H49 0.929 . S
N44 Mn37 2.257 . S
N44 C43 1.326 . S
N44 C48 1.362 . S
C45 C46 1.258 . S
C45 C48 1.431 . S
C45 C65 1.449 . S
C46 C45 1.258 . S
C46 C47 1.477 . S
C46 H66 0.931 . S
C47 C43 1.460 . S
C47 C46 1.477 . S
C47 H67 0.930 . S
C48 N44 1.362 . S
C48 C45 1.431 . S
C48 C58 1.476 . S
H49 C43 0.929 . S
C50 O41 1.250 . S
C50 O42 1.258 . S
O51 Mn36 2.162 . S
O51 C39 1.281 . S
O52 Mn36 2.297 . S
O52 C39 1.236 . S
N53 Mn37 2.282 . S
N53 C54 1.328 . S
N53 C58 1.318 . S
C54 N53 1.328 . S
C54 C55 1.457 . S
C54 H59 0.929 1_554 S
C55 C54 1.457 . S
C55 C56 1.291 . S
C55 H68 0.931 . S
C56 C55 1.291 . S
C56 C57 1.373 . S
C56 H69 0.929 . S
C57 C56 1.373 . S
C57 C58 1.396 . S
C57 C64 1.403 . S
C58 C48 1.476 . S
C58 N53 1.318 . S
C58 C57 1.396 . S
H59 C54 0.929 1_556 S
O60 Mn36 2.385 . S
O60 C38 1.234 . S
O61 Mn36 2.209 . S
O61 Mn37 2.215 . S
O61 C38 1.283 . S
O62 Mn36 2.094 1_556 S
O62 C40 1.240 . S
O63 Mn37 2.117 1_556 S
O63 C40 1.264 . S
C64 C57 1.403 . S
C64 C65 1.399 . S
C64 H70 0.929 . S
C65 C45 1.449 . S
C65 C64 1.399 . S
C65 H71 0.930 . S
H66 C46 0.931 . S
H67 C47 0.930 . S
H68 C55 0.931 . S
H69 C56 0.929 . S
H70 C64 0.929 . S
H71 C65 0.930 . S
Mn72 O77 2.095 1_564 S
Mn72 O87 2.162 . S
Mn72 O88 2.297 . S
Mn72 O96 2.385 . S
Mn72 O97 2.209 1_565 S
Mn72 O98 2.094 1_554 S
Mn73 O78 2.121 1_554 S
Mn73 N80 2.257 . S
Mn73 N89 2.282 . S
Mn73 O97 2.215 . S
Mn73 O99 2.117 1_554 S
C74 O96 1.216 1_545 S
C74 O97 1.302 . S
C75 O87 1.281 . S
C75 O88 1.236 . S
C76 O98 1.247 . S
C76 O99 1.250 1_565 S
O77 Mn72 2.095 1_546 S
O77 C86 1.250 . S
O78 Mn73 2.121 1_556 S
O78 C86 1.258 . S
C79 N80 1.326 . S
C79 C83 1.460 . S
C79 H85 0.929 . S
N80 Mn73 2.257 . S
N80 C79 1.326 . S
N80 C84 1.362 . S
C81 C82 1.258 . S
C81 C84 1.431 . S
C81 C101 1.449 . S
C82 C81 1.258 . S
C82 C83 1.477 . S
C82 H102 0.931 . S
C83 C79 1.460 . S
C83 C82 1.477 . S
C83 H103 0.930 . S
C84 N80 1.362 . S
C84 C81 1.431 . S
C84 C94 1.476 . S
H85 C79 0.929 . S
C86 O77 1.250 . S
C86 O78 1.258 . S
O87 Mn72 2.162 . S
O87 C75 1.281 . S
O88 Mn72 2.297 . S
O88 C75 1.236 . S
N89 Mn73 2.282 . S
N89 C90 1.328 . S
N89 C94 1.318 . S
C90 N89 1.328 . S
C90 C91 1.457 . S
C90 H95 0.929 . S
C91 C90 1.457 . S
C91 C92 1.291 . S
C91 H104 0.931 . S
C92 C91 1.291 . S
C92 C93 1.373 . S
C92 H105 0.929 . S
C93 C92 1.373 . S
C93 C94 1.396 . S
C93 C100 1.403 . S
C94 C84 1.476 . S
C94 N89 1.318 . S
C94 C93 1.396 . S
H95 C90 0.929 . S
O96 Mn72 2.385 . S
O96 C74 1.216 1_565 S
O97 Mn72 2.209 1_545 S
O97 Mn73 2.215 . S
O97 C74 1.302 . S
O98 Mn72 2.094 1_556 S
O98 C76 1.247 . S
O99 Mn73 2.117 1_556 S
O99 C76 1.250 1_545 S
C100 C93 1.403 . S
C100 C101 1.399 . S
C100 H106 0.929 . S
C101 C81 1.449 . S
C101 C100 1.399 . S
C101 H107 0.930 . S
H102 C82 0.931 . S
H103 C83 0.930 . S
H104 C91 0.931 . S
H105 C92 0.929 . S
H106 C100 0.929 . S
H107 C101 0.930 . S
Mn108 O113 2.095 1_655 S
Mn108 O123 2.162 . S
Mn108 O124 2.297 1_554 S
Mn108 O132 2.385 1_554 S
Mn108 O133 2.209 1_654 S
Mn108 O134 2.094 . S
Mn109 O114 2.121 . S
Mn109 N116 2.257 1_554 S
Mn109 N125 2.282 1_554 S
Mn109 O133 2.215 1_554 S
Mn109 O135 2.117 . S
C110 O132 1.234 1_455 S
C110 O133 1.283 . S
C111 O123 1.281 1_556 S
C111 O124 1.236 . S
C112 O134 1.221 1_455 S
C112 O135 1.282 . S
O113 Mn108 2.095 1_455 S
O113 C122 1.250 . S
O114 Mn109 2.121 . S
O114 C122 1.258 . S
C115 N116 1.326 . S
C115 C119 1.460 . S
C115 H121 0.929 . S
N116 Mn109 2.257 1_556 S
N116 C115 1.326 . S
N116 C120 1.362 . S
C117 C118 1.258 . S
C117 C120 1.431 . S
C117 C137 1.449 . S
C118 C117 1.258 . S
C118 C119 1.477 . S
C118 H138 0.931 . S
C119 C115 1.460 . S
C119 C118 1.477 . S
C119 H139 0.930 . S
C120 N116 1.362 . S
C120 C117 1.431 . S
C120 C130 1.476 . S
H121 C115 0.929 . S
C122 O113 1.250 . S
C122 O114 1.258 . S
O123 Mn108 2.162 . S
O123 C111 1.281 1_554 S
O124 Mn108 2.297 1_556 S
O124 C111 1.236 . S
N125 Mn109 2.282 1_556 S
N125 C126 1.328 1_556 S
N125 C130 1.318 . S
C126 N125 1.328 1_554 S
C126 C127 1.457 1_554 S
C126 H131 0.929 . S
C127 C126 1.457 1_556 S
C127 C128 1.291 . S
C127 H140 0.931 . S
C128 C127 1.291 . S
C128 C129 1.373 . S
C128 H141 0.929 . S
C129 C128 1.373 . S
C129 C130 1.396 . S
C129 C136 1.403 . S
C130 C120 1.476 . S
C130 N125 1.318 . S
C130 C129 1.396 . S
H131 C126 0.929 . S
O132 Mn108 2.385 1_556 S
O132 C110 1.234 1_655 S
O133 Mn108 2.209 1_456 S
O133 Mn109 2.215 1_556 S
O133 C110 1.283 . S
O134 Mn108 2.094 . S
O134 C112 1.221 1_655 S
O135 Mn109 2.117 . S
O135 C112 1.282 . S
C136 C129 1.403 . S
C136 C137 1.399 . S
C136 H142 0.929 . S
C137 C117 1.449 . S
C137 C136 1.399 . S
C137 H143 0.930 . S
H138 C118 0.931 . S
H139 C119 0.930 . S
H140 C127 0.931 . S
H141 C128 0.929 . S
H142 C136 0.929 . S
H143 C137 0.930 . S
Mn144 O149 2.095 1_554 S
Mn144 O159 2.162 . S
Mn144 O160 2.297 . S
Mn144 O168 2.385 . S
Mn144 O169 2.209 . S
Mn144 O170 2.094 1_554 S
Mn145 O150 2.121 1_554 S
Mn145 N152 2.257 . S
Mn145 N161 2.282 . S
Mn145 O169 2.215 . S
Mn145 O171 2.117 1_554 S
C146 O168 1.234 . S
C146 O169 1.283 . S
C147 O159 1.281 . S
C147 O160 1.236 . S
C148 O170 1.240 . S
C148 O171 1.264 . S
O149 Mn144 2.095 1_556 S
O149 C158 1.250 . S
O150 Mn145 2.121 1_556 S
O150 C158 1.258 . S
C151 N152 1.326 . S
C151 C155 1.460 . S
C151 H157 0.929 . S
N152 Mn145 2.257 . S
N152 C151 1.326 . S
N152 C156 1.362 . S
C153 C154 1.258 . S
C153 C156 1.431 . S
C153 C173 1.449 . S
C154 C153 1.258 . S
C154 C155 1.477 . S
C154 H174 0.931 . S
C155 C151 1.460 . S
C155 C154 1.477 . S
C155 H175 0.930 . S
C156 N152 1.362 . S
C156 C153 1.431 . S
C156 C166 1.476 . S
H157 C151 0.929 . S
C158 O149 1.250 . S
C158 O150 1.258 . S
O159 Mn144 2.162 . S
O159 C147 1.281 . S
O160 Mn144 2.297 . S
O160 C147 1.236 . S
N161 Mn145 2.282 . S
N161 C162 1.328 . S
N161 C166 1.318 . S
C162 N161 1.328 . S
C162 C163 1.457 . S
C162 H167 0.917 1_554 S
C163 C162 1.457 . S
C163 C164 1.291 . S
C163 H176 0.931 . S
C164 C163 1.291 . S
C164 C165 1.373 . S
C164 H177 0.929 . S
C165 C164 1.373 . S
C165 C166 1.396 . S
C165 C172 1.403 . S
C166 C156 1.476 . S
C166 N161 1.318 . S
C166 C165 1.396 . S
H167 C162 0.917 1_556 S
O168 Mn144 2.385 . S
O168 C146 1.234 . S
O169 Mn144 2.209 . S
O169 Mn145 2.215 . S
O169 C146 1.283 . S
O170 Mn144 2.094 1_556 S
O170 C148 1.240 . S
O171 Mn145 2.117 1_556 S
O171 C148 1.264 . S
C172 C165 1.403 . S
C172 C173 1.399 . S
C172 H178 0.929 . S
C173 C153 1.449 . S
C173 C172 1.399 . S
C173 H179 0.930 . S
H174 C154 0.931 . S
H175 C155 0.930 . S
H176 C163 0.931 . S
H177 C164 0.929 . S
H178 C172 0.929 . S
H179 C173 0.930 . S
Mn180 O185 2.095 1_545 S
Mn180 O195 2.162 . S
Mn180 O196 2.297 1_554 S
Mn180 O204 2.385 1_554 S
Mn180 O205 2.209 1_544 S
Mn180 O206 2.094 . S
Mn181 O186 2.121 . S
Mn181 N188 2.257 1_554 S
Mn181 N197 2.282 1_554 S
Mn181 O205 2.215 1_554 S
Mn181 O207 2.117 . S
C182 O204 1.268 . S
C182 O205 1.248 1_545 S
C183 O195 1.281 1_556 S
C183 O196 1.236 . S
C184 O206 1.240 . S
C184 O207 1.264 1_545 S
O185 Mn180 2.095 1_565 S
O185 C194 1.250 . S
O186 Mn181 2.121 . S
O186 C194 1.258 . S
C187 N188 1.326 . S
C187 C191 1.460 . S
C187 H193 0.929 . S
N188 Mn181 2.257 1_556 S
N188 C187 1.326 . S
N188 C192 1.362 . S
C189 C190 1.258 . S
C189 C192 1.431 . S
C189 C209 1.449 . S
C190 C189 1.258 . S
C190 C191 1.477 . S
C190 H210 0.931 . S
C191 C187 1.460 . S
C191 C190 1.477 . S
C191 H211 0.930 . S
C192 N188 1.362 . S
C192 C189 1.431 . S
C192 C202 1.476 . S
H193 C187 0.929 . S
C194 O185 1.250 . S
C194 O186 1.258 . S
O195 Mn180 2.162 . S
O195 C183 1.281 1_554 S
O196 Mn180 2.297 1_556 S
O196 C183 1.236 . S
N197 Mn181 2.282 1_556 S
N197 C198 1.328 1_556 S
N197 C202 1.318 . S
C198 N197 1.328 1_554 S
C198 C199 1.457 1_554 S
C198 H203 0.929 . S
C199 C198 1.457 1_556 S
C199 C200 1.291 . S
C199 H212 0.931 . S
C200 C199 1.291 . S
C200 C201 1.373 . S
C200 H213 0.929 . S
C201 C200 1.373 . S
C201 C202 1.396 . S
C201 C208 1.403 . S
C202 C192 1.476 . S
C202 N197 1.318 . S
C202 C201 1.396 . S
H203 C198 0.929 . S
O204 Mn180 2.385 1_556 S
O204 C182 1.268 . S
O205 Mn180 2.209 1_566 S
O205 Mn181 2.215 1_556 S
O205 C182 1.248 1_565 S
O206 Mn180 2.094 . S
O206 C184 1.240 . S
O207 Mn181 2.117 . S
O207 C184 1.264 1_565 S
C208 C201 1.403 . S
C208 C209 1.399 . S
C208 H214 0.929 . S
C209 C189 1.449 . S
C209 C208 1.399 . S
C209 H215 0.930 . S
H210 C190 0.931 . S
H211 C191 0.930 . S
H212 C199 0.931 . S
H213 C200 0.929 . S
H214 C208 0.929 . S
H215 C209 0.930 . S
Mn216 O221 2.095 . S
Mn216 O231 2.162 . S
Mn216 O232 2.297 . S
Mn216 O240 2.385 . S
Mn216 O241 2.209 . S
Mn216 O242 2.094 . S
Mn217 O222 2.121 . S
Mn217 N224 2.257 . S
Mn217 N233 2.282 . S
Mn217 O241 2.215 . S
Mn217 O243 2.117 . S
C218 O240 1.234 . S
C218 O241 1.283 . S
C219 O231 1.281 . S
C219 O232 1.236 . S
C220 O242 1.240 . S
C220 O243 1.264 . S
O221 Mn216 2.095 . S
O221 C230 1.250 . S
O222 Mn217 2.121 . S
O222 C230 1.258 . S
C223 N224 1.326 . S
C223 C227 1.460 . S
C223 H229 0.929 . S
N224 Mn217 2.257 . S
N224 C223 1.326 . S
N224 C228 1.362 . S
C225 C226 1.258 . S
C225 C228 1.431 . S
C225 C245 1.449 . S
C226 C225 1.258 . S
C226 C227 1.477 . S
C226 H246 0.931 . S
C227 C223 1.460 . S
C227 C226 1.477 . S
C227 H247 0.930 . S
C228 N224 1.362 . S
C228 C225 1.431 . S
C228 C238 1.476 . S
H229 C223 0.929 . S
C230 O221 1.250 . S
C230 O222 1.258 . S
O231 Mn216 2.162 . S
O231 C219 1.281 . S
O232 Mn216 2.297 . S
O232 C219 1.236 . S
N233 Mn217 2.282 . S
N233 C234 1.328 . S
N233 C238 1.318 . S
C234 N233 1.328 . S
C234 C235 1.457 . S
C234 H239 0.929 . S
C235 C234 1.457 . S
C235 C236 1.291 . S
C235 H248 0.931 . S
C236 C235 1.291 . S
C236 C237 1.373 . S
C236 H249 0.929 . S
C237 C236 1.373 . S
C237 C238 1.396 . S
C237 C244 1.403 . S
C238 C228 1.476 . S
C238 N233 1.318 . S
C238 C237 1.396 . S
H239 C234 0.929 . S
O240 Mn216 2.385 . S
O240 C218 1.234 . S
O241 Mn216 2.209 . S
O241 Mn217 2.215 . S
O241 C218 1.283 . S
O242 Mn216 2.094 . S
O242 C220 1.240 . S
O243 Mn217 2.117 . S
O243 C220 1.264 . S
C244 C237 1.403 . S
C244 C245 1.399 . S
C244 H250 0.929 . S
C245 C225 1.449 . S
C245 C244 1.399 . S
C245 H251 0.930 . S
H246 C226 0.931 . S
H247 C227 0.930 . S
H248 C235 0.931 . S
H249 C236 0.929 . S
H250 C244 0.929 . S
H251 C245 0.930 . S
Mn252 O257 2.095 . S
Mn252 O267 2.162 1_565 S
Mn252 O268 2.297 1_565 S
Mn252 O276 2.385 . S
Mn252 O277 2.209 . S
Mn252 O278 2.094 . S
Mn253 O258 2.121 . S
Mn253 N260 2.257 . S
Mn253 N269 2.282 . S
Mn253 O277 2.215 . S
Mn253 O279 2.117 . S
C254 O276 1.234 . S
C254 O277 1.283 . S
C255 O267 1.281 . S
C255 O268 1.236 . S
C256 O278 1.240 . S
C256 O279 1.264 . S
O257 Mn252 2.095 . S
O257 C266 1.250 . S
O258 Mn253 2.121 . S
O258 C266 1.258 . S
C259 N260 1.326 . S
C259 C263 1.460 . S
C259 H265 0.929 . S
N260 Mn253 2.257 . S
N260 C259 1.326 . S
N260 C264 1.362 . S
C261 C262 1.258 . S
C261 C264 1.431 . S
C261 C281 1.449 . S
C262 C261 1.258 . S
C262 C263 1.477 . S
C262 H282 0.931 . S
C263 C259 1.460 . S
C263 C262 1.477 . S
C263 H283 0.930 . S
C264 N260 1.362 . S
C264 C261 1.431 . S
C264 C274 1.476 . S
H265 C259 0.929 . S
C266 O257 1.250 . S
C266 O258 1.258 . S
O267 Mn252 2.162 1_545 S
O267 C255 1.281 . S
O268 Mn252 2.297 1_545 S
O268 C255 1.236 . S
N269 Mn253 2.282 . S
N269 C270 1.328 . S
N269 C274 1.318 . S
C270 N269 1.328 . S
C270 C271 1.457 . S
C270 H275 0.929 . S
C271 C270 1.457 . S
C271 C272 1.291 . S
C271 H284 0.931 . S
C272 C271 1.291 . S
C272 C273 1.373 . S
C272 H285 0.929 . S
C273 C272 1.373 . S
C273 C274 1.396 . S
C273 C280 1.403 . S
C274 C264 1.476 . S
C274 N269 1.318 . S
C274 C273 1.396 . S
H275 C270 0.929 . S
O276 Mn252 2.385 . S
O276 C254 1.234 . S
O277 Mn252 2.209 . S
O277 Mn253 2.215 . S
O277 C254 1.283 . S
O278 Mn252 2.094 . S
O278 C256 1.240 . S
O279 Mn253 2.117 . S
O279 C256 1.264 . S
C280 C273 1.403 . S
C280 C281 1.399 . S
C280 H286 0.929 . S
C281 C261 1.449 . S
C281 C280 1.399 . S
C281 H287 0.930 . S
H282 C262 0.931 . S
H283 C263 0.930 . S
H284 C271 0.931 . S
H285 C272 0.929 . S
H286 C280 0.929 . S
H287 C281 0.930 . S
Mn288 O293 2.095 . S
Mn288 O303 2.162 1_455 S
Mn288 O304 2.297 1_455 S
Mn288 O312 2.385 . S
Mn288 O313 2.209 . S
Mn288 O314 2.094 . S
Mn289 O294 2.121 . S
Mn289 N296 2.257 . S
Mn289 N305 2.282 . S
Mn289 O313 2.215 . S
Mn289 O315 2.117 . S
C290 O312 1.234 . S
C290 O313 1.283 . S
C291 O303 1.281 . S
C291 O304 1.236 . S
C292 O314 1.240 . S
C292 O315 1.264 . S
O293 Mn288 2.095 . S
O293 C302 1.250 . S
O294 Mn289 2.121 . S
O294 C302 1.258 . S
C295 N296 1.326 . S
C295 C299 1.460 . S
C295 H301 0.929 . S
N296 Mn289 2.257 . S
N296 C295 1.326 . S
N296 C300 1.362 . S
C297 C298 1.258 . S
C297 C300 1.431 . S
C297 C317 1.449 . S
C298 C297 1.258 . S
C298 C299 1.477 . S
C298 H318 0.931 . S
C299 C295 1.460 . S
C299 C298 1.477 . S
C299 H319 0.930 . S
C300 N296 1.362 . S
C300 C297 1.431 . S
C300 C310 1.476 . S
H301 C295 0.929 . S
C302 O293 1.250 . S
C302 O294 1.258 . S
O303 Mn288 2.162 1_655 S
O303 C291 1.281 . S
O304 Mn288 2.297 1_655 S
O304 C291 1.236 . S
N305 Mn289 2.282 . S
N305 C306 1.328 . S
N305 C310 1.318 . S
C306 N305 1.328 . S
C306 C307 1.457 . S
C306 H311 0.929 . S
C307 C306 1.457 . S
C307 C308 1.291 . S
C307 H320 0.931 . S
C308 C307 1.291 . S
C308 C309 1.373 . S
C308 H321 0.929 . S
C309 C308 1.373 . S
C309 C310 1.396 . S
C309 C316 1.403 . S
C310 C300 1.476 . S
C310 N305 1.318 . S
C310 C309 1.396 . S
H311 C306 0.929 . S
O312 Mn288 2.385 . S
O312 C290 1.234 . S
O313 Mn288 2.209 . S
O313 Mn289 2.215 . S
O313 C290 1.283 . S
O314 Mn288 2.094 . S
O314 C292 1.240 . S
O315 Mn289 2.117 . S
O315 C292 1.264 . S
C316 C309 1.403 . S
C316 C317 1.399 . S
C316 H322 0.929 . S
C317 C297 1.449 . S
C317 C316 1.399 . S
C317 H323 0.930 . S
H318 C298 0.931 . S
H319 C299 0.930 . S
H320 C307 0.931 . S
H321 C308 0.929 . S
H322 C316 0.929 . S
H323 C317 0.930 . S
Mn324 O329 2.095 . S
Mn324 O339 2.162 . S
Mn324 O340 2.297 . S
Mn324 O348 2.385 . S
Mn324 O349 2.209 . S
Mn324 O350 2.094 . S
Mn325 O330 2.121 1_565 S
Mn325 N332 2.257 . S
Mn325 N341 2.282 . S
Mn325 O349 2.215 . S
Mn325 O351 2.117 . S
C326 O348 1.234 . S
C326 O349 1.283 . S
C327 O339 1.281 . S
C327 O340 1.236 . S
C328 O350 1.240 . S
C328 O351 1.264 . S
O329 Mn324 2.095 . S
O329 C338 1.250 1_565 S
O330 Mn325 2.121 1_545 S
O330 C338 1.258 . S
C331 N332 1.326 1_545 S
C331 C335 1.460 . S
C331 H337 0.929 . S
N332 Mn325 2.257 . S
N332 C331 1.326 1_565 S
N332 C336 1.362 . S
C333 C334 1.258 . S
C333 C336 1.431 . S
C333 C353 1.449 . S
C334 C333 1.258 . S
C334 C335 1.477 1_565 S
C334 H354 0.931 . S
C335 C331 1.460 . S
C335 C334 1.477 1_545 S
C335 H355 0.930 . S
C336 N332 1.362 . S
C336 C333 1.431 . S
C336 C346 1.476 . S
H337 C331 0.929 . S
C338 O329 1.250 1_545 S
C338 O330 1.258 . S
O339 Mn324 2.162 . S
O339 C327 1.281 . S
O340 Mn324 2.297 . S
O340 C327 1.236 . S
N341 Mn325 2.282 . S
N341 C342 1.328 . S
N341 C346 1.318 . S
C342 N341 1.328 . S
C342 C343 1.457 . S
C342 H347 0.929 . S
C343 C342 1.457 . S
C343 C344 1.291 . S
C343 H356 0.931 . S
C344 C343 1.291 . S
C344 C345 1.373 . S
C344 H357 0.929 . S
C345 C344 1.373 . S
C345 C346 1.396 . S
C345 C352 1.403 . S
C346 C336 1.476 . S
C346 N341 1.318 . S
C346 C345 1.396 . S
H347 C342 0.929 . S
O348 Mn324 2.385 . S
O348 C326 1.234 . S
O349 Mn324 2.209 . S
O349 Mn325 2.215 . S
O349 C326 1.283 . S
O350 Mn324 2.094 . S
O350 C328 1.240 . S
O351 Mn325 2.117 . S
O351 C328 1.264 . S
C352 C345 1.403 . S
C352 C353 1.399 . S
C352 H358 0.929 . S
C353 C333 1.449 . S
C353 C352 1.399 . S
C353 H359 0.930 . S
H354 C334 0.931 . S
H355 C335 0.930 . S
H356 C343 0.931 . S
H357 C344 0.929 . S
H358 C352 0.929 . S
H359 C353 0.930 . S
Mn360 O365 2.095 . S
Mn360 O375 2.162 1_455 S
Mn360 O376 2.297 1_455 S
Mn360 O384 2.385 . S
Mn360 O385 2.209 . S
Mn360 O386 2.094 . S
Mn361 O366 2.121 . S
Mn361 N368 2.257 . S
Mn361 N377 2.282 . S
Mn361 O385 2.215 . S
Mn361 O387 2.117 . S
C362 O384 1.234 . S
C362 O385 1.283 . S
C363 O375 1.281 . S
C363 O376 1.236 . S
C364 O386 1.240 . S
C364 O387 1.264 . S
O365 Mn360 2.095 . S
O365 C374 1.250 . S
O366 Mn361 2.121 . S
O366 C374 1.258 . S
C367 N368 1.326 . S
C367 C371 1.460 . S
C367 H373 0.929 . S
N368 Mn361 2.257 . S
N368 C367 1.326 . S
N368 C372 1.362 . S
C369 C370 1.258 . S
C369 C372 1.431 . S
C369 C389 1.449 . S
C370 C369 1.258 . S
C370 C371 1.477 . S
C370 H390 0.931 . S
C371 C367 1.460 . S
C371 C370 1.477 . S
C371 H391 0.930 . S
C372 N368 1.362 . S
C372 C369 1.431 . S
C372 C382 1.476 . S
H373 C367 0.929 . S
C374 O365 1.250 . S
C374 O366 1.258 . S
O375 Mn360 2.162 1_655 S
O375 C363 1.281 . S
O376 Mn360 2.297 1_655 S
O376 C363 1.236 . S
N377 Mn361 2.282 . S
N377 C378 1.328 . S
N377 C382 1.318 . S
C378 N377 1.328 . S
C378 C379 1.457 . S
C378 H383 0.929 . S
C379 C378 1.457 . S
C379 C380 1.291 . S
C379 H392 0.931 . S
C380 C379 1.291 . S
C380 C381 1.373 . S
C380 H393 0.929 . S
C381 C380 1.373 . S
C381 C382 1.396 . S
C381 C388 1.403 . S
C382 C372 1.476 . S
C382 N377 1.318 . S
C382 C381 1.396 . S
H383 C378 0.929 . S
O384 Mn360 2.385 . S
O384 C362 1.234 . S
O385 Mn360 2.209 . S
O385 Mn361 2.215 . S
O385 C362 1.283 . S
O386 Mn360 2.094 . S
O386 C364 1.240 . S
O387 Mn361 2.117 . S
O387 C364 1.264 . S
C388 C381 1.403 . S
C388 C389 1.399 . S
C388 H394 0.929 . S
C389 C369 1.449 . S
C389 C388 1.399 . S
C389 H395 0.930 . S
H390 C370 0.931 . S
H391 C371 0.930 . S
H392 C379 0.931 . S
H393 C380 0.929 . S
H394 C388 0.929 . S
H395 C389 0.930 . S
Mn396 O401 2.095 . S
Mn396 O411 2.162 . S
Mn396 O412 2.297 . S
Mn396 O420 2.385 . S
Mn396 O421 2.209 . S
Mn396 O422 2.094 . S
Mn397 O402 2.121 . S
Mn397 N404 2.257 . S
Mn397 N413 2.282 . S
Mn397 O421 2.215 . S
Mn397 O423 2.117 . S
C398 O420 1.234 . S
C398 O421 1.283 . S
C399 O411 1.281 . S
C399 O412 1.236 . S
C400 O422 1.240 . S
C400 O423 1.264 . S
O401 Mn396 2.095 . S
O401 C410 1.250 . S
O402 Mn397 2.121 . S
O402 C410 1.258 . S
C403 N404 1.326 . S
C403 C407 1.460 . S
C403 H409 0.929 . S
N404 Mn397 2.257 . S
N404 C403 1.326 . S
N404 C408 1.362 . S
C405 C406 1.258 . S
C405 C408 1.431 . S
C405 C425 1.449 . S
C406 C405 1.258 . S
C406 C407 1.477 . S
C406 H426 0.931 . S
C407 C403 1.460 . S
C407 C406 1.477 . S
C407 H427 0.930 . S
C408 N404 1.362 . S
C408 C405 1.431 . S
C408 C418 1.476 . S
H409 C403 0.929 . S
C410 O401 1.250 . S
C410 O402 1.258 . S
O411 Mn396 2.162 . S
O411 C399 1.281 . S
O412 Mn396 2.297 . S
O412 C399 1.236 . S
N413 Mn397 2.282 . S
N413 C414 1.328 . S
N413 C418 1.318 . S
C414 N413 1.328 . S
C414 C415 1.457 . S
C414 H419 0.929 . S
C415 C414 1.457 . S
C415 C416 1.291 . S
C415 H428 0.931 . S
C416 C415 1.291 . S
C416 C417 1.373 . S
C416 H429 0.929 . S
C417 C416 1.373 . S
C417 C418 1.396 . S
C417 C424 1.403 . S
C418 C408 1.476 . S
C418 N413 1.318 . S
C418 C417 1.396 . S
H419 C414 0.929 . S
O420 Mn396 2.385 . S
O420 C398 1.234 . S
O421 Mn396 2.209 . S
O421 Mn397 2.215 . S
O421 C398 1.283 . S
O422 Mn396 2.094 . S
O422 C400 1.240 . S
O423 Mn397 2.117 . S
O423 C400 1.264 . S
C424 C417 1.403 . S
C424 C425 1.399 . S
C424 H430 0.929 . S
C425 C405 1.449 . S
C425 C424 1.399 . S
C425 H431 0.930 . S
H426 C406 0.931 . S
H427 C407 0.930 . S
H428 C415 0.931 . S
H429 C416 0.929 . S
H430 C424 0.929 . S
H431 C425 0.930 . S
Mn432 O437 2.095 . S
Mn432 O447 2.162 1_545 S
Mn432 O448 2.297 1_545 S
Mn432 O456 2.385 . S
Mn432 O457 2.209 . S
Mn432 O458 2.094 . S
Mn433 O438 2.121 . S
Mn433 N440 2.257 . S
Mn433 N449 2.282 . S
Mn433 O457 2.215 . S
Mn433 O459 2.117 . S
C434 O456 1.234 . S
C434 O457 1.283 . S
C435 O447 1.281 . S
C435 O448 1.236 . S
C436 O458 1.240 . S
C436 O459 1.264 . S
O437 Mn432 2.095 . S
O437 C446 1.250 . S
O438 Mn433 2.121 . S
O438 C446 1.258 . S
C439 N440 1.326 . S
C439 C443 1.460 . S
C439 H445 0.929 . S
N440 Mn433 2.257 . S
N440 C439 1.326 . S
N440 C444 1.362 . S
C441 C442 1.258 . S
C441 C444 1.431 . S
C441 C461 1.449 . S
C442 C441 1.258 . S
C442 C443 1.477 . S
C442 H462 0.931 . S
C443 C439 1.460 . S
C443 C442 1.477 . S
C443 H463 0.930 . S
C444 N440 1.362 . S
C444 C441 1.431 . S
C444 C454 1.476 . S
H445 C439 0.929 . S
C446 O437 1.250 . S
C446 O438 1.258 . S
O447 Mn432 2.162 1_565 S
O447 C435 1.281 . S
O448 Mn432 2.297 1_565 S
O448 C435 1.236 . S
N449 Mn433 2.282 . S
N449 C450 1.328 . S
N449 C454 1.318 . S
C450 N449 1.328 . S
C450 C451 1.457 . S
C450 H455 0.929 . S
C451 C450 1.457 . S
C451 C452 1.291 . S
C451 H464 0.931 . S
C452 C451 1.291 . S
C452 C453 1.373 . S
C452 H465 0.929 . S
C453 C452 1.373 . S
C453 C454 1.396 . S
C453 C460 1.403 . S
C454 C444 1.476 . S
C454 N449 1.318 . S
C454 C453 1.396 . S
H455 C450 0.929 . S
O456 Mn432 2.385 . S
O456 C434 1.234 . S
O457 Mn432 2.209 . S
O457 Mn433 2.215 . S
O457 C434 1.283 . S
O458 Mn432 2.094 . S
O458 C436 1.240 . S
O459 Mn433 2.117 . S
O459 C436 1.264 . S
C460 C453 1.403 . S
C460 C461 1.399 . S
C460 H466 0.929 . S
C461 C441 1.449 . S
C461 C460 1.399 . S
C461 H467 0.930 . S
H462 C442 0.931 . S
H463 C443 0.930 . S
H464 C451 0.931 . S
H465 C452 0.929 . S
H466 C460 0.929 . S
H467 C461 0.930 . S
Mn468 O473 2.095 . S
Mn468 O483 2.162 . S
Mn468 O484 2.297 . S
Mn468 O492 2.385 . S
Mn468 O493 2.209 . S
Mn468 O494 2.094 . S
Mn469 O474 2.121 1_655 S
Mn469 N476 2.257 . S
Mn469 N485 2.282 . S
Mn469 O493 2.215 . S
Mn469 O495 2.117 . S
C470 O492 1.234 . S
C470 O493 1.283 . S
C471 O483 1.281 . S
C471 O484 1.236 . S
C472 O494 1.240 . S
C472 O495 1.264 . S
O473 Mn468 2.095 . S
O473 C482 1.250 1_655 S
O474 Mn469 2.121 1_455 S
O474 C482 1.258 . S
C475 N476 1.326 1_455 S
C475 C479 1.460 . S
C475 H481 0.929 . S
N476 Mn469 2.257 . S
N476 C475 1.326 1_655 S
N476 C480 1.362 . S
C477 C478 1.258 . S
C477 C480 1.431 . S
C477 C497 1.449 . S
C478 C477 1.258 . S
C478 C479 1.477 1_655 S
C478 H498 0.931 . S
C479 C475 1.460 . S
C479 C478 1.477 1_455 S
C479 H499 0.930 . S
C480 N476 1.362 . S
C480 C477 1.431 . S
C480 C490 1.476 . S
H481 C475 0.929 . S
C482 O473 1.250 1_455 S
C482 O474 1.258 . S
O483 Mn468 2.162 . S
O483 C471 1.281 . S
O484 Mn468 2.297 . S
O484 C471 1.236 . S
N485 Mn469 2.282 . S
N485 C486 1.328 . S
N485 C490 1.318 . S
C486 N485 1.328 . S
C486 C487 1.457 . S
C486 H491 0.929 . S
C487 C486 1.457 . S
C487 C488 1.291 . S
C487 H500 0.931 . S
C488 C487 1.291 . S
C488 C489 1.373 . S
C488 H501 0.929 . S
C489 C488 1.373 . S
C489 C490 1.396 . S
C489 C496 1.403 . S
C490 C480 1.476 . S
C490 N485 1.318 . S
C490 C489 1.396 . S
H491 C486 0.929 . S
O492 Mn468 2.385 . S
O492 C470 1.234 . S
O493 Mn468 2.209 . S
O493 Mn469 2.215 . S
O493 C470 1.283 . S
O494 Mn468 2.094 . S
O494 C472 1.240 . S
O495 Mn469 2.117 . S
O495 C472 1.264 . S
C496 C489 1.403 . S
C496 C497 1.399 . S
C496 H502 0.929 . S
C497 C477 1.449 . S
C497 C496 1.399 . S
C497 H503 0.930 . S
H498 C478 0.931 . S
H499 C479 0.930 . S
H500 C487 0.931 . S
H501 C488 0.929 . S
H502 C496 0.929 . S
H503 C497 0.930 . S
Mn504 O509 2.095 . S
Mn504 O519 2.162 . S
Mn504 O520 2.297 . S
Mn504 O528 2.385 . S
Mn504 O529 2.209 . S
Mn504 O530 2.094 . S
Mn505 O510 2.121 . S
Mn505 N512 2.257 . S
Mn505 N521 2.282 . S
Mn505 O529 2.215 . S
Mn505 O531 2.117 . S
C506 O528 1.234 . S
C506 O529 1.283 . S
C507 O519 1.281 . S
C507 O520 1.236 . S
C508 O530 1.240 . S
C508 O531 1.264 . S
O509 Mn504 2.095 . S
O509 C518 1.250 . S
O510 Mn505 2.121 . S
O510 C518 1.258 . S
C511 N512 1.326 . S
C511 C515 1.460 . S
C511 H517 0.929 . S
N512 Mn505 2.257 . S
N512 C511 1.326 . S
N512 C516 1.362 . S
C513 C514 1.258 . S
C513 C516 1.431 . S
C513 C533 1.449 . S
C514 C513 1.258 . S
C514 C515 1.477 . S
C514 H534 0.931 . S
C515 C511 1.460 . S
C515 C514 1.477 . S
C515 H535 0.930 . S
C516 N512 1.362 . S
C516 C513 1.431 . S
C516 C526 1.476 . S
H517 C511 0.929 . S
C518 O509 1.250 . S
C518 O510 1.258 . S
O519 Mn504 2.162 . S
O519 C507 1.281 . S
O520 Mn504 2.297 . S
O520 C507 1.236 . S
N521 Mn505 2.282 . S
N521 C522 1.328 . S
N521 C526 1.318 . S
C522 N521 1.328 . S
C522 C523 1.457 . S
C522 H527 0.929 . S
C523 C522 1.457 . S
C523 C524 1.291 . S
C523 H536 0.931 . S
C524 C523 1.291 . S
C524 C525 1.373 . S
C524 H537 0.929 . S
C525 C524 1.373 . S
C525 C526 1.396 . S
C525 C532 1.403 . S
C526 C516 1.476 . S
C526 N521 1.318 . S
C526 C525 1.396 . S
H527 C522 0.929 . S
O528 Mn504 2.385 . S
O528 C506 1.234 . S
O529 Mn504 2.209 . S
O529 Mn505 2.215 . S
O529 C506 1.283 . S
O530 Mn504 2.094 . S
O530 C508 1.240 . S
O531 Mn505 2.117 . S
O531 C508 1.264 . S
C532 C525 1.403 . S
C532 C533 1.399 . S
C532 H538 0.929 . S
C533 C513 1.449 . S
C533 C532 1.399 . S
C533 H539 0.930 . S
H534 C514 0.931 . S
H535 C515 0.930 . S
H536 C523 0.931 . S
H537 C524 0.929 . S
H538 C532 0.929 . S
H539 C533 0.930 . S
Mn540 O545 2.095 . S
Mn540 O555 2.162 . S
Mn540 O556 2.297 . S
Mn540 O564 2.385 . S
Mn540 O565 2.209 . S
Mn540 O566 2.094 . S
Mn541 O546 2.121 . S
Mn541 N548 2.257 . S
Mn541 N557 2.282 . S
Mn541 O565 2.215 . S
Mn541 O567 2.117 . S
C542 O564 1.234 . S
C542 O565 1.283 . S
C543 O555 1.281 . S
C543 O556 1.236 . S
C544 O566 1.240 . S
C544 O567 1.264 . S
O545 Mn540 2.095 . S
O545 C554 1.250 . S
O546 Mn541 2.121 . S
O546 C554 1.258 . S
C547 N548 1.326 . S
C547 C551 1.460 . S
C547 H553 0.929 . S
N548 Mn541 2.257 . S
N548 C547 1.326 . S
N548 C552 1.362 . S
C549 C550 1.258 . S
C549 C552 1.431 . S
C549 C569 1.449 . S
C550 C549 1.258 . S
C550 C551 1.477 . S
C550 H570 0.931 . S
C551 C547 1.460 . S
C551 C550 1.477 . S
C551 H571 0.930 . S
C552 N548 1.362 . S
C552 C549 1.431 . S
C552 C562 1.476 . S
H553 C547 0.929 . S
C554 O545 1.250 . S
C554 O546 1.258 . S
O555 Mn540 2.162 . S
O555 C543 1.281 . S
O556 Mn540 2.297 . S
O556 C543 1.236 . S
N557 Mn541 2.282 . S
N557 C558 1.328 . S
N557 C562 1.318 . S
C558 N557 1.328 . S
C558 C559 1.457 . S
C558 H563 0.929 . S
C559 C558 1.457 . S
C559 C560 1.291 . S
C559 H572 0.931 . S
C560 C559 1.291 . S
C560 C561 1.373 . S
C560 H573 0.929 . S
C561 C560 1.373 . S
C561 C562 1.396 . S
C561 C568 1.403 . S
C562 C552 1.476 . S
C562 N557 1.318 . S
C562 C561 1.396 . S
H563 C558 0.929 . S
O564 Mn540 2.385 . S
O564 C542 1.234 . S
O565 Mn540 2.209 . S
O565 Mn541 2.215 . S
O565 C542 1.283 . S
O566 Mn540 2.094 . S
O566 C544 1.240 . S
O567 Mn541 2.117 . S
O567 C544 1.264 . S
C568 C561 1.403 . S
C568 C569 1.399 . S
C568 H574 0.929 . S
C569 C549 1.449 . S
C569 C568 1.399 . S
C569 H575 0.930 . S
H570 C550 0.931 . S
H571 C551 0.930 . S
H572 C559 0.931 . S
H573 C560 0.929 . S
H574 C568 0.929 . S
H575 C569 0.930 . S
Mn576 O581 2.095 . S
Mn576 O591 2.162 . S
Mn576 O592 2.297 . S
Mn576 O600 2.385 . S
Mn576 O601 2.209 . S
Mn576 O602 2.094 . S
Mn577 O582 2.121 1_545 S
Mn577 N584 2.257 . S
Mn577 N593 2.282 . S
Mn577 O601 2.215 . S
Mn577 O603 2.117 . S
C578 O600 1.234 . S
C578 O601 1.283 . S
C579 O591 1.281 . S
C579 O592 1.236 . S
C580 O602 1.240 . S
C580 O603 1.264 . S
O581 Mn576 2.095 . S
O581 C590 1.250 1_545 S
O582 Mn577 2.121 1_565 S
O582 C590 1.258 . S
C583 N584 1.326 1_565 S
C583 C587 1.460 . S
C583 H589 0.929 . S
N584 Mn577 2.257 . S
N584 C583 1.326 1_545 S
N584 C588 1.362 . S
C585 C586 1.258 . S
C585 C588 1.431 . S
C585 C605 1.449 . S
C586 C585 1.258 . S
C586 C587 1.477 1_545 S
C586 H606 0.931 . S
C587 C583 1.460 . S
C587 C586 1.477 1_565 S
C587 H607 0.930 . S
C588 N584 1.362 . S
C588 C585 1.431 . S
C588 C598 1.476 . S
H589 C583 0.929 . S
C590 O581 1.250 1_565 S
C590 O582 1.258 . S
O591 Mn576 2.162 . S
O591 C579 1.281 . S
O592 Mn576 2.297 . S
O592 C579 1.236 . S
N593 Mn577 2.282 . S
N593 C594 1.328 . S
N593 C598 1.318 . S
C594 N593 1.328 . S
C594 C595 1.457 . S
C594 H599 0.929 . S
C595 C594 1.457 . S
C595 C596 1.291 . S
C595 H608 0.931 . S
C596 C595 1.291 . S
C596 C597 1.373 . S
C596 H609 0.929 . S
C597 C596 1.373 . S
C597 C598 1.396 . S
C597 C604 1.403 . S
C598 C588 1.476 . S
C598 N593 1.318 . S
C598 C597 1.396 . S
H599 C594 0.929 . S
O600 Mn576 2.385 . S
O600 C578 1.234 . S
O601 Mn576 2.209 . S
O601 Mn577 2.215 . S
O601 C578 1.283 . S
O602 Mn576 2.094 . S
O602 C580 1.240 . S
O603 Mn577 2.117 . S
O603 C580 1.264 . S
C604 C597 1.403 . S
C604 C605 1.399 . S
C604 H610 0.929 . S
C605 C585 1.449 . S
C605 C604 1.399 . S
C605 H611 0.930 . S
H606 C586 0.931 . S
H607 C587 0.930 . S
H608 C595 0.931 . S
H609 C596 0.929 . S
H610 C604 0.929 . S
H611 C605 0.930 . S
Mn612 O617 2.095 . S
Mn612 O627 2.162 1_655 S
Mn612 O628 2.297 1_655 S
Mn612 O636 2.385 . S
Mn612 O637 2.209 . S
Mn612 O638 2.094 . S
Mn613 O618 2.121 . S
Mn613 N620 2.257 . S
Mn613 N629 2.282 . S
Mn613 O637 2.215 . S
Mn613 O639 2.117 . S
C614 O636 1.234 . S
C614 O637 1.283 . S
C615 O627 1.281 . S
C615 O628 1.236 . S
C616 O638 1.240 . S
C616 O639 1.264 . S
O617 Mn612 2.095 . S
O617 C626 1.250 . S
O618 Mn613 2.121 . S
O618 C626 1.258 . S
C619 N620 1.326 . S
C619 C623 1.460 . S
C619 H625 0.929 . S
N620 Mn613 2.257 . S
N620 C619 1.326 . S
N620 C624 1.362 . S
C621 C622 1.258 . S
C621 C624 1.431 . S
C621 C641 1.449 . S
C622 C621 1.258 . S
C622 C623 1.477 . S
C622 H642 0.931 . S
C623 C619 1.460 . S
C623 C622 1.477 . S
C623 H643 0.930 . S
C624 N620 1.362 . S
C624 C621 1.431 . S
C624 C634 1.476 . S
H625 C619 0.929 . S
C626 O617 1.250 . S
C626 O618 1.258 . S
O627 Mn612 2.162 1_455 S
O627 C615 1.281 . S
O628 Mn612 2.297 1_455 S
O628 C615 1.236 . S
N629 Mn613 2.282 . S
N629 C630 1.328 . S
N629 C634 1.318 . S
C630 N629 1.328 . S
C630 C631 1.457 . S
C630 H635 0.929 . S
C631 C630 1.457 . S
C631 C632 1.291 . S
C631 H644 0.931 . S
C632 C631 1.291 . S
C632 C633 1.373 . S
C632 H645 0.929 . S
C633 C632 1.373 . S
C633 C634 1.396 . S
C633 C640 1.403 . S
C634 C624 1.476 . S
C634 N629 1.318 . S
C634 C633 1.396 . S
H635 C630 0.929 . S
O636 Mn612 2.385 . S
O636 C614 1.234 . S
O637 Mn612 2.209 . S
O637 Mn613 2.215 . S
O637 C614 1.283 . S
O638 Mn612 2.094 . S
O638 C616 1.240 . S
O639 Mn613 2.117 . S
O639 C616 1.264 . S
C640 C633 1.403 . S
C640 C641 1.399 . S
C640 H646 0.929 . S
C641 C621 1.449 . S
C641 C640 1.399 . S
C641 H647 0.930 . S
H642 C622 0.931 . S
H643 C623 0.930 . S
H644 C631 0.931 . S
H645 C632 0.929 . S
H646 C640 0.929 . S
H647 C641 0.930 . S
H648 C675 0.929 . S
N649 C674 1.433 . S
N649 C680 1.435 . S
N649 C686 1.423 . S
H650 C676 0.930 . S
H651 C679 0.931 . S
H652 C678 0.929 . S
H653 C681 0.930 . S
H654 C682 0.932 . S
H655 C685 0.929 . S
H656 C684 0.931 . S
H657 C687 0.929 . S
H658 C691 0.932 . S
H659 C688 0.931 . S
H660 C690 0.929 . S
H661 C693 0.929 . S
H662 C694 0.930 . S
H663 C696 0.929 . S
H664 C697 0.931 . S
H665 C699 0.930 . S
H666 C700 0.932 . S
H667 C702 0.931 . S
H668 C703 0.929 . S
H669 C705 0.929 . S
H670 C706 0.931 . S
H671 C708 0.929 . S
N672 C692 1.433 . S
N672 C698 1.435 . S
N672 C704 1.423 . S
H673 C709 0.932 . S
C674 N649 1.433 . S
C674 C675 1.363 . S
C674 C679 1.370 . S
C675 H648 0.929 . S
C675 C674 1.363 . S
C675 C676 1.385 . S
C676 H650 0.930 . S
C676 C675 1.385 . S
C676 C677 1.357 . S
C677 C676 1.357 . S
C677 C678 1.406 . S
C678 H652 0.929 . S
C678 C677 1.406 . S
C678 C679 1.391 . S
C679 H651 0.931 . S
C679 C674 1.370 . S
C679 C678 1.391 . S
C680 N649 1.435 . S
C680 C681 1.358 . S
C680 C685 1.371 . S
C681 H653 0.930 . S
C681 C680 1.358 . S
C681 C682 1.405 . S
C682 H654 0.932 . S
C682 C681 1.405 . S
C682 C683 1.383 . S
C683 C682 1.383 . S
C683 C684 1.393 . S
C684 H656 0.931 . S
C684 C683 1.393 . S
C684 C685 1.382 . S
C685 H655 0.929 . S
C685 C680 1.371 . S
C685 C684 1.382 . S
C686 N649 1.423 . S
C686 C687 1.362 . S
C686 C691 1.388 . S
C687 H657 0.929 . S
C687 C686 1.362 . S
C687 C688 1.376 . S
C688 H659 0.931 . S
C688 C687 1.376 . S
C688 C689 1.396 . S
C689 C688 1.396 . S
C689 C690 1.348 . S
C689 C707 1.472 . S
C690 H660 0.929 . S
C690 C689 1.348 . S
C690 C691 1.443 . S
C691 H658 0.932 . S
C691 C686 1.388 . S
C691 C690 1.443 . S
C692 N672 1.433 . S
C692 C693 1.363 . S
C692 C697 1.370 . S
C693 H661 0.929 . S
C693 C692 1.363 . S
C693 C694 1.385 . S
C694 H662 0.930 . S
C694 C693 1.385 . S
C694 C695 1.357 . S
C695 C694 1.357 . S
C695 C696 1.406 . S
C696 H663 0.929 . S
C696 C695 1.406 . S
C696 C697 1.391 . S
C697 H664 0.931 . S
C697 C692 1.370 . S
C697 C696 1.391 . S
C698 N672 1.435 . S
C698 C699 1.358 . S
C698 C703 1.371 . S
C699 H665 0.930 . S
C699 C698 1.358 . S
C699 C700 1.405 . S
C700 H666 0.932 . S
C700 C699 1.405 . S
C700 C701 1.383 . S
C701 C700 1.383 . S
C701 C702 1.393 . S
C702 H667 0.931 . S
C702 C701 1.393 . S
C702 C703 1.382 . S
C703 H668 0.929 . S
C703 C698 1.371 . S
C703 C702 1.382 . S
C704 N672 1.423 . S
C704 C705 1.362 . S
C704 C709 1.388 . S
C705 H669 0.929 . S
C705 C704 1.362 . S
C705 C706 1.376 . S
C706 H670 0.931 . S
C706 C705 1.376 . S
C706 C707 1.396 . S
C707 C689 1.472 . S
C707 C706 1.396 . S
C707 C708 1.348 . S
C708 H671 0.929 . S
C708 C707 1.348 . S
C708 C709 1.443 . S
C709 H673 0.932 . S
C709 C704 1.388 . S
C709 C708 1.443 . S
H710 C737 0.929 . S
N711 C736 1.433 . S
N711 C742 1.435 . S
N711 C748 1.423 . S
H712 C738 0.930 . S
H713 C741 0.931 . S
H714 C740 0.929 . S
H715 C743 0.930 . S
H716 C744 0.932 . S
H717 C747 0.929 . S
H718 C746 0.931 . S
H719 C749 0.929 . S
H720 C753 0.932 . S
H721 C750 0.931 . S
H722 C752 0.929 . S
H723 C755 0.929 . S
H724 C756 0.930 . S
H725 C758 0.929 . S
H726 C759 0.931 . S
H727 C761 0.930 . S
H728 C762 0.932 . S
H729 C764 0.931 . S
H730 C765 0.929 . S
H731 C767 0.929 . S
H732 C768 0.931 . S
H733 C770 0.929 . S
N734 C754 1.433 . S
N734 C760 1.435 . S
N734 C766 1.423 . S
H735 C771 0.932 . S
C736 N711 1.433 . S
C736 C737 1.363 . S
C736 C741 1.370 . S
C737 H710 0.929 . S
C737 C736 1.363 . S
C737 C738 1.385 . S
C738 H712 0.930 . S
C738 C737 1.385 . S
C738 C739 1.357 . S
C739 C738 1.357 . S
C739 C740 1.406 . S
C740 H714 0.929 . S
C740 C739 1.406 . S
C740 C741 1.391 . S
C741 H713 0.931 . S
C741 C736 1.370 . S
C741 C740 1.391 . S
C742 N711 1.435 . S
C742 C743 1.358 . S
C742 C747 1.371 . S
C743 H715 0.930 . S
C743 C742 1.358 . S
C743 C744 1.405 . S
C744 H716 0.932 . S
C744 C743 1.405 . S
C744 C745 1.383 . S
C745 C744 1.383 . S
C745 C746 1.393 . S
C746 H718 0.931 . S
C746 C745 1.393 . S
C746 C747 1.382 . S
C747 H717 0.929 . S
C747 C742 1.371 . S
C747 C746 1.382 . S
C748 N711 1.423 . S
C748 C749 1.362 . S
C748 C753 1.388 . S
C749 H719 0.929 . S
C749 C748 1.362 . S
C749 C750 1.376 . S
C750 H721 0.931 . S
C750 C749 1.376 . S
C750 C751 1.396 . S
C751 C750 1.396 . S
C751 C752 1.348 . S
C751 C769 1.472 . S
C752 H722 0.929 . S
C752 C751 1.348 . S
C752 C753 1.443 . S
C753 H720 0.932 . S
C753 C748 1.388 . S
C753 C752 1.443 . S
C754 N734 1.433 . S
C754 C755 1.363 . S
C754 C759 1.370 . S
C755 H723 0.929 . S
C755 C754 1.363 . S
C755 C756 1.385 . S
C756 H724 0.930 . S
C756 C755 1.385 . S
C756 C757 1.357 . S
C757 C756 1.357 . S
C757 C758 1.406 . S
C758 H725 0.929 . S
C758 C757 1.406 . S
C758 C759 1.391 . S
C759 H726 0.931 . S
C759 C754 1.370 . S
C759 C758 1.391 . S
C760 N734 1.435 . S
C760 C761 1.358 . S
C760 C765 1.371 . S
C761 H727 0.930 . S
C761 C760 1.358 . S
C761 C762 1.405 . S
C762 H728 0.932 . S
C762 C761 1.405 . S
C762 C763 1.383 . S
C763 C762 1.383 . S
C763 C764 1.393 . S
C764 H729 0.931 . S
C764 C763 1.393 . S
C764 C765 1.382 . S
C765 H730 0.929 . S
C765 C760 1.371 . S
C765 C764 1.382 . S
C766 N734 1.423 . S
C766 C767 1.362 . S
C766 C771 1.388 . S
C767 H731 0.929 . S
C767 C766 1.362 . S
C767 C768 1.376 . S
C768 H732 0.931 . S
C768 C767 1.376 . S
C768 C769 1.396 . S
C769 C751 1.472 . S
C769 C768 1.396 . S
C769 C770 1.348 . S
C770 H733 0.929 . S
C770 C769 1.348 . S
C770 C771 1.443 . S
C771 H735 0.932 . S
C771 C766 1.388 . S
C771 C770 1.443 . S
H772 C799 0.929 . S
N773 C798 1.433 . S
N773 C804 1.435 . S
N773 C810 1.423 . S
H774 C800 0.930 . S
H775 C803 0.931 . S
H776 C802 0.929 . S
H777 C805 0.930 . S
H778 C806 0.932 . S
H779 C809 0.929 . S
H780 C808 0.931 . S
H781 C811 0.929 . S
H782 C815 0.932 . S
H783 C812 0.931 . S
H784 C814 0.929 . S
H785 C817 0.929 . S
H786 C818 0.930 . S
H787 C820 0.929 . S
H788 C821 0.931 . S
H789 C823 0.930 . S
H790 C824 0.932 . S
H791 C826 0.931 . S
H792 C827 0.929 . S
H793 C829 0.929 . S
H794 C830 0.931 . S
H795 C832 0.929 . S
N796 C816 1.433 . S
N796 C822 1.435 . S
N796 C828 1.423 . S
H797 C833 0.932 . S
C798 N773 1.433 . S
C798 C799 1.363 . S
C798 C803 1.370 . S
C799 H772 0.929 . S
C799 C798 1.363 . S
C799 C800 1.385 . S
C800 H774 0.930 . S
C800 C799 1.385 . S
C800 C801 1.357 . S
C801 C800 1.357 . S
C801 C802 1.406 . S
C802 H776 0.929 . S
C802 C801 1.406 . S
C802 C803 1.391 . S
C803 H775 0.931 . S
C803 C798 1.370 . S
C803 C802 1.391 . S
C804 N773 1.435 . S
C804 C805 1.358 . S
C804 C809 1.371 . S
C805 H777 0.930 . S
C805 C804 1.358 . S
C805 C806 1.405 . S
C806 H778 0.932 . S
C806 C805 1.405 . S
C806 C807 1.383 . S
C807 C806 1.383 . S
C807 C808 1.393 . S
C808 H780 0.931 . S
C808 C807 1.393 . S
C808 C809 1.382 . S
C809 H779 0.929 . S
C809 C804 1.371 . S
C809 C808 1.382 . S
C810 N773 1.423 . S
C810 C811 1.362 . S
C810 C815 1.388 . S
C811 H781 0.929 . S
C811 C810 1.362 . S
C811 C812 1.376 . S
C812 H783 0.931 . S
C812 C811 1.376 . S
C812 C813 1.396 . S
C813 C812 1.396 . S
C813 C814 1.348 . S
C813 C831 1.472 . S
C814 H784 0.929 . S
C814 C813 1.348 . S
C814 C815 1.443 . S
C815 H782 0.932 . S
C815 C810 1.388 . S
C815 C814 1.443 . S
C816 N796 1.433 . S
C816 C817 1.363 . S
C816 C821 1.370 . S
C817 H785 0.929 . S
C817 C816 1.363 . S
C817 C818 1.385 . S
C818 H786 0.930 . S
C818 C817 1.385 . S
C818 C819 1.357 . S
C819 C818 1.357 . S
C819 C820 1.406 . S
C820 H787 0.929 . S
C820 C819 1.406 . S
C820 C821 1.391 . S
C821 H788 0.931 . S
C821 C816 1.370 . S
C821 C820 1.391 . S
C822 N796 1.435 . S
C822 C823 1.358 . S
C822 C827 1.371 . S
C823 H789 0.930 . S
C823 C822 1.358 . S
C823 C824 1.405 . S
C824 H790 0.932 . S
C824 C823 1.405 . S
C824 C825 1.383 . S
C825 C824 1.383 . S
C825 C826 1.393 . S
C826 H791 0.931 . S
C826 C825 1.393 . S
C826 C827 1.382 . S
C827 H792 0.929 . S
C827 C822 1.371 . S
C827 C826 1.382 . S
C828 N796 1.423 . S
C828 C829 1.362 . S
C828 C833 1.388 . S
C829 H793 0.929 . S
C829 C828 1.362 . S
C829 C830 1.376 . S
C830 H794 0.931 . S
C830 C829 1.376 . S
C830 C831 1.396 . S
C831 C813 1.472 . S
C831 C830 1.396 . S
C831 C832 1.348 . S
C832 H795 0.929 . S
C832 C831 1.348 . S
C832 C833 1.443 . S
C833 H797 0.932 . S
C833 C828 1.388 . S
C833 C832 1.443 . S
H834 C861 0.929 . S
N835 C860 1.433 . S
N835 C866 1.435 . S
N835 C872 1.423 . S
H836 C862 0.930 . S
H837 C865 0.931 . S
H838 C864 0.929 . S
H839 C867 0.930 . S
H840 C868 0.932 . S
H841 C871 0.929 . S
H842 C870 0.931 1_554 S
H843 C873 0.929 . S
H844 C877 0.932 . S
H845 C874 0.931 . S
H846 C876 0.929 . S
H847 C879 0.929 . S
H848 C880 0.930 . S
H849 C882 0.929 . S
H850 C883 0.931 . S
H851 C885 0.930 . S
H852 C886 0.932 . S
H853 C888 0.931 1_554 S
H854 C889 0.929 . S
H855 C891 0.929 . S
H856 C892 0.931 . S
H857 C894 0.929 . S
N858 C878 1.433 . S
N858 C884 1.435 . S
N858 C890 1.423 . S
H859 C895 0.932 . S
C860 N835 1.433 . S
C860 C861 1.363 . S
C860 C865 1.370 . S
C861 H834 0.929 . S
C861 C860 1.363 . S
C861 C862 1.385 . S
C862 H836 0.930 . S
C862 C861 1.385 . S
C862 C863 1.357 . S
C863 C862 1.357 . S
C863 C864 1.406 . S
C864 H838 0.929 . S
C864 C863 1.406 . S
C864 C865 1.391 . S
C865 H837 0.931 . S
C865 C860 1.370 . S
C865 C864 1.391 . S
C866 N835 1.435 . S
C866 C867 1.358 . S
C866 C871 1.371 . S
C867 H839 0.930 . S
C867 C866 1.358 . S
C867 C868 1.405 . S
C868 H840 0.932 . S
C868 C867 1.405 . S
C868 C869 1.383 . S
C869 C868 1.383 . S
C869 C870 1.393 . S
C870 H842 0.931 1_556 S
C870 C869 1.393 . S
C870 C871 1.382 . S
C871 H841 0.929 . S
C871 C866 1.371 . S
C871 C870 1.382 . S
C872 N835 1.423 . S
C872 C873 1.362 . S
C872 C877 1.388 . S
C873 H843 0.929 . S
C873 C872 1.362 . S
C873 C874 1.376 . S
C874 H845 0.931 . S
C874 C873 1.376 . S
C874 C875 1.396 . S
C875 C874 1.396 . S
C875 C876 1.348 . S
C875 C893 1.472 . S
C876 H846 0.929 . S
C876 C875 1.348 . S
C876 C877 1.443 . S
C877 H844 0.932 . S
C877 C872 1.388 . S
C877 C876 1.443 . S
C878 N858 1.433 . S
C878 C879 1.363 . S
C878 C883 1.370 . S
C879 H847 0.929 . S
C879 C878 1.363 . S
C879 C880 1.385 . S
C880 H848 0.930 . S
C880 C879 1.385 . S
C880 C881 1.357 . S
C881 C880 1.357 . S
C881 C882 1.406 . S
C882 H849 0.929 . S
C882 C881 1.406 . S
C882 C883 1.391 . S
C883 H850 0.931 . S
C883 C878 1.370 . S
C883 C882 1.391 . S
C884 N858 1.435 . S
C884 C885 1.358 . S
C884 C889 1.371 . S
C885 H851 0.930 . S
C885 C884 1.358 . S
C885 C886 1.405 . S
C886 H852 0.932 . S
C886 C885 1.405 . S
C886 C887 1.383 . S
C887 C886 1.383 . S
C887 C888 1.393 . S
C888 H853 0.931 1_556 S
C888 C887 1.393 . S
C888 C889 1.382 . S
C889 H854 0.929 . S
C889 C884 1.371 . S
C889 C888 1.382 . S
C890 N858 1.423 . S
C890 C891 1.362 . S
C890 C895 1.388 . S
C891 H855 0.929 . S
C891 C890 1.362 . S
C891 C892 1.376 . S
C892 H856 0.931 . S
C892 C891 1.376 . S
C892 C893 1.396 . S
C893 C875 1.472 . S
C893 C892 1.396 . S
C893 C894 1.348 . S
C894 H857 0.929 . S
C894 C893 1.348 . S
C894 C895 1.443 . S
C895 H859 0.932 . S
C895 C890 1.388 . S
C895 C894 1.443 . S
H896 C923 0.929 . S
N897 C922 1.433 . S
N897 C928 1.435 . S
N897 C934 1.423 . S
H898 C924 0.930 . S
H899 C927 0.931 . S
H900 C926 0.929 . S
H901 C929 0.930 . S
H902 C930 0.932 . S
H903 C933 0.929 . S
H904 C932 0.931 . S
H905 C935 0.929 . S
H906 C939 0.932 . S
H907 C936 0.931 . S
H908 C938 0.929 . S
H909 C941 0.929 . S
H910 C942 0.930 . S
H911 C944 0.929 . S
H912 C945 0.931 . S
H913 C947 0.930 . S
H914 C948 0.932 . S
H915 C950 0.931 . S
H916 C951 0.929 . S
H917 C953 0.929 . S
H918 C954 0.931 . S
H919 C956 0.929 . S
N920 C940 1.433 . S
N920 C946 1.435 . S
N920 C952 1.423 . S
H921 C957 0.932 . S
C922 N897 1.433 . S
C922 C923 1.363 . S
C922 C927 1.370 . S
C923 H896 0.929 . S
C923 C922 1.363 . S
C923 C924 1.385 . S
C924 H898 0.930 . S
C924 C923 1.385 . S
C924 C925 1.357 . S
C925 C924 1.357 . S
C925 C926 1.406 . S
C926 H900 0.929 . S
C926 C925 1.406 . S
C926 C927 1.391 . S
C927 H899 0.931 . S
C927 C922 1.370 . S
C927 C926 1.391 . S
C928 N897 1.435 . S
C928 C929 1.358 . S
C928 C933 1.371 . S
C929 H901 0.930 . S
C929 C928 1.358 . S
C929 C930 1.405 . S
C930 H902 0.932 . S
C930 C929 1.405 . S
C930 C931 1.383 . S
C931 C930 1.383 . S
C931 C932 1.393 . S
C932 H904 0.931 . S
C932 C931 1.393 . S
C932 C933 1.382 . S
C933 H903 0.929 . S
C933 C928 1.371 . S
C933 C932 1.382 . S
C934 N897 1.423 . S
C934 C935 1.362 . S
C934 C939 1.388 . S
C935 H905 0.929 . S
C935 C934 1.362 . S
C935 C936 1.376 . S
C936 H907 0.931 . S
C936 C935 1.376 . S
C936 C937 1.396 . S
C937 C936 1.396 . S
C937 C938 1.348 . S
C937 C955 1.472 . S
C938 H908 0.929 . S
C938 C937 1.348 . S
C938 C939 1.443 . S
C939 H906 0.932 . S
C939 C934 1.388 . S
C939 C938 1.443 . S
C940 N920 1.433 . S
C940 C941 1.363 . S
C940 C945 1.370 . S
C941 H909 0.929 . S
C941 C940 1.363 . S
C941 C942 1.385 . S
C942 H910 0.930 . S
C942 C941 1.385 . S
C942 C943 1.357 . S
C943 C942 1.357 . S
C943 C944 1.406 . S
C944 H911 0.929 . S
C944 C943 1.406 . S
C944 C945 1.391 . S
C945 H912 0.931 . S
C945 C940 1.370 . S
C945 C944 1.391 . S
C946 N920 1.435 . S
C946 C947 1.358 . S
C946 C951 1.371 . S
C947 H913 0.930 . S
C947 C946 1.358 . S
C947 C948 1.405 . S
C948 H914 0.932 . S
C948 C947 1.405 . S
C948 C949 1.383 . S
C949 C948 1.383 . S
C949 C950 1.393 . S
C950 H915 0.931 . S
C950 C949 1.393 . S
C950 C951 1.382 . S
C951 H916 0.929 . S
C951 C946 1.371 . S
C951 C950 1.382 . S
C952 N920 1.423 . S
C952 C953 1.362 . S
C952 C957 1.388 . S
C953 H917 0.929 . S
C953 C952 1.362 . S
C953 C954 1.376 . S
C954 H918 0.931 . S
C954 C953 1.376 . S
C954 C955 1.396 . S
C955 C937 1.472 . S
C955 C954 1.396 . S
C955 C956 1.348 . S
C956 H919 0.929 . S
C956 C955 1.348 . S
C956 C957 1.443 . S
C957 H921 0.932 . S
C957 C952 1.388 . S
C957 C956 1.443 . S
H958 C985 0.929 . S
N959 C984 1.433 . S
N959 C990 1.435 . S
N959 C996 1.423 . S
H960 C986 0.930 . S
H961 C989 0.931 . S
H962 C988 0.929 . S
H963 C991 0.930 . S
H964 C992 0.932 . S
H965 C995 0.929 . S
H966 C994 0.931 1_554 S
H967 C997 0.929 . S
H968 C1001 0.932 . S
H969 C998 0.931 . S
H970 C1000 0.929 . S
H971 C1003 0.929 . S
H972 C1004 0.930 . S
H973 C1006 0.929 . S
H974 C1007 0.931 . S
H975 C1009 0.930 . S
H976 C1010 0.932 . S
H977 C1012 0.931 1_554 S
H978 C1013 0.929 . S
H979 C1015 0.929 . S
H980 C1016 0.931 . S
H981 C1018 0.929 . S
N982 C1002 1.433 . S
N982 C1008 1.435 . S
N982 C1014 1.423 . S
H983 C1019 0.932 . S
C984 N959 1.433 . S
C984 C985 1.363 . S
C984 C989 1.370 . S
C985 H958 0.929 . S
C985 C984 1.363 . S
C985 C986 1.385 . S
C986 H960 0.930 . S
C986 C985 1.385 . S
C986 C987 1.357 . S
C987 C986 1.357 . S
C987 C988 1.406 . S
C988 H962 0.929 . S
C988 C987 1.406 . S
C988 C989 1.391 . S
C989 H961 0.931 . S
C989 C984 1.370 . S
C989 C988 1.391 . S
C990 N959 1.435 . S
C990 C991 1.358 . S
C990 C995 1.371 . S
C991 H963 0.930 . S
C991 C990 1.358 . S
C991 C992 1.405 . S
C992 H964 0.932 . S
C992 C991 1.405 . S
C992 C993 1.383 . S
C993 C992 1.383 . S
C993 C994 1.393 . S
C994 H966 0.931 1_556 S
C994 C993 1.393 . S
C994 C995 1.382 . S
C995 H965 0.929 . S
C995 C990 1.371 . S
C995 C994 1.382 . S
C996 N959 1.423 . S
C996 C997 1.362 . S
C996 C1001 1.388 . S
C997 H967 0.929 . S
C997 C996 1.362 . S
C997 C998 1.376 . S
C998 H969 0.931 . S
C998 C997 1.376 . S
C998 C999 1.396 . S
C999 C998 1.396 . S
C999 C1000 1.348 . S
C999 C1017 1.472 . S
C1000 H970 0.929 . S
C1000 C999 1.348 . S
C1000 C1001 1.443 . S
C1001 H968 0.932 . S
C1001 C996 1.388 . S
C1001 C1000 1.443 . S
C1002 N982 1.433 . S
C1002 C1003 1.363 . S
C1002 C1007 1.370 . S
C1003 H971 0.929 . S
C1003 C1002 1.363 . S
C1003 C1004 1.385 . S
C1004 H972 0.930 . S
C1004 C1003 1.385 . S
C1004 C1005 1.357 . S
C1005 C1004 1.357 . S
C1005 C1006 1.406 . S
C1006 H973 0.929 . S
C1006 C1005 1.406 . S
C1006 C1007 1.391 . S
C1007 H974 0.931 . S
C1007 C1002 1.370 . S
C1007 C1006 1.391 . S
C1008 N982 1.435 . S
C1008 C1009 1.358 . S
C1008 C1013 1.371 . S
C1009 H975 0.930 . S
C1009 C1008 1.358 . S
C1009 C1010 1.405 . S
C1010 H976 0.932 . S
C1010 C1009 1.405 . S
C1010 C1011 1.383 . S
C1011 C1010 1.383 . S
C1011 C1012 1.393 . S
C1012 H977 0.931 1_556 S
C1012 C1011 1.393 . S
C1012 C1013 1.382 . S
C1013 H978 0.929 . S
C1013 C1008 1.371 . S
C1013 C1012 1.382 . S
C1014 N982 1.423 . S
C1014 C1015 1.362 . S
C1014 C1019 1.388 . S
C1015 H979 0.929 . S
C1015 C1014 1.362 . S
C1015 C1016 1.376 . S
C1016 H980 0.931 . S
C1016 C1015 1.376 . S
C1016 C1017 1.396 . S
C1017 C999 1.472 . S
C1017 C1016 1.396 . S
C1017 C1018 1.348 . S
C1018 H981 0.929 . S
C1018 C1017 1.348 . S
C1018 C1019 1.443 . S
C1019 H983 0.932 . S
C1019 C1014 1.388 . S
C1019 C1018 1.443 . S
H1020 C1047 0.929 . S
N1021 C1046 1.433 . S
N1021 C1052 1.435 . S
N1021 C1058 1.423 . S
H1022 C1048 0.930 . S
H1023 C1051 0.931 . S
H1024 C1050 0.929 . S
H1025 C1053 0.930 . S
H1026 C1054 0.932 . S
H1027 C1057 0.929 . S
H1028 C1056 0.931 . S
H1029 C1059 0.929 . S
H1030 C1063 0.932 . S
H1031 C1060 0.931 . S
H1032 C1062 0.929 . S
H1033 C1065 0.929 . S
H1034 C1066 0.930 . S
H1035 C1068 0.929 . S
H1036 C1069 0.931 . S
H1037 C1071 0.930 . S
H1038 C1072 0.932 . S
H1039 C1074 0.931 . S
H1040 C1075 0.929 . S
H1041 C1077 0.929 . S
H1042 C1078 0.931 . S
H1043 C1080 0.929 . S
N1044 C1064 1.433 . S
N1044 C1070 1.435 . S
N1044 C1076 1.423 . S
H1045 C1081 0.932 . S
C1046 N1021 1.433 . S
C1046 C1047 1.363 . S
C1046 C1051 1.370 . S
C1047 H1020 0.929 . S
C1047 C1046 1.363 . S
C1047 C1048 1.385 . S
C1048 H1022 0.930 . S
C1048 C1047 1.385 . S
C1048 C1049 1.357 . S
C1049 C1048 1.357 . S
C1049 C1050 1.406 . S
C1050 H1024 0.929 . S
C1050 C1049 1.406 . S
C1050 C1051 1.391 . S
C1051 H1023 0.931 . S
C1051 C1046 1.370 . S
C1051 C1050 1.391 . S
C1052 N1021 1.435 . S
C1052 C1053 1.358 . S
C1052 C1057 1.371 . S
C1053 H1025 0.930 . S
C1053 C1052 1.358 . S
C1053 C1054 1.405 . S
C1054 H1026 0.932 . S
C1054 C1053 1.405 . S
C1054 C1055 1.383 . S
C1055 C1054 1.383 . S
C1055 C1056 1.393 . S
C1056 H1028 0.931 . S
C1056 C1055 1.393 . S
C1056 C1057 1.382 . S
C1057 H1027 0.929 . S
C1057 C1052 1.371 . S
C1057 C1056 1.382 . S
C1058 N1021 1.423 . S
C1058 C1059 1.362 . S
C1058 C1063 1.388 . S
C1059 H1029 0.929 . S
C1059 C1058 1.362 . S
C1059 C1060 1.376 . S
C1060 H1031 0.931 . S
C1060 C1059 1.376 . S
C1060 C1061 1.396 . S
C1061 C1060 1.396 . S
C1061 C1062 1.348 . S
C1061 C1079 1.472 . S
C1062 H1032 0.929 . S
C1062 C1061 1.348 . S
C1062 C1063 1.443 . S
C1063 H1030 0.932 . S
C1063 C1058 1.388 . S
C1063 C1062 1.443 . S
C1064 N1044 1.433 . S
C1064 C1065 1.363 . S
C1064 C1069 1.370 . S
C1065 H1033 0.929 . S
C1065 C1064 1.363 . S
C1065 C1066 1.385 . S
C1066 H1034 0.930 . S
C1066 C1065 1.385 . S
C1066 C1067 1.357 . S
C1067 C1066 1.357 . S
C1067 C1068 1.406 . S
C1068 H1035 0.929 . S
C1068 C1067 1.406 . S
C1068 C1069 1.391 . S
C1069 H1036 0.931 . S
C1069 C1064 1.370 . S
C1069 C1068 1.391 . S
C1070 N1044 1.435 . S
C1070 C1071 1.358 . S
C1070 C1075 1.371 . S
C1071 H1037 0.930 . S
C1071 C1070 1.358 . S
C1071 C1072 1.405 . S
C1072 H1038 0.932 . S
C1072 C1071 1.405 . S
C1072 C1073 1.383 . S
C1073 C1072 1.383 . S
C1073 C1074 1.393 . S
C1074 H1039 0.931 . S
C1074 C1073 1.393 . S
C1074 C1075 1.382 . S
C1075 H1040 0.929 . S
C1075 C1070 1.371 . S
C1075 C1074 1.382 . S
C1076 N1044 1.423 . S
C1076 C1077 1.362 . S
C1076 C1081 1.388 . S
C1077 H1041 0.929 . S
C1077 C1076 1.362 . S
C1077 C1078 1.376 . S
C1078 H1042 0.931 . S
C1078 C1077 1.376 . S
C1078 C1079 1.396 . S
C1079 C1061 1.472 . S
C1079 C1078 1.396 . S
C1079 C1080 1.348 . S
C1080 H1043 0.929 . S
C1080 C1079 1.348 . S
C1080 C1081 1.443 . S
C1081 H1045 0.932 . S
C1081 C1076 1.388 . S
C1081 C1080 1.443 . S
H1082 C1109 0.929 . S
N1083 C1108 1.433 . S
N1083 C1114 1.435 . S
N1083 C1120 1.423 . S
H1084 C1110 0.930 . S
H1085 C1113 0.931 . S
H1086 C1112 0.929 . S
H1087 C1115 0.930 . S
H1088 C1116 0.932 . S
H1089 C1119 0.929 . S
H1090 C1118 0.931 . S
H1091 C1121 0.929 . S
H1092 C1125 0.932 . S
H1093 C1122 0.931 . S
H1094 C1124 0.929 . S
H1095 C1127 0.929 . S
H1096 C1128 0.930 . S
H1097 C1130 0.929 . S
H1098 C1131 0.931 . S
H1099 C1133 0.930 . S
H1100 C1134 0.932 . S
H1101 C1136 0.931 . S
H1102 C1137 0.929 . S
H1103 C1139 0.929 . S
H1104 C1140 0.931 . S
H1105 C1142 0.929 . S
N1106 C1126 1.433 . S
N1106 C1132 1.435 . S
N1106 C1138 1.423 . S
H1107 C1143 0.932 . S
C1108 N1083 1.433 . S
C1108 C1109 1.363 . S
C1108 C1113 1.370 . S
C1109 H1082 0.929 . S
C1109 C1108 1.363 . S
C1109 C1110 1.385 . S
C1110 H1084 0.930 . S
C1110 C1109 1.385 . S
C1110 C1111 1.357 . S
C1111 C1110 1.357 . S
C1111 C1112 1.406 . S
C1112 H1086 0.929 . S
C1112 C1111 1.406 . S
C1112 C1113 1.391 . S
C1113 H1085 0.931 . S
C1113 C1108 1.370 . S
C1113 C1112 1.391 . S
C1114 N1083 1.435 . S
C1114 C1115 1.358 . S
C1114 C1119 1.371 . S
C1115 H1087 0.930 . S
C1115 C1114 1.358 . S
C1115 C1116 1.405 . S
C1116 H1088 0.932 . S
C1116 C1115 1.405 . S
C1116 C1117 1.383 . S
C1117 C1116 1.383 . S
C1117 C1118 1.393 . S
C1118 H1090 0.931 . S
C1118 C1117 1.393 . S
C1118 C1119 1.382 . S
C1119 H1089 0.929 . S
C1119 C1114 1.371 . S
C1119 C1118 1.382 . S
C1120 N1083 1.423 . S
C1120 C1121 1.362 . S
C1120 C1125 1.388 . S
C1121 H1091 0.929 . S
C1121 C1120 1.362 . S
C1121 C1122 1.376 . S
C1122 H1093 0.931 . S
C1122 C1121 1.376 . S
C1122 C1123 1.396 . S
C1123 C1122 1.396 . S
C1123 C1124 1.348 . S
C1123 C1141 1.472 . S
C1124 H1094 0.929 . S
C1124 C1123 1.348 . S
C1124 C1125 1.443 . S
C1125 H1092 0.932 . S
C1125 C1120 1.388 . S
C1125 C1124 1.443 . S
C1126 N1106 1.433 . S
C1126 C1127 1.363 . S
C1126 C1131 1.370 . S
C1127 H1095 0.929 . S
C1127 C1126 1.363 . S
C1127 C1128 1.385 . S
C1128 H1096 0.930 . S
C1128 C1127 1.385 . S
C1128 C1129 1.357 . S
C1129 C1128 1.357 . S
C1129 C1130 1.406 . S
C1130 H1097 0.929 . S
C1130 C1129 1.406 . S
C1130 C1131 1.391 . S
C1131 H1098 0.931 . S
C1131 C1126 1.370 . S
C1131 C1130 1.391 . S
C1132 N1106 1.435 . S
C1132 C1133 1.358 . S
C1132 C1137 1.371 . S
C1133 H1099 0.930 . S
C1133 C1132 1.358 . S
C1133 C1134 1.405 . S
C1134 H1100 0.932 . S
C1134 C1133 1.405 . S
C1134 C1135 1.383 . S
C1135 C1134 1.383 . S
C1135 C1136 1.393 . S
C1136 H1101 0.931 . S
C1136 C1135 1.393 . S
C1136 C1137 1.382 . S
C1137 H1102 0.929 . S
C1137 C1132 1.371 . S
C1137 C1136 1.382 . S
C1138 N1106 1.423 . S
C1138 C1139 1.362 . S
C1138 C1143 1.388 . S
C1139 H1103 0.929 . S
C1139 C1138 1.362 . S
C1139 C1140 1.376 . S
C1140 H1104 0.931 . S
C1140 C1139 1.376 . S
C1140 C1141 1.396 . S
C1141 C1123 1.472 . S
C1141 C1140 1.396 . S
C1141 C1142 1.348 . S
C1142 H1105 0.929 . S
C1142 C1141 1.348 . S
C1142 C1143 1.443 . S
C1143 H1107 0.932 . S
C1143 C1138 1.388 . S
C1143 C1142 1.443 . S
H1144 C1171 0.929 . S
N1145 C1170 1.433 . S
N1145 C1176 1.435 . S
N1145 C1182 1.423 . S
H1146 C1172 0.930 . S
H1147 C1175 0.931 . S
H1148 C1174 0.929 . S
H1149 C1177 0.930 . S
H1150 C1178 0.932 . S
H1151 C1181 0.929 . S
H1152 C1180 0.931 . S
H1153 C1183 0.929 . S
H1154 C1187 0.932 . S
H1155 C1184 0.931 . S
H1156 C1186 0.929 . S
H1157 C1189 0.929 . S
H1158 C1190 0.930 . S
H1159 C1192 0.929 . S
H1160 C1193 0.931 . S
H1161 C1195 0.930 . S
H1162 C1196 0.932 . S
H1163 C1198 0.931 . S
H1164 C1199 0.929 . S
H1165 C1201 0.929 . S
H1166 C1202 0.931 . S
H1167 C1204 0.929 . S
N1168 C1188 1.433 . S
N1168 C1194 1.435 . S
N1168 C1200 1.423 . S
H1169 C1205 0.932 . S
C1170 N1145 1.433 . S
C1170 C1171 1.363 . S
C1170 C1175 1.370 . S
C1171 H1144 0.929 . S
C1171 C1170 1.363 . S
C1171 C1172 1.385 . S
C1172 H1146 0.930 . S
C1172 C1171 1.385 . S
C1172 C1173 1.357 . S
C1173 C1172 1.357 . S
C1173 C1174 1.406 . S
C1174 H1148 0.929 . S
C1174 C1173 1.406 . S
C1174 C1175 1.391 . S
C1175 H1147 0.931 . S
C1175 C1170 1.370 . S
C1175 C1174 1.391 . S
C1176 N1145 1.435 . S
C1176 C1177 1.358 . S
C1176 C1181 1.371 . S
C1177 H1149 0.930 . S
C1177 C1176 1.358 . S
C1177 C1178 1.405 . S
C1178 H1150 0.932 . S
C1178 C1177 1.405 . S
C1178 C1179 1.383 . S
C1179 C1178 1.383 . S
C1179 C1180 1.393 . S
C1180 H1152 0.931 . S
C1180 C1179 1.393 . S
C1180 C1181 1.382 . S
C1181 H1151 0.929 . S
C1181 C1176 1.371 . S
C1181 C1180 1.382 . S
C1182 N1145 1.423 . S
C1182 C1183 1.362 . S
C1182 C1187 1.388 . S
C1183 H1153 0.929 . S
C1183 C1182 1.362 . S
C1183 C1184 1.376 . S
C1184 H1155 0.931 . S
C1184 C1183 1.376 . S
C1184 C1185 1.396 . S
C1185 C1184 1.396 . S
C1185 C1186 1.348 . S
C1185 C1203 1.472 . S
C1186 H1156 0.929 . S
C1186 C1185 1.348 . S
C1186 C1187 1.443 . S
C1187 H1154 0.932 . S
C1187 C1182 1.388 . S
C1187 C1186 1.443 . S
C1188 N1168 1.433 . S
C1188 C1189 1.363 . S
C1188 C1193 1.370 . S
C1189 H1157 0.929 . S
C1189 C1188 1.363 . S
C1189 C1190 1.385 . S
C1190 H1158 0.930 . S
C1190 C1189 1.385 . S
C1190 C1191 1.357 . S
C1191 C1190 1.357 . S
C1191 C1192 1.406 . S
C1192 H1159 0.929 . S
C1192 C1191 1.406 . S
C1192 C1193 1.391 . S
C1193 H1160 0.931 . S
C1193 C1188 1.370 . S
C1193 C1192 1.391 . S
C1194 N1168 1.435 . S
C1194 C1195 1.358 . S
C1194 C1199 1.371 . S
C1195 H1161 0.930 . S
C1195 C1194 1.358 . S
C1195 C1196 1.405 . S
C1196 H1162 0.932 . S
C1196 C1195 1.405 . S
C1196 C1197 1.383 . S
C1197 C1196 1.383 . S
C1197 C1198 1.393 . S
C1198 H1163 0.931 . S
C1198 C1197 1.393 . S
C1198 C1199 1.382 . S
C1199 H1164 0.929 . S
C1199 C1194 1.371 . S
C1199 C1198 1.382 . S
C1200 N1168 1.423 . S
C1200 C1201 1.362 . S
C1200 C1205 1.388 . S
C1201 H1165 0.929 . S
C1201 C1200 1.362 . S
C1201 C1202 1.376 . S
C1202 H1166 0.931 . S
C1202 C1201 1.376 . S
C1202 C1203 1.396 . S
C1203 C1185 1.472 . S
C1203 C1202 1.396 . S
C1203 C1204 1.348 . S
C1204 H1167 0.929 . S
C1204 C1203 1.348 . S
C1204 C1205 1.443 . S
C1205 H1169 0.932 . S
C1205 C1200 1.388 . S
C1205 C1204 1.443 . S
H1206 C1233 0.929 . S
N1207 C1232 1.433 . S
N1207 C1238 1.435 . S
N1207 C1244 1.423 . S
H1208 C1234 0.930 . S
H1209 C1237 0.931 . S
H1210 C1236 0.929 . S
H1211 C1239 0.930 . S
H1212 C1240 0.932 . S
H1213 C1243 0.929 . S
H1214 C1242 0.931 . S
H1215 C1245 0.929 . S
H1216 C1249 0.932 1_655 S
H1217 C1246 0.931 . S
H1218 C1248 0.929 . S
H1219 C1251 0.929 . S
H1220 C1252 0.930 . S
H1221 C1254 0.929 . S
H1222 C1255 0.931 . S
H1223 C1257 0.930 . S
H1224 C1258 0.932 . S
H1225 C1260 0.931 . S
H1226 C1261 0.929 . S
H1227 C1263 0.929 . S
H1228 C1264 0.931 . S
H1229 C1266 0.929 . S
N1230 C1250 1.433 . S
N1230 C1256 1.435 . S
N1230 C1262 1.423 . S
H1231 C1267 0.932 1_655 S
C1232 N1207 1.433 . S
C1232 C1233 1.363 . S
C1232 C1237 1.370 1_455 S
C1233 H1206 0.929 . S
C1233 C1232 1.363 . S
C1233 C1234 1.385 . S
C1234 H1208 0.930 . S
C1234 C1233 1.385 . S
C1234 C1235 1.357 1_455 S
C1235 C1234 1.357 1_655 S
C1235 C1236 1.406 . S
C1236 H1210 0.929 . S
C1236 C1235 1.406 . S
C1236 C1237 1.391 . S
C1237 H1209 0.931 . S
C1237 C1232 1.370 1_655 S
C1237 C1236 1.391 . S
C1238 N1207 1.435 . S
C1238 C1239 1.358 1_455 S
C1238 C1243 1.371 . S
C1239 H1211 0.930 . S
C1239 C1238 1.358 1_655 S
C1239 C1240 1.405 . S
C1240 H1212 0.932 . S
C1240 C1239 1.405 . S
C1240 C1241 1.383 1_655 S
C1241 C1240 1.383 1_455 S
C1241 C1242 1.393 . S
C1242 H1214 0.931 . S
C1242 C1241 1.393 . S
C1242 C1243 1.382 . S
C1243 H1213 0.929 . S
C1243 C1238 1.371 . S
C1243 C1242 1.382 . S
C1244 N1207 1.423 . S
C1244 C1245 1.362 . S
C1244 C1249 1.388 . S
C1245 H1215 0.929 . S
C1245 C1244 1.362 . S
C1245 C1246 1.376 . S
C1246 H1217 0.931 . S
C1246 C1245 1.376 . S
C1246 C1247 1.396 . S
C1247 C1246 1.396 . S
C1247 C1248 1.348 . S
C1247 C1265 1.472 . S
C1248 H1218 0.929 . S
C1248 C1247 1.348 . S
C1248 C1249 1.443 . S
C1249 H1216 0.932 1_455 S
C1249 C1244 1.388 . S
C1249 C1248 1.443 . S
C1250 N1230 1.433 . S
C1250 C1251 1.363 . S
C1250 C1255 1.370 1_455 S
C1251 H1219 0.929 . S
C1251 C1250 1.363 . S
C1251 C1252 1.385 . S
C1252 H1220 0.930 . S
C1252 C1251 1.385 . S
C1252 C1253 1.357 1_455 S
C1253 C1252 1.357 1_655 S
C1253 C1254 1.406 . S
C1254 H1221 0.929 . S
C1254 C1253 1.406 . S
C1254 C1255 1.391 . S
C1255 H1222 0.931 . S
C1255 C1250 1.370 1_655 S
C1255 C1254 1.391 . S
C1256 N1230 1.435 . S
C1256 C1257 1.358 1_455 S
C1256 C1261 1.371 . S
C1257 H1223 0.930 . S
C1257 C1256 1.358 1_655 S
C1257 C1258 1.405 . S
C1258 H1224 0.932 . S
C1258 C1257 1.405 . S
C1258 C1259 1.383 1_655 S
C1259 C1258 1.383 1_455 S
C1259 C1260 1.393 . S
C1260 H1225 0.931 . S
C1260 C1259 1.393 . S
C1260 C1261 1.382 . S
C1261 H1226 0.929 . S
C1261 C1256 1.371 . S
C1261 C1260 1.382 . S
C1262 N1230 1.423 . S
C1262 C1263 1.362 . S
C1262 C1267 1.388 . S
C1263 H1227 0.929 . S
C1263 C1262 1.362 . S
C1263 C1264 1.376 . S
C1264 H1228 0.931 . S
C1264 C1263 1.376 . S
C1264 C1265 1.396 . S
C1265 C1247 1.472 . S
C1265 C1264 1.396 . S
C1265 C1266 1.348 . S
C1266 H1229 0.929 . S
C1266 C1265 1.348 . S
C1266 C1267 1.443 . S
C1267 H1231 0.932 1_455 S
C1267 C1262 1.388 . S
C1267 C1266 1.443 . S
H1268 C1295 0.929 . S
N1269 C1294 1.433 . S
N1269 C1300 1.435 . S
N1269 C1306 1.423 . S
H1270 C1296 0.930 . S
H1271 C1299 0.931 . S
H1272 C1298 0.929 . S
H1273 C1301 0.930 . S
H1274 C1302 0.932 . S
H1275 C1305 0.929 . S
H1276 C1304 0.931 . S
H1277 C1307 0.929 . S
H1278 C1311 0.932 . S
H1279 C1308 0.931 . S
H1280 C1310 0.929 . S
H1281 C1313 0.929 . S
H1282 C1314 0.930 . S
H1283 C1316 0.929 . S
H1284 C1317 0.931 . S
H1285 C1319 0.930 . S
H1286 C1320 0.932 . S
H1287 C1322 0.931 . S
H1288 C1323 0.929 . S
H1289 C1325 0.929 . S
H1290 C1326 0.931 . S
H1291 C1328 0.929 . S
N1292 C1312 1.433 . S
N1292 C1318 1.435 . S
N1292 C1324 1.423 . S
H1293 C1329 0.932 . S
C1294 N1269 1.433 . S
C1294 C1295 1.363 . S
C1294 C1299 1.370 . S
C1295 H1268 0.929 . S
C1295 C1294 1.363 . S
C1295 C1296 1.385 . S
C1296 H1270 0.930 . S
C1296 C1295 1.385 . S
C1296 C1297 1.357 . S
C1297 C1296 1.357 . S
C1297 C1298 1.406 . S
C1298 H1272 0.929 . S
C1298 C1297 1.406 . S
C1298 C1299 1.391 . S
C1299 H1271 0.931 . S
C1299 C1294 1.370 . S
C1299 C1298 1.391 . S
C1300 N1269 1.435 . S
C1300 C1301 1.358 . S
C1300 C1305 1.371 . S
C1301 H1273 0.930 . S
C1301 C1300 1.358 . S
C1301 C1302 1.405 . S
C1302 H1274 0.932 . S
C1302 C1301 1.405 . S
C1302 C1303 1.383 . S
C1303 C1302 1.383 . S
C1303 C1304 1.393 . S
C1304 H1276 0.931 . S
C1304 C1303 1.393 . S
C1304 C1305 1.382 . S
C1305 H1275 0.929 . S
C1305 C1300 1.371 . S
C1305 C1304 1.382 . S
C1306 N1269 1.423 . S
C1306 C1307 1.362 . S
C1306 C1311 1.388 . S
C1307 H1277 0.929 . S
C1307 C1306 1.362 . S
C1307 C1308 1.376 . S
C1308 H1279 0.931 . S
C1308 C1307 1.376 . S
C1308 C1309 1.396 . S
C1309 C1308 1.396 . S
C1309 C1310 1.348 . S
C1309 C1327 1.472 . S
C1310 H1280 0.929 . S
C1310 C1309 1.348 . S
C1310 C1311 1.443 . S
C1311 H1278 0.932 . S
C1311 C1306 1.388 . S
C1311 C1310 1.443 . S
C1312 N1292 1.433 . S
C1312 C1313 1.363 . S
C1312 C1317 1.370 . S
C1313 H1281 0.929 . S
C1313 C1312 1.363 . S
C1313 C1314 1.385 . S
C1314 H1282 0.930 . S
C1314 C1313 1.385 . S
C1314 C1315 1.357 . S
C1315 C1314 1.357 . S
C1315 C1316 1.406 . S
C1316 H1283 0.929 . S
C1316 C1315 1.406 . S
C1316 C1317 1.391 . S
C1317 H1284 0.931 . S
C1317 C1312 1.370 . S
C1317 C1316 1.391 . S
C1318 N1292 1.435 . S
C1318 C1319 1.358 . S
C1318 C1323 1.371 . S
C1319 H1285 0.930 . S
C1319 C1318 1.358 . S
C1319 C1320 1.405 . S
C1320 H1286 0.932 . S
C1320 C1319 1.405 . S
C1320 C1321 1.383 . S
C1321 C1320 1.383 . S
C1321 C1322 1.393 . S
C1322 H1287 0.931 . S
C1322 C1321 1.393 . S
C1322 C1323 1.382 . S
C1323 H1288 0.929 . S
C1323 C1318 1.371 . S
C1323 C1322 1.382 . S
C1324 N1292 1.423 . S
C1324 C1325 1.362 . S
C1324 C1329 1.388 . S
C1325 H1289 0.929 . S
C1325 C1324 1.362 . S
C1325 C1326 1.376 . S
C1326 H1290 0.931 . S
C1326 C1325 1.376 . S
C1326 C1327 1.396 . S
C1327 C1309 1.472 . S
C1327 C1326 1.396 . S
C1327 C1328 1.348 . S
C1328 H1291 0.929 . S
C1328 C1327 1.348 . S
C1328 C1329 1.443 . S
C1329 H1293 0.932 . S
C1329 C1324 1.388 . S
C1329 C1328 1.443 . S
H1330 C1357 0.929 . S
N1331 C1356 1.433 . S
N1331 C1362 1.435 . S
N1331 C1368 1.423 . S
H1332 C1358 0.930 . S
H1333 C1361 0.931 . S
H1334 C1360 0.929 . S
H1335 C1363 0.930 . S
H1336 C1364 0.932 . S
H1337 C1367 0.929 . S
H1338 C1366 0.931 . S
H1339 C1369 0.929 . S
H1340 C1373 0.932 1_545 S
H1341 C1370 0.931 . S
H1342 C1372 0.929 . S
H1343 C1375 0.929 . S
H1344 C1376 0.930 . S
H1345 C1378 0.929 . S
H1346 C1379 0.931 . S
H1347 C1381 0.930 . S
H1348 C1382 0.932 . S
H1349 C1384 0.931 . S
H1350 C1385 0.929 . S
H1351 C1387 0.929 . S
H1352 C1388 0.931 . S
H1353 C1390 0.929 . S
N1354 C1374 1.433 . S
N1354 C1380 1.435 . S
N1354 C1386 1.423 . S
H1355 C1391 0.932 1_545 S
C1356 N1331 1.433 . S
C1356 C1357 1.363 . S
C1356 C1361 1.370 1_565 S
C1357 H1330 0.929 . S
C1357 C1356 1.363 . S
C1357 C1358 1.385 . S
C1358 H1332 0.930 . S
C1358 C1357 1.385 . S
C1358 C1359 1.357 1_565 S
C1359 C1358 1.357 1_545 S
C1359 C1360 1.406 . S
C1360 H1334 0.929 . S
C1360 C1359 1.406 . S
C1360 C1361 1.391 . S
C1361 H1333 0.931 . S
C1361 C1356 1.370 1_545 S
C1361 C1360 1.391 . S
C1362 N1331 1.435 . S
C1362 C1363 1.358 1_565 S
C1362 C1367 1.371 . S
C1363 H1335 0.930 . S
C1363 C1362 1.358 1_545 S
C1363 C1364 1.405 . S
C1364 H1336 0.932 . S
C1364 C1363 1.405 . S
C1364 C1365 1.383 1_545 S
C1365 C1364 1.383 1_565 S
C1365 C1366 1.393 . S
C1366 H1338 0.931 . S
C1366 C1365 1.393 . S
C1366 C1367 1.382 . S
C1367 H1337 0.929 . S
C1367 C1362 1.371 . S
C1367 C1366 1.382 . S
C1368 N1331 1.423 . S
C1368 C1369 1.362 . S
C1368 C1373 1.388 . S
C1369 H1339 0.929 . S
C1369 C1368 1.362 . S
C1369 C1370 1.376 . S
C1370 H1341 0.931 . S
C1370 C1369 1.376 . S
C1370 C1371 1.396 . S
C1371 C1370 1.396 . S
C1371 C1372 1.348 . S
C1371 C1389 1.472 . S
C1372 H1342 0.929 . S
C1372 C1371 1.348 . S
C1372 C1373 1.443 . S
C1373 H1340 0.932 1_565 S
C1373 C1368 1.388 . S
C1373 C1372 1.443 . S
C1374 N1354 1.433 . S
C1374 C1375 1.363 . S
C1374 C1379 1.370 1_565 S
C1375 H1343 0.929 . S
C1375 C1374 1.363 . S
C1375 C1376 1.385 . S
C1376 H1344 0.930 . S
C1376 C1375 1.385 . S
C1376 C1377 1.357 1_565 S
C1377 C1376 1.357 1_545 S
C1377 C1378 1.406 . S
C1378 H1345 0.929 . S
C1378 C1377 1.406 . S
C1378 C1379 1.391 . S
C1379 H1346 0.931 . S
C1379 C1374 1.370 1_545 S
C1379 C1378 1.391 . S
C1380 N1354 1.435 . S
C1380 C1381 1.358 1_565 S
C1380 C1385 1.371 . S
C1381 H1347 0.930 . S
C1381 C1380 1.358 1_545 S
C1381 C1382 1.405 . S
C1382 H1348 0.932 . S
C1382 C1381 1.405 . S
C1382 C1383 1.383 1_545 S
C1383 C1382 1.383 1_565 S
C1383 C1384 1.393 . S
C1384 H1349 0.931 . S
C1384 C1383 1.393 . S
C1384 C1385 1.382 . S
C1385 H1350 0.929 . S
C1385 C1380 1.371 . S
C1385 C1384 1.382 . S
C1386 N1354 1.423 . S
C1386 C1387 1.362 . S
C1386 C1391 1.388 . S
C1387 H1351 0.929 . S
C1387 C1386 1.362 . S
C1387 C1388 1.376 . S
C1388 H1352 0.931 . S
C1388 C1387 1.376 . S
C1388 C1389 1.396 . S
C1389 C1371 1.472 . S
C1389 C1388 1.396 . S
C1389 C1390 1.348 . S
C1390 H1353 0.929 . S
C1390 C1389 1.348 . S
C1390 C1391 1.443 . S
C1391 H1355 0.932 1_565 S
C1391 C1386 1.388 . S
C1391 C1390 1.443 . S
H1392 C1419 0.929 . S
N1393 C1418 1.433 . S
N1393 C1424 1.435 . S
N1393 C1430 1.423 . S
H1394 C1420 0.930 . S
H1395 C1423 0.930 . S
H1396 C1422 0.929 . S
H1397 C1425 0.930 . S
H1398 C1426 0.932 . S
H1399 C1429 0.929 . S
H1400 C1428 0.931 . S
H1401 C1431 0.929 . S
H1402 C1435 0.932 . S
H1403 C1432 0.931 . S
H1404 C1434 0.921 1_545 S
H1405 C1437 0.929 . S
H1406 C1438 0.930 . S
H1407 C1440 0.929 . S
H1408 C1441 0.972 . S
H1409 C1443 0.930 . S
H1410 C1444 0.932 . S
H1411 C1446 0.931 . S
H1412 C1447 0.929 . S
H1413 C1449 0.929 . S
H1414 C1450 0.931 . S
H1415 C1452 0.901 1_545 S
N1416 C1436 1.433 . S
N1416 C1442 1.435 . S
N1416 C1448 1.423 . S
H1417 C1453 0.932 . S
C1418 N1393 1.433 . S
C1418 C1419 1.363 . S
C1418 C1423 1.364 1_565 S
C1419 H1392 0.929 . S
C1419 C1418 1.363 . S
C1419 C1420 1.385 . S
C1420 H1394 0.930 . S
C1420 C1419 1.385 . S
C1420 C1421 1.357 . S
C1421 C1420 1.357 . S
C1421 C1422 1.406 1_565 S
C1422 H1396 0.929 . S
C1422 C1421 1.406 1_545 S
C1422 C1423 1.402 . S
C1423 H1395 0.930 . S
C1423 C1418 1.364 1_545 S
C1423 C1422 1.402 . S
C1424 N1393 1.435 . S
C1424 C1425 1.358 1_565 S
C1424 C1429 1.371 . S
C1425 H1397 0.930 . S
C1425 C1424 1.358 1_545 S
C1425 C1426 1.405 . S
C1426 H1398 0.932 . S
C1426 C1425 1.405 . S
C1426 C1427 1.383 . S
C1427 C1426 1.383 . S
C1427 C1428 1.393 1_545 S
C1428 H1400 0.931 . S
C1428 C1427 1.393 1_565 S
C1428 C1429 1.382 . S
C1429 H1399 0.929 . S
C1429 C1424 1.371 . S
C1429 C1428 1.382 . S
C1430 N1393 1.423 . S
C1430 C1431 1.362 . S
C1430 C1435 1.388 1_565 S
C1431 H1401 0.929 . S
C1431 C1430 1.362 . S
C1431 C1432 1.376 . S
C1432 H1403 0.931 . S
C1432 C1431 1.376 . S
C1432 C1433 1.396 . S
C1433 C1432 1.396 . S
C1433 C1434 1.380 . S
C1433 C1451 1.472 . S
C1434 H1404 0.921 1_565 S
C1434 C1433 1.380 . S
C1434 C1435 1.420 1_565 S
C1435 H1402 0.932 . S
C1435 C1430 1.388 1_545 S
C1435 C1434 1.420 1_545 S
C1436 N1416 1.433 . S
C1436 C1437 1.363 . S
C1436 C1441 1.338 1_565 S
C1437 H1405 0.929 . S
C1437 C1436 1.363 . S
C1437 C1438 1.385 . S
C1438 H1406 0.930 . S
C1438 C1437 1.385 . S
C1438 C1439 1.357 . S
C1439 C1438 1.357 . S
C1439 C1440 1.406 1_565 S
C1440 H1407 0.929 . S
C1440 C1439 1.406 1_545 S
C1440 C1441 1.384 . S
C1441 H1408 0.972 . S
C1441 C1436 1.338 1_545 S
C1441 C1440 1.384 . S
C1442 N1416 1.435 . S
C1442 C1443 1.358 1_565 S
C1442 C1447 1.371 . S
C1443 H1409 0.930 . S
C1443 C1442 1.358 1_545 S
C1443 C1444 1.405 . S
C1444 H1410 0.932 . S
C1444 C1443 1.405 . S
C1444 C1445 1.383 . S
C1445 C1444 1.383 . S
C1445 C1446 1.393 1_545 S
C1446 H1411 0.931 . S
C1446 C1445 1.393 1_565 S
C1446 C1447 1.382 . S
C1447 H1412 0.929 . S
C1447 C1442 1.371 . S
C1447 C1446 1.382 . S
C1448 N1416 1.423 . S
C1448 C1449 1.362 . S
C1448 C1453 1.388 1_565 S
C1449 H1413 0.929 . S
C1449 C1448 1.362 . S
C1449 C1450 1.376 . S
C1450 H1414 0.931 . S
C1450 C1449 1.376 . S
C1450 C1451 1.396 . S
C1451 C1433 1.472 . S
C1451 C1450 1.396 . S
C1451 C1452 1.360 . S
C1452 H1415 0.901 1_565 S
C1452 C1451 1.360 . S
C1452 C1453 1.459 1_565 S
C1453 H1417 0.932 . S
C1453 C1448 1.388 1_545 S
C1453 C1452 1.459 1_545 S
H1454 C1481 0.929 . S
N1455 C1480 1.433 . S
N1455 C1486 1.435 . S
N1455 C1492 1.423 . S
H1456 C1482 0.930 . S
H1457 C1485 0.931 . S
H1458 C1484 0.929 . S
H1459 C1487 0.930 . S
H1460 C1488 0.932 . S
H1461 C1491 0.929 . S
H1462 C1490 0.931 . S
H1463 C1493 0.929 . S
H1464 C1497 0.932 1_455 S
H1465 C1494 0.931 . S
H1466 C1496 0.929 . S
H1467 C1499 0.929 . S
H1468 C1500 0.930 . S
H1469 C1502 0.929 . S
H1470 C1503 0.931 . S
H1471 C1505 0.930 . S
H1472 C1506 0.932 . S
H1473 C1508 0.931 . S
H1474 C1509 0.929 . S
H1475 C1511 0.929 . S
H1476 C1512 0.931 . S
H1477 C1514 0.929 . S
N1478 C1498 1.433 . S
N1478 C1504 1.435 . S
N1478 C1510 1.423 . S
H1479 C1515 0.932 1_455 S
C1480 N1455 1.433 . S
C1480 C1481 1.363 . S
C1480 C1485 1.370 1_655 S
C1481 H1454 0.929 . S
C1481 C1480 1.363 . S
C1481 C1482 1.385 . S
C1482 H1456 0.930 . S
C1482 C1481 1.385 . S
C1482 C1483 1.357 1_655 S
C1483 C1482 1.357 1_455 S
C1483 C1484 1.406 . S
C1484 H1458 0.929 . S
C1484 C1483 1.406 . S
C1484 C1485 1.391 . S
C1485 H1457 0.931 . S
C1485 C1480 1.370 1_455 S
C1485 C1484 1.391 . S
C1486 N1455 1.435 . S
C1486 C1487 1.358 1_655 S
C1486 C1491 1.371 . S
C1487 H1459 0.930 . S
C1487 C1486 1.358 1_455 S
C1487 C1488 1.405 . S
C1488 H1460 0.932 . S
C1488 C1487 1.405 . S
C1488 C1489 1.383 1_455 S
C1489 C1488 1.383 1_655 S
C1489 C1490 1.393 . S
C1490 H1462 0.931 . S
C1490 C1489 1.393 . S
C1490 C1491 1.382 . S
C1491 H1461 0.929 . S
C1491 C1486 1.371 . S
C1491 C1490 1.382 . S
C1492 N1455 1.423 . S
C1492 C1493 1.362 . S
C1492 C1497 1.388 . S
C1493 H1463 0.929 . S
C1493 C1492 1.362 . S
C1493 C1494 1.376 . S
C1494 H1465 0.931 . S
C1494 C1493 1.376 . S
C1494 C1495 1.396 . S
C1495 C1494 1.396 . S
C1495 C1496 1.348 . S
C1495 C1513 1.472 . S
C1496 H1466 0.929 . S
C1496 C1495 1.348 . S
C1496 C1497 1.443 . S
C1497 H1464 0.932 1_655 S
C1497 C1492 1.388 . S
C1497 C1496 1.443 . S
C1498 N1478 1.433 . S
C1498 C1499 1.363 . S
C1498 C1503 1.370 1_655 S
C1499 H1467 0.929 . S
C1499 C1498 1.363 . S
C1499 C1500 1.385 . S
C1500 H1468 0.930 . S
C1500 C1499 1.385 . S
C1500 C1501 1.357 1_655 S
C1501 C1500 1.357 1_455 S
C1501 C1502 1.406 . S
C1502 H1469 0.929 . S
C1502 C1501 1.406 . S
C1502 C1503 1.391 . S
C1503 H1470 0.931 . S
C1503 C1498 1.370 1_455 S
C1503 C1502 1.391 . S
C1504 N1478 1.435 . S
C1504 C1505 1.358 1_655 S
C1504 C1509 1.371 . S
C1505 H1471 0.930 . S
C1505 C1504 1.358 1_455 S
C1505 C1506 1.405 . S
C1506 H1472 0.932 . S
C1506 C1505 1.405 . S
C1506 C1507 1.383 1_455 S
C1507 C1506 1.383 1_655 S
C1507 C1508 1.393 . S
C1508 H1473 0.931 . S
C1508 C1507 1.393 . S
C1508 C1509 1.382 . S
C1509 H1474 0.929 . S
C1509 C1504 1.371 . S
C1509 C1508 1.382 . S
C1510 N1478 1.423 . S
C1510 C1511 1.362 . S
C1510 C1515 1.388 . S
C1511 H1475 0.929 . S
C1511 C1510 1.362 . S
C1511 C1512 1.376 . S
C1512 H1476 0.931 . S
C1512 C1511 1.376 . S
C1512 C1513 1.396 . S
C1513 C1495 1.472 . S
C1513 C1512 1.396 . S
C1513 C1514 1.348 . S
C1514 H1477 0.929 . S
C1514 C1513 1.348 . S
C1514 C1515 1.443 . S
C1515 H1479 0.932 1_655 S
C1515 C1510 1.388 . S
C1515 C1514 1.443 . S
H1516 C1543 0.929 . S
N1517 C1542 1.433 . S
N1517 C1548 1.435 . S
N1517 C1554 1.423 . S
H1518 C1544 0.930 . S
H1519 C1547 0.931 . S
H1520 C1546 0.929 . S
H1521 C1549 0.930 . S
H1522 C1550 0.932 . S
H1523 C1553 0.929 . S
H1524 C1552 0.931 . S
H1525 C1555 0.929 . S
H1526 C1559 0.932 . S
H1527 C1556 0.931 . S
H1528 C1558 0.929 . S
H1529 C1561 0.929 . S
H1530 C1562 0.930 . S
H1531 C1564 0.929 . S
H1532 C1565 0.931 . S
H1533 C1567 0.930 . S
H1534 C1568 0.932 . S
H1535 C1570 0.931 . S
H1536 C1571 0.929 . S
H1537 C1573 0.929 . S
H1538 C1574 0.931 . S
H1539 C1576 0.929 . S
N1540 C1560 1.433 . S
N1540 C1566 1.435 . S
N1540 C1572 1.423 . S
H1541 C1577 0.932 . S
C1542 N1517 1.433 . S
C1542 C1543 1.363 . S
C1542 C1547 1.370 . S
C1543 H1516 0.929 . S
C1543 C1542 1.363 . S
C1543 C1544 1.385 . S
C1544 H1518 0.930 . S
C1544 C1543 1.385 . S
C1544 C1545 1.357 . S
C1545 C1544 1.357 . S
C1545 C1546 1.406 . S
C1546 H1520 0.929 . S
C1546 C1545 1.406 . S
C1546 C1547 1.391 . S
C1547 H1519 0.931 . S
C1547 C1542 1.370 . S
C1547 C1546 1.391 . S
C1548 N1517 1.435 . S
C1548 C1549 1.358 . S
C1548 C1553 1.371 . S
C1549 H1521 0.930 . S
C1549 C1548 1.358 . S
C1549 C1550 1.405 . S
C1550 H1522 0.932 . S
C1550 C1549 1.405 . S
C1550 C1551 1.383 . S
C1551 C1550 1.383 . S
C1551 C1552 1.393 . S
C1552 H1524 0.931 . S
C1552 C1551 1.393 . S
C1552 C1553 1.382 . S
C1553 H1523 0.929 . S
C1553 C1548 1.371 . S
C1553 C1552 1.382 . S
C1554 N1517 1.423 . S
C1554 C1555 1.362 . S
C1554 C1559 1.388 . S
C1555 H1525 0.929 . S
C1555 C1554 1.362 . S
C1555 C1556 1.376 . S
C1556 H1527 0.931 . S
C1556 C1555 1.376 . S
C1556 C1557 1.396 . S
C1557 C1556 1.396 . S
C1557 C1558 1.348 . S
C1557 C1575 1.472 . S
C1558 H1528 0.929 . S
C1558 C1557 1.348 . S
C1558 C1559 1.443 . S
C1559 H1526 0.932 . S
C1559 C1554 1.388 . S
C1559 C1558 1.443 . S
C1560 N1540 1.433 . S
C1560 C1561 1.363 . S
C1560 C1565 1.370 . S
C1561 H1529 0.929 . S
C1561 C1560 1.363 . S
C1561 C1562 1.385 . S
C1562 H1530 0.930 . S
C1562 C1561 1.385 . S
C1562 C1563 1.357 . S
C1563 C1562 1.357 . S
C1563 C1564 1.406 . S
C1564 H1531 0.929 . S
C1564 C1563 1.406 . S
C1564 C1565 1.391 . S
C1565 H1532 0.931 . S
C1565 C1560 1.370 . S
C1565 C1564 1.391 . S
C1566 N1540 1.435 . S
C1566 C1567 1.358 . S
C1566 C1571 1.371 . S
C1567 H1533 0.930 . S
C1567 C1566 1.358 . S
C1567 C1568 1.405 . S
C1568 H1534 0.932 . S
C1568 C1567 1.405 . S
C1568 C1569 1.383 . S
C1569 C1568 1.383 . S
C1569 C1570 1.393 . S
C1570 H1535 0.931 . S
C1570 C1569 1.393 . S
C1570 C1571 1.382 . S
C1571 H1536 0.929 . S
C1571 C1566 1.371 . S
C1571 C1570 1.382 . S
C1572 N1540 1.423 . S
C1572 C1573 1.362 . S
C1572 C1577 1.388 . S
C1573 H1537 0.929 . S
C1573 C1572 1.362 . S
C1573 C1574 1.376 . S
C1574 H1538 0.931 . S
C1574 C1573 1.376 . S
C1574 C1575 1.396 . S
C1575 C1557 1.472 . S
C1575 C1574 1.396 . S
C1575 C1576 1.348 . S
C1576 H1539 0.929 . S
C1576 C1575 1.348 . S
C1576 C1577 1.443 . S
C1577 H1541 0.932 . S
C1577 C1572 1.388 . S
C1577 C1576 1.443 . S
H1578 C1605 0.929 . S
N1579 C1604 1.433 . S
N1579 C1610 1.435 . S
N1579 C1616 1.423 . S
H1580 C1606 0.930 . S
H1581 C1609 0.931 . S
H1582 C1608 0.929 . S
H1583 C1611 0.930 . S
H1584 C1612 0.932 . S
H1585 C1615 0.929 . S
H1586 C1614 0.931 . S
H1587 C1617 0.929 . S
H1588 C1621 0.932 . S
H1589 C1618 0.931 . S
H1590 C1620 0.929 . S
H1591 C1623 0.929 . S
H1592 C1624 0.930 . S
H1593 C1626 0.929 . S
H1594 C1627 0.931 . S
H1595 C1629 0.930 . S
H1596 C1630 0.932 . S
H1597 C1632 0.931 . S
H1598 C1633 0.929 . S
H1599 C1635 0.929 . S
H1600 C1636 0.931 . S
H1601 C1638 0.929 . S
N1602 C1622 1.433 . S
N1602 C1628 1.435 . S
N1602 C1634 1.423 . S
H1603 C1639 0.932 . S
C1604 N1579 1.433 . S
C1604 C1605 1.363 . S
C1604 C1609 1.370 . S
C1605 H1578 0.929 . S
C1605 C1604 1.363 . S
C1605 C1606 1.385 . S
C1606 H1580 0.930 . S
C1606 C1605 1.385 . S
C1606 C1607 1.357 . S
C1607 C1606 1.357 . S
C1607 C1608 1.406 . S
C1608 H1582 0.929 . S
C1608 C1607 1.406 . S
C1608 C1609 1.391 . S
C1609 H1581 0.931 . S
C1609 C1604 1.370 . S
C1609 C1608 1.391 . S
C1610 N1579 1.435 . S
C1610 C1611 1.358 . S
C1610 C1615 1.371 . S
C1611 H1583 0.930 . S
C1611 C1610 1.358 . S
C1611 C1612 1.405 . S
C1612 H1584 0.932 . S
C1612 C1611 1.405 . S
C1612 C1613 1.383 . S
C1613 C1612 1.383 . S
C1613 C1614 1.393 . S
C1614 H1586 0.931 . S
C1614 C1613 1.393 . S
C1614 C1615 1.382 . S
C1615 H1585 0.929 . S
C1615 C1610 1.371 . S
C1615 C1614 1.382 . S
C1616 N1579 1.423 . S
C1616 C1617 1.362 . S
C1616 C1621 1.388 . S
C1617 H1587 0.929 . S
C1617 C1616 1.362 . S
C1617 C1618 1.376 . S
C1618 H1589 0.931 . S
C1618 C1617 1.376 . S
C1618 C1619 1.396 . S
C1619 C1618 1.396 . S
C1619 C1620 1.348 . S
C1619 C1637 1.472 . S
C1620 H1590 0.929 . S
C1620 C1619 1.348 . S
C1620 C1621 1.443 . S
C1621 H1588 0.932 . S
C1621 C1616 1.388 . S
C1621 C1620 1.443 . S
C1622 N1602 1.433 . S
C1622 C1623 1.363 . S
C1622 C1627 1.370 . S
C1623 H1591 0.929 . S
C1623 C1622 1.363 . S
C1623 C1624 1.385 . S
C1624 H1592 0.930 . S
C1624 C1623 1.385 . S
C1624 C1625 1.357 . S
C1625 C1624 1.357 . S
C1625 C1626 1.406 . S
C1626 H1593 0.929 . S
C1626 C1625 1.406 . S
C1626 C1627 1.391 . S
C1627 H1594 0.931 . S
C1627 C1622 1.370 . S
C1627 C1626 1.391 . S
C1628 N1602 1.435 . S
C1628 C1629 1.358 . S
C1628 C1633 1.371 . S
C1629 H1595 0.930 . S
C1629 C1628 1.358 . S
C1629 C1630 1.405 . S
C1630 H1596 0.932 . S
C1630 C1629 1.405 . S
C1630 C1631 1.383 . S
C1631 C1630 1.383 . S
C1631 C1632 1.393 . S
C1632 H1597 0.931 . S
C1632 C1631 1.393 . S
C1632 C1633 1.382 . S
C1633 H1598 0.929 . S
C1633 C1628 1.371 . S
C1633 C1632 1.382 . S
C1634 N1602 1.423 . S
C1634 C1635 1.362 . S
C1634 C1639 1.388 . S
C1635 H1599 0.929 . S
C1635 C1634 1.362 . S
C1635 C1636 1.376 . S
C1636 H1600 0.931 . S
C1636 C1635 1.376 . S
C1636 C1637 1.396 . S
C1637 C1619 1.472 . S
C1637 C1636 1.396 . S
C1637 C1638 1.348 . S
C1638 H1601 0.929 . S
C1638 C1637 1.348 . S
C1638 C1639 1.443 . S
C1639 H1603 0.932 . S
C1639 C1634 1.388 . S
C1639 C1638 1.443 . S
H1640 C1667 0.929 . S
N1641 C1666 1.433 . S
N1641 C1672 1.435 . S
N1641 C1678 1.423 . S
H1642 C1668 0.930 . S
H1643 C1671 0.931 . S
H1644 C1670 0.929 . S
H1645 C1673 0.930 . S
H1646 C1674 0.932 . S
H1647 C1677 0.929 . S
H1648 C1676 0.931 . S
H1649 C1679 0.929 . S
H1650 C1683 0.932 . S
H1651 C1680 0.931 . S
H1652 C1682 0.929 . S
H1653 C1685 0.929 . S
H1654 C1686 0.930 . S
H1655 C1688 0.929 . S
H1656 C1689 0.931 . S
H1657 C1691 0.930 . S
H1658 C1692 0.932 . S
H1659 C1694 0.931 . S
H1660 C1695 0.929 . S
H1661 C1697 0.929 . S
H1662 C1698 0.931 . S
H1663 C1700 0.929 . S
N1664 C1684 1.433 . S
N1664 C1690 1.435 . S
N1664 C1696 1.423 . S
H1665 C1701 0.932 . S
C1666 N1641 1.433 . S
C1666 C1667 1.363 . S
C1666 C1671 1.370 . S
C1667 H1640 0.929 . S
C1667 C1666 1.363 . S
C1667 C1668 1.385 . S
C1668 H1642 0.930 . S
C1668 C1667 1.385 . S
C1668 C1669 1.357 . S
C1669 C1668 1.357 . S
C1669 C1670 1.406 . S
C1670 H1644 0.929 . S
C1670 C1669 1.406 . S
C1670 C1671 1.391 . S
C1671 H1643 0.931 . S
C1671 C1666 1.370 . S
C1671 C1670 1.391 . S
C1672 N1641 1.435 . S
C1672 C1673 1.358 . S
C1672 C1677 1.371 . S
C1673 H1645 0.930 . S
C1673 C1672 1.358 . S
C1673 C1674 1.405 . S
C1674 H1646 0.932 . S
C1674 C1673 1.405 . S
C1674 C1675 1.383 . S
C1675 C1674 1.383 . S
C1675 C1676 1.393 . S
C1676 H1648 0.931 . S
C1676 C1675 1.393 . S
C1676 C1677 1.382 . S
C1677 H1647 0.929 . S
C1677 C1672 1.371 . S
C1677 C1676 1.382 . S
C1678 N1641 1.423 . S
C1678 C1679 1.362 . S
C1678 C1683 1.388 . S
C1679 H1649 0.929 . S
C1679 C1678 1.362 . S
C1679 C1680 1.376 . S
C1680 H1651 0.931 . S
C1680 C1679 1.376 . S
C1680 C1681 1.396 . S
C1681 C1680 1.396 . S
C1681 C1682 1.348 . S
C1681 C1699 1.472 . S
C1682 H1652 0.929 . S
C1682 C1681 1.348 . S
C1682 C1683 1.443 . S
C1683 H1650 0.932 . S
C1683 C1678 1.388 . S
C1683 C1682 1.443 . S
C1684 N1664 1.433 . S
C1684 C1685 1.363 . S
C1684 C1689 1.370 . S
C1685 H1653 0.929 . S
C1685 C1684 1.363 . S
C1685 C1686 1.385 . S
C1686 H1654 0.930 . S
C1686 C1685 1.385 . S
C1686 C1687 1.357 . S
C1687 C1686 1.357 . S
C1687 C1688 1.406 . S
C1688 H1655 0.929 . S
C1688 C1687 1.406 . S
C1688 C1689 1.391 . S
C1689 H1656 0.931 . S
C1689 C1684 1.370 . S
C1689 C1688 1.391 . S
C1690 N1664 1.435 . S
C1690 C1691 1.358 . S
C1690 C1695 1.371 . S
C1691 H1657 0.930 . S
C1691 C1690 1.358 . S
C1691 C1692 1.405 . S
C1692 H1658 0.932 . S
C1692 C1691 1.405 . S
C1692 C1693 1.383 . S
C1693 C1692 1.383 . S
C1693 C1694 1.393 . S
C1694 H1659 0.931 . S
C1694 C1693 1.393 . S
C1694 C1695 1.382 . S
C1695 H1660 0.929 . S
C1695 C1690 1.371 . S
C1695 C1694 1.382 . S
C1696 N1664 1.423 . S
C1696 C1697 1.362 . S
C1696 C1701 1.388 . S
C1697 H1661 0.929 . S
C1697 C1696 1.362 . S
C1697 C1698 1.376 . S
C1698 H1662 0.931 . S
C1698 C1697 1.376 . S
C1698 C1699 1.396 . S
C1699 C1681 1.472 . S
C1699 C1698 1.396 . S
C1699 C1700 1.348 . S
C1700 H1663 0.929 . S
C1700 C1699 1.348 . S
C1700 C1701 1.443 . S
C1701 H1665 0.932 . S
C1701 C1696 1.388 . S
C1701 C1700 1.443 . S
H1702 C1729 0.929 . S
N1703 C1728 1.433 . S
N1703 C1734 1.435 . S
N1703 C1740 1.423 . S
H1704 C1730 0.930 . S
H1705 C1733 0.931 . S
H1706 C1732 0.929 . S
H1707 C1735 0.930 . S
H1708 C1736 0.932 . S
H1709 C1739 0.929 . S
H1710 C1738 0.931 . S
H1711 C1741 0.929 . S
H1712 C1745 0.932 . S
H1713 C1742 0.931 . S
H1714 C1744 0.929 . S
H1715 C1747 0.929 . S
H1716 C1748 0.930 . S
H1717 C1750 0.929 . S
H1718 C1751 0.931 . S
H1719 C1753 0.930 . S
H1720 C1754 0.932 . S
H1721 C1756 0.931 . S
H1722 C1757 0.929 . S
H1723 C1759 0.929 . S
H1724 C1760 0.931 . S
H1725 C1762 0.929 . S
N1726 C1746 1.433 . S
N1726 C1752 1.435 . S
N1726 C1758 1.423 . S
H1727 C1763 0.932 . S
C1728 N1703 1.433 . S
C1728 C1729 1.363 . S
C1728 C1733 1.370 . S
C1729 H1702 0.929 . S
C1729 C1728 1.363 . S
C1729 C1730 1.385 . S
C1730 H1704 0.930 . S
C1730 C1729 1.385 . S
C1730 C1731 1.357 . S
C1731 C1730 1.357 . S
C1731 C1732 1.406 . S
C1732 H1706 0.929 . S
C1732 C1731 1.406 . S
C1732 C1733 1.391 . S
C1733 H1705 0.931 . S
C1733 C1728 1.370 . S
C1733 C1732 1.391 . S
C1734 N1703 1.435 . S
C1734 C1735 1.358 . S
C1734 C1739 1.371 . S
C1735 H1707 0.930 . S
C1735 C1734 1.358 . S
C1735 C1736 1.405 . S
C1736 H1708 0.932 . S
C1736 C1735 1.405 . S
C1736 C1737 1.383 . S
C1737 C1736 1.383 . S
C1737 C1738 1.393 . S
C1738 H1710 0.931 . S
C1738 C1737 1.393 . S
C1738 C1739 1.382 . S
C1739 H1709 0.929 . S
C1739 C1734 1.371 . S
C1739 C1738 1.382 . S
C1740 N1703 1.423 . S
C1740 C1741 1.362 . S
C1740 C1745 1.388 . S
C1741 H1711 0.929 . S
C1741 C1740 1.362 . S
C1741 C1742 1.376 . S
C1742 H1713 0.931 . S
C1742 C1741 1.376 . S
C1742 C1743 1.396 . S
C1743 C1742 1.396 . S
C1743 C1744 1.348 . S
C1743 C1761 1.472 . S
C1744 H1714 0.929 . S
C1744 C1743 1.348 . S
C1744 C1745 1.443 . S
C1745 H1712 0.932 . S
C1745 C1740 1.388 . S
C1745 C1744 1.443 . S
C1746 N1726 1.433 . S
C1746 C1747 1.363 . S
C1746 C1751 1.370 . S
C1747 H1715 0.929 . S
C1747 C1746 1.363 . S
C1747 C1748 1.385 . S
C1748 H1716 0.930 . S
C1748 C1747 1.385 . S
C1748 C1749 1.357 . S
C1749 C1748 1.357 . S
C1749 C1750 1.406 . S
C1750 H1717 0.929 . S
C1750 C1749 1.406 . S
C1750 C1751 1.391 . S
C1751 H1718 0.931 . S
C1751 C1746 1.370 . S
C1751 C1750 1.391 . S
C1752 N1726 1.435 . S
C1752 C1753 1.358 . S
C1752 C1757 1.371 . S
C1753 H1719 0.930 . S
C1753 C1752 1.358 . S
C1753 C1754 1.405 . S
C1754 H1720 0.932 . S
C1754 C1753 1.405 . S
C1754 C1755 1.383 . S
C1755 C1754 1.383 . S
C1755 C1756 1.393 . S
C1756 H1721 0.931 . S
C1756 C1755 1.393 . S
C1756 C1757 1.382 . S
C1757 H1722 0.929 . S
C1757 C1752 1.371 . S
C1757 C1756 1.382 . S
C1758 N1726 1.423 . S
C1758 C1759 1.362 . S
C1758 C1763 1.388 . S
C1759 H1723 0.929 . S
C1759 C1758 1.362 . S
C1759 C1760 1.376 . S
C1760 H1724 0.931 . S
C1760 C1759 1.376 . S
C1760 C1761 1.396 . S
C1761 C1743 1.472 . S
C1761 C1760 1.396 . S
C1761 C1762 1.348 . S
C1762 H1725 0.929 . S
C1762 C1761 1.348 . S
C1762 C1763 1.443 . S
C1763 H1727 0.932 . S
C1763 C1758 1.388 . S
C1763 C1762 1.443 . S
C4 C1253 1.930 1_455 S
C38 C1297 2.315 . S
C1377 C74 1.943 . S
C76 C1421 1.864 . S
C2 C1501 1.935 . S
C40 C1563 1.999 . S
C110 C1483 1.916 . S
C1545 C148 2.066 . S
C1439 C182 2.097 1_565 S
C184 C1359 1.789 . S
C1235 C112 1.914 1_655 S
C146 C1315 2.204 . S
C220 C1625 2.128 . S
C254 C1669 2.432 . S
C1749 C290 2.221 . S
C292 C695 1.928 . S
C218 C739 2.244 . S
C256 C819 2.057 . S
C326 C757 2.323 . S
C364 C801 2.164 . S
C677 C398 2.225 . S
C1731 C400 1.999 . S
C1607 C328 2.026 . S
C1687 C362 2.309 . S
C436 C881 2.100 . S
C470 C943 2.255 . S
C506 C987 2.358 . S
C508 C1049 2.103 . S
C1111 C434 2.259 . S
C1191 C472 2.084 . S
C1129 C542 2.359 . S
C1173 C580 2.172 . S
C614 C1067 2.380 . S
C1005 C616 2.090 . S
C544 C863 2.015 . S
C925 C578 2.132 . S
C701 C14 1.977 . S
C39 C745 1.814 . S
C825 C75 1.716 . S
C887 C86 1.674 . S
C949 C3 1.730 . S
C993 C50 1.979 . S
C111 C1011 1.776 . S
C158 C869 1.846 . S
C183 C931 1.916 . S
C194 C763 1.975 . S
C807 C122 1.868 . S
C147 C683 1.558 . S
C1055 C230 2.066 . S
C255 C1117 1.838 . S
C291 C1197 1.726 . S
C1259 C302 1.446 . S
C219 C1303 1.763 . S
C266 C1383 1.498 . S
C327 C1365 1.350 . S
C374 C1241 1.576 . S
C1321 C399 1.937 . S
C410 C1135 1.958 . S
C338 C1179 1.854 . S
C1073 C363 1.673 . S
C1427 C446 1.688 . S
C471 C1507 1.448 . S
C507 C1569 1.665 . S
C1631 C518 1.677 . S
C1675 C435 1.831 . S
C482 C1755 1.881 . S
C543 C1737 1.669 . S
C590 C1613 1.857 . S
C1693 C615 1.987 . S
C1489 C626 1.513 . S
C1551 C554 1.803 . S
C579 C1445 1.392 . S
