# Generated by pormake.
# Topology pyr, (3,6)-cn, num edge types: 1
# Building blocks:
#     Node 0, Type 0, BuildingBlock: MIDCAF_clean_linker_0, # of connection points: 3
#     Node 1, Type 0, BuildingBlock: MIDCAF_clean_linker_0, # of connection points: 3
#     Node 2, Type 0, BuildingBlock: MIDCAF_clean_linker_0, # of connection points: 3
#     Node 3, Type 0, BuildingBlock: MIDCAF_clean_linker_0, # of connection points: 3
#     Node 4, Type 0, BuildingBlock: MIDCAF_clean_linker_0, # of connection points: 3
#     Node 5, Type 0, BuildingBlock: MIDCAF_clean_linker_0, # of connection points: 3
#     Node 6, Type 0, BuildingBlock: MIDCAF_clean_linker_0, # of connection points: 3
#     Node 7, Type 0, BuildingBlock: MIDCAF_clean_linker_0, # of connection points: 3
#     Node 8, Type 1, BuildingBlock: BETDEL_clean_sbu_0, # of connection points: 6
#     Node 9, Type 1, BuildingBlock: BETDEL_clean_sbu_0, # of connection points: 6
#     Node 10, Type 1, BuildingBlock: BETDEL_clean_sbu_0, # of connection points: 6
#     Node 11, Type 1, BuildingBlock: BETDEL_clean_sbu_0, # of connection points: 6
#     Edge 12, Type (0, 1), BuildingBlock: TEMPAE_clean_linker_10, # of connection points: 2
#     Edge 13, Type (0, 1), BuildingBlock: TEMPAE_clean_linker_10, # of connection points: 2
#     Edge 14, Type (0, 1), BuildingBlock: TEMPAE_clean_linker_10, # of connection points: 2
#     Edge 15, Type (0, 1), BuildingBlock: TEMPAE_clean_linker_10, # of connection points: 2
#     Edge 16, Type (0, 1), BuildingBlock: TEMPAE_clean_linker_10, # of connection points: 2
#     Edge 17, Type (0, 1), BuildingBlock: TEMPAE_clean_linker_10, # of connection points: 2
#     Edge 18, Type (0, 1), BuildingBlock: TEMPAE_clean_linker_10, # of connection points: 2
#     Edge 19, Type (0, 1), BuildingBlock: TEMPAE_clean_linker_10, # of connection points: 2
#     Edge 20, Type (0, 1), BuildingBlock: TEMPAE_clean_linker_10, # of connection points: 2
#     Edge 21, Type (0, 1), BuildingBlock: TEMPAE_clean_linker_10, # of connection points: 2
#     Edge 22, Type (0, 1), BuildingBlock: TEMPAE_clean_linker_10, # of connection points: 2
#     Edge 23, Type (0, 1), BuildingBlock: TEMPAE_clean_linker_10, # of connection points: 2
#     Edge 24, Type (0, 1), BuildingBlock: TEMPAE_clean_linker_10, # of connection points: 2
#     Edge 25, Type (0, 1), BuildingBlock: TEMPAE_clean_linker_10, # of connection points: 2
#     Edge 26, Type (0, 1), BuildingBlock: TEMPAE_clean_linker_10, # of connection points: 2
#     Edge 27, Type (0, 1), BuildingBlock: TEMPAE_clean_linker_10, # of connection points: 2
#     Edge 28, Type (0, 1), BuildingBlock: TEMPAE_clean_linker_10, # of connection points: 2
#     Edge 29, Type (0, 1), BuildingBlock: TEMPAE_clean_linker_10, # of connection points: 2
#     Edge 30, Type (0, 1), BuildingBlock: TEMPAE_clean_linker_10, # of connection points: 2
#     Edge 31, Type (0, 1), BuildingBlock: TEMPAE_clean_linker_10, # of connection points: 2
#     Edge 32, Type (0, 1), BuildingBlock: TEMPAE_clean_linker_10, # of connection points: 2
#     Edge 33, Type (0, 1), BuildingBlock: TEMPAE_clean_linker_10, # of connection points: 2
#     Edge 34, Type (0, 1), BuildingBlock: TEMPAE_clean_linker_10, # of connection points: 2
#     Edge 35, Type (0, 1), BuildingBlock: TEMPAE_clean_linker_10, # of connection points: 2
# Relax obj value: 0.028
# Max RMSD: 0.091
# Mean RMSD: 0.039
data_MOF--net-pyr--node1-BETDEL_clean_sbu_0--node2-MIDCAF_clean_linker_0--edge1-TEMPAE_clean_linker_10
_symmetry_space_group_name_H-M    P1
_symmetry_Int_Tables_number       1
_symmetry_cell_setting            triclinic
loop_
_symmetry_equiv_pos_as_xyz
'x, y, z'
_cell_length_a     45.419752
_cell_length_b     47.173133
_cell_length_c     43.574293
_cell_angle_alpha  91.63818
_cell_angle_beta   89.120524
_cell_angle_gamma 94.523977
loop_
_atom_site_label
_atom_site_type_symbol
_atom_site_fract_x
_atom_site_fract_y
_atom_site_fract_z
_atom_type_partial_charge
C0 C 0.13373 0.18809 0.25503 0.0
C1 C 0.1424 0.16563 0.27235 0.0
C2 C 0.17203 0.15902 0.27107 0.0
C3 C 0.19238 0.17394 0.252 0.0
H4 H 0.27971 0.17554 0.21651 0.0
H5 H 0.32244 0.1504 0.20032 0.0
H6 H 0.32047 0.188 0.11109 0.0
H7 H 0.27887 0.21396 0.12766 0.0
H8 H 0.23027 0.25471 0.11253 0.0
H9 H 0.20843 0.28748 0.07852 0.0
H10 H 0.1495 0.31135 0.1518 0.0
H11 H 0.17101 0.27865 0.18573 0.0
H12 H 0.14647 0.21997 0.22258 0.0
H13 H 0.1111 0.19384 0.25592 0.0
H14 H 0.17926 0.14166 0.28407 0.0
H15 H 0.21486 0.1678 0.25096 0.0
N16 N 0.23066 0.19911 0.20489 0.0
N17 N 0.23921 0.2312 0.16501 0.0
N18 N 0.19559 0.23123 0.19437 0.0
C19 C 0.24833 0.20987 0.18189 0.0
C20 C 0.21302 0.24218 0.17135 0.0
C21 C 0.2042 0.20968 0.21123 0.0
C22 C 0.2758 0.19662 0.17332 0.0
C23 C 0.28869 0.17869 0.19358 0.0
C24 C 0.31309 0.16417 0.18424 0.0
C25 C 0.32482 0.16699 0.15432 0.0
C26 C 0.31242 0.18565 0.13447 0.0
C27 C 0.28835 0.20045 0.14393 0.0
C28 C 0.20222 0.26403 0.15176 0.0
C29 C 0.21295 0.26727 0.1215 0.0
C30 C 0.20041 0.28585 0.10199 0.0
C31 C 0.17736 0.30183 0.11262 0.0
C32 C 0.16746 0.29942 0.14317 0.0
C33 C 0.17965 0.28058 0.16251 0.0
C34 C 0.18355 0.19589 0.23391 0.0
C35 C 0.1541 0.20316 0.23611 0.0
C36 C 0.22862 0.90034 0.62614 0.0
C37 C 0.21157 0.88703 0.60239 0.0
C38 C 0.21591 0.8586 0.59399 0.0
C39 C 0.23638 0.8437 0.60943 0.0
H40 H 0.2927 0.7745 0.60088 0.0
H41 H 0.31384 0.73105 0.58188 0.0
H42 H 0.363 0.72836 0.66567 0.0
H43 H 0.34184 0.77096 0.6848 0.0
H44 H 0.34762 0.8232 0.72935 0.0
H45 H 0.36321 0.84152 0.77987 0.0
H46 H 0.28853 0.89269 0.78536 0.0
H47 H 0.27282 0.87458 0.73451 0.0
H48 H 0.26126 0.89635 0.66011 0.0
H49 H 0.22644 0.92239 0.63273 0.0
H50 H 0.20296 0.84759 0.57601 0.0
H51 H 0.23885 0.8217 0.60281 0.0
N52 N 0.28395 0.8167 0.63994 0.0
N53 N 0.31084 0.81285 0.68495 0.0
N54 N 0.28123 0.85074 0.68014 0.0
C55 C 0.30296 0.80256 0.6566 0.0
C56 C 0.30004 0.83677 0.69694 0.0
C57 C 0.27312 0.84095 0.65163 0.0
C58 C 0.31541 0.77627 0.64444 0.0
C59 C 0.30793 0.76456 0.61527 0.0
C60 C 0.32011 0.73975 0.60433 0.0
C61 C 0.33988 0.72614 0.62241 0.0
C62 C 0.34737 0.73796 0.65143 0.0
C63 C 0.33531 0.76261 0.6623 0.0
C64 C 0.30902 0.84752 0.72785 0.0
C65 C 0.33438 0.83825 0.7413 0.0
C66 C 0.34339 0.84876 0.77017 0.0
C67 C 0.32702 0.86844 0.78636 0.0
C68 C 0.30136 0.87734 0.77332 0.0
C69 C 0.29254 0.86714 0.74418 0.0
C70 C 0.25267 0.85684 0.63381 0.0
C71 C 0.24874 0.8854 0.64176 0.0
C72 C 0.63043 0.22932 0.89211 0.0
C73 C 0.60076 0.21987 0.88709 0.0
C74 C 0.58357 0.23622 0.86892 0.0
C75 C 0.5958 0.26149 0.85608 0.0
H76 H 0.59586 0.31434 0.7741 0.0
H77 H 0.57591 0.33776 0.73058 0.0
H78 H 0.62656 0.41592 0.75663 0.0
H79 H 0.6472 0.39234 0.79914 0.0
H80 H 0.70688 0.38611 0.835 0.0
H81 H 0.7524 0.40792 0.85708 0.0
H82 H 0.75434 0.3382 0.91892 0.0
H83 H 0.70855 0.3165 0.89728 0.0
H84 H 0.66545 0.26138 0.88429 0.0
H85 H 0.64419 0.21732 0.90616 0.0
H86 H 0.56068 0.22933 0.86443 0.0
H87 H 0.58193 0.27363 0.84232 0.0
N88 N 0.62512 0.31165 0.8262 0.0
N89 N 0.66256 0.34895 0.82804 0.0
N90 N 0.66382 0.31099 0.86128 0.0
C91 C 0.63717 0.33692 0.81548 0.0
C92 C 0.67606 0.33616 0.85089 0.0
C93 C 0.63838 0.29858 0.84921 0.0
C94 C 0.62335 0.35132 0.79005 0.0
C95 C 0.60263 0.33655 0.77057 0.0
C96 C 0.59109 0.35006 0.74565 0.0
C97 C 0.59976 0.37877 0.73976 0.0
C98 C 0.61986 0.39365 0.75983 0.0
C99 C 0.6316 0.38011 0.78445 0.0
C100 C 0.7039 0.34948 0.86431 0.0
C101 C 0.71692 0.37536 0.85332 0.0
C102 C 0.74316 0.38784 0.86586 0.0
C103 C 0.75705 0.37479 0.88974 0.0
C104 C 0.74403 0.34897 0.90079 0.0
C105 C 0.71782 0.33645 0.88822 0.0
C106 C 0.6254 0.27118 0.86152 0.0
C107 C 0.64254 0.2547 0.87965 0.0
C108 C 0.74366 0.63875 0.39737 0.0
C109 C 0.7328 0.61054 0.3908 0.0
C110 C 0.74757 0.5946 0.3685 0.0
C111 C 0.77248 0.60669 0.35296 0.0
H112 H 0.82139 0.59984 0.27061 0.0
H113 H 0.84285 0.57496 0.22681 0.0
H114 H 0.92173 0.63206 0.23278 0.0
H115 H 0.90045 0.65702 0.27651 0.0
H116 H 0.89584 0.71576 0.31403 0.0
H117 H 0.9186 0.76169 0.33172 0.0
H118 H 0.8533 0.76477 0.40459 0.0
H119 H 0.83012 0.71916 0.38665 0.0
H120 H 0.77637 0.67257 0.38779 0.0
H121 H 0.73296 0.65149 0.41465 0.0
H122 H 0.73959 0.57289 0.36274 0.0
H123 H 0.78321 0.5938 0.33585 0.0
N124 N 0.82183 0.63403 0.31874 0.0
N125 N 0.8588 0.67133 0.31383 0.0
N126 N 0.82275 0.67356 0.35272 0.0
C127 C 0.84625 0.64564 0.3039 0.0
C128 C 0.84718 0.68549 0.33818 0.0
C129 C 0.80995 0.64783 0.34322 0.0
C130 C 0.85917 0.63046 0.27719 0.0
C131 C 0.84332 0.60712 0.26264 0.0
C132 C 0.85552 0.59295 0.23742 0.0
C133 C 0.88397 0.60155 0.22639 0.0
C134 C 0.89985 0.6248 0.24093 0.0
C135 C 0.88755 0.63918 0.26591 0.0
C136 C 0.86107 0.7136 0.34887 0.0
C137 C 0.88623 0.72619 0.33379 0.0
C138 C 0.89942 0.75252 0.34403 0.0
C139 C 0.8878 0.76696 0.36958 0.0
C140 C 0.86259 0.75444 0.38457 0.0
C141 C 0.8494 0.72813 0.37436 0.0
C142 C 0.78339 0.63495 0.35954 0.0
C143 C 0.76868 0.65077 0.38204 0.0
C144 C 0.71067 0.87423 0.85881 0.0
C145 C 0.69018 0.85899 0.87784 0.0
C146 C 0.69644 0.83191 0.88734 0.0
C147 C 0.72317 0.82087 0.87916 0.0
H148 H 0.7781 0.75634 0.90094 0.0
H149 H 0.79726 0.71961 0.9321 0.0
H150 H 0.88622 0.74804 0.90469 0.0
H151 H 0.86742 0.78438 0.87366 0.0
H152 H 0.85886 0.80453 0.79109 0.0
H153 H 0.89119 0.82656 0.7521 0.0
H154 H 0.8578 0.90809 0.77502 0.0
H155 H 0.82396 0.88538 0.81244 0.0
H156 H 0.75291 0.87581 0.83645 0.0
H157 H 0.70674 0.89531 0.85142 0.0
H158 H 0.68087 0.81942 0.90157 0.0
H159 H 0.72756 0.8002 0.88742 0.0
N160 N 0.7828 0.80436 0.87077 0.0
N161 N 0.82804 0.808 0.84404 0.0
N162 N 0.79175 0.83877 0.83318 0.0
C163 C 0.81018 0.79539 0.86576 0.0
C164 C 0.81896 0.82962 0.82768 0.0
C165 C 0.77342 0.82603 0.8545 0.0
C166 C 0.82123 0.77316 0.88472 0.0
C167 C 0.80174 0.75478 0.9017 0.0
C168 C 0.81263 0.73381 0.91949 0.0
C169 C 0.84317 0.7313 0.92098 0.0
C170 C 0.86259 0.74987 0.90431 0.0
C171 C 0.85176 0.77047 0.88627 0.0
C172 C 0.83883 0.84326 0.80453 0.0
C173 C 0.85847 0.82716 0.78767 0.0
C174 C 0.87722 0.8399 0.76552 0.0
C175 C 0.87731 0.86922 0.76032 0.0
C176 C 0.85797 0.88538 0.77781 0.0
C177 C 0.83865 0.87244 0.79938 0.0
C178 C 0.74412 0.83659 0.86107 0.0
C179 C 0.73728 0.8631 0.8504 0.0
C180 C 0.73121 0.14462 0.22893 0.0
C181 C 0.70553 0.15313 0.21537 0.0
C182 C 0.69182 0.1763 0.22865 0.0
C183 C 0.70302 0.19017 0.25514 0.0
H184 H 0.69335 0.25877 0.30852 0.0
H185 H 0.66669 0.29788 0.32842 0.0
H186 H 0.7152 0.29857 0.41299 0.0
H187 H 0.74165 0.25856 0.39332 0.0
H188 H 0.79583 0.21401 0.39555 0.0
H189 H 0.82871 0.18871 0.4273 0.0
H190 H 0.81457 0.11415 0.36805 0.0
H191 H 0.78203 0.13909 0.33636 0.0
H192 H 0.76178 0.15092 0.26589 0.0
H193 H 0.74257 0.12711 0.21907 0.0
H194 H 0.67168 0.18313 0.21928 0.0
H195 H 0.69136 0.20747 0.26501 0.0
N196 N 0.72648 0.21826 0.3098 0.0
N197 N 0.75396 0.21741 0.35481 0.0
N198 N 0.75783 0.18197 0.31628 0.0
C199 C 0.7342 0.23001 0.33759 0.0
C200 C 0.76589 0.19334 0.34422 0.0
C201 C 0.73821 0.19437 0.29889 0.0
C202 C 0.71965 0.25531 0.34935 0.0
C203 C 0.69861 0.26724 0.33132 0.0
C204 C 0.68338 0.2899 0.34265 0.0
C205 C 0.68883 0.30143 0.37227 0.0
C206 C 0.71027 0.28996 0.39017 0.0
C207 C 0.72555 0.26713 0.37883 0.0
C208 C 0.78627 0.17861 0.36339 0.0
C209 C 0.79976 0.19223 0.3893 0.0
C210 C 0.81864 0.17784 0.40741 0.0
C211 C 0.82397 0.14946 0.40019 0.0
C212 C 0.81055 0.13592 0.37433 0.0
C213 C 0.79206 0.15034 0.35606 0.0
C214 C 0.72805 0.18104 0.26934 0.0
C215 C 0.74229 0.15834 0.25571 0.0
C216 C 0.24581 0.61926 0.14274 0.0
C217 C 0.24155 0.62011 0.1108 0.0
C218 C 0.26395 0.63416 0.09278 0.0
C219 C 0.28951 0.64719 0.1063 0.0
H220 H 0.3459 0.72277 0.10152 0.0
H221 H 0.36818 0.76743 0.08191 0.0
H222 H 0.42675 0.77601 0.15928 0.0
H223 H 0.40433 0.73145 0.17922 0.0
H224 H 0.39848 0.68335 0.23165 0.0
H225 H 0.41871 0.66095 0.27557 0.0
H226 H 0.36525 0.58327 0.25391 0.0
H227 H 0.34424 0.60597 0.21095 0.0
H228 H 0.27424 0.63052 0.1807 0.0
H229 H 0.22898 0.60941 0.15769 0.0
H230 H 0.26205 0.63484 0.06809 0.0
H231 H 0.30625 0.65784 0.09178 0.0
N232 N 0.33451 0.68352 0.14091 0.0
N233 N 0.37016 0.68455 0.17948 0.0
N234 N 0.33224 0.64777 0.17739 0.0
C235 C 0.35905 0.69642 0.15441 0.0
C236 C 0.35699 0.66009 0.19097 0.0
C237 C 0.3209 0.65933 0.15239 0.0
C238 C 0.37322 0.72338 0.14207 0.0
C239 C 0.36354 0.73409 0.11443 0.0
C240 C 0.37643 0.75967 0.10304 0.0
C241 C 0.39922 0.77535 0.11903 0.0
C242 C 0.409 0.76463 0.14657 0.0
C243 C 0.39624 0.73895 0.1579 0.0
C244 C 0.36961 0.64657 0.21774 0.0
C245 C 0.391 0.66151 0.2363 0.0
C246 C 0.40276 0.64855 0.26144 0.0
C247 C 0.39367 0.6202 0.26849 0.0
C248 C 0.37242 0.60527 0.24972 0.0
C249 C 0.36045 0.6183 0.22486 0.0
C250 C 0.29375 0.64585 0.13805 0.0
C251 C 0.27173 0.6316 0.15609 0.0
C252 C 0.15125 0.23731 0.62396 0.0
C253 C 0.12079 0.22953 0.62729 0.0
C254 C 0.10311 0.24872 0.64283 0.0
C255 C 0.11546 0.27489 0.65447 0.0
H256 H 0.12537 0.32865 0.74242 0.0
H257 H 0.10372 0.35377 0.78619 0.0
H258 H 0.13475 0.43421 0.74801 0.0
H259 H 0.15713 0.40925 0.7046 0.0
H260 H 0.21831 0.40519 0.66218 0.0
H261 H 0.2621 0.42704 0.63641 0.0
H262 H 0.27371 0.34782 0.58734 0.0
H263 H 0.23015 0.32579 0.61317 0.0
H264 H 0.1869 0.26909 0.63175 0.0
H265 H 0.16583 0.22298 0.61285 0.0
H266 H 0.07952 0.24393 0.64542 0.0
H267 H 0.1011 0.28925 0.66593 0.0
N268 N 0.14555 0.3254 0.68469 0.0
N269 N 0.18081 0.36414 0.67918 0.0
N270 N 0.1828 0.32368 0.64689 0.0
C271 C 0.1567 0.35182 0.69392 0.0
C272 C 0.19409 0.35017 0.6557 0.0
C273 C 0.15845 0.31124 0.6611 0.0
C274 C 0.14296 0.36697 0.72005 0.0
C275 C 0.12755 0.35169 0.74333 0.0
C276 C 0.11531 0.366 0.76843 0.0
C277 C 0.11764 0.39585 0.77036 0.0
C278 C 0.13264 0.41117 0.74694 0.0
C279 C 0.14549 0.39687 0.7222 0.0
C280 C 0.22062 0.36365 0.63986 0.0
C281 C 0.23016 0.39236 0.64592 0.0
C282 C 0.25518 0.40498 0.63102 0.0
C283 C 0.27139 0.38915 0.60987 0.0
C284 C 0.26187 0.3605 0.60377 0.0
C285 C 0.23677 0.34793 0.61849 0.0
C286 C 0.14569 0.28284 0.65035 0.0
C287 C 0.16345 0.26373 0.63503 0.0
Dy288 Dy 0.01423 0.01272 0.46606 0.0
C289 C 0.98057 0.95562 0.57782 0.0
C290 C 0.02151 0.03899 0.41147 0.0
Dy291 Dy 0.99333 0.98715 0.52754 0.0
O292 O 0.03152 0.01471 0.41758 0.0
O293 O 0.00707 0.04855 0.43504 0.0
O294 O 0.06162 0.01176 0.48031 0.0
O295 O 0.0298 0.98085 0.49595 0.0
C296 C 0.05631 0.99038 0.49818 0.0
C297 C 0.95883 0.02513 0.50516 0.0
O298 O 0.02461 0.02377 0.54283 0.0
O299 O 0.01958 0.04987 0.49932 0.0
O300 O 0.96347 0.95679 0.55439 0.0
O301 O 0.00478 0.97182 0.57401 0.0
O302 O 0.96161 0.02141 0.53431 0.0
O303 O 0.97218 0.00691 0.4901 0.0
O304 O 0.9899 0.97234 0.4484 0.0
O305 O 0.98305 0.94999 0.49526 0.0
C306 C 0.02767 0.04808 0.52823 0.0
C307 C 0.98122 0.94982 0.46487 0.0
Dy308 Dy 0.52588 0.0134 0.03696 0.0
C309 C 0.4246 0.96118 0.96892 0.0
C310 C 0.5688 0.04271 0.07041 0.0
Dy311 Dy 0.47148 0.99205 0.99438 0.0
O312 O 0.54407 0.03131 0.08152 0.0
O313 O 0.57022 0.03805 0.04088 0.0
O314 O 0.52669 0.96903 0.05422 0.0
O315 O 0.48663 0.98349 0.04029 0.0
C316 C 0.49895 0.96206 0.04883 0.0
C317 C 0.50242 0.03818 0.97114 0.0
O318 O 0.44932 0.01734 0.03072 0.0
O319 O 0.49129 0.04263 0.05092 0.0
O320 O 0.42705 0.98871 0.97245 0.0
O321 O 0.4477 0.95043 0.97976 0.0
O322 O 0.47982 0.02505 0.95745 0.0
O323 O 0.50649 0.02521 0.99522 0.0
O324 O 0.54864 0.99332 0.99731 0.0
O325 O 0.50788 0.96603 0.97728 0.0
C326 C 0.46222 0.03809 0.04821 0.0
C327 C 0.53678 0.9727 0.97897 0.0
Dy328 Dy 0.5131 0.47823 0.48197 0.0
C329 C 0.45681 0.56329 0.55226 0.0
C330 C 0.55111 0.44417 0.45287 0.0
Dy331 Dy 0.49173 0.52598 0.52353 0.0
O332 O 0.52249 0.43949 0.4531 0.0
O333 O 0.55877 0.46749 0.46821 0.0
O334 O 0.46683 0.45805 0.47764 0.0
O335 O 0.47968 0.48066 0.51811 0.0
C336 C 0.45806 0.46835 0.50398 0.0
C337 C 0.54666 0.53544 0.50064 0.0
O338 O 0.50635 0.49836 0.56046 0.0
O339 O 0.53197 0.4687 0.52804 0.0
O340 O 0.48551 0.56557 0.55213 0.0
O341 O 0.44724 0.54032 0.53724 0.0
O342 O 0.53856 0.54534 0.52735 0.0
O343 O 0.52461 0.52351 0.48702 0.0
O344 O 0.49676 0.50501 0.44519 0.0
O345 O 0.47147 0.5346 0.47799 0.0
C346 C 0.52469 0.478 0.55604 0.0
C347 C 0.47816 0.52508 0.44994 0.0
Dy348 Dy 0.00994 0.46964 0.00723 0.0
C349 C 0.95917 0.57318 0.98297 0.0
C350 C 0.04187 0.42362 0.01217 0.0
Dy351 Dy 0.98988 0.52648 0.98879 0.0
O352 O 0.01784 0.42779 0.02762 0.0
O353 O 0.04824 0.44444 0.99381 0.0
O354 O 0.97886 0.4686 0.04803 0.0
O355 O 0.99761 0.5076 0.03238 0.0
C356 C 0.97891 0.4961 0.05067 0.0
C357 C 0.02161 0.49973 0.94615 0.0
O358 O 0.03005 0.54268 0.01485 0.0
O359 O 0.051 0.49938 0.01451 0.0
O360 O 0.98034 0.56607 0.96466 0.0
O361 O 0.95489 0.55488 0.00455 0.0
O362 O 0.02304 0.52724 0.94972 0.0
O363 O 0.00206 0.48846 0.96365 0.0
O364 O 0.96951 0.45358 0.98154 0.0
O365 O 0.94882 0.49694 0.98148 0.0
C366 C 0.05286 0.52742 0.01905 0.0
C367 C 0.94672 0.46886 0.9772 0.0
C368 C 0.09328 0.13827 0.27831 0.0
C369 C 0.12047 0.14844 0.29092 0.0
C370 C 0.07307 0.12049 0.29502 0.0
C371 C 0.08027 0.11289 0.325 0.0
C372 C 0.10737 0.12372 0.33809 0.0
C373 C 0.12718 0.1413 0.32084 0.0
C374 C 0.04444 0.10925 0.28033 0.0
C375 C 0.11569 0.11631 0.37016 0.0
C376 C 0.02472 0.08475 0.38434 0.0
C377 C 0.03112 0.05621 0.38502 0.0
C378 C 0.03915 0.10326 0.36335 0.0
C379 C 0.06022 0.09278 0.34257 0.0
C380 C 0.06475 0.06341 0.34143 0.0
C381 C 0.05015 0.04543 0.3628 0.0
C382 C 0.0336 0.13441 0.36516 0.0
C383 C 0.08672 0.05137 0.31926 0.0
H384 H 0.08819 0.14354 0.25503 0.0
H385 H 0.14802 0.14945 0.33073 0.0
H386 H 0.04411 0.08581 0.27711 0.0
H387 H 0.02544 0.1137 0.29553 0.0
H388 H 0.04131 0.1187 0.25766 0.0
H389 H 0.1371 0.12734 0.37733 0.0
H390 H 0.09831 0.1221 0.38684 0.0
H391 H 0.11734 0.09302 0.37138 0.0
H392 H 0.00983 0.09307 0.40144 0.0
H393 H 0.05492 0.02329 0.3632 0.0
H394 H 0.03103 0.14274 0.34188 0.0
H395 H 0.05287 0.14667 0.37578 0.0
H396 H 0.01358 0.13833 0.37913 0.0
H397 H 0.08369 0.05906 0.29579 0.0
H398 H 0.08472 0.02773 0.31845 0.0
H399 H 0.10946 0.05873 0.32639 0.0
C400 C 0.36671 0.89238 0.81866 0.0
C401 C 0.33759 0.88054 0.8162 0.0
C402 C 0.37729 0.90429 0.84652 0.0
C403 C 0.35837 0.90393 0.87268 0.0
C404 C 0.32899 0.89169 0.87044 0.0
C405 C 0.31881 0.88034 0.84203 0.0
C406 C 0.40865 0.91759 0.84783 0.0
C407 C 0.30842 0.89054 0.89799 0.0
C408 C 0.40265 0.91588 0.9452 0.0
C409 C 0.40248 0.9454 0.94935 0.0
C410 C 0.38615 0.90149 0.92178 0.0
C411 C 0.36956 0.91718 0.90196 0.0
C412 C 0.36748 0.94664 0.90773 0.0
C413 C 0.38385 0.96038 0.93158 0.0
C414 C 0.38837 0.86993 0.91678 0.0
C415 C 0.35021 0.96418 0.88702 0.0
H416 H 0.38108 0.89276 0.79855 0.0
H417 H 0.29632 0.87097 0.84005 0.0
H418 H 0.40867 0.9403 0.85523 0.0
H419 H 0.42128 0.90679 0.86501 0.0
H420 H 0.42034 0.91632 0.82531 0.0
H421 H 0.28649 0.8796 0.89257 0.0
H422 H 0.31834 0.87925 0.91678 0.0
H423 H 0.3052 0.9124 0.90675 0.0
H424 H 0.41686 0.90425 0.95918 0.0
H425 H 0.38359 0.98323 0.93489 0.0
H426 H 0.40299 0.86623 0.89667 0.0
H427 H 0.36638 0.85899 0.91175 0.0
H428 H 0.39762 0.86014 0.93704 0.0
H429 H 0.362 0.96651 0.86463 0.0
H430 H 0.34747 0.98576 0.89702 0.0
H431 H 0.32805 0.95346 0.88241 0.0
C432 C 0.55905 0.38747 0.70312 0.0
C433 C 0.58838 0.39315 0.71266 0.0
C434 C 0.54823 0.40102 0.67772 0.0
C435 C 0.56704 0.42102 0.66156 0.0
C436 C 0.59661 0.42691 0.67107 0.0
C437 C 0.60694 0.41279 0.69625 0.0
C438 C 0.51663 0.39394 0.66816 0.0
C439 C 0.61739 0.44814 0.6546 0.0
C440 C 0.5493 0.43802 0.57922 0.0
C441 C 0.53579 0.46369 0.58308 0.0
C442 C 0.55923 0.42379 0.60454 0.0
C443 C 0.55596 0.43562 0.63452 0.0
C444 C 0.54253 0.46161 0.63858 0.0
C445 C 0.53246 0.47522 0.61287 0.0
C446 C 0.57312 0.39599 0.59919 0.0
C447 C 0.53898 0.47513 0.6701 0.0
H448 H 0.54434 0.37266 0.71574 0.0
H449 H 0.6298 0.41699 0.70288 0.0
H450 H 0.50439 0.41339 0.66947 0.0
H451 H 0.51601 0.38602 0.64394 0.0
H452 H 0.50497 0.37759 0.68277 0.0
H453 H 0.63949 0.45091 0.66534 0.0
H454 H 0.62021 0.44112 0.63029 0.0
H455 H 0.60793 0.46912 0.65455 0.0
H456 H 0.55184 0.42877 0.55637 0.0
H457 H 0.52214 0.49505 0.61613 0.0
H458 H 0.56073 0.37896 0.61228 0.0
H459 H 0.5961 0.3979 0.60771 0.0
H460 H 0.57354 0.38934 0.57454 0.0
H461 H 0.52562 0.46032 0.6851 0.0
H462 H 0.52814 0.49541 0.66941 0.0
H463 H 0.56092 0.47945 0.68086 0.0
C464 C 0.88089 0.57944 0.17331 0.0
C465 C 0.89721 0.58618 0.19997 0.0
C466 C 0.89329 0.56508 0.14815 0.0
C467 C 0.92257 0.55694 0.14986 0.0
C468 C 0.93908 0.5636 0.17678 0.0
C469 C 0.92626 0.57826 0.20142 0.0
C470 C 0.87513 0.55877 0.11967 0.0
C471 C 0.97025 0.55504 0.17965 0.0
C472 C 0.94657 0.49671 0.0976 0.0
C473 C 0.96366 0.51162 0.07539 0.0
C474 C 0.93285 0.5112 0.12182 0.0
C475 C 0.93598 0.54133 0.1236 0.0
C476 C 0.9527 0.55648 0.1008 0.0
C477 C 0.9666 0.54142 0.07716 0.0
C478 C 0.91543 0.49426 0.1458 0.0
C479 C 0.95622 0.58859 0.10156 0.0
H480 H 0.85854 0.58579 0.17197 0.0
H481 H 0.93885 0.58317 0.2221 0.0
H482 H 0.88664 0.56871 0.09956 0.0
H483 H 0.87263 0.5355 0.11483 0.0
H484 H 0.8528 0.56674 0.1219 0.0
H485 H 0.98002 0.56163 0.20221 0.0
H486 H 0.9705 0.53162 0.17672 0.0
H487 H 0.98448 0.56476 0.16123 0.0
H488 H 0.94428 0.47366 0.09631 0.0
H489 H 0.97996 0.55303 0.06016 0.0
H490 H 0.89247 0.50068 0.1472 0.0
H491 H 0.9254 0.49879 0.16869 0.0
H492 H 0.91472 0.47099 0.14086 0.0
H493 H 0.93423 0.5973 0.10261 0.0
H494 H 0.96849 0.59715 0.08115 0.0
H495 H 0.96825 0.59637 0.1225 0.0
C496 C 0.3701 0.16004 0.12215 0.0
C497 C 0.34845 0.14915 0.14293 0.0
C498 C 0.39009 0.14242 0.1081 0.0
C499 C 0.38883 0.11335 0.11555 0.0
C500 C 0.36822 0.10257 0.1378 0.0
C501 C 0.34807 0.12052 0.151 0.0
C502 C 0.41166 0.15461 0.08429 0.0
C503 C 0.36662 0.07178 0.14672 0.0
C504 C 0.41483 0.0608 0.05567 0.0
C505 C 0.4434 0.05708 0.06564 0.0
C506 C 0.39693 0.07925 0.07164 0.0
C507 C 0.40769 0.09383 0.09855 0.0
C508 C 0.43637 0.08983 0.10899 0.0
C509 C 0.45403 0.0717 0.0922 0.0
C510 C 0.36661 0.08338 0.05954 0.0
C511 C 0.44829 0.10457 0.13796 0.0
H512 H 0.37099 0.18226 0.11628 0.0
H513 H 0.33125 0.11176 0.16672 0.0
H514 H 0.43452 0.15017 0.09005 0.0
H515 H 0.40665 0.14425 0.06158 0.0
H516 H 0.4108 0.17795 0.08224 0.0
H517 H 0.35158 0.06752 0.1667 0.0
H518 H 0.35855 0.058 0.12707 0.0
H519 H 0.3889 0.06555 0.15244 0.0
H520 H 0.40664 0.04969 0.03502 0.0
H521 H 0.47604 0.06867 0.10012 0.0
H522 H 0.36474 0.1062 0.05506 0.0
H523 H 0.34949 0.07698 0.07696 0.0
H524 H 0.36179 0.07083 0.03799 0.0
H525 H 0.44893 0.12797 0.13572 0.0
H526 H 0.47086 0.09876 0.14324 0.0
H527 H 0.43343 0.09894 0.15768 0.0
C528 C 0.18435 0.89932 0.55535 0.0
C529 C 0.18894 0.90268 0.58706 0.0
C530 C 0.16288 0.91386 0.54082 0.0
C531 C 0.14581 0.93245 0.55836 0.0
C532 C 0.15046 0.93614 0.59029 0.0
C533 C 0.17177 0.92106 0.60427 0.0
C534 C 0.15837 0.90925 0.50672 0.0
C535 C 0.13281 0.95591 0.60972 0.0
C536 C 0.10795 0.98855 0.51617 0.0
C537 C 0.07897 0.97615 0.51443 0.0
C538 C 0.12993 0.97468 0.53068 0.0
C539 C 0.1227 0.94769 0.54341 0.0
C540 C 0.09335 0.93522 0.54191 0.0
C541 C 0.07177 0.94971 0.52759 0.0
C542 C 0.16088 0.98885 0.5323 0.0
C543 C 0.08481 0.90641 0.55508 0.0
H544 H 0.19774 0.8855 0.54178 0.0
H545 H 0.17471 0.92343 0.62887 0.0
H546 H 0.1352 0.90109 0.50229 0.0
H547 H 0.16224 0.92976 0.49492 0.0
H548 H 0.17334 0.89396 0.49641 0.0
H549 H 0.13986 0.95718 0.63405 0.0
H550 H 0.13515 0.97762 0.60038 0.0
H551 H 0.10901 0.94855 0.60903 0.0
H552 H 0.11346 0.0091 0.50613 0.0
H553 H 0.04931 0.94011 0.52628 0.0
H554 H 0.17653 0.97532 0.52023 0.0
H555 H 0.16788 0.9913 0.55658 0.0
H556 H 0.16271 0.01014 0.52185 0.0
H557 H 0.09806 0.89018 0.5438 0.0
H558 H 0.06101 0.89971 0.55203 0.0
H559 H 0.08974 0.90676 0.57994 0.0
C560 C 0.80749 0.40009 0.88391 0.0
C561 C 0.785 0.38809 0.90305 0.0
C562 C 0.83388 0.4129 0.89613 0.0
C563 C 0.83792 0.41377 0.92831 0.0
C564 C 0.81539 0.4016 0.94777 0.0
C565 C 0.78922 0.38891 0.93492 0.0
C566 C 0.85743 0.42553 0.8746 0.0
C567 C 0.81882 0.40221 0.9822 0.0
C568 C 0.91645 0.42533 0.95798 0.0
C569 C 0.91866 0.45455 0.96548 0.0
C570 C 0.89026 0.41174 0.94607 0.0
C571 C 0.86563 0.42771 0.9416 0.0
C572 C 0.8676 0.45713 0.94941 0.0
C573 C 0.89406 0.47019 0.96122 0.0
C574 C 0.88903 0.38033 0.93801 0.0
C575 C 0.84181 0.4749 0.94504 0.0
H576 H 0.80458 0.39919 0.85924 0.0
H577 H 0.77181 0.38 0.9499 0.0
H578 H 0.86203 0.44855 0.88009 0.0
H579 H 0.87832 0.41529 0.87765 0.0
H580 H 0.85096 0.42292 0.85014 0.0
H581 H 0.79942 0.39144 0.99412 0.0
H582 H 0.83884 0.39167 0.9883 0.0
H583 H 0.82183 0.42455 0.99096 0.0
H584 H 0.93529 0.41303 0.96114 0.0
H585 H 0.89544 0.49275 0.967 0.0
H586 H 0.8845 0.37679 0.91319 0.0
H587 H 0.87068 0.36887 0.95084 0.0
H588 H 0.90994 0.37084 0.94328 0.0
H589 H 0.83579 0.47446 0.92044 0.0
H590 H 0.84673 0.4974 0.95276 0.0
H591 H 0.82223 0.46588 0.95802 0.0
C592 C 0.68111 0.61353 0.41095 0.0
C593 C 0.706 0.59793 0.407 0.0
C594 C 0.65568 0.6021 0.4263 0.0
C595 C 0.65513 0.57445 0.43825 0.0
C596 C 0.68017 0.55855 0.43432 0.0
C597 C 0.70527 0.57044 0.41863 0.0
C598 C 0.62931 0.61961 0.42964 0.0
C599 C 0.68054 0.5291 0.44694 0.0
C600 C 0.59821 0.55832 0.50164 0.0
C601 C 0.57528 0.54343 0.48533 0.0
C602 C 0.62475 0.56774 0.4868 0.0
C603 C 0.62828 0.56233 0.45485 0.0
C604 C 0.60544 0.5466 0.43848 0.0
C605 C 0.57926 0.53724 0.45395 0.0
C606 C 0.6487 0.58412 0.50515 0.0
C607 C 0.60825 0.54044 0.40441 0.0
H608 H 0.68139 0.63462 0.40165 0.0
H609 H 0.72454 0.55839 0.4159 0.0
H610 H 0.60969 0.60794 0.41904 0.0
H611 H 0.62397 0.62318 0.45431 0.0
H612 H 0.63316 0.64061 0.41875 0.0
H613 H 0.70169 0.51949 0.44186 0.0
H614 H 0.67699 0.52999 0.47219 0.0
H615 H 0.66222 0.51493 0.43708 0.0
H616 H 0.59526 0.56298 0.52595 0.0
H617 H 0.56159 0.52568 0.44125 0.0
H618 H 0.65194 0.60624 0.49703 0.0
H619 H 0.66997 0.57434 0.50168 0.0
H620 H 0.64336 0.58487 0.53011 0.0
H621 H 0.6099 0.56071 0.39195 0.0
H622 H 0.58913 0.52673 0.39537 0.0
H623 H 0.62874 0.52979 0.39925 0.0
C624 C 0.151 0.30816 0.06379 0.0
C625 C 0.16218 0.31971 0.09164 0.0
C626 C 0.13275 0.32348 0.04584 0.0
C627 C 0.12583 0.35094 0.05603 0.0
C628 C 0.13856 0.3633 0.08322 0.0
C629 C 0.15649 0.34744 0.10079 0.0
C630 C 0.11953 0.30964 0.01701 0.0
C631 C 0.13204 0.39274 0.09459 0.0
C632 C 0.09064 0.40334 0.00677 0.0
C633 C 0.06178 0.40156 0.01878 0.0
C634 C 0.11155 0.38571 0.01734 0.0
C635 C 0.10316 0.36586 0.04021 0.0
C636 C 0.07343 0.36257 0.05064 0.0
C637 C 0.05308 0.38061 0.03985 0.0
C638 C 0.14301 0.38977 0.00564 0.0
C639 C 0.06355 0.34131 0.07471 0.0
H640 H 0.15527 0.2866 0.05685 0.0
H641 H 0.16544 0.35641 0.12219 0.0
H642 H 0.0956 0.30407 0.02091 0.0
H643 H 0.12169 0.32456 0.99774 0.0
H644 H 0.13011 0.28995 0.01014 0.0
H645 H 0.14571 0.40015 0.11462 0.0
H646 H 0.13605 0.40822 0.07601 0.0
H647 H 0.10841 0.39273 0.10147 0.0
H648 H 0.09733 0.41954 0.99035 0.0
H649 H 0.03067 0.37912 0.04895 0.0
H650 H 0.15199 0.36895 1.00042 0.0
H651 H 0.157 0.40076 0.02369 0.0
H652 H 0.1449 0.40271 0.98469 0.0
H653 H 0.07112 0.32009 0.06847 0.0
H654 H 0.03916 0.33923 0.07778 0.0
H655 H 0.0736 0.34814 0.09705 0.0
C656 C 0.5604 0.19231 0.91619 0.0
C657 C 0.58785 0.1931 0.90094 0.0
C658 C 0.54796 0.16718 0.92935 0.0
C659 C 0.56312 0.14206 0.92683 0.0
C660 C 0.59098 0.1428 0.9117 0.0
C661 C 0.60308 0.16833 0.89911 0.0
C662 C 0.51837 0.1674 0.9456 0.0
C663 C 0.60766 0.11644 0.90808 0.0
C664 C 0.53899 0.08044 0.9789 0.0
C665 C 0.51951 0.06384 0.95983 0.0
C666 C 0.55363 0.10588 0.96846 0.0
C667 C 0.54886 0.11464 0.93817 0.0
C668 C 0.52973 0.09746 0.91868 0.0
C669 C 0.51516 0.07242 0.92983 0.0
C670 C 0.57362 0.12371 0.99005 0.0
C671 C 0.52431 0.1057 0.88612 0.0
H672 H 0.54873 0.21148 0.91806 0.0
H673 H 0.62422 0.16876 0.88717 0.0
H674 H 0.50177 0.15312 0.9331 0.0
H675 H 0.51986 0.1592 0.96909 0.0
H676 H 0.51033 0.18904 0.94729 0.0
H677 H 0.62966 0.12083 0.89697 0.0
H678 H 0.61076 0.10717 0.93081 0.0
H679 H 0.59466 0.10013 0.89395 0.0
H680 H 0.54218 0.07394 0.00219 0.0
H681 H 0.50015 0.05957 0.915 0.0
H682 H 0.56463 0.14466 0.99444 0.0
H683 H 0.59586 0.1278 0.97945 0.0
H684 H 0.57599 0.11337 0.01238 0.0
H685 H 0.51377 0.12613 0.88624 0.0
H686 H 0.50985 0.08937 0.87351 0.0
H687 H 0.54559 0.10895 0.87339 0.0
C688 C 0.88489 0.8168 0.39078 0.0
C689 C 0.90211 0.79475 0.3809 0.0
C690 C 0.89802 0.84264 0.40277 0.0
C691 C 0.92916 0.84662 0.40495 0.0
C692 C 0.94671 0.82473 0.39438 0.0
C693 C 0.93299 0.79908 0.38251 0.0
C694 C 0.87852 0.86547 0.41373 0.0
C695 C 0.97997 0.8281 0.39637 0.0
C696 C 0.96451 0.92205 0.41719 0.0
C697 C 0.96866 0.92332 0.44908 0.0
C698 C 0.95188 0.89719 0.40242 0.0
C699 C 0.94322 0.87301 0.41993 0.0
C700 C 0.94762 0.87407 0.45204 0.0
C701 C 0.96024 0.89914 0.46618 0.0
C702 C 0.94757 0.89685 0.36813 0.0
C703 C 0.93874 0.84878 0.47157 0.0
H704 H 0.86106 0.81384 0.38915 0.0
H705 H 0.94647 0.78208 0.37526 0.0
H706 H 0.88121 0.86941 0.43879 0.0
H707 H 0.88519 0.88575 0.40232 0.0
H708 H 0.8548 0.8596 0.40914 0.0
H709 H 0.99052 0.80982 0.38547 0.0
H710 H 0.98871 0.84788 0.38511 0.0
H711 H 0.98655 0.83006 0.4208 0.0
H712 H 0.9709 0.94056 0.40373 0.0
H713 H 0.96335 0.89974 0.4908 0.0
H714 H 0.92375 0.89282 0.36291 0.0
H715 H 0.9591 0.87929 0.35706 0.0
H716 H 0.95597 0.91719 0.35771 0.0
H717 H 0.91465 0.84309 0.46968 0.0
H718 H 0.94404 0.85291 0.49618 0.0
H719 H 0.95016 0.83005 0.46321 0.0
C720 C 0.35653 0.67772 0.63117 0.0
C721 C 0.35339 0.70005 0.61116 0.0
C722 C 0.37183 0.65417 0.62202 0.0
C723 C 0.38415 0.6528 0.59206 0.0
C724 C 0.38009 0.67471 0.57133 0.0
C725 C 0.36475 0.69812 0.58114 0.0
C726 C 0.37561 0.63118 0.64474 0.0
C727 C 0.39282 0.67391 0.53913 0.0
C728 C 0.45077 0.61009 0.57854 0.0
C729 C 0.43799 0.58521 0.56433 0.0
C730 C 0.43341 0.63214 0.58796 0.0
C731 C 0.40257 0.62919 0.58294 0.0
C732 C 0.38948 0.60385 0.5691 0.0
C733 C 0.40739 0.5821 0.55998 0.0
C734 C 0.44815 0.65878 0.60284 0.0
C735 C 0.35669 0.59995 0.5634 0.0
H736 H 0.34733 0.67887 0.65423 0.0
H737 H 0.36261 0.7154 0.56566 0.0
H738 H 0.36784 0.61007 0.63475 0.0
H739 H 0.39937 0.63049 0.64997 0.0
H740 H 0.36334 0.6347 0.6666 0.0
H741 H 0.38607 0.69163 0.52523 0.0
H742 H 0.41729 0.67531 0.54005 0.0
H743 H 0.38567 0.65345 0.52728 0.0
H744 H 0.47446 0.61252 0.58186 0.0
H745 H 0.39749 0.56287 0.5489 0.0
H746 H 0.43799 0.66272 0.62573 0.0
H747 H 0.44475 0.67741 0.5887 0.0
H748 H 0.47226 0.65744 0.6057 0.0
H749 H 0.34422 0.60284 0.5852 0.0
H750 H 0.34985 0.57861 0.55326 0.0
H751 H 0.35031 0.61636 0.54757 0.0
C752 C 0.92462 0.8729 0.72931 0.0
C753 C 0.89669 0.8826 0.736 0.0
C754 C 0.94195 0.88377 0.70476 0.0
C755 C 0.93149 0.90545 0.68708 0.0
C756 C 0.90403 0.91629 0.69456 0.0
C757 C 0.88678 0.90444 0.71856 0.0
C758 C 0.97087 0.87133 0.69704 0.0
C759 C 0.89237 0.93982 0.67654 0.0
C760 C 0.98141 0.951 0.63448 0.0
C761 C 0.97195 0.94027 0.60573 0.0
C762 C 0.9693 0.93914 0.66149 0.0
C763 C 0.948 0.91558 0.65937 0.0
C764 C 0.94015 0.90343 0.63027 0.0
C765 C 0.95186 0.91628 0.60373 0.0
C766 C 0.97769 0.95306 0.69208 0.0
C767 C 0.91822 0.87776 0.62709 0.0
H768 H 0.93288 0.85652 0.74301 0.0
H769 H 0.8651 0.91183 0.72299 0.0
H770 H 0.96947 0.86055 0.67409 0.0
H771 H 0.98903 0.88843 0.69583 0.0
H772 H 0.97666 0.85568 0.71409 0.0
H773 H 0.87216 0.94783 0.68725 0.0
H774 H 0.90944 0.95788 0.67462 0.0
H775 H 0.88701 0.93191 0.65291 0.0
H776 H 0.99687 0.96971 0.63586 0.0
H777 H 0.94482 0.90791 0.58135 0.0
H778 H 0.98293 0.93692 0.70874 0.0
H779 H 0.95868 0.96398 0.70167 0.0
H780 H 0.99695 0.96897 0.69005 0.0
H781 H 0.92381 0.86093 0.64278 0.0
H782 H 0.9175 0.86878 0.60324 0.0
H783 H 0.89581 0.88382 0.63361 0.0
C784 C 0.67731 0.15095 0.16619 0.0
C785 C 0.69162 0.13685 0.18891 0.0
C786 C 0.6599 0.13572 0.14407 0.0
C787 C 0.65723 0.10565 0.14429 0.0
C788 C 0.67345 0.09124 0.16559 0.0
C789 C 0.69025 0.10701 0.18784 0.0
C790 C 0.6428 0.15187 0.12183 0.0
C791 C 0.67158 0.05916 0.16617 0.0
C792 C 0.58472 0.06789 0.11877 0.0
C793 C 0.59158 0.05885 0.08884 0.0
C794 C 0.60588 0.08338 0.13687 0.0
C795 C 0.63478 0.08946 0.1249 0.0
C796 C 0.64192 0.08016 0.0947 0.0
C797 C 0.62006 0.06517 0.07684 0.0
C798 C 0.59724 0.09334 0.16878 0.0
C799 C 0.67266 0.0858 0.08145 0.0
H800 H 0.67885 0.174 0.16635 0.0
H801 H 0.70102 0.09584 0.20535 0.0
H802 H 0.64575 0.14351 0.09804 0.0
H803 H 0.61888 0.14894 0.12758 0.0
H804 H 0.64963 0.17502 0.12254 0.0
H805 H 0.68874 0.0513 0.18094 0.0
H806 H 0.64957 0.05118 0.17513 0.0
H807 H 0.67403 0.04997 0.14263 0.0
H808 H 0.56262 0.06312 0.12797 0.0
H809 H 0.62534 0.05803 0.05368 0.0
H810 H 0.60135 0.1168 0.1711 0.0
H811 H 0.61098 0.08391 0.18605 0.0
H812 H 0.57362 0.08747 0.17429 0.0
H813 H 0.67882 0.10902 0.08132 0.0
H814 H 0.67464 0.077 0.05765 0.0
H815 H 0.68883 0.07624 0.09605 0.0
C816 C 0.43611 0.6117 0.30293 0.0
C817 C 0.40624 0.60618 0.2952 0.0
C818 C 0.44814 0.59858 0.32794 0.0
C819 C 0.43004 0.57912 0.34551 0.0
C820 C 0.39997 0.5733 0.33778 0.0
C821 C 0.38841 0.58703 0.31296 0.0
C822 C 0.48025 0.60559 0.3356 0.0
C823 C 0.37994 0.55258 0.35579 0.0
C824 C 0.46734 0.52625 0.39358 0.0
C825 C 0.46566 0.53863 0.42316 0.0
C826 C 0.45571 0.53908 0.36814 0.0
C827 C 0.44243 0.56514 0.37226 0.0
C828 C 0.44084 0.57782 0.40203 0.0
C829 C 0.45226 0.56435 0.42709 0.0
C830 C 0.45747 0.52465 0.33687 0.0
C831 C 0.42723 0.60577 0.40741 0.0
H832 H 0.45028 0.62605 0.2892 0.0
H833 H 0.3652 0.58293 0.30769 0.0
H834 H 0.48217 0.6141 0.35955 0.0
H835 H 0.49226 0.58601 0.33411 0.0
H836 H 0.49126 0.62148 0.31999 0.0
H837 H 0.35733 0.54967 0.34625 0.0
H838 H 0.38934 0.53158 0.35589 0.0
H839 H 0.37832 0.56022 0.38003 0.0
H840 H 0.47753 0.50635 0.3903 0.0
H841 H 0.451 0.57424 0.44978 0.0
H842 H 0.47011 0.53893 0.32074 0.0
H843 H 0.43495 0.52025 0.32747 0.0
H844 H 0.46819 0.50432 0.33753 0.0
H845 H 0.43897 0.62241 0.39328 0.0
H846 H 0.42806 0.61303 0.43188 0.0
H847 H 0.40384 0.60372 0.40015 0.0
C848 C 0.11235 0.40581 0.82681 0.0
C849 C 0.10431 0.41102 0.7967 0.0
C850 C 0.10008 0.42031 0.85195 0.0
C851 C 0.07868 0.4399 0.8468 0.0
C852 C 0.07028 0.44495 0.81637 0.0
C853 C 0.0835 0.43072 0.79166 0.0
C854 C 0.11014 0.41483 0.88396 0.0
C855 C 0.04704 0.46511 0.80993 0.0
C856 C 0.02585 0.45673 0.9122 0.0
C857 C 0.03688 0.48414 0.92157 0.0
C858 C 0.03923 0.44209 0.88791 0.0
C859 C 0.06476 0.45487 0.87321 0.0
C860 C 0.07649 0.48224 0.88326 0.0
C861 C 0.06216 0.49672 0.90708 0.0
C862 C 0.02564 0.41323 0.87751 0.0
C863 C 0.10411 0.49627 0.86876 0.0
H864 H 0.12862 0.3907 0.83063 0.0
H865 H 0.07717 0.43457 0.76834 0.0
H866 H 0.1187 0.43512 0.8953 0.0
H867 H 0.09119 0.40606 0.89803 0.0
H868 H 0.12768 0.3997 0.88396 0.0
H869 H 0.04255 0.46622 0.78502 0.0
H870 H 0.02613 0.45823 0.82205 0.0
H871 H 0.05417 0.4868 0.81881 0.0
H872 H 0.00624 0.44698 0.92336 0.0
H873 H 0.07084 0.51783 0.91452 0.0
H874 H 0.04195 0.39707 0.87925 0.0
H875 H 0.01937 0.41376 0.85303 0.0
H876 H 0.0057 0.40631 0.89128 0.0
H877 H 0.12233 0.48197 0.86956 0.0
H878 H 0.11134 0.51685 0.88038 0.0
H879 H 0.10018 0.50017 0.84423 0.0
C880 C 0.65526 0.86985 0.92067 0.0
C881 C 0.6636 0.87235 0.88968 0.0
C882 C 0.63231 0.88482 0.93322 0.0
C883 C 0.61755 0.90294 0.91439 0.0
C884 C 0.62498 0.90469 0.88281 0.0
C885 C 0.64789 0.88927 0.87079 0.0
C886 C 0.62487 0.88229 0.96699 0.0
C887 C 0.60963 0.92378 0.86206 0.0
C888 C 0.54651 0.92958 0.94678 0.0
C889 C 0.55684 0.95575 0.96035 0.0
C890 C 0.56586 0.91241 0.93093 0.0
C891 C 0.59615 0.92178 0.92847 0.0
C892 C 0.60649 0.94861 0.94117 0.0
C893 C 0.58673 0.96523 0.95706 0.0
C894 C 0.55413 0.88384 0.91779 0.0
C895 C 0.63863 0.95942 0.93876 0.0
H896 H 0.66751 0.85715 0.93554 0.0
H897 H 0.65392 0.89092 0.84671 0.0
H898 H 0.63114 0.90281 0.97916 0.0
H899 H 0.60074 0.8776 0.9704 0.0
H900 H 0.63653 0.86536 0.97776 0.0
H901 H 0.61616 0.92081 0.83758 0.0
H902 H 0.58532 0.91968 0.86425 0.0
H903 H 0.6152 0.94634 0.86907 0.0
H904 H 0.52344 0.92209 0.94926 0.0
H905 H 0.59483 0.98555 0.96719 0.0
H906 H 0.56375 0.86665 0.93023 0.0
H907 H 0.56082 0.8816 0.8933 0.0
H908 H 0.52967 0.88066 0.91957 0.0
H909 H 0.65235 0.94532 0.95139 0.0
H910 H 0.64274 0.98146 0.94828 0.0
H911 H 0.64613 0.95901 0.91441 0.0
C912 C 0.87189 0.14549 0.42682 0.0
C913 C 0.84352 0.13375 0.41931 0.0
C914 C 0.8915 0.12961 0.44249 0.0
C915 C 0.8823 0.10153 0.45109 0.0
C916 C 0.85324 0.09005 0.44463 0.0
C917 C 0.83426 0.10626 0.42867 0.0
C918 C 0.92241 0.14244 0.44875 0.0
C919 C 0.84246 0.06033 0.45377 0.0
C920 C 0.93802 0.04664 0.45959 0.0
C921 C 0.94032 0.04565 0.49153 0.0
C922 C 0.92002 0.06551 0.44613 0.0
C923 C 0.90345 0.08338 0.46515 0.0
C924 C 0.90596 0.08269 0.49747 0.0
C925 C 0.92455 0.06389 0.51031 0.0
C926 C 0.91825 0.06584 0.41156 0.0
C927 C 0.88845 0.10126 0.51848 0.0
H928 H 0.87911 0.16668 0.4194 0.0
H929 H 0.81218 0.09731 0.4232 0.0
H930 H 0.92765 0.14074 0.47337 0.0
H931 H 0.93856 0.13045 0.43536 0.0
H932 H 0.92545 0.16516 0.44251 0.0
H933 H 0.81865 0.05533 0.44891 0.0
H934 H 0.85529 0.0446 0.44107 0.0
H935 H 0.84603 0.05767 0.47862 0.0
H936 H 0.95002 0.03238 0.44504 0.0
H937 H 0.92635 0.06314 0.53504 0.0
H938 H 0.92268 0.08787 0.40345 0.0
H939 H 0.89564 0.05822 0.40425 0.0
H940 H 0.93422 0.05219 0.40008 0.0
H941 H 0.89261 0.12389 0.51232 0.0
H942 H 0.89397 0.09917 0.54302 0.0
H943 H 0.86449 0.09541 0.51559 0.0
C944 C 0.2021 0.61786 0.07027 0.0
C945 C 0.21393 0.60649 0.09647 0.0
C946 C 0.17636 0.60514 0.05652 0.0
C947 C 0.16134 0.58097 0.06978 0.0
C948 C 0.17281 0.56953 0.09637 0.0
C949 C 0.19915 0.58207 0.10902 0.0
C950 C 0.16524 0.61759 0.02774 0.0
C951 C 0.15713 0.54413 0.11164 0.0
C952 C 0.07986 0.56504 0.05167 0.0
C953 C 0.08062 0.54166 0.03118 0.0
C954 C 0.10594 0.5779 0.06459 0.0
C955 C 0.1335 0.56771 0.05601 0.0
C956 C 0.13439 0.54454 0.03468 0.0
C957 C 0.10788 0.53148 0.02292 0.0
C958 C 0.10392 0.60195 0.08796 0.0
C959 C 0.16334 0.53358 0.02421 0.0
H960 H 0.21272 0.63698 0.06055 0.0
H961 H 0.20818 0.57249 0.12872 0.0
H962 H 0.16259 0.60089 0.00931 0.0
H963 H 0.14319 0.62553 0.03221 0.0
H964 H 0.18036 0.63542 0.01927 0.0
H965 H 0.16819 0.5386 0.13298 0.0
H966 H 0.13401 0.54851 0.11742 0.0
H967 H 0.15621 0.52538 0.09565 0.0
H968 H 0.05876 0.57275 0.05834 0.0
H969 H 0.10849 0.51351 0.0069 0.0
H970 H 0.11678 0.62135 0.0799 0.0
H971 H 0.11371 0.59622 0.10991 0.0
H972 H 0.08077 0.60708 0.09249 0.0
H973 H 0.17814 0.55122 0.01491 0.0
H974 H 0.16032 0.51641 0.00629 0.0
H975 H 0.17466 0.52519 0.044 0.0
C976 C 0.29839 0.42954 0.58205 0.0
C977 C 0.2983 0.40236 0.59437 0.0
C978 C 0.32358 0.442 0.56701 0.0
C979 C 0.34937 0.42702 0.56442 0.0
C980 C 0.34948 0.39971 0.57708 0.0
C981 C 0.32395 0.38769 0.59179 0.0
C982 C 0.32252 0.47107 0.55362 0.0
C983 C 0.37662 0.38315 0.57511 0.0
C984 C 0.40725 0.44389 0.5022 0.0
C985 C 0.42932 0.45982 0.51876 0.0
C986 C 0.38071 0.43381 0.51657 0.0
C987 C 0.37625 0.43968 0.5483 0.0
C988 C 0.39816 0.45648 0.5649 0.0
C989 C 0.42439 0.46645 0.54989 0.0
C990 C 0.35777 0.41625 0.49798 0.0
C991 C 0.39432 0.46317 0.59875 0.0
H992 H 0.27855 0.44087 0.58371 0.0
H993 H 0.32416 0.36686 0.60163 0.0
H994 H 0.34014 0.48598 0.56365 0.0
H995 H 0.32672 0.4698 0.52849 0.0
H996 H 0.30088 0.48004 0.55784 0.0
H997 H 0.37323 0.36234 0.58648 0.0
H998 H 0.38278 0.37925 0.5507 0.0
H999 H 0.39554 0.3957 0.58602 0.0
H1000 H 0.41093 0.43887 0.47807 0.0
H1001 H 0.44137 0.47884 0.56277 0.0
H1002 H 0.33602 0.42531 0.50054 0.0
H1003 H 0.35513 0.3943 0.50664 0.0
H1004 H 0.36376 0.41513 0.47318 0.0
H1005 H 0.37326 0.4731 0.60308 0.0
H1006 H 0.41273 0.4777 0.60796 0.0
H1007 H 0.39316 0.44317 0.61168 0.0
C1008 C 0.87947 0.71464 0.95736 0.0
C1009 C 0.85516 0.70842 0.93824 0.0
C1010 C 0.8946 0.6928 0.96937 0.0
C1011 C 0.88529 0.66419 0.96173 0.0
C1012 C 0.85945 0.65778 0.94427 0.0
C1013 C 0.84457 0.68007 0.93279 0.0
C1014 C 0.92179 0.70044 0.98831 0.0
C1015 C 0.84888 0.6275 0.93563 0.0
C1016 C 0.94504 0.61309 0.95198 0.0
C1017 C 0.9412 0.59725 0.97858 0.0
C1018 C 0.927 0.63504 0.9464 0.0
C1019 C 0.90479 0.64138 0.96814 0.0
C1020 C 0.90123 0.62583 0.99541 0.0
C1021 C 0.91947 0.60376 1.00027 0.0
C1022 C 0.93142 0.65114 0.91698 0.0
C1023 C 0.87799 0.63226 0.01919 0.0
H1024 H 0.88738 0.73663 0.96187 0.0
H1025 H 0.82583 0.6753 0.91788 0.0
H1026 H 0.92177 0.68699 0.00878 0.0
H1027 H 0.94178 0.69644 0.97441 0.0
H1028 H 0.92345 0.72316 0.99601 0.0
H1029 H 0.8265 0.62597 0.92549 0.0
H1030 H 0.86445 0.61884 0.91857 0.0
H1031 H 0.84845 0.61387 0.95597 0.0
H1032 H 0.96184 0.60798 0.93522 0.0
H1033 H 0.9166 0.59148 0.02091 0.0
H1034 H 0.93631 0.67415 0.92228 0.0
H1035 H 0.91086 0.64881 0.90341 0.0
H1036 H 0.94975 0.64355 0.90255 0.0
H1037 H 0.88061 0.65504 0.02643 0.0
H1038 H 0.87907 0.6191 0.03983 0.0
H1039 H 0.85571 0.62827 0.00913 0.0
C1040 C 0.41842 0.8264 0.12714 0.0
C1041 C 0.41262 0.80285 0.10714 0.0
C1042 C 0.43136 0.85236 0.11639 0.0
C1043 C 0.43888 0.85489 0.08486 0.0
C1044 C 0.43279 0.83131 0.06446 0.0
C1045 C 0.41968 0.80562 0.07582 0.0
C1046 C 0.43724 0.87704 0.13888 0.0
C1047 C 0.44064 0.83305 0.03074 0.0
C1048 C 0.45265 0.92987 0.05445 0.0
C1049 C 0.48348 0.93421 0.05609 0.0
C1050 C 0.43781 0.90395 0.06311 0.0
C1051 C 0.45423 0.88186 0.0736 0.0
C1052 C 0.48544 0.88595 0.07446 0.0
C1053 C 0.49966 0.91207 0.06575 0.0
C1054 C 0.40453 0.90045 0.06176 0.0
C1055 C 0.50383 0.86291 0.08518 0.0
H1056 H 0.41262 0.82459 0.15126 0.0
H1057 H 0.41552 0.78746 0.06025 0.0
H1058 H 0.46131 0.88315 0.1398 0.0
H1059 H 0.4264 0.89581 0.13114 0.0
H1060 H 0.42914 0.87196 0.16242 0.0
H1061 H 0.43342 0.8132 0.01769 0.0
H1062 H 0.4303 0.85107 0.02057 0.0
H1063 H 0.4649 0.83716 0.02783 0.0
H1064 H 0.44006 0.94695 0.04696 0.0
H1065 H 0.52352 0.91527 0.06689 0.0
H1066 H 0.39519 0.89773 0.08527 0.0
H1067 H 0.39731 0.88104 0.04806 0.0
H1068 H 0.39514 0.91902 0.05154 0.0
H1069 H 0.49844 0.85836 0.10956 0.0
H1070 H 0.52791 0.86893 0.0831 0.0
H1071 H 0.4986 0.84293 0.07162 0.0
C1072 C 0.11847 0.19047 0.58642 0.0
C1073 C 0.10746 0.20188 0.61405 0.0
C1074 C 0.10594 0.16477 0.57345 0.0
C1075 C 0.08122 0.15036 0.58793 0.0
C1076 C 0.0699 0.16166 0.61573 0.0
C1077 C 0.08335 0.18701 0.62864 0.0
C1078 C 0.119 0.15321 0.54402 0.0
C1079 C 0.04326 0.14719 0.63162 0.0
C1080 C 0.03226 0.10081 0.53648 0.0
C1081 C 0.04063 0.07401 0.54435 0.0
C1082 C 0.04474 0.12574 0.55106 0.0
C1083 C 0.06675 0.1239 0.57345 0.0
C1084 C 0.07532 0.09685 0.58144 0.0
C1085 C 0.06184 0.07218 0.56709 0.0
C1086 C 0.03443 0.15408 0.54241 0.0
C1087 C 0.09921 0.094 0.60461 0.0
H1088 H 0.13664 0.20184 0.57447 0.0
H1089 H 0.07491 0.19513 0.65026 0.0
H1090 H 0.12428 0.13088 0.54689 0.0
H1091 H 0.10267 0.15313 0.52535 0.0
H1092 H 0.13942 0.16593 0.53674 0.0
H1093 H 0.03698 0.15882 0.65296 0.0
H1094 H 0.02416 0.1455 0.61591 0.0
H1095 H 0.04772 0.12524 0.63753 0.0
H1096 H 0.01567 0.10226 0.51909 0.0
H1097 H 0.06853 0.05149 0.57301 0.0
H1098 H 0.05301 0.16737 0.53206 0.0
H1099 H 0.02697 0.16572 0.56324 0.0
H1100 H 0.01603 0.15173 0.5258 0.0
H1101 H 0.12012 0.10541 0.59667 0.0
H1102 H 0.10326 0.07145 0.60836 0.0
H1103 H 0.09311 0.10399 0.62692 0.0
C1104 C 0.65998 0.3238 0.41476 0.0
C1105 C 0.67121 0.32455 0.3846 0.0
C1106 C 0.64132 0.34422 0.42585 0.0
C1107 C 0.63357 0.3658 0.40625 0.0
C1108 C 0.64538 0.3671 0.37605 0.0
C1109 C 0.66415 0.34654 0.36564 0.0
C1110 C 0.62928 0.34227 0.45828 0.0
C1111 C 0.63765 0.38982 0.3545 0.0
C1112 C 0.56183 0.39941 0.42447 0.0
C1113 C 0.57209 0.42486 0.43942 0.0
C1114 C 0.58167 0.38015 0.41317 0.0
C1115 C 0.61241 0.38652 0.41709 0.0
C1116 C 0.62286 0.41246 0.43175 0.0
C1117 C 0.60254 0.43136 0.4427 0.0
C1118 C 0.56972 0.35279 0.39742 0.0
C1119 C 0.65546 0.41999 0.43638 0.0
H1120 H 0.66503 0.30671 0.42943 0.0
H1121 H 0.67312 0.34753 0.34247 0.0
H1122 H 0.63427 0.36275 0.47101 0.0
H1123 H 0.60489 0.33818 0.45788 0.0
H1124 H 0.63858 0.32507 0.47106 0.0
H1125 H 0.6494 0.38838 0.33203 0.0
H1126 H 0.61352 0.38789 0.35037 0.0
H1127 H 0.64322 0.41123 0.36502 0.0
H1128 H 0.53828 0.39439 0.42192 0.0
H1129 H 0.6105 0.45107 0.45428 0.0
H1130 H 0.57595 0.33435 0.41043 0.0
H1131 H 0.57959 0.35094 0.37407 0.0
H1132 H 0.54529 0.35142 0.39543 0.0
H1133 H 0.66455 0.40411 0.45116 0.0
H1134 H 0.66 0.44146 0.44724 0.0
H1135 H 0.66747 0.41931 0.41405 0.0
loop_
_geom_bond_atom_site_label_1
_geom_bond_atom_site_label_2
_geom_bond_distance
_geom_bond_site_symmetry_2
_ccdc_geom_bond_type
C0 C1 1.384 . S
C0 H13 0.947 . S
C0 C35 1.382 . S
C1 C0 1.384 . S
C1 C2 1.378 . S
C2 C1 1.378 . S
C2 C3 1.378 . S
C2 H14 0.952 . S
C3 C2 1.378 . S
C3 H15 0.950 . S
C3 C34 1.383 . S
H4 C23 0.947 . S
H5 C24 0.946 . S
H6 C26 0.953 . S
H7 C27 0.945 . S
H8 C29 0.952 . S
H9 C30 0.949 . S
H10 C32 0.950 . S
H11 C33 0.948 . S
H12 C35 0.951 . S
H13 C0 0.947 . S
H14 C2 0.952 . S
H15 C3 0.950 . S
N16 C19 1.382 . S
N16 C21 1.363 . S
N17 C19 1.371 . S
N17 C20 1.372 . S
N18 C20 1.361 . S
N18 C21 1.377 . S
C19 N16 1.382 . S
C19 N17 1.371 . S
C19 C22 1.480 . S
C20 N17 1.372 . S
C20 N18 1.361 . S
C20 C28 1.457 . S
C21 N16 1.363 . S
C21 N18 1.377 . S
C21 C34 1.479 . S
C22 C19 1.480 . S
C22 C23 1.383 . S
C22 C27 1.385 . S
C23 H4 0.947 . S
C23 C22 1.383 . S
C23 C24 1.388 . S
C24 H5 0.946 . S
C24 C23 1.388 . S
C24 C25 1.384 . S
C25 C24 1.384 . S
C25 C26 1.377 . S
C26 H6 0.953 . S
C26 C25 1.377 . S
C26 C27 1.369 . S
C27 H7 0.945 . S
C27 C22 1.385 . S
C27 C26 1.369 . S
C28 C20 1.457 . S
C28 C29 1.372 . S
C28 C33 1.364 . S
C29 H8 0.952 . S
C29 C28 1.372 . S
C29 C30 1.389 . S
C30 H9 0.949 . S
C30 C29 1.389 . S
C30 C31 1.387 . S
C31 C30 1.387 . S
C31 C32 1.372 . S
C32 H10 0.950 . S
C32 C31 1.372 . S
C32 C33 1.379 . S
C33 H11 0.948 . S
C33 C28 1.364 . S
C33 C32 1.379 . S
C34 C3 1.383 . S
C34 C21 1.479 . S
C34 C35 1.398 . S
C35 C0 1.382 . S
C35 H12 0.951 . S
C35 C34 1.398 . S
C36 C37 1.384 . S
C36 H49 0.947 . S
C36 C71 1.382 . S
C37 C36 1.384 . S
C37 C38 1.378 . S
C38 C37 1.378 . S
C38 C39 1.378 . S
C38 H50 0.952 . S
C39 C38 1.378 . S
C39 H51 0.950 . S
C39 C70 1.383 . S
H40 C59 0.947 . S
H41 C60 0.946 . S
H42 C62 0.953 . S
H43 C63 0.945 . S
H44 C65 0.952 . S
H45 C66 0.949 . S
H46 C68 0.950 . S
H47 C69 0.948 . S
H48 C71 0.951 . S
H49 C36 0.947 . S
H50 C38 0.952 . S
H51 C39 0.950 . S
N52 C55 1.382 . S
N52 C57 1.363 . S
N53 C55 1.371 . S
N53 C56 1.372 . S
N54 C56 1.361 . S
N54 C57 1.377 . S
C55 N52 1.382 . S
C55 N53 1.371 . S
C55 C58 1.480 . S
C56 N53 1.372 . S
C56 N54 1.361 . S
C56 C64 1.457 . S
C57 N52 1.363 . S
C57 N54 1.377 . S
C57 C70 1.479 . S
C58 C55 1.480 . S
C58 C59 1.383 . S
C58 C63 1.385 . S
C59 H40 0.947 . S
C59 C58 1.383 . S
C59 C60 1.388 . S
C60 H41 0.946 . S
C60 C59 1.388 . S
C60 C61 1.384 . S
C61 C60 1.384 . S
C61 C62 1.377 . S
C62 H42 0.953 . S
C62 C61 1.377 . S
C62 C63 1.369 . S
C63 H43 0.945 . S
C63 C58 1.385 . S
C63 C62 1.369 . S
C64 C56 1.457 . S
C64 C65 1.372 . S
C64 C69 1.364 . S
C65 H44 0.952 . S
C65 C64 1.372 . S
C65 C66 1.389 . S
C66 H45 0.949 . S
C66 C65 1.389 . S
C66 C67 1.387 . S
C67 C66 1.387 . S
C67 C68 1.372 . S
C68 H46 0.950 . S
C68 C67 1.372 . S
C68 C69 1.379 . S
C69 H47 0.948 . S
C69 C64 1.364 . S
C69 C68 1.379 . S
C70 C39 1.383 . S
C70 C57 1.479 . S
C70 C71 1.398 . S
C71 C36 1.382 . S
C71 H48 0.951 . S
C71 C70 1.398 . S
C72 C73 1.384 . S
C72 H85 0.947 . S
C72 C107 1.382 . S
C73 C72 1.384 . S
C73 C74 1.378 . S
C74 C73 1.378 . S
C74 C75 1.378 . S
C74 H86 0.952 . S
C75 C74 1.378 . S
C75 H87 0.950 . S
C75 C106 1.383 . S
H76 C95 0.947 . S
H77 C96 0.946 . S
H78 C98 0.953 . S
H79 C99 0.945 . S
H80 C101 0.952 . S
H81 C102 0.949 . S
H82 C104 0.950 . S
H83 C105 0.948 . S
H84 C107 0.951 . S
H85 C72 0.947 . S
H86 C74 0.952 . S
H87 C75 0.950 . S
N88 C91 1.382 . S
N88 C93 1.363 . S
N89 C91 1.371 . S
N89 C92 1.372 . S
N90 C92 1.361 . S
N90 C93 1.377 . S
C91 N88 1.382 . S
C91 N89 1.371 . S
C91 C94 1.480 . S
C92 N89 1.372 . S
C92 N90 1.361 . S
C92 C100 1.457 . S
C93 N88 1.363 . S
C93 N90 1.377 . S
C93 C106 1.479 . S
C94 C91 1.480 . S
C94 C95 1.383 . S
C94 C99 1.385 . S
C95 H76 0.947 . S
C95 C94 1.383 . S
C95 C96 1.388 . S
C96 H77 0.946 . S
C96 C95 1.388 . S
C96 C97 1.384 . S
C97 C96 1.384 . S
C97 C98 1.377 . S
C98 H78 0.953 . S
C98 C97 1.377 . S
C98 C99 1.369 . S
C99 H79 0.945 . S
C99 C94 1.385 . S
C99 C98 1.369 . S
C100 C92 1.457 . S
C100 C101 1.372 . S
C100 C105 1.364 . S
C101 H80 0.952 . S
C101 C100 1.372 . S
C101 C102 1.389 . S
C102 H81 0.949 . S
C102 C101 1.389 . S
C102 C103 1.387 . S
C103 C102 1.387 . S
C103 C104 1.372 . S
C104 H82 0.950 . S
C104 C103 1.372 . S
C104 C105 1.379 . S
C105 H83 0.948 . S
C105 C100 1.364 . S
C105 C104 1.379 . S
C106 C75 1.383 . S
C106 C93 1.479 . S
C106 C107 1.398 . S
C107 C72 1.382 . S
C107 H84 0.951 . S
C107 C106 1.398 . S
C108 C109 1.384 . S
C108 H121 0.947 . S
C108 C143 1.382 . S
C109 C108 1.384 . S
C109 C110 1.378 . S
C110 C109 1.378 . S
C110 C111 1.378 . S
C110 H122 0.952 . S
C111 C110 1.378 . S
C111 H123 0.950 . S
C111 C142 1.383 . S
H112 C131 0.947 . S
H113 C132 0.946 . S
H114 C134 0.953 . S
H115 C135 0.945 . S
H116 C137 0.952 . S
H117 C138 0.949 . S
H118 C140 0.950 . S
H119 C141 0.948 . S
H120 C143 0.951 . S
H121 C108 0.947 . S
H122 C110 0.952 . S
H123 C111 0.950 . S
N124 C127 1.382 . S
N124 C129 1.363 . S
N125 C127 1.371 . S
N125 C128 1.372 . S
N126 C128 1.361 . S
N126 C129 1.377 . S
C127 N124 1.382 . S
C127 N125 1.371 . S
C127 C130 1.480 . S
C128 N125 1.372 . S
C128 N126 1.361 . S
C128 C136 1.457 . S
C129 N124 1.363 . S
C129 N126 1.377 . S
C129 C142 1.479 . S
C130 C127 1.480 . S
C130 C131 1.383 . S
C130 C135 1.385 . S
C131 H112 0.947 . S
C131 C130 1.383 . S
C131 C132 1.388 . S
C132 H113 0.946 . S
C132 C131 1.388 . S
C132 C133 1.384 . S
C133 C132 1.384 . S
C133 C134 1.377 . S
C134 H114 0.953 . S
C134 C133 1.377 . S
C134 C135 1.369 . S
C135 H115 0.945 . S
C135 C130 1.385 . S
C135 C134 1.369 . S
C136 C128 1.457 . S
C136 C137 1.372 . S
C136 C141 1.364 . S
C137 H116 0.952 . S
C137 C136 1.372 . S
C137 C138 1.389 . S
C138 H117 0.949 . S
C138 C137 1.389 . S
C138 C139 1.387 . S
C139 C138 1.387 . S
C139 C140 1.372 . S
C140 H118 0.950 . S
C140 C139 1.372 . S
C140 C141 1.379 . S
C141 H119 0.948 . S
C141 C136 1.364 . S
C141 C140 1.379 . S
C142 C111 1.383 . S
C142 C129 1.479 . S
C142 C143 1.398 . S
C143 C108 1.382 . S
C143 H120 0.951 . S
C143 C142 1.398 . S
C144 C145 1.384 . S
C144 H157 0.947 . S
C144 C179 1.382 . S
C145 C144 1.384 . S
C145 C146 1.378 . S
C146 C145 1.378 . S
C146 C147 1.378 . S
C146 H158 0.952 . S
C147 C146 1.378 . S
C147 H159 0.950 . S
C147 C178 1.383 . S
H148 C167 0.947 . S
H149 C168 0.946 . S
H150 C170 0.953 . S
H151 C171 0.945 . S
H152 C173 0.952 . S
H153 C174 0.949 . S
H154 C176 0.950 . S
H155 C177 0.948 . S
H156 C179 0.951 . S
H157 C144 0.947 . S
H158 C146 0.952 . S
H159 C147 0.950 . S
N160 C163 1.382 . S
N160 C165 1.363 . S
N161 C163 1.371 . S
N161 C164 1.372 . S
N162 C164 1.361 . S
N162 C165 1.377 . S
C163 N160 1.382 . S
C163 N161 1.371 . S
C163 C166 1.480 . S
C164 N161 1.372 . S
C164 N162 1.361 . S
C164 C172 1.457 . S
C165 N160 1.363 . S
C165 N162 1.377 . S
C165 C178 1.479 . S
C166 C163 1.480 . S
C166 C167 1.383 . S
C166 C171 1.385 . S
C167 H148 0.947 . S
C167 C166 1.383 . S
C167 C168 1.388 . S
C168 H149 0.946 . S
C168 C167 1.388 . S
C168 C169 1.384 . S
C169 C168 1.384 . S
C169 C170 1.377 . S
C170 H150 0.953 . S
C170 C169 1.377 . S
C170 C171 1.369 . S
C171 H151 0.945 . S
C171 C166 1.385 . S
C171 C170 1.369 . S
C172 C164 1.457 . S
C172 C173 1.372 . S
C172 C177 1.364 . S
C173 H152 0.952 . S
C173 C172 1.372 . S
C173 C174 1.389 . S
C174 H153 0.949 . S
C174 C173 1.389 . S
C174 C175 1.387 . S
C175 C174 1.387 . S
C175 C176 1.372 . S
C176 H154 0.950 . S
C176 C175 1.372 . S
C176 C177 1.379 . S
C177 H155 0.948 . S
C177 C172 1.364 . S
C177 C176 1.379 . S
C178 C147 1.383 . S
C178 C165 1.479 . S
C178 C179 1.398 . S
C179 C144 1.382 . S
C179 H156 0.951 . S
C179 C178 1.398 . S
C180 C181 1.384 . S
C180 H193 0.947 . S
C180 C215 1.382 . S
C181 C180 1.384 . S
C181 C182 1.378 . S
C182 C181 1.378 . S
C182 C183 1.378 . S
C182 H194 0.952 . S
C183 C182 1.378 . S
C183 H195 0.950 . S
C183 C214 1.383 . S
H184 C203 0.947 . S
H185 C204 0.946 . S
H186 C206 0.953 . S
H187 C207 0.945 . S
H188 C209 0.952 . S
H189 C210 0.949 . S
H190 C212 0.950 . S
H191 C213 0.948 . S
H192 C215 0.951 . S
H193 C180 0.947 . S
H194 C182 0.952 . S
H195 C183 0.950 . S
N196 C199 1.382 . S
N196 C201 1.363 . S
N197 C199 1.371 . S
N197 C200 1.372 . S
N198 C200 1.361 . S
N198 C201 1.377 . S
C199 N196 1.382 . S
C199 N197 1.371 . S
C199 C202 1.480 . S
C200 N197 1.372 . S
C200 N198 1.361 . S
C200 C208 1.457 . S
C201 N196 1.363 . S
C201 N198 1.377 . S
C201 C214 1.479 . S
C202 C199 1.480 . S
C202 C203 1.383 . S
C202 C207 1.385 . S
C203 H184 0.947 . S
C203 C202 1.383 . S
C203 C204 1.388 . S
C204 H185 0.946 . S
C204 C203 1.388 . S
C204 C205 1.384 . S
C205 C204 1.384 . S
C205 C206 1.377 . S
C206 H186 0.953 . S
C206 C205 1.377 . S
C206 C207 1.369 . S
C207 H187 0.945 . S
C207 C202 1.385 . S
C207 C206 1.369 . S
C208 C200 1.457 . S
C208 C209 1.372 . S
C208 C213 1.364 . S
C209 H188 0.952 . S
C209 C208 1.372 . S
C209 C210 1.389 . S
C210 H189 0.949 . S
C210 C209 1.389 . S
C210 C211 1.387 . S
C211 C210 1.387 . S
C211 C212 1.372 . S
C212 H190 0.950 . S
C212 C211 1.372 . S
C212 C213 1.379 . S
C213 H191 0.948 . S
C213 C208 1.364 . S
C213 C212 1.379 . S
C214 C183 1.383 . S
C214 C201 1.479 . S
C214 C215 1.398 . S
C215 C180 1.382 . S
C215 H192 0.951 . S
C215 C214 1.398 . S
C216 C217 1.384 . S
C216 H229 0.947 . S
C216 C251 1.382 . S
C217 C216 1.384 . S
C217 C218 1.378 . S
C218 C217 1.378 . S
C218 C219 1.378 . S
C218 H230 0.952 . S
C219 C218 1.378 . S
C219 H231 0.950 . S
C219 C250 1.383 . S
H220 C239 0.947 . S
H221 C240 0.946 . S
H222 C242 0.953 . S
H223 C243 0.945 . S
H224 C245 0.952 . S
H225 C246 0.949 . S
H226 C248 0.950 . S
H227 C249 0.948 . S
H228 C251 0.951 . S
H229 C216 0.947 . S
H230 C218 0.952 . S
H231 C219 0.950 . S
N232 C235 1.382 . S
N232 C237 1.363 . S
N233 C235 1.371 . S
N233 C236 1.372 . S
N234 C236 1.361 . S
N234 C237 1.377 . S
C235 N232 1.382 . S
C235 N233 1.371 . S
C235 C238 1.480 . S
C236 N233 1.372 . S
C236 N234 1.361 . S
C236 C244 1.457 . S
C237 N232 1.363 . S
C237 N234 1.377 . S
C237 C250 1.479 . S
C238 C235 1.480 . S
C238 C239 1.383 . S
C238 C243 1.385 . S
C239 H220 0.947 . S
C239 C238 1.383 . S
C239 C240 1.388 . S
C240 H221 0.946 . S
C240 C239 1.388 . S
C240 C241 1.384 . S
C241 C240 1.384 . S
C241 C242 1.377 . S
C242 H222 0.953 . S
C242 C241 1.377 . S
C242 C243 1.369 . S
C243 H223 0.945 . S
C243 C238 1.385 . S
C243 C242 1.369 . S
C244 C236 1.457 . S
C244 C245 1.372 . S
C244 C249 1.364 . S
C245 H224 0.952 . S
C245 C244 1.372 . S
C245 C246 1.389 . S
C246 H225 0.949 . S
C246 C245 1.389 . S
C246 C247 1.387 . S
C247 C246 1.387 . S
C247 C248 1.372 . S
C248 H226 0.950 . S
C248 C247 1.372 . S
C248 C249 1.379 . S
C249 H227 0.948 . S
C249 C244 1.364 . S
C249 C248 1.379 . S
C250 C219 1.383 . S
C250 C237 1.479 . S
C250 C251 1.398 . S
C251 C216 1.382 . S
C251 H228 0.951 . S
C251 C250 1.398 . S
C252 C253 1.384 . S
C252 H265 0.947 . S
C252 C287 1.382 . S
C253 C252 1.384 . S
C253 C254 1.378 . S
C254 C253 1.378 . S
C254 C255 1.378 . S
C254 H266 0.952 . S
C255 C254 1.378 . S
C255 H267 0.950 . S
C255 C286 1.383 . S
H256 C275 0.947 . S
H257 C276 0.946 . S
H258 C278 0.953 . S
H259 C279 0.945 . S
H260 C281 0.952 . S
H261 C282 0.949 . S
H262 C284 0.950 . S
H263 C285 0.948 . S
H264 C287 0.951 . S
H265 C252 0.947 . S
H266 C254 0.952 . S
H267 C255 0.950 . S
N268 C271 1.382 . S
N268 C273 1.363 . S
N269 C271 1.371 . S
N269 C272 1.372 . S
N270 C272 1.361 . S
N270 C273 1.377 . S
C271 N268 1.382 . S
C271 N269 1.371 . S
C271 C274 1.480 . S
C272 N269 1.372 . S
C272 N270 1.361 . S
C272 C280 1.457 . S
C273 N268 1.363 . S
C273 N270 1.377 . S
C273 C286 1.479 . S
C274 C271 1.480 . S
C274 C275 1.383 . S
C274 C279 1.385 . S
C275 H256 0.947 . S
C275 C274 1.383 . S
C275 C276 1.388 . S
C276 H257 0.946 . S
C276 C275 1.388 . S
C276 C277 1.384 . S
C277 C276 1.384 . S
C277 C278 1.377 . S
C278 H258 0.953 . S
C278 C277 1.377 . S
C278 C279 1.369 . S
C279 H259 0.945 . S
C279 C274 1.385 . S
C279 C278 1.369 . S
C280 C272 1.457 . S
C280 C281 1.372 . S
C280 C285 1.364 . S
C281 H260 0.952 . S
C281 C280 1.372 . S
C281 C282 1.389 . S
C282 H261 0.949 . S
C282 C281 1.389 . S
C282 C283 1.387 . S
C283 C282 1.387 . S
C283 C284 1.372 . S
C284 H262 0.950 . S
C284 C283 1.372 . S
C284 C285 1.379 . S
C285 H263 0.948 . S
C285 C280 1.364 . S
C285 C284 1.379 . S
C286 C255 1.383 . S
C286 C273 1.479 . S
C286 C287 1.398 . S
C287 C252 1.382 . S
C287 H264 0.951 . S
C287 C286 1.398 . S
Dy288 O292 2.398 . S
Dy288 O293 2.491 . S
Dy288 O294 2.403 1_545 S
Dy288 O295 2.664 1_545 S
Dy288 O299 2.326 . S
Dy288 O303 2.310 1_455 S
Dy288 O304 2.351 1_445 S
C289 O300 1.185 . S
C289 O301 1.355 . S
C290 O292 1.185 . S
C290 O293 1.355 . S
Dy291 O295 2.310 1_655 S
Dy291 O298 2.351 1_665 S
Dy291 O300 2.398 . S
Dy291 O301 2.491 . S
Dy291 O302 2.403 1_565 S
Dy291 O303 2.664 1_565 S
Dy291 O305 2.326 . S
O292 Dy288 2.398 . S
O292 C290 1.185 . S
O293 Dy288 2.491 . S
O293 C290 1.355 . S
O294 Dy288 2.403 1_565 S
O294 C296 1.254 . S
O295 Dy288 2.664 1_565 S
O295 Dy291 2.310 1_455 S
O295 C296 1.268 . S
C296 O294 1.254 . S
C296 O295 1.268 . S
C297 O302 1.254 . S
C297 O303 1.268 . S
O298 Dy291 2.351 1_445 S
O298 C306 1.249 . S
O299 Dy288 2.326 . S
O299 C306 1.267 . S
O300 C289 1.185 . S
O300 Dy291 2.398 . S
O301 C289 1.355 . S
O301 Dy291 2.491 . S
O302 Dy291 2.403 1_545 S
O302 C297 1.254 . S
O303 Dy288 2.310 1_655 S
O303 Dy291 2.664 1_545 S
O303 C297 1.268 . S
O304 Dy288 2.351 1_665 S
O304 C307 1.249 . S
O305 Dy291 2.326 . S
O305 C307 1.267 . S
C306 O298 1.249 . S
C306 O299 1.267 . S
C307 O304 1.249 . S
C307 O305 1.267 . S
Dy308 O312 2.398 . S
Dy308 O313 2.491 . S
Dy308 O314 2.403 1_545 S
Dy308 O315 2.664 1_545 S
Dy308 O319 2.326 . S
Dy308 O323 2.310 1_554 S
Dy308 O324 2.351 1_544 S
C309 O320 1.185 . S
C309 O321 1.355 . S
C310 O312 1.185 . S
C310 O313 1.355 . S
Dy311 O315 2.303 1_546 S
Dy311 O318 2.357 1_556 S
Dy311 O320 2.397 1_545 S
Dy311 O321 2.483 1_545 S
Dy311 O322 2.411 . S
Dy311 O323 2.669 . S
Dy311 O325 2.322 1_545 S
O312 Dy308 2.398 . S
O312 C310 1.185 . S
O313 Dy308 2.491 . S
O313 C310 1.355 . S
O314 Dy308 2.403 1_565 S
O314 C316 1.254 . S
O315 Dy308 2.664 1_565 S
O315 Dy311 2.303 1_564 S
O315 C316 1.268 . S
C316 O314 1.254 . S
C316 O315 1.268 . S
C317 O322 1.254 . S
C317 O323 1.268 . S
O318 Dy311 2.357 1_554 S
O318 C326 1.249 . S
O319 Dy308 2.326 . S
O319 C326 1.267 . S
O320 C309 1.185 . S
O320 Dy311 2.397 1_565 S
O321 C309 1.355 . S
O321 Dy311 2.483 1_565 S
O322 Dy311 2.411 . S
O322 C317 1.254 . S
O323 Dy308 2.310 1_556 S
O323 Dy311 2.669 . S
O323 C317 1.268 . S
O324 Dy308 2.351 1_566 S
O324 C327 1.249 . S
O325 Dy311 2.322 1_565 S
O325 C327 1.267 . S
C326 O318 1.249 . S
C326 O319 1.267 . S
C327 O324 1.249 . S
C327 O325 1.267 . S
Dy328 O332 2.398 . S
Dy328 O333 2.491 . S
Dy328 O334 2.403 . S
Dy328 O335 2.664 . S
Dy328 O339 2.326 . S
Dy328 O343 2.310 . S
Dy328 O344 2.351 . S
C329 O340 1.185 . S
C329 O341 1.355 . S
C330 O332 1.185 . S
C330 O333 1.355 . S
Dy331 O335 2.310 . S
Dy331 O338 2.351 . S
Dy331 O340 2.398 . S
Dy331 O341 2.491 . S
Dy331 O342 2.403 . S
Dy331 O343 2.664 . S
Dy331 O345 2.326 . S
O332 Dy328 2.398 . S
O332 C330 1.185 . S
O333 Dy328 2.491 . S
O333 C330 1.355 . S
O334 Dy328 2.403 . S
O334 C336 1.254 . S
O335 Dy328 2.664 . S
O335 Dy331 2.310 . S
O335 C336 1.268 . S
C336 O334 1.254 . S
C336 O335 1.268 . S
C337 O342 1.254 . S
C337 O343 1.268 . S
O338 Dy331 2.351 . S
O338 C346 1.249 . S
O339 Dy328 2.326 . S
O339 C346 1.267 . S
O340 C329 1.185 . S
O340 Dy331 2.398 . S
O341 C329 1.355 . S
O341 Dy331 2.491 . S
O342 Dy331 2.403 . S
O342 C337 1.254 . S
O343 Dy328 2.310 . S
O343 Dy331 2.664 . S
O343 C337 1.268 . S
O344 Dy328 2.351 . S
O344 C347 1.249 . S
O345 Dy331 2.326 . S
O345 C347 1.267 . S
C346 O338 1.249 . S
C346 O339 1.267 . S
C347 O344 1.249 . S
C347 O345 1.267 . S
Dy348 O352 2.398 . S
Dy348 O353 2.491 . S
Dy348 O354 2.403 1_455 S
Dy348 O355 2.664 1_455 S
Dy348 O359 2.326 . S
Dy348 O363 2.310 1_554 S
Dy348 O364 2.351 1_454 S
C349 O360 1.185 . S
C349 O361 1.355 . S
C350 O352 1.185 . S
C350 O353 1.355 . S
Dy351 O355 2.310 1_556 S
Dy351 O358 2.351 1_656 S
Dy351 O360 2.398 . S
Dy351 O361 2.491 . S
Dy351 O362 2.403 1_655 S
Dy351 O363 2.664 1_655 S
Dy351 O365 2.326 . S
O352 Dy348 2.398 . S
O352 C350 1.185 . S
O353 Dy348 2.491 . S
O353 C350 1.355 . S
O354 Dy348 2.403 1_655 S
O354 C356 1.254 . S
O355 Dy348 2.664 1_655 S
O355 Dy351 2.310 1_554 S
O355 C356 1.268 . S
C356 O354 1.254 . S
C356 O355 1.268 . S
C357 O362 1.254 . S
C357 O363 1.268 . S
O358 Dy351 2.351 1_454 S
O358 C366 1.249 . S
O359 Dy348 2.326 . S
O359 C366 1.267 . S
O360 C349 1.185 . S
O360 Dy351 2.398 . S
O361 C349 1.355 . S
O361 Dy351 2.491 . S
O362 Dy351 2.403 1_455 S
O362 C357 1.254 . S
O363 Dy348 2.310 1_556 S
O363 Dy351 2.664 1_455 S
O363 C357 1.268 . S
O364 Dy348 2.351 1_656 S
O364 C367 1.249 . S
O365 Dy351 2.326 . S
O365 C367 1.267 . S
C366 O358 1.249 . S
C366 O359 1.267 . S
C367 O364 1.249 . S
C367 O365 1.267 . S
C368 C369 1.391 . S
C368 C370 1.394 . S
C368 H384 0.931 . S
C369 C368 1.391 . S
C369 C373 1.376 . S
C370 C368 1.394 . S
C370 C371 1.369 . S
C370 C374 1.531 . S
C371 C370 1.369 . S
C371 C372 1.410 . S
C371 C379 1.503 . S
C372 C371 1.410 . S
C372 C373 1.392 . S
C372 C375 1.511 . S
C373 C369 1.376 . S
C373 C372 1.392 . S
C373 H385 0.929 . S
C374 C370 1.531 . S
C374 H386 0.960 . S
C374 H387 0.962 . S
C374 H388 0.960 . S
C375 C372 1.511 . S
C375 H389 0.961 . S
C375 H390 0.961 . S
C375 H391 0.961 . S
C376 C377 1.370 . S
C376 C378 1.363 . S
C376 H392 0.931 . S
C377 C376 1.370 . S
C377 C381 1.408 . S
C378 C376 1.363 . S
C378 C379 1.370 . S
C378 C382 1.524 . S
C379 C371 1.503 . S
C379 C378 1.370 . S
C379 C380 1.403 . S
C380 C379 1.403 . S
C380 C381 1.404 . S
C380 C383 1.539 . S
C381 C377 1.408 . S
C381 C380 1.404 . S
C381 H393 0.930 . S
C382 C378 1.524 . S
C382 H394 0.956 . S
C382 H395 0.961 . S
C382 H396 0.961 . S
C383 C380 1.539 . S
C383 H397 0.958 . S
C383 H398 0.961 . S
C383 H399 0.960 . S
H384 C368 0.931 . S
H385 C373 0.929 . S
H386 C374 0.960 . S
H387 C374 0.962 . S
H388 C374 0.960 . S
H389 C375 0.961 . S
H390 C375 0.961 . S
H391 C375 0.961 . S
H392 C376 0.931 . S
H393 C381 0.930 . S
H394 C382 0.956 . S
H395 C382 0.961 . S
H396 C382 0.961 . S
H397 C383 0.958 . S
H398 C383 0.961 . S
H399 C383 0.960 . S
C400 C401 1.391 . S
C400 C402 1.394 . S
C400 H416 0.931 . S
C401 C400 1.391 . S
C401 C405 1.376 . S
C402 C400 1.394 . S
C402 C403 1.369 . S
C402 C406 1.531 . S
C403 C402 1.369 . S
C403 C404 1.410 . S
C403 C411 1.503 . S
C404 C403 1.410 . S
C404 C405 1.392 . S
C404 C407 1.511 . S
C405 C401 1.376 . S
C405 C404 1.392 . S
C405 H417 0.929 . S
C406 C402 1.531 . S
C406 H418 0.960 . S
C406 H419 0.962 . S
C406 H420 0.960 . S
C407 C404 1.511 . S
C407 H421 0.961 . S
C407 H422 0.961 . S
C407 H423 0.961 . S
C408 C409 1.370 . S
C408 C410 1.363 . S
C408 H424 0.931 . S
C409 C408 1.370 . S
C409 C413 1.408 . S
C410 C408 1.363 . S
C410 C411 1.370 . S
C410 C414 1.524 . S
C411 C403 1.503 . S
C411 C410 1.370 . S
C411 C412 1.403 . S
C412 C411 1.403 . S
C412 C413 1.404 . S
C412 C415 1.539 . S
C413 C409 1.408 . S
C413 C412 1.404 . S
C413 H425 0.930 . S
C414 C410 1.524 . S
C414 H426 0.956 . S
C414 H427 0.961 . S
C414 H428 0.961 . S
C415 C412 1.539 . S
C415 H429 0.958 . S
C415 H430 0.961 . S
C415 H431 0.960 . S
H416 C400 0.931 . S
H417 C405 0.929 . S
H418 C406 0.960 . S
H419 C406 0.962 . S
H420 C406 0.960 . S
H421 C407 0.961 . S
H422 C407 0.961 . S
H423 C407 0.961 . S
H424 C408 0.931 . S
H425 C413 0.930 . S
H426 C414 0.956 . S
H427 C414 0.961 . S
H428 C414 0.961 . S
H429 C415 0.958 . S
H430 C415 0.961 . S
H431 C415 0.960 . S
C432 C433 1.391 . S
C432 C434 1.394 . S
C432 H448 0.931 . S
C433 C432 1.391 . S
C433 C437 1.376 . S
C434 C432 1.394 . S
C434 C435 1.369 . S
C434 C438 1.531 . S
C435 C434 1.369 . S
C435 C436 1.410 . S
C435 C443 1.503 . S
C436 C435 1.410 . S
C436 C437 1.392 . S
C436 C439 1.511 . S
C437 C433 1.376 . S
C437 C436 1.392 . S
C437 H449 0.929 . S
C438 C434 1.531 . S
C438 H450 0.960 . S
C438 H451 0.962 . S
C438 H452 0.960 . S
C439 C436 1.511 . S
C439 H453 0.961 . S
C439 H454 0.961 . S
C439 H455 0.961 . S
C440 C441 1.370 . S
C440 C442 1.363 . S
C440 H456 0.931 . S
C441 C440 1.370 . S
C441 C445 1.408 . S
C442 C440 1.363 . S
C442 C443 1.370 . S
C442 C446 1.524 . S
C443 C435 1.503 . S
C443 C442 1.370 . S
C443 C444 1.403 . S
C444 C443 1.403 . S
C444 C445 1.404 . S
C444 C447 1.539 . S
C445 C441 1.408 . S
C445 C444 1.404 . S
C445 H457 0.930 . S
C446 C442 1.524 . S
C446 H458 0.956 . S
C446 H459 0.961 . S
C446 H460 0.961 . S
C447 C444 1.539 . S
C447 H461 0.958 . S
C447 H462 0.961 . S
C447 H463 0.960 . S
H448 C432 0.931 . S
H449 C437 0.929 . S
H450 C438 0.960 . S
H451 C438 0.962 . S
H452 C438 0.960 . S
H453 C439 0.961 . S
H454 C439 0.961 . S
H455 C439 0.961 . S
H456 C440 0.931 . S
H457 C445 0.930 . S
H458 C446 0.956 . S
H459 C446 0.961 . S
H460 C446 0.961 . S
H461 C447 0.958 . S
H462 C447 0.961 . S
H463 C447 0.960 . S
C464 C465 1.391 . S
C464 C466 1.394 . S
C464 H480 0.931 . S
C465 C464 1.391 . S
C465 C469 1.376 . S
C466 C464 1.394 . S
C466 C467 1.369 . S
C466 C470 1.531 . S
C467 C466 1.369 . S
C467 C468 1.410 . S
C467 C475 1.503 . S
C468 C467 1.410 . S
C468 C469 1.392 . S
C468 C471 1.511 . S
C469 C465 1.376 . S
C469 C468 1.392 . S
C469 H481 0.929 . S
C470 C466 1.531 . S
C470 H482 0.960 . S
C470 H483 0.962 . S
C470 H484 0.960 . S
C471 C468 1.511 . S
C471 H485 0.961 . S
C471 H486 0.961 . S
C471 H487 0.959 1_655 S
C472 C473 1.370 . S
C472 C474 1.363 . S
C472 H488 0.931 . S
C473 C472 1.370 . S
C473 C477 1.408 . S
C474 C472 1.363 . S
C474 C475 1.370 . S
C474 C478 1.524 . S
C475 C467 1.503 . S
C475 C474 1.370 . S
C475 C476 1.403 . S
C476 C475 1.403 . S
C476 C477 1.404 . S
C476 C479 1.539 . S
C477 C473 1.408 . S
C477 C476 1.404 . S
C477 H489 0.930 . S
C478 C474 1.524 . S
C478 H490 0.956 . S
C478 H491 0.961 . S
C478 H492 0.961 . S
C479 C476 1.539 . S
C479 H493 0.958 . S
C479 H494 0.961 . S
C479 H495 0.960 . S
H480 C464 0.931 . S
H481 C469 0.929 . S
H482 C470 0.960 . S
H483 C470 0.962 . S
H484 C470 0.960 . S
H485 C471 0.961 . S
H486 C471 0.961 . S
H487 C471 0.959 1_455 S
H488 C472 0.931 . S
H489 C477 0.930 . S
H490 C478 0.956 . S
H491 C478 0.961 . S
H492 C478 0.961 . S
H493 C479 0.958 . S
H494 C479 0.961 . S
H495 C479 0.960 . S
C496 C497 1.391 . S
C496 C498 1.394 . S
C496 H512 0.931 . S
C497 C496 1.391 . S
C497 C501 1.376 . S
C498 C496 1.394 . S
C498 C499 1.369 . S
C498 C502 1.531 . S
C499 C498 1.369 . S
C499 C500 1.410 . S
C499 C507 1.503 . S
C500 C499 1.410 . S
C500 C501 1.392 . S
C500 C503 1.511 . S
C501 C497 1.376 . S
C501 C500 1.392 . S
C501 H513 0.929 . S
C502 C498 1.531 . S
C502 H514 0.960 . S
C502 H515 0.962 . S
C502 H516 0.960 . S
C503 C500 1.511 . S
C503 H517 0.961 . S
C503 H518 0.961 . S
C503 H519 0.961 . S
C504 C505 1.370 . S
C504 C506 1.363 . S
C504 H520 0.931 . S
C505 C504 1.370 . S
C505 C509 1.408 . S
C506 C504 1.363 . S
C506 C507 1.370 . S
C506 C510 1.524 . S
C507 C499 1.503 . S
C507 C506 1.370 . S
C507 C508 1.403 . S
C508 C507 1.403 . S
C508 C509 1.404 . S
C508 C511 1.539 . S
C509 C505 1.408 . S
C509 C508 1.404 . S
C509 H521 0.930 . S
C510 C506 1.524 . S
C510 H522 0.956 . S
C510 H523 0.961 . S
C510 H524 0.961 . S
C511 C508 1.539 . S
C511 H525 0.958 . S
C511 H526 0.961 . S
C511 H527 0.960 . S
H512 C496 0.931 . S
H513 C501 0.929 . S
H514 C502 0.960 . S
H515 C502 0.962 . S
H516 C502 0.960 . S
H517 C503 0.961 . S
H518 C503 0.961 . S
H519 C503 0.961 . S
H520 C504 0.931 . S
H521 C509 0.930 . S
H522 C510 0.956 . S
H523 C510 0.961 . S
H524 C510 0.961 . S
H525 C511 0.958 . S
H526 C511 0.961 . S
H527 C511 0.960 . S
C528 C529 1.391 . S
C528 C530 1.394 . S
C528 H544 0.931 . S
C529 C528 1.391 . S
C529 C533 1.376 . S
C530 C528 1.394 . S
C530 C531 1.369 . S
C530 C534 1.531 . S
C531 C530 1.369 . S
C531 C532 1.410 . S
C531 C539 1.503 . S
C532 C531 1.410 . S
C532 C533 1.392 . S
C532 C535 1.511 . S
C533 C529 1.376 . S
C533 C532 1.392 . S
C533 H545 0.929 . S
C534 C530 1.531 . S
C534 H546 0.960 . S
C534 H547 0.962 . S
C534 H548 0.960 . S
C535 C532 1.511 . S
C535 H549 0.961 . S
C535 H550 0.961 . S
C535 H551 0.961 . S
C536 C537 1.370 . S
C536 C538 1.363 . S
C536 H552 0.931 . S
C537 C536 1.370 . S
C537 C541 1.408 . S
C538 C536 1.363 . S
C538 C539 1.370 . S
C538 C542 1.524 . S
C539 C531 1.503 . S
C539 C538 1.370 . S
C539 C540 1.403 . S
C540 C539 1.403 . S
C540 C541 1.404 . S
C540 C543 1.539 . S
C541 C537 1.408 . S
C541 C540 1.404 . S
C541 H553 0.930 . S
C542 C538 1.524 . S
C542 H554 0.956 . S
C542 H555 0.961 . S
C542 H556 0.961 . S
C543 C540 1.539 . S
C543 H557 0.958 . S
C543 H558 0.961 . S
C543 H559 0.960 . S
H544 C528 0.931 . S
H545 C533 0.929 . S
H546 C534 0.960 . S
H547 C534 0.962 . S
H548 C534 0.960 . S
H549 C535 0.961 . S
H550 C535 0.961 . S
H551 C535 0.961 . S
H552 C536 0.931 . S
H553 C541 0.930 . S
H554 C542 0.956 . S
H555 C542 0.961 . S
H556 C542 0.961 . S
H557 C543 0.958 . S
H558 C543 0.961 . S
H559 C543 0.960 . S
C560 C561 1.391 . S
C560 C562 1.394 . S
C560 H576 0.931 . S
C561 C560 1.391 . S
C561 C565 1.376 . S
C562 C560 1.394 . S
C562 C563 1.369 . S
C562 C566 1.531 . S
C563 C562 1.369 . S
C563 C564 1.410 . S
C563 C571 1.503 . S
C564 C563 1.410 . S
C564 C565 1.392 . S
C564 C567 1.511 . S
C565 C561 1.376 . S
C565 C564 1.392 . S
C565 H577 0.929 . S
C566 C562 1.531 . S
C566 H578 0.960 . S
C566 H579 0.962 . S
C566 H580 0.960 . S
C567 C564 1.511 . S
C567 H581 0.961 . S
C567 H582 0.961 . S
C567 H583 0.961 . S
C568 C569 1.370 . S
C568 C570 1.363 . S
C568 H584 0.931 . S
C569 C568 1.370 . S
C569 C573 1.408 . S
C570 C568 1.363 . S
C570 C571 1.370 . S
C570 C574 1.524 . S
C571 C563 1.503 . S
C571 C570 1.370 . S
C571 C572 1.403 . S
C572 C571 1.403 . S
C572 C573 1.404 . S
C572 C575 1.539 . S
C573 C569 1.408 . S
C573 C572 1.404 . S
C573 H585 0.930 . S
C574 C570 1.524 . S
C574 H586 0.956 . S
C574 H587 0.961 . S
C574 H588 0.961 . S
C575 C572 1.539 . S
C575 H589 0.958 . S
C575 H590 0.961 . S
C575 H591 0.960 . S
H576 C560 0.931 . S
H577 C565 0.929 . S
H578 C566 0.960 . S
H579 C566 0.962 . S
H580 C566 0.960 . S
H581 C567 0.961 . S
H582 C567 0.961 . S
H583 C567 0.961 . S
H584 C568 0.931 . S
H585 C573 0.930 . S
H586 C574 0.956 . S
H587 C574 0.961 . S
H588 C574 0.961 . S
H589 C575 0.958 . S
H590 C575 0.961 . S
H591 C575 0.960 . S
C592 C593 1.391 . S
C592 C594 1.394 . S
C592 H608 0.931 . S
C593 C592 1.391 . S
C593 C597 1.376 . S
C594 C592 1.394 . S
C594 C595 1.369 . S
C594 C598 1.531 . S
C595 C594 1.369 . S
C595 C596 1.410 . S
C595 C603 1.503 . S
C596 C595 1.410 . S
C596 C597 1.392 . S
C596 C599 1.511 . S
C597 C593 1.376 . S
C597 C596 1.392 . S
C597 H609 0.929 . S
C598 C594 1.531 . S
C598 H610 0.960 . S
C598 H611 0.962 . S
C598 H612 0.960 . S
C599 C596 1.511 . S
C599 H613 0.961 . S
C599 H614 0.961 . S
C599 H615 0.961 . S
C600 C601 1.370 . S
C600 C602 1.363 . S
C600 H616 0.931 . S
C601 C600 1.370 . S
C601 C605 1.408 . S
C602 C600 1.363 . S
C602 C603 1.370 . S
C602 C606 1.524 . S
C603 C595 1.503 . S
C603 C602 1.370 . S
C603 C604 1.403 . S
C604 C603 1.403 . S
C604 C605 1.404 . S
C604 C607 1.539 . S
C605 C601 1.408 . S
C605 C604 1.404 . S
C605 H617 0.930 . S
C606 C602 1.524 . S
C606 H618 0.956 . S
C606 H619 0.961 . S
C606 H620 0.961 . S
C607 C604 1.539 . S
C607 H621 0.958 . S
C607 H622 0.961 . S
C607 H623 0.960 . S
H608 C592 0.931 . S
H609 C597 0.929 . S
H610 C598 0.960 . S
H611 C598 0.962 . S
H612 C598 0.960 . S
H613 C599 0.961 . S
H614 C599 0.961 . S
H615 C599 0.961 . S
H616 C600 0.931 . S
H617 C605 0.930 . S
H618 C606 0.956 . S
H619 C606 0.961 . S
H620 C606 0.961 . S
H621 C607 0.958 . S
H622 C607 0.961 . S
H623 C607 0.960 . S
C624 C625 1.391 . S
C624 C626 1.394 . S
C624 H640 0.931 . S
C625 C624 1.391 . S
C625 C629 1.376 . S
C626 C624 1.394 . S
C626 C627 1.369 . S
C626 C630 1.531 . S
C627 C626 1.369 . S
C627 C628 1.410 . S
C627 C635 1.503 . S
C628 C627 1.410 . S
C628 C629 1.392 . S
C628 C631 1.511 . S
C629 C625 1.376 . S
C629 C628 1.392 . S
C629 H641 0.929 . S
C630 C626 1.531 . S
C630 H642 0.960 . S
C630 H643 0.962 . S
C630 H644 0.960 . S
C631 C628 1.511 . S
C631 H645 0.961 . S
C631 H646 0.961 . S
C631 H647 0.961 . S
C632 C633 1.370 . S
C632 C634 1.363 . S
C632 H648 0.931 . S
C633 C632 1.370 . S
C633 C637 1.408 . S
C634 C632 1.363 . S
C634 C635 1.370 . S
C634 C638 1.524 . S
C635 C627 1.503 . S
C635 C634 1.370 . S
C635 C636 1.403 . S
C636 C635 1.403 . S
C636 C637 1.404 . S
C636 C639 1.539 . S
C637 C633 1.408 . S
C637 C636 1.404 . S
C637 H649 0.930 . S
C638 C634 1.524 . S
C638 H650 0.956 . S
C638 H651 0.961 . S
C638 H652 0.961 . S
C639 C636 1.539 . S
C639 H653 0.958 . S
C639 H654 0.961 . S
C639 H655 0.960 . S
H640 C624 0.931 . S
H641 C629 0.929 . S
H642 C630 0.960 . S
H643 C630 0.962 . S
H644 C630 0.960 . S
H645 C631 0.961 . S
H646 C631 0.961 . S
H647 C631 0.961 . S
H648 C632 0.931 . S
H649 C637 0.930 . S
H650 C638 0.956 . S
H651 C638 0.961 . S
H652 C638 0.961 . S
H653 C639 0.958 . S
H654 C639 0.961 . S
H655 C639 0.960 . S
C656 C657 1.391 . S
C656 C658 1.394 . S
C656 H672 0.931 . S
C657 C656 1.391 . S
C657 C661 1.376 . S
C658 C656 1.394 . S
C658 C659 1.369 . S
C658 C662 1.531 . S
C659 C658 1.369 . S
C659 C660 1.410 . S
C659 C667 1.503 . S
C660 C659 1.410 . S
C660 C661 1.392 . S
C660 C663 1.511 . S
C661 C657 1.376 . S
C661 C660 1.392 . S
C661 H673 0.929 . S
C662 C658 1.531 . S
C662 H674 0.960 . S
C662 H675 0.962 . S
C662 H676 0.960 . S
C663 C660 1.511 . S
C663 H677 0.961 . S
C663 H678 0.961 . S
C663 H679 0.961 . S
C664 C665 1.370 . S
C664 C666 1.363 . S
C664 H680 0.932 . S
C665 C664 1.370 . S
C665 C669 1.408 . S
C666 C664 1.363 . S
C666 C667 1.370 . S
C666 C670 1.524 . S
C667 C659 1.503 . S
C667 C666 1.370 . S
C667 C668 1.403 . S
C668 C667 1.403 . S
C668 C669 1.404 . S
C668 C671 1.539 . S
C669 C665 1.408 . S
C669 C668 1.404 . S
C669 H681 0.930 . S
C670 C666 1.524 . S
C670 H682 0.956 . S
C670 H683 0.961 . S
C670 H684 0.961 1_556 S
C671 C668 1.539 . S
C671 H685 0.958 . S
C671 H686 0.961 . S
C671 H687 0.960 . S
H672 C656 0.931 . S
H673 C661 0.929 . S
H674 C662 0.960 . S
H675 C662 0.962 . S
H676 C662 0.960 . S
H677 C663 0.961 . S
H678 C663 0.961 . S
H679 C663 0.961 . S
H680 C664 0.932 . S
H681 C669 0.930 . S
H682 C670 0.956 . S
H683 C670 0.961 . S
H684 C670 0.961 1_554 S
H685 C671 0.958 . S
H686 C671 0.961 . S
H687 C671 0.960 . S
C688 C689 1.391 . S
C688 C690 1.394 . S
C688 H704 0.931 . S
C689 C688 1.391 . S
C689 C693 1.376 . S
C690 C688 1.394 . S
C690 C691 1.369 . S
C690 C694 1.531 . S
C691 C690 1.369 . S
C691 C692 1.410 . S
C691 C699 1.503 . S
C692 C691 1.410 . S
C692 C693 1.392 . S
C692 C695 1.511 . S
C693 C689 1.376 . S
C693 C692 1.392 . S
C693 H705 0.929 . S
C694 C690 1.531 . S
C694 H706 0.960 . S
C694 H707 0.962 . S
C694 H708 0.960 . S
C695 C692 1.511 . S
C695 H709 0.961 . S
C695 H710 0.961 . S
C695 H711 0.961 . S
C696 C697 1.370 . S
C696 C698 1.363 . S
C696 H712 0.931 . S
C697 C696 1.370 . S
C697 C701 1.408 . S
C698 C696 1.363 . S
C698 C699 1.370 . S
C698 C702 1.524 . S
C699 C691 1.503 . S
C699 C698 1.370 . S
C699 C700 1.403 . S
C700 C699 1.403 . S
C700 C701 1.404 . S
C700 C703 1.539 . S
C701 C697 1.408 . S
C701 C700 1.404 . S
C701 H713 0.930 . S
C702 C698 1.524 . S
C702 H714 0.956 . S
C702 H715 0.961 . S
C702 H716 0.961 . S
C703 C700 1.539 . S
C703 H717 0.958 . S
C703 H718 0.961 . S
C703 H719 0.960 . S
H704 C688 0.931 . S
H705 C693 0.929 . S
H706 C694 0.960 . S
H707 C694 0.962 . S
H708 C694 0.960 . S
H709 C695 0.961 . S
H710 C695 0.961 . S
H711 C695 0.961 . S
H712 C696 0.931 . S
H713 C701 0.930 . S
H714 C702 0.956 . S
H715 C702 0.961 . S
H716 C702 0.961 . S
H717 C703 0.958 . S
H718 C703 0.961 . S
H719 C703 0.960 . S
C720 C721 1.391 . S
C720 C722 1.394 . S
C720 H736 0.931 . S
C721 C720 1.391 . S
C721 C725 1.376 . S
C722 C720 1.394 . S
C722 C723 1.369 . S
C722 C726 1.531 . S
C723 C722 1.369 . S
C723 C724 1.410 . S
C723 C731 1.503 . S
C724 C723 1.410 . S
C724 C725 1.392 . S
C724 C727 1.511 . S
C725 C721 1.376 . S
C725 C724 1.392 . S
C725 H737 0.929 . S
C726 C722 1.531 . S
C726 H738 0.960 . S
C726 H739 0.962 . S
C726 H740 0.960 . S
C727 C724 1.511 . S
C727 H741 0.961 . S
C727 H742 0.961 . S
C727 H743 0.961 . S
C728 C729 1.370 . S
C728 C730 1.363 . S
C728 H744 0.931 . S
C729 C728 1.370 . S
C729 C733 1.408 . S
C730 C728 1.363 . S
C730 C731 1.370 . S
C730 C734 1.524 . S
C731 C723 1.503 . S
C731 C730 1.370 . S
C731 C732 1.403 . S
C732 C731 1.403 . S
C732 C733 1.404 . S
C732 C735 1.539 . S
C733 C729 1.408 . S
C733 C732 1.404 . S
C733 H745 0.930 . S
C734 C730 1.524 . S
C734 H746 0.956 . S
C734 H747 0.961 . S
C734 H748 0.961 . S
C735 C732 1.539 . S
C735 H749 0.958 . S
C735 H750 0.961 . S
C735 H751 0.960 . S
H736 C720 0.931 . S
H737 C725 0.929 . S
H738 C726 0.960 . S
H739 C726 0.962 . S
H740 C726 0.960 . S
H741 C727 0.961 . S
H742 C727 0.961 . S
H743 C727 0.961 . S
H744 C728 0.931 . S
H745 C733 0.930 . S
H746 C734 0.956 . S
H747 C734 0.961 . S
H748 C734 0.961 . S
H749 C735 0.958 . S
H750 C735 0.961 . S
H751 C735 0.960 . S
C752 C753 1.391 . S
C752 C754 1.394 . S
C752 H768 0.931 . S
C753 C752 1.391 . S
C753 C757 1.376 . S
C754 C752 1.394 . S
C754 C755 1.369 . S
C754 C758 1.531 . S
C755 C754 1.369 . S
C755 C756 1.410 . S
C755 C763 1.503 . S
C756 C755 1.410 . S
C756 C757 1.392 . S
C756 C759 1.511 . S
C757 C753 1.376 . S
C757 C756 1.392 . S
C757 H769 0.929 . S
C758 C754 1.531 . S
C758 H770 0.960 . S
C758 H771 0.962 . S
C758 H772 0.960 . S
C759 C756 1.511 . S
C759 H773 0.961 . S
C759 H774 0.961 . S
C759 H775 0.961 . S
C760 C761 1.370 . S
C760 C762 1.363 . S
C760 H776 0.931 . S
C761 C760 1.370 . S
C761 C765 1.408 . S
C762 C760 1.363 . S
C762 C763 1.370 . S
C762 C766 1.524 . S
C763 C755 1.503 . S
C763 C762 1.370 . S
C763 C764 1.403 . S
C764 C763 1.403 . S
C764 C765 1.404 . S
C764 C767 1.539 . S
C765 C761 1.408 . S
C765 C764 1.404 . S
C765 H777 0.930 . S
C766 C762 1.524 . S
C766 H778 0.956 . S
C766 H779 0.961 . S
C766 H780 0.961 . S
C767 C764 1.539 . S
C767 H781 0.958 . S
C767 H782 0.961 . S
C767 H783 0.960 . S
H768 C752 0.931 . S
H769 C757 0.929 . S
H770 C758 0.960 . S
H771 C758 0.962 . S
H772 C758 0.960 . S
H773 C759 0.961 . S
H774 C759 0.961 . S
H775 C759 0.961 . S
H776 C760 0.931 . S
H777 C765 0.930 . S
H778 C766 0.956 . S
H779 C766 0.961 . S
H780 C766 0.961 . S
H781 C767 0.958 . S
H782 C767 0.961 . S
H783 C767 0.960 . S
C784 C785 1.391 . S
C784 C786 1.394 . S
C784 H800 0.931 . S
C785 C784 1.391 . S
C785 C789 1.376 . S
C786 C784 1.394 . S
C786 C787 1.369 . S
C786 C790 1.531 . S
C787 C786 1.369 . S
C787 C788 1.410 . S
C787 C795 1.503 . S
C788 C787 1.410 . S
C788 C789 1.392 . S
C788 C791 1.511 . S
C789 C785 1.376 . S
C789 C788 1.392 . S
C789 H801 0.929 . S
C790 C786 1.531 . S
C790 H802 0.960 . S
C790 H803 0.962 . S
C790 H804 0.960 . S
C791 C788 1.511 . S
C791 H805 0.961 . S
C791 H806 0.961 . S
C791 H807 0.961 . S
C792 C793 1.370 . S
C792 C794 1.363 . S
C792 H808 0.931 . S
C793 C792 1.370 . S
C793 C797 1.408 . S
C794 C792 1.363 . S
C794 C795 1.370 . S
C794 C798 1.524 . S
C795 C787 1.503 . S
C795 C794 1.370 . S
C795 C796 1.403 . S
C796 C795 1.403 . S
C796 C797 1.404 . S
C796 C799 1.539 . S
C797 C793 1.408 . S
C797 C796 1.404 . S
C797 H809 0.930 . S
C798 C794 1.524 . S
C798 H810 0.956 . S
C798 H811 0.961 . S
C798 H812 0.961 . S
C799 C796 1.539 . S
C799 H813 0.958 . S
C799 H814 0.961 . S
C799 H815 0.960 . S
H800 C784 0.931 . S
H801 C789 0.929 . S
H802 C790 0.960 . S
H803 C790 0.962 . S
H804 C790 0.960 . S
H805 C791 0.961 . S
H806 C791 0.961 . S
H807 C791 0.961 . S
H808 C792 0.931 . S
H809 C797 0.930 . S
H810 C798 0.956 . S
H811 C798 0.961 . S
H812 C798 0.961 . S
H813 C799 0.958 . S
H814 C799 0.961 . S
H815 C799 0.960 . S
C816 C817 1.391 . S
C816 C818 1.394 . S
C816 H832 0.931 . S
C817 C816 1.391 . S
C817 C821 1.376 . S
C818 C816 1.394 . S
C818 C819 1.369 . S
C818 C822 1.531 . S
C819 C818 1.369 . S
C819 C820 1.410 . S
C819 C827 1.503 . S
C820 C819 1.410 . S
C820 C821 1.392 . S
C820 C823 1.511 . S
C821 C817 1.376 . S
C821 C820 1.392 . S
C821 H833 0.929 . S
C822 C818 1.531 . S
C822 H834 0.960 . S
C822 H835 0.962 . S
C822 H836 0.960 . S
C823 C820 1.511 . S
C823 H837 0.961 . S
C823 H838 0.961 . S
C823 H839 0.961 . S
C824 C825 1.370 . S
C824 C826 1.363 . S
C824 H840 0.931 . S
C825 C824 1.370 . S
C825 C829 1.408 . S
C826 C824 1.363 . S
C826 C827 1.370 . S
C826 C830 1.524 . S
C827 C819 1.503 . S
C827 C826 1.370 . S
C827 C828 1.403 . S
C828 C827 1.403 . S
C828 C829 1.404 . S
C828 C831 1.539 . S
C829 C825 1.408 . S
C829 C828 1.404 . S
C829 H841 0.930 . S
C830 C826 1.524 . S
C830 H842 0.956 . S
C830 H843 0.961 . S
C830 H844 0.961 . S
C831 C828 1.539 . S
C831 H845 0.958 . S
C831 H846 0.961 . S
C831 H847 0.960 . S
H832 C816 0.931 . S
H833 C821 0.929 . S
H834 C822 0.960 . S
H835 C822 0.962 . S
H836 C822 0.960 . S
H837 C823 0.961 . S
H838 C823 0.961 . S
H839 C823 0.961 . S
H840 C824 0.931 . S
H841 C829 0.930 . S
H842 C830 0.956 . S
H843 C830 0.961 . S
H844 C830 0.961 . S
H845 C831 0.958 . S
H846 C831 0.961 . S
H847 C831 0.960 . S
C848 C849 1.391 . S
C848 C850 1.394 . S
C848 H864 0.931 . S
C849 C848 1.391 . S
C849 C853 1.376 . S
C850 C848 1.394 . S
C850 C851 1.369 . S
C850 C854 1.531 . S
C851 C850 1.369 . S
C851 C852 1.410 . S
C851 C859 1.503 . S
C852 C851 1.410 . S
C852 C853 1.392 . S
C852 C855 1.511 . S
C853 C849 1.376 . S
C853 C852 1.392 . S
C853 H865 0.929 . S
C854 C850 1.531 . S
C854 H866 0.960 . S
C854 H867 0.962 . S
C854 H868 0.960 . S
C855 C852 1.511 . S
C855 H869 0.961 . S
C855 H870 0.961 . S
C855 H871 0.961 . S
C856 C857 1.370 . S
C856 C858 1.363 . S
C856 H872 0.931 . S
C857 C856 1.370 . S
C857 C861 1.408 . S
C858 C856 1.363 . S
C858 C859 1.370 . S
C858 C862 1.524 . S
C859 C851 1.503 . S
C859 C858 1.370 . S
C859 C860 1.403 . S
C860 C859 1.403 . S
C860 C861 1.404 . S
C860 C863 1.539 . S
C861 C857 1.408 . S
C861 C860 1.404 . S
C861 H873 0.930 . S
C862 C858 1.524 . S
C862 H874 0.956 . S
C862 H875 0.961 . S
C862 H876 0.961 1_455 S
C863 C860 1.539 . S
C863 H877 0.958 . S
C863 H878 0.961 . S
C863 H879 0.960 . S
H864 C848 0.931 . S
H865 C853 0.929 . S
H866 C854 0.960 . S
H867 C854 0.962 . S
H868 C854 0.960 . S
H869 C855 0.961 . S
H870 C855 0.961 . S
H871 C855 0.961 . S
H872 C856 0.931 . S
H873 C861 0.930 . S
H874 C862 0.956 . S
H875 C862 0.961 . S
H876 C862 0.961 1_655 S
H877 C863 0.958 . S
H878 C863 0.961 . S
H879 C863 0.960 . S
C880 C881 1.391 . S
C880 C882 1.394 . S
C880 H896 0.931 . S
C881 C880 1.391 . S
C881 C885 1.376 . S
C882 C880 1.394 . S
C882 C883 1.369 . S
C882 C886 1.531 . S
C883 C882 1.369 . S
C883 C884 1.410 . S
C883 C891 1.503 . S
C884 C883 1.410 . S
C884 C885 1.392 . S
C884 C887 1.511 . S
C885 C881 1.376 . S
C885 C884 1.392 . S
C885 H897 0.929 . S
C886 C882 1.531 . S
C886 H898 0.960 . S
C886 H899 0.962 . S
C886 H900 0.960 . S
C887 C884 1.511 . S
C887 H901 0.961 . S
C887 H902 0.961 . S
C887 H903 0.961 . S
C888 C889 1.370 . S
C888 C890 1.363 . S
C888 H904 0.931 . S
C889 C888 1.370 . S
C889 C893 1.408 . S
C890 C888 1.363 . S
C890 C891 1.370 . S
C890 C894 1.524 . S
C891 C883 1.503 . S
C891 C890 1.370 . S
C891 C892 1.403 . S
C892 C891 1.403 . S
C892 C893 1.404 . S
C892 C895 1.539 . S
C893 C889 1.408 . S
C893 C892 1.404 . S
C893 H905 0.930 . S
C894 C890 1.524 . S
C894 H906 0.956 . S
C894 H907 0.961 . S
C894 H908 0.961 . S
C895 C892 1.539 . S
C895 H909 0.958 . S
C895 H910 0.961 . S
C895 H911 0.960 . S
H896 C880 0.931 . S
H897 C885 0.929 . S
H898 C886 0.960 . S
H899 C886 0.962 . S
H900 C886 0.960 . S
H901 C887 0.961 . S
H902 C887 0.961 . S
H903 C887 0.961 . S
H904 C888 0.931 . S
H905 C893 0.930 . S
H906 C894 0.956 . S
H907 C894 0.961 . S
H908 C894 0.961 . S
H909 C895 0.958 . S
H910 C895 0.961 . S
H911 C895 0.960 . S
C912 C913 1.391 . S
C912 C914 1.394 . S
C912 H928 0.931 . S
C913 C912 1.391 . S
C913 C917 1.376 . S
C914 C912 1.394 . S
C914 C915 1.369 . S
C914 C918 1.531 . S
C915 C914 1.369 . S
C915 C916 1.410 . S
C915 C923 1.503 . S
C916 C915 1.410 . S
C916 C917 1.392 . S
C916 C919 1.511 . S
C917 C913 1.376 . S
C917 C916 1.392 . S
C917 H929 0.929 . S
C918 C914 1.531 . S
C918 H930 0.960 . S
C918 H931 0.962 . S
C918 H932 0.960 . S
C919 C916 1.511 . S
C919 H933 0.961 . S
C919 H934 0.961 . S
C919 H935 0.961 . S
C920 C921 1.370 . S
C920 C922 1.363 . S
C920 H936 0.931 . S
C921 C920 1.370 . S
C921 C925 1.408 . S
C922 C920 1.363 . S
C922 C923 1.370 . S
C922 C926 1.524 . S
C923 C915 1.503 . S
C923 C922 1.370 . S
C923 C924 1.403 . S
C924 C923 1.403 . S
C924 C925 1.404 . S
C924 C927 1.539 . S
C925 C921 1.408 . S
C925 C924 1.404 . S
C925 H937 0.930 . S
C926 C922 1.524 . S
C926 H938 0.956 . S
C926 H939 0.961 . S
C926 H940 0.961 . S
C927 C924 1.539 . S
C927 H941 0.958 . S
C927 H942 0.961 . S
C927 H943 0.960 . S
H928 C912 0.931 . S
H929 C917 0.929 . S
H930 C918 0.960 . S
H931 C918 0.962 . S
H932 C918 0.960 . S
H933 C919 0.961 . S
H934 C919 0.961 . S
H935 C919 0.961 . S
H936 C920 0.931 . S
H937 C925 0.930 . S
H938 C926 0.956 . S
H939 C926 0.961 . S
H940 C926 0.961 . S
H941 C927 0.958 . S
H942 C927 0.961 . S
H943 C927 0.960 . S
C944 C945 1.391 . S
C944 C946 1.394 . S
C944 H960 0.931 . S
C945 C944 1.391 . S
C945 C949 1.376 . S
C946 C944 1.394 . S
C946 C947 1.369 . S
C946 C950 1.531 . S
C947 C946 1.369 . S
C947 C948 1.410 . S
C947 C955 1.503 . S
C948 C947 1.410 . S
C948 C949 1.392 . S
C948 C951 1.511 . S
C949 C945 1.376 . S
C949 C948 1.392 . S
C949 H961 0.929 . S
C950 C946 1.531 . S
C950 H962 0.960 . S
C950 H963 0.962 . S
C950 H964 0.960 . S
C951 C948 1.511 . S
C951 H965 0.961 . S
C951 H966 0.961 . S
C951 H967 0.961 . S
C952 C953 1.370 . S
C952 C954 1.363 . S
C952 H968 0.931 . S
C953 C952 1.370 . S
C953 C957 1.408 . S
C954 C952 1.363 . S
C954 C955 1.370 . S
C954 C958 1.524 . S
C955 C947 1.503 . S
C955 C954 1.370 . S
C955 C956 1.403 . S
C956 C955 1.403 . S
C956 C957 1.404 . S
C956 C959 1.539 . S
C957 C953 1.408 . S
C957 C956 1.404 . S
C957 H969 0.930 . S
C958 C954 1.524 . S
C958 H970 0.956 . S
C958 H971 0.961 . S
C958 H972 0.961 . S
C959 C956 1.539 . S
C959 H973 0.958 . S
C959 H974 0.961 . S
C959 H975 0.960 . S
H960 C944 0.931 . S
H961 C949 0.929 . S
H962 C950 0.960 . S
H963 C950 0.962 . S
H964 C950 0.960 . S
H965 C951 0.961 . S
H966 C951 0.961 . S
H967 C951 0.961 . S
H968 C952 0.931 . S
H969 C957 0.930 . S
H970 C958 0.956 . S
H971 C958 0.961 . S
H972 C958 0.961 . S
H973 C959 0.958 . S
H974 C959 0.961 . S
H975 C959 0.960 . S
C976 C977 1.391 . S
C976 C978 1.394 . S
C976 H992 0.931 . S
C977 C976 1.391 . S
C977 C981 1.376 . S
C978 C976 1.394 . S
C978 C979 1.369 . S
C978 C982 1.531 . S
C979 C978 1.369 . S
C979 C980 1.410 . S
C979 C987 1.503 . S
C980 C979 1.410 . S
C980 C981 1.392 . S
C980 C983 1.511 . S
C981 C977 1.376 . S
C981 C980 1.392 . S
C981 H993 0.929 . S
C982 C978 1.531 . S
C982 H994 0.960 . S
C982 H995 0.962 . S
C982 H996 0.960 . S
C983 C980 1.511 . S
C983 H997 0.961 . S
C983 H998 0.961 . S
C983 H999 0.961 . S
C984 C985 1.370 . S
C984 C986 1.363 . S
C984 H1000 0.931 . S
C985 C984 1.370 . S
C985 C989 1.408 . S
C986 C984 1.363 . S
C986 C987 1.370 . S
C986 C990 1.524 . S
C987 C979 1.503 . S
C987 C986 1.370 . S
C987 C988 1.403 . S
C988 C987 1.403 . S
C988 C989 1.404 . S
C988 C991 1.539 . S
C989 C985 1.408 . S
C989 C988 1.404 . S
C989 H1001 0.930 . S
C990 C986 1.524 . S
C990 H1002 0.956 . S
C990 H1003 0.961 . S
C990 H1004 0.961 . S
C991 C988 1.539 . S
C991 H1005 0.958 . S
C991 H1006 0.961 . S
C991 H1007 0.960 . S
H992 C976 0.931 . S
H993 C981 0.929 . S
H994 C982 0.960 . S
H995 C982 0.962 . S
H996 C982 0.960 . S
H997 C983 0.961 . S
H998 C983 0.961 . S
H999 C983 0.961 . S
H1000 C984 0.931 . S
H1001 C989 0.930 . S
H1002 C990 0.956 . S
H1003 C990 0.961 . S
H1004 C990 0.961 . S
H1005 C991 0.958 . S
H1006 C991 0.961 . S
H1007 C991 0.960 . S
C1008 C1009 1.391 . S
C1008 C1010 1.394 . S
C1008 H1024 0.931 . S
C1009 C1008 1.391 . S
C1009 C1013 1.376 . S
C1010 C1008 1.394 . S
C1010 C1011 1.369 . S
C1010 C1014 1.531 . S
C1011 C1010 1.369 . S
C1011 C1012 1.410 . S
C1011 C1019 1.503 . S
C1012 C1011 1.410 . S
C1012 C1013 1.392 . S
C1012 C1015 1.511 . S
C1013 C1009 1.376 . S
C1013 C1012 1.392 . S
C1013 H1025 0.929 . S
C1014 C1010 1.531 . S
C1014 H1026 0.960 . S
C1014 H1027 0.962 . S
C1014 H1028 0.960 . S
C1015 C1012 1.511 . S
C1015 H1029 0.961 . S
C1015 H1030 0.961 . S
C1015 H1031 0.961 . S
C1016 C1017 1.370 . S
C1016 C1018 1.363 . S
C1016 H1032 0.931 . S
C1017 C1016 1.370 . S
C1017 C1021 1.408 . S
C1018 C1016 1.363 . S
C1018 C1019 1.370 . S
C1018 C1022 1.524 . S
C1019 C1011 1.503 . S
C1019 C1018 1.370 . S
C1019 C1020 1.403 . S
C1020 C1019 1.403 . S
C1020 C1021 1.404 . S
C1020 C1023 1.539 . S
C1021 C1017 1.408 . S
C1021 C1020 1.404 . S
C1021 H1033 0.930 . S
C1022 C1018 1.524 . S
C1022 H1034 0.956 . S
C1022 H1035 0.961 . S
C1022 H1036 0.961 . S
C1023 C1020 1.539 . S
C1023 H1037 0.958 . S
C1023 H1038 0.961 . S
C1023 H1039 0.960 . S
H1024 C1008 0.931 . S
H1025 C1013 0.929 . S
H1026 C1014 0.960 . S
H1027 C1014 0.962 . S
H1028 C1014 0.960 . S
H1029 C1015 0.961 . S
H1030 C1015 0.961 . S
H1031 C1015 0.961 . S
H1032 C1016 0.931 . S
H1033 C1021 0.930 . S
H1034 C1022 0.956 . S
H1035 C1022 0.961 . S
H1036 C1022 0.961 . S
H1037 C1023 0.958 . S
H1038 C1023 0.961 . S
H1039 C1023 0.960 . S
C1040 C1041 1.391 . S
C1040 C1042 1.394 . S
C1040 H1056 0.931 . S
C1041 C1040 1.391 . S
C1041 C1045 1.376 . S
C1042 C1040 1.394 . S
C1042 C1043 1.369 . S
C1042 C1046 1.531 . S
C1043 C1042 1.369 . S
C1043 C1044 1.410 . S
C1043 C1051 1.503 . S
C1044 C1043 1.410 . S
C1044 C1045 1.392 . S
C1044 C1047 1.511 . S
C1045 C1041 1.376 . S
C1045 C1044 1.392 . S
C1045 H1057 0.929 . S
C1046 C1042 1.531 . S
C1046 H1058 0.960 . S
C1046 H1059 0.962 . S
C1046 H1060 0.960 . S
C1047 C1044 1.511 . S
C1047 H1061 0.961 . S
C1047 H1062 0.961 . S
C1047 H1063 0.961 . S
C1048 C1049 1.370 . S
C1048 C1050 1.363 . S
C1048 H1064 0.931 . S
C1049 C1048 1.370 . S
C1049 C1053 1.408 . S
C1050 C1048 1.363 . S
C1050 C1051 1.370 . S
C1050 C1054 1.524 . S
C1051 C1043 1.503 . S
C1051 C1050 1.370 . S
C1051 C1052 1.403 . S
C1052 C1051 1.403 . S
C1052 C1053 1.404 . S
C1052 C1055 1.539 . S
C1053 C1049 1.408 . S
C1053 C1052 1.404 . S
C1053 H1065 0.930 . S
C1054 C1050 1.524 . S
C1054 H1066 0.956 . S
C1054 H1067 0.961 . S
C1054 H1068 0.961 . S
C1055 C1052 1.539 . S
C1055 H1069 0.958 . S
C1055 H1070 0.961 . S
C1055 H1071 0.960 . S
H1056 C1040 0.931 . S
H1057 C1045 0.929 . S
H1058 C1046 0.960 . S
H1059 C1046 0.962 . S
H1060 C1046 0.960 . S
H1061 C1047 0.961 . S
H1062 C1047 0.961 . S
H1063 C1047 0.961 . S
H1064 C1048 0.931 . S
H1065 C1053 0.930 . S
H1066 C1054 0.956 . S
H1067 C1054 0.961 . S
H1068 C1054 0.961 . S
H1069 C1055 0.958 . S
H1070 C1055 0.961 . S
H1071 C1055 0.960 . S
C1072 C1073 1.391 . S
C1072 C1074 1.394 . S
C1072 H1088 0.931 . S
C1073 C1072 1.391 . S
C1073 C1077 1.376 . S
C1074 C1072 1.394 . S
C1074 C1075 1.369 . S
C1074 C1078 1.531 . S
C1075 C1074 1.369 . S
C1075 C1076 1.410 . S
C1075 C1083 1.503 . S
C1076 C1075 1.410 . S
C1076 C1077 1.392 . S
C1076 C1079 1.511 . S
C1077 C1073 1.376 . S
C1077 C1076 1.392 . S
C1077 H1089 0.929 . S
C1078 C1074 1.531 . S
C1078 H1090 0.960 . S
C1078 H1091 0.962 . S
C1078 H1092 0.960 . S
C1079 C1076 1.511 . S
C1079 H1093 0.961 . S
C1079 H1094 0.961 . S
C1079 H1095 0.961 . S
C1080 C1081 1.370 . S
C1080 C1082 1.363 . S
C1080 H1096 0.931 . S
C1081 C1080 1.370 . S
C1081 C1085 1.408 . S
C1082 C1080 1.363 . S
C1082 C1083 1.370 . S
C1082 C1086 1.524 . S
C1083 C1075 1.503 . S
C1083 C1082 1.370 . S
C1083 C1084 1.403 . S
C1084 C1083 1.403 . S
C1084 C1085 1.404 . S
C1084 C1087 1.539 . S
C1085 C1081 1.408 . S
C1085 C1084 1.404 . S
C1085 H1097 0.930 . S
C1086 C1082 1.524 . S
C1086 H1098 0.956 . S
C1086 H1099 0.961 . S
C1086 H1100 0.961 1_455 S
C1087 C1084 1.539 . S
C1087 H1101 0.958 . S
C1087 H1102 0.961 . S
C1087 H1103 0.960 . S
H1088 C1072 0.931 . S
H1089 C1077 0.929 . S
H1090 C1078 0.960 . S
H1091 C1078 0.962 . S
H1092 C1078 0.960 . S
H1093 C1079 0.961 . S
H1094 C1079 0.961 . S
H1095 C1079 0.961 . S
H1096 C1080 0.931 . S
H1097 C1085 0.930 . S
H1098 C1086 0.956 . S
H1099 C1086 0.961 . S
H1100 C1086 0.961 1_655 S
H1101 C1087 0.958 . S
H1102 C1087 0.961 . S
H1103 C1087 0.960 . S
C1104 C1105 1.391 . S
C1104 C1106 1.394 . S
C1104 H1120 0.931 . S
C1105 C1104 1.391 . S
C1105 C1109 1.376 . S
C1106 C1104 1.394 . S
C1106 C1107 1.369 . S
C1106 C1110 1.531 . S
C1107 C1106 1.369 . S
C1107 C1108 1.410 . S
C1107 C1115 1.503 . S
C1108 C1107 1.410 . S
C1108 C1109 1.392 . S
C1108 C1111 1.511 . S
C1109 C1105 1.376 . S
C1109 C1108 1.392 . S
C1109 H1121 0.929 . S
C1110 C1106 1.531 . S
C1110 H1122 0.960 . S
C1110 H1123 0.962 . S
C1110 H1124 0.960 . S
C1111 C1108 1.511 . S
C1111 H1125 0.961 . S
C1111 H1126 0.961 . S
C1111 H1127 0.961 . S
C1112 C1113 1.370 . S
C1112 C1114 1.363 . S
C1112 H1128 0.931 . S
C1113 C1112 1.370 . S
C1113 C1117 1.408 . S
C1114 C1112 1.363 . S
C1114 C1115 1.370 . S
C1114 C1118 1.524 . S
C1115 C1107 1.503 . S
C1115 C1114 1.370 . S
C1115 C1116 1.403 . S
C1116 C1115 1.403 . S
C1116 C1117 1.404 . S
C1116 C1119 1.539 . S
C1117 C1113 1.408 . S
C1117 C1116 1.404 . S
C1117 H1129 0.930 . S
C1118 C1114 1.524 . S
C1118 H1130 0.956 . S
C1118 H1131 0.961 . S
C1118 H1132 0.961 . S
C1119 C1116 1.539 . S
C1119 H1133 0.958 . S
C1119 H1134 0.961 . S
C1119 H1135 0.960 . S
H1120 C1104 0.931 . S
H1121 C1109 0.929 . S
H1122 C1110 0.960 . S
H1123 C1110 0.962 . S
H1124 C1110 0.960 . S
H1125 C1111 0.961 . S
H1126 C1111 0.961 . S
H1127 C1111 0.961 . S
H1128 C1112 0.931 . S
H1129 C1117 0.930 . S
H1130 C1118 0.956 . S
H1131 C1118 0.961 . S
H1132 C1118 0.961 . S
H1133 C1119 0.958 . S
H1134 C1119 0.961 . S
H1135 C1119 0.960 . S
C369 C1 1.546 . S
C377 C290 1.543 . S
C401 C67 1.361 . S
C409 C309 1.331 . S
C441 C346 1.732 . S
C433 C97 1.739 . S
C465 C133 1.716 . S
C473 C356 1.672 . S
C505 C326 2.011 . S
C497 C25 1.988 . S
C537 C296 1.406 . S
C529 C37 1.482 . S
C569 C367 1.508 . S
C561 C103 1.527 . S
C601 C337 1.409 . S
C593 C109 1.420 . S
C625 C31 1.744 . S
C633 C350 1.772 . S
C665 C317 1.681 . S
C657 C73 1.731 . S
C689 C139 1.755 . S
C697 C307 1.756 . S
C721 C61 1.208 . S
C729 C329 1.235 . S
C761 C289 1.553 . S
C753 C175 1.532 . S
C785 C181 1.328 . S
C793 C310 1.323 . S
C817 C247 1.773 . S
C825 C347 1.754 . S
C849 C277 1.706 . S
C857 C357 1.661 . S
C881 C145 1.923 . S
C889 C327 2.003 . S
C921 C297 1.406 . S
C913 C211 1.492 . S
C953 C366 1.501 . S
C945 C217 1.503 . S
C985 C336 1.427 . S
C977 C283 1.446 . S
C1009 C169 1.684 . S
C1017 C349 1.770 . S
C1049 C316 1.683 . S
C1041 C241 1.743 . S
C1081 C306 1.737 . S
C1073 C253 1.741 . S
C1105 C205 1.216 . S
C1113 C330 1.239 . S
