# Generated by pormake.
# Topology rtl, (3,6)-cn, num edge types: 1
# Building blocks:
#     Node 0, Type 0, BuildingBlock: QEWDON_clean_linker_0, # of connection points: 3
#     Node 1, Type 0, BuildingBlock: QEWDON_clean_linker_0, # of connection points: 3
#     Node 2, Type 0, BuildingBlock: QEWDON_clean_linker_0, # of connection points: 3
#     Node 3, Type 0, BuildingBlock: QEWDON_clean_linker_0, # of connection points: 3
#     Node 4, Type 1, BuildingBlock: KUMBOL_clean_sbu_1, # of connection points: 6
#     Node 5, Type 1, BuildingBlock: KUMBOL_clean_sbu_1, # of connection points: 6
#     Edge 6, Type (0, 1), BuildingBlock: XUDNAN_clean_linker_2, # of connection points: 2
#     Edge 7, Type (0, 1), BuildingBlock: XUDNAN_clean_linker_2, # of connection points: 2
#     Edge 8, Type (0, 1), BuildingBlock: XUDNAN_clean_linker_2, # of connection points: 2
#     Edge 9, Type (0, 1), BuildingBlock: XUDNAN_clean_linker_2, # of connection points: 2
#     Edge 10, Type (0, 1), BuildingBlock: XUDNAN_clean_linker_2, # of connection points: 2
#     Edge 11, Type (0, 1), BuildingBlock: XUDNAN_clean_linker_2, # of connection points: 2
#     Edge 12, Type (0, 1), BuildingBlock: XUDNAN_clean_linker_2, # of connection points: 2
#     Edge 13, Type (0, 1), BuildingBlock: XUDNAN_clean_linker_2, # of connection points: 2
#     Edge 14, Type (0, 1), BuildingBlock: XUDNAN_clean_linker_2, # of connection points: 2
#     Edge 15, Type (0, 1), BuildingBlock: XUDNAN_clean_linker_2, # of connection points: 2
#     Edge 16, Type (0, 1), BuildingBlock: XUDNAN_clean_linker_2, # of connection points: 2
#     Edge 17, Type (0, 1), BuildingBlock: XUDNAN_clean_linker_2, # of connection points: 2
# Relax obj value: 0.085
# Max RMSD: 0.274
# Mean RMSD: 0.210
data_MOF--net-rtl--node1-KUMBOL_clean_sbu_1--node2-QEWDON_clean_linker_0--edge1-XUDNAN_clean_linker_2
_symmetry_space_group_name_H-M    P1
_symmetry_Int_Tables_number       1
_symmetry_cell_setting            triclinic
loop_
_symmetry_equiv_pos_as_xyz
'x, y, z'
_cell_length_a     37.646791
_cell_length_b     37.792351
_cell_length_c     26.669988
_cell_angle_alpha  78.733708
_cell_angle_beta   100.5049
_cell_angle_gamma 91.536548
loop_
_atom_site_label
_atom_site_type_symbol
_atom_site_fract_x
_atom_site_fract_y
_atom_site_fract_z
_atom_type_partial_charge
H0 H 0.25346 0.84219 0.1124 0.0
C1 C 0.23995 0.84969 0.07226 0.0
C2 C 0.20649 0.8678 0.0608 0.0
C3 C 0.2566 0.84183 0.03244 0.0
H4 H 0.16372 0.89205 0.9993 0.0
C5 C 0.18975 0.87837 0.00871 0.0
C6 C 0.20547 0.87015 0.96853 0.0
C7 C 0.23871 0.85139 0.98043 0.0
C8 C 0.29387 0.8264 0.04606 0.0
H9 H 0.2511 0.84544 0.94935 0.0
C10 C 0.30314 0.79488 0.02999 0.0
C11 C 0.33815 0.77956 0.04773 0.0
C12 C 0.32033 0.84301 0.07799 0.0
H13 H 0.3141 0.86743 0.09036 0.0
C14 C 0.35502 0.82842 0.09443 0.0
H15 H 0.28295 0.78166 1.00568 0.0
C16 C 0.36384 0.79685 0.07978 0.0
H17 H 0.39104 0.78605 0.09322 0.0
H18 H 0.37512 0.84153 0.11896 0.0
H19 H 0.7413 0.70725 0.5922 0.0
C20 C 0.72284 0.70132 0.61947 0.0
C21 C 0.69035 0.68312 0.60597 0.0
C22 C 0.73273 0.70945 0.66955 0.0
H23 H 0.64175 0.66118 0.63192 0.0
C24 C 0.66701 0.6748 0.64211 0.0
C25 C 0.67633 0.68261 0.69196 0.0
C26 C 0.70922 0.69974 0.70559 0.0
C27 C 0.76891 0.72486 0.6864 0.0
H28 H 0.71647 0.70551 0.7444 0.0
C29 C 0.78322 0.75465 0.65537 0.0
C30 C 0.81723 0.7691 0.6735 0.0
C31 C 0.78947 0.70927 0.73484 0.0
H32 H 0.77968 0.68602 0.75909 0.0
C33 C 0.82314 0.72298 0.75236 0.0
H34 H 0.76755 0.7671 0.61814 0.0
C35 C 0.83691 0.75257 0.72216 0.0
H36 H 0.8634 0.76221 0.73675 0.0
H37 H 0.83874 0.7105 0.78958 0.0
H38 H 0.80376 0.18811 0.14904 0.0
C39 C 0.81862 0.18736 0.11804 0.0
C40 C 0.85242 0.16991 0.12953 0.0
C41 C 0.80292 0.20194 0.06651 0.0
H42 H 0.89655 0.15347 0.09793 0.0
C43 C 0.87074 0.1675 0.08894 0.0
C44 C 0.85501 0.18102 0.03678 0.0
C45 C 0.82111 0.19861 0.02601 0.0
C46 C 0.7648 0.21422 0.05488 0.0
H47 H 0.80788 0.20794 0.98609 0.0
C48 C 0.75505 0.2497 0.05656 0.0
C49 C 0.71822 0.25955 0.0491 0.0
C50 C 0.7377 0.189 0.04499 0.0
H51 H 0.74475 0.16158 0.04384 0.0
C52 C 0.70138 0.19868 0.03743 0.0
H53 H 0.77589 0.26924 0.06443 0.0
C54 C 0.69165 0.23361 0.03969 0.0
H55 H 0.66322 0.24053 0.03327 0.0
H56 H 0.68065 0.179 0.02996 0.0
H57 H 0.32483 0.30424 0.49546 0.0
C58 C 0.33566 0.31748 0.4617 0.0
C59 C 0.35332 0.35085 0.4622 0.0
C60 C 0.33361 0.3003 0.41895 0.0
H61 H 0.38381 0.39193 0.42047 0.0
C62 C 0.36862 0.36725 0.41911 0.0
C63 C 0.36734 0.35047 0.37633 0.0
C64 C 0.3491 0.31748 0.37616 0.0
C65 C 0.31931 0.26274 0.42096 0.0
H66 H 0.34787 0.30463 0.34295 0.0
C67 C 0.28781 0.25107 0.44154 0.0
C68 C 0.27514 0.21533 0.44195 0.0
C69 C 0.33826 0.23779 0.40259 0.0
H70 H 0.36305 0.24525 0.38813 0.0
C71 C 0.32611 0.20263 0.40353 0.0
H72 H 0.27281 0.26981 0.45589 0.0
C73 C 0.29489 0.19148 0.42285 0.0
H74 H 0.28653 0.16375 0.42366 0.0
H75 H 0.34116 0.18378 0.38947 0.0
C76 C 0.95601 0.11351 0.50052 0.0
C77 C 0.89499 0.09345 0.47356 0.0
C78 C 0.93005 0.08664 0.50331 0.0
C79 C 0.8869 0.12688 0.43992 0.0
C80 C 0.94785 0.14724 0.46719 0.0
C81 C 0.91321 0.15372 0.43686 0.0
N82 N 0.98965 0.10624 0.52935 0.0
C83 C 0.0157 0.13204 0.5289 0.0
C84 C 0.97484 0.17344 0.4652 0.0
C85 C 1.00882 0.16588 0.49649 0.0
Gd86 Gd 0.05016 0.98144 0.51612 0.0
Gd87 Gd 0.99906 0.04843 0.58127 0.0
N88 N 0.93887 0.05412 0.53538 0.0
C89 C 0.86888 0.06665 0.47908 0.0
C90 C 0.91248 0.02936 0.54426 0.0
C91 C 0.8775 0.03476 0.51532 0.0
H92 H 0.91762 1.00585 0.57473 0.0
H93 H 0.857 0.01459 0.52177 0.0
H94 H 0.13141 0.02042 0.55163 0.0
H95 H 0.04169 0.12656 0.55379 0.0
H96 H 0.18731 1.00504 0.61467 0.0
H97 H 0.84169 0.07083 0.45688 0.0
H98 H 0.86022 0.13241 0.41651 0.0
H99 H 1.00343 0.90513 0.51794 0.0
H100 H 0.96964 0.19965 0.43997 0.0
H101 H 0.02968 0.18615 0.49579 0.0
H102 H 0.17494 0.87973 0.68599 0.0
H103 H 0.90641 0.1795 0.41114 0.0
H104 H 0.06637 0.82033 0.62426 0.0
H105 H 1.01014 0.84126 0.5626 0.0
N106 N 0.05492 0.92012 0.5547 0.0
C107 C 0.08634 0.90911 0.58763 0.0
C108 C 0.02785 0.89628 0.54523 0.0
C109 C 0.06357 0.84835 0.60473 0.0
C110 C 0.03172 0.86008 0.57012 0.0
C111 C 0.09136 0.87292 0.61394 0.0
H112 H 0.12773 0.83495 0.67014 0.0
N113 N 0.10678 0.96955 0.57185 0.0
C114 C 0.11287 0.93457 0.59683 0.0
C115 C 0.17179 0.95013 0.63974 0.0
C116 C 0.14528 0.92412 0.63214 0.0
C117 C 0.13385 0.99415 0.57604 0.0
C118 C 0.16629 0.98512 0.61084 0.0
O119 O 1.00315 0.06228 0.49544 0.0
O120 O 0.99932 0.00846 0.4678 0.0
O121 O 0.08378 0.99416 0.45707 0.0
O122 O 0.05094 0.94634 0.46076 0.0
O123 O 0.97978 0.9901 0.58727 0.0
O124 O 0.99015 0.97196 0.51285 0.0
O125 O 0.04509 0.96492 0.60027 0.0
O126 O 0.0471 0.01683 0.63338 0.0
O127 O 0.96741 0.04335 0.64277 0.0
O128 O 1.00303 0.0885 0.63059 0.0
O129 O 0.06955 0.03945 0.51154 0.0
O130 O 0.05883 0.05842 0.58502 0.0
C131 C 0.99087 0.04269 0.46063 0.0
C132 C 0.97261 0.96931 0.55206 0.0
C133 C 0.06387 0.97339 0.37888 0.0
C134 C 0.07485 0.96018 0.2968 0.0
C135 C 0.02827 1.00361 0.29743 0.0
C136 C 0.03647 0.99789 0.35165 0.0
C137 C 0.04721 0.98489 0.27009 0.0
C138 C 0.08303 0.95483 0.35146 0.0
C139 C 0.07302 0.96658 0.43586 0.0
C140 C 0.15032 0.88812 0.65848 0.0
C141 C 0.12349 0.86258 0.64933 0.0
H142 H 0.19698 0.94322 0.66663 0.0
C143 C 0.05414 0.98227 0.63859 0.0
C144 C 0.07614 0.06096 0.54574 0.0
C145 C 0.99108 0.06906 0.71554 0.0
C146 C 0.98071 0.08577 0.796 0.0
C147 C 0.02905 0.04365 0.79766 0.0
C148 C 0.01982 0.04658 0.74387 0.0
C149 C 1.00974 0.06305 0.82361 0.0
C150 C 0.97162 0.08857 0.74163 0.0
C151 C 0.98061 0.07213 0.65891 0.0
H152 H 1.00702 0.02247 0.2765 0.0
H153 H 0.02149 0.0125 0.37224 0.0
H154 H 0.03982 0.98938 0.22815 0.0
H155 H 0.10461 0.93646 0.37293 0.0
H156 H 0.05131 0.0263 0.81936 0.0
H157 H 0.035 0.03128 0.72446 0.0
H158 H 0.01788 0.06059 0.86524 0.0
H159 H 0.94908 0.10548 0.71958 0.0
C160 C 0.61464 0.59807 0.04314 0.0
C161 C 0.58864 0.65825 0.02432 0.0
C162 C 0.5859 0.62072 0.0418 0.0
C163 C 0.61994 0.67234 1.00636 0.0
C164 C 0.64691 0.61234 0.02815 0.0
C165 C 0.64915 0.64949 0.00878 0.0
N166 N 0.61163 0.56219 0.06153 0.0
C167 C 0.6404 0.53936 0.06893 0.0
C168 C 0.67635 0.58898 0.03461 0.0
C169 C 0.67306 0.55233 0.05504 0.0
Gd170 Gd 0.4893 0.49339 0.98865 0.0
Gd171 Gd 0.55747 0.54319 0.08873 0.0
N172 N 0.55663 0.60644 0.06159 0.0
C173 C 0.56068 0.68073 0.028 0.0
C174 C 0.53145 0.62869 0.07044 0.0
C175 C 0.53233 0.66593 0.05219 0.0
H176 H 0.51137 0.61807 0.09316 0.0
H177 H 0.51169 0.68328 0.05814 0.0
H178 H 0.52606 0.41128 0.0172 0.0
H179 H 0.63826 0.51123 0.08613 0.0
H180 H 0.51313 0.34992 0.06258 0.0
H181 H 0.56173 0.70968 0.01491 0.0
H182 H 0.62241 0.70107 0.99251 0.0
H183 H 0.41228 0.54193 0.97489 0.0
H184 H 0.70187 0.59903 0.02455 0.0
H185 H 0.69581 0.53416 0.06068 0.0
H186 H 0.40132 0.36408 0.11956 0.0
H187 H 0.67364 0.66093 0.99666 0.0
H188 H 0.34273 0.47981 0.06753 0.0
H189 H 0.35635 0.53671 0.01096 0.0
N190 N 0.43296 0.49052 0.01629 0.0
C191 C 0.42469 0.45813 0.04408 0.0
C192 C 0.40796 0.51784 1.00211 0.0
C193 C 0.36796 0.48238 0.05307 0.0
C194 C 0.37563 0.51459 0.02139 0.0
C195 C 0.39213 0.45328 0.06358 0.0
H196 H 0.35949 0.41524 0.10719 0.0
N197 N 0.47954 0.43485 0.03245 0.0
C198 C 0.44827 0.42924 0.0514 0.0
C199 C 0.46378 0.36614 0.08224 0.0
C200 C 0.43987 0.39483 0.07772 0.0
C201 C 0.50227 0.40678 0.03484 0.0
C202 C 0.4949 0.37208 0.06019 0.0
O203 O 0.56892 0.54534 1.00747 0.0
O204 O 0.51281 0.54703 0.95594 0.0
O205 O 0.49865 0.46818 0.92505 0.0
O206 O 0.4468 0.49179 0.92208 0.0
O207 O 0.49806 0.55985 0.07151 0.0
O208 O 0.4766 0.55195 0.98739 0.0
O209 O 0.50757 0.47051 0.07448 0.0
O210 O 0.50712 0.51803 0.11459 0.0
O211 O 0.58002 0.5712 0.15079 0.0
O212 O 0.58388 0.51311 0.16384 0.0
O213 O 0.54853 0.47909 0.99796 0.0
O214 O 0.5745 0.487 0.08168 0.0
C215 C 0.54683 0.55703 0.96355 0.0
C216 C 0.47602 0.56863 0.02633 0.0
C217 C 0.44705 0.44197 0.88112 0.0
C218 C 0.42097 0.41203 0.80932 0.0
C219 C 0.41563 0.38515 0.89827 0.0
C220 C 0.43428 0.41395 0.9159 0.0
C221 C 0.4089 0.38416 0.84546 0.0
C222 C 0.44029 0.44095 0.82769 0.0
C223 C 0.46558 0.47317 0.8999 0.0
C224 C 0.40801 0.39019 0.09853 0.0
C225 C 0.38426 0.41937 0.09164 0.0
H226 H 0.45827 0.33928 0.10212 0.0
C227 C 0.49919 0.48444 0.11213 0.0
C228 C 0.57357 0.47207 0.04044 0.0
C229 C 0.57924 0.54032 0.23574 0.0
C230 C 0.58833 0.56237 0.31758 0.0
C231 C 0.53996 0.52021 0.29816 0.0
C232 C 0.54995 0.51971 0.2504 0.0
C233 C 0.55887 0.54138 0.3315 0.0
C234 C 0.59836 0.56146 0.26944 0.0
C235 C 0.5893 0.54177 0.18454 0.0
H236 H 0.40579 0.3638 0.92559 0.0
H237 H 0.43802 0.41449 0.95658 0.0
H238 H 0.39334 0.36195 0.83286 0.0
H239 H 0.4499 0.46268 0.80061 0.0
H240 H 0.51721 0.50441 0.30916 0.0
H241 H 0.53463 0.50353 0.22485 0.0
H242 H 0.54994 0.54182 0.36773 0.0
H243 H 0.62108 0.57717 0.25799 0.0
H244 H 0.22145 0.17428 0.39869 0.0
H245 H 0.25448 0.22404 0.53298 0.0
H246 H 0.20475 0.19276 0.57302 0.0
H247 H 0.12334 0.17481 0.398 0.0
H248 H 0.11742 0.13171 0.37836 0.0
H249 H 0.15271 0.16139 0.35853 0.0
H250 H 0.19994 0.11033 0.39908 0.0
H251 H 0.16489 0.08068 0.41948 0.0
H252 H 0.20329 0.08933 0.46659 0.0
H253 H 0.15436 0.15029 0.60181 0.0
H254 H 0.10725 0.104 0.61428 0.0
H255 H 0.10873 0.08229 0.4608 0.0
C256 C 0.21795 0.17908 0.43623 0.0
C257 C 0.24198 0.20165 0.46272 0.0
C258 C 0.23623 0.20727 0.51164 0.0
C259 C 0.20817 0.18938 0.5348 0.0
C260 C 0.18583 0.16624 0.50834 0.0
C261 C 0.19024 0.1615 0.45974 0.0
C262 C 0.16404 0.13398 0.44016 0.0
C263 C 0.13782 0.15153 0.39084 0.0
C264 C 0.18426 0.10168 0.4308 0.0
C265 C 0.14468 0.12317 0.48576 0.0
C266 C 0.15732 0.14216 0.52467 0.0
C267 C 0.14408 0.13564 0.57124 0.0
C268 C 0.11732 0.10921 0.57803 0.0
C269 C 0.10405 0.08944 0.53854 0.0
C270 C 0.11806 0.09684 0.49185 0.0
H271 H 0.37111 0.72019 0.1134 0.0
H272 H 0.33097 0.7632 0.9505 0.0
H273 H 0.35829 0.71111 0.92691 0.0
H274 H 0.45465 0.69145 0.09951 0.0
H275 H 0.45723 0.65078 0.14834 0.0
H276 H 0.43095 0.68867 0.15309 0.0
H277 H 0.37407 0.64878 0.15616 0.0
H278 H 0.40026 0.61043 0.15254 0.0
H279 H 0.35955 0.62325 0.10571 0.0
H280 H 0.39727 0.65846 0.92134 0.0
H281 H 0.43992 0.60753 0.93421 0.0
H282 H 0.45139 0.59711 0.10131 0.0
C283 C 0.36741 0.71821 0.0728 0.0
C284 C 0.34889 0.74567 0.03368 0.0
C285 C 0.34469 0.74225 0.98103 0.0
C286 C 0.36029 0.71287 0.96735 0.0
C287 C 0.37945 0.68687 1.00687 0.0
C288 C 0.38244 0.68896 0.05863 0.0
C289 C 0.40571 0.65852 0.09364 0.0
C290 C 0.4391 0.67325 0.12551 0.0
C291 C 0.38357 0.63378 0.1291 0.0
C292 C 0.41624 0.63946 0.05355 0.0
C293 C 0.4009 0.65618 1.0037 0.0
C294 C 0.40887 0.64483 0.96025 0.0
C295 C 0.43317 0.61585 0.96798 0.0
C296 C 0.44921 0.59833 0.01879 0.0
C297 C 0.4399 0.61003 0.06195 0.0
H298 H 0.85329 0.82604 0.70915 0.0
H299 H 0.81818 0.7839 0.56826 0.0
H300 H 0.85124 0.83277 0.52008 0.0
H301 H 0.85064 0.92198 0.64812 0.0
H302 H 0.89049 0.93191 0.69174 0.0
H303 H 0.86114 0.8959 0.7133 0.0
H304 H 0.91546 0.85124 0.73814 0.0
H305 H 0.94486 0.88704 0.71641 0.0
H306 H 0.94182 0.84655 0.6897 0.0
H307 H 0.89301 0.88375 0.48929 0.0
H308 H 0.93723 0.93299 0.47809 0.0
H309 H 0.94554 0.94041 0.64009 0.0
C310 C 0.85224 0.82717 0.66803 0.0
C311 C 0.83312 0.80093 0.64257 0.0
C312 C 0.83223 0.80381 0.58857 0.0
C313 C 0.85114 0.83139 0.56096 0.0
C314 C 0.87061 0.85609 0.58777 0.0
C315 C 0.87095 0.85436 0.64007 0.0
C316 C 0.89509 0.88306 0.6606 0.0
C317 C 0.87301 0.9098 0.67955 0.0
C318 C 0.92614 0.86594 0.70375 0.0
C319 C 0.90895 0.90087 0.612 0.0
C320 C 0.89442 0.88512 0.57025 0.0
C321 C 0.90427 0.89638 0.5217 0.0
C322 C 0.92955 0.9243 0.51576 0.0
C323 C 0.94493 0.94065 0.55816 0.0
C324 C 0.93413 0.92876 0.60674 0.0
H325 H 0.67026 0.27988 0.10426 0.0
H326 H 0.73893 0.32294 0.99325 0.0
H327 H 0.71245 0.38378 0.98362 0.0
H328 H 0.59251 0.32953 0.04254 0.0
H329 H 0.57906 0.33664 0.10135 0.0
H330 H 0.60589 0.29772 0.10262 0.0
H331 H 0.65382 0.31645 0.17568 0.0
H332 H 0.62689 0.35554 0.17396 0.0
H333 H 0.67324 0.36082 0.16526 0.0
H334 H 0.67205 0.43775 0.97695 0.0
H335 H 0.62535 0.48185 0.98051 0.0
H336 H 0.5858 0.40468 0.1 0.0
C337 C 0.68022 0.30232 0.07875 0.0
C338 C 0.7067 0.29681 0.04952 0.0
C339 C 0.719 0.32671 0.0164 0.0
C340 C 0.70397 0.36127 0.01054 0.0
C341 C 0.67715 0.36559 0.03884 0.0
C342 C 0.66591 0.33702 0.07309 0.0
C343 C 0.6359 0.34848 0.09769 0.0
C344 C 0.6013 0.3268 0.08526 0.0
C345 C 0.64821 0.34513 0.15665 0.0
C346 C 0.63104 0.38764 0.07057 0.0
C347 C 0.65508 0.39703 0.03672 0.0
C348 C 0.6537 0.43091 1.00417 0.0
C349 C 0.6271 0.4557 1.00625 0.0
C350 C 0.60265 0.44663 0.04108 0.0
C351 C 0.60488 0.41238 0.07398 0.0
H352 H 0.17353 0.93073 0.0659 0.0
H353 H 0.19916 0.8217 0.15113 0.0
H354 H 0.16825 0.83338 0.22056 0.0
H355 H 0.18608 0.9732 0.17781 0.0
H356 H 0.14929 1.00482 0.15113 0.0
H357 H 0.17359 0.98785 0.10839 0.0
H358 H 0.11353 0.96585 0.06015 0.0
H359 H 0.08906 0.98262 0.10286 0.0
H360 H 0.08506 0.936 0.09654 0.0
H361 H 0.13295 0.85633 0.27926 0.0
H362 H 0.0981 0.88959 0.32515 0.0
H363 H 0.0971 0.98448 0.203 0.0
C364 C 0.17251 0.90928 0.0991 0.0
C365 C 0.18875 0.87527 0.10314 0.0
C366 C 0.18725 0.84806 0.14751 0.0
C367 C 0.16957 0.85437 0.18696 0.0
C368 C 0.15369 0.88811 0.18161 0.0
C369 C 0.15518 0.91519 0.13898 0.0
C370 C 0.13624 0.94916 0.14298 0.0
C371 C 0.1629 0.98061 0.14522 0.0
C372 C 0.10406 0.95897 0.09796 0.0
C373 C 0.12367 0.93688 0.19439 0.0
C374 C 0.13392 0.90155 0.21593 0.0
C375 C 0.12506 0.88412 0.263 0.0
C376 C 0.10544 0.90338 0.28896 0.0
C377 C 0.09501 0.93985 0.26809 0.0
C378 C 0.10427 0.9566 0.21995 0.0
H379 H 0.69171 0.63459 0.78429 0.0
H380 H 0.60616 0.70265 0.68403 0.0
H381 H 0.5642 0.67948 0.74427 0.0
H382 H 0.63397 0.55877 0.81414 0.0
H383 H 0.65774 0.5447 0.87989 0.0
H384 H 0.68145 0.56809 0.8305 0.0
H385 H 0.70174 0.61818 0.88438 0.0
H386 H 0.68024 0.59211 0.93397 0.0
H387 H 0.66823 0.63915 0.90969 0.0
H388 H 0.53096 0.6466 0.81327 0.0
H389 H 0.50884 0.60727 0.8865 0.0
H390 H 0.61608 0.56039 0.94267 0.0
C391 C 0.66431 0.64505 0.77573 0.0
C392 C 0.65221 0.67088 0.7302 0.0
C393 C 0.61592 0.68318 0.71914 0.0
C394 C 0.59196 0.67012 0.75305 0.0
C395 C 0.60461 0.64439 0.7975 0.0
C396 C 0.63987 0.63183 0.80873 0.0
C397 C 0.64611 0.60272 0.85743 0.0
C398 C 0.65536 0.56643 0.8447 0.0
C399 C 0.6758 0.6138 0.89889 0.0
C400 C 0.60919 0.60165 0.87301 0.0
C401 C 0.58551 0.62554 0.83738 0.0
C402 C 0.54933 0.62802 0.84163 0.0
C403 C 0.53697 0.60547 0.88323 0.0
C404 C 0.56073 0.58097 0.92044 0.0
C405 C 0.5974 0.57928 0.91531 0.0
H406 H 0.91779 0.17727 0.19243 0.0
H407 H 0.81837 0.11638 0.18545 0.0
H408 H 0.8425 0.07821 0.27072 0.0
H409 H 0.97816 0.10412 0.25213 0.0
H410 H 1.00767 0.12915 0.29346 0.0
H411 H 0.98235 0.15225 0.23244 0.0
H412 H 0.95556 0.1948 0.28073 0.0
H413 H 0.97935 0.17144 0.34277 0.0
H414 H 0.9309 0.17641 0.33155 0.0
H415 H 0.87987 0.04243 0.35081 0.0
H416 H 0.92523 0.01622 0.42773 0.0
H417 H 0.99794 0.10405 0.38919 0.0
C418 C 0.90107 0.15616 0.20937 0.0
C419 C 0.8662 0.14971 0.18272 0.0
C420 C 0.84498 0.12187 0.20569 0.0
C421 C 0.85852 0.10001 0.25389 0.0
C422 C 0.8931 0.10676 0.27904 0.0
C423 C 0.91389 0.13455 0.25816 0.0
C424 C 0.95011 0.13604 0.29366 0.0
C425 C 0.98141 0.13003 0.26627 0.0
C426 C 0.95423 0.17179 0.31338 0.0
C427 C 0.9466 0.1044 0.3372 0.0
C428 C 0.9137 0.08755 0.32746 0.0
C429 C 0.90541 0.05578 0.35942 0.0
C430 C 0.93133 0.04098 0.40269 0.0
C431 C 0.9646 0.05848 0.41429 0.0
C432 C 0.97229 0.09067 0.38139 0.0
H433 H 0.37666 0.31672 0.56307 0.0
H434 H 0.34494 0.42171 0.46807 0.0
H435 H 0.36024 0.44945 0.54596 0.0
H436 H 0.34307 0.32965 0.6774 0.0
H437 H 0.38029 0.30538 0.72186 0.0
H438 H 0.36565 0.29408 0.65881 0.0
H439 H 0.43067 0.30414 0.63985 0.0
H440 H 0.44542 0.31586 0.70261 0.0
H441 H 0.45231 0.3468 0.64463 0.0
H442 H 0.37991 0.46566 0.63487 0.0
H443 H 0.39994 0.46855 0.72756 0.0
H444 H 0.4207 0.35308 0.76293 0.0
C445 C 0.37227 0.34544 0.5588 0.0
C446 C 0.35932 0.36704 0.50957 0.0
C447 C 0.35484 0.40468 0.50544 0.0
C448 C 0.36347 0.42065 0.54943 0.0
C449 C 0.37673 0.39864 0.59725 0.0
C450 C 0.38098 0.36183 0.60217 0.0
C451 C 0.39634 0.34425 0.65769 0.0
C452 C 0.36974 0.31672 0.68026 0.0
C453 C 0.43338 0.32674 0.66138 0.0
C454 C 0.39989 0.37686 0.68334 0.0
C455 C 0.38852 0.40802 0.64793 0.0
C456 C 0.38898 0.44141 0.6629 0.0
C457 C 0.40072 0.44285 0.71562 0.0
C458 C 0.4119 0.41108 0.75277 0.0
C459 C 0.41193 0.37784 0.73583 0.0
H460 H 0.66556 0.61676 0.59087 0.0
H461 H 0.69418 0.72088 0.50764 0.0
H462 H 0.674 0.70052 0.42406 0.0
H463 H 0.69171 0.56258 0.50412 0.0
H464 H 0.65461 0.53193 0.51101 0.0
H465 H 0.67377 0.55413 0.56354 0.0
H466 H 0.61049 0.57936 0.5639 0.0
H467 H 0.59117 0.55745 0.51122 0.0
H468 H 0.58532 0.60541 0.50479 0.0
H469 H 0.64605 0.66956 0.34938 0.0
H470 H 0.61497 0.63074 0.29075 0.0
H471 H 0.60594 0.5468 0.42438 0.0
C472 C 0.66771 0.63531 0.55508 0.0
C473 C 0.68119 0.67054 0.55568 0.0
C474 C 0.6841 0.69374 0.50805 0.0
C475 C 0.67258 0.68242 0.46047 0.0
C476 C 0.6586 0.64773 0.46135 0.0
C477 C 0.65647 0.62446 0.50757 0.0
C478 C 0.63952 0.58898 0.49834 0.0
C479 C 0.66652 0.55755 0.52056 0.0
C480 C 0.60456 0.58244 0.52089 0.0
C481 C 0.63168 0.59604 0.43957 0.0
C482 C 0.64301 0.62997 0.41882 0.0
C483 C 0.63751 0.64279 0.36529 0.0
C484 C 0.61997 0.62042 0.33226 0.0
C485 C 0.60804 0.58553 0.35276 0.0
C486 C 0.61434 0.57335 0.40726 0.0
H487 H 0.88814 0.11845 0.03063 0.0
H488 H 0.86104 0.22713 0.94508 0.0
H489 H 0.88939 0.21462 0.87349 0.0
H490 H 0.97514 0.11292 0.9948 0.0
H491 H 0.97052 0.06603 0.9901 0.0
H492 H 0.94784 0.08366 0.03399 0.0
H493 H 0.88665 0.06099 0.99005 0.0
H494 H 0.90913 0.04336 0.94595 0.0
H495 H 0.87206 0.07484 0.92085 0.0
H496 H 0.9216 0.18993 0.8114 0.0
H497 H 0.95479 0.15553 0.76451 0.0
H498 H 0.96014 0.06299 0.8911 0.0
C499 C 0.88853 0.13986 0.99719 0.0
C500 C 0.87254 0.17395 0.99375 0.0
C501 C 0.87292 0.20079 0.94856 0.0
C502 C 0.88908 0.19395 0.90779 0.0
C503 C 0.90466 0.16008 0.91261 0.0
C504 C 0.90445 0.13349 0.95621 0.0
C505 C 0.92279 0.09927 0.95189 0.0
C506 C 0.95605 0.08994 0.99527 0.0
C507 C 0.89606 0.06776 0.95219 0.0
C508 C 0.93365 0.11079 0.89917 0.0
C509 C 0.92289 0.1459 0.87701 0.0
C510 C 0.93002 0.16237 0.82837 0.0
C511 C 0.94871 0.1425 0.80186 0.0
C512 C 0.96016 0.10646 0.82393 0.0
C513 C 0.95226 0.09058 0.87326 0.0
H514 H 0.37151 0.42101 0.3235 0.0
H515 H 0.41305 0.31282 0.33744 0.0
H516 H 0.4526 0.33617 0.27451 0.0
H517 H 0.37079 0.44844 0.18493 0.0
H518 H 0.38447 0.49412 0.18806 0.0
H519 H 0.35918 0.46965 0.23474 0.0
H520 H 0.40899 0.48113 0.31011 0.0
H521 H 0.43479 0.50574 0.26418 0.0
H522 H 0.45495 0.46787 0.31213 0.0
H523 H 0.48977 0.37092 0.21393 0.0
H524 H 0.51726 0.41417 0.15045 0.0
H525 H 0.45073 0.50025 0.17116 0.0
C526 C 0.38885 0.40228 0.31307 0.0
C527 C 0.389 0.36497 0.33529 0.0
C528 C 0.412 0.34133 0.32046 0.0
C529 C 0.43483 0.35441 0.28507 0.0
C530 C 0.43433 0.39124 0.26438 0.0
C531 C 0.41163 0.41486 0.27712 0.0
C532 C 0.41599 0.45311 0.24794 0.0
C533 C 0.3805 0.46716 0.21176 0.0
C534 C 0.42948 0.47846 0.28586 0.0
C535 C 0.44476 0.4472 0.21712 0.0
C536 C 0.45516 0.41131 0.22781 0.0
C537 C 0.48161 0.39902 0.20492 0.0
C538 C 0.49707 0.42379 0.1689 0.0
C539 C 0.48577 0.46037 0.15543 0.0
C540 C 0.45986 0.47241 0.1808 0.0
H541 H 0.19404 0.93798 0.90905 0.0
H542 H 0.17055 0.82517 0.9087 0.0
H543 H 0.12799 0.84232 0.82518 0.0
H544 H 0.10682 0.97327 0.85762 0.0
H545 H 0.12051 0.01315 0.8167 0.0
H546 H 0.15073 0.99234 0.87481 0.0
H547 H 0.20028 0.98644 0.8207 0.0
H548 H 0.17028 1.00787 0.76268 0.0
H549 H 0.18976 0.96429 0.76579 0.0
H550 H 0.08334 0.87172 0.74858 0.0
H551 H 0.04677 0.91064 0.67328 0.0
H552 H 0.10227 1.00506 0.71759 0.0
C553 C 0.18052 0.91699 0.8905 0.0
C554 C 0.18561 0.88024 0.91462 0.0
C555 C 0.16725 0.85335 0.89013 0.0
C556 C 0.14289 0.86289 0.84307 0.0
C557 C 0.13769 0.89941 0.82087 0.0
C558 C 0.15663 0.92605 0.84291 0.0
C559 C 0.14611 0.96323 0.81045 0.0
C560 C 0.13009 0.98688 0.84179 0.0
C561 C 0.17854 0.98153 0.78861 0.0
C562 C 0.11757 0.95337 0.76754 0.0
C563 C 0.11301 0.91639 0.7748 0.0
C564 C 0.08725 0.90062 0.74187 0.0
C565 C 0.06662 0.92303 0.69917 0.0
C566 C 0.07227 0.96081 0.68886 0.0
C567 C 0.09749 0.97628 0.72431 0.0
loop_
_geom_bond_atom_site_label_1
_geom_bond_atom_site_label_2
_geom_bond_distance
_geom_bond_site_symmetry_2
_ccdc_geom_bond_type
H0 C1 0.949 . S
C1 H0 0.949 . S
C1 C2 1.395 . S
C1 C3 1.391 . S
C2 C1 1.395 . S
C2 C5 1.390 . S
C3 C1 1.391 . S
C3 C7 1.387 1_554 S
C3 C8 1.491 . S
H4 C5 0.950 . S
C5 C2 1.390 . S
C5 H4 0.950 . S
C5 C6 1.378 1_554 S
C6 C5 1.378 1_556 S
C6 C7 1.409 . S
C7 C3 1.387 1_556 S
C7 C6 1.409 . S
C7 H9 0.951 . S
C8 C3 1.491 . S
C8 C10 1.382 . S
C8 C12 1.404 1_554 S
H9 C7 0.951 . S
C10 C8 1.382 . S
C10 C11 1.390 . S
C10 H15 0.949 . S
C11 C10 1.390 . S
C11 C16 1.399 . S
C12 C8 1.404 1_556 S
C12 H13 0.950 . S
C12 C14 1.375 . S
H13 C12 0.950 . S
C14 C12 1.375 . S
C14 C16 1.382 1_556 S
C14 H18 0.950 . S
H15 C10 0.949 . S
C16 C11 1.399 . S
C16 C14 1.382 1_554 S
C16 H17 0.952 . S
H17 C16 0.952 . S
H18 C14 0.950 . S
H19 C20 0.949 . S
C20 H19 0.949 . S
C20 C21 1.395 . S
C20 C22 1.391 . S
C21 C20 1.395 . S
C21 C24 1.390 . S
C22 C20 1.391 . S
C22 C26 1.387 . S
C22 C27 1.491 . S
H23 C24 0.950 . S
C24 C21 1.390 . S
C24 H23 0.950 . S
C24 C25 1.378 . S
C25 C24 1.378 . S
C25 C26 1.409 . S
C26 C22 1.387 . S
C26 C25 1.409 . S
C26 H28 0.951 . S
C27 C22 1.491 . S
C27 C29 1.382 . S
C27 C31 1.404 . S
H28 C26 0.951 . S
C29 C27 1.382 . S
C29 C30 1.390 . S
C29 H34 0.949 . S
C30 C29 1.390 . S
C30 C35 1.399 . S
C31 C27 1.404 . S
C31 H32 0.950 . S
C31 C33 1.375 . S
H32 C31 0.950 . S
C33 C31 1.375 . S
C33 C35 1.382 . S
C33 H37 0.950 . S
H34 C29 0.949 . S
C35 C30 1.399 . S
C35 C33 1.382 . S
C35 H36 0.952 . S
H36 C35 0.952 . S
H37 C33 0.950 . S
H38 C39 0.949 . S
C39 H38 0.949 . S
C39 C40 1.395 . S
C39 C41 1.391 . S
C40 C39 1.395 . S
C40 C43 1.390 . S
C41 C39 1.391 . S
C41 C45 1.387 1_554 S
C41 C46 1.491 . S
H42 C43 0.950 . S
C43 C40 1.390 . S
C43 H42 0.950 . S
C43 C44 1.378 . S
C44 C43 1.378 . S
C44 C45 1.409 1_554 S
C45 C41 1.387 1_556 S
C45 C44 1.409 1_556 S
C45 H47 0.951 . S
C46 C41 1.491 . S
C46 C48 1.382 . S
C46 C50 1.404 1_554 S
H47 C45 0.951 . S
C48 C46 1.382 . S
C48 C49 1.390 . S
C48 H53 0.949 . S
C49 C48 1.390 . S
C49 C54 1.399 1_554 S
C50 C46 1.404 1_556 S
C50 H51 0.950 . S
C50 C52 1.375 . S
H51 C50 0.950 . S
C52 C50 1.375 . S
C52 C54 1.382 . S
C52 H56 0.950 . S
H53 C48 0.949 . S
C54 C49 1.399 1_556 S
C54 C52 1.382 . S
C54 H55 0.952 . S
H55 C54 0.952 . S
H56 C52 0.950 . S
H57 C58 0.949 . S
C58 H57 0.949 . S
C58 C59 1.395 . S
C58 C60 1.391 . S
C59 C58 1.395 . S
C59 C62 1.390 . S
C60 C58 1.391 . S
C60 C64 1.387 . S
C60 C65 1.491 . S
H61 C62 0.950 . S
C62 C59 1.390 . S
C62 H61 0.950 . S
C62 C63 1.378 . S
C63 C62 1.378 . S
C63 C64 1.409 . S
C64 C60 1.387 . S
C64 C63 1.409 . S
C64 H66 0.951 . S
C65 C60 1.491 . S
C65 C67 1.382 . S
C65 C69 1.404 . S
H66 C64 0.951 . S
C67 C65 1.382 . S
C67 C68 1.390 . S
C67 H72 0.949 . S
C68 C67 1.390 . S
C68 C73 1.399 . S
C69 C65 1.404 . S
C69 H70 0.950 . S
C69 C71 1.375 . S
H70 C69 0.950 . S
C71 C69 1.375 . S
C71 C73 1.382 . S
C71 H75 0.950 . S
H72 C67 0.949 . S
C73 C68 1.399 . S
C73 C71 1.382 . S
C73 H74 0.952 . S
H74 C73 0.952 . S
H75 C71 0.950 . S
C76 C78 1.422 . S
C76 C80 1.415 . S
C76 N82 1.369 . S
C77 C78 1.421 . S
C77 C79 1.417 . S
C77 C89 1.422 . S
C78 C76 1.422 . S
C78 C77 1.421 . S
C78 N88 1.359 . S
C79 C77 1.417 . S
C79 C81 1.329 . S
C79 H98 0.930 . S
C80 C76 1.415 . S
C80 C81 1.437 . S
C80 C84 1.413 . S
C81 C79 1.329 . S
C81 C80 1.437 . S
C81 H103 0.929 . S
N82 C76 1.369 . S
N82 C83 1.338 1_655 S
N82 Gd87 2.622 . S
C83 N82 1.338 1_455 S
C83 C85 1.378 . S
C83 H95 0.929 . S
C84 C80 1.413 . S
C84 C85 1.348 1_655 S
C84 H100 0.931 . S
C85 C83 1.378 . S
C85 C84 1.348 1_455 S
C85 H101 0.930 . S
Gd86 N106 2.622 . S
Gd86 N113 2.570 . S
Gd86 O120 2.353 1_465 S
Gd86 O121 2.468 . S
Gd86 O122 2.427 . S
Gd86 O124 2.388 1_455 S
Gd86 O125 2.386 . S
Gd86 O129 2.307 1_565 S
Gd86 C139 2.805 . S
Gd87 N82 2.622 . S
Gd87 N88 2.570 . S
Gd87 O119 2.386 . S
Gd87 O123 2.307 1_545 S
Gd87 O126 2.353 1_655 S
Gd87 O127 2.468 . S
Gd87 O128 2.427 . S
Gd87 O130 2.388 1_655 S
Gd87 C151 2.805 . S
N88 C78 1.359 . S
N88 Gd87 2.570 . S
N88 C90 1.343 . S
C89 C77 1.422 . S
C89 C91 1.321 . S
C89 H97 0.931 . S
C90 N88 1.343 . S
C90 C91 1.390 . S
C90 H92 0.931 . S
C91 C89 1.321 . S
C91 C90 1.390 . S
C91 H93 0.930 . S
H92 C90 0.931 . S
H93 C91 0.930 . S
H94 C117 0.931 . S
H95 C83 0.929 . S
H96 C118 0.930 . S
H97 C89 0.931 . S
H98 C79 0.930 . S
H99 C108 0.929 1_655 S
H100 C84 0.931 . S
H101 C85 0.930 . S
H102 C140 0.930 . S
H103 C81 0.929 . S
H104 C109 0.931 . S
H105 C110 0.930 1_655 S
N106 Gd86 2.622 . S
N106 C107 1.369 . S
N106 C108 1.338 . S
C107 N106 1.369 . S
C107 C111 1.415 . S
C107 C114 1.422 . S
C108 H99 0.929 1_455 S
C108 N106 1.338 . S
C108 C110 1.378 . S
C109 H104 0.931 . S
C109 C110 1.348 . S
C109 C111 1.413 . S
C110 H105 0.930 1_455 S
C110 C108 1.378 . S
C110 C109 1.348 . S
C111 C107 1.415 . S
C111 C109 1.413 . S
C111 C141 1.437 . S
H112 C141 0.929 . S
N113 Gd86 2.570 . S
N113 C114 1.359 . S
N113 C117 1.343 . S
C114 C107 1.422 . S
C114 N113 1.359 . S
C114 C116 1.421 . S
C115 C116 1.422 . S
C115 C118 1.321 . S
C115 H142 0.931 . S
C116 C114 1.421 . S
C116 C115 1.422 . S
C116 C140 1.417 . S
C117 H94 0.931 . S
C117 N113 1.343 . S
C117 C118 1.390 . S
C118 H96 0.930 . S
C118 C115 1.321 . S
C118 C117 1.390 . S
O119 Gd87 2.386 . S
O119 C131 1.265 . S
O120 Gd86 2.353 1_645 S
O120 C131 1.242 . S
O121 Gd86 2.468 . S
O121 C139 1.263 . S
O122 Gd86 2.427 . S
O122 C139 1.252 . S
O123 Gd87 2.307 1_565 S
O123 C132 1.261 . S
O124 Gd86 2.388 1_655 S
O124 C132 1.252 . S
O125 Gd86 2.386 . S
O125 C143 1.265 . S
O126 Gd87 2.353 1_455 S
O126 C143 1.242 1_545 S
O127 Gd87 2.468 . S
O127 C151 1.263 . S
O128 Gd87 2.427 . S
O128 C151 1.252 . S
O129 Gd86 2.307 1_545 S
O129 C144 1.261 . S
O130 Gd87 2.388 1_455 S
O130 C144 1.252 . S
C131 O119 1.265 . S
C131 O120 1.242 . S
C132 O123 1.261 . S
C132 O124 1.252 . S
C133 C136 1.394 . S
C133 C138 1.370 . S
C133 C139 1.500 . S
C134 C137 1.383 . S
C134 C138 1.395 . S
C135 C136 1.396 . S
C135 C137 1.365 . S
C135 H152 0.929 . S
C136 C133 1.394 . S
C136 C135 1.396 . S
C136 H153 0.930 . S
C137 C134 1.383 . S
C137 C135 1.365 . S
C137 H154 0.931 . S
C138 C133 1.370 . S
C138 C134 1.395 . S
C138 H155 0.930 . S
C139 Gd86 2.805 . S
C139 O121 1.263 . S
C139 O122 1.252 . S
C139 C133 1.500 . S
C140 H102 0.930 . S
C140 C116 1.417 . S
C140 C141 1.329 . S
C141 C111 1.437 . S
C141 H112 0.929 . S
C141 C140 1.329 . S
H142 C115 0.931 . S
C143 O125 1.265 . S
C143 O126 1.242 1_565 S
C144 O129 1.261 . S
C144 O130 1.252 . S
C145 C148 1.394 . S
C145 C150 1.370 . S
C145 C151 1.500 . S
C146 C149 1.383 . S
C146 C150 1.395 . S
C147 C148 1.396 . S
C147 C149 1.365 . S
C147 H156 0.929 . S
C148 C145 1.394 . S
C148 C147 1.396 . S
C148 H157 0.930 . S
C149 C146 1.383 . S
C149 C147 1.365 . S
C149 H158 0.931 . S
C150 C145 1.370 . S
C150 C146 1.395 . S
C150 H159 0.930 . S
C151 Gd87 2.805 . S
C151 O127 1.263 . S
C151 O128 1.252 . S
C151 C145 1.500 . S
H152 C135 0.929 . S
H153 C136 0.930 . S
H154 C137 0.931 . S
H155 C138 0.930 . S
H156 C147 0.929 . S
H157 C148 0.930 . S
H158 C149 0.931 . S
H159 C150 0.930 . S
C160 C162 1.422 . S
C160 C164 1.415 . S
C160 N166 1.369 . S
C161 C162 1.421 . S
C161 C163 1.417 . S
C161 C173 1.422 . S
C162 C160 1.422 . S
C162 C161 1.421 . S
C162 N172 1.359 . S
C163 C161 1.417 . S
C163 C165 1.329 . S
C163 H182 0.930 . S
C164 C160 1.415 . S
C164 C165 1.437 . S
C164 C168 1.413 . S
C165 C163 1.329 . S
C165 C164 1.437 . S
C165 H187 0.929 . S
N166 C160 1.369 . S
N166 C167 1.338 . S
N166 Gd171 2.622 . S
C167 N166 1.338 . S
C167 C169 1.378 . S
C167 H179 0.929 . S
C168 C164 1.413 . S
C168 C169 1.348 . S
C168 H184 0.931 . S
C169 C167 1.378 . S
C169 C168 1.348 . S
C169 H185 0.930 . S
Gd170 N190 2.618 1_556 S
Gd170 N197 2.570 1_556 S
Gd170 O204 2.353 . S
Gd170 O205 2.468 . S
Gd170 O206 2.427 . S
Gd170 O208 2.388 1_556 S
Gd170 O209 2.386 1_556 S
Gd170 O213 2.307 1_556 S
Gd170 C223 2.805 . S
Gd171 N166 2.622 . S
Gd171 N172 2.570 . S
Gd171 O203 2.386 . S
Gd171 O207 2.307 . S
Gd171 O210 2.353 . S
Gd171 O211 2.468 . S
Gd171 O212 2.427 . S
Gd171 O214 2.388 . S
Gd171 C235 2.805 . S
N172 C162 1.359 . S
N172 Gd171 2.570 . S
N172 C174 1.343 . S
C173 C161 1.422 . S
C173 C175 1.321 . S
C173 H181 0.931 . S
C174 N172 1.343 . S
C174 C175 1.390 . S
C174 H176 0.931 . S
C175 C173 1.321 . S
C175 C174 1.390 . S
C175 H177 0.930 . S
H176 C174 0.931 . S
H177 C175 0.930 . S
H178 C201 0.931 . S
H179 C167 0.929 . S
H180 C202 0.930 . S
H181 C173 0.931 . S
H182 C163 0.930 . S
H183 C192 0.929 . S
H184 C168 0.931 . S
H185 C169 0.930 . S
H186 C224 0.930 . S
H187 C165 0.929 . S
H188 C193 0.931 . S
H189 C194 0.930 . S
N190 Gd170 2.618 1_554 S
N190 C191 1.374 . S
N190 C192 1.339 1_554 S
C191 N190 1.374 . S
C191 C195 1.415 . S
C191 C198 1.422 . S
C192 H183 0.929 . S
C192 N190 1.339 1_556 S
C192 C194 1.378 . S
C193 H188 0.931 . S
C193 C194 1.348 1_554 S
C193 C195 1.413 . S
C194 H189 0.930 . S
C194 C192 1.378 . S
C194 C193 1.348 1_556 S
C195 C191 1.415 . S
C195 C193 1.413 . S
C195 C225 1.437 . S
H196 C225 0.929 . S
N197 Gd170 2.570 1_554 S
N197 C198 1.359 . S
N197 C201 1.343 . S
C198 C191 1.422 . S
C198 N197 1.359 . S
C198 C200 1.421 . S
C199 C200 1.422 . S
C199 C202 1.321 . S
C199 H226 0.931 . S
C200 C198 1.421 . S
C200 C199 1.422 . S
C200 C224 1.417 . S
C201 H178 0.931 . S
C201 N197 1.343 . S
C201 C202 1.390 . S
C202 H180 0.930 . S
C202 C199 1.321 . S
C202 C201 1.390 . S
O203 Gd171 2.386 . S
O203 C215 1.265 1_554 S
O204 Gd170 2.353 . S
O204 C215 1.242 . S
O205 Gd170 2.468 . S
O205 C223 1.263 . S
O206 Gd170 2.427 . S
O206 C223 1.252 . S
O207 Gd171 2.307 . S
O207 C216 1.261 . S
O208 Gd170 2.388 1_554 S
O208 C216 1.252 . S
O209 Gd170 2.386 1_554 S
O209 C227 1.265 . S
O210 Gd171 2.353 . S
O210 C227 1.242 . S
O211 Gd171 2.468 . S
O211 C235 1.263 . S
O212 Gd171 2.427 . S
O212 C235 1.252 . S
O213 Gd170 2.307 1_554 S
O213 C228 1.261 . S
O214 Gd171 2.388 . S
O214 C228 1.252 . S
C215 O203 1.265 1_556 S
C215 O204 1.242 . S
C216 O207 1.261 . S
C216 O208 1.252 . S
C217 C220 1.394 . S
C217 C222 1.370 . S
C217 C223 1.500 . S
C218 C221 1.383 . S
C218 C222 1.395 . S
C219 C220 1.396 . S
C219 C221 1.365 . S
C219 H236 0.929 . S
C220 C217 1.394 . S
C220 C219 1.396 . S
C220 H237 0.930 . S
C221 C218 1.383 . S
C221 C219 1.365 . S
C221 H238 0.931 . S
C222 C217 1.370 . S
C222 C218 1.395 . S
C222 H239 0.930 . S
C223 Gd170 2.805 . S
C223 O205 1.263 . S
C223 O206 1.252 . S
C223 C217 1.500 . S
C224 H186 0.930 . S
C224 C200 1.417 . S
C224 C225 1.329 . S
C225 C195 1.437 . S
C225 H196 0.929 . S
C225 C224 1.329 . S
H226 C199 0.931 . S
C227 O209 1.265 . S
C227 O210 1.242 . S
C228 O213 1.261 . S
C228 O214 1.252 . S
C229 C232 1.394 . S
C229 C234 1.370 . S
C229 C235 1.500 . S
C230 C233 1.383 . S
C230 C234 1.395 . S
C231 C232 1.396 . S
C231 C233 1.365 . S
C231 H240 0.929 . S
C232 C229 1.394 . S
C232 C231 1.396 . S
C232 H241 0.930 . S
C233 C230 1.383 . S
C233 C231 1.365 . S
C233 H242 0.931 . S
C234 C229 1.370 . S
C234 C230 1.395 . S
C234 H243 0.930 . S
C235 Gd171 2.805 . S
C235 O211 1.263 . S
C235 O212 1.252 . S
C235 C229 1.500 . S
H236 C219 0.929 . S
H237 C220 0.930 . S
H238 C221 0.931 . S
H239 C222 0.930 . S
H240 C231 0.929 . S
H241 C232 0.930 . S
H242 C233 0.931 . S
H243 C234 0.930 . S
H244 C256 0.930 . S
H245 C258 0.930 . S
H246 C259 0.930 . S
H247 C263 0.959 . S
H248 C263 0.959 . S
H249 C263 0.961 . S
H250 C264 0.960 . S
H251 C264 0.961 . S
H252 C264 0.959 . S
H253 C267 0.929 . S
H254 C268 0.931 . S
H255 C270 0.930 . S
C256 H244 0.930 . S
C256 C257 1.399 . S
C256 C261 1.399 . S
C257 C256 1.399 . S
C257 C258 1.376 . S
C258 H245 0.930 . S
C258 C257 1.376 . S
C258 C259 1.388 . S
C259 H246 0.930 . S
C259 C258 1.388 . S
C259 C260 1.390 . S
C260 C259 1.390 . S
C260 C261 1.394 . S
C260 C266 1.465 . S
C261 C256 1.399 . S
C261 C260 1.394 . S
C261 C262 1.516 . S
C262 C261 1.516 . S
C262 C263 1.502 . S
C262 C264 1.561 . S
C262 C265 1.526 . S
C263 H247 0.959 . S
C263 H248 0.959 . S
C263 H249 0.961 . S
C263 C262 1.502 . S
C264 H250 0.960 . S
C264 H251 0.961 . S
C264 H252 0.959 . S
C264 C262 1.561 . S
C265 C262 1.526 . S
C265 C266 1.396 . S
C265 C270 1.390 . S
C266 C260 1.465 . S
C266 C265 1.396 . S
C266 C267 1.399 . S
C267 H253 0.929 . S
C267 C266 1.399 . S
C267 C268 1.385 . S
C268 H254 0.931 . S
C268 C267 1.385 . S
C268 C269 1.389 . S
C269 C268 1.389 . S
C269 C270 1.387 . S
C270 H255 0.930 . S
C270 C265 1.390 . S
C270 C269 1.387 . S
H271 C283 0.930 . S
H272 C285 0.930 1_556 S
H273 C286 0.910 1_556 S
H274 C290 0.959 . S
H275 C290 0.959 . S
H276 C290 0.961 . S
H277 C291 0.960 . S
H278 C291 0.961 . S
H279 C291 0.959 . S
H280 C294 0.929 . S
H281 C295 0.916 1_556 S
H282 C297 0.930 . S
C283 H271 0.930 . S
C283 C284 1.399 . S
C283 C288 1.399 . S
C284 C283 1.399 . S
C284 C285 1.376 . S
C285 H272 0.930 1_554 S
C285 C284 1.376 . S
C285 C286 1.399 . S
C286 H273 0.910 1_554 S
C286 C285 1.399 . S
C286 C287 1.400 . S
C287 C286 1.400 . S
C287 C288 1.394 . S
C287 C293 1.465 . S
C288 C283 1.399 . S
C288 C287 1.394 . S
C288 C289 1.516 . S
C289 C288 1.516 . S
C289 C290 1.502 . S
C289 C291 1.561 . S
C289 C292 1.526 . S
C290 H274 0.959 . S
C290 H275 0.959 . S
C290 H276 0.961 . S
C290 C289 1.502 . S
C291 H277 0.960 . S
C291 H278 0.961 . S
C291 H279 0.959 . S
C291 C289 1.561 . S
C292 C289 1.526 . S
C292 C293 1.396 . S
C292 C297 1.390 . S
C293 C287 1.465 . S
C293 C292 1.396 . S
C293 C294 1.399 1_554 S
C294 H280 0.929 . S
C294 C293 1.399 1_556 S
C294 C295 1.388 1_556 S
C295 H281 0.916 1_554 S
C295 C294 1.388 1_554 S
C295 C296 1.402 . S
C296 C295 1.402 . S
C296 C297 1.387 . S
C297 H282 0.930 . S
C297 C292 1.390 . S
C297 C296 1.387 . S
H298 C310 0.930 . S
H299 C312 0.930 . S
H300 C313 0.930 . S
H301 C317 0.959 . S
H302 C317 0.959 . S
H303 C317 0.961 . S
H304 C318 0.960 . S
H305 C318 0.961 . S
H306 C318 0.959 . S
H307 C321 0.929 . S
H308 C322 0.931 . S
H309 C324 0.930 . S
C310 H298 0.930 . S
C310 C311 1.399 . S
C310 C315 1.399 . S
C311 C310 1.399 . S
C311 C312 1.376 . S
C312 H299 0.930 . S
C312 C311 1.376 . S
C312 C313 1.388 . S
C313 H300 0.930 . S
C313 C312 1.388 . S
C313 C314 1.390 . S
C314 C313 1.390 . S
C314 C315 1.394 . S
C314 C320 1.465 . S
C315 C310 1.399 . S
C315 C314 1.394 . S
C315 C316 1.516 . S
C316 C315 1.516 . S
C316 C317 1.502 . S
C316 C318 1.561 . S
C316 C319 1.526 . S
C317 H301 0.959 . S
C317 H302 0.959 . S
C317 H303 0.961 . S
C317 C316 1.502 . S
C318 H304 0.960 . S
C318 H305 0.961 . S
C318 H306 0.959 . S
C318 C316 1.561 . S
C319 C316 1.526 . S
C319 C320 1.396 . S
C319 C324 1.390 . S
C320 C314 1.465 . S
C320 C319 1.396 . S
C320 C321 1.399 . S
C321 H307 0.929 . S
C321 C320 1.399 . S
C321 C322 1.385 . S
C322 H308 0.931 . S
C322 C321 1.385 . S
C322 C323 1.389 . S
C323 C322 1.389 . S
C323 C324 1.387 . S
C324 H309 0.930 . S
C324 C319 1.390 . S
C324 C323 1.387 . S
H325 C337 0.930 . S
H326 C339 0.930 . S
H327 C340 0.930 . S
H328 C344 0.959 . S
H329 C344 0.959 . S
H330 C344 0.961 . S
H331 C345 0.960 . S
H332 C345 0.961 . S
H333 C345 0.959 . S
H334 C348 0.929 . S
H335 C349 0.931 . S
H336 C351 0.930 . S
C337 H325 0.930 . S
C337 C338 1.399 . S
C337 C342 1.399 . S
C338 C337 1.399 . S
C338 C339 1.376 1_554 S
C339 H326 0.930 . S
C339 C338 1.376 1_556 S
C339 C340 1.388 . S
C340 H327 0.930 . S
C340 C339 1.388 . S
C340 C341 1.390 1_556 S
C341 C340 1.390 1_554 S
C341 C342 1.394 . S
C341 C347 1.465 . S
C342 C337 1.399 . S
C342 C341 1.394 . S
C342 C343 1.516 . S
C343 C342 1.516 . S
C343 C344 1.502 . S
C343 C345 1.561 . S
C343 C346 1.526 . S
C344 H328 0.959 . S
C344 H329 0.959 . S
C344 H330 0.961 . S
C344 C343 1.502 . S
C345 H331 0.960 . S
C345 H332 0.961 . S
C345 H333 0.959 . S
C345 C343 1.561 . S
C346 C343 1.526 . S
C346 C347 1.396 . S
C346 C351 1.390 . S
C347 C341 1.465 . S
C347 C346 1.396 . S
C347 C348 1.399 1_554 S
C348 H334 0.929 . S
C348 C347 1.399 1_556 S
C348 C349 1.385 . S
C349 H335 0.931 . S
C349 C348 1.385 . S
C349 C350 1.389 1_556 S
C350 C349 1.389 1_554 S
C350 C351 1.387 . S
C351 H336 0.930 . S
C351 C346 1.390 . S
C351 C350 1.387 . S
H352 C364 0.930 . S
H353 C366 0.930 . S
H354 C367 0.930 . S
H355 C371 0.959 . S
H356 C371 0.989 . S
H357 C371 0.961 . S
H358 C372 0.960 . S
H359 C372 0.961 1_545 S
H360 C372 0.959 . S
H361 C375 0.929 . S
H362 C376 0.931 . S
H363 C378 0.930 . S
C364 H352 0.930 . S
C364 C365 1.399 . S
C364 C369 1.399 . S
C365 C364 1.399 . S
C365 C366 1.376 . S
C366 H353 0.930 . S
C366 C365 1.376 . S
C366 C367 1.388 . S
C367 H354 0.930 . S
C367 C366 1.388 . S
C367 C368 1.390 . S
C368 C367 1.390 . S
C368 C369 1.394 . S
C368 C374 1.465 . S
C369 C364 1.399 . S
C369 C368 1.394 . S
C369 C370 1.516 . S
C370 C369 1.516 . S
C370 C371 1.502 . S
C370 C372 1.561 . S
C370 C373 1.526 . S
C371 H355 0.959 . S
C371 H356 0.989 . S
C371 H357 0.961 . S
C371 C370 1.502 . S
C372 H358 0.960 . S
C372 H359 0.961 1_565 S
C372 H360 0.959 . S
C372 C370 1.561 . S
C373 C370 1.526 . S
C373 C374 1.396 . S
C373 C378 1.390 . S
C374 C368 1.465 . S
C374 C373 1.396 . S
C374 C375 1.399 . S
C375 H361 0.929 . S
C375 C374 1.399 . S
C375 C376 1.385 . S
C376 H362 0.931 . S
C376 C375 1.385 . S
C376 C377 1.389 . S
C377 C376 1.389 . S
C377 C378 1.387 . S
C378 H363 0.930 . S
C378 C373 1.390 . S
C378 C377 1.387 . S
H379 C391 0.930 . S
H380 C393 0.930 . S
H381 C394 0.930 . S
H382 C398 0.959 . S
H383 C398 0.959 . S
H384 C398 0.961 . S
H385 C399 0.960 . S
H386 C399 0.961 . S
H387 C399 0.959 . S
H388 C402 0.929 . S
H389 C403 0.931 . S
H390 C405 0.930 . S
C391 H379 0.930 . S
C391 C392 1.399 . S
C391 C396 1.399 . S
C392 C391 1.399 . S
C392 C393 1.376 . S
C393 H380 0.930 . S
C393 C392 1.376 . S
C393 C394 1.388 . S
C394 H381 0.930 . S
C394 C393 1.388 . S
C394 C395 1.390 . S
C395 C394 1.390 . S
C395 C396 1.394 . S
C395 C401 1.465 . S
C396 C391 1.399 . S
C396 C395 1.394 . S
C396 C397 1.516 . S
C397 C396 1.516 . S
C397 C398 1.502 . S
C397 C399 1.561 . S
C397 C400 1.526 . S
C398 H382 0.959 . S
C398 H383 0.959 . S
C398 H384 0.961 . S
C398 C397 1.502 . S
C399 H385 0.960 . S
C399 H386 0.961 . S
C399 H387 0.959 . S
C399 C397 1.561 . S
C400 C397 1.526 . S
C400 C401 1.396 . S
C400 C405 1.390 . S
C401 C395 1.465 . S
C401 C400 1.396 . S
C401 C402 1.399 . S
C402 H388 0.929 . S
C402 C401 1.399 . S
C402 C403 1.385 . S
C403 H389 0.931 . S
C403 C402 1.385 . S
C403 C404 1.389 . S
C404 C403 1.389 . S
C404 C405 1.387 . S
C405 H390 0.930 . S
C405 C400 1.390 . S
C405 C404 1.387 . S
H406 C418 0.930 . S
H407 C420 0.930 . S
H408 C421 0.930 . S
H409 C425 0.959 . S
H410 C425 0.959 . S
H411 C425 0.961 . S
H412 C426 0.960 . S
H413 C426 0.961 . S
H414 C426 0.959 . S
H415 C429 0.929 . S
H416 C430 0.931 . S
H417 C432 0.930 . S
C418 H406 0.930 . S
C418 C419 1.399 . S
C418 C423 1.399 . S
C419 C418 1.399 . S
C419 C420 1.376 . S
C420 H407 0.930 . S
C420 C419 1.376 . S
C420 C421 1.388 . S
C421 H408 0.930 . S
C421 C420 1.388 . S
C421 C422 1.390 . S
C422 C421 1.390 . S
C422 C423 1.394 . S
C422 C428 1.465 . S
C423 C418 1.399 . S
C423 C422 1.394 . S
C423 C424 1.516 . S
C424 C423 1.516 . S
C424 C425 1.502 . S
C424 C426 1.561 . S
C424 C427 1.526 . S
C425 H409 0.959 . S
C425 H410 0.959 . S
C425 H411 0.961 . S
C425 C424 1.502 . S
C426 H412 0.960 . S
C426 H413 0.961 . S
C426 H414 0.959 . S
C426 C424 1.561 . S
C427 C424 1.526 . S
C427 C428 1.396 . S
C427 C432 1.390 . S
C428 C422 1.465 . S
C428 C427 1.396 . S
C428 C429 1.399 . S
C429 H415 0.929 . S
C429 C428 1.399 . S
C429 C430 1.385 . S
C430 H416 0.931 . S
C430 C429 1.385 . S
C430 C431 1.389 . S
C431 C430 1.389 . S
C431 C432 1.387 . S
C432 H417 0.930 . S
C432 C427 1.390 . S
C432 C431 1.387 . S
H433 C445 0.930 . S
H434 C447 0.930 . S
H435 C448 0.930 . S
H436 C452 0.959 . S
H437 C452 0.959 . S
H438 C452 0.961 . S
H439 C453 0.960 . S
H440 C453 0.961 . S
H441 C453 0.959 . S
H442 C456 0.929 . S
H443 C457 0.931 . S
H444 C459 0.930 . S
C445 H433 0.930 . S
C445 C446 1.399 . S
C445 C450 1.399 . S
C446 C445 1.399 . S
C446 C447 1.376 . S
C447 H434 0.930 . S
C447 C446 1.376 . S
C447 C448 1.388 . S
C448 H435 0.930 . S
C448 C447 1.388 . S
C448 C449 1.390 . S
C449 C448 1.390 . S
C449 C450 1.394 . S
C449 C455 1.465 . S
C450 C445 1.399 . S
C450 C449 1.394 . S
C450 C451 1.516 . S
C451 C450 1.516 . S
C451 C452 1.502 . S
C451 C453 1.561 . S
C451 C454 1.526 . S
C452 H436 0.959 . S
C452 H437 0.959 . S
C452 H438 0.961 . S
C452 C451 1.502 . S
C453 H439 0.960 . S
C453 H440 0.961 . S
C453 H441 0.959 . S
C453 C451 1.561 . S
C454 C451 1.526 . S
C454 C455 1.396 . S
C454 C459 1.390 . S
C455 C449 1.465 . S
C455 C454 1.396 . S
C455 C456 1.399 . S
C456 H442 0.929 . S
C456 C455 1.399 . S
C456 C457 1.385 . S
C457 H443 0.931 . S
C457 C456 1.385 . S
C457 C458 1.389 . S
C458 C457 1.389 . S
C458 C459 1.387 . S
C459 H444 0.930 . S
C459 C454 1.390 . S
C459 C458 1.387 . S
H460 C472 0.930 . S
H461 C474 0.930 . S
H462 C475 0.930 . S
H463 C479 0.959 . S
H464 C479 0.959 . S
H465 C479 0.961 . S
H466 C480 0.960 . S
H467 C480 0.961 . S
H468 C480 0.959 . S
H469 C483 0.929 . S
H470 C484 0.931 . S
H471 C486 0.930 . S
C472 H460 0.930 . S
C472 C473 1.399 . S
C472 C477 1.399 . S
C473 C472 1.399 . S
C473 C474 1.376 . S
C474 H461 0.930 . S
C474 C473 1.376 . S
C474 C475 1.388 . S
C475 H462 0.930 . S
C475 C474 1.388 . S
C475 C476 1.390 . S
C476 C475 1.390 . S
C476 C477 1.394 . S
C476 C482 1.465 . S
C477 C472 1.399 . S
C477 C476 1.394 . S
C477 C478 1.516 . S
C478 C477 1.516 . S
C478 C479 1.502 . S
C478 C480 1.561 . S
C478 C481 1.526 . S
C479 H463 0.959 . S
C479 H464 0.959 . S
C479 H465 0.961 . S
C479 C478 1.502 . S
C480 H466 0.960 . S
C480 H467 0.961 . S
C480 H468 0.959 . S
C480 C478 1.561 . S
C481 C478 1.526 . S
C481 C482 1.396 . S
C481 C486 1.390 . S
C482 C476 1.465 . S
C482 C481 1.396 . S
C482 C483 1.399 . S
C483 H469 0.929 . S
C483 C482 1.399 . S
C483 C484 1.385 . S
C484 H470 0.931 . S
C484 C483 1.385 . S
C484 C485 1.389 . S
C485 C484 1.389 . S
C485 C486 1.387 . S
C486 H471 0.930 . S
C486 C481 1.390 . S
C486 C485 1.387 . S
H487 C499 0.930 . S
H488 C501 0.930 . S
H489 C502 0.930 . S
H490 C506 0.959 . S
H491 C506 0.959 . S
H492 C506 0.961 . S
H493 C507 0.960 . S
H494 C507 0.961 . S
H495 C507 0.959 . S
H496 C510 0.929 . S
H497 C511 0.931 . S
H498 C513 0.930 . S
C499 H487 0.930 . S
C499 C500 1.399 . S
C499 C504 1.399 . S
C500 C499 1.399 . S
C500 C501 1.376 . S
C501 H488 0.930 . S
C501 C500 1.376 . S
C501 C502 1.388 . S
C502 H489 0.930 . S
C502 C501 1.388 . S
C502 C503 1.390 . S
C503 C502 1.390 . S
C503 C504 1.394 . S
C503 C509 1.465 . S
C504 C499 1.399 . S
C504 C503 1.394 . S
C504 C505 1.516 . S
C505 C504 1.516 . S
C505 C506 1.502 . S
C505 C507 1.561 . S
C505 C508 1.526 . S
C506 H490 0.959 . S
C506 H491 0.959 . S
C506 H492 0.961 . S
C506 C505 1.502 . S
C507 H493 0.960 . S
C507 H494 0.961 . S
C507 H495 0.959 . S
C507 C505 1.561 . S
C508 C505 1.526 . S
C508 C509 1.396 . S
C508 C513 1.390 . S
C509 C503 1.465 . S
C509 C508 1.396 . S
C509 C510 1.399 . S
C510 H496 0.929 . S
C510 C509 1.399 . S
C510 C511 1.385 . S
C511 H497 0.931 . S
C511 C510 1.385 . S
C511 C512 1.389 . S
C512 C511 1.389 . S
C512 C513 1.387 . S
C513 H498 0.930 . S
C513 C508 1.390 . S
C513 C512 1.387 . S
H514 C526 0.930 . S
H515 C528 0.930 . S
H516 C529 0.930 . S
H517 C533 0.959 . S
H518 C533 0.959 . S
H519 C533 0.961 . S
H520 C534 0.960 . S
H521 C534 0.961 . S
H522 C534 0.959 . S
H523 C537 0.929 . S
H524 C538 0.931 . S
H525 C540 0.930 . S
C526 H514 0.930 . S
C526 C527 1.399 . S
C526 C531 1.399 . S
C527 C526 1.399 . S
C527 C528 1.376 . S
C528 H515 0.930 . S
C528 C527 1.376 . S
C528 C529 1.388 . S
C529 H516 0.930 . S
C529 C528 1.388 . S
C529 C530 1.390 . S
C530 C529 1.390 . S
C530 C531 1.394 . S
C530 C536 1.465 . S
C531 C526 1.399 . S
C531 C530 1.394 . S
C531 C532 1.516 . S
C532 C531 1.516 . S
C532 C533 1.502 . S
C532 C534 1.561 . S
C532 C535 1.526 . S
C533 H517 0.959 . S
C533 H518 0.959 . S
C533 H519 0.961 . S
C533 C532 1.502 . S
C534 H520 0.960 . S
C534 H521 0.961 . S
C534 H522 0.959 . S
C534 C532 1.561 . S
C535 C532 1.526 . S
C535 C536 1.396 . S
C535 C540 1.390 . S
C536 C530 1.465 . S
C536 C535 1.396 . S
C536 C537 1.399 . S
C537 H523 0.929 . S
C537 C536 1.399 . S
C537 C538 1.385 . S
C538 H524 0.931 . S
C538 C537 1.385 . S
C538 C539 1.389 . S
C539 C538 1.389 . S
C539 C540 1.387 . S
C540 H525 0.930 . S
C540 C535 1.390 . S
C540 C539 1.387 . S
H541 C553 0.930 . S
H542 C555 0.930 . S
H543 C556 0.930 . S
H544 C560 0.959 . S
H545 C560 0.959 . S
H546 C560 0.961 . S
H547 C561 0.960 . S
H548 C561 0.961 . S
H549 C561 0.959 . S
H550 C564 0.929 . S
H551 C565 0.931 . S
H552 C567 0.930 1_545 S
C553 H541 0.930 . S
C553 C554 1.399 . S
C553 C558 1.399 . S
C554 C553 1.399 . S
C554 C555 1.376 . S
C555 H542 0.930 . S
C555 C554 1.376 . S
C555 C556 1.388 . S
C556 H543 0.930 . S
C556 C555 1.388 . S
C556 C557 1.390 . S
C557 C556 1.390 . S
C557 C558 1.394 . S
C557 C563 1.465 . S
C558 C553 1.399 . S
C558 C557 1.394 . S
C558 C559 1.516 . S
C559 C558 1.516 . S
C559 C560 1.502 1_565 S
C559 C561 1.561 . S
C559 C562 1.526 . S
C560 H544 0.959 . S
C560 H545 0.959 . S
C560 H546 0.961 . S
C560 C559 1.502 1_545 S
C561 H547 0.960 . S
C561 H548 0.961 . S
C561 H549 0.959 . S
C561 C559 1.561 . S
C562 C559 1.526 . S
C562 C563 1.396 . S
C562 C567 1.390 . S
C563 C557 1.465 . S
C563 C562 1.396 . S
C563 C564 1.399 . S
C564 H550 0.929 . S
C564 C563 1.399 . S
C564 C565 1.385 . S
C565 H551 0.931 . S
C565 C564 1.385 . S
C565 C566 1.389 . S
C566 C565 1.389 . S
C566 C567 1.387 . S
C567 H552 0.930 1_565 S
C567 C562 1.390 . S
C567 C566 1.387 . S
C269 C144 1.663 . S
C257 C68 1.649 . S
C284 C11 1.547 . S
C296 C216 1.686 . S
C311 C30 1.633 . S
C323 C132 1.689 . S
C338 C49 1.586 . S
C350 C228 1.683 . S
C377 C134 1.435 . S
C365 C2 1.659 . S
C404 C215 1.786 . S
C392 C25 1.789 . S
C419 C40 1.707 . S
C431 C131 1.706 . S
C446 C59 1.643 . S
C458 C218 1.467 . S
C485 C230 1.493 . S
C473 C21 1.595 . S
C512 C146 1.360 . S
C500 C44 1.608 1_556 S
C539 C227 1.671 . S
C527 C63 1.682 . S
C554 C6 1.616 . S
C566 C143 1.631 . S
