# Generated by pormake.
# Topology zzz, (3,6)-cn, num edge types: 1
# Building blocks:
#     Node 0, Type 0, BuildingBlock: VETTIZ_charged_linker_0, # of connection points: 3
#     Node 1, Type 0, BuildingBlock: VETTIZ_charged_linker_0, # of connection points: 3
#     Node 2, Type 0, BuildingBlock: VETTIZ_charged_linker_0, # of connection points: 3
#     Node 3, Type 0, BuildingBlock: VETTIZ_charged_linker_0, # of connection points: 3
#     Node 4, Type 0, BuildingBlock: VETTIZ_charged_linker_0, # of connection points: 3
#     Node 5, Type 0, BuildingBlock: VETTIZ_charged_linker_0, # of connection points: 3
#     Node 6, Type 0, BuildingBlock: VETTIZ_charged_linker_0, # of connection points: 3
#     Node 7, Type 0, BuildingBlock: VETTIZ_charged_linker_0, # of connection points: 3
#     Node 8, Type 1, BuildingBlock: KUMBOL_clean_sbu_0, # of connection points: 6
#     Node 9, Type 1, BuildingBlock: KUMBOL_clean_sbu_0, # of connection points: 6
#     Node 10, Type 1, BuildingBlock: KUMBOL_clean_sbu_0, # of connection points: 6
#     Node 11, Type 1, BuildingBlock: KUMBOL_clean_sbu_0, # of connection points: 6
#     Edge 12, Type (0, 1), BuildingBlock: CIFDUS_clean_linker_0, # of connection points: 2
#     Edge 13, Type (0, 1), BuildingBlock: CIFDUS_clean_linker_0, # of connection points: 2
#     Edge 14, Type (0, 1), BuildingBlock: CIFDUS_clean_linker_0, # of connection points: 2
#     Edge 15, Type (0, 1), BuildingBlock: CIFDUS_clean_linker_0, # of connection points: 2
#     Edge 16, Type (0, 1), BuildingBlock: CIFDUS_clean_linker_0, # of connection points: 2
#     Edge 17, Type (0, 1), BuildingBlock: CIFDUS_clean_linker_0, # of connection points: 2
#     Edge 18, Type (0, 1), BuildingBlock: CIFDUS_clean_linker_0, # of connection points: 2
#     Edge 19, Type (0, 1), BuildingBlock: CIFDUS_clean_linker_0, # of connection points: 2
#     Edge 20, Type (0, 1), BuildingBlock: CIFDUS_clean_linker_0, # of connection points: 2
#     Edge 21, Type (0, 1), BuildingBlock: CIFDUS_clean_linker_0, # of connection points: 2
#     Edge 22, Type (0, 1), BuildingBlock: CIFDUS_clean_linker_0, # of connection points: 2
#     Edge 23, Type (0, 1), BuildingBlock: CIFDUS_clean_linker_0, # of connection points: 2
#     Edge 24, Type (0, 1), BuildingBlock: CIFDUS_clean_linker_0, # of connection points: 2
#     Edge 25, Type (0, 1), BuildingBlock: CIFDUS_clean_linker_0, # of connection points: 2
#     Edge 26, Type (0, 1), BuildingBlock: CIFDUS_clean_linker_0, # of connection points: 2
#     Edge 27, Type (0, 1), BuildingBlock: CIFDUS_clean_linker_0, # of connection points: 2
#     Edge 28, Type (0, 1), BuildingBlock: CIFDUS_clean_linker_0, # of connection points: 2
#     Edge 29, Type (0, 1), BuildingBlock: CIFDUS_clean_linker_0, # of connection points: 2
#     Edge 30, Type (0, 1), BuildingBlock: CIFDUS_clean_linker_0, # of connection points: 2
#     Edge 31, Type (0, 1), BuildingBlock: CIFDUS_clean_linker_0, # of connection points: 2
#     Edge 32, Type (0, 1), BuildingBlock: CIFDUS_clean_linker_0, # of connection points: 2
#     Edge 33, Type (0, 1), BuildingBlock: CIFDUS_clean_linker_0, # of connection points: 2
#     Edge 34, Type (0, 1), BuildingBlock: CIFDUS_clean_linker_0, # of connection points: 2
#     Edge 35, Type (0, 1), BuildingBlock: CIFDUS_clean_linker_0, # of connection points: 2
# Relax obj value: 0.318
# Max RMSD: 0.227
# Mean RMSD: 0.216
data_MOF--net-zzz--node1-KUMBOL_clean_sbu_0--node2-VETTIZ_charged_linker_0--edge1-CIFDUS_clean_linker_0
_symmetry_space_group_name_H-M    P1
_symmetry_Int_Tables_number       1
_symmetry_cell_setting            triclinic
loop_
_symmetry_equiv_pos_as_xyz
'x, y, z'
_cell_length_a     50.611401
_cell_length_b     50.425544
_cell_length_c     17.775566
_cell_angle_alpha  91.203867
_cell_angle_beta   89.791521
_cell_angle_gamma 89.979552
loop_
_atom_site_label
_atom_site_type_symbol
_atom_site_fract_x
_atom_site_fract_y
_atom_site_fract_z
_atom_type_partial_charge
C0 C 0.81168 0.53357 0.32558 0.0
C1 C 0.83302 0.54728 0.36174 0.0
C2 C 0.83461 0.57502 0.35463 0.0
C3 C 0.80052 0.57382 0.26091 0.0
C4 C 0.79502 0.5478 0.27589 0.0
C5 C 0.7699 0.53935 0.2336 0.0
H6 H 0.67802 0.57755 0.96628 0.0
C7 C 0.78395 0.58277 0.19962 0.0
C8 C 0.76425 0.56377 0.18501 0.0
H9 H 0.67539 0.50528 0.09286 0.0
H10 H 0.71607 0.51805 0.15672 0.0
H11 H 0.70252 0.6201 0.09636 0.0
H12 H 0.72877 0.57106 0.91456 0.0
H13 H 0.75784 0.58864 0.93573 0.0
H14 H 0.72862 0.60597 0.90456 0.0
H15 H 0.69512 0.62198 0.99801 0.0
H16 H 0.7242 0.6376 0.03597 0.0
C17 C 0.74789 0.5349 0.292 0.0
C18 C 0.77568 0.51442 0.18493 0.0
C19 C 0.82999 0.63602 1.00451 0.0
C20 C 0.82257 0.64158 0.93013 0.0
C21 C 0.79532 0.64414 0.91473 0.0
C22 C 0.77634 0.63622 0.96765 0.0
C23 C 0.7848 0.62511 0.03523 0.0
C24 C 0.81097 0.6272 0.05542 0.0
C25 C 0.81647 0.61523 0.1305 0.0
C26 C 0.78954 0.60279 0.14739 0.0
C27 C 0.77153 0.60773 0.08974 0.0
C28 C 0.82438 0.6379 0.18615 0.0
C29 C 0.83848 0.59398 0.12159 0.0
C30 C 0.68581 0.56419 1.00749 0.0
C31 C 0.67267 0.54041 0.02393 0.0
C32 C 0.68428 0.52409 0.07926 0.0
C33 C 0.70799 0.53147 0.11675 0.0
C34 C 0.72064 0.55537 0.09896 0.0
C35 C 0.70958 0.5709 0.04385 0.0
C36 C 0.72683 0.59388 0.02398 0.0
C37 C 0.74903 0.5911 0.08044 0.0
C38 C 0.74551 0.56864 0.12587 0.0
C39 C 0.71138 0.6199 0.03898 0.0
C40 C 0.73603 0.5899 0.94072 0.0
H41 H 0.81853 0.6096 0.30509 0.0
H42 H 0.80869 0.51259 0.33389 0.0
H43 H 0.79299 0.51785 0.14767 0.0
H44 H 0.75877 0.50907 0.14853 0.0
H45 H 0.78016 0.49724 0.22087 0.0
H46 H 0.74613 0.5524 0.33083 0.0
H47 H 0.75234 0.51725 0.3262 0.0
H48 H 0.72839 0.53203 0.26571 0.0
H49 H 0.85053 0.63505 0.02045 0.0
H50 H 0.7887 0.65004 0.85969 0.0
H51 H 0.7559 0.6376 0.95267 0.0
H52 H 0.83214 0.65553 0.15668 0.0
H53 H 0.8407 0.63184 0.22357 0.0
H54 H 0.80723 0.64468 0.22071 0.0
H55 H 0.83292 0.57875 0.07833 0.0
H56 H 0.8424 0.58373 0.1747 0.0
H57 H 0.85754 0.60303 0.10484 0.0
H58 H 0.84927 0.58635 0.38585 0.0
C59 C 0.81792 0.58837 0.30606 0.0
C60 C 0.90127 0.82799 0.90869 0.0
C61 C 0.88517 0.84921 0.93476 0.0
C62 C 0.87737 0.84955 1.01119 0.0
C63 C 0.91047 0.81641 0.03684 0.0
C64 C 0.91394 0.81204 0.96083 0.0
C65 C 0.93541 0.79209 0.94394 0.0
H66 H 0.99811 0.68948 0.08636 0.0
C67 C 0.93189 0.80267 0.07629 0.0
C68 C 0.94581 0.78737 0.02289 0.0
H69 H 0.98194 0.7075 0.85358 0.0
H70 H 0.97261 0.75264 0.88908 0.0
H71 H 0.02875 0.7621 0.12635 0.0
H72 H 0.95162 0.72903 0.17937 0.0
H73 H 0.97218 0.74321 0.25228 0.0
H74 H 0.98076 0.71164 0.20947 0.0
H75 H 0.0277 0.72875 0.16085 0.0
H76 H 0.01909 0.75578 0.22246 0.0
C77 C 0.95684 0.80526 0.89457 0.0
C78 C 0.92263 0.76705 0.9067 0.0
C79 C 0.96288 0.84755 0.31482 0.0
C80 C 0.98796 0.85025 0.34793 0.0
C81 C 1.00768 0.83174 0.32358 0.0
C82 C 1.00215 0.81133 0.26862 0.0
C83 C 0.97666 0.80912 0.23722 0.0
C84 C 0.95812 0.82821 0.25827 0.0
C85 C 0.93464 0.82819 0.20697 0.0
C86 C 0.9429 0.80731 0.14857 0.0
C87 C 0.96621 0.79401 0.16947 0.0
C88 C 0.93105 0.85637 0.17329 0.0
C89 C 0.91043 0.81879 0.25251 0.0
C90 C 0.99264 0.70325 0.04321 0.0
C91 C 0.98916 0.69406 0.96681 0.0
C92 C 0.98326 0.71317 0.91262 0.0
C93 C 0.9774 0.73934 0.93313 0.0
C94 C 0.97749 0.7472 1.00894 0.0
C95 C 0.98735 0.73058 0.06267 0.0
C96 C 0.98883 0.74585 0.13881 0.0
C97 C 0.97634 0.77303 0.12047 0.0
C98 C 0.96752 0.77168 0.04552 0.0
C99 C 0.01778 0.74842 0.16346 0.0
C100 C 0.97238 0.73156 0.19851 0.0
H101 H 0.88461 0.83491 0.12075 0.0
H102 H 0.90708 0.82599 0.85027 0.0
H103 H 0.90113 0.76963 0.89623 0.0
H104 H 0.92436 0.74945 0.94289 0.0
H105 H 0.93154 0.76222 0.85092 0.0
H106 H 0.96067 0.82599 0.91438 0.0
H107 H 0.95055 0.80588 0.83482 0.0
H108 H 0.97611 0.79498 0.89721 0.0
H109 H 0.94745 0.86181 0.32791 0.0
H110 H 0.02747 0.83327 0.34606 0.0
H111 H 0.01803 0.79881 0.24855 0.0
H112 H 0.94421 0.87163 0.19886 0.0
H113 H 0.9107 0.86405 0.18197 0.0
H114 H 0.93592 0.85665 0.11241 0.0
H115 H 0.9157 0.80171 0.28815 0.0
H116 H 0.8942 0.8117 0.21588 0.0
H117 H 0.90293 0.835 0.29017 0.0
H118 H 0.8637 0.86444 0.03259 0.0
C119 C 0.88999 0.83305 0.06255 0.0
C120 C 0.83217 0.99635 0.05663 0.0
C121 C 0.84902 0.9813 1.00647 0.0
C122 C 0.84374 0.95396 0.99697 0.0
C123 C 0.80341 0.95821 0.06841 0.0
C124 C 0.80933 0.98398 0.08826 0.0
C125 C 0.78886 0.99423 0.14647 0.0
H126 H 0.67262 0.96195 0.33922 0.0
C127 C 0.77875 0.95031 0.10381 0.0
C128 C 0.77022 0.97008 0.15501 0.0
H129 H 0.71277 0.03727 0.35481 0.0
H130 H 0.74753 0.02027 0.26989 0.0
H131 H 0.66683 0.95263 0.20601 0.0
H132 H 0.72565 0.92239 0.33574 0.0
H133 H 0.71604 0.8982 0.26749 0.0
H134 H 0.69114 0.91478 0.32383 0.0
H135 H 0.6719 0.91842 0.19359 0.0
H136 H 0.68559 0.94161 0.12735 0.0
C137 C 0.77426 0.01813 0.11389 0.0
C138 C 0.803 1.00125 0.22064 0.0
C139 C 0.71235 0.89879 0.95526 0.0
C140 C 0.68704 0.88981 0.97725 0.0
C141 C 0.68397 0.88114 0.05196 0.0
C142 C 0.70253 0.88851 0.10691 0.0
C143 C 0.72399 0.90419 0.0857 0.0
C144 C 0.7307 0.90579 1.01101 0.0
C145 C 0.75674 0.91967 1.00089 0.0
C146 C 0.76201 0.92923 0.08211 0.0
C147 C 0.74084 0.92266 0.1289 0.0
C148 C 0.75372 0.94321 0.94722 0.0
C149 C 0.77685 0.89917 0.9697 0.0
C150 C 0.68904 0.97485 0.32623 0.0
C151 C 0.68967 1.00092 0.35528 0.0
C152 C 0.71139 0.01703 0.33364 0.0
C153 C 0.7316 1.00722 0.28429 0.0
C154 C 0.72999 0.98116 0.25432 0.0
C155 C 0.70859 0.96576 0.2754 0.0
C156 C 0.70786 0.93948 0.2348 0.0
C157 C 0.73277 0.94097 0.18671 0.0
C158 C 0.74635 0.96538 0.1981 0.0
C159 C 0.68191 0.93781 0.18783 0.0
C160 C 0.71016 0.91741 0.29346 0.0
H161 H 0.81958 0.9211 0.02713 0.0
H162 H 0.83639 0.01698 0.06954 0.0
H163 H 0.81473 0.98405 0.23993 0.0
H164 H 0.78884 1.0066 0.26589 0.0
H165 H 0.81668 0.01823 0.21301 0.0
H166 H 0.76564 1.01276 0.05816 0.0
H167 H 0.78805 0.03501 0.10631 0.0
H168 H 0.7579 0.0249 0.1508 0.0
H169 H 0.71657 0.90389 0.89777 0.0
H170 H 0.6658 0.87179 0.0698 0.0
H171 H 0.69875 0.88366 0.16452 0.0
H172 H 0.73803 0.95705 0.96776 0.0
H173 H 0.74861 0.93622 0.88944 0.0
H174 H 0.77245 0.95449 0.94279 0.0
H175 H 0.76742 0.88526 0.9285 0.0
H176 H 0.78527 0.88718 1.0156 0.0
H177 H 0.79292 0.9088 0.9378 0.0
H178 H 0.85708 0.94133 0.96485 0.0
C179 C 0.82161 0.94233 0.0296 0.0
C180 C 0.54621 0.72156 0.33745 0.0
C181 C 0.55752 0.69782 0.36534 0.0
C182 C 0.58372 0.6916 0.3453 0.0
C183 C 0.58539 0.72836 0.2603 0.0
C184 C 0.56085 0.73683 0.28495 0.0
C185 C 0.55375 0.76309 0.24836 0.0
H186 H 0.57998 0.84387 0.94948 0.0
C187 C 0.59452 0.74542 0.19906 0.0
C188 C 0.57655 0.7666 0.19176 0.0
H189 H 0.52337 0.86169 0.12695 0.0
H190 H 0.53586 0.82087 0.18831 0.0
H191 H 0.62624 0.83231 0.06517 0.0
H192 H 0.57205 0.78803 0.92899 0.0
H193 H 0.59895 0.76643 0.93525 0.0
H194 H 0.60333 0.79832 0.89269 0.0
H195 H 0.62868 0.82859 0.96482 0.0
H196 H 0.64453 0.80563 0.02685 0.0
C197 C 0.55395 0.78501 0.31006 0.0
C198 C 0.52684 0.76055 0.20887 0.0
C199 C 0.65901 0.70469 1.01231 0.0
C200 C 0.66341 0.71084 0.93645 0.0
C201 C 0.66001 0.73727 0.91441 0.0
C202 C 0.64776 0.75579 0.96306 0.0
C203 C 0.63848 0.74757 0.03369 0.0
C204 C 0.64557 0.72292 0.05906 0.0
C205 C 0.63247 0.71663 0.13274 0.0
C206 C 0.61485 0.74094 0.14478 0.0
C207 C 0.61839 0.75875 0.08639 0.0
C208 C 0.6543 0.71482 0.1936 0.0
C209 C 0.61617 0.69075 0.12089 0.0
C210 C 0.57049 0.84041 1.00276 0.0
C211 C 0.55079 0.85741 0.03228 0.0
C212 C 0.53856 0.84956 0.10073 0.0
C213 C 0.54603 0.82586 0.13743 0.0
C214 C 0.56649 0.8099 0.10714 0.0
C215 C 0.57849 0.81798 0.0415 0.0
C216 C 0.60087 0.80052 0.01732 0.0
C217 C 0.60103 0.78061 0.07959 0.0
C218 C 0.5804 0.78523 0.13215 0.0
C219 C 0.62649 0.8175 0.01783 0.0
C220 C 0.59371 0.78771 0.93954 0.0
H221 H 0.61732 0.70055 0.28069 0.0
H222 H 0.52647 0.72752 0.35424 0.0
H223 H 0.52705 0.74357 0.16795 0.0
H224 H 0.52191 0.7786 0.17762 0.0
H225 H 0.51082 0.75718 0.25046 0.0
H226 H 0.57237 0.78395 0.34385 0.0
H227 H 0.53687 0.78274 0.34885 0.0
H228 H 0.55333 0.80504 0.2866 0.0
H229 H 0.66176 0.68462 0.03128 0.0
H230 H 0.66372 0.74266 0.85665 0.0
H231 H 0.64382 0.77497 0.94083 0.0
H232 H 0.67352 0.72302 0.1743 0.0
H233 H 0.65798 0.69394 0.20934 0.0
H234 H 0.64922 0.72662 0.24506 0.0
H235 H 0.605 0.69133 0.06712 0.0
H236 H 0.60124 0.68733 0.1646 0.0
H237 H 0.62925 0.67306 0.1186 0.0
H238 H 0.59326 0.67424 0.3678 0.0
C239 C 0.5977 0.70686 0.29435 0.0
C240 C 0.33345 0.49679 0.28625 0.0
C241 C 0.34916 0.48445 0.3425 0.0
C242 C 0.3415 0.45901 0.36612 0.0
C243 C 0.30233 0.46028 0.28993 0.0
C244 C 0.30998 0.48403 0.26013 0.0
C245 C 0.291 0.49158 0.19682 0.0
H246 H 0.1776 0.45356 1.00267 0.0
C247 C 0.27852 0.45083 0.2525 0.0
C248 C 0.27203 0.46762 0.19351 0.0
H249 H 0.2199 0.52707 0.97498 0.0
H250 H 0.25319 0.51255 0.06469 0.0
H251 H 0.23236 0.41493 1.01112 0.0
H252 H 0.16959 0.44364 0.12793 0.0
H253 H 0.1876 0.43884 0.2119 0.0
H254 H 0.17761 0.41113 0.1519 0.0
H255 H 0.1978 0.40685 0.01824 0.0
H256 H 0.22177 0.39176 0.07841 0.0
C257 C 0.30662 0.49438 0.123 0.0
C258 C 0.27659 0.5173 0.22081 0.0
C259 C 0.20749 0.40192 0.38834 0.0
C260 C 0.18478 0.38886 0.3595 0.0
C261 C 0.18691 0.37645 0.28751 0.0
C262 C 0.20718 0.38386 0.23826 0.0
C263 C 0.22538 0.40292 0.26311 0.0
C264 C 0.22791 0.40839 0.33862 0.0
C265 C 0.25216 0.4248 0.35452 0.0
C266 C 0.26156 0.43018 0.2739 0.0
C267 C 0.243 0.42061 0.22203 0.0
C268 C 0.27127 0.4081 0.40152 0.0
C269 C 0.24466 0.45084 0.39667 0.0
C270 C 0.19402 0.4667 1.01448 0.0
C271 C 0.1956 0.49159 0.98067 0.0
C272 C 0.21755 0.50788 1.00029 0.0
C273 C 0.23692 0.49951 0.05262 0.0
C274 C 0.23431 0.47473 0.08715 0.0
C275 C 0.21293 0.45893 0.0673 0.0
C276 C 0.21219 0.43341 0.10889 0.0
C277 C 0.23621 0.43658 0.15972 0.0
C278 C 0.24967 0.46077 0.1468 0.0
C279 C 0.21612 0.41039 0.05122 0.0
C280 C 0.18556 0.43158 0.15274 0.0
H281 H 0.31584 0.42598 0.34916 0.0
H282 H 0.33921 0.51568 0.26355 0.0
H283 H 0.26739 0.51514 0.27729 0.0
H284 H 0.26062 0.52239 0.18165 0.0
H285 H 0.29065 0.5342 0.22388 0.0
H286 H 0.31865 0.47628 0.11143 0.0
H287 H 0.32019 0.51168 0.12656 0.0
H288 H 0.29342 0.49698 0.07437 0.0
H289 H 0.20804 0.41005 0.44499 0.0
H290 H 0.17123 0.36388 0.26582 0.0
H291 H 0.20706 0.37626 0.18132 0.0
H292 H 0.26039 0.3969 0.44508 0.0
H293 H 0.28534 0.42083 0.4334 0.0
H294 H 0.28213 0.39349 0.36536 0.0
H295 H 0.22956 0.46198 0.36478 0.0
H296 H 0.26227 0.46375 0.40412 0.0
H297 H 0.23665 0.44682 0.45356 0.0
H298 H 0.35373 0.44793 0.40415 0.0
C299 C 0.31897 0.44656 0.33761 0.0
C300 C 0.14716 0.23111 0.33365 0.0
C301 C 0.15815 0.20666 0.30898 0.0
C302 C 0.163 0.2028 0.23123 0.0
C303 C 0.13508 0.24027 0.20588 0.0
C304 C 0.13587 0.24782 0.28053 0.0
C305 C 0.12054 0.27301 0.29518 0.0
H306 H 0.0163 0.34734 0.24682 0.0
C307 C 0.11403 0.25542 0.16942 0.0
C308 C 0.10746 0.27658 0.21802 0.0
H309 H 0.0915 0.37154 0.34162 0.0
H310 H 0.11248 0.3348 0.27578 0.0
H311 H 0.0481 0.32576 0.0731 0.0
H312 H 0.02359 0.27582 0.25764 0.0
H313 H 1.01076 0.26764 0.16641 0.0
H314 H 1.00004 0.29747 0.21434 0.0
H315 H 0.0143 0.32639 0.10523 0.0
H316 H 0.02655 0.29869 0.05025 0.0
C317 C 0.14052 0.29494 0.31771 0.0
C318 C 0.09972 0.26893 0.35766 0.0
C319 C 0.06132 0.19859 0.98624 0.0
C320 C 0.03529 0.19811 0.95905 0.0
C321 C 0.01875 0.2198 0.98182 0.0
C322 C 0.02802 0.24077 0.03027 0.0
C323 C 0.05415 0.24033 0.0575 0.0
C324 C 0.07006 0.21918 0.03483 0.0
C325 C 0.097 0.22045 0.06885 0.0
C326 C 0.09507 0.24584 0.11642 0.0
C327 C 0.06994 0.25813 0.11029 0.0
C328 C 0.11734 0.22345 1.00437 0.0
C329 C 0.10131 0.1951 0.11622 0.0
C330 C 0.03704 0.34392 0.25758 0.0
C331 C 0.05171 0.36198 0.3053 0.0
C332 C 0.07912 0.35751 0.31161 0.0
C333 C 0.09132 0.33558 0.27719 0.0
C334 C 0.07606 0.31635 0.24053 0.0
C335 C 0.04994 0.32108 0.2248 0.0
C336 C 0.04008 0.29983 0.16769 0.0
C337 C 0.06479 0.28209 0.15494 0.0
C338 C 0.08476 0.29182 0.20289 0.0
C339 C 0.03171 0.31337 0.09483 0.0
C340 C 0.01728 0.28427 0.20329 0.0
H341 H 0.15403 0.21531 0.12031 0.0
H342 H 0.14432 0.23556 0.3929 0.0
H343 H 0.0865 0.252 0.34293 0.0
H344 H 0.08735 0.28692 0.36595 0.0
H345 H 0.10929 0.26495 0.41239 0.0
H346 H 0.15728 0.28681 0.35031 0.0
H347 H 0.13148 0.31006 0.35598 0.0
H348 H 0.14894 0.30454 0.26725 0.0
H349 H 0.0748 0.18253 0.97274 0.0
H350 H 0.9986 0.22075 0.96199 0.0
H351 H 0.01463 0.25657 0.04545 0.0
H352 H 0.10986 0.23716 0.96104 0.0
H353 H 0.12147 0.20399 0.97623 0.0
H354 H 0.13614 0.23221 0.02418 0.0
H355 H 0.08663 0.17923 0.10402 0.0
H356 H 0.09945 0.19942 0.17755 0.0
H357 H 0.12073 0.18571 0.10441 0.0
H358 H 0.17291 0.18504 0.21053 0.0
C359 C 0.15146 0.21974 0.17918 0.0
C360 C 0.32911 0.04771 0.98327 0.0
C361 C 0.35448 0.05723 0.9604 0.0
C362 C 0.36572 0.07834 1.00173 0.0
C363 C 0.32862 0.07956 0.08851 0.0
C364 C 0.31625 0.05961 0.0476 0.0
C365 C 0.28894 0.05393 0.08195 0.0
H366 H 0.19993 0.08877 0.36824 0.0
C367 C 0.31175 0.08765 0.15318 0.0
C368 C 0.28768 0.07352 0.14987 0.0
H369 H 0.18698 0.02708 0.20026 0.0
H370 H 0.22987 0.03724 0.1427 0.0
H371 H 0.251 0.06963 0.40953 0.0
H372 H 0.22858 0.13246 0.2665 0.0
H373 H 0.25463 0.14441 0.32351 0.0
H374 H 0.2249 0.13225 0.36701 0.0
H375 H 0.24833 0.10281 0.44573 0.0
H376 H 0.27926 0.08954 0.41055 0.0
C377 C 0.28813 0.02494 0.10723 0.0
C378 C 0.26748 0.05994 0.02367 0.0
C379 C 0.35534 0.13602 0.36995 0.0
C380 C 0.34677 0.1395 0.44506 0.0
C381 C 0.31937 0.14222 0.45828 0.0
C382 C 0.30117 0.1357 0.4014 0.0
C383 C 0.31055 0.1263 0.3311 0.0
C384 C 0.33705 0.12853 0.31463 0.0
C385 C 0.34373 0.11743 0.23777 0.0
C386 C 0.3174 0.10507 0.21485 0.0
C387 C 0.29811 0.11037 0.2696 0.0
C388 C 0.3658 0.09623 0.24634 0.0
C389 C 0.35137 0.14112 0.18749 0.0
C390 C 0.20594 0.07698 0.31959 0.0
C391 C 0.18957 0.05679 0.29055 0.0
C392 C 0.19879 0.04287 0.22493 0.0
C393 C 0.22382 0.04865 0.19154 0.0
C394 C 0.24019 0.06844 0.22393 0.0
C395 C 0.23077 0.08194 0.28735 0.0
C396 C 0.25068 0.10045 0.32093 0.0
C397 C 0.27335 0.09728 0.26576 0.0
C398 C 0.26773 0.07857 0.20737 0.0
C399 C 0.2577 0.09036 0.40076 0.0
C400 C 0.23918 0.12894 0.32013 0.0
H401 H 0.36324 0.10524 0.09275 0.0
H402 H 0.31958 0.03184 0.95172 0.0
H403 H 0.26985 0.08043 1.00267 0.0
H404 H 0.24743 0.05849 0.04795 0.0
H405 H 0.26887 0.0459 0.9748 0.0
H406 H 0.30511 0.02076 0.14471 0.0
H407 H 0.28925 1.0111 0.05785 0.0
H408 H 0.2699 0.02057 0.13894 0.0
H409 H 0.37613 0.13485 0.35615 0.0
H410 H 0.312 0.14637 0.51458 0.0
H411 H 0.28064 0.13623 0.41627 0.0
H412 H 0.36198 0.08392 0.29646 0.0
H413 H 0.38546 0.10569 0.25348 0.0
H414 H 0.36719 0.08196 0.19882 0.0
H415 H 0.34518 0.16057 0.21255 0.0
H416 H 0.34138 0.14005 0.13202 0.0
H417 H 0.37307 0.14216 0.17852 0.0
H418 H 0.38483 0.0862 0.98568 0.0
C419 C 0.35302 0.08951 0.06431 0.0
C420 C 0.48566 0.31443 0.97742 0.0
C421 C 0.47225 0.33001 0.92301 0.0
C422 C 0.44633 0.32236 0.90217 0.0
C423 C 0.44453 0.29271 1.00549 0.0
C424 C 0.4712 0.29473 1.0164 0.0
C425 C 0.47952 0.27523 0.07699 0.0
H426 H 0.43602 0.19766 0.36648 0.0
C427 C 0.43265 0.27837 0.06671 0.0
C428 C 0.45251 0.26368 0.1016 0.0
H429 H 0.50169 0.17554 0.22247 0.0
H430 H 0.48984 0.21159 0.13701 0.0
H431 H 0.44162 0.25457 0.37773 0.0
H432 H 0.39589 0.20597 0.23246 0.0
H433 H 0.37619 0.23333 0.2616 0.0
H434 H 0.39094 0.21262 0.33125 0.0
H435 H 0.40689 0.25258 0.39215 0.0
H436 H 0.42122 0.27869 0.33726 0.0
C437 C 0.49284 0.29029 0.1428 0.0
C438 C 0.49824 0.2543 0.04197 0.0
C439 C 0.36924 0.3364 0.21141 0.0
C440 C 0.36382 0.33644 0.2891 0.0
C441 C 0.36294 0.31181 0.32525 0.0
C442 C 0.37298 0.28893 0.28912 0.0
C443 C 0.38433 0.29099 0.21721 0.0
C444 C 0.38067 0.31387 0.17723 0.0
C445 C 0.39585 0.31351 0.10416 0.0
C446 C 0.41025 0.28681 0.10904 0.0
C447 C 0.40436 0.27461 0.17726 0.0
C448 C 0.41527 0.33739 0.10445 0.0
C449 C 0.37605 0.3147 0.0384 0.0
C450 C 0.44886 0.20102 0.31875 0.0
C451 C 0.47048 0.18417 0.30364 0.0
C452 C 0.4854 0.18857 0.23727 0.0
C453 C 0.47925 0.20987 0.18917 0.0
C454 C 0.45854 0.22733 0.20854 0.0
C455 C 0.44313 0.22192 0.27081 0.0
C456 C 0.41931 0.23956 0.27722 0.0
C457 C 0.4218 0.25512 0.20538 0.0
C458 C 0.44563 0.2492 0.16733 0.0
C459 C 0.42222 0.25724 0.34959 0.0
C460 C 0.39414 0.22205 0.27603 0.0
H461 H 0.41249 0.29826 0.92792 0.0
H462 H 0.50606 0.3184 0.99177 0.0
H463 H 0.48707 0.23921 1.00856 0.0
H464 H 0.50995 0.24441 0.08576 0.0
H465 H 0.51284 0.26374 1.00411 0.0
H466 H 0.47958 0.30611 0.16577 0.0
H467 H 0.51156 0.29963 0.12408 0.0
H468 H 0.49748 0.27651 0.18891 0.0
H469 H 0.36892 0.3547 0.18093 0.0
H470 H 0.35753 0.31089 0.38415 0.0
H471 H 0.37357 0.27108 0.32068 0.0
H472 H 0.42924 0.33621 0.15241 0.0
H473 H 0.40463 0.35659 0.10874 0.0
H474 H 0.42691 0.3386 0.05218 0.0
H475 H 0.35864 0.32718 0.05358 0.0
H476 H 0.36873 0.29458 0.02244 0.0
H477 H 0.38481 0.32411 0.9885 0.0
H478 H 0.43623 0.33195 0.8565 0.0
C479 C 0.43244 0.30357 0.94319 0.0
Gd480 Gd 0.99761 0.03329 0.57574 0.0
Gd481 Gd 0.03987 1.01137 0.72675 0.0
C482 C 0.07501 0.06869 0.90369 0.0
C483 C 0.12193 0.06604 0.87529 0.0
C484 C 0.09047 0.03915 0.80408 0.0
C485 C 0.06991 0.04992 0.84544 0.0
C486 C 0.11681 0.04661 0.81949 0.0
C487 C 0.10105 0.07709 0.91727 0.0
C488 C 0.05389 0.07807 0.94753 0.0
C489 C 0.02862 0.06807 0.93444 0.0
N490 N 0.04501 0.04128 0.83071 0.0
C491 C 0.02457 0.0494 0.87632 0.0
H492 H 1.00479 0.0423 0.86777 0.0
C493 C 0.10475 1.00708 0.71413 0.0
N494 N 0.08481 0.02044 0.75087 0.0
C495 C 0.13116 1.01379 0.72729 0.0
C496 C 0.13722 0.03389 0.77955 0.0
H497 H 0.10021 0.99177 0.67278 0.0
H498 H 0.10529 0.09168 0.9612 0.0
H499 H 0.02897 1.00348 0.42829 0.0
H500 H 0.05695 0.09258 0.99248 0.0
H501 H 0.01217 0.07485 0.96884 0.0
H502 H 0.14199 0.07223 0.88746 0.0
H503 H 0.93849 0.0551 0.63588 0.0
H504 H 0.97453 0.95145 0.31676 0.0
H505 H 0.01942 0.97037 0.32896 0.0
H506 H 0.89208 0.97171 0.43843 0.0
H507 H 0.14679 1.00355 0.69679 0.0
H508 H 0.15769 0.03907 0.7897 0.0
H509 H 0.92707 0.9517 0.35906 0.0
H510 H 0.89142 0.04308 0.62177 0.0
N511 N 0.99 1.00324 0.47427 0.0
C512 C 0.97856 0.96614 0.36057 0.0
C513 C 1.00389 0.97683 0.36716 0.0
C514 C 0.95853 0.97526 0.40894 0.0
C515 C 0.96491 0.99434 0.4652 0.0
C516 C 1.00921 0.9957 0.42395 0.0
N517 N 0.95209 0.0251 0.55912 0.0
C518 C 0.94527 1.00566 0.50915 0.0
C519 C 0.90637 0.03234 0.58985 0.0
C520 C 0.89918 1.01145 0.54133 0.0
C521 C 0.93302 0.03921 0.59732 0.0
C522 C 0.91867 0.9981 0.49921 0.0
H523 H 0.87852 1.0062 0.5355 0.0
O524 O 0.98117 0.07131 0.54549 0.0
O525 O 0.02253 0.04633 0.67296 0.0
O526 O 0.99638 0.01444 0.76617 0.0
O527 O 0.97228 1.00972 0.65598 0.0
O528 O 0.98689 0.06512 0.66427 0.0
O529 O 0.01256 0.05361 0.478 0.0
O530 O 0.05884 0.97479 0.75925 0.0
O531 O 0.01592 0.99802 0.62705 0.0
O532 O 0.04085 0.03028 0.53469 0.0
O533 O 0.06542 0.03418 0.64453 0.0
O534 O 0.05263 0.98111 0.63743 0.0
O535 O 0.02255 0.98736 0.81415 0.0
C536 C 1.00844 0.06459 0.70243 0.0
C537 C 0.91237 0.97802 0.44633 0.0
C538 C 0.93228 0.96662 0.4012 0.0
C539 C 1.00012 0.07543 0.49718 0.0
C540 C 0.0168 0.09907 0.51211 0.0
C541 C 1.00766 0.11966 0.55999 0.0
C542 C 0.04281 0.10017 0.48399 0.0
C543 C 0.05948 0.12173 0.50208 0.0
C544 C 0.02418 0.14074 0.57974 0.0
C545 C 0.04979 0.14192 0.55085 0.0
C546 C 0.97384 1.00945 0.73033 0.0
C547 C 0.03141 0.98077 0.5979 0.0
C548 C 0.0384 0.96756 0.79837 0.0
C549 C 0.02608 0.94231 0.77335 0.0
C550 C 0.04214 0.92109 0.74908 0.0
C551 C 0.99846 0.94003 0.7666 0.0
C552 C 0.98681 0.9166 0.73786 0.0
C553 C 0.03087 0.89811 0.71837 0.0
C554 C 1.00348 0.89576 0.71304 0.0
C555 C 0.06351 0.03513 0.57011 0.0
H556 H 0.98786 0.11931 0.58332 0.0
H557 H 0.0501 0.08413 0.44817 0.0
H558 H 0.01699 0.15644 0.61693 0.0
H559 H 0.06153 0.15925 0.56477 0.0
H560 H 0.06347 0.92246 0.75265 0.0
H561 H 0.98598 0.95647 0.7839 0.0
H562 H 0.04342 0.88187 0.6996 0.0
H563 H 0.99549 0.87712 0.69223 0.0
Gd564 Gd 0.50761 0.98925 0.58098 0.0
Gd565 Gd 0.52235 0.04263 0.71701 0.0
C566 C 0.45955 0.08188 0.86927 0.0
C567 C 0.45649 0.12595 0.81739 0.0
C568 C 0.48798 0.09388 0.76596 0.0
C569 C 0.47921 0.07521 0.81555 0.0
C570 C 0.47745 0.1198 0.76803 0.0
C571 C 0.44752 0.10698 0.86797 0.0
C572 C 0.45342 0.06361 0.92472 0.0
C573 C 0.46765 0.03998 0.92764 0.0
N574 N 0.49152 0.0513 0.81548 0.0
C575 C 0.48694 0.03427 0.87306 0.0
H576 H 0.49765 0.01594 0.87738 0.0
C577 C 0.52091 0.10639 0.6793 0.0
N578 N 0.5084 0.08731 0.71991 0.0
C579 C 0.51131 0.13242 0.67966 0.0
C580 C 0.48908 0.13901 0.7229 0.0
H581 H 0.53773 0.10125 0.64431 0.0
H582 H 0.43203 0.11225 0.9078 0.0
H583 H 0.53598 0.01843 0.4302 0.0
H584 H 0.43843 0.06793 0.96689 0.0
H585 H 0.46366 0.02603 0.97171 0.0
H586 H 0.44782 0.1456 0.81897 0.0
H587 H 0.49658 0.93178 0.66669 0.0
H588 H 0.59383 0.9657 0.33697 0.0
H589 H 0.57029 1.00864 0.33649 0.0
H590 H 0.58461 0.88771 0.4839 0.0
H591 H 0.52082 0.14725 0.64575 0.0
H592 H 0.48161 0.15915 0.72292 0.0
H593 H 0.59926 0.9208 0.39289 0.0
H594 H 0.51568 0.88669 0.66998 0.0
N595 N 0.5397 0.98153 0.48582 0.0
C596 C 0.57853 0.9698 0.37842 0.0
C597 C 0.56528 0.99403 0.37794 0.0
C598 C 0.57159 0.95098 0.43162 0.0
C599 C 0.55166 0.9574 0.48477 0.0
C600 C 0.54565 0.99948 0.43167 0.0
N601 N 0.52366 0.94536 0.58413 0.0
C602 C 0.54349 0.93881 0.53581 0.0
C603 C 0.52375 0.90117 0.63211 0.0
C604 C 0.54506 0.89453 0.5853 0.0
C605 C 0.51292 0.92664 0.62987 0.0
C606 C 0.55493 0.91328 0.53548 0.0
H607 H 0.55338 0.87475 0.58693 0.0
O608 O 0.47618 0.96205 0.5506 0.0
O609 O 0.49043 0.01779 0.66648 0.0
O610 O 0.5214 1.00169 0.77218 0.0
O611 O 0.53332 0.97345 0.67328 0.0
O612 O 0.47601 0.97964 0.66745 0.0
O613 O 0.48473 0.99563 0.47998 0.0
O614 O 0.55621 0.067 0.74665 0.0
O615 O 0.53898 0.01442 0.63084 0.0
O616 O 0.50553 0.02968 0.52486 0.0
O617 O 0.49926 0.06092 0.62177 0.0
O618 O 0.55365 0.05213 0.62835 0.0
O619 O 0.54683 0.03271 0.81265 0.0
C620 C 0.47359 1.00291 0.69764 0.0
C621 C 0.57541 0.90713 0.48457 0.0
C622 C 0.58373 0.92595 0.43272 0.0
C623 C 0.46821 0.97658 0.49549 0.0
C624 C 0.44018 0.98369 0.49896 0.0
C625 C 0.42134 0.9656 0.47192 0.0
C626 C 0.43201 1.00754 0.53421 0.0
C627 C 0.40501 1.01369 0.541 0.0
C628 C 0.39452 0.97134 0.47925 0.0
C629 C 0.38635 0.9952 0.51313 0.0
C630 C 0.53038 0.97852 0.74601 0.0
C631 C 0.55589 0.02877 0.59846 0.0
C632 C 0.56494 0.04982 0.79414 0.0
C633 C 0.59172 0.03934 0.77786 0.0
C634 C 0.61103 0.05602 0.7473 0.0
C635 C 0.59746 1.01224 0.78575 0.0
C636 C 0.62221 1.00183 0.76408 0.0
C637 C 0.63541 0.04576 0.72421 0.0
C638 C 0.64103 0.0189 0.7325 0.0
C639 C 0.49918 0.05395 0.54939 0.0
H640 H 0.4274 0.94696 0.44575 0.0
H641 H 0.44669 0.02124 0.55628 0.0
H642 H 0.37998 0.95739 0.45789 0.0
H643 H 0.36539 0.99945 0.51517 0.0
H644 H 0.60707 0.07691 0.73987 0.0
H645 H 0.5826 0.99914 0.80822 0.0
H646 H 0.6501 0.05874 0.70028 0.0
H647 H 0.66045 1.01174 0.71633 0.0
Gd648 Gd 0.49201 0.53653 0.72663 0.0
Gd649 Gd 0.53618 0.49958 0.59991 0.0
C650 C 0.62378 0.49742 0.66675 0.0
C651 C 0.644 0.52402 0.56993 0.0
C652 C 0.59679 0.51485 0.56728 0.0
C653 C 0.59882 0.50075 0.6327 0.0
C654 C 0.61951 0.5258 0.5336 0.0
C655 C 0.64612 0.50985 0.63648 0.0
C656 C 0.62572 0.48112 0.72902 0.0
C657 C 0.6034 0.4677 0.75379 0.0
N658 N 0.57676 0.48899 0.66048 0.0
C659 C 0.57915 0.4715 0.71815 0.0
H660 H 0.56263 0.46064 0.73935 0.0
C661 C 0.57115 0.52467 0.46088 0.0
N662 N 0.57298 0.51587 0.53305 0.0
C663 C 0.59296 0.53605 0.4255 0.0
C664 C 0.61715 0.53716 0.46279 0.0
H665 H 0.55255 0.52331 0.43139 0.0
H666 H 0.6653 0.50787 0.6627 0.0
H667 H 0.46517 0.57225 0.58159 0.0
H668 H 0.64445 0.47816 0.75693 0.0
H669 H 0.60481 0.45445 0.80075 0.0
H670 H 0.66157 0.53267 0.54558 0.0
H671 H 0.47942 0.50663 0.88877 0.0
H672 H 0.38172 0.56432 0.59071 0.0
H673 H 0.42194 0.58183 0.5307 0.0
H674 H 0.36633 0.51387 0.81123 0.0
H675 H 0.59112 0.54378 0.36942 0.0
H676 H 0.63412 0.54578 0.43511 0.0
H677 H 0.36123 0.53883 0.69486 0.0
H678 H 0.44111 0.49012 0.9603 0.0
N679 N 0.45085 0.54894 0.67276 0.0
C680 C 0.40091 0.56008 0.61452 0.0
C681 C 0.42355 0.57003 0.58065 0.0
C682 C 0.40326 0.54505 0.67923 0.0
C683 C 0.42875 0.5399 0.70772 0.0
C684 C 0.44837 0.56451 0.61082 0.0
N685 N 0.45617 0.52146 0.79933 0.0
C686 C 0.43153 0.52568 0.77278 0.0
C687 C 0.43811 0.50002 0.90758 0.0
C688 C 0.41266 0.50327 0.87937 0.0
C689 C 0.45972 0.50947 0.86703 0.0
C690 C 0.40907 0.51645 0.81167 0.0
H691 H 0.39592 0.49589 0.9108 0.0
O692 O 0.48841 0.55611 0.83601 0.0
O693 O 0.53426 0.5254 0.70328 0.0
O694 O 0.5226 0.47255 0.69446 0.0
O695 O 0.48391 0.49247 0.73846 0.0
O696 O 0.52077 0.52063 0.81168 0.0
O697 O 0.50255 0.57812 0.74117 0.0
O698 O 0.54847 0.47557 0.50288 0.0
O699 O 0.49474 0.51131 0.62362 0.0
O700 O 0.50504 0.56512 0.63587 0.0
O701 O 0.5371 0.54271 0.5641 0.0
O702 O 0.50608 0.51245 0.51276 0.0
O703 O 0.51986 0.46017 0.58019 0.0
C704 C 0.54141 0.5196 0.7693 0.0
C705 C 0.38379 0.52099 0.78251 0.0
C706 C 0.38089 0.53522 0.71635 0.0
C707 C 0.50128 0.57691 0.81429 0.0
C708 C 0.5258 0.58328 0.85619 0.0
C709 C 0.53026 0.57232 0.92717 0.0
C710 C 0.5458 0.5986 0.8232 0.0
C711 C 0.5699 0.60319 0.86062 0.0
C712 C 0.55429 0.57623 0.96373 0.0
C713 C 0.57395 0.59157 0.93104 0.0
C714 C 0.50006 0.4718 0.7328 0.0
C715 C 0.48621 0.51533 0.55796 0.0
C716 C 0.53001 0.45812 0.5131 0.0
C717 C 0.51111 0.45375 0.45063 0.0
C718 C 0.51625 0.46394 0.37903 0.0
C719 C 0.48694 0.44078 0.46354 0.0
C720 C 0.46824 0.43746 0.40556 0.0
C721 C 0.49761 0.46131 0.32183 0.0
C722 C 0.47386 0.44811 0.33465 0.0
C723 C 0.52308 0.56423 0.5816 0.0
H724 H 0.51538 0.56028 0.95399 0.0
H725 H 0.54262 0.6069 0.76823 0.0
H726 H 0.5576 0.56754 0.01807 0.0
H727 H 0.59194 0.59505 0.96249 0.0
H728 H 0.53454 0.47422 0.36727 0.0
H729 H 0.48272 0.43329 0.51898 0.0
H730 H 0.50176 0.46922 0.26689 0.0
H731 H 0.4604 0.44547 0.28793 0.0
Gd732 Gd 1.00023 0.49718 0.72417 0.0
Gd733 Gd 0.03067 0.5477 0.60753 0.0
C734 C 0.04117 0.6286 0.72874 0.0
C735 C 1.00264 0.6529 0.68787 0.0
C736 C 1.01106 0.60803 0.6398 0.0
C737 C 0.03309 0.6064 0.68462 0.0
C738 C 0.99627 0.63182 0.63839 0.0
C739 C 0.02522 0.65136 0.73268 0.0
C740 C 0.0656 0.62771 0.76491 0.0
C741 C 0.08194 0.60579 0.75298 0.0
N742 N 0.04804 0.58407 0.67953 0.0
C743 C 0.07313 0.58445 0.70827 0.0
H744 H 0.08699 0.56873 0.69582 0.0
C745 C 0.9901 0.59219 0.53011 0.0
N746 N 1.00625 0.58775 0.59043 0.0
C747 C 0.9744 0.61495 0.52742 0.0
C748 C 0.97684 0.63451 0.58345 0.0
H749 H 0.98913 0.57813 0.48365 0.0
H750 H 0.03073 0.66826 0.76787 0.0
H751 H 0.97211 0.46197 0.58107 0.0
H752 H 0.07251 0.64431 0.79917 0.0
H753 H 0.10153 0.60547 0.77718 0.0
H754 H 0.99116 0.67105 0.68871 0.0
H755 H 0.02589 0.49265 0.89989 0.0
H756 H 0.99977 0.38214 0.59051 0.0
H757 H 0.97292 0.41646 0.52946 0.0
H758 H 0.04956 0.38103 0.81863 0.0
H759 H 0.96084 0.61762 0.48123 0.0
H760 H 0.96506 0.6524 0.5805 0.0
H761 H 0.02876 0.36927 0.69771 0.0
H762 H 0.04942 0.45973 0.97448 0.0
N763 N 0.999 0.45413 0.67007 0.0
C764 C 0.99948 0.40217 0.6138 0.0
C765 C 0.98426 0.42147 0.57927 0.0
C766 C 0.01341 0.40873 0.67942 0.0
C767 C 0.01242 0.43513 0.7074 0.0
C768 C 0.98392 0.44738 0.60888 0.0
N769 N 0.02113 0.46686 0.80412 0.0
C770 C 0.02382 0.44166 0.77626 0.0
C771 C 0.04249 0.45445 0.91861 0.0
C772 C 0.04679 0.42896 0.88903 0.0
C773 C 0.02912 0.47311 0.87588 0.0
C774 C 0.03697 0.42211 0.81776 0.0
H775 H 0.05705 0.41452 0.9225 0.0
O776 O 0.97072 0.5111 0.80538 0.0
O777 O 1.00639 0.54125 0.71021 0.0
O778 O 0.06025 0.53172 0.69489 0.0
O779 O 0.04404 0.49167 0.73922 0.0
O780 O 1.01166 0.52629 0.81705 0.0
O781 O 0.96594 0.4731 0.74901 0.0
O782 O 0.04327 0.56616 0.5041 0.0
O783 O 0.02427 0.50427 0.62116 0.0
O784 O 0.97106 0.50622 0.63005 0.0
O785 O 0.98844 0.5424 0.56768 0.0
O786 O 0.02246 0.51731 0.51305 0.0
O787 O 0.07095 0.5429 0.56791 0.0
C788 C 0.01226 0.54758 0.77807 0.0
C789 C 0.0393 0.39622 0.78786 0.0
C790 C 0.02749 0.38953 0.71895 0.0
C791 C 0.95492 0.49131 0.7912 0.0
C792 C 0.92714 0.49727 0.77369 0.0
C793 C 0.90904 0.47626 0.77042 0.0
C794 C 0.91842 0.52327 0.75983 0.0
C795 C 0.89152 0.52838 0.74515 0.0
C796 C 0.8826 0.48098 0.75444 0.0
C797 C 0.87381 0.50674 0.74279 0.0
C798 C 0.06315 0.50931 0.73234 0.0
C799 C 0.02158 0.49631 0.55322 0.0
C800 C 0.06621 0.5545 0.5045 0.0
C801 C 0.07336 0.53972 0.43509 0.0
C802 C 0.07492 0.55316 0.36706 0.0
C803 C 0.07764 0.51216 0.43559 0.0
C804 C 0.08389 0.49801 0.3689 0.0
C805 C 0.08081 0.53931 0.30041 0.0
C806 C 0.0854 0.51202 0.30115 0.0
C807 C 0.96933 0.52506 0.5796 0.0
H808 H 0.91539 0.45612 0.78053 0.0
H809 H 0.93257 0.53937 0.76052 0.0
H810 H 0.86872 0.46466 0.75265 0.0
H811 H 0.85285 0.50959 0.73443 0.0
H812 H 0.07149 0.57436 0.36552 0.0
H813 H 0.07604 0.50174 0.48801 0.0
H814 H 0.08215 0.54982 0.24805 0.0
H815 H 0.09097 0.50217 0.2488 0.0
H816 H 0.17791 0.06105 0.44251 0.0
H817 H 0.142 0.03807 0.23115 0.0
H818 H 0.10021 0.02974 0.29678 0.0
H819 H 0.07328 0.02926 0.41569 0.0
H820 H 0.10993 0.0554 0.62327 0.0
H821 H 0.15126 0.0629 0.55717 0.0
C822 C 0.16099 0.05473 0.40963 0.0
C823 C 0.16366 0.05055 0.33071 0.0
C824 C 0.13674 0.05056 0.44755 0.0
C825 C 0.14116 0.04133 0.29148 0.0
C826 C 0.117 0.03675 0.32918 0.0
C827 C 0.09026 0.03669 0.44651 0.0
C828 C 0.08822 0.04117 0.52552 0.0
C829 C 0.11444 0.04134 0.40742 0.0
C830 C 0.11066 0.05106 0.5634 0.0
C831 C 0.13448 0.05553 0.52533 0.0
H832 H 0.48632 0.13219 0.27364 0.0
H833 H 0.46807 0.18672 0.45707 0.0
H834 H 0.473 0.15136 0.54671 0.0
H835 H 0.4812 0.10469 0.57421 0.0
H836 H 0.50309 0.0503 0.39456 0.0
H837 H 0.49713 0.0853 0.30312 0.0
C838 C 0.48381 0.13646 0.33325 0.0
C839 C 0.47647 0.16231 0.3577 0.0
C840 C 0.48701 0.11584 0.38568 0.0
C841 C 0.47316 0.1671 0.43566 0.0
C842 C 0.47609 0.14683 0.48744 0.0
C843 C 0.48552 0.10057 0.51554 0.0
C844 C 0.49353 0.07487 0.49257 0.0
C845 C 0.48285 0.12109 0.46323 0.0
C846 C 0.4973 0.06982 0.41495 0.0
C847 C 0.49397 0.08996 0.36225 0.0
H848 H 0.36832 0.48081 0.48628 0.0
H849 H 0.38765 0.51408 0.27126 0.0
H850 H 0.43094 0.52768 0.32003 0.0
H851 H 0.46472 0.52756 0.42191 0.0
H852 H 0.44595 0.49043 0.63162 0.0
H853 H 0.4015 0.48045 0.58635 0.0
C854 C 0.38193 0.49092 0.44942 0.0
C855 C 0.37442 0.49609 0.37436 0.0
C856 C 0.40717 0.49788 0.47707 0.0
C857 C 0.39243 0.50993 0.32915 0.0
C858 C 0.41742 0.51749 0.35693 0.0
C859 C 0.45076 0.51753 0.45792 0.0
C860 C 0.45853 0.51057 0.53134 0.0
C861 C 0.4252 0.51121 0.43048 0.0
C862 C 0.44039 0.49687 0.57619 0.0
C863 C 0.41495 0.49095 0.54993 0.0
H864 H 0.06449 0.38257 0.44577 0.0
H865 H 0.01368 0.39753 0.25704 0.0
H866 H 0.9999 0.43969 0.31672 0.0
H867 H 1.00381 0.47377 0.42061 0.0
H868 H 0.05541 0.45855 0.60705 0.0
H869 H 0.06776 0.41571 0.54954 0.0
C870 C 0.05035 0.39492 0.41716 0.0
C871 C 0.04033 0.38642 0.34587 0.0
C872 C 0.0428 0.41946 0.45152 0.0
C873 C 0.02166 0.40296 0.31165 0.0
C874 C 0.01395 0.42735 0.34569 0.0
C875 C 0.01758 0.46094 0.449 0.0
C876 C 0.0281 0.46931 0.51956 0.0
C877 C 0.02459 0.43602 0.41527 0.0
C878 C 0.04639 0.45254 0.55425 0.0
C879 C 0.05355 0.42799 0.52096 0.0
H880 H 0.86292 0.97166 0.8598 0.0
H881 H 0.88892 0.01508 0.05728 0.0
H882 H 0.92994 0.02712 0.99145 0.0
H883 H 0.95956 0.02371 0.87774 0.0
H884 H 0.93183 0.98032 0.6816 0.0
H885 H 0.89103 0.96953 0.74717 0.0
C886 C 0.87744 0.98391 0.88874 0.0
C887 C 0.87255 0.99232 0.96415 0.0
C888 C 0.90108 0.9905 0.85068 0.0
C889 C 0.89173 1.00845 0.99948 0.0
C890 C 0.91542 0.01511 0.96184 0.0
C891 C 0.94464 1.01184 0.84939 0.0
C892 C 0.94914 1.00288 0.77412 0.0
C893 C 0.92056 1.00595 0.88756 0.0
C894 C 0.92918 0.98773 0.73878 0.0
C895 C 0.90568 0.98151 0.77643 0.0
H896 H 0.57967 0.88419 0.92337 0.0
H897 H 0.50572 0.88973 0.04606 0.0
H898 H 0.49436 0.92904 0.97558 0.0
H899 H 0.50403 0.9607 0.8718 0.0
H900 H 0.57364 0.94757 0.73546 0.0
H901 H 0.58664 0.91088 0.81439 0.0
C902 C 0.56045 0.89276 0.93412 0.0
C903 C 0.54356 0.8826 0.99068 0.0
C904 C 0.55299 0.91427 0.88957 0.0
C905 C 0.51964 0.89642 1.00435 0.0
C906 C 0.51287 0.91903 0.96313 0.0
C907 C 0.52227 0.95004 0.86044 0.0
C908 C 0.53823 0.95736 0.79877 0.0
C909 C 0.52927 0.92804 0.90489 0.0
C910 C 0.56125 0.9427 0.78308 0.0
C911 C 0.56874 0.92173 0.82842 0.0
H912 H 0.65613 0.55349 0.87987 0.0
H913 H 0.63072 0.51058 0.07544 0.0
H914 H 0.58947 0.49934 1.01247 0.0
H915 H 0.55944 0.50265 0.90369 0.0
H916 H 0.58264 0.54921 0.71418 0.0
H917 H 0.62541 0.55844 0.77359 0.0
C918 C 0.64161 0.54199 0.9099 0.0
C919 C 0.64722 0.53299 0.98346 0.0
C920 C 0.61727 0.53616 0.87405 0.0
C921 C 0.6278 0.51751 0.01889 0.0
C922 C 0.60386 0.51122 0.98298 0.0
C923 C 0.57399 0.51463 0.87507 0.0
C924 C 0.56813 0.52438 0.80306 0.0
C925 C 0.59831 0.52048 0.91074 0.0
C926 C 0.5869 0.54059 0.7681 0.0
C927 C 0.61132 0.54608 0.80256 0.0
H928 H 0.0272 0.65349 0.97933 0.0
H929 H 0.95021 0.66967 0.88787 0.0
H930 H 0.95105 0.62782 0.81735 0.0
H931 H 0.97386 0.58652 0.77647 0.0
H932 H 0.04906 0.56775 0.87392 0.0
H933 H 0.04842 0.60959 0.947 0.0
C934 C 1.0103 0.64755 0.94574 0.0
C935 C 0.98872 0.66527 0.93932 0.0
C936 C 1.01061 0.62273 0.90514 0.0
C937 C 0.96721 0.65686 0.89423 0.0
C938 C 0.96762 0.63276 0.85341 0.0
C939 C 0.99028 0.59179 0.81286 0.0
C940 C 0.01211 0.57445 0.81665 0.0
C941 C 0.98937 0.61567 0.85702 0.0
C942 C 0.03245 0.58107 0.86763 0.0
C943 C 0.03197 0.60499 0.91018 0.0
H944 H 0.14088 0.15759 0.26885 0.0
H945 H 0.16827 0.20316 0.46146 0.0
H946 H 0.14338 0.17433 0.54479 0.0
H947 H 0.10468 0.14516 0.55743 0.0
H948 H 0.07366 0.10515 0.35912 0.0
H949 H 0.11006 0.12154 0.28513 0.0
C950 C 0.14257 0.16066 0.3292 0.0
C951 C 0.15553 0.18333 0.35852 0.0
C952 C 0.12693 0.14512 0.37611 0.0
C953 C 0.1577 0.18641 0.43713 0.0
C954 C 0.14325 0.17005 0.48479 0.0
C955 C 0.10595 0.13982 0.49814 0.0
C956 C 0.08555 0.12491 0.46373 0.0
C957 C 0.12608 0.15086 0.45413 0.0
C958 C 0.08857 0.11688 0.38778 0.0
C959 C 0.10939 0.12652 0.34474 0.0
H960 H 0.33369 0.11055 0.56811 0.0
H961 H 0.40094 0.14677 0.46134 0.0
H962 H 0.4286 0.10978 0.49839 0.0
H963 H 0.42884 0.06179 0.52056 0.0
H964 H 0.36125 0.02579 0.6267 0.0
H965 H 0.33876 0.06851 0.63129 0.0
C966 C 0.35467 0.11131 0.55589 0.0
C967 C 0.36468 0.13026 0.50591 0.0
C968 C 0.37024 0.08948 0.57495 0.0
C969 C 0.39226 0.13147 0.49548 0.0
C970 C 0.40814 0.11016 0.51613 0.0
C971 C 0.40965 0.06334 0.54758 0.0
C972 C 0.39607 0.04026 0.56903 0.0
C973 C 0.39663 0.08794 0.5492 0.0
C974 C 0.37152 0.04299 0.60575 0.0
C975 C 0.35869 0.06747 0.6089 0.0
H976 H 0.39232 0.34116 0.41739 0.0
H977 H 0.34974 0.38806 0.25755 0.0
H978 H 0.37773 0.4261 0.28808 0.0
H979 H 0.41891 0.44324 0.34364 0.0
H980 H 0.46357 0.39319 0.4915 0.0
H981 H 0.42872 0.36036 0.48731 0.0
C982 C 0.38797 0.36001 0.39195 0.0
C983 C 0.36951 0.36132 0.33297 0.0
C984 C 0.40456 0.38159 0.40835 0.0
C985 C 0.3643 0.38619 0.30162 0.0
C986 C 0.3804 0.408 0.31892 0.0
C987 C 0.42101 0.42521 0.37526 0.0
C988 C 0.44436 0.42058 0.4161 0.0
C989 C 0.40151 0.40545 0.36914 0.0
C990 C 0.44602 0.39758 0.45944 0.0
C991 C 0.42612 0.3785 0.45655 0.0
H992 H 0.13803 0.39285 0.28232 0.0
H993 H 0.16999 0.40272 0.50643 0.0
H994 H 0.13695 0.43667 0.53465 0.0
H995 H 0.10895 0.47145 0.48171 0.0
H996 H 0.07502 0.45924 0.26084 0.0
H997 H 0.09925 0.41773 0.24617 0.0
C998 C 0.13754 0.40142 0.33865 0.0
C999 C 0.15817 0.39662 0.38995 0.0
C1000 C 0.11873 0.42117 0.35426 0.0
C1001 C 0.15563 0.40726 0.46361 0.0
C1002 C 0.1367 0.42677 0.47995 0.0
C1003 C 0.10592 0.45942 0.43127 0.0
C1004 C 0.0914 0.46942 0.37043 0.0
C1005 C 0.11971 0.43538 0.4233 0.0
C1006 C 0.08737 0.4529 0.30672 0.0
C1007 C 0.10104 0.42901 0.29848 0.0
H1008 H 0.88357 0.85552 0.78071 0.0
H1009 H 0.88695 0.90082 0.98907 0.0
H1010 H 0.9156 0.93287 0.9315 0.0
H1011 H 0.95268 0.93627 0.84479 0.0
H1012 H 0.95465 0.88733 0.64239 0.0
H1013 H 0.91225 0.86809 0.67576 0.0
C1014 C 0.88998 0.87284 0.81292 0.0
C1015 C 0.88511 0.87422 0.89103 0.0
C1016 C 0.90893 0.88977 0.78182 0.0
C1017 C 0.89144 0.89805 0.92987 0.0
C1018 C 0.90845 0.91634 0.89733 0.0
C1019 C 0.94353 0.92229 0.80583 0.0
C1020 C 0.95766 0.91239 0.74281 0.0
C1021 C 0.91959 0.91056 0.82668 0.0
C1022 C 0.94487 0.89455 0.69297 0.0
C1023 C 0.92047 0.88355 0.7119 0.0
H1024 H 0.68158 0.89566 0.8234 0.0
H1025 H 0.63822 0.90486 0.03254 0.0
H1026 H 0.61095 0.93848 0.97796 0.0
H1027 H 0.60821 0.97363 0.88657 0.0
H1028 H 0.65208 0.9669 0.67826 0.0
H1029 H 0.67119 0.92507 0.7188 0.0
C1030 C 0.66594 0.90469 0.85692 0.0
C1031 C 0.66347 0.89871 0.93384 0.0
C1032 C 0.65119 0.92553 0.82678 0.0
C1033 C 0.64162 0.90928 0.97403 0.0
C1034 C 0.62612 0.92912 0.94332 0.0
C1035 C 0.62128 0.96273 0.84863 0.0
C1036 C 0.62927 0.97388 0.78036 0.0
C1037 C 0.63223 0.93881 0.87222 0.0
C1038 C 0.64622 0.95923 0.73226 0.0
C1039 C 0.65702 0.93518 0.75515 0.0
H1040 H 0.6283 0.70849 0.82371 0.0
H1041 H 0.69019 0.66317 0.92602 0.0
H1042 H 0.66749 0.62188 0.8898 0.0
H1043 H 0.62399 0.60128 0.86921 0.0
H1044 H 0.55992 0.64905 0.78601 0.0
H1045 H 0.58954 0.68638 0.77338 0.0
C1046 C 0.63761 0.6896 0.83496 0.0
C1047 C 0.66028 0.68884 0.88043 0.0
C1048 C 0.62334 0.66631 0.82023 0.0
C1049 C 0.67232 0.66419 0.89288 0.0
C1050 C 0.65908 0.64065 0.87358 0.0
C1051 C 0.61661 0.6197 0.84693 0.0
C1052 C 0.58946 0.6225 0.83141 0.0
C1053 C 0.63345 0.64177 0.84392 0.0
C1054 C 0.58055 0.64618 0.79942 0.0
C1055 C 0.5975 0.66777 0.79271 0.0
H1056 H 0.8135 0.61993 0.78964 0.0
H1057 H 0.87676 0.65078 0.92826 0.0
H1058 H 0.90707 0.6186 0.8716 0.0
H1059 H 0.91079 0.5741 0.81304 0.0
H1060 H 0.84895 0.54628 0.66385 0.0
H1061 H 0.82303 0.58567 0.69399 0.0
C1062 C 0.83414 0.62079 0.80536 0.0
C1063 C 0.84219 0.63616 0.86842 0.0
C1064 C 0.85156 0.60223 0.77234 0.0
C1065 C 0.86947 0.63774 0.88384 0.0
C1066 C 0.88692 0.61928 0.85142 0.0
C1067 C 0.89219 0.57687 0.78431 0.0
C1068 C 0.88106 0.55607 0.74052 0.0
C1069 C 0.87747 0.59993 0.80055 0.0
C1070 C 0.85727 0.56096 0.70221 0.0
C1071 C 0.84247 0.5837 0.71869 0.0
H1072 H 0.06395 0.16479 0.86058 0.0
H1073 H 0.98483 0.17685 0.947 0.0
H1074 H 0.96996 0.13768 0.87626 0.0
H1075 H 0.97925 0.09867 0.79186 0.0
H1076 H 0.05859 0.08557 0.71089 0.0
H1077 H 0.07341 0.12566 0.77875 0.0
C1078 C 0.04345 0.15891 0.86544 0.0
C1079 C 0.02576 0.17447 0.91077 0.0
C1080 C 0.035 0.13566 0.82568 0.0
C1081 C 0.99914 0.16615 0.91269 0.0
C1082 C 0.99057 0.14335 0.87248 0.0
C1083 C 0.99984 0.1045 0.78947 0.0
C1084 C 0.01786 0.08851 0.74735 0.0
C1085 C 1.0083 0.12778 0.82916 0.0
C1086 C 0.04435 0.09685 0.74406 0.0
C1087 C 0.0528 0.12002 0.7826 0.0
H1088 H 0.38219 1.01039 0.94487 0.0
H1089 H 0.36531 0.08289 0.83095 0.0
H1090 H 0.40116 0.07379 0.74125 0.0
H1091 H 0.43992 0.04654 0.69949 0.0
H1092 H 0.45569 0.97333 0.81144 0.0
H1093 H 0.41818 0.98118 0.89605 0.0
C1094 C 0.38565 0.02364 0.89861 0.0
C1095 C 0.3704 0.04701 0.894 0.0
C1096 C 0.40676 0.01843 0.84732 0.0
C1097 C 0.3761 0.06441 0.83498 0.0
C1098 C 0.39693 0.05939 0.78406 0.0
C1099 C 0.43523 0.03246 0.74283 0.0
C1100 C 0.45134 1.00979 0.75067 0.0
C1101 C 0.41291 0.03677 0.79057 0.0
C1102 C 0.44416 0.99125 0.80524 0.0
C1103 C 0.42251 0.99565 0.85349 0.0
H1104 H 0.44599 0.37603 0.8995 0.0
H1105 H 0.52341 0.34122 0.87429 0.0
H1106 H 0.5391 0.38175 0.81354 0.0
H1107 H 0.53001 0.42689 0.76305 0.0
H1108 H 0.45131 0.45931 0.78641 0.0
H1109 H 0.43701 0.41982 0.85067 0.0
C1110 C 0.46629 0.377 0.88008 0.0
C1111 C 0.48329 0.35512 0.89054 0.0
C1112 C 0.47497 0.40009 0.8443 0.0
C1113 C 0.50977 0.35751 0.86715 0.0
C1114 C 0.51869 0.3807 0.83185 0.0
C1115 C 0.50975 0.42537 0.78223 0.0
C1116 C 0.49196 0.44663 0.77044 0.0
C1117 C 0.50137 0.40209 0.81927 0.0
C1118 C 0.46573 0.44387 0.79565 0.0
C1119 C 0.4574 0.42108 0.83226 0.0
H1120 H 0.165 0.46089 0.88411 0.0
H1121 H 0.17577 0.54219 0.95871 0.0
H1122 H 0.1374 0.55529 0.88485 0.0
H1123 H 0.09821 0.54314 0.80618 0.0
H1124 H 0.08608 0.46101 0.74307 0.0
H1125 H 0.12669 0.44884 0.80734 0.0
C1126 C 0.15899 0.48151 0.88554 0.0
C1127 C 0.1736 0.50033 0.92872 0.0
C1128 C 0.13619 0.48881 0.84514 0.0
C1129 C 0.16548 0.52707 0.92619 0.0
C1130 C 0.1432 0.5346 0.88431 0.0
C1131 C 0.10472 0.52268 0.8053 0.0
C1132 C 0.08908 0.50308 0.76861 0.0
C1133 C 0.12808 0.5156 0.84437 0.0
C1134 C 0.09759 0.47654 0.77037 0.0
C1135 C 0.12091 0.46954 0.80721 0.0
H1136 H 0.03317 0.88146 0.36874 0.0
H1137 H 0.95362 0.8725 0.45268 0.0
H1138 H 0.95835 0.91277 0.52918 0.0
H1139 H 0.98546 0.95059 0.57821 0.0
H1140 H 0.06561 0.95819 0.49949 0.0
H1141 H 0.06043 0.91872 0.4188 0.0
C1142 C 0.01697 0.88787 0.40477 0.0
C1143 C 0.99291 0.87348 0.40291 0.0
C1144 C 0.01994 0.91113 0.45115 0.0
C1145 C 0.97228 0.88293 0.45043 0.0
C1146 C 0.97501 0.90605 0.49543 0.0
C1147 C 1.00163 0.94385 0.54249 0.0
C1148 C 0.02576 0.958 0.54392 0.0
C1149 C 0.99871 0.92046 0.49655 0.0
C1150 C 0.04669 0.94814 0.49892 0.0
C1151 C 0.04379 0.92536 0.45276 0.0
H1152 H 0.66042 0.97482 0.46348 0.0
H1153 H 0.66591 0.05013 0.35359 0.0
H1154 H 0.6258 0.06519 0.41865 0.0
H1155 H 0.58746 0.05644 0.50253 0.0
H1156 H 0.58236 0.9815 0.61345 0.0
H1157 H 0.62344 0.96692 0.55216 0.0
C1158 C 0.65296 0.99458 0.45349 0.0
C1159 C 0.66658 1.01117 0.40261 0.0
C1160 C 0.62952 1.00314 0.49094 0.0
C1161 C 0.65643 0.03687 0.39246 0.0
C1162 C 0.63319 0.04546 0.42935 0.0
C1163 C 0.5953 0.03686 0.51303 0.0
C1164 C 0.58107 0.01971 0.56047 0.0
C1165 C 0.61931 0.02868 0.47792 0.0
C1166 C 0.59213 0.99476 0.57516 0.0
C1167 C 0.61588 0.98651 0.54053 0.0
H1168 H 0.54728 0.64695 0.32716 0.0
H1169 H 0.53774 0.70329 0.51032 0.0
H1170 H 0.52493 0.66717 0.59433 0.0
H1171 H 0.5207 0.61826 0.61806 0.0
H1172 H 0.53113 0.56333 0.43117 0.0
H1173 H 0.53962 0.59976 0.34734 0.0
C1174 C 0.54172 0.65144 0.38506 0.0
C1175 C 0.54317 0.67791 0.41199 0.0
C1176 C 0.53522 0.63052 0.43317 0.0
C1177 C 0.5363 0.68326 0.48755 0.0
C1178 C 0.52933 0.66247 0.53586 0.0
C1179 C 0.52467 0.61434 0.5589 0.0
C1180 C 0.52624 0.58773 0.53183 0.0
C1181 C 0.5294 0.63583 0.50984 0.0
C1182 C 0.53106 0.58325 0.45468 0.0
C1183 C 0.53552 0.60422 0.40615 0.0
H1184 H 0.88478 0.54809 0.32772 0.0
H1185 H 0.83068 0.5191 0.4941 0.0
H1186 H 0.86816 0.50757 0.5754 0.0
H1187 H 0.91683 0.51009 0.60396 0.0
H1188 H 0.96936 0.5403 0.43452 0.0
H1189 H 0.93234 0.54699 0.35061 0.0
C1190 C 0.88118 0.53869 0.38116 0.0
C1191 C 0.85489 0.53426 0.4043 0.0
C1192 C 0.90271 0.53295 0.42821 0.0
C1193 C 0.85064 0.52232 0.47413 0.0
C1194 C 0.87213 0.51609 0.52111 0.0
C1195 C 0.92012 0.51816 0.54884 0.0
C1196 C 0.94599 0.52586 0.52753 0.0
C1197 C 0.89833 0.52201 0.49972 0.0
C1198 C 0.94976 0.53544 0.45447 0.0
C1199 C 0.92854 0.53898 0.40571 0.0
loop_
_geom_bond_atom_site_label_1
_geom_bond_atom_site_label_2
_geom_bond_distance
_geom_bond_site_symmetry_2
_ccdc_geom_bond_type
C0 C1 1.391 . S
C0 C4 1.391 . S
C0 H42 0.948 . S
C1 C0 1.391 . S
C1 C2 1.391 . S
C2 C1 1.391 . S
C2 H58 0.947 . S
C2 C59 1.392 . S
C3 C4 1.391 . S
C3 C7 1.397 . S
C3 C59 1.419 . S
C4 C0 1.391 . S
C4 C3 1.391 . S
C4 C5 1.399 . S
C5 C4 1.399 . S
C5 C8 1.396 . S
C5 C17 1.453 . S
C5 C18 1.684 . S
H6 C30 0.948 . S
C7 C3 1.397 . S
C7 C8 1.394 . S
C7 C26 1.723 . S
C8 C5 1.396 . S
C8 C7 1.394 . S
C8 C38 1.723 . S
H9 C32 0.947 . S
H10 C33 0.948 . S
H11 C39 0.982 . S
H12 C40 0.979 . S
H13 C40 0.980 . S
H14 C40 0.983 . S
H15 C39 0.979 . S
H16 C39 0.977 . S
C17 C5 1.453 . S
C17 H46 0.982 . S
C17 H47 0.979 . S
C17 H48 0.977 . S
C18 C5 1.684 . S
C18 H43 0.979 . S
C18 H44 0.980 . S
C18 H45 0.983 . S
C19 C20 1.391 . S
C19 C24 1.391 . S
C19 H49 0.948 . S
C20 C19 1.391 . S
C20 C21 1.391 1_554 S
C21 C20 1.391 1_556 S
C21 C22 1.392 1_556 S
C21 H50 0.947 . S
C22 C21 1.392 1_554 S
C22 C23 1.419 . S
C22 H51 0.948 . S
C23 C22 1.419 . S
C23 C24 1.391 . S
C23 C27 1.397 . S
C24 C19 1.391 . S
C24 C23 1.391 . S
C24 C25 1.399 . S
C25 C24 1.399 . S
C25 C26 1.396 . S
C25 C28 1.453 . S
C25 C29 1.684 . S
C26 C7 1.723 . S
C26 C25 1.396 . S
C26 C27 1.394 . S
C27 C23 1.397 . S
C27 C26 1.394 . S
C27 C37 1.723 . S
C28 C25 1.453 . S
C28 H52 0.982 . S
C28 H53 0.979 . S
C28 H54 0.977 . S
C29 C25 1.684 . S
C29 H55 0.979 . S
C29 H56 0.980 . S
C29 H57 0.983 . S
C30 H6 0.948 . S
C30 C31 1.391 . S
C30 C35 1.391 . S
C31 C30 1.391 . S
C31 C32 1.391 . S
C32 H9 0.947 . S
C32 C31 1.391 . S
C32 C33 1.392 . S
C33 H10 0.948 . S
C33 C32 1.392 . S
C33 C34 1.419 . S
C34 C33 1.419 . S
C34 C35 1.391 . S
C34 C38 1.397 . S
C35 C30 1.391 . S
C35 C34 1.391 . S
C35 C36 1.399 . S
C36 C35 1.399 . S
C36 C37 1.396 . S
C36 C39 1.453 . S
C36 C40 1.684 . S
C37 C27 1.723 . S
C37 C36 1.396 . S
C37 C38 1.394 . S
C38 C8 1.723 . S
C38 C34 1.397 . S
C38 C37 1.394 . S
C39 H11 0.982 . S
C39 H15 0.979 . S
C39 H16 0.977 . S
C39 C36 1.453 . S
C40 H12 0.979 . S
C40 H13 0.980 . S
C40 H14 0.983 . S
C40 C36 1.684 . S
H41 C59 0.948 . S
H42 C0 0.948 . S
H43 C18 0.979 . S
H44 C18 0.980 . S
H45 C18 0.983 . S
H46 C17 0.982 . S
H47 C17 0.979 . S
H48 C17 0.977 . S
H49 C19 0.948 . S
H50 C21 0.947 . S
H51 C22 0.948 . S
H52 C28 0.982 . S
H53 C28 0.979 . S
H54 C28 0.977 . S
H55 C29 0.979 . S
H56 C29 0.980 . S
H57 C29 0.983 . S
H58 C2 0.947 . S
C59 C2 1.392 . S
C59 C3 1.419 . S
C59 H41 0.948 . S
C60 C61 1.391 . S
C60 C64 1.391 . S
C60 H102 0.948 1_554 S
C61 C60 1.391 . S
C61 C62 1.391 . S
C62 C61 1.391 . S
C62 H118 0.947 . S
C62 C119 1.392 . S
C63 C64 1.391 . S
C63 C67 1.397 . S
C63 C119 1.419 . S
C64 C60 1.391 . S
C64 C63 1.391 . S
C64 C65 1.399 . S
C65 C64 1.399 . S
C65 C68 1.396 . S
C65 C77 1.453 . S
C65 C78 1.684 . S
H66 C90 0.948 . S
C67 C63 1.397 . S
C67 C68 1.394 . S
C67 C86 1.723 . S
C68 C65 1.396 . S
C68 C67 1.394 . S
C68 C98 1.723 . S
H69 C92 0.947 . S
H70 C93 0.948 . S
H71 C99 0.982 . S
H72 C100 0.979 . S
H73 C100 0.980 . S
H74 C100 0.983 . S
H75 C99 0.979 . S
H76 C99 0.977 . S
C77 C65 1.453 . S
C77 H106 0.982 . S
C77 H107 0.979 1_554 S
C77 H108 0.977 . S
C78 C65 1.684 . S
C78 H103 0.979 . S
C78 H104 0.980 . S
C78 H105 0.983 1_554 S
C79 C80 1.391 . S
C79 C84 1.391 . S
C79 H109 0.948 . S
C80 C79 1.391 . S
C80 C81 1.391 . S
C81 C80 1.391 . S
C81 C82 1.392 . S
C81 H110 0.947 . S
C82 C81 1.392 . S
C82 C83 1.419 . S
C82 H111 0.948 . S
C83 C82 1.419 . S
C83 C84 1.391 . S
C83 C87 1.397 . S
C84 C79 1.391 . S
C84 C83 1.391 . S
C84 C85 1.399 . S
C85 C84 1.399 . S
C85 C86 1.396 . S
C85 C88 1.453 . S
C85 C89 1.684 . S
C86 C67 1.723 . S
C86 C85 1.396 . S
C86 C87 1.394 . S
C87 C83 1.397 . S
C87 C86 1.394 . S
C87 C97 1.723 . S
C88 C85 1.453 . S
C88 H112 0.982 . S
C88 H113 0.979 . S
C88 H114 0.977 . S
C89 C85 1.684 . S
C89 H115 0.979 . S
C89 H116 0.980 . S
C89 H117 0.983 . S
C90 H66 0.948 . S
C90 C91 1.391 . S
C90 C95 1.391 . S
C91 C90 1.391 . S
C91 C92 1.391 . S
C92 H69 0.947 . S
C92 C91 1.391 . S
C92 C93 1.392 . S
C93 H70 0.948 . S
C93 C92 1.392 . S
C93 C94 1.419 . S
C94 C93 1.419 . S
C94 C95 1.391 . S
C94 C98 1.397 . S
C95 C90 1.391 . S
C95 C94 1.391 . S
C95 C96 1.399 . S
C96 C95 1.399 . S
C96 C97 1.396 . S
C96 C99 1.453 . S
C96 C100 1.684 . S
C97 C87 1.723 . S
C97 C96 1.396 . S
C97 C98 1.394 . S
C98 C68 1.723 . S
C98 C94 1.397 . S
C98 C97 1.394 . S
C99 H71 0.982 . S
C99 H75 0.979 . S
C99 H76 0.977 . S
C99 C96 1.453 . S
C100 H72 0.979 . S
C100 H73 0.980 . S
C100 H74 0.983 . S
C100 C96 1.684 . S
H101 C119 0.948 . S
H102 C60 0.948 1_556 S
H103 C78 0.979 . S
H104 C78 0.980 . S
H105 C78 0.983 1_556 S
H106 C77 0.982 . S
H107 C77 0.979 1_556 S
H108 C77 0.977 . S
H109 C79 0.948 . S
H110 C81 0.947 . S
H111 C82 0.948 . S
H112 C88 0.982 . S
H113 C88 0.979 . S
H114 C88 0.977 . S
H115 C89 0.979 . S
H116 C89 0.980 . S
H117 C89 0.983 . S
H118 C62 0.947 . S
C119 C62 1.392 . S
C119 C63 1.419 . S
C119 H101 0.948 . S
C120 C121 1.391 . S
C120 C124 1.391 . S
C120 H162 0.948 . S
C121 C120 1.391 . S
C121 C122 1.391 . S
C122 C121 1.391 . S
C122 H178 0.947 . S
C122 C179 1.392 . S
C123 C124 1.391 . S
C123 C127 1.397 . S
C123 C179 1.419 . S
C124 C120 1.391 . S
C124 C123 1.391 . S
C124 C125 1.399 . S
C125 C124 1.399 . S
C125 C128 1.396 . S
C125 C137 1.453 . S
C125 C138 1.684 . S
H126 C150 0.948 . S
C127 C123 1.397 . S
C127 C128 1.394 . S
C127 C146 1.723 . S
C128 C125 1.396 . S
C128 C127 1.394 . S
C128 C158 1.723 . S
H129 C152 0.947 . S
H130 C153 0.948 . S
H131 C159 0.982 . S
H132 C160 0.979 . S
H133 C160 0.980 . S
H134 C160 0.983 . S
H135 C159 0.979 . S
H136 C159 0.977 . S
C137 C125 1.453 . S
C137 H166 0.982 . S
C137 H167 0.979 . S
C137 H168 0.977 . S
C138 C125 1.684 . S
C138 H163 0.979 . S
C138 H164 0.980 . S
C138 H165 0.983 . S
C139 C140 1.391 . S
C139 C144 1.391 . S
C139 H169 0.948 1_554 S
C140 C139 1.391 . S
C140 C141 1.391 . S
C141 C140 1.391 . S
C141 C142 1.392 . S
C141 H170 0.947 . S
C142 C141 1.392 . S
C142 C143 1.419 . S
C142 H171 0.948 . S
C143 C142 1.419 . S
C143 C144 1.391 . S
C143 C147 1.397 . S
C144 C139 1.391 . S
C144 C143 1.391 . S
C144 C145 1.399 . S
C145 C144 1.399 . S
C145 C146 1.396 . S
C145 C148 1.453 . S
C145 C149 1.684 . S
C146 C127 1.723 . S
C146 C145 1.396 . S
C146 C147 1.394 . S
C147 C143 1.397 . S
C147 C146 1.394 . S
C147 C157 1.723 . S
C148 C145 1.453 . S
C148 H172 0.982 . S
C148 H173 0.979 . S
C148 H174 0.977 . S
C149 C145 1.684 . S
C149 H175 0.979 . S
C149 H176 0.980 . S
C149 H177 0.983 1_554 S
C150 H126 0.948 . S
C150 C151 1.391 . S
C150 C155 1.391 . S
C151 C150 1.391 . S
C151 C152 1.391 . S
C152 H129 0.947 . S
C152 C151 1.391 . S
C152 C153 1.392 . S
C153 H130 0.948 . S
C153 C152 1.392 . S
C153 C154 1.419 . S
C154 C153 1.419 . S
C154 C155 1.391 . S
C154 C158 1.397 . S
C155 C150 1.391 . S
C155 C154 1.391 . S
C155 C156 1.399 . S
C156 C155 1.399 . S
C156 C157 1.396 . S
C156 C159 1.453 . S
C156 C160 1.684 . S
C157 C147 1.723 . S
C157 C156 1.396 . S
C157 C158 1.394 . S
C158 C128 1.723 . S
C158 C154 1.397 . S
C158 C157 1.394 . S
C159 H131 0.982 . S
C159 H135 0.979 . S
C159 H136 0.977 . S
C159 C156 1.453 . S
C160 H132 0.979 . S
C160 H133 0.980 . S
C160 H134 0.983 . S
C160 C156 1.684 . S
H161 C179 0.948 . S
H162 C120 0.948 . S
H163 C138 0.979 . S
H164 C138 0.980 . S
H165 C138 0.983 . S
H166 C137 0.982 . S
H167 C137 0.979 . S
H168 C137 0.977 . S
H169 C139 0.948 1_556 S
H170 C141 0.947 . S
H171 C142 0.948 . S
H172 C148 0.982 . S
H173 C148 0.979 . S
H174 C148 0.977 . S
H175 C149 0.979 . S
H176 C149 0.980 . S
H177 C149 0.983 1_556 S
H178 C122 0.947 . S
C179 C122 1.392 . S
C179 C123 1.419 . S
C179 H161 0.948 . S
C180 C181 1.391 . S
C180 C184 1.391 . S
C180 H222 0.948 . S
C181 C180 1.391 . S
C181 C182 1.391 . S
C182 C181 1.391 . S
C182 H238 0.947 . S
C182 C239 1.392 . S
C183 C184 1.391 . S
C183 C187 1.397 . S
C183 C239 1.419 . S
C184 C180 1.391 . S
C184 C183 1.391 . S
C184 C185 1.399 . S
C185 C184 1.399 . S
C185 C188 1.396 . S
C185 C197 1.453 . S
C185 C198 1.684 . S
H186 C210 0.948 . S
C187 C183 1.397 . S
C187 C188 1.394 . S
C187 C206 1.723 . S
C188 C185 1.396 . S
C188 C187 1.394 . S
C188 C218 1.723 . S
H189 C212 0.947 . S
H190 C213 0.948 . S
H191 C219 0.982 . S
H192 C220 0.979 . S
H193 C220 0.980 . S
H194 C220 0.983 . S
H195 C219 0.979 . S
H196 C219 0.977 . S
C197 C185 1.453 . S
C197 H226 0.982 . S
C197 H227 0.979 . S
C197 H228 0.977 . S
C198 C185 1.684 . S
C198 H223 0.979 . S
C198 H224 0.980 . S
C198 H225 0.983 . S
C199 C200 1.391 . S
C199 C204 1.391 . S
C199 H229 0.948 . S
C200 C199 1.391 . S
C200 C201 1.391 1_554 S
C201 C200 1.391 1_556 S
C201 C202 1.392 1_556 S
C201 H230 0.947 . S
C202 C201 1.392 1_554 S
C202 C203 1.419 . S
C202 H231 0.948 . S
C203 C202 1.419 . S
C203 C204 1.391 . S
C203 C207 1.397 . S
C204 C199 1.391 . S
C204 C203 1.391 . S
C204 C205 1.399 . S
C205 C204 1.399 . S
C205 C206 1.396 . S
C205 C208 1.453 . S
C205 C209 1.684 . S
C206 C187 1.723 . S
C206 C205 1.396 . S
C206 C207 1.394 . S
C207 C203 1.397 . S
C207 C206 1.394 . S
C207 C217 1.723 . S
C208 C205 1.453 . S
C208 H232 0.982 . S
C208 H233 0.979 . S
C208 H234 0.977 . S
C209 C205 1.684 . S
C209 H235 0.979 . S
C209 H236 0.980 . S
C209 H237 0.983 . S
C210 H186 0.948 . S
C210 C211 1.391 . S
C210 C215 1.391 . S
C211 C210 1.391 . S
C211 C212 1.391 . S
C212 H189 0.947 . S
C212 C211 1.391 . S
C212 C213 1.392 . S
C213 H190 0.948 . S
C213 C212 1.392 . S
C213 C214 1.419 . S
C214 C213 1.419 . S
C214 C215 1.391 . S
C214 C218 1.397 . S
C215 C210 1.391 . S
C215 C214 1.391 . S
C215 C216 1.399 . S
C216 C215 1.399 . S
C216 C217 1.396 . S
C216 C219 1.453 . S
C216 C220 1.684 . S
C217 C207 1.723 . S
C217 C216 1.396 . S
C217 C218 1.394 . S
C218 C188 1.723 . S
C218 C214 1.397 . S
C218 C217 1.394 . S
C219 H191 0.982 . S
C219 H195 0.979 . S
C219 H196 0.977 . S
C219 C216 1.453 . S
C220 H192 0.979 . S
C220 H193 0.980 . S
C220 H194 0.983 . S
C220 C216 1.684 . S
H221 C239 0.948 . S
H222 C180 0.948 . S
H223 C198 0.979 . S
H224 C198 0.980 . S
H225 C198 0.983 . S
H226 C197 0.982 . S
H227 C197 0.979 . S
H228 C197 0.977 . S
H229 C199 0.948 . S
H230 C201 0.947 . S
H231 C202 0.948 . S
H232 C208 0.982 . S
H233 C208 0.979 . S
H234 C208 0.977 . S
H235 C209 0.979 . S
H236 C209 0.980 . S
H237 C209 0.983 . S
H238 C182 0.947 . S
C239 C182 1.392 . S
C239 C183 1.419 . S
C239 H221 0.948 . S
C240 C241 1.391 . S
C240 C244 1.391 . S
C240 H282 0.948 1_554 S
C241 C240 1.391 . S
C241 C242 1.391 . S
C242 C241 1.391 . S
C242 H298 0.947 . S
C242 C299 1.392 . S
C243 C244 1.391 . S
C243 C247 1.397 . S
C243 C299 1.419 . S
C244 C240 1.391 . S
C244 C243 1.391 . S
C244 C245 1.399 1_554 S
C245 C244 1.399 1_556 S
C245 C248 1.396 . S
C245 C257 1.453 . S
C245 C258 1.684 . S
H246 C270 0.948 . S
C247 C243 1.397 . S
C247 C248 1.394 1_554 S
C247 C266 1.723 . S
C248 C245 1.396 . S
C248 C247 1.394 1_556 S
C248 C278 1.723 . S
H249 C272 0.947 . S
H250 C273 0.948 . S
H251 C279 0.982 . S
H252 C280 0.979 . S
H253 C280 0.980 . S
H254 C280 0.983 . S
H255 C279 0.979 . S
H256 C279 0.977 . S
C257 C245 1.453 . S
C257 H286 0.982 . S
C257 H287 0.979 . S
C257 H288 0.977 . S
C258 C245 1.684 . S
C258 H283 0.979 . S
C258 H284 0.980 . S
C258 H285 0.983 . S
C259 C260 1.391 . S
C259 C264 1.391 . S
C259 H289 0.948 . S
C260 C259 1.391 . S
C260 C261 1.391 . S
C261 C260 1.391 . S
C261 C262 1.392 . S
C261 H290 0.947 . S
C262 C261 1.392 . S
C262 C263 1.419 . S
C262 H291 0.948 . S
C263 C262 1.419 . S
C263 C264 1.391 . S
C263 C267 1.397 . S
C264 C259 1.391 . S
C264 C263 1.391 . S
C264 C265 1.399 . S
C265 C264 1.399 . S
C265 C266 1.396 . S
C265 C268 1.453 . S
C265 C269 1.684 . S
C266 C247 1.723 . S
C266 C265 1.396 . S
C266 C267 1.394 . S
C267 C263 1.397 . S
C267 C266 1.394 . S
C267 C277 1.723 1_554 S
C268 C265 1.453 . S
C268 H292 0.982 . S
C268 H293 0.979 . S
C268 H294 0.977 . S
C269 C265 1.684 . S
C269 H295 0.979 . S
C269 H296 0.980 . S
C269 H297 0.983 . S
C270 H246 0.948 . S
C270 C271 1.391 . S
C270 C275 1.391 . S
C271 C270 1.391 . S
C271 C272 1.391 . S
C272 H249 0.947 . S
C272 C271 1.391 . S
C272 C273 1.392 . S
C273 H250 0.948 . S
C273 C272 1.392 . S
C273 C274 1.419 . S
C274 C273 1.419 . S
C274 C275 1.391 . S
C274 C278 1.397 . S
C275 C270 1.391 . S
C275 C274 1.391 . S
C275 C276 1.399 . S
C276 C275 1.399 . S
C276 C277 1.396 . S
C276 C279 1.453 . S
C276 C280 1.684 . S
C277 C267 1.723 1_556 S
C277 C276 1.396 . S
C277 C278 1.394 . S
C278 C248 1.723 . S
C278 C274 1.397 . S
C278 C277 1.394 . S
C279 H251 0.982 . S
C279 H255 0.979 . S
C279 H256 0.977 . S
C279 C276 1.453 . S
C280 H252 0.979 . S
C280 H253 0.980 . S
C280 H254 0.983 . S
C280 C276 1.684 . S
H281 C299 0.948 . S
H282 C240 0.948 1_556 S
H283 C258 0.979 . S
H284 C258 0.980 . S
H285 C258 0.983 . S
H286 C257 0.982 . S
H287 C257 0.979 . S
H288 C257 0.977 . S
H289 C259 0.948 . S
H290 C261 0.947 . S
H291 C262 0.948 . S
H292 C268 0.982 . S
H293 C268 0.979 . S
H294 C268 0.977 . S
H295 C269 0.979 . S
H296 C269 0.980 . S
H297 C269 0.983 . S
H298 C242 0.947 . S
C299 C242 1.392 . S
C299 C243 1.419 . S
C299 H281 0.948 . S
C300 C301 1.391 . S
C300 C304 1.391 . S
C300 H342 0.948 . S
C301 C300 1.391 . S
C301 C302 1.391 . S
C302 C301 1.391 . S
C302 H358 0.947 . S
C302 C359 1.392 . S
C303 C304 1.391 . S
C303 C307 1.397 . S
C303 C359 1.419 . S
C304 C300 1.391 . S
C304 C303 1.391 . S
C304 C305 1.399 . S
C305 C304 1.399 . S
C305 C308 1.396 . S
C305 C317 1.453 . S
C305 C318 1.684 . S
H306 C330 0.948 1_556 S
C307 C303 1.397 . S
C307 C308 1.394 . S
C307 C326 1.723 1_554 S
C308 C305 1.396 . S
C308 C307 1.394 . S
C308 C338 1.723 . S
H309 C332 0.947 . S
H310 C333 0.948 . S
H311 C339 0.982 . S
H312 C340 0.979 . S
H313 C340 0.980 . S
H314 C340 0.983 . S
H315 C339 0.979 . S
H316 C339 0.977 . S
C317 C305 1.453 . S
C317 H346 0.982 . S
C317 H347 0.979 . S
C317 H348 0.977 . S
C318 C305 1.684 . S
C318 H343 0.979 . S
C318 H344 0.980 . S
C318 H345 0.983 . S
C319 C320 1.391 . S
C319 C324 1.391 . S
C319 H349 0.948 . S
C320 C319 1.391 . S
C320 C321 1.391 . S
C321 C320 1.391 . S
C321 C322 1.392 . S
C321 H350 0.947 . S
C322 C321 1.392 . S
C322 C323 1.419 . S
C322 H351 0.948 . S
C323 C322 1.419 . S
C323 C324 1.391 . S
C323 C327 1.397 . S
C324 C319 1.391 . S
C324 C323 1.391 . S
C324 C325 1.399 . S
C325 C324 1.399 . S
C325 C326 1.396 . S
C325 C328 1.453 . S
C325 C329 1.684 . S
C326 C307 1.723 1_556 S
C326 C325 1.396 . S
C326 C327 1.394 . S
C327 C323 1.397 . S
C327 C326 1.394 . S
C327 C337 1.723 . S
C328 C325 1.453 . S
C328 H352 0.982 . S
C328 H353 0.979 . S
C328 H354 0.977 . S
C329 C325 1.684 . S
C329 H355 0.979 . S
C329 H356 0.980 . S
C329 H357 0.983 . S
C330 H306 0.948 1_554 S
C330 C331 1.391 . S
C330 C335 1.391 . S
C331 C330 1.391 . S
C331 C332 1.391 . S
C332 H309 0.947 . S
C332 C331 1.391 . S
C332 C333 1.392 . S
C333 H310 0.948 . S
C333 C332 1.392 . S
C333 C334 1.419 . S
C334 C333 1.419 . S
C334 C335 1.391 . S
C334 C338 1.397 . S
C335 C330 1.391 . S
C335 C334 1.391 . S
C335 C336 1.399 1_554 S
C336 C335 1.399 1_556 S
C336 C337 1.396 . S
C336 C339 1.453 . S
C336 C340 1.684 . S
C337 C327 1.723 . S
C337 C336 1.396 . S
C337 C338 1.394 1_556 S
C338 C308 1.723 . S
C338 C334 1.397 . S
C338 C337 1.394 1_554 S
C339 H311 0.982 . S
C339 H315 0.979 . S
C339 H316 0.977 . S
C339 C336 1.453 . S
C340 H312 0.979 . S
C340 H313 0.980 . S
C340 H314 0.983 . S
C340 C336 1.684 . S
H341 C359 0.948 . S
H342 C300 0.948 . S
H343 C318 0.979 . S
H344 C318 0.980 . S
H345 C318 0.983 . S
H346 C317 0.982 . S
H347 C317 0.979 . S
H348 C317 0.977 . S
H349 C319 0.948 . S
H350 C321 0.947 . S
H351 C322 0.948 . S
H352 C328 0.982 . S
H353 C328 0.979 . S
H354 C328 0.977 . S
H355 C329 0.979 . S
H356 C329 0.980 . S
H357 C329 0.983 . S
H358 C302 0.947 . S
C359 C302 1.392 . S
C359 C303 1.419 . S
C359 H341 0.948 . S
C360 C361 1.391 . S
C360 C364 1.391 . S
C360 H402 0.948 . S
C361 C360 1.391 . S
C361 C362 1.391 . S
C362 C361 1.391 . S
C362 H418 0.947 . S
C362 C419 1.392 . S
C363 C364 1.391 . S
C363 C367 1.397 . S
C363 C419 1.419 . S
C364 C360 1.391 . S
C364 C363 1.391 . S
C364 C365 1.399 . S
C365 C364 1.399 . S
C365 C368 1.396 . S
C365 C377 1.453 . S
C365 C378 1.684 . S
H366 C390 0.948 . S
C367 C363 1.397 . S
C367 C368 1.394 . S
C367 C386 1.723 1_556 S
C368 C365 1.396 . S
C368 C367 1.394 . S
C368 C398 1.723 1_556 S
H369 C392 0.947 1_556 S
H370 C393 0.948 . S
H371 C399 0.982 . S
H372 C400 0.979 . S
H373 C400 0.980 . S
H374 C400 0.983 . S
H375 C399 0.979 . S
H376 C399 0.977 . S
C377 C365 1.453 . S
C377 H406 0.982 . S
C377 H407 0.979 . S
C377 H408 0.977 . S
C378 C365 1.684 . S
C378 H403 0.979 . S
C378 H404 0.980 . S
C378 H405 0.983 . S
C379 C380 1.391 . S
C379 C384 1.391 . S
C379 H409 0.948 . S
C380 C379 1.391 . S
C380 C381 1.391 . S
C381 C380 1.391 . S
C381 C382 1.392 . S
C381 H410 0.947 . S
C382 C381 1.392 . S
C382 C383 1.419 . S
C382 H411 0.948 . S
C383 C382 1.419 . S
C383 C384 1.391 . S
C383 C387 1.397 . S
C384 C379 1.391 . S
C384 C383 1.391 . S
C384 C385 1.399 . S
C385 C384 1.399 . S
C385 C386 1.396 . S
C385 C388 1.453 . S
C385 C389 1.684 . S
C386 C367 1.723 1_554 S
C386 C385 1.396 . S
C386 C387 1.394 . S
C387 C383 1.397 . S
C387 C386 1.394 . S
C387 C397 1.723 . S
C388 C385 1.453 . S
C388 H412 0.982 . S
C388 H413 0.979 . S
C388 H414 0.977 1_554 S
C389 C385 1.684 . S
C389 H415 0.979 . S
C389 H416 0.980 1_554 S
C389 H417 0.983 . S
C390 H366 0.948 . S
C390 C391 1.391 . S
C390 C395 1.391 . S
C391 C390 1.391 . S
C391 C392 1.391 . S
C392 H369 0.947 1_554 S
C392 C391 1.391 . S
C392 C393 1.392 1_554 S
C393 H370 0.948 . S
C393 C392 1.392 1_556 S
C393 C394 1.419 1_556 S
C394 C393 1.419 1_554 S
C394 C395 1.391 . S
C394 C398 1.397 . S
C395 C390 1.391 . S
C395 C394 1.391 . S
C395 C396 1.399 . S
C396 C395 1.399 . S
C396 C397 1.396 . S
C396 C399 1.453 . S
C396 C400 1.684 . S
C397 C387 1.723 . S
C397 C396 1.396 . S
C397 C398 1.394 . S
C398 C368 1.723 1_554 S
C398 C394 1.397 . S
C398 C397 1.394 . S
C399 H371 0.982 . S
C399 H375 0.979 . S
C399 H376 0.977 . S
C399 C396 1.453 . S
C400 H372 0.979 . S
C400 H373 0.980 . S
C400 H374 0.983 . S
C400 C396 1.684 . S
H401 C419 0.948 . S
H402 C360 0.948 . S
H403 C378 0.979 . S
H404 C378 0.980 . S
H405 C378 0.983 . S
H406 C377 0.982 . S
H407 C377 0.979 . S
H408 C377 0.977 . S
H409 C379 0.948 . S
H410 C381 0.947 . S
H411 C382 0.948 . S
H412 C388 0.982 . S
H413 C388 0.979 . S
H414 C388 0.977 1_556 S
H415 C389 0.979 . S
H416 C389 0.980 1_556 S
H417 C389 0.983 . S
H418 C362 0.947 . S
C419 C362 1.392 . S
C419 C363 1.419 . S
C419 H401 0.948 . S
C420 C421 1.391 . S
C420 C424 1.391 . S
C420 H462 0.948 . S
C421 C420 1.391 . S
C421 C422 1.391 . S
C422 C421 1.391 . S
C422 H478 0.947 . S
C422 C479 1.392 . S
C423 C424 1.391 . S
C423 C427 1.397 . S
C423 C479 1.419 . S
C424 C420 1.391 . S
C424 C423 1.391 . S
C424 C425 1.399 . S
C425 C424 1.399 . S
C425 C428 1.396 . S
C425 C437 1.453 . S
C425 C438 1.684 . S
H426 C450 0.948 . S
C427 C423 1.397 . S
C427 C428 1.394 . S
C427 C446 1.723 1_556 S
C428 C425 1.396 . S
C428 C427 1.394 . S
C428 C458 1.723 1_556 S
H429 C452 0.947 1_556 S
H430 C453 0.948 . S
H431 C459 0.982 . S
H432 C460 0.979 . S
H433 C460 0.980 . S
H434 C460 0.983 . S
H435 C459 0.979 . S
H436 C459 0.977 . S
C437 C425 1.453 . S
C437 H466 0.982 . S
C437 H467 0.979 . S
C437 H468 0.977 . S
C438 C425 1.684 . S
C438 H463 0.979 . S
C438 H464 0.980 . S
C438 H465 0.983 . S
C439 C440 1.391 . S
C439 C444 1.391 . S
C439 H469 0.948 . S
C440 C439 1.391 . S
C440 C441 1.391 . S
C441 C440 1.391 . S
C441 C442 1.392 . S
C441 H470 0.947 . S
C442 C441 1.392 . S
C442 C443 1.419 . S
C442 H471 0.948 . S
C443 C442 1.419 . S
C443 C444 1.391 . S
C443 C447 1.397 . S
C444 C439 1.391 . S
C444 C443 1.391 . S
C444 C445 1.399 . S
C445 C444 1.399 . S
C445 C446 1.396 . S
C445 C448 1.453 . S
C445 C449 1.684 . S
C446 C427 1.723 1_554 S
C446 C445 1.396 . S
C446 C447 1.394 . S
C447 C443 1.397 . S
C447 C446 1.394 . S
C447 C457 1.723 . S
C448 C445 1.453 . S
C448 H472 0.982 . S
C448 H473 0.979 . S
C448 H474 0.977 1_554 S
C449 C445 1.684 . S
C449 H475 0.979 . S
C449 H476 0.980 1_554 S
C449 H477 0.983 . S
C450 H426 0.948 . S
C450 C451 1.391 . S
C450 C455 1.391 . S
C451 C450 1.391 . S
C451 C452 1.391 . S
C452 H429 0.947 1_554 S
C452 C451 1.391 . S
C452 C453 1.392 1_554 S
C453 H430 0.948 . S
C453 C452 1.392 1_556 S
C453 C454 1.419 1_556 S
C454 C453 1.419 1_554 S
C454 C455 1.391 . S
C454 C458 1.397 . S
C455 C450 1.391 . S
C455 C454 1.391 . S
C455 C456 1.399 . S
C456 C455 1.399 . S
C456 C457 1.396 . S
C456 C459 1.453 . S
C456 C460 1.684 . S
C457 C447 1.723 . S
C457 C456 1.396 . S
C457 C458 1.394 . S
C458 C428 1.723 1_554 S
C458 C454 1.397 . S
C458 C457 1.394 . S
C459 H431 0.982 . S
C459 H435 0.979 . S
C459 H436 0.977 . S
C459 C456 1.453 . S
C460 H432 0.979 . S
C460 H433 0.980 . S
C460 H434 0.983 . S
C460 C456 1.684 . S
H461 C479 0.948 . S
H462 C420 0.948 . S
H463 C438 0.979 . S
H464 C438 0.980 . S
H465 C438 0.983 . S
H466 C437 0.982 . S
H467 C437 0.979 . S
H468 C437 0.977 . S
H469 C439 0.948 . S
H470 C441 0.947 . S
H471 C442 0.948 . S
H472 C448 0.982 . S
H473 C448 0.979 . S
H474 C448 0.977 1_556 S
H475 C449 0.979 . S
H476 C449 0.980 1_556 S
H477 C449 0.983 . S
H478 C422 0.947 . S
C479 C422 1.392 . S
C479 C423 1.419 . S
C479 H461 0.948 . S
Gd480 N511 2.661 1_545 S
Gd480 N517 2.601 . S
Gd480 O524 2.545 . S
Gd480 O525 2.606 1_655 S
Gd480 O527 2.429 . S
Gd480 O528 2.545 1_655 S
Gd480 O529 2.412 . S
Gd480 O531 2.362 1_545 S
Gd480 O532 2.324 1_655 S
Gd480 C539 2.828 . S
Gd481 N490 2.661 1_565 S
Gd481 N494 2.601 . S
Gd481 O525 2.362 1_565 S
Gd481 O526 2.324 1_455 S
Gd481 O530 2.545 . S
Gd481 O531 2.606 1_455 S
Gd481 O533 2.429 . S
Gd481 O534 2.545 . S
Gd481 O535 2.412 . S
Gd481 C548 2.828 . S
C482 C485 1.417 . S
C482 C487 1.431 . S
C482 C488 1.412 . S
C483 C486 1.437 . S
C483 C487 1.317 . S
C483 H502 0.929 . S
C484 C485 1.426 . S
C484 C486 1.413 . S
C484 N494 1.359 1_545 S
C485 C482 1.417 . S
C485 C484 1.426 . S
C485 N490 1.350 . S
C486 C483 1.437 . S
C486 C484 1.413 . S
C486 C496 1.405 . S
C487 C482 1.431 . S
C487 C483 1.317 . S
C487 H498 0.930 . S
C488 C482 1.412 . S
C488 C489 1.355 . S
C488 H500 0.930 . S
C489 C488 1.355 . S
C489 C491 1.402 . S
C489 H501 0.930 1_455 S
N490 Gd481 2.661 1_545 S
N490 C485 1.350 . S
N490 C491 1.307 . S
C491 C489 1.402 . S
C491 N490 1.307 . S
C491 H492 0.930 1_455 S
H492 C491 0.930 1_655 S
C493 N494 1.334 . S
C493 C495 1.394 . S
C493 H497 0.930 . S
N494 Gd481 2.601 . S
N494 C484 1.359 1_565 S
N494 C493 1.334 . S
C495 C493 1.394 . S
C495 C496 1.342 1_565 S
C495 H507 0.930 . S
C496 C486 1.405 . S
C496 C495 1.342 1_545 S
C496 H508 0.933 . S
H497 C493 0.930 . S
H498 C487 0.930 . S
H499 C516 0.916 1_455 S
H500 C488 0.930 . S
H501 C489 0.930 1_655 S
H502 C483 0.929 . S
H503 C521 0.930 . S
H504 C512 0.930 . S
H505 C513 0.930 1_455 S
H506 C537 0.929 . S
H507 C495 0.930 . S
H508 C496 0.933 . S
H509 C538 0.930 . S
H510 C519 0.930 . S
N511 Gd480 2.661 1_565 S
N511 C515 1.350 . S
N511 C516 1.319 . S
C512 H504 0.930 . S
C512 C513 1.355 . S
C512 C514 1.412 . S
C513 H505 0.930 1_655 S
C513 C512 1.355 . S
C513 C516 1.403 . S
C514 C512 1.412 . S
C514 C515 1.417 . S
C514 C538 1.431 . S
C515 N511 1.350 . S
C515 C514 1.417 . S
C515 C518 1.426 1_565 S
C516 H499 0.916 1_655 S
C516 N511 1.319 . S
C516 C513 1.403 . S
N517 Gd480 2.601 . S
N517 C518 1.359 . S
N517 C521 1.334 . S
C518 C515 1.426 1_545 S
C518 N517 1.359 . S
C518 C522 1.412 1_545 S
C519 H510 0.930 . S
C519 C520 1.359 . S
C519 C521 1.394 . S
C520 C519 1.359 . S
C520 C522 1.387 1_545 S
C520 H523 0.929 . S
C521 H503 0.930 . S
C521 N517 1.334 . S
C521 C519 1.394 . S
C522 C518 1.412 1_565 S
C522 C520 1.387 1_565 S
C522 C537 1.443 . S
H523 C520 0.929 . S
O524 Gd480 2.545 . S
O524 C539 1.258 . S
O525 Gd480 2.606 1_455 S
O525 Gd481 2.362 1_545 S
O525 C536 1.284 . S
O526 Gd481 2.324 1_655 S
O526 C546 1.254 1_565 S
O527 Gd480 2.429 . S
O527 C546 1.268 . S
O528 Gd480 2.545 1_455 S
O528 C536 1.250 . S
O529 Gd480 2.412 . S
O529 C539 1.252 . S
O530 Gd481 2.545 . S
O530 C548 1.258 . S
O531 Gd480 2.362 1_565 S
O531 Gd481 2.606 1_655 S
O531 C547 1.284 . S
O532 Gd480 2.324 1_455 S
O532 C555 1.254 . S
O533 Gd481 2.429 . S
O533 C555 1.268 1_565 S
O534 Gd481 2.545 . S
O534 C547 1.250 1_455 S
O535 Gd481 2.412 . S
O535 C548 1.252 . S
C536 O525 1.284 . S
C536 O528 1.250 . S
C537 H506 0.929 . S
C537 C522 1.443 . S
C537 C538 1.317 . S
C538 H509 0.930 . S
C538 C514 1.431 . S
C538 C537 1.317 . S
C539 Gd480 2.828 . S
C539 O524 1.258 . S
C539 O529 1.252 . S
C539 C540 1.497 . S
C540 C539 1.497 . S
C540 C541 1.395 . S
C540 C542 1.380 . S
C541 C540 1.395 . S
C541 C544 1.398 . S
C541 H556 0.930 . S
C542 C540 1.380 . S
C542 C543 1.391 . S
C542 H557 0.930 1_655 S
C543 C542 1.391 . S
C543 C545 1.387 . S
C544 C541 1.398 . S
C544 C545 1.380 . S
C544 H558 0.930 . S
C545 C543 1.387 . S
C545 C544 1.380 . S
C545 H559 0.930 . S
C546 O526 1.254 1_545 S
C546 O527 1.268 . S
C547 O531 1.284 . S
C547 O534 1.250 1_655 S
C548 Gd481 2.828 . S
C548 O530 1.258 . S
C548 O535 1.252 . S
C548 C549 1.497 . S
C549 C548 1.497 . S
C549 C550 1.395 . S
C549 C551 1.380 . S
C550 C549 1.395 . S
C550 C553 1.398 . S
C550 H560 0.930 . S
C551 C549 1.380 . S
C551 C552 1.391 . S
C551 H561 0.930 . S
C552 C551 1.391 . S
C552 C554 1.387 . S
C553 C550 1.398 . S
C553 C554 1.380 . S
C553 H562 0.930 . S
C554 C552 1.387 . S
C554 C553 1.380 . S
C554 H563 0.930 . S
C555 O532 1.254 . S
C555 O533 1.268 1_545 S
H556 C541 0.930 . S
H557 C542 0.930 1_455 S
H558 C544 0.930 . S
H559 C545 0.930 . S
H560 C550 0.930 . S
H561 C551 0.930 . S
H562 C553 0.930 . S
H563 C554 0.930 . S
Gd564 N595 2.661 . S
Gd564 N601 2.601 . S
Gd564 O608 2.545 . S
Gd564 O609 2.606 1_565 S
Gd564 O611 2.429 . S
Gd564 O612 2.545 1_565 S
Gd564 O613 2.412 . S
Gd564 O615 2.362 . S
Gd564 O616 2.324 1_565 S
Gd564 C623 2.828 . S
Gd565 N574 2.661 . S
Gd565 N578 2.601 . S
Gd565 O609 2.362 . S
Gd565 O610 2.324 1_545 S
Gd565 O614 2.545 . S
Gd565 O615 2.606 1_545 S
Gd565 O617 2.429 . S
Gd565 O618 2.545 . S
Gd565 O619 2.412 . S
Gd565 C632 2.828 . S
C566 C569 1.417 . S
C566 C571 1.431 . S
C566 C572 1.412 . S
C567 C570 1.437 . S
C567 C571 1.317 . S
C567 H586 0.929 . S
C568 C569 1.426 . S
C568 C570 1.413 . S
C568 N578 1.359 . S
C569 C566 1.417 . S
C569 C568 1.426 . S
C569 N574 1.350 . S
C570 C567 1.437 . S
C570 C568 1.413 . S
C570 C580 1.391 . S
C571 C566 1.431 . S
C571 C567 1.317 . S
C571 H582 0.930 . S
C572 C566 1.412 . S
C572 C573 1.355 . S
C572 H584 0.930 . S
C573 C572 1.355 . S
C573 C575 1.402 . S
C573 H585 0.930 1_545 S
N574 Gd565 2.661 . S
N574 C569 1.350 . S
N574 C575 1.307 . S
C575 C573 1.402 . S
C575 N574 1.307 . S
C575 H576 0.930 1_545 S
H576 C575 0.930 1_565 S
C577 N578 1.334 . S
C577 C579 1.394 . S
C577 H581 0.930 . S
N578 Gd565 2.601 . S
N578 C568 1.359 . S
N578 C577 1.334 . S
C579 C577 1.394 . S
C579 C580 1.359 . S
C579 H591 0.930 . S
C580 C570 1.391 . S
C580 C579 1.359 . S
C580 H592 0.929 . S
H581 C577 0.930 . S
H582 C571 0.930 . S
H583 C600 0.930 . S
H584 C572 0.930 . S
H585 C573 0.930 1_565 S
H586 C567 0.929 . S
H587 C605 0.930 . S
H588 C596 0.930 . S
H589 C597 0.930 . S
H590 C621 0.929 . S
H591 C579 0.930 . S
H592 C580 0.929 . S
H593 C622 0.930 . S
H594 C603 0.930 . S
N595 Gd564 2.661 . S
N595 C599 1.350 . S
N595 C600 1.307 1_565 S
C596 H588 0.930 . S
C596 C597 1.355 1_565 S
C596 C598 1.412 . S
C597 H589 0.930 . S
C597 C596 1.355 1_545 S
C597 C600 1.402 . S
C598 C596 1.412 . S
C598 C599 1.417 . S
C598 C622 1.431 . S
C599 N595 1.350 . S
C599 C598 1.417 . S
C599 C602 1.426 . S
C600 H583 0.930 . S
C600 N595 1.307 1_545 S
C600 C597 1.402 . S
N601 Gd564 2.601 . S
N601 C602 1.359 . S
N601 C605 1.334 . S
C602 C599 1.426 . S
C602 N601 1.359 . S
C602 C606 1.413 . S
C603 H594 0.930 . S
C603 C604 1.359 . S
C603 C605 1.394 . S
C604 C603 1.359 . S
C604 C606 1.391 . S
C604 H607 0.929 . S
C605 H587 0.930 . S
C605 N601 1.334 . S
C605 C603 1.394 . S
C606 C602 1.413 . S
C606 C604 1.391 . S
C606 C621 1.437 . S
H607 C604 0.929 . S
O608 Gd564 2.545 . S
O608 C623 1.258 . S
O609 Gd564 2.606 1_545 S
O609 Gd565 2.362 . S
O609 C620 1.284 . S
O610 Gd565 2.324 1_565 S
O610 C630 1.254 . S
O611 Gd564 2.429 . S
O611 C630 1.268 . S
O612 Gd564 2.545 1_545 S
O612 C620 1.250 . S
O613 Gd564 2.412 . S
O613 C623 1.252 . S
O614 Gd565 2.545 . S
O614 C632 1.258 . S
O615 Gd564 2.362 . S
O615 Gd565 2.606 1_565 S
O615 C631 1.284 . S
O616 Gd564 2.324 1_545 S
O616 C639 1.254 . S
O617 Gd565 2.429 . S
O617 C639 1.268 . S
O618 Gd565 2.545 . S
O618 C631 1.250 1_545 S
O619 Gd565 2.412 . S
O619 C632 1.252 . S
C620 O609 1.284 . S
C620 O612 1.250 . S
C621 H590 0.929 . S
C621 C606 1.437 . S
C621 C622 1.317 . S
C622 H593 0.930 . S
C622 C598 1.431 . S
C622 C621 1.317 . S
C623 Gd564 2.828 . S
C623 O608 1.258 . S
C623 O613 1.252 . S
C623 C624 1.497 . S
C624 C623 1.497 . S
C624 C625 1.395 . S
C624 C626 1.380 . S
C625 C624 1.395 . S
C625 C628 1.398 . S
C625 H640 0.930 . S
C626 C624 1.380 . S
C626 C627 1.391 . S
C626 H641 0.930 1_565 S
C627 C626 1.391 . S
C627 C629 1.387 . S
C628 C625 1.398 . S
C628 C629 1.380 . S
C628 H642 0.930 . S
C629 C627 1.387 . S
C629 C628 1.380 . S
C629 H643 0.930 . S
C630 O610 1.254 . S
C630 O611 1.268 . S
C631 O615 1.284 . S
C631 O618 1.250 1_565 S
C632 Gd565 2.828 . S
C632 O614 1.258 . S
C632 O619 1.252 . S
C632 C633 1.497 . S
C633 C632 1.497 . S
C633 C634 1.395 . S
C633 C635 1.380 . S
C634 C633 1.395 . S
C634 C637 1.398 . S
C634 H644 0.930 . S
C635 C633 1.380 . S
C635 C636 1.391 . S
C635 H645 0.930 . S
C636 C635 1.391 . S
C636 C638 1.387 . S
C637 C634 1.398 . S
C637 C638 1.380 . S
C637 H646 0.930 . S
C638 C636 1.387 . S
C638 C637 1.380 . S
C638 H647 0.930 . S
C639 O616 1.254 . S
C639 O617 1.268 . S
H640 C625 0.930 . S
H641 C626 0.930 1_545 S
H642 C628 0.930 . S
H643 C629 0.930 . S
H644 C634 0.930 . S
H645 C635 0.930 . S
H646 C637 0.930 . S
H647 C638 0.930 . S
Gd648 N679 2.661 . S
Gd648 N685 2.601 . S
Gd648 O692 2.545 . S
Gd648 O693 2.606 . S
Gd648 O695 2.429 . S
Gd648 O696 2.545 . S
Gd648 O697 2.412 . S
Gd648 O699 2.362 . S
Gd648 O700 2.324 . S
Gd648 C707 2.828 . S
Gd649 N658 2.661 . S
Gd649 N662 2.601 . S
Gd649 O693 2.362 . S
Gd649 O694 2.324 . S
Gd649 O698 2.545 . S
Gd649 O699 2.606 . S
Gd649 O701 2.429 . S
Gd649 O702 2.545 . S
Gd649 O703 2.412 . S
Gd649 C716 2.828 . S
C650 C653 1.417 . S
C650 C655 1.431 . S
C650 C656 1.412 . S
C651 C654 1.437 . S
C651 C655 1.317 . S
C651 H670 0.929 . S
C652 C653 1.426 . S
C652 C654 1.413 . S
C652 N662 1.359 . S
C653 C650 1.417 . S
C653 C652 1.426 . S
C653 N658 1.350 . S
C654 C651 1.437 . S
C654 C652 1.413 . S
C654 C664 1.391 . S
C655 C650 1.431 . S
C655 C651 1.317 . S
C655 H666 0.930 . S
C656 C650 1.412 . S
C656 C657 1.355 . S
C656 H668 0.930 . S
C657 C656 1.355 . S
C657 C659 1.402 . S
C657 H669 0.930 . S
N658 Gd649 2.661 . S
N658 C653 1.350 . S
N658 C659 1.307 . S
C659 C657 1.402 . S
C659 N658 1.307 . S
C659 H660 0.930 . S
H660 C659 0.930 . S
C661 N662 1.334 . S
C661 C663 1.394 . S
C661 H665 0.930 . S
N662 Gd649 2.601 . S
N662 C652 1.359 . S
N662 C661 1.334 . S
C663 C661 1.394 . S
C663 C664 1.359 . S
C663 H675 0.930 . S
C664 C654 1.391 . S
C664 C663 1.359 . S
C664 H676 0.929 . S
H665 C661 0.930 . S
H666 C655 0.930 . S
H667 C684 0.930 . S
H668 C656 0.930 . S
H669 C657 0.930 . S
H670 C651 0.929 . S
H671 C689 0.930 . S
H672 C680 0.930 . S
H673 C681 0.930 . S
H674 C705 0.929 . S
H675 C663 0.930 . S
H676 C664 0.929 . S
H677 C706 0.930 . S
H678 C687 0.930 . S
N679 Gd648 2.661 . S
N679 C683 1.350 . S
N679 C684 1.307 . S
C680 H672 0.930 . S
C680 C681 1.355 . S
C680 C682 1.412 . S
C681 H673 0.930 . S
C681 C680 1.355 . S
C681 C684 1.402 . S
C682 C680 1.412 . S
C682 C683 1.417 . S
C682 C706 1.431 . S
C683 N679 1.350 . S
C683 C682 1.417 . S
C683 C686 1.426 . S
C684 H667 0.930 . S
C684 N679 1.307 . S
C684 C681 1.402 . S
N685 Gd648 2.601 . S
N685 C686 1.359 . S
N685 C689 1.334 . S
C686 C683 1.426 . S
C686 N685 1.359 . S
C686 C690 1.413 . S
C687 H678 0.930 . S
C687 C688 1.359 . S
C687 C689 1.394 . S
C688 C687 1.359 . S
C688 C690 1.391 . S
C688 H691 0.929 . S
C689 H671 0.930 . S
C689 N685 1.334 . S
C689 C687 1.394 . S
C690 C686 1.413 . S
C690 C688 1.391 . S
C690 C705 1.437 . S
H691 C688 0.929 . S
O692 Gd648 2.545 . S
O692 C707 1.258 . S
O693 Gd648 2.606 . S
O693 Gd649 2.362 . S
O693 C704 1.284 . S
O694 Gd649 2.324 . S
O694 C714 1.254 . S
O695 Gd648 2.429 . S
O695 C714 1.268 . S
O696 Gd648 2.545 . S
O696 C704 1.250 . S
O697 Gd648 2.412 . S
O697 C707 1.252 . S
O698 Gd649 2.545 . S
O698 C716 1.258 . S
O699 Gd648 2.362 . S
O699 Gd649 2.606 . S
O699 C715 1.284 . S
O700 Gd648 2.324 . S
O700 C723 1.254 . S
O701 Gd649 2.429 . S
O701 C723 1.268 . S
O702 Gd649 2.545 . S
O702 C715 1.250 . S
O703 Gd649 2.412 . S
O703 C716 1.252 . S
C704 O693 1.284 . S
C704 O696 1.250 . S
C705 H674 0.929 . S
C705 C690 1.437 . S
C705 C706 1.317 . S
C706 H677 0.930 . S
C706 C682 1.431 . S
C706 C705 1.317 . S
C707 Gd648 2.828 . S
C707 O692 1.258 . S
C707 O697 1.252 . S
C707 C708 1.497 . S
C708 C707 1.497 . S
C708 C709 1.395 . S
C708 C710 1.380 . S
C709 C708 1.395 . S
C709 C712 1.398 . S
C709 H724 0.930 . S
C710 C708 1.380 . S
C710 C711 1.391 . S
C710 H725 0.930 . S
C711 C710 1.391 . S
C711 C713 1.387 . S
C712 C709 1.398 . S
C712 C713 1.380 . S
C712 H726 0.930 1_556 S
C713 C711 1.387 . S
C713 C712 1.380 . S
C713 H727 0.930 1_556 S
C714 O694 1.254 . S
C714 O695 1.268 . S
C715 O699 1.284 . S
C715 O702 1.250 . S
C716 Gd649 2.828 . S
C716 O698 1.258 . S
C716 O703 1.252 . S
C716 C717 1.497 . S
C717 C716 1.497 . S
C717 C718 1.395 . S
C717 C719 1.380 . S
C718 C717 1.395 . S
C718 C721 1.398 . S
C718 H728 0.930 . S
C719 C717 1.380 . S
C719 C720 1.391 . S
C719 H729 0.930 . S
C720 C719 1.391 . S
C720 C722 1.387 . S
C721 C718 1.398 . S
C721 C722 1.380 . S
C721 H730 0.930 . S
C722 C720 1.387 . S
C722 C721 1.380 . S
C722 H731 0.930 . S
C723 O700 1.254 . S
C723 O701 1.268 . S
H724 C709 0.930 . S
H725 C710 0.930 . S
H726 C712 0.930 1_554 S
H727 C713 0.930 1_554 S
H728 C718 0.930 . S
H729 C719 0.930 . S
H730 C721 0.930 . S
H731 C722 0.930 . S
Gd732 N763 2.661 . S
Gd732 N769 2.601 . S
Gd732 O776 2.545 . S
Gd732 O777 2.607 . S
Gd732 O779 2.429 1_655 S
Gd732 O780 2.545 . S
Gd732 O781 2.412 . S
Gd732 O783 2.362 1_655 S
Gd732 O784 2.324 . S
Gd732 C791 2.828 . S
Gd733 N742 2.661 . S
Gd733 N746 2.601 . S
Gd733 O777 2.360 1_455 S
Gd733 O778 2.324 . S
Gd733 O782 2.545 . S
Gd733 O783 2.606 . S
Gd733 O785 2.429 1_455 S
Gd733 O786 2.545 . S
Gd733 O787 2.412 . S
Gd733 C800 2.828 . S
C734 C737 1.417 . S
C734 C739 1.431 . S
C734 C740 1.412 . S
C735 C738 1.437 . S
C735 C739 1.317 . S
C735 H754 0.929 . S
C736 C737 1.426 . S
C736 C738 1.413 . S
C736 N746 1.359 . S
C737 C734 1.417 . S
C737 C736 1.426 . S
C737 N742 1.350 . S
C738 C735 1.437 . S
C738 C736 1.413 . S
C738 C748 1.391 . S
C739 C734 1.431 . S
C739 C735 1.317 . S
C739 H750 0.930 . S
C740 C734 1.412 . S
C740 C741 1.355 . S
C740 H752 0.930 . S
C741 C740 1.355 . S
C741 C743 1.402 . S
C741 H753 0.930 . S
N742 Gd733 2.661 . S
N742 C737 1.350 . S
N742 C743 1.307 . S
C743 C741 1.402 . S
C743 N742 1.307 . S
C743 H744 0.930 . S
H744 C743 0.930 . S
C745 N746 1.358 . S
C745 C747 1.391 1_455 S
C745 H749 0.910 1_455 S
N746 Gd733 2.601 . S
N746 C736 1.359 . S
N746 C745 1.358 . S
C747 C745 1.391 1_655 S
C747 C748 1.359 1_655 S
C747 H759 0.930 . S
C748 C738 1.391 . S
C748 C747 1.359 1_455 S
C748 H760 0.929 . S
H749 C745 0.910 1_655 S
H750 C739 0.930 . S
H751 C768 0.930 . S
H752 C740 0.930 . S
H753 C741 0.930 . S
H754 C735 0.929 . S
H755 C773 0.930 . S
H756 C764 0.930 . S
H757 C765 0.930 . S
H758 C789 0.929 . S
H759 C747 0.930 . S
H760 C748 0.929 . S
H761 C790 0.930 . S
H762 C771 0.930 . S
N763 Gd732 2.661 . S
N763 C767 1.350 . S
N763 C768 1.307 . S
C764 H756 0.930 . S
C764 C765 1.355 . S
C764 C766 1.412 . S
C765 H757 0.930 . S
C765 C764 1.355 . S
C765 C768 1.402 . S
C766 C764 1.412 . S
C766 C767 1.417 . S
C766 C790 1.431 . S
C767 N763 1.350 . S
C767 C766 1.417 . S
C767 C770 1.426 . S
C768 H751 0.930 . S
C768 N763 1.307 . S
C768 C765 1.402 . S
N769 Gd732 2.601 . S
N769 C770 1.359 . S
N769 C773 1.334 1_655 S
C770 C767 1.426 . S
C770 N769 1.359 . S
C770 C774 1.413 . S
C771 H762 0.930 . S
C771 C772 1.359 1_455 S
C771 C773 1.394 . S
C772 C771 1.359 1_655 S
C772 C774 1.391 . S
C772 H775 0.927 1_655 S
C773 H755 0.930 . S
C773 N769 1.334 1_455 S
C773 C771 1.394 . S
C774 C770 1.413 . S
C774 C772 1.391 . S
C774 C789 1.437 . S
H775 C772 0.927 1_455 S
O776 Gd732 2.545 . S
O776 C791 1.258 . S
O777 Gd732 2.607 . S
O777 Gd733 2.360 1_655 S
O777 C788 1.286 . S
O778 Gd733 2.324 . S
O778 C798 1.254 . S
O779 Gd732 2.429 1_455 S
O779 C798 1.268 . S
O780 Gd732 2.545 . S
O780 C788 1.250 . S
O781 Gd732 2.412 . S
O781 C791 1.252 . S
O782 Gd733 2.545 . S
O782 C800 1.258 . S
O783 Gd732 2.362 1_455 S
O783 Gd733 2.606 . S
O783 C799 1.284 . S
O784 Gd732 2.324 . S
O784 C807 1.254 . S
O785 Gd733 2.429 1_655 S
O785 C807 1.268 . S
O786 Gd733 2.545 . S
O786 C799 1.250 . S
O787 Gd733 2.412 . S
O787 C800 1.252 . S
C788 O777 1.286 . S
C788 O780 1.250 . S
C789 H758 0.929 . S
C789 C774 1.437 . S
C789 C790 1.317 . S
C790 H761 0.930 . S
C790 C766 1.431 . S
C790 C789 1.317 . S
C791 Gd732 2.828 . S
C791 O776 1.258 . S
C791 O781 1.252 . S
C791 C792 1.497 . S
C792 C791 1.497 . S
C792 C793 1.395 . S
C792 C794 1.380 . S
C793 C792 1.395 . S
C793 C796 1.398 . S
C793 H808 0.930 . S
C794 C792 1.380 . S
C794 C795 1.391 . S
C794 H809 0.930 . S
C795 C794 1.391 . S
C795 C797 1.387 . S
C796 C793 1.398 . S
C796 C797 1.380 . S
C796 H810 0.930 1_556 S
C797 C795 1.387 . S
C797 C796 1.380 . S
C797 H811 0.930 1_556 S
C798 O778 1.254 . S
C798 O779 1.268 . S
C799 O783 1.284 . S
C799 O786 1.250 . S
C800 Gd733 2.828 . S
C800 O782 1.258 . S
C800 O787 1.252 . S
C800 C801 1.497 . S
C801 C800 1.497 . S
C801 C802 1.395 . S
C801 C803 1.380 . S
C802 C801 1.395 . S
C802 C805 1.398 . S
C802 H812 0.930 . S
C803 C801 1.380 . S
C803 C804 1.391 . S
C803 H813 0.930 . S
C804 C803 1.391 . S
C804 C806 1.387 . S
C805 C802 1.398 . S
C805 C806 1.380 . S
C805 H814 0.930 . S
C806 C804 1.387 . S
C806 C805 1.380 . S
C806 H815 0.930 . S
C807 O784 1.254 . S
C807 O785 1.268 . S
H808 C793 0.930 . S
H809 C794 0.930 . S
H810 C796 0.930 1_554 S
H811 C797 0.930 1_554 S
H812 C802 0.930 . S
H813 C803 0.930 . S
H814 C805 0.930 . S
H815 C806 0.930 . S
H816 C822 0.930 . S
H817 C825 0.930 . S
H818 C826 0.930 . S
H819 C827 0.930 . S
H820 C830 0.930 . S
H821 C831 0.930 . S
C822 H816 0.930 . S
C822 C823 1.355 . S
C822 C824 1.415 . S
C823 C822 1.355 . S
C823 C825 1.419 . S
C824 C822 1.415 . S
C824 C829 1.425 . S
C824 C831 1.409 . S
C825 H817 0.930 . S
C825 C823 1.419 . S
C825 C826 1.362 . S
C826 H818 0.930 . S
C826 C825 1.362 . S
C826 C829 1.409 . S
C827 H819 0.930 . S
C827 C828 1.355 . S
C827 C829 1.415 . S
C828 C827 1.355 . S
C828 C830 1.419 . S
C829 C824 1.425 . S
C829 C826 1.409 . S
C829 C827 1.415 . S
C830 H820 0.930 . S
C830 C828 1.419 . S
C830 C831 1.362 . S
C831 H821 0.930 . S
C831 C824 1.409 . S
C831 C830 1.362 . S
H832 C838 0.930 . S
H833 C841 0.930 . S
H834 C842 0.930 . S
H835 C843 0.930 . S
H836 C846 0.930 . S
H837 C847 0.930 . S
C838 H832 0.930 . S
C838 C839 1.355 . S
C838 C840 1.415 . S
C839 C838 1.355 . S
C839 C841 1.419 . S
C840 C838 1.415 . S
C840 C845 1.425 . S
C840 C847 1.409 . S
C841 H833 0.930 . S
C841 C839 1.419 . S
C841 C842 1.362 . S
C842 H834 0.930 . S
C842 C841 1.362 . S
C842 C845 1.409 . S
C843 H835 0.930 . S
C843 C844 1.355 . S
C843 C845 1.415 . S
C844 C843 1.355 . S
C844 C846 1.419 . S
C845 C840 1.425 . S
C845 C842 1.409 . S
C845 C843 1.415 . S
C846 H836 0.930 . S
C846 C844 1.419 . S
C846 C847 1.362 . S
C847 H837 0.930 . S
C847 C840 1.409 . S
C847 C846 1.362 . S
H848 C854 0.930 . S
H849 C857 0.930 . S
H850 C858 0.930 . S
H851 C859 0.930 . S
H852 C862 0.930 . S
H853 C863 0.930 . S
C854 H848 0.930 . S
C854 C855 1.355 . S
C854 C856 1.415 . S
C855 C854 1.355 . S
C855 C857 1.419 . S
C856 C854 1.415 . S
C856 C861 1.425 . S
C856 C863 1.409 . S
C857 H849 0.930 . S
C857 C855 1.419 . S
C857 C858 1.362 . S
C858 H850 0.930 . S
C858 C857 1.362 . S
C858 C861 1.409 . S
C859 H851 0.930 . S
C859 C860 1.355 . S
C859 C861 1.415 . S
C860 C859 1.355 . S
C860 C862 1.419 . S
C861 C856 1.425 . S
C861 C858 1.409 . S
C861 C859 1.415 . S
C862 H852 0.930 . S
C862 C860 1.419 . S
C862 C863 1.362 . S
C863 H853 0.930 . S
C863 C856 1.409 . S
C863 C862 1.362 . S
H864 C870 0.930 . S
H865 C873 0.930 . S
H866 C874 0.930 1_655 S
H867 C875 0.917 1_655 S
H868 C878 0.930 . S
H869 C879 0.930 . S
C870 H864 0.930 . S
C870 C871 1.355 . S
C870 C872 1.415 . S
C871 C870 1.355 . S
C871 C873 1.419 . S
C872 C870 1.415 . S
C872 C877 1.425 . S
C872 C879 1.409 . S
C873 H865 0.930 . S
C873 C871 1.419 . S
C873 C874 1.362 . S
C874 H866 0.930 1_455 S
C874 C873 1.362 . S
C874 C877 1.409 . S
C875 H867 0.917 1_455 S
C875 C876 1.355 . S
C875 C877 1.415 . S
C876 C875 1.355 . S
C876 C878 1.419 . S
C877 C872 1.425 . S
C877 C874 1.409 . S
C877 C875 1.415 . S
C878 H868 0.930 . S
C878 C876 1.419 . S
C878 C879 1.362 . S
C879 H869 0.930 . S
C879 C872 1.409 . S
C879 C878 1.362 . S
H880 C886 0.930 . S
H881 C889 0.930 . S
H882 C890 0.930 1_556 S
H883 C891 0.930 . S
H884 C894 0.930 1_545 S
H885 C895 0.930 . S
C886 H880 0.930 . S
C886 C887 1.355 . S
C886 C888 1.415 1_554 S
C887 C886 1.355 . S
C887 C889 1.419 . S
C888 C886 1.415 1_556 S
C888 C893 1.425 . S
C888 C895 1.409 . S
C889 H881 0.930 . S
C889 C887 1.419 . S
C889 C890 1.362 . S
C890 H882 0.930 1_554 S
C890 C889 1.362 . S
C890 C893 1.409 1_554 S
C891 H883 0.930 . S
C891 C892 1.355 . S
C891 C893 1.415 . S
C892 C891 1.355 . S
C892 C894 1.419 . S
C893 C888 1.425 . S
C893 C890 1.409 1_556 S
C893 C891 1.415 . S
C894 H884 0.930 1_565 S
C894 C892 1.419 . S
C894 C895 1.362 . S
C895 H885 0.930 . S
C895 C888 1.409 . S
C895 C894 1.362 . S
H896 C902 0.930 . S
H897 C905 0.930 . S
H898 C906 0.930 . S
H899 C907 0.930 . S
H900 C910 0.930 . S
H901 C911 0.930 . S
C902 H896 0.930 . S
C902 C903 1.355 . S
C902 C904 1.415 1_554 S
C903 C902 1.355 . S
C903 C905 1.419 . S
C904 C902 1.415 1_556 S
C904 C909 1.425 . S
C904 C911 1.409 . S
C905 H897 0.930 . S
C905 C903 1.419 . S
C905 C906 1.362 . S
C906 H898 0.930 . S
C906 C905 1.362 . S
C906 C909 1.409 1_554 S
C907 H899 0.930 . S
C907 C908 1.355 . S
C907 C909 1.415 . S
C908 C907 1.355 . S
C908 C910 1.419 . S
C909 C904 1.425 . S
C909 C906 1.409 1_556 S
C909 C907 1.415 . S
C910 H900 0.930 . S
C910 C908 1.419 . S
C910 C911 1.362 . S
C911 H901 0.930 . S
C911 C904 1.409 . S
C911 C910 1.362 . S
H912 C918 0.930 1_556 S
H913 C921 0.930 . S
H914 C922 0.930 . S
H915 C923 0.930 . S
H916 C926 0.930 . S
H917 C927 0.930 . S
C918 H912 0.930 1_554 S
C918 C919 1.355 . S
C918 C920 1.415 1_554 S
C919 C918 1.355 . S
C919 C921 1.419 . S
C920 C918 1.415 1_556 S
C920 C925 1.425 . S
C920 C927 1.409 . S
C921 H913 0.930 . S
C921 C919 1.419 . S
C921 C922 1.362 . S
C922 H914 0.930 . S
C922 C921 1.362 . S
C922 C925 1.409 1_554 S
C923 H915 0.930 . S
C923 C924 1.355 . S
C923 C925 1.415 . S
C924 C923 1.355 . S
C924 C926 1.419 . S
C925 C920 1.425 . S
C925 C922 1.409 1_556 S
C925 C923 1.415 . S
C926 H916 0.930 . S
C926 C924 1.419 . S
C926 C927 1.362 . S
C927 H917 0.930 . S
C927 C920 1.409 . S
C927 C926 1.362 . S
H928 C934 0.930 . S
H929 C937 0.930 . S
H930 C938 0.930 . S
H931 C939 0.930 . S
H932 C942 0.944 . S
H933 C943 0.930 1_455 S
C934 H928 0.930 . S
C934 C935 1.355 . S
C934 C936 1.415 1_554 S
C935 C934 1.355 . S
C935 C937 1.419 . S
C936 C934 1.415 1_556 S
C936 C941 1.425 . S
C936 C943 1.409 . S
C937 H929 0.930 . S
C937 C935 1.419 . S
C937 C938 1.362 1_554 S
C938 H930 0.930 . S
C938 C937 1.362 1_556 S
C938 C941 1.409 . S
C939 H931 0.930 . S
C939 C940 1.355 . S
C939 C941 1.415 . S
C940 C939 1.355 . S
C940 C942 1.407 1_655 S
C941 C936 1.425 . S
C941 C938 1.409 . S
C941 C939 1.415 . S
C942 H932 0.944 . S
C942 C940 1.407 1_455 S
C942 C943 1.360 1_455 S
C943 H933 0.930 1_655 S
C943 C936 1.409 . S
C943 C942 1.360 1_655 S
H944 C950 0.930 . S
H945 C953 0.930 . S
H946 C954 0.930 . S
H947 C955 0.930 . S
H948 C958 0.930 1_655 S
H949 C959 0.930 . S
C950 H944 0.930 . S
C950 C951 1.355 . S
C950 C952 1.415 . S
C951 C950 1.355 . S
C951 C953 1.419 . S
C952 C950 1.415 . S
C952 C957 1.425 . S
C952 C959 1.409 . S
C953 H945 0.930 . S
C953 C951 1.419 . S
C953 C954 1.362 . S
C954 H946 0.930 . S
C954 C953 1.362 . S
C954 C957 1.409 . S
C955 H947 0.930 . S
C955 C956 1.370 . S
C955 C957 1.415 . S
C956 C955 1.370 . S
C956 C958 1.420 . S
C957 C952 1.425 . S
C957 C954 1.409 . S
C957 C955 1.415 . S
C958 H948 0.930 1_455 S
C958 C956 1.420 . S
C958 C959 1.362 . S
C959 H949 0.930 . S
C959 C952 1.409 . S
C959 C958 1.362 . S
H960 C966 0.930 . S
H961 C969 0.930 . S
H962 C970 0.930 . S
H963 C971 0.930 . S
H964 C974 0.930 . S
H965 C975 0.930 . S
C966 H960 0.930 . S
C966 C967 1.355 . S
C966 C968 1.415 . S
C967 C966 1.355 . S
C967 C969 1.419 . S
C968 C966 1.415 . S
C968 C973 1.425 . S
C968 C975 1.409 . S
C969 H961 0.930 . S
C969 C967 1.419 . S
C969 C970 1.362 . S
C970 H962 0.930 . S
C970 C969 1.362 . S
C970 C973 1.409 . S
C971 H963 0.930 . S
C971 C972 1.355 1_545 S
C971 C973 1.415 . S
C972 C971 1.355 1_565 S
C972 C974 1.419 . S
C973 C968 1.425 . S
C973 C970 1.409 . S
C973 C971 1.415 . S
C974 H964 0.930 . S
C974 C972 1.419 . S
C974 C975 1.362 1_565 S
C975 H965 0.930 . S
C975 C968 1.409 . S
C975 C974 1.362 1_545 S
H976 C982 0.930 . S
H977 C985 0.930 . S
H978 C986 0.930 . S
H979 C987 0.930 . S
H980 C990 0.930 . S
H981 C991 0.930 . S
C982 H976 0.930 . S
C982 C983 1.355 . S
C982 C984 1.415 . S
C983 C982 1.355 . S
C983 C985 1.419 . S
C984 C982 1.415 . S
C984 C989 1.425 . S
C984 C991 1.409 . S
C985 H977 0.930 . S
C985 C983 1.419 . S
C985 C986 1.362 . S
C986 H978 0.930 . S
C986 C985 1.362 . S
C986 C989 1.409 . S
C987 H979 0.930 . S
C987 C988 1.355 . S
C987 C989 1.415 . S
C988 C987 1.355 . S
C988 C990 1.419 . S
C989 C984 1.425 . S
C989 C986 1.409 . S
C989 C987 1.415 . S
C990 H980 0.930 . S
C990 C988 1.419 . S
C990 C991 1.362 . S
C991 H981 0.930 . S
C991 C984 1.409 . S
C991 C990 1.362 . S
H992 C998 0.930 . S
H993 C1001 0.930 . S
H994 C1002 0.930 . S
H995 C1003 0.930 . S
H996 C1006 0.930 . S
H997 C1007 0.930 . S
C998 H992 0.930 . S
C998 C999 1.355 . S
C998 C1000 1.415 . S
C999 C998 1.355 . S
C999 C1001 1.419 . S
C1000 C998 1.415 . S
C1000 C1005 1.425 . S
C1000 C1007 1.409 . S
C1001 H993 0.930 . S
C1001 C999 1.419 . S
C1001 C1002 1.362 . S
C1002 H994 0.930 . S
C1002 C1001 1.362 . S
C1002 C1005 1.409 . S
C1003 H995 0.930 . S
C1003 C1004 1.355 . S
C1003 C1005 1.415 . S
C1004 C1003 1.355 . S
C1004 C1006 1.419 . S
C1005 C1000 1.425 . S
C1005 C1002 1.409 . S
C1005 C1003 1.415 . S
C1006 H996 0.930 . S
C1006 C1004 1.419 . S
C1006 C1007 1.362 . S
C1007 H997 0.930 . S
C1007 C1000 1.409 . S
C1007 C1006 1.362 . S
H1008 C1014 0.930 . S
H1009 C1017 0.927 1_554 S
H1010 C1018 0.930 . S
H1011 C1019 0.930 . S
H1012 C1022 0.930 . S
H1013 C1023 0.930 . S
C1014 H1008 0.930 . S
C1014 C1015 1.354 1_556 S
C1014 C1016 1.415 . S
C1015 C1014 1.354 1_554 S
C1015 C1017 1.419 1_554 S
C1016 C1014 1.415 . S
C1016 C1021 1.425 . S
C1016 C1023 1.409 1_655 S
C1017 H1009 0.927 1_556 S
C1017 C1015 1.419 1_556 S
C1017 C1018 1.362 . S
C1018 H1010 0.930 . S
C1018 C1017 1.362 . S
C1018 C1021 1.409 . S
C1019 H1011 0.930 . S
C1019 C1020 1.355 1_655 S
C1019 C1021 1.415 . S
C1020 C1019 1.355 1_455 S
C1020 C1022 1.419 . S
C1021 C1016 1.425 . S
C1021 C1018 1.409 . S
C1021 C1019 1.415 . S
C1022 H1012 0.930 . S
C1022 C1020 1.419 . S
C1022 C1023 1.362 . S
C1023 H1013 0.930 . S
C1023 C1016 1.409 1_455 S
C1023 C1022 1.362 . S
H1024 C1030 0.930 . S
H1025 C1033 0.930 . S
H1026 C1034 0.930 . S
H1027 C1035 0.942 1_554 S
H1028 C1038 0.930 . S
H1029 C1039 0.930 . S
C1030 H1024 0.930 . S
C1030 C1031 1.355 1_556 S
C1030 C1032 1.415 . S
C1031 C1030 1.355 1_554 S
C1031 C1033 1.419 . S
C1032 C1030 1.415 . S
C1032 C1037 1.425 . S
C1032 C1039 1.409 . S
C1033 H1025 0.930 . S
C1033 C1031 1.419 . S
C1033 C1034 1.362 . S
C1034 H1026 0.930 . S
C1034 C1033 1.362 . S
C1034 C1037 1.409 1_554 S
C1035 H1027 0.942 1_556 S
C1035 C1036 1.373 . S
C1035 C1037 1.385 1_545 S
C1036 C1035 1.373 . S
C1036 C1038 1.419 . S
C1037 C1032 1.425 . S
C1037 C1034 1.409 1_556 S
C1037 C1035 1.385 1_565 S
C1038 H1028 0.930 . S
C1038 C1036 1.419 . S
C1038 C1039 1.362 1_545 S
C1039 H1029 0.930 . S
C1039 C1032 1.409 . S
C1039 C1038 1.362 1_565 S
H1040 C1046 0.930 . S
H1041 C1049 0.930 . S
H1042 C1050 0.930 . S
H1043 C1051 0.930 . S
H1044 C1054 0.930 . S
H1045 C1055 0.930 . S
C1046 H1040 0.930 . S
C1046 C1047 1.355 1_556 S
C1046 C1048 1.415 . S
C1047 C1046 1.355 1_554 S
C1047 C1049 1.419 . S
C1048 C1046 1.415 . S
C1048 C1053 1.425 . S
C1048 C1055 1.409 . S
C1049 H1041 0.930 . S
C1049 C1047 1.419 . S
C1049 C1050 1.362 . S
C1050 H1042 0.930 . S
C1050 C1049 1.362 . S
C1050 C1053 1.409 1_554 S
C1051 H1043 0.930 . S
C1051 C1052 1.355 . S
C1051 C1053 1.415 . S
C1052 C1051 1.355 . S
C1052 C1054 1.419 . S
C1053 C1048 1.425 . S
C1053 C1050 1.409 1_556 S
C1053 C1051 1.415 . S
C1054 H1044 0.930 . S
C1054 C1052 1.419 . S
C1054 C1055 1.362 . S
C1055 H1045 0.930 . S
C1055 C1048 1.409 . S
C1055 C1054 1.362 . S
H1056 C1062 0.930 . S
H1057 C1065 0.930 . S
H1058 C1066 0.930 . S
H1059 C1067 0.930 . S
H1060 C1070 0.930 . S
H1061 C1071 0.930 . S
C1062 H1056 0.930 . S
C1062 C1063 1.355 1_554 S
C1062 C1064 1.415 1_554 S
C1063 C1062 1.355 1_556 S
C1063 C1065 1.419 . S
C1064 C1062 1.415 1_556 S
C1064 C1069 1.425 . S
C1064 C1071 1.409 1_556 S
C1065 H1057 0.930 . S
C1065 C1063 1.419 . S
C1065 C1066 1.362 . S
C1066 H1058 0.930 . S
C1066 C1065 1.362 . S
C1066 C1069 1.409 . S
C1067 H1059 0.930 . S
C1067 C1068 1.355 . S
C1067 C1069 1.415 . S
C1068 C1067 1.355 . S
C1068 C1070 1.419 . S
C1069 C1064 1.425 . S
C1069 C1066 1.409 . S
C1069 C1067 1.415 . S
C1070 H1060 0.930 . S
C1070 C1068 1.419 . S
C1070 C1071 1.362 1_556 S
C1071 H1061 0.930 . S
C1071 C1064 1.409 1_554 S
C1071 C1070 1.362 1_554 S
H1072 C1078 0.930 . S
H1073 C1081 0.930 . S
H1074 C1082 0.930 . S
H1075 C1083 0.930 . S
H1076 C1086 0.930 . S
H1077 C1087 0.930 . S
C1078 H1072 0.930 . S
C1078 C1079 1.355 . S
C1078 C1080 1.415 . S
C1079 C1078 1.355 . S
C1079 C1081 1.419 . S
C1080 C1078 1.415 . S
C1080 C1085 1.425 . S
C1080 C1087 1.409 . S
C1081 H1073 0.930 . S
C1081 C1079 1.419 . S
C1081 C1082 1.362 . S
C1082 H1074 0.930 . S
C1082 C1081 1.362 . S
C1082 C1085 1.409 . S
C1083 H1075 0.930 . S
C1083 C1084 1.355 . S
C1083 C1085 1.415 . S
C1084 C1083 1.355 . S
C1084 C1086 1.419 . S
C1085 C1080 1.425 . S
C1085 C1082 1.409 . S
C1085 C1083 1.415 . S
C1086 H1076 0.930 . S
C1086 C1084 1.419 . S
C1086 C1087 1.362 . S
C1087 H1077 0.930 . S
C1087 C1080 1.409 . S
C1087 C1086 1.362 . S
H1088 C1094 0.930 . S
H1089 C1097 0.930 . S
H1090 C1098 0.930 . S
H1091 C1099 0.930 . S
H1092 C1102 0.930 . S
H1093 C1103 0.930 . S
C1094 H1088 0.930 . S
C1094 C1095 1.355 . S
C1094 C1096 1.415 . S
C1095 C1094 1.355 . S
C1095 C1097 1.419 . S
C1096 C1094 1.415 . S
C1096 C1101 1.425 . S
C1096 C1103 1.409 . S
C1097 H1089 0.930 . S
C1097 C1095 1.419 . S
C1097 C1098 1.362 . S
C1098 H1090 0.930 . S
C1098 C1097 1.362 . S
C1098 C1101 1.409 . S
C1099 H1091 0.930 . S
C1099 C1100 1.355 . S
C1099 C1101 1.415 . S
C1100 C1099 1.355 . S
C1100 C1102 1.419 . S
C1101 C1096 1.425 . S
C1101 C1098 1.409 . S
C1101 C1099 1.415 . S
C1102 H1092 0.930 . S
C1102 C1100 1.419 . S
C1102 C1103 1.362 . S
C1103 H1093 0.930 . S
C1103 C1096 1.409 . S
C1103 C1102 1.362 . S
H1104 C1110 0.930 . S
H1105 C1113 0.930 . S
H1106 C1114 0.930 . S
H1107 C1115 0.930 . S
H1108 C1118 0.930 . S
H1109 C1119 0.930 . S
C1110 H1104 0.930 . S
C1110 C1111 1.355 . S
C1110 C1112 1.415 . S
C1111 C1110 1.355 . S
C1111 C1113 1.419 . S
C1112 C1110 1.415 . S
C1112 C1117 1.425 . S
C1112 C1119 1.409 . S
C1113 H1105 0.930 . S
C1113 C1111 1.419 . S
C1113 C1114 1.362 . S
C1114 H1106 0.930 . S
C1114 C1113 1.362 . S
C1114 C1117 1.409 . S
C1115 H1107 0.930 . S
C1115 C1116 1.355 . S
C1115 C1117 1.415 . S
C1116 C1115 1.355 . S
C1116 C1118 1.419 . S
C1117 C1112 1.425 . S
C1117 C1114 1.409 . S
C1117 C1115 1.415 . S
C1118 H1108 0.930 . S
C1118 C1116 1.419 . S
C1118 C1119 1.362 . S
C1119 H1109 0.930 . S
C1119 C1112 1.409 . S
C1119 C1118 1.362 . S
H1120 C1126 0.930 . S
H1121 C1129 0.930 . S
H1122 C1130 0.930 . S
H1123 C1131 0.930 . S
H1124 C1134 0.930 . S
H1125 C1135 0.930 . S
C1126 H1120 0.930 . S
C1126 C1127 1.355 . S
C1126 C1128 1.415 . S
C1127 C1126 1.355 . S
C1127 C1129 1.419 . S
C1128 C1126 1.415 . S
C1128 C1133 1.425 . S
C1128 C1135 1.409 . S
C1129 H1121 0.930 . S
C1129 C1127 1.419 . S
C1129 C1130 1.362 . S
C1130 H1122 0.930 . S
C1130 C1129 1.362 . S
C1130 C1133 1.409 . S
C1131 H1123 0.930 . S
C1131 C1132 1.355 . S
C1131 C1133 1.415 . S
C1132 C1131 1.355 . S
C1132 C1134 1.419 . S
C1133 C1128 1.425 . S
C1133 C1130 1.409 . S
C1133 C1131 1.415 . S
C1134 H1124 0.930 . S
C1134 C1132 1.419 . S
C1134 C1135 1.362 . S
C1135 H1125 0.930 . S
C1135 C1128 1.409 . S
C1135 C1134 1.362 . S
H1136 C1142 0.930 . S
H1137 C1145 0.930 . S
H1138 C1146 0.930 . S
H1139 C1147 0.930 . S
H1140 C1150 0.930 1_455 S
H1141 C1151 0.930 1_455 S
C1142 H1136 0.930 . S
C1142 C1143 1.355 . S
C1142 C1144 1.415 . S
C1143 C1142 1.355 . S
C1143 C1145 1.419 . S
C1144 C1142 1.415 . S
C1144 C1149 1.425 . S
C1144 C1151 1.409 . S
C1145 H1137 0.930 . S
C1145 C1143 1.419 . S
C1145 C1146 1.362 . S
C1146 H1138 0.930 . S
C1146 C1145 1.362 . S
C1146 C1149 1.409 . S
C1147 H1139 0.930 . S
C1147 C1148 1.355 . S
C1147 C1149 1.415 . S
C1148 C1147 1.355 . S
C1148 C1150 1.419 . S
C1149 C1144 1.425 . S
C1149 C1146 1.409 . S
C1149 C1147 1.415 . S
C1150 H1140 0.930 1_655 S
C1150 C1148 1.419 . S
C1150 C1151 1.362 . S
C1151 H1141 0.930 1_655 S
C1151 C1144 1.409 . S
C1151 C1150 1.362 . S
H1152 C1158 0.930 . S
H1153 C1161 0.930 . S
H1154 C1162 0.930 1_545 S
H1155 C1163 0.930 1_545 S
H1156 C1166 0.930 . S
H1157 C1167 0.930 . S
C1158 H1152 0.930 . S
C1158 C1159 1.355 . S
C1158 C1160 1.415 . S
C1159 C1158 1.355 . S
C1159 C1161 1.419 . S
C1160 C1158 1.415 . S
C1160 C1165 1.425 . S
C1160 C1167 1.409 . S
C1161 H1153 0.930 . S
C1161 C1159 1.419 . S
C1161 C1162 1.362 . S
C1162 H1154 0.930 1_565 S
C1162 C1161 1.362 . S
C1162 C1165 1.409 . S
C1163 H1155 0.930 1_565 S
C1163 C1164 1.355 . S
C1163 C1165 1.415 . S
C1164 C1163 1.355 . S
C1164 C1166 1.419 . S
C1165 C1160 1.425 . S
C1165 C1162 1.409 . S
C1165 C1163 1.415 . S
C1166 H1156 0.930 . S
C1166 C1164 1.419 . S
C1166 C1167 1.362 . S
C1167 H1157 0.930 . S
C1167 C1160 1.409 . S
C1167 C1166 1.362 . S
H1168 C1174 0.930 . S
H1169 C1177 0.930 . S
H1170 C1178 0.930 . S
H1171 C1179 0.930 . S
H1172 C1182 0.930 . S
H1173 C1183 0.930 . S
C1174 H1168 0.930 . S
C1174 C1175 1.355 . S
C1174 C1176 1.415 . S
C1175 C1174 1.355 . S
C1175 C1177 1.419 . S
C1176 C1174 1.415 . S
C1176 C1181 1.425 . S
C1176 C1183 1.409 . S
C1177 H1169 0.930 . S
C1177 C1175 1.419 . S
C1177 C1178 1.362 . S
C1178 H1170 0.930 . S
C1178 C1177 1.362 . S
C1178 C1181 1.409 . S
C1179 H1171 0.930 . S
C1179 C1180 1.355 . S
C1179 C1181 1.415 . S
C1180 C1179 1.355 . S
C1180 C1182 1.419 . S
C1181 C1176 1.425 . S
C1181 C1178 1.409 . S
C1181 C1179 1.415 . S
C1182 H1172 0.930 . S
C1182 C1180 1.419 . S
C1182 C1183 1.362 . S
C1183 H1173 0.930 . S
C1183 C1176 1.409 . S
C1183 C1182 1.362 . S
H1184 C1190 0.930 . S
H1185 C1193 0.930 . S
H1186 C1194 0.930 . S
H1187 C1195 0.930 . S
H1188 C1198 0.930 . S
H1189 C1199 0.930 . S
C1190 H1184 0.930 . S
C1190 C1191 1.355 . S
C1190 C1192 1.415 . S
C1191 C1190 1.355 . S
C1191 C1193 1.419 . S
C1192 C1190 1.415 . S
C1192 C1197 1.425 . S
C1192 C1199 1.409 . S
C1193 H1185 0.930 . S
C1193 C1191 1.419 . S
C1193 C1194 1.362 . S
C1194 H1186 0.930 . S
C1194 C1193 1.362 . S
C1194 C1197 1.409 . S
C1195 H1187 0.930 . S
C1195 C1196 1.355 . S
C1195 C1197 1.415 . S
C1196 C1195 1.355 . S
C1196 C1198 1.419 . S
C1197 C1192 1.425 . S
C1197 C1194 1.409 . S
C1197 C1195 1.415 . S
C1198 H1188 0.930 . S
C1198 C1196 1.419 . S
C1198 C1199 1.362 . S
C1199 H1189 0.930 . S
C1199 C1192 1.409 . S
C1199 C1198 1.362 . S
C823 C391 2.540 . S
C828 C555 2.512 . S
C844 C639 2.475 . S
C839 C451 2.524 . S
C860 C715 2.385 . S
C855 C241 2.284 . S
C876 C799 2.335 . S
C871 C331 2.231 . S
C892 C546 2.499 1_565 S
C887 C121 2.259 . S
C903 C211 2.466 . S
C908 C630 2.522 . S
C919 C31 2.585 . S
C924 C704 2.400 . S
C935 C91 2.299 . S
C940 C788 2.333 . S
C956 C543 0.815 1_455 S
C951 C301 0.864 . S
C972 C627 0.743 . S
C967 C380 0.821 . S
C988 C720 0.778 . S
C983 C440 0.803 . S
C999 C260 0.720 . S
C1004 C804 0.780 . S
C1015 C61 0.810 . S
C1020 C552 0.813 . S
C1036 C636 0.773 . S
C1031 C140 0.665 . S
C1052 C711 0.799 . S
C1047 C200 0.767 . S
C1063 C20 0.888 1_556 S
C1068 C795 0.803 . S
C1079 C320 3.010 . S
C1084 C536 3.053 . S
C1095 C361 2.648 . S
C1100 C620 3.001 . S
C1116 C714 3.120 . S
C1111 C421 2.571 . S
C1132 C798 3.151 . S
C1127 C271 2.894 . S
C1143 C80 3.039 . S
C1148 C547 3.018 . S
C1164 C631 3.018 . S
C1159 C151 3.003 . S
C1180 C723 3.118 . S
C1175 C181 2.513 . S
C1191 C1 2.519 . S
C1196 C807 3.133 . S
