# Generated by pormake.
# Topology dag, (6,3)-cn, num edge types: 1
# Building blocks:
#     Node 0, Type 0, BuildingBlock: MIDCAF_clean_sbu_0, # of connection points: 6
#     Node 1, Type 0, BuildingBlock: MIDCAF_clean_sbu_0, # of connection points: 6
#     Node 2, Type 0, BuildingBlock: MIDCAF_clean_sbu_0, # of connection points: 6
#     Node 3, Type 0, BuildingBlock: MIDCAF_clean_sbu_0, # of connection points: 6
#     Node 4, Type 1, BuildingBlock: BETDAH_clean_linker_0, # of connection points: 3
#     Node 5, Type 1, BuildingBlock: BETDAH_clean_linker_0, # of connection points: 3
#     Node 6, Type 1, BuildingBlock: BETDAH_clean_linker_0, # of connection points: 3
#     Node 7, Type 1, BuildingBlock: BETDAH_clean_linker_0, # of connection points: 3
#     Node 8, Type 1, BuildingBlock: BETDAH_clean_linker_0, # of connection points: 3
#     Node 9, Type 1, BuildingBlock: BETDAH_clean_linker_0, # of connection points: 3
#     Node 10, Type 1, BuildingBlock: BETDAH_clean_linker_0, # of connection points: 3
#     Node 11, Type 1, BuildingBlock: BETDAH_clean_linker_0, # of connection points: 3
#     Edge 12, Type (0, 1), BuildingBlock: TEMPAE_clean_linker_10, # of connection points: 2
#     Edge 13, Type (0, 1), BuildingBlock: TEMPAE_clean_linker_10, # of connection points: 2
#     Edge 14, Type (0, 1), BuildingBlock: TEMPAE_clean_linker_10, # of connection points: 2
#     Edge 15, Type (0, 1), BuildingBlock: TEMPAE_clean_linker_10, # of connection points: 2
#     Edge 16, Type (0, 1), BuildingBlock: TEMPAE_clean_linker_10, # of connection points: 2
#     Edge 17, Type (0, 1), BuildingBlock: TEMPAE_clean_linker_10, # of connection points: 2
#     Edge 18, Type (0, 1), BuildingBlock: TEMPAE_clean_linker_10, # of connection points: 2
#     Edge 19, Type (0, 1), BuildingBlock: TEMPAE_clean_linker_10, # of connection points: 2
#     Edge 20, Type (0, 1), BuildingBlock: TEMPAE_clean_linker_10, # of connection points: 2
#     Edge 21, Type (0, 1), BuildingBlock: TEMPAE_clean_linker_10, # of connection points: 2
#     Edge 22, Type (0, 1), BuildingBlock: TEMPAE_clean_linker_10, # of connection points: 2
#     Edge 23, Type (0, 1), BuildingBlock: TEMPAE_clean_linker_10, # of connection points: 2
#     Edge 24, Type (0, 1), BuildingBlock: TEMPAE_clean_linker_10, # of connection points: 2
#     Edge 25, Type (0, 1), BuildingBlock: TEMPAE_clean_linker_10, # of connection points: 2
#     Edge 26, Type (0, 1), BuildingBlock: TEMPAE_clean_linker_10, # of connection points: 2
#     Edge 27, Type (0, 1), BuildingBlock: TEMPAE_clean_linker_10, # of connection points: 2
#     Edge 28, Type (0, 1), BuildingBlock: TEMPAE_clean_linker_10, # of connection points: 2
#     Edge 29, Type (0, 1), BuildingBlock: TEMPAE_clean_linker_10, # of connection points: 2
#     Edge 30, Type (0, 1), BuildingBlock: TEMPAE_clean_linker_10, # of connection points: 2
#     Edge 31, Type (0, 1), BuildingBlock: TEMPAE_clean_linker_10, # of connection points: 2
#     Edge 32, Type (0, 1), BuildingBlock: TEMPAE_clean_linker_10, # of connection points: 2
#     Edge 33, Type (0, 1), BuildingBlock: TEMPAE_clean_linker_10, # of connection points: 2
#     Edge 34, Type (0, 1), BuildingBlock: TEMPAE_clean_linker_10, # of connection points: 2
#     Edge 35, Type (0, 1), BuildingBlock: TEMPAE_clean_linker_10, # of connection points: 2
# Relax obj value: 0.134
# Max RMSD: 0.141
# Mean RMSD: 0.110
data_MOF--net-dag--node1-MIDCAF_clean_sbu_0--node2-BETDAH_clean_linker_0--edge1-TEMPAE_clean_linker_10
_symmetry_space_group_name_H-M    P1
_symmetry_Int_Tables_number       1
_symmetry_cell_setting            triclinic
loop_
_symmetry_equiv_pos_as_xyz
'x, y, z'
_cell_length_a     40.327211
_cell_length_b     42.180156
_cell_length_c     32.292312
_cell_angle_alpha  92.193788
_cell_angle_beta   89.756423
_cell_angle_gamma 89.952435
loop_
_atom_site_label
_atom_site_type_symbol
_atom_site_fract_x
_atom_site_fract_y
_atom_site_fract_z
_atom_type_partial_charge
Zn0 Zn 0.10741 0.85468 0.11001 0.0
Zn1 Zn 0.12989 0.86229 0.95943 0.0
Zn2 Zn 0.11845 0.85786 0.03777 0.0
C3 C 0.13738 0.92295 0.99168 0.0
C4 C 0.06758 0.83432 0.96782 0.0
O5 O 0.14972 0.82004 0.06235 0.0
O6 O 0.117 0.80875 0.11452 0.0
C7 C 0.14621 0.90638 0.10382 0.0
O8 O 0.1317 0.90796 0.02505 0.0
O9 O 0.13668 0.90848 0.95677 0.0
O10 O 0.08867 0.84134 0.94072 0.0
O11 O 0.07281 0.84098 0.00646 0.0
O12 O 0.14282 0.88466 0.12923 0.0
O13 O 0.13321 0.9033 0.06755 0.0
O14 O 0.06473 0.84793 0.04767 0.0
O15 O 0.06021 0.86862 0.11118 0.0
C16 C 0.04659 0.85762 0.0786 0.0
O17 O 0.15991 0.82556 0.02174 0.0
O18 O 0.16952 0.83549 0.9559 0.0
C19 C 0.14158 0.80168 0.09166 0.0
C20 C 0.17687 0.82121 0.98817 0.0
Zn21 Zn 0.59863 0.63056 0.38446 0.0
Zn22 Zn 0.62368 0.6229 0.56247 0.0
Zn23 Zn 0.61922 0.63226 0.48814 0.0
C24 C 0.62706 0.56455 0.52677 0.0
C25 C 0.5672 0.65836 0.55385 0.0
O26 O 0.65375 0.66863 0.47313 0.0
O27 O 0.62936 0.65698 0.41525 0.0
C28 C 0.62886 0.57407 0.41518 0.0
O29 O 0.63255 0.58246 0.49619 0.0
O30 O 0.61607 0.57639 0.56057 0.0
O31 O 0.58815 0.65223 0.58124 0.0
O32 O 0.57201 0.64883 0.51598 0.0
O33 O 0.61368 0.58623 0.3854 0.0
O34 O 0.63193 0.58831 0.45114 0.0
O35 O 0.56697 0.64735 0.47241 0.0
O36 O 0.55437 0.64229 0.40461 0.0
C37 C 0.54654 0.64981 0.44172 0.0
O38 O 0.66086 0.66181 0.51326 0.0
O39 O 0.66955 0.63853 0.57248 0.0
C40 C 0.64932 0.67417 0.43517 0.0
C41 C 0.67841 0.65808 0.54599 0.0
Zn42 Zn 0.82965 0.11801 0.94832 0.0
Zn43 Zn 0.87642 0.16948 0.12134 0.0
Zn44 Zn 0.85249 0.1389 0.0055 0.0
C45 C 0.90865 0.12833 0.04763 0.0
C46 C 0.82675 0.12238 0.094 0.0
O47 O 0.83172 0.17671 0.96698 0.0
O48 O 0.7901 0.14702 0.94609 0.0
C49 C 0.88632 0.15928 0.93379 0.0
O50 O 0.90022 0.11631 0.0125 0.0
O51 O 0.88867 0.14817 0.06449 0.0
O52 O 0.84416 0.13135 0.12546 0.0
O53 O 0.82421 0.13987 0.06269 0.0
O54 O 0.87628 0.13177 0.92235 0.0
O55 O 0.87047 0.17389 0.96348 0.0
O56 O 0.8759 0.09341 0.98495 0.0
O57 O 0.82542 0.07638 0.97585 0.0
C58 C 0.85595 0.07017 0.97805 0.0
O59 O 0.8566 0.19061 0.99962 0.0
O60 O 0.87633 0.18188 0.05995 0.0
C61 C 0.80314 0.17414 0.94978 0.0
C62 C 0.86092 0.20086 0.03719 0.0
Zn63 Zn 0.3991 0.34297 0.66777 0.0
Zn64 Zn 0.33635 0.35857 0.43442 0.0
Zn65 Zn 0.36045 0.34465 0.55276 0.0
C66 C 0.40395 0.33481 0.4589 0.0
C67 C 0.33715 0.39995 0.52078 0.0
O68 O 0.32854 0.31019 0.58265 0.0
O69 O 0.36649 0.32498 0.62542 0.0
C70 C 0.41979 0.3231 0.57665 0.0
O71 O 0.39661 0.33598 0.49833 0.0
O72 O 0.3834 0.34173 0.43037 0.0
O73 O 0.33957 0.37735 0.49394 0.0
O74 O 0.34614 0.39378 0.55722 0.0
O75 O 0.40048 0.33198 0.60583 0.0
O76 O 0.40853 0.3253 0.54024 0.0
O77 O 0.36591 0.38869 0.59584 0.0
O78 O 0.38992 0.38971 0.65988 0.0
C79 C 0.37587 0.40342 0.62977 0.0
O80 O 0.31793 0.31388 0.54283 0.0
O81 O 0.32501 0.34324 0.49084 0.0
C82 C 0.33939 0.31043 0.61962 0.0
C83 C 0.31105 0.31927 0.50536 0.0
H84 H 0.12362 0.07449 0.21851 0.0
H85 H 0.20486 0.13267 0.26063 0.0
H86 H 0.11405 0.17618 0.22316 0.0
C87 C 0.1335 0.09783 0.22632 0.0
C88 C 0.11451 0.12481 0.21871 0.0
C89 C 0.16634 0.10052 0.24007 0.0
C90 C 0.17931 0.13045 0.25067 0.0
C91 C 0.15964 0.15763 0.24618 0.0
C92 C 0.12788 0.15481 0.22906 0.0
N93 N 0.17188 0.18825 0.25659 0.0
C94 C 0.19235 0.19397 0.29037 0.0
H95 H 0.39893 0.64618 0.69061 0.0
H96 H 0.39568 0.7039 0.80252 0.0
H97 H 0.34385 0.61508 0.7962 0.0
C98 C 0.3884 0.65043 0.72124 0.0
C99 C 0.36946 0.62686 0.73967 0.0
C100 C 0.39722 0.67844 0.74324 0.0
C101 C 0.38709 0.6833 0.7846 0.0
C102 C 0.36792 0.66 0.80348 0.0
C103 C 0.35876 0.63245 0.78081 0.0
N104 N 0.36096 0.66141 0.84649 0.0
C105 C 0.35162 0.68869 0.86881 0.0
H106 H 0.80773 0.89912 0.10724 0.0
H107 H 0.80713 0.83593 0.20887 0.0
H108 H 0.73618 0.91111 0.20514 0.0
C109 C 0.79569 0.89008 0.13437 0.0
C110 C 0.76913 0.90735 0.15233 0.0
C111 C 0.80961 0.86384 0.15375 0.0
C112 C 0.79615 0.85499 0.19205 0.0
C113 C 0.77012 0.87272 0.21051 0.0
C114 C 0.75608 0.89778 0.18998 0.0
N115 N 0.76184 0.87007 0.25266 0.0
C116 C 0.75238 0.84204 0.26986 0.0
H117 H 0.64224 0.36195 0.61785 0.0
H118 H 0.67911 0.26934 0.64525 0.0
H119 H 0.74648 0.34786 0.63444 0.0
C120 C 0.6626 0.34642 0.6256 0.0
C121 C 0.6947 0.35861 0.62635 0.0
C122 C 0.6568 0.31399 0.6301 0.0
C123 C 0.68319 0.2944 0.64104 0.0
C124 C 0.71549 0.30696 0.64367 0.0
C125 C 0.72137 0.33875 0.63481 0.0
N126 N 0.74244 0.28751 0.65387 0.0
C127 C 0.74288 0.2733 0.69174 0.0
H128 H 0.63685 0.38135 0.3447 0.0
H129 H 0.68882 0.36758 0.22861 0.0
H130 H 0.6013 0.31291 0.25419 0.0
C131 C 0.64027 0.36842 0.31529 0.0
C132 C 0.61693 0.34558 0.30315 0.0
C133 C 0.66634 0.37649 0.28867 0.0
C134 C 0.66936 0.36075 0.2497 0.0
C135 C 0.6461 0.3373 0.23748 0.0
C136 C 0.61984 0.33012 0.26418 0.0
N137 N 0.64709 0.32187 0.19771 0.0
C138 C 0.67559 0.31825 0.17372 0.0
H139 H 0.103 0.14836 0.91996 0.0
H140 H 0.14756 0.23655 0.88739 0.0
H141 H 0.20838 0.16119 0.93199 0.0
C142 C 0.12504 0.16278 0.91636 0.0
C143 C 0.15609 0.15066 0.92692 0.0
C144 C 0.12172 0.19359 0.90231 0.0
C145 C 0.14994 0.21262 0.8981 0.0
C146 C 0.18126 0.20076 0.9088 0.0
C147 C 0.18414 0.17012 0.92394 0.0
N148 N 0.21008 0.21955 0.90546 0.0
C149 C 0.22039 0.23102 0.86781 0.0
H150 H 0.32427 0.61496 0.4307 0.0
H151 H 0.29611 0.67102 0.32908 0.0
H152 H 0.2299 0.59888 0.37166 0.0
C153 C 0.30539 0.62137 0.40873 0.0
C154 C 0.27582 0.60397 0.40553 0.0
C155 C 0.31244 0.64582 0.38212 0.0
C156 C 0.29008 0.65275 0.35055 0.0
C157 C 0.26013 0.63557 0.34691 0.0
C158 C 0.25303 0.61176 0.3748 0.0
N159 N 0.23681 0.64064 0.31511 0.0
C160 C 0.2409 0.66128 0.28303 0.0
H161 H 0.929 0.86113 0.81496 0.0
H162 H 0.8821 0.79232 0.7338 0.0
H163 H 0.83496 0.88253 0.76018 0.0
C164 C 0.90838 0.85467 0.79497 0.0
C165 C 0.88162 0.87555 0.79157 0.0
C166 C 0.90816 0.82444 0.77551 0.0
C167 C 0.88233 0.81581 0.74857 0.0
C168 C 0.85671 0.83769 0.74149 0.0
C169 C 0.85602 0.86697 0.76387 0.0
N170 N 0.83061 0.83088 0.71324 0.0
C171 C 0.82858 0.80385 0.68739 0.0
C172 C 0.19417 0.93359 0.13721 0.0
C173 C 0.16343 0.93549 0.1174 0.0
C174 C 0.20796 0.9603 0.15779 0.0
C175 C 0.18979 0.98897 0.1598 0.0
C176 C 0.15983 0.99144 0.13713 0.0
C177 C 0.14711 0.96456 0.11598 0.0
C178 C 0.24073 0.95707 0.17959 0.0
C179 C 0.13962 0.02163 0.13821 0.0
C180 C 0.17782 0.04411 0.25129 0.0
C181 C 0.18767 0.07242 0.23376 0.0
C182 C 0.18296 0.01505 0.22982 0.0
C183 C 0.19843 0.0148 0.19032 0.0
C184 C 0.21416 0.04254 0.17685 0.0
C185 C 0.20856 0.07132 0.19895 0.0
C186 C 0.16688 0.98573 0.24617 0.0
C187 C 0.23242 0.04293 0.13606 0.0
H188 H 0.20683 0.91092 0.13791 0.0
H189 H 0.12305 0.96566 0.1013 0.0
H190 H 0.25506 0.97952 0.17958 0.0
H191 H 0.23622 0.95111 0.21229 0.0
H192 H 0.25598 0.93777 0.16484 0.0
H193 H 0.13034 0.02674 0.17016 0.0
H194 H 0.15514 0.04196 0.12926 0.0
H195 H 0.11796 0.01996 0.11716 0.0
H196 H 0.16197 0.0451 0.27854 0.0
H197 H 0.21649 0.0933 0.18562 0.0
H198 H 0.1832 0.96476 0.24127 0.0
H199 H 0.14343 0.98093 0.22917 0.0
H200 H 0.16098 0.98862 0.27975 0.0
H201 H 0.2446 0.01981 0.12851 0.0
H202 H 0.2514 0.06201 0.13637 0.0
H203 H 0.21452 0.04764 0.11108 0.0
C204 C 0.50748 0.66014 0.57093 0.0
C205 C 0.53756 0.67611 0.56725 0.0
C206 C 0.48288 0.67195 0.59826 0.0
C207 C 0.48879 0.70042 0.62206 0.0
C208 C 0.51736 0.71863 0.61406 0.0
C209 C 0.54172 0.70596 0.5871 0.0
C210 C 0.45252 0.65188 0.60533 0.0
C211 C 0.52408 0.74975 0.63704 0.0
C212 C 0.41419 0.71603 0.69008 0.0
C213 C 0.42275 0.69804 0.72403 0.0
C214 C 0.43737 0.72121 0.65847 0.0
C215 C 0.46898 0.7068 0.66042 0.0
C216 C 0.47895 0.69247 0.6974 0.0
C217 C 0.45571 0.68879 0.72919 0.0
C218 C 0.42678 0.73893 0.62107 0.0
C219 C 0.51258 0.67708 0.70123 0.0
H220 H 0.50463 0.63685 0.556 0.0
H221 H 0.5652 0.71823 0.58418 0.0
H222 H 0.45422 0.64114 0.63612 0.0
H223 H 0.42976 0.66662 0.60533 0.0
H224 H 0.44991 0.63247 0.58131 0.0
H225 H 0.53895 0.76569 0.61762 0.0
H226 H 0.50079 0.76205 0.6466 0.0
H227 H 0.53868 0.74533 0.66529 0.0
H228 H 0.38859 0.72318 0.68617 0.0
H229 H 0.46211 0.67469 0.75541 0.0
H230 H 0.41754 0.72183 0.59685 0.0
H231 H 0.44792 0.75205 0.60779 0.0
H232 H 0.40648 0.75594 0.62903 0.0
H233 H 0.51413 0.65596 0.6797 0.0
H234 H 0.51737 0.66936 0.73317 0.0
H235 H 0.53249 0.69369 0.69254 0.0
C236 C 0.83014 0.06501 0.10528 0.0
C237 C 0.81147 0.0909 0.0931 0.0
C238 C 0.81575 0.03502 0.10759 0.0
C239 C 0.78153 0.03124 0.09886 0.0
C240 C 0.76284 0.05712 0.0849 0.0
C241 C 0.77828 0.08676 0.08159 0.0
C242 C 0.83691 0.00773 0.12119 0.0
C243 C 0.7263 0.05406 0.07585 0.0
C244 C 0.76264 0.94422 0.0938 0.0
C245 C 0.76028 0.93882 0.13631 0.0
C246 C 0.76573 0.97511 0.0798 0.0
C247 C 0.76541 0.00097 0.10898 0.0
C248 C 0.75732 -0.00412 0.15082 0.0
C249 C 0.75539 0.96482 0.16418 0.0
C250 C 0.77386 0.97937 0.0348 0.0
C251 C 0.7553 0.02297 0.18269 0.0
H252 H 0.85602 0.06832 0.11336 0.0
H253 H 0.76403 0.107 0.07201 0.0
H254 H 0.82897 0.00071 0.15248 0.0
H255 H 0.83377 0.98681 0.09968 0.0
H256 H 0.86367 0.01394 0.12246 0.0
H257 H 0.71714 0.07388 0.0573 0.0
H258 H 0.72076 0.03125 0.05905 0.0
H259 H 0.71232 0.05436 0.10553 0.0
H260 H 0.76509 0.92427 0.07181 0.0
H261 H 0.75333 0.96132 0.19713 0.0
H262 H 0.80115 0.97771 0.03069 0.0
H263 H 0.76562 0.00277 0.02415 0.0
H264 H 0.76236 0.96036 0.01491 0.0
H265 H 0.78076 0.03028 0.19183 0.0
H266 H 0.74179 0.01601 0.211 0.0
H267 H 0.74274 0.0438 0.16985 0.0
C268 C 0.4715 0.32867 0.61693 0.0
C269 C 0.45384 0.31315 0.58504 0.0
C270 C 0.50445 0.32058 0.62477 0.0
C271 C 0.51951 0.29536 0.60126 0.0
C272 C 0.50076 0.27794 0.5712 0.0
C273 C 0.46831 0.28771 0.56251 0.0
C274 C 0.52364 0.34029 0.65652 0.0
C275 C 0.51522 0.24969 0.54739 0.0
C276 C 0.60931 0.31241 0.58213 0.0
C277 C 0.62386 0.30133 0.61814 0.0
C278 C 0.57549 0.30882 0.5749 0.0
C279 C 0.55605 0.29172 0.60291 0.0
C280 C 0.57158 0.27634 0.63601 0.0
C281 C 0.60545 0.28188 0.64385 0.0
C282 C 0.56017 0.32688 0.54033 0.0
C283 C 0.55223 0.25597 0.66487 0.0
H284 H 0.45998 0.34817 0.63453 0.0
H285 H 0.45416 0.27524 0.5385 0.0
H286 H 0.53283 0.32501 0.68118 0.0
H287 H 0.54556 0.35112 0.64171 0.0
H288 H 0.50837 0.35958 0.67127 0.0
H289 H 0.49546 0.2339 0.5345 0.0
H290 H 0.53039 0.25784 0.52114 0.0
H291 H 0.53156 0.23576 0.5675 0.0
H292 H 0.62395 0.32639 0.56129 0.0
H293 H 0.61686 0.27259 0.6712 0.0
H294 H 0.54467 0.34642 0.55394 0.0
H295 H 0.54382 0.31136 0.52104 0.0
H296 H 0.57916 0.33732 0.5199 0.0
H297 H 0.54412 0.27059 0.69236 0.0
H298 H 0.56801 0.23652 0.67612 0.0
H299 H 0.52994 0.2455 0.64965 0.0
C300 C 0.62706 0.51774 0.39325 0.0
C301 C 0.64588 0.54408 0.40567 0.0
C302 C 0.64193 0.4915 0.37295 0.0
C303 C 0.67641 0.49213 0.36377 0.0
C304 C 0.69579 0.51835 0.37779 0.0
C305 C 0.68019 0.54408 0.39886 0.0
C306 C 0.62029 0.46365 0.35985 0.0
C307 C 0.73232 0.52063 0.36811 0.0
C308 C 0.69863 0.40796 0.34057 0.0
C309 C 0.68609 0.40492 0.30026 0.0
C310 C 0.70105 0.43788 0.36056 0.0
C311 C 0.69111 0.46494 0.3394 0.0
C312 C 0.68571 0.46236 0.29615 0.0
C313 C 0.68283 0.43206 0.2769 0.0
C314 C 0.70793 0.43987 0.40619 0.0
C315 C 0.67794 0.49114 0.27171 0.0
H316 H 0.6004 0.51831 0.39785 0.0
H317 H 0.69445 0.56512 0.40739 0.0
H318 H 0.6192 0.46145 0.32554 0.0
H319 H 0.63089 0.4413 0.37112 0.0
H320 H 0.59454 0.46615 0.37192 0.0
H321 H 0.74536 0.53537 0.39218 0.0
H322 H 0.74441 0.49702 0.36536 0.0
H323 H 0.73544 0.53223 0.33807 0.0
H324 H 0.70188 0.38685 0.35831 0.0
H325 H 0.67386 0.4298 0.24532 0.0
H326 H 0.68392 0.44337 0.42263 0.0
H327 H 0.72394 0.4605 0.41444 0.0
H328 H 0.7199 0.41793 0.41689 0.0
H329 H 0.65132 0.49727 0.27571 0.0
H330 H 0.68288 0.48662 0.23813 0.0
H331 H 0.69282 0.51184 0.28296 0.0
C332 C 0.92368 0.20007 0.90394 0.0
C333 C 0.91928 0.17057 0.92163 0.0
C334 C 0.95576 0.21143 0.89545 0.0
C335 C 0.98376 0.19332 0.90655 0.0
C336 C 0.97914 0.16391 0.92562 0.0
C337 C 0.94696 0.15264 0.9321 0.0
C338 C 0.95966 0.24247 0.87428 0.0
C339 C 0.00819 0.1444 0.93969 0.0
C340 C 0.0699 0.1917 0.86167 0.0
C341 C 0.08787 0.20514 0.89489 0.0
C342 C 0.03512 0.19128 0.86257 0.0
C343 C 0.01819 0.20409 0.89791 0.0
C344 C 0.03624 0.22106 0.92914 0.0
C345 C 0.07104 0.22138 0.9272 0.0
C346 C 0.01686 0.17363 0.82817 0.0
C347 C 0.01934 0.23522 0.9673 0.0
H348 H 0.90211 0.21404 0.89644 0.0
H349 H 0.94339 0.13018 0.94676 0.0
H350 H 0.97791 0.25792 0.89086 0.0
H351 H 0.96934 0.23781 0.84241 0.0
H352 H 0.93578 0.25547 0.87225 0.0
H353 H 0.00022 0.12314 0.9564 0.0
H354 H 0.02342 0.13646 0.91254 0.0
H355 H 0.02434 0.15901 0.96057 0.0
H356 H 0.08306 0.17886 0.83692 0.0
H357 H 0.08507 0.2314 0.95312 0.0
H358 H 0.99365 0.1862 0.82041 0.0
H359 H 0.00995 0.14971 0.83851 0.0
H360 H 0.03235 0.17066 0.79976 0.0
H361 H 0.99507 0.24583 0.95964 0.0
H362 H 0.03498 0.2537 0.98298 0.0
H363 H 0.01474 0.21621 0.98946 0.0
C364 C 0.29683 0.44413 0.53169 0.0
C365 C 0.32379 0.43081 0.50984 0.0
C366 C 0.28151 0.47186 0.51836 0.0
C367 C 0.29469 0.48721 0.48369 0.0
C368 C 0.32255 0.47404 0.46226 0.0
C369 C 0.33619 0.4455 0.47501 0.0
C370 C 0.25101 0.48422 0.54091 0.0
C371 C 0.33833 0.49025 0.42619 0.0
C372 C 0.25697 0.54768 0.41496 0.0
C373 C 0.27138 0.57573 0.43141 0.0
C374 C 0.26071 0.51891 0.43496 0.0
C375 C 0.28099 0.51792 0.47055 0.0
C376 C 0.29274 0.54654 0.48929 0.0
C377 C 0.28632 0.57522 0.47054 0.0
C378 C 0.24514 0.48925 0.41612 0.0
C379 C 0.31472 0.54683 0.52692 0.0
H380 H 0.28686 0.43214 0.55811 0.0
H381 H 0.35692 0.43484 0.45808 0.0
H382 H 0.25799 0.50395 0.56275 0.0
H383 H 0.23262 0.49346 0.51891 0.0
H384 H 0.23904 0.46552 0.55912 0.0
H385 H 0.36161 0.47837 0.41552 0.0
H386 H 0.32088 0.49027 0.39976 0.0
H387 H 0.34401 0.51536 0.435 0.0
H388 H 0.24468 0.54753 0.38521 0.0
H389 H 0.29561 0.59705 0.48497 0.0
H390 H 0.23702 0.47312 0.44057 0.0
H391 H 0.26356 0.47638 0.39617 0.0
H392 H 0.22346 0.49497 0.39663 0.0
H393 H 0.30019 0.53984 0.55425 0.0
H394 H 0.32547 0.57066 0.53382 0.0
H395 H 0.33537 0.52961 0.52234 0.0
C396 C 0.0083 0.83241 0.949 0.0
C397 C 0.03834 0.8166 0.95361 0.0
C398 C 0.98487 0.82074 0.92026 0.0
C399 C 0.99212 0.79281 0.89583 0.0
C400 C 0.0202 0.77444 0.90526 0.0
C401 C 0.04328 0.78681 0.93385 0.0
C402 C 0.95477 0.84081 0.91225 0.0
C403 C 0.02815 0.74373 0.88188 0.0
C404 C 0.92249 0.78063 0.82021 0.0
C405 C 0.93277 0.80163 0.79011 0.0
C406 C 0.94367 0.77335 0.85294 0.0
C407 C 0.97522 0.78789 0.85528 0.0
C408 C 0.98758 0.80409 0.82078 0.0
C409 C 0.9662 0.81025 0.78802 0.0
C410 C 0.93056 0.75389 0.88759 0.0
C411 C 0.02156 0.81915 0.82116 0.0
H412 H 0.00467 0.85547 0.96439 0.0
H413 H 0.06665 0.77455 0.93781 0.0
H414 H 0.95983 0.85562 0.88525 0.0
H415 H 0.93272 0.82599 0.90502 0.0
H416 H 0.94881 0.85679 0.9394 0.0
H417 H 0.04118 0.72716 0.90223 0.0
H418 H 0.00555 0.73196 0.86929 0.0
H419 H 0.04502 0.74859 0.85564 0.0
H420 H 0.89666 0.77356 0.82152 0.0
H421 H 0.97411 0.82621 0.76433 0.0
H422 H 0.91909 0.76989 0.91169 0.0
H423 H 0.95075 0.74049 0.90231 0.0
H424 H 0.91127 0.73696 0.87614 0.0
H425 H 0.02179 0.83962 0.84383 0.0
H426 H 0.02865 0.82781 0.79029 0.0
H427 H 0.04058 0.80202 0.83087 0.0
C428 C 0.84486 0.01379 0.95969 0.0
C429 C 0.86681 0.03952 0.95895 0.0
C430 C 0.84822 0.98776 0.93174 0.0
C431 C 0.87468 0.98707 0.90284 0.0
C432 C 0.89812 0.01211 0.90346 0.0
C433 C 0.89393 0.03814 0.93161 0.0
C434 C 0.82263 0.96161 0.93212 0.0
C435 C 0.92682 0.01194 0.87329 0.0
C436 C 0.89422 0.90476 0.85902 0.0
C437 C 0.88004 0.90484 0.81923 0.0
C438 C 0.89436 0.93193 0.88525 0.0
C439 C 0.87803 0.95956 0.87287 0.0
C440 C 0.8627 0.95982 0.83343 0.0
C441 C 0.86444 0.93267 0.80675 0.0
C442 C 0.91139 0.93074 0.92676 0.0
C443 C 0.84368 0.98844 0.81992 0.0
H444 H 0.8237 0.01501 0.98049 0.0
H445 H 0.91054 0.05828 0.93027 0.0
H446 H 0.81368 0.95576 0.9003 0.0
H447 H 0.83396 0.93984 0.9441 0.0
H448 H 0.80088 0.96814 0.95179 0.0
H449 H 0.94338 0.03273 0.87847 0.0
H450 H 0.94159 0.98991 0.87606 0.0
H451 H 0.91735 0.01206 0.84109 0.0
H452 H 0.9049 0.88324 0.87036 0.0
H453 H 0.85347 0.93331 0.77625 0.0
H454 H 0.89252 0.93033 0.95182 0.0
H455 H 0.92696 0.95213 0.93243 0.0
H456 H 0.92736 0.90945 0.92893 0.0
H457 H 0.82282 0.99347 0.84173 0.0
H458 H 0.83348 0.98502 0.78816 0.0
H459 H 0.85995 0.00964 0.82081 0.0
C460 C 0.4648 0.34478 0.46409 0.0
C461 C 0.43834 0.32843 0.44517 0.0
C462 C 0.49598 0.34592 0.44445 0.0
C463 C 0.50085 0.32957 0.40571 0.0
C464 C 0.47483 0.31105 0.38823 0.0
C465 C 0.44382 0.31095 0.408 0.0
C466 C 0.52258 0.36696 0.46329 0.0
C467 C 0.4789 0.29335 0.34698 0.0
C468 C 0.56109 0.36239 0.32758 0.0
C469 C 0.58748 0.341 0.32942 0.0
C470 C 0.53307 0.35933 0.35295 0.0
C471 C 0.53165 0.33438 0.38109 0.0
C472 C 0.55876 0.31315 0.38373 0.0
C473 C 0.58643 0.31665 0.35762 0.0
C474 C 0.50476 0.38248 0.34906 0.0
C475 C 0.55841 0.28676 0.41397 0.0
H476 H 0.46043 0.3588 0.49245 0.0
H477 H 0.42327 0.29843 0.39328 0.0
H478 H 0.54732 0.35563 0.46001 0.0
H479 H 0.52354 0.38948 0.44668 0.0
H480 H 0.51755 0.37294 0.49651 0.0
H481 H 0.45735 0.27779 0.3395 0.0
H482 H 0.48165 0.31058 0.32207 0.0
H483 H 0.50168 0.27859 0.34683 0.0
H484 H 0.5624 0.38147 0.30604 0.0
H485 H 0.60729 0.30053 0.35934 0.0
H486 H 0.49892 0.394 0.37966 0.0
H487 H 0.48218 0.36962 0.3384 0.0
H488 H 0.51039 0.40125 0.32686 0.0
H489 H 0.55411 0.2967 0.44584 0.0
H490 H 0.58198 0.2731 0.41343 0.0
H491 H 0.53768 0.27024 0.40659 0.0
C492 C 0.17331 0.96682 0.96991 0.0
C493 C 0.14617 0.95679 0.99319 0.0
C494 C 0.17927 -0.00088 0.96465 0.0
C495 C 0.15705 0.02184 0.98239 0.0
C496 C 0.13075 0.01186 0.0081 0.0
C497 C 0.12568 0.97928 0.01335 0.0
C498 C 0.20779 0.00869 0.93739 0.0
C499 C 0.1065 0.0354 0.0274 0.0
C500 C 0.17654 0.10988 0.97566 0.0
C501 C 0.15851 0.1175 0.94033 0.0
C502 C 0.17644 0.07878 0.98995 0.0
C503 C 0.15798 0.05496 0.96827 0.0
C504 C 0.1404 0.06249 0.93209 0.0
C505 C 0.14102 0.09356 0.91853 0.0
C506 C 0.1956 0.07148 0.02846 0.0
C507 C 0.12054 0.03777 0.90785 0.0
H508 H 0.18921 0.94925 0.95447 0.0
H509 H 0.10444 0.97136 0.03082 0.0
H510 H 0.19807 0.01587 0.90704 0.0
H511 H 0.22116 0.02935 0.95153 0.0
H512 H 0.22572 0.98897 0.93173 0.0
H513 H 0.08812 0.02387 0.04761 0.0
H514 H 0.11994 0.05388 0.04603 0.0
H515 H 0.09293 0.04757 0.00275 0.0
H516 H 0.18994 0.12839 0.99271 0.0
H517 H 0.12753 0.09926 0.89079 0.0
H518 H 0.21356 0.05202 0.02157 0.0
H519 H 0.17835 0.06315 0.05255 0.0
H520 H 0.20931 0.09246 0.04127 0.0
H521 H 0.13702 0.01816 0.89665 0.0
H522 H 0.10792 0.04769 0.88069 0.0
H523 H 0.10147 0.02741 0.92817 0.0
C524 C 0.48883 0.64073 0.46414 0.0
C525 C 0.51247 0.66111 0.44808 0.0
C526 C 0.45499 0.64506 0.45596 0.0
C527 C 0.44489 0.67035 0.43109 0.0
C528 C 0.46853 0.69279 0.41846 0.0
C529 C 0.50216 0.68772 0.42682 0.0
C530 C 0.43057 0.62067 0.47033 0.0
C531 C 0.45878 0.72042 0.39274 0.0
C532 C 0.37155 0.64905 0.36258 0.0
C533 C 0.34516 0.66106 0.38661 0.0
C534 C 0.40441 0.65342 0.37568 0.0
C535 C 0.41085 0.67049 0.41351 0.0
C536 C 0.38435 0.68507 0.43589 0.0
C537 C 0.35169 0.67989 0.42234 0.0
C538 C 0.43196 0.63744 0.35084 0.0
C539 C 0.39023 0.70397 0.47581 0.0
H540 H 0.497 0.61978 0.47967 0.0
H541 H 0.52068 0.70318 0.41387 0.0
H542 H 0.40808 0.63231 0.48367 0.0
H543 H 0.42266 0.60541 0.4434 0.0
H544 H 0.44148 0.60528 0.49392 0.0
H545 H 0.47862 0.73866 0.39208 0.0
H546 H 0.45396 0.71179 0.36044 0.0
H547 H 0.43565 0.73169 0.40485 0.0
H548 H 0.36633 0.63384 0.33555 0.0
H549 H 0.33112 0.68857 0.44132 0.0
H550 H 0.44287 0.61817 0.36891 0.0
H551 H 0.45204 0.6546 0.34468 0.0
H552 H 0.42309 0.62704 0.32076 0.0
H553 H 0.39649 0.68761 0.50072 0.0
H554 H 0.36802 0.71794 0.48568 0.0
H555 H 0.4115 0.72038 0.47251 0.0
C556 C 0.34235 0.45316 0.63171 0.0
C557 C 0.37318 0.43811 0.63352 0.0
C558 C 0.33923 0.48555 0.64296 0.0
C559 C 0.3677 0.50295 0.65568 0.0
C560 C 0.39928 0.48833 0.65373 0.0
C561 C 0.40156 0.45589 0.64329 0.0
C562 C 0.3053 0.50062 0.64387 0.0
C563 C 0.43042 0.50647 0.66501 0.0
C564 C 0.36493 0.59247 0.67406 0.0
C565 C 0.36462 0.59531 0.71765 0.0
C566 C 0.36579 0.56268 0.65322 0.0
C567 C 0.36424 0.5349 0.67626 0.0
C568 C 0.36173 0.53746 0.71996 0.0
C569 C 0.36272 0.56745 0.74009 0.0
C570 C 0.37077 0.56133 0.60691 0.0
C571 C 0.35964 0.50837 0.74575 0.0
H572 H 0.32048 0.43922 0.62413 0.0
H573 H 0.42547 0.44413 0.644 0.0
H574 H 0.29794 0.50627 0.67648 0.0
H575 H 0.30582 0.52327 0.62751 0.0
H576 H 0.28623 0.48482 0.62942 0.0
H577 H 0.45321 0.4927 0.65703 0.0
H578 H 0.4312 0.52916 0.64876 0.0
H579 H 0.43052 0.51234 0.6988 0.0
H580 H 0.36554 0.6135 0.65586 0.0
H581 H 0.36338 0.56868 0.77359 0.0
H582 H 0.35988 0.53963 0.59218 0.0
H583 H 0.39776 0.56112 0.60007 0.0
H584 H 0.36006 0.58257 0.5927 0.0
H585 H 0.33968 0.49238 0.73395 0.0
H586 H 0.3547 0.51445 0.77898 0.0
H587 H 0.38332 0.495 0.74335 0.0
C588 C 0.99519 0.82532 0.06868 0.0
C589 C 0.01022 0.85463 0.07807 0.0
C590 C 0.96124 0.82069 0.07682 0.0
C591 C 0.94198 0.8463 0.09349 0.0
C592 C 0.95679 0.87651 0.1001 0.0
C593 C 0.99086 0.88011 0.09308 0.0
C594 C 0.9467 0.78794 0.07038 0.0
C595 C 0.937 0.9048 0.11638 0.0
C596 C 0.84822 0.85004 0.09424 0.0
C597 C 0.8415 0.85023 0.13706 0.0
C598 C 0.88071 0.84671 0.07891 0.0
C599 C 0.90694 0.84167 0.10682 0.0
C600 C 0.89971 0.83742 0.14922 0.0
C601 C 0.86723 0.84232 0.16399 0.0
C602 C 0.88722 0.85191 0.03358 0.0
C603 C 0.92677 0.8305 0.17975 0.0
H604 H 0.0104 0.80552 0.05761 0.0
H605 H 0.00262 0.90276 0.10032 0.0
H606 H 0.94321 0.77725 0.10097 0.0
H607 H 0.922 0.78895 0.05552 0.0
H608 H 0.96311 0.77212 0.0511 0.0
H609 H 0.95128 0.92726 0.11516 0.0
H610 H 0.91391 0.9073 0.09821 0.0
H611 H 0.92969 0.9013 0.14905 0.0
H612 H 0.82838 0.85485 0.07282 0.0
H613 H 0.86276 0.84219 0.19707 0.0
H614 H 0.90565 0.83469 0.02061 0.0
H615 H 0.89766 0.87603 0.03023 0.0
H616 H 0.86418 0.85 0.01491 0.0
H617 H 0.94446 0.81271 0.16631 0.0
H618 H 0.91656 0.82156 0.2091 0.0
H619 H 0.94086 0.85256 0.18719 0.0
C620 C 0.62016 0.50752 0.53968 0.0
C621 C 0.64041 0.53226 0.52714 0.0
C622 C 0.63404 0.47902 0.55241 0.0
C623 C 0.66902 0.47598 0.55439 0.0
C624 C 0.68951 0.50041 0.53975 0.0
C625 C 0.67485 0.52814 0.52554 0.0
C626 C 0.61126 0.45291 0.5659 0.0
C627 C 0.72682 0.49857 0.54248 0.0
C628 C 0.69353 0.41736 0.63489 0.0
C629 C 0.69933 0.39017 0.60976 0.0
C630 C 0.68635 0.44644 0.61708 0.0
C631 C 0.68373 0.44769 0.5734 0.0
C632 C 0.69153 0.42055 0.54824 0.0
C633 C 0.69979 0.39221 0.56672 0.0
C634 C 0.67906 0.4751 0.64502 0.0
C635 C 0.6886 0.42076 0.50193 0.0
H636 H 0.59353 0.51105 0.54133 0.0
H637 H 0.69043 0.54775 0.51674 0.0
H638 H 0.61883 0.42981 0.55113 0.0
H639 H 0.61299 0.45065 0.59993 0.0
H640 H 0.58497 0.45755 0.55793 0.0
H641 H 0.73913 0.51746 0.52496 0.0
H642 H 0.73428 0.50128 0.57547 0.0
H643 H 0.73608 0.47518 0.53065 0.0
H644 H 0.69248 0.4154 0.66825 0.0
H645 H 0.70353 0.37082 0.54752 0.0
H646 H 0.65196 0.47966 0.64562 0.0
H647 H 0.69134 0.49648 0.63312 0.0
H648 H 0.68742 0.47169 0.67729 0.0
H649 H 0.66241 0.42504 0.49323 0.0
H650 H 0.69707 0.39817 0.48651 0.0
H651 H 0.70367 0.4405 0.49044 0.0
C652 C 0.96876 0.13468 0.05736 0.0
C653 C 0.93919 0.12014 0.06887 0.0
C654 C -0.00332 0.13381 0.083 0.0
C655 C 0.99495 0.1174 0.12043 0.0
C656 C 0.96548 0.10132 0.13102 0.0
C657 C 0.93761 0.10345 0.10541 0.0
C658 C 0.02756 0.15151 0.07087 0.0
C659 C 0.96326 0.08238 0.16965 0.0
C660 C 0.07891 0.09792 0.1645 0.0
C661 C 0.08251 0.12151 0.19611 0.0
C662 C 0.04976 0.09514 0.14136 0.0
C663 C 0.024 0.11742 0.14849 0.0
C664 C 0.0271 0.14107 0.18061 0.0
C665 C 0.05615 0.14256 0.20442 0.0
C666 C 0.04748 0.0691 0.10807 0.0
C667 C 0.00033 0.16561 0.18872 0.0
H668 H 0.96942 0.14828 0.02953 0.0
H669 H 0.91434 0.0928 0.11442 0.0
H670 H 0.03463 0.1688 0.09608 0.0
H671 H 0.04848 0.13464 0.06634 0.0
H672 H 0.02422 0.16449 0.04189 0.0
H673 H 0.93908 0.07 0.17231 0.0
H674 H 0.98346 0.06448 0.1696 0.0
H675 H 0.96664 0.09822 0.19752 0.0
H676 H 0.09929 0.08203 0.15669 0.0
H677 H 0.05841 0.16055 0.2291 0.0
H678 H 0.02162 0.06087 0.10326 0.0
H679 H 0.06294 0.04838 0.11588 0.0
H680 H 0.05684 0.07818 0.07843 0.0
H681 H -0.00223 0.18042 0.16122 0.0
H682 H 0.00581 0.1814 0.21616 0.0
H683 H 0.97609 0.15394 0.19367 0.0
C684 C 0.14773 0.74925 0.1223 0.0
C685 C 0.16248 0.77476 0.10283 0.0
C686 C 0.16686 0.72799 0.14424 0.0
C687 C 0.20157 0.73263 0.147 0.0
C688 C 0.21697 0.75612 0.12332 0.0
C689 C 0.19711 0.77708 0.1014 0.0
C690 C 0.14941 0.70268 0.16799 0.0
C691 C 0.25397 0.76117 0.12424 0.0
C692 C 0.22876 0.71286 0.25453 0.0
C693 C 0.23893 0.68143 0.24818 0.0
C694 C 0.21929 0.73088 0.22097 0.0
C695 C 0.21994 0.71687 0.18031 0.0
C696 C 0.23289 0.68589 0.17362 0.0
C697 C 0.24203 0.66834 0.2079 0.0
C698 C 0.20584 0.76394 0.22948 0.0
C699 C 0.23451 0.67026 0.13085 0.0
H700 H 0.12092 0.74722 0.12279 0.0
H701 H 0.20853 0.79687 0.08638 0.0
H702 H 0.16239 0.6796 0.16372 0.0
H703 H 0.14967 0.70935 0.20158 0.0
H704 H 0.12321 0.69956 0.15817 0.0
H705 H 0.26263 0.77393 0.09672 0.0
H706 H 0.2605 0.77567 0.15242 0.0
H707 H 0.26743 0.73828 0.12546 0.0
H708 H 0.22628 0.72272 0.28592 0.0
H709 H 0.24982 0.64383 0.2033 0.0
H710 H 0.17869 0.76407 0.22393 0.0
H711 H 0.21731 0.78083 0.20816 0.0
H712 H 0.21037 0.77255 0.2619 0.0
H713 H 0.20983 0.66027 0.12275 0.0
H714 H 0.25283 0.65056 0.12938 0.0
H715 H 0.24111 0.6876 0.10718 0.0
C716 C 0.73867 0.67093 0.54453 0.0
C717 C 0.70623 0.67915 0.55615 0.0
C718 C 0.76575 0.68869 0.55998 0.0
C719 C 0.75989 0.71474 0.58812 0.0
C720 C 0.72688 0.72343 0.59882 0.0
C721 C 0.70048 0.70544 0.58272 0.0
C722 C 0.8004 0.67857 0.54764 0.0
C723 C 0.71939 0.75108 0.62857 0.0
C724 C 0.81393 0.74788 0.67376 0.0
C725 C 0.82064 0.77789 0.6589 0.0
C726 C 0.7977 0.72492 0.64859 0.0
C727 C 0.78756 0.7327 0.60823 0.0
C728 C 0.79793 0.76169 0.59172 0.0
C729 C 0.81424 0.78415 0.6175 0.0
C730 C 0.78827 0.69373 0.6667 0.0
C731 C 0.78857 0.77046 0.54843 0.0
H732 H 0.74288 0.65009 0.52448 0.0
H733 H 0.67525 0.71127 0.59202 0.0
H734 H 0.81705 0.6993 0.54467 0.0
H735 H 0.81075 0.66352 0.57189 0.0
H736 H 0.8005 0.66447 0.51786 0.0
H737 H 0.69234 0.75529 0.63246 0.0
H738 H 0.73007 0.74656 0.65941 0.0
H739 H 0.73095 0.77304 0.61739 0.0
H740 H 0.81924 0.74313 0.70584 0.0
H741 H 0.81977 0.80744 0.60613 0.0
H742 H 0.79217 0.67388 0.64365 0.0
H743 H 0.76156 0.69418 0.6751 0.0
H744 H 0.80281 0.689 0.69496 0.0
H745 H 0.79082 0.7497 0.52643 0.0
H746 H 0.80427 0.79002 0.53723 0.0
H747 H 0.76232 0.77839 0.54835 0.0
C748 C 0.82752 0.25076 0.03418 0.0
C749 C 0.83727 0.2241 0.05567 0.0
C750 C 0.80266 0.27125 0.0503 0.0
C751 C 0.78664 0.26415 0.08798 0.0
C752 C 0.79652 0.2372 0.10963 0.0
C753 C 0.82195 0.21783 0.09348 0.0
C754 C 0.79329 0.30018 0.02691 0.0
C755 C 0.77929 0.22796 0.14907 0.0
C756 C 0.73545 0.31954 0.15776 0.0
C757 C 0.70343 0.30933 0.14773 0.0
C758 C 0.76302 0.30693 0.13598 0.0
C759 C 0.75812 0.28334 0.10413 0.0
C760 C 0.72548 0.27446 0.09252 0.0
C761 C 0.69847 0.28767 0.11454 0.0
C762 C 0.7974 0.31729 0.1488 0.0
C763 C 0.7191 0.24912 0.05919 0.0
H764 H 0.8392 0.25543 0.00473 0.0
H765 H 0.82856 0.1968 0.10963 0.0
H766 H 0.76656 0.29948 0.01899 0.0
H767 H 0.79737 0.32183 0.04684 0.0
H768 H 0.80791 0.30218 0.99789 0.0
H769 H 0.78999 0.20617 0.16198 0.0
H770 H 0.78107 0.24751 0.1729 0.0
H771 H 0.75256 0.22374 0.14298 0.0
H772 H 0.73904 0.33635 0.18361 0.0
H773 H 0.6735 0.27987 0.10709 0.0
H774 H 0.81291 0.32169 0.12114 0.0
H775 H 0.8095 0.29813 0.16588 0.0
H776 H 0.79691 0.33912 0.16918 0.0
H777 H 0.73411 0.2534 0.0311 0.0
H778 H 0.69253 0.24792 0.0503 0.0
H779 H 0.72656 0.22568 0.0706 0.0
C780 C 0.29571 0.27481 0.64733 0.0
C781 C 0.31988 0.29822 0.65428 0.0
C782 C 0.2772 0.26317 0.68044 0.0
C783 C 0.28255 0.27583 0.72115 0.0
C784 C 0.30627 0.30017 0.72799 0.0
C785 C 0.32492 0.31079 0.69455 0.0
C786 C 0.25247 0.23689 0.67203 0.0
C787 C 0.31222 0.3148 0.77074 0.0
C788 C 0.21942 0.26502 0.80735 0.0
C789 C 0.23452 0.24116 0.82948 0.0
C790 C 0.23424 0.27597 0.77109 0.0
C791 C 0.26477 0.26265 0.75709 0.0
C792 C 0.27955 0.23794 0.77911 0.0
C793 C 0.2642 0.22752 0.81518 0.0
C794 C 0.21781 0.30241 0.74854 0.0
C795 C 0.31203 0.2231 0.7652 0.0
H796 H 0.29175 0.26518 0.61613 0.0
H797 H 0.34316 0.32933 0.69989 0.0
H798 H 0.26033 0.21534 0.68804 0.0
H799 H 0.22776 0.24383 0.68461 0.0
H800 H 0.25 0.23079 0.63841 0.0
H801 H 0.33003 0.33487 0.77034 0.0
H802 H 0.28852 0.32355 0.78452 0.0
H803 H 0.32213 0.2966 0.7913 0.0
H804 H 0.19637 0.27542 0.81874 0.0
H805 H 0.27569 0.209 0.83261 0.0
H806 H 0.21513 0.29571 0.71518 0.0
H807 H 0.23359 0.32394 0.75069 0.0
H808 H 0.19294 0.30846 0.76153 0.0
H809 H 0.31043 0.21465 0.73231 0.0
H810 H 0.31916 0.20283 0.78427 0.0
H811 H 0.33205 0.24112 0.76727 0.0
C812 C 0.69628 0.71145 0.42481 0.0
C813 C 0.66489 0.70016 0.41393 0.0
C814 C 0.71178 0.73419 0.4008 0.0
C815 C 0.69496 0.74591 0.36606 0.0
C816 C 0.66285 0.73503 0.35581 0.0
C817 C 0.6483 0.71216 0.37982 0.0
C818 C 0.74618 0.7454 0.41218 0.0
C819 C 0.64377 0.7475 0.31964 0.0
C820 C 0.71948 0.82596 0.32839 0.0
C821 C 0.73845 0.81738 0.29348 0.0
C822 C 0.70516 0.80277 0.35245 0.0
C823 C 0.71034 0.77046 0.34111 0.0
C824 C 0.72921 0.76171 0.30535 0.0
C825 C 0.7432 0.78553 0.28174 0.0
C826 C 0.68429 0.81281 0.38969 0.0
C827 C 0.73444 0.72734 0.2921 0.0
H828 H 0.709 0.70185 0.45109 0.0
H829 H 0.62373 0.70354 0.37173 0.0
H830 H 0.76326 0.74108 0.38552 0.0
H831 H 0.74587 0.77134 0.41929 0.0
H832 H 0.75615 0.73327 0.43943 0.0
H833 H 0.61903 0.73617 0.31596 0.0
H834 H 0.64017 0.77349 0.32395 0.0
H835 H 0.65798 0.74331 0.29047 0.0
H836 H 0.71576 0.85087 0.33679 0.0
H837 H 0.75773 0.77933 0.25427 0.0
H838 H 0.69508 0.80323 0.41818 0.0
H839 H 0.6589 0.80291 0.38645 0.0
H840 H 0.68238 0.83902 0.39382 0.0
H841 H 0.74669 0.71464 0.31733 0.0
H842 H 0.74983 0.72462 0.26357 0.0
H843 H 0.71019 0.71564 0.28628 0.0
C844 C 0.75728 0.20347 0.9177 0.0
C845 C 0.79133 0.19838 0.92225 0.0
C846 C 0.74511 0.21902 0.88329 0.0
C847 C 0.76759 0.22826 0.85222 0.0
C848 C 0.80215 0.22449 0.85787 0.0
C849 C 0.81363 0.2102 0.89341 0.0
C850 C 0.70819 0.22356 0.87893 0.0
C851 C 0.82688 0.23309 0.82484 0.0
C852 C 0.74419 0.22927 0.73912 0.0
C853 C 0.74452 0.2618 0.73285 0.0
C854 C 0.74952 0.2179 0.77877 0.0
C855 C 0.75537 0.23981 0.81236 0.0
C856 C 0.7537 0.27279 0.80626 0.0
C857 C 0.74838 0.28345 0.76629 0.0
C858 C 0.75098 0.18252 0.78412 0.0
C859 C 0.75933 0.29673 0.84148 0.0
H860 H 0.74014 0.19391 0.93998 0.0
H861 H 0.83991 0.20555 0.89656 0.0
H862 H 0.70255 0.24747 0.8676 0.0
H863 H 0.69839 0.20585 0.85585 0.0
H864 H 0.69494 0.22054 0.90875 0.0
H865 H 0.85294 0.22972 0.83483 0.0
H866 H 0.82261 0.21807 0.79639 0.0
H867 H 0.82354 0.25815 0.8165 0.0
H868 H 0.74095 0.21277 0.71286 0.0
H869 H 0.74834 0.30868 0.76094 0.0
H870 H 0.73586 0.17581 0.81117 0.0
H871 H 0.77697 0.17539 0.79014 0.0
H872 H 0.74204 0.16892 0.75622 0.0
H873 H 0.74433 0.29061 0.86893 0.0
H874 H 0.75297 0.32122 0.8328 0.0
H875 H 0.78578 0.29628 0.85078 0.0
C876 C 0.28861 0.26485 0.48982 0.0
C877 C 0.29333 0.29623 0.47823 0.0
C878 C 0.27371 0.24245 0.46251 0.0
C879 C 0.2633 0.2519 0.42303 0.0
C880 C 0.26806 0.28359 0.41136 0.0
C881 C 0.28284 0.30536 0.4392 0.0
C882 C 0.26939 0.20874 0.47564 0.0
C883 C 0.25726 0.29466 0.36952 0.0
C884 C 0.24497 0.20035 0.32797 0.0
C885 C 0.21044 0.20263 0.32721 0.0
C886 C 0.26284 0.21361 0.36157 0.0
C887 C 0.24546 0.22975 0.39429 0.0
C888 C 0.21036 0.22968 0.39486 0.0
C889 C 0.19321 0.21606 0.36108 0.0
C890 C 0.30024 0.21266 0.36028 0.0
C891 C 0.19094 0.24654 0.4292 0.0
H892 H 0.29704 0.25768 0.5199 0.0
H893 H 0.28605 0.32967 0.43035 0.0
H894 H 0.243 0.20157 0.47304 0.0
H895 H 0.28386 0.19247 0.45467 0.0
H896 H 0.27769 0.20555 0.50798 0.0
H897 H 0.26343 0.31997 0.36506 0.0
H898 H 0.2694 0.28009 0.34446 0.0
H899 H 0.23007 0.29162 0.36604 0.0
H900 H 0.25803 0.18958 0.30157 0.0
H901 H 0.16636 0.21746 0.36016 0.0
H902 H 0.31055 0.20878 0.39147 0.0
H903 H 0.30974 0.23576 0.34999 0.0
H904 H 0.30953 0.1937 0.33837 0.0
H905 H 0.20083 0.2406 0.45995 0.0
H906 H 0.16416 0.24041 0.42811 0.0
H907 H 0.19342 0.27257 0.4263 0.0
C908 C 0.23514 0.80746 0.00315 0.0
C909 C 0.20463 0.79908 0.98554 0.0
C910 C 0.26413 0.79102 0.99114 0.0
C911 C 0.2621 0.76591 0.96084 0.0
C912 C 0.23078 0.7562 0.94521 0.0
C913 C 0.20243 0.77313 0.95758 0.0
C914 C 0.29694 0.8022 0.0085 0.0
C915 C 0.22737 0.72923 0.91333 0.0
C916 C 0.32674 0.74147 0.88135 0.0
C917 C 0.33618 0.71211 0.89601 0.0
C918 C 0.30509 0.76124 0.9047 0.0
C919 C 0.29233 0.75077 0.94284 0.0
C920 C 0.30424 0.72232 0.95917 0.0
C921 C 0.32611 0.70323 0.93538 0.0
C922 C 0.29361 0.79192 0.88689 0.0
C923 C 0.29139 0.71051 0.99976 0.0
H924 H 0.23665 0.82811 0.02414 0.0
H925 H 0.17867 0.76719 0.94368 0.0
H926 H 0.31403 0.78204 0.01313 0.0
H927 H 0.30885 0.81809 0.98624 0.0
H928 H 0.29367 0.8157 0.03847 0.0
H929 H 0.20104 0.72295 0.90727 0.0
H930 H 0.23893 0.73603 0.88371 0.0
H931 H 0.24048 0.70783 0.92373 0.0
H932 H 0.33469 0.74813 0.85075 0.0
H933 H 0.33358 0.68033 0.94641 0.0
H934 H 0.29322 0.81124 0.91119 0.0
H935 H 0.26795 0.78899 0.87508 0.0
H936 H 0.30974 0.79917 0.86094 0.0
H937 H 0.29006 0.7301 0.02364 0.0
H938 H 0.30715 0.69123 0.01152 0.0
H939 H 0.26588 0.70116 0.99529 0.0
loop_
_geom_bond_atom_site_label_1
_geom_bond_atom_site_label_2
_geom_bond_distance
_geom_bond_site_symmetry_2
_ccdc_geom_bond_type
Zn0 O6 1.920 . S
Zn0 O12 1.898 . S
Zn0 O15 1.905 . S
Zn1 O9 1.905 . S
Zn1 O10 1.898 . S
Zn1 O18 1.920 . S
Zn2 O5 2.080 . S
Zn2 O8 2.124 . S
Zn2 O11 2.120 1_554 S
Zn2 O13 2.120 . S
Zn2 O14 2.114 . S
Zn2 O17 2.080 . S
C3 O8 1.154 1_556 S
C3 O9 1.182 . S
C4 O10 1.167 . S
C4 O11 1.299 . S
O5 Zn2 2.080 . S
O5 C19 1.305 . S
O6 Zn0 1.920 . S
O6 C19 1.234 . S
C7 O12 1.167 . S
C7 O13 1.299 . S
O8 Zn2 2.124 . S
O8 C3 1.154 1_554 S
O9 Zn1 1.905 . S
O9 C3 1.182 . S
O10 Zn1 1.898 . S
O10 C4 1.167 . S
O11 Zn2 2.120 1_556 S
O11 C4 1.299 . S
O12 Zn0 1.898 . S
O12 C7 1.167 . S
O13 Zn2 2.120 . S
O13 C7 1.299 . S
O14 Zn2 2.114 . S
O14 C16 1.166 . S
O15 Zn0 1.905 . S
O15 C16 1.182 . S
C16 O14 1.166 . S
C16 O15 1.182 . S
O17 Zn2 2.080 . S
O17 C20 1.305 1_554 S
O18 Zn1 1.920 . S
O18 C20 1.234 . S
C19 O5 1.305 . S
C19 O6 1.234 . S
C20 O17 1.305 1_556 S
C20 O18 1.234 . S
Zn21 O27 1.920 . S
Zn21 O33 1.898 . S
Zn21 O36 1.905 . S
Zn22 O30 1.905 . S
Zn22 O31 1.898 . S
Zn22 O39 1.920 . S
Zn23 O26 2.080 . S
Zn23 O29 2.114 . S
Zn23 O32 2.120 . S
Zn23 O34 2.120 . S
Zn23 O35 2.114 . S
Zn23 O38 2.080 . S
C24 O29 1.166 . S
C24 O30 1.182 . S
C25 O31 1.167 . S
C25 O32 1.299 . S
O26 Zn23 2.080 . S
O26 C40 1.305 . S
O27 Zn21 1.920 . S
O27 C40 1.234 . S
C28 O33 1.167 . S
C28 O34 1.299 . S
O29 Zn23 2.114 . S
O29 C24 1.166 . S
O30 Zn22 1.905 . S
O30 C24 1.182 . S
O31 Zn22 1.898 . S
O31 C25 1.167 . S
O32 Zn23 2.120 . S
O32 C25 1.299 . S
O33 Zn21 1.898 . S
O33 C28 1.167 . S
O34 Zn23 2.120 . S
O34 C28 1.299 . S
O35 Zn23 2.114 . S
O35 C37 1.166 . S
O36 Zn21 1.905 . S
O36 C37 1.182 . S
C37 O35 1.166 . S
C37 O36 1.182 . S
O38 Zn23 2.080 . S
O38 C41 1.305 . S
O39 Zn22 1.920 . S
O39 C41 1.234 . S
C40 O26 1.305 . S
C40 O27 1.234 . S
C41 O38 1.305 . S
C41 O39 1.234 . S
Zn42 O48 1.920 . S
Zn42 O54 1.898 . S
Zn42 O57 1.905 . S
Zn43 O51 1.905 . S
Zn43 O52 1.898 . S
Zn43 O60 1.920 . S
Zn44 O47 2.079 1_554 S
Zn44 O50 2.116 . S
Zn44 O53 2.121 . S
Zn44 O55 2.119 1_554 S
Zn44 O56 2.112 1_554 S
Zn44 O59 2.082 . S
C45 O50 1.166 . S
C45 O51 1.182 . S
C46 O52 1.167 . S
C46 O53 1.299 . S
O47 Zn44 2.079 1_556 S
O47 C61 1.305 . S
O48 Zn42 1.920 . S
O48 C61 1.234 . S
C49 O54 1.167 . S
C49 O55 1.299 . S
O50 Zn44 2.116 . S
O50 C45 1.166 . S
O51 Zn43 1.905 . S
O51 C45 1.182 . S
O52 Zn43 1.898 . S
O52 C46 1.167 . S
O53 Zn44 2.121 . S
O53 C46 1.299 . S
O54 Zn42 1.898 . S
O54 C49 1.167 . S
O55 Zn44 2.119 1_556 S
O55 C49 1.299 . S
O56 Zn44 2.112 1_556 S
O56 C58 1.166 . S
O57 Zn42 1.905 . S
O57 C58 1.182 . S
C58 O56 1.166 . S
C58 O57 1.182 . S
O59 Zn44 2.082 . S
O59 C62 1.305 . S
O60 Zn43 1.920 . S
O60 C62 1.234 . S
C61 O47 1.305 . S
C61 O48 1.234 . S
C62 O59 1.305 . S
C62 O60 1.234 . S
Zn63 O69 1.920 . S
Zn63 O75 1.898 . S
Zn63 O78 1.905 . S
Zn64 O72 1.905 . S
Zn64 O73 1.898 . S
Zn64 O81 1.920 . S
Zn65 O68 2.080 . S
Zn65 O71 2.114 . S
Zn65 O74 2.120 . S
Zn65 O76 2.120 . S
Zn65 O77 2.114 . S
Zn65 O80 2.080 . S
C66 O71 1.166 . S
C66 O72 1.182 . S
C67 O73 1.167 . S
C67 O74 1.299 . S
O68 Zn65 2.080 . S
O68 C82 1.305 . S
O69 Zn63 1.920 . S
O69 C82 1.234 . S
C70 O75 1.167 . S
C70 O76 1.299 . S
O71 Zn65 2.114 . S
O71 C66 1.166 . S
O72 Zn64 1.905 . S
O72 C66 1.182 . S
O73 Zn64 1.898 . S
O73 C67 1.167 . S
O74 Zn65 2.120 . S
O74 C67 1.299 . S
O75 Zn63 1.898 . S
O75 C70 1.167 . S
O76 Zn65 2.120 . S
O76 C70 1.299 . S
O77 Zn65 2.114 . S
O77 C79 1.166 . S
O78 Zn63 1.905 . S
O78 C79 1.182 . S
C79 O77 1.166 . S
C79 O78 1.182 . S
O80 Zn65 2.080 . S
O80 C83 1.305 . S
O81 Zn64 1.920 . S
O81 C83 1.234 . S
C82 O68 1.305 . S
C82 O69 1.234 . S
C83 O80 1.305 . S
C83 O81 1.234 . S
H84 C87 0.929 . S
H85 C90 0.929 . S
H86 C92 0.930 . S
C87 H84 0.929 . S
C87 C88 1.398 . S
C87 C89 1.396 . S
C88 C87 1.398 . S
C88 C92 1.407 . S
C89 C87 1.396 . S
C89 C90 1.394 . S
C90 H85 0.929 . S
C90 C89 1.394 . S
C90 C91 1.382 . S
C91 C90 1.382 . S
C91 C92 1.392 . S
C91 N93 1.420 . S
C92 H86 0.930 . S
C92 C88 1.407 . S
C92 C91 1.392 . S
N93 C91 1.420 . S
N93 C94 1.244 . S
C94 N93 1.244 . S
H95 C98 0.929 . S
H96 C101 0.929 . S
H97 C103 0.930 . S
C98 H95 0.929 . S
C98 C99 1.398 . S
C98 C100 1.396 . S
C99 C98 1.398 . S
C99 C103 1.407 . S
C100 C98 1.396 . S
C100 C101 1.394 . S
C101 H96 0.929 . S
C101 C100 1.394 . S
C101 C102 1.382 . S
C102 C101 1.382 . S
C102 C103 1.392 . S
C102 N104 1.420 . S
C103 H97 0.930 . S
C103 C99 1.407 . S
C103 C102 1.392 . S
N104 C102 1.420 . S
N104 C105 1.244 . S
C105 N104 1.244 . S
H106 C109 0.929 . S
H107 C112 0.929 . S
H108 C114 0.930 . S
C109 H106 0.929 . S
C109 C110 1.398 . S
C109 C111 1.396 . S
C110 C109 1.398 . S
C110 C114 1.407 . S
C111 C109 1.396 . S
C111 C112 1.394 . S
C112 H107 0.929 . S
C112 C111 1.394 . S
C112 C113 1.382 . S
C113 C112 1.382 . S
C113 C114 1.392 . S
C113 N115 1.420 . S
C114 H108 0.930 . S
C114 C110 1.407 . S
C114 C113 1.392 . S
N115 C113 1.420 . S
N115 C116 1.244 . S
C116 N115 1.244 . S
H117 C120 0.929 . S
H118 C123 0.929 . S
H119 C125 0.930 . S
C120 H117 0.929 . S
C120 C121 1.398 . S
C120 C122 1.396 . S
C121 C120 1.398 . S
C121 C125 1.407 . S
C122 C120 1.396 . S
C122 C123 1.394 . S
C123 H118 0.929 . S
C123 C122 1.394 . S
C123 C124 1.382 . S
C124 C123 1.382 . S
C124 C125 1.392 . S
C124 N126 1.420 . S
C125 H119 0.930 . S
C125 C121 1.407 . S
C125 C124 1.392 . S
N126 C124 1.420 . S
N126 C127 1.244 . S
C127 N126 1.244 . S
H128 C131 0.929 . S
H129 C134 0.929 . S
H130 C136 0.930 . S
C131 H128 0.929 . S
C131 C132 1.398 . S
C131 C133 1.396 . S
C132 C131 1.398 . S
C132 C136 1.407 . S
C133 C131 1.396 . S
C133 C134 1.394 . S
C134 H129 0.929 . S
C134 C133 1.394 . S
C134 C135 1.382 . S
C135 C134 1.382 . S
C135 C136 1.392 . S
C135 N137 1.420 . S
C136 H130 0.930 . S
C136 C132 1.407 . S
C136 C135 1.392 . S
N137 C135 1.420 . S
N137 C138 1.244 . S
C138 N137 1.244 . S
H139 C142 0.929 . S
H140 C145 0.929 . S
H141 C147 0.930 . S
C142 H139 0.929 . S
C142 C143 1.398 . S
C142 C144 1.396 . S
C143 C142 1.398 . S
C143 C147 1.407 . S
C144 C142 1.396 . S
C144 C145 1.394 . S
C145 H140 0.929 . S
C145 C144 1.394 . S
C145 C146 1.382 . S
C146 C145 1.382 . S
C146 C147 1.392 . S
C146 N148 1.420 . S
C147 H141 0.930 . S
C147 C143 1.407 . S
C147 C146 1.392 . S
N148 C146 1.420 . S
N148 C149 1.244 . S
C149 N148 1.244 . S
H150 C153 0.929 . S
H151 C156 0.929 . S
H152 C158 0.930 . S
C153 H150 0.929 . S
C153 C154 1.398 . S
C153 C155 1.396 . S
C154 C153 1.398 . S
C154 C158 1.407 . S
C155 C153 1.396 . S
C155 C156 1.394 . S
C156 H151 0.929 . S
C156 C155 1.394 . S
C156 C157 1.382 . S
C157 C156 1.382 . S
C157 C158 1.392 . S
C157 N159 1.420 . S
C158 H152 0.930 . S
C158 C154 1.407 . S
C158 C157 1.392 . S
N159 C157 1.420 . S
N159 C160 1.244 . S
C160 N159 1.244 . S
H161 C164 0.929 . S
H162 C167 0.929 . S
H163 C169 0.930 . S
C164 H161 0.929 . S
C164 C165 1.398 . S
C164 C166 1.396 . S
C165 C164 1.398 . S
C165 C169 1.407 . S
C166 C164 1.396 . S
C166 C167 1.394 . S
C167 H162 0.929 . S
C167 C166 1.394 . S
C167 C168 1.382 . S
C168 C167 1.382 . S
C168 C169 1.392 . S
C168 N170 1.420 . S
C169 H163 0.930 . S
C169 C165 1.407 . S
C169 C168 1.392 . S
N170 C168 1.420 . S
N170 C171 1.244 . S
C171 N170 1.244 . S
C172 C173 1.391 . S
C172 C174 1.394 . S
C172 H188 0.931 . S
C173 C172 1.391 . S
C173 C177 1.376 . S
C174 C172 1.394 . S
C174 C175 1.369 . S
C174 C178 1.531 . S
C175 C174 1.369 . S
C175 C176 1.410 . S
C175 C183 1.503 1_565 S
C176 C175 1.410 . S
C176 C177 1.392 . S
C176 C179 1.511 . S
C177 C173 1.376 . S
C177 C176 1.392 . S
C177 H189 0.929 . S
C178 C174 1.531 . S
C178 H190 0.960 1_565 S
C178 H191 0.962 . S
C178 H192 0.960 . S
C179 C176 1.511 . S
C179 H193 0.961 . S
C179 H194 0.961 1_565 S
C179 H195 0.961 1_565 S
C180 C181 1.370 . S
C180 C182 1.363 . S
C180 H196 0.931 . S
C181 C180 1.370 . S
C181 C185 1.408 . S
C182 C180 1.363 . S
C182 C183 1.370 . S
C182 C186 1.524 1_545 S
C183 C175 1.503 1_545 S
C183 C182 1.370 . S
C183 C184 1.403 . S
C184 C183 1.403 . S
C184 C185 1.404 . S
C184 C187 1.539 . S
C185 C181 1.408 . S
C185 C184 1.404 . S
C185 H197 0.930 . S
C186 C182 1.524 1_565 S
C186 H198 0.956 . S
C186 H199 0.961 . S
C186 H200 0.961 . S
C187 C184 1.539 . S
C187 H201 0.958 . S
C187 H202 0.961 . S
C187 H203 0.960 . S
H188 C172 0.931 . S
H189 C177 0.929 . S
H190 C178 0.960 1_545 S
H191 C178 0.962 . S
H192 C178 0.960 . S
H193 C179 0.961 . S
H194 C179 0.961 1_545 S
H195 C179 0.961 1_545 S
H196 C180 0.931 . S
H197 C185 0.930 . S
H198 C186 0.956 . S
H199 C186 0.961 . S
H200 C186 0.961 . S
H201 C187 0.958 . S
H202 C187 0.961 . S
H203 C187 0.960 . S
C204 C205 1.391 . S
C204 C206 1.394 . S
C204 H220 0.931 . S
C205 C204 1.391 . S
C205 C209 1.376 . S
C206 C204 1.394 . S
C206 C207 1.369 . S
C206 C210 1.531 . S
C207 C206 1.369 . S
C207 C208 1.410 . S
C207 C215 1.503 . S
C208 C207 1.410 . S
C208 C209 1.392 . S
C208 C211 1.511 . S
C209 C205 1.376 . S
C209 C208 1.392 . S
C209 H221 0.929 . S
C210 C206 1.531 . S
C210 H222 0.960 . S
C210 H223 0.962 . S
C210 H224 0.960 . S
C211 C208 1.511 . S
C211 H225 0.961 . S
C211 H226 0.961 . S
C211 H227 0.961 . S
C212 C213 1.370 . S
C212 C214 1.363 . S
C212 H228 0.931 . S
C213 C212 1.370 . S
C213 C217 1.408 . S
C214 C212 1.363 . S
C214 C215 1.370 . S
C214 C218 1.524 . S
C215 C207 1.503 . S
C215 C214 1.370 . S
C215 C216 1.403 . S
C216 C215 1.403 . S
C216 C217 1.404 . S
C216 C219 1.539 . S
C217 C213 1.408 . S
C217 C216 1.404 . S
C217 H229 0.930 . S
C218 C214 1.524 . S
C218 H230 0.956 . S
C218 H231 0.961 . S
C218 H232 0.961 . S
C219 C216 1.539 . S
C219 H233 0.958 . S
C219 H234 0.961 . S
C219 H235 0.960 . S
H220 C204 0.931 . S
H221 C209 0.929 . S
H222 C210 0.960 . S
H223 C210 0.962 . S
H224 C210 0.960 . S
H225 C211 0.961 . S
H226 C211 0.961 . S
H227 C211 0.961 . S
H228 C212 0.931 . S
H229 C217 0.930 . S
H230 C218 0.956 . S
H231 C218 0.961 . S
H232 C218 0.961 . S
H233 C219 0.958 . S
H234 C219 0.961 . S
H235 C219 0.960 . S
C236 C237 1.391 . S
C236 C238 1.394 . S
C236 H252 0.931 . S
C237 C236 1.391 . S
C237 C241 1.376 . S
C238 C236 1.394 . S
C238 C239 1.369 . S
C238 C242 1.542 . S
C239 C238 1.369 . S
C239 C240 1.410 . S
C239 C247 1.503 1_545 S
C240 C239 1.410 . S
C240 C241 1.392 . S
C240 C243 1.511 . S
C241 C237 1.376 . S
C241 C240 1.392 . S
C241 H253 0.929 . S
C242 C238 1.542 . S
C242 H254 0.954 1_545 S
C242 H255 0.950 1_545 S
C242 H256 0.967 . S
C243 C240 1.511 . S
C243 H257 0.961 . S
C243 H258 0.961 . S
C243 H259 0.961 . S
C244 C245 1.370 . S
C244 C246 1.363 . S
C244 H260 0.931 . S
C245 C244 1.370 . S
C245 C249 1.408 . S
C246 C244 1.363 . S
C246 C247 1.370 . S
C246 C250 1.524 . S
C247 C239 1.503 1_565 S
C247 C246 1.370 . S
C247 C248 1.403 . S
C248 C247 1.403 . S
C248 C249 1.404 . S
C248 C251 1.539 1_565 S
C249 C245 1.408 . S
C249 C248 1.404 . S
C249 H261 0.930 . S
C250 C246 1.524 . S
C250 H262 0.956 . S
C250 H263 0.961 . S
C250 H264 0.961 . S
C251 C248 1.539 1_545 S
C251 H265 0.958 . S
C251 H266 0.961 . S
C251 H267 0.960 . S
H252 C236 0.931 . S
H253 C241 0.929 . S
H254 C242 0.954 1_565 S
H255 C242 0.950 1_565 S
H256 C242 0.967 . S
H257 C243 0.961 . S
H258 C243 0.961 . S
H259 C243 0.961 . S
H260 C244 0.931 . S
H261 C249 0.930 . S
H262 C250 0.956 . S
H263 C250 0.961 . S
H264 C250 0.961 . S
H265 C251 0.958 . S
H266 C251 0.961 . S
H267 C251 0.960 . S
C268 C269 1.391 . S
C268 C270 1.394 . S
C268 H284 0.931 . S
C269 C268 1.391 . S
C269 C273 1.376 . S
C270 C268 1.394 . S
C270 C271 1.369 . S
C270 C274 1.531 . S
C271 C270 1.369 . S
C271 C272 1.410 . S
C271 C279 1.503 . S
C272 C271 1.410 . S
C272 C273 1.392 . S
C272 C275 1.511 . S
C273 C269 1.376 . S
C273 C272 1.392 . S
C273 H285 0.929 . S
C274 C270 1.531 . S
C274 H286 0.960 . S
C274 H287 0.962 . S
C274 H288 0.960 . S
C275 C272 1.511 . S
C275 H289 0.961 . S
C275 H290 0.961 . S
C275 H291 0.961 . S
C276 C277 1.370 . S
C276 C278 1.363 . S
C276 H292 0.931 . S
C277 C276 1.370 . S
C277 C281 1.408 . S
C278 C276 1.363 . S
C278 C279 1.370 . S
C278 C282 1.524 . S
C279 C271 1.503 . S
C279 C278 1.370 . S
C279 C280 1.403 . S
C280 C279 1.403 . S
C280 C281 1.404 . S
C280 C283 1.539 . S
C281 C277 1.408 . S
C281 C280 1.404 . S
C281 H293 0.930 . S
C282 C278 1.524 . S
C282 H294 0.956 . S
C282 H295 0.961 . S
C282 H296 0.961 . S
C283 C280 1.539 . S
C283 H297 0.958 . S
C283 H298 0.961 . S
C283 H299 0.960 . S
H284 C268 0.931 . S
H285 C273 0.929 . S
H286 C274 0.960 . S
H287 C274 0.962 . S
H288 C274 0.960 . S
H289 C275 0.961 . S
H290 C275 0.961 . S
H291 C275 0.961 . S
H292 C276 0.931 . S
H293 C281 0.930 . S
H294 C282 0.956 . S
H295 C282 0.961 . S
H296 C282 0.961 . S
H297 C283 0.958 . S
H298 C283 0.961 . S
H299 C283 0.960 . S
C300 C301 1.391 . S
C300 C302 1.394 . S
C300 H316 0.931 . S
C301 C300 1.391 . S
C301 C305 1.376 . S
C302 C300 1.394 . S
C302 C303 1.369 . S
C302 C306 1.531 . S
C303 C302 1.369 . S
C303 C304 1.410 . S
C303 C311 1.503 . S
C304 C303 1.410 . S
C304 C305 1.392 . S
C304 C307 1.511 . S
C305 C301 1.376 . S
C305 C304 1.392 . S
C305 H317 0.929 . S
C306 C302 1.531 . S
C306 H318 0.960 . S
C306 H319 0.962 . S
C306 H320 0.960 . S
C307 C304 1.511 . S
C307 H321 0.961 . S
C307 H322 0.961 . S
C307 H323 0.961 . S
C308 C309 1.370 . S
C308 C310 1.363 . S
C308 H324 0.931 . S
C309 C308 1.370 . S
C309 C313 1.408 . S
C310 C308 1.363 . S
C310 C311 1.370 . S
C310 C314 1.524 . S
C311 C303 1.503 . S
C311 C310 1.370 . S
C311 C312 1.403 . S
C312 C311 1.403 . S
C312 C313 1.404 . S
C312 C315 1.539 . S
C313 C309 1.408 . S
C313 C312 1.404 . S
C313 H325 0.930 . S
C314 C310 1.524 . S
C314 H326 0.956 . S
C314 H327 0.961 . S
C314 H328 0.961 . S
C315 C312 1.539 . S
C315 H329 0.958 . S
C315 H330 0.961 . S
C315 H331 0.960 . S
H316 C300 0.931 . S
H317 C305 0.929 . S
H318 C306 0.960 . S
H319 C306 0.962 . S
H320 C306 0.960 . S
H321 C307 0.961 . S
H322 C307 0.961 . S
H323 C307 0.961 . S
H324 C308 0.931 . S
H325 C313 0.930 . S
H326 C314 0.956 . S
H327 C314 0.961 . S
H328 C314 0.961 . S
H329 C315 0.958 . S
H330 C315 0.961 . S
H331 C315 0.960 . S
C332 C333 1.391 . S
C332 C334 1.394 . S
C332 H348 0.931 . S
C333 C332 1.391 . S
C333 C337 1.376 . S
C334 C332 1.394 . S
C334 C335 1.369 1_655 S
C334 C338 1.531 . S
C335 C334 1.369 1_455 S
C335 C336 1.410 . S
C335 C343 1.503 . S
C336 C335 1.410 . S
C336 C337 1.392 1_455 S
C336 C339 1.511 . S
C337 C333 1.376 . S
C337 C336 1.392 1_655 S
C337 H349 0.929 . S
C338 C334 1.531 . S
C338 H350 0.960 1_655 S
C338 H351 0.962 . S
C338 H352 0.960 . S
C339 C336 1.511 . S
C339 H353 0.961 . S
C339 H354 0.961 . S
C339 H355 0.961 1_556 S
C340 C341 1.370 . S
C340 C342 1.363 . S
C340 H356 0.931 . S
C341 C340 1.370 . S
C341 C345 1.408 . S
C342 C340 1.363 . S
C342 C343 1.370 . S
C342 C346 1.524 . S
C343 C335 1.503 . S
C343 C342 1.370 . S
C343 C344 1.403 . S
C344 C343 1.403 . S
C344 C345 1.404 . S
C344 C347 1.539 . S
C345 C341 1.408 . S
C345 C344 1.404 . S
C345 H357 0.930 . S
C346 C342 1.524 . S
C346 H358 0.956 . S
C346 H359 0.961 . S
C346 H360 0.961 . S
C347 C344 1.539 . S
C347 H361 0.958 . S
C347 H362 0.961 . S
C347 H363 0.960 . S
H348 C332 0.931 . S
H349 C337 0.929 . S
H350 C338 0.960 1_455 S
H351 C338 0.962 . S
H352 C338 0.960 . S
H353 C339 0.961 . S
H354 C339 0.961 . S
H355 C339 0.961 1_554 S
H356 C340 0.931 . S
H357 C345 0.930 . S
H358 C346 0.956 . S
H359 C346 0.961 . S
H360 C346 0.961 . S
H361 C347 0.958 . S
H362 C347 0.961 . S
H363 C347 0.960 . S
C364 C365 1.391 . S
C364 C366 1.394 . S
C364 H380 0.931 . S
C365 C364 1.391 . S
C365 C369 1.376 . S
C366 C364 1.394 . S
C366 C367 1.369 . S
C366 C370 1.531 . S
C367 C366 1.369 . S
C367 C368 1.410 . S
C367 C375 1.503 . S
C368 C367 1.410 . S
C368 C369 1.392 . S
C368 C371 1.511 . S
C369 C365 1.376 . S
C369 C368 1.392 . S
C369 H381 0.929 . S
C370 C366 1.531 . S
C370 H382 0.960 . S
C370 H383 0.962 . S
C370 H384 0.960 . S
C371 C368 1.511 . S
C371 H385 0.961 . S
C371 H386 0.961 . S
C371 H387 0.961 . S
C372 C373 1.370 . S
C372 C374 1.363 . S
C372 H388 0.931 . S
C373 C372 1.370 . S
C373 C377 1.408 . S
C374 C372 1.363 . S
C374 C375 1.370 . S
C374 C378 1.524 . S
C375 C367 1.503 . S
C375 C374 1.370 . S
C375 C376 1.403 . S
C376 C375 1.403 . S
C376 C377 1.404 . S
C376 C379 1.539 . S
C377 C373 1.408 . S
C377 C376 1.404 . S
C377 H389 0.930 . S
C378 C374 1.524 . S
C378 H390 0.956 . S
C378 H391 0.961 . S
C378 H392 0.961 . S
C379 C376 1.539 . S
C379 H393 0.958 . S
C379 H394 0.961 . S
C379 H395 0.960 . S
H380 C364 0.931 . S
H381 C369 0.929 . S
H382 C370 0.960 . S
H383 C370 0.962 . S
H384 C370 0.960 . S
H385 C371 0.961 . S
H386 C371 0.961 . S
H387 C371 0.961 . S
H388 C372 0.931 . S
H389 C377 0.930 . S
H390 C378 0.956 . S
H391 C378 0.961 . S
H392 C378 0.961 . S
H393 C379 0.958 . S
H394 C379 0.961 . S
H395 C379 0.960 . S
C396 C397 1.391 . S
C396 C398 1.394 . S
C396 H412 0.931 . S
C397 C396 1.391 . S
C397 C401 1.376 . S
C398 C396 1.394 . S
C398 C399 1.369 . S
C398 C402 1.531 1_455 S
C399 C398 1.369 . S
C399 C400 1.410 . S
C399 C407 1.503 1_455 S
C400 C399 1.410 . S
C400 C401 1.392 . S
C400 C403 1.511 . S
C401 C397 1.376 . S
C401 C400 1.392 . S
C401 H413 0.929 . S
C402 C398 1.531 1_655 S
C402 H414 0.960 . S
C402 H415 0.962 . S
C402 H416 0.960 . S
C403 C400 1.511 . S
C403 H417 0.961 . S
C403 H418 0.961 . S
C403 H419 0.961 . S
C404 C405 1.370 . S
C404 C406 1.363 . S
C404 H420 0.931 . S
C405 C404 1.370 . S
C405 C409 1.408 . S
C406 C404 1.363 . S
C406 C407 1.370 . S
C406 C410 1.524 . S
C407 C399 1.503 1_655 S
C407 C406 1.370 . S
C407 C408 1.403 . S
C408 C407 1.403 . S
C408 C409 1.404 . S
C408 C411 1.539 1_655 S
C409 C405 1.408 . S
C409 C408 1.404 . S
C409 H421 0.930 . S
C410 C406 1.524 . S
C410 H422 0.956 . S
C410 H423 0.961 1_655 S
C410 H424 0.961 . S
C411 C408 1.539 1_455 S
C411 H425 0.958 . S
C411 H426 0.961 . S
C411 H427 0.960 . S
H412 C396 0.931 . S
H413 C401 0.929 . S
H414 C402 0.960 . S
H415 C402 0.962 . S
H416 C402 0.960 . S
H417 C403 0.961 . S
H418 C403 0.961 . S
H419 C403 0.961 . S
H420 C404 0.931 . S
H421 C409 0.930 . S
H422 C410 0.956 . S
H423 C410 0.961 1_455 S
H424 C410 0.961 . S
H425 C411 0.958 . S
H426 C411 0.961 . S
H427 C411 0.960 . S
C428 C429 1.391 . S
C428 C430 1.394 1_545 S
C428 H444 0.931 . S
C429 C428 1.391 . S
C429 C433 1.376 . S
C430 C428 1.394 1_565 S
C430 C431 1.369 . S
C430 C434 1.531 . S
C431 C430 1.369 . S
C431 C432 1.410 1_565 S
C431 C439 1.503 . S
C432 C431 1.410 1_545 S
C432 C433 1.392 . S
C432 C435 1.511 . S
C433 C429 1.376 . S
C433 C432 1.392 . S
C433 H445 0.929 . S
C434 C430 1.531 . S
C434 H446 0.960 . S
C434 H447 0.962 . S
C434 H448 0.960 . S
C435 C432 1.511 . S
C435 H449 0.961 . S
C435 H450 0.961 1_545 S
C435 H451 0.961 . S
C436 C437 1.370 . S
C436 C438 1.363 . S
C436 H452 0.931 . S
C437 C436 1.370 . S
C437 C441 1.408 . S
C438 C436 1.363 . S
C438 C439 1.370 . S
C438 C442 1.524 . S
C439 C431 1.503 . S
C439 C438 1.370 . S
C439 C440 1.403 . S
C440 C439 1.403 . S
C440 C441 1.404 . S
C440 C443 1.539 . S
C441 C437 1.408 . S
C441 C440 1.404 . S
C441 H453 0.930 . S
C442 C438 1.524 . S
C442 H454 0.956 . S
C442 H455 0.961 . S
C442 H456 0.961 . S
C443 C440 1.539 . S
C443 H457 0.958 . S
C443 H458 0.961 . S
C443 H459 0.960 . S
H444 C428 0.931 . S
H445 C433 0.929 . S
H446 C434 0.960 . S
H447 C434 0.962 . S
H448 C434 0.960 . S
H449 C435 0.961 . S
H450 C435 0.961 1_565 S
H451 C435 0.961 . S
H452 C436 0.931 . S
H453 C441 0.930 . S
H454 C442 0.956 . S
H455 C442 0.961 . S
H456 C442 0.961 . S
H457 C443 0.958 . S
H458 C443 0.961 . S
H459 C443 0.960 . S
C460 C461 1.391 . S
C460 C462 1.394 . S
C460 H476 0.931 . S
C461 C460 1.391 . S
C461 C465 1.376 . S
C462 C460 1.394 . S
C462 C463 1.369 . S
C462 C466 1.531 . S
C463 C462 1.369 . S
C463 C464 1.410 . S
C463 C471 1.503 . S
C464 C463 1.410 . S
C464 C465 1.392 . S
C464 C467 1.511 . S
C465 C461 1.376 . S
C465 C464 1.392 . S
C465 H477 0.929 . S
C466 C462 1.531 . S
C466 H478 0.960 . S
C466 H479 0.962 . S
C466 H480 0.960 . S
C467 C464 1.511 . S
C467 H481 0.961 . S
C467 H482 0.961 . S
C467 H483 0.961 . S
C468 C469 1.370 . S
C468 C470 1.363 . S
C468 H484 0.931 . S
C469 C468 1.370 . S
C469 C473 1.408 . S
C470 C468 1.363 . S
C470 C471 1.370 . S
C470 C474 1.524 . S
C471 C463 1.503 . S
C471 C470 1.370 . S
C471 C472 1.403 . S
C472 C471 1.403 . S
C472 C473 1.404 . S
C472 C475 1.539 . S
C473 C469 1.408 . S
C473 C472 1.404 . S
C473 H485 0.930 . S
C474 C470 1.524 . S
C474 H486 0.956 . S
C474 H487 0.961 . S
C474 H488 0.961 . S
C475 C472 1.539 . S
C475 H489 0.958 . S
C475 H490 0.961 . S
C475 H491 0.960 . S
H476 C460 0.931 . S
H477 C465 0.929 . S
H478 C466 0.960 . S
H479 C466 0.962 . S
H480 C466 0.960 . S
H481 C467 0.961 . S
H482 C467 0.961 . S
H483 C467 0.961 . S
H484 C468 0.931 . S
H485 C473 0.930 . S
H486 C474 0.956 . S
H487 C474 0.961 . S
H488 C474 0.961 . S
H489 C475 0.958 . S
H490 C475 0.961 . S
H491 C475 0.960 . S
C492 C493 1.391 . S
C492 C494 1.423 . S
C492 H508 0.931 . S
C493 C492 1.391 . S
C493 C497 1.376 . S
C494 C492 1.423 . S
C494 C495 1.345 1_565 S
C494 C498 1.526 1_565 S
C495 C494 1.345 1_545 S
C495 C496 1.410 . S
C495 C503 1.503 . S
C496 C495 1.410 . S
C496 C497 1.392 1_545 S
C496 C499 1.511 . S
C497 C493 1.376 . S
C497 C496 1.392 1_565 S
C497 H509 0.929 . S
C498 C494 1.526 1_545 S
C498 H510 0.960 . S
C498 H511 0.962 . S
C498 H512 0.960 1_545 S
C499 C496 1.511 . S
C499 H513 0.961 . S
C499 H514 0.961 . S
C499 H515 0.961 . S
C500 C501 1.370 . S
C500 C502 1.363 . S
C500 H516 0.931 . S
C501 C500 1.370 . S
C501 C505 1.408 . S
C502 C500 1.363 . S
C502 C503 1.370 . S
C502 C506 1.524 . S
C503 C495 1.503 . S
C503 C502 1.370 . S
C503 C504 1.403 . S
C504 C503 1.403 . S
C504 C505 1.404 . S
C504 C507 1.539 . S
C505 C501 1.408 . S
C505 C504 1.404 . S
C505 H517 0.930 . S
C506 C502 1.524 . S
C506 H518 0.956 . S
C506 H519 0.961 1_556 S
C506 H520 0.961 1_556 S
C507 C504 1.539 . S
C507 H521 0.958 . S
C507 H522 0.961 . S
C507 H523 0.960 . S
H508 C492 0.931 . S
H509 C497 0.929 . S
H510 C498 0.960 . S
H511 C498 0.962 . S
H512 C498 0.960 1_565 S
H513 C499 0.961 . S
H514 C499 0.961 . S
H515 C499 0.961 . S
H516 C500 0.931 . S
H517 C505 0.930 . S
H518 C506 0.956 . S
H519 C506 0.961 1_554 S
H520 C506 0.961 1_554 S
H521 C507 0.958 . S
H522 C507 0.961 . S
H523 C507 0.960 . S
C524 C525 1.391 . S
C524 C526 1.394 . S
C524 H540 0.931 . S
C525 C524 1.391 . S
C525 C529 1.376 . S
C526 C524 1.394 . S
C526 C527 1.369 . S
C526 C530 1.531 . S
C527 C526 1.369 . S
C527 C528 1.410 . S
C527 C535 1.503 . S
C528 C527 1.410 . S
C528 C529 1.392 . S
C528 C531 1.511 . S
C529 C525 1.376 . S
C529 C528 1.392 . S
C529 H541 0.929 . S
C530 C526 1.531 . S
C530 H542 0.960 . S
C530 H543 0.962 . S
C530 H544 0.960 . S
C531 C528 1.511 . S
C531 H545 0.961 . S
C531 H546 0.961 . S
C531 H547 0.961 . S
C532 C533 1.370 . S
C532 C534 1.363 . S
C532 H548 0.931 . S
C533 C532 1.370 . S
C533 C537 1.408 . S
C534 C532 1.363 . S
C534 C535 1.370 . S
C534 C538 1.524 . S
C535 C527 1.503 . S
C535 C534 1.370 . S
C535 C536 1.403 . S
C536 C535 1.403 . S
C536 C537 1.404 . S
C536 C539 1.539 . S
C537 C533 1.408 . S
C537 C536 1.404 . S
C537 H549 0.930 . S
C538 C534 1.524 . S
C538 H550 0.956 . S
C538 H551 0.961 . S
C538 H552 0.961 . S
C539 C536 1.539 . S
C539 H553 0.958 . S
C539 H554 0.961 . S
C539 H555 0.960 . S
H540 C524 0.931 . S
H541 C529 0.929 . S
H542 C530 0.960 . S
H543 C530 0.962 . S
H544 C530 0.960 . S
H545 C531 0.961 . S
H546 C531 0.961 . S
H547 C531 0.961 . S
H548 C532 0.931 . S
H549 C537 0.930 . S
H550 C538 0.956 . S
H551 C538 0.961 . S
H552 C538 0.961 . S
H553 C539 0.958 . S
H554 C539 0.961 . S
H555 C539 0.960 . S
C556 C557 1.391 . S
C556 C558 1.394 . S
C556 H572 0.931 . S
C557 C556 1.391 . S
C557 C561 1.376 . S
C558 C556 1.394 . S
C558 C559 1.369 . S
C558 C562 1.531 . S
C559 C558 1.369 . S
C559 C560 1.410 . S
C559 C567 1.503 . S
C560 C559 1.410 . S
C560 C561 1.392 . S
C560 C563 1.511 . S
C561 C557 1.376 . S
C561 C560 1.392 . S
C561 H573 0.929 . S
C562 C558 1.531 . S
C562 H574 0.960 . S
C562 H575 0.962 . S
C562 H576 0.960 . S
C563 C560 1.511 . S
C563 H577 0.961 . S
C563 H578 0.961 . S
C563 H579 0.961 . S
C564 C565 1.370 . S
C564 C566 1.363 . S
C564 H580 0.931 . S
C565 C564 1.370 . S
C565 C569 1.408 . S
C566 C564 1.363 . S
C566 C567 1.370 . S
C566 C570 1.524 . S
C567 C559 1.503 . S
C567 C566 1.370 . S
C567 C568 1.403 . S
C568 C567 1.403 . S
C568 C569 1.404 . S
C568 C571 1.539 . S
C569 C565 1.408 . S
C569 C568 1.404 . S
C569 H581 0.930 . S
C570 C566 1.524 . S
C570 H582 0.956 . S
C570 H583 0.961 . S
C570 H584 0.961 . S
C571 C568 1.539 . S
C571 H585 0.958 . S
C571 H586 0.961 . S
C571 H587 0.960 . S
H572 C556 0.931 . S
H573 C561 0.929 . S
H574 C562 0.960 . S
H575 C562 0.962 . S
H576 C562 0.960 . S
H577 C563 0.961 . S
H578 C563 0.961 . S
H579 C563 0.961 . S
H580 C564 0.931 . S
H581 C569 0.930 . S
H582 C570 0.956 . S
H583 C570 0.961 . S
H584 C570 0.961 . S
H585 C571 0.958 . S
H586 C571 0.961 . S
H587 C571 0.960 . S
C588 C589 1.391 1_655 S
C588 C590 1.394 . S
C588 H604 0.931 1_655 S
C589 C588 1.391 1_455 S
C589 C593 1.376 . S
C590 C588 1.394 . S
C590 C591 1.369 . S
C590 C594 1.531 . S
C591 C590 1.369 . S
C591 C592 1.410 . S
C591 C599 1.503 . S
C592 C591 1.410 . S
C592 C593 1.392 1_655 S
C592 C595 1.511 . S
C593 C589 1.376 . S
C593 C592 1.392 1_455 S
C593 H605 0.929 . S
C594 C590 1.531 . S
C594 H606 0.960 . S
C594 H607 0.962 . S
C594 H608 0.960 . S
C595 C592 1.511 . S
C595 H609 0.961 . S
C595 H610 0.961 . S
C595 H611 0.961 . S
C596 C597 1.370 . S
C596 C598 1.363 . S
C596 H612 0.931 . S
C597 C596 1.370 . S
C597 C601 1.408 . S
C598 C596 1.363 . S
C598 C599 1.370 . S
C598 C602 1.524 . S
C599 C591 1.503 . S
C599 C598 1.370 . S
C599 C600 1.403 . S
C600 C599 1.403 . S
C600 C601 1.404 . S
C600 C603 1.539 . S
C601 C597 1.408 . S
C601 C600 1.404 . S
C601 H613 0.930 . S
C602 C598 1.524 . S
C602 H614 0.956 . S
C602 H615 0.961 . S
C602 H616 0.961 . S
C603 C600 1.539 . S
C603 H617 0.958 . S
C603 H618 0.961 . S
C603 H619 0.960 . S
H604 C588 0.931 1_455 S
H605 C593 0.929 . S
H606 C594 0.960 . S
H607 C594 0.962 . S
H608 C594 0.960 . S
H609 C595 0.961 . S
H610 C595 0.961 . S
H611 C595 0.961 . S
H612 C596 0.931 . S
H613 C601 0.930 . S
H614 C602 0.956 . S
H615 C602 0.961 . S
H616 C602 0.961 . S
H617 C603 0.958 . S
H618 C603 0.961 . S
H619 C603 0.960 . S
C620 C621 1.391 . S
C620 C622 1.394 . S
C620 H636 0.931 . S
C621 C620 1.391 . S
C621 C625 1.376 . S
C622 C620 1.394 . S
C622 C623 1.369 . S
C622 C626 1.531 . S
C623 C622 1.369 . S
C623 C624 1.410 . S
C623 C631 1.503 . S
C624 C623 1.410 . S
C624 C625 1.392 . S
C624 C627 1.511 . S
C625 C621 1.376 . S
C625 C624 1.392 . S
C625 H637 0.929 . S
C626 C622 1.531 . S
C626 H638 0.960 . S
C626 H639 0.962 . S
C626 H640 0.960 . S
C627 C624 1.511 . S
C627 H641 0.961 . S
C627 H642 0.961 . S
C627 H643 0.961 . S
C628 C629 1.370 . S
C628 C630 1.363 . S
C628 H644 0.931 . S
C629 C628 1.370 . S
C629 C633 1.408 . S
C630 C628 1.363 . S
C630 C631 1.370 . S
C630 C634 1.524 . S
C631 C623 1.503 . S
C631 C630 1.370 . S
C631 C632 1.403 . S
C632 C631 1.403 . S
C632 C633 1.404 . S
C632 C635 1.539 . S
C633 C629 1.408 . S
C633 C632 1.404 . S
C633 H645 0.930 . S
C634 C630 1.524 . S
C634 H646 0.956 . S
C634 H647 0.961 . S
C634 H648 0.961 . S
C635 C632 1.539 . S
C635 H649 0.958 . S
C635 H650 0.961 . S
C635 H651 0.960 . S
H636 C620 0.931 . S
H637 C625 0.929 . S
H638 C626 0.960 . S
H639 C626 0.962 . S
H640 C626 0.960 . S
H641 C627 0.961 . S
H642 C627 0.961 . S
H643 C627 0.961 . S
H644 C628 0.931 . S
H645 C633 0.930 . S
H646 C634 0.956 . S
H647 C634 0.961 . S
H648 C634 0.961 . S
H649 C635 0.958 . S
H650 C635 0.961 . S
H651 C635 0.960 . S
C652 C653 1.391 . S
C652 C654 1.394 1_655 S
C652 H668 0.931 . S
C653 C652 1.391 . S
C653 C657 1.376 . S
C654 C652 1.394 1_455 S
C654 C655 1.369 . S
C654 C658 1.531 . S
C655 C654 1.369 . S
C655 C656 1.410 1_455 S
C655 C663 1.503 . S
C656 C655 1.410 1_655 S
C656 C657 1.392 . S
C656 C659 1.511 . S
C657 C653 1.376 . S
C657 C656 1.392 . S
C657 H669 0.929 . S
C658 C654 1.531 . S
C658 H670 0.960 . S
C658 H671 0.962 . S
C658 H672 0.960 . S
C659 C656 1.511 . S
C659 H673 0.961 . S
C659 H674 0.961 . S
C659 H675 0.961 . S
C660 C661 1.370 . S
C660 C662 1.363 . S
C660 H676 0.931 . S
C661 C660 1.370 . S
C661 C665 1.408 . S
C662 C660 1.363 . S
C662 C663 1.370 . S
C662 C666 1.524 . S
C663 C655 1.503 . S
C663 C662 1.370 . S
C663 C664 1.403 . S
C664 C663 1.403 . S
C664 C665 1.404 . S
C664 C667 1.539 . S
C665 C661 1.408 . S
C665 C664 1.404 . S
C665 H677 0.930 . S
C666 C662 1.524 . S
C666 H678 0.956 . S
C666 H679 0.961 . S
C666 H680 0.961 . S
C667 C664 1.539 . S
C667 H681 0.958 . S
C667 H682 0.961 . S
C667 H683 0.952 1_455 S
H668 C652 0.931 . S
H669 C657 0.929 . S
H670 C658 0.960 . S
H671 C658 0.962 . S
H672 C658 0.960 . S
H673 C659 0.961 . S
H674 C659 0.961 . S
H675 C659 0.961 . S
H676 C660 0.931 . S
H677 C665 0.930 . S
H678 C666 0.956 . S
H679 C666 0.961 . S
H680 C666 0.961 . S
H681 C667 0.958 . S
H682 C667 0.961 . S
H683 C667 0.952 1_655 S
C684 C685 1.391 . S
C684 C686 1.394 . S
C684 H700 0.931 . S
C685 C684 1.391 . S
C685 C689 1.376 . S
C686 C684 1.394 . S
C686 C687 1.369 . S
C686 C690 1.531 . S
C687 C686 1.369 . S
C687 C688 1.410 . S
C687 C695 1.503 . S
C688 C687 1.410 . S
C688 C689 1.392 . S
C688 C691 1.511 . S
C689 C685 1.376 . S
C689 C688 1.392 . S
C689 H701 0.929 . S
C690 C686 1.531 . S
C690 H702 0.960 . S
C690 H703 0.962 . S
C690 H704 0.960 . S
C691 C688 1.511 . S
C691 H705 0.961 . S
C691 H706 0.961 . S
C691 H707 0.961 . S
C692 C693 1.370 . S
C692 C694 1.363 . S
C692 H708 0.931 . S
C693 C692 1.370 . S
C693 C697 1.408 . S
C694 C692 1.363 . S
C694 C695 1.370 . S
C694 C698 1.524 . S
C695 C687 1.503 . S
C695 C694 1.370 . S
C695 C696 1.403 . S
C696 C695 1.403 . S
C696 C697 1.404 . S
C696 C699 1.539 . S
C697 C693 1.408 . S
C697 C696 1.404 . S
C697 H709 0.930 . S
C698 C694 1.524 . S
C698 H710 0.956 . S
C698 H711 0.961 . S
C698 H712 0.961 . S
C699 C696 1.539 . S
C699 H713 0.958 . S
C699 H714 0.961 . S
C699 H715 0.960 . S
H700 C684 0.931 . S
H701 C689 0.929 . S
H702 C690 0.960 . S
H703 C690 0.962 . S
H704 C690 0.960 . S
H705 C691 0.961 . S
H706 C691 0.961 . S
H707 C691 0.961 . S
H708 C692 0.931 . S
H709 C697 0.930 . S
H710 C698 0.956 . S
H711 C698 0.961 . S
H712 C698 0.961 . S
H713 C699 0.958 . S
H714 C699 0.961 . S
H715 C699 0.960 . S
C716 C717 1.391 . S
C716 C718 1.394 . S
C716 H732 0.931 . S
C717 C716 1.391 . S
C717 C721 1.376 . S
C718 C716 1.394 . S
C718 C719 1.369 . S
C718 C722 1.531 . S
C719 C718 1.369 . S
C719 C720 1.410 . S
C719 C727 1.503 . S
C720 C719 1.410 . S
C720 C721 1.392 . S
C720 C723 1.511 . S
C721 C717 1.376 . S
C721 C720 1.392 . S
C721 H733 0.929 . S
C722 C718 1.531 . S
C722 H734 0.960 . S
C722 H735 0.962 . S
C722 H736 0.960 . S
C723 C720 1.511 . S
C723 H737 0.961 . S
C723 H738 0.961 . S
C723 H739 0.961 . S
C724 C725 1.370 . S
C724 C726 1.363 . S
C724 H740 0.931 . S
C725 C724 1.370 . S
C725 C729 1.408 . S
C726 C724 1.363 . S
C726 C727 1.370 . S
C726 C730 1.524 . S
C727 C719 1.503 . S
C727 C726 1.370 . S
C727 C728 1.403 . S
C728 C727 1.403 . S
C728 C729 1.404 . S
C728 C731 1.539 . S
C729 C725 1.408 . S
C729 C728 1.404 . S
C729 H741 0.930 . S
C730 C726 1.524 . S
C730 H742 0.956 . S
C730 H743 0.961 . S
C730 H744 0.961 . S
C731 C728 1.539 . S
C731 H745 0.958 . S
C731 H746 0.961 . S
C731 H747 0.960 . S
H732 C716 0.931 . S
H733 C721 0.929 . S
H734 C722 0.960 . S
H735 C722 0.962 . S
H736 C722 0.960 . S
H737 C723 0.961 . S
H738 C723 0.961 . S
H739 C723 0.961 . S
H740 C724 0.931 . S
H741 C729 0.930 . S
H742 C730 0.956 . S
H743 C730 0.961 . S
H744 C730 0.961 . S
H745 C731 0.958 . S
H746 C731 0.961 . S
H747 C731 0.960 . S
C748 C749 1.391 . S
C748 C750 1.394 . S
C748 H764 0.931 . S
C749 C748 1.391 . S
C749 C753 1.376 . S
C750 C748 1.394 . S
C750 C751 1.369 . S
C750 C754 1.531 . S
C751 C750 1.369 . S
C751 C752 1.410 . S
C751 C759 1.503 . S
C752 C751 1.410 . S
C752 C753 1.392 . S
C752 C755 1.511 . S
C753 C749 1.376 . S
C753 C752 1.392 . S
C753 H765 0.929 . S
C754 C750 1.531 . S
C754 H766 0.960 . S
C754 H767 0.962 . S
C754 H768 0.960 . S
C755 C752 1.511 . S
C755 H769 0.961 . S
C755 H770 0.961 . S
C755 H771 0.961 . S
C756 C757 1.370 . S
C756 C758 1.363 . S
C756 H772 0.931 . S
C757 C756 1.370 . S
C757 C761 1.408 . S
C758 C756 1.363 . S
C758 C759 1.370 . S
C758 C762 1.524 . S
C759 C751 1.503 . S
C759 C758 1.370 . S
C759 C760 1.403 . S
C760 C759 1.403 . S
C760 C761 1.404 . S
C760 C763 1.539 . S
C761 C757 1.408 . S
C761 C760 1.404 . S
C761 H773 0.930 . S
C762 C758 1.524 . S
C762 H774 0.956 . S
C762 H775 0.961 . S
C762 H776 0.961 . S
C763 C760 1.539 . S
C763 H777 0.958 . S
C763 H778 0.961 . S
C763 H779 0.960 . S
H764 C748 0.931 . S
H765 C753 0.929 . S
H766 C754 0.960 . S
H767 C754 0.962 . S
H768 C754 0.960 . S
H769 C755 0.961 . S
H770 C755 0.961 . S
H771 C755 0.961 . S
H772 C756 0.931 . S
H773 C761 0.930 . S
H774 C762 0.956 . S
H775 C762 0.961 . S
H776 C762 0.961 . S
H777 C763 0.958 . S
H778 C763 0.961 . S
H779 C763 0.960 . S
C780 C781 1.391 . S
C780 C782 1.394 . S
C780 H796 0.931 . S
C781 C780 1.391 . S
C781 C785 1.376 . S
C782 C780 1.394 . S
C782 C783 1.369 . S
C782 C786 1.531 . S
C783 C782 1.369 . S
C783 C784 1.410 . S
C783 C791 1.503 . S
C784 C783 1.410 . S
C784 C785 1.392 . S
C784 C787 1.511 . S
C785 C781 1.376 . S
C785 C784 1.392 . S
C785 H797 0.929 . S
C786 C782 1.531 . S
C786 H798 0.960 . S
C786 H799 0.962 . S
C786 H800 0.960 . S
C787 C784 1.511 . S
C787 H801 0.961 . S
C787 H802 0.961 . S
C787 H803 0.961 . S
C788 C789 1.370 . S
C788 C790 1.363 . S
C788 H804 0.931 . S
C789 C788 1.370 . S
C789 C793 1.408 . S
C790 C788 1.363 . S
C790 C791 1.370 . S
C790 C794 1.524 . S
C791 C783 1.503 . S
C791 C790 1.370 . S
C791 C792 1.403 . S
C792 C791 1.403 . S
C792 C793 1.404 . S
C792 C795 1.539 . S
C793 C789 1.408 . S
C793 C792 1.404 . S
C793 H805 0.930 . S
C794 C790 1.524 . S
C794 H806 0.956 . S
C794 H807 0.961 . S
C794 H808 0.961 . S
C795 C792 1.539 . S
C795 H809 0.958 . S
C795 H810 0.961 . S
C795 H811 0.960 . S
H796 C780 0.931 . S
H797 C785 0.929 . S
H798 C786 0.960 . S
H799 C786 0.962 . S
H800 C786 0.960 . S
H801 C787 0.961 . S
H802 C787 0.961 . S
H803 C787 0.961 . S
H804 C788 0.931 . S
H805 C793 0.930 . S
H806 C794 0.956 . S
H807 C794 0.961 . S
H808 C794 0.961 . S
H809 C795 0.958 . S
H810 C795 0.961 . S
H811 C795 0.960 . S
C812 C813 1.391 . S
C812 C814 1.394 . S
C812 H828 0.931 . S
C813 C812 1.391 . S
C813 C817 1.376 . S
C814 C812 1.394 . S
C814 C815 1.369 . S
C814 C818 1.531 . S
C815 C814 1.369 . S
C815 C816 1.410 . S
C815 C823 1.503 . S
C816 C815 1.410 . S
C816 C817 1.392 . S
C816 C819 1.511 . S
C817 C813 1.376 . S
C817 C816 1.392 . S
C817 H829 0.929 . S
C818 C814 1.531 . S
C818 H830 0.960 . S
C818 H831 0.962 . S
C818 H832 0.960 . S
C819 C816 1.511 . S
C819 H833 0.961 . S
C819 H834 0.961 . S
C819 H835 0.961 . S
C820 C821 1.370 . S
C820 C822 1.363 . S
C820 H836 0.931 . S
C821 C820 1.370 . S
C821 C825 1.408 . S
C822 C820 1.363 . S
C822 C823 1.370 . S
C822 C826 1.524 . S
C823 C815 1.503 . S
C823 C822 1.370 . S
C823 C824 1.403 . S
C824 C823 1.403 . S
C824 C825 1.404 . S
C824 C827 1.539 . S
C825 C821 1.408 . S
C825 C824 1.404 . S
C825 H837 0.930 . S
C826 C822 1.524 . S
C826 H838 0.956 . S
C826 H839 0.961 . S
C826 H840 0.961 . S
C827 C824 1.539 . S
C827 H841 0.958 . S
C827 H842 0.961 . S
C827 H843 0.960 . S
H828 C812 0.931 . S
H829 C817 0.929 . S
H830 C818 0.960 . S
H831 C818 0.962 . S
H832 C818 0.960 . S
H833 C819 0.961 . S
H834 C819 0.961 . S
H835 C819 0.961 . S
H836 C820 0.931 . S
H837 C825 0.930 . S
H838 C826 0.956 . S
H839 C826 0.961 . S
H840 C826 0.961 . S
H841 C827 0.958 . S
H842 C827 0.961 . S
H843 C827 0.960 . S
C844 C845 1.391 . S
C844 C846 1.394 . S
C844 H860 0.931 . S
C845 C844 1.391 . S
C845 C849 1.376 . S
C846 C844 1.394 . S
C846 C847 1.369 . S
C846 C850 1.531 . S
C847 C846 1.369 . S
C847 C848 1.410 . S
C847 C855 1.503 . S
C848 C847 1.410 . S
C848 C849 1.392 . S
C848 C851 1.511 . S
C849 C845 1.376 . S
C849 C848 1.392 . S
C849 H861 0.929 . S
C850 C846 1.531 . S
C850 H862 0.960 . S
C850 H863 0.962 . S
C850 H864 0.960 . S
C851 C848 1.511 . S
C851 H865 0.961 . S
C851 H866 0.961 . S
C851 H867 0.961 . S
C852 C853 1.370 . S
C852 C854 1.363 . S
C852 H868 0.931 . S
C853 C852 1.370 . S
C853 C857 1.408 . S
C854 C852 1.363 . S
C854 C855 1.370 . S
C854 C858 1.524 . S
C855 C847 1.503 . S
C855 C854 1.370 . S
C855 C856 1.403 . S
C856 C855 1.403 . S
C856 C857 1.404 . S
C856 C859 1.539 . S
C857 C853 1.408 . S
C857 C856 1.404 . S
C857 H869 0.930 . S
C858 C854 1.524 . S
C858 H870 0.956 . S
C858 H871 0.961 . S
C858 H872 0.961 . S
C859 C856 1.539 . S
C859 H873 0.958 . S
C859 H874 0.961 . S
C859 H875 0.960 . S
H860 C844 0.931 . S
H861 C849 0.929 . S
H862 C850 0.960 . S
H863 C850 0.962 . S
H864 C850 0.960 . S
H865 C851 0.961 . S
H866 C851 0.961 . S
H867 C851 0.961 . S
H868 C852 0.931 . S
H869 C857 0.930 . S
H870 C858 0.956 . S
H871 C858 0.961 . S
H872 C858 0.961 . S
H873 C859 0.958 . S
H874 C859 0.961 . S
H875 C859 0.960 . S
C876 C877 1.391 . S
C876 C878 1.394 . S
C876 H892 0.931 . S
C877 C876 1.391 . S
C877 C881 1.376 . S
C878 C876 1.394 . S
C878 C879 1.369 . S
C878 C882 1.531 . S
C879 C878 1.369 . S
C879 C880 1.410 . S
C879 C887 1.503 . S
C880 C879 1.410 . S
C880 C881 1.392 . S
C880 C883 1.511 . S
C881 C877 1.376 . S
C881 C880 1.392 . S
C881 H893 0.929 . S
C882 C878 1.531 . S
C882 H894 0.960 . S
C882 H895 0.962 . S
C882 H896 0.960 . S
C883 C880 1.511 . S
C883 H897 0.961 . S
C883 H898 0.961 . S
C883 H899 0.961 . S
C884 C885 1.370 . S
C884 C886 1.363 . S
C884 H900 0.931 . S
C885 C884 1.370 . S
C885 C889 1.408 . S
C886 C884 1.363 . S
C886 C887 1.370 . S
C886 C890 1.524 . S
C887 C879 1.503 . S
C887 C886 1.370 . S
C887 C888 1.403 . S
C888 C887 1.403 . S
C888 C889 1.404 . S
C888 C891 1.539 . S
C889 C885 1.408 . S
C889 C888 1.404 . S
C889 H901 0.930 . S
C890 C886 1.524 . S
C890 H902 0.956 . S
C890 H903 0.961 . S
C890 H904 0.961 . S
C891 C888 1.539 . S
C891 H905 0.958 . S
C891 H906 0.961 . S
C891 H907 0.960 . S
H892 C876 0.931 . S
H893 C881 0.929 . S
H894 C882 0.960 . S
H895 C882 0.962 . S
H896 C882 0.960 . S
H897 C883 0.961 . S
H898 C883 0.961 . S
H899 C883 0.961 . S
H900 C884 0.931 . S
H901 C889 0.930 . S
H902 C890 0.956 . S
H903 C890 0.961 . S
H904 C890 0.961 . S
H905 C891 0.958 . S
H906 C891 0.961 . S
H907 C891 0.960 . S
C908 C909 1.391 . S
C908 C910 1.394 . S
C908 H924 0.931 1_556 S
C909 C908 1.391 . S
C909 C913 1.376 . S
C910 C908 1.394 . S
C910 C911 1.369 . S
C910 C914 1.531 . S
C911 C910 1.369 . S
C911 C912 1.410 . S
C911 C919 1.503 . S
C912 C911 1.410 . S
C912 C913 1.392 . S
C912 C915 1.511 . S
C913 C909 1.376 . S
C913 C912 1.392 . S
C913 H925 0.929 . S
C914 C910 1.531 . S
C914 H926 0.960 . S
C914 H927 0.962 . S
C914 H928 0.960 1_556 S
C915 C912 1.511 . S
C915 H929 0.961 . S
C915 H930 0.961 . S
C915 H931 0.961 . S
C916 C917 1.370 . S
C916 C918 1.363 . S
C916 H932 0.931 . S
C917 C916 1.370 . S
C917 C921 1.408 . S
C918 C916 1.363 . S
C918 C919 1.370 . S
C918 C922 1.524 . S
C919 C911 1.503 . S
C919 C918 1.370 . S
C919 C920 1.403 . S
C920 C919 1.403 . S
C920 C921 1.404 . S
C920 C923 1.539 . S
C921 C917 1.408 . S
C921 C920 1.404 . S
C921 H933 0.930 . S
C922 C918 1.524 . S
C922 H934 0.956 . S
C922 H935 0.961 . S
C922 H936 0.961 . S
C923 C920 1.539 . S
C923 H937 0.958 . S
C923 H938 0.961 . S
C923 H939 0.960 . S
H924 C908 0.931 1_554 S
H925 C913 0.929 . S
H926 C914 0.960 . S
H927 C914 0.962 . S
H928 C914 0.960 1_554 S
H929 C915 0.961 . S
H930 C915 0.961 . S
H931 C915 0.961 . S
H932 C916 0.931 . S
H933 C921 0.930 . S
H934 C922 0.956 . S
H935 C922 0.961 . S
H936 C922 0.961 . S
H937 C923 0.958 . S
H938 C923 0.961 . S
H939 C923 0.960 . S
C173 C7 0.870 . S
C181 C89 0.785 . S
C205 C25 0.771 . S
C213 C100 0.874 . S
C237 C46 0.782 . S
C245 C110 0.885 . S
C277 C122 0.786 . S
C269 C70 0.748 . S
C309 C133 0.841 . S
C301 C28 0.751 . S
C333 C49 0.829 . S
C341 C144 0.769 . S
C365 C67 0.880 . S
C373 C154 0.852 . S
C397 C4 0.783 . S
C405 C166 0.865 . S
C429 C58 1.548 . S
C437 C165 1.677 . S
C469 C132 1.569 . S
C461 C66 1.500 . S
C501 C143 1.659 . S
C493 C3 1.571 . S
C525 C37 1.729 . S
C533 C155 1.779 . S
C565 C99 1.675 . S
C557 C79 1.523 . S
C589 C16 1.670 . S
C597 C111 1.778 . S
C629 C121 1.666 . S
C621 C24 1.631 . S
C661 C88 1.574 . S
C653 C45 1.454 . S
C693 C160 1.461 . S
C685 C19 1.361 . S
C725 C171 1.457 . S
C717 C41 1.357 . S
C749 C62 1.244 . S
C757 C138 1.347 . S
C789 C149 1.330 . S
C781 C82 1.150 . S
C821 C116 1.460 . S
C813 C40 1.260 . S
C845 C61 1.200 . S
C853 C127 1.325 . S
C885 C94 1.347 . S
C877 C83 1.237 . S
C917 C105 1.458 . S
C909 C20 1.358 . S
