# Generated by pormake.
# Topology tbo, (3,4)-cn, num edge types: 1
# Building blocks:
#     Node 0, Type 0, BuildingBlock: MIDCAF_clean_linker_0, # of connection points: 3
#     Node 1, Type 0, BuildingBlock: MIDCAF_clean_linker_0, # of connection points: 3
#     Node 2, Type 0, BuildingBlock: MIDCAF_clean_linker_0, # of connection points: 3
#     Node 3, Type 0, BuildingBlock: MIDCAF_clean_linker_0, # of connection points: 3
#     Node 4, Type 0, BuildingBlock: MIDCAF_clean_linker_0, # of connection points: 3
#     Node 5, Type 0, BuildingBlock: MIDCAF_clean_linker_0, # of connection points: 3
#     Node 6, Type 0, BuildingBlock: MIDCAF_clean_linker_0, # of connection points: 3
#     Node 7, Type 0, BuildingBlock: MIDCAF_clean_linker_0, # of connection points: 3
#     Node 8, Type 0, BuildingBlock: MIDCAF_clean_linker_0, # of connection points: 3
#     Node 9, Type 0, BuildingBlock: MIDCAF_clean_linker_0, # of connection points: 3
#     Node 10, Type 0, BuildingBlock: MIDCAF_clean_linker_0, # of connection points: 3
#     Node 11, Type 0, BuildingBlock: MIDCAF_clean_linker_0, # of connection points: 3
#     Node 12, Type 0, BuildingBlock: MIDCAF_clean_linker_0, # of connection points: 3
#     Node 13, Type 0, BuildingBlock: MIDCAF_clean_linker_0, # of connection points: 3
#     Node 14, Type 0, BuildingBlock: MIDCAF_clean_linker_0, # of connection points: 3
#     Node 15, Type 0, BuildingBlock: MIDCAF_clean_linker_0, # of connection points: 3
#     Node 16, Type 0, BuildingBlock: MIDCAF_clean_linker_0, # of connection points: 3
#     Node 17, Type 0, BuildingBlock: MIDCAF_clean_linker_0, # of connection points: 3
#     Node 18, Type 0, BuildingBlock: MIDCAF_clean_linker_0, # of connection points: 3
#     Node 19, Type 0, BuildingBlock: MIDCAF_clean_linker_0, # of connection points: 3
#     Node 20, Type 0, BuildingBlock: MIDCAF_clean_linker_0, # of connection points: 3
#     Node 21, Type 0, BuildingBlock: MIDCAF_clean_linker_0, # of connection points: 3
#     Node 22, Type 0, BuildingBlock: MIDCAF_clean_linker_0, # of connection points: 3
#     Node 23, Type 0, BuildingBlock: MIDCAF_clean_linker_0, # of connection points: 3
#     Node 24, Type 0, BuildingBlock: MIDCAF_clean_linker_0, # of connection points: 3
#     Node 25, Type 0, BuildingBlock: MIDCAF_clean_linker_0, # of connection points: 3
#     Node 26, Type 0, BuildingBlock: MIDCAF_clean_linker_0, # of connection points: 3
#     Node 27, Type 0, BuildingBlock: MIDCAF_clean_linker_0, # of connection points: 3
#     Node 28, Type 0, BuildingBlock: MIDCAF_clean_linker_0, # of connection points: 3
#     Node 29, Type 0, BuildingBlock: MIDCAF_clean_linker_0, # of connection points: 3
#     Node 30, Type 0, BuildingBlock: MIDCAF_clean_linker_0, # of connection points: 3
#     Node 31, Type 0, BuildingBlock: MIDCAF_clean_linker_0, # of connection points: 3
#     Node 32, Type 1, BuildingBlock: ESEHIV_clean_sbu_0, # of connection points: 4
#     Node 33, Type 1, BuildingBlock: ESEHIV_clean_sbu_0, # of connection points: 4
#     Node 34, Type 1, BuildingBlock: ESEHIV_clean_sbu_0, # of connection points: 4
#     Node 35, Type 1, BuildingBlock: ESEHIV_clean_sbu_0, # of connection points: 4
#     Node 36, Type 1, BuildingBlock: ESEHIV_clean_sbu_0, # of connection points: 4
#     Node 37, Type 1, BuildingBlock: ESEHIV_clean_sbu_0, # of connection points: 4
#     Node 38, Type 1, BuildingBlock: ESEHIV_clean_sbu_0, # of connection points: 4
#     Node 39, Type 1, BuildingBlock: ESEHIV_clean_sbu_0, # of connection points: 4
#     Node 40, Type 1, BuildingBlock: ESEHIV_clean_sbu_0, # of connection points: 4
#     Node 41, Type 1, BuildingBlock: ESEHIV_clean_sbu_0, # of connection points: 4
#     Node 42, Type 1, BuildingBlock: ESEHIV_clean_sbu_0, # of connection points: 4
#     Node 43, Type 1, BuildingBlock: ESEHIV_clean_sbu_0, # of connection points: 4
#     Node 44, Type 1, BuildingBlock: ESEHIV_clean_sbu_0, # of connection points: 4
#     Node 45, Type 1, BuildingBlock: ESEHIV_clean_sbu_0, # of connection points: 4
#     Node 46, Type 1, BuildingBlock: ESEHIV_clean_sbu_0, # of connection points: 4
#     Node 47, Type 1, BuildingBlock: ESEHIV_clean_sbu_0, # of connection points: 4
#     Node 48, Type 1, BuildingBlock: ESEHIV_clean_sbu_0, # of connection points: 4
#     Node 49, Type 1, BuildingBlock: ESEHIV_clean_sbu_0, # of connection points: 4
#     Node 50, Type 1, BuildingBlock: ESEHIV_clean_sbu_0, # of connection points: 4
#     Node 51, Type 1, BuildingBlock: ESEHIV_clean_sbu_0, # of connection points: 4
#     Node 52, Type 1, BuildingBlock: ESEHIV_clean_sbu_0, # of connection points: 4
#     Node 53, Type 1, BuildingBlock: ESEHIV_clean_sbu_0, # of connection points: 4
#     Node 54, Type 1, BuildingBlock: ESEHIV_clean_sbu_0, # of connection points: 4
#     Node 55, Type 1, BuildingBlock: ESEHIV_clean_sbu_0, # of connection points: 4
#     Edge 56, Type (0, 1), None
#     Edge 57, Type (0, 1), None
#     Edge 58, Type (0, 1), None
#     Edge 59, Type (0, 1), None
#     Edge 60, Type (0, 1), None
#     Edge 61, Type (0, 1), None
#     Edge 62, Type (0, 1), None
#     Edge 63, Type (0, 1), None
#     Edge 64, Type (0, 1), None
#     Edge 65, Type (0, 1), None
#     Edge 66, Type (0, 1), None
#     Edge 67, Type (0, 1), None
#     Edge 68, Type (0, 1), None
#     Edge 69, Type (0, 1), None
#     Edge 70, Type (0, 1), None
#     Edge 71, Type (0, 1), None
#     Edge 72, Type (0, 1), None
#     Edge 73, Type (0, 1), None
#     Edge 74, Type (0, 1), None
#     Edge 75, Type (0, 1), None
#     Edge 76, Type (0, 1), None
#     Edge 77, Type (0, 1), None
#     Edge 78, Type (0, 1), None
#     Edge 79, Type (0, 1), None
#     Edge 80, Type (0, 1), None
#     Edge 81, Type (0, 1), None
#     Edge 82, Type (0, 1), None
#     Edge 83, Type (0, 1), None
#     Edge 84, Type (0, 1), None
#     Edge 85, Type (0, 1), None
#     Edge 86, Type (0, 1), None
#     Edge 87, Type (0, 1), None
#     Edge 88, Type (0, 1), None
#     Edge 89, Type (0, 1), None
#     Edge 90, Type (0, 1), None
#     Edge 91, Type (0, 1), None
#     Edge 92, Type (0, 1), None
#     Edge 93, Type (0, 1), None
#     Edge 94, Type (0, 1), None
#     Edge 95, Type (0, 1), None
#     Edge 96, Type (0, 1), None
#     Edge 97, Type (0, 1), None
#     Edge 98, Type (0, 1), None
#     Edge 99, Type (0, 1), None
#     Edge 100, Type (0, 1), None
#     Edge 101, Type (0, 1), None
#     Edge 102, Type (0, 1), None
#     Edge 103, Type (0, 1), None
#     Edge 104, Type (0, 1), None
#     Edge 105, Type (0, 1), None
#     Edge 106, Type (0, 1), None
#     Edge 107, Type (0, 1), None
#     Edge 108, Type (0, 1), None
#     Edge 109, Type (0, 1), None
#     Edge 110, Type (0, 1), None
#     Edge 111, Type (0, 1), None
#     Edge 112, Type (0, 1), None
#     Edge 113, Type (0, 1), None
#     Edge 114, Type (0, 1), None
#     Edge 115, Type (0, 1), None
#     Edge 116, Type (0, 1), None
#     Edge 117, Type (0, 1), None
#     Edge 118, Type (0, 1), None
#     Edge 119, Type (0, 1), None
#     Edge 120, Type (0, 1), None
#     Edge 121, Type (0, 1), None
#     Edge 122, Type (0, 1), None
#     Edge 123, Type (0, 1), None
#     Edge 124, Type (0, 1), None
#     Edge 125, Type (0, 1), None
#     Edge 126, Type (0, 1), None
#     Edge 127, Type (0, 1), None
#     Edge 128, Type (0, 1), None
#     Edge 129, Type (0, 1), None
#     Edge 130, Type (0, 1), None
#     Edge 131, Type (0, 1), None
#     Edge 132, Type (0, 1), None
#     Edge 133, Type (0, 1), None
#     Edge 134, Type (0, 1), None
#     Edge 135, Type (0, 1), None
#     Edge 136, Type (0, 1), None
#     Edge 137, Type (0, 1), None
#     Edge 138, Type (0, 1), None
#     Edge 139, Type (0, 1), None
#     Edge 140, Type (0, 1), None
#     Edge 141, Type (0, 1), None
#     Edge 142, Type (0, 1), None
#     Edge 143, Type (0, 1), None
#     Edge 144, Type (0, 1), None
#     Edge 145, Type (0, 1), None
#     Edge 146, Type (0, 1), None
#     Edge 147, Type (0, 1), None
#     Edge 148, Type (0, 1), None
#     Edge 149, Type (0, 1), None
#     Edge 150, Type (0, 1), None
#     Edge 151, Type (0, 1), None
# Relax obj value: 0.005
# Max RMSD: 0.135
# Mean RMSD: 0.053
data_MOF--net-tbo--node1-ESEHIV_clean_sbu_0--node2-MIDCAF_clean_linker_0--edge1-none
_symmetry_space_group_name_H-M    P1
_symmetry_Int_Tables_number       1
_symmetry_cell_setting            triclinic
loop_
_symmetry_equiv_pos_as_xyz
'x, y, z'
_cell_length_a     49.768145
_cell_length_b     49.719736
_cell_length_c     49.731036
_cell_angle_alpha  90.065584
_cell_angle_beta   93.595022
_cell_angle_gamma 91.155516
loop_
_atom_site_label
_atom_site_type_symbol
_atom_site_fract_x
_atom_site_fract_y
_atom_site_fract_z
_atom_type_partial_charge
C0 C 0.11138 0.21456 0.23697 0.0
C1 C 0.10762 0.20113 0.26146 0.0
C2 C 0.12408 0.17918 0.26828 0.0
C3 C 0.1435 0.17081 0.25109 0.0
H4 H 0.16952 0.09578 0.19675 0.0
H5 H 0.18392 0.05316 0.21615 0.0
H6 H 0.26528 0.08464 0.22815 0.0
H7 H 0.25068 0.12762 0.20789 0.0
H8 H 0.2349 0.17435 0.13742 0.0
H9 H 0.24599 0.20094 0.09846 0.0
H10 H 0.17932 0.25281 0.11062 0.0
H11 H 0.16793 0.22611 0.14965 0.0
H12 H 0.13309 0.21706 0.20118 0.0
H13 H 0.09898 0.23126 0.23059 0.0
H14 H 0.12218 0.1685 0.28701 0.0
H15 H 0.15574 0.15382 0.25714 0.0
N16 N 0.17932 0.15082 0.21259 0.0
N17 N 0.20539 0.15735 0.17532 0.0
N18 N 0.17469 0.19015 0.18706 0.0
C19 C 0.19816 0.14194 0.19633 0.0
C20 C 0.19355 0.18154 0.17046 0.0
C21 C 0.16764 0.17497 0.20834 0.0
C22 C 0.20897 0.11488 0.20108 0.0
C23 C 0.19068 0.09326 0.20257 0.0
C24 C 0.19897 0.06887 0.21364 0.0
C25 C 0.22566 0.06568 0.22387 0.0
C26 C 0.24466 0.08646 0.22012 0.0
C27 C 0.23631 0.11103 0.20868 0.0
C28 C 0.20054 0.19804 0.14684 0.0
C29 C 0.22254 0.19141 0.13189 0.0
C30 C 0.22903 0.20678 0.10959 0.0
C31 C 0.2136 0.22909 0.10148 0.0
C32 C 0.19146 0.23564 0.11623 0.0
C33 C 0.18509 0.2204 0.13873 0.0
C34 C 0.14719 0.18424 0.22665 0.0
C35 C 0.13097 0.20631 0.21988 0.0
C36 C 0.8502 0.1255 0.25316 0.0
C37 C 0.83002 0.10896 0.2405 0.0
C38 C 0.82051 0.11521 0.21397 0.0
C39 C 0.83159 0.13704 0.20023 0.0
H40 H 0.81766 0.20474 0.13851 0.0
H41 H 0.80168 0.22838 0.09716 0.0
H42 H 0.8838 0.25116 0.08316 0.0
H43 H 0.89949 0.22826 0.12379 0.0
H44 H 0.92566 0.25586 0.19984 0.0
H45 H 0.96565 0.27068 0.22837 0.0
H46 H 0.98108 0.18779 0.24901 0.0
H47 H 0.94156 0.17341 0.22155 0.0
H48 H 0.87696 0.15912 0.25008 0.0
H49 H 0.85759 0.12174 0.2737 0.0
H50 H 0.80506 0.10283 0.20353 0.0
H51 H 0.82435 0.14093 0.17964 0.0
N52 N 0.85613 0.1847 0.17411 0.0
N53 N 0.89382 0.21415 0.17277 0.0
N54 N 0.89021 0.1846 0.20888 0.0
C55 C 0.86995 0.20439 0.16129 0.0
C56 C 0.90404 0.2042 0.19652 0.0
C57 C 0.86628 0.1748 0.19815 0.0
C58 C 0.8598 0.21519 0.13481 0.0
C59 C 0.83223 0.21446 0.12627 0.0
C60 C 0.82309 0.22781 0.10255 0.0
C61 C 0.84146 0.24188 0.08711 0.0
C62 C 0.86906 0.24086 0.0948 0.0
C63 C 0.87808 0.2278 0.11827 0.0
C64 C 0.93031 0.21354 0.209 0.0
C65 C 0.93809 0.24093 0.2101 0.0
C66 C 0.96093 0.24939 0.22632 0.0
C67 C 0.97621 0.23045 0.24129 0.0
C68 C 0.96948 0.20299 0.23817 0.0
C69 C 0.94678 0.19468 0.22243 0.0
C70 C 0.85243 0.15298 0.21274 0.0
C71 C 0.86123 0.14713 0.23952 0.0
C72 C 0.8159 0.82664 0.0802 0.0
C73 C 0.79291 0.8382 0.06748 0.0
C74 C 0.78265 0.8615 0.0788 0.0
C75 C 0.79473 0.87281 0.10234 0.0
H76 H 0.77742 0.92435 0.17133 0.0
H77 H 0.75921 0.96139 0.19739 0.0
H78 H 0.83983 0.98208 0.22884 0.0
H79 H 0.85762 0.94561 0.20369 0.0
H80 H 0.88798 0.88997 0.22484 0.0
H81 H 0.92731 0.87168 0.24876 0.0
H82 H 0.93492 0.81438 0.18443 0.0
H83 H 0.8949 0.83233 0.16063 0.0
H84 H 0.84566 0.82853 0.11333 0.0
H85 H 0.82427 0.80865 0.07204 0.0
H86 H 0.76501 0.87106 0.06959 0.0
H87 H 0.78598 0.89067 0.11033 0.0
N88 N 0.81887 0.89564 0.15137 0.0
N89 N 0.85262 0.89641 0.18633 0.0
N90 N 0.85238 0.86278 0.1533 0.0
C91 C 0.83026 0.90731 0.17412 0.0
C92 C 0.8638 0.87417 0.17629 0.0
C93 C 0.82991 0.87344 0.14067 0.0
C94 C 0.81891 0.93168 0.18597 0.0
C95 C 0.79117 0.93723 0.18349 0.0
C96 C 0.78075 0.95845 0.19825 0.0
C97 C 0.79804 0.97437 0.21545 0.0
C98 C 0.82587 0.9699 0.21615 0.0
C99 C 0.83612 0.94887 0.20176 0.0
C100 C 0.88812 0.86269 0.19066 0.0
C101 C 0.89795 0.87345 0.21566 0.0
C102 C 0.92075 0.86302 0.22944 0.0
C103 C 0.93455 0.84154 0.21864 0.0
C104 C 0.92473 0.8307 0.19363 0.0
C105 C 0.90178 0.84111 0.17984 0.0
C106 C 0.81752 0.8612 0.11537 0.0
C107 C 0.82809 0.83802 0.10392 0.0
C108 C 0.06336 0.82596 0.17902 0.0
C109 C 0.06249 0.79977 0.18951 0.0
C110 C 0.08492 0.78331 0.18752 0.0
C111 C 0.10885 0.79405 0.17791 0.0
H112 H 0.17057 0.80454 0.10698 0.0
H113 H 0.20094 0.79505 0.07184 0.0
H114 H 0.25741 0.85514 0.1053 0.0
H115 H 0.22694 0.86507 0.14006 0.0
H116 H 0.2055 0.90872 0.1786 0.0
H117 H 0.21902 0.94478 0.20936 0.0
H118 H 0.15989 0.91759 0.26393 0.0
H119 H 0.14561 0.88172 0.2323 0.0
H120 H 0.08795 0.85773 0.16417 0.0
H121 H 0.04643 0.83912 0.18062 0.0
H122 H 0.08495 0.76328 0.19607 0.0
H123 H 0.1267 0.7819 0.17875 0.0
N124 N 0.15379 0.82819 0.14953 0.0
N125 N 0.18381 0.86272 0.16495 0.0
N126 N 0.14332 0.85596 0.18563 0.0
C127 C 0.17749 0.8421 0.14758 0.0
C128 C 0.16699 0.86972 0.1841 0.0
C129 C 0.13664 0.83522 0.16848 0.0
C130 C 0.19619 0.83556 0.12645 0.0
C131 C 0.18947 0.81571 0.10692 0.0
C132 C 0.20701 0.81018 0.08678 0.0
C133 C 0.23173 0.82432 0.08569 0.0
C134 C 0.23844 0.84411 0.10526 0.0
C135 C 0.22094 0.84966 0.12536 0.0
C136 C 0.17457 0.89215 0.20299 0.0
C137 C 0.19533 0.91035 0.19715 0.0
C138 C 0.20324 0.93107 0.21504 0.0
C139 C 0.19091 0.93408 0.23957 0.0
C140 C 0.16982 0.91609 0.24527 0.0
C141 C 0.16166 0.89543 0.22713 0.0
C142 C 0.11044 0.8213 0.17051 0.0
C143 C 0.08717 0.8367 0.16985 0.0
C144 C 0.09181 0.82222 0.83801 0.0
C145 C 0.08526 0.82369 0.81012 0.0
C146 C 0.10358 0.83648 0.79366 0.0
C147 C 0.12876 0.84585 0.80478 0.0
H148 H 0.18924 0.91557 0.81363 0.0
H149 H 0.21579 0.95581 0.80422 0.0
H150 H 0.28397 0.92367 0.8507 0.0
H151 H 0.2575 0.88383 0.86049 0.0
H152 H 0.25243 0.82329 0.88331 0.0
H153 H 0.2738 0.80257 0.92307 0.0
H154 H 0.1961 0.78638 0.95406 0.0
H155 H 0.17423 0.80716 0.91355 0.0
H156 H 0.1216 0.82848 0.87032 0.0
H157 H 0.07804 0.81287 0.8514 0.0
H158 H 0.09915 0.83784 0.77211 0.0
H159 H 0.14315 0.85441 0.79157 0.0
N160 N 0.17898 0.8683 0.83493 0.0
N161 N 0.21474 0.85572 0.86493 0.0
N162 N 0.17419 0.83102 0.86362 0.0
C163 C 0.20457 0.87268 0.84568 0.0
C164 C 0.19985 0.83487 0.87398 0.0
C165 C 0.16373 0.84744 0.84385 0.0
C166 C 0.22107 0.8964 0.83793 0.0
C167 C 0.20995 0.91698 0.82168 0.0
C168 C 0.22525 0.9401 0.81623 0.0
C169 C 0.25207 0.94317 0.82685 0.0
C170 C 0.2633 0.92231 0.8426 0.0
C171 C 0.24806 0.89928 0.84805 0.0
C172 C 0.21169 0.81741 0.89557 0.0
C173 C 0.23974 0.81482 0.89822 0.0
C174 C 0.25199 0.80274 0.9209 0.0
C175 C 0.23657 0.793 0.94161 0.0
C176 C 0.20836 0.79343 0.93816 0.0
C177 C 0.19594 0.8055 0.91512 0.0
C178 C 0.13595 0.84218 0.83237 0.0
C179 C 0.11686 0.83111 0.84893 0.0
C180 C 0.15451 0.2644 0.85846 0.0
C181 C 0.13383 0.25668 0.83929 0.0
C182 C 0.135 0.23108 0.82721 0.0
C183 C 0.15594 0.21356 0.83451 0.0
H184 H 0.21317 0.14846 0.80691 0.0
H185 H 0.22934 0.10825 0.78429 0.0
H186 H 0.25078 0.0735 0.862 0.0
H187 H 0.23529 0.11312 0.88422 0.0
H188 H 0.25576 0.23602 0.91262 0.0
H189 H 0.27479 0.24907 0.95726 0.0
H190 H 0.25454 0.17037 0.98762 0.0
H191 H 0.23657 0.15692 0.94232 0.0
H192 H 0.19063 0.25356 0.88095 0.0
H193 H 0.1547 0.28403 0.86787 0.0
H194 H 0.11941 0.22416 0.81257 0.0
H195 H 0.1558 0.19383 0.82523 0.0
N196 N 0.20069 0.17809 0.85101 0.0
N197 N 0.23266 0.16554 0.88538 0.0
N198 N 0.21191 0.20726 0.88738 0.0
C199 C 0.21858 0.1599 0.86156 0.0
C200 C 0.22963 0.1893 0.89817 0.0
C201 C 0.19709 0.2018 0.86406 0.0
C202 C 0.2235 0.13424 0.84739 0.0
C203 C 0.22079 0.13189 0.81906 0.0
C204 C 0.22989 0.10884 0.80609 0.0
C205 C 0.24161 0.08783 0.82134 0.0
C206 C 0.24219 0.08946 0.8496 0.0
C207 C 0.23339 0.1123 0.86241 0.0
C208 C 0.24462 0.19554 0.92412 0.0
C209 C 0.25609 0.22128 0.92868 0.0
C210 C 0.2672 0.22865 0.95422 0.0
C211 C 0.26625 0.21069 0.976 0.0
C212 C 0.25575 0.18453 0.97118 0.0
C213 C 0.24543 0.17686 0.94532 0.0
C214 C 0.17617 0.22108 0.85422 0.0
C215 C 0.17531 0.24687 0.86585 0.0
C216 C 0.85707 0.12304 0.80929 0.0
C217 C 0.8356 0.11428 0.82445 0.0
C218 C 0.82999 0.12894 0.8475 0.0
C219 C 0.84551 0.15166 0.85534 0.0
H220 H 0.85386 0.20568 0.91557 0.0
H221 H 0.84051 0.23029 0.95432 0.0
H222 H 0.89923 0.29294 0.93945 0.0
H223 H 0.91324 0.26767 0.90091 0.0
H224 H 0.96998 0.22304 0.87471 0.0
H225 H 1.01034 0.24321 0.85781 0.0
H226 H 0.97465 0.23851 0.77649 0.0
H227 H 0.93387 0.21724 0.7937 0.0
H228 H 0.88931 0.15172 0.80526 0.0
H229 H 0.86211 0.11204 0.79157 0.0
H230 H 0.81342 0.12297 0.85941 0.0
H231 H 0.8405 0.16227 0.87332 0.0
N232 N 0.87721 0.19826 0.87141 0.0
N233 N 0.91554 0.22585 0.86907 0.0
N234 N 0.90707 0.19097 0.83746 0.0
C235 C 0.89262 0.21931 0.88116 0.0
C236 C 0.92289 0.21187 0.84726 0.0
C237 C 0.88415 0.18395 0.84967 0.0
C238 C 0.88461 0.23465 0.90497 0.0
C239 C 0.86397 0.22472 0.92048 0.0
C240 C 0.85616 0.23904 0.94277 0.0
C241 C 0.86854 0.26392 0.95014 0.0
C242 C 0.88932 0.27382 0.93467 0.0
C243 C 0.89731 0.25932 0.91243 0.0
C244 C 0.94867 0.21907 0.83558 0.0
C245 C 0.97092 0.22567 0.85316 0.0
C246 C 0.99409 0.23714 0.84341 0.0
C247 C 0.99555 0.24276 0.81585 0.0
C248 C 0.97417 0.23421 0.7978 0.0
C249 C 0.95083 0.22223 0.80765 0.0
C250 C 0.86724 0.16029 0.84043 0.0
C251 C 0.87277 0.14573 0.81723 0.0
C252 C 0.78367 0.87397 0.90558 0.0
C253 C 0.78445 0.84769 0.91602 0.0
C254 C 0.80115 0.82897 0.90443 0.0
C255 C 0.81768 0.8366 0.884 0.0
H256 H 0.88417 0.81077 0.84744 0.0
H257 H 0.92142 0.78176 0.83852 0.0
H258 H 0.96265 0.84897 0.803 0.0
H259 H 0.92514 0.87758 0.81104 0.0
H260 H 0.89214 0.94166 0.81535 0.0
H261 H 0.88564 0.98564 0.7936 0.0
H262 H 0.80182 0.96491 0.77525 0.0
H263 H 0.80804 0.92181 0.79803 0.0
H264 H 0.79974 0.90222 0.87789 0.0
H265 H 0.77107 0.88888 0.91404 0.0
H266 H 0.80172 0.80835 0.91132 0.0
H267 H 0.83063 0.82166 0.87606 0.0
N268 N 0.85913 0.85602 0.85071 0.0
N269 N 0.87545 0.88765 0.82051 0.0
N270 N 0.83475 0.89502 0.84069 0.0
C271 C 0.87819 0.86389 0.83382 0.0
C272 C 0.85367 0.90313 0.82365 0.0
C273 C 0.83748 0.87152 0.85448 0.0
C274 C 0.90149 0.84649 0.82969 0.0
C275 C 0.90125 0.81937 0.83777 0.0
C276 C 0.92273 0.80269 0.83275 0.0
C277 C 0.94508 0.81277 0.81971 0.0
C278 C 0.9456 0.84016 0.81244 0.0
C279 C 0.92405 0.85671 0.81719 0.0
C280 C 0.8505 0.92857 0.80857 0.0
C281 C 0.87244 0.9465 0.80637 0.0
C282 C 0.86878 0.97153 0.79384 0.0
C283 C 0.84337 0.97853 0.7824 0.0
C284 C 0.82178 0.95992 0.78345 0.0
C285 C 0.82522 0.93538 0.79677 0.0
C286 C 0.81784 0.86313 0.87432 0.0
C287 C 0.80016 0.88161 0.88489 0.0
C288 C 0.10127 0.72843 0.70204 0.0
C289 C 0.10186 0.71881 0.72872 0.0
C290 C 0.12285 0.70184 0.73758 0.0
C291 C 0.14277 0.6949 0.72034 0.0
H292 H 0.19419 0.6324 0.70608 0.0
H293 H 0.22516 0.59772 0.72067 0.0
H294 H 0.27898 0.62233 0.65994 0.0
H295 H 0.24726 0.65671 0.64461 0.0
H296 H 0.19008 0.67863 0.58708 0.0
H297 H 0.20977 0.6985 0.548 0.0
H298 H 0.21008 0.77676 0.58552 0.0
H299 H 0.18969 0.75672 0.62492 0.0
H300 H 0.1201 0.72948 0.66453 0.0
H301 H 0.08521 0.74107 0.69416 0.0
H302 H 0.12421 0.69423 0.75798 0.0
H303 H 0.15869 0.68191 0.72798 0.0
N304 N 0.18028 0.67691 0.68254 0.0
N305 N 0.2017 0.68212 0.6423 0.0
N306 N 0.16607 0.71029 0.65167 0.0
C307 C 0.19953 0.66927 0.6661 0.0
C308 C 0.18511 0.70256 0.63495 0.0
C309 C 0.16343 0.69728 0.67554 0.0
C310 C 0.21827 0.64753 0.67431 0.0
C311 C 0.21259 0.63047 0.69578 0.0
C312 C 0.23057 0.6106 0.70428 0.0
C313 C 0.25496 0.60741 0.69183 0.0
C314 C 0.26041 0.6241 0.66995 0.0
C315 C 0.24223 0.64389 0.66123 0.0
C316 C 0.18876 0.71612 0.60905 0.0
C317 C 0.19323 0.70025 0.58653 0.0
C318 C 0.20433 0.71166 0.5641 0.0
C319 C 0.21143 0.7391 0.56384 0.0
C320 C 0.2043 0.75563 0.58508 0.0
C321 C 0.19285 0.74415 0.60764 0.0
C322 C 0.14233 0.70486 0.69381 0.0
C323 C 0.1213 0.72169 0.68489 0.0
C324 C 0.86224 0.63827 0.7425 0.0
C325 C 0.84243 0.61908 0.73392 0.0
C326 C 0.82952 0.62188 0.70803 0.0
C327 C 0.83661 0.64304 0.69107 0.0
H328 H 0.80689 0.70528 0.62698 0.0
H329 H 0.78376 0.72261 0.5854 0.0
H330 H 0.86095 0.74265 0.55488 0.0
H331 H 0.88365 0.72617 0.59587 0.0
H332 H 0.91192 0.76928 0.68049 0.0
H333 H 0.95318 0.7871 0.70497 0.0
H334 H 0.98698 0.70786 0.70417 0.0
H335 H 0.94604 0.69025 0.68066 0.0
H336 H 0.88493 0.67343 0.73298 0.0
H337 H 0.87227 0.6372 0.76239 0.0
H338 H 0.81434 0.60743 0.70052 0.0
H339 H 0.82664 0.64428 0.67113 0.0
N340 N 0.85199 0.68945 0.65778 0.0
N341 N 0.88531 0.72185 0.64822 0.0
N342 N 0.88985 0.69637 0.6877 0.0
C343 C 0.86157 0.7087 0.64113 0.0
C344 C 0.89944 0.71572 0.67152 0.0
C345 C 0.86615 0.68326 0.68125 0.0
C346 C 0.84708 0.71505 0.61498 0.0
C347 C 0.8188 0.71294 0.61108 0.0
C348 C 0.80556 0.7226 0.58723 0.0
C349 C 0.82054 0.73418 0.56701 0.0
C350 C 0.8488 0.73413 0.57021 0.0
C351 C 0.86186 0.72486 0.59386 0.0
C352 C 0.92588 0.72837 0.67905 0.0
C353 C 0.92869 0.75606 0.68472 0.0
C354 C 0.95229 0.76627 0.69854 0.0
C355 C 0.97316 0.7488 0.70658 0.0
C356 C 0.97116 0.72176 0.69834 0.0
C357 C 0.94773 0.71162 0.68494 0.0
C358 C 0.8569 0.66179 0.69952 0.0
C359 C 0.8694 0.65924 0.72556 0.0
C360 C 0.8509 0.30411 0.62856 0.0
C361 C 0.83197 0.31226 0.60817 0.0
C362 C 0.82091 0.33804 0.61018 0.0
C363 C 0.82873 0.35519 0.63179 0.0
H364 H 0.80104 0.41756 0.69974 0.0
H365 H 0.78196 0.45891 0.71769 0.0
H366 H 0.86185 0.4945 0.72645 0.0
H367 H 0.88063 0.45365 0.70954 0.0
H368 H 0.91208 0.39898 0.75643 0.0
H369 H 0.95282 0.38637 0.78278 0.0
H370 H 0.96764 0.32598 0.72307 0.0
H371 H 0.92687 0.33795 0.69759 0.0
H372 H 0.87361 0.31422 0.66516 0.0
H373 H 0.8596 0.28437 0.62812 0.0
H374 H 0.80654 0.34535 0.59484 0.0
H375 H 0.82007 0.37498 0.6324 0.0
N376 N 0.84503 0.3891 0.67888 0.0
N377 N 0.87812 0.39976 0.71338 0.0
N378 N 0.8806 0.35969 0.68911 0.0
C379 C 0.85521 0.40623 0.69856 0.0
C380 C 0.89088 0.37646 0.70887 0.0
C381 C 0.85781 0.36571 0.67401 0.0
C382 C 0.8424 0.43224 0.70383 0.0
C383 C 0.8143 0.43459 0.70487 0.0
C384 C 0.80335 0.45828 0.71492 0.0
C385 C 0.82043 0.47986 0.72366 0.0
C386 C 0.84815 0.47815 0.72013 0.0
C387 C 0.85899 0.45465 0.71057 0.0
C388 C 0.91601 0.3694 0.72492 0.0
C389 C 0.92409 0.38298 0.74902 0.0
C390 C 0.9476 0.37575 0.76414 0.0
C391 C 0.9638 0.35491 0.75542 0.0
C392 C 0.95575 0.34171 0.73105 0.0
C393 C 0.93221 0.34872 0.71617 0.0
C394 C 0.848 0.34714 0.65186 0.0
C395 C 0.85884 0.3213 0.65001 0.0
C396 C 0.10226 0.36544 0.73269 0.0
C397 C 0.09988 0.3373 0.73426 0.0
C398 C 0.11859 0.32152 0.72167 0.0
C399 C 0.14047 0.3339 0.70949 0.0
H400 H 0.19433 0.33582 0.63897 0.0
H401 H 0.22119 0.32058 0.60267 0.0
H402 H 0.28119 0.38233 0.62364 0.0
H403 H 0.25437 0.39782 0.65921 0.0
H404 H 0.20697 0.45865 0.6769 0.0
H405 H 0.23256 0.49839 0.6927 0.0
H406 H 0.23694 0.46703 0.77369 0.0
H407 H 0.21039 0.42703 0.75772 0.0
H408 H 0.1255 0.39943 0.72102 0.0
H409 H 0.088 0.37816 0.74197 0.0
H410 H 0.11736 0.29978 0.72281 0.0
H411 H 0.15546 0.32141 0.70112 0.0
N412 N 0.1833 0.3652 0.68168 0.0
N413 N 0.21261 0.40277 0.68502 0.0
N414 N 0.17647 0.39991 0.71278 0.0
C415 C 0.2055 0.37872 0.67352 0.0
C416 C 0.19843 0.4134 0.70465 0.0
C417 C 0.1686 0.37587 0.70124 0.0
C418 C 0.22199 0.36815 0.65203 0.0
C419 C 0.21329 0.34607 0.63586 0.0
C420 C 0.2288 0.33728 0.61505 0.0
C421 C 0.25343 0.35029 0.61 0.0
C422 C 0.2622 0.37209 0.62647 0.0
C423 C 0.24674 0.38089 0.6471 0.0
C424 C 0.20702 0.43979 0.71605 0.0
C425 C 0.21244 0.46071 0.69826 0.0
C426 C 0.227 0.48348 0.70735 0.0
C427 C 0.23683 0.48567 0.73437 0.0
C428 C 0.22923 0.46599 0.75285 0.0
C429 C 0.21424 0.44309 0.74369 0.0
C430 C 0.14387 0.36213 0.71 0.0
C431 C 0.12393 0.37766 0.72083 0.0
C432 C 0.09631 0.31247 0.36583 0.0
C433 C 0.0895 0.31164 0.33798 0.0
C434 C 0.10623 0.32529 0.32051 0.0
C435 C 0.13041 0.33773 0.33072 0.0
H436 H 0.18859 0.40718 0.32748 0.0
H437 H 0.21314 0.44647 0.31176 0.0
H438 H 0.27987 0.42931 0.36842 0.0
H439 H 0.2554 0.39044 0.38441 0.0
H440 H 0.2553 0.32676 0.40834 0.0
H441 H 0.27866 0.31019 0.44917 0.0
H442 H 0.20291 0.2984 0.48559 0.0
H443 H 0.17904 0.31464 0.44393 0.0
H444 H 0.12541 0.32368 0.39738 0.0
H445 H 0.08366 0.30254 0.37991 0.0
H446 H 0.10152 0.32492 0.29895 0.0
H447 H 0.14378 0.34684 0.3168 0.0
N448 N 0.1794 0.36525 0.35794 0.0
N449 N 0.21603 0.35789 0.38891 0.0
N450 N 0.17702 0.33108 0.39055 0.0
C451 C 0.20473 0.37214 0.368 0.0
C452 C 0.20242 0.33736 0.40025 0.0
C453 C 0.16546 0.34472 0.36923 0.0
C454 C 0.21988 0.39552 0.35727 0.0
C455 C 0.20853 0.4117 0.33654 0.0
C456 C 0.22269 0.43424 0.32744 0.0
C457 C 0.24853 0.44118 0.33887 0.0
C458 C 0.25991 0.42488 0.35943 0.0
C459 C 0.24583 0.40237 0.36846 0.0
C460 C 0.21542 0.32255 0.42318 0.0
C461 C 0.24348 0.32005 0.42473 0.0
C462 C 0.25683 0.31033 0.44802 0.0
C463 C 0.24254 0.30311 0.47047 0.0
C464 C 0.21429 0.30347 0.46837 0.0
C465 C 0.20074 0.31299 0.44468 0.0
C466 C 0.13813 0.33643 0.35843 0.0
C467 C 0.12032 0.32456 0.37589 0.0
C468 C 0.12312 0.74568 0.31601 0.0
C469 C 0.10137 0.73641 0.29891 0.0
C470 C 0.10195 0.70991 0.28879 0.0
C471 C 0.12328 0.69288 0.29642 0.0
H472 H 0.19987 0.63214 0.27233 0.0
H473 H 0.22271 0.59202 0.25648 0.0
H474 H 0.21789 0.55622 0.33501 0.0
H475 H 0.19585 0.59593 0.35079 0.0
H476 H 0.24527 0.65521 0.38485 0.0
H477 H 0.26934 0.67138 0.42635 0.0
H478 H 0.20545 0.72704 0.43791 0.0
H479 H 0.18219 0.71171 0.3965 0.0
H480 H 0.16034 0.73663 0.33731 0.0
H481 H 0.12383 0.76605 0.3237 0.0
H482 H 0.08553 0.70194 0.27567 0.0
H483 H 0.1227 0.67238 0.28901 0.0
N484 N 0.17108 0.65989 0.31339 0.0
N485 N 0.20309 0.65058 0.349 0.0
N486 N 0.17896 0.69033 0.34933 0.0
C487 C 0.18992 0.64329 0.32517 0.0
C488 C 0.19774 0.67413 0.36117 0.0
C489 C 0.16552 0.68359 0.32561 0.0
C490 C 0.19651 0.61724 0.31292 0.0
C491 C 0.20275 0.61517 0.28576 0.0
C492 C 0.2156 0.59216 0.27662 0.0
C493 C 0.22198 0.57102 0.29453 0.0
C494 C 0.21311 0.57216 0.32075 0.0
C495 C 0.20067 0.595 0.32986 0.0
C496 C 0.21194 0.68238 0.38713 0.0
C497 C 0.23642 0.67087 0.39636 0.0
C498 C 0.25019 0.6801 0.42022 0.0
C499 C 0.23966 0.70089 0.43544 0.0
C500 C 0.21473 0.71162 0.42652 0.0
C501 C 0.2012 0.70265 0.40269 0.0
C502 C 0.1444 0.70195 0.31445 0.0
C503 C 0.14425 0.72873 0.32369 0.0
C504 C 0.85243 0.59093 0.30754 0.0
C505 C 0.8248 0.58459 0.30801 0.0
C506 C 0.80797 0.60292 0.31999 0.0
C507 C 0.8185 0.62777 0.32986 0.0
H508 H 0.82291 0.68621 0.39968 0.0
H509 H 0.80941 0.71289 0.43749 0.0
H510 H 0.85595 0.7807 0.41009 0.0
H511 H 0.8699 0.75398 0.3729 0.0
H512 H 0.92775 0.7301 0.35075 0.0
H513 H 0.9652 0.75106 0.33003 0.0
H514 H 0.9448 0.70724 0.25618 0.0
H515 H 0.90672 0.68537 0.27768 0.0
H516 H 0.88403 0.61997 0.31546 0.0
H517 H 0.86611 0.57717 0.29883 0.0
H518 H 0.7866 0.59864 0.32057 0.0
H519 H 0.80503 0.64204 0.33808 0.0
N520 N 0.84661 0.67675 0.3544 0.0
N521 N 0.87929 0.71045 0.34831 0.0
N522 N 0.87866 0.67148 0.32194 0.0
C523 C 0.85774 0.70128 0.36124 0.0
C524 C 0.88986 0.69584 0.32866 0.0
C525 C 0.85707 0.66175 0.33475 0.0
C526 C 0.84763 0.7178 0.38327 0.0
C527 C 0.8301 0.70686 0.40165 0.0
C528 C 0.82231 0.72227 0.42335 0.0
C529 C 0.8317 0.74906 0.42711 0.0
C530 C 0.8487 0.76008 0.4083 0.0
C531 C 0.85659 0.74469 0.38676 0.0
C532 C 0.91395 0.70641 0.31576 0.0
C533 C 0.93115 0.72471 0.33013 0.0
C534 C 0.9528 0.73674 0.31815 0.0
C535 C 0.95786 0.73117 0.29121 0.0
C536 C 0.9414 0.71198 0.27693 0.0
C537 C 0.91963 0.69954 0.28922 0.0
C538 C 0.84587 0.63465 0.32756 0.0
C539 C 0.86276 0.61561 0.31699 0.0
C540 C 0.79263 0.33311 0.44823 0.0
C541 C 0.80904 0.32638 0.47119 0.0
C542 C 0.83681 0.33216 0.47148 0.0
C543 C 0.84844 0.34172 0.44852 0.0
H544 H 0.8975 0.29217 0.39506 0.0
H545 H 0.93592 0.26531 0.38432 0.0
H546 H 0.95736 0.32485 0.32561 0.0
H547 H 0.91884 0.35084 0.33563 0.0
H548 H 0.86746 0.38181 0.30788 0.0
H549 H 0.85735 0.41868 0.27726 0.0
H550 H 0.80838 0.45423 0.33613 0.0
H551 H 0.81791 0.4169 0.36645 0.0
H552 H 0.79168 0.34657 0.40698 0.0
H553 H 0.77123 0.32848 0.44733 0.0
H554 H 0.84996 0.32729 0.48892 0.0
H555 H 0.87014 0.34429 0.44893 0.0
N556 N 0.8678 0.33583 0.39442 0.0
N557 N 0.87269 0.35922 0.35422 0.0
N558 N 0.83773 0.37017 0.38165 0.0
C559 C 0.88113 0.33981 0.37173 0.0
C560 C 0.85115 0.37449 0.3589 0.0
C561 C 0.84608 0.35085 0.39949 0.0
C562 C 0.9049 0.32359 0.36608 0.0
C563 C 0.91048 0.29944 0.37984 0.0
C564 C 0.93262 0.28405 0.37371 0.0
C565 C 0.94987 0.29257 0.35384 0.0
C566 C 0.94443 0.31704 0.34054 0.0
C567 C 0.92224 0.33219 0.34644 0.0
C568 C 0.84351 0.39634 0.33973 0.0
C569 C 0.8544 0.39743 0.31428 0.0
C570 C 0.84873 0.41875 0.29668 0.0
C571 C 0.83213 0.43971 0.30406 0.0
C572 C 0.82097 0.43841 0.32942 0.0
C573 C 0.82648 0.41695 0.34697 0.0
C574 C 0.83254 0.34624 0.42477 0.0
C575 C 0.80436 0.34319 0.42512 0.0
C576 C 0.62219 0.2303 0.72006 0.0
C577 C 0.62356 0.22018 0.74661 0.0
C578 C 0.64499 0.20356 0.75475 0.0
C579 C 0.66405 0.19656 0.73673 0.0
H580 H 0.68679 0.11955 0.70299 0.0
H581 H 0.7082 0.08233 0.72662 0.0
H582 H 0.78535 0.10807 0.6996 0.0
H583 H 0.76349 0.146 0.67546 0.0
H584 H 0.71327 0.17286 0.60321 0.0
H585 H 0.72875 0.19308 0.56248 0.0
H586 H 0.71992 0.27232 0.59592 0.0
H587 H 0.70356 0.25178 0.63712 0.0
H588 H 0.63944 0.23083 0.6815 0.0
H589 H 0.60588 0.24301 0.71294 0.0
H590 H 0.64714 0.19589 0.7751 0.0
H591 H 0.68006 0.1834 0.74381 0.0
N592 N 0.69378 0.17243 0.6966 0.0
N593 N 0.71552 0.17415 0.65634 0.0
N594 N 0.68571 0.20843 0.66701 0.0
C595 C 0.71088 0.16149 0.6798 0.0
C596 C 0.70286 0.1976 0.64972 0.0
C597 C 0.68122 0.19575 0.69067 0.0
C598 C 0.72356 0.13587 0.68777 0.0
C599 C 0.70823 0.117 0.70149 0.0
C600 C 0.72052 0.09568 0.71507 0.0
C601 C 0.7485 0.09264 0.71535 0.0
C602 C 0.76372 0.11001 0.69964 0.0
C603 C 0.75125 0.13162 0.68586 0.0
C604 C 0.70783 0.21068 0.62363 0.0
C605 C 0.71408 0.1946 0.6018 0.0
C606 C 0.72275 0.20624 0.57833 0.0
C607 C 0.72577 0.2343 0.57607 0.0
C608 C 0.71751 0.25066 0.59698 0.0
C609 C 0.70842 0.23888 0.62062 0.0
C610 C 0.66232 0.20601 0.71 0.0
C611 C 0.64145 0.22336 0.70196 0.0
C612 C 0.37042 0.12732 0.75869 0.0
C613 C 0.34822 0.11174 0.74851 0.0
C614 C 0.33542 0.11907 0.72355 0.0
C615 C 0.34476 0.14124 0.70913 0.0
H616 H 0.32234 0.20216 0.64806 0.0
H617 H 0.29961 0.22368 0.60846 0.0
H618 H 0.37423 0.26483 0.59263 0.0
H619 H 0.39642 0.24405 0.63137 0.0
H620 H 0.43124 0.26446 0.70213 0.0
H621 H 0.47347 0.28119 0.72568 0.0
H622 H 0.49756 0.1991 0.73944 0.0
H623 H 0.45576 0.1828 0.71711 0.0
H624 H 0.39703 0.16067 0.75294 0.0
H625 H 0.38055 0.12273 0.77796 0.0
H626 H 0.31845 0.10746 0.7148 0.0
H627 H 0.33461 0.1461 0.6899 0.0
N628 N 0.36453 0.18969 0.68165 0.0
N629 N 0.39949 0.22171 0.67703 0.0
N630 N 0.40246 0.19051 0.71215 0.0
C631 C 0.3752 0.21078 0.66804 0.0
C632 C 0.41323 0.21155 0.69897 0.0
C633 C 0.37814 0.17954 0.70392 0.0
C634 C 0.36113 0.22176 0.64328 0.0
C635 C 0.33383 0.21568 0.63591 0.0
C636 C 0.32082 0.22785 0.6132 0.0
C637 C 0.33501 0.24619 0.59759 0.0
C638 C 0.3625 0.25114 0.60439 0.0
C639 C 0.37531 0.2392 0.62682 0.0
C640 C 0.44008 0.22235 0.7084 0.0
C641 C 0.44596 0.25017 0.70978 0.0
C642 C 0.47012 0.25973 0.72308 0.0
C643 C 0.48864 0.24148 0.73475 0.0
C644 C 0.48353 0.21375 0.7311 0.0
C645 C 0.45951 0.20433 0.71836 0.0
C646 C 0.36722 0.15652 0.71924 0.0
C647 C 0.37981 0.1493 0.74428 0.0
C648 C 0.33865 0.80658 0.62016 0.0
C649 C 0.32037 0.8144 0.59913 0.0
C650 C 0.30869 0.83995 0.60056 0.0
C651 C 0.31586 0.8575 0.6221 0.0
H652 H 0.28957 0.91814 0.69718 0.0
H653 H 0.27181 0.95786 0.71942 0.0
H654 H 0.34965 0.99727 0.71752 0.0
H655 H 0.36732 0.95792 0.69617 0.0
H656 H 0.40242 0.90153 0.74496 0.0
H657 H 0.44375 0.88759 0.76981 0.0
H658 H 0.45666 0.82968 0.70725 0.0
H659 H 0.41544 0.84287 0.68319 0.0
H660 H 0.36029 0.81719 0.65708 0.0
H661 H 0.34757 0.78691 0.62016 0.0
H662 H 0.29462 0.84676 0.58468 0.0
H663 H 0.30713 0.87727 0.62223 0.0
N664 N 0.33216 0.89205 0.6697 0.0
N665 N 0.36675 0.90326 0.70267 0.0
N666 N 0.36864 0.86337 0.67814 0.0
C667 C 0.34306 0.90933 0.68898 0.0
C668 C 0.37962 0.88022 0.69739 0.0
C669 C 0.34511 0.86891 0.66418 0.0
C670 C 0.32995 0.93486 0.69541 0.0
C671 C 0.30248 0.93577 0.70061 0.0
C672 C 0.29224 0.95856 0.71309 0.0
C673 C 0.30935 0.98065 0.72011 0.0
C674 C 0.33597 0.98058 0.71224 0.0
C675 C 0.34618 0.95795 0.70022 0.0
C676 C 0.40539 0.87316 0.71218 0.0
C677 C 0.41417 0.88585 0.73656 0.0
C678 C 0.43795 0.87788 0.7508 0.0
C679 C 0.45356 0.85718 0.74085 0.0
C680 C 0.44501 0.84513 0.71609 0.0
C681 C 0.42127 0.85287 0.70208 0.0
C682 C 0.33491 0.84989 0.6426 0.0
C683 C 0.34582 0.82402 0.64151 0.0
C684 C 0.58447 0.85161 0.70155 0.0
C685 C 0.58294 0.82464 0.70974 0.0
C686 C 0.60326 0.80706 0.70297 0.0
C687 C 0.62608 0.81712 0.69061 0.0
H688 H 0.68134 0.82263 0.61504 0.0
H689 H 0.70856 0.81017 0.57807 0.0
H690 H 0.77185 0.86497 0.60838 0.0
H691 H 0.74464 0.8778 0.64479 0.0
H692 H 0.72185 0.93104 0.67373 0.0
H693 H 0.73971 0.96931 0.69939 0.0
H694 H 0.69296 0.94564 0.76619 0.0
H695 H 0.67405 0.90752 0.73966 0.0
H696 H 0.60854 0.88294 0.68533 0.0
H697 H 0.56906 0.86558 0.70648 0.0
H698 H 0.60273 0.78627 0.70943 0.0
H699 H 0.64256 0.8038 0.68749 0.0
N700 N 0.6701 0.8477 0.65985 0.0
N701 N 0.70195 0.88245 0.66939 0.0
N702 N 0.6635 0.87946 0.6939 0.0
C703 C 0.69381 0.8604 0.65471 0.0
C704 C 0.68709 0.89205 0.68904 0.0
C705 C 0.65484 0.85736 0.67942 0.0
C706 C 0.71064 0.85129 0.63292 0.0
C707 C 0.70112 0.8319 0.61389 0.0
C708 C 0.71682 0.82471 0.59269 0.0
C709 C 0.74248 0.83664 0.59009 0.0
C710 C 0.75209 0.8557 0.60938 0.0
C711 C 0.73642 0.86293 0.63045 0.0
C712 C 0.69675 0.91605 0.70473 0.0
C713 C 0.71531 0.93396 0.69388 0.0
C714 C 0.72574 0.95593 0.70879 0.0
C715 C 0.71832 0.96043 0.73526 0.0
C716 C 0.69915 0.9429 0.74592 0.0
C717 C 0.68835 0.921 0.73073 0.0
C718 C 0.6287 0.84479 0.6852 0.0
C719 C 0.60713 0.8616 0.68958 0.0
C720 C 0.57884 0.81483 0.33953 0.0
C721 C 0.57328 0.81589 0.31149 0.0
C722 C 0.59137 0.82991 0.2957 0.0
C723 C 0.61539 0.84117 0.30775 0.0
H724 H 0.6718 0.9122 0.3106 0.0
H725 H 0.69755 0.95146 0.29644 0.0
H726 H 0.76237 0.93178 0.35447 0.0
H727 H 0.73669 0.8932 0.36893 0.0
H728 H 0.69994 0.87035 0.42898 0.0
H729 H 0.72451 0.85253 0.46843 0.0
H730 H 0.71038 0.77162 0.43841 0.0
H731 H 0.68461 0.78982 0.39863 0.0
H732 H 0.60647 0.82369 0.37298 0.0
H733 H 0.56518 0.80453 0.35239 0.0
H734 H 0.58768 0.83093 0.27404 0.0
H735 H 0.62957 0.85097 0.29512 0.0
N736 N 0.66242 0.86792 0.33837 0.0
N737 N 0.69478 0.86428 0.37448 0.0
N738 N 0.65739 0.83494 0.37183 0.0
C739 C 0.68602 0.87652 0.35127 0.0
C740 C 0.68078 0.84348 0.38479 0.0
C741 C 0.64796 0.84717 0.34867 0.0
C742 C 0.70197 0.89957 0.34108 0.0
C743 C 0.6916 0.9162 0.32023 0.0
C744 C 0.70645 0.9387 0.31205 0.0
C745 C 0.73204 0.94503 0.32447 0.0
C746 C 0.74258 0.92797 0.34482 0.0
C747 C 0.72778 0.90564 0.35302 0.0
C748 C 0.69083 0.8315 0.4106 0.0
C749 C 0.70145 0.84872 0.43105 0.0
C750 C 0.71545 0.83845 0.4537 0.0
C751 C 0.71969 0.81068 0.45634 0.0
C752 C 0.70724 0.79308 0.43698 0.0
C753 C 0.6927 0.80349 0.41421 0.0
C754 C 0.62164 0.83829 0.33564 0.0
C755 C 0.60268 0.8257 0.35139 0.0
C756 C 0.6 0.24469 0.31637 0.0
C757 C 0.58081 0.22873 0.30137 0.0
C758 C 0.58464 0.20082 0.30009 0.0
C759 C 0.60775 0.18928 0.3118 0.0
H760 H 0.6813 0.14051 0.27919 0.0
H761 H 0.70304 0.10071 0.26095 0.0
H762 H 0.72526 0.07523 0.34217 0.0
H763 H 0.70456 0.11452 0.35994 0.0
H764 H 0.74295 0.17622 0.38151 0.0
H765 H 0.77037 0.19046 0.42104 0.0
H766 H 0.70628 0.24126 0.44446 0.0
H767 H 0.679 0.22743 0.40424 0.0
H768 H 0.63836 0.24574 0.33909 0.0
H769 H 0.59768 0.26626 0.31761 0.0
H770 H 0.5701 0.18779 0.28906 0.0
H771 H 0.61011 0.16779 0.3096 0.0
N772 N 0.661 0.1693 0.32341 0.0
N773 N 0.69858 0.16721 0.35394 0.0
N774 N 0.66874 0.2029 0.3567 0.0
C775 C 0.68359 0.15661 0.33269 0.0
C776 C 0.69158 0.1903 0.36601 0.0
C777 C 0.65332 0.19242 0.33538 0.0
C778 C 0.6918 0.13084 0.32098 0.0
C779 C 0.69037 0.12596 0.29299 0.0
C780 C 0.70265 0.10318 0.28256 0.0
C781 C 0.71617 0.08506 0.30011 0.0
C782 C 0.71542 0.08901 0.32804 0.0
C783 C 0.7036 0.11162 0.3383 0.0
C784 C 0.70861 0.20059 0.38964 0.0
C785 C 0.73465 0.19053 0.39501 0.0
C786 C 0.75044 0.19861 0.41793 0.0
C787 C 0.74069 0.2169 0.43637 0.0
C788 C 0.71476 0.22733 0.43076 0.0
C789 C 0.69898 0.21937 0.40763 0.0
C790 C 0.6278 0.20519 0.32549 0.0
C791 C 0.62333 0.23295 0.32848 0.0
C792 C 0.31571 0.09956 0.32658 0.0
C793 C 0.29097 0.09599 0.33851 0.0
C794 C 0.28369 0.11525 0.35737 0.0
C795 C 0.30054 0.13763 0.36375 0.0
H796 H 0.32688 0.19014 0.42779 0.0
H797 H 0.32027 0.21723 0.46712 0.0
H798 H 0.36999 0.28084 0.43608 0.0
H799 H 0.37741 0.25307 0.39681 0.0
H800 H 0.42255 0.2274 0.35498 0.0
H801 H 0.45816 0.23769 0.32547 0.0
H802 H 0.42044 0.18461 0.26467 0.0
H803 H 0.38514 0.17356 0.29481 0.0
H804 H 0.35111 0.12387 0.32294 0.0
H805 H 0.32258 0.085 0.31254 0.0
H806 H 0.2648 0.11335 0.3669 0.0
H807 H 0.2942 0.15221 0.37813 0.0
N808 N 0.33959 0.18087 0.37916 0.0
N809 N 0.37582 0.20871 0.36779 0.0
N810 N 0.36254 0.17165 0.34056 0.0
C811 C 0.35607 0.20264 0.38466 0.0
C812 C 0.37917 0.19329 0.34566 0.0
C813 C 0.34271 0.16526 0.35716 0.0
C814 C 0.35252 0.21942 0.40892 0.0
C815 C 0.33644 0.2099 0.42924 0.0
C816 C 0.33251 0.22563 0.45188 0.0
C817 C 0.34424 0.25157 0.45482 0.0
C818 C 0.36072 0.26098 0.43469 0.0
C819 C 0.36488 0.24506 0.41206 0.0
C820 C 0.40084 0.19975 0.32732 0.0
C821 C 0.42177 0.21794 0.3353 0.0
C822 C 0.44224 0.22396 0.31816 0.0
C823 C 0.44225 0.21226 0.29231 0.0
C824 C 0.42136 0.19391 0.28439 0.0
C825 C 0.40098 0.18765 0.3017 0.0
C826 C 0.32494 0.14135 0.35125 0.0
C827 C 0.33232 0.12194 0.33271 0.0
C828 C 0.29113 0.83568 0.4423 0.0
C829 C 0.29796 0.80922 0.44934 0.0
C830 C 0.31339 0.79439 0.43214 0.0
C831 C 0.32305 0.80595 0.40916 0.0
H832 H 0.37406 0.78938 0.35492 0.0
H833 H 0.41227 0.76441 0.3416 0.0
H834 H 0.44284 0.83516 0.30243 0.0
H835 H 0.404 0.86036 0.31553 0.0
H836 H 0.33727 0.90172 0.29767 0.0
H837 H 0.31558 0.9432 0.28119 0.0
H838 H 0.29672 0.96226 0.36256 0.0
H839 H 0.31766 0.92134 0.37866 0.0
H840 H 0.29646 0.86826 0.41454 0.0
H841 H 0.27922 0.8475 0.45525 0.0
H842 H 0.31854 0.77374 0.43671 0.0
H843 H 0.33528 0.79376 0.39686 0.0
N844 N 0.35055 0.83185 0.36792 0.0
N845 N 0.35674 0.86731 0.33774 0.0
N846 N 0.32433 0.87004 0.37026 0.0
C847 C 0.36366 0.84249 0.34722 0.0
C848 C 0.33698 0.88115 0.34928 0.0
C849 C 0.3309 0.84527 0.37956 0.0
C850 C 0.38596 0.82706 0.33649 0.0
C851 C 0.38881 0.79975 0.34336 0.0
C852 C 0.41092 0.78534 0.33586 0.0
C853 C 0.43095 0.79775 0.32125 0.0
C854 C 0.42776 0.82486 0.31358 0.0
C855 C 0.40548 0.83936 0.32108 0.0
C856 C 0.32864 0.90802 0.33938 0.0
C857 C 0.32896 0.91517 0.31199 0.0
C858 C 0.31664 0.93891 0.30257 0.0
C859 C 0.30407 0.95577 0.32051 0.0
C860 C 0.30579 0.94951 0.3481 0.0
C861 C 0.31778 0.92595 0.35737 0.0
C862 C 0.31774 0.83287 0.40265 0.0
C863 C 0.30108 0.8475 0.41909 0.0
C864 C 0.59413 0.72289 0.2052 0.0
C865 C 0.59251 0.71091 0.23074 0.0
C866 C 0.61167 0.69168 0.23885 0.0
C867 C 0.63204 0.68488 0.22207 0.0
H868 H 0.68305 0.62246 0.20516 0.0
H869 H 0.71228 0.58626 0.21946 0.0
H870 H 0.77385 0.61756 0.16978 0.0
H871 H 0.7439 0.65358 0.15456 0.0
H872 H 0.72458 0.69603 0.11057 0.0
H873 H 0.73445 0.72248 0.07147 0.0
H874 H 0.6611 0.7662 0.07787 0.0
H875 H 0.65077 0.73931 0.11737 0.0
H876 H 0.6152 0.72597 0.16908 0.0
H877 H 0.57951 0.73736 0.19787 0.0
H878 H 0.61131 0.68219 0.25838 0.0
H879 H 0.64657 0.67018 0.22922 0.0
N880 N 0.67249 0.66975 0.18615 0.0
N881 N 0.69773 0.6786 0.14888 0.0
N882 N 0.66057 0.70517 0.15692 0.0
C883 C 0.69332 0.66365 0.17102 0.0
C884 C 0.68142 0.69933 0.14157 0.0
C885 C 0.65605 0.69047 0.17936 0.0
C886 C 0.71119 0.64112 0.17892 0.0
C887 C 0.7028 0.6217 0.19723 0.0
C888 C 0.71975 0.60093 0.20558 0.0
C889 C 0.74577 0.59915 0.19621 0.0
C890 C 0.75397 0.61821 0.17736 0.0
C891 C 0.73681 0.63893 0.16872 0.0
C892 C 0.6869 0.71554 0.11734 0.0
C893 C 0.7104 0.7112 0.1038 0.0
C894 C 0.71622 0.72656 0.08139 0.0
C895 C 0.69871 0.74666 0.07174 0.0
C896 C 0.67491 0.75078 0.08483 0.0
C897 C 0.66912 0.73547 0.10752 0.0
C898 C 0.63389 0.69721 0.19675 0.0
C899 C 0.6146 0.71622 0.1885 0.0
C900 C 0.35262 0.62191 0.24541 0.0
C901 C 0.33353 0.6022 0.23639 0.0
C902 C 0.3213 0.60462 0.21014 0.0
C903 C 0.32839 0.62588 0.19328 0.0
H904 H 0.29849 0.69157 0.12984 0.0
H905 H 0.27649 0.7118 0.08905 0.0
H906 H 0.35454 0.72847 0.05902 0.0
H907 H 0.37625 0.70886 0.09916 0.0
H908 H 0.40214 0.75399 0.1802 0.0
H909 H 0.44244 0.77414 0.20451 0.0
H910 H 0.47677 0.69528 0.21235 0.0
H911 H 0.43673 0.67543 0.18919 0.0
H912 H 0.37478 0.65757 0.23635 0.0
H913 H 0.36211 0.62119 0.26555 0.0
H914 H 0.30668 0.58978 0.20226 0.0
H915 H 0.31898 0.62682 0.17308 0.0
N916 N 0.34347 0.67298 0.16045 0.0
N917 N 0.37655 0.70596 0.1518 0.0
N918 N 0.38079 0.68017 0.19106 0.0
C919 C 0.35315 0.69253 0.14416 0.0
C920 C 0.39039 0.69981 0.17521 0.0
C921 C 0.35735 0.66677 0.18411 0.0
C922 C 0.3391 0.69928 0.11795 0.0
C923 C 0.3108 0.69886 0.11408 0.0
C924 C 0.2982 0.71018 0.0907 0.0
C925 C 0.31388 0.7217 0.07101 0.0
C926 C 0.34199 0.71978 0.07394 0.0
C927 C 0.35444 0.70877 0.09709 0.0
C928 C 0.41634 0.71316 0.18334 0.0
C929 C 0.41881 0.74126 0.18641 0.0
C930 C 0.44186 0.75279 0.2001 0.0
C931 C 0.46257 0.73621 0.21045 0.0
C932 C 0.46101 0.70852 0.20475 0.0
C933 C 0.43807 0.69709 0.1916 0.0
C934 C 0.34801 0.64514 0.20218 0.0
C935 C 0.3598 0.64298 0.22857 0.0
C936 C 0.33588 0.30796 0.10404 0.0
C937 C 0.31126 0.31825 0.09371 0.0
C938 C 0.30125 0.34123 0.1059 0.0
C939 C 0.31521 0.35349 0.12798 0.0
H940 H 0.30675 0.4127 0.18417 0.0
H941 H 0.28719 0.45115 0.20634 0.0
H942 H 0.35782 0.45673 0.26135 0.0
H943 H 0.37702 0.41885 0.2397 0.0
H944 H 0.41433 0.35718 0.24676 0.0
H945 H 0.45546 0.33341 0.26249 0.0
H946 H 0.46898 0.31314 0.18001 0.0
H947 H 0.42837 0.33585 0.16471 0.0
H948 H 0.3688 0.31179 0.13386 0.0
H949 H 0.34414 0.29031 0.09512 0.0
H950 H 0.28238 0.34984 0.09851 0.0
H951 H 0.30661 0.37105 0.13675 0.0
N952 N 0.34299 0.37723 0.17504 0.0
N953 N 0.37986 0.37933 0.20695 0.0
N954 N 0.37821 0.34699 0.1724 0.0
C955 C 0.35571 0.38902 0.19715 0.0
C956 C 0.39127 0.35839 0.19455 0.0
C957 C 0.35403 0.35614 0.16257 0.0
C958 C 0.34352 0.41246 0.2102 0.0
C959 C 0.31809 0.4222 0.20102 0.0
C960 C 0.30684 0.4443 0.21363 0.0
C961 C 0.32082 0.45709 0.23564 0.0
C962 C 0.3463 0.44745 0.24449 0.0
C963 C 0.35742 0.42552 0.23205 0.0
C964 C 0.41779 0.34785 0.20452 0.0
C965 C 0.42646 0.34796 0.23208 0.0
C966 C 0.45005 0.33452 0.24109 0.0
C967 C 0.46532 0.32109 0.22256 0.0
C968 C 0.45751 0.32287 0.19495 0.0
C969 C 0.43408 0.33584 0.1861 0.0
C970 C 0.33969 0.34318 0.13861 0.0
C971 C 0.34997 0.32032 0.12626 0.0
C972 C 0.6029 0.33464 0.21077 0.0
C973 C 0.60084 0.30852 0.19972 0.0
C974 C 0.62138 0.29988 0.18378 0.0
C975 C 0.64359 0.31674 0.17944 0.0
H976 H 0.70348 0.33018 0.12553 0.0
H977 H 0.73473 0.31871 0.09214 0.0
H978 H 0.78945 0.38199 0.12232 0.0
H979 H 0.75764 0.39402 0.15527 0.0
H980 H 0.695 0.44944 0.17309 0.0
H981 H 0.7156 0.49039 0.19266 0.0
H982 H 0.72663 0.45104 0.26971 0.0
H983 H 0.70525 0.40981 0.25 0.0
H984 H 0.6259 0.37127 0.21555 0.0
H985 H 0.58727 0.34233 0.22265 0.0
H986 H 0.62062 0.27989 0.17511 0.0
H987 H 0.65914 0.30928 0.16727 0.0
N988 N 0.68721 0.35386 0.16809 0.0
N989 N 0.71189 0.39372 0.17732 0.0
N990 N 0.67333 0.38401 0.20072 0.0
C991 C 0.70856 0.37031 0.16339 0.0
C992 C 0.69451 0.40064 0.19599 0.0
C993 C 0.66947 0.36054 0.18664 0.0
C994 C 0.72795 0.36302 0.14317 0.0
C995 C 0.72219 0.34164 0.12512 0.0
C996 C 0.74033 0.33495 0.10596 0.0
C997 C 0.76494 0.34927 0.10444 0.0
C998 C 0.77069 0.37065 0.12257 0.0
C999 C 0.75241 0.37749 0.14161 0.0
C1000 C 0.69877 0.42659 0.21003 0.0
C1001 C 0.70063 0.44994 0.1945 0.0
C1002 C 0.71228 0.47339 0.20576 0.0
C1003 C 0.72267 0.47383 0.23267 0.0
C1004 C 0.71828 0.45136 0.24906 0.0
C1005 C 0.70628 0.42777 0.23775 0.0
C1006 C 0.64585 0.34263 0.19102 0.0
C1007 C 0.62512 0.35138 0.2066 0.0
C1008 C 0.61052 0.32177 0.85783 0.0
C1009 C 0.60383 0.32256 0.82996 0.0
C1010 C 0.62065 0.33728 0.81342 0.0
C1011 C 0.64459 0.34956 0.82453 0.0
H1012 H 0.69924 0.42263 0.82475 0.0
H1013 H 0.72407 0.46165 0.80879 0.0
H1014 H 0.79269 0.4412 0.86183 0.0
H1015 H 0.76788 0.40284 0.87811 0.0
H1016 H 0.73746 0.38373 0.93984 0.0
H1017 H 0.76299 0.3672 0.97911 0.0
H1018 H 0.73998 0.28545 0.95718 0.0
H1019 H 0.71342 0.30247 0.91733 0.0
H1020 H 0.63895 0.33187 0.89025 0.0
H1021 H 0.59784 0.31091 0.87124 0.0
H1022 H 0.61608 0.3381 0.79186 0.0
H1023 H 0.65781 0.3599 0.81128 0.0
N1024 N 0.69219 0.37754 0.85261 0.0
N1025 N 0.72583 0.37563 0.88769 0.0
N1026 N 0.68889 0.34584 0.88757 0.0
C1027 C 0.71608 0.38687 0.86435 0.0
C1028 C 0.71256 0.35517 0.89939 0.0
C1029 C 0.67847 0.35702 0.86422 0.0
C1030 C 0.7314 0.40962 0.85285 0.0
C1031 C 0.71968 0.42639 0.83285 0.0
C1032 C 0.73401 0.44878 0.82366 0.0
C1033 C 0.76045 0.45482 0.83414 0.0
C1034 C 0.77228 0.43762 0.85366 0.0
C1035 C 0.75798 0.41542 0.8629 0.0
C1036 C 0.72389 0.34438 0.92528 0.0
C1037 C 0.73742 0.36224 0.94351 0.0
C1038 C 0.75206 0.3527 0.96608 0.0
C1039 C 0.75394 0.32495 0.97099 0.0
C1040 C 0.73887 0.30694 0.95388 0.0
C1041 C 0.72378 0.31666 0.93112 0.0
C1042 C 0.65204 0.34704 0.85224 0.0
C1043 C 0.63426 0.33369 0.86877 0.0
C1044 C 0.64651 0.76772 0.83594 0.0
C1045 C 0.62479 0.75835 0.81885 0.0
C1046 C 0.62584 0.73216 0.80808 0.0
C1047 C 0.64762 0.71553 0.81498 0.0
H1048 H 0.71065 0.65119 0.78888 0.0
H1049 H 0.72915 0.61045 0.76927 0.0
H1050 H 0.7443 0.57836 0.84924 0.0
H1051 H 0.72658 0.61863 0.86859 0.0
H1052 H 0.75044 0.74373 0.88742 0.0
H1053 H 0.76779 0.76134 0.93097 0.0
H1054 H 0.74656 0.68619 0.96855 0.0
H1055 H 0.73017 0.6682 0.92437 0.0
H1056 H 0.68425 0.75906 0.8565 0.0
H1057 H 0.64677 0.78789 0.84416 0.0
H1058 H 0.60945 0.72411 0.79499 0.0
H1059 H 0.64735 0.69523 0.80702 0.0
N1060 N 0.69413 0.68191 0.83154 0.0
N1061 N 0.72696 0.67195 0.86615 0.0
N1062 N 0.70555 0.71342 0.8658 0.0
C1063 C 0.71254 0.66467 0.84295 0.0
C1064 C 0.72377 0.69646 0.87739 0.0
C1065 C 0.69038 0.70633 0.84317 0.0
C1066 C 0.71773 0.63833 0.83033 0.0
C1067 C 0.71721 0.635 0.80213 0.0
C1068 C 0.72758 0.61163 0.79087 0.0
C1069 C 0.73832 0.59132 0.80774 0.0
C1070 C 0.73635 0.59375 0.83571 0.0
C1071 C 0.72634 0.61694 0.84685 0.0
C1072 C 0.7389 0.7047 0.90265 0.0
C1073 C 0.75031 0.73071 0.90487 0.0
C1074 C 0.76039 0.7407 0.92985 0.0
C1075 C 0.75844 0.72519 0.95333 0.0
C1076 C 0.7484 0.69858 0.95083 0.0
C1077 C 0.73905 0.68828 0.9256 0.0
C1078 C 0.66882 0.72465 0.8329 0.0
C1079 C 0.66818 0.75114 0.84287 0.0
C1080 C 0.36891 0.608 0.79468 0.0
C1081 C 0.34299 0.59871 0.80037 0.0
C1082 C 0.32894 0.61277 0.81941 0.0
C1083 C 0.34043 0.63606 0.83189 0.0
H1084 H 0.33924 0.68738 0.90127 0.0
H1085 H 0.32183 0.70944 0.94002 0.0
H1086 H 0.37579 0.7773 0.92961 0.0
H1087 H 0.39369 0.755 0.89144 0.0
H1088 H 0.4498 0.73613 0.86524 0.0
H1089 H 0.48775 0.76009 0.84828 0.0
H1090 H 0.46952 0.72575 0.76919 0.0
H1091 H 0.43099 0.70092 0.78669 0.0
H1092 H 0.40011 0.63758 0.80159 0.0
H1093 H 0.38053 0.59764 0.78031 0.0
H1094 H 0.30894 0.60615 0.8242 0.0
H1095 H 0.32899 0.64677 0.84615 0.0
N1096 N 0.36759 0.68296 0.85874 0.0
N1097 N 0.40151 0.71637 0.85922 0.0
N1098 N 0.40068 0.68206 0.82694 0.0
C1099 C 0.37914 0.70582 0.86975 0.0
C1100 C 0.41243 0.70474 0.83789 0.0
C1101 C 0.3783 0.67092 0.83733 0.0
C1102 C 0.3679 0.71931 0.89314 0.0
C1103 C 0.34738 0.70701 0.90722 0.0
C1104 C 0.33728 0.71981 0.92945 0.0
C1105 C 0.34731 0.74532 0.93808 0.0
C1106 C 0.36779 0.75759 0.92391 0.0
C1107 C 0.37797 0.74475 0.90181 0.0
C1108 C 0.43705 0.71695 0.82725 0.0
C1109 C 0.45382 0.73343 0.84426 0.0
C1110 C 0.47574 0.74718 0.83445 0.0
C1111 C 0.48152 0.74518 0.80721 0.0
C1112 C 0.46557 0.72773 0.79026 0.0
C1113 C 0.44353 0.71359 0.80027 0.0
C1114 C 0.36608 0.64572 0.8254 0.0
C1115 C 0.38022 0.63112 0.8069 0.0
C1116 C 0.29614 0.35046 0.92902 0.0
C1117 C 0.30569 0.33294 0.94952 0.0
C1118 C 0.33219 0.32364 0.94884 0.0
C1119 C 0.34837 0.33092 0.92802 0.0
H1120 H 0.40702 0.29616 0.87834 0.0
H1121 H 0.44651 0.27021 0.86862 0.0
H1122 H 0.47835 0.33866 0.82654 0.0
H1123 H 0.43883 0.36389 0.83526 0.0
H1124 H 0.38845 0.39605 0.80097 0.0
H1125 H 0.37888 0.4344 0.77198 0.0
H1126 H 0.32201 0.46232 0.82759 0.0
H1127 H 0.33095 0.42361 0.85593 0.0
H1128 H 0.30448 0.37131 0.8926 0.0
H1129 H 0.27588 0.35797 0.92872 0.0
H1130 H 0.34076 0.31078 0.9645 0.0
H1131 H 0.36857 0.32317 0.92832 0.0
N1132 N 0.37862 0.34085 0.8813 0.0
N1133 N 0.38879 0.36872 0.84523 0.0
N1134 N 0.35028 0.37654 0.86872 0.0
C1135 C 0.39502 0.34748 0.8614 0.0
C1136 C 0.36652 0.38334 0.84865 0.0
C1137 C 0.35622 0.35531 0.88515 0.0
C1138 C 0.41957 0.33197 0.85723 0.0
C1139 C 0.42255 0.3056 0.86705 0.0
C1140 C 0.44526 0.29075 0.86156 0.0
C1141 C 0.46556 0.30207 0.84637 0.0
C1142 C 0.4629 0.32883 0.83756 0.0
C1143 C 0.44018 0.34346 0.84272 0.0
C1144 C 0.36041 0.40665 0.83082 0.0
C1145 C 0.37383 0.41037 0.80696 0.0
C1146 C 0.36841 0.43253 0.79031 0.0
C1147 C 0.34959 0.45172 0.79715 0.0
C1148 C 0.33629 0.44795 0.82113 0.0
C1149 C 0.3415 0.42567 0.83762 0.0
C1150 C 0.33877 0.34808 0.90734 0.0
C1151 C 0.31254 0.35803 0.90822 0.0
Cu1152 Cu 0.27682 0.27218 0.03015 0.0
N1153 N 0.27407 0.29982 1.00485 0.0
N1154 N 0.28876 0.32413 0.97061 0.0
C1155 C 0.29268 0.30247 0.98657 0.0
C1156 C 0.26634 0.33553 0.97916 0.0
C1157 C 0.25733 0.32047 1.0004 0.0
O1158 O 0.2864 0.24194 1.00782 0.0
C1159 C 0.29532 0.3054 0.07073 0.0
O1160 O 0.27184 0.31537 0.06298 0.0
H1161 H 0.30886 0.28845 0.98516 0.0
H1162 H 0.24021 0.32462 0.01199 0.0
N1163 N 0.24543 0.26383 0.04738 0.0
N1164 N 0.22069 0.24504 0.07863 0.0
C1165 C 0.24556 0.24877 0.06985 0.0
C1166 C 0.21954 0.27018 0.04173 0.0
C1167 C 0.20418 0.25864 0.0611 0.0
C1168 C 0.27162 0.22088 1.00391 0.0
O1169 O 0.25487 0.2137 0.02208 0.0
H1170 H 0.26374 0.2407 0.07952 0.0
H1171 H 0.21234 0.28209 0.02468 0.0
O1172 O 0.30313 0.28468 0.05844 0.0
H1173 H 0.25742 0.35374 0.97116 0.0
H1174 H 0.18254 0.25968 0.06187 0.0
Cu1175 Cu 0.80571 0.29047 0.02844 0.0
N1176 N 0.80313 0.31897 0.05269 0.0
N1177 N 0.78376 0.3421 0.08468 0.0
C1178 C 0.78393 0.31894 0.07053 0.0
C1179 C 0.80406 0.35728 0.07543 0.0
C1180 C 0.81596 0.34296 0.05565 0.0
O1181 O 0.81035 0.25898 0.05169 0.0
C1182 C 0.77443 0.31608 0.9918 0.0
O1183 O 0.79483 0.33257 0.99806 0.0
H1184 H 0.77016 0.30209 0.07268 0.0
H1185 H 0.83209 0.34998 0.04371 0.0
N1186 N 0.83506 0.29193 1.00654 0.0
N1187 N 0.85994 0.27889 0.97299 0.0
C1188 C 0.83673 0.27532 0.98537 0.0
C1189 C 0.85796 0.30686 1.00767 0.0
C1190 C 0.87335 0.29886 0.98699 0.0
C1191 C 0.83284 0.26086 0.06549 0.0
O1192 O 0.84853 0.28186 0.06158 0.0
H1193 H 0.82096 0.26091 0.97929 0.0
H1194 H 0.86342 0.32201 0.02274 0.0
O1195 O 0.77402 0.29313 1.00331 0.0
H1196 H 0.80941 0.37762 0.08173 0.0
H1197 H 0.89314 0.30675 0.98309 0.0
Cu1198 Cu 0.76235 0.79167 1.00244 0.0
N1199 N 0.75848 0.8182 0.97608 0.0
N1200 N 0.7696 0.84017 0.93901 0.0
C1201 C 0.77622 0.82072 0.95694 0.0
C1202 C 0.74671 0.85062 0.94743 0.0
C1203 C 0.73978 0.83687 0.97032 0.0
O1204 O 0.77432 0.76119 0.98192 0.0
C1205 C 0.77863 0.82603 0.04317 0.0
O1206 O 0.75557 0.83604 0.03408 0.0
H1207 H 0.79388 0.80843 0.9564 0.0
H1208 H 0.72232 0.84012 0.98173 0.0
N1209 N 0.73057 0.7824 0.0185 0.0
N1210 N 0.70555 0.76289 0.04905 0.0
C1211 C 0.73063 0.7691 0.04199 0.0
C1212 C 0.70446 0.78516 1.01038 0.0
C1213 C 0.6889 0.77318 0.02936 0.0
C1214 C 0.76216 0.73839 0.98012 0.0
O1215 O 0.74638 0.73094 0.99905 0.0
H1216 H 0.74892 0.7636 0.0534 0.0
H1217 H 0.69729 0.79451 0.99174 0.0
O1218 O 0.78717 0.80536 0.0314 0.0
H1219 H 0.73552 0.86665 0.93756 0.0
H1220 H 0.66715 0.77126 0.02822 0.0
Cu1221 Cu 0.27694 0.76718 0.01084 0.0
N1222 N 0.27044 0.79619 0.03331 0.0
N1223 N 0.24993 0.81843 0.06504 0.0
C1224 C 0.25126 0.79522 0.05117 0.0
C1225 C 0.26922 0.83468 0.05548 0.0
C1226 C 0.28183 0.8209 0.03584 0.0
O1227 O 0.28212 0.73645 0.03504 0.0
C1228 C 0.25073 0.78862 0.96811 0.0
O1229 O 0.26909 0.80668 0.97624 0.0
H1230 H 0.23876 0.77753 0.05408 0.0
H1231 H 0.29787 0.82851 0.02411 0.0
N1232 N 0.3085 0.76982 0.99227 0.0
N1233 N 0.33658 0.75873 0.9608 0.0
C1234 C 0.31259 0.75376 0.97119 0.0
C1235 C 0.33066 0.78572 0.99547 0.0
C1236 C 0.34804 0.77891 0.97606 0.0
C1237 C 0.30281 0.74108 0.05103 0.0
O1238 O 0.31573 0.76423 0.04924 0.0
H1239 H 0.29785 0.73895 0.96348 0.0
H1240 H 0.33413 0.80092 0.01091 0.0
O1241 O 0.24845 0.7671 0.98189 0.0
H1242 H 0.27365 0.8552 0.06183 0.0
H1243 H 0.36772 0.78792 0.97373 0.0
Cu1244 Cu 0.03188 0.26312 0.29762 0.0
N1245 N 0.05522 0.23415 0.2964 0.0
N1246 N 0.08721 0.20958 0.27906 0.0
C1247 C 0.07401 0.23305 0.27816 0.0
C1248 C 0.07629 0.19542 0.29903 0.0
C1249 C 0.05655 0.21062 0.30967 0.0
O1250 O 0.05581 0.29436 0.30445 0.0
C1251 C 0.99673 0.2382 0.26289 0.0
O1252 O 1.0013 0.22114 0.28274 0.0
H1253 H 0.07752 0.24927 0.26427 0.0
H1254 H 0.04351 0.20448 0.32522 0.0
N1255 N 1.00752 0.26227 0.32493 0.0
N1256 N 0.9726 0.27668 0.34702 0.0
C1257 C 0.98694 0.27937 0.32496 0.0
C1258 C 1.00618 0.24784 0.3477 0.0
C1259 C 0.98465 0.25669 0.36138 0.0
C1260 C 0.06735 0.29317 0.32806 0.0
O1261 O 0.0611 0.27289 0.34353 0.0
H1262 H 0.98281 0.29358 0.30888 0.0
H1263 H 0.02022 0.23256 0.35434 0.0
O1264 O 1.00899 0.26101 0.26424 0.0
H1265 H 0.08142 0.17516 0.30499 0.0
H1266 H 0.97889 0.24939 0.38072 0.0
Cu1267 Cu 0.76267 0.02856 0.2647 0.0
N1268 N 0.79305 0.05164 0.26626 0.0
N1269 N 0.81984 0.08573 0.25439 0.0
C1270 C 0.79575 0.07302 0.24994 0.0
C1271 C 0.8328 0.07169 0.27433 0.0
C1272 C 0.81628 0.05069 0.28157 0.0
O1273 O 0.73229 0.05273 0.26796 0.0
C1274 C 0.78821 0.99308 0.23569 0.0
O1275 O 0.8031 0.99635 0.25825 0.0
H1276 H 0.78023 0.07906 0.23508 0.0
H1277 H 0.8213 0.03543 0.29636 0.0
N1278 N 0.76139 1.00414 0.29347 0.0
N1279 N 0.74708 0.96876 0.31693 0.0
C1280 C 0.74452 0.98258 0.29356 0.0
C1281 C 0.77514 1.00401 0.31765 0.0
C1282 C 0.76638 0.98226 0.33212 0.0
C1283 C 0.73481 0.0646 0.29083 0.0
O1284 O 0.75588 0.05914 0.30697 0.0
H1285 H 0.73069 0.97719 0.27666 0.0
H1286 H 0.78994 0.019 0.32468 0.0
O1287 O 0.76624 1.00597 0.23277 0.0
H1288 H 0.85309 0.07578 0.28263 0.0
H1289 H 0.77325 0.97728 0.35255 0.0
Cu1290 Cu 0.01223 0.77192 0.24618 0.0
N1291 N 0.99153 0.80322 0.24622 0.0
N1292 N 0.95828 0.83094 0.23296 0.0
C1293 C 0.9692 0.80655 0.22987 0.0
C1294 C 0.97448 0.84341 0.25216 0.0
C1295 C 0.99491 0.82631 0.26028 0.0
O1296 O 0.98696 0.7431 0.2551 0.0
C1297 C 0.04299 0.79433 0.20999 0.0
O1298 O 0.04152 0.8126 0.22887 0.0
H1299 H 0.96116 0.79117 0.21604 0.0
H1300 H 0.01136 0.83079 0.27487 0.0
N1301 N 0.04122 0.77027 0.27212 0.0
N1302 N 0.07869 0.75359 0.29256 0.0
C1303 C 0.06025 0.7514 0.27153 0.0
C1304 C 0.04778 0.78504 0.29433 0.0
C1305 C 0.07084 0.77481 0.30695 0.0
C1306 C 0.97905 0.74741 0.27866 0.0
O1307 O 0.98913 0.76851 0.29195 0.0
H1308 H 0.06046 0.73635 0.25581 0.0
H1309 H 0.03634 0.80157 0.30136 0.0
O1310 O 0.03017 0.77201 0.21231 0.0
H1311 H 0.97221 0.86369 0.25945 0.0
H1312 H 0.08057 0.78206 0.32572 0.0
Cu1313 Cu 0.2556 0.01161 0.28073 0.0
N1314 N 0.25645 0.03715 0.30841 0.0
N1315 N 0.2735 0.07315 0.33118 0.0
C1316 C 0.27468 0.05747 0.30914 0.0
C1317 C 0.25326 0.0623 0.34481 0.0
C1318 C 0.24277 0.04004 0.3307 0.0
O1319 O 0.25421 0.03359 0.24811 0.0
C1320 C 0.28599 0.97764 0.31114 0.0
O1321 O 0.26685 0.98455 0.32666 0.0
H1322 H 0.2886 0.06047 0.29352 0.0
H1323 H 0.22687 0.02663 0.33668 0.0
N1324 N 0.22586 0.9879 0.27795 0.0
N1325 N 0.20008 0.95501 0.25844 0.0
C1326 C 0.22367 0.96892 0.25866 0.0
C1327 C 0.20295 0.98593 0.29088 0.0
C1328 C 0.18698 0.96559 0.27888 0.0
C1329 C 0.23106 0.04381 0.24344 0.0
O1330 O 0.21185 0.03735 0.25932 0.0
H1331 H 0.2393 0.96568 0.24493 0.0
H1332 H 0.19782 0.99881 0.30723 0.0
O1333 O 0.28633 0.98823 0.2878 0.0
H1334 H 0.24691 0.0694 0.36393 0.0
H1335 H 0.167 0.95971 0.28431 0.0
Cu1336 Cu 0.02677 0.78019 0.76556 0.0
N1337 N 0.04965 0.75097 0.76434 0.0
N1338 N 0.08169 0.72681 0.74671 0.0
C1339 C 0.06596 0.74852 0.744 0.0
C1340 C 0.07499 0.71515 0.77 0.0
C1341 C 0.05521 0.73017 0.78089 0.0
O1342 O 0.05173 0.8102 0.77461 0.0
C1343 C 0.99355 0.75587 0.72845 0.0
O1344 O 0.99857 0.73761 0.74705 0.0
H1345 H 0.0666 0.76303 0.72786 0.0
H1346 H 0.04589 0.72632 0.79958 0.0
N1347 N 1.00124 0.77942 0.79158 0.0
N1348 N 0.96662 0.79534 0.81296 0.0
C1349 C 0.98425 0.79982 0.79385 0.0
C1350 C 0.9942 0.76102 0.8098 0.0
C1351 C 0.97282 0.77084 0.82309 0.0
C1352 C 0.0614 0.8081 0.79893 0.0
O1353 O 0.05205 0.7886 0.81374 0.0
H1354 H 0.98448 0.8173 0.78094 0.0
H1355 H 1.00358 0.74179 0.81299 0.0
O1356 O 1.00479 0.77911 0.73152 0.0
H1357 H 0.08367 0.69709 0.77862 0.0
H1358 H 0.96267 0.76063 0.83889 0.0
Cu1359 Cu 0.28173 0.03263 0.77667 0.0
N1360 N 0.3126 0.05492 0.77704 0.0
N1361 N 0.33891 0.08867 0.76333 0.0
C1362 C 0.31453 0.07621 0.76051 0.0
C1363 C 0.35284 0.07456 0.7826 0.0
C1364 C 0.33659 0.05378 0.79101 0.0
O1365 O 0.25316 0.05747 0.78519 0.0
C1366 C 0.30326 0.99965 0.74169 0.0
O1367 O 0.32144 1.00238 0.76185 0.0
H1368 H 0.29817 0.08233 0.74666 0.0
H1369 H 0.34223 0.03859 0.80567 0.0
N1370 N 0.28188 1.00529 0.80264 0.0
N1371 N 0.2677 0.9673 0.82188 0.0
C1372 C 0.26382 0.98471 0.80128 0.0
C1373 C 0.29789 1.00082 0.82494 0.0
C1374 C 0.28919 0.97741 0.83685 0.0
C1375 C 0.25743 0.0664 0.80926 0.0
O1376 O 0.27836 0.05749 0.82373 0.0
H1377 H 0.24834 0.98248 0.78512 0.0
H1378 H 0.31443 0.01375 0.83232 0.0
O1379 O 0.28123 0.01235 0.74268 0.0
H1380 H 0.37355 0.07842 0.78969 0.0
H1381 H 0.29777 0.96883 0.85536 0.0
Cu1382 Cu 0.04893 0.2955 0.78235 0.0
N1383 N 0.02458 0.3237 0.78453 0.0
N1384 N 0.98806 0.34709 0.77098 0.0
C1385 C 1.00258 0.32482 0.76746 0.0
C1386 C 1.00157 0.36046 0.79152 0.0
C1387 C 0.02406 0.34599 0.79984 0.0
O1388 O 0.02562 0.26344 0.78451 0.0
C1389 C 0.08101 0.32595 0.75331 0.0
O1390 O 0.07732 0.34001 0.77509 0.0
H1391 H 0.99756 0.30929 0.75265 0.0
H1392 H 0.03918 0.35172 0.81544 0.0
N1393 N 0.07583 0.2925 0.8103 0.0
N1394 N 0.11174 0.27448 0.83242 0.0
C1395 C 0.09458 0.27335 0.81029 0.0
C1396 C 0.08123 0.3065 0.83322 0.0
C1397 C 0.10335 0.29542 0.84692 0.0
C1398 C 0.01678 0.262 0.80806 0.0
O1399 O 0.02507 0.28033 0.82589 0.0
H1400 H 0.09556 0.25894 0.79408 0.0
H1401 H 0.06975 0.32324 0.83976 0.0
O1402 O 0.0693 0.3029 0.75063 0.0
H1403 H 0.9961 0.37963 0.79965 0.0
H1404 H 0.11213 0.30201 0.86633 0.0
Cu1405 Cu 0.79104 0.03655 0.76113 0.0
N1406 N 0.80017 0.05746 0.79161 0.0
N1407 N 0.81975 0.09057 0.81669 0.0
C1408 C 0.81516 0.08031 0.79166 0.0
C1409 C 0.80698 0.0735 0.833 0.0
C1410 C 0.79502 0.05301 0.81746 0.0
O1411 O 0.78228 0.06093 0.73126 0.0
C1412 C 0.83807 1.0063 0.77318 0.0
O1413 O 0.84702 0.02626 0.78879 0.0
H1414 H 0.82265 0.08909 0.77361 0.0
H1415 H 0.7839 0.03581 0.82457 0.0
N1416 N 0.76049 0.01473 0.76439 0.0
N1417 N 0.73087 0.98218 0.75115 0.0
C1418 C 0.75419 0.9951 0.74643 0.0
C1419 C 0.74059 0.0143 0.78151 0.0
C1420 C 0.72224 0.99413 0.77339 0.0
C1421 C 0.76102 0.07385 0.73517 0.0
O1422 O 0.74942 0.07016 0.75793 0.0
H1423 H 0.76684 0.99045 0.73022 0.0
H1424 H 0.73919 0.02795 0.79829 0.0
O1425 O 0.81845 1.01009 0.75601 0.0
H1426 H 0.80694 0.07524 0.85469 0.0
H1427 H 0.70378 0.98913 0.7828 0.0
Cu1428 Cu 0.26531 0.77185 0.51311 0.0
N1429 N 0.29274 0.77744 0.54016 0.0
N1430 N 0.31416 0.79666 0.5764 0.0
C1431 C 0.29198 0.79656 0.55931 0.0
C1432 C 0.32947 0.77674 0.56751 0.0
C1433 C 0.31621 0.76493 0.54519 0.0
O1434 O 0.23227 0.76886 0.53214 0.0
C1435 C 0.29152 0.79672 0.47515 0.0
O1436 O 0.30822 0.77883 0.48553 0.0
H1437 H 0.27524 0.80993 0.56075 0.0
H1438 H 0.32342 0.74869 0.53331 0.0
N1439 N 0.26691 0.73989 0.4931 0.0
N1440 N 0.2542 0.71159 0.45935 0.0
C1441 C 0.25073 0.73582 0.47075 0.0
C1442 C 0.28151 0.71745 0.49605 0.0
C1443 C 0.27371 0.69994 0.47519 0.0
C1444 C 0.23274 0.74741 0.54622 0.0
O1445 O 0.25393 0.73214 0.54602 0.0
H1446 H 0.2368 0.75076 0.46297 0.0
H1447 H 0.29636 0.71379 0.51235 0.0
O1448 O 0.26915 0.7997 0.48591 0.0
H1449 H 0.34912 0.77135 0.57615 0.0
H1450 H 0.28146 0.68004 0.4723 0.0
Cu1451 Cu 0.77565 0.77731 0.51021 0.0
N1452 N 0.80234 0.77862 0.48519 0.0
N1453 N 0.8243 0.76483 0.44988 0.0
C1454 C 0.80323 0.76041 0.46523 0.0
C1455 C 0.83716 0.78688 0.46071 0.0
C1456 C 0.82357 0.79535 0.48244 0.0
O1457 O 0.74201 0.77908 0.48761 0.0
C1458 C 0.80818 0.75092 0.54515 0.0
O1459 O 0.82195 0.77227 0.53802 0.0
H1460 H 0.78843 0.74431 0.46205 0.0
H1461 H 0.82918 0.81216 0.4955 0.0
N1462 N 0.77454 0.80632 0.53413 0.0
N1463 N 0.75864 0.82948 0.5681 0.0
C1464 C 0.75668 0.80669 0.55333 0.0
C1465 C 0.78851 0.82973 0.53676 0.0
C1466 C 0.77874 0.84406 0.55773 0.0
C1467 C 0.74121 0.80212 0.47619 0.0
O1468 O 0.76151 0.81904 0.48123 0.0
H1469 H 0.74262 0.79027 0.55642 0.0
H1470 H 0.80428 0.83622 0.52415 0.0
O1471 O 0.78439 0.74715 0.53435 0.0
H1472 H 0.85544 0.79599 0.45388 0.0
H1473 H 0.78558 0.86391 0.56438 0.0
Cu1474 Cu 0.77215 0.27523 0.52316 0.0
N1475 N 0.77197 0.24742 0.49758 0.0
N1476 N 0.75689 0.22464 0.46051 0.0
C1477 C 0.75347 0.24602 0.47663 0.0
C1478 C 0.77864 0.21212 0.47193 0.0
C1479 C 0.78793 0.22624 0.4947 0.0
O1480 O 0.77622 0.30734 0.50081 0.0
C1481 C 0.74277 0.24474 0.55487 0.0
O1482 O 0.76264 0.22961 0.54822 0.0
H1483 H 0.73799 0.26081 0.47325 0.0
H1484 H 0.8049 0.2212 0.5082 0.0
N1485 N 0.80073 0.27709 0.54961 0.0
N1486 N 0.82412 0.29461 0.58568 0.0
C1487 C 0.8021 0.29649 0.56856 0.0
C1488 C 0.82262 0.26208 0.55485 0.0
C1489 C 0.83711 0.27288 0.57706 0.0
C1490 C 0.79977 0.30757 0.49185 0.0
O1491 O 0.8162 0.28826 0.49939 0.0
H1492 H 0.78683 0.31155 0.56977 0.0
H1493 H 0.8279 0.24477 0.54333 0.0
O1494 O 0.74114 0.26838 0.54483 0.0
H1495 H 0.78714 0.19383 0.46468 0.0
H1496 H 0.85597 0.26544 0.58582 0.0
Cu1497 Cu 0.29019 0.28414 0.53686 0.0
N1498 N 0.28648 0.31538 0.55726 0.0
N1499 N 0.26947 0.34148 0.58846 0.0
C1500 C 0.26873 0.31707 0.57651 0.0
C1501 C 0.2886 0.35571 0.57611 0.0
C1502 C 0.29907 0.33956 0.5569 0.0
O1503 O 0.29925 0.25623 0.56342 0.0
C1504 C 0.25798 0.30192 0.49666 0.0
O1505 O 0.27604 0.32116 0.50178 0.0
H1506 H 0.25578 0.30041 0.5818 0.0
H1507 H 0.3145 0.34516 0.5435 0.0
N1508 N 0.31793 0.28402 0.51297 0.0
N1509 N 0.33877 0.26823 0.4777 0.0
C1510 C 0.31784 0.26525 0.49349 0.0
C1511 C 0.33973 0.29979 0.5095 0.0
C1512 C 0.35265 0.29007 0.4877 0.0
C1513 C 0.32188 0.2624 0.57567 0.0
O1514 O 0.33408 0.28481 0.56881 0.0
H1515 H 0.30209 0.25002 0.49074 0.0
H1516 H 0.34586 0.31703 0.52183 0.0
O1517 O 0.25824 0.28129 0.51198 0.0
H1518 H 0.29442 0.37644 0.58031 0.0
H1519 H 0.37091 0.29837 0.48003 0.0
Cu1520 Cu 0.78543 0.5365 0.77059 0.0
N1521 N 0.81359 0.56189 0.76845 0.0
N1522 N 0.83577 0.59685 0.75124 0.0
C1523 C 0.81318 0.58129 0.74957 0.0
C1524 C 0.85099 0.58675 0.77218 0.0
C1525 C 0.83727 0.56523 0.78276 0.0
O1526 O 0.75396 0.55892 0.77534 0.0
C1527 C 0.81171 0.50153 0.74148 0.0
O1528 O 0.8288 0.50922 0.76132 0.0
H1529 H 0.79641 0.58387 0.73495 0.0
H1530 H 0.84444 0.55262 0.79923 0.0
N1531 N 0.78755 0.51321 0.80021 0.0
N1532 N 0.77511 0.47826 0.82526 0.0
C1533 C 0.77043 0.49209 0.80217 0.0
C1534 C 0.80383 0.51281 0.82284 0.0
C1535 C 0.79619 0.49129 0.83833 0.0
C1536 C 0.75684 0.57092 0.79817 0.0
O1537 O 0.77857 0.56627 0.81367 0.0
H1538 H 0.75492 0.48698 0.78669 0.0
H1539 H 0.8197 0.52735 0.82808 0.0
O1540 O 0.78828 0.51181 0.74 0.0
H1541 H 0.87093 0.59389 0.77904 0.0
H1542 H 0.80515 0.48609 0.85798 0.0
Cu1543 Cu 0.29782 0.53801 0.76133 0.0
N1544 N 0.32378 0.51138 0.76298 0.0
N1545 N 0.34396 0.47475 0.78004 0.0
C1546 C 0.32297 0.49141 0.7811 0.0
C1547 C 0.35851 0.48472 0.76007 0.0
C1548 C 0.34598 0.50732 0.74956 0.0
O1549 O 0.26371 0.51786 0.76213 0.0
C1550 C 0.33097 0.5755 0.78475 0.0
O1551 O 0.3435 0.56684 0.76404 0.0
H1552 H 0.30701 0.48934 0.79477 0.0
H1553 H 0.35288 0.52008 0.73371 0.0
N1554 N 0.29453 0.55818 0.72968 0.0
N1555 N 0.27411 0.58778 0.70188 0.0
C1556 C 0.27531 0.57664 0.72661 0.0
C1557 C 0.30643 0.5576 0.70613 0.0
C1558 C 0.29386 0.57599 0.68889 0.0
C1559 C 0.25994 0.50418 0.7404 0.0
O1560 O 0.27836 0.5055 0.72264 0.0
H1561 H 0.26227 0.58151 0.74245 0.0
H1562 H 0.32241 0.54428 0.7015 0.0
O1563 O 0.30825 0.56456 0.78927 0.0
H1564 H 0.37718 0.47672 0.7538 0.0
H1565 H 0.29837 0.57969 0.6682 0.0
Cu1566 Cu 0.27835 0.51735 0.27092 0.0
N1567 N 0.27725 0.49732 0.3028 0.0
N1568 N 0.26315 0.46447 0.3296 0.0
C1569 C 0.26035 0.47608 0.3051 0.0
C1570 C 0.28271 0.47909 0.3433 0.0
C1571 C 0.29135 0.49937 0.32673 0.0
O1572 O 0.2868 0.49044 0.24396 0.0
C1573 C 0.24372 0.55212 0.2897 0.0
O1574 O 0.26349 0.55081 0.30839 0.0
H1575 H 0.24656 0.46905 0.28879 0.0
H1576 H 0.30663 0.51456 0.3319 0.0
N1577 N 0.30536 0.54407 0.27009 0.0
N1578 N 0.32693 0.57984 0.25361 0.0
C1579 C 0.30498 0.5634 0.25113 0.0
C1580 C 0.32835 0.54834 0.28532 0.0
C1581 C 0.34168 0.57038 0.27522 0.0
C1582 C 0.30946 0.47976 0.25054 0.0
O1583 O 0.323 0.48863 0.2724 0.0
H1584 H 0.28873 0.56522 0.23578 0.0
H1585 H 0.33532 0.53601 0.30211 0.0
O1586 O 0.24492 0.53779 0.26845 0.0
H1587 H 0.29004 0.47566 0.36392 0.0
H1588 H 0.3611 0.57827 0.28284 0.0
Cu1589 Cu 0.78178 0.52558 0.26485 0.0
N1590 N 0.80731 0.49854 0.26778 0.0
N1591 N 0.82672 0.4621 0.28608 0.0
C1592 C 0.80655 0.47973 0.28711 0.0
C1593 C 0.84069 0.47022 0.26496 0.0
C1594 C 0.82863 0.4927 0.25367 0.0
O1595 O 0.74753 0.50553 0.26256 0.0
C1596 C 0.81416 0.56062 0.29275 0.0
O1597 O 0.82914 0.55045 0.2746 0.0
H1598 H 0.79113 0.479 0.30149 0.0
H1599 H 0.83518 0.50403 0.23668 0.0
N1600 N 0.78132 0.54711 0.23406 0.0
N1601 N 0.76377 0.57864 0.20657 0.0
C1602 C 0.76199 0.56533 0.23 0.0
C1603 C 0.79636 0.54895 0.21253 0.0
C1604 C 0.78554 0.56851 0.19549 0.0
C1605 C 0.74446 0.49351 0.23983 0.0
O1606 O 0.7632 0.4966 0.22258 0.0
H1607 H 0.74695 0.56873 0.24435 0.0
H1608 H 0.81361 0.53683 0.2092 0.0
O1609 O 0.79015 0.55135 0.29399 0.0
H1610 H 0.85863 0.46097 0.25834 0.0
H1611 H 0.79285 0.57439 0.17628 0.0
Cu1612 Cu 0.54617 0.27583 0.78784 0.0
N1613 N 0.52285 0.27322 0.81589 0.0
N1614 N 0.4882 0.28649 0.83894 0.0
C1615 C 0.50368 0.29156 0.81814 0.0
C1616 C 0.49803 0.2637 0.85022 0.0
C1617 C 0.51945 0.25553 0.83593 0.0
O1618 O 0.52156 0.27344 0.7556 0.0
C1619 C 0.58166 0.30458 0.819 0.0
O1620 O 0.57575 0.28324 0.83319 0.0
H1621 H 0.50087 0.30799 0.80409 0.0
H1622 H 0.53145 0.23795 0.83987 0.0
N1623 N 0.5706 0.24824 0.78441 0.0
N1624 N 0.60338 0.22664 0.76515 0.0
C1625 C 0.58697 0.24788 0.76391 0.0
C1626 C 0.57678 0.22648 0.7994 0.0
C1627 C 0.59701 0.21306 0.78751 0.0
C1628 C 0.51092 0.24981 0.75432 0.0
O1629 O 0.51846 0.2324 0.77301 0.0
H1630 H 0.58703 0.26336 0.74864 0.0
H1631 H 0.56739 0.22073 0.81758 0.0
O1632 O 0.56959 0.30731 0.79573 0.0
H1633 H 0.49044 0.25366 0.86757 0.0
H1634 H 0.60606 0.1946 0.79471 0.0
Cu1635 Cu 0.53501 0.79254 0.76694 0.0
N1636 N 0.56377 0.79107 0.79297 0.0
N1637 N 0.60168 0.77505 0.81302 0.0
C1638 C 0.58338 0.7729 0.79189 0.0
C1639 C 0.59318 0.79557 0.82799 0.0
C1640 C 0.56979 0.80539 0.81559 0.0
O1641 O 0.55274 0.79491 0.73299 0.0
C1642 C 0.50268 0.76333 0.79714 0.0
O1643 O 0.5118 0.78328 0.81272 0.0
H1644 H 0.58409 0.75839 0.77573 0.0
H1645 H 0.55781 0.82136 0.82295 0.0
N1646 N 0.51272 0.82251 0.76857 0.0
N1647 N 0.47767 0.84815 0.75569 0.0
C1648 C 0.49013 0.82457 0.75247 0.0
C1649 C 0.51468 0.84556 0.78286 0.0
C1650 C 0.49306 0.8614 0.77498 0.0
C1651 C 0.56435 0.81787 0.73081 0.0
O1652 O 0.56203 0.83573 0.74994 0.0
H1653 H 0.48312 0.80882 0.73858 0.0
H1654 H 0.53097 0.85091 0.79737 0.0
O1655 O 0.51107 0.7619 0.77345 0.0
H1656 H 0.60269 0.80256 0.84695 0.0
H1657 H 0.48946 0.88141 0.78236 0.0
Cu1658 Cu 0.51581 0.77113 0.26719 0.0
N1659 N 0.49047 0.77003 0.29355 0.0
N1660 N 0.45437 0.78294 0.31458 0.0
C1661 C 0.47048 0.78785 0.29423 0.0
C1662 C 0.46476 0.76108 0.32724 0.0
C1663 C 0.48698 0.75315 0.31422 0.0
O1664 O 0.49357 0.76861 0.2334 0.0
C1665 C 0.5508 0.79886 0.29966 0.0
O1666 O 0.54321 0.77798 0.31367 0.0
H1667 H 0.46763 0.80384 0.27965 0.0
H1668 H 0.49966 0.73641 0.31964 0.0
N1669 N 0.53943 0.74229 0.26595 0.0
N1670 N 0.57185 0.71856 0.24833 0.0
C1671 C 0.55739 0.74123 0.24691 0.0
C1672 C 0.54261 0.71951 0.28028 0.0
C1673 C 0.56264 0.70483 0.26945 0.0
C1674 C 0.48231 0.74526 0.23212 0.0
O1675 O 0.48718 0.72855 0.25219 0.0
H1676 H 0.55971 0.75708 0.23231 0.0
H1677 H 0.53099 0.71362 0.29699 0.0
O1678 O 0.54007 0.80178 0.27583 0.0
H1679 H 0.45712 0.75163 0.34488 0.0
H1680 H 0.5694 0.68531 0.2763 0.0
Cu1681 Cu 0.52261 0.27027 0.25652 0.0
N1682 N 0.49711 0.24215 0.25685 0.0
N1683 N 0.46305 0.2194 0.27431 0.0
C1684 C 0.47978 0.24108 0.27647 0.0
C1685 C 0.47012 0.20633 0.25202 0.0
C1686 C 0.49118 0.22045 0.24125 0.0
O1687 O 0.49997 0.3022 0.25383 0.0
C1688 C 0.55872 0.24015 0.28373 0.0
O1689 O 0.55022 0.2261 0.26237 0.0
H1690 H 0.47949 0.25636 0.29193 0.0
H1691 H 0.50151 0.2151 0.22359 0.0
N1692 N 0.54473 0.2727 0.22754 0.0
N1693 N 0.57854 0.29082 0.20557 0.0
C1694 C 0.56347 0.29248 0.22707 0.0
C1695 C 0.5479 0.25764 0.2055 0.0
C1696 C 0.56884 0.26882 0.19186 0.0
C1697 C 0.48687 0.30198 0.23083 0.0
O1698 O 0.49132 0.28238 0.21405 0.0
H1699 H 0.5664 0.30736 0.24293 0.0
H1700 H 0.53616 0.23975 0.1999 0.0
O1701 O 0.54847 0.26324 0.28709 0.0
H1702 H 0.46109 0.18772 0.2442 0.0
H1703 H 0.57627 0.2613 0.17336 0.0
loop_
_geom_bond_atom_site_label_1
_geom_bond_atom_site_label_2
_geom_bond_distance
_geom_bond_site_symmetry_2
_ccdc_geom_bond_type
C0 C1 1.384 . S
C0 H13 0.947 . S
C0 C35 1.382 . S
C1 C0 1.384 . S
C1 C2 1.378 . S
C2 C1 1.378 . S
C2 C3 1.378 . S
C2 H14 0.952 . S
C3 C2 1.378 . S
C3 H15 0.950 . S
C3 C34 1.383 . S
H4 C23 0.947 . S
H5 C24 0.946 . S
H6 C26 0.953 . S
H7 C27 0.945 . S
H8 C29 0.952 . S
H9 C30 0.949 . S
H10 C32 0.950 . S
H11 C33 0.948 . S
H12 C35 0.951 . S
H13 C0 0.947 . S
H14 C2 0.952 . S
H15 C3 0.950 . S
N16 C19 1.382 . S
N16 C21 1.363 . S
N17 C19 1.371 . S
N17 C20 1.372 . S
N18 C20 1.361 . S
N18 C21 1.377 . S
C19 N16 1.382 . S
C19 N17 1.371 . S
C19 C22 1.480 . S
C20 N17 1.372 . S
C20 N18 1.361 . S
C20 C28 1.457 . S
C21 N16 1.363 . S
C21 N18 1.377 . S
C21 C34 1.479 . S
C22 C19 1.480 . S
C22 C23 1.383 . S
C22 C27 1.385 . S
C23 H4 0.947 . S
C23 C22 1.383 . S
C23 C24 1.388 . S
C24 H5 0.946 . S
C24 C23 1.388 . S
C24 C25 1.384 . S
C25 C24 1.384 . S
C25 C26 1.377 . S
C26 H6 0.953 . S
C26 C25 1.377 . S
C26 C27 1.369 . S
C27 H7 0.945 . S
C27 C22 1.385 . S
C27 C26 1.369 . S
C28 C20 1.457 . S
C28 C29 1.372 . S
C28 C33 1.364 . S
C29 H8 0.952 . S
C29 C28 1.372 . S
C29 C30 1.389 . S
C30 H9 0.949 . S
C30 C29 1.389 . S
C30 C31 1.387 . S
C31 C30 1.387 . S
C31 C32 1.372 . S
C32 H10 0.950 . S
C32 C31 1.372 . S
C32 C33 1.379 . S
C33 H11 0.948 . S
C33 C28 1.364 . S
C33 C32 1.379 . S
C34 C3 1.383 . S
C34 C21 1.479 . S
C34 C35 1.398 . S
C35 C0 1.382 . S
C35 H12 0.951 . S
C35 C34 1.398 . S
C36 C37 1.384 . S
C36 H49 0.947 . S
C36 C71 1.382 . S
C37 C36 1.384 . S
C37 C38 1.378 . S
C38 C37 1.378 . S
C38 C39 1.378 . S
C38 H50 0.952 . S
C39 C38 1.378 . S
C39 H51 0.950 . S
C39 C70 1.383 . S
H40 C59 0.947 . S
H41 C60 0.946 . S
H42 C62 0.953 . S
H43 C63 0.945 . S
H44 C65 0.952 . S
H45 C66 0.949 . S
H46 C68 0.950 . S
H47 C69 0.948 . S
H48 C71 0.951 . S
H49 C36 0.947 . S
H50 C38 0.952 . S
H51 C39 0.950 . S
N52 C55 1.382 . S
N52 C57 1.363 . S
N53 C55 1.371 . S
N53 C56 1.372 . S
N54 C56 1.361 . S
N54 C57 1.377 . S
C55 N52 1.382 . S
C55 N53 1.371 . S
C55 C58 1.480 . S
C56 N53 1.372 . S
C56 N54 1.361 . S
C56 C64 1.457 . S
C57 N52 1.363 . S
C57 N54 1.377 . S
C57 C70 1.479 . S
C58 C55 1.480 . S
C58 C59 1.383 . S
C58 C63 1.385 . S
C59 H40 0.947 . S
C59 C58 1.383 . S
C59 C60 1.388 . S
C60 H41 0.946 . S
C60 C59 1.388 . S
C60 C61 1.384 . S
C61 C60 1.384 . S
C61 C62 1.377 . S
C62 H42 0.953 . S
C62 C61 1.377 . S
C62 C63 1.369 . S
C63 H43 0.945 . S
C63 C58 1.385 . S
C63 C62 1.369 . S
C64 C56 1.457 . S
C64 C65 1.372 . S
C64 C69 1.364 . S
C65 H44 0.952 . S
C65 C64 1.372 . S
C65 C66 1.389 . S
C66 H45 0.949 . S
C66 C65 1.389 . S
C66 C67 1.387 . S
C67 C66 1.387 . S
C67 C68 1.372 . S
C68 H46 0.950 . S
C68 C67 1.372 . S
C68 C69 1.379 . S
C69 H47 0.948 . S
C69 C64 1.364 . S
C69 C68 1.379 . S
C70 C39 1.383 . S
C70 C57 1.479 . S
C70 C71 1.398 . S
C71 C36 1.382 . S
C71 H48 0.951 . S
C71 C70 1.398 . S
C72 C73 1.384 . S
C72 H85 0.947 . S
C72 C107 1.382 . S
C73 C72 1.384 . S
C73 C74 1.378 . S
C74 C73 1.378 . S
C74 C75 1.378 . S
C74 H86 0.952 . S
C75 C74 1.378 . S
C75 H87 0.950 . S
C75 C106 1.383 . S
H76 C95 0.947 . S
H77 C96 0.946 . S
H78 C98 0.953 . S
H79 C99 0.945 . S
H80 C101 0.952 . S
H81 C102 0.949 . S
H82 C104 0.950 . S
H83 C105 0.948 . S
H84 C107 0.951 . S
H85 C72 0.947 . S
H86 C74 0.952 . S
H87 C75 0.950 . S
N88 C91 1.382 . S
N88 C93 1.363 . S
N89 C91 1.371 . S
N89 C92 1.372 . S
N90 C92 1.361 . S
N90 C93 1.377 . S
C91 N88 1.382 . S
C91 N89 1.371 . S
C91 C94 1.480 . S
C92 N89 1.372 . S
C92 N90 1.361 . S
C92 C100 1.457 . S
C93 N88 1.363 . S
C93 N90 1.377 . S
C93 C106 1.479 . S
C94 C91 1.480 . S
C94 C95 1.383 . S
C94 C99 1.385 . S
C95 H76 0.947 . S
C95 C94 1.383 . S
C95 C96 1.388 . S
C96 H77 0.946 . S
C96 C95 1.388 . S
C96 C97 1.384 . S
C97 C96 1.384 . S
C97 C98 1.377 . S
C98 H78 0.953 . S
C98 C97 1.377 . S
C98 C99 1.369 . S
C99 H79 0.945 . S
C99 C94 1.385 . S
C99 C98 1.369 . S
C100 C92 1.457 . S
C100 C101 1.372 . S
C100 C105 1.364 . S
C101 H80 0.952 . S
C101 C100 1.372 . S
C101 C102 1.389 . S
C102 H81 0.949 . S
C102 C101 1.389 . S
C102 C103 1.387 . S
C103 C102 1.387 . S
C103 C104 1.372 . S
C104 H82 0.950 . S
C104 C103 1.372 . S
C104 C105 1.379 . S
C105 H83 0.948 . S
C105 C100 1.364 . S
C105 C104 1.379 . S
C106 C75 1.383 . S
C106 C93 1.479 . S
C106 C107 1.398 . S
C107 C72 1.382 . S
C107 H84 0.951 . S
C107 C106 1.398 . S
C108 C109 1.384 . S
C108 H121 0.947 . S
C108 C143 1.382 . S
C109 C108 1.384 . S
C109 C110 1.378 . S
C110 C109 1.378 . S
C110 C111 1.378 . S
C110 H122 0.952 . S
C111 C110 1.378 . S
C111 H123 0.950 . S
C111 C142 1.383 . S
H112 C131 0.947 . S
H113 C132 0.946 . S
H114 C134 0.953 . S
H115 C135 0.945 . S
H116 C137 0.952 . S
H117 C138 0.949 . S
H118 C140 0.950 . S
H119 C141 0.948 . S
H120 C143 0.951 . S
H121 C108 0.947 . S
H122 C110 0.952 . S
H123 C111 0.950 . S
N124 C127 1.382 . S
N124 C129 1.363 . S
N125 C127 1.371 . S
N125 C128 1.372 . S
N126 C128 1.361 . S
N126 C129 1.377 . S
C127 N124 1.382 . S
C127 N125 1.371 . S
C127 C130 1.480 . S
C128 N125 1.372 . S
C128 N126 1.361 . S
C128 C136 1.457 . S
C129 N124 1.363 . S
C129 N126 1.377 . S
C129 C142 1.479 . S
C130 C127 1.480 . S
C130 C131 1.383 . S
C130 C135 1.385 . S
C131 H112 0.947 . S
C131 C130 1.383 . S
C131 C132 1.388 . S
C132 H113 0.946 . S
C132 C131 1.388 . S
C132 C133 1.384 . S
C133 C132 1.384 . S
C133 C134 1.377 . S
C134 H114 0.953 . S
C134 C133 1.377 . S
C134 C135 1.369 . S
C135 H115 0.945 . S
C135 C130 1.385 . S
C135 C134 1.369 . S
C136 C128 1.457 . S
C136 C137 1.372 . S
C136 C141 1.364 . S
C137 H116 0.952 . S
C137 C136 1.372 . S
C137 C138 1.389 . S
C138 H117 0.949 . S
C138 C137 1.389 . S
C138 C139 1.387 . S
C139 C138 1.387 . S
C139 C140 1.372 . S
C140 H118 0.950 . S
C140 C139 1.372 . S
C140 C141 1.379 . S
C141 H119 0.948 . S
C141 C136 1.364 . S
C141 C140 1.379 . S
C142 C111 1.383 . S
C142 C129 1.479 . S
C142 C143 1.398 . S
C143 C108 1.382 . S
C143 H120 0.951 . S
C143 C142 1.398 . S
C144 C145 1.384 . S
C144 H157 0.947 . S
C144 C179 1.382 . S
C145 C144 1.384 . S
C145 C146 1.378 . S
C146 C145 1.378 . S
C146 C147 1.378 . S
C146 H158 0.952 . S
C147 C146 1.378 . S
C147 H159 0.950 . S
C147 C178 1.383 . S
H148 C167 0.947 . S
H149 C168 0.946 . S
H150 C170 0.953 . S
H151 C171 0.945 . S
H152 C173 0.952 . S
H153 C174 0.949 . S
H154 C176 0.950 . S
H155 C177 0.948 . S
H156 C179 0.951 . S
H157 C144 0.947 . S
H158 C146 0.952 . S
H159 C147 0.950 . S
N160 C163 1.382 . S
N160 C165 1.363 . S
N161 C163 1.371 . S
N161 C164 1.372 . S
N162 C164 1.361 . S
N162 C165 1.377 . S
C163 N160 1.382 . S
C163 N161 1.371 . S
C163 C166 1.480 . S
C164 N161 1.372 . S
C164 N162 1.361 . S
C164 C172 1.457 . S
C165 N160 1.363 . S
C165 N162 1.377 . S
C165 C178 1.479 . S
C166 C163 1.480 . S
C166 C167 1.383 . S
C166 C171 1.385 . S
C167 H148 0.947 . S
C167 C166 1.383 . S
C167 C168 1.388 . S
C168 H149 0.946 . S
C168 C167 1.388 . S
C168 C169 1.384 . S
C169 C168 1.384 . S
C169 C170 1.377 . S
C170 H150 0.953 . S
C170 C169 1.377 . S
C170 C171 1.369 . S
C171 H151 0.945 . S
C171 C166 1.385 . S
C171 C170 1.369 . S
C172 C164 1.457 . S
C172 C173 1.372 . S
C172 C177 1.364 . S
C173 H152 0.952 . S
C173 C172 1.372 . S
C173 C174 1.389 . S
C174 H153 0.949 . S
C174 C173 1.389 . S
C174 C175 1.387 . S
C175 C174 1.387 . S
C175 C176 1.372 . S
C176 H154 0.950 . S
C176 C175 1.372 . S
C176 C177 1.379 . S
C177 H155 0.948 . S
C177 C172 1.364 . S
C177 C176 1.379 . S
C178 C147 1.383 . S
C178 C165 1.479 . S
C178 C179 1.398 . S
C179 C144 1.382 . S
C179 H156 0.951 . S
C179 C178 1.398 . S
C180 C181 1.384 . S
C180 H193 0.947 . S
C180 C215 1.382 . S
C181 C180 1.384 . S
C181 C182 1.378 . S
C182 C181 1.378 . S
C182 C183 1.378 . S
C182 H194 0.952 . S
C183 C182 1.378 . S
C183 H195 0.950 . S
C183 C214 1.383 . S
H184 C203 0.947 . S
H185 C204 0.946 . S
H186 C206 0.953 . S
H187 C207 0.945 . S
H188 C209 0.952 . S
H189 C210 0.949 . S
H190 C212 0.950 . S
H191 C213 0.948 . S
H192 C215 0.951 . S
H193 C180 0.947 . S
H194 C182 0.952 . S
H195 C183 0.950 . S
N196 C199 1.382 . S
N196 C201 1.363 . S
N197 C199 1.371 . S
N197 C200 1.372 . S
N198 C200 1.361 . S
N198 C201 1.377 . S
C199 N196 1.382 . S
C199 N197 1.371 . S
C199 C202 1.480 . S
C200 N197 1.372 . S
C200 N198 1.361 . S
C200 C208 1.457 . S
C201 N196 1.363 . S
C201 N198 1.377 . S
C201 C214 1.479 . S
C202 C199 1.480 . S
C202 C203 1.383 . S
C202 C207 1.385 . S
C203 H184 0.947 . S
C203 C202 1.383 . S
C203 C204 1.388 . S
C204 H185 0.946 . S
C204 C203 1.388 . S
C204 C205 1.384 . S
C205 C204 1.384 . S
C205 C206 1.377 . S
C206 H186 0.953 . S
C206 C205 1.377 . S
C206 C207 1.369 . S
C207 H187 0.945 . S
C207 C202 1.385 . S
C207 C206 1.369 . S
C208 C200 1.457 . S
C208 C209 1.372 . S
C208 C213 1.364 . S
C209 H188 0.952 . S
C209 C208 1.372 . S
C209 C210 1.389 . S
C210 H189 0.949 . S
C210 C209 1.389 . S
C210 C211 1.387 . S
C211 C210 1.387 . S
C211 C212 1.372 . S
C212 H190 0.950 . S
C212 C211 1.372 . S
C212 C213 1.379 . S
C213 H191 0.948 . S
C213 C208 1.364 . S
C213 C212 1.379 . S
C214 C183 1.383 . S
C214 C201 1.479 . S
C214 C215 1.398 . S
C215 C180 1.382 . S
C215 H192 0.951 . S
C215 C214 1.398 . S
C216 C217 1.384 . S
C216 H229 0.947 . S
C216 C251 1.382 . S
C217 C216 1.384 . S
C217 C218 1.378 . S
C218 C217 1.378 . S
C218 C219 1.378 . S
C218 H230 0.952 . S
C219 C218 1.378 . S
C219 H231 0.950 . S
C219 C250 1.383 . S
H220 C239 0.947 . S
H221 C240 0.946 . S
H222 C242 0.953 . S
H223 C243 0.945 . S
H224 C245 0.952 . S
H225 C246 0.949 . S
H226 C248 0.950 . S
H227 C249 0.948 . S
H228 C251 0.951 . S
H229 C216 0.947 . S
H230 C218 0.952 . S
H231 C219 0.950 . S
N232 C235 1.382 . S
N232 C237 1.363 . S
N233 C235 1.371 . S
N233 C236 1.372 . S
N234 C236 1.361 . S
N234 C237 1.377 . S
C235 N232 1.382 . S
C235 N233 1.371 . S
C235 C238 1.480 . S
C236 N233 1.372 . S
C236 N234 1.361 . S
C236 C244 1.457 . S
C237 N232 1.363 . S
C237 N234 1.377 . S
C237 C250 1.479 . S
C238 C235 1.480 . S
C238 C239 1.383 . S
C238 C243 1.385 . S
C239 H220 0.947 . S
C239 C238 1.383 . S
C239 C240 1.388 . S
C240 H221 0.946 . S
C240 C239 1.388 . S
C240 C241 1.384 . S
C241 C240 1.384 . S
C241 C242 1.377 . S
C242 H222 0.953 . S
C242 C241 1.377 . S
C242 C243 1.369 . S
C243 H223 0.945 . S
C243 C238 1.385 . S
C243 C242 1.369 . S
C244 C236 1.457 . S
C244 C245 1.372 . S
C244 C249 1.364 . S
C245 H224 0.952 . S
C245 C244 1.372 . S
C245 C246 1.389 . S
C246 H225 0.949 . S
C246 C245 1.389 . S
C246 C247 1.387 . S
C247 C246 1.387 . S
C247 C248 1.372 . S
C248 H226 0.950 . S
C248 C247 1.372 . S
C248 C249 1.379 . S
C249 H227 0.948 . S
C249 C244 1.364 . S
C249 C248 1.379 . S
C250 C219 1.383 . S
C250 C237 1.479 . S
C250 C251 1.398 . S
C251 C216 1.382 . S
C251 H228 0.951 . S
C251 C250 1.398 . S
C252 C253 1.384 . S
C252 H265 0.947 . S
C252 C287 1.382 . S
C253 C252 1.384 . S
C253 C254 1.378 . S
C254 C253 1.378 . S
C254 C255 1.378 . S
C254 H266 0.952 . S
C255 C254 1.378 . S
C255 H267 0.950 . S
C255 C286 1.383 . S
H256 C275 0.947 . S
H257 C276 0.946 . S
H258 C278 0.953 . S
H259 C279 0.945 . S
H260 C281 0.952 . S
H261 C282 0.949 . S
H262 C284 0.950 . S
H263 C285 0.948 . S
H264 C287 0.951 . S
H265 C252 0.947 . S
H266 C254 0.952 . S
H267 C255 0.950 . S
N268 C271 1.382 . S
N268 C273 1.363 . S
N269 C271 1.371 . S
N269 C272 1.372 . S
N270 C272 1.361 . S
N270 C273 1.377 . S
C271 N268 1.382 . S
C271 N269 1.371 . S
C271 C274 1.480 . S
C272 N269 1.372 . S
C272 N270 1.361 . S
C272 C280 1.457 . S
C273 N268 1.363 . S
C273 N270 1.377 . S
C273 C286 1.479 . S
C274 C271 1.480 . S
C274 C275 1.383 . S
C274 C279 1.385 . S
C275 H256 0.947 . S
C275 C274 1.383 . S
C275 C276 1.388 . S
C276 H257 0.946 . S
C276 C275 1.388 . S
C276 C277 1.384 . S
C277 C276 1.384 . S
C277 C278 1.377 . S
C278 H258 0.953 . S
C278 C277 1.377 . S
C278 C279 1.369 . S
C279 H259 0.945 . S
C279 C274 1.385 . S
C279 C278 1.369 . S
C280 C272 1.457 . S
C280 C281 1.372 . S
C280 C285 1.364 . S
C281 H260 0.952 . S
C281 C280 1.372 . S
C281 C282 1.389 . S
C282 H261 0.949 . S
C282 C281 1.389 . S
C282 C283 1.387 . S
C283 C282 1.387 . S
C283 C284 1.372 . S
C284 H262 0.950 . S
C284 C283 1.372 . S
C284 C285 1.379 . S
C285 H263 0.948 . S
C285 C280 1.364 . S
C285 C284 1.379 . S
C286 C255 1.383 . S
C286 C273 1.479 . S
C286 C287 1.398 . S
C287 C252 1.382 . S
C287 H264 0.951 . S
C287 C286 1.398 . S
C288 C289 1.384 . S
C288 H301 0.947 . S
C288 C323 1.382 . S
C289 C288 1.384 . S
C289 C290 1.378 . S
C290 C289 1.378 . S
C290 C291 1.378 . S
C290 H302 0.952 . S
C291 C290 1.378 . S
C291 H303 0.950 . S
C291 C322 1.383 . S
H292 C311 0.947 . S
H293 C312 0.946 . S
H294 C314 0.953 . S
H295 C315 0.945 . S
H296 C317 0.952 . S
H297 C318 0.949 . S
H298 C320 0.950 . S
H299 C321 0.948 . S
H300 C323 0.951 . S
H301 C288 0.947 . S
H302 C290 0.952 . S
H303 C291 0.950 . S
N304 C307 1.382 . S
N304 C309 1.363 . S
N305 C307 1.371 . S
N305 C308 1.372 . S
N306 C308 1.361 . S
N306 C309 1.377 . S
C307 N304 1.382 . S
C307 N305 1.371 . S
C307 C310 1.480 . S
C308 N305 1.372 . S
C308 N306 1.361 . S
C308 C316 1.457 . S
C309 N304 1.363 . S
C309 N306 1.377 . S
C309 C322 1.479 . S
C310 C307 1.480 . S
C310 C311 1.383 . S
C310 C315 1.385 . S
C311 H292 0.947 . S
C311 C310 1.383 . S
C311 C312 1.388 . S
C312 H293 0.946 . S
C312 C311 1.388 . S
C312 C313 1.384 . S
C313 C312 1.384 . S
C313 C314 1.377 . S
C314 H294 0.953 . S
C314 C313 1.377 . S
C314 C315 1.369 . S
C315 H295 0.945 . S
C315 C310 1.385 . S
C315 C314 1.369 . S
C316 C308 1.457 . S
C316 C317 1.372 . S
C316 C321 1.364 . S
C317 H296 0.952 . S
C317 C316 1.372 . S
C317 C318 1.389 . S
C318 H297 0.949 . S
C318 C317 1.389 . S
C318 C319 1.387 . S
C319 C318 1.387 . S
C319 C320 1.372 . S
C320 H298 0.950 . S
C320 C319 1.372 . S
C320 C321 1.379 . S
C321 H299 0.948 . S
C321 C316 1.364 . S
C321 C320 1.379 . S
C322 C291 1.383 . S
C322 C309 1.479 . S
C322 C323 1.398 . S
C323 C288 1.382 . S
C323 H300 0.951 . S
C323 C322 1.398 . S
C324 C325 1.384 . S
C324 H337 0.947 . S
C324 C359 1.382 . S
C325 C324 1.384 . S
C325 C326 1.378 . S
C326 C325 1.378 . S
C326 C327 1.378 . S
C326 H338 0.952 . S
C327 C326 1.378 . S
C327 H339 0.950 . S
C327 C358 1.383 . S
H328 C347 0.947 . S
H329 C348 0.946 . S
H330 C350 0.953 . S
H331 C351 0.945 . S
H332 C353 0.952 . S
H333 C354 0.949 . S
H334 C356 0.950 . S
H335 C357 0.948 . S
H336 C359 0.951 . S
H337 C324 0.947 . S
H338 C326 0.952 . S
H339 C327 0.950 . S
N340 C343 1.382 . S
N340 C345 1.363 . S
N341 C343 1.371 . S
N341 C344 1.372 . S
N342 C344 1.361 . S
N342 C345 1.377 . S
C343 N340 1.382 . S
C343 N341 1.371 . S
C343 C346 1.480 . S
C344 N341 1.372 . S
C344 N342 1.361 . S
C344 C352 1.457 . S
C345 N340 1.363 . S
C345 N342 1.377 . S
C345 C358 1.479 . S
C346 C343 1.480 . S
C346 C347 1.383 . S
C346 C351 1.385 . S
C347 H328 0.947 . S
C347 C346 1.383 . S
C347 C348 1.388 . S
C348 H329 0.946 . S
C348 C347 1.388 . S
C348 C349 1.384 . S
C349 C348 1.384 . S
C349 C350 1.377 . S
C350 H330 0.953 . S
C350 C349 1.377 . S
C350 C351 1.369 . S
C351 H331 0.945 . S
C351 C346 1.385 . S
C351 C350 1.369 . S
C352 C344 1.457 . S
C352 C353 1.372 . S
C352 C357 1.364 . S
C353 H332 0.952 . S
C353 C352 1.372 . S
C353 C354 1.389 . S
C354 H333 0.949 . S
C354 C353 1.389 . S
C354 C355 1.387 . S
C355 C354 1.387 . S
C355 C356 1.372 . S
C356 H334 0.950 . S
C356 C355 1.372 . S
C356 C357 1.379 . S
C357 H335 0.948 . S
C357 C352 1.364 . S
C357 C356 1.379 . S
C358 C327 1.383 . S
C358 C345 1.479 . S
C358 C359 1.398 . S
C359 C324 1.382 . S
C359 H336 0.951 . S
C359 C358 1.398 . S
C360 C361 1.384 . S
C360 H373 0.947 . S
C360 C395 1.382 . S
C361 C360 1.384 . S
C361 C362 1.378 . S
C362 C361 1.378 . S
C362 C363 1.378 . S
C362 H374 0.952 . S
C363 C362 1.378 . S
C363 H375 0.950 . S
C363 C394 1.383 . S
H364 C383 0.947 . S
H365 C384 0.946 . S
H366 C386 0.953 . S
H367 C387 0.945 . S
H368 C389 0.952 . S
H369 C390 0.949 . S
H370 C392 0.950 . S
H371 C393 0.948 . S
H372 C395 0.951 . S
H373 C360 0.947 . S
H374 C362 0.952 . S
H375 C363 0.950 . S
N376 C379 1.382 . S
N376 C381 1.363 . S
N377 C379 1.371 . S
N377 C380 1.372 . S
N378 C380 1.361 . S
N378 C381 1.377 . S
C379 N376 1.382 . S
C379 N377 1.371 . S
C379 C382 1.480 . S
C380 N377 1.372 . S
C380 N378 1.361 . S
C380 C388 1.457 . S
C381 N376 1.363 . S
C381 N378 1.377 . S
C381 C394 1.479 . S
C382 C379 1.480 . S
C382 C383 1.383 . S
C382 C387 1.385 . S
C383 H364 0.947 . S
C383 C382 1.383 . S
C383 C384 1.388 . S
C384 H365 0.946 . S
C384 C383 1.388 . S
C384 C385 1.384 . S
C385 C384 1.384 . S
C385 C386 1.377 . S
C386 H366 0.953 . S
C386 C385 1.377 . S
C386 C387 1.369 . S
C387 H367 0.945 . S
C387 C382 1.385 . S
C387 C386 1.369 . S
C388 C380 1.457 . S
C388 C389 1.372 . S
C388 C393 1.364 . S
C389 H368 0.952 . S
C389 C388 1.372 . S
C389 C390 1.389 . S
C390 H369 0.949 . S
C390 C389 1.389 . S
C390 C391 1.387 . S
C391 C390 1.387 . S
C391 C392 1.372 . S
C392 H370 0.950 . S
C392 C391 1.372 . S
C392 C393 1.379 . S
C393 H371 0.948 . S
C393 C388 1.364 . S
C393 C392 1.379 . S
C394 C363 1.383 . S
C394 C381 1.479 . S
C394 C395 1.398 . S
C395 C360 1.382 . S
C395 H372 0.951 . S
C395 C394 1.398 . S
C396 C397 1.384 . S
C396 H409 0.947 . S
C396 C431 1.382 . S
C397 C396 1.384 . S
C397 C398 1.378 . S
C398 C397 1.378 . S
C398 C399 1.378 . S
C398 H410 0.952 . S
C399 C398 1.378 . S
C399 H411 0.950 . S
C399 C430 1.383 . S
H400 C419 0.947 . S
H401 C420 0.946 . S
H402 C422 0.953 . S
H403 C423 0.945 . S
H404 C425 0.952 . S
H405 C426 0.949 . S
H406 C428 0.950 . S
H407 C429 0.948 . S
H408 C431 0.951 . S
H409 C396 0.947 . S
H410 C398 0.952 . S
H411 C399 0.950 . S
N412 C415 1.382 . S
N412 C417 1.363 . S
N413 C415 1.371 . S
N413 C416 1.372 . S
N414 C416 1.361 . S
N414 C417 1.377 . S
C415 N412 1.382 . S
C415 N413 1.371 . S
C415 C418 1.480 . S
C416 N413 1.372 . S
C416 N414 1.361 . S
C416 C424 1.457 . S
C417 N412 1.363 . S
C417 N414 1.377 . S
C417 C430 1.479 . S
C418 C415 1.480 . S
C418 C419 1.383 . S
C418 C423 1.385 . S
C419 H400 0.947 . S
C419 C418 1.383 . S
C419 C420 1.388 . S
C420 H401 0.946 . S
C420 C419 1.388 . S
C420 C421 1.384 . S
C421 C420 1.384 . S
C421 C422 1.377 . S
C422 H402 0.953 . S
C422 C421 1.377 . S
C422 C423 1.369 . S
C423 H403 0.945 . S
C423 C418 1.385 . S
C423 C422 1.369 . S
C424 C416 1.457 . S
C424 C425 1.372 . S
C424 C429 1.364 . S
C425 H404 0.952 . S
C425 C424 1.372 . S
C425 C426 1.389 . S
C426 H405 0.949 . S
C426 C425 1.389 . S
C426 C427 1.387 . S
C427 C426 1.387 . S
C427 C428 1.372 . S
C428 H406 0.950 . S
C428 C427 1.372 . S
C428 C429 1.379 . S
C429 H407 0.948 . S
C429 C424 1.364 . S
C429 C428 1.379 . S
C430 C399 1.383 . S
C430 C417 1.479 . S
C430 C431 1.398 . S
C431 C396 1.382 . S
C431 H408 0.951 . S
C431 C430 1.398 . S
C432 C433 1.384 . S
C432 H445 0.947 . S
C432 C467 1.382 . S
C433 C432 1.384 . S
C433 C434 1.378 . S
C434 C433 1.378 . S
C434 C435 1.378 . S
C434 H446 0.952 . S
C435 C434 1.378 . S
C435 H447 0.950 . S
C435 C466 1.383 . S
H436 C455 0.947 . S
H437 C456 0.946 . S
H438 C458 0.953 . S
H439 C459 0.945 . S
H440 C461 0.952 . S
H441 C462 0.949 . S
H442 C464 0.950 . S
H443 C465 0.948 . S
H444 C467 0.951 . S
H445 C432 0.947 . S
H446 C434 0.952 . S
H447 C435 0.950 . S
N448 C451 1.382 . S
N448 C453 1.363 . S
N449 C451 1.371 . S
N449 C452 1.372 . S
N450 C452 1.361 . S
N450 C453 1.377 . S
C451 N448 1.382 . S
C451 N449 1.371 . S
C451 C454 1.480 . S
C452 N449 1.372 . S
C452 N450 1.361 . S
C452 C460 1.457 . S
C453 N448 1.363 . S
C453 N450 1.377 . S
C453 C466 1.479 . S
C454 C451 1.480 . S
C454 C455 1.383 . S
C454 C459 1.385 . S
C455 H436 0.947 . S
C455 C454 1.383 . S
C455 C456 1.388 . S
C456 H437 0.946 . S
C456 C455 1.388 . S
C456 C457 1.384 . S
C457 C456 1.384 . S
C457 C458 1.377 . S
C458 H438 0.953 . S
C458 C457 1.377 . S
C458 C459 1.369 . S
C459 H439 0.945 . S
C459 C454 1.385 . S
C459 C458 1.369 . S
C460 C452 1.457 . S
C460 C461 1.372 . S
C460 C465 1.364 . S
C461 H440 0.952 . S
C461 C460 1.372 . S
C461 C462 1.389 . S
C462 H441 0.949 . S
C462 C461 1.389 . S
C462 C463 1.387 . S
C463 C462 1.387 . S
C463 C464 1.372 . S
C464 H442 0.950 . S
C464 C463 1.372 . S
C464 C465 1.379 . S
C465 H443 0.948 . S
C465 C460 1.364 . S
C465 C464 1.379 . S
C466 C435 1.383 . S
C466 C453 1.479 . S
C466 C467 1.398 . S
C467 C432 1.382 . S
C467 H444 0.951 . S
C467 C466 1.398 . S
C468 C469 1.384 . S
C468 H481 0.947 . S
C468 C503 1.382 . S
C469 C468 1.384 . S
C469 C470 1.378 . S
C470 C469 1.378 . S
C470 C471 1.378 . S
C470 H482 0.952 . S
C471 C470 1.378 . S
C471 H483 0.950 . S
C471 C502 1.383 . S
H472 C491 0.947 . S
H473 C492 0.946 . S
H474 C494 0.953 . S
H475 C495 0.945 . S
H476 C497 0.952 . S
H477 C498 0.949 . S
H478 C500 0.950 . S
H479 C501 0.948 . S
H480 C503 0.951 . S
H481 C468 0.947 . S
H482 C470 0.952 . S
H483 C471 0.950 . S
N484 C487 1.382 . S
N484 C489 1.363 . S
N485 C487 1.371 . S
N485 C488 1.372 . S
N486 C488 1.361 . S
N486 C489 1.377 . S
C487 N484 1.382 . S
C487 N485 1.371 . S
C487 C490 1.480 . S
C488 N485 1.372 . S
C488 N486 1.361 . S
C488 C496 1.457 . S
C489 N484 1.363 . S
C489 N486 1.377 . S
C489 C502 1.479 . S
C490 C487 1.480 . S
C490 C491 1.383 . S
C490 C495 1.385 . S
C491 H472 0.947 . S
C491 C490 1.383 . S
C491 C492 1.388 . S
C492 H473 0.946 . S
C492 C491 1.388 . S
C492 C493 1.384 . S
C493 C492 1.384 . S
C493 C494 1.377 . S
C494 H474 0.953 . S
C494 C493 1.377 . S
C494 C495 1.369 . S
C495 H475 0.945 . S
C495 C490 1.385 . S
C495 C494 1.369 . S
C496 C488 1.457 . S
C496 C497 1.372 . S
C496 C501 1.364 . S
C497 H476 0.952 . S
C497 C496 1.372 . S
C497 C498 1.389 . S
C498 H477 0.949 . S
C498 C497 1.389 . S
C498 C499 1.387 . S
C499 C498 1.387 . S
C499 C500 1.372 . S
C500 H478 0.950 . S
C500 C499 1.372 . S
C500 C501 1.379 . S
C501 H479 0.948 . S
C501 C496 1.364 . S
C501 C500 1.379 . S
C502 C471 1.383 . S
C502 C489 1.479 . S
C502 C503 1.398 . S
C503 C468 1.382 . S
C503 H480 0.951 . S
C503 C502 1.398 . S
C504 C505 1.384 . S
C504 H517 0.947 . S
C504 C539 1.382 . S
C505 C504 1.384 . S
C505 C506 1.378 . S
C506 C505 1.378 . S
C506 C507 1.378 . S
C506 H518 0.952 . S
C507 C506 1.378 . S
C507 H519 0.950 . S
C507 C538 1.383 . S
H508 C527 0.947 . S
H509 C528 0.946 . S
H510 C530 0.953 . S
H511 C531 0.945 . S
H512 C533 0.952 . S
H513 C534 0.949 . S
H514 C536 0.950 . S
H515 C537 0.948 . S
H516 C539 0.951 . S
H517 C504 0.947 . S
H518 C506 0.952 . S
H519 C507 0.950 . S
N520 C523 1.382 . S
N520 C525 1.363 . S
N521 C523 1.371 . S
N521 C524 1.372 . S
N522 C524 1.361 . S
N522 C525 1.377 . S
C523 N520 1.382 . S
C523 N521 1.371 . S
C523 C526 1.480 . S
C524 N521 1.372 . S
C524 N522 1.361 . S
C524 C532 1.457 . S
C525 N520 1.363 . S
C525 N522 1.377 . S
C525 C538 1.479 . S
C526 C523 1.480 . S
C526 C527 1.383 . S
C526 C531 1.385 . S
C527 H508 0.947 . S
C527 C526 1.383 . S
C527 C528 1.388 . S
C528 H509 0.946 . S
C528 C527 1.388 . S
C528 C529 1.384 . S
C529 C528 1.384 . S
C529 C530 1.377 . S
C530 H510 0.953 . S
C530 C529 1.377 . S
C530 C531 1.369 . S
C531 H511 0.945 . S
C531 C526 1.385 . S
C531 C530 1.369 . S
C532 C524 1.457 . S
C532 C533 1.372 . S
C532 C537 1.364 . S
C533 H512 0.952 . S
C533 C532 1.372 . S
C533 C534 1.389 . S
C534 H513 0.949 . S
C534 C533 1.389 . S
C534 C535 1.387 . S
C535 C534 1.387 . S
C535 C536 1.372 . S
C536 H514 0.950 . S
C536 C535 1.372 . S
C536 C537 1.379 . S
C537 H515 0.948 . S
C537 C532 1.364 . S
C537 C536 1.379 . S
C538 C507 1.383 . S
C538 C525 1.479 . S
C538 C539 1.398 . S
C539 C504 1.382 . S
C539 H516 0.951 . S
C539 C538 1.398 . S
C540 C541 1.384 . S
C540 H553 0.947 . S
C540 C575 1.382 . S
C541 C540 1.384 . S
C541 C542 1.378 . S
C542 C541 1.378 . S
C542 C543 1.378 . S
C542 H554 0.952 . S
C543 C542 1.378 . S
C543 H555 0.950 . S
C543 C574 1.383 . S
H544 C563 0.947 . S
H545 C564 0.946 . S
H546 C566 0.953 . S
H547 C567 0.945 . S
H548 C569 0.952 . S
H549 C570 0.949 . S
H550 C572 0.950 . S
H551 C573 0.948 . S
H552 C575 0.951 . S
H553 C540 0.947 . S
H554 C542 0.952 . S
H555 C543 0.950 . S
N556 C559 1.382 . S
N556 C561 1.363 . S
N557 C559 1.371 . S
N557 C560 1.372 . S
N558 C560 1.361 . S
N558 C561 1.377 . S
C559 N556 1.382 . S
C559 N557 1.371 . S
C559 C562 1.480 . S
C560 N557 1.372 . S
C560 N558 1.361 . S
C560 C568 1.457 . S
C561 N556 1.363 . S
C561 N558 1.377 . S
C561 C574 1.479 . S
C562 C559 1.480 . S
C562 C563 1.383 . S
C562 C567 1.385 . S
C563 H544 0.947 . S
C563 C562 1.383 . S
C563 C564 1.388 . S
C564 H545 0.946 . S
C564 C563 1.388 . S
C564 C565 1.384 . S
C565 C564 1.384 . S
C565 C566 1.377 . S
C566 H546 0.953 . S
C566 C565 1.377 . S
C566 C567 1.369 . S
C567 H547 0.945 . S
C567 C562 1.385 . S
C567 C566 1.369 . S
C568 C560 1.457 . S
C568 C569 1.372 . S
C568 C573 1.364 . S
C569 H548 0.952 . S
C569 C568 1.372 . S
C569 C570 1.389 . S
C570 H549 0.949 . S
C570 C569 1.389 . S
C570 C571 1.387 . S
C571 C570 1.387 . S
C571 C572 1.372 . S
C572 H550 0.950 . S
C572 C571 1.372 . S
C572 C573 1.379 . S
C573 H551 0.948 . S
C573 C568 1.364 . S
C573 C572 1.379 . S
C574 C543 1.383 . S
C574 C561 1.479 . S
C574 C575 1.398 . S
C575 C540 1.382 . S
C575 H552 0.951 . S
C575 C574 1.398 . S
C576 C577 1.384 . S
C576 H589 0.947 . S
C576 C611 1.382 . S
C577 C576 1.384 . S
C577 C578 1.378 . S
C578 C577 1.378 . S
C578 C579 1.378 . S
C578 H590 0.952 . S
C579 C578 1.378 . S
C579 H591 0.950 . S
C579 C610 1.383 . S
H580 C599 0.947 . S
H581 C600 0.946 . S
H582 C602 0.953 . S
H583 C603 0.945 . S
H584 C605 0.952 . S
H585 C606 0.949 . S
H586 C608 0.950 . S
H587 C609 0.948 . S
H588 C611 0.951 . S
H589 C576 0.947 . S
H590 C578 0.952 . S
H591 C579 0.950 . S
N592 C595 1.382 . S
N592 C597 1.363 . S
N593 C595 1.371 . S
N593 C596 1.372 . S
N594 C596 1.361 . S
N594 C597 1.377 . S
C595 N592 1.382 . S
C595 N593 1.371 . S
C595 C598 1.480 . S
C596 N593 1.372 . S
C596 N594 1.361 . S
C596 C604 1.457 . S
C597 N592 1.363 . S
C597 N594 1.377 . S
C597 C610 1.479 . S
C598 C595 1.480 . S
C598 C599 1.383 . S
C598 C603 1.385 . S
C599 H580 0.947 . S
C599 C598 1.383 . S
C599 C600 1.388 . S
C600 H581 0.946 . S
C600 C599 1.388 . S
C600 C601 1.384 . S
C601 C600 1.384 . S
C601 C602 1.377 . S
C602 H582 0.953 . S
C602 C601 1.377 . S
C602 C603 1.369 . S
C603 H583 0.945 . S
C603 C598 1.385 . S
C603 C602 1.369 . S
C604 C596 1.457 . S
C604 C605 1.372 . S
C604 C609 1.364 . S
C605 H584 0.952 . S
C605 C604 1.372 . S
C605 C606 1.389 . S
C606 H585 0.949 . S
C606 C605 1.389 . S
C606 C607 1.387 . S
C607 C606 1.387 . S
C607 C608 1.372 . S
C608 H586 0.950 . S
C608 C607 1.372 . S
C608 C609 1.379 . S
C609 H587 0.948 . S
C609 C604 1.364 . S
C609 C608 1.379 . S
C610 C579 1.383 . S
C610 C597 1.479 . S
C610 C611 1.398 . S
C611 C576 1.382 . S
C611 H588 0.951 . S
C611 C610 1.398 . S
C612 C613 1.384 . S
C612 H625 0.947 . S
C612 C647 1.382 . S
C613 C612 1.384 . S
C613 C614 1.378 . S
C614 C613 1.378 . S
C614 C615 1.378 . S
C614 H626 0.952 . S
C615 C614 1.378 . S
C615 H627 0.950 . S
C615 C646 1.383 . S
H616 C635 0.947 . S
H617 C636 0.946 . S
H618 C638 0.953 . S
H619 C639 0.945 . S
H620 C641 0.952 . S
H621 C642 0.949 . S
H622 C644 0.950 . S
H623 C645 0.948 . S
H624 C647 0.951 . S
H625 C612 0.947 . S
H626 C614 0.952 . S
H627 C615 0.950 . S
N628 C631 1.382 . S
N628 C633 1.363 . S
N629 C631 1.371 . S
N629 C632 1.372 . S
N630 C632 1.361 . S
N630 C633 1.377 . S
C631 N628 1.382 . S
C631 N629 1.371 . S
C631 C634 1.480 . S
C632 N629 1.372 . S
C632 N630 1.361 . S
C632 C640 1.457 . S
C633 N628 1.363 . S
C633 N630 1.377 . S
C633 C646 1.479 . S
C634 C631 1.480 . S
C634 C635 1.383 . S
C634 C639 1.385 . S
C635 H616 0.947 . S
C635 C634 1.383 . S
C635 C636 1.388 . S
C636 H617 0.946 . S
C636 C635 1.388 . S
C636 C637 1.384 . S
C637 C636 1.384 . S
C637 C638 1.377 . S
C638 H618 0.953 . S
C638 C637 1.377 . S
C638 C639 1.369 . S
C639 H619 0.945 . S
C639 C634 1.385 . S
C639 C638 1.369 . S
C640 C632 1.457 . S
C640 C641 1.372 . S
C640 C645 1.364 . S
C641 H620 0.952 . S
C641 C640 1.372 . S
C641 C642 1.389 . S
C642 H621 0.949 . S
C642 C641 1.389 . S
C642 C643 1.387 . S
C643 C642 1.387 . S
C643 C644 1.372 . S
C644 H622 0.950 . S
C644 C643 1.372 . S
C644 C645 1.379 . S
C645 H623 0.948 . S
C645 C640 1.364 . S
C645 C644 1.379 . S
C646 C615 1.383 . S
C646 C633 1.479 . S
C646 C647 1.398 . S
C647 C612 1.382 . S
C647 H624 0.951 . S
C647 C646 1.398 . S
C648 C649 1.384 . S
C648 H661 0.947 . S
C648 C683 1.382 . S
C649 C648 1.384 . S
C649 C650 1.378 . S
C650 C649 1.378 . S
C650 C651 1.378 . S
C650 H662 0.952 . S
C651 C650 1.378 . S
C651 H663 0.950 . S
C651 C682 1.383 . S
H652 C671 0.947 . S
H653 C672 0.946 . S
H654 C674 0.953 . S
H655 C675 0.945 . S
H656 C677 0.952 . S
H657 C678 0.949 . S
H658 C680 0.950 . S
H659 C681 0.948 . S
H660 C683 0.951 . S
H661 C648 0.947 . S
H662 C650 0.952 . S
H663 C651 0.950 . S
N664 C667 1.382 . S
N664 C669 1.363 . S
N665 C667 1.371 . S
N665 C668 1.372 . S
N666 C668 1.361 . S
N666 C669 1.377 . S
C667 N664 1.382 . S
C667 N665 1.371 . S
C667 C670 1.480 . S
C668 N665 1.372 . S
C668 N666 1.361 . S
C668 C676 1.457 . S
C669 N664 1.363 . S
C669 N666 1.377 . S
C669 C682 1.479 . S
C670 C667 1.480 . S
C670 C671 1.383 . S
C670 C675 1.385 . S
C671 H652 0.947 . S
C671 C670 1.383 . S
C671 C672 1.388 . S
C672 H653 0.946 . S
C672 C671 1.388 . S
C672 C673 1.384 . S
C673 C672 1.384 . S
C673 C674 1.377 . S
C674 H654 0.953 . S
C674 C673 1.377 . S
C674 C675 1.369 . S
C675 H655 0.945 . S
C675 C670 1.385 . S
C675 C674 1.369 . S
C676 C668 1.457 . S
C676 C677 1.372 . S
C676 C681 1.364 . S
C677 H656 0.952 . S
C677 C676 1.372 . S
C677 C678 1.389 . S
C678 H657 0.949 . S
C678 C677 1.389 . S
C678 C679 1.387 . S
C679 C678 1.387 . S
C679 C680 1.372 . S
C680 H658 0.950 . S
C680 C679 1.372 . S
C680 C681 1.379 . S
C681 H659 0.948 . S
C681 C676 1.364 . S
C681 C680 1.379 . S
C682 C651 1.383 . S
C682 C669 1.479 . S
C682 C683 1.398 . S
C683 C648 1.382 . S
C683 H660 0.951 . S
C683 C682 1.398 . S
C684 C685 1.384 . S
C684 H697 0.947 . S
C684 C719 1.382 . S
C685 C684 1.384 . S
C685 C686 1.378 . S
C686 C685 1.378 . S
C686 C687 1.378 . S
C686 H698 0.952 . S
C687 C686 1.378 . S
C687 H699 0.950 . S
C687 C718 1.383 . S
H688 C707 0.947 . S
H689 C708 0.946 . S
H690 C710 0.953 . S
H691 C711 0.945 . S
H692 C713 0.952 . S
H693 C714 0.949 . S
H694 C716 0.950 . S
H695 C717 0.948 . S
H696 C719 0.951 . S
H697 C684 0.947 . S
H698 C686 0.952 . S
H699 C687 0.950 . S
N700 C703 1.382 . S
N700 C705 1.363 . S
N701 C703 1.371 . S
N701 C704 1.372 . S
N702 C704 1.361 . S
N702 C705 1.377 . S
C703 N700 1.382 . S
C703 N701 1.371 . S
C703 C706 1.480 . S
C704 N701 1.372 . S
C704 N702 1.361 . S
C704 C712 1.457 . S
C705 N700 1.363 . S
C705 N702 1.377 . S
C705 C718 1.479 . S
C706 C703 1.480 . S
C706 C707 1.383 . S
C706 C711 1.385 . S
C707 H688 0.947 . S
C707 C706 1.383 . S
C707 C708 1.388 . S
C708 H689 0.946 . S
C708 C707 1.388 . S
C708 C709 1.384 . S
C709 C708 1.384 . S
C709 C710 1.377 . S
C710 H690 0.953 . S
C710 C709 1.377 . S
C710 C711 1.369 . S
C711 H691 0.945 . S
C711 C706 1.385 . S
C711 C710 1.369 . S
C712 C704 1.457 . S
C712 C713 1.372 . S
C712 C717 1.364 . S
C713 H692 0.952 . S
C713 C712 1.372 . S
C713 C714 1.389 . S
C714 H693 0.949 . S
C714 C713 1.389 . S
C714 C715 1.387 . S
C715 C714 1.387 . S
C715 C716 1.372 . S
C716 H694 0.950 . S
C716 C715 1.372 . S
C716 C717 1.379 . S
C717 H695 0.948 . S
C717 C712 1.364 . S
C717 C716 1.379 . S
C718 C687 1.383 . S
C718 C705 1.479 . S
C718 C719 1.398 . S
C719 C684 1.382 . S
C719 H696 0.951 . S
C719 C718 1.398 . S
C720 C721 1.384 . S
C720 H733 0.947 . S
C720 C755 1.382 . S
C721 C720 1.384 . S
C721 C722 1.378 . S
C722 C721 1.378 . S
C722 C723 1.378 . S
C722 H734 0.952 . S
C723 C722 1.378 . S
C723 H735 0.950 . S
C723 C754 1.383 . S
H724 C743 0.947 . S
H725 C744 0.946 . S
H726 C746 0.953 . S
H727 C747 0.945 . S
H728 C749 0.952 . S
H729 C750 0.949 . S
H730 C752 0.950 . S
H731 C753 0.948 . S
H732 C755 0.951 . S
H733 C720 0.947 . S
H734 C722 0.952 . S
H735 C723 0.950 . S
N736 C739 1.382 . S
N736 C741 1.363 . S
N737 C739 1.371 . S
N737 C740 1.372 . S
N738 C740 1.361 . S
N738 C741 1.377 . S
C739 N736 1.382 . S
C739 N737 1.371 . S
C739 C742 1.480 . S
C740 N737 1.372 . S
C740 N738 1.361 . S
C740 C748 1.457 . S
C741 N736 1.363 . S
C741 N738 1.377 . S
C741 C754 1.479 . S
C742 C739 1.480 . S
C742 C743 1.383 . S
C742 C747 1.385 . S
C743 H724 0.947 . S
C743 C742 1.383 . S
C743 C744 1.388 . S
C744 H725 0.946 . S
C744 C743 1.388 . S
C744 C745 1.384 . S
C745 C744 1.384 . S
C745 C746 1.377 . S
C746 H726 0.953 . S
C746 C745 1.377 . S
C746 C747 1.369 . S
C747 H727 0.945 . S
C747 C742 1.385 . S
C747 C746 1.369 . S
C748 C740 1.457 . S
C748 C749 1.372 . S
C748 C753 1.364 . S
C749 H728 0.952 . S
C749 C748 1.372 . S
C749 C750 1.389 . S
C750 H729 0.949 . S
C750 C749 1.389 . S
C750 C751 1.387 . S
C751 C750 1.387 . S
C751 C752 1.372 . S
C752 H730 0.950 . S
C752 C751 1.372 . S
C752 C753 1.379 . S
C753 H731 0.948 . S
C753 C748 1.364 . S
C753 C752 1.379 . S
C754 C723 1.383 . S
C754 C741 1.479 . S
C754 C755 1.398 . S
C755 C720 1.382 . S
C755 H732 0.951 . S
C755 C754 1.398 . S
C756 C757 1.384 . S
C756 H769 0.947 . S
C756 C791 1.382 . S
C757 C756 1.384 . S
C757 C758 1.378 . S
C758 C757 1.378 . S
C758 C759 1.378 . S
C758 H770 0.952 . S
C759 C758 1.378 . S
C759 H771 0.950 . S
C759 C790 1.383 . S
H760 C779 0.947 . S
H761 C780 0.946 . S
H762 C782 0.953 . S
H763 C783 0.945 . S
H764 C785 0.952 . S
H765 C786 0.949 . S
H766 C788 0.950 . S
H767 C789 0.948 . S
H768 C791 0.951 . S
H769 C756 0.947 . S
H770 C758 0.952 . S
H771 C759 0.950 . S
N772 C775 1.382 . S
N772 C777 1.363 . S
N773 C775 1.371 . S
N773 C776 1.372 . S
N774 C776 1.361 . S
N774 C777 1.377 . S
C775 N772 1.382 . S
C775 N773 1.371 . S
C775 C778 1.480 . S
C776 N773 1.372 . S
C776 N774 1.361 . S
C776 C784 1.457 . S
C777 N772 1.363 . S
C777 N774 1.377 . S
C777 C790 1.479 . S
C778 C775 1.480 . S
C778 C779 1.383 . S
C778 C783 1.385 . S
C779 H760 0.947 . S
C779 C778 1.383 . S
C779 C780 1.388 . S
C780 H761 0.946 . S
C780 C779 1.388 . S
C780 C781 1.384 . S
C781 C780 1.384 . S
C781 C782 1.377 . S
C782 H762 0.953 . S
C782 C781 1.377 . S
C782 C783 1.369 . S
C783 H763 0.945 . S
C783 C778 1.385 . S
C783 C782 1.369 . S
C784 C776 1.457 . S
C784 C785 1.372 . S
C784 C789 1.364 . S
C785 H764 0.952 . S
C785 C784 1.372 . S
C785 C786 1.389 . S
C786 H765 0.949 . S
C786 C785 1.389 . S
C786 C787 1.387 . S
C787 C786 1.387 . S
C787 C788 1.372 . S
C788 H766 0.950 . S
C788 C787 1.372 . S
C788 C789 1.379 . S
C789 H767 0.948 . S
C789 C784 1.364 . S
C789 C788 1.379 . S
C790 C759 1.383 . S
C790 C777 1.479 . S
C790 C791 1.398 . S
C791 C756 1.382 . S
C791 H768 0.951 . S
C791 C790 1.398 . S
C792 C793 1.384 . S
C792 H805 0.947 . S
C792 C827 1.382 . S
C793 C792 1.384 . S
C793 C794 1.378 . S
C794 C793 1.378 . S
C794 C795 1.378 . S
C794 H806 0.952 . S
C795 C794 1.378 . S
C795 H807 0.950 . S
C795 C826 1.383 . S
H796 C815 0.947 . S
H797 C816 0.946 . S
H798 C818 0.953 . S
H799 C819 0.945 . S
H800 C821 0.952 . S
H801 C822 0.949 . S
H802 C824 0.950 . S
H803 C825 0.948 . S
H804 C827 0.951 . S
H805 C792 0.947 . S
H806 C794 0.952 . S
H807 C795 0.950 . S
N808 C811 1.382 . S
N808 C813 1.363 . S
N809 C811 1.371 . S
N809 C812 1.372 . S
N810 C812 1.361 . S
N810 C813 1.377 . S
C811 N808 1.382 . S
C811 N809 1.371 . S
C811 C814 1.480 . S
C812 N809 1.372 . S
C812 N810 1.361 . S
C812 C820 1.457 . S
C813 N808 1.363 . S
C813 N810 1.377 . S
C813 C826 1.479 . S
C814 C811 1.480 . S
C814 C815 1.383 . S
C814 C819 1.385 . S
C815 H796 0.947 . S
C815 C814 1.383 . S
C815 C816 1.388 . S
C816 H797 0.946 . S
C816 C815 1.388 . S
C816 C817 1.384 . S
C817 C816 1.384 . S
C817 C818 1.377 . S
C818 H798 0.953 . S
C818 C817 1.377 . S
C818 C819 1.369 . S
C819 H799 0.945 . S
C819 C814 1.385 . S
C819 C818 1.369 . S
C820 C812 1.457 . S
C820 C821 1.372 . S
C820 C825 1.364 . S
C821 H800 0.952 . S
C821 C820 1.372 . S
C821 C822 1.389 . S
C822 H801 0.949 . S
C822 C821 1.389 . S
C822 C823 1.387 . S
C823 C822 1.387 . S
C823 C824 1.372 . S
C824 H802 0.950 . S
C824 C823 1.372 . S
C824 C825 1.379 . S
C825 H803 0.948 . S
C825 C820 1.364 . S
C825 C824 1.379 . S
C826 C795 1.383 . S
C826 C813 1.479 . S
C826 C827 1.398 . S
C827 C792 1.382 . S
C827 H804 0.951 . S
C827 C826 1.398 . S
C828 C829 1.384 . S
C828 H841 0.947 . S
C828 C863 1.382 . S
C829 C828 1.384 . S
C829 C830 1.378 . S
C830 C829 1.378 . S
C830 C831 1.378 . S
C830 H842 0.952 . S
C831 C830 1.378 . S
C831 H843 0.950 . S
C831 C862 1.383 . S
H832 C851 0.947 . S
H833 C852 0.946 . S
H834 C854 0.953 . S
H835 C855 0.945 . S
H836 C857 0.952 . S
H837 C858 0.949 . S
H838 C860 0.950 . S
H839 C861 0.948 . S
H840 C863 0.951 . S
H841 C828 0.947 . S
H842 C830 0.952 . S
H843 C831 0.950 . S
N844 C847 1.382 . S
N844 C849 1.363 . S
N845 C847 1.371 . S
N845 C848 1.372 . S
N846 C848 1.361 . S
N846 C849 1.377 . S
C847 N844 1.382 . S
C847 N845 1.371 . S
C847 C850 1.480 . S
C848 N845 1.372 . S
C848 N846 1.361 . S
C848 C856 1.457 . S
C849 N844 1.363 . S
C849 N846 1.377 . S
C849 C862 1.479 . S
C850 C847 1.480 . S
C850 C851 1.383 . S
C850 C855 1.385 . S
C851 H832 0.947 . S
C851 C850 1.383 . S
C851 C852 1.388 . S
C852 H833 0.946 . S
C852 C851 1.388 . S
C852 C853 1.384 . S
C853 C852 1.384 . S
C853 C854 1.377 . S
C854 H834 0.953 . S
C854 C853 1.377 . S
C854 C855 1.369 . S
C855 H835 0.945 . S
C855 C850 1.385 . S
C855 C854 1.369 . S
C856 C848 1.457 . S
C856 C857 1.372 . S
C856 C861 1.364 . S
C857 H836 0.952 . S
C857 C856 1.372 . S
C857 C858 1.389 . S
C858 H837 0.949 . S
C858 C857 1.389 . S
C858 C859 1.387 . S
C859 C858 1.387 . S
C859 C860 1.372 . S
C860 H838 0.950 . S
C860 C859 1.372 . S
C860 C861 1.379 . S
C861 H839 0.948 . S
C861 C856 1.364 . S
C861 C860 1.379 . S
C862 C831 1.383 . S
C862 C849 1.479 . S
C862 C863 1.398 . S
C863 C828 1.382 . S
C863 H840 0.951 . S
C863 C862 1.398 . S
C864 C865 1.384 . S
C864 H877 0.947 . S
C864 C899 1.382 . S
C865 C864 1.384 . S
C865 C866 1.378 . S
C866 C865 1.378 . S
C866 C867 1.378 . S
C866 H878 0.952 . S
C867 C866 1.378 . S
C867 H879 0.950 . S
C867 C898 1.383 . S
H868 C887 0.947 . S
H869 C888 0.946 . S
H870 C890 0.953 . S
H871 C891 0.945 . S
H872 C893 0.952 . S
H873 C894 0.949 . S
H874 C896 0.950 . S
H875 C897 0.948 . S
H876 C899 0.951 . S
H877 C864 0.947 . S
H878 C866 0.952 . S
H879 C867 0.950 . S
N880 C883 1.382 . S
N880 C885 1.363 . S
N881 C883 1.371 . S
N881 C884 1.372 . S
N882 C884 1.361 . S
N882 C885 1.377 . S
C883 N880 1.382 . S
C883 N881 1.371 . S
C883 C886 1.480 . S
C884 N881 1.372 . S
C884 N882 1.361 . S
C884 C892 1.457 . S
C885 N880 1.363 . S
C885 N882 1.377 . S
C885 C898 1.479 . S
C886 C883 1.480 . S
C886 C887 1.383 . S
C886 C891 1.385 . S
C887 H868 0.947 . S
C887 C886 1.383 . S
C887 C888 1.388 . S
C888 H869 0.946 . S
C888 C887 1.388 . S
C888 C889 1.384 . S
C889 C888 1.384 . S
C889 C890 1.377 . S
C890 H870 0.953 . S
C890 C889 1.377 . S
C890 C891 1.369 . S
C891 H871 0.945 . S
C891 C886 1.385 . S
C891 C890 1.369 . S
C892 C884 1.457 . S
C892 C893 1.372 . S
C892 C897 1.364 . S
C893 H872 0.952 . S
C893 C892 1.372 . S
C893 C894 1.389 . S
C894 H873 0.949 . S
C894 C893 1.389 . S
C894 C895 1.387 . S
C895 C894 1.387 . S
C895 C896 1.372 . S
C896 H874 0.950 . S
C896 C895 1.372 . S
C896 C897 1.379 . S
C897 H875 0.948 . S
C897 C892 1.364 . S
C897 C896 1.379 . S
C898 C867 1.383 . S
C898 C885 1.479 . S
C898 C899 1.398 . S
C899 C864 1.382 . S
C899 H876 0.951 . S
C899 C898 1.398 . S
C900 C901 1.384 . S
C900 H913 0.947 . S
C900 C935 1.382 . S
C901 C900 1.384 . S
C901 C902 1.378 . S
C902 C901 1.378 . S
C902 C903 1.378 . S
C902 H914 0.952 . S
C903 C902 1.378 . S
C903 H915 0.950 . S
C903 C934 1.383 . S
H904 C923 0.947 . S
H905 C924 0.946 . S
H906 C926 0.953 . S
H907 C927 0.945 . S
H908 C929 0.952 . S
H909 C930 0.949 . S
H910 C932 0.950 . S
H911 C933 0.948 . S
H912 C935 0.951 . S
H913 C900 0.947 . S
H914 C902 0.952 . S
H915 C903 0.950 . S
N916 C919 1.382 . S
N916 C921 1.363 . S
N917 C919 1.371 . S
N917 C920 1.372 . S
N918 C920 1.361 . S
N918 C921 1.377 . S
C919 N916 1.382 . S
C919 N917 1.371 . S
C919 C922 1.480 . S
C920 N917 1.372 . S
C920 N918 1.361 . S
C920 C928 1.457 . S
C921 N916 1.363 . S
C921 N918 1.377 . S
C921 C934 1.479 . S
C922 C919 1.480 . S
C922 C923 1.383 . S
C922 C927 1.385 . S
C923 H904 0.947 . S
C923 C922 1.383 . S
C923 C924 1.388 . S
C924 H905 0.946 . S
C924 C923 1.388 . S
C924 C925 1.384 . S
C925 C924 1.384 . S
C925 C926 1.377 . S
C926 H906 0.953 . S
C926 C925 1.377 . S
C926 C927 1.369 . S
C927 H907 0.945 . S
C927 C922 1.385 . S
C927 C926 1.369 . S
C928 C920 1.457 . S
C928 C929 1.372 . S
C928 C933 1.364 . S
C929 H908 0.952 . S
C929 C928 1.372 . S
C929 C930 1.389 . S
C930 H909 0.949 . S
C930 C929 1.389 . S
C930 C931 1.387 . S
C931 C930 1.387 . S
C931 C932 1.372 . S
C932 H910 0.950 . S
C932 C931 1.372 . S
C932 C933 1.379 . S
C933 H911 0.948 . S
C933 C928 1.364 . S
C933 C932 1.379 . S
C934 C903 1.383 . S
C934 C921 1.479 . S
C934 C935 1.398 . S
C935 C900 1.382 . S
C935 H912 0.951 . S
C935 C934 1.398 . S
C936 C937 1.384 . S
C936 H949 0.947 . S
C936 C971 1.382 . S
C937 C936 1.384 . S
C937 C938 1.378 . S
C938 C937 1.378 . S
C938 C939 1.378 . S
C938 H950 0.952 . S
C939 C938 1.378 . S
C939 H951 0.950 . S
C939 C970 1.383 . S
H940 C959 0.947 . S
H941 C960 0.946 . S
H942 C962 0.953 . S
H943 C963 0.945 . S
H944 C965 0.952 . S
H945 C966 0.949 . S
H946 C968 0.950 . S
H947 C969 0.948 . S
H948 C971 0.951 . S
H949 C936 0.947 . S
H950 C938 0.952 . S
H951 C939 0.950 . S
N952 C955 1.382 . S
N952 C957 1.363 . S
N953 C955 1.371 . S
N953 C956 1.372 . S
N954 C956 1.361 . S
N954 C957 1.377 . S
C955 N952 1.382 . S
C955 N953 1.371 . S
C955 C958 1.480 . S
C956 N953 1.372 . S
C956 N954 1.361 . S
C956 C964 1.457 . S
C957 N952 1.363 . S
C957 N954 1.377 . S
C957 C970 1.479 . S
C958 C955 1.480 . S
C958 C959 1.383 . S
C958 C963 1.385 . S
C959 H940 0.947 . S
C959 C958 1.383 . S
C959 C960 1.388 . S
C960 H941 0.946 . S
C960 C959 1.388 . S
C960 C961 1.384 . S
C961 C960 1.384 . S
C961 C962 1.377 . S
C962 H942 0.953 . S
C962 C961 1.377 . S
C962 C963 1.369 . S
C963 H943 0.945 . S
C963 C958 1.385 . S
C963 C962 1.369 . S
C964 C956 1.457 . S
C964 C965 1.372 . S
C964 C969 1.364 . S
C965 H944 0.952 . S
C965 C964 1.372 . S
C965 C966 1.389 . S
C966 H945 0.949 . S
C966 C965 1.389 . S
C966 C967 1.387 . S
C967 C966 1.387 . S
C967 C968 1.372 . S
C968 H946 0.950 . S
C968 C967 1.372 . S
C968 C969 1.379 . S
C969 H947 0.948 . S
C969 C964 1.364 . S
C969 C968 1.379 . S
C970 C939 1.383 . S
C970 C957 1.479 . S
C970 C971 1.398 . S
C971 C936 1.382 . S
C971 H948 0.951 . S
C971 C970 1.398 . S
C972 C973 1.384 . S
C972 H985 0.947 . S
C972 C1007 1.382 . S
C973 C972 1.384 . S
C973 C974 1.378 . S
C974 C973 1.378 . S
C974 C975 1.378 . S
C974 H986 0.952 . S
C975 C974 1.378 . S
C975 H987 0.950 . S
C975 C1006 1.383 . S
H976 C995 0.947 . S
H977 C996 0.946 . S
H978 C998 0.953 . S
H979 C999 0.945 . S
H980 C1001 0.952 . S
H981 C1002 0.949 . S
H982 C1004 0.950 . S
H983 C1005 0.948 . S
H984 C1007 0.951 . S
H985 C972 0.947 . S
H986 C974 0.952 . S
H987 C975 0.950 . S
N988 C991 1.382 . S
N988 C993 1.363 . S
N989 C991 1.371 . S
N989 C992 1.372 . S
N990 C992 1.361 . S
N990 C993 1.377 . S
C991 N988 1.382 . S
C991 N989 1.371 . S
C991 C994 1.480 . S
C992 N989 1.372 . S
C992 N990 1.361 . S
C992 C1000 1.457 . S
C993 N988 1.363 . S
C993 N990 1.377 . S
C993 C1006 1.479 . S
C994 C991 1.480 . S
C994 C995 1.383 . S
C994 C999 1.385 . S
C995 H976 0.947 . S
C995 C994 1.383 . S
C995 C996 1.388 . S
C996 H977 0.946 . S
C996 C995 1.388 . S
C996 C997 1.384 . S
C997 C996 1.384 . S
C997 C998 1.377 . S
C998 H978 0.953 . S
C998 C997 1.377 . S
C998 C999 1.369 . S
C999 H979 0.945 . S
C999 C994 1.385 . S
C999 C998 1.369 . S
C1000 C992 1.457 . S
C1000 C1001 1.372 . S
C1000 C1005 1.364 . S
C1001 H980 0.952 . S
C1001 C1000 1.372 . S
C1001 C1002 1.389 . S
C1002 H981 0.949 . S
C1002 C1001 1.389 . S
C1002 C1003 1.387 . S
C1003 C1002 1.387 . S
C1003 C1004 1.372 . S
C1004 H982 0.950 . S
C1004 C1003 1.372 . S
C1004 C1005 1.379 . S
C1005 H983 0.948 . S
C1005 C1000 1.364 . S
C1005 C1004 1.379 . S
C1006 C975 1.383 . S
C1006 C993 1.479 . S
C1006 C1007 1.398 . S
C1007 C972 1.382 . S
C1007 H984 0.951 . S
C1007 C1006 1.398 . S
C1008 C1009 1.384 . S
C1008 H1021 0.947 . S
C1008 C1043 1.382 . S
C1009 C1008 1.384 . S
C1009 C1010 1.378 . S
C1010 C1009 1.378 . S
C1010 C1011 1.378 . S
C1010 H1022 0.952 . S
C1011 C1010 1.378 . S
C1011 H1023 0.950 . S
C1011 C1042 1.383 . S
H1012 C1031 0.947 . S
H1013 C1032 0.946 . S
H1014 C1034 0.953 . S
H1015 C1035 0.945 . S
H1016 C1037 0.952 . S
H1017 C1038 0.949 . S
H1018 C1040 0.950 . S
H1019 C1041 0.948 . S
H1020 C1043 0.951 . S
H1021 C1008 0.947 . S
H1022 C1010 0.952 . S
H1023 C1011 0.950 . S
N1024 C1027 1.382 . S
N1024 C1029 1.363 . S
N1025 C1027 1.371 . S
N1025 C1028 1.372 . S
N1026 C1028 1.361 . S
N1026 C1029 1.377 . S
C1027 N1024 1.382 . S
C1027 N1025 1.371 . S
C1027 C1030 1.480 . S
C1028 N1025 1.372 . S
C1028 N1026 1.361 . S
C1028 C1036 1.457 . S
C1029 N1024 1.363 . S
C1029 N1026 1.377 . S
C1029 C1042 1.479 . S
C1030 C1027 1.480 . S
C1030 C1031 1.383 . S
C1030 C1035 1.385 . S
C1031 H1012 0.947 . S
C1031 C1030 1.383 . S
C1031 C1032 1.388 . S
C1032 H1013 0.946 . S
C1032 C1031 1.388 . S
C1032 C1033 1.384 . S
C1033 C1032 1.384 . S
C1033 C1034 1.377 . S
C1034 H1014 0.953 . S
C1034 C1033 1.377 . S
C1034 C1035 1.369 . S
C1035 H1015 0.945 . S
C1035 C1030 1.385 . S
C1035 C1034 1.369 . S
C1036 C1028 1.457 . S
C1036 C1037 1.372 . S
C1036 C1041 1.364 . S
C1037 H1016 0.952 . S
C1037 C1036 1.372 . S
C1037 C1038 1.389 . S
C1038 H1017 0.949 . S
C1038 C1037 1.389 . S
C1038 C1039 1.387 . S
C1039 C1038 1.387 . S
C1039 C1040 1.372 . S
C1040 H1018 0.950 . S
C1040 C1039 1.372 . S
C1040 C1041 1.379 . S
C1041 H1019 0.948 . S
C1041 C1036 1.364 . S
C1041 C1040 1.379 . S
C1042 C1011 1.383 . S
C1042 C1029 1.479 . S
C1042 C1043 1.398 . S
C1043 C1008 1.382 . S
C1043 H1020 0.951 . S
C1043 C1042 1.398 . S
C1044 C1045 1.384 . S
C1044 H1057 0.947 . S
C1044 C1079 1.382 . S
C1045 C1044 1.384 . S
C1045 C1046 1.378 . S
C1046 C1045 1.378 . S
C1046 C1047 1.378 . S
C1046 H1058 0.952 . S
C1047 C1046 1.378 . S
C1047 H1059 0.950 . S
C1047 C1078 1.383 . S
H1048 C1067 0.947 . S
H1049 C1068 0.946 . S
H1050 C1070 0.953 . S
H1051 C1071 0.945 . S
H1052 C1073 0.952 . S
H1053 C1074 0.949 . S
H1054 C1076 0.950 . S
H1055 C1077 0.948 . S
H1056 C1079 0.951 . S
H1057 C1044 0.947 . S
H1058 C1046 0.952 . S
H1059 C1047 0.950 . S
N1060 C1063 1.382 . S
N1060 C1065 1.363 . S
N1061 C1063 1.371 . S
N1061 C1064 1.372 . S
N1062 C1064 1.361 . S
N1062 C1065 1.377 . S
C1063 N1060 1.382 . S
C1063 N1061 1.371 . S
C1063 C1066 1.480 . S
C1064 N1061 1.372 . S
C1064 N1062 1.361 . S
C1064 C1072 1.457 . S
C1065 N1060 1.363 . S
C1065 N1062 1.377 . S
C1065 C1078 1.479 . S
C1066 C1063 1.480 . S
C1066 C1067 1.383 . S
C1066 C1071 1.385 . S
C1067 H1048 0.947 . S
C1067 C1066 1.383 . S
C1067 C1068 1.388 . S
C1068 H1049 0.946 . S
C1068 C1067 1.388 . S
C1068 C1069 1.384 . S
C1069 C1068 1.384 . S
C1069 C1070 1.377 . S
C1070 H1050 0.953 . S
C1070 C1069 1.377 . S
C1070 C1071 1.369 . S
C1071 H1051 0.945 . S
C1071 C1066 1.385 . S
C1071 C1070 1.369 . S
C1072 C1064 1.457 . S
C1072 C1073 1.372 . S
C1072 C1077 1.364 . S
C1073 H1052 0.952 . S
C1073 C1072 1.372 . S
C1073 C1074 1.389 . S
C1074 H1053 0.949 . S
C1074 C1073 1.389 . S
C1074 C1075 1.387 . S
C1075 C1074 1.387 . S
C1075 C1076 1.372 . S
C1076 H1054 0.950 . S
C1076 C1075 1.372 . S
C1076 C1077 1.379 . S
C1077 H1055 0.948 . S
C1077 C1072 1.364 . S
C1077 C1076 1.379 . S
C1078 C1047 1.383 . S
C1078 C1065 1.479 . S
C1078 C1079 1.398 . S
C1079 C1044 1.382 . S
C1079 H1056 0.951 . S
C1079 C1078 1.398 . S
C1080 C1081 1.384 . S
C1080 H1093 0.947 . S
C1080 C1115 1.382 . S
C1081 C1080 1.384 . S
C1081 C1082 1.378 . S
C1082 C1081 1.378 . S
C1082 C1083 1.378 . S
C1082 H1094 0.952 . S
C1083 C1082 1.378 . S
C1083 H1095 0.950 . S
C1083 C1114 1.383 . S
H1084 C1103 0.947 . S
H1085 C1104 0.946 . S
H1086 C1106 0.953 . S
H1087 C1107 0.945 . S
H1088 C1109 0.952 . S
H1089 C1110 0.949 . S
H1090 C1112 0.950 . S
H1091 C1113 0.948 . S
H1092 C1115 0.951 . S
H1093 C1080 0.947 . S
H1094 C1082 0.952 . S
H1095 C1083 0.950 . S
N1096 C1099 1.382 . S
N1096 C1101 1.363 . S
N1097 C1099 1.371 . S
N1097 C1100 1.372 . S
N1098 C1100 1.361 . S
N1098 C1101 1.377 . S
C1099 N1096 1.382 . S
C1099 N1097 1.371 . S
C1099 C1102 1.480 . S
C1100 N1097 1.372 . S
C1100 N1098 1.361 . S
C1100 C1108 1.457 . S
C1101 N1096 1.363 . S
C1101 N1098 1.377 . S
C1101 C1114 1.479 . S
C1102 C1099 1.480 . S
C1102 C1103 1.383 . S
C1102 C1107 1.385 . S
C1103 H1084 0.947 . S
C1103 C1102 1.383 . S
C1103 C1104 1.388 . S
C1104 H1085 0.946 . S
C1104 C1103 1.388 . S
C1104 C1105 1.384 . S
C1105 C1104 1.384 . S
C1105 C1106 1.377 . S
C1106 H1086 0.953 . S
C1106 C1105 1.377 . S
C1106 C1107 1.369 . S
C1107 H1087 0.945 . S
C1107 C1102 1.385 . S
C1107 C1106 1.369 . S
C1108 C1100 1.457 . S
C1108 C1109 1.372 . S
C1108 C1113 1.364 . S
C1109 H1088 0.952 . S
C1109 C1108 1.372 . S
C1109 C1110 1.389 . S
C1110 H1089 0.949 . S
C1110 C1109 1.389 . S
C1110 C1111 1.387 . S
C1111 C1110 1.387 . S
C1111 C1112 1.372 . S
C1112 H1090 0.950 . S
C1112 C1111 1.372 . S
C1112 C1113 1.379 . S
C1113 H1091 0.948 . S
C1113 C1108 1.364 . S
C1113 C1112 1.379 . S
C1114 C1083 1.383 . S
C1114 C1101 1.479 . S
C1114 C1115 1.398 . S
C1115 C1080 1.382 . S
C1115 H1092 0.951 . S
C1115 C1114 1.398 . S
C1116 C1117 1.384 . S
C1116 H1129 0.947 . S
C1116 C1151 1.382 . S
C1117 C1116 1.384 . S
C1117 C1118 1.378 . S
C1118 C1117 1.378 . S
C1118 C1119 1.378 . S
C1118 H1130 0.952 . S
C1119 C1118 1.378 . S
C1119 H1131 0.950 . S
C1119 C1150 1.383 . S
H1120 C1139 0.947 . S
H1121 C1140 0.946 . S
H1122 C1142 0.953 . S
H1123 C1143 0.945 . S
H1124 C1145 0.952 . S
H1125 C1146 0.949 . S
H1126 C1148 0.950 . S
H1127 C1149 0.948 . S
H1128 C1151 0.951 . S
H1129 C1116 0.947 . S
H1130 C1118 0.952 . S
H1131 C1119 0.950 . S
N1132 C1135 1.382 . S
N1132 C1137 1.363 . S
N1133 C1135 1.371 . S
N1133 C1136 1.372 . S
N1134 C1136 1.361 . S
N1134 C1137 1.377 . S
C1135 N1132 1.382 . S
C1135 N1133 1.371 . S
C1135 C1138 1.480 . S
C1136 N1133 1.372 . S
C1136 N1134 1.361 . S
C1136 C1144 1.457 . S
C1137 N1132 1.363 . S
C1137 N1134 1.377 . S
C1137 C1150 1.479 . S
C1138 C1135 1.480 . S
C1138 C1139 1.383 . S
C1138 C1143 1.385 . S
C1139 H1120 0.947 . S
C1139 C1138 1.383 . S
C1139 C1140 1.388 . S
C1140 H1121 0.946 . S
C1140 C1139 1.388 . S
C1140 C1141 1.384 . S
C1141 C1140 1.384 . S
C1141 C1142 1.377 . S
C1142 H1122 0.953 . S
C1142 C1141 1.377 . S
C1142 C1143 1.369 . S
C1143 H1123 0.945 . S
C1143 C1138 1.385 . S
C1143 C1142 1.369 . S
C1144 C1136 1.457 . S
C1144 C1145 1.372 . S
C1144 C1149 1.364 . S
C1145 H1124 0.952 . S
C1145 C1144 1.372 . S
C1145 C1146 1.389 . S
C1146 H1125 0.949 . S
C1146 C1145 1.389 . S
C1146 C1147 1.387 . S
C1147 C1146 1.387 . S
C1147 C1148 1.372 . S
C1148 H1126 0.950 . S
C1148 C1147 1.372 . S
C1148 C1149 1.379 . S
C1149 H1127 0.948 . S
C1149 C1144 1.364 . S
C1149 C1148 1.379 . S
C1150 C1119 1.383 . S
C1150 C1137 1.479 . S
C1150 C1151 1.398 . S
C1151 C1116 1.382 . S
C1151 H1128 0.951 . S
C1151 C1150 1.398 . S
Cu1152 N1153 1.999 . S
Cu1152 O1158 1.974 1_554 S
Cu1152 N1163 1.985 . S
Cu1152 O1172 1.959 . S
N1153 Cu1152 1.999 . S
N1153 C1155 1.263 1_554 S
N1153 C1157 1.389 . S
N1154 C1155 1.358 . S
N1154 C1156 1.400 . S
C1155 N1153 1.263 1_556 S
C1155 N1154 1.358 . S
C1155 H1161 0.930 . S
C1156 N1154 1.400 . S
C1156 C1157 1.351 1_556 S
C1156 H1173 0.930 . S
C1157 N1153 1.389 . S
C1157 C1156 1.351 1_554 S
C1157 H1162 0.930 . S
O1158 Cu1152 1.974 1_556 S
O1158 C1168 1.282 . S
C1159 O1160 1.261 . S
C1159 O1172 1.251 . S
O1160 C1159 1.261 . S
H1161 C1155 0.930 . S
H1162 C1157 0.930 . S
N1163 Cu1152 1.985 . S
N1163 C1165 1.335 . S
N1163 C1166 1.390 . S
N1164 C1165 1.345 . S
N1164 C1167 1.336 . S
C1165 N1163 1.335 . S
C1165 N1164 1.345 . S
C1165 H1170 0.930 . S
C1166 N1163 1.390 . S
C1166 C1167 1.346 . S
C1166 H1171 0.930 . S
C1167 N1164 1.336 . S
C1167 C1166 1.346 . S
C1167 H1174 0.929 . S
C1168 O1158 1.282 . S
C1168 O1169 1.216 . S
O1169 C1168 1.216 . S
H1170 C1165 0.930 . S
H1171 C1166 0.930 . S
O1172 Cu1152 1.959 . S
O1172 C1159 1.251 . S
H1173 C1156 0.930 . S
H1174 C1167 0.929 . S
Cu1175 N1176 1.999 . S
Cu1175 O1181 1.974 . S
Cu1175 N1186 1.985 1_554 S
Cu1175 O1195 1.959 1_554 S
N1176 Cu1175 1.999 . S
N1176 C1178 1.263 . S
N1176 C1180 1.389 . S
N1177 C1178 1.358 . S
N1177 C1179 1.400 . S
C1178 N1176 1.263 . S
C1178 N1177 1.358 . S
C1178 H1184 0.930 . S
C1179 N1177 1.400 . S
C1179 C1180 1.351 . S
C1179 H1196 0.930 . S
C1180 N1176 1.389 . S
C1180 C1179 1.351 . S
C1180 H1185 0.930 . S
O1181 Cu1175 1.974 . S
O1181 C1191 1.282 . S
C1182 O1183 1.261 . S
C1182 O1195 1.251 . S
O1183 C1182 1.261 . S
H1184 C1178 0.930 . S
H1185 C1180 0.930 . S
N1186 Cu1175 1.985 1_556 S
N1186 C1188 1.335 . S
N1186 C1189 1.390 . S
N1187 C1188 1.345 . S
N1187 C1190 1.336 . S
C1188 N1186 1.335 . S
C1188 N1187 1.345 . S
C1188 H1193 0.930 . S
C1189 N1186 1.390 . S
C1189 C1190 1.346 . S
C1189 H1194 0.930 1_556 S
C1190 N1187 1.336 . S
C1190 C1189 1.346 . S
C1190 H1197 0.929 . S
C1191 O1181 1.282 . S
C1191 O1192 1.216 . S
O1192 C1191 1.216 . S
H1193 C1188 0.930 . S
H1194 C1189 0.930 1_554 S
O1195 Cu1175 1.959 1_556 S
O1195 C1182 1.251 . S
H1196 C1179 0.930 . S
H1197 C1190 0.929 . S
Cu1198 N1199 1.999 1_554 S
Cu1198 O1204 1.974 1_554 S
Cu1198 N1209 1.985 . S
Cu1198 O1218 1.959 . S
N1199 Cu1198 1.999 1_556 S
N1199 C1201 1.263 . S
N1199 C1203 1.389 . S
N1200 C1201 1.358 . S
N1200 C1202 1.400 . S
C1201 N1199 1.263 . S
C1201 N1200 1.358 . S
C1201 H1207 0.930 . S
C1202 N1200 1.400 . S
C1202 C1203 1.351 . S
C1202 H1219 0.930 . S
C1203 N1199 1.389 . S
C1203 C1202 1.351 . S
C1203 H1208 0.930 1_556 S
O1204 Cu1198 1.974 1_556 S
O1204 C1214 1.282 . S
C1205 O1206 1.261 . S
C1205 O1218 1.251 . S
O1206 C1205 1.261 . S
H1207 C1201 0.930 . S
H1208 C1203 0.930 1_554 S
N1209 Cu1198 1.985 . S
N1209 C1211 1.335 . S
N1209 C1212 1.390 . S
N1210 C1211 1.345 . S
N1210 C1213 1.336 . S
C1211 N1209 1.335 . S
C1211 N1210 1.345 . S
C1211 H1216 0.930 . S
C1212 N1209 1.390 . S
C1212 C1213 1.346 . S
C1212 H1217 0.911 1_554 S
C1213 N1210 1.336 . S
C1213 C1212 1.346 . S
C1213 H1220 0.929 . S
C1214 O1204 1.282 . S
C1214 O1215 1.216 . S
O1215 C1214 1.216 . S
H1216 C1211 0.930 . S
H1217 C1212 0.911 1_556 S
O1218 Cu1198 1.959 . S
O1218 C1205 1.251 . S
H1219 C1202 0.930 . S
H1220 C1213 0.929 . S
Cu1221 N1222 2.009 . S
Cu1221 O1227 1.985 . S
Cu1221 N1232 1.976 1_554 S
Cu1221 O1241 1.948 1_554 S
N1222 Cu1221 2.009 . S
N1222 C1224 1.263 . S
N1222 C1226 1.389 . S
N1223 C1224 1.358 . S
N1223 C1225 1.400 . S
C1224 N1222 1.263 . S
C1224 N1223 1.358 . S
C1224 H1230 0.930 . S
C1225 N1223 1.400 . S
C1225 C1226 1.351 . S
C1225 H1242 0.930 . S
C1226 N1222 1.389 . S
C1226 C1225 1.351 . S
C1226 H1231 0.930 . S
O1227 Cu1221 1.985 . S
O1227 C1237 1.282 . S
C1228 O1229 1.261 . S
C1228 O1241 1.251 . S
O1229 C1228 1.261 . S
H1230 C1224 0.930 . S
H1231 C1226 0.930 . S
N1232 Cu1221 1.976 1_556 S
N1232 C1234 1.335 . S
N1232 C1235 1.390 . S
N1233 C1234 1.345 . S
N1233 C1236 1.336 . S
C1234 N1232 1.335 . S
C1234 N1233 1.345 . S
C1234 H1239 0.930 . S
C1235 N1232 1.390 . S
C1235 C1236 1.346 . S
C1235 H1240 0.930 1_556 S
C1236 N1233 1.336 . S
C1236 C1235 1.346 . S
C1236 H1243 0.929 . S
C1237 O1227 1.282 . S
C1237 O1238 1.216 . S
O1238 C1237 1.216 . S
H1239 C1234 0.930 . S
H1240 C1235 0.930 1_554 S
O1241 Cu1221 1.948 1_556 S
O1241 C1228 1.251 . S
H1242 C1225 0.930 . S
H1243 C1236 0.929 . S
Cu1244 N1245 1.999 . S
Cu1244 O1250 1.974 . S
Cu1244 N1255 1.985 1_455 S
Cu1244 O1264 1.959 1_455 S
N1245 Cu1244 1.999 . S
N1245 C1247 1.263 . S
N1245 C1249 1.389 . S
N1246 C1247 1.358 . S
N1246 C1248 1.400 . S
C1247 N1245 1.263 . S
C1247 N1246 1.358 . S
C1247 H1253 0.930 . S
C1248 N1246 1.400 . S
C1248 C1249 1.351 . S
C1248 H1265 0.930 . S
C1249 N1245 1.389 . S
C1249 C1248 1.351 . S
C1249 H1254 0.930 . S
O1250 Cu1244 1.974 . S
O1250 C1260 1.282 . S
C1251 O1252 1.261 . S
C1251 O1264 1.251 . S
O1252 C1251 1.261 . S
H1253 C1247 0.930 . S
H1254 C1249 0.930 . S
N1255 Cu1244 1.985 1_655 S
N1255 C1257 1.335 . S
N1255 C1258 1.390 1_655 S
N1256 C1257 1.345 . S
N1256 C1259 1.336 . S
C1257 N1255 1.335 . S
C1257 N1256 1.345 . S
C1257 H1262 0.930 . S
C1258 N1255 1.390 1_455 S
C1258 C1259 1.346 1_455 S
C1258 H1263 0.930 . S
C1259 N1256 1.336 . S
C1259 C1258 1.346 1_655 S
C1259 H1266 0.929 . S
C1260 O1250 1.282 . S
C1260 O1261 1.216 . S
O1261 C1260 1.216 . S
H1262 C1257 0.930 . S
H1263 C1258 0.930 . S
O1264 Cu1244 1.959 1_655 S
O1264 C1251 1.251 . S
H1265 C1248 0.930 . S
H1266 C1259 0.929 . S
Cu1267 N1268 1.999 . S
Cu1267 O1273 1.974 . S
Cu1267 N1278 1.985 1_545 S
Cu1267 O1287 1.959 1_545 S
N1268 Cu1267 1.999 . S
N1268 C1270 1.263 . S
N1268 C1272 1.389 . S
N1269 C1270 1.358 . S
N1269 C1271 1.400 . S
C1270 N1268 1.263 . S
C1270 N1269 1.358 . S
C1270 H1276 0.930 . S
C1271 N1269 1.400 . S
C1271 C1272 1.351 . S
C1271 H1288 0.930 . S
C1272 N1268 1.389 . S
C1272 C1271 1.351 . S
C1272 H1277 0.930 . S
O1273 Cu1267 1.974 . S
O1273 C1283 1.282 . S
C1274 O1275 1.261 . S
C1274 O1287 1.251 . S
O1275 C1274 1.261 . S
H1276 C1270 0.930 . S
H1277 C1272 0.930 . S
N1278 Cu1267 1.985 1_565 S
N1278 C1280 1.335 . S
N1278 C1281 1.390 . S
N1279 C1280 1.345 . S
N1279 C1282 1.336 . S
C1280 N1278 1.335 . S
C1280 N1279 1.345 . S
C1280 H1285 0.930 . S
C1281 N1278 1.390 . S
C1281 C1282 1.346 . S
C1281 H1286 0.930 1_565 S
C1282 N1279 1.336 . S
C1282 C1281 1.346 . S
C1282 H1289 0.929 . S
C1283 O1273 1.282 . S
C1283 O1284 1.216 . S
O1284 C1283 1.216 . S
H1285 C1280 0.930 . S
H1286 C1281 0.930 1_545 S
O1287 Cu1267 1.959 1_565 S
O1287 C1274 1.251 . S
H1288 C1271 0.930 . S
H1289 C1282 0.929 . S
Cu1290 N1291 2.015 . S
Cu1290 O1296 1.993 . S
Cu1290 N1301 1.970 1_655 S
Cu1290 O1310 1.940 1_655 S
N1291 Cu1290 2.015 . S
N1291 C1293 1.263 . S
N1291 C1295 1.389 . S
N1292 C1293 1.358 . S
N1292 C1294 1.400 . S
C1293 N1291 1.263 . S
C1293 N1292 1.358 . S
C1293 H1299 0.930 . S
C1294 N1292 1.400 . S
C1294 C1295 1.351 . S
C1294 H1311 0.930 . S
C1295 N1291 1.389 . S
C1295 C1294 1.351 . S
C1295 H1300 0.930 . S
O1296 Cu1290 1.993 . S
O1296 C1306 1.282 . S
C1297 O1298 1.261 . S
C1297 O1310 1.251 . S
O1298 C1297 1.261 . S
H1299 C1293 0.930 . S
H1300 C1295 0.930 . S
N1301 Cu1290 1.970 1_455 S
N1301 C1303 1.335 . S
N1301 C1304 1.390 . S
N1302 C1303 1.345 . S
N1302 C1305 1.336 . S
C1303 N1301 1.335 . S
C1303 N1302 1.345 . S
C1303 H1308 0.930 . S
C1304 N1301 1.390 . S
C1304 C1305 1.346 . S
C1304 H1309 0.930 . S
C1305 N1302 1.336 . S
C1305 C1304 1.346 . S
C1305 H1312 0.929 . S
C1306 O1296 1.282 . S
C1306 O1307 1.216 . S
O1307 C1306 1.216 . S
H1308 C1303 0.930 . S
H1309 C1304 0.930 . S
O1310 Cu1290 1.940 1_455 S
O1310 C1297 1.251 . S
H1311 C1294 0.930 . S
H1312 C1305 0.929 . S
Cu1313 N1314 1.980 1_565 S
Cu1313 O1319 1.948 1_565 S
Cu1313 N1324 2.004 . S
Cu1313 O1333 1.984 . S
N1314 Cu1313 1.980 1_545 S
N1314 C1316 1.263 . S
N1314 C1318 1.389 . S
N1315 C1316 1.358 . S
N1315 C1317 1.400 . S
C1316 N1314 1.263 . S
C1316 N1315 1.358 . S
C1316 H1322 0.930 . S
C1317 N1315 1.400 . S
C1317 C1318 1.351 . S
C1317 H1334 0.930 . S
C1318 N1314 1.389 . S
C1318 C1317 1.351 . S
C1318 H1323 0.930 . S
O1319 Cu1313 1.948 1_545 S
O1319 C1329 1.282 . S
C1320 O1321 1.261 . S
C1320 O1333 1.251 . S
O1321 C1320 1.261 . S
H1322 C1316 0.930 . S
H1323 C1318 0.930 . S
N1324 Cu1313 2.004 . S
N1324 C1326 1.335 . S
N1324 C1327 1.390 . S
N1325 C1326 1.345 . S
N1325 C1328 1.336 . S
C1326 N1324 1.335 . S
C1326 N1325 1.345 . S
C1326 H1331 0.930 . S
C1327 N1324 1.390 . S
C1327 C1328 1.346 . S
C1327 H1332 0.930 . S
C1328 N1325 1.336 . S
C1328 C1327 1.346 . S
C1328 H1335 0.929 . S
C1329 O1319 1.282 . S
C1329 O1330 1.216 . S
O1330 C1329 1.216 . S
H1331 C1326 0.930 . S
H1332 C1327 0.930 . S
O1333 Cu1313 1.984 . S
O1333 C1320 1.251 . S
H1334 C1317 0.930 . S
H1335 C1328 0.929 . S
Cu1336 N1337 1.999 . S
Cu1336 O1342 1.974 . S
Cu1336 N1347 1.985 1_455 S
Cu1336 O1356 1.959 1_455 S
N1337 Cu1336 1.999 . S
N1337 C1339 1.263 . S
N1337 C1341 1.389 . S
N1338 C1339 1.358 . S
N1338 C1340 1.400 . S
C1339 N1337 1.263 . S
C1339 N1338 1.358 . S
C1339 H1345 0.930 . S
C1340 N1338 1.400 . S
C1340 C1341 1.351 . S
C1340 H1357 0.930 . S
C1341 N1337 1.389 . S
C1341 C1340 1.351 . S
C1341 H1346 0.930 . S
O1342 Cu1336 1.974 . S
O1342 C1352 1.282 . S
C1343 O1344 1.261 . S
C1343 O1356 1.251 . S
O1344 C1343 1.261 . S
H1345 C1339 0.930 . S
H1346 C1341 0.930 . S
N1347 Cu1336 1.985 1_655 S
N1347 C1349 1.335 . S
N1347 C1350 1.390 1_655 S
N1348 C1349 1.345 . S
N1348 C1351 1.336 . S
C1349 N1347 1.335 . S
C1349 N1348 1.345 . S
C1349 H1354 0.930 . S
C1350 N1347 1.390 1_455 S
C1350 C1351 1.346 1_455 S
C1350 H1355 0.930 . S
C1351 N1348 1.336 . S
C1351 C1350 1.346 1_655 S
C1351 H1358 0.929 . S
C1352 O1342 1.282 . S
C1352 O1353 1.216 . S
O1353 C1352 1.216 . S
H1354 C1349 0.930 . S
H1355 C1350 0.930 . S
O1356 Cu1336 1.959 1_655 S
O1356 C1343 1.251 . S
H1357 C1340 0.930 . S
H1358 C1351 0.929 . S
Cu1359 N1360 1.999 . S
Cu1359 O1365 1.974 . S
Cu1359 N1370 1.985 1_545 S
Cu1359 O1379 1.959 1_545 S
N1360 Cu1359 1.999 . S
N1360 C1362 1.263 . S
N1360 C1364 1.389 . S
N1361 C1362 1.358 . S
N1361 C1363 1.400 . S
C1362 N1360 1.263 . S
C1362 N1361 1.358 . S
C1362 H1368 0.930 . S
C1363 N1361 1.400 . S
C1363 C1364 1.351 . S
C1363 H1380 0.930 . S
C1364 N1360 1.389 . S
C1364 C1363 1.351 . S
C1364 H1369 0.930 . S
O1365 Cu1359 1.974 . S
O1365 C1375 1.282 . S
C1366 O1367 1.261 . S
C1366 O1379 1.251 . S
O1367 C1366 1.261 . S
H1368 C1362 0.930 . S
H1369 C1364 0.930 . S
N1370 Cu1359 1.985 1_565 S
N1370 C1372 1.335 . S
N1370 C1373 1.390 1_565 S
N1371 C1372 1.345 . S
N1371 C1374 1.336 . S
C1372 N1370 1.335 . S
C1372 N1371 1.345 . S
C1372 H1377 0.930 . S
C1373 N1370 1.390 1_545 S
C1373 C1374 1.346 1_545 S
C1373 H1378 0.930 . S
C1374 N1371 1.336 . S
C1374 C1373 1.346 1_565 S
C1374 H1381 0.929 . S
C1375 O1365 1.282 . S
C1375 O1376 1.216 . S
O1376 C1375 1.216 . S
H1377 C1372 0.930 . S
H1378 C1373 0.930 . S
O1379 Cu1359 1.959 1_565 S
O1379 C1366 1.251 . S
H1380 C1363 0.930 . S
H1381 C1374 0.929 . S
Cu1382 N1383 1.999 . S
Cu1382 O1388 1.974 . S
Cu1382 N1393 1.985 . S
Cu1382 O1402 1.959 . S
N1383 Cu1382 1.999 . S
N1383 C1385 1.263 1_455 S
N1383 C1387 1.389 . S
N1384 C1385 1.358 . S
N1384 C1386 1.400 . S
C1385 N1383 1.263 1_655 S
C1385 N1384 1.358 . S
C1385 H1391 0.930 . S
C1386 N1384 1.400 . S
C1386 C1387 1.351 1_655 S
C1386 H1403 0.930 . S
C1387 N1383 1.389 . S
C1387 C1386 1.351 1_455 S
C1387 H1392 0.930 . S
O1388 Cu1382 1.974 . S
O1388 C1398 1.282 1_455 S
C1389 O1390 1.261 . S
C1389 O1402 1.251 . S
O1390 C1389 1.261 . S
H1391 C1385 0.930 . S
H1392 C1387 0.930 . S
N1393 Cu1382 1.985 . S
N1393 C1395 1.335 . S
N1393 C1396 1.390 . S
N1394 C1395 1.345 . S
N1394 C1397 1.336 . S
C1395 N1393 1.335 . S
C1395 N1394 1.345 . S
C1395 H1400 0.930 . S
C1396 N1393 1.390 . S
C1396 C1397 1.346 . S
C1396 H1401 0.930 . S
C1397 N1394 1.336 . S
C1397 C1396 1.346 . S
C1397 H1404 0.929 . S
C1398 O1388 1.282 1_655 S
C1398 O1399 1.216 1_655 S
O1399 C1398 1.216 1_455 S
H1400 C1395 0.930 . S
H1401 C1396 0.930 . S
O1402 Cu1382 1.959 . S
O1402 C1389 1.251 . S
H1403 C1386 0.930 . S
H1404 C1397 0.929 . S
Cu1405 N1406 1.999 . S
Cu1405 O1411 1.974 . S
Cu1405 N1416 1.985 . S
Cu1405 O1425 1.959 1_545 S
N1406 Cu1405 1.999 . S
N1406 C1408 1.263 . S
N1406 C1410 1.389 . S
N1407 C1408 1.358 . S
N1407 C1409 1.400 . S
C1408 N1406 1.263 . S
C1408 N1407 1.358 . S
C1408 H1414 0.930 . S
C1409 N1407 1.400 . S
C1409 C1410 1.351 . S
C1409 H1426 0.930 . S
C1410 N1406 1.389 . S
C1410 C1409 1.351 . S
C1410 H1415 0.930 . S
O1411 Cu1405 1.974 . S
O1411 C1421 1.282 . S
C1412 O1413 1.261 1_565 S
C1412 O1425 1.251 . S
O1413 C1412 1.261 1_545 S
H1414 C1408 0.930 . S
H1415 C1410 0.930 . S
N1416 Cu1405 1.985 . S
N1416 C1418 1.335 1_545 S
N1416 C1419 1.390 . S
N1417 C1418 1.345 . S
N1417 C1420 1.336 . S
C1418 N1416 1.335 1_565 S
C1418 N1417 1.345 . S
C1418 H1423 0.930 . S
C1419 N1416 1.390 . S
C1419 C1420 1.346 1_545 S
C1419 H1424 0.930 . S
C1420 N1417 1.336 . S
C1420 C1419 1.346 1_565 S
C1420 H1427 0.929 . S
C1421 O1411 1.282 . S
C1421 O1422 1.216 . S
O1422 C1421 1.216 . S
H1423 C1418 0.930 . S
H1424 C1419 0.930 . S
O1425 Cu1405 1.959 1_565 S
O1425 C1412 1.251 . S
H1426 C1409 0.930 . S
H1427 C1420 0.929 . S
Cu1428 N1429 1.999 . S
Cu1428 O1434 1.974 . S
Cu1428 N1439 1.985 . S
Cu1428 O1448 1.959 . S
N1429 Cu1428 1.999 . S
N1429 C1431 1.263 . S
N1429 C1433 1.389 . S
N1430 C1431 1.358 . S
N1430 C1432 1.400 . S
C1431 N1429 1.263 . S
C1431 N1430 1.358 . S
C1431 H1437 0.930 . S
C1432 N1430 1.400 . S
C1432 C1433 1.351 . S
C1432 H1449 0.930 . S
C1433 N1429 1.389 . S
C1433 C1432 1.351 . S
C1433 H1438 0.930 . S
O1434 Cu1428 1.974 . S
O1434 C1444 1.282 . S
C1435 O1436 1.261 . S
C1435 O1448 1.251 . S
O1436 C1435 1.261 . S
H1437 C1431 0.930 . S
H1438 C1433 0.930 . S
N1439 Cu1428 1.985 . S
N1439 C1441 1.335 . S
N1439 C1442 1.390 . S
N1440 C1441 1.345 . S
N1440 C1443 1.336 . S
C1441 N1439 1.335 . S
C1441 N1440 1.345 . S
C1441 H1446 0.930 . S
C1442 N1439 1.390 . S
C1442 C1443 1.346 . S
C1442 H1447 0.930 . S
C1443 N1440 1.336 . S
C1443 C1442 1.346 . S
C1443 H1450 0.929 . S
C1444 O1434 1.282 . S
C1444 O1445 1.216 . S
O1445 C1444 1.216 . S
H1446 C1441 0.930 . S
H1447 C1442 0.930 . S
O1448 Cu1428 1.959 . S
O1448 C1435 1.251 . S
H1449 C1432 0.930 . S
H1450 C1443 0.929 . S
Cu1451 N1452 1.999 . S
Cu1451 O1457 1.974 . S
Cu1451 N1462 1.985 . S
Cu1451 O1471 1.959 . S
N1452 Cu1451 1.999 . S
N1452 C1454 1.263 . S
N1452 C1456 1.389 . S
N1453 C1454 1.358 . S
N1453 C1455 1.400 . S
C1454 N1452 1.263 . S
C1454 N1453 1.358 . S
C1454 H1460 0.930 . S
C1455 N1453 1.400 . S
C1455 C1456 1.351 . S
C1455 H1472 0.930 . S
C1456 N1452 1.389 . S
C1456 C1455 1.351 . S
C1456 H1461 0.930 . S
O1457 Cu1451 1.974 . S
O1457 C1467 1.282 . S
C1458 O1459 1.261 . S
C1458 O1471 1.251 . S
O1459 C1458 1.261 . S
H1460 C1454 0.930 . S
H1461 C1456 0.930 . S
N1462 Cu1451 1.985 . S
N1462 C1464 1.335 . S
N1462 C1465 1.390 . S
N1463 C1464 1.345 . S
N1463 C1466 1.336 . S
C1464 N1462 1.335 . S
C1464 N1463 1.345 . S
C1464 H1469 0.930 . S
C1465 N1462 1.390 . S
C1465 C1466 1.346 . S
C1465 H1470 0.930 . S
C1466 N1463 1.336 . S
C1466 C1465 1.346 . S
C1466 H1473 0.929 . S
C1467 O1457 1.282 . S
C1467 O1468 1.216 . S
O1468 C1467 1.216 . S
H1469 C1464 0.930 . S
H1470 C1465 0.930 . S
O1471 Cu1451 1.959 . S
O1471 C1458 1.251 . S
H1472 C1455 0.930 . S
H1473 C1466 0.929 . S
Cu1474 N1475 1.999 . S
Cu1474 O1480 1.974 . S
Cu1474 N1485 1.985 . S
Cu1474 O1494 1.959 . S
N1475 Cu1474 1.999 . S
N1475 C1477 1.263 . S
N1475 C1479 1.389 . S
N1476 C1477 1.358 . S
N1476 C1478 1.400 . S
C1477 N1475 1.263 . S
C1477 N1476 1.358 . S
C1477 H1483 0.930 . S
C1478 N1476 1.400 . S
C1478 C1479 1.351 . S
C1478 H1495 0.930 . S
C1479 N1475 1.389 . S
C1479 C1478 1.351 . S
C1479 H1484 0.930 . S
O1480 Cu1474 1.974 . S
O1480 C1490 1.282 . S
C1481 O1482 1.261 . S
C1481 O1494 1.251 . S
O1482 C1481 1.261 . S
H1483 C1477 0.930 . S
H1484 C1479 0.930 . S
N1485 Cu1474 1.985 . S
N1485 C1487 1.335 . S
N1485 C1488 1.390 . S
N1486 C1487 1.345 . S
N1486 C1489 1.336 . S
C1487 N1485 1.335 . S
C1487 N1486 1.345 . S
C1487 H1492 0.930 . S
C1488 N1485 1.390 . S
C1488 C1489 1.346 . S
C1488 H1493 0.930 . S
C1489 N1486 1.336 . S
C1489 C1488 1.346 . S
C1489 H1496 0.929 . S
C1490 O1480 1.282 . S
C1490 O1491 1.216 . S
O1491 C1490 1.216 . S
H1492 C1487 0.930 . S
H1493 C1488 0.930 . S
O1494 Cu1474 1.959 . S
O1494 C1481 1.251 . S
H1495 C1478 0.930 . S
H1496 C1489 0.929 . S
Cu1497 N1498 1.999 . S
Cu1497 O1503 1.974 . S
Cu1497 N1508 1.985 . S
Cu1497 O1517 1.959 . S
N1498 Cu1497 1.999 . S
N1498 C1500 1.263 . S
N1498 C1502 1.389 . S
N1499 C1500 1.358 . S
N1499 C1501 1.400 . S
C1500 N1498 1.263 . S
C1500 N1499 1.358 . S
C1500 H1506 0.930 . S
C1501 N1499 1.400 . S
C1501 C1502 1.351 . S
C1501 H1518 0.930 . S
C1502 N1498 1.389 . S
C1502 C1501 1.351 . S
C1502 H1507 0.930 . S
O1503 Cu1497 1.974 . S
O1503 C1513 1.282 . S
C1504 O1505 1.261 . S
C1504 O1517 1.251 . S
O1505 C1504 1.261 . S
H1506 C1500 0.930 . S
H1507 C1502 0.930 . S
N1508 Cu1497 1.985 . S
N1508 C1510 1.335 . S
N1508 C1511 1.390 . S
N1509 C1510 1.345 . S
N1509 C1512 1.336 . S
C1510 N1508 1.335 . S
C1510 N1509 1.345 . S
C1510 H1515 0.930 . S
C1511 N1508 1.390 . S
C1511 C1512 1.346 . S
C1511 H1516 0.930 . S
C1512 N1509 1.336 . S
C1512 C1511 1.346 . S
C1512 H1519 0.929 . S
C1513 O1503 1.282 . S
C1513 O1514 1.216 . S
O1514 C1513 1.216 . S
H1515 C1510 0.930 . S
H1516 C1511 0.930 . S
O1517 Cu1497 1.959 . S
O1517 C1504 1.251 . S
H1518 C1501 0.930 . S
H1519 C1512 0.929 . S
Cu1520 N1521 1.999 . S
Cu1520 O1526 1.974 . S
Cu1520 N1531 1.985 . S
Cu1520 O1540 1.959 . S
N1521 Cu1520 1.999 . S
N1521 C1523 1.263 . S
N1521 C1525 1.389 . S
N1522 C1523 1.358 . S
N1522 C1524 1.400 . S
C1523 N1521 1.263 . S
C1523 N1522 1.358 . S
C1523 H1529 0.930 . S
C1524 N1522 1.400 . S
C1524 C1525 1.351 . S
C1524 H1541 0.930 . S
C1525 N1521 1.389 . S
C1525 C1524 1.351 . S
C1525 H1530 0.930 . S
O1526 Cu1520 1.974 . S
O1526 C1536 1.282 . S
C1527 O1528 1.261 . S
C1527 O1540 1.251 . S
O1528 C1527 1.261 . S
H1529 C1523 0.930 . S
H1530 C1525 0.930 . S
N1531 Cu1520 1.985 . S
N1531 C1533 1.335 . S
N1531 C1534 1.390 . S
N1532 C1533 1.345 . S
N1532 C1535 1.336 . S
C1533 N1531 1.335 . S
C1533 N1532 1.345 . S
C1533 H1538 0.930 . S
C1534 N1531 1.390 . S
C1534 C1535 1.346 . S
C1534 H1539 0.930 . S
C1535 N1532 1.336 . S
C1535 C1534 1.346 . S
C1535 H1542 0.929 . S
C1536 O1526 1.282 . S
C1536 O1537 1.216 . S
O1537 C1536 1.216 . S
H1538 C1533 0.930 . S
H1539 C1534 0.930 . S
O1540 Cu1520 1.959 . S
O1540 C1527 1.251 . S
H1541 C1524 0.930 . S
H1542 C1535 0.929 . S
Cu1543 N1544 1.999 . S
Cu1543 O1549 1.974 . S
Cu1543 N1554 1.985 . S
Cu1543 O1563 1.959 . S
N1544 Cu1543 1.999 . S
N1544 C1546 1.263 . S
N1544 C1548 1.389 . S
N1545 C1546 1.358 . S
N1545 C1547 1.400 . S
C1546 N1544 1.263 . S
C1546 N1545 1.358 . S
C1546 H1552 0.930 . S
C1547 N1545 1.400 . S
C1547 C1548 1.351 . S
C1547 H1564 0.930 . S
C1548 N1544 1.389 . S
C1548 C1547 1.351 . S
C1548 H1553 0.930 . S
O1549 Cu1543 1.974 . S
O1549 C1559 1.282 . S
C1550 O1551 1.261 . S
C1550 O1563 1.251 . S
O1551 C1550 1.261 . S
H1552 C1546 0.930 . S
H1553 C1548 0.930 . S
N1554 Cu1543 1.985 . S
N1554 C1556 1.335 . S
N1554 C1557 1.390 . S
N1555 C1556 1.345 . S
N1555 C1558 1.336 . S
C1556 N1554 1.335 . S
C1556 N1555 1.345 . S
C1556 H1561 0.930 . S
C1557 N1554 1.390 . S
C1557 C1558 1.346 . S
C1557 H1562 0.930 . S
C1558 N1555 1.336 . S
C1558 C1557 1.346 . S
C1558 H1565 0.929 . S
C1559 O1549 1.282 . S
C1559 O1560 1.216 . S
O1560 C1559 1.216 . S
H1561 C1556 0.930 . S
H1562 C1557 0.930 . S
O1563 Cu1543 1.959 . S
O1563 C1550 1.251 . S
H1564 C1547 0.930 . S
H1565 C1558 0.929 . S
Cu1566 N1567 1.999 . S
Cu1566 O1572 1.974 . S
Cu1566 N1577 1.985 . S
Cu1566 O1586 1.959 . S
N1567 Cu1566 1.999 . S
N1567 C1569 1.263 . S
N1567 C1571 1.389 . S
N1568 C1569 1.358 . S
N1568 C1570 1.400 . S
C1569 N1567 1.263 . S
C1569 N1568 1.358 . S
C1569 H1575 0.930 . S
C1570 N1568 1.400 . S
C1570 C1571 1.351 . S
C1570 H1587 0.930 . S
C1571 N1567 1.389 . S
C1571 C1570 1.351 . S
C1571 H1576 0.930 . S
O1572 Cu1566 1.974 . S
O1572 C1582 1.282 . S
C1573 O1574 1.261 . S
C1573 O1586 1.251 . S
O1574 C1573 1.261 . S
H1575 C1569 0.930 . S
H1576 C1571 0.930 . S
N1577 Cu1566 1.985 . S
N1577 C1579 1.335 . S
N1577 C1580 1.390 . S
N1578 C1579 1.345 . S
N1578 C1581 1.336 . S
C1579 N1577 1.335 . S
C1579 N1578 1.345 . S
C1579 H1584 0.930 . S
C1580 N1577 1.390 . S
C1580 C1581 1.346 . S
C1580 H1585 0.930 . S
C1581 N1578 1.336 . S
C1581 C1580 1.346 . S
C1581 H1588 0.929 . S
C1582 O1572 1.282 . S
C1582 O1583 1.216 . S
O1583 C1582 1.216 . S
H1584 C1579 0.930 . S
H1585 C1580 0.930 . S
O1586 Cu1566 1.959 . S
O1586 C1573 1.251 . S
H1587 C1570 0.930 . S
H1588 C1581 0.929 . S
Cu1589 N1590 1.999 . S
Cu1589 O1595 1.974 . S
Cu1589 N1600 1.985 . S
Cu1589 O1609 1.959 . S
N1590 Cu1589 1.999 . S
N1590 C1592 1.263 . S
N1590 C1594 1.389 . S
N1591 C1592 1.358 . S
N1591 C1593 1.400 . S
C1592 N1590 1.263 . S
C1592 N1591 1.358 . S
C1592 H1598 0.930 . S
C1593 N1591 1.400 . S
C1593 C1594 1.351 . S
C1593 H1610 0.930 . S
C1594 N1590 1.389 . S
C1594 C1593 1.351 . S
C1594 H1599 0.930 . S
O1595 Cu1589 1.974 . S
O1595 C1605 1.282 . S
C1596 O1597 1.261 . S
C1596 O1609 1.251 . S
O1597 C1596 1.261 . S
H1598 C1592 0.930 . S
H1599 C1594 0.930 . S
N1600 Cu1589 1.985 . S
N1600 C1602 1.335 . S
N1600 C1603 1.390 . S
N1601 C1602 1.345 . S
N1601 C1604 1.336 . S
C1602 N1600 1.335 . S
C1602 N1601 1.345 . S
C1602 H1607 0.930 . S
C1603 N1600 1.390 . S
C1603 C1604 1.346 . S
C1603 H1608 0.930 . S
C1604 N1601 1.336 . S
C1604 C1603 1.346 . S
C1604 H1611 0.929 . S
C1605 O1595 1.282 . S
C1605 O1606 1.216 . S
O1606 C1605 1.216 . S
H1607 C1602 0.930 . S
H1608 C1603 0.930 . S
O1609 Cu1589 1.959 . S
O1609 C1596 1.251 . S
H1610 C1593 0.930 . S
H1611 C1604 0.929 . S
Cu1612 N1613 1.999 . S
Cu1612 O1618 1.974 . S
Cu1612 N1623 1.985 . S
Cu1612 O1632 1.959 . S
N1613 Cu1612 1.999 . S
N1613 C1615 1.263 . S
N1613 C1617 1.389 . S
N1614 C1615 1.358 . S
N1614 C1616 1.400 . S
C1615 N1613 1.263 . S
C1615 N1614 1.358 . S
C1615 H1621 0.930 . S
C1616 N1614 1.400 . S
C1616 C1617 1.351 . S
C1616 H1633 0.930 . S
C1617 N1613 1.389 . S
C1617 C1616 1.351 . S
C1617 H1622 0.930 . S
O1618 Cu1612 1.974 . S
O1618 C1628 1.282 . S
C1619 O1620 1.261 . S
C1619 O1632 1.251 . S
O1620 C1619 1.261 . S
H1621 C1615 0.930 . S
H1622 C1617 0.930 . S
N1623 Cu1612 1.985 . S
N1623 C1625 1.335 . S
N1623 C1626 1.390 . S
N1624 C1625 1.345 . S
N1624 C1627 1.336 . S
C1625 N1623 1.335 . S
C1625 N1624 1.345 . S
C1625 H1630 0.930 . S
C1626 N1623 1.390 . S
C1626 C1627 1.346 . S
C1626 H1631 0.930 . S
C1627 N1624 1.336 . S
C1627 C1626 1.346 . S
C1627 H1634 0.929 . S
C1628 O1618 1.282 . S
C1628 O1629 1.216 . S
O1629 C1628 1.216 . S
H1630 C1625 0.930 . S
H1631 C1626 0.930 . S
O1632 Cu1612 1.959 . S
O1632 C1619 1.251 . S
H1633 C1616 0.930 . S
H1634 C1627 0.929 . S
Cu1635 N1636 1.999 . S
Cu1635 O1641 1.974 . S
Cu1635 N1646 1.985 . S
Cu1635 O1655 1.959 . S
N1636 Cu1635 1.999 . S
N1636 C1638 1.263 . S
N1636 C1640 1.389 . S
N1637 C1638 1.358 . S
N1637 C1639 1.400 . S
C1638 N1636 1.263 . S
C1638 N1637 1.358 . S
C1638 H1644 0.930 . S
C1639 N1637 1.400 . S
C1639 C1640 1.351 . S
C1639 H1656 0.930 . S
C1640 N1636 1.389 . S
C1640 C1639 1.351 . S
C1640 H1645 0.930 . S
O1641 Cu1635 1.974 . S
O1641 C1651 1.282 . S
C1642 O1643 1.261 . S
C1642 O1655 1.251 . S
O1643 C1642 1.261 . S
H1644 C1638 0.930 . S
H1645 C1640 0.930 . S
N1646 Cu1635 1.985 . S
N1646 C1648 1.335 . S
N1646 C1649 1.390 . S
N1647 C1648 1.345 . S
N1647 C1650 1.336 . S
C1648 N1646 1.335 . S
C1648 N1647 1.345 . S
C1648 H1653 0.930 . S
C1649 N1646 1.390 . S
C1649 C1650 1.346 . S
C1649 H1654 0.930 . S
C1650 N1647 1.336 . S
C1650 C1649 1.346 . S
C1650 H1657 0.929 . S
C1651 O1641 1.282 . S
C1651 O1652 1.216 . S
O1652 C1651 1.216 . S
H1653 C1648 0.930 . S
H1654 C1649 0.930 . S
O1655 Cu1635 1.959 . S
O1655 C1642 1.251 . S
H1656 C1639 0.930 . S
H1657 C1650 0.929 . S
Cu1658 N1659 1.999 . S
Cu1658 O1664 1.974 . S
Cu1658 N1669 1.985 . S
Cu1658 O1678 1.959 . S
N1659 Cu1658 1.999 . S
N1659 C1661 1.263 . S
N1659 C1663 1.389 . S
N1660 C1661 1.358 . S
N1660 C1662 1.400 . S
C1661 N1659 1.263 . S
C1661 N1660 1.358 . S
C1661 H1667 0.930 . S
C1662 N1660 1.400 . S
C1662 C1663 1.351 . S
C1662 H1679 0.930 . S
C1663 N1659 1.389 . S
C1663 C1662 1.351 . S
C1663 H1668 0.930 . S
O1664 Cu1658 1.974 . S
O1664 C1674 1.282 . S
C1665 O1666 1.261 . S
C1665 O1678 1.251 . S
O1666 C1665 1.261 . S
H1667 C1661 0.930 . S
H1668 C1663 0.930 . S
N1669 Cu1658 1.985 . S
N1669 C1671 1.335 . S
N1669 C1672 1.390 . S
N1670 C1671 1.345 . S
N1670 C1673 1.336 . S
C1671 N1669 1.335 . S
C1671 N1670 1.345 . S
C1671 H1676 0.930 . S
C1672 N1669 1.390 . S
C1672 C1673 1.346 . S
C1672 H1677 0.930 . S
C1673 N1670 1.336 . S
C1673 C1672 1.346 . S
C1673 H1680 0.929 . S
C1674 O1664 1.282 . S
C1674 O1675 1.216 . S
O1675 C1674 1.216 . S
H1676 C1671 0.930 . S
H1677 C1672 0.930 . S
O1678 Cu1658 1.959 . S
O1678 C1665 1.251 . S
H1679 C1662 0.930 . S
H1680 C1673 0.929 . S
Cu1681 N1682 1.999 . S
Cu1681 O1687 1.974 . S
Cu1681 N1692 1.985 . S
Cu1681 O1701 1.959 . S
N1682 Cu1681 1.999 . S
N1682 C1684 1.263 . S
N1682 C1686 1.389 . S
N1683 C1684 1.358 . S
N1683 C1685 1.400 . S
C1684 N1682 1.263 . S
C1684 N1683 1.358 . S
C1684 H1690 0.930 . S
C1685 N1683 1.400 . S
C1685 C1686 1.351 . S
C1685 H1702 0.930 . S
C1686 N1682 1.389 . S
C1686 C1685 1.351 . S
C1686 H1691 0.930 . S
O1687 Cu1681 1.974 . S
O1687 C1697 1.282 . S
C1688 O1689 1.261 . S
C1688 O1701 1.251 . S
O1689 C1688 1.261 . S
H1690 C1684 0.930 . S
H1691 C1686 0.930 . S
N1692 Cu1681 1.985 . S
N1692 C1694 1.335 . S
N1692 C1695 1.390 . S
N1693 C1694 1.345 . S
N1693 C1696 1.336 . S
C1694 N1692 1.335 . S
C1694 N1693 1.345 . S
C1694 H1699 0.930 . S
C1695 N1692 1.390 . S
C1695 C1696 1.346 . S
C1695 H1700 0.930 . S
C1696 N1693 1.336 . S
C1696 C1695 1.346 . S
C1696 H1703 0.929 . S
C1697 O1687 1.282 . S
C1697 O1698 1.216 . S
O1698 C1697 1.216 . S
H1699 C1694 0.930 . S
H1700 C1695 0.930 . S
O1701 Cu1681 1.959 . S
O1701 C1688 1.251 . S
H1702 C1685 0.930 . S
H1703 C1696 0.929 . S
N1164 C31 1.474 . S
C1191 C61 1.768 . S
C73 C1205 1.572 . S
N1223 C133 1.443 . S
C175 C1228 1.727 . S
C211 C1168 1.715 . S
C241 N1187 1.390 . S
N1200 C253 1.480 . S
N1246 C1 1.385 . S
C37 N1269 1.653 . S
C103 N1292 2.002 . S
N1325 C139 1.377 . S
C145 C1352 1.588 . S
C1375 C205 1.706 . S
C247 C1398 1.712 . S
C1412 C283 1.448 . S
C25 C1329 1.629 . S
C169 N1371 1.450 . S
N1394 C181 1.410 . S
C217 N1407 1.505 . S
N1348 C277 1.377 . S
C1274 C97 1.869 . S
C109 C1297 1.613 . S
C1251 C67 1.856 . S
C1444 C319 1.498 . S
C349 C1458 1.721 . S
C361 N1486 1.459 . S
N1499 C421 1.427 . S
C463 C1504 1.790 . S
C499 N1440 1.621 . S
C529 N1453 1.749 . S
C541 C1490 1.475 . S
N1338 C289 1.455 . S
C325 N1522 1.453 . S
N1384 C391 1.540 . S
C427 C1559 1.809 . S
C433 C1260 1.730 . S
C1573 C493 1.771 . S
C535 C1306 1.591 . S
N1591 C571 1.344 . S
C313 N1555 1.405 . S
N1568 C457 1.604 . S
C469 N1302 1.430 . S
C1596 C505 1.389 . S
C565 N1256 1.334 . S
C385 C1527 1.702 . S
C397 C1389 1.680 . S
C355 C1343 1.759 . S
C607 C1481 1.553 . S
C1513 C637 1.611 . S
C649 N1430 1.434 . S
C709 N1463 1.361 . S
C751 C1467 1.777 . S
C787 N1476 1.679 . S
N1509 C817 1.277 . S
C829 C1435 1.503 . S
N1624 C577 1.377 . S
C613 N1361 1.433 . S
N1647 C679 1.475 . S
C715 N1417 1.685 . S
C721 C1665 1.625 . S
C781 C1283 1.909 . S
N1683 C823 1.360 . S
C859 C1320 1.532 . S
C1421 C601 1.644 . S
N1279 C745 1.581 . S
C757 C1688 1.676 . S
C793 N1315 1.289 . S
N1660 C853 1.557 . S
C1366 C673 1.800 . S
C1651 C685 1.776 . S
C1628 C643 1.781 . S
C895 N1210 1.292 . S
C925 C1237 1.652 . S
C1159 C937 1.609 . S
N1177 C997 1.354 . S
C1182 C1039 1.884 . S
C1214 C1075 2.009 . S
N1233 C1105 1.667 . S
C1117 N1154 1.669 . S
C865 N1670 1.245 . S
N1578 C901 1.458 . S
C1697 C967 1.897 . S
C1605 C1003 1.392 . S
C1009 C1619 1.662 . S
C1536 C1069 1.708 . S
C1642 C1111 1.848 . S
C1147 N1545 1.485 . S
N1601 C889 1.246 . S
N1532 C1033 1.471 . S
N1637 C1045 1.366 . S
C1081 C1550 1.542 . S
C1141 N1614 1.479 . S
C961 C1582 1.859 . S
C973 N1693 1.337 . S
C1674 C931 1.729 . S
