# Generated by pormake.
# Topology zzz, (3,6)-cn, num edge types: 1
# Building blocks:
#     Node 0, Type 0, BuildingBlock: BELTOD_clean_linker_0, # of connection points: 3
#     Node 1, Type 0, BuildingBlock: BELTOD_clean_linker_0, # of connection points: 3
#     Node 2, Type 0, BuildingBlock: BELTOD_clean_linker_0, # of connection points: 3
#     Node 3, Type 0, BuildingBlock: BELTOD_clean_linker_0, # of connection points: 3
#     Node 4, Type 0, BuildingBlock: BELTOD_clean_linker_0, # of connection points: 3
#     Node 5, Type 0, BuildingBlock: BELTOD_clean_linker_0, # of connection points: 3
#     Node 6, Type 0, BuildingBlock: BELTOD_clean_linker_0, # of connection points: 3
#     Node 7, Type 0, BuildingBlock: BELTOD_clean_linker_0, # of connection points: 3
#     Node 8, Type 1, BuildingBlock: BETGAK_clean_sbu_0, # of connection points: 6
#     Node 9, Type 1, BuildingBlock: BETGAK_clean_sbu_0, # of connection points: 6
#     Node 10, Type 1, BuildingBlock: BETGAK_clean_sbu_0, # of connection points: 6
#     Node 11, Type 1, BuildingBlock: BETGAK_clean_sbu_0, # of connection points: 6
#     Edge 12, Type (0, 1), BuildingBlock: UVAHIK_clean_linker_0, # of connection points: 2
#     Edge 13, Type (0, 1), BuildingBlock: UVAHIK_clean_linker_0, # of connection points: 2
#     Edge 14, Type (0, 1), BuildingBlock: UVAHIK_clean_linker_0, # of connection points: 2
#     Edge 15, Type (0, 1), BuildingBlock: UVAHIK_clean_linker_0, # of connection points: 2
#     Edge 16, Type (0, 1), BuildingBlock: UVAHIK_clean_linker_0, # of connection points: 2
#     Edge 17, Type (0, 1), BuildingBlock: UVAHIK_clean_linker_0, # of connection points: 2
#     Edge 18, Type (0, 1), BuildingBlock: UVAHIK_clean_linker_0, # of connection points: 2
#     Edge 19, Type (0, 1), BuildingBlock: UVAHIK_clean_linker_0, # of connection points: 2
#     Edge 20, Type (0, 1), BuildingBlock: UVAHIK_clean_linker_0, # of connection points: 2
#     Edge 21, Type (0, 1), BuildingBlock: UVAHIK_clean_linker_0, # of connection points: 2
#     Edge 22, Type (0, 1), BuildingBlock: UVAHIK_clean_linker_0, # of connection points: 2
#     Edge 23, Type (0, 1), BuildingBlock: UVAHIK_clean_linker_0, # of connection points: 2
#     Edge 24, Type (0, 1), BuildingBlock: UVAHIK_clean_linker_0, # of connection points: 2
#     Edge 25, Type (0, 1), BuildingBlock: UVAHIK_clean_linker_0, # of connection points: 2
#     Edge 26, Type (0, 1), BuildingBlock: UVAHIK_clean_linker_0, # of connection points: 2
#     Edge 27, Type (0, 1), BuildingBlock: UVAHIK_clean_linker_0, # of connection points: 2
#     Edge 28, Type (0, 1), BuildingBlock: UVAHIK_clean_linker_0, # of connection points: 2
#     Edge 29, Type (0, 1), BuildingBlock: UVAHIK_clean_linker_0, # of connection points: 2
#     Edge 30, Type (0, 1), BuildingBlock: UVAHIK_clean_linker_0, # of connection points: 2
#     Edge 31, Type (0, 1), BuildingBlock: UVAHIK_clean_linker_0, # of connection points: 2
#     Edge 32, Type (0, 1), BuildingBlock: UVAHIK_clean_linker_0, # of connection points: 2
#     Edge 33, Type (0, 1), BuildingBlock: UVAHIK_clean_linker_0, # of connection points: 2
#     Edge 34, Type (0, 1), BuildingBlock: UVAHIK_clean_linker_0, # of connection points: 2
#     Edge 35, Type (0, 1), BuildingBlock: UVAHIK_clean_linker_0, # of connection points: 2
# Relax obj value: 0.402
# Max RMSD: 0.258
# Mean RMSD: 0.243
data_MOF--net-zzz--node1-BETGAK_clean_sbu_0--node2-BELTOD_clean_linker_0--edge1-UVAHIK_clean_linker_0
_symmetry_space_group_name_H-M    P1
_symmetry_Int_Tables_number       1
_symmetry_cell_setting            triclinic
loop_
_symmetry_equiv_pos_as_xyz
'x, y, z'
_cell_length_a     70.808834
_cell_length_b     70.788647
_cell_length_c     21.403794
_cell_angle_alpha  90.002779
_cell_angle_beta   89.936445
_cell_angle_gamma 89.960044
loop_
_atom_site_label
_atom_site_type_symbol
_atom_site_fract_x
_atom_site_fract_y
_atom_site_fract_z
_atom_type_partial_charge
P0 P 0.71914 0.47526 0.3368 0.0
H1 H 0.72805 0.48729 0.46451 0.0
H2 H 0.75733 0.49892 0.51053 0.0
H3 H 0.78089 0.50596 0.32556 0.0
H4 H 0.75129 0.4952 0.28017 0.0
H5 H 0.68058 0.46335 0.31818 0.0
H6 H 0.65505 0.4751 0.25338 0.0
H7 H 0.68874 0.52384 0.20461 0.0
H8 H 0.71462 0.51161 0.26957 0.0
H9 H 0.74181 0.44115 0.35009 0.0
H10 H 0.72285 0.47719 0.20027 0.0
O11 O 0.71074 0.46159 0.39398 0.0
H12 H 0.76278 0.42461 0.27752 0.0
H13 H 0.74403 0.46127 0.12835 0.0
C14 C 0.73755 0.49003 0.36888 0.0
C15 C 0.73929 0.49192 0.4338 0.0
C16 C 0.7562 0.49835 0.46012 0.0
C17 C 0.77179 0.50287 0.42198 0.0
C18 C 0.76931 0.50262 0.35668 0.0
C19 C 0.7523 0.49639 0.33046 0.0
C20 C 0.69936 0.48679 0.29982 0.0
C21 C 0.68233 0.47685 0.29505 0.0
C22 C 0.66766 0.48363 0.25781 0.0
C23 C 0.66971 0.5005 0.22379 0.0
C24 C 0.68669 0.51075 0.22989 0.0
C25 C 0.70142 0.50391 0.26756 0.0
C26 C 0.73059 0.46024 0.28054 0.0
C27 C 0.74176 0.44515 0.30126 0.0
C28 C 0.75387 0.43584 0.25983 0.0
C29 C 0.7552 0.44168 0.19714 0.0
C30 C 0.74318 0.45615 0.17595 0.0
C31 C 0.73104 0.46536 0.21731 0.0
P32 P 0.0331 0.72185 0.33532 0.0
H33 H 0.0313 0.73669 0.46252 0.0
H34 H 0.01947 0.76634 0.50341 0.0
H35 H 0.99109 0.77705 0.32815 0.0
H36 H 0.00397 0.74764 0.28636 0.0
H37 H 0.04821 0.68563 0.30051 0.0
H38 H 0.03679 0.65998 0.23557 0.0
H39 H 0.98316 0.68855 0.21572 0.0
H40 H 0.99495 0.71454 0.28092 0.0
H41 H 0.06817 0.74325 0.34483 0.0
H42 H 0.02736 0.72958 0.20249 0.0
O43 O 0.0478 0.71322 0.38918 0.0
H44 H 0.08392 0.76495 0.27269 0.0
H45 H 0.04266 0.75145 0.13086 0.0
C46 C 0.01839 0.73969 0.37143 0.0
C47 C 0.02205 0.74506 0.43331 0.0
C48 C 0.0152 0.76219 0.45686 0.0
C49 C 0.00443 0.7744 0.41909 0.0
C50 C 0.99965 0.76829 0.3584 0.0
C51 C 0.00669 0.7512 0.3347 0.0
C52 C 0.02237 0.70189 0.29657 0.0
C53 C 0.03381 0.68622 0.28353 0.0
C54 C 0.02722 0.67148 0.24627 0.0
C55 C 0.00897 0.67205 0.2205 0.0
C56 C 0.99733 0.68768 0.23449 0.0
C57 C 0.00399 0.7025 0.27219 0.0
C58 C 0.04682 0.73456 0.27864 0.0
C59 C 0.0629 0.74455 0.29755 0.0
C60 C 0.07178 0.75706 0.25645 0.0
C61 C 0.06454 0.75994 0.196 0.0
C62 C 0.04884 0.74931 0.17658 0.0
C63 C 0.04001 0.73681 0.21766 0.0
P64 P 0.78441 0.03046 0.33107 0.0
H65 H 0.76944 0.03039 0.45857 0.0
H66 H 0.73929 0.0201 0.5002 0.0
H67 H 0.72782 0.99046 0.32768 0.0
H68 H 0.75766 1.00191 0.28501 0.0
H69 H 0.82353 0.04176 0.3198 0.0
H70 H 0.84945 0.03008 0.25659 0.0
H71 H 0.81636 0.98106 0.20698 0.0
H72 H 0.79018 0.99307 0.27071 0.0
H73 H 0.75373 0.05763 0.32887 0.0
H74 H 0.78887 0.02915 0.19338 0.0
O75 O 0.79187 0.04693 0.38108 0.0
H76 H 0.7336 0.0693 0.24457 0.0
H77 H 0.76901 0.04089 0.10951 0.0
C78 C 0.76602 0.01681 0.3687 0.0
C79 C 0.76074 0.02122 0.43018 0.0
C80 C 0.74334 0.01525 0.45414 0.0
C81 C 0.73077 0.0046 0.41725 0.0
C82 C 0.73682 0.99899 0.35721 0.0
C83 C 0.75416 0.00517 0.33305 0.0
C84 C 0.80492 0.0182 0.30098 0.0
C85 C 0.822 0.02814 0.29733 0.0
C86 C 0.83691 0.02142 0.2608 0.0
C87 C 0.83505 0.00463 0.22627 0.0
C88 C 0.81823 0.99414 0.23246 0.0
C89 C 0.80329 1.00087 0.26957 0.0
C90 C 0.77273 0.04241 0.26776 0.0
C91 C 0.75743 0.05432 0.28097 0.0
C92 C 0.74598 0.06104 0.23273 0.0
C93 C 0.74966 0.05587 0.17049 0.0
C94 C 0.76571 0.0449 0.15714 0.0
C95 C 0.77712 0.03819 0.20536 0.0
P96 P 0.4768 0.78245 0.30438 0.0
H97 H 0.46084 0.7613 0.40698 0.0
H98 H 0.47164 0.73363 0.46339 0.0
H99 H 0.52665 0.73912 0.37763 0.0
H100 H 0.51544 0.76701 0.32013 0.0
H101 H 0.48584 0.82105 0.34333 0.0
H102 H 0.49783 0.84809 0.28445 0.0
H103 H 0.51053 0.81115 0.12899 0.0
H104 H 0.49958 0.78427 0.18934 0.0
H105 H 0.4891 0.74653 0.2496 0.0
H106 H 0.44513 0.78765 0.21779 0.0
O107 O 0.45856 0.79305 0.3393 0.0
H108 H 0.47812 0.7282 0.16161 0.0
H109 H 0.43415 0.76926 0.12739 0.0
C110 C 0.4874 0.76646 0.36006 0.0
C111 C 0.47546 0.75705 0.402 0.0
C112 C 0.48169 0.74109 0.43431 0.0
C113 C 0.50003 0.73398 0.42507 0.0
C114 C 0.51237 0.74407 0.38547 0.0
C115 C 0.5061 0.7602 0.35326 0.0
C116 C 0.49144 0.80067 0.27042 0.0
C117 C 0.4918 0.81871 0.29735 0.0
C118 C 0.49842 0.83423 0.2631 0.0
C119 C 0.50466 0.83202 0.20094 0.0
C120 C 0.50587 0.81357 0.1765 0.0
C121 C 0.49947 0.79807 0.2111 0.0
C122 C 0.46767 0.76828 0.24142 0.0
C123 C 0.47694 0.75158 0.2242 0.0
C124 C 0.4708 0.7412 0.17298 0.0
C125 C 0.45538 0.74739 0.13713 0.0
C126 C 0.44601 0.76412 0.15439 0.0
C127 C 0.45224 0.77457 0.206 0.0
P128 P 0.2776 0.46151 0.08283 0.0
H129 H 0.26168 0.44249 0.97386 0.0
H130 H 0.2345 0.45027 0.90907 0.0
H131 H 0.23414 0.50681 0.98431 0.0
H132 H 0.26149 0.49899 0.04924 0.0
H133 H 0.30858 0.43736 0.12039 0.0
H134 H 0.33985 0.44432 0.15876 0.0
H135 H 0.33381 0.50227 0.09873 0.0
H136 H 0.30209 0.49498 0.05869 0.0
H137 H 0.25222 0.44582 0.17781 0.0
H138 H 0.28096 0.49861 0.14381 0.0
O139 O 0.27452 0.43812 0.08542 0.0
H140 H 0.23768 0.45934 0.27118 0.0
H141 H 0.26657 0.51205 0.23693 0.0
C142 C 0.26349 0.46998 0.01785 0.0
C143 C 0.25621 0.45676 0.97533 0.0
C144 C 0.2405 0.46117 0.93849 0.0
C145 C 0.23183 0.479 0.94274 0.0
C146 C 0.2404 0.4929 0.98022 0.0
C147 C 0.25611 0.48841 0.01751 0.0
C148 C 0.30281 0.46563 0.08656 0.0
C149 C 0.31412 0.45142 0.11284 0.0
C150 C 0.33216 0.45546 0.13517 0.0
C151 C 0.33938 0.47392 0.13263 0.0
C152 C 0.32859 0.48793 0.10221 0.0
C153 C 0.3105 0.48376 0.07885 0.0
C154 C 0.26783 0.47111 0.1538 0.0
C155 C 0.25566 0.46019 0.19074 0.0
C156 C 0.24745 0.46789 0.24437 0.0
C157 C 0.25111 0.48671 0.26142 0.0
C158 C 0.2635 0.49751 0.22483 0.0
C159 C 0.2718 0.48976 0.17156 0.0
P160 P 0.04756 0.28645 0.00821 0.0
H161 H 0.04196 0.27415 0.87915 0.0
H162 H 0.02944 0.24467 0.83885 0.0
H163 H 0.00444 0.23285 0.01888 0.0
H164 H 0.01751 0.26237 0.05941 0.0
H165 H 0.06825 0.31748 0.0605 0.0
H166 H 0.0605 0.34231 0.13501 0.0
H167 H 1.00246 0.32369 0.13748 0.0
H168 H 0.01043 0.2985 0.06214 0.0
H169 H 0.07517 0.2573 0.97974 0.0
H170 H 0.04715 0.2794 0.14324 0.0
O171 O 0.06208 0.29481 0.9533 0.0
H172 H 0.08508 0.22955 0.03943 0.0
H173 H 0.05692 0.25189 0.20266 0.0
C174 C 0.03062 0.27068 0.97238 0.0
C175 C 0.0331 0.2657 0.90943 0.0
C176 C 0.02596 0.24864 0.88634 0.0
C177 C 0.0162 0.23607 0.92581 0.0
C178 C 0.01222 0.24195 0.98738 0.0
C179 C 0.01936 0.25908 0.01037 0.0
C180 C 0.03991 0.30625 0.05522 0.0
C181 C 0.05376 0.31888 0.07611 0.0
C182 C 0.04935 0.33299 0.1192 0.0
C183 C 0.03091 0.33487 0.14258 0.0
C184 C 0.01678 0.32261 0.12007 0.0
C185 C 0.0213 0.30824 0.07705 0.0
C186 C 0.06064 0.27054 0.05715 0.0
C187 C 0.07188 0.25661 0.02912 0.0
C188 C 0.07738 0.24068 0.06307 0.0
C189 C 0.07166 0.23849 0.12557 0.0
C190 C 0.06177 0.25326 0.15487 0.0
C191 C 0.05617 0.26909 0.12077 0.0
P192 P 0.21626 0.04656 0.01775 0.0
H193 H 0.22683 0.04854 0.88521 0.0
H194 H 0.2556 0.03877 0.83138 0.0
H195 H 0.27243 0.0068 0.99391 0.0
H196 H 0.24351 0.01645 0.04717 0.0
H197 H 0.17587 0.05504 0.02055 0.0
H198 H 0.15056 0.0438 0.08808 0.0
H199 H 0.18721 1.00002 0.15869 0.0
H200 H 0.21255 0.01116 0.08983 0.0
H201 H 0.25249 0.0658 0.01959 0.0
H202 H 0.21129 0.04782 0.156 0.0
O203 O 0.20848 0.06496 0.97634 0.0
H204 H 0.27631 0.06784 0.10162 0.0
H205 H 0.23516 0.04925 0.23733 0.0
C206 C 0.23282 0.0332 0.97035 0.0
C207 C 0.23631 0.03885 0.90856 0.0
C208 C 0.25298 0.03345 0.87802 0.0
C209 C 0.2666 0.02231 0.90866 0.0
C210 C 0.26228 0.01531 0.96859 0.0
C211 C 0.24557 0.0207 0.99907 0.0
C212 C 0.19619 0.03393 0.04964 0.0
C213 C 0.17833 0.04255 0.04856 0.0
C214 C 0.1638 0.03614 0.08752 0.0
C215 C 0.16693 0.02116 0.12932 0.0
C216 C 0.18443 0.0117 0.12735 0.0
C217 C 0.19886 0.01792 0.08736 0.0
C218 C 0.23042 0.05563 0.08094 0.0
C219 C 0.24839 0.06281 0.06736 0.0
C220 C 0.26201 0.06393 0.1142 0.0
C221 C 0.25771 0.05806 0.1753 0.0
C222 C 0.23894 0.05362 0.19046 0.0
C223 C 0.22531 0.05251 0.14349 0.0
P224 P 0.45356 0.22166 0.00917 0.0
H225 H 0.45416 0.23473 0.87907 0.0
H226 H 0.467 0.26358 0.83404 0.0
H227 H 0.50001 0.27259 1.00094 0.0
H228 H 0.48687 0.24372 0.04611 0.0
H229 H 0.43384 0.187 0.03699 0.0
H230 H 0.44149 0.16025 0.10368 0.0
H231 H 0.4986 0.1807 0.12226 0.0
H232 H 0.4908 0.20777 0.05467 0.0
H233 H 0.43364 0.25741 0.01424 0.0
H234 H 0.45863 0.21866 0.14628 0.0
O235 O 0.43456 0.21754 0.96512 0.0
H236 H 0.43366 0.28211 0.09401 0.0
H237 H 0.4588 0.24319 0.22517 0.0
C238 C 0.46951 0.23691 0.96613 0.0
C239 C 0.46475 0.24242 0.90513 0.0
C240 C 0.47208 0.25909 0.87938 0.0
C241 C 0.48427 0.27071 0.91426 0.0
C242 C 0.49037 0.26422 0.97314 0.0
C243 C 0.48312 0.24745 0.99865 0.0
C244 C 0.4618 0.1993 0.03981 0.0
C245 C 0.44823 0.18547 0.05334 0.0
C246 C 0.45254 0.17025 0.09225 0.0
C247 C 0.47057 0.16849 0.11891 0.0
C248 C 0.48461 0.18165 0.10216 0.0
C249 C 0.4802 0.19706 0.06322 0.0
C250 C 0.44637 0.23626 0.07374 0.0
C251 C 0.43838 0.25396 0.06097 0.0
C252 C 0.43851 0.26809 0.10641 0.0
C253 C 0.44654 0.26462 0.1653 0.0
C254 C 0.45249 0.24625 0.18021 0.0
C255 C 0.45249 0.23218 0.13462 0.0
La256 La 0.01179 0.99862 0.7354 0.0
La257 La 0.98978 0.01085 0.6241 0.0
C258 C 0.02314 0.98335 0.83479 0.0
C259 C 0.03228 0.9654 0.85192 0.0
C260 C 0.04801 0.96563 0.8916 0.0
C261 C 0.05686 0.94877 0.90878 0.0
C262 C 0.05009 0.93134 0.88662 0.0
C263 C 0.03444 0.93119 0.84618 0.0
C264 C 0.02564 0.94806 0.82896 0.0
C265 C 0.03279 0.00785 0.63741 0.0
C266 C 0.99595 0.96747 0.63887 0.0
C267 C 0.9804 0.02741 0.52486 0.0
C268 C 0.9896 0.04326 0.49297 0.0
C269 C 0.9801 0.05358 0.44688 0.0
C270 C 0.98908 0.06878 0.41742 0.0
C271 C 0.00762 0.07387 0.43413 0.0
C272 C 0.01706 0.06337 0.48017 0.0
C273 C 0.00814 0.04821 0.50922 0.0
C274 C 0.969 1.00118 0.72146 0.0
C275 C 0.006 0.04132 0.71857 0.0
O276 O 0.03339 0.99495 0.80148 0.0
O277 O 0.00567 0.98244 0.81491 0.0
O278 O 0.03784 0.01019 0.69497 0.0
O279 O 0.01725 0.99928 0.63678 0.0
O280 O 0.00376 0.9712 0.6939 0.0
O281 O 0.99036 0.98105 0.6008 0.0
O282 O 0.97299 0.03132 0.57937 0.0
O283 O 0.99035 0.01186 0.52634 0.0
O284 O 0.96385 0.99886 0.66383 0.0
O285 O 0.98435 0.01011 0.72236 0.0
O286 O 1.0031 0.03698 0.65918 0.0
O287 O 0.0067 0.02786 0.76118 0.0
H288 H 0.05343 0.97888 0.90949 0.0
H289 H 0.06901 0.94939 0.9394 0.0
H290 H 0.02867 0.91801 0.82903 0.0
H291 H 0.01353 0.9475 0.79831 0.0
H292 H 0.96578 0.04994 0.4339 0.0
H293 H 0.98144 0.07673 0.38235 0.0
H294 H 0.03144 0.06676 0.4933 0.0
H295 H 0.01579 0.0403 0.54432 0.0
La296 La 0.504 0.01549 0.72191 0.0
La297 La 0.49377 0.99081 0.61538 0.0
C298 C 0.51863 0.02954 0.81868 0.0
C299 C 0.53799 0.03402 0.83811 0.0
C300 C 0.54137 0.04964 0.87662 0.0
C301 C 0.55985 0.05453 0.8929 0.0
C302 C 0.57528 0.044 0.87016 0.0
C303 C 0.57172 0.02831 0.83153 0.0
C304 C 0.55326 0.02328 0.81632 0.0
C305 C 0.49278 0.03368 0.62076 0.0
C306 C 0.53632 0.99974 0.62827 0.0
C307 C 0.47714 0.97784 0.5214 0.0
C308 C 0.45781 0.98181 0.5004 0.0
C309 C 0.44628 0.96717 0.47841 0.0
C310 C 0.42721 0.97059 0.4655 0.0
C311 C 0.41945 0.98867 0.47505 0.0
C312 C 0.43114 1.00332 0.49616 0.0
C313 C 0.45012 0.99994 0.50871 0.0
C314 C 0.50504 0.97267 0.71617 0.0
C315 C 0.46158 0.0071 0.70625 0.0
O316 O 0.51211 0.03962 0.77231 0.0
O317 O 0.51461 0.01159 0.81244 0.0
O318 O 0.48904 0.03904 0.67733 0.0
O319 O 0.50315 0.01924 0.62271 0.0
O320 O 0.53193 0.00732 0.68326 0.0
O321 O 0.52318 0.99353 0.58974 0.0
O322 O 0.4783 0.96873 0.57441 0.0
O323 O 0.48888 0.99212 0.5189 0.0
O324 O 0.50865 0.96723 0.65952 0.0
O325 O 0.49459 0.98708 0.71439 0.0
O326 O 0.46627 1.00155 0.64917 0.0
O327 O 0.4747 0.01115 0.74785 0.0
H328 H 0.52972 0.05808 0.89399 0.0
H329 H 0.56199 0.06646 0.92376 0.0
H330 H 0.58317 0.02 0.81231 0.0
H331 H 0.5509 0.01102 0.78729 0.0
H332 H 0.45191 0.95305 0.47258 0.0
H333 H 0.41847 0.95904 0.44934 0.0
H334 H 0.42564 0.01747 0.50284 0.0
H335 H 0.45867 0.01147 0.52623 0.0
La336 La 0.49261 0.50785 0.72584 0.0
La337 La 0.51822 0.49769 0.6219 0.0
C338 C 0.47745 0.52309 0.81968 0.0
C339 C 0.46968 0.54202 0.83206 0.0
C340 C 0.45207 0.54385 0.86149 0.0
C341 C 0.44413 0.56172 0.87084 0.0
C342 C 0.4536 0.57799 0.85009 0.0
C343 C 0.47125 0.57612 0.82079 0.0
C344 C 0.47929 0.55831 0.81234 0.0
C345 C 0.47531 0.4967 0.62294 0.0
C346 C 0.50876 0.54033 0.63368 0.0
C347 C 0.53211 0.48145 0.52831 0.0
C348 C 0.52825 0.46245 0.50425 0.0
C349 C 0.5427 0.45171 0.47696 0.0
C350 C 0.53933 0.43297 0.45953 0.0
C351 C 0.52153 0.42475 0.47004 0.0
C352 C 0.50707 0.43566 0.49671 0.0
C353 C 0.51038 0.45434 0.51353 0.0
C354 C 0.53558 0.50914 0.72387 0.0
C355 C 0.50192 0.46565 0.71257 0.0
O356 O 0.46815 0.51301 0.77885 0.0
O357 O 0.49574 0.52198 0.81131 0.0
O358 O 0.46941 0.49307 0.67896 0.0
O359 O 0.48972 0.50703 0.62627 0.0
O360 O 0.49982 0.5358 0.68619 0.0
O361 O 0.5163 0.52729 0.59722 0.0
O362 O 0.5404 0.48187 0.58286 0.0
O363 O 0.51799 0.49337 0.52505 0.0
O364 O 0.54146 0.51249 0.66756 0.0
O365 O 0.5212 0.49867 0.72136 0.0
O366 O 0.5071 0.47024 0.65503 0.0
O367 O 0.49813 0.47892 0.75402 0.0
H368 H 0.44442 0.53144 0.87692 0.0
H369 H 0.43051 0.56282 0.8937 0.0
H370 H 0.47901 0.58847 0.80546 0.0
H371 H 0.49302 0.5573 0.79036 0.0
H372 H 0.55662 0.45772 0.4701 0.0
H373 H 0.55069 0.42481 0.43894 0.0
H374 H 0.49313 0.42977 0.50423 0.0
H375 H 0.49901 0.46234 0.53469 0.0
La376 La 0.99716 0.49087 0.73476 0.0
La377 La 0.0075 0.51621 0.63115 0.0
C378 C 0.98181 0.47618 0.82933 0.0
C379 C 0.9626 0.47028 0.84644 0.0
C380 C 0.96007 0.45425 0.88389 0.0
C381 C 0.94191 0.44823 0.89988 0.0
C382 C 0.92594 0.4581 0.87833 0.0
C383 C 0.92858 0.47411 0.84031 0.0
C384 C 0.94674 0.48019 0.82481 0.0
C385 C 0.00904 0.47329 0.63334 0.0
C386 C 0.96511 0.50633 0.64007 0.0
C387 C 0.02471 0.53068 0.5406 0.0
C388 C 0.04517 0.53102 0.52844 0.0
C389 C 0.05445 0.54832 0.51956 0.0
C390 C 0.07419 0.54908 0.51825 0.0
C391 C 0.08493 0.53252 0.52602 0.0
C392 C 0.07555 0.51516 0.53272 0.0
C393 C 0.05591 0.51441 0.53409 0.0
C394 C 0.99546 0.53371 0.73225 0.0
C395 C 0.03951 0.50042 0.72404 0.0
O396 O 0.98982 0.46642 0.78479 0.0
O397 O 0.98462 0.49436 0.82282 0.0
O398 O 0.01267 0.46786 0.68986 0.0
O399 O 0.99841 0.48757 0.63526 0.0
O400 O 0.96941 0.49821 0.69416 0.0
O401 O 0.97831 0.51325 0.60297 0.0
O402 O 0.01937 0.54033 0.58963 0.0
O403 O 0.0165 0.51411 0.53797 0.0
O404 O 0.99177 0.53904 0.67561 0.0
O405 O 0.00624 0.51951 0.73056 0.0
O406 O 0.03521 0.50717 0.66812 0.0
O407 O 0.0262 0.49505 0.76333 0.0
H408 H 0.97217 0.44644 0.90102 0.0
H409 H 0.94042 0.43605 0.93007 0.0
H410 H 0.91661 0.48191 0.82225 0.0
H411 H 0.94835 0.49265 0.79603 0.0
H412 H 0.04644 0.56132 0.51592 0.0
H413 H 0.08103 0.56267 0.51308 0.0
H414 H 0.0834 0.5021 0.53739 0.0
H415 H 0.0492 0.50084 0.5416 0.0
C416 C 0.13341 0.01575 0.16516 0.0
C417 C 0.15277 0.01694 0.17901 0.0
C418 C 0.12003 0.01362 0.21302 0.0
C419 C 0.11547 1.00238 0.38418 0.0
H420 H 0.06702 0.02735 0.36601 0.0
C421 C 0.06463 0.01503 0.59214 0.0
C422 C 0.04576 0.00952 0.58321 0.0
C423 C 0.07726 0.01559 0.54177 0.0
C424 C 0.08045 0.0202 0.37155 0.0
H425 H 0.17323 0.01692 0.25413 0.0
H426 H 0.15009 0.0138 0.33742 0.0
H427 H 0.08984 0.02849 0.28058 0.0
H428 H 0.02531 1.00051 0.51423 0.0
H429 H 0.04722 1.00216 0.42573 0.0
H430 H 0.1062 0.99475 0.47621 0.0
C431 C 0.14509 0.01386 0.28965 0.0
C432 C 0.09355 0.02073 0.32238 0.0
C433 C 0.15845 0.01569 0.24176 0.0
C434 C 0.03969 0.00499 0.52252 0.0
C435 C 0.05224 0.0059 0.47187 0.0
C436 C 0.1025 1.00214 0.43362 0.0
C437 C 0.12563 0.01295 0.27621 0.0
C438 C 0.11132 0.01187 0.32792 0.0
C439 C 0.07124 0.01097 0.48109 0.0
C440 C 0.08487 0.01109 0.42798 0.0
H441 H 0.1286 0.01658 0.11722 0.0
H442 H 0.10528 0.01257 0.20029 0.0
H443 H 0.12873 0.99499 0.39016 0.0
H444 H 0.06974 0.01861 0.63833 0.0
H445 H 0.09176 0.01972 0.55024 0.0
C446 C 0.48957 0.14185 0.16662 0.0
C447 C 0.47386 0.15398 0.16821 0.0
C448 C 0.49186 0.12779 0.21238 0.0
C449 C 0.46457 0.1021 0.33678 0.0
H450 H 0.51423 0.08764 0.396 0.0
C451 C 0.47689 0.06062 0.56639 0.0
C452 C 0.48982 0.04558 0.56468 0.0
C453 C 0.4748 0.07263 0.51485 0.0
C454 C 0.50027 0.09141 0.37948 0.0
H455 H 0.4488 0.16151 0.22072 0.0
H456 H 0.45304 0.13771 0.30106 0.0
H457 H 0.51131 0.11123 0.31324 0.0
H458 H 0.51054 0.03112 0.50741 0.0
H459 H 0.50716 0.05239 0.41761 0.0
H460 H 0.45358 0.08274 0.40473 0.0
C461 C 0.46325 0.13832 0.26342 0.0
C462 C 0.49857 0.10491 0.33179 0.0
C463 C 0.46084 0.15212 0.21743 0.0
C464 C 0.50045 0.04262 0.51004 0.0
C465 C 0.49861 0.05484 0.45881 0.0
C466 C 0.46628 0.08884 0.38497 0.0
C467 C 0.47863 0.12572 0.2613 0.0
C468 C 0.48067 0.11063 0.31011 0.0
C469 C 0.48581 0.07004 0.46075 0.0
C470 C 0.48412 0.08344 0.40726 0.0
H471 H 0.49981 0.14294 0.12918 0.0
H472 H 0.50381 0.11832 0.2086 0.0
H473 H 0.45054 0.10562 0.32048 0.0
H474 H 0.46849 0.06321 0.60785 0.0
H475 H 0.4649 0.08426 0.51794 0.0
C476 C 0.37213 0.46574 0.17001 0.0
C477 C 0.35697 0.47859 0.16797 0.0
C478 C 0.38707 0.4683 0.21196 0.0
C479 C 0.41008 0.50274 0.31895 0.0
H480 H 0.4236 0.45782 0.41262 0.0
C481 C 0.44783 0.48215 0.56759 0.0
C482 C 0.46398 0.49363 0.56567 0.0
C483 C 0.43638 0.48009 0.51475 0.0
C484 C 0.41999 0.47051 0.38697 0.0
H485 H 0.34625 0.50481 0.20665 0.0
H486 H 0.3724 0.50941 0.27923 0.0
H487 H 0.40106 0.45551 0.32696 0.0
H488 H 0.48103 0.5117 0.50655 0.0
H489 H 0.46098 0.50816 0.41408 0.0
H490 H 0.42874 0.51779 0.38016 0.0
C491 C 0.37276 0.49733 0.2482 0.0
C492 C 0.40721 0.46916 0.33733 0.0
C493 C 0.35776 0.49472 0.20631 0.0
C494 C 0.46865 0.50276 0.50941 0.0
C495 C 0.4571 0.50083 0.45661 0.0
C496 C 0.42301 0.50407 0.36839 0.0
C497 C 0.38731 0.48385 0.25289 0.0
C498 C 0.40192 0.48527 0.30302 0.0
C499 C 0.44073 0.48957 0.45875 0.0
C500 C 0.42794 0.488 0.40355 0.0
H501 H 0.37218 0.45332 0.14044 0.0
H502 H 0.39824 0.45786 0.21331 0.0
H503 H 0.40643 0.51541 0.29332 0.0
H504 H 0.44389 0.47494 0.6103 0.0
H505 H 0.42381 0.47145 0.51831 0.0
C506 C 0.01189 0.3619 0.18755 0.0
C507 C 0.02702 0.34911 0.19224 0.0
C508 C 0.00947 0.37623 0.23235 0.0
C509 C 0.03637 0.40178 0.35692 0.0
H510 H 0.98688 0.41872 0.41055 0.0
C511 C 0.02459 0.44591 0.5806 0.0
C512 C 0.01188 0.46112 0.5778 0.0
C513 C 0.02647 0.43347 0.53015 0.0
C514 C 1.0008 0.41428 0.39552 0.0
H515 H 0.05079 0.34065 0.24938 0.0
H516 H 0.04631 0.36501 0.32798 0.0
H517 H 0.98952 0.3942 0.33051 0.0
H518 H 0.99135 0.47543 0.51961 0.0
H519 H 0.99444 0.45346 0.43143 0.0
H520 H 0.04761 0.42146 0.42322 0.0
C521 C 0.03669 0.36461 0.28873 0.0
C522 C 1.00233 0.40022 0.34949 0.0
C523 C 0.0392 0.35051 0.24381 0.0
C524 C 1.00128 0.46383 0.52302 0.0
C525 C 1.00295 0.45119 0.47277 0.0
C526 C 0.03482 0.41563 0.40327 0.0
C527 C 0.02203 0.37795 0.28319 0.0
C528 C 0.02016 0.39358 0.33006 0.0
C529 C 0.01551 0.4358 0.4759 0.0
C530 C 0.01704 0.42192 0.42365 0.0
H531 H 1.00232 0.36122 0.14817 0.0
H532 H 0.99808 0.38625 0.2261 0.0
H533 H 0.05037 0.39751 0.34217 0.0
H534 H 0.03294 0.44347 0.62221 0.0
H535 H 0.03616 0.42169 0.53431 0.0
C536 C 0.86917 1.00232 0.19314 0.0
C537 C 0.84993 0.99929 0.17994 0.0
C538 C 0.88291 1.0 0.14671 0.0
C539 C 0.89213 0.97959 0.9896 0.0
H540 H 0.92843 0.02039 0.97679 0.0
C541 C 0.93819 0.99125 0.76879 0.0
C542 C 0.95654 0.99842 0.77633 0.0
C543 C 0.92599 0.98964 0.82009 0.0
C544 C 0.91865 0.00868 0.9801 0.0
H545 H 0.83028 0.99071 0.10764 0.0
H546 H 0.85427 0.98645 0.027 0.0
H547 H 0.90598 0.02001 0.06283 0.0
H548 H 0.9767 0.00905 0.84372 0.0
H549 H 0.95565 0.00584 0.93348 0.0
H550 H 0.90478 0.96828 0.90665 0.0
C551 C 0.85873 0.99055 0.07345 0.0
C552 C 0.90572 0.00848 0.02958 0.0
C553 C 0.84495 0.99294 0.11986 0.0
C554 C 0.96261 0.00352 0.83643 0.0
C555 C 0.95046 1.00182 0.88782 0.0
C556 C 0.90516 0.97972 0.94021 0.0
C557 C 0.87783 0.99451 0.08586 0.0
C558 C 0.8922 0.99402 0.03478 0.0
C559 C 0.93188 0.99508 0.8803 0.0
C560 C 0.91852 0.99436 0.93446 0.0
H561 H 0.87358 0.00688 0.23914 0.0
H562 H 0.89753 1.0028 0.15827 0.0
H563 H 0.88205 0.96812 0.99256 0.0
H564 H 0.93311 0.98722 0.72297 0.0
H565 H 0.91176 0.98463 0.81211 0.0
C566 C 0.52135 0.8483 0.11107 0.0
C567 C 0.50796 0.84882 0.15975 0.0
C568 C 0.52269 0.86315 0.06795 0.0
C569 C 0.49415 0.90303 0.00494 0.0
H570 H 0.54118 0.91695 0.92435 0.0
C571 C 0.49835 0.96465 0.82816 0.0
C572 C 0.50781 0.96064 0.77199 0.0
C573 C 0.49968 0.95229 0.87909 0.0
C574 C 0.52792 0.91317 0.94632 0.0
H575 H 0.48588 0.86599 0.20166 0.0
H576 H 0.48889 0.89206 0.12898 0.0
H577 H 0.54131 0.89333 0.00755 0.0
H578 H 0.52668 0.94098 0.72582 0.0
H579 H 0.52915 0.91948 0.81486 0.0
H580 H 0.4808 0.92292 0.94385 0.0
C581 C 0.49803 0.87993 0.12289 0.0
C582 C 0.52797 0.89956 0.99393 0.0
C583 C 0.49655 0.86503 0.16554 0.0
C584 C 0.51919 0.94441 0.76852 0.0
C585 C 0.52068 0.93214 0.81962 0.0
C586 C 0.49414 0.91674 0.95785 0.0
C587 C 0.5108 0.87904 0.07254 0.0
C588 C 0.51104 0.89418 0.02366 0.0
C589 C 0.51067 0.93576 0.87518 0.0
C590 C 0.51099 0.92188 0.92758 0.0
H591 H 0.53062 0.83625 0.10543 0.0
H592 H 0.53264 0.86181 0.02977 0.0
H593 H 0.48075 0.89904 0.02546 0.0
H594 H 0.48951 0.97709 0.83225 0.0
H595 H 0.49198 0.9556 0.92145 0.0
C596 C 0.63545 0.50347 0.19346 0.0
C597 C 0.65464 0.50638 0.17902 0.0
C598 C 0.62144 0.50644 0.14853 0.0
C599 C 0.61107 0.52907 0.9965 0.0
H600 H 0.57555 0.48782 0.97726 0.0
C601 C 0.56531 0.52019 0.77492 0.0
C602 C 0.54737 0.5119 0.7802 0.0
C603 C 0.57723 0.52147 0.82682 0.0
C604 C 0.58506 0.49968 0.98252 0.0
H605 H 0.67391 0.51555 0.10623 0.0
H606 H 0.64939 0.52106 0.02824 0.0
H607 H 0.59834 0.48711 0.06215 0.0
H608 H 0.52752 0.49907 0.84444 0.0
H609 H 0.54804 0.5018 0.93568 0.0
H610 H 0.59779 0.54169 0.91695 0.0
C611 C 0.64524 0.51645 0.07451 0.0
C612 C 0.59821 0.49923 0.03125 0.0
C613 C 0.65931 0.51334 0.11937 0.0
C614 C 0.54131 0.50547 0.83895 0.0
C615 C 0.55317 0.5069 0.8911 0.0
C616 C 0.59779 0.52962 0.94805 0.0
C617 C 0.62619 0.51257 0.08809 0.0
C618 C 0.61151 0.5138 0.03845 0.0
C619 C 0.57144 0.51464 0.88558 0.0
C620 C 0.58474 0.5148 0.93985 0.0
H621 H 0.63127 0.4985 0.23928 0.0
H622 H 0.60686 0.50366 0.16084 0.0
H623 H 0.62098 0.54062 1.00123 0.0
H624 H 0.57038 0.52524 0.73019 0.0
H625 H 0.59123 0.52726 0.82022 0.0
C626 C 0.99295 0.66133 0.12139 0.0
C627 C 1.00285 0.65688 0.1764 0.0
C628 C 0.9893 0.64742 0.07641 0.0
C629 C 0.98967 0.59516 0.04872 0.0
H630 H 0.99722 0.61018 0.87637 0.0
C631 C 1.00119 0.54182 0.84504 0.0
C632 C 0.99294 0.54621 0.78714 0.0
C633 C 1.00023 0.55468 0.89482 0.0
C634 C 0.9948 0.60576 0.92415 0.0
H635 H 0.0156 0.63392 0.22864 0.0
H636 H 0.00974 0.60989 0.14986 0.0
H637 H 0.99904 0.63377 0.95866 0.0
H638 H 0.97655 0.56709 0.73677 0.0
H639 H 0.97481 0.58942 0.82334 0.0
H640 H 0.98592 0.56699 0.01379 0.0
C641 C 0.00464 0.62409 0.1414 0.0
C642 C 0.99579 0.61934 0.97152 0.0
C643 C 0.00822 0.63796 0.18642 0.0
C644 C 0.98317 0.56337 0.78069 0.0
C645 C 0.98226 0.57622 0.83022 0.0
C646 C 0.98878 0.58153 1.00126 0.0
C647 C 0.99547 0.62868 0.08513 0.0
C648 C 0.99333 0.61425 0.03456 0.0
C649 C 0.99107 0.57221 0.88758 0.0
C650 C 0.99141 0.58666 0.93837 0.0
H651 H 0.98868 0.67573 0.11179 0.0
H652 H 0.98188 0.65145 0.03425 0.0
H653 H 0.98743 0.59071 0.09655 0.0
H654 H 0.00883 0.52869 0.85134 0.0
H655 H 0.00726 0.55118 0.93822 0.0
C656 C 0.06725 0.20356 0.12482 0.0
C657 C 0.07301 0.21988 0.15689 0.0
C658 C 0.06454 0.18662 0.15685 0.0
C659 C 0.05169 0.17074 0.31387 0.0
H660 H 0.05765 0.12092 0.241 0.0
C661 C 0.02751 0.10301 0.44038 0.0
C662 C 0.0172 0.09009 0.40408 0.0
C663 C 0.03685 0.11814 0.41225 0.0
C664 C 0.05585 0.13476 0.26177 0.0
H665 H 0.0819 0.23094 0.24653 0.0
H666 H 0.07748 0.20118 0.30256 0.0
H667 H 0.07142 0.14832 0.18865 0.0
H668 H 0.00869 0.08276 0.30992 0.0
H669 H 0.02486 0.10939 0.26066 0.0
H670 H 0.03589 0.15724 0.3864 0.0
C671 C 0.07465 0.2016 0.25286 0.0
C672 C 0.06376 0.15043 0.23192 0.0
C673 C 0.07727 0.2186 0.22082 0.0
C674 C 0.01641 0.0926 0.33905 0.0
C675 C 0.02585 0.10768 0.31084 0.0
C676 C 0.04389 0.15507 0.34383 0.0
C677 C 0.06759 0.18561 0.22164 0.0
C678 C 0.06147 0.16865 0.25705 0.0
C679 C 0.03613 0.12062 0.3472 0.0
C680 C 0.0456 0.13698 0.31753 0.0
H681 H 0.06353 0.20416 0.07577 0.0
H682 H 0.05888 0.17467 0.13142 0.0
H683 H 0.04933 0.18458 0.33395 0.0
H684 H 0.02822 0.10152 0.4907 0.0
H685 H 0.04473 0.12784 0.44139 0.0
C686 C 0.27208 0.05681 0.28288 0.0
C687 C 0.27308 0.05277 0.21862 0.0
C688 C 0.28553 0.04931 0.32397 0.0
C689 C 0.31673 0.00882 0.3395 0.0
H690 H 0.34978 0.04019 0.43964 0.0
C691 C 0.39128 0.9862 0.40541 0.0
C692 C 0.39935 0.99258 0.46136 0.0
C693 C 0.3731 0.99182 0.38875 0.0
C694 C 0.34039 0.03114 0.41327 0.0
H695 H 0.28884 0.03775 0.1471 0.0
H696 H 0.31214 0.02481 0.21847 0.0
H697 H 0.32283 0.05447 0.38615 0.0
H698 H 0.39433 0.0087 0.54595 0.0
H699 H 0.36242 0.01846 0.51692 0.0
H700 H 0.3344 0.98558 0.36492 0.0
C701 C 0.30106 0.03378 0.23704 0.0
C702 C 0.32502 0.03935 0.3826 0.0
C703 C 0.2879 0.04144 0.19613 0.0
C704 C 0.38853 0.00386 0.50195 0.0
C705 C 0.3703 0.00944 0.48538 0.0
C706 C 0.33194 1.00059 0.37053 0.0
C707 C 0.29982 0.03737 0.30131 0.0
C708 C 0.31357 0.02836 0.34355 0.0
C709 C 0.36256 0.00384 0.42789 0.0
C710 C 0.34439 0.01179 0.40565 0.0
H711 H 0.26073 0.06544 0.30132 0.0
H712 H 0.28442 0.05231 0.37347 0.0
H713 H 0.30786 1.00005 0.31023 0.0
H714 H 0.39937 0.97766 0.37299 0.0
H715 H 0.3677 0.98749 0.34365 0.0
C716 C 0.4621 0.29574 0.17935 0.0
C717 C 0.45221 0.28053 0.20585 0.0
C718 C 0.47046 0.30931 0.2173 0.0
C719 C 0.46925 0.33224 0.36749 0.0
H720 H 0.52174 0.34354 0.33085 0.0
C721 C 0.50762 0.39297 0.49172 0.0
C722 C 0.51761 0.40506 0.45145 0.0
C723 C 0.5017 0.37523 0.47113 0.0
C724 C 0.50709 0.34058 0.34159 0.0
H725 H 0.44266 0.26794 0.2926 0.0
H726 H 0.45703 0.2922 0.35951 0.0
H727 H 0.50596 0.31784 0.27587 0.0
H728 H 0.52996 0.40787 0.35934 0.0
H729 H 0.51941 0.3771 0.32284 0.0
H730 H 0.46998 0.35558 0.43072 0.0
C731 C 0.45837 0.29337 0.30924 0.0
C732 C 0.4981 0.32587 0.31028 0.0
C733 C 0.45017 0.27958 0.27112 0.0
C734 C 0.52242 0.39875 0.39142 0.0
C735 C 0.5164 0.38108 0.37068 0.0
C736 C 0.47819 0.34713 0.39841 0.0
C737 C 0.469 0.30804 0.2825 0.0
C738 C 0.47898 0.32192 0.32175 0.0
C739 C 0.50558 0.36931 0.40979 0.0
C740 C 0.49706 0.35179 0.38448 0.0
H741 H 0.46422 0.29667 0.12929 0.0
H742 H 0.47838 0.32066 0.19566 0.0
H743 H 0.45448 0.32944 0.37691 0.0
H744 H 0.504 0.39744 0.53866 0.0
H745 H 0.49371 0.36635 0.50275 0.0
C746 C 0.23836 0.48586 0.37065 0.0
C747 C 0.24069 0.49548 0.31382 0.0
C748 C 0.22627 0.49304 0.41653 0.0
C749 C 0.19547 0.53442 0.45667 0.0
H750 H 0.16104 0.49509 0.51037 0.0
C751 C 0.11573 0.54405 0.48264 0.0
C752 C 0.10584 0.53309 0.52648 0.0
C753 C 0.13533 0.54254 0.47759 0.0
C754 C 0.1707 0.50627 0.49735 0.0
H755 H 0.23305 0.52056 0.26152 0.0
H756 H 0.21165 0.53279 0.34029 0.0
H757 H 0.1909 0.48646 0.4635 0.0
H758 H 0.10887 0.51327 0.60311 0.0
H759 H 0.14308 0.51061 0.59419 0.0
H760 H 0.17439 0.55419 0.48679 0.0
C761 C 0.21942 0.51999 0.35061 0.0
C762 C 0.18793 0.50132 0.47047 0.0
C763 C 0.23163 0.51292 0.30514 0.0
C764 C 0.11607 0.52162 0.56807 0.0
C765 C 0.13565 0.52013 0.56313 0.0
C766 C 0.17812 0.53938 0.4832 0.0
C767 C 0.21611 0.50982 0.406 0.0
C768 C 0.20018 0.5153 0.44742 0.0
C769 C 0.1454 0.53005 0.51636 0.0
C770 C 0.16527 0.52532 0.50153 0.0
H771 H 0.24544 0.47252 0.37881 0.0
H772 H 0.22432 0.48504 0.45918 0.0
H773 H 0.20478 0.54554 0.44064 0.0
H774 H 0.10824 0.55295 0.44978 0.0
H775 H 0.14242 0.55019 0.44056 0.0
C776 C 0.07294 0.77333 0.09073 0.0
C777 C 0.07181 0.77545 0.15595 0.0
C778 C 0.07673 0.78889 0.05252 0.0
C779 C 0.0918 0.83934 0.05438 0.0
H780 H 0.05449 0.84468 0.9231 0.0
C781 C 0.06382 0.91095 0.97084 0.0
C782 C 0.05866 0.91331 0.90794 0.0
C783 C 0.07029 0.89351 0.99243 0.0
C784 C 0.06531 0.84331 0.95853 0.0
H785 H 0.07467 0.79544 0.23224 0.0
H786 H 0.08128 0.82243 0.16597 0.0
H787 H 0.05782 0.8146 0.97663 0.0
H788 H 0.05728 0.89948 0.81761 0.0
H789 H 0.06845 0.86891 0.85559 0.0
H790 H 0.09864 0.86839 0.038 0.0
C791 C 0.0795 0.80873 0.14417 0.0
C792 C 0.06725 0.82602 0.98925 0.0
C793 C 0.0757 0.79321 0.18229 0.0
C794 C 0.06082 0.89801 0.86659 0.0
C795 C 0.06726 0.88053 0.88825 0.0
C796 C 0.08985 0.85665 0.02368 0.0
C797 C 0.07948 0.80688 0.0788 0.0
C798 C 0.08008 0.82402 0.03888 0.0
C799 C 0.07173 0.87801 0.95167 0.0
C800 C 0.07615 0.85898 0.9768 0.0
H801 H 0.0703 0.75975 0.0691 0.0
H802 H 0.07691 0.78697 0.00232 0.0
H803 H 0.10204 0.83813 0.09173 0.0
H804 H 0.06208 0.92234 0.00413 0.0
H805 H 0.0733 0.89196 0.04177 0.0
C806 C 0.7263 0.07731 0.11761 0.0
C807 C 0.73553 0.05977 0.12116 0.0
C808 C 0.71117 0.07988 0.07649 0.0
C809 C 0.68499 0.05668 0.94538 0.0
H810 H 0.64138 0.08028 0.02262 0.0
C811 C 0.60858 0.03491 0.89711 0.0
C812 C 0.59499 0.04911 0.88734 0.0
C813 C 0.627 0.03958 0.91401 0.0
C814 C 0.65352 0.07396 0.99992 0.0
H815 H 0.7365 0.03136 0.08339 0.0
H816 H 0.71012 0.03565 0.01305 0.0
H817 H 0.67217 0.08289 0.07244 0.0
H818 H 0.5904 0.07947 0.88656 0.0
H819 H 0.62249 0.08749 0.91905 0.0
H820 H 0.66589 0.04664 0.87526 0.0
C821 C 0.71474 0.04765 0.04041 0.0
C822 C 0.67121 0.07551 0.02825 0.0
C823 C 0.7299 0.04515 0.081 0.0
C824 C 0.60036 0.06813 0.89478 0.0
C825 C 0.61876 0.07278 0.9128 0.0
C826 C 0.66726 0.05491 0.91761 0.0
C827 C 0.70489 0.0649 0.03863 0.0
C828 C 0.68704 0.06635 0.00242 0.0
C829 C 0.6322 0.05852 0.92255 0.0
C830 C 0.6513 0.06306 0.94569 0.0
H831 H 0.73049 0.08888 0.14767 0.0
H832 H 0.70409 0.09344 0.07559 0.0
H833 H 0.69696 0.04984 0.92341 0.0
H834 H 0.60493 0.02011 0.89325 0.0
H835 H 0.63704 0.02831 0.92247 0.0
C836 C 0.43009 0.7316 0.07357 0.0
C837 C 0.44923 0.736 0.08275 0.0
C838 C 0.42484 0.71811 0.029 0.0
C839 C 0.44451 0.68697 0.90233 0.0
H840 H 0.41069 0.64997 0.97488 0.0
C841 C 0.44536 0.61062 0.81393 0.0
C842 C 0.44566 0.597 0.86163 0.0
C843 C 0.43986 0.62919 0.82683 0.0
C844 C 0.42019 0.66013 0.95386 0.0
H845 H 0.47764 0.7313 0.04831 0.0
H846 H 0.46875 0.70745 0.97308 0.0
H847 H 0.41276 0.68121 0.02073 0.0
H848 H 0.43989 0.59183 0.95945 0.0
H849 H 0.43103 0.62419 0.98281 0.0
H850 H 0.45338 0.66534 0.83953 0.0
C851 C 0.45762 0.71436 0.99921 0.0
C852 C 0.42113 0.67824 0.97954 0.0
C853 C 0.46281 0.72787 0.04321 0.0
C854 C 0.43961 0.60204 0.92174 0.0
C855 C 0.4344 0.62063 0.9349 0.0
C856 C 0.44383 0.66876 0.87741 0.0
C857 C 0.43865 0.70877 0.99304 0.0
C858 C 0.43401 0.69159 0.95601 0.0
C859 C 0.43486 0.63457 0.88796 0.0
C860 C 0.43232 0.65484 0.9048 0.0
H861 H 0.4193 0.73772 0.10322 0.0
H862 H 0.41006 0.71442 0.02468 0.0
H863 H 0.45417 0.69707 0.88178 0.0
H864 H 0.44974 0.60699 0.76692 0.0
H865 H 0.44003 0.63941 0.78921 0.0
C866 C 0.78897 0.43252 0.18053 0.0
C867 C 0.77066 0.43468 0.15621 0.0
C868 C 0.80429 0.42943 0.14083 0.0
C869 C 0.83469 0.41856 0.04788 0.0
H870 H 0.83565 0.45538 0.91373 0.0
C871 C 0.90194 0.43286 0.90193 0.0
C872 C 0.90665 0.45212 0.89724 0.0
C873 C 0.8841 0.42735 0.92321 0.0
C874 C 0.83555 0.44493 0.95071 0.0
H875 H 0.75391 0.43368 0.07147 0.0
H876 H 0.78081 0.42846 0.00191 0.0
H877 H 0.8065 0.45014 0.97172 0.0
H878 H 0.89617 0.48065 0.91082 0.0
H879 H 0.86512 0.47105 0.94722 0.0
H880 H 0.86406 0.41416 0.02903 0.0
C881 C 0.78326 0.4294 0.05175 0.0
C882 C 0.8188 0.44176 0.98347 0.0
C883 C 0.76788 0.43241 0.09157 0.0
C884 C 0.89294 0.46571 0.91278 0.0
C885 C 0.87512 0.4602 0.93366 0.0
C886 C 0.85145 0.4217 0.01494 0.0
C887 C 0.80169 0.42849 0.07584 0.0
C888 C 0.81835 0.429 0.03376 0.0
C889 C 0.87057 0.44097 0.93979 0.0
C890 C 0.85219 0.43538 0.96743 0.0
H891 H 0.79172 0.43447 0.22987 0.0
H892 H 0.81833 0.42905 0.16086 0.0
H893 H 0.83472 0.4085 0.08601 0.0
H894 H 0.91206 0.42203 0.88933 0.0
H895 H 0.88092 0.41242 0.92698 0.0
C896 C 0.00713 0.21231 0.84254 0.0
C897 C 0.01217 0.21627 0.90483 0.0
C898 C 0.00541 0.19362 0.82157 0.0
C899 C 0.9998 0.14403 0.87641 0.0
H900 H 0.02185 0.13122 0.71602 0.0
C901 C 0.01044 0.06629 0.80089 0.0
C902 C 0.00729 0.06149 0.73798 0.0
C903 C 0.0107 0.08521 0.82001 0.0
C904 C 0.01538 0.13454 0.76056 0.0
H905 H 0.01922 0.20333 0.99376 0.0
H906 H 0.01594 0.17093 0.95754 0.0
H907 H 0.022 0.16396 0.75151 0.0
H908 H 1.00216 0.07304 0.64567 0.0
H909 H 1.00238 0.106 0.67907 0.0
H910 H 0.99312 0.11467 0.88555 0.0
C911 C 0.01312 0.18229 0.92496 0.0
C912 C 0.01547 0.15337 0.78095 0.0
C913 C 0.01492 0.20096 0.94587 0.0
C914 C 0.00468 0.07618 0.6945 0.0
C915 C 0.00489 0.09513 0.71367 0.0
C916 C 0.99964 0.12522 0.85595 0.0
C917 C 0.0086 0.17833 0.8623 0.0
C918 C 0.00779 0.15837 0.83938 0.0
C919 C 0.00776 0.09994 0.77685 0.0
C920 C 0.00756 0.12014 0.79791 0.0
H921 H 0.00467 0.22368 0.80969 0.0
H922 H 1.0016 0.19113 0.77327 0.0
H923 H 0.99348 0.14735 0.9212 0.0
H924 H 0.01259 0.0554 0.83571 0.0
H925 H 0.01334 0.08828 0.86878 0.0
C926 C 0.29505 0.03491 0.85152 0.0
C927 C 0.28588 0.01969 0.88109 0.0
C928 C 0.31362 0.03316 0.82972 0.0
C929 C 0.35062 0.99852 0.78514 0.0
H930 H 0.38465 0.04022 0.81834 0.0
C931 C 0.42695 1.00225 0.68338 0.0
C932 C 0.44126 0.00857 0.72396 0.0
C933 C 0.40786 1.00335 0.70081 0.0
C934 C 0.37539 0.02839 0.80888 0.0
H935 H 0.28916 0.99047 0.90936 0.0
H936 H 0.32165 0.98741 0.87132 0.0
H937 H 0.35179 0.04223 0.85173 0.0
H938 H 0.44653 0.02104 0.81484 0.0
H939 H 0.41339 0.02297 0.84502 0.0
H940 H 0.37436 0.98463 0.74278 0.0
C941 C 0.31435 1.00072 0.86485 0.0
C942 C 0.35645 0.02963 0.82749 0.0
C943 C 0.29576 1.00251 0.88711 0.0
C944 C 0.43595 0.01608 0.78225 0.0
C945 C 0.41689 0.01728 0.79948 0.0
C946 C 0.36956 0.99735 0.76603 0.0
C947 C 0.32362 0.01612 0.83661 0.0
C948 C 0.34379 0.0147 0.81605 0.0
C949 C 0.40256 0.01091 0.7591 0.0
C950 C 0.38224 0.01224 0.77794 0.0
H951 H 0.28807 0.04845 0.84678 0.0
H952 H 0.32018 0.04525 0.80761 0.0
H953 H 0.34126 0.98681 0.77513 0.0
H954 H 0.43047 0.99633 0.6382 0.0
H955 H 0.39723 0.99847 0.66826 0.0
C956 C 0.49242 0.29409 0.82872 0.0
C957 C 0.48891 0.29026 0.89222 0.0
C958 C 0.49511 0.3127 0.80776 0.0
C959 C 0.50533 0.36177 0.86411 0.0
H960 H 0.48336 0.37658 0.70567 0.0
C961 C 0.49689 0.44027 0.79337 0.0
C962 C 0.50075 0.44536 0.7311 0.0
C963 C 0.49619 0.42125 0.81136 0.0
C964 C 0.48977 0.37266 0.74972 0.0
H965 H 0.48538 0.30328 0.98324 0.0
H966 H 0.48995 0.33549 0.947 0.0
H967 H 0.48123 0.34378 0.73995 0.0
H968 H 0.50676 0.43417 0.63886 0.0
H969 H 0.50547 0.40102 0.67016 0.0
H970 H 0.51361 0.39071 0.87426 0.0
C971 C 0.49106 0.32413 0.9133 0.0
C972 C 0.48859 0.35378 0.76942 0.0
C973 C 0.48846 0.30556 0.93424 0.0
C974 C 0.50372 0.43084 0.68717 0.0
C975 C 0.50289 0.41178 0.70512 0.0
C976 C 0.50642 0.38064 0.84457 0.0
C977 C 0.49427 0.32805 0.84964 0.0
C978 C 0.49624 0.34805 0.82718 0.0
C979 C 0.49922 0.40671 0.76759 0.0
C980 C 0.49854 0.38641 0.78731 0.0
H981 H 0.49304 0.28269 0.79504 0.0
H982 H 0.49787 0.31503 0.7586 0.0
H983 H 0.51175 0.35793 0.90821 0.0
H984 H 0.4945 0.45101 0.82857 0.0
H985 H 0.49304 0.41793 0.85965 0.0
C986 C 0.20842 0.49881 0.88149 0.0
C987 C 0.21282 0.48217 0.91445 0.0
C988 C 0.19014 0.50176 0.85778 0.0
C989 C 0.14087 0.48899 0.88767 0.0
H990 H 0.13088 0.5019 0.71487 0.0
C991 C 0.06506 0.48639 0.79048 0.0
C992 C 0.05963 0.49906 0.74333 0.0
C993 C 0.08393 0.4851 0.80945 0.0
C994 C 0.13334 0.49862 0.76358 0.0
H995 H 0.20132 0.45578 0.94905 0.0
H996 H 0.16956 0.46108 0.90882 0.0
H997 H 0.1635 0.49885 0.75113 0.0
H998 H 0.06984 0.52049 0.67937 0.0
H999 H 0.10259 0.51901 0.71475 0.0
H1000 H 0.11101 0.48922 0.90138 0.0
C1001 C 0.18025 0.47173 0.90059 0.0
C1002 C 0.15209 0.49681 0.78421 0.0
C1003 C 0.19852 0.46863 0.92317 0.0
C1004 C 0.07357 0.51047 0.71557 0.0
C1005 C 0.09243 0.50949 0.73558 0.0
C1006 C 0.1222 0.4911 0.86747 0.0
C1007 C 0.17579 0.48835 0.8679 0.0
C1008 C 0.15604 0.49166 0.84627 0.0
C1009 C 0.09794 0.49676 0.78287 0.0
C1010 C 0.11806 0.4956 0.80481 0.0
H1011 H 0.21912 0.5095 0.87405 0.0
H1012 H 0.18709 0.51474 0.83294 0.0
H1013 H 0.14346 0.48531 0.93605 0.0
H1014 H 0.05473 0.47723 0.81233 0.0
H1015 H 0.08751 0.47475 0.84473 0.0
C1016 C 0.9966 0.79792 0.5046 0.0
C1017 C 0.99988 0.79402 0.44095 0.0
C1018 C 0.99459 0.81655 0.52585 0.0
C1019 C 0.00553 0.86609 0.4779 0.0
H1020 H 0.97439 0.879 0.62079 0.0
C1021 C 0.99235 0.94343 0.55343 0.0
C1022 C 0.99461 0.94753 0.6173 0.0
C1023 C 0.99201 0.92472 0.53229 0.0
C1024 C 0.98324 0.87558 0.58104 0.0
H1025 H 1.00296 0.80709 0.34968 0.0
H1026 H 0.99841 0.8392 0.38596 0.0
H1027 H 0.9748 0.84654 0.58216 0.0
H1028 H 0.99765 0.93503 0.70916 0.0
H1029 H 0.99688 0.90233 0.67228 0.0
H1030 H 0.01367 0.89523 0.47628 0.0
C1031 C 0.998 0.82791 0.42003 0.0
C1032 C 0.98354 0.85693 0.5589 0.0
C1033 C 1.00025 0.80932 0.39891 0.0
C1034 C 0.99607 0.93241 0.65967 0.0
C1035 C 0.99548 0.91366 0.63858 0.0
C1036 C 0.00503 0.88474 0.49954 0.0
C1037 C 0.99556 0.83187 0.48401 0.0
C1038 C 0.99474 0.85187 0.50703 0.0
C1039 C 0.99366 0.9096 0.57453 0.0
C1040 C 0.99393 0.88972 0.55146 0.0
H1041 H 0.99589 0.78658 0.53847 0.0
H1042 H 0.99285 0.81889 0.57549 0.0
H1043 H 0.01472 0.86281 0.43892 0.0
H1044 H 0.99121 0.95469 0.51938 0.0
H1045 H 0.9904 0.92207 0.48273 0.0
C1046 C 0.69579 1.00137 0.39657 0.0
C1047 C 0.71095 1.00099 0.4391 0.0
C1048 C 0.6771 0.99983 0.41729 0.0
C1049 C 0.64732 0.98726 0.55634 0.0
H1050 H 0.60978 0.01705 0.46868 0.0
C1051 C 0.57128 1.00074 0.65113 0.0
C1052 C 0.55643 0.99888 0.60796 0.0
C1053 C 0.59016 1.00017 0.6313 0.0
C1054 C 0.62006 0.00852 0.49339 0.0
H1055 H 0.71797 0.99784 0.53727 0.0
H1056 H 0.68548 0.99605 0.5735 0.0
H1057 H 0.64241 0.01738 0.43308 0.0
H1058 H 0.54993 0.9949 0.50979 0.0
H1059 H 0.58276 0.99413 0.4753 0.0
H1060 H 0.62482 0.97891 0.61776 0.0
C1061 C 0.68803 0.99722 0.52378 0.0
C1062 C 0.63883 0.00861 0.47277 0.0
C1063 C 0.70677 0.99852 0.50296 0.0
C1064 C 0.56096 0.99636 0.54447 0.0
C1065 C 0.5798 0.99603 0.52456 0.0
C1066 C 0.62855 0.98737 0.57743 0.0
C1067 C 0.67287 0.99813 0.48134 0.0
C1068 C 0.65277 0.9979 0.50366 0.0
C1069 C 0.59464 0.99796 0.56768 0.0
C1070 C 0.61468 0.99794 0.546 0.0
H1071 H 0.69824 1.0035 0.34715 0.0
H1072 H 0.66593 1.00017 0.38279 0.0
H1073 H 0.65748 0.9786 0.58098 0.0
H1074 H 0.56837 1.00253 0.7003 0.0
H1075 H 0.60125 1.0018 0.66568 0.0
C1076 C 0.51536 0.70191 0.416 0.0
C1077 C 0.50534 0.71521 0.45197 0.0
C1078 C 0.51802 0.68341 0.43764 0.0
C1079 C 0.51428 0.65272 0.57969 0.0
H1080 H 0.50786 0.61283 0.45739 0.0
C1081 C 0.50051 0.57468 0.64861 0.0
C1082 C 0.50983 0.56052 0.61427 0.0
C1083 C 0.50141 0.59364 0.63007 0.0
C1084 C 0.50992 0.62378 0.4921 0.0
H1085 H 0.49124 0.7196 0.54083 0.0
H1086 H 0.49541 0.68737 0.57772 0.0
H1087 H 0.50747 0.64568 0.42377 0.0
H1088 H 0.5274 0.55539 0.53291 0.0
H1089 H 0.52888 0.58838 0.5004 0.0
H1090 H 0.51626 0.63069 0.64817 0.0
C1091 C 0.50138 0.6912 0.5329 0.0
C1092 C 0.50976 0.64268 0.47277 0.0
C1093 C 0.4988 0.7097 0.51139 0.0
C1094 C 0.52002 0.56584 0.56058 0.0
C1095 C 0.52081 0.58479 0.54177 0.0
C1096 C 0.51431 0.6338 0.59906 0.0
C1097 C 0.51068 0.67765 0.49579 0.0
C1098 C 0.51184 0.65745 0.51629 0.0
C1099 C 0.51152 0.59894 0.57625 0.0
C1100 C 0.51204 0.61908 0.55554 0.0
H1101 H 0.52048 0.70552 0.36983 0.0
H1102 H 0.52557 0.67352 0.40817 0.0
H1103 H 0.51624 0.66363 0.61454 0.0
H1104 H 0.49226 0.57115 0.6895 0.0
H1105 H 0.49383 0.6041 0.65721 0.0
C1106 C 0.7968 0.49495 0.50138 0.0
C1107 C 0.79096 0.5058 0.44975 0.0
C1108 C 0.81526 0.49617 0.52411 0.0
C1109 C 0.85913 0.52523 0.51931 0.0
H1110 H 0.88268 0.4782 0.57001 0.0
C1111 C 0.93957 0.51823 0.56845 0.0
C1112 C 0.94503 0.50715 0.61994 0.0
C1113 C 0.92068 0.51882 0.54908 0.0
C1114 C 0.87628 0.49151 0.55675 0.0
H1115 H 0.80011 0.52704 0.38321 0.0
H1116 H 0.83247 0.5288 0.42183 0.0
H1117 H 0.8501 0.47814 0.53423 0.0
H1118 H 0.93477 0.48789 0.69106 0.0
H1119 H 0.90191 0.48902 0.65771 0.0
H1120 H 0.88554 0.53849 0.54114 0.0
C1121 C 0.82263 0.51946 0.4452 0.0
C1122 C 0.85752 0.4915 0.53627 0.0
C1123 C 0.80408 0.5183 0.42257 0.0
C1124 C 0.93111 0.49669 0.65158 0.0
C1125 C 0.91225 0.49721 0.63205 0.0
C1126 C 0.87796 0.52522 0.53956 0.0
C1127 C 0.82856 0.50817 0.49569 0.0
C1128 C 0.84863 0.50836 0.51748 0.0
C1129 C 0.90679 0.50823 0.58041 0.0
C1130 C 0.88675 0.50836 0.55873 0.0
H1131 H 0.7873 0.48494 0.52318 0.0
H1132 H 0.81915 0.48751 0.56376 0.0
H1133 H 0.85273 0.53852 0.50595 0.0
H1134 H 0.9499 0.52648 0.54294 0.0
H1135 H 0.91702 0.5273 0.50875 0.0
loop_
_geom_bond_atom_site_label_1
_geom_bond_atom_site_label_2
_geom_bond_distance
_geom_bond_site_symmetry_2
_ccdc_geom_bond_type
P0 O11 1.490 . S
P0 C14 1.812 . S
P0 C20 1.803 . S
P0 C26 1.819 . S
H1 C15 0.941 . S
H2 C16 0.939 . S
H3 C18 0.940 . S
H4 C19 0.940 . S
H5 C21 0.939 . S
H6 C22 0.942 . S
H7 C24 0.940 . S
H8 C25 0.939 . S
H9 C27 0.941 . S
H10 C31 0.939 . S
O11 P0 1.490 . S
H12 C28 0.939 . S
H13 C30 0.940 . S
C14 P0 1.812 . S
C14 C15 1.389 . S
C14 C19 1.391 . S
C15 H1 0.941 . S
C15 C14 1.389 . S
C15 C16 1.397 . S
C16 H2 0.939 . S
C16 C15 1.397 . S
C16 C17 1.378 . S
C17 C16 1.378 . S
C17 C18 1.378 . S
C18 H3 0.940 . S
C18 C17 1.378 . S
C18 C19 1.396 . S
C19 H4 0.940 . S
C19 C14 1.391 . S
C19 C18 1.396 . S
C20 P0 1.803 . S
C20 C21 1.378 . S
C20 C25 1.400 . S
C21 H5 0.939 . S
C21 C20 1.378 . S
C21 C22 1.361 . S
C22 H6 0.942 . S
C22 C21 1.361 . S
C22 C23 1.369 . S
C23 C22 1.369 . S
C23 C24 1.404 . S
C24 H7 0.940 . S
C24 C23 1.404 . S
C24 C25 1.389 . S
C25 H8 0.939 . S
C25 C20 1.400 . S
C25 C24 1.389 . S
C26 P0 1.819 . S
C26 C27 1.391 . S
C26 C31 1.391 . S
C27 H9 0.941 . S
C27 C26 1.391 . S
C27 C28 1.396 . S
C28 H12 0.939 . S
C28 C27 1.396 . S
C28 C29 1.397 . S
C29 C28 1.397 . S
C29 C30 1.385 . S
C30 H13 0.940 . S
C30 C29 1.385 . S
C30 C31 1.388 . S
C31 H10 0.939 . S
C31 C26 1.391 . S
C31 C30 1.388 . S
P32 O43 1.490 . S
P32 C46 1.812 . S
P32 C52 1.803 . S
P32 C58 1.819 . S
H33 C47 0.941 . S
H34 C48 0.939 . S
H35 C50 0.940 . S
H36 C51 0.940 . S
H37 C53 0.939 . S
H38 C54 0.942 . S
H39 C56 0.940 . S
H40 C57 0.939 . S
H41 C59 0.941 . S
H42 C63 0.939 1_655 S
O43 P32 1.490 . S
H44 C60 0.939 . S
H45 C62 0.940 . S
C46 P32 1.812 . S
C46 C47 1.389 . S
C46 C51 1.391 1_455 S
C47 H33 0.941 . S
C47 C46 1.389 . S
C47 C48 1.397 . S
C48 H34 0.939 . S
C48 C47 1.397 . S
C48 C49 1.378 . S
C49 C48 1.378 . S
C49 C50 1.378 1_455 S
C50 H35 0.940 . S
C50 C49 1.378 1_655 S
C50 C51 1.396 . S
C51 H36 0.940 . S
C51 C46 1.391 1_655 S
C51 C50 1.396 . S
C52 P32 1.803 . S
C52 C53 1.378 . S
C52 C57 1.400 1_455 S
C53 H37 0.939 . S
C53 C52 1.378 . S
C53 C54 1.361 . S
C54 H38 0.942 . S
C54 C53 1.361 . S
C54 C55 1.369 . S
C55 C54 1.369 . S
C55 C56 1.404 1_455 S
C56 H39 0.940 . S
C56 C55 1.404 1_655 S
C56 C57 1.389 . S
C57 H40 0.939 . S
C57 C52 1.400 1_655 S
C57 C56 1.389 . S
C58 P32 1.819 . S
C58 C59 1.391 . S
C58 C63 1.391 . S
C59 H41 0.941 . S
C59 C58 1.391 . S
C59 C60 1.396 . S
C60 H44 0.939 . S
C60 C59 1.396 . S
C60 C61 1.397 . S
C61 C60 1.397 . S
C61 C62 1.385 1_455 S
C62 H45 0.940 . S
C62 C61 1.385 1_655 S
C62 C63 1.388 1_655 S
C63 H42 0.939 1_455 S
C63 C58 1.391 . S
C63 C62 1.388 1_455 S
P64 O75 1.490 . S
P64 C78 1.812 . S
P64 C84 1.803 . S
P64 C90 1.819 . S
H65 C79 0.941 . S
H66 C80 0.939 . S
H67 C82 0.940 . S
H68 C83 0.971 . S
H69 C85 0.939 . S
H70 C86 0.942 . S
H71 C88 0.940 . S
H72 C89 0.939 . S
H73 C91 0.941 . S
H74 C95 0.939 1_565 S
O75 P64 1.490 . S
H76 C92 0.939 . S
H77 C94 0.940 . S
C78 P64 1.812 . S
C78 C79 1.389 . S
C78 C83 1.344 1_545 S
C79 H65 0.941 . S
C79 C78 1.389 . S
C79 C80 1.397 . S
C80 H66 0.939 . S
C80 C79 1.397 . S
C80 C81 1.378 . S
C81 C80 1.378 . S
C81 C82 1.378 1_545 S
C82 H67 0.940 . S
C82 C81 1.378 1_565 S
C82 C83 1.415 . S
C83 H68 0.971 . S
C83 C78 1.344 1_565 S
C83 C82 1.415 . S
C84 P64 1.803 . S
C84 C85 1.378 . S
C84 C89 1.400 1_545 S
C85 H69 0.939 . S
C85 C84 1.378 . S
C85 C86 1.361 . S
C86 H70 0.942 . S
C86 C85 1.361 . S
C86 C87 1.369 . S
C87 C86 1.369 . S
C87 C88 1.404 1_545 S
C88 H71 0.940 . S
C88 C87 1.404 1_565 S
C88 C89 1.389 . S
C89 H72 0.939 . S
C89 C84 1.400 1_565 S
C89 C88 1.389 . S
C90 P64 1.819 . S
C90 C91 1.391 . S
C90 C95 1.391 . S
C91 H73 0.941 . S
C91 C90 1.391 . S
C91 C92 1.396 . S
C92 H76 0.939 . S
C92 C91 1.396 . S
C92 C93 1.397 . S
C93 C92 1.397 . S
C93 C94 1.385 1_545 S
C94 H77 0.940 . S
C94 C93 1.385 1_565 S
C94 C95 1.388 1_565 S
C95 H74 0.939 1_545 S
C95 C90 1.391 . S
C95 C94 1.388 1_545 S
P96 O107 1.490 . S
P96 C110 1.812 . S
P96 C116 1.803 . S
P96 C122 1.819 . S
H97 C111 0.941 . S
H98 C112 0.939 . S
H99 C114 0.940 . S
H100 C115 0.940 . S
H101 C117 0.939 . S
H102 C118 0.942 . S
H103 C120 0.940 . S
H104 C121 0.939 . S
H105 C123 0.941 . S
H106 C127 0.939 . S
O107 P96 1.490 . S
H108 C124 0.939 . S
H109 C126 0.940 . S
C110 P96 1.812 . S
C110 C111 1.389 . S
C110 C115 1.391 . S
C111 H97 0.941 . S
C111 C110 1.389 . S
C111 C112 1.397 . S
C112 H98 0.939 . S
C112 C111 1.397 . S
C112 C113 1.378 . S
C113 C112 1.378 . S
C113 C114 1.378 . S
C114 H99 0.940 . S
C114 C113 1.378 . S
C114 C115 1.396 . S
C115 H100 0.940 . S
C115 C110 1.391 . S
C115 C114 1.396 . S
C116 P96 1.803 . S
C116 C117 1.378 . S
C116 C121 1.400 . S
C117 H101 0.939 . S
C117 C116 1.378 . S
C117 C118 1.361 . S
C118 H102 0.942 . S
C118 C117 1.361 . S
C118 C119 1.369 . S
C119 C118 1.369 . S
C119 C120 1.404 . S
C120 H103 0.940 . S
C120 C119 1.404 . S
C120 C121 1.389 . S
C121 H104 0.939 . S
C121 C116 1.400 . S
C121 C120 1.389 . S
C122 P96 1.819 . S
C122 C123 1.391 . S
C122 C127 1.391 . S
C123 H105 0.941 . S
C123 C122 1.391 . S
C123 C124 1.396 . S
C124 H108 0.939 . S
C124 C123 1.396 . S
C124 C125 1.397 . S
C125 C124 1.397 . S
C125 C126 1.385 . S
C126 H109 0.940 . S
C126 C125 1.385 . S
C126 C127 1.388 . S
C127 H106 0.939 . S
C127 C122 1.391 . S
C127 C126 1.388 . S
P128 O139 1.490 . S
P128 C142 1.812 1_554 S
P128 C148 1.803 . S
P128 C154 1.819 . S
H129 C143 0.941 . S
H130 C144 0.939 . S
H131 C146 0.940 . S
H132 C147 0.940 . S
H133 C149 0.939 . S
H134 C150 0.942 . S
H135 C152 0.940 . S
H136 C153 0.939 . S
H137 C155 0.941 . S
H138 C159 0.939 . S
O139 P128 1.490 . S
H140 C156 0.939 . S
H141 C158 0.940 . S
C142 P128 1.812 1_556 S
C142 C143 1.389 . S
C142 C147 1.391 . S
C143 H129 0.941 . S
C143 C142 1.389 . S
C143 C144 1.397 . S
C144 H130 0.939 . S
C144 C143 1.397 . S
C144 C145 1.378 . S
C145 C144 1.378 . S
C145 C146 1.378 . S
C146 H131 0.940 . S
C146 C145 1.378 . S
C146 C147 1.396 . S
C147 H132 0.940 . S
C147 C142 1.391 . S
C147 C146 1.396 . S
C148 P128 1.803 . S
C148 C149 1.378 . S
C148 C153 1.400 . S
C149 H133 0.939 . S
C149 C148 1.378 . S
C149 C150 1.361 . S
C150 H134 0.942 . S
C150 C149 1.361 . S
C150 C151 1.369 . S
C151 C150 1.369 . S
C151 C152 1.404 . S
C152 H135 0.940 . S
C152 C151 1.404 . S
C152 C153 1.389 . S
C153 H136 0.939 . S
C153 C148 1.400 . S
C153 C152 1.389 . S
C154 P128 1.819 . S
C154 C155 1.391 . S
C154 C159 1.391 . S
C155 H137 0.941 . S
C155 C154 1.391 . S
C155 C156 1.396 . S
C156 H140 0.939 . S
C156 C155 1.396 . S
C156 C157 1.397 . S
C157 C156 1.397 . S
C157 C158 1.385 . S
C158 H141 0.940 . S
C158 C157 1.385 . S
C158 C159 1.388 . S
C159 H138 0.939 . S
C159 C154 1.391 . S
C159 C158 1.388 . S
P160 O171 1.490 . S
P160 C174 1.812 1_554 S
P160 C180 1.803 . S
P160 C186 1.819 . S
H161 C175 0.941 . S
H162 C176 0.939 . S
H163 C178 0.940 . S
H164 C179 0.908 1_655 S
H165 C181 0.939 . S
H166 C182 0.942 . S
H167 C184 0.940 . S
H168 C185 0.915 1_655 S
H169 C187 0.941 . S
H170 C191 0.957 . S
O171 P160 1.490 . S
H172 C188 0.939 . S
H173 C190 0.940 . S
C174 P160 1.812 1_556 S
C174 C175 1.389 . S
C174 C179 1.445 . S
C175 H161 0.941 . S
C175 C174 1.389 . S
C175 C176 1.397 . S
C176 H162 0.939 . S
C176 C175 1.397 . S
C176 C177 1.378 . S
C177 C176 1.378 . S
C177 C178 1.378 1_455 S
C178 H163 0.940 . S
C178 C177 1.378 1_655 S
C178 C179 1.378 1_655 S
C179 H164 0.908 1_455 S
C179 C174 1.445 . S
C179 C178 1.378 1_455 S
C180 P160 1.803 . S
C180 C181 1.378 . S
C180 C185 1.439 . S
C181 H165 0.939 . S
C181 C180 1.378 . S
C181 C182 1.361 . S
C182 H166 0.942 . S
C182 C181 1.361 . S
C182 C183 1.369 . S
C183 C182 1.369 . S
C183 C184 1.404 1_455 S
C184 H167 0.940 . S
C184 C183 1.404 1_655 S
C184 C185 1.374 1_655 S
C185 H168 0.915 1_455 S
C185 C180 1.439 . S
C185 C184 1.374 1_455 S
C186 P160 1.819 . S
C186 C187 1.391 . S
C186 C191 1.391 . S
C187 H169 0.941 . S
C187 C186 1.391 . S
C187 C188 1.396 . S
C188 H172 0.939 . S
C188 C187 1.396 . S
C188 C189 1.397 . S
C189 C188 1.397 . S
C189 C190 1.385 1_455 S
C190 H173 0.940 . S
C190 C189 1.385 1_655 S
C190 C191 1.388 1_655 S
C191 H170 0.957 . S
C191 C186 1.391 . S
C191 C190 1.388 1_455 S
P192 O203 1.490 . S
P192 C206 1.812 1_554 S
P192 C212 1.803 . S
P192 C218 1.819 . S
H193 C207 0.941 . S
H194 C208 0.939 . S
H195 C210 0.940 . S
H196 C211 0.920 1_565 S
H197 C213 0.939 . S
H198 C214 0.942 . S
H199 C216 0.940 . S
H200 C217 0.928 1_565 S
H201 C219 0.941 . S
H202 C223 0.948 . S
O203 P192 1.490 . S
H204 C220 0.939 . S
H205 C222 0.940 . S
C206 P192 1.812 1_556 S
C206 C207 1.389 . S
C206 C211 1.424 . S
C207 H193 0.941 . S
C207 C206 1.389 . S
C207 C208 1.397 . S
C208 H194 0.939 . S
C208 C207 1.397 . S
C208 C209 1.378 . S
C209 C208 1.378 . S
C209 C210 1.378 1_545 S
C210 H195 0.940 . S
C210 C209 1.378 1_565 S
C210 C211 1.384 1_565 S
C211 H196 0.920 1_545 S
C211 C206 1.424 . S
C211 C210 1.384 1_545 S
C212 P192 1.803 . S
C212 C213 1.378 . S
C212 C217 1.419 . S
C213 H197 0.939 . S
C213 C212 1.378 . S
C213 C214 1.361 . S
C214 H198 0.942 . S
C214 C213 1.361 . S
C214 C215 1.369 . S
C215 C214 1.369 . S
C215 C216 1.404 1_545 S
C216 H199 0.940 . S
C216 C215 1.404 1_565 S
C216 C217 1.382 1_565 S
C217 H200 0.928 1_545 S
C217 C212 1.419 . S
C217 C216 1.382 1_545 S
C218 P192 1.819 . S
C218 C219 1.391 . S
C218 C223 1.391 . S
C219 H201 0.941 . S
C219 C218 1.391 . S
C219 C220 1.396 . S
C220 H204 0.939 . S
C220 C219 1.396 . S
C220 C221 1.397 . S
C221 C220 1.397 . S
C221 C222 1.385 1_545 S
C222 H205 0.940 . S
C222 C221 1.385 1_565 S
C222 C223 1.388 1_565 S
C223 H202 0.948 . S
C223 C218 1.391 . S
C223 C222 1.388 1_545 S
P224 O235 1.490 . S
P224 C238 1.812 1_554 S
P224 C244 1.803 . S
P224 C250 1.819 . S
H225 C239 0.941 . S
H226 C240 0.939 . S
H227 C242 0.940 . S
H228 C243 0.940 . S
H229 C245 0.939 . S
H230 C246 0.942 . S
H231 C248 0.940 . S
H232 C249 0.939 . S
H233 C251 0.941 . S
H234 C255 0.939 . S
O235 P224 1.490 . S
H236 C252 0.939 . S
H237 C254 0.940 . S
C238 P224 1.812 1_556 S
C238 C239 1.389 . S
C238 C243 1.391 . S
C239 H225 0.941 . S
C239 C238 1.389 . S
C239 C240 1.397 . S
C240 H226 0.939 . S
C240 C239 1.397 . S
C240 C241 1.378 . S
C241 C240 1.378 . S
C241 C242 1.378 . S
C242 H227 0.940 . S
C242 C241 1.378 . S
C242 C243 1.396 . S
C243 H228 0.940 . S
C243 C238 1.391 . S
C243 C242 1.396 . S
C244 P224 1.803 . S
C244 C245 1.378 . S
C244 C249 1.400 . S
C245 H229 0.939 . S
C245 C244 1.378 . S
C245 C246 1.361 . S
C246 H230 0.942 . S
C246 C245 1.361 . S
C246 C247 1.369 . S
C247 C246 1.369 . S
C247 C248 1.404 . S
C248 H231 0.940 . S
C248 C247 1.404 . S
C248 C249 1.389 . S
C249 H232 0.939 . S
C249 C244 1.400 . S
C249 C248 1.389 . S
C250 P224 1.819 . S
C250 C251 1.391 . S
C250 C255 1.391 . S
C251 H233 0.941 . S
C251 C250 1.391 . S
C251 C252 1.396 . S
C252 H236 0.939 . S
C252 C251 1.396 . S
C252 C253 1.397 . S
C253 C252 1.397 . S
C253 C254 1.385 . S
C254 H237 0.940 . S
C254 C253 1.385 . S
C254 C255 1.388 . S
C255 H234 0.939 . S
C255 C250 1.391 . S
C255 C254 1.388 . S
La256 C258 2.928 . S
La256 O276 2.521 . S
La256 O277 2.628 . S
La256 O278 2.554 . S
La256 O279 2.757 1_565 S
La256 O280 2.470 . S
La256 O285 2.482 1_455 S
La256 O287 2.503 1_565 S
La257 C267 2.928 . S
La257 O279 2.482 1_655 S
La257 O281 2.503 1_545 S
La257 O282 2.521 . S
La257 O283 2.628 . S
La257 O284 2.554 . S
La257 O285 2.757 1_545 S
La257 O286 2.470 . S
C258 La256 2.928 . S
C258 C259 1.503 . S
C258 O276 1.261 . S
C258 O277 1.243 . S
C259 C258 1.503 . S
C259 C260 1.394 . S
C259 C264 1.373 . S
C260 C259 1.394 . S
C260 C261 1.380 . S
C260 H288 0.930 . S
C261 C260 1.380 . S
C261 C262 1.376 . S
C261 H289 0.930 . S
C262 C261 1.376 . S
C262 C263 1.370 . S
C263 C262 1.370 . S
C263 C264 1.396 . S
C263 H290 0.929 1_455 S
C264 C259 1.373 . S
C264 C263 1.396 . S
C264 H291 0.929 1_455 S
C265 O278 1.264 . S
C265 O279 1.275 1_565 S
C266 O280 1.258 1_655 S
C266 O281 1.256 . S
C267 La257 2.928 . S
C267 C268 1.503 . S
C267 O282 1.261 . S
C267 O283 1.243 . S
C268 C267 1.503 . S
C268 C269 1.394 . S
C268 C273 1.373 . S
C269 C268 1.394 . S
C269 C270 1.380 . S
C269 H292 0.930 . S
C270 C269 1.380 . S
C270 C271 1.376 . S
C270 H293 0.930 . S
C271 C270 1.376 . S
C271 C272 1.370 . S
C272 C271 1.370 . S
C272 C273 1.396 . S
C272 H294 0.929 1_655 S
C273 C268 1.373 . S
C273 C272 1.396 . S
C273 H295 0.929 1_655 S
C274 O284 1.275 . S
C274 O285 1.269 1_545 S
C275 O286 1.258 1_455 S
C275 O287 1.256 . S
O276 La256 2.521 . S
O276 C258 1.261 . S
O277 La256 2.628 . S
O277 C258 1.243 . S
O278 La256 2.554 . S
O278 C265 1.264 . S
O279 La256 2.757 1_545 S
O279 La257 2.482 1_455 S
O279 C265 1.275 1_545 S
O280 La256 2.470 . S
O280 C266 1.258 1_455 S
O281 La257 2.503 1_565 S
O281 C266 1.256 . S
O282 La257 2.521 . S
O282 C267 1.261 . S
O283 La257 2.628 . S
O283 C267 1.243 . S
O284 La257 2.554 . S
O284 C274 1.275 . S
O285 La256 2.482 1_655 S
O285 La257 2.757 1_565 S
O285 C274 1.269 1_565 S
O286 La257 2.470 . S
O286 C275 1.258 1_655 S
O287 La256 2.503 1_545 S
O287 C275 1.256 . S
H288 C260 0.930 . S
H289 C261 0.930 . S
H290 C263 0.929 1_655 S
H291 C264 0.929 1_655 S
H292 C269 0.930 . S
H293 C270 0.930 . S
H294 C272 0.929 1_455 S
H295 C273 0.929 1_455 S
La296 C298 2.928 . S
La296 O316 2.521 . S
La296 O317 2.628 . S
La296 O318 2.554 . S
La296 O319 2.757 . S
La296 O320 2.470 . S
La296 O325 2.482 1_545 S
La296 O327 2.503 . S
La297 C307 2.928 . S
La297 O319 2.482 1_565 S
La297 O321 2.503 . S
La297 O322 2.521 . S
La297 O323 2.628 . S
La297 O324 2.554 . S
La297 O325 2.757 . S
La297 O326 2.470 . S
C298 La296 2.928 . S
C298 C299 1.503 . S
C298 O316 1.261 . S
C298 O317 1.243 . S
C299 C298 1.503 . S
C299 C300 1.394 . S
C299 C304 1.373 . S
C300 C299 1.394 . S
C300 C301 1.380 . S
C300 H328 0.930 . S
C301 C300 1.380 . S
C301 C302 1.376 . S
C301 H329 0.930 . S
C302 C301 1.376 . S
C302 C303 1.370 . S
C303 C302 1.370 . S
C303 C304 1.396 . S
C303 H330 0.929 1_545 S
C304 C299 1.373 . S
C304 C303 1.396 . S
C304 H331 0.929 1_545 S
C305 O318 1.240 . S
C305 O319 1.289 . S
C306 O320 1.258 1_565 S
C306 O321 1.256 . S
C307 La297 2.928 . S
C307 C308 1.503 . S
C307 O322 1.261 . S
C307 O323 1.243 . S
C308 C307 1.503 . S
C308 C309 1.394 . S
C308 C313 1.373 . S
C309 C308 1.394 . S
C309 C310 1.380 . S
C309 H332 0.930 . S
C310 C309 1.380 . S
C310 C311 1.376 . S
C310 H333 0.930 . S
C311 C310 1.376 . S
C311 C312 1.370 . S
C312 C311 1.370 . S
C312 C313 1.396 . S
C312 H334 0.929 1_565 S
C313 C308 1.373 . S
C313 C312 1.396 . S
C313 H335 0.929 1_565 S
C314 O324 1.240 . S
C314 O325 1.289 . S
C315 O326 1.258 1_545 S
C315 O327 1.256 . S
O316 La296 2.521 . S
O316 C298 1.261 . S
O317 La296 2.628 . S
O317 C298 1.243 . S
O318 La296 2.554 . S
O318 C305 1.240 . S
O319 La296 2.757 . S
O319 La297 2.482 1_545 S
O319 C305 1.289 . S
O320 La296 2.470 . S
O320 C306 1.258 1_545 S
O321 La297 2.503 . S
O321 C306 1.256 . S
O322 La297 2.521 . S
O322 C307 1.261 . S
O323 La297 2.628 . S
O323 C307 1.243 . S
O324 La297 2.554 . S
O324 C314 1.240 . S
O325 La296 2.482 1_565 S
O325 La297 2.757 . S
O325 C314 1.289 . S
O326 La297 2.470 . S
O326 C315 1.258 1_565 S
O327 La296 2.503 . S
O327 C315 1.256 . S
H328 C300 0.930 . S
H329 C301 0.930 . S
H330 C303 0.929 1_565 S
H331 C304 0.929 1_565 S
H332 C309 0.930 . S
H333 C310 0.930 . S
H334 C312 0.929 1_545 S
H335 C313 0.929 1_545 S
La336 C338 2.928 . S
La336 O356 2.521 . S
La336 O357 2.628 . S
La336 O358 2.554 . S
La336 O359 2.757 . S
La336 O360 2.470 . S
La336 O365 2.482 . S
La336 O367 2.503 . S
La337 C347 2.928 . S
La337 O359 2.482 . S
La337 O361 2.503 . S
La337 O362 2.521 . S
La337 O363 2.628 . S
La337 O364 2.554 . S
La337 O365 2.757 . S
La337 O366 2.470 . S
C338 La336 2.928 . S
C338 C339 1.503 . S
C338 O356 1.261 . S
C338 O357 1.243 . S
C339 C338 1.503 . S
C339 C340 1.394 . S
C339 C344 1.373 . S
C340 C339 1.394 . S
C340 C341 1.380 . S
C340 H368 0.930 . S
C341 C340 1.380 . S
C341 C342 1.376 . S
C341 H369 0.930 . S
C342 C341 1.376 . S
C342 C343 1.370 . S
C343 C342 1.370 . S
C343 C344 1.396 . S
C343 H370 0.929 . S
C344 C339 1.373 . S
C344 C343 1.396 . S
C344 H371 0.929 . S
C345 O358 1.240 . S
C345 O359 1.289 . S
C346 O360 1.258 . S
C346 O361 1.256 . S
C347 La337 2.928 . S
C347 C348 1.503 . S
C347 O362 1.261 . S
C347 O363 1.243 . S
C348 C347 1.503 . S
C348 C349 1.394 . S
C348 C353 1.373 . S
C349 C348 1.394 . S
C349 C350 1.380 . S
C349 H372 0.930 . S
C350 C349 1.380 . S
C350 C351 1.376 . S
C350 H373 0.930 . S
C351 C350 1.376 . S
C351 C352 1.370 . S
C352 C351 1.370 . S
C352 C353 1.396 . S
C352 H374 0.929 . S
C353 C348 1.373 . S
C353 C352 1.396 . S
C353 H375 0.929 . S
C354 O364 1.240 . S
C354 O365 1.289 . S
C355 O366 1.258 . S
C355 O367 1.256 . S
O356 La336 2.521 . S
O356 C338 1.261 . S
O357 La336 2.628 . S
O357 C338 1.243 . S
O358 La336 2.554 . S
O358 C345 1.240 . S
O359 La336 2.757 . S
O359 La337 2.482 . S
O359 C345 1.289 . S
O360 La336 2.470 . S
O360 C346 1.258 . S
O361 La337 2.503 . S
O361 C346 1.256 . S
O362 La337 2.521 . S
O362 C347 1.261 . S
O363 La337 2.628 . S
O363 C347 1.243 . S
O364 La337 2.554 . S
O364 C354 1.240 . S
O365 La336 2.482 . S
O365 La337 2.757 . S
O365 C354 1.289 . S
O366 La337 2.470 . S
O366 C355 1.258 . S
O367 La336 2.503 . S
O367 C355 1.256 . S
H368 C340 0.930 . S
H369 C341 0.930 . S
H370 C343 0.929 . S
H371 C344 0.929 . S
H372 C349 0.930 . S
H373 C350 0.930 . S
H374 C352 0.929 . S
H375 C353 0.929 . S
La376 C378 2.928 . S
La376 O396 2.521 . S
La376 O397 2.628 . S
La376 O398 2.554 . S
La376 O399 2.757 1_655 S
La376 O400 2.470 . S
La376 O405 2.482 . S
La376 O407 2.503 1_655 S
La377 C387 2.928 . S
La377 O399 2.482 . S
La377 O401 2.503 1_455 S
La377 O402 2.521 . S
La377 O403 2.628 . S
La377 O404 2.554 . S
La377 O405 2.757 1_455 S
La377 O406 2.470 . S
C378 La376 2.928 . S
C378 C379 1.503 . S
C378 O396 1.261 . S
C378 O397 1.243 . S
C379 C378 1.503 . S
C379 C380 1.394 . S
C379 C384 1.373 . S
C380 C379 1.394 . S
C380 C381 1.380 . S
C380 H408 0.930 . S
C381 C380 1.380 . S
C381 C382 1.376 . S
C381 H409 0.930 . S
C382 C381 1.376 . S
C382 C383 1.370 . S
C383 C382 1.370 . S
C383 C384 1.396 . S
C383 H410 0.929 . S
C384 C379 1.373 . S
C384 C383 1.396 . S
C384 H411 0.929 . S
C385 O398 1.262 . S
C385 O399 1.276 1_655 S
C386 O400 1.258 . S
C386 O401 1.256 . S
C387 La377 2.928 . S
C387 C388 1.503 . S
C387 O402 1.261 . S
C387 O403 1.243 . S
C388 C387 1.503 . S
C388 C389 1.394 . S
C388 C393 1.373 . S
C389 C388 1.394 . S
C389 C390 1.380 . S
C389 H412 0.930 . S
C390 C389 1.380 . S
C390 C391 1.376 . S
C390 H413 0.930 . S
C391 C390 1.376 . S
C391 C392 1.370 . S
C392 C391 1.370 . S
C392 C393 1.396 . S
C392 H414 0.929 . S
C393 C388 1.373 . S
C393 C392 1.396 . S
C393 H415 0.929 . S
C394 O404 1.274 . S
C394 O405 1.270 1_455 S
C395 O406 1.258 . S
C395 O407 1.256 . S
O396 La376 2.521 . S
O396 C378 1.261 . S
O397 La376 2.628 . S
O397 C378 1.243 . S
O398 La376 2.554 . S
O398 C385 1.262 . S
O399 La376 2.757 1_455 S
O399 La377 2.482 . S
O399 C385 1.276 1_455 S
O400 La376 2.470 . S
O400 C386 1.258 . S
O401 La377 2.503 1_655 S
O401 C386 1.256 . S
O402 La377 2.521 . S
O402 C387 1.261 . S
O403 La377 2.628 . S
O403 C387 1.243 . S
O404 La377 2.554 . S
O404 C394 1.274 . S
O405 La376 2.482 . S
O405 La377 2.757 1_655 S
O405 C394 1.270 1_655 S
O406 La377 2.470 . S
O406 C395 1.258 . S
O407 La376 2.503 1_455 S
O407 C395 1.256 . S
H408 C380 0.930 . S
H409 C381 0.930 . S
H410 C383 0.929 . S
H411 C384 0.929 . S
H412 C389 0.930 . S
H413 C390 0.930 . S
H414 C392 0.929 . S
H415 C393 0.929 . S
C416 C417 1.391 . S
C416 C418 1.327 . S
C416 H441 0.950 . S
C417 C416 1.391 . S
C417 C433 1.308 1_545 S
C418 C416 1.327 . S
C418 C437 1.429 . S
C418 H442 0.950 . S
C419 C436 1.574 . S
C419 C438 1.368 1_565 S
C419 H443 0.949 . S
H420 C424 0.949 . S
C421 C422 1.349 1_565 S
C421 C423 1.327 . S
C421 H444 0.950 . S
C422 C421 1.349 1_545 S
C422 C434 1.349 . S
C423 C421 1.327 . S
C423 C439 1.429 1_565 S
C423 H445 0.950 . S
C424 H420 0.949 . S
C424 C432 1.574 . S
C424 C440 1.368 . S
H425 C433 0.950 . S
H426 C431 0.950 . S
H427 C432 0.949 . S
H428 C434 0.950 . S
H429 C435 0.950 . S
H430 C436 0.949 . S
C431 H426 0.950 . S
C431 C433 1.327 . S
C431 C437 1.429 1_565 S
C432 C424 1.574 . S
C432 H427 0.949 . S
C432 C438 1.368 . S
C433 C417 1.308 1_565 S
C433 H425 0.950 . S
C433 C431 1.327 . S
C434 C422 1.349 . S
C434 H428 0.950 . S
C434 C435 1.327 . S
C435 H429 0.950 . S
C435 C434 1.327 . S
C435 C439 1.429 . S
C436 C419 1.574 . S
C436 H430 0.949 . S
C436 C440 1.368 1_565 S
C437 C418 1.429 . S
C437 C431 1.429 1_545 S
C437 C438 1.523 . S
C438 C419 1.368 1_545 S
C438 C432 1.368 . S
C438 C437 1.523 . S
C439 C423 1.429 1_545 S
C439 C435 1.429 . S
C439 C440 1.523 . S
C440 C424 1.368 . S
C440 C436 1.368 1_545 S
C440 C439 1.523 . S
H441 C416 0.950 . S
H442 C418 0.950 . S
H443 C419 0.949 . S
H444 C421 0.950 . S
H445 C423 0.950 . S
C446 C447 1.349 . S
C446 C448 1.327 . S
C446 H471 0.950 . S
C447 C446 1.349 . S
C447 C463 1.349 . S
C448 C446 1.327 . S
C448 C467 1.429 . S
C448 H472 0.950 . S
C449 C466 1.574 . S
C449 C468 1.368 . S
C449 H473 0.949 . S
H450 C454 0.949 . S
C451 C452 1.349 . S
C451 C453 1.327 . S
C451 H474 0.950 . S
C452 C451 1.349 . S
C452 C464 1.349 . S
C453 C451 1.327 . S
C453 C469 1.429 . S
C453 H475 0.950 . S
C454 H450 0.949 . S
C454 C462 1.574 . S
C454 C470 1.368 . S
H455 C463 0.950 . S
H456 C461 0.950 . S
H457 C462 0.949 . S
H458 C464 0.950 . S
H459 C465 0.950 . S
H460 C466 0.949 . S
C461 H456 0.950 . S
C461 C463 1.327 . S
C461 C467 1.429 . S
C462 C454 1.574 . S
C462 H457 0.949 . S
C462 C468 1.368 . S
C463 C447 1.349 . S
C463 H455 0.950 . S
C463 C461 1.327 . S
C464 C452 1.349 . S
C464 H458 0.950 . S
C464 C465 1.327 . S
C465 H459 0.950 . S
C465 C464 1.327 . S
C465 C469 1.429 . S
C466 C449 1.574 . S
C466 H460 0.949 . S
C466 C470 1.368 . S
C467 C448 1.429 . S
C467 C461 1.429 . S
C467 C468 1.523 . S
C468 C449 1.368 . S
C468 C462 1.368 . S
C468 C467 1.523 . S
C469 C453 1.429 . S
C469 C465 1.429 . S
C469 C470 1.523 . S
C470 C454 1.368 . S
C470 C466 1.368 . S
C470 C469 1.523 . S
H471 C446 0.950 . S
H472 C448 0.950 . S
H473 C449 0.949 . S
H474 C451 0.950 . S
H475 C453 0.950 . S
C476 C477 1.349 . S
C476 C478 1.327 . S
C476 H501 0.950 . S
C477 C476 1.349 . S
C477 C493 1.349 . S
C478 C476 1.327 . S
C478 C497 1.429 . S
C478 H502 0.950 . S
C479 C496 1.574 . S
C479 C498 1.368 . S
C479 H503 0.949 . S
H480 C484 0.949 . S
C481 C482 1.349 . S
C481 C483 1.327 . S
C481 H504 0.950 . S
C482 C481 1.349 . S
C482 C494 1.349 . S
C483 C481 1.327 . S
C483 C499 1.429 . S
C483 H505 0.950 . S
C484 H480 0.949 . S
C484 C492 1.574 . S
C484 C500 1.368 . S
H485 C493 0.950 . S
H486 C491 0.950 . S
H487 C492 0.949 . S
H488 C494 0.950 . S
H489 C495 0.950 . S
H490 C496 0.949 . S
C491 H486 0.950 . S
C491 C493 1.327 . S
C491 C497 1.429 . S
C492 C484 1.574 . S
C492 H487 0.949 . S
C492 C498 1.368 . S
C493 C477 1.349 . S
C493 H485 0.950 . S
C493 C491 1.327 . S
C494 C482 1.349 . S
C494 H488 0.950 . S
C494 C495 1.327 . S
C495 H489 0.950 . S
C495 C494 1.327 . S
C495 C499 1.429 . S
C496 C479 1.574 . S
C496 H490 0.949 . S
C496 C500 1.368 . S
C497 C478 1.429 . S
C497 C491 1.429 . S
C497 C498 1.523 . S
C498 C479 1.368 . S
C498 C492 1.368 . S
C498 C497 1.523 . S
C499 C483 1.429 . S
C499 C495 1.429 . S
C499 C500 1.523 . S
C500 C484 1.368 . S
C500 C496 1.368 . S
C500 C499 1.523 . S
H501 C476 0.950 . S
H502 C478 0.950 . S
H503 C479 0.949 . S
H504 C481 0.950 . S
H505 C483 0.950 . S
C506 C507 1.349 1_655 S
C506 C508 1.327 . S
C506 H531 0.950 . S
C507 C506 1.349 1_455 S
C507 C523 1.349 . S
C508 C506 1.327 . S
C508 C527 1.429 1_655 S
C508 H532 0.950 . S
C509 C526 1.574 . S
C509 C528 1.368 . S
C509 H533 0.949 . S
H510 C514 0.949 . S
C511 C512 1.349 . S
C511 C513 1.327 . S
C511 H534 0.950 . S
C512 C511 1.349 . S
C512 C524 1.349 1_455 S
C513 C511 1.327 . S
C513 C529 1.429 . S
C513 H535 0.950 . S
C514 H510 0.949 . S
C514 C522 1.574 . S
C514 C530 1.368 1_655 S
H515 C523 0.950 . S
H516 C521 0.950 . S
H517 C522 0.949 . S
H518 C524 0.950 . S
H519 C525 0.950 . S
H520 C526 0.949 . S
C521 H516 0.950 . S
C521 C523 1.327 . S
C521 C527 1.429 . S
C522 C514 1.574 . S
C522 H517 0.949 . S
C522 C528 1.368 1_655 S
C523 C507 1.349 . S
C523 H515 0.950 . S
C523 C521 1.327 . S
C524 C512 1.349 1_655 S
C524 H518 0.950 . S
C524 C525 1.327 . S
C525 H519 0.950 . S
C525 C524 1.327 . S
C525 C529 1.429 1_655 S
C526 C509 1.574 . S
C526 H520 0.949 . S
C526 C530 1.368 . S
C527 C508 1.429 1_455 S
C527 C521 1.429 . S
C527 C528 1.523 . S
C528 C509 1.368 . S
C528 C522 1.368 1_455 S
C528 C527 1.523 . S
C529 C513 1.429 . S
C529 C525 1.429 1_455 S
C529 C530 1.523 . S
C530 C514 1.368 1_455 S
C530 C526 1.368 . S
C530 C529 1.523 . S
H531 C506 0.950 . S
H532 C508 0.950 . S
H533 C509 0.949 . S
H534 C511 0.950 . S
H535 C513 0.950 . S
C536 C537 1.322 1_545 S
C536 C538 1.327 . S
C536 H561 0.950 . S
C537 C536 1.322 1_565 S
C537 C553 1.377 . S
C538 C536 1.327 . S
C538 C557 1.396 1_545 S
C538 H562 0.950 . S
C539 C556 1.574 1_554 S
C539 C558 1.408 . S
C539 H563 0.949 . S
H540 C544 0.949 . S
C541 C542 1.349 . S
C541 C543 1.327 . S
C541 H564 0.950 . S
C542 C541 1.349 . S
C542 C554 1.349 1_565 S
C543 C541 1.327 . S
C543 C559 1.429 . S
C543 H565 0.950 . S
C544 H540 0.949 . S
C544 C552 1.574 1_556 S
C544 C560 1.324 1_545 S
H545 C553 0.950 . S
H546 C551 0.950 . S
H547 C552 0.949 . S
H548 C554 0.950 . S
H549 C555 0.950 . S
H550 C556 0.949 . S
C551 H546 0.950 . S
C551 C553 1.327 . S
C551 C557 1.461 . S
C552 C544 1.574 1_554 S
C552 H547 0.949 . S
C552 C558 1.330 1_545 S
C553 C537 1.377 . S
C553 H545 0.950 . S
C553 C551 1.327 . S
C554 C542 1.349 1_545 S
C554 H548 0.950 . S
C554 C555 1.327 . S
C555 H549 0.950 . S
C555 C554 1.327 . S
C555 C559 1.429 1_545 S
C556 C539 1.574 1_556 S
C556 H550 0.949 . S
C556 C560 1.414 . S
C557 C538 1.396 1_565 S
C557 C551 1.461 . S
C557 C558 1.523 . S
C558 C539 1.408 . S
C558 C552 1.330 1_565 S
C558 C557 1.523 . S
C559 C543 1.429 . S
C559 C555 1.429 1_565 S
C559 C560 1.524 . S
C560 C544 1.324 1_565 S
C560 C556 1.414 . S
C560 C559 1.524 . S
H561 C536 0.950 . S
H562 C538 0.950 . S
H563 C539 0.949 . S
H564 C541 0.950 . S
H565 C543 0.950 . S
C566 C567 1.349 . S
C566 C568 1.327 . S
C566 H591 0.950 . S
C567 C566 1.349 . S
C567 C583 1.349 . S
C568 C566 1.327 . S
C568 C587 1.429 . S
C568 H592 0.950 . S
C569 C586 1.574 1_554 S
C569 C588 1.368 . S
C569 H593 0.949 . S
H570 C574 0.949 . S
C571 C572 1.349 . S
C571 C573 1.327 . S
C571 H594 0.950 . S
C572 C571 1.349 . S
C572 C584 1.349 . S
C573 C571 1.327 . S
C573 C589 1.429 . S
C573 H595 0.950 . S
C574 H570 0.949 . S
C574 C582 1.574 1_556 S
C574 C590 1.368 . S
H575 C583 0.950 . S
H576 C581 0.950 . S
H577 C582 0.949 . S
H578 C584 0.950 . S
H579 C585 0.950 . S
H580 C586 0.949 . S
C581 H576 0.950 . S
C581 C583 1.327 . S
C581 C587 1.429 . S
C582 C574 1.574 1_554 S
C582 H577 0.949 . S
C582 C588 1.368 . S
C583 C567 1.349 . S
C583 H575 0.950 . S
C583 C581 1.327 . S
C584 C572 1.349 . S
C584 H578 0.950 . S
C584 C585 1.327 . S
C585 H579 0.950 . S
C585 C584 1.327 . S
C585 C589 1.429 . S
C586 C569 1.574 1_556 S
C586 H580 0.949 . S
C586 C590 1.368 . S
C587 C568 1.429 . S
C587 C581 1.429 . S
C587 C588 1.523 . S
C588 C569 1.368 . S
C588 C582 1.368 . S
C588 C587 1.523 . S
C589 C573 1.429 . S
C589 C585 1.429 . S
C589 C590 1.523 . S
C590 C574 1.368 . S
C590 C586 1.368 . S
C590 C589 1.523 . S
H591 C566 0.950 . S
H592 C568 0.950 . S
H593 C569 0.949 . S
H594 C571 0.950 . S
H595 C573 0.950 . S
C596 C597 1.349 . S
C596 C598 1.327 . S
C596 H621 0.950 . S
C597 C596 1.349 . S
C597 C613 1.349 . S
C598 C596 1.327 . S
C598 C617 1.429 . S
C598 H622 0.950 . S
C599 C616 1.574 1_554 S
C599 C618 1.368 . S
C599 H623 0.949 . S
H600 C604 0.949 . S
C601 C602 1.349 . S
C601 C603 1.327 . S
C601 H624 0.950 . S
C602 C601 1.349 . S
C602 C614 1.349 . S
C603 C601 1.327 . S
C603 C619 1.429 . S
C603 H625 0.950 . S
C604 H600 0.949 . S
C604 C612 1.574 1_556 S
C604 C620 1.368 . S
H605 C613 0.950 . S
H606 C611 0.950 . S
H607 C612 0.949 . S
H608 C614 0.950 . S
H609 C615 0.950 . S
H610 C616 0.949 . S
C611 H606 0.950 . S
C611 C613 1.327 . S
C611 C617 1.429 . S
C612 C604 1.574 1_554 S
C612 H607 0.949 . S
C612 C618 1.368 . S
C613 C597 1.349 . S
C613 H605 0.950 . S
C613 C611 1.327 . S
C614 C602 1.349 . S
C614 H608 0.950 . S
C614 C615 1.327 . S
C615 H609 0.950 . S
C615 C614 1.327 . S
C615 C619 1.429 . S
C616 C599 1.574 1_556 S
C616 H610 0.949 . S
C616 C620 1.368 . S
C617 C598 1.429 . S
C617 C611 1.429 . S
C617 C618 1.523 . S
C618 C599 1.368 . S
C618 C612 1.368 . S
C618 C617 1.523 . S
C619 C603 1.429 . S
C619 C615 1.429 . S
C619 C620 1.523 . S
C620 C604 1.368 . S
C620 C616 1.368 . S
C620 C619 1.523 . S
H621 C596 0.950 . S
H622 C598 0.950 . S
H623 C599 0.949 . S
H624 C601 0.950 . S
H625 C603 0.950 . S
C626 C627 1.333 1_455 S
C626 C628 1.327 . S
C626 H651 0.950 . S
C627 C626 1.333 1_655 S
C627 C643 1.367 . S
C628 C626 1.327 . S
C628 C647 1.412 1_455 S
C628 H652 0.950 . S
C629 C646 1.574 . S
C629 C648 1.368 . S
C629 H653 0.949 . S
H630 C634 0.949 . S
C631 C632 1.349 . S
C631 C633 1.327 . S
C631 H654 0.950 . S
C632 C631 1.349 . S
C632 C644 1.349 1_655 S
C633 C631 1.327 . S
C633 C649 1.429 . S
C633 H655 0.950 . S
C634 H630 0.949 . S
C634 C642 1.574 . S
C634 C650 1.368 1_455 S
H635 C643 0.950 . S
H636 C641 0.950 . S
H637 C642 0.949 . S
H638 C644 0.950 . S
H639 C645 0.950 . S
H640 C646 0.949 . S
C641 H636 0.950 . S
C641 C643 1.327 . S
C641 C647 1.448 . S
C642 C634 1.574 . S
C642 H637 0.949 . S
C642 C648 1.368 1_456 S
C643 C627 1.367 . S
C643 H635 0.950 . S
C643 C641 1.327 . S
C644 C632 1.349 1_455 S
C644 H638 0.950 . S
C644 C645 1.327 . S
C645 H639 0.950 . S
C645 C644 1.327 . S
C645 C649 1.429 1_455 S
C646 C629 1.574 . S
C646 H640 0.949 . S
C646 C650 1.368 1_554 S
C647 C628 1.412 1_655 S
C647 C641 1.448 . S
C647 C648 1.524 . S
C648 C629 1.368 . S
C648 C642 1.368 1_654 S
C648 C647 1.524 . S
C649 C633 1.429 . S
C649 C645 1.429 1_655 S
C649 C650 1.523 . S
C650 C634 1.368 1_655 S
C650 C646 1.368 1_556 S
C650 C649 1.523 . S
H651 C626 0.950 . S
H652 C628 0.950 . S
H653 C629 0.949 . S
H654 C631 0.950 . S
H655 C633 0.950 . S
C656 C657 1.349 . S
C656 C658 1.327 . S
C656 H681 0.950 . S
C657 C656 1.349 . S
C657 C673 1.349 1_455 S
C658 C656 1.327 . S
C658 C677 1.429 1_455 S
C658 H682 0.950 . S
C659 C676 1.574 . S
C659 C678 1.368 . S
C659 H683 0.949 . S
H660 C664 0.949 . S
C661 C662 1.349 . S
C661 C663 1.327 . S
C661 H684 0.950 . S
C662 C661 1.349 . S
C662 C674 1.349 . S
C663 C661 1.327 . S
C663 C679 1.429 . S
C663 H685 0.950 . S
C664 H660 0.949 . S
C664 C672 1.574 . S
C664 C680 1.368 . S
H665 C673 0.950 . S
H666 C671 0.950 . S
H667 C672 0.949 1_455 S
H668 C674 0.950 . S
H669 C675 0.950 . S
H670 C676 0.949 . S
C671 H666 0.950 . S
C671 C673 1.327 . S
C671 C677 1.429 . S
C672 C664 1.574 . S
C672 H667 0.949 1_655 S
C672 C678 1.368 . S
C673 C657 1.349 1_655 S
C673 H665 0.950 . S
C673 C671 1.327 . S
C674 C662 1.349 . S
C674 H668 0.950 . S
C674 C675 1.327 . S
C675 H669 0.950 . S
C675 C674 1.327 . S
C675 C679 1.429 . S
C676 C659 1.574 . S
C676 H670 0.949 . S
C676 C680 1.368 . S
C677 C658 1.429 1_655 S
C677 C671 1.429 . S
C677 C678 1.523 . S
C678 C659 1.368 . S
C678 C672 1.368 . S
C678 C677 1.523 . S
C679 C663 1.429 . S
C679 C675 1.429 . S
C679 C680 1.523 . S
C680 C664 1.368 . S
C680 C676 1.368 . S
C680 C679 1.523 . S
H681 C656 0.950 . S
H682 C658 0.950 . S
H683 C659 0.949 . S
H684 C661 0.950 . S
H685 C663 0.950 . S
C686 C687 1.349 . S
C686 C688 1.327 . S
C686 H711 0.950 . S
C687 C686 1.349 . S
C687 C703 1.349 1_545 S
C688 C686 1.327 . S
C688 C707 1.429 1_545 S
C688 H712 0.950 . S
C689 C706 1.574 . S
C689 C708 1.368 . S
C689 H713 0.949 . S
H690 C694 0.934 1_545 S
C691 C692 1.349 . S
C691 C693 1.327 . S
C691 H714 0.950 . S
C692 C691 1.349 . S
C692 C704 1.349 . S
C693 C691 1.327 . S
C693 C709 1.429 . S
C693 H715 0.950 . S
C694 H690 0.934 1_565 S
C694 C702 1.575 . S
C694 C710 1.368 . S
H695 C703 0.950 . S
H696 C701 0.950 . S
H697 C702 0.944 1_545 S
H698 C704 0.950 . S
H699 C705 0.950 . S
H700 C706 0.949 . S
C701 H696 0.950 . S
C701 C703 1.327 . S
C701 C707 1.429 . S
C702 C694 1.575 . S
C702 H697 0.944 1_565 S
C702 C708 1.372 . S
C703 C687 1.349 1_565 S
C703 H695 0.950 . S
C703 C701 1.327 . S
C704 C692 1.349 . S
C704 H698 0.950 . S
C704 C705 1.327 . S
C705 H699 0.950 . S
C705 C704 1.327 . S
C705 C709 1.429 . S
C706 C689 1.574 . S
C706 H700 0.949 . S
C706 C710 1.368 . S
C707 C688 1.429 1_565 S
C707 C701 1.429 . S
C707 C708 1.523 . S
C708 C689 1.368 . S
C708 C702 1.372 . S
C708 C707 1.523 . S
C709 C693 1.429 . S
C709 C705 1.429 . S
C709 C710 1.523 . S
C710 C694 1.368 . S
C710 C706 1.368 . S
C710 C709 1.523 . S
H711 C686 0.950 . S
H712 C688 0.950 . S
H713 C689 0.949 . S
H714 C691 0.950 . S
H715 C693 0.950 . S
C716 C717 1.349 . S
C716 C718 1.327 . S
C716 H741 0.950 . S
C717 C716 1.349 . S
C717 C733 1.349 . S
C718 C716 1.327 . S
C718 C737 1.429 . S
C718 H742 0.950 . S
C719 C736 1.574 . S
C719 C738 1.368 . S
C719 H743 0.949 . S
H720 C724 0.949 . S
C721 C722 1.349 . S
C721 C723 1.327 . S
C721 H744 0.950 . S
C722 C721 1.349 . S
C722 C734 1.349 . S
C723 C721 1.327 . S
C723 C739 1.429 . S
C723 H745 0.950 . S
C724 H720 0.949 . S
C724 C732 1.574 . S
C724 C740 1.368 . S
H725 C733 0.950 . S
H726 C731 0.950 . S
H727 C732 0.949 . S
H728 C734 0.950 . S
H729 C735 0.950 . S
H730 C736 0.949 . S
C731 H726 0.950 . S
C731 C733 1.327 . S
C731 C737 1.429 . S
C732 C724 1.574 . S
C732 H727 0.949 . S
C732 C738 1.368 . S
C733 C717 1.349 . S
C733 H725 0.950 . S
C733 C731 1.327 . S
C734 C722 1.349 . S
C734 H728 0.950 . S
C734 C735 1.327 . S
C735 H729 0.950 . S
C735 C734 1.327 . S
C735 C739 1.429 . S
C736 C719 1.574 . S
C736 H730 0.949 . S
C736 C740 1.368 . S
C737 C718 1.429 . S
C737 C731 1.429 . S
C737 C738 1.523 . S
C738 C719 1.368 . S
C738 C732 1.368 . S
C738 C737 1.523 . S
C739 C723 1.429 . S
C739 C735 1.429 . S
C739 C740 1.523 . S
C740 C724 1.368 . S
C740 C736 1.368 . S
C740 C739 1.523 . S
H741 C716 0.950 . S
H742 C718 0.950 . S
H743 C719 0.949 . S
H744 C721 0.950 . S
H745 C723 0.950 . S
C746 C747 1.349 . S
C746 C748 1.327 . S
C746 H771 0.950 . S
C747 C746 1.349 . S
C747 C763 1.349 . S
C748 C746 1.327 . S
C748 C767 1.429 . S
C748 H772 0.950 . S
C749 C766 1.574 . S
C749 C768 1.368 . S
C749 H773 0.949 . S
H750 C754 0.949 . S
C751 C752 1.349 . S
C751 C753 1.327 . S
C751 H774 0.950 . S
C752 C751 1.349 . S
C752 C764 1.349 . S
C753 C751 1.327 . S
C753 C769 1.429 . S
C753 H775 0.950 . S
C754 H750 0.949 . S
C754 C762 1.574 . S
C754 C770 1.368 . S
H755 C763 0.950 . S
H756 C761 0.950 . S
H757 C762 0.949 . S
H758 C764 0.950 . S
H759 C765 0.950 . S
H760 C766 0.949 . S
C761 H756 0.950 . S
C761 C763 1.327 . S
C761 C767 1.429 . S
C762 C754 1.574 . S
C762 H757 0.949 . S
C762 C768 1.368 . S
C763 C747 1.349 . S
C763 H755 0.950 . S
C763 C761 1.327 . S
C764 C752 1.349 . S
C764 H758 0.950 . S
C764 C765 1.327 . S
C765 H759 0.950 . S
C765 C764 1.327 . S
C765 C769 1.429 . S
C766 C749 1.574 . S
C766 H760 0.949 . S
C766 C770 1.368 . S
C767 C748 1.429 . S
C767 C761 1.429 . S
C767 C768 1.523 . S
C768 C749 1.368 . S
C768 C762 1.368 . S
C768 C767 1.523 . S
C769 C753 1.429 . S
C769 C765 1.429 . S
C769 C770 1.523 . S
C770 C754 1.368 . S
C770 C766 1.368 . S
C770 C769 1.523 . S
H771 C746 0.950 . S
H772 C748 0.950 . S
H773 C749 0.949 . S
H774 C751 0.950 . S
H775 C753 0.950 . S
C776 C777 1.349 . S
C776 C778 1.327 . S
C776 H801 0.950 . S
C777 C776 1.349 . S
C777 C793 1.349 1_655 S
C778 C776 1.327 . S
C778 C797 1.429 1_655 S
C778 H802 0.950 . S
C779 C796 1.574 . S
C779 C798 1.368 . S
C779 H803 0.949 . S
H780 C784 0.935 1_655 S
C781 C782 1.349 . S
C781 C783 1.327 . S
C781 H804 0.950 . S
C782 C781 1.349 . S
C782 C794 1.349 . S
C783 C781 1.327 . S
C783 C799 1.429 . S
C783 H805 0.950 1_556 S
C784 H780 0.935 1_455 S
C784 C792 1.576 . S
C784 C800 1.368 . S
H785 C793 0.950 . S
H786 C791 0.950 . S
H787 C792 0.943 1_655 S
H788 C794 0.950 . S
H789 C795 0.950 . S
H790 C796 0.949 . S
C791 H786 0.950 . S
C791 C793 1.327 . S
C791 C797 1.429 . S
C792 C784 1.576 . S
C792 H787 0.943 1_455 S
C792 C798 1.373 1_556 S
C793 C777 1.349 1_455 S
C793 H785 0.950 . S
C793 C791 1.327 . S
C794 C782 1.349 . S
C794 H788 0.950 . S
C794 C795 1.327 . S
C795 H789 0.950 . S
C795 C794 1.327 . S
C795 C799 1.429 . S
C796 C779 1.574 . S
C796 H790 0.949 . S
C796 C800 1.368 1_554 S
C797 C778 1.429 1_455 S
C797 C791 1.429 . S
C797 C798 1.523 . S
C798 C779 1.368 . S
C798 C792 1.373 1_554 S
C798 C797 1.523 . S
C799 C783 1.429 . S
C799 C795 1.429 . S
C799 C800 1.523 . S
C800 C784 1.368 . S
C800 C796 1.368 1_556 S
C800 C799 1.523 . S
H801 C776 0.950 . S
H802 C778 0.950 . S
H803 C779 0.949 . S
H804 C781 0.950 . S
H805 C783 0.950 1_554 S
C806 C807 1.349 1_545 S
C806 C808 1.327 . S
C806 H831 0.950 . S
C807 C806 1.349 1_565 S
C807 C823 1.349 . S
C808 C806 1.327 . S
C808 C827 1.429 . S
C808 H832 0.950 . S
C809 C826 1.574 . S
C809 C828 1.368 1_565 S
C809 H833 0.949 . S
H810 C814 0.949 1_556 S
C811 C812 1.349 . S
C811 C813 1.327 . S
C811 H834 0.950 . S
C812 C811 1.349 . S
C812 C824 1.349 . S
C813 C811 1.327 . S
C813 C829 1.429 . S
C813 H835 0.950 1_545 S
C814 H810 0.949 1_554 S
C814 C822 1.574 . S
C814 C830 1.368 1_554 S
H815 C823 0.950 . S
H816 C821 0.950 . S
H817 C822 0.949 . S
H818 C824 0.950 . S
H819 C825 0.950 . S
H820 C826 0.949 1_556 S
C821 H816 0.950 . S
C821 C823 1.327 . S
C821 C827 1.429 1_565 S
C822 C814 1.574 . S
C822 H817 0.949 . S
C822 C828 1.368 . S
C823 C807 1.349 . S
C823 H815 0.950 . S
C823 C821 1.327 . S
C824 C812 1.349 . S
C824 H818 0.950 . S
C824 C825 1.327 . S
C825 H819 0.950 . S
C825 C824 1.327 . S
C825 C829 1.429 . S
C826 C809 1.574 . S
C826 H820 0.949 1_554 S
C826 C830 1.368 1_564 S
C827 C808 1.429 . S
C827 C821 1.429 1_545 S
C827 C828 1.523 . S
C828 C809 1.368 1_545 S
C828 C822 1.368 . S
C828 C827 1.523 . S
C829 C813 1.429 . S
C829 C825 1.429 . S
C829 C830 1.523 . S
C830 C814 1.368 1_556 S
C830 C826 1.368 1_546 S
C830 C829 1.523 . S
H831 C806 0.950 . S
H832 C808 0.950 . S
H833 C809 0.949 . S
H834 C811 0.950 . S
H835 C813 0.950 1_565 S
C836 C837 1.349 . S
C836 C838 1.327 . S
C836 H861 0.950 . S
C837 C836 1.349 . S
C837 C853 1.349 . S
C838 C836 1.327 . S
C838 C857 1.429 . S
C838 H862 0.950 . S
C839 C856 1.574 1_554 S
C839 C858 1.368 . S
C839 H863 0.949 1_554 S
H840 C844 0.949 . S
C841 C842 1.349 . S
C841 C843 1.327 . S
C841 H864 0.950 . S
C842 C841 1.349 . S
C842 C854 1.349 . S
C843 C841 1.327 . S
C843 C859 1.429 . S
C843 H865 0.950 . S
C844 H840 0.949 . S
C844 C852 1.574 . S
C844 C860 1.368 1_554 S
H845 C853 0.950 . S
H846 C851 0.950 . S
H847 C852 0.949 . S
H848 C854 0.950 . S
H849 C855 0.950 1_554 S
H850 C856 0.949 . S
C851 H846 0.950 . S
C851 C853 1.327 . S
C851 C857 1.429 . S
C852 C844 1.574 . S
C852 H847 0.949 . S
C852 C858 1.368 . S
C853 C837 1.349 . S
C853 H845 0.950 . S
C853 C851 1.327 . S
C854 C842 1.349 . S
C854 H848 0.950 . S
C854 C855 1.327 . S
C855 H849 0.950 1_556 S
C855 C854 1.327 . S
C855 C859 1.429 . S
C856 C839 1.574 1_556 S
C856 H850 0.949 . S
C856 C860 1.368 . S
C857 C838 1.429 . S
C857 C851 1.429 . S
C857 C858 1.523 . S
C858 C839 1.368 . S
C858 C852 1.368 . S
C858 C857 1.523 . S
C859 C843 1.429 . S
C859 C855 1.429 . S
C859 C860 1.523 . S
C860 C844 1.368 1_556 S
C860 C856 1.368 . S
C860 C859 1.523 . S
H861 C836 0.950 . S
H862 C838 0.950 . S
H863 C839 0.949 1_556 S
H864 C841 0.950 . S
H865 C843 0.950 . S
C866 C867 1.349 . S
C866 C868 1.327 . S
C866 H891 0.950 . S
C867 C866 1.349 . S
C867 C883 1.349 . S
C868 C866 1.327 . S
C868 C887 1.429 . S
C868 H892 0.950 . S
C869 C886 1.574 1_554 S
C869 C888 1.368 . S
C869 H893 0.949 . S
H870 C874 0.949 . S
C871 C872 1.349 . S
C871 C873 1.327 . S
C871 H894 0.950 . S
C872 C871 1.349 . S
C872 C884 1.349 . S
C873 C871 1.327 . S
C873 C889 1.429 . S
C873 H895 0.950 . S
C874 H870 0.949 . S
C874 C882 1.574 . S
C874 C890 1.368 1_554 S
H875 C883 0.950 . S
H876 C881 0.950 . S
H877 C882 0.949 . S
H878 C884 0.950 . S
H879 C885 0.950 . S
H880 C886 0.949 . S
C881 H876 0.950 . S
C881 C883 1.327 . S
C881 C887 1.429 . S
C882 C874 1.574 . S
C882 H877 0.949 . S
C882 C888 1.368 . S
C883 C867 1.349 . S
C883 H875 0.950 . S
C883 C881 1.327 . S
C884 C872 1.349 . S
C884 H878 0.950 . S
C884 C885 1.327 . S
C885 H879 0.950 . S
C885 C884 1.327 . S
C885 C889 1.429 . S
C886 C869 1.574 1_556 S
C886 H880 0.949 . S
C886 C890 1.368 . S
C887 C868 1.429 . S
C887 C881 1.429 . S
C887 C888 1.523 . S
C888 C869 1.368 . S
C888 C882 1.368 . S
C888 C887 1.523 . S
C889 C873 1.429 . S
C889 C885 1.429 . S
C889 C890 1.523 . S
C890 C874 1.368 1_556 S
C890 C886 1.368 . S
C890 C889 1.523 . S
H891 C866 0.950 . S
H892 C868 0.950 . S
H893 C869 0.949 . S
H894 C871 0.950 . S
H895 C873 0.950 . S
C896 C897 1.349 . S
C896 C898 1.327 . S
C896 H921 0.950 . S
C897 C896 1.349 . S
C897 C913 1.349 1_455 S
C898 C896 1.327 . S
C898 C917 1.429 . S
C898 H922 0.950 . S
C899 C916 1.574 . S
C899 C918 1.368 1_655 S
C899 H923 0.949 . S
H900 C904 0.949 . S
C901 C902 1.343 1_655 S
C901 C903 1.328 . S
C901 H924 0.955 . S
C902 C901 1.343 1_455 S
C902 C914 1.349 . S
C903 C901 1.328 . S
C903 C919 1.429 1_655 S
C903 H925 0.950 . S
C904 H900 0.949 . S
C904 C912 1.574 . S
C904 C920 1.368 . S
H905 C913 0.950 . S
H906 C911 0.950 . S
H907 C912 0.949 . S
H908 C914 0.950 . S
H909 C915 0.950 . S
H910 C916 0.949 . S
C911 H906 0.950 . S
C911 C913 1.327 . S
C911 C917 1.429 1_655 S
C912 C904 1.574 . S
C912 H907 0.949 . S
C912 C918 1.368 . S
C913 C897 1.349 1_655 S
C913 H905 0.950 . S
C913 C911 1.327 . S
C914 C902 1.349 . S
C914 H908 0.950 . S
C914 C915 1.327 . S
C915 H909 0.950 . S
C915 C914 1.327 . S
C915 C919 1.429 . S
C916 C899 1.574 . S
C916 H910 0.949 . S
C916 C920 1.368 1_655 S
C917 C898 1.429 . S
C917 C911 1.429 1_455 S
C917 C918 1.523 . S
C918 C899 1.368 1_455 S
C918 C912 1.368 . S
C918 C917 1.523 . S
C919 C903 1.429 1_455 S
C919 C915 1.429 . S
C919 C920 1.523 . S
C920 C904 1.368 . S
C920 C916 1.368 1_455 S
C920 C919 1.523 . S
H921 C896 0.950 . S
H922 C898 0.950 . S
H923 C899 0.949 . S
H924 C901 0.955 . S
H925 C903 0.950 . S
C926 C927 1.349 . S
C926 C928 1.327 . S
C926 H951 0.950 . S
C927 C926 1.349 . S
C927 C943 1.349 1_545 S
C928 C926 1.327 . S
C928 C947 1.429 . S
C928 H952 0.950 . S
C929 C946 1.574 . S
C929 C948 1.368 1_565 S
C929 H953 0.949 . S
H930 C934 0.949 . S
C931 C932 1.349 1_565 S
C931 C933 1.327 . S
C931 H954 0.950 . S
C932 C931 1.349 1_545 S
C932 C944 1.349 . S
C933 C931 1.327 . S
C933 C949 1.429 1_565 S
C933 H955 0.950 . S
C934 H930 0.949 . S
C934 C942 1.574 . S
C934 C950 1.368 . S
H935 C943 0.950 . S
H936 C941 0.950 . S
H937 C942 0.949 . S
H938 C944 0.950 . S
H939 C945 0.950 . S
H940 C946 0.949 . S
C941 H936 0.950 . S
C941 C943 1.327 . S
C941 C947 1.429 1_565 S
C942 C934 1.574 . S
C942 H937 0.949 . S
C942 C948 1.368 . S
C943 C927 1.349 1_565 S
C943 H935 0.950 . S
C943 C941 1.327 . S
C944 C932 1.349 . S
C944 H938 0.950 . S
C944 C945 1.327 . S
C945 H939 0.950 . S
C945 C944 1.327 . S
C945 C949 1.429 . S
C946 C929 1.574 . S
C946 H940 0.949 . S
C946 C950 1.368 1_565 S
C947 C928 1.429 . S
C947 C941 1.429 1_545 S
C947 C948 1.523 . S
C948 C929 1.368 1_545 S
C948 C942 1.368 . S
C948 C947 1.523 . S
C949 C933 1.429 1_545 S
C949 C945 1.429 . S
C949 C950 1.523 . S
C950 C934 1.368 . S
C950 C946 1.368 1_545 S
C950 C949 1.523 . S
H951 C926 0.950 . S
H952 C928 0.950 . S
H953 C929 0.949 . S
H954 C931 0.950 . S
H955 C933 0.950 . S
C956 C957 1.349 . S
C956 C958 1.327 . S
C956 H981 0.950 . S
C957 C956 1.349 . S
C957 C973 1.349 . S
C958 C956 1.327 . S
C958 C977 1.429 . S
C958 H982 0.950 . S
C959 C976 1.574 . S
C959 C978 1.368 . S
C959 H983 0.949 . S
H960 C964 0.949 . S
C961 C962 1.349 . S
C961 C963 1.327 . S
C961 H984 0.950 . S
C962 C961 1.349 . S
C962 C974 1.349 . S
C963 C961 1.327 . S
C963 C979 1.429 . S
C963 H985 0.950 . S
C964 H960 0.949 . S
C964 C972 1.574 . S
C964 C980 1.368 . S
H965 C973 0.950 . S
H966 C971 0.950 . S
H967 C972 0.949 . S
H968 C974 0.950 . S
H969 C975 0.950 . S
H970 C976 0.949 . S
C971 H966 0.950 . S
C971 C973 1.327 . S
C971 C977 1.429 . S
C972 C964 1.574 . S
C972 H967 0.949 . S
C972 C978 1.368 . S
C973 C957 1.349 . S
C973 H965 0.950 . S
C973 C971 1.327 . S
C974 C962 1.349 . S
C974 H968 0.950 . S
C974 C975 1.327 . S
C975 H969 0.950 . S
C975 C974 1.327 . S
C975 C979 1.429 . S
C976 C959 1.574 . S
C976 H970 0.949 . S
C976 C980 1.368 . S
C977 C958 1.429 . S
C977 C971 1.429 . S
C977 C978 1.523 . S
C978 C959 1.368 . S
C978 C972 1.368 . S
C978 C977 1.523 . S
C979 C963 1.429 . S
C979 C975 1.429 . S
C979 C980 1.523 . S
C980 C964 1.368 . S
C980 C976 1.368 . S
C980 C979 1.523 . S
H981 C956 0.950 . S
H982 C958 0.950 . S
H983 C959 0.949 . S
H984 C961 0.950 . S
H985 C963 0.950 . S
C986 C987 1.349 . S
C986 C988 1.327 . S
C986 H1011 0.950 . S
C987 C986 1.349 . S
C987 C1003 1.349 . S
C988 C986 1.327 . S
C988 C1007 1.429 . S
C988 H1012 0.950 . S
C989 C1006 1.574 . S
C989 C1008 1.368 . S
C989 H1013 0.949 . S
H990 C994 0.949 . S
C991 C992 1.349 . S
C991 C993 1.327 . S
C991 H1014 0.950 . S
C992 C991 1.349 . S
C992 C1004 1.349 . S
C993 C991 1.327 . S
C993 C1009 1.429 . S
C993 H1015 0.950 . S
C994 H990 0.949 . S
C994 C1002 1.574 . S
C994 C1010 1.368 . S
H995 C1003 0.950 . S
H996 C1001 0.950 . S
H997 C1002 0.949 . S
H998 C1004 0.950 . S
H999 C1005 0.950 . S
H1000 C1006 0.949 . S
C1001 H996 0.950 . S
C1001 C1003 1.327 . S
C1001 C1007 1.429 . S
C1002 C994 1.574 . S
C1002 H997 0.949 . S
C1002 C1008 1.368 . S
C1003 C987 1.349 . S
C1003 H995 0.950 . S
C1003 C1001 1.327 . S
C1004 C992 1.349 . S
C1004 H998 0.950 . S
C1004 C1005 1.327 . S
C1005 H999 0.950 . S
C1005 C1004 1.327 . S
C1005 C1009 1.429 . S
C1006 C989 1.574 . S
C1006 H1000 0.949 . S
C1006 C1010 1.368 . S
C1007 C988 1.429 . S
C1007 C1001 1.429 . S
C1007 C1008 1.523 . S
C1008 C989 1.368 . S
C1008 C1002 1.368 . S
C1008 C1007 1.523 . S
C1009 C993 1.429 . S
C1009 C1005 1.429 . S
C1009 C1010 1.523 . S
C1010 C994 1.368 . S
C1010 C1006 1.368 . S
C1010 C1009 1.523 . S
H1011 C986 0.950 . S
H1012 C988 0.950 . S
H1013 C989 0.949 . S
H1014 C991 0.950 . S
H1015 C993 0.950 . S
C1016 C1017 1.349 1_455 S
C1016 C1018 1.327 . S
C1016 H1041 0.950 . S
C1017 C1016 1.349 1_655 S
C1017 C1033 1.349 . S
C1018 C1016 1.327 . S
C1018 C1037 1.429 1_455 S
C1018 H1042 0.950 . S
C1019 C1036 1.574 . S
C1019 C1038 1.368 . S
C1019 H1043 0.949 . S
H1020 C1024 0.949 . S
C1021 C1022 1.349 . S
C1021 C1023 1.327 . S
C1021 H1044 0.950 . S
C1022 C1021 1.349 . S
C1022 C1034 1.349 . S
C1023 C1021 1.327 . S
C1023 C1039 1.429 . S
C1023 H1045 0.950 . S
C1024 H1020 0.949 . S
C1024 C1032 1.574 . S
C1024 C1040 1.368 1_455 S
H1025 C1033 0.950 . S
H1026 C1031 0.950 . S
H1027 C1032 0.949 . S
H1028 C1034 0.950 1_455 S
H1029 C1035 0.950 1_455 S
H1030 C1036 0.949 . S
C1031 H1026 0.950 . S
C1031 C1033 1.327 . S
C1031 C1037 1.429 . S
C1032 C1024 1.574 . S
C1032 H1027 0.949 . S
C1032 C1038 1.368 1_455 S
C1033 C1017 1.349 . S
C1033 H1025 0.950 . S
C1033 C1031 1.327 . S
C1034 C1022 1.349 . S
C1034 H1028 0.950 1_655 S
C1034 C1035 1.327 . S
C1035 H1029 0.950 1_655 S
C1035 C1034 1.327 . S
C1035 C1039 1.429 . S
C1036 C1019 1.574 . S
C1036 H1030 0.949 . S
C1036 C1040 1.368 . S
C1037 C1018 1.429 1_655 S
C1037 C1031 1.429 . S
C1037 C1038 1.523 . S
C1038 C1019 1.368 . S
C1038 C1032 1.368 1_655 S
C1038 C1037 1.523 . S
C1039 C1023 1.429 . S
C1039 C1035 1.429 . S
C1039 C1040 1.523 . S
C1040 C1024 1.368 1_655 S
C1040 C1036 1.368 . S
C1040 C1039 1.523 . S
H1041 C1016 0.950 . S
H1042 C1018 0.950 . S
H1043 C1019 0.949 . S
H1044 C1021 0.950 . S
H1045 C1023 0.950 . S
C1046 C1047 1.349 . S
C1046 C1048 1.327 . S
C1046 H1071 0.950 . S
C1047 C1046 1.349 . S
C1047 C1063 1.349 . S
C1048 C1046 1.327 . S
C1048 C1067 1.429 . S
C1048 H1072 0.950 . S
C1049 C1066 1.574 . S
C1049 C1068 1.368 . S
C1049 H1073 0.949 . S
H1050 C1054 0.949 . S
C1051 C1052 1.349 . S
C1051 C1053 1.327 . S
C1051 H1074 0.950 . S
C1052 C1051 1.349 . S
C1052 C1064 1.349 . S
C1053 C1051 1.327 . S
C1053 C1069 1.429 . S
C1053 H1075 0.950 . S
C1054 H1050 0.949 . S
C1054 C1062 1.574 . S
C1054 C1070 1.368 . S
H1055 C1063 0.951 . S
H1056 C1061 0.950 . S
H1057 C1062 0.949 . S
H1058 C1064 0.950 . S
H1059 C1065 0.950 . S
H1060 C1066 0.949 . S
C1061 H1056 0.950 . S
C1061 C1063 1.327 . S
C1061 C1067 1.429 . S
C1062 C1054 1.574 . S
C1062 H1057 0.949 . S
C1062 C1068 1.368 . S
C1063 C1047 1.349 . S
C1063 H1055 0.951 . S
C1063 C1061 1.327 . S
C1064 C1052 1.349 . S
C1064 H1058 0.950 . S
C1064 C1065 1.327 . S
C1065 H1059 0.950 . S
C1065 C1064 1.327 . S
C1065 C1069 1.429 . S
C1066 C1049 1.574 . S
C1066 H1060 0.949 . S
C1066 C1070 1.368 . S
C1067 C1048 1.429 . S
C1067 C1061 1.429 . S
C1067 C1068 1.523 . S
C1068 C1049 1.368 . S
C1068 C1062 1.368 . S
C1068 C1067 1.523 . S
C1069 C1053 1.429 . S
C1069 C1065 1.429 . S
C1069 C1070 1.523 . S
C1070 C1054 1.368 . S
C1070 C1066 1.368 . S
C1070 C1069 1.523 . S
H1071 C1046 0.950 . S
H1072 C1048 0.950 . S
H1073 C1049 0.949 . S
H1074 C1051 0.950 . S
H1075 C1053 0.950 . S
C1076 C1077 1.349 . S
C1076 C1078 1.327 . S
C1076 H1101 0.950 . S
C1077 C1076 1.349 . S
C1077 C1093 1.349 . S
C1078 C1076 1.327 . S
C1078 C1097 1.429 . S
C1078 H1102 0.950 . S
C1079 C1096 1.574 . S
C1079 C1098 1.368 . S
C1079 H1103 0.949 . S
H1080 C1084 0.949 . S
C1081 C1082 1.349 . S
C1081 C1083 1.327 . S
C1081 H1104 0.950 . S
C1082 C1081 1.349 . S
C1082 C1094 1.349 . S
C1083 C1081 1.327 . S
C1083 C1099 1.429 . S
C1083 H1105 0.950 . S
C1084 H1080 0.949 . S
C1084 C1092 1.574 . S
C1084 C1100 1.368 . S
H1085 C1093 0.950 . S
H1086 C1091 0.950 . S
H1087 C1092 0.949 . S
H1088 C1094 0.950 . S
H1089 C1095 0.950 . S
H1090 C1096 0.949 . S
C1091 H1086 0.950 . S
C1091 C1093 1.327 . S
C1091 C1097 1.429 . S
C1092 C1084 1.574 . S
C1092 H1087 0.949 . S
C1092 C1098 1.368 . S
C1093 C1077 1.349 . S
C1093 H1085 0.950 . S
C1093 C1091 1.327 . S
C1094 C1082 1.349 . S
C1094 H1088 0.950 . S
C1094 C1095 1.327 . S
C1095 H1089 0.950 . S
C1095 C1094 1.327 . S
C1095 C1099 1.429 . S
C1096 C1079 1.574 . S
C1096 H1090 0.949 . S
C1096 C1100 1.368 . S
C1097 C1078 1.429 . S
C1097 C1091 1.429 . S
C1097 C1098 1.523 . S
C1098 C1079 1.368 . S
C1098 C1092 1.368 . S
C1098 C1097 1.523 . S
C1099 C1083 1.429 . S
C1099 C1095 1.429 . S
C1099 C1100 1.523 . S
C1100 C1084 1.368 . S
C1100 C1096 1.368 . S
C1100 C1099 1.523 . S
H1101 C1076 0.950 . S
H1102 C1078 0.950 . S
H1103 C1079 0.949 . S
H1104 C1081 0.950 . S
H1105 C1083 0.950 . S
C1106 C1107 1.349 . S
C1106 C1108 1.327 . S
C1106 H1131 0.950 . S
C1107 C1106 1.349 . S
C1107 C1123 1.349 . S
C1108 C1106 1.327 . S
C1108 C1127 1.429 . S
C1108 H1132 0.950 . S
C1109 C1126 1.574 . S
C1109 C1128 1.368 . S
C1109 H1133 0.949 . S
H1110 C1114 0.949 . S
C1111 C1112 1.349 . S
C1111 C1113 1.327 . S
C1111 H1134 0.950 . S
C1112 C1111 1.349 . S
C1112 C1124 1.349 . S
C1113 C1111 1.327 . S
C1113 C1129 1.429 . S
C1113 H1135 0.950 . S
C1114 H1110 0.949 . S
C1114 C1122 1.574 . S
C1114 C1130 1.368 . S
H1115 C1123 0.950 . S
H1116 C1121 0.950 . S
H1117 C1122 0.949 . S
H1118 C1124 0.950 . S
H1119 C1125 0.950 . S
H1120 C1126 0.949 . S
C1121 H1116 0.950 . S
C1121 C1123 1.327 . S
C1121 C1127 1.429 . S
C1122 C1114 1.574 . S
C1122 H1117 0.949 . S
C1122 C1128 1.368 . S
C1123 C1107 1.349 . S
C1123 H1115 0.950 . S
C1123 C1121 1.327 . S
C1124 C1112 1.349 . S
C1124 H1118 0.950 . S
C1124 C1125 1.327 . S
C1125 H1119 0.950 . S
C1125 C1124 1.327 . S
C1125 C1129 1.429 . S
C1126 C1109 1.574 . S
C1126 H1120 0.949 . S
C1126 C1130 1.368 . S
C1127 C1108 1.429 . S
C1127 C1121 1.429 . S
C1127 C1128 1.523 . S
C1128 C1109 1.368 . S
C1128 C1122 1.368 . S
C1128 C1127 1.523 . S
C1129 C1113 1.429 . S
C1129 C1125 1.429 . S
C1129 C1130 1.523 . S
C1130 C1114 1.368 . S
C1130 C1126 1.368 . S
C1130 C1129 1.523 . S
H1131 C1106 0.950 . S
H1132 C1108 0.950 . S
H1133 C1109 0.949 . S
H1134 C1111 0.950 . S
H1135 C1113 0.950 . S
C417 C215 1.819 . S
C422 C265 1.914 1_545 S
C452 C305 1.918 . S
C447 C247 1.810 . S
C482 C345 1.917 . S
C477 C151 1.810 . S
C512 C385 1.915 1_455 S
C507 C183 1.810 . S
C542 C274 1.913 1_565 S
C537 C87 1.805 1_565 S
C567 C119 1.811 . S
C572 C314 1.918 . S
C597 C23 1.811 . S
C602 C354 1.917 . S
C627 C55 1.802 1_655 S
C632 C394 1.913 1_655 S
C662 C271 0.288 . S
C657 C189 0.226 . S
C692 C311 0.288 . S
C687 C221 0.226 . S
C722 C351 0.288 . S
C717 C253 0.226 . S
C747 C157 0.226 . S
C752 C391 0.288 . S
C777 C61 0.447 1_655 S
C782 C262 0.288 . S
C812 C302 0.288 . S
C807 C93 0.446 1_565 S
C842 C342 0.288 . S
C837 C125 0.447 . S
C867 C29 0.446 . S
C872 C382 0.288 . S
C897 C177 2.242 . S
C902 C275 2.472 . S
C927 C209 2.242 . S
C932 C315 2.472 . S
C962 C355 2.472 . S
C957 C241 2.242 . S
C992 C395 2.473 . S
C987 C145 2.242 . S
C1017 C49 2.260 1_655 S
C1022 C266 2.472 . S
C1052 C306 2.472 . S
C1047 C81 2.261 1_565 S
C1082 C346 2.472 . S
C1077 C113 2.260 . S
C1107 C17 2.261 . S
C1112 C386 2.472 . S
