# Generated by pormake.
# Topology anh, (6,3)-cn, num edge types: 1
# Building blocks:
#     Node 0, Type 0, BuildingBlock: BETGAK_clean_sbu_0, # of connection points: 6
#     Node 1, Type 0, BuildingBlock: BETGAK_clean_sbu_0, # of connection points: 6
#     Node 2, Type 0, BuildingBlock: BETGAK_clean_sbu_0, # of connection points: 6
#     Node 3, Type 1, BuildingBlock: QEWDON_clean_linker_0, # of connection points: 3
#     Node 4, Type 1, BuildingBlock: QEWDON_clean_linker_0, # of connection points: 3
#     Node 5, Type 1, BuildingBlock: QEWDON_clean_linker_0, # of connection points: 3
#     Node 6, Type 1, BuildingBlock: QEWDON_clean_linker_0, # of connection points: 3
#     Node 7, Type 1, BuildingBlock: QEWDON_clean_linker_0, # of connection points: 3
#     Node 8, Type 1, BuildingBlock: QEWDON_clean_linker_0, # of connection points: 3
#     Edge 9, Type (0, 1), BuildingBlock: TEMPAE_clean_linker_10, # of connection points: 2
#     Edge 10, Type (0, 1), BuildingBlock: TEMPAE_clean_linker_10, # of connection points: 2
#     Edge 11, Type (0, 1), BuildingBlock: TEMPAE_clean_linker_10, # of connection points: 2
#     Edge 12, Type (0, 1), BuildingBlock: TEMPAE_clean_linker_10, # of connection points: 2
#     Edge 13, Type (0, 1), BuildingBlock: TEMPAE_clean_linker_10, # of connection points: 2
#     Edge 14, Type (0, 1), BuildingBlock: TEMPAE_clean_linker_10, # of connection points: 2
#     Edge 15, Type (0, 1), BuildingBlock: TEMPAE_clean_linker_10, # of connection points: 2
#     Edge 16, Type (0, 1), BuildingBlock: TEMPAE_clean_linker_10, # of connection points: 2
#     Edge 17, Type (0, 1), BuildingBlock: TEMPAE_clean_linker_10, # of connection points: 2
#     Edge 18, Type (0, 1), BuildingBlock: TEMPAE_clean_linker_10, # of connection points: 2
#     Edge 19, Type (0, 1), BuildingBlock: TEMPAE_clean_linker_10, # of connection points: 2
#     Edge 20, Type (0, 1), BuildingBlock: TEMPAE_clean_linker_10, # of connection points: 2
#     Edge 21, Type (0, 1), BuildingBlock: TEMPAE_clean_linker_10, # of connection points: 2
#     Edge 22, Type (0, 1), BuildingBlock: TEMPAE_clean_linker_10, # of connection points: 2
#     Edge 23, Type (0, 1), BuildingBlock: TEMPAE_clean_linker_10, # of connection points: 2
#     Edge 24, Type (0, 1), BuildingBlock: TEMPAE_clean_linker_10, # of connection points: 2
#     Edge 25, Type (0, 1), BuildingBlock: TEMPAE_clean_linker_10, # of connection points: 2
#     Edge 26, Type (0, 1), BuildingBlock: TEMPAE_clean_linker_10, # of connection points: 2
# Relax obj value: 0.137
# Max RMSD: 0.171
# Mean RMSD: 0.126
data_MOF--net-anh--node1-BETGAK_clean_sbu_0--node2-QEWDON_clean_linker_0--edge1-TEMPAE_clean_linker_10
_symmetry_space_group_name_H-M    P1
_symmetry_Int_Tables_number       1
_symmetry_cell_setting            triclinic
loop_
_symmetry_equiv_pos_as_xyz
'x, y, z'
_cell_length_a     33.02294
_cell_length_b     39.594551
_cell_length_c     48.933401
_cell_angle_alpha  95.951172
_cell_angle_beta   92.099506
_cell_angle_gamma 129.60053
loop_
_atom_site_label
_atom_site_type_symbol
_atom_site_fract_x
_atom_site_fract_y
_atom_site_fract_z
_atom_type_partial_charge
La0 La 0.12403 0.52276 0.13906 0.0
La1 La 1.06849 0.55282 0.16511 0.0
C2 C 0.1807 0.51724 0.10945 0.0
C3 C 0.23858 0.5477 0.11122 0.0
C4 C 0.26942 0.57954 0.13516 0.0
C5 C 0.32451 0.60889 0.13732 0.0
C6 C 0.34978 0.60663 0.11566 0.0
C7 C 0.3188 0.57518 0.09144 0.0
C8 C 0.2634 0.54599 0.08919 0.0
C9 C 0.12857 0.52906 0.19326 0.0
C10 C 0.18536 0.62808 0.15619 0.0
C11 C 1.01955 0.56203 0.19915 0.0
C12 C 0.96628 0.53334 0.20752 0.0
C13 C 0.94429 0.55243 0.2166 0.0
C14 C 0.8908 0.52551 0.21994 0.0
C15 C 0.85807 0.47883 0.21391 0.0
C16 C 0.88142 0.45983 0.20715 0.0
C17 C 0.93531 0.48697 0.20413 0.0
C18 C 1.06655 0.54972 0.11115 0.0
C19 C 1.00589 0.44799 0.14617 0.0
O20 O 0.16176 0.49656 0.1307 0.0
O21 O 0.15875 0.5338 0.10234 0.0
O22 O 0.12714 0.49989 0.17748 0.0
O23 O 0.13165 0.55487 0.17884 0.0
O24 O 0.18428 0.5962 0.14333 0.0
O25 O 0.14543 0.61888 0.16883 0.0
O26 O 1.0217 0.57035 0.17378 0.0
O27 O 1.05022 0.55306 0.20568 0.0
O28 O 1.06638 0.57756 0.12762 0.0
O29 O 1.06242 0.52243 0.12467 0.0
O30 O 1.00871 0.47974 0.16082 0.0
O31 O 1.04492 0.45751 0.13238 0.0
H32 H 0.25086 0.58118 0.15245 0.0
H33 H 0.34733 0.63218 0.1564 0.0
H34 H 0.33745 0.57288 0.07444 0.0
H35 H 0.24005 0.52184 0.07048 0.0
H36 H 0.96772 0.58816 0.21952 0.0
H37 H 0.87434 0.54152 0.22488 0.0
H38 H 0.85743 0.42408 0.20263 0.0
H39 H 0.95198 0.47161 0.19789 0.0
La40 La 0.70189 0.07304 0.48156 0.0
La41 La 0.62877 0.09013 0.4665 0.0
C42 C 0.7437 0.0449 0.5033 0.0
C43 C 0.72478 1.00085 0.50761 0.0
C44 C 0.6796 0.96187 0.49122 0.0
C45 C 0.6632 0.92035 0.49476 0.0
C46 C 0.69181 0.91697 0.51469 0.0
C47 C 0.73652 0.95613 0.5314 0.0
C48 C 0.75278 0.99766 0.52789 0.0
C49 C 0.68931 0.07653 0.42877 0.0
C50 C 0.5764 0.99199 0.46695 0.0
C51 C 0.58471 0.11731 0.44629 0.0
C52 C 0.59293 0.15893 0.45102 0.0
C53 C 0.55024 0.15687 0.45694 0.0
C54 C 0.55744 0.19574 0.4635 0.0
C55 C 0.60759 0.23771 0.46422 0.0
C56 C 0.65017 0.2397 0.45767 0.0
C57 C 0.64291 0.20071 0.4511 0.0
C58 C 0.64033 0.08578 0.51912 0.0
C59 C 0.75551 0.17169 0.47984 0.0
O60 O 0.74515 0.05116 0.47751 0.0
O61 O 0.72412 0.06026 0.51742 0.0
O62 O 0.73341 0.09057 0.4421 0.0
O63 O 0.65377 0.0588 0.44437 0.0
O64 O 0.62201 1.00825 0.48111 0.0
O65 O 0.57242 0.01805 0.45447 0.0
O66 O 0.56905 0.09493 0.46689 0.0
O67 O 0.62079 0.11845 0.43489 0.0
O68 O 0.5967 0.07209 0.50557 0.0
O69 O 0.67654 0.10425 0.5039 0.0
O70 O 0.7078 0.15663 0.46978 0.0
O71 O 0.76254 0.14515 0.48888 0.0
H72 H 0.65751 0.96353 0.47532 0.0
H73 H 0.62898 0.89102 0.4813 0.0
H74 H 0.75903 0.95471 0.54719 0.0
H75 H 0.78761 0.02735 0.54083 0.0
H76 H 0.51138 0.12508 0.45709 0.0
H77 H 0.52392 0.19288 0.46882 0.0
H78 H 0.68914 0.27141 0.45766 0.0
H79 H 0.67651 0.20333 0.44642 0.0
La80 La 0.66129 0.61662 0.8378 0.0
La81 La 0.58646 0.52022 0.83937 0.0
C82 C 0.70614 0.69102 0.82285 0.0
C83 C 0.69174 0.71835 0.81776 0.0
C84 C 0.64878 0.71135 0.82882 0.0
C85 C 0.63548 0.73751 0.82369 0.0
C86 C 0.66525 0.7714 0.80761 0.0
C87 C 0.70833 0.77831 0.79662 0.0
C88 C 0.72131 0.75186 0.80159 0.0
C89 C 0.65363 0.59634 0.8876 0.0
C90 C 0.53514 0.56603 0.84114 0.0
C91 C 0.54536 0.44463 0.85075 0.0
C92 C 0.55849 0.41583 0.84388 0.0
C93 C 0.58796 0.42233 0.82201 0.0
C94 C 0.60081 0.39527 0.81546 0.0
C95 C 0.58461 0.36127 0.83072 0.0
C96 C 0.556 0.35542 0.85298 0.0
C97 C 0.54299 0.3825 0.85948 0.0
C98 C 0.59617 0.54145 0.78947 0.0
C99 C 0.71348 0.57126 0.8392 0.0
O100 O 0.70943 0.68581 0.84857 0.0
O101 O 0.68137 0.6538 0.80551 0.0
O102 O 0.69697 0.63047 0.88015 0.0
O103 O 0.61596 0.5772 0.8682 0.0
O104 O 0.58191 0.60075 0.83461 0.0
O105 O 0.52964 0.53142 0.84741 0.0
O106 O 0.5267 0.451 0.82965 0.0
O107 O 0.58158 0.48172 0.86774 0.0
O108 O 0.55218 0.50803 0.79678 0.0
O109 O 0.63288 0.5595 0.80921 0.0
O110 O 0.66446 0.5344 0.8411 0.0
O111 O 0.7218 0.60822 0.83608 0.0
H112 H 0.62582 0.68596 0.84161 0.0
H113 H 0.6025 0.73176 0.83272 0.0
H114 H 0.73169 0.80388 0.78397 0.0
H115 H 0.75453 0.75764 0.79284 0.0
H116 H 0.60089 0.44829 0.80992 0.0
H117 H 0.62355 0.40101 0.79848 0.0
H118 H 0.54269 0.32929 0.86498 0.0
H119 H 0.52063 0.37728 0.87657 0.0
H120 H 0.63768 0.0809 0.21092 0.0
C121 C 0.60504 0.04582 0.204 0.0
C122 C 0.58961 1.016 0.22261 0.0
C123 C 0.57754 0.031 0.17704 0.0
H124 H 0.53495 0.94789 0.2284 0.0
C125 C 0.54639 0.97064 0.21397 0.0
C126 C 0.51657 0.95454 0.18758 0.0
C127 C 0.53329 0.98505 0.16904 0.0
C128 C 0.59228 0.06415 0.15836 0.0
H129 H 0.51104 0.97322 0.1486 0.0
C130 C 0.64563 0.10345 0.15859 0.0
C131 C 0.65818 0.13549 0.14196 0.0
C132 C 0.5521 0.05771 0.14111 0.0
H133 H 0.51077 0.02911 0.14087 0.0
C134 C 0.56425 0.08891 0.1246 0.0
H135 H 0.67737 0.10893 0.17139 0.0
C136 C 0.61651 0.12742 0.12507 0.0
H137 H 0.62404 0.15147 0.11256 0.0
H138 H 0.53272 0.08359 0.11168 0.0
H139 H 0.59273 0.56686 0.57649 0.0
C140 C 0.60299 0.54744 0.56747 0.0
C141 C 0.61897 0.53042 0.58476 0.0
C142 C 0.59642 0.5369 0.53844 0.0
H143 H 0.64348 0.49123 0.58533 0.0
C144 C 0.6297 0.50357 0.5724 0.0
C145 C 0.62176 0.49149 0.54349 0.0
C146 C 0.60596 0.50893 0.52667 0.0
C147 C 0.575 0.55171 0.52039 0.0
H148 H 0.59933 0.49953 0.50434 0.0
C149 C 0.59515 0.59606 0.52459 0.0
C150 C 0.57477 0.60959 0.50699 0.0
C151 C 0.53356 0.52095 0.49878 0.0
H152 H 0.5166 0.48651 0.49536 0.0
C153 C 0.51282 0.53401 0.48162 0.0
H154 H 0.62752 0.62018 0.54097 0.0
C155 C 0.5332 0.57791 0.48562 0.0
H156 H 0.51598 0.587 0.47209 0.0
H157 H 0.48067 0.50994 0.46517 0.0
H158 H 0.13668 0.56276 0.89779 0.0
C159 C 0.10675 0.5632 0.8887 0.0
C160 C 1.07158 0.56028 0.90582 0.0
C161 C 0.10421 0.5673 0.86052 0.0
H162 H 1.0102 0.564 0.90929 0.0
C163 C 1.03349 0.56254 0.89501 0.0
C164 C 1.02506 0.56363 0.86686 0.0
C165 C 1.06159 0.56652 0.84967 0.0
C166 C 0.14751 0.57439 0.84352 0.0
H167 H 1.05587 0.56734 0.82796 0.0
C168 C 0.18318 0.56574 0.85124 0.0
C169 C 0.22369 0.57486 0.83455 0.0
C170 C 0.15547 0.59292 0.81923 0.0
H171 H 0.13254 0.60203 0.81251 0.0
C172 C 0.19436 0.60181 0.80321 0.0
H173 H 0.17919 0.55129 0.86956 0.0
C174 C 0.22755 0.593 0.81062 0.0
H175 H 0.25736 0.60112 0.79743 0.0
H176 H 0.19923 0.61628 0.78474 0.0
H177 H 0.11875 0.54329 0.41366 0.0
C178 C 0.15629 0.57624 0.4208 0.0
C179 C 0.19065 0.60021 0.40145 0.0
C180 C 0.16935 0.59509 0.44904 0.0
H181 H 0.2631 0.66288 0.39523 0.0
C182 C 0.23833 0.64365 0.41048 0.0
C183 C 0.25318 0.66341 0.43849 0.0
C184 C 0.21852 0.63862 0.45769 0.0
C185 C 0.12998 0.5709 0.46899 0.0
H186 H 0.2299 0.65331 0.4794 0.0
C187 C 0.09521 0.52385 0.4669 0.0
C188 C 1.05692 0.50193 0.48534 0.0
C189 C 0.12529 0.59523 0.48972 0.0
H190 H 0.14971 0.63094 0.49157 0.0
C191 C 0.08779 0.57388 0.50785 0.0
H192 H 0.09838 0.5044 0.45131 0.0
C193 C 1.05387 0.52783 0.50568 0.0
H194 H 1.02433 0.51242 0.51972 0.0
H195 H 1.08444 0.59315 0.52348 0.0
H196 H 0.60143 0.033 0.7245 0.0
C197 C 0.6096 0.062 0.73613 0.0
C198 C 0.63271 0.10043 0.724 0.0
C199 C 0.59309 0.05946 0.76246 0.0
H200 H 0.65809 0.16664 0.7302 0.0
C201 C 0.64054 0.13687 0.73917 0.0
C202 C 0.62295 0.13435 0.76514 0.0
C203 C 0.60011 0.09583 0.7768 0.0
C204 C 0.56443 0.01767 0.77424 0.0
H205 H 0.58692 0.09389 0.79698 0.0
C206 C 0.58404 0.99487 0.77497 0.0
C207 C 0.55767 0.95652 0.78752 0.0
C208 C 0.5173 1.00085 0.78538 0.0
H209 H 0.50085 0.01729 0.78469 0.0
C210 C 0.49066 0.96251 0.79735 0.0
H211 H 0.62063 1.00778 0.76672 0.0
C212 C 0.51076 0.94057 0.79857 0.0
H213 H 0.48938 0.91085 0.80801 0.0
H214 H 0.45437 0.94982 0.8058 0.0
H215 H 0.67851 0.62669 0.09473 0.0
C216 C 0.67413 0.60092 0.10388 0.0
C217 C 0.65441 0.56102 0.08697 0.0
C218 C 0.69096 0.60908 0.13233 0.0
H219 H 0.63806 0.49849 0.08638 0.0
C220 C 0.65185 0.52903 0.09903 0.0
C221 C 0.66982 0.53741 0.12725 0.0
C222 C 0.68878 0.57711 0.14381 0.0
C223 C 0.71032 0.65088 0.14992 0.0
H224 H 0.70262 0.58322 0.16562 0.0
C225 C 0.68311 0.66678 0.14654 0.0
C226 C 0.69845 0.7047 0.16381 0.0
C227 C 0.7543 0.67424 0.17067 0.0
H228 H 0.77653 0.66309 0.17361 0.0
C229 C 0.76996 0.71235 0.18785 0.0
H230 H 0.64809 0.64836 0.13124 0.0
C231 C 0.74174 0.72734 0.18469 0.0
H232 H 0.7533 0.75616 0.19856 0.0
H233 H 0.8036 0.72995 0.20388 0.0
C234 C 0.44131 0.67903 0.13166 0.0
C235 C 0.40804 0.63393 0.1198 0.0
C236 C 0.49575 0.70331 0.13937 0.0
C237 C 0.51684 0.68158 0.13552 0.0
C238 C 0.48376 0.63659 0.12237 0.0
C239 C 0.42982 0.61343 0.11454 0.0
C240 C 0.52995 0.75144 0.15269 0.0
C241 C 0.50464 0.61207 0.11788 0.0
C242 C 0.6572 0.72728 0.13634 0.0
C243 C 0.66421 0.7162 0.16131 0.0
C244 C 0.61173 0.72189 0.12906 0.0
C245 C 0.57221 0.70385 0.14691 0.0
C246 C 0.58236 0.6978 0.17359 0.0
C247 C 0.62871 0.70436 0.18056 0.0
C248 C 0.60322 0.73028 0.10089 0.0
C249 C 0.54127 0.67864 0.19326 0.0
H250 H 0.42448 0.69501 0.13547 0.0
H251 H 0.40407 0.57846 0.10567 0.0
H252 H 0.53778 0.75428 0.1754 0.0
H253 H 0.56882 0.77171 0.14474 0.0
H254 H 0.51041 0.76557 0.14901 0.0
H255 H 0.47388 0.5775 0.10675 0.0
H256 H 0.53848 0.62983 0.10573 0.0
H257 H 0.5194 0.61079 0.13817 0.0
H258 H 0.6849 0.73638 0.12151 0.0
H259 H 0.63421 0.69549 0.19976 0.0
H260 H 0.58247 0.74391 0.10171 0.0
H261 H 0.57808 0.69844 0.08616 0.0
H262 H 0.64138 0.75369 0.09267 0.0
H263 H 0.52319 0.69452 0.1942 0.0
H264 H 0.55837 0.68278 0.21455 0.0
H265 H 0.50907 0.64258 0.18567 0.0
C266 C 0.7949 0.25098 0.48035 0.0
C267 C 0.80205 0.21967 0.48074 0.0
C268 C 0.83809 0.2962 0.48035 0.0
C269 C 0.88999 0.31071 0.48032 0.0
C270 C 0.89744 0.27919 0.48055 0.0
C271 C 0.85356 0.23423 0.48099 0.0
C272 C 0.82816 0.32854 0.48063 0.0
C273 C 0.95181 0.29295 0.4802 0.0
C274 C 0.99299 0.42382 0.4579 0.0
C275 C 1.01875 0.45229 0.48353 0.0
C276 C 0.95224 0.37754 0.45646 0.0
C277 C 0.93648 0.35912 0.48122 0.0
C278 C 0.96376 0.38748 0.50707 0.0
C279 C 1.00461 0.43336 0.50788 0.0
C280 C 0.92484 0.34853 0.42844 0.0
C281 C 0.94848 0.36961 0.53402 0.0
H282 H 0.75545 0.24026 0.48045 0.0
H283 H 0.85951 0.21029 0.48102 0.0
H284 H 0.85192 0.35511 0.49901 0.0
H285 H 0.84101 0.34479 0.46197 0.0
H286 H 0.78569 0.31217 0.48111 0.0
H287 H 0.95083 0.26431 0.47949 0.0
H288 H 0.96922 0.30929 0.46194 0.0
H289 H 0.97859 0.31758 0.49895 0.0
H290 H 1.0032 0.43787 0.43894 0.0
H291 H 1.02489 0.45471 0.52782 0.0
H292 H 0.8831 0.33484 0.42576 0.0
H293 H 0.92399 0.31992 0.42695 0.0
H294 H 0.94457 0.36707 0.4112 0.0
H295 H 0.90705 0.35528 0.53587 0.0
H296 H 0.97475 0.39569 0.55237 0.0
H297 H 0.95003 0.34249 0.53436 0.0
C298 C 0.69183 0.84614 0.80574 0.0
C299 C 0.65184 0.79985 0.80269 0.0
C300 C 0.6795 0.87358 0.80225 0.0
C301 C 0.62594 0.85423 0.79534 0.0
C302 C 0.58553 0.80744 0.79162 0.0
C303 C 0.59895 0.78084 0.79547 0.0
C304 C 0.72363 0.92333 0.80672 0.0
C305 C 0.52799 0.78549 0.78402 0.0
C306 C 0.58263 0.92115 0.81504 0.0
C307 C 0.57892 0.93316 0.78968 0.0
C308 C 0.5991 0.8964 0.81726 0.0
C309 C 0.61173 0.88293 0.79347 0.0
C310 C 0.60919 0.89577 0.76791 0.0
C311 C 0.59309 0.92103 0.76636 0.0
C312 C 0.60205 0.88397 0.84499 0.0
C313 C 0.622 0.88178 0.74207 0.0
H314 H 0.73272 0.86103 0.81161 0.0
H315 H 0.56798 0.74504 0.79275 0.0
H316 H 0.72247 0.93701 0.78832 0.0
H317 H 0.71815 0.93903 0.82465 0.0
H318 H 0.7634 0.93301 0.81072 0.0
H319 H 0.5017 0.74864 0.78056 0.0
H320 H 0.51478 0.79609 0.80082 0.0
H321 H 0.52305 0.79606 0.76493 0.0
H322 H 0.57235 0.93101 0.83319 0.0
H323 H 0.58993 0.93006 0.74671 0.0
H324 H 0.64213 0.8951 0.85087 0.0
H325 H 0.57327 0.84731 0.84356 0.0
H326 H 0.59329 0.89881 0.86173 0.0
H327 H 0.66224 0.89239 0.74582 0.0
H328 H 0.62014 0.89595 0.7241 0.0
H329 H 0.59358 0.845 0.73661 0.0
C330 C 0.77565 0.46499 0.22432 0.0
C331 C 0.79977 0.45219 0.20852 0.0
C332 C 0.73302 0.46028 0.2119 0.0
C333 C 0.71464 0.44203 0.18343 0.0
C334 C 0.7294 0.4186 0.17014 0.0
C335 C 0.77264 0.42435 0.1828 0.0
C336 C 0.71513 0.48255 0.22755 0.0
C337 C 0.70696 0.39508 0.14059 0.0
C338 C 0.63658 0.46851 0.14626 0.0
C339 C 0.67823 0.50915 0.13866 0.0
C340 C 0.64696 0.44467 0.15996 0.0
C341 C 0.70013 0.46251 0.16619 0.0
C342 C 0.74181 0.50283 0.15729 0.0
C343 C 0.73015 0.52549 0.14367 0.0
C344 C 0.60115 0.40171 0.16856 0.0
C345 C 0.79931 0.52337 0.16302 0.0
H346 H 0.79485 0.48449 0.24485 0.0
H347 H 0.7896 0.41272 0.17069 0.0
H348 H 0.73632 0.51611 0.22198 0.0
H349 H 0.67198 0.46326 0.22193 0.0
H350 H 0.72391 0.4864 0.25032 0.0
H351 H 0.70998 0.36871 0.13614 0.0
H352 H 0.66484 0.38008 0.13619 0.0
H353 H 0.72985 0.41943 0.12638 0.0
H354 H 0.59632 0.45611 0.14228 0.0
H355 H 0.76199 0.55692 0.13751 0.0
H356 H 0.59146 0.40929 0.18852 0.0
H357 H 0.61027 0.37962 0.17131 0.0
H358 H 0.56527 0.38357 0.15301 0.0
H359 H 0.81178 0.53138 0.1857 0.0
H360 H 0.82632 0.55446 0.15422 0.0
H361 H 0.80458 0.49973 0.15402 0.0
C362 C 0.48449 0.92358 0.44551 0.0
C363 C 0.52983 0.94366 0.46457 0.0
C364 C 0.44053 0.87792 0.44292 0.0
C365 C 0.44133 0.8515 0.46005 0.0
C366 C 0.48681 0.87167 0.47953 0.0
C367 C 0.53047 0.91731 0.48144 0.0
C368 C 0.39342 0.85778 0.42151 0.0
C369 C 0.48942 0.84506 0.49838 0.0
C370 C 0.30591 0.74092 0.46611 0.0
C371 C 0.30362 0.7107 0.44679 0.0
C372 C 0.35118 0.78648 0.47145 0.0
C373 C 0.39515 0.80259 0.45688 0.0
C374 C 0.39386 0.77205 0.43815 0.0
C375 C 0.34862 0.72668 0.43361 0.0
C376 C 0.35123 0.81765 0.49204 0.0
C377 C 0.43951 0.78752 0.42202 0.0
H378 H 0.48354 0.94346 0.43229 0.0
H379 H 0.56507 0.93242 0.49639 0.0
H380 H 0.38661 0.83097 0.40661 0.0
H381 H 0.35715 0.84246 0.43168 0.0
H382 H 0.3989 0.88269 0.40976 0.0
H383 H 0.5271 0.86583 0.51283 0.0
H384 H 0.45576 0.82925 0.5107 0.0
H385 H 0.4857 0.81797 0.48589 0.0
H386 H 0.27156 0.72935 0.47634 0.0
H387 H 0.34814 0.70371 0.41917 0.0
H388 H 0.35092 0.84064 0.48105 0.0
H389 H 0.38789 0.83825 0.50721 0.0
H390 H 0.31633 0.79959 0.5035 0.0
H391 H 0.44481 0.81047 0.4084 0.0
H392 H 0.4332 0.75947 0.40894 0.0
H393 H 0.47693 0.80627 0.43637 0.0
C394 C 0.61472 0.31962 0.84285 0.0
C395 C 0.59586 0.33102 0.82272 0.0
C396 C 0.62373 0.28985 0.83543 0.0
C397 C 0.61301 0.27069 0.80726 0.0
C398 C 0.59473 0.28263 0.78683 0.0
C399 C 0.58657 0.31274 0.7948 0.0
C400 C 0.64385 0.27834 0.85774 0.0
C401 C 0.58233 0.26263 0.7566 0.0
C402 C 0.66719 0.21486 0.77999 0.0
C403 C 0.62291 0.16979 0.77856 0.0
C404 C 0.66535 0.24828 0.79033 0.0
C405 C 0.61792 0.23625 0.79914 0.0
C406 C 0.57365 0.19085 0.79847 0.0
C407 C 0.57673 0.15823 0.78825 0.0
C408 C 0.71356 0.29636 0.79103 0.0
C409 C 0.52219 0.17658 0.80744 0.0
H410 H 0.62254 0.3341 0.86442 0.0
H411 H 0.57145 0.32107 0.77919 0.0
H412 H 0.61349 0.24257 0.85916 0.0
H413 H 0.67994 0.28403 0.85242 0.0
H414 H 0.65339 0.29817 0.8784 0.0
H415 H 0.57023 0.27661 0.74319 0.0
H416 H 0.61745 0.26847 0.74933 0.0
H417 H 0.54978 0.22613 0.75393 0.0
H418 H 0.70309 0.22395 0.77271 0.0
H419 H 0.5421 0.12345 0.78681 0.0
H420 H 0.72362 0.31578 0.8119 0.0
H421 H 0.70488 0.31088 0.77606 0.0
H422 H 0.74866 0.30033 0.78572 0.0
H423 H 0.52941 0.19376 0.8287 0.0
H424 H 0.49251 0.14013 0.80711 0.0
H425 H 0.50505 0.18615 0.79345 0.0
C426 C 0.62254 0.83496 0.51522 0.0
C427 C 0.6762 0.87293 0.5172 0.0
C428 C 0.60723 0.79279 0.51566 0.0
C429 C 0.64649 0.78837 0.51816 0.0
C430 C 0.70075 0.82672 0.52101 0.0
C431 C 0.71493 0.86846 0.52046 0.0
C432 C 0.54894 0.7528 0.51264 0.0
C433 C 0.74383 0.82347 0.52364 0.0
C434 C 0.60633 0.68024 0.53666 0.0
C435 C 0.5965 0.6565 0.5104 0.0
C436 C 0.62323 0.72343 0.53962 0.0
C437 C 0.63063 0.74335 0.51577 0.0
C438 C 0.62203 0.71993 0.48933 0.0
C439 C 0.60519 0.67694 0.48699 0.0
C440 C 0.63209 0.74737 0.56816 0.0
C441 C 0.62982 0.74001 0.46339 0.0
H442 H 0.59237 0.83816 0.51313 0.0
H443 H 0.75645 0.89745 0.52166 0.0
H444 H 0.53756 0.73019 0.49302 0.0
H445 H 0.54067 0.73391 0.52986 0.0
H446 H 0.52354 0.76212 0.51249 0.0
H447 H 0.78411 0.85666 0.5278 0.0
H448 H 0.73853 0.80495 0.5406 0.0
H449 H 0.74116 0.80468 0.50418 0.0
H450 H 0.59935 0.66456 0.55481 0.0
H451 H 0.59858 0.65912 0.46668 0.0
H452 H 0.60391 0.75371 0.56931 0.0
H453 H 0.67271 0.78015 0.57232 0.0
H454 H 0.62672 0.72809 0.58469 0.0
H455 H 0.60246 0.74706 0.4608 0.0
H456 H 0.62255 0.7178 0.44446 0.0
H457 H 0.67083 0.77209 0.46517 0.0
C458 C 0.75155 0.53143 0.83017 0.0
C459 C 0.75962 0.57037 0.84009 0.0
C460 C 0.79364 0.52977 0.83098 0.0
C461 C 0.84645 0.56742 0.84337 0.0
C462 C 0.85455 0.60674 0.85373 0.0
C463 C 0.81212 0.608 0.85135 0.0
C464 C 0.78012 0.4868 0.81821 0.0
C465 C 0.90813 0.64781 0.86808 0.0
C466 C 0.93206 0.53871 0.87162 0.0
C467 C 0.97758 0.56154 0.8576 0.0
C468 C 0.89113 0.54124 0.86763 0.0
C469 C 0.89152 0.5648 0.84741 0.0
C470 C 0.93536 0.5855 0.83163 0.0
C471 C 0.97758 0.58431 0.83715 0.0
C472 C 0.84763 0.51869 0.88586 0.0
C473 C 0.9389 0.60958 0.80872 0.0
H474 H 0.71193 0.50186 0.82115 0.0
H475 H 0.8199 0.63849 0.85931 0.0
H476 H 0.81558 0.49031 0.81482 0.0
H477 H 0.75667 0.46158 0.83184 0.0
H478 H 0.75458 0.47369 0.79798 0.0
H479 H 0.90557 0.67132 0.88059 0.0
H480 H 0.92658 0.63909 0.88188 0.0
H481 H 0.93464 0.66517 0.85229 0.0
H482 H 0.92829 0.51878 0.88654 0.0
H483 H 1.01111 0.60207 0.82563 0.0
H484 H 0.81323 0.48522 0.87474 0.0
H485 H 0.83419 0.53778 0.89122 0.0
H486 H 0.86072 0.51431 0.90544 0.0
H487 H 0.90045 0.60069 0.80158 0.0
H488 H 0.9531 0.60218 0.79071 0.0
H489 H 0.96858 0.64593 0.81615 0.0
C490 C 0.28435 0.68788 0.16054 0.0
C491 C 0.23377 0.67534 0.15764 0.0
C492 C 0.33055 0.73291 0.16362 0.0
C493 C 0.32616 0.76619 0.16272 0.0
C494 C 0.27498 0.75332 0.15851 0.0
C495 C 0.22954 0.70826 0.15658 0.0
C496 C 0.38402 0.74494 0.16886 0.0
C497 C 0.26817 0.78726 0.15643 0.0
C498 C 0.43597 0.88374 0.20132 0.0
C499 C 0.46688 0.9064 0.18047 0.0
C500 C 0.39125 0.83828 0.19587 0.0
C501 C 0.37466 0.81456 0.16853 0.0
C502 C 0.4041 0.83728 0.14706 0.0
C503 C 0.45016 0.8826 0.15332 0.0
C504 C 0.36197 0.81552 0.2196 0.0
C505 C 0.38689 0.81373 0.11745 0.0
H506 H 0.28786 0.66262 0.16152 0.0
H507 H 0.19052 0.69868 0.15397 0.0
H508 H 0.40793 0.76203 0.15217 0.0
H509 H 0.40608 0.76837 0.18868 0.0
H510 H 0.38064 0.71534 0.16989 0.0
H511 H 0.2262 0.7715 0.14997 0.0
H512 H 0.28181 0.80892 0.1768 0.0
H513 H 0.29284 0.80892 0.14131 0.0
H514 H 0.44647 0.90152 0.22218 0.0
H515 H 0.4733 0.89912 0.13692 0.0
H516 H 0.35873 0.78599 0.22045 0.0
H517 H 0.32107 0.80364 0.21634 0.0
H518 H 0.38192 0.83787 0.23995 0.0
H519 H 0.38959 0.7871 0.11563 0.0
H520 H 0.41155 0.8367 0.10284 0.0
H521 H 0.34481 0.79763 0.11106 0.0
C522 C 0.57658 0.28151 0.46411 0.0
C523 C 0.61545 0.279 0.47285 0.0
C524 C 0.5809 0.31837 0.47416 0.0
C525 C 0.6253 0.35383 0.49337 0.0
C526 C 0.6658 0.35243 0.50138 0.0
C527 C 0.66037 0.31504 0.49107 0.0
C528 C 0.5369 0.31858 0.46498 0.0
C529 C 0.71384 0.38957 0.52175 0.0
C530 C 0.64896 0.4622 0.50692 0.0
C531 C 0.62543 0.4576 0.53112 0.0
C532 C 0.65016 0.42913 0.49462 0.0
C533 C 0.62705 0.39047 0.50671 0.0
C534 C 0.6038 0.38593 0.53129 0.0
C535 C 0.60324 0.41943 0.54313 0.0
C536 C 0.67557 0.43529 0.46851 0.0
C537 C 0.57845 0.34518 0.54481 0.0
H538 H 0.54224 0.25425 0.44964 0.0
H539 H 0.69042 0.31333 0.49816 0.0
H540 H 0.51668 0.31726 0.48297 0.0
H541 H 0.55339 0.34979 0.45708 0.0
H542 H 0.50689 0.28997 0.44854 0.0
H543 H 0.74414 0.38557 0.52376 0.0
H544 H 0.73227 0.42213 0.51528 0.0
H545 H 0.70158 0.3904 0.54245 0.0
H546 H 0.66653 0.49171 0.49762 0.0
H547 H 0.58407 0.41513 0.56152 0.0
H548 H 0.6455 0.40856 0.45128 0.0
H549 H 0.70684 0.43263 0.47153 0.0
H550 H 0.69349 0.46793 0.46225 0.0
H551 H 0.54475 0.31524 0.53035 0.0
H552 H 0.56355 0.34738 0.56434 0.0
H553 H 0.60745 0.34039 0.54952 0.0
C554 C 0.44058 0.53237 0.85159 0.0
C555 C 0.48864 0.56654 0.84223 0.0
C556 C 0.39706 0.53215 0.85255 0.0
C557 C 0.39984 0.56683 0.84384 0.0
C558 C 0.44836 0.60155 0.83449 0.0
C559 C 0.49136 0.60103 0.83385 0.0
C560 C 0.34746 0.49419 0.8628 0.0
C561 C 0.45485 0.63946 0.82473 0.0
C562 C 0.27021 0.54513 0.81787 0.0
C563 C 0.26308 0.56648 0.83984 0.0
C564 C 0.31296 0.54444 0.81914 0.0
C565 C 0.3516 0.56561 0.8431 0.0
C566 C 0.34384 0.58598 0.86583 0.0
C567 C 0.30045 0.58628 0.86396 0.0
C568 C 0.31765 0.52199 0.79413 0.0
C569 C 0.38267 0.60893 0.89205 0.0
H570 H 0.43672 0.50529 0.85827 0.0
H571 H 0.52728 0.62781 0.82641 0.0
H572 H 0.33763 0.5072 0.88012 0.0
H573 H 0.31357 0.47563 0.84595 0.0
H574 H 0.35155 0.47069 0.87004 0.0
H575 H 0.49481 0.66455 0.81868 0.0
H576 H 0.4246 0.6265 0.80665 0.0
H577 H 0.44823 0.65612 0.84137 0.0
H578 H 0.24271 0.52984 0.79889 0.0
H579 H 0.29726 0.60385 0.88105 0.0
H580 H 0.31948 0.49668 0.80013 0.0
H581 H 0.35504 0.54685 0.78578 0.0
H582 H 0.28392 0.50558 0.77739 0.0
H583 H 0.38751 0.58617 0.8998 0.0
H584 H 0.36995 0.62043 0.90863 0.0
H585 H 0.4221 0.63807 0.88762 0.0
C586 C 0.95784 0.36587 0.1398 0.0
C587 C 0.95681 0.40085 0.14487 0.0
C588 C 0.91199 0.32146 0.13991 0.0
C589 C 0.86351 0.31152 0.14462 0.0
C590 C 0.86219 0.34673 0.14932 0.0
C591 C 0.90877 0.3908 0.14966 0.0
C592 C 0.91549 0.28516 0.13518 0.0
C593 C 0.81143 0.33792 0.15394 0.0
C594 C 0.7311 0.19617 0.11796 0.0
C595 C 0.71379 0.17815 0.14246 0.0
C596 C 0.78009 0.23885 0.11831 0.0
C597 C 0.81365 0.26434 0.14372 0.0
C598 C 0.79783 0.24555 0.16834 0.0
C599 C 0.74812 0.20286 0.16745 0.0
C600 C 0.79484 0.25742 0.09156 0.0
C601 C 0.8326 0.2712 0.19583 0.0
H602 H 0.99483 0.37331 0.13632 0.0
H603 H 0.90732 0.41746 0.15332 0.0
H604 H 0.90263 0.26672 0.15293 0.0
H605 H 0.88832 0.26096 0.11638 0.0
H606 H 0.95631 0.29837 0.13261 0.0
H607 H 0.81601 0.36835 0.15493 0.0
H608 H 0.77923 0.31236 0.137 0.0
H609 H 0.79874 0.32483 0.17364 0.0
H610 H 0.70566 0.17718 0.0984 0.0
H611 H 0.73533 0.18963 0.18655 0.0
H612 H 0.83446 0.26869 0.088 0.0
H613 H 0.79731 0.28686 0.09297 0.0
H614 H 0.76562 0.23274 0.07335 0.0
H615 H 0.87358 0.28431 0.19403 0.0
H616 H 0.81739 0.25051 0.21251 0.0
H617 H 0.8348 0.30015 0.20202 0.0
C618 C 1.07396 0.5821 0.06864 0.0
C619 C 1.06954 0.54969 0.08101 0.0
C620 C 1.07661 0.58282 0.0401 0.0
C621 C 1.0758 0.5508 0.02353 0.0
C622 C 1.07229 0.51842 0.03603 0.0
C623 C 1.06834 0.51782 0.06455 0.0
C624 C 1.07921 0.61736 0.02758 0.0
C625 C 1.07224 0.48419 0.01924 0.0
C626 C 1.02631 0.5266 0.94698 0.0
C627 C 1.0737 0.55483 0.93553 0.0
C628 C 1.02655 0.52424 0.97539 0.0
C629 C 1.07544 0.54985 0.99291 0.0
C630 C 0.12355 0.57654 0.98133 0.0
C631 C 0.12214 0.57901 0.95283 0.0
C632 C 0.9743 0.49565 0.9868 0.0
C633 C 0.17651 0.60361 -0.00078 0.0
H634 H 1.07479 0.60677 0.08126 0.0
H635 H 1.0643 0.49237 0.07396 0.0
H636 H 0.11507 0.63734 0.01704 0.0
H637 H 1.04426 0.60076 0.01166 0.0
H638 H 1.08011 0.64022 0.04335 0.0
H639 H 1.07396 0.46383 0.03245 0.0
H640 H 1.03582 0.46169 0.00395 0.0
H641 H 0.10661 0.50072 0.00741 0.0
H642 H 0.98864 0.50684 0.93373 0.0
H643 H 0.15899 0.60101 0.94432 0.0
H644 H 0.97134 0.5169 0.00171 0.0
H645 H 0.97191 0.47184 -0.00172 0.0
H646 H 0.93973 0.47665 0.97027 0.0
H647 H 0.18278 0.63063 0.01356 0.0
H648 H 0.20992 0.61873 0.98671 0.0
H649 H 0.1773 0.58254 0.01213 0.0
C650 C 0.62762 0.04793 0.38526 0.0
C651 C 0.67958 0.07355 0.3986 0.0
C652 C 0.6173 0.04229 0.35636 0.0
C653 C 0.66009 0.06331 0.34048 0.0
C654 C 0.71281 0.09048 0.35399 0.0
C655 C 0.72191 0.09504 0.38294 0.0
C656 C 0.56048 1.01278 0.34275 0.0
C657 C 0.75945 0.11404 0.33784 0.0
C658 C 0.62467 1.00775 0.26552 0.0
C659 C 0.61521 0.03213 0.25198 0.0
C660 C 0.6411 0.01853 0.29418 0.0
C661 C 0.64912 0.05503 0.30967 0.0
C662 C 0.64275 0.08141 0.29591 0.0
C663 C 0.62556 0.06949 0.26725 0.0
C664 C 0.64737 0.98949 0.30807 0.0
C665 C 0.65163 0.12096 0.31164 0.0
H666 H 0.59481 0.03136 0.39735 0.0
H667 H 0.76217 0.11515 0.39329 0.0
H668 H 0.55473 0.03145 0.33011 0.0
H669 H 0.55109 0.98426 0.32851 0.0
H670 H 0.53187 0.99968 0.3581 0.0
H671 H 0.79801 0.13629 0.35159 0.0
H672 H 0.75814 0.08925 0.32397 0.0
H673 H 0.75741 0.13404 0.32448 0.0
H674 H 0.61772 0.97934 0.25379 0.0
H675 H 0.61791 0.0883 0.25707 0.0
H676 H 0.61718 0.97233 0.32237 0.0
H677 H 0.6869 1.01006 0.32067 0.0
H678 H 0.64273 0.96399 0.29288 0.0
H679 H 0.62011 0.10939 0.32508 0.0
H680 H 0.65112 0.141 0.29756 0.0
H681 H 0.69016 0.14268 0.32535 0.0
C682 C 0.56084 0.53269 0.74115 0.0
C683 C 0.60399 0.54849 0.76048 0.0
C684 C 0.56611 0.53519 0.71294 0.0
C685 C 0.61539 0.55278 0.70379 0.0
C686 C 0.65963 0.57024 0.72344 0.0
C687 C 0.65354 0.56839 0.75167 0.0
C688 C 0.51832 0.51729 0.69279 0.0
C689 C 0.71252 0.5884 0.71451 0.0
C690 C 0.60468 0.50334 0.63053 0.0
C691 C 0.62039 0.5375 0.61553 0.0
C692 C 0.60462 0.50861 0.65929 0.0
C693 C 0.61889 0.5485 0.67353 0.0
C694 C 0.6345 0.58311 0.65869 0.0
C695 C 0.63566 0.57742 0.62994 0.0
C696 C 0.58839 0.47103 0.67436 0.0
C697 C 0.64899 0.62579 0.6731 0.0
H698 H 0.52264 0.51771 0.74806 0.0
H699 H 0.68695 0.58058 0.76665 0.0
H700 H 0.52895 0.54147 0.67884 0.0
H701 H 0.50438 0.48625 0.67962 0.0
H702 H 0.48503 0.50988 0.70354 0.0
H703 H 0.74407 0.60432 0.73245 0.0
H704 H 0.70881 0.56094 0.70256 0.0
H705 H 0.72502 0.61309 0.70065 0.0
H706 H 0.59125 0.47181 0.61976 0.0
H707 H 0.64845 0.60428 0.61876 0.0
H708 H 0.55101 0.45743 0.68299 0.0
H709 H 0.61915 0.48345 0.69202 0.0
H710 H 0.5822 0.44354 0.6606 0.0
H711 H 0.61471 0.61844 0.68264 0.0
H712 H 0.66082 0.6497 0.65868 0.0
H713 H 0.68212 0.64184 0.6901 0.0
C714 C 0.60261 0.05373 0.56124 0.0
C715 C 0.64702 0.0853 0.54896 0.0
C716 C 0.60584 0.05516 0.59002 0.0
C717 C 0.65444 0.08975 0.60698 0.0
C718 C 0.70014 0.12056 0.59453 0.0
C719 C 0.696 0.11765 0.56551 0.0
C720 C 0.55645 0.02098 0.60233 0.0
C721 C 0.75244 0.15826 0.6119 0.0
C722 C 0.63347 0.1218 0.67733 0.0
C723 C 0.64344 0.10091 0.69456 0.0
C724 C 0.63991 0.12044 0.64921 0.0
C725 C 0.65519 0.09645 0.63757 0.0
C726 C 0.66633 0.07592 0.65477 0.0
C727 C 0.6608 0.07874 0.68311 0.0
C728 C 0.62813 0.14324 0.63169 0.0
C729 C 0.68198 0.0495 0.64303 0.0
H730 H 0.56487 0.02834 0.54833 0.0
H731 H 0.73035 0.14204 0.55593 0.0
H732 H 0.56517 1.00705 0.61777 0.0
H733 H 0.54234 0.03699 0.6133 0.0
H734 H 0.52388 0.99323 0.58626 0.0
H735 H 0.78547 0.1758 0.59916 0.0
H736 H 0.74951 0.18258 0.62267 0.0
H737 H 0.76215 0.14593 0.62808 0.0
H738 H 0.6187 0.13805 0.68549 0.0
H739 H 0.66934 0.06296 0.6962 0.0
H740 H 0.59166 0.11793 0.6168 0.0
H741 H 0.66101 0.16432 0.61944 0.0
H742 H 0.62221 0.16436 0.6444 0.0
H743 H 0.64808 0.01944 0.62871 0.0
H744 H 0.69379 0.03886 0.65948 0.0
H745 H 0.71531 0.06929 0.63079 0.0
C746 C 0.6001 0.54736 0.922 0.0
C747 C 0.64793 0.58581 0.91592 0.0
C748 C 0.59481 0.53707 0.94894 0.0
C749 C 0.63784 0.56677 0.97034 0.0
C750 C 0.68598 0.60593 0.96429 0.0
C751 C 0.69063 0.61466 0.93706 0.0
C752 C 0.54339 0.49449 0.95449 0.0
C753 C 0.73246 0.63891 0.98665 0.0
C754 C 0.61863 0.57219 0.04596 0.0
C755 C 0.64145 0.55524 0.05649 0.0
C756 C 0.61487 0.57429 0.01766 0.0
C757 C 0.63289 0.5578 -0.00071 0.0
C758 C 0.65177 0.53723 0.00936 0.0
C759 C 0.65646 0.53669 0.0379 0.0
C760 C 0.59503 0.59693 0.0078 0.0
C761 C 0.67003 0.51819 0.99026 0.0
H762 H 0.56687 0.52521 0.90569 0.0
H763 H 0.72758 0.64451 0.9324 0.0
H764 H 0.55122 0.47468 0.96414 0.0
H765 H 0.52466 0.50212 0.96937 0.0
H766 H 0.51483 0.47387 0.93527 0.0
H767 H 0.76656 0.66828 0.97859 0.0
H768 H 0.72023 0.65056 0.0034 0.0
H769 H 0.7459 0.62271 -0.00393 0.0
H770 H 0.60556 0.58549 0.06004 0.0
H771 H 0.67448 0.52376 0.04569 0.0
H772 H 0.56425 0.57593 0.98948 0.0
H773 H 0.62832 0.62858 0.0013 0.0
H774 H 0.57822 0.60446 0.02419 0.0
H775 H 0.64101 0.49778 0.97121 0.0
H776 H 0.67562 0.49736 0.00043 0.0
H777 H 0.70834 0.54567 0.98379 0.0
C778 C 0.12191 0.50143 0.2379 0.0
C779 C 0.13315 0.53501 0.22379 0.0
C780 C 0.12703 0.50721 0.26702 0.0
C781 C 0.1444 0.54773 0.28226 0.0
C782 C 0.15529 0.58154 0.268 0.0
C783 C 0.1494 0.57471 0.23894 0.0
C784 C 0.11453 0.47025 0.28148 0.0
C785 C 0.17429 0.62537 0.28345 0.0
C786 C 0.12537 0.55988 0.35778 0.0
C787 C 0.1763 0.58146 0.37137 0.0
C788 C 0.11362 0.5469 0.32882 0.0
C789 C 0.15384 0.55597 0.31312 0.0
C790 C 0.2046 0.576 0.32686 0.0
C791 C 0.21509 0.58825 0.35578 0.0
C792 C 1.05888 0.52525 0.31492 0.0
C793 C 0.24862 0.5863 0.31092 0.0
H794 H 0.10909 0.47063 0.22616 0.0
H795 H 0.15836 0.60081 0.22804 0.0
H796 H 0.15088 0.48156 0.29418 0.0
H797 H 0.085 0.46145 0.2958 0.0
H798 H 0.09874 0.43994 0.26662 0.0
H799 H 0.17956 0.64769 0.26925 0.0
H800 H 0.14558 0.61964 0.29752 0.0
H801 H 0.21273 0.64257 0.2965 0.0
H802 H 0.09529 0.5548 0.36963 0.0
H803 H 0.25426 0.60422 0.36621 0.0
H804 H 1.04298 0.49475 0.3003 0.0
H805 H 1.06102 0.54827 0.30265 0.0
H806 H 1.03065 0.51637 0.33014 0.0
H807 H 0.23526 0.55601 0.29702 0.0
H808 H 0.28484 0.59953 0.3248 0.0
H809 H 0.25918 0.61128 0.29764 0.0
loop_
_geom_bond_atom_site_label_1
_geom_bond_atom_site_label_2
_geom_bond_distance
_geom_bond_site_symmetry_2
_ccdc_geom_bond_type
La0 C2 2.928 . S
La0 O20 2.521 . S
La0 O21 2.628 . S
La0 O22 2.554 . S
La0 O23 2.757 . S
La0 O24 2.470 . S
La0 O29 2.482 . S
La0 O31 2.503 1_455 S
La1 C11 2.928 1_455 S
La1 O23 2.482 . S
La1 O25 2.503 . S
La1 O26 2.521 1_455 S
La1 O27 2.628 1_455 S
La1 O28 2.554 . S
La1 O29 2.757 . S
La1 O30 2.470 1_455 S
C2 La0 2.928 . S
C2 C3 1.503 . S
C2 O20 1.261 . S
C2 O21 1.243 . S
C3 C2 1.503 . S
C3 C4 1.394 . S
C3 C8 1.373 . S
C4 C3 1.394 . S
C4 C5 1.380 . S
C4 H32 0.930 . S
C5 C4 1.380 . S
C5 C6 1.376 . S
C5 H33 0.930 . S
C6 C5 1.376 . S
C6 C7 1.370 . S
C7 C6 1.370 . S
C7 C8 1.396 . S
C7 H34 0.929 . S
C8 C3 1.373 . S
C8 C7 1.396 . S
C8 H35 0.929 . S
C9 O22 1.240 . S
C9 O23 1.289 . S
C10 O24 1.258 . S
C10 O25 1.256 . S
C11 La1 2.928 1_655 S
C11 C12 1.503 . S
C11 O26 1.261 . S
C11 O27 1.243 . S
C12 C11 1.503 . S
C12 C13 1.394 . S
C12 C17 1.373 . S
C13 C12 1.394 . S
C13 C14 1.380 . S
C13 H36 0.930 . S
C14 C13 1.380 . S
C14 C15 1.376 . S
C14 H37 0.930 . S
C15 C14 1.376 . S
C15 C16 1.370 . S
C16 C15 1.370 . S
C16 C17 1.396 . S
C16 H38 0.929 . S
C17 C12 1.373 . S
C17 C16 1.396 . S
C17 H39 0.929 . S
C18 O28 1.240 . S
C18 O29 1.289 . S
C19 O30 1.258 . S
C19 O31 1.256 . S
O20 La0 2.521 . S
O20 C2 1.261 . S
O21 La0 2.628 . S
O21 C2 1.243 . S
O22 La0 2.554 . S
O22 C9 1.240 . S
O23 La0 2.757 . S
O23 La1 2.482 . S
O23 C9 1.289 . S
O24 La0 2.470 . S
O24 C10 1.258 . S
O25 La1 2.503 . S
O25 C10 1.256 . S
O26 La1 2.521 1_655 S
O26 C11 1.261 . S
O27 La1 2.628 1_655 S
O27 C11 1.243 . S
O28 La1 2.554 . S
O28 C18 1.240 . S
O29 La0 2.482 . S
O29 La1 2.757 . S
O29 C18 1.289 . S
O30 La1 2.470 1_655 S
O30 C19 1.258 . S
O31 La0 2.503 1_655 S
O31 C19 1.256 . S
H32 C4 0.930 . S
H33 C5 0.930 . S
H34 C7 0.929 . S
H35 C8 0.929 . S
H36 C13 0.930 . S
H37 C14 0.930 . S
H38 C16 0.929 . S
H39 C17 0.929 . S
La40 C42 2.928 1_545 S
La40 O60 2.521 1_545 S
La40 O61 2.628 1_545 S
La40 O62 2.554 . S
La40 O63 2.757 . S
La40 O64 2.470 1_545 S
La40 O69 2.482 . S
La40 O71 2.503 . S
La41 C51 2.928 . S
La41 O63 2.482 . S
La41 O65 2.503 1_545 S
La41 O66 2.521 . S
La41 O67 2.628 . S
La41 O68 2.554 . S
La41 O69 2.757 . S
La41 O70 2.470 . S
C42 La40 2.928 1_565 S
C42 C43 1.503 . S
C42 O60 1.261 . S
C42 O61 1.243 . S
C43 C42 1.503 . S
C43 C44 1.394 . S
C43 C48 1.373 . S
C44 C43 1.394 . S
C44 C45 1.380 . S
C44 H72 0.930 . S
C45 C44 1.380 . S
C45 C46 1.376 . S
C45 H73 0.930 . S
C46 C45 1.376 . S
C46 C47 1.370 . S
C47 C46 1.370 . S
C47 C48 1.396 . S
C47 H74 0.929 . S
C48 C43 1.373 . S
C48 C47 1.396 . S
C48 H75 0.929 . S
C49 O62 1.240 . S
C49 O63 1.289 . S
C50 O64 1.258 . S
C50 O65 1.256 . S
C51 La41 2.928 . S
C51 C52 1.503 . S
C51 O66 1.261 . S
C51 O67 1.243 . S
C52 C51 1.503 . S
C52 C53 1.394 . S
C52 C57 1.373 . S
C53 C52 1.394 . S
C53 C54 1.380 . S
C53 H76 0.930 . S
C54 C53 1.380 . S
C54 C55 1.376 . S
C54 H77 0.930 . S
C55 C54 1.376 . S
C55 C56 1.370 . S
C56 C55 1.370 . S
C56 C57 1.396 . S
C56 H78 0.929 . S
C57 C52 1.373 . S
C57 C56 1.396 . S
C57 H79 0.929 . S
C58 O68 1.240 . S
C58 O69 1.289 . S
C59 O70 1.258 . S
C59 O71 1.256 . S
O60 La40 2.521 1_565 S
O60 C42 1.261 . S
O61 La40 2.628 1_565 S
O61 C42 1.243 . S
O62 La40 2.554 . S
O62 C49 1.240 . S
O63 La40 2.757 . S
O63 La41 2.482 . S
O63 C49 1.289 . S
O64 La40 2.470 1_565 S
O64 C50 1.258 . S
O65 La41 2.503 1_565 S
O65 C50 1.256 . S
O66 La41 2.521 . S
O66 C51 1.261 . S
O67 La41 2.628 . S
O67 C51 1.243 . S
O68 La41 2.554 . S
O68 C58 1.240 . S
O69 La40 2.482 . S
O69 La41 2.757 . S
O69 C58 1.289 . S
O70 La41 2.470 . S
O70 C59 1.258 . S
O71 La40 2.503 . S
O71 C59 1.256 . S
H72 C44 0.930 . S
H73 C45 0.930 . S
H74 C47 0.929 . S
H75 C48 0.929 . S
H76 C53 0.930 . S
H77 C54 0.930 . S
H78 C56 0.929 . S
H79 C57 0.929 . S
La80 C82 2.928 . S
La80 O100 2.521 . S
La80 O101 2.628 . S
La80 O102 2.554 . S
La80 O103 2.757 . S
La80 O104 2.470 . S
La80 O109 2.482 . S
La80 O111 2.503 . S
La81 C91 2.928 . S
La81 O103 2.482 . S
La81 O105 2.503 . S
La81 O106 2.521 . S
La81 O107 2.628 . S
La81 O108 2.554 . S
La81 O109 2.757 . S
La81 O110 2.470 . S
C82 La80 2.928 . S
C82 C83 1.503 . S
C82 O100 1.261 . S
C82 O101 1.243 . S
C83 C82 1.503 . S
C83 C84 1.394 . S
C83 C88 1.373 . S
C84 C83 1.394 . S
C84 C85 1.380 . S
C84 H112 0.930 . S
C85 C84 1.380 . S
C85 C86 1.376 . S
C85 H113 0.930 . S
C86 C85 1.376 . S
C86 C87 1.370 . S
C87 C86 1.370 . S
C87 C88 1.396 . S
C87 H114 0.929 . S
C88 C83 1.373 . S
C88 C87 1.396 . S
C88 H115 0.929 . S
C89 O102 1.240 . S
C89 O103 1.289 . S
C90 O104 1.258 . S
C90 O105 1.256 . S
C91 La81 2.928 . S
C91 C92 1.503 . S
C91 O106 1.261 . S
C91 O107 1.243 . S
C92 C91 1.503 . S
C92 C93 1.394 . S
C92 C97 1.373 . S
C93 C92 1.394 . S
C93 C94 1.380 . S
C93 H116 0.930 . S
C94 C93 1.380 . S
C94 C95 1.376 . S
C94 H117 0.930 . S
C95 C94 1.376 . S
C95 C96 1.370 . S
C96 C95 1.370 . S
C96 C97 1.396 . S
C96 H118 0.929 . S
C97 C92 1.373 . S
C97 C96 1.396 . S
C97 H119 0.929 . S
C98 O108 1.240 . S
C98 O109 1.289 . S
C99 O110 1.258 . S
C99 O111 1.256 . S
O100 La80 2.521 . S
O100 C82 1.261 . S
O101 La80 2.628 . S
O101 C82 1.243 . S
O102 La80 2.554 . S
O102 C89 1.240 . S
O103 La80 2.757 . S
O103 La81 2.482 . S
O103 C89 1.289 . S
O104 La80 2.470 . S
O104 C90 1.258 . S
O105 La81 2.503 . S
O105 C90 1.256 . S
O106 La81 2.521 . S
O106 C91 1.261 . S
O107 La81 2.628 . S
O107 C91 1.243 . S
O108 La81 2.554 . S
O108 C98 1.240 . S
O109 La80 2.482 . S
O109 La81 2.757 . S
O109 C98 1.289 . S
O110 La81 2.470 . S
O110 C99 1.258 . S
O111 La80 2.503 . S
O111 C99 1.256 . S
H112 C84 0.930 . S
H113 C85 0.930 . S
H114 C87 0.929 . S
H115 C88 0.929 . S
H116 C93 0.930 . S
H117 C94 0.930 . S
H118 C96 0.929 . S
H119 C97 0.929 . S
H120 C121 0.949 . S
C121 H120 0.949 . S
C121 C122 1.395 . S
C121 C123 1.391 . S
C122 C121 1.395 . S
C122 C125 1.375 1_545 S
C123 C121 1.391 . S
C123 C127 1.387 . S
C123 C128 1.491 . S
H124 C125 0.965 . S
C125 C122 1.375 1_565 S
C125 H124 0.965 . S
C125 C126 1.378 . S
C126 C125 1.378 . S
C126 C127 1.409 1_565 S
C127 C123 1.387 . S
C127 C126 1.409 1_545 S
C127 H129 0.951 . S
C128 C123 1.491 . S
C128 C130 1.382 . S
C128 C132 1.404 . S
H129 C127 0.951 . S
C130 C128 1.382 . S
C130 C131 1.390 . S
C130 H135 0.949 . S
C131 C130 1.390 . S
C131 C136 1.399 . S
C132 C128 1.404 . S
C132 H133 0.950 . S
C132 C134 1.375 . S
H133 C132 0.950 . S
C134 C132 1.375 . S
C134 C136 1.382 . S
C134 H138 0.950 . S
H135 C130 0.949 . S
C136 C131 1.399 . S
C136 C134 1.382 . S
C136 H137 0.952 . S
H137 C136 0.952 . S
H138 C134 0.950 . S
H139 C140 0.949 . S
C140 H139 0.949 . S
C140 C141 1.395 . S
C140 C142 1.391 . S
C141 C140 1.395 . S
C141 C144 1.390 . S
C142 C140 1.391 . S
C142 C146 1.387 . S
C142 C147 1.491 . S
H143 C144 0.950 . S
C144 C141 1.390 . S
C144 H143 0.950 . S
C144 C145 1.378 . S
C145 C144 1.378 . S
C145 C146 1.409 . S
C146 C142 1.387 . S
C146 C145 1.409 . S
C146 H148 0.951 . S
C147 C142 1.491 . S
C147 C149 1.382 . S
C147 C151 1.404 . S
H148 C146 0.951 . S
C149 C147 1.382 . S
C149 C150 1.390 . S
C149 H154 0.949 . S
C150 C149 1.390 . S
C150 C155 1.399 . S
C151 C147 1.404 . S
C151 H152 0.950 . S
C151 C153 1.375 . S
H152 C151 0.950 . S
C153 C151 1.375 . S
C153 C155 1.382 . S
C153 H157 0.950 . S
H154 C149 0.949 . S
C155 C150 1.399 . S
C155 C153 1.382 . S
C155 H156 0.952 . S
H156 C155 0.952 . S
H157 C153 0.950 . S
H158 C159 0.949 . S
C159 H158 0.949 . S
C159 C160 1.395 . S
C159 C161 1.391 . S
C160 C159 1.395 . S
C160 C163 1.390 . S
C161 C159 1.391 . S
C161 C165 1.387 . S
C161 C166 1.491 . S
H162 C163 0.950 1_655 S
C163 C160 1.390 . S
C163 H162 0.950 1_455 S
C163 C164 1.378 . S
C164 C163 1.378 . S
C164 C165 1.409 . S
C165 C161 1.387 . S
C165 C164 1.409 . S
C165 H167 0.951 . S
C166 C161 1.491 . S
C166 C168 1.382 . S
C166 C170 1.404 . S
H167 C165 0.951 . S
C168 C166 1.382 . S
C168 C169 1.390 . S
C168 H173 0.949 . S
C169 C168 1.390 . S
C169 C174 1.399 . S
C170 C166 1.404 . S
C170 H171 0.950 . S
C170 C172 1.375 . S
H171 C170 0.950 . S
C172 C170 1.375 . S
C172 C174 1.382 . S
C172 H176 0.950 . S
H173 C168 0.949 . S
C174 C169 1.399 . S
C174 C172 1.382 . S
C174 H175 0.952 . S
H175 C174 0.952 . S
H176 C172 0.950 . S
H177 C178 0.949 . S
C178 H177 0.949 . S
C178 C179 1.395 1_655 S
C178 C180 1.391 1_655 S
C179 C178 1.395 1_455 S
C179 C182 1.390 . S
C180 C178 1.391 1_455 S
C180 C184 1.387 . S
C180 C185 1.491 1_455 S
H181 C182 0.950 . S
C182 C179 1.390 . S
C182 H181 0.950 . S
C182 C183 1.378 . S
C183 C182 1.378 . S
C183 C184 1.409 . S
C184 C180 1.387 . S
C184 C183 1.409 . S
C184 H186 0.951 . S
C185 C180 1.491 1_655 S
C185 C187 1.382 . S
C185 C189 1.404 . S
H186 C184 0.951 . S
C187 C185 1.382 . S
C187 C188 1.390 . S
C187 H192 0.949 . S
C188 C187 1.390 . S
C188 C193 1.399 . S
C189 C185 1.404 . S
C189 H190 0.950 . S
C189 C191 1.375 . S
H190 C189 0.950 . S
C191 C189 1.375 . S
C191 C193 1.382 . S
C191 H195 0.950 . S
H192 C187 0.949 . S
C193 C188 1.399 . S
C193 C191 1.382 . S
C193 H194 0.952 . S
H194 C193 0.952 . S
H195 C191 0.950 . S
H196 C197 0.949 . S
C197 H196 0.949 . S
C197 C198 1.395 . S
C197 C199 1.391 . S
C198 C197 1.395 . S
C198 C201 1.390 . S
C199 C197 1.391 . S
C199 C203 1.387 . S
C199 C204 1.491 . S
H200 C201 0.950 . S
C201 C198 1.390 . S
C201 H200 0.950 . S
C201 C202 1.378 . S
C202 C201 1.378 . S
C202 C203 1.409 . S
C203 C199 1.387 . S
C203 C202 1.409 . S
C203 H205 0.951 . S
C204 C199 1.491 . S
C204 C206 1.382 1_545 S
C204 C208 1.404 1_545 S
H205 C203 0.951 . S
C206 C204 1.382 1_565 S
C206 C207 1.390 . S
C206 H211 0.949 . S
C207 C206 1.390 . S
C207 C212 1.399 . S
C208 C204 1.404 1_565 S
C208 H209 0.950 1_565 S
C208 C210 1.375 . S
H209 C208 0.950 1_545 S
C210 C208 1.375 . S
C210 C212 1.382 . S
C210 H214 0.950 . S
H211 C206 0.949 . S
C212 C207 1.399 . S
C212 C210 1.382 . S
C212 H213 0.952 . S
H213 C212 0.952 . S
H214 C210 0.950 . S
H215 C216 0.949 . S
C216 H215 0.949 . S
C216 C217 1.395 . S
C216 C218 1.391 . S
C217 C216 1.395 . S
C217 C220 1.390 . S
C218 C216 1.391 . S
C218 C222 1.387 . S
C218 C223 1.491 . S
H219 C220 0.950 . S
C220 C217 1.390 . S
C220 H219 0.950 . S
C220 C221 1.378 . S
C221 C220 1.378 . S
C221 C222 1.409 . S
C222 C218 1.387 . S
C222 C221 1.409 . S
C222 H224 0.951 . S
C223 C218 1.491 . S
C223 C225 1.382 . S
C223 C227 1.404 . S
H224 C222 0.951 . S
C225 C223 1.382 . S
C225 C226 1.390 . S
C225 H230 0.949 . S
C226 C225 1.390 . S
C226 C231 1.399 . S
C227 C223 1.404 . S
C227 H228 0.950 . S
C227 C229 1.375 . S
H228 C227 0.950 . S
C229 C227 1.375 . S
C229 C231 1.382 . S
C229 H233 0.950 . S
H230 C225 0.949 . S
C231 C226 1.399 . S
C231 C229 1.382 . S
C231 H232 0.952 . S
H232 C231 0.952 . S
H233 C229 0.950 . S
C234 C235 1.391 . S
C234 C236 1.394 . S
C234 H250 0.931 . S
C235 C234 1.391 . S
C235 C239 1.376 . S
C236 C234 1.394 . S
C236 C237 1.369 . S
C236 C240 1.531 . S
C237 C236 1.369 . S
C237 C238 1.410 . S
C237 C245 1.503 . S
C238 C237 1.410 . S
C238 C239 1.392 . S
C238 C241 1.511 . S
C239 C235 1.376 . S
C239 C238 1.392 . S
C239 H251 0.929 . S
C240 C236 1.531 . S
C240 H252 0.960 . S
C240 H253 0.962 . S
C240 H254 0.960 . S
C241 C238 1.511 . S
C241 H255 0.961 . S
C241 H256 0.961 . S
C241 H257 0.961 . S
C242 C243 1.370 . S
C242 C244 1.363 . S
C242 H258 0.931 . S
C243 C242 1.370 . S
C243 C247 1.408 . S
C244 C242 1.363 . S
C244 C245 1.370 . S
C244 C248 1.524 . S
C245 C237 1.503 . S
C245 C244 1.370 . S
C245 C246 1.403 . S
C246 C245 1.403 . S
C246 C247 1.404 . S
C246 C249 1.539 . S
C247 C243 1.408 . S
C247 C246 1.404 . S
C247 H259 0.930 . S
C248 C244 1.524 . S
C248 H260 0.956 . S
C248 H261 0.961 . S
C248 H262 0.961 . S
C249 C246 1.539 . S
C249 H263 0.958 . S
C249 H264 0.961 . S
C249 H265 0.960 . S
H250 C234 0.931 . S
H251 C239 0.929 . S
H252 C240 0.960 . S
H253 C240 0.962 . S
H254 C240 0.960 . S
H255 C241 0.961 . S
H256 C241 0.961 . S
H257 C241 0.961 . S
H258 C242 0.931 . S
H259 C247 0.930 . S
H260 C248 0.956 . S
H261 C248 0.961 . S
H262 C248 0.961 . S
H263 C249 0.958 . S
H264 C249 0.961 . S
H265 C249 0.960 . S
C266 C267 1.391 . S
C266 C268 1.394 . S
C266 H282 0.931 . S
C267 C266 1.391 . S
C267 C271 1.376 . S
C268 C266 1.394 . S
C268 C269 1.369 . S
C268 C272 1.531 . S
C269 C268 1.369 . S
C269 C270 1.410 . S
C269 C277 1.503 . S
C270 C269 1.410 . S
C270 C271 1.392 . S
C270 C273 1.511 . S
C271 C267 1.376 . S
C271 C270 1.392 . S
C271 H283 0.929 . S
C272 C268 1.531 . S
C272 H284 0.960 . S
C272 H285 0.962 . S
C272 H286 0.960 . S
C273 C270 1.511 . S
C273 H287 0.961 . S
C273 H288 0.961 . S
C273 H289 0.961 . S
C274 C275 1.370 . S
C274 C276 1.363 . S
C274 H290 0.931 . S
C275 C274 1.370 . S
C275 C279 1.408 . S
C276 C274 1.363 . S
C276 C277 1.370 . S
C276 C280 1.524 . S
C277 C269 1.503 . S
C277 C276 1.370 . S
C277 C278 1.403 . S
C278 C277 1.403 . S
C278 C279 1.404 . S
C278 C281 1.539 . S
C279 C275 1.408 . S
C279 C278 1.404 . S
C279 H291 0.930 . S
C280 C276 1.524 . S
C280 H292 0.956 . S
C280 H293 0.961 . S
C280 H294 0.961 . S
C281 C278 1.539 . S
C281 H295 0.958 . S
C281 H296 0.961 . S
C281 H297 0.960 . S
H282 C266 0.931 . S
H283 C271 0.929 . S
H284 C272 0.960 . S
H285 C272 0.962 . S
H286 C272 0.960 . S
H287 C273 0.961 . S
H288 C273 0.961 . S
H289 C273 0.961 . S
H290 C274 0.931 . S
H291 C279 0.930 . S
H292 C280 0.956 . S
H293 C280 0.961 . S
H294 C280 0.961 . S
H295 C281 0.958 . S
H296 C281 0.961 . S
H297 C281 0.960 . S
C298 C299 1.391 . S
C298 C300 1.394 . S
C298 H314 0.931 . S
C299 C298 1.391 . S
C299 C303 1.376 . S
C300 C298 1.394 . S
C300 C301 1.369 . S
C300 C304 1.531 . S
C301 C300 1.369 . S
C301 C302 1.410 . S
C301 C309 1.503 . S
C302 C301 1.410 . S
C302 C303 1.392 . S
C302 C305 1.511 . S
C303 C299 1.376 . S
C303 C302 1.392 . S
C303 H315 0.929 . S
C304 C300 1.531 . S
C304 H316 0.960 . S
C304 H317 0.962 . S
C304 H318 0.960 . S
C305 C302 1.511 . S
C305 H319 0.961 . S
C305 H320 0.961 . S
C305 H321 0.961 . S
C306 C307 1.370 . S
C306 C308 1.363 . S
C306 H322 0.931 . S
C307 C306 1.370 . S
C307 C311 1.408 . S
C308 C306 1.363 . S
C308 C309 1.370 . S
C308 C312 1.524 . S
C309 C301 1.503 . S
C309 C308 1.370 . S
C309 C310 1.403 . S
C310 C309 1.403 . S
C310 C311 1.404 . S
C310 C313 1.539 . S
C311 C307 1.408 . S
C311 C310 1.404 . S
C311 H323 0.930 . S
C312 C308 1.524 . S
C312 H324 0.956 . S
C312 H325 0.961 . S
C312 H326 0.961 . S
C313 C310 1.539 . S
C313 H327 0.958 . S
C313 H328 0.961 . S
C313 H329 0.960 . S
H314 C298 0.931 . S
H315 C303 0.929 . S
H316 C304 0.960 . S
H317 C304 0.962 . S
H318 C304 0.960 . S
H319 C305 0.961 . S
H320 C305 0.961 . S
H321 C305 0.961 . S
H322 C306 0.931 . S
H323 C311 0.930 . S
H324 C312 0.956 . S
H325 C312 0.961 . S
H326 C312 0.961 . S
H327 C313 0.958 . S
H328 C313 0.961 . S
H329 C313 0.960 . S
C330 C331 1.391 . S
C330 C332 1.394 . S
C330 H346 0.931 . S
C331 C330 1.391 . S
C331 C335 1.376 . S
C332 C330 1.394 . S
C332 C333 1.369 . S
C332 C336 1.531 . S
C333 C332 1.369 . S
C333 C334 1.410 . S
C333 C341 1.503 . S
C334 C333 1.410 . S
C334 C335 1.392 . S
C334 C337 1.511 . S
C335 C331 1.376 . S
C335 C334 1.392 . S
C335 H347 0.929 . S
C336 C332 1.531 . S
C336 H348 0.960 . S
C336 H349 0.962 . S
C336 H350 0.960 . S
C337 C334 1.511 . S
C337 H351 0.961 . S
C337 H352 0.961 . S
C337 H353 0.961 . S
C338 C339 1.370 . S
C338 C340 1.363 . S
C338 H354 0.931 . S
C339 C338 1.370 . S
C339 C343 1.408 . S
C340 C338 1.363 . S
C340 C341 1.370 . S
C340 C344 1.524 . S
C341 C333 1.503 . S
C341 C340 1.370 . S
C341 C342 1.403 . S
C342 C341 1.403 . S
C342 C343 1.404 . S
C342 C345 1.539 . S
C343 C339 1.408 . S
C343 C342 1.404 . S
C343 H355 0.930 . S
C344 C340 1.524 . S
C344 H356 0.956 . S
C344 H357 0.961 . S
C344 H358 0.961 . S
C345 C342 1.539 . S
C345 H359 0.958 . S
C345 H360 0.961 . S
C345 H361 0.960 . S
H346 C330 0.931 . S
H347 C335 0.929 . S
H348 C336 0.960 . S
H349 C336 0.962 . S
H350 C336 0.960 . S
H351 C337 0.961 . S
H352 C337 0.961 . S
H353 C337 0.961 . S
H354 C338 0.931 . S
H355 C343 0.930 . S
H356 C344 0.956 . S
H357 C344 0.961 . S
H358 C344 0.961 . S
H359 C345 0.958 . S
H360 C345 0.961 . S
H361 C345 0.960 . S
C362 C363 1.391 . S
C362 C364 1.394 . S
C362 H378 0.931 . S
C363 C362 1.391 . S
C363 C367 1.376 . S
C364 C362 1.394 . S
C364 C365 1.369 . S
C364 C368 1.531 . S
C365 C364 1.369 . S
C365 C366 1.410 . S
C365 C373 1.503 . S
C366 C365 1.410 . S
C366 C367 1.392 . S
C366 C369 1.511 . S
C367 C363 1.376 . S
C367 C366 1.392 . S
C367 H379 0.929 . S
C368 C364 1.531 . S
C368 H380 0.960 . S
C368 H381 0.962 . S
C368 H382 0.960 . S
C369 C366 1.511 . S
C369 H383 0.961 . S
C369 H384 0.961 . S
C369 H385 0.961 . S
C370 C371 1.370 . S
C370 C372 1.363 . S
C370 H386 0.931 . S
C371 C370 1.370 . S
C371 C375 1.408 . S
C372 C370 1.363 . S
C372 C373 1.370 . S
C372 C376 1.524 . S
C373 C365 1.503 . S
C373 C372 1.370 . S
C373 C374 1.403 . S
C374 C373 1.403 . S
C374 C375 1.404 . S
C374 C377 1.539 . S
C375 C371 1.408 . S
C375 C374 1.404 . S
C375 H387 0.930 . S
C376 C372 1.524 . S
C376 H388 0.956 . S
C376 H389 0.961 . S
C376 H390 0.961 . S
C377 C374 1.539 . S
C377 H391 0.958 . S
C377 H392 0.961 . S
C377 H393 0.960 . S
H378 C362 0.931 . S
H379 C367 0.929 . S
H380 C368 0.960 . S
H381 C368 0.962 . S
H382 C368 0.960 . S
H383 C369 0.961 . S
H384 C369 0.961 . S
H385 C369 0.961 . S
H386 C370 0.931 . S
H387 C375 0.930 . S
H388 C376 0.956 . S
H389 C376 0.961 . S
H390 C376 0.961 . S
H391 C377 0.958 . S
H392 C377 0.961 . S
H393 C377 0.960 . S
C394 C395 1.391 . S
C394 C396 1.394 . S
C394 H410 0.931 . S
C395 C394 1.391 . S
C395 C399 1.376 . S
C396 C394 1.394 . S
C396 C397 1.369 . S
C396 C400 1.531 . S
C397 C396 1.369 . S
C397 C398 1.410 . S
C397 C405 1.503 . S
C398 C397 1.410 . S
C398 C399 1.392 . S
C398 C401 1.511 . S
C399 C395 1.376 . S
C399 C398 1.392 . S
C399 H411 0.929 . S
C400 C396 1.531 . S
C400 H412 0.960 . S
C400 H413 0.962 . S
C400 H414 0.960 . S
C401 C398 1.511 . S
C401 H415 0.961 . S
C401 H416 0.961 . S
C401 H417 0.961 . S
C402 C403 1.370 . S
C402 C404 1.363 . S
C402 H418 0.931 . S
C403 C402 1.370 . S
C403 C407 1.408 . S
C404 C402 1.363 . S
C404 C405 1.370 . S
C404 C408 1.524 . S
C405 C397 1.503 . S
C405 C404 1.370 . S
C405 C406 1.403 . S
C406 C405 1.403 . S
C406 C407 1.404 . S
C406 C409 1.539 . S
C407 C403 1.408 . S
C407 C406 1.404 . S
C407 H419 0.930 . S
C408 C404 1.524 . S
C408 H420 0.956 . S
C408 H421 0.961 . S
C408 H422 0.961 . S
C409 C406 1.539 . S
C409 H423 0.958 . S
C409 H424 0.961 . S
C409 H425 0.960 . S
H410 C394 0.931 . S
H411 C399 0.929 . S
H412 C400 0.960 . S
H413 C400 0.962 . S
H414 C400 0.960 . S
H415 C401 0.961 . S
H416 C401 0.961 . S
H417 C401 0.961 . S
H418 C402 0.931 . S
H419 C407 0.930 . S
H420 C408 0.956 . S
H421 C408 0.961 . S
H422 C408 0.961 . S
H423 C409 0.958 . S
H424 C409 0.961 . S
H425 C409 0.960 . S
C426 C427 1.391 . S
C426 C428 1.394 . S
C426 H442 0.931 . S
C427 C426 1.391 . S
C427 C431 1.376 . S
C428 C426 1.394 . S
C428 C429 1.369 . S
C428 C432 1.531 . S
C429 C428 1.369 . S
C429 C430 1.410 . S
C429 C437 1.503 . S
C430 C429 1.410 . S
C430 C431 1.392 . S
C430 C433 1.511 . S
C431 C427 1.376 . S
C431 C430 1.392 . S
C431 H443 0.929 . S
C432 C428 1.531 . S
C432 H444 0.960 . S
C432 H445 0.962 . S
C432 H446 0.960 . S
C433 C430 1.511 . S
C433 H447 0.961 . S
C433 H448 0.961 . S
C433 H449 0.961 . S
C434 C435 1.370 . S
C434 C436 1.363 . S
C434 H450 0.931 . S
C435 C434 1.370 . S
C435 C439 1.408 . S
C436 C434 1.363 . S
C436 C437 1.370 . S
C436 C440 1.524 . S
C437 C429 1.503 . S
C437 C436 1.370 . S
C437 C438 1.403 . S
C438 C437 1.403 . S
C438 C439 1.404 . S
C438 C441 1.539 . S
C439 C435 1.408 . S
C439 C438 1.404 . S
C439 H451 0.930 . S
C440 C436 1.524 . S
C440 H452 0.956 . S
C440 H453 0.961 . S
C440 H454 0.961 . S
C441 C438 1.539 . S
C441 H455 0.958 . S
C441 H456 0.961 . S
C441 H457 0.960 . S
H442 C426 0.931 . S
H443 C431 0.929 . S
H444 C432 0.960 . S
H445 C432 0.962 . S
H446 C432 0.960 . S
H447 C433 0.961 . S
H448 C433 0.961 . S
H449 C433 0.961 . S
H450 C434 0.931 . S
H451 C439 0.930 . S
H452 C440 0.956 . S
H453 C440 0.961 . S
H454 C440 0.961 . S
H455 C441 0.958 . S
H456 C441 0.961 . S
H457 C441 0.960 . S
C458 C459 1.391 . S
C458 C460 1.394 . S
C458 H474 0.931 . S
C459 C458 1.391 . S
C459 C463 1.376 . S
C460 C458 1.394 . S
C460 C461 1.369 . S
C460 C464 1.531 . S
C461 C460 1.369 . S
C461 C462 1.410 . S
C461 C469 1.503 . S
C462 C461 1.410 . S
C462 C463 1.392 . S
C462 C465 1.511 . S
C463 C459 1.376 . S
C463 C462 1.392 . S
C463 H475 0.929 . S
C464 C460 1.531 . S
C464 H476 0.960 . S
C464 H477 0.962 . S
C464 H478 0.960 . S
C465 C462 1.511 . S
C465 H479 0.961 . S
C465 H480 0.961 . S
C465 H481 0.961 . S
C466 C467 1.370 . S
C466 C468 1.363 . S
C466 H482 0.931 . S
C467 C466 1.370 . S
C467 C471 1.408 . S
C468 C466 1.363 . S
C468 C469 1.370 . S
C468 C472 1.524 . S
C469 C461 1.503 . S
C469 C468 1.370 . S
C469 C470 1.403 . S
C470 C469 1.403 . S
C470 C471 1.404 . S
C470 C473 1.539 . S
C471 C467 1.408 . S
C471 C470 1.404 . S
C471 H483 0.930 . S
C472 C468 1.524 . S
C472 H484 0.956 . S
C472 H485 0.961 . S
C472 H486 0.961 . S
C473 C470 1.539 . S
C473 H487 0.958 . S
C473 H488 0.961 . S
C473 H489 0.960 . S
H474 C458 0.931 . S
H475 C463 0.929 . S
H476 C464 0.960 . S
H477 C464 0.962 . S
H478 C464 0.960 . S
H479 C465 0.961 . S
H480 C465 0.961 . S
H481 C465 0.961 . S
H482 C466 0.931 . S
H483 C471 0.930 . S
H484 C472 0.956 . S
H485 C472 0.961 . S
H486 C472 0.961 . S
H487 C473 0.958 . S
H488 C473 0.961 . S
H489 C473 0.960 . S
C490 C491 1.391 . S
C490 C492 1.394 . S
C490 H506 0.931 . S
C491 C490 1.391 . S
C491 C495 1.376 . S
C492 C490 1.394 . S
C492 C493 1.369 . S
C492 C496 1.531 . S
C493 C492 1.369 . S
C493 C494 1.410 . S
C493 C501 1.503 . S
C494 C493 1.410 . S
C494 C495 1.392 . S
C494 C497 1.511 . S
C495 C491 1.376 . S
C495 C494 1.392 . S
C495 H507 0.929 . S
C496 C492 1.531 . S
C496 H508 0.960 . S
C496 H509 0.962 . S
C496 H510 0.960 . S
C497 C494 1.511 . S
C497 H511 0.961 . S
C497 H512 0.961 . S
C497 H513 0.961 . S
C498 C499 1.370 . S
C498 C500 1.363 . S
C498 H514 0.931 . S
C499 C498 1.370 . S
C499 C503 1.408 . S
C500 C498 1.363 . S
C500 C501 1.370 . S
C500 C504 1.524 . S
C501 C493 1.503 . S
C501 C500 1.370 . S
C501 C502 1.403 . S
C502 C501 1.403 . S
C502 C503 1.404 . S
C502 C505 1.539 . S
C503 C499 1.408 . S
C503 C502 1.404 . S
C503 H515 0.930 . S
C504 C500 1.524 . S
C504 H516 0.956 . S
C504 H517 0.961 . S
C504 H518 0.961 . S
C505 C502 1.539 . S
C505 H519 0.958 . S
C505 H520 0.961 . S
C505 H521 0.960 . S
H506 C490 0.931 . S
H507 C495 0.929 . S
H508 C496 0.960 . S
H509 C496 0.962 . S
H510 C496 0.960 . S
H511 C497 0.961 . S
H512 C497 0.961 . S
H513 C497 0.961 . S
H514 C498 0.931 . S
H515 C503 0.930 . S
H516 C504 0.956 . S
H517 C504 0.961 . S
H518 C504 0.961 . S
H519 C505 0.958 . S
H520 C505 0.961 . S
H521 C505 0.960 . S
C522 C523 1.391 . S
C522 C524 1.394 . S
C522 H538 0.931 . S
C523 C522 1.391 . S
C523 C527 1.376 . S
C524 C522 1.394 . S
C524 C525 1.369 . S
C524 C528 1.531 . S
C525 C524 1.369 . S
C525 C526 1.410 . S
C525 C533 1.503 . S
C526 C525 1.410 . S
C526 C527 1.392 . S
C526 C529 1.511 . S
C527 C523 1.376 . S
C527 C526 1.392 . S
C527 H539 0.929 . S
C528 C524 1.531 . S
C528 H540 0.960 . S
C528 H541 0.962 . S
C528 H542 0.960 . S
C529 C526 1.511 . S
C529 H543 0.961 . S
C529 H544 0.961 . S
C529 H545 0.961 . S
C530 C531 1.370 . S
C530 C532 1.363 . S
C530 H546 0.931 . S
C531 C530 1.370 . S
C531 C535 1.408 . S
C532 C530 1.363 . S
C532 C533 1.370 . S
C532 C536 1.524 . S
C533 C525 1.503 . S
C533 C532 1.370 . S
C533 C534 1.403 . S
C534 C533 1.403 . S
C534 C535 1.404 . S
C534 C537 1.539 . S
C535 C531 1.408 . S
C535 C534 1.404 . S
C535 H547 0.930 . S
C536 C532 1.524 . S
C536 H548 0.956 . S
C536 H549 0.961 . S
C536 H550 0.961 . S
C537 C534 1.539 . S
C537 H551 0.958 . S
C537 H552 0.961 . S
C537 H553 0.960 . S
H538 C522 0.931 . S
H539 C527 0.929 . S
H540 C528 0.960 . S
H541 C528 0.962 . S
H542 C528 0.960 . S
H543 C529 0.961 . S
H544 C529 0.961 . S
H545 C529 0.961 . S
H546 C530 0.931 . S
H547 C535 0.930 . S
H548 C536 0.956 . S
H549 C536 0.961 . S
H550 C536 0.961 . S
H551 C537 0.958 . S
H552 C537 0.961 . S
H553 C537 0.960 . S
C554 C555 1.391 . S
C554 C556 1.394 . S
C554 H570 0.931 . S
C555 C554 1.391 . S
C555 C559 1.376 . S
C556 C554 1.394 . S
C556 C557 1.369 . S
C556 C560 1.531 . S
C557 C556 1.369 . S
C557 C558 1.410 . S
C557 C565 1.503 . S
C558 C557 1.410 . S
C558 C559 1.392 . S
C558 C561 1.511 . S
C559 C555 1.376 . S
C559 C558 1.392 . S
C559 H571 0.929 . S
C560 C556 1.531 . S
C560 H572 0.960 . S
C560 H573 0.962 . S
C560 H574 0.960 . S
C561 C558 1.511 . S
C561 H575 0.961 . S
C561 H576 0.961 . S
C561 H577 0.961 . S
C562 C563 1.370 . S
C562 C564 1.363 . S
C562 H578 0.931 . S
C563 C562 1.370 . S
C563 C567 1.408 . S
C564 C562 1.363 . S
C564 C565 1.370 . S
C564 C568 1.524 . S
C565 C557 1.503 . S
C565 C564 1.370 . S
C565 C566 1.403 . S
C566 C565 1.403 . S
C566 C567 1.404 . S
C566 C569 1.539 . S
C567 C563 1.408 . S
C567 C566 1.404 . S
C567 H579 0.930 . S
C568 C564 1.524 . S
C568 H580 0.956 . S
C568 H581 0.961 . S
C568 H582 0.961 . S
C569 C566 1.539 . S
C569 H583 0.958 . S
C569 H584 0.961 . S
C569 H585 0.960 . S
H570 C554 0.931 . S
H571 C559 0.929 . S
H572 C560 0.960 . S
H573 C560 0.962 . S
H574 C560 0.960 . S
H575 C561 0.961 . S
H576 C561 0.961 . S
H577 C561 0.961 . S
H578 C562 0.931 . S
H579 C567 0.930 . S
H580 C568 0.956 . S
H581 C568 0.961 . S
H582 C568 0.961 . S
H583 C569 0.958 . S
H584 C569 0.961 . S
H585 C569 0.960 . S
C586 C587 1.391 . S
C586 C588 1.394 . S
C586 H602 0.931 . S
C587 C586 1.391 . S
C587 C591 1.376 . S
C588 C586 1.394 . S
C588 C589 1.369 . S
C588 C592 1.531 . S
C589 C588 1.369 . S
C589 C590 1.410 . S
C589 C597 1.503 . S
C590 C589 1.410 . S
C590 C591 1.392 . S
C590 C593 1.511 . S
C591 C587 1.376 . S
C591 C590 1.392 . S
C591 H603 0.929 . S
C592 C588 1.531 . S
C592 H604 0.960 . S
C592 H605 0.962 . S
C592 H606 0.960 . S
C593 C590 1.511 . S
C593 H607 0.961 . S
C593 H608 0.961 . S
C593 H609 0.961 . S
C594 C595 1.370 . S
C594 C596 1.363 . S
C594 H610 0.931 . S
C595 C594 1.370 . S
C595 C599 1.408 . S
C596 C594 1.363 . S
C596 C597 1.370 . S
C596 C600 1.524 . S
C597 C589 1.503 . S
C597 C596 1.370 . S
C597 C598 1.403 . S
C598 C597 1.403 . S
C598 C599 1.404 . S
C598 C601 1.539 . S
C599 C595 1.408 . S
C599 C598 1.404 . S
C599 H611 0.930 . S
C600 C596 1.524 . S
C600 H612 0.956 . S
C600 H613 0.961 . S
C600 H614 0.961 . S
C601 C598 1.539 . S
C601 H615 0.958 . S
C601 H616 0.961 . S
C601 H617 0.960 . S
H602 C586 0.931 . S
H603 C591 0.929 . S
H604 C592 0.960 . S
H605 C592 0.962 . S
H606 C592 0.960 . S
H607 C593 0.961 . S
H608 C593 0.961 . S
H609 C593 0.961 . S
H610 C594 0.931 . S
H611 C599 0.930 . S
H612 C600 0.956 . S
H613 C600 0.961 . S
H614 C600 0.961 . S
H615 C601 0.958 . S
H616 C601 0.961 . S
H617 C601 0.960 . S
C618 C619 1.391 . S
C618 C620 1.394 . S
C618 H634 0.931 . S
C619 C618 1.391 . S
C619 C623 1.376 . S
C620 C618 1.394 . S
C620 C621 1.369 . S
C620 C624 1.531 . S
C621 C620 1.369 . S
C621 C622 1.410 . S
C621 C629 1.503 1_554 S
C622 C621 1.410 . S
C622 C623 1.392 . S
C622 C625 1.511 . S
C623 C619 1.376 . S
C623 C622 1.392 . S
C623 H635 0.929 . S
C624 C620 1.531 . S
C624 H636 0.960 . S
C624 H637 0.962 . S
C624 H638 0.960 . S
C625 C622 1.511 . S
C625 H639 0.961 . S
C625 H640 0.961 . S
C625 H641 0.961 . S
C626 C627 1.370 . S
C626 C628 1.363 . S
C626 H642 0.931 1_455 S
C627 C626 1.370 . S
C627 C631 1.408 . S
C628 C626 1.363 . S
C628 C629 1.370 . S
C628 C632 1.524 1_455 S
C629 C621 1.503 1_556 S
C629 C628 1.370 . S
C629 C630 1.403 . S
C630 C629 1.403 . S
C630 C631 1.404 . S
C630 C633 1.539 1_556 S
C631 C627 1.408 . S
C631 C630 1.404 . S
C631 H643 0.930 . S
C632 C628 1.524 1_655 S
C632 H644 0.956 . S
C632 H645 0.961 1_556 S
C632 H646 0.961 . S
C633 C630 1.539 1_554 S
C633 H647 0.958 . S
C633 H648 0.961 1_554 S
C633 H649 0.960 . S
H634 C618 0.931 . S
H635 C623 0.929 . S
H636 C624 0.960 . S
H637 C624 0.962 . S
H638 C624 0.960 . S
H639 C625 0.961 . S
H640 C625 0.961 . S
H641 C625 0.961 . S
H642 C626 0.931 1_655 S
H643 C631 0.930 . S
H644 C632 0.956 . S
H645 C632 0.961 1_554 S
H646 C632 0.961 . S
H647 C633 0.958 . S
H648 C633 0.961 1_556 S
H649 C633 0.960 . S
C650 C651 1.391 . S
C650 C652 1.394 . S
C650 H666 0.931 . S
C651 C650 1.391 . S
C651 C655 1.376 . S
C652 C650 1.394 . S
C652 C653 1.369 . S
C652 C656 1.531 . S
C653 C652 1.369 . S
C653 C654 1.410 . S
C653 C661 1.503 . S
C654 C653 1.410 . S
C654 C655 1.392 . S
C654 C657 1.511 . S
C655 C651 1.376 . S
C655 C654 1.392 . S
C655 H667 0.929 . S
C656 C652 1.531 . S
C656 H668 0.960 . S
C656 H669 0.962 . S
C656 H670 0.960 . S
C657 C654 1.511 . S
C657 H671 0.961 . S
C657 H672 0.961 . S
C657 H673 0.961 . S
C658 C659 1.370 . S
C658 C660 1.363 . S
C658 H674 0.931 1_545 S
C659 C658 1.370 . S
C659 C663 1.408 . S
C660 C658 1.363 . S
C660 C661 1.370 . S
C660 C664 1.524 1_545 S
C661 C653 1.503 . S
C661 C660 1.370 . S
C661 C662 1.403 . S
C662 C661 1.403 . S
C662 C663 1.404 . S
C662 C665 1.539 . S
C663 C659 1.408 . S
C663 C662 1.404 . S
C663 H675 0.930 . S
C664 C660 1.524 1_565 S
C664 H676 0.956 . S
C664 H677 0.961 . S
C664 H678 0.961 . S
C665 C662 1.539 . S
C665 H679 0.958 . S
C665 H680 0.961 . S
C665 H681 0.960 . S
H666 C650 0.931 . S
H667 C655 0.929 . S
H668 C656 0.960 . S
H669 C656 0.962 . S
H670 C656 0.960 . S
H671 C657 0.961 . S
H672 C657 0.961 . S
H673 C657 0.961 . S
H674 C658 0.931 1_565 S
H675 C663 0.930 . S
H676 C664 0.956 . S
H677 C664 0.961 . S
H678 C664 0.961 . S
H679 C665 0.958 . S
H680 C665 0.961 . S
H681 C665 0.960 . S
C682 C683 1.391 . S
C682 C684 1.394 . S
C682 H698 0.931 . S
C683 C682 1.391 . S
C683 C687 1.376 . S
C684 C682 1.394 . S
C684 C685 1.369 . S
C684 C688 1.531 . S
C685 C684 1.369 . S
C685 C686 1.410 . S
C685 C693 1.503 . S
C686 C685 1.410 . S
C686 C687 1.392 . S
C686 C689 1.511 . S
C687 C683 1.376 . S
C687 C686 1.392 . S
C687 H699 0.929 . S
C688 C684 1.531 . S
C688 H700 0.960 . S
C688 H701 0.962 . S
C688 H702 0.960 . S
C689 C686 1.511 . S
C689 H703 0.961 . S
C689 H704 0.961 . S
C689 H705 0.961 . S
C690 C691 1.370 . S
C690 C692 1.363 . S
C690 H706 0.931 . S
C691 C690 1.370 . S
C691 C695 1.408 . S
C692 C690 1.363 . S
C692 C693 1.370 . S
C692 C696 1.524 . S
C693 C685 1.503 . S
C693 C692 1.370 . S
C693 C694 1.403 . S
C694 C693 1.403 . S
C694 C695 1.404 . S
C694 C697 1.539 . S
C695 C691 1.408 . S
C695 C694 1.404 . S
C695 H707 0.930 . S
C696 C692 1.524 . S
C696 H708 0.956 . S
C696 H709 0.961 . S
C696 H710 0.961 . S
C697 C694 1.539 . S
C697 H711 0.958 . S
C697 H712 0.961 . S
C697 H713 0.960 . S
H698 C682 0.931 . S
H699 C687 0.929 . S
H700 C688 0.960 . S
H701 C688 0.962 . S
H702 C688 0.960 . S
H703 C689 0.961 . S
H704 C689 0.961 . S
H705 C689 0.961 . S
H706 C690 0.931 . S
H707 C695 0.930 . S
H708 C696 0.956 . S
H709 C696 0.961 . S
H710 C696 0.961 . S
H711 C697 0.958 . S
H712 C697 0.961 . S
H713 C697 0.960 . S
C714 C715 1.391 . S
C714 C716 1.394 . S
C714 H730 0.931 1_545 S
C715 C714 1.391 . S
C715 C719 1.376 . S
C716 C714 1.394 . S
C716 C717 1.369 . S
C716 C720 1.531 1_545 S
C717 C716 1.369 . S
C717 C718 1.410 . S
C717 C725 1.503 . S
C718 C717 1.410 . S
C718 C719 1.392 . S
C718 C721 1.511 . S
C719 C715 1.376 . S
C719 C718 1.392 . S
C719 H731 0.929 . S
C720 C716 1.531 1_565 S
C720 H732 0.960 . S
C720 H733 0.962 . S
C720 H734 0.960 . S
C721 C718 1.511 . S
C721 H735 0.961 . S
C721 H736 0.961 . S
C721 H737 0.961 . S
C722 C723 1.370 . S
C722 C724 1.363 . S
C722 H738 0.931 . S
C723 C722 1.370 . S
C723 C727 1.408 . S
C724 C722 1.363 . S
C724 C725 1.370 . S
C724 C728 1.524 . S
C725 C717 1.503 . S
C725 C724 1.370 . S
C725 C726 1.403 . S
C726 C725 1.403 . S
C726 C727 1.404 . S
C726 C729 1.539 . S
C727 C723 1.408 . S
C727 C726 1.404 . S
C727 H739 0.930 . S
C728 C724 1.524 . S
C728 H740 0.956 . S
C728 H741 0.961 . S
C728 H742 0.961 . S
C729 C726 1.539 . S
C729 H743 0.958 . S
C729 H744 0.961 . S
C729 H745 0.960 . S
H730 C714 0.931 1_565 S
H731 C719 0.929 . S
H732 C720 0.960 . S
H733 C720 0.962 . S
H734 C720 0.960 . S
H735 C721 0.961 . S
H736 C721 0.961 . S
H737 C721 0.961 . S
H738 C722 0.931 . S
H739 C727 0.930 . S
H740 C728 0.956 . S
H741 C728 0.961 . S
H742 C728 0.961 . S
H743 C729 0.958 . S
H744 C729 0.961 . S
H745 C729 0.960 . S
C746 C747 1.391 . S
C746 C748 1.394 . S
C746 H762 0.931 . S
C747 C746 1.391 . S
C747 C751 1.376 . S
C748 C746 1.394 . S
C748 C749 1.369 . S
C748 C752 1.531 . S
C749 C748 1.369 . S
C749 C750 1.410 . S
C749 C757 1.535 . S
C750 C749 1.410 . S
C750 C751 1.392 . S
C750 C753 1.511 . S
C751 C747 1.376 . S
C751 C750 1.392 . S
C751 H763 0.929 . S
C752 C748 1.531 . S
C752 H764 0.960 . S
C752 H765 0.962 . S
C752 H766 0.960 . S
C753 C750 1.511 . S
C753 H767 0.961 . S
C753 H768 0.961 . S
C753 H769 0.961 . S
C754 C755 1.370 . S
C754 C756 1.363 . S
C754 H770 0.931 . S
C755 C754 1.370 . S
C755 C759 1.408 . S
C756 C754 1.363 . S
C756 C757 1.362 1_554 S
C756 C760 1.524 1_554 S
C757 C749 1.535 . S
C757 C756 1.362 1_556 S
C757 C758 1.380 1_556 S
C758 C757 1.380 1_554 S
C758 C759 1.404 . S
C758 C761 1.539 . S
C759 C755 1.408 . S
C759 C758 1.404 . S
C759 H771 0.930 . S
C760 C756 1.524 1_556 S
C760 H772 0.956 . S
C760 H773 0.961 . S
C760 H774 0.961 . S
C761 C758 1.539 . S
C761 H775 0.958 . S
C761 H776 0.961 . S
C761 H777 0.996 . S
H762 C746 0.931 . S
H763 C751 0.929 . S
H764 C752 0.960 . S
H765 C752 0.962 . S
H766 C752 0.960 . S
H767 C753 0.961 . S
H768 C753 0.961 . S
H769 C753 0.961 . S
H770 C754 0.931 . S
H771 C759 0.930 . S
H772 C760 0.956 . S
H773 C760 0.961 . S
H774 C760 0.961 . S
H775 C761 0.958 . S
H776 C761 0.961 . S
H777 C761 0.996 . S
C778 C779 1.391 1_655 S
C778 C780 1.394 . S
C778 H794 0.931 . S
C779 C778 1.391 1_455 S
C779 C783 1.376 . S
C780 C778 1.394 . S
C780 C781 1.369 1_655 S
C780 C784 1.531 . S
C781 C780 1.369 1_455 S
C781 C782 1.410 . S
C781 C789 1.503 . S
C782 C781 1.410 . S
C782 C783 1.392 . S
C782 C785 1.511 . S
C783 C779 1.376 . S
C783 C782 1.392 . S
C783 H795 0.929 . S
C784 C780 1.531 . S
C784 H796 0.960 . S
C784 H797 0.962 . S
C784 H798 0.960 . S
C785 C782 1.511 . S
C785 H799 0.961 . S
C785 H800 0.961 . S
C785 H801 0.961 . S
C786 C787 1.370 . S
C786 C788 1.363 . S
C786 H802 0.931 . S
C787 C786 1.370 . S
C787 C791 1.408 . S
C788 C786 1.363 . S
C788 C789 1.370 . S
C788 C792 1.524 . S
C789 C781 1.503 . S
C789 C788 1.370 . S
C789 C790 1.403 . S
C790 C789 1.403 . S
C790 C791 1.404 . S
C790 C793 1.539 . S
C791 C787 1.408 . S
C791 C790 1.404 . S
C791 H803 0.930 . S
C792 C788 1.524 . S
C792 H804 0.956 . S
C792 H805 0.961 . S
C792 H806 0.961 . S
C793 C790 1.539 . S
C793 H807 0.958 1_455 S
C793 H808 0.961 . S
C793 H809 0.960 . S
H794 C778 0.931 . S
H795 C783 0.929 . S
H796 C784 0.960 . S
H797 C784 0.962 . S
H798 C784 0.960 . S
H799 C785 0.961 . S
H800 C785 0.961 . S
H801 C785 0.961 . S
H802 C786 0.931 . S
H803 C791 0.930 . S
H804 C792 0.956 . S
H805 C792 0.961 . S
H806 C792 0.961 . S
H807 C793 0.958 1_655 S
H808 C793 0.961 . S
H809 C793 0.960 . S
C235 C6 0.672 . S
C243 C226 0.790 . S
C267 C59 1.972 . S
C275 C188 1.939 . S
C299 C86 1.272 . S
C307 C207 1.235 . S
C331 C15 0.221 . S
C339 C221 0.153 . S
C371 C183 1.858 . S
C363 C50 1.883 . S
C403 C202 1.117 . S
C395 C95 1.129 . S
C427 C46 1.331 . S
C435 C150 1.256 . S
C459 C99 3.053 . S
C467 C164 3.045 1_655 S
C491 C10 1.903 . S
C499 C126 1.896 . S
C531 C145 1.084 . S
C523 C55 1.085 . S
C563 C169 3.069 . S
C555 C90 3.099 . S
C587 C19 2.005 . S
C595 C131 1.948 . S
C627 C160 1.726 . S
C619 C18 1.698 . S
C651 C49 1.460 . S
C659 C122 1.536 . S
C683 C98 1.567 . S
C691 C141 1.575 . S
C723 C198 1.563 . S
C715 C58 1.574 . S
C755 C217 1.354 . S
C747 C89 1.350 . S
C779 C9 1.394 . S
C787 C179 1.489 . S
