# Generated by pormake.
# Topology zzz, (3,6)-cn, num edge types: 1
# Building blocks:
#     Node 0, Type 0, BuildingBlock: BETDIP_clean_linker_0, # of connection points: 3
#     Node 1, Type 0, BuildingBlock: BETDIP_clean_linker_0, # of connection points: 3
#     Node 2, Type 0, BuildingBlock: BETDIP_clean_linker_0, # of connection points: 3
#     Node 3, Type 0, BuildingBlock: BETDIP_clean_linker_0, # of connection points: 3
#     Node 4, Type 0, BuildingBlock: BETDIP_clean_linker_0, # of connection points: 3
#     Node 5, Type 0, BuildingBlock: BETDIP_clean_linker_0, # of connection points: 3
#     Node 6, Type 0, BuildingBlock: BETDIP_clean_linker_0, # of connection points: 3
#     Node 7, Type 0, BuildingBlock: BETDIP_clean_linker_0, # of connection points: 3
#     Node 8, Type 1, BuildingBlock: NUHQIS_clean_sbu_0, # of connection points: 6
#     Node 9, Type 1, BuildingBlock: NUHQIS_clean_sbu_0, # of connection points: 6
#     Node 10, Type 1, BuildingBlock: NUHQIS_clean_sbu_0, # of connection points: 6
#     Node 11, Type 1, BuildingBlock: NUHQIS_clean_sbu_0, # of connection points: 6
#     Edge 12, Type (0, 1), BuildingBlock: TEMPAE_clean_linker_10, # of connection points: 2
#     Edge 13, Type (0, 1), BuildingBlock: TEMPAE_clean_linker_10, # of connection points: 2
#     Edge 14, Type (0, 1), BuildingBlock: TEMPAE_clean_linker_10, # of connection points: 2
#     Edge 15, Type (0, 1), BuildingBlock: TEMPAE_clean_linker_10, # of connection points: 2
#     Edge 16, Type (0, 1), BuildingBlock: TEMPAE_clean_linker_10, # of connection points: 2
#     Edge 17, Type (0, 1), BuildingBlock: TEMPAE_clean_linker_10, # of connection points: 2
#     Edge 18, Type (0, 1), BuildingBlock: TEMPAE_clean_linker_10, # of connection points: 2
#     Edge 19, Type (0, 1), BuildingBlock: TEMPAE_clean_linker_10, # of connection points: 2
#     Edge 20, Type (0, 1), BuildingBlock: TEMPAE_clean_linker_10, # of connection points: 2
#     Edge 21, Type (0, 1), BuildingBlock: TEMPAE_clean_linker_10, # of connection points: 2
#     Edge 22, Type (0, 1), BuildingBlock: TEMPAE_clean_linker_10, # of connection points: 2
#     Edge 23, Type (0, 1), BuildingBlock: TEMPAE_clean_linker_10, # of connection points: 2
#     Edge 24, Type (0, 1), BuildingBlock: TEMPAE_clean_linker_10, # of connection points: 2
#     Edge 25, Type (0, 1), BuildingBlock: TEMPAE_clean_linker_10, # of connection points: 2
#     Edge 26, Type (0, 1), BuildingBlock: TEMPAE_clean_linker_10, # of connection points: 2
#     Edge 27, Type (0, 1), BuildingBlock: TEMPAE_clean_linker_10, # of connection points: 2
#     Edge 28, Type (0, 1), BuildingBlock: TEMPAE_clean_linker_10, # of connection points: 2
#     Edge 29, Type (0, 1), BuildingBlock: TEMPAE_clean_linker_10, # of connection points: 2
#     Edge 30, Type (0, 1), BuildingBlock: TEMPAE_clean_linker_10, # of connection points: 2
#     Edge 31, Type (0, 1), BuildingBlock: TEMPAE_clean_linker_10, # of connection points: 2
#     Edge 32, Type (0, 1), BuildingBlock: TEMPAE_clean_linker_10, # of connection points: 2
#     Edge 33, Type (0, 1), BuildingBlock: TEMPAE_clean_linker_10, # of connection points: 2
#     Edge 34, Type (0, 1), BuildingBlock: TEMPAE_clean_linker_10, # of connection points: 2
#     Edge 35, Type (0, 1), BuildingBlock: TEMPAE_clean_linker_10, # of connection points: 2
# Relax obj value: 0.252
# Max RMSD: 0.155
# Mean RMSD: 0.136
data_MOF--net-zzz--node1-NUHQIS_clean_sbu_0--node2-BETDIP_clean_linker_0--edge1-TEMPAE_clean_linker_10
_symmetry_space_group_name_H-M    P1
_symmetry_Int_Tables_number       1
_symmetry_cell_setting            triclinic
loop_
_symmetry_equiv_pos_as_xyz
'x, y, z'
_cell_length_a     53.043182
_cell_length_b     53.235604
_cell_length_c     14.084635
_cell_angle_alpha  89.649091
_cell_angle_beta   90.439903
_cell_angle_gamma 90.081572
loop_
_atom_site_label
_atom_site_type_symbol
_atom_site_fract_x
_atom_site_fract_y
_atom_site_fract_z
_atom_type_partial_charge
H0 H 0.76672 0.52683 0.46731 0.0
H1 H 0.74354 0.52629 0.17318 0.0
H2 H 0.82187 0.52813 0.24356 0.0
H3 H 0.71895 0.56691 0.2835 0.0
C4 C 0.71045 0.54878 0.29952 0.0
C5 C 0.77165 0.52729 0.39289 0.0
C6 C 0.79744 0.52635 0.36521 0.0
C7 C 0.75213 0.5288 0.32278 0.0
C8 C 0.75837 0.52735 0.22644 0.0
C9 C 0.78344 0.52628 0.19845 0.0
C10 C 0.80254 0.52766 0.26741 0.0
N11 N 0.72608 0.53065 0.34678 0.0
H12 H 1.008 0.77089 0.46129 0.0
H13 H 0.03849 0.76323 0.17902 0.0
H14 H 0.04782 0.83227 0.32979 0.0
H15 H 0.99107 0.74405 0.18332 0.0
C16 C 1.00039 0.7302 0.22851 0.0
C17 C 0.01828 0.77866 0.40179 0.0
C18 C 0.02774 0.80355 0.40612 0.0
C19 C 0.02201 0.76397 0.31918 0.0
C20 C 0.03536 0.7743 0.24215 0.0
C21 C 0.04448 0.79891 0.24598 0.0
C22 C 0.0407 0.81315 0.3277 0.0
N23 N 1.01266 0.73884 0.31288 0.0
H24 H 0.76492 1.00928 0.47529 0.0
H25 H 0.77392 0.03988 0.19227 0.0
H26 H 0.70344 0.04756 0.33535 0.0
H27 H 0.79376 0.99406 0.19826 0.0
C28 C 0.80738 1.00299 0.24535 0.0
C29 C 0.75736 0.01939 0.41454 0.0
C30 C 0.73215 0.02825 0.41569 0.0
C31 C 0.77263 0.02347 0.33326 0.0
C32 C 0.76249 0.03653 0.25456 0.0
C33 C 0.73758 0.04496 0.25526 0.0
C34 C 0.7228 0.04094 0.33568 0.0
N35 N 0.79804 0.01457 0.32937 0.0
H36 H 0.5325 0.76519 0.45224 0.0
H37 H 0.47422 0.78671 0.25216 0.0
H38 H 0.46874 0.7169 0.4044 0.0
H39 H 0.52957 0.79426 0.1912 0.0
C40 C 0.5239 0.80914 0.23903 0.0
C41 C 0.51439 0.76165 0.41893 0.0
C42 C 0.50169 0.73866 0.4359 0.0
C43 C 0.50417 0.77937 0.3534 0.0
C44 C 0.48149 0.77383 0.3056 0.0
C45 C 0.46837 0.75162 0.3256 0.0
C46 C 0.47829 0.73465 0.39231 0.0
N47 N 0.51667 0.80252 0.33335 0.0
H48 H 0.27306 0.51536 0.02199 0.0
H49 H 0.28551 0.48031 0.29555 0.0
H50 H 0.21563 0.46911 0.1462 0.0
H51 H 0.30129 0.53021 0.29227 0.0
C52 C 0.31559 0.52095 0.25007 0.0
C53 C 0.26682 0.50288 0.07809 0.0
C54 C 0.24232 0.49215 0.07389 0.0
C55 C 0.28286 0.49797 0.1575 0.0
C56 C 0.27388 0.48308 0.23275 0.0
C57 C 0.24965 0.4727 0.22965 0.0
C58 C 0.23471 0.47639 0.14807 0.0
N59 N 0.30756 0.50865 0.16497 0.0
H60 H 0.02235 0.26919 0.09645 0.0
H61 H 0.98704 0.27832 0.36967 0.0
H62 H 0.98449 0.207 0.23068 0.0
H63 H 0.97405 0.31666 0.26207 0.0
C64 C 0.99398 0.32136 0.26719 0.0
C65 C 1.01193 0.26143 0.15562 0.0
C66 C 1.00394 0.236 0.15384 0.0
C67 C 1.00516 0.2771 0.23272 0.0
C68 C 0.99164 0.26674 0.30921 0.0
C69 C 0.98468 0.24143 0.30956 0.0
C70 C 0.99056 0.22648 0.23141 0.0
N71 N 1.01169 0.30317 0.23453 0.0
H72 H 0.26398 0.02228 0.10022 0.0
H73 H 0.23991 0.95923 0.27179 0.0
H74 H 0.31187 0.95773 0.13712 0.0
H75 H 0.20111 0.97054 0.17883 0.0
C76 C 0.20179 0.98902 0.21128 0.0
C77 C 0.26711 1.0035 0.12773 0.0
C78 C 0.29045 0.99128 0.11154 0.0
C79 C 0.24804 0.99137 0.18189 0.0
C80 C 0.25322 0.96774 0.22325 0.0
C81 C 0.27611 0.95563 0.20696 0.0
C82 C 0.29396 0.96702 0.14811 0.0
N83 N 0.22447 1.00338 0.20095 0.0
H84 H 0.51132 0.26417 0.05124 0.0
H85 H 0.55942 0.24341 0.28789 0.0
H86 H 0.56915 0.31468 0.1516 0.0
H87 H 0.55574 0.2038 0.16045 0.0
C88 C 0.53687 0.20416 0.19011 0.0
C89 C 0.52686 0.26843 0.09881 0.0
C90 C 0.53997 0.29161 0.08982 0.0
C91 C 0.53459 0.2504 0.16812 0.0
C92 C 0.55429 0.25638 0.23136 0.0
C93 C 0.56676 0.27938 0.22439 0.0
C94 C 0.55982 0.29653 0.15346 0.0
N95 N 0.52237 0.22657 0.1772 0.0
Tb96 Tb 0.03302 1.01175 0.87043 0.0
Eu97 Eu 0.99507 0.02763 0.69526 0.0
C98 C 0.05407 0.01808 0.65527 0.0
C99 C 0.01833 0.0691 0.83483 0.0
C100 C 0.08482 0.98258 1.0039 0.0
C101 C 0.11084 0.95255 0.92007 0.0
C102 C 0.09646 0.97454 0.92021 0.0
C103 C 0.08954 0.96972 0.08889 0.0
C104 C 0.10353 0.94757 0.08868 0.0
C105 C 0.1132 0.93789 1.00316 0.0
C106 C 0.0643 1.00103 1.00016 0.0
O107 O 0.99508 1.00463 0.92587 0.0
O108 O 0.97367 0.03245 0.83177 0.0
O109 O 0.99728 0.98521 0.68901 0.0
O110 O 0.02906 0.97598 0.79657 0.0
C111 C 0.97482 0.01809 0.90755 0.0
O112 O 0.95751 0.02273 0.63425 0.0
O113 O 0.98386 0.0486 0.56841 0.0
O114 O 0.03134 0.02037 0.61857 0.0
O115 O 0.05805 0.01684 0.74783 0.0
O116 O 0.02234 0.05087 0.89665 0.0
O117 O 1.01226 0.06413 0.7463 0.0
C118 C 1.01283 0.96922 0.7303 0.0
O119 O 0.06705 0.01986 0.94157 0.0
O120 O 0.04186 0.9912 0.99369 0.0
C121 C 0.94158 0.06093 0.57362 0.0
C122 C 0.91503 0.10668 0.57956 0.0
C123 C 0.91838 0.09222 0.66261 0.0
C124 C 0.93178 0.06964 0.6598 0.0
C125 C 0.93609 0.07389 0.48953 0.0
C126 C 0.92301 0.09655 0.4923 0.0
C127 C 0.96051 0.04087 0.57259 0.0
H128 H 0.11847 0.94614 0.85342 0.0
H129 H 0.093 0.98424 0.85365 0.0
H130 H 0.08062 0.9756 0.15407 0.0
H131 H 0.10447 0.93694 0.15432 0.0
H132 H 0.91214 0.09908 0.73069 0.0
H133 H 0.93578 0.05983 0.72575 0.0
H134 H 0.94353 0.06745 0.42247 0.0
H135 H 0.92126 0.10707 0.42658 0.0
Tb136 Tb 0.51808 0.03314 0.8433 0.0
Eu137 Eu 0.5037 0.99705 0.66517 0.0
C138 C 0.50994 0.05631 0.63893 0.0
C139 C 0.4612 0.01499 0.81134 0.0
C140 C 0.55085 0.08229 0.97652 0.0
C141 C 0.5835 0.10684 0.89844 0.0
C142 C 0.56047 0.09406 0.89479 0.0
C143 C 0.56365 0.08489 0.06295 0.0
C144 C 0.58678 0.09731 0.06647 0.0
C145 C 0.59751 0.10766 0.98354 0.0
C146 C 0.52988 0.06432 0.97001 0.0
O147 O 0.51156 0.99676 0.91333 0.0
O148 O 0.51402 0.97052 0.78452 0.0
O149 O 0.54421 1.00859 0.6419 0.0
O150 O 0.55485 0.01949 0.79425 0.0
C151 C 0.51326 0.9741 0.87665 0.0
O152 O 0.50964 0.96262 0.58462 0.0
O153 O 0.48305 0.99055 0.5338 0.0
O154 O 0.49569 0.03696 0.61758 0.0
O155 O 0.52441 0.05564 0.71499 0.0
O156 O 0.47661 0.03326 0.83668 0.0
O157 O 0.46883 0.9967 0.75638 0.0
C158 C 0.56134 0.0138 0.70681 0.0
O159 O 0.51303 0.06868 0.90416 0.0
O160 O 0.53656 0.04077 0.97229 0.0
C161 C 0.47323 0.94867 0.5034 0.0
C162 C 0.42983 0.9215 0.45347 0.0
C163 C 0.44847 0.92666 0.3856 0.0
C164 C 0.47003 0.94017 0.41041 0.0
C165 C 0.45589 0.9416 0.57353 0.0
C166 C 0.43431 0.92795 0.54872 0.0
C167 C 0.49213 0.96804 0.52242 0.0
H168 H 0.59094 0.11482 0.83353 0.0
H169 H 0.55091 0.09221 0.82705 0.0
H170 H 0.55663 0.07579 0.12655 0.0
H171 H 0.59708 0.0969 0.13308 0.0
H172 H 0.4453 0.92209 0.31169 0.0
H173 H 0.48323 0.94557 0.35555 0.0
H174 H 0.45813 0.94818 0.64578 0.0
H175 H 0.42012 0.9245 0.60218 0.0
Tb176 Tb 0.49691 0.51952 0.83697 0.0
Eu177 Eu 0.53773 0.50959 0.67258 0.0
C178 C 0.47937 0.51119 0.6284 0.0
C179 C 0.51622 0.46388 0.80181 0.0
C180 C 0.45552 0.55171 0.00566 0.0
C181 C 0.42252 0.57809 0.07005 0.0
C182 C 0.43035 0.55508 0.03283 0.0
C183 C 0.47284 0.57137 0.01685 0.0
C184 C 0.46514 0.59415 0.05472 0.0
C185 C 0.43991 0.59778 0.08107 0.0
C186 C 0.46316 0.52865 0.95768 0.0
O187 O 0.53338 0.53097 0.89916 0.0
O188 O 0.55803 0.50471 0.81246 0.0
O189 O 0.53857 0.55166 0.69203 0.0
O190 O 0.50041 0.55623 0.76561 0.0
C191 C 0.55486 0.51897 0.88704 0.0
O192 O 0.57604 0.51311 0.61883 0.0
O193 O 0.54718 0.4952 0.533 0.0
O194 O 0.50099 0.5205 0.60067 0.0
O195 O 0.47744 0.50239 0.71545 0.0
O196 O 0.50817 0.48059 0.86291 0.0
O197 O 0.52433 0.47063 0.7172 0.0
C198 C 0.51985 0.56584 0.7202 0.0
O199 O 0.45933 0.52876 0.8664 0.0
O200 O 0.48545 0.51998 0.97945 0.0
C201 C 0.58752 0.47802 0.52904 0.0
C202 C 0.6096 0.43157 0.48718 0.0
C203 C 0.61 0.45131 0.42024 0.0
C204 C 0.59892 0.47439 0.441 0.0
C205 C 0.58898 0.45916 0.5989 0.0
C206 C 0.60003 0.43609 0.57823 0.0
C207 C 0.57122 0.49976 0.54352 0.0
H208 H 0.40301 0.58052 0.09013 0.0
H209 H 0.4167 0.54012 0.02352 0.0
H210 H 0.49223 0.56929 0.9945 0.0
H211 H 0.4788 0.6092 0.06131 0.0
H212 H 0.61733 0.44828 0.3497 0.0
H213 H 0.5979 0.48881 0.38651 0.0
H214 H 0.58011 0.4617 0.66724 0.0
H215 H 0.59915 0.42117 0.63077 0.0
Tb216 Tb 1.00881 0.50455 0.85949 0.0
Eu217 Eu 0.02301 0.53955 0.67921 0.0
C218 C 0.01888 0.479 0.65942 0.0
C219 C 0.06601 0.51588 0.81566 0.0
C220 C 0.97098 0.46224 1.00434 0.0
C221 C 0.93501 0.44327 0.9243 0.0
C222 C 0.96045 0.45019 0.92487 0.0
C223 C 0.95654 0.46494 0.0862 0.0
C224 C 0.93105 0.4586 0.08502 0.0
C225 C 0.91954 0.44901 1.00204 0.0
C226 C 0.99404 0.47731 0.99543 0.0
O227 O 1.00254 0.54309 0.90957 0.0
O228 O 0.02551 0.56596 0.80255 0.0
O229 O 0.98105 0.54414 0.701 0.0
O230 O 0.97509 0.5055 0.76752 0.0
C231 C 1.01363 0.56416 0.88349 0.0
O232 O 0.04663 0.56819 0.61333 0.0
O233 O 0.01576 0.55199 0.53328 0.0
O234 O 0.01715 0.50097 0.61717 0.0
O235 O 0.01966 0.47701 0.75252 0.0
O236 O 0.04875 0.5136 0.88201 0.0
O237 O 0.05936 0.5206 0.72711 0.0
C238 C 0.96614 0.52515 0.72117 0.0
O239 O 1.0106 0.47006 0.93366 0.0
O240 O 0.98985 0.5013 0.98885 0.0
C241 C 0.05585 0.55382 0.46232 0.0
C242 C 0.09925 0.52721 0.41373 0.0
C243 C 0.10043 0.55333 0.42596 0.0
C244 C 0.07877 0.56661 0.45044 0.0
C245 C 0.05423 0.52833 0.43695 0.0
C246 C 0.07588 0.51502 0.41414 0.0
C247 C 0.0373 0.56385 0.52906 0.0
H248 H 0.92716 0.43516 0.86027 0.0
H249 H 0.97126 0.44791 0.86054 0.0
H250 H 0.9643 0.47433 0.14796 0.0
H251 H 0.9201 0.46363 0.1465 0.0
H252 H 0.11841 0.56301 0.42511 0.0
H253 H 0.0805 0.58618 0.47019 0.0
H254 H 0.0368 0.51797 0.44455 0.0
H255 H 0.07463 0.49492 0.40322 0.0
C256 C 0.17897 0.0191 0.3214 0.0
C257 C 0.18017 0.99615 0.27318 0.0
C258 C 0.15859 0.02455 0.38228 0.0
C259 C 0.13915 1.00652 0.39642 0.0
C260 C 0.14032 0.98345 0.34703 0.0
C261 C 0.16058 0.9787 0.28585 0.0
C262 C 0.15792 0.04956 0.43197 0.0
C263 C 0.12033 0.96349 0.3598 0.0
C264 C 0.09951 1.00719 0.62275 0.0
C265 C 0.0762 0.01642 0.58988 0.0
C266 C 0.12017 1.00431 0.56125 0.0
C267 C 0.11784 1.01128 0.46419 0.0
C268 C 0.09457 0.02126 0.43104 0.0
C269 C 0.07405 0.02348 0.49376 0.0
C270 C 0.14428 0.99301 0.59971 0.0
C271 C 0.09122 0.02929 0.32875 0.0
H272 H 0.19395 0.03273 0.31197 0.0
H273 H 0.16133 0.96093 0.24874 0.0
H274 H 0.13982 0.05922 0.41627 0.0
H275 H 0.15897 0.04663 0.50994 0.0
H276 H 0.1737 0.06202 0.41033 0.0
H277 H 0.12468 0.94605 0.32027 0.0
H278 H 0.11839 0.95868 0.43617 0.0
H279 H 0.10183 0.97071 0.3347 0.0
H280 H 0.1015 1.00157 0.69641 0.0
H281 H 0.05627 0.03079 0.46728 0.0
H282 H 0.16036 1.00584 0.58605 0.0
H283 H 0.14826 0.97514 0.56255 0.0
H284 H 0.14336 0.98913 0.67721 0.0
H285 H 0.10646 0.04251 0.30817 0.0
H286 H 0.07273 0.0385 0.3156 0.0
H287 H 0.09263 0.01271 0.28181 0.0
C288 C 0.54427 0.16073 0.25092 0.0
C289 C 0.52912 0.18233 0.25052 0.0
C290 C 0.53949 0.14037 0.31239 0.0
C291 C 0.51897 0.14144 0.37608 0.0
C292 C 0.50318 0.163 0.37462 0.0
C293 C 0.5084 0.18317 0.31177 0.0
C294 C 0.55677 0.11786 0.31027 0.0
C295 C 0.48118 0.16504 0.44134 0.0
C296 C 0.49799 0.07878 0.48616 0.0
C297 C 0.51095 0.07865 0.57365 0.0
C298 C 0.49984 0.09929 0.42242 0.0
C299 C 0.51491 0.12039 0.44637 0.0
C300 C 0.52755 0.1206 0.53547 0.0
C301 C 0.52548 0.09982 0.59753 0.0
C302 C 0.48614 0.09808 0.32824 0.0
C303 C 0.54389 0.14255 0.56442 0.0
H304 H 0.56031 0.15992 0.20373 0.0
H305 H 0.49668 0.19983 0.3125 0.0
H306 H 0.56513 0.1145 0.38166 0.0
H307 H 0.54584 0.10083 0.29103 0.0
H308 H 0.57232 0.12027 0.25868 0.0
H309 H 0.46993 0.18232 0.42837 0.0
H310 H 0.46866 0.14845 0.43376 0.0
H311 H 0.48816 0.16519 0.51581 0.0
H312 H 0.48669 0.06263 0.46648 0.0
H313 H 0.53556 0.10011 0.66465 0.0
H314 H 0.50003 0.0976 0.26977 0.0
H315 H 0.47443 0.11513 0.31757 0.0
H316 H 0.47382 0.08125 0.32269 0.0
H317 H 0.56009 0.14424 0.51544 0.0
H318 H 0.55129 0.14055 0.63809 0.0
H319 H 0.53301 0.16029 0.55905 0.0
C320 C 0.34823 0.53653 0.36371 0.0
C321 C 0.34184 0.5201 0.28975 0.0
C322 C 0.37164 0.53506 0.41118 0.0
C323 C 0.38926 0.51632 0.38577 0.0
C324 C 0.38319 0.49998 0.30938 0.0
C325 C 0.35964 0.50215 0.26188 0.0
C326 C 0.37722 0.55323 0.49057 0.0
C327 C 0.40121 0.47961 0.28013 0.0
C328 C 0.45705 0.52511 0.47748 0.0
C329 C 0.45698 0.51109 0.56252 0.0
C330 C 0.43551 0.52644 0.41792 0.0
C331 C 0.41325 0.51321 0.44292 0.0
C332 C 0.41336 0.49841 0.52713 0.0
C333 C 0.43504 0.49768 0.5859 0.0
C334 C 0.4363 0.54274 0.32983 0.0
C335 C 0.3903 0.48376 0.55656 0.0
H336 H 0.33458 0.55044 0.38575 0.0
H337 H 0.35482 0.48921 0.20547 0.0
H338 H 0.37876 0.54285 0.55892 0.0
H339 H 0.39556 0.56272 0.47842 0.0
H340 H 0.36237 0.56779 0.49738 0.0
H341 H 0.39444 0.4693 0.2165 0.0
H342 H 0.42001 0.48776 0.26477 0.0
H343 H 0.40372 0.466 0.33944 0.0
H344 H 0.47379 0.53565 0.4585 0.0
H345 H 0.43468 0.48669 0.6509 0.0
H346 H 0.42294 0.55861 0.3372 0.0
H347 H 0.43023 0.53185 0.26675 0.0
H348 H 0.45541 0.55051 0.31661 0.0
H349 H 0.37482 0.49693 0.57378 0.0
H350 H 0.39396 0.4716 0.61954 0.0
H351 H 0.38361 0.47181 0.49718 0.0
C352 C 0.0258 0.35153 0.34093 0.0
C353 C 1.00084 0.34495 0.31825 0.0
C354 C 0.03121 0.37332 0.39457 0.0
C355 C 1.01122 0.38883 0.42647 0.0
C356 C 0.98609 0.38232 0.40227 0.0
C357 C 0.98128 0.36061 0.34876 0.0
C358 C 0.05826 0.37961 0.41813 0.0
C359 C 0.96412 0.39813 0.43413 0.0
C360 C 0.01756 0.43178 0.64232 0.0
C361 C 0.01917 0.45572 0.60011 0.0
C362 C 0.016 0.40984 0.58686 0.0
C363 C 0.01617 0.41166 0.48631 0.0
C364 C 0.01871 0.43568 0.44337 0.0
C365 C 0.02005 0.45731 0.50049 0.0
C366 C 1.01317 0.38473 0.63603 0.0
C367 C 0.01907 0.43868 0.33673 0.0
H368 H 0.04103 0.33952 0.31799 0.0
H369 H 0.96195 0.35564 0.33167 0.0
H370 H 0.06277 0.3989 0.39311 0.0
H371 H 0.0611 0.3793 0.49625 0.0
H372 H 0.0717 0.36626 0.38558 0.0
H373 H 0.94572 0.39066 0.4087 0.0
H374 H 0.9638 0.39895 0.51281 0.0
H375 H 0.96625 0.41767 0.4075 0.0
H376 H 0.01683 0.43017 0.71899 0.0
H377 H 0.02135 0.47556 0.46658 0.0
H378 H 0.02738 0.37129 0.60933 0.0
H379 H 0.99428 0.37679 0.61985 0.0
H380 H 0.01531 0.38619 0.71434 0.0
H381 H 0.03281 0.4255 0.30517 0.0
H382 H 0.024 0.45812 0.31449 0.0
H383 H 1.00022 0.43401 0.30699 0.0
C384 C 0.85238 0.01969 0.25597 0.0
C385 C 0.83411 1.00437 0.21261 0.0
C386 C 0.87679 0.02222 0.21685 0.0
C387 C 0.88307 1.00913 0.13256 0.0
C388 C 0.86483 0.99308 0.09079 0.0
C389 C 0.84073 0.99098 0.13103 0.0
C390 C 0.89559 0.0395 0.26399 0.0
C391 C 0.87046 0.97866 1.00139 0.0
C392 C 0.93201 0.03343 0.95675 0.0
C393 C 0.95242 0.01701 0.97177 0.0
C394 C 0.90993 0.0318 0.0114 0.0
C395 C 0.9079 0.01323 0.08353 0.0
C396 C 0.92876 0.99716 0.10152 0.0
C397 C 0.95072 0.99925 0.04569 0.0
C398 C 0.88836 0.04942 0.9893 0.0
C399 C 0.92752 0.9771 0.17745 0.0
H400 H 0.84744 0.03019 0.31878 0.0
H401 H 0.82674 0.97911 0.09709 0.0
H402 H 0.91374 0.0296 0.27613 0.0
H403 H 0.89948 0.05575 0.21659 0.0
H404 H 0.8887 0.04669 0.33298 0.0
H405 H 0.8548 0.96587 0.98081 0.0
H406 H 0.87383 0.99199 0.94194 0.0
H407 H 0.88786 0.96736 0.01108 0.0
H408 H 0.93304 0.04745 0.90082 0.0
H409 H 0.9663 0.98649 0.05847 0.0
H410 H 0.882 0.05881 0.05499 0.0
H411 H 0.87212 0.03859 0.96086 0.0
H412 H 0.89356 0.06406 0.93635 0.0
H413 H 0.92113 0.98525 0.24543 0.0
H414 H 0.94603 0.9678 0.18934 0.0
H415 H 0.91353 0.9626 0.15652 0.0
C416 C 0.5048 0.85244 0.22694 0.0
C417 C 0.52378 0.83546 0.20214 0.0
C418 C 0.50254 0.87595 0.18046 0.0
C419 C 0.52021 0.8831 0.10999 0.0
C420 C 0.54013 0.86638 0.08839 0.0
C421 C 0.54131 0.84264 0.13306 0.0
C422 C 0.48044 0.89254 0.20322 0.0
C423 C 0.55984 0.87325 0.01596 0.0
C424 C 0.50317 0.92879 0.9089 0.0
C425 C 0.51382 0.95148 0.94005 0.0
C426 C 0.50425 0.90682 0.96509 0.0
C427 C 0.51702 0.90712 0.05394 0.0
C428 C 0.52762 0.93007 0.08627 0.0
C429 C 0.52556 0.95203 0.0297 0.0
C430 C 0.49191 0.88316 0.92856 0.0
C431 C 0.54188 0.93124 0.17925 0.0
H432 H 0.49089 0.84678 0.2789 0.0
H433 H 0.55594 0.8295 0.11329 0.0
H434 H 0.48708 0.91159 0.22265 0.0
H435 H 0.46818 0.89461 0.13946 0.0
H436 H 0.46897 0.88478 0.26218 0.0
H437 H 0.57553 0.85947 0.01462 0.0
H438 H 0.5511 0.87411 0.94422 0.0
H439 H 0.56773 0.89213 0.03131 0.0
H440 H 0.49379 0.92822 0.84027 0.0
H441 H 0.53393 0.96943 0.05418 0.0
H442 H 0.47927 0.87509 0.98329 0.0
H443 H 0.50652 0.86889 0.91339 0.0
H444 H 0.48076 0.88656 0.86264 0.0
H445 H 0.5296 0.92503 0.23831 0.0
H446 H 0.54892 0.95046 0.19483 0.0
H447 H 0.55818 0.91822 0.1774 0.0
C448 C 0.67475 0.56158 0.19378 0.0
C449 C 0.68589 0.54291 0.25109 0.0
C450 C 0.65265 0.55699 0.1407 0.0
C451 C 0.64088 0.53311 0.1452 0.0
C452 C 0.65163 0.5143 0.20512 0.0
C453 C 0.67408 0.51935 0.25688 0.0
C454 C 0.64235 0.57759 0.07724 0.0
C455 C 0.63978 0.48862 0.21277 0.0
C456 C 0.57294 0.53104 0.04802 0.0
C457 C 0.57643 0.52186 0.95572 0.0
C458 C 0.5935 0.53374 0.11192 0.0
C459 C 0.61832 0.5277 0.08253 0.0
C460 C 0.62183 0.51825 0.98969 0.0
C461 C 0.60096 0.51525 0.92823 0.0
C462 C 0.5887 0.54331 0.21072 0.0
C463 C 0.64783 0.51199 0.95392 0.0
H464 H 0.68375 0.57983 0.18864 0.0
H465 H 0.6825 0.50478 0.30076 0.0
H466 H 0.64268 0.57142 1.00214 0.0
H467 H 0.62242 0.58153 0.09521 0.0
H468 H 0.65331 0.59531 0.08334 0.0
H469 H 0.64826 0.47732 0.27132 0.0
H470 H 0.61919 0.49024 0.22446 0.0
H471 H 0.64241 0.47836 0.14528 0.0
H472 H 0.55412 0.53598 0.07063 0.0
H473 H 0.60404 0.5082 0.85723 0.0
H474 H 0.59793 0.56185 0.2201 0.0
H475 H 0.59708 0.53031 0.26414 0.0
H476 H 0.56826 0.54535 0.22542 0.0
H477 H 0.65965 0.52921 0.95294 0.0
H478 H 0.64737 0.50399 0.88126 0.0
H479 H 0.65716 0.49831 1.00234 0.0
C480 C 0.98547 0.69692 0.11806 0.0
C481 C 1.00115 0.70371 0.19435 0.0
C482 C 0.98701 0.67308 0.07596 0.0
C483 C 1.00498 0.65545 0.10981 0.0
C484 C 0.02043 0.66191 0.18888 0.0
C485 C 0.01827 0.68594 0.23053 0.0
C486 C 0.96992 0.66712 0.99281 0.0
C487 C 0.03994 0.64382 0.22708 0.0
C488 C 0.99657 0.58754 0.0254 0.0
C489 C 1.01225 0.5869 0.94542 0.0
C490 C 0.99454 0.60939 0.08133 0.0
C491 C 1.00865 0.63118 0.0575 0.0
C492 C 0.02503 0.63036 0.97854 0.0
C493 C 0.02655 0.60841 0.92361 0.0
C494 C 0.97674 0.60938 0.16436 0.0
C495 C 0.04057 0.65297 0.95043 0.0
H496 H 0.97219 0.71056 0.08977 0.0
H497 H 0.03059 0.69107 0.28903 0.0
H498 H 0.98133 0.66492 0.92771 0.0
H499 H 0.95994 0.64909 0.00528 0.0
H500 H 0.95567 0.68205 0.97968 0.0
H501 H 0.04905 0.65074 0.29324 0.0
H502 H 0.03123 0.62525 0.24167 0.0
H503 H 0.05474 0.64092 0.17299 0.0
H504 H 0.98546 0.57112 0.04338 0.0
H505 H 0.03892 0.60822 0.86275 0.0
H506 H 0.9612 0.62287 0.15045 0.0
H507 H 0.9867 0.61568 0.22955 0.0
H508 H 0.96844 0.59054 0.17783 0.0
H509 H 0.02792 0.6685 0.92777 0.0
H510 H 0.05367 0.64883 0.89142 0.0
H511 H 0.05173 0.65974 0.01214 0.0
C512 C 0.94912 0.24089 0.42669 0.0
C513 C 0.97097 0.22991 0.39 0.0
C514 C 0.93326 0.22719 0.48768 0.0
C515 C 0.93919 0.20185 0.50955 0.0
C516 C 0.96257 0.1917 0.47971 0.0
C517 C 0.97831 0.20609 0.42202 0.0
C518 C 0.90972 0.23966 0.52365 0.0
C519 C 0.97028 0.16489 0.50163 0.0
C520 C 0.91894 0.14879 0.65737 0.0
C521 C 0.90861 0.1339 0.58445 0.0
C522 C 0.92408 0.17431 0.64117 0.0
C523 C 0.92014 0.18429 0.54923 0.0
C524 C 0.9045 0.1711 0.48463 0.0
C525 C 0.89833 0.14603 0.50437 0.0
C526 C 0.9375 0.18923 0.71678 0.0
C527 C 0.89798 0.18185 0.38819 0.0
H528 H 0.94363 0.25958 0.40364 0.0
H529 H 0.99573 0.19803 0.39644 0.0
H530 H 0.89614 0.24215 0.46403 0.0
H531 H 0.90052 0.22881 0.58134 0.0
H532 H 0.91436 0.25871 0.55037 0.0
H533 H 0.98856 0.15981 0.46893 0.0
H534 H 0.97216 0.1621 0.57938 0.0
H535 H 0.95574 0.15161 0.47506 0.0
H536 H 0.92595 0.14021 0.72227 0.0
H537 H 0.88853 0.13508 0.4509 0.0
H538 H 0.93046 0.18392 0.78819 0.0
H539 H 0.93485 0.20974 0.7057 0.0
H540 H 0.95797 0.18508 0.71507 0.0
H541 H 0.89046 0.20114 0.39537 0.0
H542 H 0.88378 0.17022 0.35011 0.0
H543 H 0.91525 0.18291 0.34423 0.0
C544 C 0.29543 0.91335 0.2255 0.0
C545 C 0.28475 0.93458 0.26753 0.0
C546 C 0.3152 0.90049 0.27123 0.0
C547 C 0.32491 0.91007 0.35754 0.0
C548 C 0.31066 0.92793 0.4083 0.0
C549 C 0.2904 0.93992 0.36254 0.0
C550 C 0.32844 0.87966 0.21973 0.0
C551 C 0.31952 0.93771 0.50312 0.0
C552 C 0.38934 0.8969 0.46847 0.0
C553 C 0.40403 0.91496 0.42146 0.0
C554 C 0.36374 0.89356 0.44434 0.0
C555 C 0.3526 0.90932 0.37426 0.0
C556 C 0.3678 0.92692 0.32461 0.0
C557 C 0.39323 0.92929 0.34833 0.0
C558 C 0.34882 0.8738 0.49664 0.0
C559 C 0.35708 0.94446 0.24969 0.0
H560 H 0.29062 0.90882 0.15261 0.0
H561 H 0.28177 0.95608 0.39572 0.0
H562 H 0.34375 0.88771 0.17564 0.0
H563 H 0.33701 0.86611 0.2708 0.0
H564 H 0.31519 0.86952 0.17195 0.0
H565 H 0.30459 0.94861 0.53927 0.0
H566 H 0.32546 0.92199 0.55007 0.0
H567 H 0.33607 0.95019 0.49253 0.0
H568 H 0.39772 0.88571 0.52497 0.0
H569 H 0.40439 0.94359 0.313 0.0
H570 H 0.33102 0.8688 0.45939 0.0
H571 H 0.34424 0.88078 0.56854 0.0
H572 H 0.36031 0.85653 0.50628 0.0
H573 H 0.34165 0.95585 0.28003 0.0
H574 H 0.34926 0.93347 0.18972 0.0
H575 H 0.37146 0.9575 0.22058 0.0
C576 C 0.6087 0.29541 0.27353 0.0
C577 C 0.58427 0.28811 0.29869 0.0
C578 C 0.62118 0.31439 0.3241 0.0
C579 C 0.60829 0.32671 0.3979 0.0
C580 C 0.5857 0.3162 0.43369 0.0
C581 C 0.57394 0.29674 0.38349 0.0
C582 C 0.64625 0.32384 0.28904 0.0
C583 C 0.57176 0.32822 0.5146 0.0
C584 C 0.62685 0.38813 0.51554 0.0
C585 C 0.61411 0.4054 0.45681 0.0
C586 C 0.62686 0.36237 0.49418 0.0
C587 C 0.61317 0.35381 0.41394 0.0
C588 C 0.60145 0.37143 0.35186 0.0
C589 C 0.60228 0.39695 0.37378 0.0
C590 C 0.64042 0.34451 0.56047 0.0
C591 C 0.58648 0.36334 0.26531 0.0
H592 H 0.61679 0.28842 0.20834 0.0
H593 H 0.55508 0.29086 0.40303 0.0
H594 H 0.65795 0.33101 0.34872 0.0
H595 H 0.65674 0.30881 0.25192 0.0
H596 H 0.64312 0.33953 0.23806 0.0
H597 H 0.55682 0.31569 0.54314 0.0
H598 H 0.58496 0.33311 0.57301 0.0
H599 H 0.56276 0.34586 0.48918 0.0
H600 H 0.63615 0.39466 0.57963 0.0
H601 H 0.59208 0.41014 0.32894 0.0
H602 H 0.64562 0.32671 0.52506 0.0
H603 H 0.62804 0.34001 0.62141 0.0
H604 H 0.65779 0.35338 0.58954 0.0
H605 H 0.59864 0.35258 0.21652 0.0
H606 H 0.57844 0.37952 0.22516 0.0
H607 H 0.5707 0.3509 0.28698 0.0
C608 C 0.23668 0.48058 0.39466 0.0
C609 C 0.2369 0.46405 0.31744 0.0
C610 C 0.21428 0.48452 0.44447 0.0
C611 C 0.19227 0.47168 0.41475 0.0
C612 C 0.19453 0.45042 0.3558 0.0
C613 C 0.21742 0.4463 0.30949 0.0
C614 C 0.21301 0.50599 0.51355 0.0
C615 C 0.1718 0.43519 0.32683 0.0
C616 C 0.12744 0.49495 0.4854 0.0
C617 C 0.12251 0.51234 0.41246 0.0
C618 C 0.15022 0.48161 0.48863 0.0
C619 C 0.16798 0.48542 0.41558 0.0
C620 C 0.16276 0.50291 0.34112 0.0
C621 C 0.14012 0.5163 0.34116 0.0
C622 C 0.15495 0.4635 0.56965 0.0
C623 C 0.18075 0.50728 0.25991 0.0
H624 H 0.25219 0.49358 0.40519 0.0
H625 H 0.2182 0.43242 0.25355 0.0
H626 H 0.2074 0.52335 0.47478 0.0
H627 H 0.19881 0.5023 0.56933 0.0
H628 H 0.23164 0.50938 0.54775 0.0
H629 H 0.15864 0.4328 0.38698 0.0
H630 H 0.1616 0.44519 0.26877 0.0
H631 H 0.17734 0.41638 0.30045 0.0
H632 H 0.11368 0.49222 0.54112 0.0
H633 H 0.13603 0.52975 0.28499 0.0
H634 H 0.17507 0.46336 0.59169 0.0
H635 H 0.14987 0.44424 0.54672 0.0
H636 H 0.14324 0.46811 0.63224 0.0
H637 H 0.20008 0.51108 0.28643 0.0
H638 H 0.17499 0.52335 0.21402 0.0
H639 H 0.1813 0.4902 0.21542 0.0
C640 C 0.0501 0.83458 0.13547 0.0
C641 C 0.05789 0.81077 0.16582 0.0
C642 C 0.06609 0.85006 0.08295 0.0
C643 C 0.09028 0.84108 0.05714 0.0
C644 C 0.0968 0.81574 0.07655 0.0
C645 C 0.08057 0.80088 0.13216 0.0
C646 C 0.05787 0.87686 0.06394 0.0
C647 C 0.12142 0.80459 0.04479 0.0
C648 C 0.11176 0.8961 0.92146 0.0
C649 C 0.12015 0.91076 0.99846 0.0
C650 C 0.10699 0.87035 0.93367 0.0
C651 C 0.10932 0.85978 0.02541 0.0
C652 C 0.12305 0.87297 0.09589 0.0
C653 C 0.12892 0.89834 0.08043 0.0
C654 C 0.09552 0.85564 0.85313 0.0
C655 C 0.12772 0.86175 0.19304 0.0
H656 H 0.03223 0.84189 0.16002 0.0
H657 H 0.08645 0.78224 0.15453 0.0
H658 H 0.07085 0.8901 0.10039 0.0
H659 H 0.05846 0.88107 0.98689 0.0
H660 H 0.03843 0.8806 0.08892 0.0
H661 H 0.11818 0.7854 0.01667 0.0
H662 H 0.13078 0.8161 0.98932 0.0
H663 H 0.13432 0.80269 0.1068 0.0
H664 H 0.10591 0.90492 0.85545 0.0
H665 H 0.13727 0.90912 0.13765 0.0
H666 H 0.07471 0.85735 0.85516 0.0
H667 H 0.10038 0.83541 0.85931 0.0
H668 H 0.10203 0.86296 0.78347 0.0
H669 H 0.10959 0.86023 0.23163 0.0
H670 H 0.14091 0.87334 0.23604 0.0
H671 H 0.13564 0.84259 0.18667 0.0
C672 C 0.70279 0.0484 0.13881 0.0
C673 C 0.72588 0.05754 0.17236 0.0
C674 C 0.68719 0.06327 0.08152 0.0
C675 C 0.69528 0.08775 0.055 0.0
C676 C 0.72009 0.09567 0.07813 0.0
C677 C 0.7351 0.0805 0.13797 0.0
C678 C 0.66109 0.05351 0.05774 0.0
C679 C 0.73039 0.12066 0.04574 0.0
C680 C 0.64046 0.10668 0.91003 0.0
C681 C 0.62473 0.11459 0.98408 0.0
C682 C 0.66631 0.1029 0.92648 0.0
C683 C 0.67591 0.1057 0.01954 0.0
C684 C 0.66142 0.11869 0.08743 0.0
C685 C 0.63596 0.12352 0.06784 0.0
C686 C 0.68233 0.09228 0.84857 0.0
C687 C 0.67147 0.12373 0.186 0.0
H688 H 0.69607 0.03032 0.16403 0.0
H689 H 0.75322 0.08738 0.16283 0.0
H690 H 0.64658 0.06588 0.0891 0.0
H691 H 0.65812 0.05342 0.9798 0.0
H692 H 0.65794 0.0341 0.08464 0.0
H693 H 0.75014 0.11841 0.02152 0.0
H694 H 0.71909 0.12915 0.98722 0.0
H695 H 0.73085 0.13381 0.10655 0.0
H696 H 0.63244 0.10065 0.84297 0.0
H697 H 0.62421 0.13134 0.12295 0.0
H698 H 0.68001 0.07159 0.84646 0.0
H699 H 0.7026 0.09657 0.86042 0.0
H700 H 0.67636 0.1 0.77853 0.0
H701 H 0.67349 0.10571 0.22543 0.0
H702 H 0.65881 0.1362 0.22683 0.0
H703 H 0.69035 0.13261 0.18219 0.0
C704 C 0.42642 0.73159 0.30617 0.0
C705 C 0.4477 0.7425 0.26404 0.0
C706 C 0.41472 0.7107 0.26444 0.0
C707 C 0.42501 0.70069 0.1805 0.0
C708 C 0.44268 0.71508 0.1282 0.0
C709 C 0.45377 0.73614 0.17075 0.0
C710 C 0.39453 0.69694 0.31863 0.0
C711 C 0.45348 0.70568 0.03621 0.0
C712 C 0.44676 0.63339 0.19018 0.0
C713 C 0.43227 0.62245 0.1183 0.0
C714 C 0.44334 0.65849 0.21501 0.0
C715 C 0.42479 0.67305 0.16674 0.0
C716 C 0.40867 0.66151 0.09929 0.0
C717 C 0.41259 0.63616 0.07584 0.0
C718 C 0.46068 0.66964 0.28937 0.0
C719 C 0.38777 0.67597 0.05055 0.0
H720 H 0.42132 0.73697 0.37764 0.0
H721 H 0.46994 0.7449 0.13731 0.0
H722 H 0.38124 0.68735 0.26958 0.0
H723 H 0.4034 0.68245 0.36491 0.0
H724 H 0.38383 0.70998 0.36454 0.0
H725 H 0.46265 0.72106 0.99544 0.0
H726 H 0.46789 0.69111 0.05211 0.0
H727 H 0.43865 0.697 0.99118 0.0
H728 H 0.46158 0.6225 0.22427 0.0
H729 H 0.40117 0.62748 0.02089 0.0
H730 H 0.44945 0.67742 0.34832 0.0
H731 H 0.47191 0.68517 0.25807 0.0
H732 H 0.47393 0.65557 0.31982 0.0
H733 H 0.37255 0.67956 0.10229 0.0
H734 H 0.37958 0.6655 0.98967 0.0
H735 H 0.39455 0.6945 0.02484 0.0
C736 C 0.81207 0.52872 0.06054 0.0
C737 C 0.79046 0.51834 0.1017 0.0
C738 C 0.82818 0.51361 0.00739 0.0
C739 C 0.82154 0.48813 0.99214 0.0
C740 C 0.79672 0.48007 0.01157 0.0
C741 C 0.78141 0.49521 0.06833 0.0
C742 C 0.85386 0.52374 0.98163 0.0
C743 C 0.78762 0.4543 0.98393 0.0
C744 C 0.88033 0.45721 0.90487 0.0
C745 C 0.8915 0.44993 0.9917 0.0
C746 C 0.85552 0.46627 0.90081 0.0
C747 C 0.84217 0.4694 0.9861 0.0
C748 C 0.85203 0.45898 0.07168 0.0
C749 C 0.87622 0.44849 0.0723 0.0
C750 C 0.84473 0.47439 0.80619 0.0
C751 C 0.83837 0.4613 0.16508 0.0
H752 H 0.81838 0.54717 0.08285 0.0
H753 H 0.76409 0.48742 0.09651 0.0
H754 H 0.86865 0.51379 0.02344 0.0
H755 H 0.85758 0.5205 0.90541 0.0
H756 H 0.85558 0.54419 0.99549 0.0
H757 H 0.7672 0.4548 0.96589 0.0
H758 H 0.7982 0.44691 0.92237 0.0
H759 H 0.79006 0.44114 0.04465 0.0
H760 H 0.89145 0.45794 0.84116 0.0
H761 H 0.884 0.44133 0.13845 0.0
H762 H 0.82444 0.47933 0.80951 0.0
H763 H 0.847 0.45897 0.75427 0.0
H764 H 0.85544 0.4908 0.77906 0.0
H765 H 0.84957 0.45384 0.22595 0.0
H766 H 0.82031 0.45086 0.16184 0.0
H767 H 0.83395 0.48127 0.17936 0.0
C768 C 0.03266 0.2093 0.05405 0.0
C769 C 1.00839 0.2182 0.07378 0.0
C770 C 0.03616 0.18692 1.00198 0.0
C771 C 0.01491 0.17285 0.97053 0.0
C772 C 0.99049 0.18288 0.98429 0.0
C773 C 0.98759 0.20543 0.03459 0.0
C774 C 0.06257 0.17741 0.98669 0.0
C775 C 0.96718 0.16863 0.95391 0.0
C776 C 0.01873 0.1161 0.80386 0.0
C777 C 0.01885 0.0958 0.86829 0.0
C778 C 0.01837 0.14125 0.83565 0.0
C779 C 0.01775 0.1464 0.93437 0.0
C780 C 0.01805 0.12597 0.99953 0.0
C781 C 0.01882 0.1011 0.96591 0.0
C782 C 0.01852 0.16233 0.76354 0.0
C783 C 0.01678 0.13032 0.10526 0.0
H784 H 0.04881 0.2188 0.08499 0.0
H785 H 0.96876 0.21208 0.05021 0.0
H786 H 0.06635 0.16143 0.03564 0.0
H787 H 0.06473 0.17044 0.91311 0.0
H788 H 0.07692 0.19221 1.00012 0.0
H789 H 0.94989 0.1803 0.95858 0.0
H790 H 0.96902 0.16178 0.88011 0.0
H791 H 0.96481 0.15192 1.00051 0.0
H792 H 0.01891 0.11236 0.72832 0.0
H793 H 0.01877 0.08572 0.01666 0.0
H794 H 0.03571 0.17394 0.77366 0.0
H795 H 1.00208 0.17483 0.77401 0.0
H796 H 0.0181 0.15533 0.6894 0.0
H797 H 0.03265 0.14246 0.12844 0.0
H798 H 0.0175 0.11251 0.14673 0.0
H799 H 0.99904 0.14026 0.12263 0.0
C800 C 0.33562 1.00452 0.11782 0.0
C801 C 0.3129 1.00336 0.06589 0.0
C802 C 0.3589 1.00889 0.07325 0.0
C803 C 0.35976 0.01262 0.97362 0.0
C804 C 0.33667 0.0133 0.92155 0.0
C805 C 0.31354 1.00845 0.9681 0.0
C806 C 0.38276 1.00779 0.13233 0.0
C807 C 0.3365 0.01781 0.81578 0.0
C808 C 0.42306 0.03695 0.87893 0.0
C809 C 0.43463 0.01482 0.84724 0.0
C810 C 0.39835 0.03676 0.91591 0.0
C811 C 0.38493 0.01378 0.92425 0.0
C812 C 0.39647 0.99142 0.89159 0.0
C813 C 0.42091 0.99226 0.85257 0.0
C814 C 0.38674 0.06116 0.94749 0.0
C815 C 0.38334 0.96636 0.9009 0.0
H816 H 0.33531 1.00042 0.19333 0.0
H817 H 0.29621 1.00723 0.92714 0.0
H818 H 0.39408 0.99125 0.11116 0.0
H819 H 0.39447 0.02472 0.11967 0.0
H820 H 0.37884 1.00633 0.20955 0.0
H821 H 0.31719 0.02143 0.78791 0.0
H822 H 0.34875 0.03403 0.79747 0.0
H823 H 0.34418 1.0011 0.77937 0.0
H824 H 0.43333 0.05454 0.87463 0.0
H825 H 0.42961 0.975 0.82896 0.0
H826 H 0.38444 0.06095 0.02568 0.0
H827 H 0.3677 0.06341 0.91544 0.0
H828 H 0.39845 0.07768 0.92777 0.0
H829 H 0.37999 0.96209 0.97702 0.0
H830 H 0.39447 0.95079 0.87001 0.0
H831 H 0.36467 0.96702 0.865 0.0
C832 C 0.50872 0.32143 0.01089 0.0
C833 C 0.53335 0.31203 0.01957 0.0
C834 C 0.50388 0.34456 0.96388 0.0
C835 C 0.52416 0.35891 0.92621 0.0
C836 C 0.54874 0.34858 0.92923 0.0
C837 C 0.5529 0.32524 0.97407 0.0
C838 C 0.47722 0.35432 0.9594 0.0
C839 C 0.57113 0.36306 0.89199 0.0
C840 C 0.51604 0.41722 0.76615 0.0
C841 C 0.51727 0.43687 0.8322 0.0
C842 C 0.51711 0.39177 0.79565 0.0
C843 C 0.5204 0.3857 0.89333 0.0
C844 C 0.52181 0.40554 0.95998 0.0
C845 C 0.51983 0.43069 0.92891 0.0
C846 C 0.51492 0.37138 0.7221 0.0
C847 C 0.5262 0.40027 0.06432 0.0
H848 H 0.49346 0.31154 0.04568 0.0
H849 H 0.57197 0.31802 0.97901 0.0
H850 H 0.47506 0.36988 0.01073 0.0
H851 H 0.4729 0.36196 0.88761 0.0
H852 H 0.46324 0.33947 0.97687 0.0
H853 H 0.58868 0.3517 0.89314 0.0
H854 H 0.56756 0.36959 0.81824 0.0
H855 H 0.57422 0.38 0.93621 0.0
H856 H 0.51392 0.42172 0.69136 0.0
H857 H 0.52106 0.44565 0.98062 0.0
H858 H 0.50086 0.35711 0.74458 0.0
H859 H 0.53326 0.36163 0.71495 0.0
H860 H 0.5093 0.37893 0.65135 0.0
H861 H 0.51095 0.3881 0.09233 0.0
H862 H 0.52696 0.41772 0.10711 0.0
H863 H 0.54422 0.38998 0.07434 0.0
C864 C 0.21084 0.52265 1.00473 0.0
C865 C 0.22228 0.4989 1.00227 0.0
C866 C 0.18663 0.52679 0.96452 0.0
C867 C 0.17324 0.50666 0.92133 0.0
C868 C 0.1855 0.48311 0.91314 0.0
C869 C 0.20972 0.47957 0.95332 0.0
C870 C 0.17467 0.5523 0.97438 0.0
C871 C 0.17221 0.46094 0.86897 0.0
C872 C 0.10089 0.50675 0.93463 0.0
C873 C 0.09351 0.51341 0.84175 0.0
C874 C 0.12655 0.50451 0.96095 0.0
C875 C 0.14574 0.50936 0.89343 0.0
C876 C 0.13846 0.51615 0.79948 0.0
C877 C 0.11259 0.51799 0.77479 0.0
C878 C 0.13305 0.49716 0.0619 0.0
C879 C 0.15804 0.52175 0.72511 0.0
H880 H 0.21996 0.53752 0.04458 0.0
H881 H 0.21808 0.46099 0.95296 0.0
H882 H 0.16532 0.55808 0.90698 0.0
H883 H 0.15999 0.55146 0.03 0.0
H884 H 0.18869 0.56687 0.99468 0.0
H885 H 0.18507 0.44474 0.85882 0.0
H886 H 0.15651 0.45488 0.91553 0.0
H887 H 0.16388 0.46623 0.79926 0.0
H888 H 0.08653 0.50317 0.98739 0.0
H889 H 0.10734 0.52324 0.70284 0.0
H890 H 0.14152 0.51352 0.09857 0.0
H891 H 0.14715 0.48178 0.06338 0.0
H892 H 0.11624 0.49102 0.10252 0.0
H893 H 0.16952 0.53816 0.74732 0.0
H894 H 0.14949 0.52585 0.65445 0.0
H895 H 0.17108 0.50561 0.71822 0.0
C896 C 0.99991 0.82898 0.5138 0.0
C897 C 0.02409 0.82106 0.48772 0.0
C898 C 0.99649 0.85113 0.5672 0.0
C899 C 0.01768 0.86599 0.5934 0.0
C900 C 0.04217 0.85686 0.57387 0.0
C901 C 0.04503 0.83447 0.5226 0.0
C902 C 0.97008 0.85951 0.58985 0.0
C903 C 0.06541 0.87189 0.59922 0.0
C904 C 1.01048 0.93745 0.59988 0.0
C905 C 1.01285 0.94267 0.69701 0.0
C906 C 1.01176 0.91266 0.56576 0.0
C907 C 0.01451 0.89228 0.63048 0.0
C908 C 0.01601 0.89741 0.72916 0.0
C909 C 0.01566 0.92253 0.76105 0.0
C910 C 1.01101 0.90838 0.45988 0.0
C911 C 0.0177 0.87636 0.80109 0.0
H912 H 0.98362 0.81892 0.48671 0.0
H913 H 0.06379 0.82848 0.50275 0.0
H914 H 0.9691 0.86662 0.66363 0.0
H915 H 0.96457 0.87512 0.5415 0.0
H916 H 0.95621 0.84402 0.58118 0.0
H917 H 0.083 0.86089 0.59005 0.0
H918 H 0.06636 0.88879 0.55284 0.0
H919 H 0.06458 0.87847 0.67366 0.0
H920 H 1.00851 0.95292 0.54995 0.0
H921 H 0.01721 0.92642 0.83634 0.0
H922 H 0.99506 0.89582 0.44117 0.0
H923 H 0.0286 0.89892 0.43735 0.0
H924 H 1.00897 0.92617 0.41895 0.0
H925 H 0.02076 0.88339 0.87436 0.0
H926 H 0.03317 0.86329 0.78314 0.0
H927 H 0.99993 0.86534 0.79943 0.0
C928 C 0.7011 0.04505 0.53161 0.0
C929 C 0.71395 0.02418 0.49515 0.0
C930 C 0.67795 0.04241 0.57889 0.0
C931 C 0.66729 0.01821 0.59186 0.0
C932 C 0.6814 0.99688 0.56349 0.0
C933 C 0.70445 1.00011 0.51484 0.0
C934 C 0.66376 0.06579 0.60647 0.0
C935 C 0.67121 0.97069 0.57779 0.0
C936 C 0.60807 0.01404 0.74726 0.0
C937 C 0.58859 0.01409 0.67893 0.0
C938 C 0.63373 0.01462 0.72048 0.0
C939 C 0.64024 0.01568 0.62294 0.0
C940 C 0.62062 0.01574 0.55388 0.0
C941 C 0.59524 0.01472 0.58253 0.0
C942 C 0.65389 0.01401 0.79659 0.0
C943 C 0.62641 0.01744 0.44918 0.0
H944 H 0.70816 0.06373 0.51577 0.0
H945 H 0.71396 0.98391 0.48576 0.0
H946 H 0.64788 0.0688 0.55595 0.0
H947 H 0.65562 0.06374 0.67837 0.0
H948 H 0.67599 0.08275 0.60507 0.0
H949 H 0.68595 0.95619 0.56728 0.0
H950 H 0.66332 0.96851 0.65011 0.0
H951 H 0.65569 0.96726 0.5262 0.0
H952 H 0.60329 0.0134 0.82191 0.0
H953 H 0.5805 0.01495 0.52882 0.0
H954 H 0.66711 0.02997 0.78734 0.0
H955 H 0.66507 0.99651 0.79008 0.0
H956 H 0.64588 0.01477 0.86917 0.0
H957 H 0.63689 0.03506 0.43403 0.0
H958 H 0.60909 0.01714 0.40431 0.0
H959 H 0.63864 1.00157 0.42818 0.0
C960 C 0.5176 0.69473 0.43426 0.0
C961 C 0.51301 0.7166 0.48669 0.0
C962 C 0.52085 0.67122 0.47883 0.0
C963 C 0.5199 0.66931 0.57915 0.0
C964 C 0.51703 0.69164 0.63296 0.0
C965 C 0.51333 0.71498 0.5861 0.0
C966 C 0.52365 0.64815 0.4179 0.0
C967 C 0.51652 0.69069 0.73995 0.0
C968 C 0.49717 0.60591 0.6766 0.0
C969 C 0.5199 0.5931 0.69347 0.0
C970 C 0.49692 0.63083 0.64177 0.0
C971 C 0.51997 0.64375 0.62595 0.0
C972 C 0.54296 0.63129 0.64731 0.0
C973 C 0.54266 0.60607 0.67915 0.0
C974 C 0.47194 0.64294 0.61764 0.0
C975 C 0.56796 0.64439 0.63442 0.0
H976 H 0.51692 0.6958 0.35734 0.0
H977 H 0.50927 0.73165 0.62703 0.0
H978 H 0.5411 0.63788 0.43765 0.0
H979 H 0.50757 0.6352 0.4302 0.0
H980 H 0.52435 0.65282 0.34097 0.0
H981 H 0.51803 0.70971 0.77155 0.0
H982 H 0.49858 0.68204 0.76365 0.0
H983 H 0.53215 0.67886 0.76785 0.0
H984 H 0.47948 0.59605 0.68661 0.0
H985 H 0.56035 0.59645 0.69258 0.0
H986 H 0.47096 0.647 0.54028 0.0
H987 H 0.47014 0.66111 0.65504 0.0
H988 H 0.45568 0.63082 0.63693 0.0
H989 H 0.57153 0.64738 0.5577 0.0
H990 H 0.58386 0.63339 0.6651 0.0
H991 H 0.56761 0.66316 0.66827 0.0
C992 C 0.84179 0.51111 0.40077 0.0
C993 C 0.81976 0.52315 0.43282 0.0
C994 C 0.86472 0.512 0.45107 0.0
C995 C 0.86561 0.52252 0.54323 0.0
C996 C 0.84278 0.53225 0.58149 0.0
C997 C 0.82044 0.53311 0.52506 0.0
C998 C 0.88782 0.50199 0.40168 0.0
C999 C 0.84142 0.54212 0.68148 0.0
C1000 C 0.9258 0.50234 0.678 0.0
C1001 C 0.93955 0.52488 0.68332 0.0
C1002 C 0.90171 0.50131 0.63462 0.0
C1003 C 0.89042 0.52354 0.59718 0.0
C1004 C 0.90419 0.54641 0.60331 0.0
C1005 C 0.92836 0.5468 0.64634 0.0
C1006 C 0.88955 0.47587 0.62274 0.0
C1007 C 0.89397 0.5704 0.56034 0.0
H1008 H 0.84165 0.50141 0.3335 0.0
H1009 H 0.80373 0.54199 0.55309 0.0
H1010 H 0.90584 0.50814 0.43441 0.0
H1011 H 0.88708 0.48115 0.4016 0.0
H1012 H 0.88778 0.50809 0.32607 0.0
H1013 H 0.82485 0.53384 0.71801 0.0
H1014 H 0.85851 0.53801 0.72458 0.0
H1015 H 0.83847 0.56276 0.67905 0.0
H1016 H 0.93429 0.48511 0.70435 0.0
H1017 H 0.93874 0.56434 0.64934 0.0
H1018 H 0.89719 0.46691 0.55825 0.0
H1019 H 0.86876 0.47702 0.61514 0.0
H1020 H 0.89436 0.46323 0.68285 0.0
H1021 H 0.8867 0.56701 0.48738 0.0
H1022 H 0.90847 0.58545 0.55715 0.0
H1023 H 0.87808 0.57725 0.60371 0.0
loop_
_geom_bond_atom_site_label_1
_geom_bond_atom_site_label_2
_geom_bond_distance
_geom_bond_site_symmetry_2
_ccdc_geom_bond_type
H0 C5 0.930 . S
H1 C8 0.930 . S
H2 C10 0.930 . S
H3 C4 1.016 . S
C4 H3 1.016 . S
C4 N11 1.286 . S
C5 H0 0.930 . S
C5 C6 1.397 . S
C5 C7 1.361 . S
C6 C5 1.397 . S
C6 C10 1.390 . S
C7 C5 1.361 . S
C7 C8 1.393 . S
C7 N11 1.413 . S
C8 H1 0.930 . S
C8 C7 1.393 . S
C8 C9 1.399 . S
C9 C8 1.399 . S
C9 C10 1.381 . S
C10 H2 0.930 . S
C10 C6 1.390 . S
C10 C9 1.381 . S
N11 C4 1.286 . S
N11 C7 1.413 . S
H12 C17 0.930 . S
H13 C20 0.930 . S
H14 C22 0.930 . S
H15 C16 1.029 . S
C16 H15 1.029 . S
C16 N23 1.268 1_655 S
C17 H12 0.930 . S
C17 C18 1.397 . S
C17 C19 1.361 . S
C18 C17 1.397 . S
C18 C22 1.390 1_455 S
C19 C17 1.361 . S
C19 C20 1.393 . S
C19 N23 1.413 . S
C20 H13 0.930 . S
C20 C19 1.393 . S
C20 C21 1.402 . S
C21 C20 1.402 . S
C21 C22 1.379 1_455 S
C22 H14 0.930 . S
C22 C18 1.390 1_655 S
C22 C21 1.379 1_655 S
N23 C16 1.268 1_455 S
N23 C19 1.413 . S
H24 C29 0.930 . S
H25 C32 0.930 . S
H26 C34 0.930 . S
H27 C28 1.030 . S
C28 H27 1.030 . S
C28 N35 1.268 1_565 S
C29 H24 0.930 . S
C29 C30 1.397 . S
C29 C31 1.361 . S
C30 C29 1.397 . S
C30 C34 1.390 1_545 S
C31 C29 1.361 . S
C31 C32 1.393 . S
C31 N35 1.413 . S
C32 H25 0.930 . S
C32 C31 1.393 . S
C32 C33 1.402 . S
C33 C32 1.402 . S
C33 C34 1.379 1_545 S
C34 H26 0.930 . S
C34 C30 1.390 1_565 S
C34 C33 1.379 1_565 S
N35 C28 1.268 1_545 S
N35 C31 1.413 . S
H36 C41 0.930 . S
H37 C44 0.930 . S
H38 C46 0.930 . S
H39 C40 1.016 . S
C40 H39 1.016 . S
C40 N47 1.286 . S
C41 H36 0.930 . S
C41 C42 1.397 . S
C41 C43 1.361 . S
C42 C41 1.397 . S
C42 C46 1.390 . S
C43 C41 1.361 . S
C43 C44 1.393 . S
C43 N47 1.413 . S
C44 H37 0.930 . S
C44 C43 1.393 . S
C44 C45 1.399 . S
C45 C44 1.399 . S
C45 C46 1.381 . S
C46 H38 0.930 . S
C46 C42 1.390 . S
C46 C45 1.381 . S
N47 C40 1.286 . S
N47 C43 1.413 . S
H48 C53 0.930 . S
H49 C56 0.930 . S
H50 C58 0.930 . S
H51 C52 1.016 . S
C52 H51 1.016 . S
C52 N59 1.286 . S
C53 H48 0.930 . S
C53 C54 1.397 . S
C53 C55 1.361 1_556 S
C54 C53 1.397 . S
C54 C58 1.390 1_556 S
C55 C53 1.361 1_554 S
C55 C56 1.393 . S
C55 N59 1.413 . S
C56 H49 0.930 . S
C56 C55 1.393 . S
C56 C57 1.399 . S
C57 C56 1.399 . S
C57 C58 1.381 . S
C58 H50 0.930 . S
C58 C54 1.390 1_554 S
C58 C57 1.381 . S
N59 C52 1.286 . S
N59 C55 1.413 . S
H60 C65 0.930 . S
H61 C68 0.930 . S
H62 C70 0.930 . S
H63 C64 1.026 . S
C64 H63 1.026 . S
C64 N71 1.273 1_655 S
C65 H60 0.930 . S
C65 C66 1.397 . S
C65 C67 1.361 1_556 S
C66 C65 1.397 . S
C66 C70 1.390 1_456 S
C67 C65 1.361 1_554 S
C67 C68 1.393 . S
C67 N71 1.413 . S
C68 H61 0.930 . S
C68 C67 1.393 . S
C68 C69 1.404 . S
C69 C68 1.404 . S
C69 C70 1.378 1_455 S
C70 H62 0.930 . S
C70 C66 1.390 1_654 S
C70 C69 1.378 1_655 S
N71 C64 1.273 1_455 S
N71 C67 1.413 . S
H72 C77 0.930 . S
H73 C80 0.930 . S
H74 C82 0.930 . S
H75 C76 1.026 . S
C76 H75 1.026 . S
C76 N83 1.273 1_565 S
C77 H72 0.930 . S
C77 C78 1.397 . S
C77 C79 1.361 1_556 S
C78 C77 1.397 . S
C78 C82 1.390 1_546 S
C79 C77 1.361 1_554 S
C79 C80 1.393 . S
C79 N83 1.413 . S
C80 H73 0.930 . S
C80 C79 1.393 . S
C80 C81 1.404 . S
C81 C80 1.404 . S
C81 C82 1.378 1_545 S
C82 H74 0.930 . S
C82 C78 1.390 1_564 S
C82 C81 1.378 1_565 S
N83 C76 1.273 1_545 S
N83 C79 1.413 . S
H84 C89 0.930 . S
H85 C92 0.930 . S
H86 C94 0.930 . S
H87 C88 1.016 . S
C88 H87 1.016 . S
C88 N95 1.286 . S
C89 H84 0.930 . S
C89 C90 1.397 . S
C89 C91 1.361 1_556 S
C90 C89 1.397 . S
C90 C94 1.390 1_556 S
C91 C89 1.361 1_554 S
C91 C92 1.393 . S
C91 N95 1.413 . S
C92 H85 0.930 . S
C92 C91 1.393 . S
C92 C93 1.399 . S
C93 C92 1.399 . S
C93 C94 1.381 . S
C94 H86 0.930 . S
C94 C90 1.390 1_554 S
C94 C93 1.381 . S
N95 C88 1.286 . S
N95 C91 1.413 . S
Tb96 C106 2.825 . S
Tb96 O107 2.347 1_455 S
Tb96 O110 2.366 . S
Tb96 O115 2.418 . S
Tb96 O116 2.384 1_565 S
Tb96 O119 2.479 . S
Tb96 O120 2.471 . S
Eu97 O108 2.418 . S
Eu97 O109 2.384 1_545 S
Eu97 O112 2.479 . S
Eu97 O113 2.471 . S
Eu97 O114 2.347 1_655 S
Eu97 O117 2.366 . S
Eu97 C127 2.825 . S
C98 O114 1.259 1_565 S
C98 O115 1.265 . S
C99 O116 1.255 . S
C99 O117 1.265 1_455 S
C100 C102 1.380 . S
C100 C103 1.374 . S
C100 C106 1.507 1_554 S
C101 C102 1.384 . S
C101 C105 1.387 . S
C101 H128 0.930 . S
C102 C100 1.380 . S
C102 C101 1.384 . S
C102 H129 0.931 . S
C103 C100 1.374 . S
C103 C104 1.390 . S
C103 H130 0.930 1_455 S
C104 C103 1.390 . S
C104 C105 1.391 . S
C104 H131 0.930 1_455 S
C105 C101 1.387 . S
C105 C104 1.391 . S
C106 Tb96 2.825 . S
C106 C100 1.507 1_556 S
C106 O119 1.238 . S
C106 O120 1.247 . S
O107 Tb96 2.347 1_655 S
O107 C111 1.259 1_565 S
O108 Eu97 2.418 . S
O108 C111 1.265 . S
O109 Eu97 2.384 1_565 S
O109 C118 1.255 . S
O110 Tb96 2.366 . S
O110 C118 1.265 1_455 S
C111 O107 1.259 1_545 S
C111 O108 1.265 . S
O112 Eu97 2.479 . S
O112 C127 1.238 . S
O113 Eu97 2.471 . S
O113 C127 1.247 . S
O114 Eu97 2.347 1_455 S
O114 C98 1.259 1_545 S
O115 Tb96 2.418 . S
O115 C98 1.265 . S
O116 Tb96 2.384 1_545 S
O116 C99 1.255 . S
O117 Eu97 2.366 . S
O117 C99 1.265 1_655 S
C118 O109 1.255 . S
C118 O110 1.265 1_655 S
O119 Tb96 2.479 . S
O119 C106 1.238 . S
O120 Tb96 2.471 . S
O120 C106 1.247 . S
C121 C124 1.380 . S
C121 C125 1.374 . S
C121 C127 1.507 . S
C122 C123 1.387 . S
C122 C126 1.391 . S
C123 C122 1.387 . S
C123 C124 1.384 . S
C123 H132 0.930 . S
C124 C121 1.380 . S
C124 C123 1.384 . S
C124 H133 0.931 . S
C125 C121 1.374 . S
C125 C126 1.390 . S
C125 H134 0.930 1_655 S
C126 C122 1.391 . S
C126 C125 1.390 . S
C126 H135 0.930 1_655 S
C127 Eu97 2.825 . S
C127 O112 1.238 . S
C127 O113 1.247 . S
C127 C121 1.507 . S
H128 C101 0.930 . S
H129 C102 0.931 . S
H130 C103 0.930 1_655 S
H131 C104 0.930 1_655 S
H132 C123 0.930 . S
H133 C124 0.931 . S
H134 C125 0.930 1_455 S
H135 C126 0.930 1_455 S
Tb136 C146 2.825 . S
Tb136 O147 2.347 1_545 S
Tb136 O150 2.366 . S
Tb136 O155 2.418 . S
Tb136 O156 2.384 . S
Tb136 O159 2.479 . S
Tb136 O160 2.471 . S
Eu137 O148 2.418 . S
Eu137 O149 2.384 . S
Eu137 O152 2.479 . S
Eu137 O153 2.471 . S
Eu137 O154 2.347 1_565 S
Eu137 O157 2.366 . S
Eu137 C167 2.825 . S
C138 O154 1.259 . S
C138 O155 1.265 . S
C139 O156 1.255 . S
C139 O157 1.265 1_545 S
C140 C142 1.380 . S
C140 C143 1.374 . S
C140 C146 1.507 1_554 S
C141 C142 1.384 . S
C141 C145 1.387 . S
C141 H168 0.930 . S
C142 C140 1.380 . S
C142 C141 1.384 . S
C142 H169 0.931 . S
C143 C140 1.374 . S
C143 C144 1.390 . S
C143 H170 0.930 1_545 S
C144 C143 1.390 . S
C144 C145 1.391 . S
C144 H171 0.930 1_545 S
C145 C141 1.387 . S
C145 C144 1.391 . S
C146 Tb136 2.825 . S
C146 C140 1.507 1_556 S
C146 O159 1.238 . S
C146 O160 1.247 . S
O147 Tb136 2.347 1_565 S
O147 C151 1.259 . S
O148 Eu137 2.418 . S
O148 C151 1.265 . S
O149 Eu137 2.384 . S
O149 C158 1.255 . S
O150 Tb136 2.366 . S
O150 C158 1.265 1_545 S
C151 O147 1.259 . S
C151 O148 1.265 . S
O152 Eu137 2.479 . S
O152 C167 1.238 . S
O153 Eu137 2.471 . S
O153 C167 1.247 . S
O154 Eu137 2.347 1_545 S
O154 C138 1.259 . S
O155 Tb136 2.418 . S
O155 C138 1.265 . S
O156 Tb136 2.384 . S
O156 C139 1.255 . S
O157 Eu137 2.366 . S
O157 C139 1.265 1_565 S
C158 O149 1.255 . S
C158 O150 1.265 1_565 S
O159 Tb136 2.479 . S
O159 C146 1.238 . S
O160 Tb136 2.471 . S
O160 C146 1.247 . S
C161 C164 1.380 . S
C161 C165 1.374 . S
C161 C167 1.507 . S
C162 C163 1.387 . S
C162 C166 1.391 . S
C163 C162 1.387 . S
C163 C164 1.384 . S
C163 H172 0.930 . S
C164 C161 1.380 . S
C164 C163 1.384 . S
C164 H173 0.931 . S
C165 C161 1.374 . S
C165 C166 1.390 . S
C165 H174 0.930 1_565 S
C166 C162 1.391 . S
C166 C165 1.390 . S
C166 H175 0.930 1_565 S
C167 Eu137 2.825 . S
C167 O152 1.238 . S
C167 O153 1.247 . S
C167 C161 1.507 . S
H168 C141 0.930 . S
H169 C142 0.931 . S
H170 C143 0.930 1_565 S
H171 C144 0.930 1_565 S
H172 C163 0.930 . S
H173 C164 0.931 . S
H174 C165 0.930 1_545 S
H175 C166 0.930 1_545 S
Tb176 C186 2.825 . S
Tb176 O187 2.347 . S
Tb176 O190 2.366 . S
Tb176 O195 2.418 . S
Tb176 O196 2.384 . S
Tb176 O199 2.479 . S
Tb176 O200 2.471 . S
Eu177 O188 2.418 . S
Eu177 O189 2.384 . S
Eu177 O192 2.479 . S
Eu177 O193 2.471 . S
Eu177 O194 2.347 . S
Eu177 O197 2.366 . S
Eu177 C207 2.825 . S
C178 O194 1.259 . S
C178 O195 1.265 . S
C179 O196 1.255 . S
C179 O197 1.265 . S
C180 C182 1.380 . S
C180 C183 1.374 . S
C180 C186 1.507 1_554 S
C181 C182 1.384 . S
C181 C185 1.387 . S
C181 H208 0.930 . S
C182 C180 1.380 . S
C182 C181 1.384 . S
C182 H209 0.931 . S
C183 C180 1.374 . S
C183 C184 1.390 . S
C183 H210 0.930 . S
C184 C183 1.390 . S
C184 C185 1.391 . S
C184 H211 0.930 . S
C185 C181 1.387 . S
C185 C184 1.391 . S
C186 Tb176 2.825 . S
C186 C180 1.507 1_556 S
C186 O199 1.238 . S
C186 O200 1.247 . S
O187 Tb176 2.347 . S
O187 C191 1.259 . S
O188 Eu177 2.418 . S
O188 C191 1.265 . S
O189 Eu177 2.384 . S
O189 C198 1.255 . S
O190 Tb176 2.366 . S
O190 C198 1.265 . S
C191 O187 1.259 . S
C191 O188 1.265 . S
O192 Eu177 2.479 . S
O192 C207 1.238 . S
O193 Eu177 2.471 . S
O193 C207 1.247 . S
O194 Eu177 2.347 . S
O194 C178 1.259 . S
O195 Tb176 2.418 . S
O195 C178 1.265 . S
O196 Tb176 2.384 . S
O196 C179 1.255 . S
O197 Eu177 2.366 . S
O197 C179 1.265 . S
C198 O189 1.255 . S
C198 O190 1.265 . S
O199 Tb176 2.479 . S
O199 C186 1.238 . S
O200 Tb176 2.471 . S
O200 C186 1.247 . S
C201 C204 1.380 . S
C201 C205 1.374 . S
C201 C207 1.507 . S
C202 C203 1.387 . S
C202 C206 1.391 . S
C203 C202 1.387 . S
C203 C204 1.384 . S
C203 H212 0.930 . S
C204 C201 1.380 . S
C204 C203 1.384 . S
C204 H213 0.931 . S
C205 C201 1.374 . S
C205 C206 1.390 . S
C205 H214 0.930 . S
C206 C202 1.391 . S
C206 C205 1.390 . S
C206 H215 0.930 . S
C207 Eu177 2.825 . S
C207 O192 1.238 . S
C207 O193 1.247 . S
C207 C201 1.507 . S
H208 C181 0.930 . S
H209 C182 0.931 . S
H210 C183 0.930 . S
H211 C184 0.930 . S
H212 C203 0.930 . S
H213 C204 0.931 . S
H214 C205 0.930 . S
H215 C206 0.930 . S
Tb216 C226 2.825 . S
Tb216 O227 2.347 . S
Tb216 O230 2.366 . S
Tb216 O235 2.418 . S
Tb216 O236 2.384 1_655 S
Tb216 O239 2.479 . S
Tb216 O240 2.471 . S
Eu217 O228 2.418 . S
Eu217 O229 2.384 1_455 S
Eu217 O232 2.479 . S
Eu217 O233 2.471 . S
Eu217 O234 2.347 . S
Eu217 O237 2.366 . S
Eu217 C247 2.825 . S
C218 O234 1.259 1_655 S
C218 O235 1.265 . S
C219 O236 1.255 . S
C219 O237 1.265 . S
C220 C222 1.380 . S
C220 C223 1.374 . S
C220 C226 1.507 1_554 S
C221 C222 1.384 . S
C221 C225 1.387 . S
C221 H248 0.930 . S
C222 C220 1.380 . S
C222 C221 1.384 . S
C222 H249 0.931 . S
C223 C220 1.374 . S
C223 C224 1.390 . S
C223 H250 0.930 . S
C224 C223 1.390 . S
C224 C225 1.391 . S
C224 H251 0.930 . S
C225 C221 1.387 . S
C225 C224 1.391 . S
C226 Tb216 2.825 . S
C226 C220 1.507 1_556 S
C226 O239 1.238 . S
C226 O240 1.247 . S
O227 Tb216 2.347 . S
O227 C231 1.259 1_655 S
O228 Eu217 2.418 . S
O228 C231 1.265 . S
O229 Eu217 2.384 1_655 S
O229 C238 1.255 . S
O230 Tb216 2.366 . S
O230 C238 1.265 . S
C231 O227 1.259 1_455 S
C231 O228 1.265 . S
O232 Eu217 2.479 . S
O232 C247 1.238 . S
O233 Eu217 2.471 . S
O233 C247 1.247 . S
O234 Eu217 2.347 . S
O234 C218 1.259 1_455 S
O235 Tb216 2.418 . S
O235 C218 1.265 . S
O236 Tb216 2.384 1_455 S
O236 C219 1.255 . S
O237 Eu217 2.366 . S
O237 C219 1.265 . S
C238 O229 1.255 . S
C238 O230 1.265 . S
O239 Tb216 2.479 . S
O239 C226 1.238 . S
O240 Tb216 2.471 . S
O240 C226 1.247 . S
C241 C244 1.380 . S
C241 C245 1.374 . S
C241 C247 1.507 . S
C242 C243 1.387 . S
C242 C246 1.391 . S
C243 C242 1.387 . S
C243 C244 1.384 . S
C243 H252 0.930 . S
C244 C241 1.380 . S
C244 C243 1.384 . S
C244 H253 0.931 . S
C245 C241 1.374 . S
C245 C246 1.390 . S
C245 H254 0.930 . S
C246 C242 1.391 . S
C246 C245 1.390 . S
C246 H255 0.930 . S
C247 Eu217 2.825 . S
C247 O232 1.238 . S
C247 O233 1.247 . S
C247 C241 1.507 . S
H248 C221 0.930 . S
H249 C222 0.931 . S
H250 C223 0.930 . S
H251 C224 0.930 . S
H252 C243 0.930 . S
H253 C244 0.931 . S
H254 C245 0.930 . S
H255 C246 0.930 . S
C256 C257 1.391 . S
C256 C258 1.394 . S
C256 H272 0.931 . S
C257 C256 1.391 . S
C257 C261 1.376 1_545 S
C258 C256 1.394 . S
C258 C259 1.369 . S
C258 C262 1.531 . S
C259 C258 1.369 . S
C259 C260 1.410 1_545 S
C259 C267 1.503 . S
C260 C259 1.410 1_565 S
C260 C261 1.392 . S
C260 C263 1.511 . S
C261 C257 1.376 1_565 S
C261 C260 1.392 . S
C261 H273 0.929 . S
C262 C258 1.531 . S
C262 H274 0.960 . S
C262 H275 0.962 . S
C262 H276 0.960 . S
C263 C260 1.511 . S
C263 H277 0.961 . S
C263 H278 0.961 . S
C263 H279 0.961 1_565 S
C264 C265 1.370 1_565 S
C264 C266 1.363 . S
C264 H280 0.931 . S
C265 C264 1.370 1_545 S
C265 C269 1.408 . S
C266 C264 1.363 . S
C266 C267 1.370 1_565 S
C266 C270 1.524 . S
C267 C259 1.503 . S
C267 C266 1.370 1_545 S
C267 C268 1.403 . S
C268 C267 1.403 . S
C268 C269 1.404 . S
C268 C271 1.539 . S
C269 C265 1.408 . S
C269 C268 1.404 . S
C269 H281 0.930 . S
C270 C266 1.524 . S
C270 H282 0.956 . S
C270 H283 0.961 . S
C270 H284 0.961 . S
C271 C268 1.539 . S
C271 H285 0.958 . S
C271 H286 0.961 . S
C271 H287 0.960 . S
H272 C256 0.931 . S
H273 C261 0.929 . S
H274 C262 0.960 . S
H275 C262 0.962 . S
H276 C262 0.960 . S
H277 C263 0.961 . S
H278 C263 0.961 . S
H279 C263 0.961 1_545 S
H280 C264 0.931 . S
H281 C269 0.930 . S
H282 C270 0.956 . S
H283 C270 0.961 . S
H284 C270 0.961 . S
H285 C271 0.958 . S
H286 C271 0.961 . S
H287 C271 0.960 . S
C288 C289 1.391 . S
C288 C290 1.394 . S
C288 H304 0.931 . S
C289 C288 1.391 . S
C289 C293 1.376 . S
C290 C288 1.394 . S
C290 C291 1.369 . S
C290 C294 1.531 . S
C291 C290 1.369 . S
C291 C292 1.410 . S
C291 C299 1.503 . S
C292 C291 1.410 . S
C292 C293 1.392 . S
C292 C295 1.511 . S
C293 C289 1.376 . S
C293 C292 1.392 . S
C293 H305 0.929 . S
C294 C290 1.531 . S
C294 H306 0.960 . S
C294 H307 0.962 . S
C294 H308 0.960 . S
C295 C292 1.511 . S
C295 H309 0.961 . S
C295 H310 0.961 . S
C295 H311 0.961 . S
C296 C297 1.370 . S
C296 C298 1.363 . S
C296 H312 0.931 . S
C297 C296 1.370 . S
C297 C301 1.408 . S
C298 C296 1.363 . S
C298 C299 1.370 . S
C298 C302 1.524 . S
C299 C291 1.503 . S
C299 C298 1.370 . S
C299 C300 1.403 . S
C300 C299 1.403 . S
C300 C301 1.404 . S
C300 C303 1.539 . S
C301 C297 1.408 . S
C301 C300 1.404 . S
C301 H313 0.930 . S
C302 C298 1.524 . S
C302 H314 0.956 . S
C302 H315 0.961 . S
C302 H316 0.961 . S
C303 C300 1.539 . S
C303 H317 0.958 . S
C303 H318 0.961 . S
C303 H319 0.960 . S
H304 C288 0.931 . S
H305 C293 0.929 . S
H306 C294 0.960 . S
H307 C294 0.962 . S
H308 C294 0.960 . S
H309 C295 0.961 . S
H310 C295 0.961 . S
H311 C295 0.961 . S
H312 C296 0.931 . S
H313 C301 0.930 . S
H314 C302 0.956 . S
H315 C302 0.961 . S
H316 C302 0.961 . S
H317 C303 0.958 . S
H318 C303 0.961 . S
H319 C303 0.960 . S
C320 C321 1.391 . S
C320 C322 1.394 . S
C320 H336 0.931 . S
C321 C320 1.391 . S
C321 C325 1.376 . S
C322 C320 1.394 . S
C322 C323 1.369 . S
C322 C326 1.531 . S
C323 C322 1.369 . S
C323 C324 1.410 . S
C323 C331 1.503 . S
C324 C323 1.410 . S
C324 C325 1.392 . S
C324 C327 1.511 . S
C325 C321 1.376 . S
C325 C324 1.392 . S
C325 H337 0.929 . S
C326 C322 1.531 . S
C326 H338 0.960 . S
C326 H339 0.962 . S
C326 H340 0.960 . S
C327 C324 1.511 . S
C327 H341 0.961 . S
C327 H342 0.961 . S
C327 H343 0.961 . S
C328 C329 1.370 . S
C328 C330 1.363 . S
C328 H344 0.931 . S
C329 C328 1.370 . S
C329 C333 1.408 . S
C330 C328 1.363 . S
C330 C331 1.370 . S
C330 C334 1.524 . S
C331 C323 1.503 . S
C331 C330 1.370 . S
C331 C332 1.403 . S
C332 C331 1.403 . S
C332 C333 1.404 . S
C332 C335 1.539 . S
C333 C329 1.408 . S
C333 C332 1.404 . S
C333 H345 0.930 . S
C334 C330 1.524 . S
C334 H346 0.956 . S
C334 H347 0.961 . S
C334 H348 0.961 . S
C335 C332 1.539 . S
C335 H349 0.958 . S
C335 H350 0.961 . S
C335 H351 0.960 . S
H336 C320 0.931 . S
H337 C325 0.929 . S
H338 C326 0.960 . S
H339 C326 0.962 . S
H340 C326 0.960 . S
H341 C327 0.961 . S
H342 C327 0.961 . S
H343 C327 0.961 . S
H344 C328 0.931 . S
H345 C333 0.930 . S
H346 C334 0.956 . S
H347 C334 0.961 . S
H348 C334 0.961 . S
H349 C335 0.958 . S
H350 C335 0.961 . S
H351 C335 0.960 . S
C352 C353 1.391 1_455 S
C352 C354 1.394 . S
C352 H368 0.931 . S
C353 C352 1.391 1_655 S
C353 C357 1.376 . S
C354 C352 1.394 . S
C354 C355 1.369 1_455 S
C354 C358 1.531 . S
C355 C354 1.369 1_655 S
C355 C356 1.410 . S
C355 C363 1.503 . S
C356 C355 1.410 . S
C356 C357 1.392 . S
C356 C359 1.511 . S
C357 C353 1.376 . S
C357 C356 1.392 . S
C357 H369 0.929 . S
C358 C354 1.531 . S
C358 H370 0.960 . S
C358 H371 0.962 . S
C358 H372 0.960 . S
C359 C356 1.511 . S
C359 H373 0.961 . S
C359 H374 0.961 . S
C359 H375 0.961 . S
C360 C361 1.372 . S
C360 C362 1.363 . S
C360 H376 0.931 . S
C361 C360 1.372 . S
C361 C365 1.407 1_455 S
C362 C360 1.363 . S
C362 C363 1.370 1_455 S
C362 C366 1.524 . S
C363 C355 1.503 . S
C363 C362 1.370 1_655 S
C363 C364 1.403 . S
C364 C363 1.403 . S
C364 C365 1.404 . S
C364 C367 1.539 . S
C365 C361 1.407 1_655 S
C365 C364 1.404 . S
C365 H377 0.930 . S
C366 C362 1.524 . S
C366 H378 0.956 . S
C366 H379 0.961 . S
C366 H380 0.961 . S
C367 C364 1.539 . S
C367 H381 0.958 . S
C367 H382 0.961 . S
C367 H383 0.960 . S
H368 C352 0.931 . S
H369 C357 0.929 . S
H370 C358 0.960 . S
H371 C358 0.962 . S
H372 C358 0.960 . S
H373 C359 0.961 . S
H374 C359 0.961 . S
H375 C359 0.961 . S
H376 C360 0.931 . S
H377 C365 0.930 . S
H378 C366 0.956 . S
H379 C366 0.961 . S
H380 C366 0.961 . S
H381 C367 0.958 . S
H382 C367 0.961 . S
H383 C367 0.960 . S
C384 C385 1.372 1_545 S
C384 C386 1.394 . S
C384 H400 0.931 . S
C385 C384 1.372 1_565 S
C385 C389 1.395 . S
C386 C384 1.394 . S
C386 C387 1.369 1_545 S
C386 C390 1.531 . S
C387 C386 1.369 1_565 S
C387 C388 1.410 . S
C387 C395 1.504 . S
C388 C387 1.410 . S
C388 C389 1.392 . S
C388 C391 1.511 . S
C389 C385 1.395 . S
C389 C388 1.392 . S
C389 H401 0.929 . S
C390 C386 1.531 . S
C390 H402 0.960 . S
C390 H403 0.962 . S
C390 H404 0.960 . S
C391 C388 1.511 . S
C391 H405 0.961 . S
C391 H406 0.961 . S
C391 H407 0.961 . S
C392 C393 1.365 1_545 S
C392 C394 1.363 1_556 S
C392 H408 0.931 . S
C393 C392 1.365 1_565 S
C393 C397 1.414 1_556 S
C394 C392 1.363 1_554 S
C394 C395 1.360 1_545 S
C394 C398 1.524 1_554 S
C395 C387 1.504 . S
C395 C394 1.360 1_565 S
C395 C396 1.413 . S
C396 C395 1.413 . S
C396 C397 1.404 . S
C396 C399 1.539 . S
C397 C393 1.414 1_554 S
C397 C396 1.404 . S
C397 H409 0.930 . S
C398 C394 1.524 1_556 S
C398 H410 0.953 1_556 S
C398 H411 0.959 1_546 S
C398 H412 0.966 . S
C399 C396 1.539 . S
C399 H413 0.975 . S
C399 H414 0.961 . S
C399 H415 0.960 . S
H400 C384 0.931 . S
H401 C389 0.929 . S
H402 C390 0.960 . S
H403 C390 0.962 . S
H404 C390 0.960 . S
H405 C391 0.961 . S
H406 C391 0.961 . S
H407 C391 0.961 . S
H408 C392 0.931 . S
H409 C397 0.930 . S
H410 C398 0.953 1_554 S
H411 C398 0.959 1_564 S
H412 C398 0.966 . S
H413 C399 0.975 . S
H414 C399 0.961 . S
H415 C399 0.960 . S
C416 C417 1.391 . S
C416 C418 1.394 . S
C416 H432 0.931 . S
C417 C416 1.391 . S
C417 C421 1.376 . S
C418 C416 1.394 . S
C418 C419 1.369 . S
C418 C422 1.531 . S
C419 C418 1.369 . S
C419 C420 1.410 . S
C419 C427 1.503 . S
C420 C419 1.410 . S
C420 C421 1.392 . S
C420 C423 1.511 . S
C421 C417 1.376 . S
C421 C420 1.392 . S
C421 H433 0.929 . S
C422 C418 1.531 . S
C422 H434 0.960 . S
C422 H435 0.962 . S
C422 H436 0.960 . S
C423 C420 1.511 . S
C423 H437 0.961 . S
C423 H438 0.961 . S
C423 H439 0.961 . S
C424 C425 1.370 . S
C424 C426 1.363 1_556 S
C424 H440 0.931 . S
C425 C424 1.370 . S
C425 C429 1.408 1_556 S
C426 C424 1.363 1_554 S
C426 C427 1.370 . S
C426 C430 1.524 1_554 S
C427 C419 1.503 . S
C427 C426 1.370 . S
C427 C428 1.403 . S
C428 C427 1.403 . S
C428 C429 1.404 . S
C428 C431 1.539 . S
C429 C425 1.408 1_554 S
C429 C428 1.404 . S
C429 H441 0.930 . S
C430 C426 1.524 1_556 S
C430 H442 0.956 1_556 S
C430 H443 0.961 1_556 S
C430 H444 0.961 . S
C431 C428 1.539 . S
C431 H445 0.958 . S
C431 H446 0.961 . S
C431 H447 0.960 . S
H432 C416 0.931 . S
H433 C421 0.929 . S
H434 C422 0.960 . S
H435 C422 0.962 . S
H436 C422 0.960 . S
H437 C423 0.961 . S
H438 C423 0.961 . S
H439 C423 0.961 . S
H440 C424 0.931 . S
H441 C429 0.930 . S
H442 C430 0.956 1_554 S
H443 C430 0.961 1_554 S
H444 C430 0.961 . S
H445 C431 0.958 . S
H446 C431 0.961 . S
H447 C431 0.960 . S
C448 C449 1.391 . S
C448 C450 1.394 . S
C448 H464 0.931 . S
C449 C448 1.391 . S
C449 C453 1.376 . S
C450 C448 1.394 . S
C450 C451 1.369 . S
C450 C454 1.531 . S
C451 C450 1.369 . S
C451 C452 1.410 . S
C451 C459 1.503 . S
C452 C451 1.410 . S
C452 C453 1.392 . S
C452 C455 1.511 . S
C453 C449 1.376 . S
C453 C452 1.392 . S
C453 H465 0.929 . S
C454 C450 1.531 . S
C454 H466 0.960 . S
C454 H467 0.962 . S
C454 H468 0.960 . S
C455 C452 1.511 . S
C455 H469 0.961 . S
C455 H470 0.961 . S
C455 H471 0.961 . S
C456 C457 1.370 1_554 S
C456 C458 1.363 . S
C456 H472 0.931 . S
C457 C456 1.370 1_556 S
C457 C461 1.408 . S
C458 C456 1.363 . S
C458 C459 1.370 . S
C458 C462 1.524 . S
C459 C451 1.503 . S
C459 C458 1.370 . S
C459 C460 1.403 1_554 S
C460 C459 1.403 1_556 S
C460 C461 1.404 . S
C460 C463 1.539 . S
C461 C457 1.408 . S
C461 C460 1.404 . S
C461 H473 0.930 . S
C462 C458 1.524 . S
C462 H474 0.956 . S
C462 H475 0.961 . S
C462 H476 0.961 . S
C463 C460 1.539 . S
C463 H477 0.958 . S
C463 H478 0.961 . S
C463 H479 0.960 1_556 S
H464 C448 0.931 . S
H465 C453 0.929 . S
H466 C454 0.960 . S
H467 C454 0.962 . S
H468 C454 0.960 . S
H469 C455 0.961 . S
H470 C455 0.961 . S
H471 C455 0.961 . S
H472 C456 0.931 . S
H473 C461 0.930 . S
H474 C462 0.956 . S
H475 C462 0.961 . S
H476 C462 0.961 . S
H477 C463 0.958 . S
H478 C463 0.961 . S
H479 C463 0.960 1_554 S
C480 C481 1.391 1_655 S
C480 C482 1.394 . S
C480 H496 0.931 . S
C481 C480 1.391 1_455 S
C481 C485 1.376 . S
C482 C480 1.394 . S
C482 C483 1.369 1_655 S
C482 C486 1.531 . S
C483 C482 1.369 1_455 S
C483 C484 1.410 . S
C483 C491 1.503 . S
C484 C483 1.410 . S
C484 C485 1.392 . S
C484 C487 1.511 . S
C485 C481 1.376 . S
C485 C484 1.392 . S
C485 H497 0.929 . S
C486 C482 1.531 . S
C486 H498 0.960 . S
C486 H499 0.962 . S
C486 H500 0.960 . S
C487 C484 1.511 . S
C487 H501 0.961 . S
C487 H502 0.961 . S
C487 H503 0.961 . S
C488 C489 1.372 1_554 S
C488 C490 1.363 . S
C488 H504 0.931 . S
C489 C488 1.372 1_556 S
C489 C493 1.406 1_655 S
C490 C488 1.363 . S
C490 C491 1.370 1_655 S
C490 C494 1.524 . S
C491 C483 1.503 . S
C491 C490 1.370 1_455 S
C491 C492 1.403 1_554 S
C492 C491 1.403 1_556 S
C492 C493 1.404 . S
C492 C495 1.539 . S
C493 C489 1.406 1_455 S
C493 C492 1.404 . S
C493 H505 0.930 . S
C494 C490 1.524 . S
C494 H506 0.956 . S
C494 H507 0.961 . S
C494 H508 0.961 . S
C495 C492 1.539 . S
C495 H509 0.958 . S
C495 H510 0.961 . S
C495 H511 0.960 1_556 S
H496 C480 0.931 . S
H497 C485 0.929 . S
H498 C486 0.960 . S
H499 C486 0.962 . S
H500 C486 0.960 . S
H501 C487 0.961 . S
H502 C487 0.961 . S
H503 C487 0.961 . S
H504 C488 0.931 . S
H505 C493 0.930 . S
H506 C494 0.956 . S
H507 C494 0.961 . S
H508 C494 0.961 . S
H509 C495 0.958 . S
H510 C495 0.961 . S
H511 C495 0.960 1_554 S
C512 C513 1.392 . S
C512 C514 1.394 . S
C512 H528 0.931 . S
C513 C512 1.392 . S
C513 C517 1.375 1_655 S
C514 C512 1.394 . S
C514 C515 1.369 . S
C514 C518 1.531 . S
C515 C514 1.369 . S
C515 C516 1.431 . S
C515 C523 1.503 . S
C516 C515 1.431 . S
C516 C517 1.382 1_655 S
C516 C519 1.501 1_655 S
C517 C513 1.375 1_455 S
C517 C516 1.382 1_455 S
C517 H529 0.929 . S
C518 C514 1.531 . S
C518 H530 0.960 . S
C518 H531 0.962 . S
C518 H532 0.960 . S
C519 C516 1.501 1_455 S
C519 H533 0.961 . S
C519 H534 0.961 . S
C519 H535 0.961 1_455 S
C520 C521 1.370 . S
C520 C522 1.363 . S
C520 H536 0.945 . S
C521 C520 1.370 . S
C521 C525 1.408 . S
C522 C520 1.363 . S
C522 C523 1.370 . S
C522 C526 1.524 1_655 S
C523 C515 1.503 . S
C523 C522 1.370 . S
C523 C524 1.403 . S
C524 C523 1.403 . S
C524 C525 1.404 . S
C524 C527 1.539 . S
C525 C521 1.408 . S
C525 C524 1.404 . S
C525 H537 0.930 . S
C526 C522 1.524 1_455 S
C526 H538 0.956 . S
C526 H539 0.961 . S
C526 H540 0.961 . S
C527 C524 1.539 . S
C527 H541 0.958 . S
C527 H542 0.961 . S
C527 H543 0.960 . S
H528 C512 0.931 . S
H529 C517 0.929 . S
H530 C518 0.960 . S
H531 C518 0.962 . S
H532 C518 0.960 . S
H533 C519 0.961 . S
H534 C519 0.961 . S
H535 C519 0.961 1_655 S
H536 C520 0.945 . S
H537 C525 0.930 . S
H538 C526 0.956 . S
H539 C526 0.961 . S
H540 C526 0.961 . S
H541 C527 0.958 . S
H542 C527 0.961 . S
H543 C527 0.960 . S
C544 C545 1.391 1_565 S
C544 C546 1.394 . S
C544 H560 0.931 . S
C545 C544 1.391 1_545 S
C545 C549 1.376 . S
C546 C544 1.394 . S
C546 C547 1.369 . S
C546 C550 1.531 . S
C547 C546 1.369 . S
C547 C548 1.410 1_565 S
C547 C555 1.503 . S
C548 C547 1.410 1_545 S
C548 C549 1.392 . S
C548 C551 1.511 . S
C549 C545 1.376 . S
C549 C548 1.392 . S
C549 H561 0.929 . S
C550 C546 1.531 . S
C550 H562 0.960 . S
C550 H563 0.962 . S
C550 H564 0.960 . S
C551 C548 1.511 . S
C551 H565 0.961 . S
C551 H566 0.961 . S
C551 H567 0.961 . S
C552 C553 1.370 . S
C552 C554 1.363 . S
C552 H568 0.931 . S
C553 C552 1.370 . S
C553 C557 1.408 . S
C554 C552 1.363 . S
C554 C555 1.370 . S
C554 C558 1.524 . S
C555 C547 1.503 . S
C555 C554 1.370 . S
C555 C556 1.403 . S
C556 C555 1.403 . S
C556 C557 1.404 . S
C556 C559 1.539 . S
C557 C553 1.408 . S
C557 C556 1.404 . S
C557 H569 0.930 . S
C558 C554 1.524 . S
C558 H570 0.956 . S
C558 H571 0.961 1_565 S
C558 H572 0.961 . S
C559 C556 1.539 . S
C559 H573 0.958 . S
C559 H574 0.961 . S
C559 H575 0.960 . S
H560 C544 0.931 . S
H561 C549 0.929 . S
H562 C550 0.960 . S
H563 C550 0.962 . S
H564 C550 0.960 . S
H565 C551 0.961 . S
H566 C551 0.961 . S
H567 C551 0.961 . S
H568 C552 0.931 . S
H569 C557 0.930 . S
H570 C558 0.956 . S
H571 C558 0.961 1_545 S
H572 C558 0.961 . S
H573 C559 0.958 . S
H574 C559 0.961 . S
H575 C559 0.960 . S
C576 C577 1.391 . S
C576 C578 1.394 . S
C576 H592 0.931 . S
C577 C576 1.391 . S
C577 C581 1.376 . S
C578 C576 1.394 . S
C578 C579 1.369 . S
C578 C582 1.531 . S
C579 C578 1.369 . S
C579 C580 1.410 . S
C579 C587 1.503 . S
C580 C579 1.410 . S
C580 C581 1.392 . S
C580 C583 1.511 . S
C581 C577 1.376 . S
C581 C580 1.392 . S
C581 H593 0.929 . S
C582 C578 1.531 . S
C582 H594 0.960 . S
C582 H595 0.962 . S
C582 H596 0.960 . S
C583 C580 1.511 . S
C583 H597 0.961 . S
C583 H598 0.961 . S
C583 H599 0.961 . S
C584 C585 1.370 . S
C584 C586 1.363 . S
C584 H600 0.931 . S
C585 C584 1.370 . S
C585 C589 1.408 . S
C586 C584 1.363 . S
C586 C587 1.370 . S
C586 C590 1.524 . S
C587 C579 1.503 . S
C587 C586 1.370 . S
C587 C588 1.403 . S
C588 C587 1.403 . S
C588 C589 1.404 . S
C588 C591 1.539 . S
C589 C585 1.408 . S
C589 C588 1.404 . S
C589 H601 0.930 . S
C590 C586 1.524 . S
C590 H602 0.956 . S
C590 H603 0.961 . S
C590 H604 0.961 . S
C591 C588 1.539 . S
C591 H605 0.958 . S
C591 H606 0.961 . S
C591 H607 0.960 . S
H592 C576 0.931 . S
H593 C581 0.929 . S
H594 C582 0.960 . S
H595 C582 0.962 . S
H596 C582 0.960 . S
H597 C583 0.961 . S
H598 C583 0.961 . S
H599 C583 0.961 . S
H600 C584 0.931 . S
H601 C589 0.930 . S
H602 C590 0.956 . S
H603 C590 0.961 . S
H604 C590 0.961 . S
H605 C591 0.958 . S
H606 C591 0.961 . S
H607 C591 0.960 . S
C608 C609 1.391 . S
C608 C610 1.394 . S
C608 H624 0.931 . S
C609 C608 1.391 . S
C609 C613 1.376 . S
C610 C608 1.394 . S
C610 C611 1.369 . S
C610 C614 1.531 . S
C611 C610 1.369 . S
C611 C612 1.410 . S
C611 C619 1.503 . S
C612 C611 1.410 . S
C612 C613 1.392 . S
C612 C615 1.511 . S
C613 C609 1.376 . S
C613 C612 1.392 . S
C613 H625 0.929 . S
C614 C610 1.531 . S
C614 H626 0.960 . S
C614 H627 0.962 . S
C614 H628 0.960 . S
C615 C612 1.511 . S
C615 H629 0.961 . S
C615 H630 0.961 . S
C615 H631 0.961 . S
C616 C617 1.370 . S
C616 C618 1.363 . S
C616 H632 0.931 . S
C617 C616 1.370 . S
C617 C621 1.408 . S
C618 C616 1.363 . S
C618 C619 1.370 . S
C618 C622 1.524 . S
C619 C611 1.503 . S
C619 C618 1.370 . S
C619 C620 1.403 . S
C620 C619 1.403 . S
C620 C621 1.404 . S
C620 C623 1.539 . S
C621 C617 1.408 . S
C621 C620 1.404 . S
C621 H633 0.930 . S
C622 C618 1.524 . S
C622 H634 0.956 . S
C622 H635 0.961 . S
C622 H636 0.961 . S
C623 C620 1.539 . S
C623 H637 0.958 . S
C623 H638 0.961 . S
C623 H639 0.960 . S
H624 C608 0.931 . S
H625 C613 0.929 . S
H626 C614 0.960 . S
H627 C614 0.962 . S
H628 C614 0.960 . S
H629 C615 0.961 . S
H630 C615 0.961 . S
H631 C615 0.961 . S
H632 C616 0.931 . S
H633 C621 0.930 . S
H634 C622 0.956 . S
H635 C622 0.961 . S
H636 C622 0.961 . S
H637 C623 0.958 . S
H638 C623 0.961 . S
H639 C623 0.960 . S
C640 C641 1.391 . S
C640 C642 1.394 . S
C640 H656 0.931 . S
C641 C640 1.391 . S
C641 C645 1.376 1_655 S
C642 C640 1.394 . S
C642 C643 1.369 1_655 S
C642 C646 1.531 . S
C643 C642 1.369 1_455 S
C643 C644 1.410 . S
C643 C651 1.503 . S
C644 C643 1.410 . S
C644 C645 1.392 . S
C644 C647 1.511 . S
C645 C641 1.376 1_455 S
C645 C644 1.392 . S
C645 H657 0.929 . S
C646 C642 1.531 . S
C646 H658 0.960 . S
C646 H659 0.962 1_655 S
C646 H660 0.960 . S
C647 C644 1.511 . S
C647 H661 0.961 . S
C647 H662 0.961 . S
C647 H663 0.961 . S
C648 C649 1.370 . S
C648 C650 1.363 . S
C648 H664 0.931 . S
C649 C648 1.370 . S
C649 C653 1.408 . S
C650 C648 1.363 . S
C650 C651 1.370 . S
C650 C654 1.524 . S
C651 C643 1.503 . S
C651 C650 1.370 . S
C651 C652 1.403 1_455 S
C652 C651 1.403 1_655 S
C652 C653 1.404 1_655 S
C652 C655 1.539 . S
C653 C649 1.408 . S
C653 C652 1.404 1_455 S
C653 H665 0.930 1_455 S
C654 C650 1.524 . S
C654 H666 0.956 . S
C654 H667 0.961 . S
C654 H668 0.961 . S
C655 C652 1.539 . S
C655 H669 0.958 . S
C655 H670 0.961 . S
C655 H671 0.960 . S
H656 C640 0.931 . S
H657 C645 0.929 . S
H658 C646 0.960 . S
H659 C646 0.962 1_455 S
H660 C646 0.960 . S
H661 C647 0.961 . S
H662 C647 0.961 . S
H663 C647 0.961 . S
H664 C648 0.931 . S
H665 C653 0.930 1_655 S
H666 C654 0.956 . S
H667 C654 0.961 . S
H668 C654 0.961 . S
H669 C655 0.958 . S
H670 C655 0.961 . S
H671 C655 0.960 . S
C672 C673 1.391 . S
C672 C674 1.394 . S
C672 H688 0.931 . S
C673 C672 1.391 . S
C673 C677 1.376 1_565 S
C674 C672 1.394 . S
C674 C675 1.369 1_565 S
C674 C678 1.531 . S
C675 C674 1.369 1_545 S
C675 C676 1.410 . S
C675 C683 1.503 . S
C676 C675 1.410 . S
C676 C677 1.392 . S
C676 C679 1.511 . S
C677 C673 1.376 1_545 S
C677 C676 1.392 . S
C677 H689 0.929 . S
C678 C674 1.531 . S
C678 H690 0.960 . S
C678 H691 0.962 1_565 S
C678 H692 0.960 . S
C679 C676 1.511 . S
C679 H693 0.961 . S
C679 H694 0.961 . S
C679 H695 0.961 . S
C680 C681 1.370 . S
C680 C682 1.363 . S
C680 H696 0.931 . S
C681 C680 1.370 . S
C681 C685 1.408 . S
C682 C680 1.363 . S
C682 C683 1.370 . S
C682 C686 1.524 . S
C683 C675 1.503 . S
C683 C682 1.370 . S
C683 C684 1.403 1_545 S
C684 C683 1.403 1_565 S
C684 C685 1.404 1_565 S
C684 C687 1.539 . S
C685 C681 1.408 . S
C685 C684 1.404 1_545 S
C685 H697 0.930 1_545 S
C686 C682 1.524 . S
C686 H698 0.956 . S
C686 H699 0.961 . S
C686 H700 0.961 . S
C687 C684 1.539 . S
C687 H701 0.958 . S
C687 H702 0.961 . S
C687 H703 0.960 . S
H688 C672 0.931 . S
H689 C677 0.929 . S
H690 C678 0.960 . S
H691 C678 0.962 1_545 S
H692 C678 0.960 . S
H693 C679 0.961 . S
H694 C679 0.961 . S
H695 C679 0.961 . S
H696 C680 0.931 . S
H697 C685 0.930 1_565 S
H698 C686 0.956 . S
H699 C686 0.961 . S
H700 C686 0.961 . S
H701 C687 0.958 . S
H702 C687 0.961 . S
H703 C687 0.960 . S
C704 C705 1.391 . S
C704 C706 1.394 . S
C704 H720 0.931 . S
C705 C704 1.391 . S
C705 C709 1.376 . S
C706 C704 1.394 . S
C706 C707 1.369 . S
C706 C710 1.531 . S
C707 C706 1.369 . S
C707 C708 1.410 . S
C707 C715 1.503 . S
C708 C707 1.410 . S
C708 C709 1.392 . S
C708 C711 1.511 . S
C709 C705 1.376 . S
C709 C708 1.392 . S
C709 H721 0.929 . S
C710 C706 1.531 . S
C710 H722 0.960 . S
C710 H723 0.962 . S
C710 H724 0.960 . S
C711 C708 1.511 . S
C711 H725 0.961 . S
C711 H726 0.961 . S
C711 H727 0.961 . S
C712 C713 1.370 . S
C712 C714 1.363 . S
C712 H728 0.931 . S
C713 C712 1.370 . S
C713 C717 1.408 . S
C714 C712 1.363 . S
C714 C715 1.370 . S
C714 C718 1.524 . S
C715 C707 1.503 . S
C715 C714 1.370 . S
C715 C716 1.403 . S
C716 C715 1.403 . S
C716 C717 1.404 . S
C716 C719 1.539 . S
C717 C713 1.408 . S
C717 C716 1.404 . S
C717 H729 0.930 . S
C718 C714 1.524 . S
C718 H730 0.956 . S
C718 H731 0.961 . S
C718 H732 0.961 . S
C719 C716 1.539 . S
C719 H733 0.958 . S
C719 H734 0.961 . S
C719 H735 0.960 . S
H720 C704 0.931 . S
H721 C709 0.929 . S
H722 C710 0.960 . S
H723 C710 0.962 . S
H724 C710 0.960 . S
H725 C711 0.961 . S
H726 C711 0.961 . S
H727 C711 0.961 . S
H728 C712 0.931 . S
H729 C717 0.930 . S
H730 C718 0.956 . S
H731 C718 0.961 . S
H732 C718 0.961 . S
H733 C719 0.958 . S
H734 C719 0.961 . S
H735 C719 0.960 . S
C736 C737 1.391 . S
C736 C738 1.394 . S
C736 H752 0.931 . S
C737 C736 1.391 . S
C737 C741 1.376 . S
C738 C736 1.394 . S
C738 C739 1.369 . S
C738 C742 1.531 . S
C739 C738 1.369 . S
C739 C740 1.410 . S
C739 C747 1.503 . S
C740 C739 1.410 . S
C740 C741 1.392 . S
C740 C743 1.511 . S
C741 C737 1.376 . S
C741 C740 1.392 . S
C741 H753 0.929 . S
C742 C738 1.531 . S
C742 H754 0.960 . S
C742 H755 0.962 . S
C742 H756 0.960 . S
C743 C740 1.511 . S
C743 H757 0.961 . S
C743 H758 0.961 . S
C743 H759 0.961 . S
C744 C745 1.370 . S
C744 C746 1.363 . S
C744 H760 0.931 . S
C745 C744 1.370 . S
C745 C749 1.408 . S
C746 C744 1.363 . S
C746 C747 1.370 . S
C746 C750 1.524 . S
C747 C739 1.503 . S
C747 C746 1.370 . S
C747 C748 1.403 . S
C748 C747 1.403 . S
C748 C749 1.404 . S
C748 C751 1.539 . S
C749 C745 1.408 . S
C749 C748 1.404 . S
C749 H761 0.930 . S
C750 C746 1.524 . S
C750 H762 0.956 . S
C750 H763 0.961 . S
C750 H764 0.961 . S
C751 C748 1.539 . S
C751 H765 0.958 . S
C751 H766 0.961 . S
C751 H767 0.960 . S
H752 C736 0.931 . S
H753 C741 0.929 . S
H754 C742 0.960 . S
H755 C742 0.962 . S
H756 C742 0.960 . S
H757 C743 0.961 . S
H758 C743 0.961 . S
H759 C743 0.961 . S
H760 C744 0.931 . S
H761 C749 0.930 . S
H762 C750 0.956 . S
H763 C750 0.961 . S
H764 C750 0.961 . S
H765 C751 0.958 . S
H766 C751 0.961 . S
H767 C751 0.960 . S
C768 C769 1.416 . S
C768 C770 1.394 . S
C768 H784 0.931 . S
C769 C768 1.416 . S
C769 C773 1.351 1_455 S
C770 C768 1.394 . S
C770 C771 1.369 . S
C770 C774 1.531 . S
C771 C770 1.369 . S
C771 C772 1.410 1_455 S
C771 C779 1.503 . S
C772 C771 1.410 1_655 S
C772 C773 1.392 . S
C772 C775 1.511 . S
C773 C769 1.351 1_655 S
C773 C772 1.392 . S
C773 H785 0.929 . S
C774 C770 1.531 . S
C774 H786 0.960 . S
C774 H787 0.962 . S
C774 H788 0.960 1_556 S
C775 C772 1.511 . S
C775 H789 0.961 . S
C775 H790 0.961 . S
C775 H791 0.961 . S
C776 C777 1.370 . S
C776 C778 1.363 . S
C776 H792 0.931 . S
C777 C776 1.370 . S
C777 C781 1.408 1_455 S
C778 C776 1.363 . S
C778 C779 1.370 . S
C778 C782 1.524 . S
C779 C771 1.503 . S
C779 C778 1.370 . S
C779 C780 1.403 1_455 S
C780 C779 1.403 1_655 S
C780 C781 1.404 . S
C780 C783 1.539 1_556 S
C781 C777 1.408 1_655 S
C781 C780 1.404 . S
C781 H793 0.930 . S
C782 C778 1.524 . S
C782 H794 0.956 . S
C782 H795 0.961 . S
C782 H796 0.961 . S
C783 C780 1.539 1_554 S
C783 H797 0.958 . S
C783 H798 0.961 . S
C783 H799 0.960 . S
H784 C768 0.931 . S
H785 C773 0.929 . S
H786 C774 0.960 . S
H787 C774 0.962 . S
H788 C774 0.960 1_554 S
H789 C775 0.961 . S
H790 C775 0.961 . S
H791 C775 0.961 . S
H792 C776 0.931 . S
H793 C781 0.930 . S
H794 C782 0.956 . S
H795 C782 0.961 . S
H796 C782 0.961 . S
H797 C783 0.958 . S
H798 C783 0.961 . S
H799 C783 0.960 . S
C800 C801 1.395 . S
C800 C802 1.394 . S
C800 H816 0.931 1_556 S
C801 C800 1.395 . S
C801 C805 1.373 1_565 S
C802 C800 1.394 . S
C802 C803 1.369 . S
C802 C806 1.531 1_556 S
C803 C802 1.369 . S
C803 C804 1.410 1_565 S
C803 C811 1.503 1_565 S
C804 C803 1.410 1_545 S
C804 C805 1.392 . S
C804 C807 1.511 . S
C805 C801 1.373 1_545 S
C805 C804 1.392 . S
C805 H817 0.929 . S
C806 C802 1.531 1_554 S
C806 H818 0.960 . S
C806 H819 0.962 1_565 S
C806 H820 0.960 . S
C807 C804 1.511 . S
C807 H821 0.961 . S
C807 H822 0.961 . S
C807 H823 0.961 1_545 S
C808 C809 1.370 . S
C808 C810 1.363 . S
C808 H824 0.931 . S
C809 C808 1.370 . S
C809 C813 1.408 1_545 S
C810 C808 1.363 . S
C810 C811 1.370 . S
C810 C814 1.524 . S
C811 C803 1.503 1_545 S
C811 C810 1.370 . S
C811 C812 1.403 1_545 S
C812 C811 1.403 1_565 S
C812 C813 1.404 . S
C812 C815 1.539 . S
C813 C809 1.408 1_565 S
C813 C812 1.404 . S
C813 H825 0.930 . S
C814 C810 1.524 . S
C814 H826 0.956 . S
C814 H827 0.961 . S
C814 H828 0.961 . S
C815 C812 1.539 . S
C815 H829 0.958 . S
C815 H830 0.961 . S
C815 H831 0.960 . S
H816 C800 0.931 1_554 S
H817 C805 0.929 . S
H818 C806 0.960 . S
H819 C806 0.962 1_545 S
H820 C806 0.960 . S
H821 C807 0.961 . S
H822 C807 0.961 . S
H823 C807 0.961 1_565 S
H824 C808 0.931 . S
H825 C813 0.930 . S
H826 C814 0.956 . S
H827 C814 0.961 . S
H828 C814 0.961 . S
H829 C815 0.958 . S
H830 C815 0.961 . S
H831 C815 0.960 . S
C832 C833 1.391 . S
C832 C834 1.394 . S
C832 H848 0.931 . S
C833 C832 1.391 . S
C833 C837 1.376 . S
C834 C832 1.394 . S
C834 C835 1.369 . S
C834 C838 1.531 . S
C835 C834 1.369 . S
C835 C836 1.410 . S
C835 C843 1.503 . S
C836 C835 1.410 . S
C836 C837 1.392 . S
C836 C839 1.511 . S
C837 C833 1.376 . S
C837 C836 1.392 . S
C837 H849 0.929 . S
C838 C834 1.531 . S
C838 H850 0.960 . S
C838 H851 0.962 . S
C838 H852 0.960 . S
C839 C836 1.511 . S
C839 H853 0.961 . S
C839 H854 0.961 . S
C839 H855 0.961 . S
C840 C841 1.370 . S
C840 C842 1.363 . S
C840 H856 0.931 . S
C841 C840 1.370 . S
C841 C845 1.408 . S
C842 C840 1.363 . S
C842 C843 1.370 . S
C842 C846 1.524 . S
C843 C835 1.503 . S
C843 C842 1.370 . S
C843 C844 1.403 . S
C844 C843 1.403 . S
C844 C845 1.404 . S
C844 C847 1.539 1_556 S
C845 C841 1.408 . S
C845 C844 1.404 . S
C845 H857 0.930 . S
C846 C842 1.524 . S
C846 H858 0.956 . S
C846 H859 0.961 . S
C846 H860 0.961 . S
C847 C844 1.539 1_554 S
C847 H861 0.958 . S
C847 H862 0.961 . S
C847 H863 0.960 . S
H848 C832 0.931 . S
H849 C837 0.929 . S
H850 C838 0.960 . S
H851 C838 0.962 . S
H852 C838 0.960 . S
H853 C839 0.961 . S
H854 C839 0.961 . S
H855 C839 0.961 . S
H856 C840 0.931 . S
H857 C845 0.930 . S
H858 C846 0.956 . S
H859 C846 0.961 . S
H860 C846 0.961 . S
H861 C847 0.958 . S
H862 C847 0.961 . S
H863 C847 0.960 . S
C864 C865 1.391 . S
C864 C866 1.394 . S
C864 H880 0.931 1_556 S
C865 C864 1.391 . S
C865 C869 1.376 . S
C866 C864 1.394 . S
C866 C867 1.369 . S
C866 C870 1.531 1_556 S
C867 C866 1.369 . S
C867 C868 1.410 . S
C867 C875 1.503 . S
C868 C867 1.410 . S
C868 C869 1.392 . S
C868 C871 1.511 . S
C869 C865 1.376 . S
C869 C868 1.392 . S
C869 H881 0.929 . S
C870 C866 1.531 1_554 S
C870 H882 0.960 1_554 S
C870 H883 0.962 . S
C870 H884 0.960 . S
C871 C868 1.511 . S
C871 H885 0.961 . S
C871 H886 0.961 . S
C871 H887 0.961 . S
C872 C873 1.370 . S
C872 C874 1.363 . S
C872 H888 0.931 . S
C873 C872 1.370 . S
C873 C877 1.408 . S
C874 C872 1.363 . S
C874 C875 1.370 . S
C874 C878 1.524 . S
C875 C867 1.503 . S
C875 C874 1.370 . S
C875 C876 1.403 . S
C876 C875 1.403 . S
C876 C877 1.404 . S
C876 C879 1.539 . S
C877 C873 1.408 . S
C877 C876 1.404 . S
C877 H889 0.930 . S
C878 C874 1.524 . S
C878 H890 0.956 . S
C878 H891 0.961 . S
C878 H892 0.961 . S
C879 C876 1.539 . S
C879 H893 0.958 . S
C879 H894 0.961 . S
C879 H895 0.960 . S
H880 C864 0.931 1_554 S
H881 C869 0.929 . S
H882 C870 0.960 1_556 S
H883 C870 0.962 . S
H884 C870 0.960 . S
H885 C871 0.961 . S
H886 C871 0.961 . S
H887 C871 0.961 . S
H888 C872 0.931 . S
H889 C877 0.930 . S
H890 C878 0.956 . S
H891 C878 0.961 . S
H892 C878 0.961 . S
H893 C879 0.958 . S
H894 C879 0.961 . S
H895 C879 0.960 . S
C896 C897 1.390 1_655 S
C896 C898 1.394 . S
C896 H912 0.932 . S
C897 C896 1.390 1_455 S
C897 C901 1.378 . S
C898 C896 1.394 . S
C898 C899 1.369 1_655 S
C898 C902 1.531 . S
C899 C898 1.369 1_455 S
C899 C900 1.410 . S
C899 C907 1.503 1_455 S
C900 C899 1.410 . S
C900 C901 1.392 . S
C900 C903 1.511 . S
C901 C897 1.378 . S
C901 C900 1.392 . S
C901 H913 0.929 . S
C902 C898 1.531 . S
C902 H914 0.960 1_655 S
C902 H915 0.962 . S
C902 H916 0.960 1_655 S
C903 C900 1.511 . S
C903 H917 0.952 1_455 S
C903 H918 0.961 1_455 S
C903 H919 0.961 . S
C904 C905 1.370 . S
C904 C906 1.363 . S
C904 H920 0.931 . S
C905 C904 1.370 . S
C905 C909 1.408 1_655 S
C906 C904 1.363 . S
C906 C907 1.370 . S
C906 C910 1.524 . S
C907 C899 1.503 1_655 S
C907 C906 1.370 . S
C907 C908 1.403 1_655 S
C908 C907 1.403 1_455 S
C908 C909 1.404 . S
C908 C911 1.539 . S
C909 C905 1.408 1_455 S
C909 C908 1.404 . S
C909 H921 0.930 . S
C910 C906 1.524 . S
C910 H922 0.956 . S
C910 H923 0.961 . S
C910 H924 0.961 . S
C911 C908 1.539 . S
C911 H925 0.958 . S
C911 H926 0.961 . S
C911 H927 0.960 . S
H912 C896 0.932 . S
H913 C901 0.929 . S
H914 C902 0.960 1_455 S
H915 C902 0.962 . S
H916 C902 0.960 1_455 S
H917 C903 0.952 1_655 S
H918 C903 0.961 1_655 S
H919 C903 0.961 . S
H920 C904 0.931 . S
H921 C909 0.930 . S
H922 C910 0.956 . S
H923 C910 0.961 . S
H924 C910 0.961 . S
H925 C911 0.958 . S
H926 C911 0.961 . S
H927 C911 0.960 . S
C928 C929 1.363 1_545 S
C928 C930 1.394 . S
C928 H944 0.931 . S
C929 C928 1.363 1_565 S
C929 C933 1.405 . S
C930 C928 1.394 . S
C930 C931 1.369 1_545 S
C930 C934 1.531 . S
C931 C930 1.369 1_565 S
C931 C932 1.410 . S
C931 C939 1.503 . S
C932 C931 1.410 . S
C932 C933 1.392 . S
C932 C935 1.511 . S
C933 C929 1.405 . S
C933 C932 1.392 . S
C933 H945 0.929 . S
C934 C930 1.531 . S
C934 H946 0.960 . S
C934 H947 0.962 . S
C934 H948 0.960 . S
C935 C932 1.511 . S
C935 H949 0.961 . S
C935 H950 0.961 . S
C935 H951 0.961 . S
C936 C937 1.370 . S
C936 C938 1.363 . S
C936 H952 0.931 . S
C937 C936 1.370 . S
C937 C941 1.403 1_565 S
C938 C936 1.363 . S
C938 C939 1.370 . S
C938 C942 1.524 . S
C939 C931 1.503 . S
C939 C938 1.370 . S
C939 C940 1.403 1_565 S
C940 C939 1.403 1_545 S
C940 C941 1.405 . S
C940 C943 1.539 . S
C941 C937 1.403 1_545 S
C941 C940 1.405 . S
C941 H953 0.934 . S
C942 C938 1.524 . S
C942 H954 0.956 . S
C942 H955 0.961 . S
C942 H956 0.961 . S
C943 C940 1.539 . S
C943 H957 0.958 . S
C943 H958 0.961 . S
C943 H959 0.960 . S
H944 C928 0.931 . S
H945 C933 0.929 . S
H946 C934 0.960 . S
H947 C934 0.962 . S
H948 C934 0.960 . S
H949 C935 0.961 . S
H950 C935 0.961 . S
H951 C935 0.961 . S
H952 C936 0.931 . S
H953 C941 0.934 . S
H954 C942 0.956 . S
H955 C942 0.961 . S
H956 C942 0.961 . S
H957 C943 0.958 . S
H958 C943 0.961 . S
H959 C943 0.960 . S
C960 C961 1.391 . S
C960 C962 1.394 . S
C960 H976 0.931 . S
C961 C960 1.391 . S
C961 C965 1.376 . S
C962 C960 1.394 . S
C962 C963 1.369 . S
C962 C966 1.531 . S
C963 C962 1.369 . S
C963 C964 1.410 . S
C963 C971 1.503 . S
C964 C963 1.410 . S
C964 C965 1.392 . S
C964 C967 1.511 . S
C965 C961 1.376 . S
C965 C964 1.392 . S
C965 H977 0.929 . S
C966 C962 1.531 . S
C966 H978 0.960 . S
C966 H979 0.962 . S
C966 H980 0.960 . S
C967 C964 1.511 . S
C967 H981 0.961 . S
C967 H982 0.961 . S
C967 H983 0.961 . S
C968 C969 1.370 . S
C968 C970 1.363 . S
C968 H984 0.931 . S
C969 C968 1.370 . S
C969 C973 1.408 . S
C970 C968 1.363 . S
C970 C971 1.370 . S
C970 C974 1.524 . S
C971 C963 1.503 . S
C971 C970 1.370 . S
C971 C972 1.403 . S
C972 C971 1.403 . S
C972 C973 1.404 . S
C972 C975 1.539 . S
C973 C969 1.408 . S
C973 C972 1.404 . S
C973 H985 0.930 . S
C974 C970 1.524 . S
C974 H986 0.956 . S
C974 H987 0.961 . S
C974 H988 0.961 . S
C975 C972 1.539 . S
C975 H989 0.958 . S
C975 H990 0.961 . S
C975 H991 0.960 . S
H976 C960 0.931 . S
H977 C965 0.929 . S
H978 C966 0.960 . S
H979 C966 0.962 . S
H980 C966 0.960 . S
H981 C967 0.961 . S
H982 C967 0.961 . S
H983 C967 0.961 . S
H984 C968 0.931 . S
H985 C973 0.930 . S
H986 C974 0.956 . S
H987 C974 0.961 . S
H988 C974 0.961 . S
H989 C975 0.958 . S
H990 C975 0.961 . S
H991 C975 0.960 . S
C992 C993 1.391 . S
C992 C994 1.394 . S
C992 H1008 0.931 . S
C993 C992 1.391 . S
C993 C997 1.376 . S
C994 C992 1.394 . S
C994 C995 1.369 . S
C994 C998 1.531 . S
C995 C994 1.369 . S
C995 C996 1.410 . S
C995 C1003 1.503 . S
C996 C995 1.410 . S
C996 C997 1.392 . S
C996 C999 1.511 . S
C997 C993 1.376 . S
C997 C996 1.392 . S
C997 H1009 0.929 . S
C998 C994 1.531 . S
C998 H1010 0.960 . S
C998 H1011 0.962 . S
C998 H1012 0.960 . S
C999 C996 1.511 . S
C999 H1013 0.961 . S
C999 H1014 0.961 . S
C999 H1015 0.961 . S
C1000 C1001 1.370 . S
C1000 C1002 1.363 . S
C1000 H1016 0.931 . S
C1001 C1000 1.370 . S
C1001 C1005 1.408 . S
C1002 C1000 1.363 . S
C1002 C1003 1.370 . S
C1002 C1006 1.524 . S
C1003 C995 1.503 . S
C1003 C1002 1.370 . S
C1003 C1004 1.403 . S
C1004 C1003 1.403 . S
C1004 C1005 1.404 . S
C1004 C1007 1.539 . S
C1005 C1001 1.408 . S
C1005 C1004 1.404 . S
C1005 H1017 0.930 . S
C1006 C1002 1.524 . S
C1006 H1018 0.956 . S
C1006 H1019 0.961 . S
C1006 H1020 0.961 . S
C1007 C1004 1.539 . S
C1007 H1021 0.958 . S
C1007 H1022 0.961 . S
C1007 H1023 0.960 . S
H1008 C992 0.931 . S
H1009 C997 0.929 . S
H1010 C998 0.960 . S
H1011 C998 0.962 . S
H1012 C998 0.960 . S
H1013 C999 0.961 . S
H1014 C999 0.961 . S
H1015 C999 0.961 . S
H1016 C1000 0.931 . S
H1017 C1005 0.930 . S
H1018 C1006 0.956 . S
H1019 C1006 0.961 . S
H1020 C1006 0.961 . S
H1021 C1007 0.958 . S
H1022 C1007 0.961 . S
H1023 C1007 0.960 . S
C257 C76 1.829 1_545 S
C265 C98 1.981 1_545 S
C297 C138 1.989 . S
C289 C88 1.801 . S
C329 C178 2.001 . S
C321 C52 1.818 . S
C361 C218 1.985 1_455 S
C353 C64 1.848 . S
C393 C111 1.982 1_565 S
C385 C28 1.857 . S
C417 C40 1.862 . S
C425 C151 1.995 . S
C449 C4 1.802 . S
C457 C191 1.994 . S
C481 C16 1.799 1_455 S
C489 C231 1.985 1_655 S
C521 C122 0.464 . S
C513 C69 0.407 1_655 S
C553 C162 0.456 . S
C545 C81 0.417 . S
C585 C202 0.465 . S
C577 C93 0.420 . S
C609 C57 0.416 . S
C617 C242 0.463 . S
C641 C21 0.515 1_655 S
C649 C105 0.429 . S
C681 C145 0.439 . S
C673 C33 0.519 1_565 S
C713 C185 0.484 . S
C705 C45 0.534 . S
C737 C9 0.409 . S
C745 C225 0.471 . S
C769 C66 2.022 . S
C777 C99 2.303 . S
C801 C78 2.037 1_565 S
C809 C139 2.277 . S
C841 C179 2.269 . S
C833 C90 1.975 . S
C873 C219 2.291 . S
C865 C54 2.054 . S
C897 C18 2.059 . S
C905 C118 2.311 . S
C937 C158 2.283 . S
C929 C30 1.993 1_565 S
C969 C198 2.270 . S
C961 C42 2.025 . S
C993 C6 2.041 . S
C1001 C238 2.303 . S
