# Generated by pormake.
# Topology eea, (3,6)-cn, num edge types: 1
# Building blocks:
#     Node 0, Type 0, BuildingBlock: CUQRIR_clean_linker_1, # of connection points: 3
#     Node 1, Type 0, BuildingBlock: CUQRIR_clean_linker_1, # of connection points: 3
#     Node 2, Type 0, BuildingBlock: CUQRIR_clean_linker_1, # of connection points: 3
#     Node 3, Type 0, BuildingBlock: CUQRIR_clean_linker_1, # of connection points: 3
#     Node 4, Type 0, BuildingBlock: CUQRIR_clean_linker_1, # of connection points: 3
#     Node 5, Type 0, BuildingBlock: CUQRIR_clean_linker_1, # of connection points: 3
#     Node 6, Type 0, BuildingBlock: CUQRIR_clean_linker_1, # of connection points: 3
#     Node 7, Type 0, BuildingBlock: CUQRIR_clean_linker_1, # of connection points: 3
#     Node 8, Type 0, BuildingBlock: CUQRIR_clean_linker_1, # of connection points: 3
#     Node 9, Type 0, BuildingBlock: CUQRIR_clean_linker_1, # of connection points: 3
#     Node 10, Type 0, BuildingBlock: CUQRIR_clean_linker_1, # of connection points: 3
#     Node 11, Type 0, BuildingBlock: CUQRIR_clean_linker_1, # of connection points: 3
#     Node 12, Type 0, BuildingBlock: CUQRIR_clean_linker_1, # of connection points: 3
#     Node 13, Type 0, BuildingBlock: CUQRIR_clean_linker_1, # of connection points: 3
#     Node 14, Type 0, BuildingBlock: CUQRIR_clean_linker_1, # of connection points: 3
#     Node 15, Type 0, BuildingBlock: CUQRIR_clean_linker_1, # of connection points: 3
#     Node 16, Type 0, BuildingBlock: CUQRIR_clean_linker_1, # of connection points: 3
#     Node 17, Type 0, BuildingBlock: CUQRIR_clean_linker_1, # of connection points: 3
#     Node 18, Type 1, BuildingBlock: CUWYAW_clean_sbu_0, # of connection points: 6
#     Node 19, Type 1, BuildingBlock: CUWYAW_clean_sbu_0, # of connection points: 6
#     Node 20, Type 1, BuildingBlock: CUWYAW_clean_sbu_0, # of connection points: 6
#     Node 21, Type 1, BuildingBlock: CUWYAW_clean_sbu_0, # of connection points: 6
#     Node 22, Type 1, BuildingBlock: CUWYAW_clean_sbu_0, # of connection points: 6
#     Node 23, Type 1, BuildingBlock: CUWYAW_clean_sbu_0, # of connection points: 6
#     Node 24, Type 1, BuildingBlock: CUWYAW_clean_sbu_0, # of connection points: 6
#     Node 25, Type 1, BuildingBlock: CUWYAW_clean_sbu_0, # of connection points: 6
#     Node 26, Type 1, BuildingBlock: CUWYAW_clean_sbu_0, # of connection points: 6
#     Edge 27, Type (0, 1), BuildingBlock: EZIPEK_clean_linker_0, # of connection points: 2
#     Edge 28, Type (0, 1), BuildingBlock: EZIPEK_clean_linker_0, # of connection points: 2
#     Edge 29, Type (0, 1), BuildingBlock: EZIPEK_clean_linker_0, # of connection points: 2
#     Edge 30, Type (0, 1), BuildingBlock: EZIPEK_clean_linker_0, # of connection points: 2
#     Edge 31, Type (0, 1), BuildingBlock: EZIPEK_clean_linker_0, # of connection points: 2
#     Edge 32, Type (0, 1), BuildingBlock: EZIPEK_clean_linker_0, # of connection points: 2
#     Edge 33, Type (0, 1), BuildingBlock: EZIPEK_clean_linker_0, # of connection points: 2
#     Edge 34, Type (0, 1), BuildingBlock: EZIPEK_clean_linker_0, # of connection points: 2
#     Edge 35, Type (0, 1), BuildingBlock: EZIPEK_clean_linker_0, # of connection points: 2
#     Edge 36, Type (0, 1), BuildingBlock: EZIPEK_clean_linker_0, # of connection points: 2
#     Edge 37, Type (0, 1), BuildingBlock: EZIPEK_clean_linker_0, # of connection points: 2
#     Edge 38, Type (0, 1), BuildingBlock: EZIPEK_clean_linker_0, # of connection points: 2
#     Edge 39, Type (0, 1), BuildingBlock: EZIPEK_clean_linker_0, # of connection points: 2
#     Edge 40, Type (0, 1), BuildingBlock: EZIPEK_clean_linker_0, # of connection points: 2
#     Edge 41, Type (0, 1), BuildingBlock: EZIPEK_clean_linker_0, # of connection points: 2
#     Edge 42, Type (0, 1), BuildingBlock: EZIPEK_clean_linker_0, # of connection points: 2
#     Edge 43, Type (0, 1), BuildingBlock: EZIPEK_clean_linker_0, # of connection points: 2
#     Edge 44, Type (0, 1), BuildingBlock: EZIPEK_clean_linker_0, # of connection points: 2
#     Edge 45, Type (0, 1), BuildingBlock: EZIPEK_clean_linker_0, # of connection points: 2
#     Edge 46, Type (0, 1), BuildingBlock: EZIPEK_clean_linker_0, # of connection points: 2
#     Edge 47, Type (0, 1), BuildingBlock: EZIPEK_clean_linker_0, # of connection points: 2
#     Edge 48, Type (0, 1), BuildingBlock: EZIPEK_clean_linker_0, # of connection points: 2
#     Edge 49, Type (0, 1), BuildingBlock: EZIPEK_clean_linker_0, # of connection points: 2
#     Edge 50, Type (0, 1), BuildingBlock: EZIPEK_clean_linker_0, # of connection points: 2
#     Edge 51, Type (0, 1), BuildingBlock: EZIPEK_clean_linker_0, # of connection points: 2
#     Edge 52, Type (0, 1), BuildingBlock: EZIPEK_clean_linker_0, # of connection points: 2
#     Edge 53, Type (0, 1), BuildingBlock: EZIPEK_clean_linker_0, # of connection points: 2
#     Edge 54, Type (0, 1), BuildingBlock: EZIPEK_clean_linker_0, # of connection points: 2
#     Edge 55, Type (0, 1), BuildingBlock: EZIPEK_clean_linker_0, # of connection points: 2
#     Edge 56, Type (0, 1), BuildingBlock: EZIPEK_clean_linker_0, # of connection points: 2
#     Edge 57, Type (0, 1), BuildingBlock: EZIPEK_clean_linker_0, # of connection points: 2
#     Edge 58, Type (0, 1), BuildingBlock: EZIPEK_clean_linker_0, # of connection points: 2
#     Edge 59, Type (0, 1), BuildingBlock: EZIPEK_clean_linker_0, # of connection points: 2
#     Edge 60, Type (0, 1), BuildingBlock: EZIPEK_clean_linker_0, # of connection points: 2
#     Edge 61, Type (0, 1), BuildingBlock: EZIPEK_clean_linker_0, # of connection points: 2
#     Edge 62, Type (0, 1), BuildingBlock: EZIPEK_clean_linker_0, # of connection points: 2
#     Edge 63, Type (0, 1), BuildingBlock: EZIPEK_clean_linker_0, # of connection points: 2
#     Edge 64, Type (0, 1), BuildingBlock: EZIPEK_clean_linker_0, # of connection points: 2
#     Edge 65, Type (0, 1), BuildingBlock: EZIPEK_clean_linker_0, # of connection points: 2
#     Edge 66, Type (0, 1), BuildingBlock: EZIPEK_clean_linker_0, # of connection points: 2
#     Edge 67, Type (0, 1), BuildingBlock: EZIPEK_clean_linker_0, # of connection points: 2
#     Edge 68, Type (0, 1), BuildingBlock: EZIPEK_clean_linker_0, # of connection points: 2
#     Edge 69, Type (0, 1), BuildingBlock: EZIPEK_clean_linker_0, # of connection points: 2
#     Edge 70, Type (0, 1), BuildingBlock: EZIPEK_clean_linker_0, # of connection points: 2
#     Edge 71, Type (0, 1), BuildingBlock: EZIPEK_clean_linker_0, # of connection points: 2
#     Edge 72, Type (0, 1), BuildingBlock: EZIPEK_clean_linker_0, # of connection points: 2
#     Edge 73, Type (0, 1), BuildingBlock: EZIPEK_clean_linker_0, # of connection points: 2
#     Edge 74, Type (0, 1), BuildingBlock: EZIPEK_clean_linker_0, # of connection points: 2
#     Edge 75, Type (0, 1), BuildingBlock: EZIPEK_clean_linker_0, # of connection points: 2
#     Edge 76, Type (0, 1), BuildingBlock: EZIPEK_clean_linker_0, # of connection points: 2
#     Edge 77, Type (0, 1), BuildingBlock: EZIPEK_clean_linker_0, # of connection points: 2
#     Edge 78, Type (0, 1), BuildingBlock: EZIPEK_clean_linker_0, # of connection points: 2
#     Edge 79, Type (0, 1), BuildingBlock: EZIPEK_clean_linker_0, # of connection points: 2
#     Edge 80, Type (0, 1), BuildingBlock: EZIPEK_clean_linker_0, # of connection points: 2
# Relax obj value: 0.108
# Max RMSD: 0.272
# Mean RMSD: 0.197
data_MOF--net-eea--node1-CUWYAW_clean_sbu_0--node2-CUQRIR_clean_linker_1--edge1-EZIPEK_clean_linker_0
_symmetry_space_group_name_H-M    P1
_symmetry_Int_Tables_number       1
_symmetry_cell_setting            triclinic
loop_
_symmetry_equiv_pos_as_xyz
'x, y, z'
_cell_length_a     34.228907
_cell_length_b     35.03321
_cell_length_c     51.326597
_cell_angle_alpha  86.78738
_cell_angle_beta   93.18946
_cell_angle_gamma 118.52623
loop_
_atom_site_label
_atom_site_type_symbol
_atom_site_fract_x
_atom_site_fract_y
_atom_site_fract_z
_atom_type_partial_charge
C0 C 0.21874 0.10706 0.39172 0.0
N1 N 0.22959 0.13899 0.40903 0.0
N2 N 0.21629 0.07052 0.40375 0.0
C3 C 0.21052 0.11158 0.36293 0.0
C4 C 0.2264 0.08139 0.42909 0.0
N5 N 0.23508 0.12299 0.43244 0.0
C6 C 0.22922 0.05169 0.45056 0.0
H7 H 0.17464 0.10098 0.35912 0.0
H8 H 0.21953 0.09079 0.35182 0.0
H9 H 0.22981 0.14596 0.35598 0.0
H10 H 0.26393 0.05716 0.45259 0.0
H11 H 0.20712 0.01712 0.44597 0.0
H12 H 0.22007 0.05869 0.46944 0.0
C13 C 0.91967 0.11665 0.40259 0.0
N14 N 0.93711 0.14826 0.42057 0.0
N15 N 0.87843 0.08548 0.40887 0.0
C16 C 0.94254 0.1166 0.37841 0.0
C17 C 0.87103 0.09874 0.43143 0.0
N18 N 0.90664 0.13658 0.43905 0.0
C19 C 0.82919 0.0736 0.44649 0.0
H20 H 0.93163 0.08291 0.37251 0.0
H21 H 0.97923 0.1338 0.3815 0.0
H22 H 0.93354 0.13356 0.3622 0.0
H23 H 0.83263 0.04888 0.45946 0.0
H24 H 0.80006 0.05627 0.43305 0.0
H25 H 0.82316 0.09537 0.45864 0.0
C26 C 0.88239 0.74735 0.40041 0.0
N27 N 0.90896 0.74005 0.41825 0.0
N28 N 0.85434 0.75736 0.41208 0.0
C29 C 0.886 0.74741 0.3713 0.0
C30 C 0.86345 0.75454 0.43781 0.0
N31 N 0.89625 0.74341 0.44178 0.0
C32 C 0.83959 0.76159 0.45927 0.0
H33 H 0.91188 0.77986 0.36439 0.0
H34 H 0.85394 0.7403 0.36107 0.0
H35 H 0.89606 0.72301 0.36627 0.0
H36 H 0.8118 0.72982 0.46557 0.0
H37 H 0.82574 0.78344 0.45248 0.0
H38 H 0.86247 0.77561 0.47639 0.0
C39 C 0.13125 0.26039 0.64856 0.0
N40 N 0.16276 0.27079 0.63078 0.0
N41 N 0.0965 0.26439 0.63782 0.0
C42 C 0.13222 0.24216 0.67572 0.0
C43 C 0.10813 0.2786 0.613 0.0
N44 N 0.14866 0.28278 0.60864 0.0
C45 C 0.07938 0.28701 0.59282 0.0
H46 H 0.11126 0.20631 0.67582 0.0
H47 H 0.11808 0.25509 0.68959 0.0
H48 H 0.16654 0.25006 0.68243 0.0
H49 H 0.09051 0.32242 0.5914 0.0
H50 H 0.04391 0.26986 0.5981 0.0
H51 H 0.08292 0.27674 0.57341 0.0
C52 C 0.80161 0.90381 0.65297 0.0
N53 N 0.79309 0.87348 0.63489 0.0
N54 N 0.80455 0.94097 0.64173 0.0
C55 C 0.80892 0.89772 0.68172 0.0
C56 C 0.79726 0.93234 0.61601 0.0
N57 N 0.78984 0.89138 0.61158 0.0
C58 C 0.79583 0.96359 0.59514 0.0
H59 H 0.79894 0.91736 0.69322 0.0
H60 H 0.84481 0.90869 0.68586 0.0
H61 H 0.7899 0.86293 0.68791 0.0
H62 H 0.80799 0.95922 0.57652 0.0
H63 H 0.81616 0.99772 0.60114 0.0
H64 H 0.76091 0.95704 0.59175 0.0
C65 C 0.10935 0.91613 0.65336 0.0
N66 N 0.08822 0.88433 0.63568 0.0
N67 N 0.14218 0.95267 0.64217 0.0
C68 C 0.09813 0.91109 0.68168 0.0
C69 C 0.13993 0.94217 0.6169 0.0
N70 N 0.1074 0.9009 0.61274 0.0
C71 C 0.1716 0.97143 0.59649 0.0
H72 H 0.0616 0.89676 0.68346 0.0
H73 H 0.11508 0.94253 0.69159 0.0
H74 H 0.10853 0.88839 0.69173 0.0
H75 H 0.19705 0.96102 0.59391 0.0
H76 H 0.18853 1.00587 0.60219 0.0
H77 H 0.15373 0.96881 0.57743 0.0
C78 C 0.87634 0.44061 0.72413 0.0
N79 N 0.88454 0.47256 0.74098 0.0
N80 N 0.87609 0.40541 0.7368 0.0
C81 C 0.86792 0.44353 0.69525 0.0
C82 C 0.88464 0.41706 0.76205 0.0
N83 N 0.89034 0.45783 0.76476 0.0
C84 C 0.88889 0.38897 0.78408 0.0
H85 H 0.83169 0.43066 0.69128 0.0
H86 H 0.87893 0.42376 0.68466 0.0
H87 H 0.88536 0.47782 0.68788 0.0
H88 H 0.92422 0.39647 0.78656 0.0
H89 H 0.8686 0.354 0.77979 0.0
H90 H 0.87842 0.39556 0.80264 0.0
C91 C 0.58196 0.44321 0.73887 0.0
N92 N 0.59774 0.47542 0.7565 0.0
N93 N 0.54109 0.41097 0.74501 0.0
C94 C 0.60592 0.44368 0.71508 0.0
C95 C 0.53218 0.42421 0.76708 0.0
N96 N 0.56649 0.463 0.77459 0.0
C97 C 0.49007 0.39819 0.78177 0.0
H98 H 0.59613 0.45932 0.69847 0.0
H99 H 0.59662 0.41008 0.70973 0.0
H100 H 0.64251 0.46237 0.71838 0.0
H101 H 0.49422 0.3744 0.79524 0.0
H102 H 0.46161 0.37975 0.76812 0.0
H103 H 0.48249 0.41952 0.79336 0.0
C104 C 0.54032 0.08075 0.72663 0.0
N105 N 0.57139 0.07615 0.74196 0.0
N106 N 0.50319 0.06876 0.73994 0.0
C107 C 0.54735 0.10068 0.69938 0.0
C108 C 0.51167 0.05484 0.76358 0.0
N109 N 0.55331 0.05954 0.7651 0.0
C110 C 0.48101 0.04122 0.78617 0.0
H111 H 0.55252 0.13439 0.70001 0.0
H112 H 0.51723 0.08221 0.68687 0.0
H113 H 0.57643 0.10131 0.69046 0.0
H114 H 0.47873 0.01125 0.796 0.0
H115 H 0.44715 0.03526 0.77967 0.0
H116 H 0.49479 0.06718 0.80068 0.0
C117 C 0.78371 0.60449 0.9888 0.0
N118 N 0.81693 0.61137 0.97302 0.0
N119 N 0.75129 0.60911 0.9752 0.0
C120 C 0.78034 0.5885 0.01685 0.0
C121 C 0.76651 0.62074 0.95074 0.0
N122 N 0.80644 0.62197 0.94927 0.0
C123 C 0.74068 0.62695 0.92777 0.0
H124 H 0.75755 0.55295 0.01788 0.0
H125 H 0.76604 0.6043 0.02847 0.0
H126 H 0.81327 0.59506 0.02556 0.0
H127 H 0.70832 0.62335 0.93358 0.0
H128 H 0.73488 0.60281 0.91291 0.0
H129 H 0.76048 0.65975 0.91864 0.0
C130 C 0.46951 0.23788 0.98553 0.0
N131 N 0.45907 0.20874 0.96642 0.0
N132 N 0.4602 0.27031 0.97761 0.0
C133 C 0.4893 0.2347 1.01196 0.0
C134 C 0.44327 0.25988 0.95301 0.0
N135 N 0.44324 0.22303 0.94572 0.0
C136 C 0.42876 0.28725 0.93557 0.0
H137 H 0.49763 0.26323 0.02382 0.0
H138 H 0.51975 0.23172 1.00954 0.0
H139 H 0.46537 0.20497 0.02268 0.0
H140 H 0.4583 0.31386 0.92611 0.0
H141 H 0.4136 0.30251 0.94687 0.0
H142 H 0.40437 0.2676 0.92021 0.0
C143 C 0.77807 0.26375 0.98317 0.0
N144 N 0.76177 0.23067 0.96625 0.0
N145 N 0.82086 0.29458 0.97753 0.0
C146 C 0.74633 0.27056 0.99908 0.0
C147 C 0.82591 0.2814 0.95385 0.0
N148 N 0.79111 0.24236 0.94748 0.0
C149 C 0.86197 0.30914 0.9349 0.0
H150 H 0.75685 0.30551 1.00096 0.0
H151 H 0.74204 0.2534 0.01837 0.0
H152 H 0.71282 0.25585 0.98933 0.0
H153 H 0.88682 0.29734 0.93492 0.0
H154 H 0.8784 0.34403 0.93946 0.0
H155 H 0.8484 0.30653 0.91465 0.0
C156 C 0.53204 0.76765 0.05858 0.0
N157 N 0.54832 0.80236 0.07438 0.0
N158 N 0.54149 0.7362 0.06874 0.0
C159 C 0.50733 0.76463 0.03302 0.0
C160 C 0.56396 0.75287 0.09141 0.0
N161 N 0.56749 0.79248 0.09522 0.0
C162 C 0.5815 0.72981 0.11028 0.0
H163 H 0.48813 0.78267 0.03349 0.0
H164 H 0.48457 0.73019 0.02844 0.0
H165 H 0.53163 0.7794 0.01727 0.0
H166 H 0.61292 0.75348 0.12006 0.0
H167 H 0.58729 0.7058 0.10025 0.0
H168 H 0.55671 0.71229 0.12552 0.0
C169 C 0.24266 0.78309 0.07568 0.0
N170 N 0.26668 0.82399 0.08495 0.0
N171 N 0.19914 0.76633 0.08013 0.0
C172 C 0.26257 0.7548 0.06894 0.0
C173 C 0.19786 0.79601 0.09527 0.0
N174 N 0.2396 0.82898 0.10104 0.0
C175 C 0.15624 0.78929 0.10769 0.0
H176 H 0.25032 0.7414 0.04929 0.0
H177 H 0.25108 0.72652 0.08293 0.0
H178 H 0.29946 0.77248 0.07015 0.0
H179 H 0.14905 0.76594 0.12456 0.0
H180 H 0.12759 0.77518 0.09355 0.0
H181 H 0.16027 0.82044 0.11465 0.0
C182 C 0.20674 0.42289 0.06819 0.0
N183 N 0.23121 0.41152 0.08545 0.0
N184 N 0.17769 0.4305 0.08057 0.0
C185 C 0.21346 0.4299 0.03924 0.0
C186 C 0.18404 0.42254 0.10596 0.0
N187 N 0.21647 0.41073 0.10918 0.0
C188 C 0.15711 0.42449 0.12752 0.0
H189 H 0.23394 0.46519 0.03473 0.0
H190 H 0.18097 0.41871 0.02854 0.0
H191 H 0.23056 0.41239 0.0324 0.0
H192 H 0.12629 0.39285 0.12919 0.0
H193 H 0.14733 0.45018 0.12306 0.0
H194 H 0.17604 0.43069 0.14646 0.0
C195 C 0.46131 0.92556 0.31594 0.0
N196 N 0.49304 0.93559 0.29837 0.0
N197 N 0.42563 0.927 0.30446 0.0
C198 C 0.46265 0.90878 0.34346 0.0
C199 C 0.43679 0.939 0.27932 0.0
N200 N 0.47774 0.94384 0.27544 0.0
C201 C 0.40673 0.94333 0.25829 0.0
H202 H 0.44555 0.87273 0.34367 0.0
H203 H 0.44495 0.91895 0.35663 0.0
H204 H 0.49733 0.92046 0.35102 0.0
H205 H 0.42569 0.97292 0.24588 0.0
H206 H 0.37832 0.94479 0.26669 0.0
H207 H 0.39373 0.91486 0.24562 0.0
C208 C 0.13585 0.56854 0.32308 0.0
N209 N 0.127 0.53844 0.30483 0.0
N210 N 0.13797 0.60549 0.31208 0.0
C211 C 0.14343 0.56222 0.35177 0.0
C212 C 0.12986 0.597 0.28639 0.0
N213 N 0.12266 0.55625 0.28176 0.0
C214 C 0.12718 0.62808 0.26584 0.0
H215 H 0.1323 0.58076 0.36344 0.0
H216 H 0.17954 0.57453 0.3559 0.0
H217 H 0.12556 0.52726 0.35775 0.0
H218 H 0.13753 0.62322 0.24673 0.0
H219 H 0.14838 0.66225 0.27154 0.0
H220 H 0.09225 0.62196 0.26361 0.0
C221 C 0.45449 0.59136 0.31947 0.0
N222 N 0.43227 0.55851 0.30262 0.0
N223 N 0.49146 0.62385 0.30862 0.0
C224 C 0.44073 0.59159 0.34672 0.0
C225 C 0.49089 0.60999 0.28444 0.0
N226 N 0.45467 0.57071 0.28048 0.0
C227 C 0.52552 0.63534 0.26458 0.0
H228 H 0.40475 0.56916 0.34908 0.0
H229 H 0.44835 0.62492 0.35166 0.0
H230 H 0.46004 0.58114 0.36064 0.0
H231 H 0.52653 0.61375 0.24993 0.0
H232 H 0.55887 0.65336 0.27422 0.0
H233 H 0.51735 0.65952 0.25436 0.0
C234 C 0.56241 0.05272 0.09374 0.0
Eu235 Eu 0.53179 0.0352 0.04575 0.0
C236 C 0.55468 0.03157 0.12008 0.0
C237 C 0.51158 0.00873 0.12982 0.0
C238 C 0.50532 0.99339 0.15579 0.0
C239 C 0.5419 1.00028 0.17243 0.0
C240 C 0.58477 0.02093 0.16239 0.0
C241 C 0.59112 0.03677 0.13642 0.0
C242 C 0.49933 0.07893 1.0127 0.0
C243 C 0.43002 0.95518 0.03712 0.0
C244 C 0.49143 0.96859 0.94407 0.0
Eu245 Eu 0.50444 0.98899 0.99303 0.0
C246 C 0.5132 0.98622 0.91881 0.0
C247 C 0.55848 0.99883 0.91569 0.0
C248 C 0.57743 0.01261 0.89111 0.0
C249 C 0.55152 0.0145 0.8694 0.0
C250 C 0.5066 1.00251 0.87261 0.0
C251 C 0.48761 0.98843 0.89705 0.0
C252 C 0.52471 0.94508 0.0326 0.0
C253 C 0.60254 0.07604 0.99911 0.0
O254 O 0.58014 0.03943 0.07682 0.0
O255 O 0.53105 0.06047 0.08327 0.0
O256 O 0.51415 0.08994 0.03637 0.0
O257 O 0.50271 0.04556 1.00795 0.0
O258 O 0.46293 0.97773 0.05401 0.0
O259 O 0.43652 0.95904 1.01157 0.0
O260 O 0.4731 0.98915 0.95465 0.0
O261 O 0.51201 0.9549 0.96126 0.0
O262 O 0.495 0.92719 1.01418 0.0
O263 O 0.54511 0.98591 0.02803 0.0
O264 O 0.57429 0.04341 0.98466 0.0
O265 O 0.59431 0.07944 0.0236 0.0
H266 H 0.48279 1.00376 0.11761 0.0
H267 H 0.47194 0.97705 0.16313 0.0
H268 H 0.61332 0.02611 0.17489 0.0
H269 H 0.62461 0.05413 0.1293 0.0
H270 H 0.57913 0.99754 0.93213 0.0
H271 H 0.61212 0.02168 0.88899 0.0
H272 H 0.48608 1.00369 0.85605 0.0
H273 H 0.45269 0.97873 0.8989 0.0
C274 C 0.99219 0.53895 0.10298 0.0
Eu275 Eu 0.99576 0.5267 0.05359 0.0
C276 C 0.01189 0.53381 0.12866 0.0
C277 C 0.02534 0.56666 0.14683 0.0
C278 C 0.04337 0.56288 0.17141 0.0
C279 C 0.04855 0.52618 0.17845 0.0
C280 C 0.03559 0.49334 0.16024 0.0
C281 C 0.01756 0.49719 0.1355 0.0
C282 C 0.95352 0.45553 0.02333 0.0
C283 C 0.06683 0.4979 0.03617 0.0
C284 C 0.02964 0.5366 0.94314 0.0
Eu285 Eu 0.02609 0.54198 0.9935 0.0
C286 C 1.00236 0.52726 0.91827 0.0
C287 C 0.99021 0.55754 0.90635 0.0
C288 C 0.96969 0.55084 0.88131 0.0
C289 C 0.96082 0.51373 0.86768 0.0
C290 C 0.97172 0.48293 0.87983 0.0
C291 C 0.99227 0.48963 0.90479 0.0
C292 C 0.08168 0.61093 0.02484 0.0
C293 C 0.95011 0.56544 1.00984 0.0
O294 O 0.01936 0.56915 0.08687 0.0
O295 O 0.96339 0.50377 0.09105 0.0
O296 O 0.96073 0.45438 0.04847 0.0
O297 O 0.96537 0.49459 1.01546 0.0
O298 O 0.04984 0.508 0.05545 0.0
O299 O 0.06037 0.50488 1.01108 0.0
O300 O 0.02211 0.50424 0.95983 0.0
O301 O 0.03942 0.57269 0.95464 0.0
O302 O 0.087 0.61003 1.00007 0.0
O303 O 0.04872 0.57516 0.03041 0.0
O304 O 0.9707 0.5588 0.99105 0.0
O305 O 0.95497 0.55709 0.03501 0.0
H306 H 0.02154 0.59526 0.14206 0.0
H307 H 0.05289 0.58851 0.18513 0.0
H308 H 0.03903 0.46464 0.16528 0.0
H309 H 0.00779 0.47148 0.12182 0.0
H310 H 0.99772 0.5871 0.916 0.0
H311 H 0.96185 0.57516 0.87228 0.0
H312 H 0.96547 0.45421 0.86962 0.0
H313 H 1.00159 0.46594 0.9132 0.0
C314 C 0.45411 0.47619 0.94755 0.0
Eu315 Eu 0.47176 0.49684 0.99673 0.0
C316 C 0.47863 0.48376 0.92291 0.0
C317 C 0.45488 0.47299 0.89883 0.0
C318 C 0.47647 0.4761 0.87564 0.0
C319 C 0.52245 0.49001 0.87584 0.0
C320 C 0.54657 0.50199 0.89984 0.0
C321 C 0.52489 0.49879 0.92311 0.0
C322 C 0.49645 0.57057 0.02375 0.0
C323 C 0.57682 0.53697 1.01478 0.0
C324 C 0.52003 0.51109 0.10845 0.0
Eu325 Eu 0.50258 0.49406 0.05897 0.0
C326 C 0.49903 0.5135 0.13251 0.0
C327 C 0.5019 0.49062 0.15512 0.0
C328 C 0.48316 0.49221 0.17834 0.0
C329 C 0.45879 0.51528 0.17981 0.0
C330 C 0.45937 0.54102 0.15723 0.0
C331 C 0.47819 0.53937 0.1339 0.0
C332 C 0.49283 0.42433 0.03158 0.0
C333 C 0.39718 0.45507 0.04189 0.0
O334 O 0.46056 0.452 0.9659 0.0
O335 O 0.45181 0.50911 0.95702 0.0
O336 O 0.49662 0.56963 0.99836 0.0
O337 O 0.47826 0.53173 0.03287 0.0
O338 O 0.54568 0.52483 0.99593 0.0
O339 O 0.5689 0.5312 0.04009 0.0
O340 O 0.52921 0.54137 0.08993 0.0
O341 O 0.50536 0.47225 0.09928 0.0
O342 O 0.50497 0.4294 0.05616 0.0
O343 O 0.48785 0.4565 0.02408 0.0
O344 O 0.42852 0.46573 0.06055 0.0
O345 O 0.40478 0.46243 0.01638 0.0
H346 H 0.41926 0.46112 0.89804 0.0
H347 H 0.45697 0.46655 0.85753 0.0
H348 H 0.58198 0.51274 0.90066 0.0
H349 H 0.54412 0.50721 0.94133 0.0
H350 H 0.51962 0.47196 0.15503 0.0
H351 H 0.48975 0.47621 0.19524 0.0
H352 H 0.44706 0.56413 0.15722 0.0
H353 H 0.47717 0.5591 0.11714 0.0
C354 C 0.23964 0.39808 0.42849 0.0
Eu355 Eu 0.20048 0.3678 0.38364 0.0
C356 C 0.23244 0.3814 0.4557 0.0
C357 C 0.2677 0.39787 0.4743 0.0
C358 C 0.26075 0.38254 0.50033 0.0
C359 C 0.21833 0.3508 0.50797 0.0
C360 C 0.1834 0.33361 0.4892 0.0
C361 C 0.19042 0.34868 0.46324 0.0
C362 C 0.15976 0.40171 0.34937 0.0
C363 C 0.10263 0.28747 0.38252 0.0
C364 C 0.14267 0.29206 0.2888 0.0
Eu365 Eu 0.17383 0.32335 0.33474 0.0
C366 C 0.15815 0.30691 0.26183 0.0
C367 C 0.17152 0.28256 0.24724 0.0
C368 C 0.18712 0.2965 0.22197 0.0
C369 C 0.18907 0.33478 0.2107 0.0
C370 C 0.17629 0.35947 0.2253 0.0
C371 C 0.16108 0.34577 0.25064 0.0
C372 C 0.21399 0.2892 0.36934 0.0
C373 C 0.2704 0.40732 0.33593 0.0
O374 O 0.25271 0.37811 0.41313 0.0
O375 O 0.20892 0.40625 0.41741 0.0
O376 O 0.1546 0.39723 0.37441 0.0
O377 O 0.18768 0.38981 0.34379 0.0
O378 O 0.13616 0.31268 0.39795 0.0
O379 O 0.10777 0.28907 0.35688 0.0
O380 O 0.12853 0.3146 0.30119 0.0
O381 O 0.16732 0.28022 0.30383 0.0
O382 O 0.22221 0.29718 0.34474 0.0
O383 O 0.18554 0.30065 0.37457 0.0
O384 O 0.23784 0.38027 0.32058 0.0
O385 O 0.26514 0.40541 0.36139 0.0
H386 H 0.30045 0.42283 0.46874 0.0
H387 H 0.28806 0.39601 0.51459 0.0
H388 H 0.1505 0.30898 0.49477 0.0
H389 H 0.16289 0.33516 0.44913 0.0
H390 H 0.16985 0.25264 0.25541 0.0
H391 H 0.19678 0.277 0.21098 0.0
H392 H 0.17755 0.3891 0.21692 0.0
H393 H 0.15153 0.36561 0.26138 0.0
C394 C 0.66945 0.87686 0.42912 0.0
Eu395 Eu 0.67294 0.85835 0.38073 0.0
C396 C 0.68384 0.86982 0.45613 0.0
C397 C 0.69114 0.90014 0.4751 0.0
C398 C 0.70677 0.89608 0.50042 0.0
C399 C 0.71569 0.86158 0.50753 0.0
C400 C 0.70803 0.83083 0.48863 0.0
C401 C 0.69249 0.83503 0.46312 0.0
C402 C 0.6272 0.78236 0.35473 0.0
C403 C 0.73776 0.81976 0.36814 0.0
C404 C 0.70622 0.85768 0.2735 0.0
Eu405 Eu 0.70199 0.86309 0.3238 0.0
C406 C 0.68081 0.85347 0.24829 0.0
C407 C 0.67874 0.88933 0.23566 0.0
C408 C 0.65852 0.88566 0.21066 0.0
C409 C 0.64033 0.8462 0.19771 0.0
C410 C 0.64139 0.81021 0.21053 0.0
C411 C 0.66149 0.81382 0.23544 0.0
C412 C 0.76105 0.92739 0.35547 0.0
C413 C 0.62981 0.89467 0.3342 0.0
O414 O 0.70128 0.9018 0.4134 0.0
O415 O 0.63712 0.84374 0.41722 0.0
O416 O 0.63595 0.78464 0.37972 0.0
O417 O 0.64004 0.82031 0.34498 0.0
O418 O 0.72784 0.84019 0.3853 0.0
O419 O 0.72515 0.81809 0.34329 0.0
O420 O 0.69138 0.82392 0.28983 0.0
O421 O 0.72272 0.89457 0.28542 0.0
O422 O 0.7728 0.91104 0.33727 0.0
O423 O 0.7193 0.91097 0.35473 0.0
O424 O 0.65438 0.88957 0.31733 0.0
O425 O 0.63067 0.88529 0.35961 0.0
H426 H 0.6851 0.92741 0.47023 0.0
H427 H 0.71223 0.92017 0.51452 0.0
H428 H 0.71447 0.80383 0.49357 0.0
H429 H 0.6876 0.81139 0.44884 0.0
H430 H 0.69351 0.92048 0.24484 0.0
H431 H 0.65787 0.91377 0.20119 0.0
H432 H 0.62742 0.77942 0.20096 0.0
H433 H 0.66283 0.78572 0.24442 0.0
C434 C 0.13523 0.81767 0.28069 0.0
Eu435 Eu 0.15467 0.83578 0.3303 0.0
C436 C 0.15735 0.82447 0.25517 0.0
C437 C 0.13186 0.81622 0.23166 0.0
C438 C 0.151 0.81934 0.20749 0.0
C439 C 0.19627 0.83086 0.20613 0.0
C440 C 0.22199 0.83954 0.22964 0.0
C441 C 0.20276 0.83627 0.25386 0.0
C442 C 0.18349 0.9098 0.3575 0.0
C443 C 0.25712 0.86339 0.35028 0.0
C444 C 0.19309 0.84509 0.44249 0.0
Eu445 Eu 0.17967 0.8295 0.39268 0.0
C446 C 0.17072 0.84966 0.46539 0.0
C447 C 0.12774 0.81758 0.47247 0.0
C448 C 0.10961 0.81999 0.49589 0.0
C449 C 0.13392 0.85465 0.51263 0.0
C450 C 0.17621 0.8872 0.50521 0.0
C451 C 0.19437 0.88474 0.4819 0.0
C452 C 0.16672 0.75842 0.36565 0.0
C453 C 0.07651 0.79389 0.37389 0.0
O454 O 0.1415 0.79237 0.29828 0.0
O455 O 0.1353 0.85112 0.29109 0.0
O456 O 0.18865 0.90925 0.33258 0.0
O457 O 0.15975 0.87123 0.36633 0.0
O458 O 0.22722 0.85462 0.33086 0.0
O459 O 0.24762 0.85906 0.37534 0.0
O460 O 0.20705 0.87616 0.42423 0.0
O461 O 0.1766 0.80624 0.43303 0.0
O462 O 0.17751 0.7627 0.39045 0.0
O463 O 0.16411 0.79176 0.35791 0.0
O464 O 0.10633 0.80277 0.39314 0.0
O465 O 0.08611 0.80338 0.34869 0.0
H466 H 0.09677 0.8067 0.232 0.0
H467 H 0.13036 0.81251 0.1898 0.0
H468 H 0.25694 0.84853 0.22925 0.0
H469 H 0.22327 0.84249 0.27159 0.0
H470 H 0.10854 0.79003 0.46025 0.0
H471 H 0.07703 0.79441 0.50121 0.0
H472 H 0.19569 0.91413 0.51783 0.0
H473 H 0.22756 0.90971 0.47713 0.0
C474 C 0.89488 0.71492 0.76773 0.0
Eu475 Eu 0.86222 0.69965 0.72016 0.0
C476 C 0.88793 0.69511 0.7943 0.0
C477 C 0.92463 0.70715 0.81178 0.0
C478 C 0.9184 0.69327 0.83805 0.0
C479 C 0.87528 0.66749 0.84714 0.0
C480 C 0.83876 0.65349 0.82936 0.0
C481 C 0.84501 0.66712 0.80308 0.0
C482 C 0.83545 0.7468 0.68641 0.0
C483 C 0.75888 0.61915 0.71621 0.0
C484 C 0.7919 0.65045 0.61676 0.0
Eu485 Eu 0.8213 0.65693 0.66501 0.0
C486 C 0.8126 0.65739 0.59129 0.0
C487 C 0.8526 0.65583 0.58903 0.0
C488 C 0.87363 0.66591 0.56502 0.0
C489 C 0.85527 0.67833 0.54315 0.0
C490 C 0.81514 0.67947 0.54546 0.0
C491 C 0.79403 0.66914 0.56933 0.0
C492 C 0.85648 0.61053 0.69318 0.0
C493 C 0.9258 0.73437 0.66946 0.0
O494 O 0.90904 0.69846 0.7505 0.0
O495 O 0.86487 0.72545 0.75805 0.0
O496 O 0.86492 0.763 0.70534 0.0
O497 O 0.81723 0.70561 0.68899 0.0
O498 O 0.79383 0.64477 0.73109 0.0
O499 O 0.75988 0.62107 0.69016 0.0
O500 O 0.80541 0.6856 0.63007 0.0
O501 O 0.78827 0.61701 0.63134 0.0
O502 O 0.83766 0.60048 0.67005 0.0
O503 O 0.85725 0.64562 0.69854 0.0
O504 O 0.89187 0.70725 0.65469 0.0
O505 O 0.92354 0.73459 0.69524 0.0
H506 H 0.958 0.72862 0.80531 0.0
H507 H 0.94692 0.70422 0.8515 0.0
H508 H 0.80526 0.63341 0.83606 0.0
H509 H 0.81626 0.65711 0.78987 0.0
H510 H 0.86781 0.64741 0.60588 0.0
H511 H 0.90443 0.66462 0.56357 0.0
H512 H 0.80038 0.6888 0.52877 0.0
H513 H 0.76354 0.67103 0.57076 0.0
C514 C 0.32334 0.20419 0.76222 0.0
Eu515 Eu 0.33007 0.18523 0.71454 0.0
C516 C 0.34349 0.20133 0.78831 0.0
C517 C 0.31962 0.19415 0.81107 0.0
C518 C 0.33922 0.19368 0.83583 0.0
C519 C 0.38295 0.19954 0.83845 0.0
C520 C 0.40631 0.2054 0.81556 0.0
C521 C 0.38726 0.20743 0.79089 0.0
C522 C 0.28313 0.10963 0.68745 0.0
C523 C 0.38914 0.13949 0.70876 0.0
C524 C 0.37629 0.18521 0.61083 0.0
Eu525 Eu 0.36573 0.18786 0.6607 0.0
C526 C 0.35145 0.18087 0.58539 0.0
C527 C 0.34318 0.21434 0.57454 0.0
C528 C 0.32283 0.21074 0.54956 0.0
C529 C 0.3102 0.17356 0.53502 0.0
C530 C 0.3176 0.13986 0.54606 0.0
C531 C 0.338 0.14349 0.57089 0.0
C532 C 0.42395 0.25042 0.69364 0.0
C533 C 0.29405 0.22318 0.66643 0.0
O534 O 0.35055 0.23216 0.74525 0.0
O535 O 0.29484 0.16775 0.75147 0.0
O536 O 0.2892 0.11134 0.71269 0.0
O537 O 0.29951 0.14803 0.67798 0.0
O538 O 0.38303 0.16605 0.72294 0.0
O539 O 0.3807 0.13844 0.68327 0.0
O540 O 0.36166 0.15099 0.62669 0.0
O541 O 0.39047 0.22136 0.62323 0.0
O542 O 0.43583 0.23105 0.67741 0.0
O543 O 0.38268 0.237 0.69071 0.0
O544 O 0.31917 0.21572 0.65111 0.0
O545 O 0.29155 0.21385 0.69182 0.0
H546 H 0.28603 0.18977 0.80974 0.0
H547 H 0.32036 0.18922 0.85304 0.0
H548 H 0.43998 0.21002 0.81685 0.0
H549 H 0.40703 0.21443 0.7738 0.0
H550 H 0.35318 0.2437 0.58507 0.0
H551 H 0.3178 0.23728 0.54136 0.0
H552 H 0.30848 0.11105 0.53513 0.0
H553 H 0.34413 0.11731 0.57855 0.0
C554 C 0.80747 0.16101 0.61379 0.0
Eu555 Eu 0.82651 0.17496 0.66378 0.0
C556 C 0.83081 0.16684 0.58894 0.0
C557 C 0.80658 0.15879 0.56504 0.0
C558 C 0.82651 0.16006 0.54155 0.0
C559 C 0.87129 0.1694 0.54129 0.0
C560 C 0.89608 0.17879 0.56515 0.0
C561 C 0.876 0.17733 0.58873 0.0
C562 C 0.85404 0.24682 0.69286 0.0
C563 C 0.92817 0.20122 0.68361 0.0
C564 C 0.86452 0.17722 0.77554 0.0
Eu565 Eu 0.8497 0.16415 0.72549 0.0
C566 C 0.84453 0.18348 0.79902 0.0
C567 C 0.8038 0.15066 0.80868 0.0
C568 C 0.78811 0.15518 0.83246 0.0
C569 C 0.81273 0.19258 0.84706 0.0
C570 C 0.85267 0.22581 0.83712 0.0
C571 C 0.86844 0.22127 0.81344 0.0
C572 C 0.83699 0.09445 0.69675 0.0
C573 C 0.7474 0.13325 0.70669 0.0
O574 O 0.80848 0.13226 0.63086 0.0
O575 O 0.8121 0.19583 0.6249 0.0
O576 O 0.86059 0.24794 0.66802 0.0
O577 O 0.83008 0.2077 0.7007 0.0
O578 O 0.89853 0.19259 0.66411 0.0
O579 O 0.91817 0.1961 0.7086 0.0
O580 O 0.88063 0.2089 0.75773 0.0
O581 O 0.8447 0.13864 0.76544 0.0
O582 O 0.84662 0.09714 0.7217 0.0
O583 O 0.83545 0.12863 0.6897 0.0
O584 O 0.77657 0.13983 0.72609 0.0
O585 O 0.75776 0.14349 0.68167 0.0
H586 H 0.77172 0.15041 0.56459 0.0
H587 H 0.80656 0.1526 0.52356 0.0
H588 H 0.9306 0.18601 0.56559 0.0
H589 H 0.8955 0.18346 0.60686 0.0
H590 H 0.78446 0.12102 0.7982 0.0
H591 H 0.75718 0.1292 0.83969 0.0
H592 H 0.87219 0.25497 0.84803 0.0
H593 H 0.89999 0.24694 0.80669 0.0
C594 C 0.31965 0.85024 0.04691 0.0
C595 C 0.3021 0.85924 0.0689 0.0
C596 C 0.35968 0.93577 0.06258 0.0
C597 C 0.38477 0.92276 0.0473 0.0
N598 N 0.38541 0.86322 0.02556 0.0
N599 N 0.2845 0.91679 0.07364 0.0
C600 C 0.36395 0.87871 0.0398 0.0
C601 C 0.31593 0.90417 0.07073 0.0
N602 N 0.29165 0.82209 0.02877 0.0
N603 N 0.37654 0.97821 0.06879 0.0
H604 H 0.25088 0.89438 0.07523 0.0
H605 H 0.29131 0.94916 0.07174 0.0
H606 H 0.40674 1.00273 0.06197 0.0
H607 H 0.36105 0.9882 0.08175 0.0
H608 H 0.30281 0.81745 1.0113 0.0
H609 H 0.25723 0.8094 0.02919 0.0
H610 H 0.37141 0.83031 0.02149 0.0
H611 H 0.41777 0.88214 0.01965 0.0
C612 C 0.10599 0.41751 0.06014 0.0
C613 C 0.14933 0.44694 0.0691 0.0
C614 C 0.14126 0.50824 0.05009 0.0
C615 C 0.09624 0.47939 0.04378 0.0
N616 N 0.03355 0.40715 0.04467 0.0
N617 N 0.2056 0.52007 0.07733 0.0
C618 C 0.07792 0.43403 0.04918 0.0
C619 C 0.16636 0.49232 0.0653 0.0
N620 N 0.09211 0.3739 0.06202 0.0
N621 N 0.15987 0.55074 0.04148 0.0
H622 H 0.22301 0.50895 0.08997 0.0
H623 H 0.21809 0.55363 0.07721 0.0
H624 H 0.14215 0.56321 0.03002 0.0
H625 H 0.19369 0.57246 0.04357 0.0
H626 H 0.06253 0.35066 0.05347 0.0
H627 H 0.11182 0.36119 0.07084 0.0
H628 H 0.01725 0.37457 0.05078 0.0
H629 H 0.01238 0.4182 0.03607 0.0
C630 C 0.49622 0.65552 0.06914 0.0
C631 C 0.53047 0.69437 0.05814 0.0
C632 C 0.5477 0.65108 0.0291 0.0
C633 C 0.51051 0.61199 0.03822 0.0
N634 N 0.44831 0.57785 0.06713 0.0
N635 N 0.58791 0.73019 0.02719 0.0
C636 C 0.48488 0.61435 0.05858 0.0
C637 C 0.55584 0.69231 0.03795 0.0
N638 N 0.47463 0.65817 0.09 0.0
N639 N 0.5768 0.64868 1.01289 0.0
H640 H 0.59678 0.76049 0.03455 0.0
H641 H 0.60393 0.73205 1.01015 0.0
H642 H 0.57356 0.61943 1.0068 0.0
H643 H 0.60682 0.67509 1.00755 0.0
H644 H 0.45396 0.63158 0.10168 0.0
H645 H 0.47935 0.68774 0.09655 0.0
H646 H 0.42439 0.57826 0.0786 0.0
H647 H 0.44048 0.54666 0.06228 0.0
C648 C 0.90134 0.34752 0.98863 0.0
C649 C 0.85531 0.33143 0.99261 0.0
C650 C 0.87476 0.39473 0.01892 0.0
C651 C 0.91912 0.41537 1.01013 0.0
N652 N 0.97479 0.40955 0.98637 0.0
N653 N 0.82 0.32399 0.03292 0.0
C654 C 0.93246 0.39119 0.99488 0.0
C655 C 0.84601 0.35029 1.0135 0.0
N656 N 0.91599 0.31904 0.98292 0.0
N657 N 0.86037 0.41642 0.0337 0.0
H658 H 0.81095 0.29098 0.03387 0.0
H659 H 0.81511 0.33594 0.04992 0.0
H660 H 0.88032 0.44887 0.03845 0.0
H661 H 0.82738 0.40256 0.0393 0.0
H662 H 0.94955 0.32753 0.98232 0.0
H663 H 0.89433 0.28569 0.98213 0.0
H664 H 0.98492 0.395 0.97298 0.0
H665 H 0.99863 0.44066 0.99134 0.0
C666 C 0.67491 0.54903 0.9778 0.0
C667 C 0.70655 0.59226 0.98349 0.0
C668 C 0.65582 0.59732 1.01311 0.0
C669 C 0.62288 0.55485 1.00618 0.0
N670 N 0.6 0.49017 0.98142 0.0
N671 N 0.72709 0.65982 1.00314 0.0
C672 C 0.63217 0.5307 0.98836 0.0
C673 C 0.69689 0.61703 1.00021 0.0
N674 N 0.68652 0.52495 0.96305 0.0
N675 N 0.64822 0.61862 0.03209 0.0
H676 H 0.75744 0.67453 0.99382 0.0
H677 H 0.72096 0.68152 1.01296 0.0
H678 H 0.61821 0.60631 0.04149 0.0
H679 H 0.67257 0.64756 0.03985 0.0
H680 H 0.71614 0.53814 0.95323 0.0
H681 H 0.66788 0.49144 0.96134 0.0
H682 H 0.60208 0.4739 0.96564 0.0
H683 H 0.56998 0.47291 0.99081 0.0
C684 C 0.4321 0.1341 0.9865 0.0
C685 C 0.46271 0.16879 0.97024 0.0
C686 C 0.51685 0.14199 0.9801 0.0
C687 C 0.48494 0.10531 0.99433 0.0
N688 N 0.40868 0.06198 1.00617 0.0
N689 N 0.5309 0.19928 0.9474 0.0
C690 C 0.4412 0.09963 0.99552 0.0
C691 C 0.50361 0.16996 0.96535 0.0
N692 N 0.39642 0.13615 0.99554 0.0
N693 N 0.56069 0.15258 0.98243 0.0
H694 H 0.52185 0.22001 0.93668 0.0
H695 H 0.55963 0.19961 0.94136 0.0
H696 H 0.57188 0.13414 0.99394 0.0
H697 H 0.58611 0.18163 0.97501 0.0
H698 H 0.37577 0.11446 1.00966 0.0
H699 H 0.38995 0.16198 0.99072 0.0
H700 H 0.3753 0.05452 1.00569 0.0
H701 H 0.41463 0.03661 1.01319 0.0
C702 C 0.72568 0.16134 0.99285 0.0
C703 C 0.72359 0.18779 0.97122 0.0
C704 C 0.64406 0.13523 0.96421 0.0
C705 C 0.645 0.11117 0.98742 0.0
N706 N 0.68896 0.09464 0.01958 0.0
N707 N 0.67805 0.20469 0.9407 0.0
C708 C 0.68657 0.12252 1.00058 0.0
C709 C 0.68225 0.17549 0.95772 0.0
N710 N 0.76488 0.17482 1.0069 0.0
N711 N 0.60675 0.1203 0.94827 0.0
H712 H 0.704 0.2359 0.93774 0.0
H713 H 0.64782 0.20021 0.93227 0.0
H714 H 0.57665 0.09328 0.95269 0.0
H715 H 0.60653 0.13335 0.92955 0.0
H716 H 0.76813 0.16096 0.02479 0.0
H717 H 0.79444 0.20168 1.00127 0.0
H718 H 0.71843 0.09816 0.02855 0.0
H719 H 0.66148 0.06531 0.02487 0.0
C720 C 0.84146 0.55615 0.98253 0.0
C721 C 0.85193 0.6006 0.98011 0.0
C722 C 0.92579 0.62179 1.00048 0.0
C723 C 0.91574 0.57754 1.00133 0.0
N724 N 0.86774 0.5034 0.98913 0.0
N725 N 0.89949 0.67466 0.99148 0.0
C726 C 0.87473 0.54501 0.99112 0.0
C727 C 0.89322 0.6333 0.99009 0.0
N728 N 0.7986 0.52422 0.97884 0.0
N729 N 0.9668 0.65264 1.00913 0.0
H730 H 0.87505 0.68305 0.98533 0.0
H731 H 0.9271 0.69996 1.00028 0.0
H732 H 0.99022 0.64477 0.01814 0.0
H733 H 0.97857 0.68597 1.00665 0.0
H734 H 0.78787 0.49151 0.9836 0.0
H735 H 0.77253 0.53059 0.97356 0.0
H736 H 0.84108 0.47988 0.97851 0.0
H737 H 0.89022 0.493 0.99642 0.0
C738 C 0.51297 0.342 0.99605 0.0
C739 C 0.46877 0.30891 0.99129 0.0
C740 C 0.44086 0.3549 1.00863 0.0
C741 C 0.48491 0.38602 0.01615 0.0
N742 N 0.56257 0.40476 0.0211 0.0
N743 N 0.39078 0.27986 0.99804 0.0
C744 C 0.52089 0.37815 1.01116 0.0
C745 C 0.43275 0.31425 0.9991 0.0
N746 N 0.54732 0.33956 0.98538 0.0
N747 N 0.4067 0.36417 1.01031 0.0
H748 H 0.38419 0.24967 0.99141 0.0
H749 H 0.36348 0.28015 1.00584 0.0
H750 H 0.41147 0.39354 0.01702 0.0
H751 H 0.37468 0.34454 1.00281 0.0
H752 H 0.57995 0.36476 0.9859 0.0
H753 H 0.54239 0.31383 0.97395 0.0
H754 H 0.58893 0.39788 0.02043 0.0
H755 H 0.57018 0.43234 0.03149 0.0
C756 C 0.15086 0.68614 0.081 0.0
C757 C 0.16317 0.72737 0.06887 0.0
C758 C 0.11301 0.69156 0.0314 0.0
C759 C 0.10622 0.65022 0.04157 0.0
N760 N 0.12269 0.6091 0.07561 0.0
N761 N 0.15813 0.77015 0.03203 0.0
C762 C 0.12562 0.64765 0.0665 0.0
C763 C 0.14453 0.73023 0.04399 0.0
N764 N 0.1637 0.68403 0.10645 0.0
N765 N 0.08812 0.69389 1.01021 0.0
H766 H 0.17961 0.79898 0.04123 0.0
H767 H 0.15037 0.77461 1.01258 0.0
H768 H 0.06367 0.66646 1.00099 0.0
H769 H 0.08833 0.72255 1.00344 0.0
H770 H 0.15251 0.65513 0.11752 0.0
H771 H 0.18246 0.71192 0.11709 0.0
H772 H 0.13999 0.60588 0.09218 0.0
H773 H 0.10581 0.58081 0.06531 0.0
C774 C 0.28643 0.38805 0.07497 0.0
C775 C 0.27605 0.42155 0.07962 0.0
C776 C 0.33924 0.47298 0.05404 0.0
C777 C 0.35219 0.44075 0.05132 0.0
N778 N 0.34335 0.36971 0.06409 0.0
N779 N 0.30081 0.49828 0.08046 0.0
C780 C 0.32745 0.39883 0.06335 0.0
C781 C 0.30558 0.46488 0.07154 0.0
N782 N 0.2566 0.34598 0.08088 0.0
N783 N 0.35854 0.51115 0.03969 0.0
H784 H 0.27726 0.49296 0.09412 0.0
H785 H 0.32336 0.5309 0.07683 0.0
H786 H 0.38313 0.51821 0.02632 0.0
H787 H 0.34719 0.534 0.0393 0.0
H788 H 0.26004 0.31959 0.07536 0.0
H789 H 0.22714 0.33771 0.09004 0.0
H790 H 0.32881 0.34034 0.07478 0.0
H791 H 0.373 0.37645 0.05559 0.0
C792 C 0.57681 0.87068 0.04661 0.0
C793 C 0.54997 0.84422 0.06746 0.0
C794 C 0.52143 0.89632 0.07108 0.0
C795 C 0.54271 0.91874 0.04793 0.0
N796 N 0.59129 0.92791 1.01335 0.0
N797 N 0.48988 0.82784 0.09564 0.0
C798 C 0.57126 0.90653 0.03588 0.0
C799 C 0.52097 0.85638 0.07897 0.0
N800 N 0.60694 0.86077 0.03668 0.0
N801 N 0.50123 0.91313 0.08541 0.0
H802 H 0.48572 0.79672 0.09942 0.0
H803 H 0.46505 0.83293 0.10299 0.0
H804 H 0.50273 0.94304 0.08036 0.0
H805 H 0.48798 0.90025 0.1036 0.0
H806 H 0.63085 0.88079 0.02346 0.0
H807 H 0.6099 0.83345 0.04298 0.0
H808 H 0.60798 0.91766 1.00153 0.0
H809 H 0.58973 0.95547 1.00586 0.0
C810 C 0.01892 0.19497 0.42697 0.0
C811 C 0.97756 0.18957 0.41628 0.0
C812 C 0.01872 0.25349 0.38668 0.0
C813 C 0.05963 0.25466 0.39472 0.0
N814 N 0.09784 0.22256 0.4211 0.0
N815 N 0.93839 0.21091 0.38316 0.0
C816 C 0.05958 0.22471 0.41477 0.0
C817 C 0.97768 0.21848 0.39554 0.0
N818 N 0.01922 0.17082 0.44862 0.0
N819 N 0.019 0.28657 0.37115 0.0
H820 H 0.90769 0.18613 0.38916 0.0
H821 H 0.93649 0.22711 0.36588 0.0
H822 H 0.04833 0.3131 0.36488 0.0
H823 H 0.99069 0.28991 0.36673 0.0
H824 H 0.04798 0.17587 0.45927 0.0
H825 H 0.99003 0.14841 0.45729 0.0
H826 H 0.09896 0.19813 0.43311 0.0
H827 H 0.12812 0.24281 0.41257 0.0
C828 C 0.77821 0.74598 0.4031 0.0
C829 C 0.8244 0.7714 0.39982 0.0
C830 C 0.81152 0.8216 0.37037 0.0
C831 C 0.76621 0.80033 0.37706 0.0
N832 N 0.70735 0.74511 0.403 0.0
N833 N 0.88594 0.83856 0.38497 0.0
C834 C 0.7497 0.76327 0.39439 0.0
C835 C 0.84138 0.81062 0.38465 0.0
N836 N 0.76166 0.70502 0.41401 0.0
N837 N 0.8263 0.85225 0.3505 0.0
H838 H 0.90853 0.83225 0.39617 0.0
H839 H 0.89973 0.86973 0.37639 0.0
H840 H 0.80546 0.86092 0.33919 0.0
H841 H 0.85837 0.86568 0.34352 0.0
H842 H 0.72774 0.68334 0.41474 0.0
H843 H 0.78205 0.69139 0.42005 0.0
H844 H 0.69547 0.72104 0.41777 0.0
H845 H 0.68515 0.75633 0.39681 0.0
C846 C 0.24213 0.01873 0.39155 0.0
C847 C 0.20769 0.03013 0.39215 0.0
C848 C 0.15816 0.96446 0.36805 0.0
C849 C 0.19085 0.95026 0.37046 0.0
N850 N 0.26229 0.96193 0.38773 0.0
N851 N 0.13045 0.01007 0.38496 0.0
C852 C 0.23229 0.97684 0.38327 0.0
C853 C 0.16491 1.00182 0.38154 0.0
N854 N 0.2848 0.04885 0.39769 0.0
N855 N 0.12163 0.94359 0.35192 0.0
H856 H 0.13445 0.0368 0.39505 0.0
H857 H 0.09752 0.98845 0.37991 0.0
H858 H 0.11645 0.91727 0.34099 0.0
H859 H 0.0988 0.95491 0.34751 0.0
H860 H 0.31223 0.0442 0.39529 0.0
H861 H 0.29308 0.08031 0.40258 0.0
H862 H 0.29107 0.97752 0.39941 0.0
H863 H 0.256 0.93179 0.38151 0.0
C864 C 0.51774 0.69964 0.32179 0.0
C865 C 0.52511 0.66337 0.32045 0.0
C866 C 0.60044 0.70589 0.33957 0.0
C867 C 0.59211 0.74152 0.34256 0.0
N868 N 0.53805 0.76727 0.34264 0.0
N869 N 0.56986 0.62883 0.33173 0.0
C870 C 0.54944 0.73711 0.33527 0.0
C871 C 0.56548 0.66565 0.33047 0.0
N872 N 0.48058 0.6984 0.30979 0.0
N873 N 0.64213 0.71085 0.34469 0.0
H874 H 0.54491 0.59921 0.32492 0.0
H875 H 0.59641 0.62668 0.34128 0.0
H876 H 0.66828 0.73949 0.35154 0.0
H877 H 0.65172 0.68793 0.34029 0.0
H878 H 0.47542 0.72542 0.30759 0.0
H879 H 0.45662 0.67107 0.3002 0.0
H880 H 0.506 0.76352 0.34017 0.0
H881 H 0.55954 0.7943 0.35333 0.0
C882 C 0.37725 0.93565 0.33426 0.0
C883 C 0.38293 0.91064 0.31573 0.0
C884 C 0.30826 0.85108 0.32323 0.0
C885 C 0.30287 0.87588 0.34244 0.0
N886 N 0.33879 0.93484 0.3724 0.0
N887 N 0.35827 0.84222 0.2956 0.0
C888 C 0.33927 0.91616 0.34989 0.0
C889 C 0.34964 0.86763 0.31105 0.0
N890 N 0.40841 0.9782 0.33674 0.0
N891 N 0.27365 0.81171 0.31653 0.0
H892 H 0.3876 0.85396 0.28557 0.0
H893 H 0.33776 0.80893 0.29391 0.0
H894 H 0.24448 0.79609 0.32689 0.0
H895 H 0.2731 0.79509 0.30021 0.0
H896 H 0.40418 0.99965 0.34805 0.0
H897 H 0.43679 0.99291 0.32554 0.0
H898 H 0.36578 0.96289 0.37942 0.0
H899 H 0.31441 0.9191 0.38609 0.0
C900 C 0.10085 0.45869 0.3126 0.0
C901 C 0.13605 0.50183 0.30948 0.0
C902 C 0.18789 0.47876 0.3312 0.0
C903 C 0.15284 0.43535 0.33349 0.0
N904 N 0.07882 0.38211 0.32052 0.0
N905 N 0.2148 0.55056 0.31066 0.0
C906 C 0.11026 0.42473 0.3222 0.0
C907 C 0.1802 0.51074 0.31685 0.0
N908 N 0.05808 0.45059 0.30802 0.0
N909 N 0.22784 0.49021 0.34404 0.0
H910 H 0.21002 0.57496 0.30086 0.0
H911 H 0.24806 0.55794 0.31297 0.0
H912 H 0.23491 0.4681 0.35491 0.0
H913 H 0.25293 0.52222 0.34559 0.0
H914 H 0.03051 0.42103 0.31269 0.0
H915 H 0.05042 0.47479 0.30138 0.0
H916 H 0.04843 0.37194 0.31042 0.0
H917 H 0.08504 0.35674 0.32709 0.0
C918 C 0.39403 0.4861 0.32583 0.0
C919 C 0.39195 0.51791 0.30814 0.0
C920 C 0.30991 0.47508 0.3065 0.0
C921 C 0.31205 0.4435 0.32449 0.0
N922 N 0.35606 0.41412 0.34668 0.0
N923 N 0.34824 0.5476 0.28645 0.0
C924 C 0.35416 0.44778 0.33288 0.0
C925 C 0.34992 0.51325 0.29938 0.0
N926 N 0.43408 0.49398 0.33725 0.0
N927 N 0.26966 0.469 0.29629 0.0
H928 H 0.37674 0.57678 0.28263 0.0
H929 H 0.31906 0.54919 0.28183 0.0
H930 H 0.23928 0.44398 0.30234 0.0
H931 H 0.26612 0.48742 0.28063 0.0
H932 H 0.43766 0.4752 0.35268 0.0
H933 H 0.46384 0.52152 0.3327 0.0
H934 H 0.38542 0.41273 0.35104 0.0
H935 H 0.32771 0.38538 0.35174 0.0
C936 C 0.56985 0.96041 0.31543 0.0
C937 C 0.53073 0.92808 0.30314 0.0
C938 C 0.5603 0.87688 0.30794 0.0
C939 C 0.59678 0.90716 0.32311 0.0
N940 N 0.63721 0.97767 0.34185 0.0
N941 N 0.48356 0.85194 0.29548 0.0
C942 C 0.60201 0.94912 0.32694 0.0
C943 C 0.52471 0.88546 0.30116 0.0
N944 N 0.57515 1.00138 0.3168 0.0
N945 N 0.55893 0.83949 0.30028 0.0
H946 H 0.45543 0.85599 0.29316 0.0
H947 H 0.47633 0.81944 0.29649 0.0
H948 H 0.58311 0.8303 0.30563 0.0
H949 H 0.53524 0.81912 0.28677 0.0
H950 H 0.60427 0.0279 0.32331 0.0
H951 H 0.55046 0.00918 0.31019 0.0
H952 H 0.64114 1.0074 0.34747 0.0
H953 H 0.66197 0.97073 0.34973 0.0
C954 C 0.18859 0.67298 0.33524 0.0
C955 C 0.14576 0.64458 0.32485 0.0
C956 C 0.11932 0.69519 0.33653 0.0
C957 C 0.16065 0.72116 0.3498 0.0
N958 N 0.23407 0.73252 0.36356 0.0
N959 N 0.06831 0.62443 0.31972 0.0
C960 C 0.19504 0.7092 0.3498 0.0
C961 C 0.11062 0.65468 0.32653 0.0
N962 N 0.22349 0.66618 0.33022 0.0
N963 N 0.08816 0.70894 0.33342 0.0
H964 H 0.06092 0.5941 0.31309 0.0
H965 H 0.04027 0.62759 0.32305 0.0
H966 H 0.09263 0.73768 0.34089 0.0
H967 H 0.05963 0.69383 0.32149 0.0
H968 H 0.25653 0.68804 0.33479 0.0
H969 H 0.21962 0.64031 0.31931 0.0
H970 H 0.25788 0.72221 0.36704 0.0
H971 H 0.24211 0.76153 0.37243 0.0
C972 C 0.85535 0.0088 0.39944 0.0
C973 C 0.84946 0.04605 0.39522 0.0
C974 C 0.78851 1.00707 0.36327 0.0
C975 C 0.79216 0.96858 0.36881 0.0
N976 N 0.82764 0.93184 0.39295 0.0
N977 N 0.80908 0.08072 0.3753 0.0
C978 C 0.82547 0.9693 0.387 0.0
C979 C 0.81554 0.04509 0.37775 0.0
N980 N 0.89013 0.0117 0.41518 0.0
N981 N 0.76103 1.00804 0.34314 0.0
H982 H 0.82971 0.10949 0.38479 0.0
H983 H 0.78193 0.08106 0.36532 0.0
H984 H 0.74201 0.98158 0.33144 0.0
H985 H 0.75977 0.03602 0.33643 0.0
H986 H 0.89982 0.98769 0.41727 0.0
H987 H 0.91122 0.03966 0.42525 0.0
H988 H 0.8475 0.92841 0.40799 0.0
H989 H 0.80772 0.90301 0.38351 0.0
C990 C 0.98303 0.79719 0.40606 0.0
C991 C 0.95411 0.75255 0.41182 0.0
C992 C 0.00564 0.73379 0.39162 0.0
C993 C 0.03082 0.77773 0.38268 0.0
N994 N 0.03996 0.85022 0.37826 0.0
N995 N 0.93557 0.67782 0.4085 0.0
C996 C 0.01831 0.80906 0.38895 0.0
C997 C 0.96494 0.72066 0.40424 0.0
N998 N 0.97658 0.82828 0.41699 0.0
N999 N 0.0212 0.70497 0.38868 0.0
H1000 H 0.90675 0.66785 0.41883 0.0
H1001 H 0.93877 0.6526 0.4008 0.0
H1002 H 0.05042 0.71337 0.37911 0.0
H1003 H 0.00675 0.67376 0.39718 0.0
H1004 H 0.99902 0.86136 0.41565 0.0
H1005 H 0.95093 0.82077 0.42961 0.0
H1006 H 0.02964 0.87351 0.37997 0.0
H1007 H 0.06574 0.85961 0.36545 0.0
C1008 C 0.26356 0.21963 0.40078 0.0
C1009 C 0.22538 0.17825 0.40345 0.0
C1010 C 0.17922 0.20955 0.38361 0.0
C1011 C 0.21693 0.25169 0.38309 0.0
N1012 N 0.29358 0.29795 0.39558 0.0
N1013 N 0.14559 0.13549 0.40123 0.0
C1014 C 0.25859 0.25705 0.39327 0.0
C1015 C 0.1828 0.17403 0.39631 0.0
N1016 N 0.30474 0.2227 0.40333 0.0
N1017 N 0.1407 0.20256 0.37038 0.0
H1018 H 0.147 0.1083 0.4095 0.0
H1019 H 0.11347 0.13166 0.39928 0.0
H1020 H 0.13671 0.22699 0.36007 0.0
H1021 H 0.11387 0.17176 0.36759 0.0
H1022 H 0.33399 0.25109 0.39924 0.0
H1023 H 0.30903 0.19544 0.40673 0.0
H1024 H 0.3236 0.30424 0.40515 0.0
H1025 H 0.29113 0.32584 0.38995 0.0
C1026 C 0.6349 0.54558 0.73078 0.0
C1027 C 0.63668 0.51798 0.7518 0.0
C1028 C 0.71888 0.55726 0.75002 0.0
C1029 C 0.717 0.58591 0.72961 0.0
N1030 N 0.67271 0.61395 0.70612 0.0
N1031 N 0.68096 0.50386 0.78466 0.0
C1032 C 0.67481 0.58205 0.72172 0.0
C1033 C 0.67897 0.52632 0.76257 0.0
N1034 N 0.59498 0.53549 0.71839 0.0
N1035 N 0.75821 0.55724 0.75633 0.0
H1036 H 0.6524 0.48094 0.79371 0.0
H1037 H 0.7103 0.511 0.79532 0.0
H1038 H 0.78799 0.57794 0.74743 0.0
H1039 H 0.76073 0.53382 0.76865 0.0
H1040 H 0.59197 0.55068 0.70093 0.0
H1041 H 0.56504 0.50974 0.72463 0.0
H1042 H 0.64322 0.61517 0.70176 0.0
H1043 H 0.701 0.64171 0.69984 0.0
C1044 C 0.47366 0.11881 0.74686 0.0
C1045 C 0.47065 0.08289 0.73391 0.0
C1046 C 0.4038 0.07515 0.70982 0.0
C1047 C 0.40976 0.11357 0.72124 0.0
N1048 N 0.43028 0.14921 0.76252 0.0
N1049 N 0.43185 0.02379 0.70501 0.0
C1050 C 0.43884 0.12918 0.74331 0.0
C1051 C 0.43508 0.05984 0.716 0.0
N1052 N 0.51009 0.14364 0.76218 0.0
N1053 N 0.36578 0.0514 0.69549 0.0
H1054 H 0.45379 0.01158 0.71021 0.0
H1055 H 0.40865 1.00668 0.69041 0.0
H1056 H 0.33946 0.05845 0.69548 0.0
H1057 H 0.35804 0.02266 0.68649 0.0
H1058 H 0.51514 0.1726 0.76994 0.0
H1059 H 0.53699 0.13761 0.76506 0.0
H1060 H 0.44991 0.15937 0.7796 0.0
H1061 H 0.39915 0.14723 0.76381 0.0
C1062 C 0.82764 0.33428 0.7162 0.0
C1063 C 0.87002 0.36527 0.72597 0.0
C1064 C 0.89919 0.31501 0.71816 0.0
C1065 C 0.85812 0.28591 0.70595 0.0
N1066 N 0.78555 0.27212 0.68897 0.0
N1067 N 0.94817 0.38863 0.73169 0.0
C1068 C 0.8229 0.29672 0.70375 0.0
C1069 C 0.90636 0.35649 0.72574 0.0
N1070 N 0.79162 0.34014 0.71954 0.0
N1071 N 0.93122 0.30269 0.72287 0.0
H1072 H 0.95441 0.41964 0.73631 0.0
H1073 H 0.97683 0.38596 0.72955 0.0
H1074 H 0.92646 0.27248 0.71765 0.0
H1075 H 0.96026 0.3204 0.73396 0.0
H1076 H 0.75904 0.31668 0.71526 0.0
H1077 H 0.79418 0.36701 0.7288 0.0
H1078 H 0.76091 0.28101 0.68434 0.0
H1079 H 0.78063 0.24427 0.67978 0.0
C1080 C 0.22122 1.00006 0.65481 0.0
C1081 C 0.17647 0.9915 0.65456 0.0
C1082 C 0.20088 0.06085 0.6762 0.0
C1083 C 0.24616 0.0708 0.67429 0.0
N1084 N 0.29765 0.05545 0.65279 0.0
N1085 N 0.12417 0.01739 0.66051 0.0
C1086 C 0.25584 0.04201 0.661 0.0
C1087 C 0.16637 0.02299 0.66403 0.0
N1088 N 0.23074 0.96771 0.64955 0.0
N1089 N 0.1908 0.08748 0.68956 0.0
H1090 H 0.0987 0.99015 0.65162 0.0
H1091 H 0.11533 0.04101 0.66453 0.0
H1092 H 0.21511 0.11642 0.69748 0.0
H1093 H 0.15845 0.07973 0.69395 0.0
H1094 H 0.26273 0.97116 0.65163 0.0
H1095 H 0.20593 0.93619 0.64583 0.0
H1096 H 0.30557 0.03724 0.6408 0.0
H1097 H 0.32307 0.0867 0.65575 0.0
C1098 C 0.02024 0.20572 0.64405 0.0
C1099 C 0.05394 0.24836 0.64919 0.0
C1100 C 0.01032 0.25407 0.68335 0.0
C1101 C 0.97397 0.21375 0.6759 0.0
N1102 N 0.94467 0.14923 0.65036 0.0
N1103 N 0.08067 0.3154 0.67094 0.0
C1104 C 0.97923 0.18887 0.65669 0.0
C1105 C 0.04875 0.2732 0.66804 0.0
N1106 N 0.02805 0.18115 0.62744 0.0
N1107 N 0.00906 0.2733 0.70546 0.0
H1108 H 0.10932 0.32976 0.65998 0.0
H1109 H 0.07709 0.33705 0.68241 0.0
H1110 H 0.98369 0.25831 0.71861 0.0
H1111 H 0.03586 0.30126 0.71269 0.0
H1112 H 0.00755 0.14799 0.62524 0.0
H1113 H 0.05644 0.19368 0.61642 0.0
H1114 H 0.94367 0.13218 0.63416 0.0
H1115 H 0.9159 0.1336 0.66109 0.0
C1116 C 0.76944 0.79496 0.64582 0.0
C1117 C 0.80351 0.83775 0.64013 0.0
C1118 C 0.859 0.81778 0.66002 0.0
C1119 C 0.82462 0.7749 0.66662 0.0
N1120 N 0.7482 0.71998 0.65842 0.0
N1121 N 0.88137 0.88793 0.63778 0.0
C1122 C 0.78028 0.7625 0.65701 0.0
C1123 C 0.84847 0.84812 0.64577 0.0
N1124 N 0.72623 0.78607 0.64209 0.0
N1125 N 0.90209 0.83024 0.66795 0.0
H1126 H 0.87465 0.91137 0.62833 0.0
H1127 H 0.91503 0.89673 0.63833 0.0
H1128 H 0.91331 0.80841 0.67436 0.0
H1129 H 0.92716 0.86238 0.66832 0.0
H1130 H 0.69929 0.75775 0.64902 0.0
H1131 H 0.71768 0.80869 0.63343 0.0
H1132 H 0.71683 0.7086 0.64938 0.0
H1133 H 0.75381 0.69495 0.66612 0.0
C1134 C 0.05028 0.80955 0.65665 0.0
C1135 C 0.04812 0.8431 0.64068 0.0
C1136 C 0.96649 0.79901 0.63783 0.0
C1137 C 0.96788 0.76795 0.65655 0.0
N1138 N 0.0117 0.74228 0.68266 0.0
N1139 N 0.00289 0.87484 0.62413 0.0
C1140 C 0.01012 0.77279 0.66548 0.0
C1141 C 0.00591 0.83891 0.63308 0.0
N1142 N 0.09095 0.81348 0.66388 0.0
N1143 N 0.9276 0.79171 0.625 0.0
H1144 H 0.03039 0.90575 0.62404 0.0
H1145 H 0.97271 0.87501 0.62051 0.0
H1146 H 0.89698 0.76478 0.62851 0.0
H1147 H 0.92651 0.81144 0.6093 0.0
H1148 H 0.09588 0.78872 0.67289 0.0
H1149 H 0.12038 0.84184 0.66027 0.0
H1150 H 0.04043 0.74569 0.69262 0.0
H1151 H 0.98349 0.71321 0.68733 0.0
C1152 C 0.2413 0.29336 0.64288 0.0
C1153 C 0.19896 0.2607 0.63424 0.0
C1154 C 0.22328 0.20555 0.64201 0.0
C1155 C 0.2632 0.23716 0.65381 0.0
N1156 N 0.31152 0.31088 0.66607 0.0
N1157 N 0.1467 0.1843 0.63077 0.0
C1158 C 0.27287 0.2812 0.65418 0.0
C1159 C 0.18934 0.21645 0.63481 0.0
N1160 N 0.25036 0.33575 0.64108 0.0
N1161 N 0.2174 0.16484 0.63795 0.0
H1162 H 0.12027 0.19048 0.62624 0.0
H1163 H 0.13672 0.1514 0.63431 0.0
H1164 H 0.24075 0.15475 0.64381 0.0
H1165 H 0.19097 0.14222 0.62674 0.0
H1166 H 0.2816 0.36198 0.64476 0.0
H1167 H 0.22656 0.34472 0.63448 0.0
H1168 H 0.3191 0.34276 0.6693 0.0
H1169 H 0.33559 0.30294 0.67391 0.0
C1170 C 0.77942 0.99253 0.65554 0.0
C1171 C 0.81345 0.9807 0.65434 0.0
C1172 C 0.86332 0.04375 0.68048 0.0
C1173 C 0.83013 0.05737 0.68025 0.0
N1174 N 0.75932 0.04846 0.66288 0.0
N1175 N 0.89043 0.99973 0.66076 0.0
C1176 C 0.78916 0.03307 0.66616 0.0
C1177 C 0.85617 1.00768 0.66547 0.0
N1178 N 0.73708 0.96388 0.64764 0.0
N1179 N 0.90191 0.06527 0.69497 0.0
H1180 H 0.88614 0.97411 0.64949 0.0
H1181 H 0.92352 0.02058 0.66589 0.0
H1182 H 0.9106 0.09406 0.70429 0.0
H1183 H 0.92458 0.05358 0.69865 0.0
H1184 H 0.70955 0.96813 0.65056 0.0
H1185 H 0.72891 0.93375 0.64031 0.0
H1186 H 0.73122 0.03471 0.6505 0.0
H1187 H 0.76461 0.07728 0.6707 0.0
C1188 C 0.48151 0.37021 0.71211 0.0
C1189 C 0.51312 0.37115 0.7314 0.0
C1190 C 0.48663 0.29299 0.72614 0.0
C1191 C 0.45581 0.29232 0.70612 0.0
N1192 N 0.43112 0.33255 0.67605 0.0
N1193 N 0.55 0.33594 0.75505 0.0
C1194 C 0.4551 0.33157 0.69806 0.0
C1195 C 0.51686 0.33315 0.73788 0.0
N1196 N 0.47634 0.40636 0.70762 0.0
N1197 N 0.48614 0.25501 0.73441 0.0
H1198 H 0.57169 0.36471 0.76423 0.0
H1199 H 0.55795 0.31098 0.75902 0.0
H1200 H 0.46624 0.22562 0.72545 0.0
H1201 H 0.5037 0.25191 0.75087 0.0
H1202 H 0.45055 0.40677 0.69608 0.0
H1203 H 0.49627 0.43538 0.71703 0.0
H1204 H 0.43247 0.3609 0.66771 0.0
H1205 H 0.41303 0.30564 0.66452 0.0
C1206 C 0.64703 0.13538 0.73252 0.0
C1207 C 0.61635 0.09023 0.73442 0.0
C1208 C 0.6705 0.07356 0.71554 0.0
C1209 C 0.70157 0.11845 0.71468 0.0
N1210 N 0.72324 0.19115 0.72788 0.0
N1211 N 0.59305 0.01956 0.71781 0.0
C1212 C 0.6909 0.14911 0.72469 0.0
C1213 C 0.62656 0.06002 0.72338 0.0
N1214 N 0.63322 0.16546 0.73582 0.0
N1215 N 0.68348 0.04367 0.71003 0.0
H1216 H 0.55976 0.01066 0.72032 0.0
H1217 H 0.59746 0.99716 0.70755 0.0
H1218 H 0.71574 0.05243 0.70486 0.0
H1219 H 0.66362 0.0103 0.71306 0.0
H1220 H 0.65245 0.19849 0.73132 0.0
H1221 H 0.60092 0.15724 0.74048 0.0
H1222 H 0.71876 0.2135 0.73816 0.0
H1223 H 0.75592 0.20278 0.72237 0.0
C1224 C 0.913 0.55239 0.73117 0.0
C1225 C 0.87687 0.50975 0.73458 0.0
C1226 C 0.82584 0.53571 0.71496 0.0
C1227 C 0.86217 0.57838 0.71161 0.0
N1228 N 0.93805 0.6295 0.72243 0.0
N1229 N 0.7979 0.46214 0.7332 0.0
C1230 C 0.90491 0.58746 0.72196 0.0
C1231 C 0.83295 0.5021 0.72771 0.0
N1232 N 0.95537 0.55868 0.73456 0.0
N1233 N 0.78445 0.52703 0.70533 0.0
H1234 H 0.80205 0.43639 0.74143 0.0
H1235 H 0.76473 0.45513 0.73154 0.0
H1236 H 0.77677 0.55128 0.69846 0.0
H1237 H 0.75778 0.49589 0.70357 0.0
H1238 H 0.98351 0.5878 0.72996 0.0
H1239 H 0.96201 0.5332 0.73957 0.0
H1240 H 0.9689 0.63891 0.73181 0.0
H1241 H 0.93307 0.65544 0.7155 0.0
C1242 C 0.49452 0.92759 0.2323 0.0
C1243 C 0.50101 0.95832 0.25118 0.0
C1244 C 0.54127 0.01798 0.21927 0.0
C1245 C 0.53438 0.98683 0.20054 0.0
N1246 N 0.51535 0.91346 0.19094 0.0
N1247 N 0.52401 0.03204 0.26188 0.0
C1248 C 0.51468 0.94208 0.20772 0.0
C1249 C 0.52358 1.0035 0.24462 0.0
N1250 N 0.46514 0.88481 0.23681 0.0
N1251 N 0.56427 0.06133 0.21265 0.0
H1252 H 0.50874 0.02199 0.27981 0.0
H1253 H 0.53634 0.06517 0.25804 0.0
H1254 H 0.57575 0.07299 0.19396 0.0
H1255 H 0.57446 0.08607 0.22581 0.0
H1256 H 0.45559 0.86111 0.22295 0.0
H1257 H 0.44604 0.87401 0.25331 0.0
H1258 H 0.50563 0.88104 0.19604 0.0
H1259 H 0.52982 0.92324 0.17273 0.0
C1260 C 0.12708 0.53504 0.23708 0.0
C1261 C 0.10085 0.53417 0.25778 0.0
C1262 C 0.0369 0.51322 0.22669 0.0
C1263 C 0.06522 0.52196 0.20558 0.0
N1264 N 0.13768 0.54112 0.1902 0.0
N1265 N 0.03126 0.52642 0.27166 0.0
C1266 C 0.11033 0.53205 0.21065 0.0
C1267 C 0.05555 0.52338 0.25245 0.0
N1268 N 0.16854 0.53998 0.24282 0.0
N1269 N 0.99201 0.49542 0.22204 0.0
H1270 H 0.04345 0.53325 0.29082 0.0
H1271 H 1.00029 0.52495 0.26829 0.0
H1272 H 0.9774 0.48774 0.20336 0.0
H1273 H 0.96913 0.4844 0.23686 0.0
H1274 H 0.18108 0.54274 0.26193 0.0
H1275 H 0.18863 0.53754 0.22923 0.0
H1276 H 0.17196 0.55338 0.19232 0.0
H1277 H 0.12628 0.53844 0.17077 0.0
C1278 C 0.4485 0.51131 0.25319 0.0
C1279 C 0.44239 0.54809 0.25604 0.0
C1280 C 0.42177 0.54587 0.20924 0.0
C1281 C 0.439 0.51696 0.20565 0.0
N1282 N 0.43045 0.45018 0.22639 0.0
N1283 N 0.42303 0.60109 0.23596 0.0
C1284 C 0.44102 0.49269 0.2283 0.0
C1285 C 0.42828 0.56519 0.23388 0.0
N1286 N 0.46488 0.49614 0.2736 0.0
N1287 N 0.39345 0.54948 0.19078 0.0
H1288 H 0.42803 0.61661 0.25351 0.0
H1289 H 0.41719 0.61723 0.21976 0.0
H1290 H 0.38176 0.52922 0.17484 0.0
H1291 H 0.37676 0.56722 0.19335 0.0
H1292 H 0.47352 0.47164 0.27177 0.0
H1293 H 0.47406 0.51129 0.29142 0.0
H1294 H 0.42771 0.42993 0.24266 0.0
H1295 H 0.4188 0.43433 0.20875 0.0
C1296 C 0.88142 0.48323 0.8073 0.0
C1297 C 0.90962 0.48265 0.78823 0.0
C1298 C 0.97294 0.51402 0.81985 0.0
C1299 C 0.94358 0.50825 0.83988 0.0
N1300 N 0.86948 0.48703 0.85324 0.0
N1301 N 0.98147 0.49184 0.77778 0.0
C1302 C 0.89774 0.49348 0.83368 0.0
C1303 C 0.95537 0.49719 0.79482 0.0
N1304 N 0.83857 0.47259 0.80025 0.0
N1305 N 0.01787 0.53581 0.82477 0.0
H1306 H 0.97004 0.47972 0.75926 0.0
H1307 H 0.01328 0.49632 0.7827 0.0
H1308 H 0.03188 0.54859 0.84291 0.0
H1309 H 0.04109 0.54491 0.81026 0.0
H1310 H 0.81691 0.47611 0.81212 0.0
H1311 H 0.82573 0.46289 0.78155 0.0
H1312 H 0.83502 0.4721 0.85078 0.0
H1313 H 0.88044 0.49469 0.87255 0.0
C1314 C 0.57027 0.45215 0.82264 0.0
C1315 C 0.57009 0.47914 0.80081 0.0
C1316 C 0.55063 0.52041 0.83043 0.0
C1317 C 0.54412 0.48933 0.85107 0.0
N1318 N 0.54536 0.42362 0.86637 0.0
N1319 N 0.55655 0.537 0.78376 0.0
C1320 C 0.5542 0.45515 0.8472 0.0
C1321 C 0.56013 0.5133 0.80482 0.0
N1322 N 0.58387 0.42193 0.81932 0.0
N1323 N 0.54774 0.55688 0.83537 0.0
H1324 H 0.56358 0.53256 0.7651 0.0
H1325 H 0.54413 0.55885 0.78452 0.0
H1326 H 0.54072 0.56281 0.85379 0.0
H1327 H 0.55615 0.58285 0.822 0.0
H1328 H 0.59267 0.4168 0.80122 0.0
H1329 H 0.58956 0.40423 0.83462 0.0
H1330 H 0.54652 0.39492 0.86381 0.0
H1331 H 0.53372 0.4245 0.88454 0.0
C1332 C 0.55942 1.0076 0.79717 0.0
C1333 C 0.57327 0.05154 0.78909 0.0
C1334 C 0.59068 0.07266 0.83507 0.0
C1335 C 0.57004 0.02821 0.84285 0.0
N1336 N 0.54915 0.95485 0.83265 0.0
N1337 N 0.60422 0.1263 0.80007 0.0
C1338 C 0.55964 0.99622 0.82423 0.0
C1339 C 0.59129 0.08438 0.808 0.0
N1340 N 0.5408 0.97621 0.77906 0.0
N1341 N 0.60881 0.10343 0.85367 0.0
H1342 H 0.60477 0.13514 0.7805 0.0
H1343 H 0.61259 0.15172 0.8125 0.0
H1344 H 0.60783 0.0954 0.87358 0.0
H1345 H 0.62783 0.13657 0.84957 0.0
H1346 H 0.52504 0.94299 0.78352 0.0
H1347 H 0.53873 0.98377 0.75936 0.0
H1348 H 0.54464 0.93038 0.82032 0.0
H1349 H 0.54894 0.94612 0.85245 0.0
C1350 C 0.17661 0.27456 0.56684 0.0
C1351 C 0.17334 0.30156 0.58516 0.0
C1352 C 0.20351 0.36304 0.55339 0.0
C1353 C 0.20911 0.33633 0.53577 0.0
N1354 N 0.21122 0.27018 0.52801 0.0
N1355 N 0.18804 0.37263 0.5974 0.0
C1356 C 0.19936 0.2933 0.5434 0.0
C1357 C 0.18876 0.34636 0.57895 0.0
N1358 N 0.1542 0.23058 0.57061 0.0
N1359 N 0.20947 0.40323 0.54518 0.0
H1360 H 0.17469 0.36087 0.61572 0.0
H1361 H 0.20331 0.40637 0.59529 0.0
H1362 H 0.22046 0.41679 0.52669 0.0
H1363 H 0.20069 0.42211 0.55596 0.0
H1364 H 0.15213 0.20883 0.55688 0.0
H1365 H 0.13298 0.21606 0.58601 0.0
H1366 H 0.20846 0.24001 0.53376 0.0
H1367 H 0.22782 0.28314 0.51063 0.0
C1368 C 0.79418 0.87066 0.56661 0.0
C1369 C 0.76799 0.8693 0.58748 0.0
C1370 C 0.70415 0.84893 0.55615 0.0
C1371 C 0.73258 0.85831 0.53493 0.0
N1372 N 0.806 0.88018 0.51989 0.0
N1373 N 0.69817 0.86065 0.60148 0.0
C1374 C 0.77786 0.86902 0.54015 0.0
C1375 C 0.72268 0.85847 0.58209 0.0
N1376 N 0.8351 0.87422 0.57218 0.0
N1377 N 0.65926 0.83088 0.55148 0.0
H1378 H 0.71038 0.86723 0.62067 0.0
H1379 H 0.66705 0.85888 0.59823 0.0
H1380 H 0.64475 0.82346 0.53276 0.0
H1381 H 0.63633 0.81944 0.56628 0.0
H1382 H 0.85489 0.87182 0.55836 0.0
H1383 H 0.84688 0.87484 0.59129 0.0
H1384 H 0.84033 0.8932 0.52238 0.0
H1385 H 0.79542 0.87926 0.50039 0.0
C1386 C 0.13042 0.8581 0.58643 0.0
C1387 C 0.10316 0.87808 0.58894 0.0
C1388 C 0.0878 0.87368 0.54114 0.0
C1389 C 0.11723 0.85625 0.53882 0.0
N1390 N 0.15582 0.82002 0.55944 0.0
N1391 N 0.06092 0.91042 0.56813 0.0
C1392 C 0.13483 0.84447 0.5616 0.0
C1393 C 0.08213 0.88622 0.56615 0.0
N1394 N 0.15634 0.85683 0.60727 0.0
N1395 N 0.06558 0.87853 0.51933 0.0
H1396 H 0.05927 0.92279 0.58572 0.0
H1397 H 0.0485 0.92165 0.5523 0.0
H1398 H 0.07028 0.87107 0.50076 0.0
H1399 H 0.04003 0.88656 0.51972 0.0
H1400 H 0.18088 0.84751 0.60625 0.0
H1401 H 0.15659 0.86956 0.62509 0.0
H1402 H 0.1653 0.80629 0.57541 0.0
H1403 H 0.15986 0.80987 0.54152 0.0
C1404 C 0.55622 0.79954 0.14174 0.0
C1405 C 0.58346 0.81524 0.11958 0.0
C1406 C 0.6485 0.85683 0.14865 0.0
C1407 C 0.62064 0.84181 0.17053 0.0
N1408 N 0.54677 0.80933 0.18693 0.0
N1409 N 0.65431 0.86286 0.10146 0.0
C1410 C 0.57403 0.81686 0.16665 0.0
C1411 C 0.62913 0.84583 0.12294 0.0
N1412 N 0.51437 0.76525 0.13949 0.0
N1413 N 0.69364 0.8792 0.15257 0.0
H1414 H 0.64142 0.85285 0.08279 0.0
H1415 H 0.68665 0.88851 0.10191 0.0
H1416 H 0.7089 0.88824 0.17098 0.0
H1417 H 0.71622 0.88675 0.13788 0.0
H1418 H 0.49482 0.7492 0.15545 0.0
H1419 H 0.50074 0.75016 0.1219 0.0
H1420 H 0.51224 0.79484 0.18467 0.0
H1421 H 0.55898 0.82159 0.20542 0.0
C1422 C 0.24317 0.80313 0.14727 0.0
C1423 C 0.24971 0.83795 0.12922 0.0
C1424 C 0.2292 0.87142 0.16345 0.0
C1425 C 0.21665 0.83393 0.18012 0.0
N1426 N 0.21159 0.7633 0.18789 0.0
N1427 N 0.27843 0.91476 0.12939 0.0
C1428 C 0.22443 0.79986 0.17221 0.0
C1429 C 0.25023 0.87489 0.13952 0.0
N1430 N 0.25668 0.77422 0.1407 0.0
N1431 N 0.22159 0.90426 0.17047 0.0
H1432 H 0.30496 0.91839 0.1187 0.0
H1433 H 0.28237 0.94376 0.13643 0.0
H1434 H 0.20854 0.90429 0.18835 0.0
H1435 H 0.22564 0.93002 0.1577 0.0
H1436 H 0.25592 0.74939 0.15312 0.0
H1437 H 0.27382 0.77856 0.12373 0.0
H1438 H 0.21143 0.73516 0.18226 0.0
H1439 H 0.19815 0.75996 0.20615 0.0
C1440 C 0.1813 0.34383 0.13642 0.0
C1441 C 0.21871 0.38512 0.13181 0.0
C1442 C 0.24349 0.38522 0.17766 0.0
C1443 C 0.20205 0.34827 0.18308 0.0
N1444 N 0.13043 0.29242 0.16788 0.0
N1445 N 0.28612 0.44509 0.14748 0.0
C1446 C 0.17105 0.32689 0.16243 0.0
C1447 C 0.25055 0.40535 0.1522 0.0
N1448 N 0.15434 0.32208 0.11577 0.0
N1449 N 0.2759 0.40094 0.19694 0.0
H1450 H 0.2928 0.45918 0.12879 0.0
H1451 H 0.30781 0.46454 0.16199 0.0
H1452 H 0.27143 0.38673 0.21571 0.0
H1453 H 0.30821 0.4255 0.19385 0.0
H1454 H 0.12889 0.29013 0.11709 0.0
H1455 H 0.15992 0.33496 0.0967 0.0
H1456 H 0.10429 0.27871 0.15419 0.0
H1457 H 0.12147 0.27896 0.18663 0.0
C1458 C 0.83063 0.60233 0.9097 0.0
C1459 C 0.83263 0.63449 0.92611 0.0
C1460 C 0.86812 0.69024 0.89149 0.0
C1461 C 0.86731 0.65799 0.87554 0.0
N1462 N 0.85863 0.5862 0.87174 0.0
N1463 N 0.85729 0.70959 0.93414 0.0
C1464 C 0.85247 0.61501 0.88555 0.0
C1465 C 0.85348 0.67877 0.91756 0.0
N1466 N 0.80425 0.5595 0.91596 0.0
N1467 N 0.8798 0.73097 0.88114 0.0
H1468 H 0.84263 0.7017 0.95227 0.0
H1469 H 0.87669 0.74286 0.93056 0.0
H1470 H 0.89087 0.74084 0.86221 0.0
H1471 H 0.87594 0.75438 0.89064 0.0
H1472 H 0.798 0.53443 0.90364 0.0
H1473 H 0.78452 0.54956 0.93218 0.0
H1474 H 0.85211 0.5555 0.87917 0.0
H1475 H 0.87436 0.5947 0.85388 0.0
C1476 C 0.39598 0.17238 0.91065 0.0
C1477 C 0.43567 0.20957 0.91861 0.0
C1478 C 0.44333 0.23924 0.87326 0.0
C1479 C 0.40437 0.20124 0.86522 0.0
N1480 N 0.35228 0.12633 0.87511 0.0
N1481 N 0.50268 0.27346 0.90578 0.0
C1482 C 0.38372 0.16599 0.88355 0.0
C1483 C 0.46164 0.24059 0.89908 0.0
N1484 N 0.36792 0.1449 0.92896 0.0
N1485 N 0.46061 0.27573 0.85729 0.0
H1486 H 0.52515 0.2943 0.89208 0.0
H1487 H 0.51536 0.27796 0.92497 0.0
H1488 H 0.44689 0.2776 0.83895 0.0
H1489 H 0.48583 0.30574 0.86329 0.0
H1490 H 0.33618 0.11992 0.92448 0.0
H1491 H 0.37508 0.14983 0.94874 0.0
H1492 H 0.33885 0.09854 0.88728 0.0
H1493 H 0.34322 0.1204 0.8554 0.0
C1494 C 0.80283 0.19151 0.92126 0.0
C1495 C 0.78583 0.22107 0.92297 0.0
C1496 C 0.7748 0.22109 0.87506 0.0
C1497 C 0.79796 0.197 0.87319 0.0
N1498 N 0.83432 0.15874 0.89425 0.0
N1499 N 0.76232 0.26963 0.90096 0.0
C1500 C 0.81143 0.18142 0.89628 0.0
C1501 C 0.77264 0.23664 0.89972 0.0
N1502 N 0.81194 0.17417 0.94373 0.0
N1503 N 0.75538 0.22962 0.85314 0.0
H1504 H 0.76372 0.28418 0.9184 0.0
H1505 H 0.75708 0.28568 0.88455 0.0
H1506 H 0.75705 0.21926 0.83476 0.0
H1507 H 0.73424 0.24325 0.85359 0.0
H1508 H 0.82048 0.14934 0.94436 0.0
H1509 H 0.80802 0.18297 0.96203 0.0
H1510 H 0.84957 0.15048 0.91001 0.0
H1511 H 0.83993 0.14973 0.87638 0.0
C1512 C 0.3016 0.15868 0.46201 0.0
C1513 C 0.25626 0.14687 0.45597 0.0
C1514 C 0.24721 0.15888 0.5017 0.0
C1515 C 0.29258 0.1706 0.5074 0.0
N1516 N 0.36562 0.19389 0.4915 0.0
N1517 N 0.18758 0.1416 0.46884 0.0
C1518 C 0.3206 0.17466 0.48698 0.0
C1519 C 0.22982 0.14951 0.47543 0.0
N1520 N 0.32576 0.15148 0.44451 0.0
N1521 N 0.22031 0.1545 0.52161 0.0
H1522 H 0.1739 0.13263 0.45017 0.0
H1523 H 0.16733 0.14661 0.48107 0.0
H1524 H 0.23221 0.16182 0.54082 0.0
H1525 H 0.18599 0.14179 0.51952 0.0
H1526 H 0.35689 0.15387 0.44899 0.0
H1527 H 0.31325 0.13994 0.42601 0.0
H1528 H 0.3882 0.20175 0.47675 0.0
H1529 H 0.38062 0.20597 0.5096 0.0
C1530 C 0.90529 0.18914 0.46968 0.0
C1531 C 0.91173 0.15288 0.46536 0.0
C1532 C 0.89685 0.12999 0.51193 0.0
C1533 C 0.89068 0.16649 0.51616 0.0
N1534 N 0.89957 0.23618 0.5007 0.0
N1535 N 0.92112 0.09282 0.48346 0.0
C1536 C 0.89854 0.19788 0.49553 0.0
C1537 C 0.91072 0.12522 0.48707 0.0
N1538 N 0.9023 0.21343 0.44877 0.0
N1539 N 0.88626 0.09809 0.53103 0.0
H1540 H 0.926 0.07445 0.49866 0.0
H1541 H 0.92821 0.08644 0.4652 0.0
H1542 H 0.87591 0.10005 0.54939 0.0
H1543 H 0.88452 0.06812 0.52821 0.0
H1544 H 0.89238 0.23711 0.44993 0.0
H1545 H 0.90687 0.20757 0.42987 0.0
H1546 H 0.90922 0.26218 0.48723 0.0
H1547 H 0.89469 0.24336 0.51931 0.0
C1548 C 0.92735 0.7445 0.48633 0.0
C1549 C 0.89924 0.72034 0.46547 0.0
C1550 C 0.85582 0.66104 0.49664 0.0
C1551 C 0.87684 0.68966 0.51739 0.0
N1552 N 0.93417 0.75881 0.53252 0.0
N1553 N 0.83654 0.65464 0.45045 0.0
C1554 C 0.91382 0.73117 0.5125 0.0
C1555 C 0.86428 0.67764 0.4705 0.0
N1556 N 0.96645 0.78057 0.4809 0.0
N1557 N 0.8271 0.61826 0.50204 0.0
H1558 H 0.84178 0.66579 0.43106 0.0
H1559 H 0.807 0.62586 0.45315 0.0
H1560 H 0.82038 0.60551 0.52113 0.0
H1561 H 0.81351 0.59488 0.48783 0.0
H1562 H 0.99025 0.79839 0.4951 0.0
H1563 H 0.97706 0.78919 0.46185 0.0
H1564 H 0.95799 0.79122 0.52977 0.0
H1565 H 0.92545 0.75 0.55193 0.0
loop_
_geom_bond_atom_site_label_1
_geom_bond_atom_site_label_2
_geom_bond_distance
_geom_bond_site_symmetry_2
_ccdc_geom_bond_type
C0 N1 1.317 . S
C0 N2 1.348 . S
C0 C3 1.485 . S
N1 C0 1.317 . S
N1 N5 1.370 . S
N2 C0 1.348 . S
N2 C4 1.346 . S
C3 C0 1.485 . S
C3 H7 0.960 . S
C3 H8 0.961 . S
C3 H9 0.960 . S
C4 N2 1.346 . S
C4 N5 1.307 . S
C4 C6 1.486 . S
N5 N1 1.370 . S
N5 C4 1.307 . S
C6 C4 1.486 . S
C6 H10 0.960 . S
C6 H11 0.960 . S
C6 H12 0.959 . S
H7 C3 0.960 . S
H8 C3 0.961 . S
H9 C3 0.960 . S
H10 C6 0.960 . S
H11 C6 0.960 . S
H12 C6 0.959 . S
C13 N14 1.317 . S
C13 N15 1.348 . S
C13 C16 1.485 . S
N14 C13 1.317 . S
N14 N18 1.370 . S
N15 C13 1.348 . S
N15 C17 1.346 . S
C16 C13 1.485 . S
C16 H20 0.960 . S
C16 H21 0.961 . S
C16 H22 0.960 . S
C17 N15 1.346 . S
C17 N18 1.307 . S
C17 C19 1.486 . S
N18 N14 1.370 . S
N18 C17 1.307 . S
C19 C17 1.486 . S
C19 H23 0.960 . S
C19 H24 0.960 . S
C19 H25 0.959 . S
H20 C16 0.960 . S
H21 C16 0.961 . S
H22 C16 0.960 . S
H23 C19 0.960 . S
H24 C19 0.960 . S
H25 C19 0.959 . S
C26 N27 1.317 . S
C26 N28 1.348 . S
C26 C29 1.485 . S
N27 C26 1.317 . S
N27 N31 1.370 . S
N28 C26 1.348 . S
N28 C30 1.346 . S
C29 C26 1.485 . S
C29 H33 0.960 . S
C29 H34 0.961 . S
C29 H35 0.960 . S
C30 N28 1.346 . S
C30 N31 1.307 . S
C30 C32 1.486 . S
N31 N27 1.370 . S
N31 C30 1.307 . S
C32 C30 1.486 . S
C32 H36 0.960 . S
C32 H37 0.960 . S
C32 H38 0.959 . S
H33 C29 0.960 . S
H34 C29 0.961 . S
H35 C29 0.960 . S
H36 C32 0.960 . S
H37 C32 0.960 . S
H38 C32 0.959 . S
C39 N40 1.317 . S
C39 N41 1.348 . S
C39 C42 1.485 . S
N40 C39 1.317 . S
N40 N44 1.370 . S
N41 C39 1.348 . S
N41 C43 1.346 . S
C42 C39 1.485 . S
C42 H46 0.960 . S
C42 H47 0.961 . S
C42 H48 0.960 . S
C43 N41 1.346 . S
C43 N44 1.307 . S
C43 C45 1.486 . S
N44 N40 1.370 . S
N44 C43 1.307 . S
C45 C43 1.486 . S
C45 H49 0.960 . S
C45 H50 0.960 1_455 S
C45 H51 0.959 . S
H46 C42 0.960 . S
H47 C42 0.961 . S
H48 C42 0.960 . S
H49 C45 0.960 . S
H50 C45 0.960 1_655 S
H51 C45 0.959 . S
C52 N53 1.317 . S
C52 N54 1.348 . S
C52 C55 1.485 . S
N53 C52 1.317 . S
N53 N57 1.370 . S
N54 C52 1.348 . S
N54 C56 1.346 . S
C55 C52 1.485 . S
C55 H59 0.960 . S
C55 H60 0.961 . S
C55 H61 0.960 . S
C56 N54 1.346 . S
C56 N57 1.307 . S
C56 C58 1.486 . S
N57 N53 1.370 . S
N57 C56 1.307 . S
C58 C56 1.486 . S
C58 H62 0.960 . S
C58 H63 0.960 . S
C58 H64 0.959 . S
H59 C55 0.960 . S
H60 C55 0.961 . S
H61 C55 0.960 . S
H62 C58 0.960 . S
H63 C58 0.960 . S
H64 C58 0.959 . S
C65 N66 1.317 . S
C65 N67 1.348 . S
C65 C68 1.485 . S
N66 C65 1.317 . S
N66 N70 1.370 . S
N67 C65 1.348 . S
N67 C69 1.346 . S
C68 C65 1.485 . S
C68 H72 0.960 . S
C68 H73 0.961 . S
C68 H74 0.960 . S
C69 N67 1.346 . S
C69 N70 1.307 . S
C69 C71 1.486 . S
N70 N66 1.370 . S
N70 C69 1.307 . S
C71 C69 1.486 . S
C71 H75 0.960 . S
C71 H76 0.960 . S
C71 H77 0.959 . S
H72 C68 0.960 . S
H73 C68 0.961 . S
H74 C68 0.960 . S
H75 C71 0.960 . S
H76 C71 0.960 . S
H77 C71 0.959 . S
C78 N79 1.317 . S
C78 N80 1.348 . S
C78 C81 1.485 . S
N79 C78 1.317 . S
N79 N83 1.370 . S
N80 C78 1.348 . S
N80 C82 1.346 . S
C81 C78 1.485 . S
C81 H85 0.960 . S
C81 H86 0.961 . S
C81 H87 0.960 . S
C82 N80 1.346 . S
C82 N83 1.307 . S
C82 C84 1.486 . S
N83 N79 1.370 . S
N83 C82 1.307 . S
C84 C82 1.486 . S
C84 H88 0.960 . S
C84 H89 0.960 . S
C84 H90 0.959 . S
H85 C81 0.960 . S
H86 C81 0.961 . S
H87 C81 0.960 . S
H88 C84 0.960 . S
H89 C84 0.960 . S
H90 C84 0.959 . S
C91 N92 1.317 . S
C91 N93 1.348 . S
C91 C94 1.485 . S
N92 C91 1.317 . S
N92 N96 1.370 . S
N93 C91 1.348 . S
N93 C95 1.346 . S
C94 C91 1.485 . S
C94 H98 0.960 . S
C94 H99 0.961 . S
C94 H100 0.960 . S
C95 N93 1.346 . S
C95 N96 1.307 . S
C95 C97 1.486 . S
N96 N92 1.370 . S
N96 C95 1.307 . S
C97 C95 1.486 . S
C97 H101 0.960 . S
C97 H102 0.960 . S
C97 H103 0.959 . S
H98 C94 0.960 . S
H99 C94 0.961 . S
H100 C94 0.960 . S
H101 C97 0.960 . S
H102 C97 0.960 . S
H103 C97 0.959 . S
C104 N105 1.317 . S
C104 N106 1.348 . S
C104 C107 1.485 . S
N105 C104 1.317 . S
N105 N109 1.370 . S
N106 C104 1.348 . S
N106 C108 1.346 . S
C107 C104 1.485 . S
C107 H111 0.960 . S
C107 H112 0.961 . S
C107 H113 0.960 . S
C108 N106 1.346 . S
C108 N109 1.307 . S
C108 C110 1.486 . S
N109 N105 1.370 . S
N109 C108 1.307 . S
C110 C108 1.486 . S
C110 H114 0.960 . S
C110 H115 0.960 . S
C110 H116 0.959 . S
H111 C107 0.960 . S
H112 C107 0.961 . S
H113 C107 0.960 . S
H114 C110 0.960 . S
H115 C110 0.960 . S
H116 C110 0.959 . S
C117 N118 1.317 . S
C117 N119 1.348 . S
C117 C120 1.485 . S
N118 C117 1.317 . S
N118 N122 1.370 . S
N119 C117 1.348 . S
N119 C121 1.346 . S
C120 C117 1.485 . S
C120 H124 0.960 . S
C120 H125 0.961 1_556 S
C120 H126 0.960 . S
C121 N119 1.346 . S
C121 N122 1.307 . S
C121 C123 1.486 . S
N122 N118 1.370 . S
N122 C121 1.307 . S
C123 C121 1.486 . S
C123 H127 0.960 . S
C123 H128 0.960 . S
C123 H129 0.959 . S
H124 C120 0.960 . S
H125 C120 0.961 1_554 S
H126 C120 0.960 . S
H127 C123 0.960 . S
H128 C123 0.960 . S
H129 C123 0.959 . S
C130 N131 1.317 . S
C130 N132 1.348 . S
C130 C133 1.485 1_556 S
N131 C130 1.317 . S
N131 N135 1.370 . S
N132 C130 1.348 . S
N132 C134 1.346 . S
C133 C130 1.485 1_554 S
C133 H137 0.960 . S
C133 H138 0.961 . S
C133 H139 0.960 . S
C134 N132 1.346 . S
C134 N135 1.307 . S
C134 C136 1.486 . S
N135 N131 1.370 . S
N135 C134 1.307 . S
C136 C134 1.486 . S
C136 H140 0.960 . S
C136 H141 0.960 . S
C136 H142 0.959 . S
H137 C133 0.960 . S
H138 C133 0.961 . S
H139 C133 0.960 . S
H140 C136 0.960 . S
H141 C136 0.960 . S
H142 C136 0.959 . S
C143 N144 1.317 . S
C143 N145 1.348 . S
C143 C146 1.485 1_556 S
N144 C143 1.317 . S
N144 N148 1.370 . S
N145 C143 1.348 . S
N145 C147 1.346 . S
C146 C143 1.485 1_554 S
C146 H150 0.960 . S
C146 H151 0.961 . S
C146 H152 0.960 . S
C147 N145 1.346 . S
C147 N148 1.307 . S
C147 C149 1.486 . S
N148 N144 1.370 . S
N148 C147 1.307 . S
C149 C147 1.486 . S
C149 H153 0.960 . S
C149 H154 0.960 . S
C149 H155 0.959 . S
H150 C146 0.960 . S
H151 C146 0.961 . S
H152 C146 0.960 . S
H153 C149 0.960 . S
H154 C149 0.960 . S
H155 C149 0.959 . S
C156 N157 1.317 . S
C156 N158 1.348 . S
C156 C159 1.485 1_554 S
N157 C156 1.317 . S
N157 N161 1.370 . S
N158 C156 1.348 . S
N158 C160 1.346 . S
C159 C156 1.485 1_556 S
C159 H163 0.960 . S
C159 H164 0.961 . S
C159 H165 0.960 . S
C160 N158 1.346 . S
C160 N161 1.307 . S
C160 C162 1.486 . S
N161 N157 1.370 . S
N161 C160 1.307 . S
C162 C160 1.486 . S
C162 H166 0.960 . S
C162 H167 0.960 . S
C162 H168 0.959 . S
H163 C159 0.960 . S
H164 C159 0.961 . S
H165 C159 0.960 . S
H166 C162 0.960 . S
H167 C162 0.960 . S
H168 C162 0.959 . S
C169 N170 1.317 . S
C169 N171 1.348 . S
C169 C172 1.485 . S
N170 C169 1.317 . S
N170 N174 1.370 . S
N171 C169 1.348 . S
N171 C173 1.346 . S
C172 C169 1.485 . S
C172 H176 0.960 1_554 S
C172 H177 0.961 . S
C172 H178 0.960 . S
C173 N171 1.346 . S
C173 N174 1.307 . S
C173 C175 1.486 . S
N174 N170 1.370 . S
N174 C173 1.307 . S
C175 C173 1.486 . S
C175 H179 0.960 . S
C175 H180 0.960 . S
C175 H181 0.959 . S
H176 C172 0.960 1_556 S
H177 C172 0.961 . S
H178 C172 0.960 . S
H179 C175 0.960 . S
H180 C175 0.960 . S
H181 C175 0.959 . S
C182 N183 1.317 . S
C182 N184 1.348 . S
C182 C185 1.485 . S
N183 C182 1.317 . S
N183 N187 1.370 . S
N184 C182 1.348 . S
N184 C186 1.346 . S
C185 C182 1.485 . S
C185 H189 0.960 . S
C185 H190 0.961 . S
C185 H191 0.960 . S
C186 N184 1.346 . S
C186 N187 1.307 . S
C186 C188 1.486 . S
N187 N183 1.370 . S
N187 C186 1.307 . S
C188 C186 1.486 . S
C188 H192 0.960 . S
C188 H193 0.960 . S
C188 H194 0.959 . S
H189 C185 0.960 . S
H190 C185 0.961 . S
H191 C185 0.960 . S
H192 C188 0.960 . S
H193 C188 0.960 . S
H194 C188 0.959 . S
C195 N196 1.317 . S
C195 N197 1.348 . S
C195 C198 1.485 . S
N196 C195 1.317 . S
N196 N200 1.370 . S
N197 C195 1.348 . S
N197 C199 1.346 . S
C198 C195 1.485 . S
C198 H202 0.960 . S
C198 H203 0.961 . S
C198 H204 0.960 . S
C199 N197 1.346 . S
C199 N200 1.307 . S
C199 C201 1.486 . S
N200 N196 1.370 . S
N200 C199 1.307 . S
C201 C199 1.486 . S
C201 H205 0.960 . S
C201 H206 0.960 . S
C201 H207 0.959 . S
H202 C198 0.960 . S
H203 C198 0.961 . S
H204 C198 0.960 . S
H205 C201 0.960 . S
H206 C201 0.960 . S
H207 C201 0.959 . S
C208 N209 1.317 . S
C208 N210 1.348 . S
C208 C211 1.485 . S
N209 C208 1.317 . S
N209 N213 1.370 . S
N210 C208 1.348 . S
N210 C212 1.346 . S
C211 C208 1.485 . S
C211 H215 0.960 . S
C211 H216 0.961 . S
C211 H217 0.960 . S
C212 N210 1.346 . S
C212 N213 1.307 . S
C212 C214 1.486 . S
N213 N209 1.370 . S
N213 C212 1.307 . S
C214 C212 1.486 . S
C214 H218 0.960 . S
C214 H219 0.960 . S
C214 H220 0.959 . S
H215 C211 0.960 . S
H216 C211 0.961 . S
H217 C211 0.960 . S
H218 C214 0.960 . S
H219 C214 0.960 . S
H220 C214 0.959 . S
C221 N222 1.317 . S
C221 N223 1.348 . S
C221 C224 1.485 . S
N222 C221 1.317 . S
N222 N226 1.370 . S
N223 C221 1.348 . S
N223 C225 1.346 . S
C224 C221 1.485 . S
C224 H228 0.960 . S
C224 H229 0.961 . S
C224 H230 0.960 . S
C225 N223 1.346 . S
C225 N226 1.307 . S
C225 C227 1.486 . S
N226 N222 1.370 . S
N226 C225 1.307 . S
C227 C225 1.486 . S
C227 H231 0.960 . S
C227 H232 0.960 . S
C227 H233 0.959 . S
H228 C224 0.960 . S
H229 C224 0.961 . S
H230 C224 0.960 . S
H231 C227 0.960 . S
H232 C227 0.960 . S
H233 C227 0.959 . S
C234 Eu235 2.835 1_565 S
C234 C236 1.500 . S
C234 O254 1.257 . S
C234 O255 1.260 1_565 S
Eu235 C234 2.835 1_545 S
Eu235 O254 2.473 1_545 S
Eu235 O255 2.480 . S
Eu235 O256 2.430 . S
Eu235 O257 2.641 1_554 S
Eu235 O258 2.394 1_545 S
Eu235 O263 2.355 1_545 S
Eu235 O265 2.374 . S
C236 C234 1.500 . S
C236 C237 1.377 . S
C236 C241 1.377 . S
C237 C236 1.377 . S
C237 C238 1.395 . S
C237 H266 0.931 1_565 S
C238 C237 1.395 . S
C238 C239 1.383 . S
C238 H267 0.931 . S
C239 C238 1.383 . S
C239 C240 1.394 . S
C240 C239 1.394 . S
C240 C241 1.378 . S
C240 H268 0.931 . S
C241 C236 1.377 . S
C241 C240 1.378 . S
C241 H269 0.931 . S
C242 O256 1.259 . S
C242 O257 1.254 1_554 S
C243 O258 1.251 . S
C243 O259 1.284 . S
C244 Eu245 2.835 1_545 S
C244 C246 1.500 . S
C244 O260 1.257 . S
C244 O261 1.260 1_545 S
Eu245 C244 2.835 1_565 S
Eu245 O257 2.375 1_565 S
Eu245 O259 2.353 1_556 S
Eu245 O260 2.473 1_565 S
Eu245 O261 2.480 . S
Eu245 O262 2.430 . S
Eu245 O263 2.670 1_556 S
Eu245 O264 2.394 1_565 S
C246 C244 1.500 . S
C246 C247 1.377 . S
C246 C251 1.377 . S
C247 C246 1.377 . S
C247 C248 1.395 . S
C247 H270 0.931 1_545 S
C248 C247 1.395 . S
C248 C249 1.383 . S
C248 H271 0.931 . S
C249 C248 1.383 . S
C249 C250 1.394 . S
C250 C249 1.394 . S
C250 C251 1.378 . S
C250 H272 0.931 . S
C251 C246 1.377 . S
C251 C250 1.378 . S
C251 H273 0.931 . S
C252 O262 1.259 1_554 S
C252 O263 1.270 . S
C253 O264 1.251 . S
C253 O265 1.251 1_556 S
O254 C234 1.257 . S
O254 Eu235 2.473 1_565 S
O255 C234 1.260 1_545 S
O255 Eu235 2.480 . S
O256 Eu235 2.430 . S
O256 C242 1.259 . S
O257 Eu235 2.641 1_556 S
O257 C242 1.254 1_556 S
O257 Eu245 2.375 1_545 S
O258 Eu235 2.394 1_565 S
O258 C243 1.251 . S
O259 C243 1.284 . S
O259 Eu245 2.353 1_554 S
O260 C244 1.257 . S
O260 Eu245 2.473 1_545 S
O261 C244 1.260 1_565 S
O261 Eu245 2.480 . S
O262 Eu245 2.430 . S
O262 C252 1.259 1_556 S
O263 Eu235 2.355 1_565 S
O263 Eu245 2.670 1_554 S
O263 C252 1.270 . S
O264 Eu245 2.394 1_545 S
O264 C253 1.251 . S
O265 Eu235 2.374 . S
O265 C253 1.251 1_554 S
H266 C237 0.931 1_545 S
H267 C238 0.931 . S
H268 C240 0.931 . S
H269 C241 0.931 . S
H270 C247 0.931 1_565 S
H271 C248 0.931 . S
H272 C250 0.931 . S
H273 C251 0.931 . S
C274 Eu275 2.835 1_455 S
C274 C276 1.500 . S
C274 O294 1.257 . S
C274 O295 1.260 1_455 S
Eu275 C274 2.835 1_655 S
Eu275 O294 2.473 1_655 S
Eu275 O295 2.480 . S
Eu275 O296 2.430 . S
Eu275 O297 2.670 1_554 S
Eu275 O298 2.394 1_655 S
Eu275 O303 2.355 1_655 S
Eu275 O305 2.374 . S
C276 C274 1.500 . S
C276 C277 1.377 . S
C276 C281 1.377 . S
C277 C276 1.377 . S
C277 C278 1.395 . S
C277 H306 0.931 1_455 S
C278 C277 1.395 . S
C278 C279 1.383 . S
C278 H307 0.931 1_455 S
C279 C278 1.383 . S
C279 C280 1.394 . S
C280 C279 1.394 . S
C280 C281 1.378 . S
C280 H308 0.931 . S
C281 C276 1.377 . S
C281 C280 1.378 . S
C281 H309 0.931 . S
C282 O296 1.296 . S
C282 O297 1.255 1_554 S
C283 O298 1.251 . S
C283 O299 1.297 . S
C284 Eu285 2.835 . S
C284 C286 1.500 1_455 S
C284 O300 1.257 1_455 S
C284 O301 1.260 . S
Eu285 C284 2.835 . S
Eu285 O297 2.355 1_455 S
Eu285 O299 2.343 1_556 S
Eu285 O300 2.473 1_455 S
Eu285 O301 2.480 . S
Eu285 O302 2.430 . S
Eu285 O303 2.670 1_556 S
Eu285 O304 2.394 1_455 S
C286 C284 1.500 1_655 S
C286 C287 1.377 1_655 S
C286 C291 1.377 . S
C287 C286 1.377 1_455 S
C287 C288 1.395 . S
C287 H310 0.931 . S
C288 C287 1.395 . S
C288 C289 1.383 1_455 S
C288 H311 0.931 . S
C289 C288 1.383 1_655 S
C289 C290 1.394 . S
C290 C289 1.394 . S
C290 C291 1.378 . S
C290 H312 0.931 . S
C291 C286 1.377 . S
C291 C290 1.378 . S
C291 H313 0.931 . S
C292 O302 1.259 1_554 S
C292 O303 1.270 . S
C293 O304 1.251 . S
C293 O305 1.251 1_556 S
O294 C274 1.257 . S
O294 Eu275 2.473 1_455 S
O295 C274 1.260 1_655 S
O295 Eu275 2.480 . S
O296 Eu275 2.430 . S
O296 C282 1.296 . S
O297 Eu275 2.670 1_556 S
O297 C282 1.255 1_556 S
O297 Eu285 2.355 1_655 S
O298 Eu275 2.394 1_455 S
O298 C283 1.251 . S
O299 C283 1.297 . S
O299 Eu285 2.343 1_554 S
O300 C284 1.257 1_655 S
O300 Eu285 2.473 1_655 S
O301 C284 1.260 . S
O301 Eu285 2.480 . S
O302 Eu285 2.430 . S
O302 C292 1.259 1_556 S
O303 Eu275 2.355 1_455 S
O303 Eu285 2.670 1_554 S
O303 C292 1.270 . S
O304 Eu285 2.394 1_655 S
O304 C293 1.251 . S
O305 Eu275 2.374 . S
O305 C293 1.251 1_554 S
H306 C277 0.931 1_655 S
H307 C278 0.931 1_655 S
H308 C280 0.931 . S
H309 C281 0.931 . S
H310 C287 0.931 . S
H311 C288 0.931 . S
H312 C290 0.931 . S
H313 C291 0.931 . S
C314 Eu315 2.835 . S
C314 C316 1.500 . S
C314 O334 1.257 . S
C314 O335 1.260 . S
Eu315 C314 2.835 . S
Eu315 O334 2.473 . S
Eu315 O335 2.480 . S
Eu315 O336 2.430 . S
Eu315 O337 2.670 1_556 S
Eu315 O338 2.394 . S
Eu315 O343 2.355 1_556 S
Eu315 O345 2.374 1_556 S
C316 C314 1.500 . S
C316 C317 1.377 . S
C316 C321 1.377 . S
C317 C316 1.377 . S
C317 C318 1.395 . S
C317 H346 0.931 . S
C318 C317 1.395 . S
C318 C319 1.383 . S
C318 H347 0.931 . S
C319 C318 1.383 . S
C319 C320 1.394 . S
C320 C319 1.394 . S
C320 C321 1.378 . S
C320 H348 0.931 . S
C321 C316 1.377 . S
C321 C320 1.378 . S
C321 H349 0.931 . S
C322 O336 1.259 1_554 S
C322 O337 1.270 . S
C323 O338 1.251 . S
C323 O339 1.251 1_556 S
C324 Eu325 2.835 . S
C324 C326 1.500 . S
C324 O340 1.257 . S
C324 O341 1.260 . S
Eu325 C324 2.835 . S
Eu325 O337 2.355 . S
Eu325 O339 2.374 . S
Eu325 O340 2.473 . S
Eu325 O341 2.480 . S
Eu325 O342 2.430 . S
Eu325 O343 2.670 . S
Eu325 O344 2.394 . S
C326 C324 1.500 . S
C326 C327 1.377 . S
C326 C331 1.377 . S
C327 C326 1.377 . S
C327 C328 1.395 . S
C327 H350 0.931 . S
C328 C327 1.395 . S
C328 C329 1.383 . S
C328 H351 0.931 . S
C329 C328 1.383 . S
C329 C330 1.394 . S
C330 C329 1.394 . S
C330 C331 1.378 . S
C330 H352 0.931 . S
C331 C326 1.377 . S
C331 C330 1.378 . S
C331 H353 0.931 . S
C332 O342 1.259 . S
C332 O343 1.270 . S
C333 O344 1.251 . S
C333 O345 1.251 . S
O334 C314 1.257 . S
O334 Eu315 2.473 . S
O335 C314 1.260 . S
O335 Eu315 2.480 . S
O336 Eu315 2.430 . S
O336 C322 1.259 1_556 S
O337 Eu315 2.670 1_554 S
O337 C322 1.270 . S
O337 Eu325 2.355 . S
O338 Eu315 2.394 . S
O338 C323 1.251 . S
O339 C323 1.251 1_554 S
O339 Eu325 2.374 . S
O340 C324 1.257 . S
O340 Eu325 2.473 . S
O341 C324 1.260 . S
O341 Eu325 2.480 . S
O342 Eu325 2.430 . S
O342 C332 1.259 . S
O343 Eu315 2.355 1_554 S
O343 Eu325 2.670 . S
O343 C332 1.270 . S
O344 Eu325 2.394 . S
O344 C333 1.251 . S
O345 Eu315 2.374 1_554 S
O345 C333 1.251 . S
H346 C317 0.931 . S
H347 C318 0.931 . S
H348 C320 0.931 . S
H349 C321 0.931 . S
H350 C327 0.931 . S
H351 C328 0.931 . S
H352 C330 0.931 . S
H353 C331 0.931 . S
C354 Eu355 2.835 . S
C354 C356 1.500 . S
C354 O374 1.257 . S
C354 O375 1.260 . S
Eu355 C354 2.835 . S
Eu355 O374 2.473 . S
Eu355 O375 2.480 . S
Eu355 O376 2.430 . S
Eu355 O377 2.670 . S
Eu355 O378 2.394 . S
Eu355 O383 2.355 . S
Eu355 O385 2.374 . S
C356 C354 1.500 . S
C356 C357 1.377 . S
C356 C361 1.377 . S
C357 C356 1.377 . S
C357 C358 1.395 . S
C357 H386 0.931 . S
C358 C357 1.395 . S
C358 C359 1.383 . S
C358 H387 0.931 . S
C359 C358 1.383 . S
C359 C360 1.394 . S
C360 C359 1.394 . S
C360 C361 1.378 . S
C360 H388 0.931 . S
C361 C356 1.377 . S
C361 C360 1.378 . S
C361 H389 0.931 . S
C362 O376 1.259 . S
C362 O377 1.270 . S
C363 O378 1.251 . S
C363 O379 1.251 . S
C364 Eu365 2.835 . S
C364 C366 1.500 . S
C364 O380 1.257 . S
C364 O381 1.260 . S
Eu365 C364 2.835 . S
Eu365 O377 2.355 . S
Eu365 O379 2.374 . S
Eu365 O380 2.473 . S
Eu365 O381 2.480 . S
Eu365 O382 2.430 . S
Eu365 O383 2.670 . S
Eu365 O384 2.394 . S
C366 C364 1.500 . S
C366 C367 1.377 . S
C366 C371 1.377 . S
C367 C366 1.377 . S
C367 C368 1.395 . S
C367 H390 0.931 . S
C368 C367 1.395 . S
C368 C369 1.383 . S
C368 H391 0.931 . S
C369 C368 1.383 . S
C369 C370 1.394 . S
C370 C369 1.394 . S
C370 C371 1.378 . S
C370 H392 0.931 . S
C371 C366 1.377 . S
C371 C370 1.378 . S
C371 H393 0.931 . S
C372 O382 1.259 . S
C372 O383 1.270 . S
C373 O384 1.251 . S
C373 O385 1.251 . S
O374 C354 1.257 . S
O374 Eu355 2.473 . S
O375 C354 1.260 . S
O375 Eu355 2.480 . S
O376 Eu355 2.430 . S
O376 C362 1.259 . S
O377 Eu355 2.670 . S
O377 C362 1.270 . S
O377 Eu365 2.355 . S
O378 Eu355 2.394 . S
O378 C363 1.251 . S
O379 C363 1.251 . S
O379 Eu365 2.374 . S
O380 C364 1.257 . S
O380 Eu365 2.473 . S
O381 C364 1.260 . S
O381 Eu365 2.480 . S
O382 Eu365 2.430 . S
O382 C372 1.259 . S
O383 Eu355 2.355 . S
O383 Eu365 2.670 . S
O383 C372 1.270 . S
O384 Eu365 2.394 . S
O384 C373 1.251 . S
O385 Eu355 2.374 . S
O385 C373 1.251 . S
H386 C357 0.931 . S
H387 C358 0.931 . S
H388 C360 0.931 . S
H389 C361 0.931 . S
H390 C367 0.931 . S
H391 C368 0.931 . S
H392 C370 0.931 . S
H393 C371 0.931 . S
C394 Eu395 2.835 . S
C394 C396 1.500 . S
C394 O414 1.257 . S
C394 O415 1.260 . S
Eu395 C394 2.835 . S
Eu395 O414 2.473 . S
Eu395 O415 2.480 . S
Eu395 O416 2.430 . S
Eu395 O417 2.670 . S
Eu395 O418 2.394 . S
Eu395 O423 2.355 . S
Eu395 O425 2.374 . S
C396 C394 1.500 . S
C396 C397 1.377 . S
C396 C401 1.377 . S
C397 C396 1.377 . S
C397 C398 1.395 . S
C397 H426 0.931 . S
C398 C397 1.395 . S
C398 C399 1.383 . S
C398 H427 0.931 . S
C399 C398 1.383 . S
C399 C400 1.394 . S
C400 C399 1.394 . S
C400 C401 1.378 . S
C400 H428 0.931 . S
C401 C396 1.377 . S
C401 C400 1.378 . S
C401 H429 0.931 . S
C402 O416 1.259 . S
C402 O417 1.270 . S
C403 O418 1.251 . S
C403 O419 1.251 . S
C404 Eu405 2.835 . S
C404 C406 1.500 . S
C404 O420 1.257 . S
C404 O421 1.260 . S
Eu405 C404 2.835 . S
Eu405 O417 2.355 . S
Eu405 O419 2.374 . S
Eu405 O420 2.473 . S
Eu405 O421 2.480 . S
Eu405 O422 2.430 . S
Eu405 O423 2.670 . S
Eu405 O424 2.394 . S
C406 C404 1.500 . S
C406 C407 1.377 . S
C406 C411 1.377 . S
C407 C406 1.377 . S
C407 C408 1.395 . S
C407 H430 0.931 . S
C408 C407 1.395 . S
C408 C409 1.383 . S
C408 H431 0.931 . S
C409 C408 1.383 . S
C409 C410 1.394 . S
C410 C409 1.394 . S
C410 C411 1.378 . S
C410 H432 0.931 . S
C411 C406 1.377 . S
C411 C410 1.378 . S
C411 H433 0.931 . S
C412 O422 1.259 . S
C412 O423 1.270 . S
C413 O424 1.251 . S
C413 O425 1.251 . S
O414 C394 1.257 . S
O414 Eu395 2.473 . S
O415 C394 1.260 . S
O415 Eu395 2.480 . S
O416 Eu395 2.430 . S
O416 C402 1.259 . S
O417 Eu395 2.670 . S
O417 C402 1.270 . S
O417 Eu405 2.355 . S
O418 Eu395 2.394 . S
O418 C403 1.251 . S
O419 C403 1.251 . S
O419 Eu405 2.374 . S
O420 C404 1.257 . S
O420 Eu405 2.473 . S
O421 C404 1.260 . S
O421 Eu405 2.480 . S
O422 Eu405 2.430 . S
O422 C412 1.259 . S
O423 Eu395 2.355 . S
O423 Eu405 2.670 . S
O423 C412 1.270 . S
O424 Eu405 2.394 . S
O424 C413 1.251 . S
O425 Eu395 2.374 . S
O425 C413 1.251 . S
H426 C397 0.931 . S
H427 C398 0.931 . S
H428 C400 0.931 . S
H429 C401 0.931 . S
H430 C407 0.931 . S
H431 C408 0.931 . S
H432 C410 0.931 . S
H433 C411 0.931 . S
C434 Eu435 2.835 . S
C434 C436 1.500 . S
C434 O454 1.257 . S
C434 O455 1.260 . S
Eu435 C434 2.835 . S
Eu435 O454 2.473 . S
Eu435 O455 2.480 . S
Eu435 O456 2.430 . S
Eu435 O457 2.670 . S
Eu435 O458 2.394 . S
Eu435 O463 2.355 . S
Eu435 O465 2.374 . S
C436 C434 1.500 . S
C436 C437 1.377 . S
C436 C441 1.377 . S
C437 C436 1.377 . S
C437 C438 1.395 . S
C437 H466 0.931 . S
C438 C437 1.395 . S
C438 C439 1.383 . S
C438 H467 0.931 . S
C439 C438 1.383 . S
C439 C440 1.394 . S
C440 C439 1.394 . S
C440 C441 1.378 . S
C440 H468 0.931 . S
C441 C436 1.377 . S
C441 C440 1.378 . S
C441 H469 0.931 . S
C442 O456 1.259 . S
C442 O457 1.270 . S
C443 O458 1.251 . S
C443 O459 1.251 . S
C444 Eu445 2.835 . S
C444 C446 1.500 . S
C444 O460 1.257 . S
C444 O461 1.260 . S
Eu445 C444 2.835 . S
Eu445 O457 2.355 . S
Eu445 O459 2.374 . S
Eu445 O460 2.473 . S
Eu445 O461 2.480 . S
Eu445 O462 2.430 . S
Eu445 O463 2.670 . S
Eu445 O464 2.394 . S
C446 C444 1.500 . S
C446 C447 1.377 . S
C446 C451 1.377 . S
C447 C446 1.377 . S
C447 C448 1.395 . S
C447 H470 0.931 . S
C448 C447 1.395 . S
C448 C449 1.383 . S
C448 H471 0.931 . S
C449 C448 1.383 . S
C449 C450 1.394 . S
C450 C449 1.394 . S
C450 C451 1.378 . S
C450 H472 0.931 . S
C451 C446 1.377 . S
C451 C450 1.378 . S
C451 H473 0.931 . S
C452 O462 1.259 . S
C452 O463 1.270 . S
C453 O464 1.251 . S
C453 O465 1.251 . S
O454 C434 1.257 . S
O454 Eu435 2.473 . S
O455 C434 1.260 . S
O455 Eu435 2.480 . S
O456 Eu435 2.430 . S
O456 C442 1.259 . S
O457 Eu435 2.670 . S
O457 C442 1.270 . S
O457 Eu445 2.355 . S
O458 Eu435 2.394 . S
O458 C443 1.251 . S
O459 C443 1.251 . S
O459 Eu445 2.374 . S
O460 C444 1.257 . S
O460 Eu445 2.473 . S
O461 C444 1.260 . S
O461 Eu445 2.480 . S
O462 Eu445 2.430 . S
O462 C452 1.259 . S
O463 Eu435 2.355 . S
O463 Eu445 2.670 . S
O463 C452 1.270 . S
O464 Eu445 2.394 . S
O464 C453 1.251 . S
O465 Eu435 2.374 . S
O465 C453 1.251 . S
H466 C437 0.931 . S
H467 C438 0.931 . S
H468 C440 0.931 . S
H469 C441 0.931 . S
H470 C447 0.931 . S
H471 C448 0.931 . S
H472 C450 0.931 . S
H473 C451 0.931 . S
C474 Eu475 2.835 . S
C474 C476 1.500 . S
C474 O494 1.257 . S
C474 O495 1.260 . S
Eu475 C474 2.835 . S
Eu475 O494 2.473 . S
Eu475 O495 2.480 . S
Eu475 O496 2.430 . S
Eu475 O497 2.670 . S
Eu475 O498 2.394 . S
Eu475 O503 2.355 . S
Eu475 O505 2.374 . S
C476 C474 1.500 . S
C476 C477 1.377 . S
C476 C481 1.377 . S
C477 C476 1.377 . S
C477 C478 1.395 . S
C477 H506 0.931 . S
C478 C477 1.395 . S
C478 C479 1.383 . S
C478 H507 0.931 . S
C479 C478 1.383 . S
C479 C480 1.394 . S
C480 C479 1.394 . S
C480 C481 1.378 . S
C480 H508 0.931 . S
C481 C476 1.377 . S
C481 C480 1.378 . S
C481 H509 0.931 . S
C482 O496 1.259 . S
C482 O497 1.270 . S
C483 O498 1.251 . S
C483 O499 1.251 . S
C484 Eu485 2.835 . S
C484 C486 1.500 . S
C484 O500 1.257 . S
C484 O501 1.260 . S
Eu485 C484 2.835 . S
Eu485 O497 2.355 . S
Eu485 O499 2.374 . S
Eu485 O500 2.473 . S
Eu485 O501 2.480 . S
Eu485 O502 2.430 . S
Eu485 O503 2.670 . S
Eu485 O504 2.394 . S
C486 C484 1.500 . S
C486 C487 1.377 . S
C486 C491 1.377 . S
C487 C486 1.377 . S
C487 C488 1.395 . S
C487 H510 0.931 . S
C488 C487 1.395 . S
C488 C489 1.383 . S
C488 H511 0.931 . S
C489 C488 1.383 . S
C489 C490 1.394 . S
C490 C489 1.394 . S
C490 C491 1.378 . S
C490 H512 0.931 . S
C491 C486 1.377 . S
C491 C490 1.378 . S
C491 H513 0.931 . S
C492 O502 1.259 . S
C492 O503 1.270 . S
C493 O504 1.251 . S
C493 O505 1.251 . S
O494 C474 1.257 . S
O494 Eu475 2.473 . S
O495 C474 1.260 . S
O495 Eu475 2.480 . S
O496 Eu475 2.430 . S
O496 C482 1.259 . S
O497 Eu475 2.670 . S
O497 C482 1.270 . S
O497 Eu485 2.355 . S
O498 Eu475 2.394 . S
O498 C483 1.251 . S
O499 C483 1.251 . S
O499 Eu485 2.374 . S
O500 C484 1.257 . S
O500 Eu485 2.473 . S
O501 C484 1.260 . S
O501 Eu485 2.480 . S
O502 Eu485 2.430 . S
O502 C492 1.259 . S
O503 Eu475 2.355 . S
O503 Eu485 2.670 . S
O503 C492 1.270 . S
O504 Eu485 2.394 . S
O504 C493 1.251 . S
O505 Eu475 2.374 . S
O505 C493 1.251 . S
H506 C477 0.931 . S
H507 C478 0.931 . S
H508 C480 0.931 . S
H509 C481 0.931 . S
H510 C487 0.931 . S
H511 C488 0.931 . S
H512 C490 0.931 . S
H513 C491 0.931 . S
C514 Eu515 2.835 . S
C514 C516 1.500 . S
C514 O534 1.257 . S
C514 O535 1.260 . S
Eu515 C514 2.835 . S
Eu515 O534 2.473 . S
Eu515 O535 2.480 . S
Eu515 O536 2.430 . S
Eu515 O537 2.670 . S
Eu515 O538 2.394 . S
Eu515 O543 2.355 . S
Eu515 O545 2.374 . S
C516 C514 1.500 . S
C516 C517 1.377 . S
C516 C521 1.377 . S
C517 C516 1.377 . S
C517 C518 1.395 . S
C517 H546 0.931 . S
C518 C517 1.395 . S
C518 C519 1.383 . S
C518 H547 0.931 . S
C519 C518 1.383 . S
C519 C520 1.394 . S
C520 C519 1.394 . S
C520 C521 1.378 . S
C520 H548 0.931 . S
C521 C516 1.377 . S
C521 C520 1.378 . S
C521 H549 0.931 . S
C522 O536 1.259 . S
C522 O537 1.270 . S
C523 O538 1.251 . S
C523 O539 1.251 . S
C524 Eu525 2.835 . S
C524 C526 1.500 . S
C524 O540 1.257 . S
C524 O541 1.260 . S
Eu525 C524 2.835 . S
Eu525 O537 2.355 . S
Eu525 O539 2.374 . S
Eu525 O540 2.473 . S
Eu525 O541 2.480 . S
Eu525 O542 2.430 . S
Eu525 O543 2.670 . S
Eu525 O544 2.394 . S
C526 C524 1.500 . S
C526 C527 1.377 . S
C526 C531 1.377 . S
C527 C526 1.377 . S
C527 C528 1.395 . S
C527 H550 0.931 . S
C528 C527 1.395 . S
C528 C529 1.383 . S
C528 H551 0.931 . S
C529 C528 1.383 . S
C529 C530 1.394 . S
C530 C529 1.394 . S
C530 C531 1.378 . S
C530 H552 0.931 . S
C531 C526 1.377 . S
C531 C530 1.378 . S
C531 H553 0.931 . S
C532 O542 1.259 . S
C532 O543 1.270 . S
C533 O544 1.251 . S
C533 O545 1.251 . S
O534 C514 1.257 . S
O534 Eu515 2.473 . S
O535 C514 1.260 . S
O535 Eu515 2.480 . S
O536 Eu515 2.430 . S
O536 C522 1.259 . S
O537 Eu515 2.670 . S
O537 C522 1.270 . S
O537 Eu525 2.355 . S
O538 Eu515 2.394 . S
O538 C523 1.251 . S
O539 C523 1.251 . S
O539 Eu525 2.374 . S
O540 C524 1.257 . S
O540 Eu525 2.473 . S
O541 C524 1.260 . S
O541 Eu525 2.480 . S
O542 Eu525 2.430 . S
O542 C532 1.259 . S
O543 Eu515 2.355 . S
O543 Eu525 2.670 . S
O543 C532 1.270 . S
O544 Eu525 2.394 . S
O544 C533 1.251 . S
O545 Eu515 2.374 . S
O545 C533 1.251 . S
H546 C517 0.931 . S
H547 C518 0.931 . S
H548 C520 0.931 . S
H549 C521 0.931 . S
H550 C527 0.931 . S
H551 C528 0.931 . S
H552 C530 0.931 . S
H553 C531 0.931 . S
C554 Eu555 2.835 . S
C554 C556 1.500 . S
C554 O574 1.257 . S
C554 O575 1.260 . S
Eu555 C554 2.835 . S
Eu555 O574 2.473 . S
Eu555 O575 2.480 . S
Eu555 O576 2.430 . S
Eu555 O577 2.670 . S
Eu555 O578 2.394 . S
Eu555 O583 2.355 . S
Eu555 O585 2.374 . S
C556 C554 1.500 . S
C556 C557 1.377 . S
C556 C561 1.377 . S
C557 C556 1.377 . S
C557 C558 1.395 . S
C557 H586 0.931 . S
C558 C557 1.395 . S
C558 C559 1.383 . S
C558 H587 0.931 . S
C559 C558 1.383 . S
C559 C560 1.394 . S
C560 C559 1.394 . S
C560 C561 1.378 . S
C560 H588 0.931 . S
C561 C556 1.377 . S
C561 C560 1.378 . S
C561 H589 0.931 . S
C562 O576 1.259 . S
C562 O577 1.270 . S
C563 O578 1.251 . S
C563 O579 1.251 . S
C564 Eu565 2.835 . S
C564 C566 1.500 . S
C564 O580 1.257 . S
C564 O581 1.260 . S
Eu565 C564 2.835 . S
Eu565 O577 2.355 . S
Eu565 O579 2.374 . S
Eu565 O580 2.473 . S
Eu565 O581 2.480 . S
Eu565 O582 2.430 . S
Eu565 O583 2.670 . S
Eu565 O584 2.394 . S
C566 C564 1.500 . S
C566 C567 1.377 . S
C566 C571 1.377 . S
C567 C566 1.377 . S
C567 C568 1.395 . S
C567 H590 0.931 . S
C568 C567 1.395 . S
C568 C569 1.383 . S
C568 H591 0.931 . S
C569 C568 1.383 . S
C569 C570 1.394 . S
C570 C569 1.394 . S
C570 C571 1.378 . S
C570 H592 0.931 . S
C571 C566 1.377 . S
C571 C570 1.378 . S
C571 H593 0.931 . S
C572 O582 1.259 . S
C572 O583 1.270 . S
C573 O584 1.251 . S
C573 O585 1.251 . S
O574 C554 1.257 . S
O574 Eu555 2.473 . S
O575 C554 1.260 . S
O575 Eu555 2.480 . S
O576 Eu555 2.430 . S
O576 C562 1.259 . S
O577 Eu555 2.670 . S
O577 C562 1.270 . S
O577 Eu565 2.355 . S
O578 Eu555 2.394 . S
O578 C563 1.251 . S
O579 C563 1.251 . S
O579 Eu565 2.374 . S
O580 C564 1.257 . S
O580 Eu565 2.473 . S
O581 C564 1.260 . S
O581 Eu565 2.480 . S
O582 Eu565 2.430 . S
O582 C572 1.259 . S
O583 Eu555 2.355 . S
O583 Eu565 2.670 . S
O583 C572 1.270 . S
O584 Eu565 2.394 . S
O584 C573 1.251 . S
O585 Eu555 2.374 . S
O585 C573 1.251 . S
H586 C557 0.931 . S
H587 C558 0.931 . S
H588 C560 0.931 . S
H589 C561 0.931 . S
H590 C567 0.931 . S
H591 C568 0.931 . S
H592 C570 0.931 . S
H593 C571 0.931 . S
C594 C595 1.363 . S
C594 C600 1.379 . S
C594 N602 1.356 . S
C595 C594 1.363 . S
C595 C601 1.363 . S
C596 C597 1.363 . S
C596 C601 1.379 . S
C596 N603 1.356 . S
C597 C596 1.363 . S
C597 C600 1.363 . S
N598 C600 1.339 1_556 S
N598 H610 1.003 . S
N598 H611 0.984 1_556 S
N599 C601 1.356 . S
N599 H604 0.984 . S
N599 H605 0.985 . S
C600 C594 1.379 . S
C600 C597 1.363 . S
C600 N598 1.339 1_554 S
C601 C595 1.363 . S
C601 C596 1.379 . S
C601 N599 1.356 . S
N602 C594 1.356 . S
N602 H608 0.984 1_554 S
N602 H609 0.984 . S
N603 C596 1.356 . S
N603 H606 0.984 . S
N603 H607 0.985 . S
H604 N599 0.984 . S
H605 N599 0.985 . S
H606 N603 0.984 . S
H607 N603 0.985 . S
H608 N602 0.984 1_556 S
H609 N602 0.984 . S
H610 N598 1.003 . S
H611 N598 0.984 1_554 S
C612 C613 1.363 . S
C612 C618 1.379 . S
C612 N620 1.356 . S
C613 C612 1.363 . S
C613 C619 1.363 . S
C614 C615 1.363 . S
C614 C619 1.379 . S
C614 N621 1.356 . S
C615 C614 1.363 . S
C615 C618 1.363 . S
N616 C618 1.356 1_556 S
N616 H628 0.984 . S
N616 H629 0.985 . S
N617 C619 1.356 . S
N617 H622 0.984 . S
N617 H623 0.985 . S
C618 C612 1.379 . S
C618 C615 1.363 . S
C618 N616 1.356 1_554 S
C619 C613 1.363 . S
C619 C614 1.379 . S
C619 N617 1.356 . S
N620 C612 1.356 . S
N620 H626 0.984 1_554 S
N620 H627 0.984 . S
N621 C614 1.356 . S
N621 H624 0.984 . S
N621 H625 0.985 . S
H622 N617 0.984 . S
H623 N617 0.985 . S
H624 N621 0.984 . S
H625 N621 0.985 . S
H626 N620 0.984 1_556 S
H627 N620 0.984 . S
H628 N616 0.984 . S
H629 N616 0.985 . S
C630 C631 1.363 . S
C630 C636 1.379 . S
C630 N638 1.356 1_554 S
C631 C630 1.363 . S
C631 C637 1.363 . S
C632 C633 1.363 . S
C632 C637 1.379 . S
C632 N639 1.356 . S
C633 C632 1.363 . S
C633 C636 1.363 . S
N634 C636 1.356 1_556 S
N634 H646 0.984 . S
N634 H647 0.985 . S
N635 C637 1.356 . S
N635 H640 0.984 . S
N635 H641 0.985 . S
C636 C630 1.379 . S
C636 C633 1.363 . S
C636 N634 1.356 1_554 S
C637 C631 1.363 . S
C637 C632 1.379 . S
C637 N635 1.356 . S
N638 C630 1.356 1_556 S
N638 H644 0.984 . S
N638 H645 0.984 . S
N639 C632 1.356 . S
N639 H642 0.984 . S
N639 H643 0.985 . S
H640 N635 0.984 . S
H641 N635 0.985 . S
H642 N639 0.984 . S
H643 N639 0.985 . S
H644 N638 0.984 . S
H645 N638 0.984 . S
H646 N634 0.984 . S
H647 N634 0.985 . S
C648 C649 1.363 . S
C648 C654 1.379 . S
C648 N656 1.356 . S
C649 C648 1.363 . S
C649 C655 1.363 1_556 S
C650 C651 1.363 1_554 S
C650 C655 1.379 . S
C650 N657 1.356 . S
C651 C650 1.363 1_556 S
C651 C654 1.363 . S
N652 C654 1.356 . S
N652 H664 0.984 . S
N652 H665 0.985 . S
N653 C655 1.356 . S
N653 H658 0.984 . S
N653 H659 0.985 . S
C654 C648 1.379 . S
C654 C651 1.363 . S
C654 N652 1.356 . S
C655 C649 1.363 1_554 S
C655 C650 1.379 . S
C655 N653 1.356 . S
N656 C648 1.356 . S
N656 H662 0.984 . S
N656 H663 0.984 . S
N657 C650 1.356 . S
N657 H660 0.984 . S
N657 H661 0.985 . S
H658 N653 0.984 . S
H659 N653 0.985 . S
H660 N657 0.984 . S
H661 N657 0.985 . S
H662 N656 0.984 . S
H663 N656 0.984 . S
H664 N652 0.984 . S
H665 N652 0.985 . S
C666 C667 1.363 . S
C666 C672 1.379 . S
C666 N674 1.356 . S
C667 C666 1.363 . S
C667 C673 1.363 . S
C668 C669 1.351 1_554 S
C668 C673 1.367 1_554 S
C668 N675 1.380 . S
C669 C668 1.351 1_556 S
C669 C672 1.363 . S
N670 C672 1.356 . S
N670 H682 0.984 . S
N670 H683 0.985 . S
N671 C673 1.356 . S
N671 H676 0.984 . S
N671 H677 0.985 1_556 S
C672 C666 1.379 . S
C672 C669 1.363 . S
C672 N670 1.356 . S
C673 C667 1.363 . S
C673 C668 1.367 1_556 S
C673 N671 1.356 . S
N674 C666 1.356 . S
N674 H680 0.984 . S
N674 H681 0.984 . S
N675 C668 1.380 . S
N675 H678 0.984 . S
N675 H679 0.985 . S
H676 N671 0.984 . S
H677 N671 0.985 1_554 S
H678 N675 0.984 . S
H679 N675 0.985 . S
H680 N674 0.984 . S
H681 N674 0.984 . S
H682 N670 0.984 . S
H683 N670 0.985 . S
C684 C685 1.363 . S
C684 C690 1.379 . S
C684 N692 1.356 . S
C685 C684 1.363 . S
C685 C691 1.352 1_556 S
C686 C687 1.363 1_554 S
C686 C691 1.382 . S
C686 N693 1.356 . S
C687 C686 1.363 1_556 S
C687 C690 1.363 . S
N688 C690 1.356 . S
N688 H700 0.984 . S
N688 H701 0.985 . S
N689 C691 1.362 . S
N689 H694 0.984 1_554 S
N689 H695 0.985 . S
C690 C684 1.379 . S
C690 C687 1.363 . S
C690 N688 1.356 . S
C691 C685 1.352 1_554 S
C691 C686 1.382 . S
C691 N689 1.362 . S
N692 C684 1.356 . S
N692 H698 0.984 . S
N692 H699 0.984 . S
N693 C686 1.356 . S
N693 H696 0.984 . S
N693 H697 0.985 . S
H694 N689 0.984 1_556 S
H695 N689 0.985 . S
H696 N693 0.984 . S
H697 N693 0.985 . S
H698 N692 0.984 . S
H699 N692 0.984 . S
H700 N688 0.984 . S
H701 N688 0.985 . S
C702 C703 1.363 . S
C702 C708 1.379 . S
C702 N710 1.356 . S
C703 C702 1.363 . S
C703 C709 1.363 . S
C704 C705 1.363 . S
C704 C709 1.379 . S
C704 N711 1.356 . S
C705 C704 1.363 . S
C705 C708 1.363 . S
N706 C708 1.356 1_554 S
N706 H718 0.984 . S
N706 H719 0.985 . S
N707 C709 1.356 . S
N707 H712 0.984 . S
N707 H713 0.985 . S
C708 C702 1.379 . S
C708 C705 1.363 . S
C708 N706 1.356 1_556 S
C709 C703 1.363 . S
C709 C704 1.379 . S
C709 N707 1.356 . S
N710 C702 1.356 . S
N710 H716 0.984 1_556 S
N710 H717 0.984 . S
N711 C704 1.356 . S
N711 H714 0.984 . S
N711 H715 0.985 . S
H712 N707 0.984 . S
H713 N707 0.985 . S
H714 N711 0.984 . S
H715 N711 0.985 . S
H716 N710 0.984 1_554 S
H717 N710 0.984 . S
H718 N706 0.984 . S
H719 N706 0.985 . S
C720 C721 1.363 . S
C720 C726 1.379 . S
C720 N728 1.356 . S
C721 C720 1.363 . S
C721 C727 1.363 . S
C722 C723 1.363 . S
C722 C727 1.379 . S
C722 N729 1.356 . S
C723 C722 1.363 . S
C723 C726 1.363 . S
N724 C726 1.356 . S
N724 H736 0.984 1_556 S
N724 H737 0.985 . S
N725 C727 1.356 . S
N725 H730 0.984 . S
N725 H731 0.985 . S
C726 C720 1.379 . S
C726 C723 1.363 . S
C726 N724 1.356 . S
C727 C721 1.363 . S
C727 C722 1.379 . S
C727 N725 1.356 . S
N728 C720 1.356 . S
N728 H734 0.984 . S
N728 H735 0.984 . S
N729 C722 1.356 . S
N729 H732 0.984 . S
N729 H733 0.985 . S
H730 N725 0.984 . S
H731 N725 0.985 . S
H732 N729 0.984 . S
H733 N729 0.985 . S
H734 N728 0.984 . S
H735 N728 0.984 . S
H736 N724 0.984 1_554 S
H737 N724 0.985 . S
C738 C739 1.363 . S
C738 C744 1.379 . S
C738 N746 1.356 . S
C739 C738 1.363 . S
C739 C745 1.363 1_556 S
C740 C741 1.363 . S
C740 C745 1.379 . S
C740 N747 1.356 . S
C741 C740 1.363 . S
C741 C744 1.363 1_554 S
N742 C744 1.356 . S
N742 H754 0.984 . S
N742 H755 0.985 . S
N743 C745 1.356 . S
N743 H748 0.984 . S
N743 H749 0.985 . S
C744 C738 1.379 . S
C744 C741 1.363 1_556 S
C744 N742 1.356 . S
C745 C739 1.363 1_554 S
C745 C740 1.379 . S
C745 N743 1.356 . S
N746 C738 1.356 . S
N746 H752 0.984 . S
N746 H753 0.984 . S
N747 C740 1.356 . S
N747 H750 0.984 . S
N747 H751 0.985 . S
H748 N743 0.984 . S
H749 N743 0.985 . S
H750 N747 0.984 . S
H751 N747 0.985 . S
H752 N746 0.984 . S
H753 N746 0.984 . S
H754 N742 0.984 . S
H755 N742 0.985 . S
C756 C757 1.363 . S
C756 C762 1.379 . S
C756 N764 1.356 . S
C757 C756 1.363 . S
C757 C763 1.363 . S
C758 C759 1.363 . S
C758 C763 1.379 . S
C758 N765 1.356 1_554 S
C759 C758 1.363 . S
C759 C762 1.363 . S
N760 C762 1.356 . S
N760 H772 0.984 . S
N760 H773 0.985 . S
N761 C763 1.356 . S
N761 H766 0.984 . S
N761 H767 0.985 1_554 S
C762 C756 1.379 . S
C762 C759 1.363 . S
C762 N760 1.356 . S
C763 C757 1.363 . S
C763 C758 1.379 . S
C763 N761 1.356 . S
N764 C756 1.356 . S
N764 H770 0.984 . S
N764 H771 0.984 . S
N765 C758 1.356 1_556 S
N765 H768 0.984 . S
N765 H769 0.985 . S
H766 N761 0.984 . S
H767 N761 0.985 1_556 S
H768 N765 0.984 . S
H769 N765 0.985 . S
H770 N764 0.984 . S
H771 N764 0.984 . S
H772 N760 0.984 . S
H773 N760 0.985 . S
C774 C775 1.363 . S
C774 C780 1.379 . S
C774 N782 1.356 . S
C775 C774 1.363 . S
C775 C781 1.363 . S
C776 C777 1.363 . S
C776 C781 1.379 . S
C776 N783 1.356 . S
C777 C776 1.363 . S
C777 C780 1.363 . S
N778 C780 1.356 . S
N778 H790 0.984 . S
N778 H791 0.985 . S
N779 C781 1.356 . S
N779 H784 0.984 . S
N779 H785 0.985 . S
C780 C774 1.379 . S
C780 C777 1.363 . S
C780 N778 1.356 . S
C781 C775 1.363 . S
C781 C776 1.379 . S
C781 N779 1.356 . S
N782 C774 1.356 . S
N782 H788 0.984 . S
N782 H789 0.984 . S
N783 C776 1.356 . S
N783 H786 0.984 . S
N783 H787 0.985 . S
H784 N779 0.984 . S
H785 N779 0.985 . S
H786 N783 0.984 . S
H787 N783 0.985 . S
H788 N782 0.984 . S
H789 N782 0.984 . S
H790 N778 0.984 . S
H791 N778 0.985 . S
C792 C793 1.363 . S
C792 C798 1.379 . S
C792 N800 1.356 1_554 S
C793 C792 1.363 . S
C793 C799 1.363 . S
C794 C795 1.363 . S
C794 C799 1.379 . S
C794 N801 1.356 . S
C795 C794 1.363 . S
C795 C798 1.363 . S
N796 C798 1.356 1_556 S
N796 H808 0.984 . S
N796 H809 0.985 . S
N797 C799 1.356 . S
N797 H802 0.984 . S
N797 H803 0.985 . S
C798 C792 1.379 . S
C798 C795 1.363 . S
C798 N796 1.356 1_554 S
C799 C793 1.363 . S
C799 C794 1.379 . S
C799 N797 1.356 . S
N800 C792 1.356 1_556 S
N800 H806 0.984 . S
N800 H807 0.984 1_556 S
N801 C794 1.356 . S
N801 H804 0.984 . S
N801 H805 0.985 . S
H802 N797 0.984 . S
H803 N797 0.985 . S
H804 N801 0.984 . S
H805 N801 0.985 . S
H806 N800 0.984 . S
H807 N800 0.984 1_554 S
H808 N796 0.984 . S
H809 N796 0.985 . S
C810 C811 1.363 . S
C810 C816 1.379 1_655 S
C810 N818 1.356 . S
C811 C810 1.363 . S
C811 C817 1.363 . S
C812 C813 1.363 . S
C812 C817 1.379 1_455 S
C812 N819 1.356 . S
C813 C812 1.363 . S
C813 C816 1.363 . S
N814 C816 1.356 . S
N814 H826 0.984 . S
N814 H827 0.985 . S
N815 C817 1.356 . S
N815 H820 0.984 . S
N815 H821 0.985 . S
C816 C810 1.379 1_455 S
C816 C813 1.363 . S
C816 N814 1.356 . S
C817 C811 1.363 . S
C817 C812 1.379 1_655 S
C817 N815 1.356 . S
N818 C810 1.356 . S
N818 H824 0.984 . S
N818 H825 0.984 . S
N819 C812 1.356 . S
N819 H822 0.984 . S
N819 H823 0.985 . S
H820 N815 0.984 . S
H821 N815 0.985 . S
H822 N819 0.984 . S
H823 N819 0.985 . S
H824 N818 0.984 . S
H825 N818 0.984 . S
H826 N814 0.984 . S
H827 N814 0.985 . S
C828 C829 1.363 . S
C828 C834 1.379 . S
C828 N836 1.356 . S
C829 C828 1.363 . S
C829 C835 1.363 . S
C830 C831 1.363 . S
C830 C835 1.379 . S
C830 N837 1.356 . S
C831 C830 1.363 . S
C831 C834 1.363 . S
N832 C834 1.356 . S
N832 H844 0.984 . S
N832 H845 0.985 . S
N833 C835 1.356 . S
N833 H838 0.984 . S
N833 H839 0.985 . S
C834 C828 1.379 . S
C834 C831 1.363 . S
C834 N832 1.356 . S
C835 C829 1.363 . S
C835 C830 1.379 . S
C835 N833 1.356 . S
N836 C828 1.356 . S
N836 H842 0.984 . S
N836 H843 0.984 . S
N837 C830 1.356 . S
N837 H840 0.984 . S
N837 H841 0.985 . S
H838 N833 0.984 . S
H839 N833 0.985 . S
H840 N837 0.984 . S
H841 N837 0.985 . S
H842 N836 0.984 . S
H843 N836 0.984 . S
H844 N832 0.984 . S
H845 N832 0.985 . S
C846 C847 1.363 . S
C846 C852 1.379 1_545 S
C846 N854 1.356 . S
C847 C846 1.363 . S
C847 C853 1.363 . S
C848 C849 1.363 . S
C848 C853 1.379 1_565 S
C848 N855 1.356 . S
C849 C848 1.363 . S
C849 C852 1.363 . S
N850 C852 1.356 . S
N850 H862 0.984 . S
N850 H863 0.985 . S
N851 C853 1.356 . S
N851 H856 0.984 . S
N851 H857 0.985 . S
C852 C846 1.379 1_565 S
C852 C849 1.363 . S
C852 N850 1.356 . S
C853 C847 1.363 . S
C853 C848 1.379 1_545 S
C853 N851 1.356 . S
N854 C846 1.356 . S
N854 H860 0.984 . S
N854 H861 0.984 . S
N855 C848 1.356 . S
N855 H858 0.984 . S
N855 H859 0.985 . S
H856 N851 0.984 . S
H857 N851 0.985 . S
H858 N855 0.984 . S
H859 N855 0.985 . S
H860 N854 0.984 . S
H861 N854 0.984 . S
H862 N850 0.984 . S
H863 N850 0.985 . S
C864 C865 1.363 . S
C864 C870 1.379 . S
C864 N872 1.356 . S
C865 C864 1.363 . S
C865 C871 1.363 . S
C866 C867 1.363 . S
C866 C871 1.379 . S
C866 N873 1.356 . S
C867 C866 1.363 . S
C867 C870 1.363 . S
N868 C870 1.356 . S
N868 H880 0.984 . S
N868 H881 0.985 . S
N869 C871 1.356 . S
N869 H874 0.984 . S
N869 H875 0.985 . S
C870 C864 1.379 . S
C870 C867 1.363 . S
C870 N868 1.356 . S
C871 C865 1.363 . S
C871 C866 1.379 . S
C871 N869 1.356 . S
N872 C864 1.356 . S
N872 H878 0.984 . S
N872 H879 0.984 . S
N873 C866 1.356 . S
N873 H876 0.984 . S
N873 H877 0.985 . S
H874 N869 0.984 . S
H875 N869 0.985 . S
H876 N873 0.984 . S
H877 N873 0.985 . S
H878 N872 0.984 . S
H879 N872 0.984 . S
H880 N868 0.984 . S
H881 N868 0.985 . S
C882 C883 1.363 . S
C882 C888 1.379 . S
C882 N890 1.356 . S
C883 C882 1.363 . S
C883 C889 1.363 . S
C884 C885 1.363 . S
C884 C889 1.379 . S
C884 N891 1.356 . S
C885 C884 1.363 . S
C885 C888 1.363 . S
N886 C888 1.356 . S
N886 H898 0.984 . S
N886 H899 0.985 . S
N887 C889 1.356 . S
N887 H892 0.984 . S
N887 H893 0.985 . S
C888 C882 1.379 . S
C888 C885 1.363 . S
C888 N886 1.356 . S
C889 C883 1.363 . S
C889 C884 1.379 . S
C889 N887 1.356 . S
N890 C882 1.356 . S
N890 H896 0.984 . S
N890 H897 0.984 . S
N891 C884 1.356 . S
N891 H894 0.984 . S
N891 H895 0.985 . S
H892 N887 0.984 . S
H893 N887 0.985 . S
H894 N891 0.984 . S
H895 N891 0.985 . S
H896 N890 0.984 . S
H897 N890 0.984 . S
H898 N886 0.984 . S
H899 N886 0.985 . S
C900 C901 1.363 . S
C900 C906 1.379 . S
C900 N908 1.356 . S
C901 C900 1.363 . S
C901 C907 1.363 . S
C902 C903 1.363 . S
C902 C907 1.379 . S
C902 N909 1.356 . S
C903 C902 1.363 . S
C903 C906 1.363 . S
N904 C906 1.356 . S
N904 H916 0.984 . S
N904 H917 0.985 . S
N905 C907 1.356 . S
N905 H910 0.984 . S
N905 H911 0.985 . S
C906 C900 1.379 . S
C906 C903 1.363 . S
C906 N904 1.356 . S
C907 C901 1.363 . S
C907 C902 1.379 . S
C907 N905 1.356 . S
N908 C900 1.356 . S
N908 H914 0.984 . S
N908 H915 0.984 . S
N909 C902 1.356 . S
N909 H912 0.984 . S
N909 H913 0.985 . S
H910 N905 0.984 . S
H911 N905 0.985 . S
H912 N909 0.984 . S
H913 N909 0.985 . S
H914 N908 0.984 . S
H915 N908 0.984 . S
H916 N904 0.984 . S
H917 N904 0.985 . S
C918 C919 1.363 . S
C918 C924 1.379 . S
C918 N926 1.356 . S
C919 C918 1.363 . S
C919 C925 1.363 . S
C920 C921 1.363 . S
C920 C925 1.379 . S
C920 N927 1.356 . S
C921 C920 1.363 . S
C921 C924 1.363 . S
N922 C924 1.356 . S
N922 H934 0.984 . S
N922 H935 0.985 . S
N923 C925 1.356 . S
N923 H928 0.984 . S
N923 H929 0.985 . S
C924 C918 1.379 . S
C924 C921 1.363 . S
C924 N922 1.356 . S
C925 C919 1.363 . S
C925 C920 1.379 . S
C925 N923 1.356 . S
N926 C918 1.356 . S
N926 H932 0.984 . S
N926 H933 0.984 . S
N927 C920 1.356 . S
N927 H930 0.984 . S
N927 H931 0.985 . S
H928 N923 0.984 . S
H929 N923 0.985 . S
H930 N927 0.984 . S
H931 N927 0.985 . S
H932 N926 0.984 . S
H933 N926 0.984 . S
H934 N922 0.984 . S
H935 N922 0.985 . S
C936 C937 1.363 . S
C936 C942 1.379 . S
C936 N944 1.356 . S
C937 C936 1.363 . S
C937 C943 1.363 . S
C938 C939 1.363 . S
C938 C943 1.379 . S
C938 N945 1.356 . S
C939 C938 1.363 . S
C939 C942 1.363 . S
N940 C942 1.356 . S
N940 H952 0.984 . S
N940 H953 0.985 . S
N941 C943 1.356 . S
N941 H946 0.984 . S
N941 H947 0.985 . S
C942 C936 1.379 . S
C942 C939 1.363 . S
C942 N940 1.356 . S
C943 C937 1.363 . S
C943 C938 1.379 . S
C943 N941 1.356 . S
N944 C936 1.356 . S
N944 H950 0.984 . S
N944 H951 0.984 . S
N945 C938 1.356 . S
N945 H948 0.984 . S
N945 H949 0.985 . S
H946 N941 0.984 . S
H947 N941 0.985 . S
H948 N945 0.984 . S
H949 N945 0.985 . S
H950 N944 0.984 . S
H951 N944 0.984 . S
H952 N940 0.984 . S
H953 N940 0.985 . S
C954 C955 1.363 . S
C954 C960 1.379 . S
C954 N962 1.356 . S
C955 C954 1.363 . S
C955 C961 1.363 . S
C956 C957 1.363 . S
C956 C961 1.379 . S
C956 N963 1.356 . S
C957 C956 1.363 . S
C957 C960 1.363 . S
N958 C960 1.356 . S
N958 H970 0.984 . S
N958 H971 0.985 . S
N959 C961 1.356 . S
N959 H964 0.984 . S
N959 H965 0.985 . S
C960 C954 1.379 . S
C960 C957 1.363 . S
C960 N958 1.356 . S
C961 C955 1.363 . S
C961 C956 1.379 . S
C961 N959 1.356 . S
N962 C954 1.356 . S
N962 H968 0.984 . S
N962 H969 0.984 . S
N963 C956 1.356 . S
N963 H966 0.984 . S
N963 H967 0.985 . S
H964 N959 0.984 . S
H965 N959 0.985 . S
H966 N963 0.984 . S
H967 N963 0.985 . S
H968 N962 0.984 . S
H969 N962 0.984 . S
H970 N958 0.984 . S
H971 N958 0.985 . S
C972 C973 1.363 . S
C972 C978 1.379 1_545 S
C972 N980 1.356 . S
C973 C972 1.363 . S
C973 C979 1.363 . S
C974 C975 1.363 1_545 S
C974 C979 1.379 . S
C974 N981 1.356 1_545 S
C975 C974 1.363 1_565 S
C975 C978 1.363 . S
N976 C978 1.356 . S
N976 H988 0.984 . S
N976 H989 0.985 . S
N977 C979 1.356 . S
N977 H982 0.984 . S
N977 H983 0.985 . S
C978 C972 1.379 1_565 S
C978 C975 1.363 . S
C978 N976 1.356 . S
C979 C973 1.363 . S
C979 C974 1.379 . S
C979 N977 1.356 . S
N980 C972 1.356 . S
N980 H986 0.984 . S
N980 H987 0.984 . S
N981 C974 1.356 1_565 S
N981 H984 0.984 . S
N981 H985 0.985 1_565 S
H982 N977 0.984 . S
H983 N977 0.985 . S
H984 N981 0.984 . S
H985 N981 0.985 1_545 S
H986 N980 0.984 . S
H987 N980 0.984 . S
H988 N976 0.984 . S
H989 N976 0.985 . S
C990 C991 1.363 . S
C990 C996 1.379 1_655 S
C990 N998 1.356 . S
C991 C990 1.363 . S
C991 C997 1.363 . S
C992 C993 1.363 . S
C992 C997 1.379 1_455 S
C992 N999 1.356 . S
C993 C992 1.363 . S
C993 C996 1.363 . S
N994 C996 1.356 . S
N994 H1006 0.984 . S
N994 H1007 0.985 . S
N995 C997 1.356 . S
N995 H1000 0.984 . S
N995 H1001 0.985 . S
C996 C990 1.379 1_455 S
C996 C993 1.363 . S
C996 N994 1.356 . S
C997 C991 1.363 . S
C997 C992 1.379 1_655 S
C997 N995 1.356 . S
N998 C990 1.356 . S
N998 H1004 0.984 . S
N998 H1005 0.984 . S
N999 C992 1.356 . S
N999 H1002 0.984 . S
N999 H1003 0.985 . S
H1000 N995 0.984 . S
H1001 N995 0.985 . S
H1002 N999 0.984 . S
H1003 N999 0.985 . S
H1004 N998 0.984 . S
H1005 N998 0.984 . S
H1006 N994 0.984 . S
H1007 N994 0.985 . S
C1008 C1009 1.363 . S
C1008 C1014 1.379 . S
C1008 N1016 1.356 . S
C1009 C1008 1.363 . S
C1009 C1015 1.363 . S
C1010 C1011 1.363 . S
C1010 C1015 1.379 . S
C1010 N1017 1.356 . S
C1011 C1010 1.363 . S
C1011 C1014 1.363 . S
N1012 C1014 1.356 . S
N1012 H1024 0.984 . S
N1012 H1025 0.985 . S
N1013 C1015 1.356 . S
N1013 H1018 0.984 . S
N1013 H1019 0.985 . S
C1014 C1008 1.379 . S
C1014 C1011 1.363 . S
C1014 N1012 1.356 . S
C1015 C1009 1.363 . S
C1015 C1010 1.379 . S
C1015 N1013 1.356 . S
N1016 C1008 1.356 . S
N1016 H1022 0.984 . S
N1016 H1023 0.984 . S
N1017 C1010 1.356 . S
N1017 H1020 0.984 . S
N1017 H1021 0.985 . S
H1018 N1013 0.984 . S
H1019 N1013 0.985 . S
H1020 N1017 0.984 . S
H1021 N1017 0.985 . S
H1022 N1016 0.984 . S
H1023 N1016 0.984 . S
H1024 N1012 0.984 . S
H1025 N1012 0.985 . S
C1026 C1027 1.363 . S
C1026 C1032 1.379 . S
C1026 N1034 1.356 . S
C1027 C1026 1.363 . S
C1027 C1033 1.363 . S
C1028 C1029 1.363 . S
C1028 C1033 1.379 . S
C1028 N1035 1.356 . S
C1029 C1028 1.363 . S
C1029 C1032 1.363 . S
N1030 C1032 1.356 . S
N1030 H1042 0.984 . S
N1030 H1043 0.985 . S
N1031 C1033 1.356 . S
N1031 H1036 0.984 . S
N1031 H1037 0.985 . S
C1032 C1026 1.379 . S
C1032 C1029 1.363 . S
C1032 N1030 1.356 . S
C1033 C1027 1.363 . S
C1033 C1028 1.379 . S
C1033 N1031 1.356 . S
N1034 C1026 1.356 . S
N1034 H1040 0.984 . S
N1034 H1041 0.984 . S
N1035 C1028 1.356 . S
N1035 H1038 0.984 . S
N1035 H1039 0.985 . S
H1036 N1031 0.984 . S
H1037 N1031 0.985 . S
H1038 N1035 0.984 . S
H1039 N1035 0.985 . S
H1040 N1034 0.984 . S
H1041 N1034 0.984 . S
H1042 N1030 0.984 . S
H1043 N1030 0.985 . S
C1044 C1045 1.363 . S
C1044 C1050 1.379 . S
C1044 N1052 1.356 . S
C1045 C1044 1.363 . S
C1045 C1051 1.363 . S
C1046 C1047 1.363 . S
C1046 C1051 1.379 . S
C1046 N1053 1.356 . S
C1047 C1046 1.363 . S
C1047 C1050 1.363 . S
N1048 C1050 1.356 . S
N1048 H1060 0.984 . S
N1048 H1061 0.985 . S
N1049 C1051 1.356 . S
N1049 H1054 0.984 . S
N1049 H1055 0.985 . S
C1050 C1044 1.379 . S
C1050 C1047 1.363 . S
C1050 N1048 1.356 . S
C1051 C1045 1.363 . S
C1051 C1046 1.379 . S
C1051 N1049 1.356 . S
N1052 C1044 1.356 . S
N1052 H1058 0.984 . S
N1052 H1059 0.984 . S
N1053 C1046 1.356 . S
N1053 H1056 0.984 . S
N1053 H1057 0.985 . S
H1054 N1049 0.984 . S
H1055 N1049 0.985 . S
H1056 N1053 0.984 . S
H1057 N1053 0.985 . S
H1058 N1052 0.984 . S
H1059 N1052 0.984 . S
H1060 N1048 0.984 . S
H1061 N1048 0.985 . S
C1062 C1063 1.363 . S
C1062 C1068 1.379 . S
C1062 N1070 1.356 . S
C1063 C1062 1.363 . S
C1063 C1069 1.363 . S
C1064 C1065 1.363 . S
C1064 C1069 1.379 . S
C1064 N1071 1.356 . S
C1065 C1064 1.363 . S
C1065 C1068 1.363 . S
N1066 C1068 1.356 . S
N1066 H1078 0.984 . S
N1066 H1079 0.985 . S
N1067 C1069 1.356 . S
N1067 H1072 0.984 . S
N1067 H1073 0.985 . S
C1068 C1062 1.379 . S
C1068 C1065 1.363 . S
C1068 N1066 1.356 . S
C1069 C1063 1.363 . S
C1069 C1064 1.379 . S
C1069 N1067 1.356 . S
N1070 C1062 1.356 . S
N1070 H1076 0.984 . S
N1070 H1077 0.984 . S
N1071 C1064 1.356 . S
N1071 H1074 0.984 . S
N1071 H1075 0.985 . S
H1072 N1067 0.984 . S
H1073 N1067 0.985 . S
H1074 N1071 0.984 . S
H1075 N1071 0.985 . S
H1076 N1070 0.984 . S
H1077 N1070 0.984 . S
H1078 N1066 0.984 . S
H1079 N1066 0.985 . S
C1080 C1081 1.363 . S
C1080 C1086 1.379 1_565 S
C1080 N1088 1.356 . S
C1081 C1080 1.363 . S
C1081 C1087 1.363 . S
C1082 C1083 1.363 . S
C1082 C1087 1.379 1_545 S
C1082 N1089 1.356 . S
C1083 C1082 1.363 . S
C1083 C1086 1.363 . S
N1084 C1086 1.356 . S
N1084 H1096 0.984 . S
N1084 H1097 0.985 . S
N1085 C1087 1.356 . S
N1085 H1090 0.984 . S
N1085 H1091 0.985 . S
C1086 C1080 1.379 1_545 S
C1086 C1083 1.363 . S
C1086 N1084 1.356 . S
C1087 C1081 1.363 . S
C1087 C1082 1.379 1_565 S
C1087 N1085 1.356 . S
N1088 C1080 1.356 . S
N1088 H1094 0.984 . S
N1088 H1095 0.984 . S
N1089 C1082 1.356 . S
N1089 H1092 0.984 . S
N1089 H1093 0.985 . S
H1090 N1085 0.984 . S
H1091 N1085 0.985 . S
H1092 N1089 0.984 . S
H1093 N1089 0.985 . S
H1094 N1088 0.984 . S
H1095 N1088 0.984 . S
H1096 N1084 0.984 . S
H1097 N1084 0.985 . S
C1098 C1099 1.363 1_655 S
C1098 C1104 1.379 . S
C1098 N1106 1.356 . S
C1099 C1098 1.363 1_455 S
C1099 C1105 1.363 . S
C1100 C1101 1.363 . S
C1100 C1105 1.379 1_655 S
C1100 N1107 1.356 . S
C1101 C1100 1.363 . S
C1101 C1104 1.363 . S
N1102 C1104 1.356 . S
N1102 H1114 0.984 . S
N1102 H1115 0.985 . S
N1103 C1105 1.356 . S
N1103 H1108 0.984 . S
N1103 H1109 0.985 . S
C1104 C1098 1.379 . S
C1104 C1101 1.363 . S
C1104 N1102 1.356 . S
C1105 C1099 1.363 . S
C1105 C1100 1.379 1_455 S
C1105 N1103 1.356 . S
N1106 C1098 1.356 . S
N1106 H1112 0.984 . S
N1106 H1113 0.984 1_655 S
N1107 C1100 1.356 . S
N1107 H1110 0.984 . S
N1107 H1111 0.985 . S
H1108 N1103 0.984 . S
H1109 N1103 0.985 . S
H1110 N1107 0.984 . S
H1111 N1107 0.985 . S
H1112 N1106 0.984 . S
H1113 N1106 0.984 1_455 S
H1114 N1102 0.984 . S
H1115 N1102 0.985 . S
C1116 C1117 1.363 . S
C1116 C1122 1.379 . S
C1116 N1124 1.356 . S
C1117 C1116 1.363 . S
C1117 C1123 1.363 . S
C1118 C1119 1.363 . S
C1118 C1123 1.379 . S
C1118 N1125 1.356 . S
C1119 C1118 1.363 . S
C1119 C1122 1.363 . S
N1120 C1122 1.356 . S
N1120 H1132 0.984 . S
N1120 H1133 0.985 . S
N1121 C1123 1.356 . S
N1121 H1126 0.984 . S
N1121 H1127 0.985 . S
C1122 C1116 1.379 . S
C1122 C1119 1.363 . S
C1122 N1120 1.356 . S
C1123 C1117 1.363 . S
C1123 C1118 1.379 . S
C1123 N1121 1.356 . S
N1124 C1116 1.356 . S
N1124 H1130 0.984 . S
N1124 H1131 0.984 . S
N1125 C1118 1.356 . S
N1125 H1128 0.984 . S
N1125 H1129 0.985 . S
H1126 N1121 0.984 . S
H1127 N1121 0.985 . S
H1128 N1125 0.984 . S
H1129 N1125 0.985 . S
H1130 N1124 0.984 . S
H1131 N1124 0.984 . S
H1132 N1120 0.984 . S
H1133 N1120 0.985 . S
C1134 C1135 1.363 . S
C1134 C1140 1.379 . S
C1134 N1142 1.356 . S
C1135 C1134 1.363 . S
C1135 C1141 1.363 . S
C1136 C1137 1.363 1_455 S
C1136 C1141 1.379 . S
C1136 N1143 1.356 1_455 S
C1137 C1136 1.363 1_655 S
C1137 C1140 1.363 1_655 S
N1138 C1140 1.356 . S
N1138 H1150 0.984 . S
N1138 H1151 0.985 1_455 S
N1139 C1141 1.356 . S
N1139 H1144 0.984 . S
N1139 H1145 0.985 . S
C1140 C1134 1.379 . S
C1140 C1137 1.363 1_455 S
C1140 N1138 1.356 . S
C1141 C1135 1.363 . S
C1141 C1136 1.379 . S
C1141 N1139 1.356 . S
N1142 C1134 1.356 . S
N1142 H1148 0.984 . S
N1142 H1149 0.984 . S
N1143 C1136 1.356 1_655 S
N1143 H1146 0.984 . S
N1143 H1147 0.985 . S
H1144 N1139 0.984 . S
H1145 N1139 0.985 . S
H1146 N1143 0.984 . S
H1147 N1143 0.985 . S
H1148 N1142 0.984 . S
H1149 N1142 0.984 . S
H1150 N1138 0.984 . S
H1151 N1138 0.985 1_655 S
C1152 C1153 1.363 . S
C1152 C1158 1.379 . S
C1152 N1160 1.356 . S
C1153 C1152 1.363 . S
C1153 C1159 1.363 . S
C1154 C1155 1.363 . S
C1154 C1159 1.379 . S
C1154 N1161 1.356 . S
C1155 C1154 1.363 . S
C1155 C1158 1.363 . S
N1156 C1158 1.356 . S
N1156 H1168 0.984 . S
N1156 H1169 0.985 . S
N1157 C1159 1.356 . S
N1157 H1162 0.984 . S
N1157 H1163 0.985 . S
C1158 C1152 1.379 . S
C1158 C1155 1.363 . S
C1158 N1156 1.356 . S
C1159 C1153 1.363 . S
C1159 C1154 1.379 . S
C1159 N1157 1.356 . S
N1160 C1152 1.356 . S
N1160 H1166 0.984 . S
N1160 H1167 0.984 . S
N1161 C1154 1.356 . S
N1161 H1164 0.984 . S
N1161 H1165 0.985 . S
H1162 N1157 0.984 . S
H1163 N1157 0.985 . S
H1164 N1161 0.984 . S
H1165 N1161 0.985 . S
H1166 N1160 0.984 . S
H1167 N1160 0.984 . S
H1168 N1156 0.984 . S
H1169 N1156 0.985 . S
C1170 C1171 1.363 . S
C1170 C1176 1.379 . S
C1170 N1178 1.356 . S
C1171 C1170 1.363 . S
C1171 C1177 1.363 . S
C1172 C1173 1.363 . S
C1172 C1177 1.379 1_545 S
C1172 N1179 1.356 . S
C1173 C1172 1.363 . S
C1173 C1176 1.363 1_545 S
N1174 C1176 1.356 1_545 S
N1174 H1186 0.984 . S
N1174 H1187 0.985 . S
N1175 C1177 1.356 . S
N1175 H1180 0.984 . S
N1175 H1181 0.985 . S
C1176 C1170 1.379 . S
C1176 C1173 1.363 1_565 S
C1176 N1174 1.356 1_565 S
C1177 C1171 1.363 . S
C1177 C1172 1.379 1_565 S
C1177 N1175 1.356 . S
N1178 C1170 1.356 . S
N1178 H1184 0.984 . S
N1178 H1185 0.984 . S
N1179 C1172 1.356 . S
N1179 H1182 0.984 . S
N1179 H1183 0.985 . S
H1180 N1175 0.984 . S
H1181 N1175 0.985 . S
H1182 N1179 0.984 . S
H1183 N1179 0.985 . S
H1184 N1178 0.984 . S
H1185 N1178 0.984 . S
H1186 N1174 0.984 . S
H1187 N1174 0.985 . S
C1188 C1189 1.363 . S
C1188 C1194 1.379 . S
C1188 N1196 1.356 . S
C1189 C1188 1.363 . S
C1189 C1195 1.363 . S
C1190 C1191 1.363 . S
C1190 C1195 1.379 . S
C1190 N1197 1.356 . S
C1191 C1190 1.363 . S
C1191 C1194 1.363 . S
N1192 C1194 1.356 . S
N1192 H1204 0.984 . S
N1192 H1205 0.985 . S
N1193 C1195 1.356 . S
N1193 H1198 0.984 . S
N1193 H1199 0.985 . S
C1194 C1188 1.379 . S
C1194 C1191 1.363 . S
C1194 N1192 1.356 . S
C1195 C1189 1.363 . S
C1195 C1190 1.379 . S
C1195 N1193 1.356 . S
N1196 C1188 1.356 . S
N1196 H1202 0.984 . S
N1196 H1203 0.984 . S
N1197 C1190 1.356 . S
N1197 H1200 0.984 . S
N1197 H1201 0.985 . S
H1198 N1193 0.984 . S
H1199 N1193 0.985 . S
H1200 N1197 0.984 . S
H1201 N1197 0.985 . S
H1202 N1196 0.984 . S
H1203 N1196 0.984 . S
H1204 N1192 0.984 . S
H1205 N1192 0.985 . S
C1206 C1207 1.363 . S
C1206 C1212 1.379 . S
C1206 N1214 1.356 . S
C1207 C1206 1.363 . S
C1207 C1213 1.363 . S
C1208 C1209 1.363 . S
C1208 C1213 1.379 . S
C1208 N1215 1.356 . S
C1209 C1208 1.363 . S
C1209 C1212 1.363 . S
N1210 C1212 1.356 . S
N1210 H1222 0.984 . S
N1210 H1223 0.985 . S
N1211 C1213 1.356 . S
N1211 H1216 0.984 . S
N1211 H1217 0.985 . S
C1212 C1206 1.379 . S
C1212 C1209 1.363 . S
C1212 N1210 1.356 . S
C1213 C1207 1.363 . S
C1213 C1208 1.379 . S
C1213 N1211 1.356 . S
N1214 C1206 1.356 . S
N1214 H1220 0.984 . S
N1214 H1221 0.984 . S
N1215 C1208 1.356 . S
N1215 H1218 0.984 . S
N1215 H1219 0.985 . S
H1216 N1211 0.984 . S
H1217 N1211 0.985 . S
H1218 N1215 0.984 . S
H1219 N1215 0.985 . S
H1220 N1214 0.984 . S
H1221 N1214 0.984 . S
H1222 N1210 0.984 . S
H1223 N1210 0.985 . S
C1224 C1225 1.363 . S
C1224 C1230 1.379 . S
C1224 N1232 1.356 1_655 S
C1225 C1224 1.363 . S
C1225 C1231 1.363 . S
C1226 C1227 1.363 . S
C1226 C1231 1.379 . S
C1226 N1233 1.356 . S
C1227 C1226 1.363 . S
C1227 C1230 1.363 . S
N1228 C1230 1.356 . S
N1228 H1240 0.984 . S
N1228 H1241 0.985 . S
N1229 C1231 1.356 . S
N1229 H1234 0.984 . S
N1229 H1235 0.985 . S
C1230 C1224 1.379 . S
C1230 C1227 1.363 . S
C1230 N1228 1.356 . S
C1231 C1225 1.363 . S
C1231 C1226 1.379 . S
C1231 N1229 1.356 . S
N1232 C1224 1.356 1_455 S
N1232 H1238 0.984 . S
N1232 H1239 0.984 . S
N1233 C1226 1.356 . S
N1233 H1236 0.984 . S
N1233 H1237 0.985 . S
H1234 N1229 0.984 . S
H1235 N1229 0.985 . S
H1236 N1233 0.984 . S
H1237 N1233 0.985 . S
H1238 N1232 0.984 . S
H1239 N1232 0.984 . S
H1240 N1228 0.984 . S
H1241 N1228 0.985 . S
C1242 C1243 1.363 . S
C1242 C1248 1.379 . S
C1242 N1250 1.356 . S
C1243 C1242 1.363 . S
C1243 C1249 1.363 . S
C1244 C1245 1.363 . S
C1244 C1249 1.379 . S
C1244 N1251 1.356 . S
C1245 C1244 1.363 . S
C1245 C1248 1.363 . S
N1246 C1248 1.356 . S
N1246 H1258 0.984 . S
N1246 H1259 0.985 . S
N1247 C1249 1.356 . S
N1247 H1252 0.984 . S
N1247 H1253 0.985 . S
C1248 C1242 1.379 . S
C1248 C1245 1.363 . S
C1248 N1246 1.356 . S
C1249 C1243 1.363 . S
C1249 C1244 1.379 . S
C1249 N1247 1.356 . S
N1250 C1242 1.356 . S
N1250 H1256 0.984 . S
N1250 H1257 0.984 . S
N1251 C1244 1.356 . S
N1251 H1254 0.984 . S
N1251 H1255 0.985 1_565 S
H1252 N1247 0.984 . S
H1253 N1247 0.985 . S
H1254 N1251 0.984 . S
H1255 N1251 0.985 1_545 S
H1256 N1250 0.984 . S
H1257 N1250 0.984 . S
H1258 N1246 0.984 . S
H1259 N1246 0.985 . S
C1260 C1261 1.363 . S
C1260 C1266 1.379 . S
C1260 N1268 1.356 . S
C1261 C1260 1.363 . S
C1261 C1267 1.363 . S
C1262 C1263 1.363 . S
C1262 C1267 1.379 . S
C1262 N1269 1.356 . S
C1263 C1262 1.363 . S
C1263 C1266 1.363 . S
N1264 C1266 1.356 . S
N1264 H1276 0.984 . S
N1264 H1277 0.985 . S
N1265 C1267 1.356 . S
N1265 H1270 0.984 . S
N1265 H1271 0.985 . S
C1266 C1260 1.379 . S
C1266 C1263 1.363 . S
C1266 N1264 1.356 . S
C1267 C1261 1.363 . S
C1267 C1262 1.379 . S
C1267 N1265 1.356 . S
N1268 C1260 1.356 . S
N1268 H1274 0.984 . S
N1268 H1275 0.984 . S
N1269 C1262 1.356 . S
N1269 H1272 0.984 . S
N1269 H1273 0.985 . S
H1270 N1265 0.984 . S
H1271 N1265 0.985 . S
H1272 N1269 0.984 . S
H1273 N1269 0.985 . S
H1274 N1268 0.984 . S
H1275 N1268 0.984 . S
H1276 N1264 0.984 . S
H1277 N1264 0.985 . S
C1278 C1279 1.363 . S
C1278 C1284 1.379 . S
C1278 N1286 1.356 . S
C1279 C1278 1.363 . S
C1279 C1285 1.363 . S
C1280 C1281 1.363 . S
C1280 C1285 1.379 . S
C1280 N1287 1.356 . S
C1281 C1280 1.363 . S
C1281 C1284 1.363 . S
N1282 C1284 1.356 . S
N1282 H1294 0.984 . S
N1282 H1295 0.985 . S
N1283 C1285 1.356 . S
N1283 H1288 0.984 . S
N1283 H1289 0.985 . S
C1284 C1278 1.379 . S
C1284 C1281 1.363 . S
C1284 N1282 1.356 . S
C1285 C1279 1.363 . S
C1285 C1280 1.379 . S
C1285 N1283 1.356 . S
N1286 C1278 1.356 . S
N1286 H1292 0.984 . S
N1286 H1293 0.984 . S
N1287 C1280 1.356 . S
N1287 H1290 0.984 . S
N1287 H1291 0.985 . S
H1288 N1283 0.984 . S
H1289 N1283 0.985 . S
H1290 N1287 0.984 . S
H1291 N1287 0.985 . S
H1292 N1286 0.984 . S
H1293 N1286 0.984 . S
H1294 N1282 0.984 . S
H1295 N1282 0.985 . S
C1296 C1297 1.363 . S
C1296 C1302 1.379 . S
C1296 N1304 1.356 . S
C1297 C1296 1.363 . S
C1297 C1303 1.363 1_655 S
C1298 C1299 1.363 1_455 S
C1298 C1303 1.379 . S
C1298 N1305 1.356 . S
C1299 C1298 1.363 1_655 S
C1299 C1302 1.363 . S
N1300 C1302 1.356 . S
N1300 H1312 0.984 . S
N1300 H1313 0.985 . S
N1301 C1303 1.356 . S
N1301 H1306 0.984 . S
N1301 H1307 0.985 . S
C1302 C1296 1.379 . S
C1302 C1299 1.363 . S
C1302 N1300 1.356 . S
C1303 C1297 1.363 1_455 S
C1303 C1298 1.379 . S
C1303 N1301 1.356 . S
N1304 C1296 1.356 . S
N1304 H1310 0.984 . S
N1304 H1311 0.984 . S
N1305 C1298 1.356 . S
N1305 H1308 0.984 . S
N1305 H1309 0.985 . S
H1306 N1301 0.984 . S
H1307 N1301 0.985 . S
H1308 N1305 0.984 . S
H1309 N1305 0.985 . S
H1310 N1304 0.984 . S
H1311 N1304 0.984 . S
H1312 N1300 0.984 . S
H1313 N1300 0.985 . S
C1314 C1315 1.363 . S
C1314 C1320 1.379 . S
C1314 N1322 1.356 . S
C1315 C1314 1.363 . S
C1315 C1321 1.363 . S
C1316 C1317 1.363 . S
C1316 C1321 1.379 . S
C1316 N1323 1.356 . S
C1317 C1316 1.363 . S
C1317 C1320 1.363 . S
N1318 C1320 1.356 . S
N1318 H1330 0.984 . S
N1318 H1331 0.985 . S
N1319 C1321 1.356 . S
N1319 H1324 0.984 . S
N1319 H1325 0.985 . S
C1320 C1314 1.379 . S
C1320 C1317 1.363 . S
C1320 N1318 1.356 . S
C1321 C1315 1.363 . S
C1321 C1316 1.379 . S
C1321 N1319 1.356 . S
N1322 C1314 1.356 . S
N1322 H1328 0.984 . S
N1322 H1329 0.984 . S
N1323 C1316 1.356 . S
N1323 H1326 0.984 . S
N1323 H1327 0.985 . S
H1324 N1319 0.984 . S
H1325 N1319 0.985 . S
H1326 N1323 0.984 . S
H1327 N1323 0.985 . S
H1328 N1322 0.984 . S
H1329 N1322 0.984 . S
H1330 N1318 0.984 . S
H1331 N1318 0.985 . S
C1332 C1333 1.363 . S
C1332 C1338 1.379 . S
C1332 N1340 1.356 . S
C1333 C1332 1.363 . S
C1333 C1339 1.363 . S
C1334 C1335 1.363 . S
C1334 C1339 1.379 . S
C1334 N1341 1.356 . S
C1335 C1334 1.363 . S
C1335 C1338 1.363 . S
N1336 C1338 1.356 . S
N1336 H1348 0.984 . S
N1336 H1349 0.985 . S
N1337 C1339 1.356 . S
N1337 H1342 0.984 . S
N1337 H1343 0.985 . S
C1338 C1332 1.379 . S
C1338 C1335 1.363 . S
C1338 N1336 1.356 . S
C1339 C1333 1.363 . S
C1339 C1334 1.379 . S
C1339 N1337 1.356 . S
N1340 C1332 1.356 . S
N1340 H1346 0.984 . S
N1340 H1347 0.984 . S
N1341 C1334 1.356 . S
N1341 H1344 0.984 . S
N1341 H1345 0.985 . S
H1342 N1337 0.984 . S
H1343 N1337 0.985 . S
H1344 N1341 0.984 . S
H1345 N1341 0.985 . S
H1346 N1340 0.984 . S
H1347 N1340 0.984 . S
H1348 N1336 0.984 . S
H1349 N1336 0.985 . S
C1350 C1351 1.363 . S
C1350 C1356 1.379 . S
C1350 N1358 1.356 . S
C1351 C1350 1.363 . S
C1351 C1357 1.363 . S
C1352 C1353 1.363 . S
C1352 C1357 1.379 . S
C1352 N1359 1.356 . S
C1353 C1352 1.363 . S
C1353 C1356 1.363 . S
N1354 C1356 1.356 . S
N1354 H1366 0.984 . S
N1354 H1367 0.985 . S
N1355 C1357 1.356 . S
N1355 H1360 0.984 . S
N1355 H1361 0.985 . S
C1356 C1350 1.379 . S
C1356 C1353 1.363 . S
C1356 N1354 1.356 . S
C1357 C1351 1.363 . S
C1357 C1352 1.379 . S
C1357 N1355 1.356 . S
N1358 C1350 1.356 . S
N1358 H1364 0.984 . S
N1358 H1365 0.984 . S
N1359 C1352 1.356 . S
N1359 H1362 0.984 . S
N1359 H1363 0.985 . S
H1360 N1355 0.984 . S
H1361 N1355 0.985 . S
H1362 N1359 0.984 . S
H1363 N1359 0.985 . S
H1364 N1358 0.984 . S
H1365 N1358 0.984 . S
H1366 N1354 0.984 . S
H1367 N1354 0.985 . S
C1368 C1369 1.363 . S
C1368 C1374 1.379 . S
C1368 N1376 1.356 . S
C1369 C1368 1.363 . S
C1369 C1375 1.363 . S
C1370 C1371 1.363 . S
C1370 C1375 1.379 . S
C1370 N1377 1.356 . S
C1371 C1370 1.363 . S
C1371 C1374 1.363 . S
N1372 C1374 1.356 . S
N1372 H1384 0.984 . S
N1372 H1385 0.985 . S
N1373 C1375 1.356 . S
N1373 H1378 0.984 . S
N1373 H1379 0.985 . S
C1374 C1368 1.379 . S
C1374 C1371 1.363 . S
C1374 N1372 1.356 . S
C1375 C1369 1.363 . S
C1375 C1370 1.379 . S
C1375 N1373 1.356 . S
N1376 C1368 1.356 . S
N1376 H1382 0.984 . S
N1376 H1383 0.984 . S
N1377 C1370 1.356 . S
N1377 H1380 0.984 . S
N1377 H1381 0.985 . S
H1378 N1373 0.984 . S
H1379 N1373 0.985 . S
H1380 N1377 0.984 . S
H1381 N1377 0.985 . S
H1382 N1376 0.984 . S
H1383 N1376 0.984 . S
H1384 N1372 0.984 . S
H1385 N1372 0.985 . S
C1386 C1387 1.363 . S
C1386 C1392 1.379 . S
C1386 N1394 1.356 . S
C1387 C1386 1.363 . S
C1387 C1393 1.363 . S
C1388 C1389 1.363 . S
C1388 C1393 1.379 . S
C1388 N1395 1.356 . S
C1389 C1388 1.363 . S
C1389 C1392 1.363 . S
N1390 C1392 1.356 . S
N1390 H1402 0.984 . S
N1390 H1403 0.985 . S
N1391 C1393 1.356 . S
N1391 H1396 0.984 . S
N1391 H1397 0.985 . S
C1392 C1386 1.379 . S
C1392 C1389 1.363 . S
C1392 N1390 1.356 . S
C1393 C1387 1.363 . S
C1393 C1388 1.379 . S
C1393 N1391 1.356 . S
N1394 C1386 1.356 . S
N1394 H1400 0.984 . S
N1394 H1401 0.984 . S
N1395 C1388 1.356 . S
N1395 H1398 0.984 . S
N1395 H1399 0.985 . S
H1396 N1391 0.984 . S
H1397 N1391 0.985 . S
H1398 N1395 0.984 . S
H1399 N1395 0.985 . S
H1400 N1394 0.984 . S
H1401 N1394 0.984 . S
H1402 N1390 0.984 . S
H1403 N1390 0.985 . S
C1404 C1405 1.363 . S
C1404 C1410 1.379 . S
C1404 N1412 1.356 . S
C1405 C1404 1.363 . S
C1405 C1411 1.363 . S
C1406 C1407 1.363 . S
C1406 C1411 1.379 . S
C1406 N1413 1.356 . S
C1407 C1406 1.363 . S
C1407 C1410 1.363 . S
N1408 C1410 1.356 . S
N1408 H1420 0.984 . S
N1408 H1421 0.985 . S
N1409 C1411 1.356 . S
N1409 H1414 0.984 . S
N1409 H1415 0.985 . S
C1410 C1404 1.379 . S
C1410 C1407 1.363 . S
C1410 N1408 1.356 . S
C1411 C1405 1.363 . S
C1411 C1406 1.379 . S
C1411 N1409 1.356 . S
N1412 C1404 1.356 . S
N1412 H1418 0.984 . S
N1412 H1419 0.984 . S
N1413 C1406 1.356 . S
N1413 H1416 0.984 . S
N1413 H1417 0.985 . S
H1414 N1409 0.984 . S
H1415 N1409 0.985 . S
H1416 N1413 0.984 . S
H1417 N1413 0.985 . S
H1418 N1412 0.984 . S
H1419 N1412 0.984 . S
H1420 N1408 0.984 . S
H1421 N1408 0.985 . S
C1422 C1423 1.363 . S
C1422 C1428 1.379 . S
C1422 N1430 1.356 . S
C1423 C1422 1.363 . S
C1423 C1429 1.363 . S
C1424 C1425 1.363 . S
C1424 C1429 1.379 . S
C1424 N1431 1.356 . S
C1425 C1424 1.363 . S
C1425 C1428 1.363 . S
N1426 C1428 1.356 . S
N1426 H1438 0.984 . S
N1426 H1439 0.985 . S
N1427 C1429 1.356 . S
N1427 H1432 0.984 . S
N1427 H1433 0.985 . S
C1428 C1422 1.379 . S
C1428 C1425 1.363 . S
C1428 N1426 1.356 . S
C1429 C1423 1.363 . S
C1429 C1424 1.379 . S
C1429 N1427 1.356 . S
N1430 C1422 1.356 . S
N1430 H1436 0.984 . S
N1430 H1437 0.984 . S
N1431 C1424 1.356 . S
N1431 H1434 0.984 . S
N1431 H1435 0.985 . S
H1432 N1427 0.984 . S
H1433 N1427 0.985 . S
H1434 N1431 0.984 . S
H1435 N1431 0.985 . S
H1436 N1430 0.984 . S
H1437 N1430 0.984 . S
H1438 N1426 0.984 . S
H1439 N1426 0.985 . S
C1440 C1441 1.363 . S
C1440 C1446 1.379 . S
C1440 N1448 1.356 . S
C1441 C1440 1.363 . S
C1441 C1447 1.363 . S
C1442 C1443 1.363 . S
C1442 C1447 1.379 . S
C1442 N1449 1.356 . S
C1443 C1442 1.363 . S
C1443 C1446 1.363 . S
N1444 C1446 1.356 . S
N1444 H1456 0.984 . S
N1444 H1457 0.985 . S
N1445 C1447 1.356 . S
N1445 H1450 0.984 . S
N1445 H1451 0.985 . S
C1446 C1440 1.379 . S
C1446 C1443 1.363 . S
C1446 N1444 1.356 . S
C1447 C1441 1.363 . S
C1447 C1442 1.379 . S
C1447 N1445 1.356 . S
N1448 C1440 1.356 . S
N1448 H1454 0.984 . S
N1448 H1455 0.984 . S
N1449 C1442 1.356 . S
N1449 H1452 0.984 . S
N1449 H1453 0.985 . S
H1450 N1445 0.984 . S
H1451 N1445 0.985 . S
H1452 N1449 0.984 . S
H1453 N1449 0.985 . S
H1454 N1448 0.984 . S
H1455 N1448 0.984 . S
H1456 N1444 0.984 . S
H1457 N1444 0.985 . S
C1458 C1459 1.363 . S
C1458 C1464 1.379 . S
C1458 N1466 1.356 . S
C1459 C1458 1.363 . S
C1459 C1465 1.363 . S
C1460 C1461 1.363 . S
C1460 C1465 1.379 . S
C1460 N1467 1.356 . S
C1461 C1460 1.363 . S
C1461 C1464 1.363 . S
N1462 C1464 1.356 . S
N1462 H1474 0.984 . S
N1462 H1475 0.985 . S
N1463 C1465 1.356 . S
N1463 H1468 0.984 . S
N1463 H1469 0.985 . S
C1464 C1458 1.379 . S
C1464 C1461 1.363 . S
C1464 N1462 1.356 . S
C1465 C1459 1.363 . S
C1465 C1460 1.379 . S
C1465 N1463 1.356 . S
N1466 C1458 1.356 . S
N1466 H1472 0.984 . S
N1466 H1473 0.984 . S
N1467 C1460 1.356 . S
N1467 H1470 0.984 . S
N1467 H1471 0.985 . S
H1468 N1463 0.984 . S
H1469 N1463 0.985 . S
H1470 N1467 0.984 . S
H1471 N1467 0.985 . S
H1472 N1466 0.984 . S
H1473 N1466 0.984 . S
H1474 N1462 0.984 . S
H1475 N1462 0.985 . S
C1476 C1477 1.363 . S
C1476 C1482 1.379 . S
C1476 N1484 1.356 . S
C1477 C1476 1.363 . S
C1477 C1483 1.363 . S
C1478 C1479 1.363 . S
C1478 C1483 1.379 . S
C1478 N1485 1.356 . S
C1479 C1478 1.363 . S
C1479 C1482 1.363 . S
N1480 C1482 1.356 . S
N1480 H1492 0.984 . S
N1480 H1493 0.985 . S
N1481 C1483 1.356 . S
N1481 H1486 0.984 . S
N1481 H1487 0.985 . S
C1482 C1476 1.379 . S
C1482 C1479 1.363 . S
C1482 N1480 1.356 . S
C1483 C1477 1.363 . S
C1483 C1478 1.379 . S
C1483 N1481 1.356 . S
N1484 C1476 1.356 . S
N1484 H1490 0.984 . S
N1484 H1491 0.984 . S
N1485 C1478 1.356 . S
N1485 H1488 0.984 . S
N1485 H1489 0.985 . S
H1486 N1481 0.984 . S
H1487 N1481 0.985 . S
H1488 N1485 0.984 . S
H1489 N1485 0.985 . S
H1490 N1484 0.984 . S
H1491 N1484 0.984 . S
H1492 N1480 0.984 . S
H1493 N1480 0.985 . S
C1494 C1495 1.363 . S
C1494 C1500 1.379 . S
C1494 N1502 1.356 . S
C1495 C1494 1.363 . S
C1495 C1501 1.363 . S
C1496 C1497 1.363 . S
C1496 C1501 1.379 . S
C1496 N1503 1.356 . S
C1497 C1496 1.363 . S
C1497 C1500 1.363 . S
N1498 C1500 1.356 . S
N1498 H1510 0.984 . S
N1498 H1511 0.985 . S
N1499 C1501 1.356 . S
N1499 H1504 0.984 . S
N1499 H1505 0.985 . S
C1500 C1494 1.379 . S
C1500 C1497 1.363 . S
C1500 N1498 1.356 . S
C1501 C1495 1.363 . S
C1501 C1496 1.379 . S
C1501 N1499 1.356 . S
N1502 C1494 1.356 . S
N1502 H1508 0.984 . S
N1502 H1509 0.984 . S
N1503 C1496 1.356 . S
N1503 H1506 0.984 . S
N1503 H1507 0.985 . S
H1504 N1499 0.984 . S
H1505 N1499 0.985 . S
H1506 N1503 0.984 . S
H1507 N1503 0.985 . S
H1508 N1502 0.984 . S
H1509 N1502 0.984 . S
H1510 N1498 0.984 . S
H1511 N1498 0.985 . S
C1512 C1513 1.363 . S
C1512 C1518 1.379 . S
C1512 N1520 1.356 . S
C1513 C1512 1.363 . S
C1513 C1519 1.363 . S
C1514 C1515 1.363 . S
C1514 C1519 1.379 . S
C1514 N1521 1.356 . S
C1515 C1514 1.363 . S
C1515 C1518 1.363 . S
N1516 C1518 1.356 . S
N1516 H1528 0.984 . S
N1516 H1529 0.985 . S
N1517 C1519 1.356 . S
N1517 H1522 0.984 . S
N1517 H1523 0.985 . S
C1518 C1512 1.379 . S
C1518 C1515 1.363 . S
C1518 N1516 1.356 . S
C1519 C1513 1.363 . S
C1519 C1514 1.379 . S
C1519 N1517 1.356 . S
N1520 C1512 1.356 . S
N1520 H1526 0.984 . S
N1520 H1527 0.984 . S
N1521 C1514 1.356 . S
N1521 H1524 0.984 . S
N1521 H1525 0.985 . S
H1522 N1517 0.984 . S
H1523 N1517 0.985 . S
H1524 N1521 0.984 . S
H1525 N1521 0.985 . S
H1526 N1520 0.984 . S
H1527 N1520 0.984 . S
H1528 N1516 0.984 . S
H1529 N1516 0.985 . S
C1530 C1531 1.363 . S
C1530 C1536 1.379 . S
C1530 N1538 1.356 . S
C1531 C1530 1.363 . S
C1531 C1537 1.363 . S
C1532 C1533 1.363 . S
C1532 C1537 1.379 . S
C1532 N1539 1.356 . S
C1533 C1532 1.363 . S
C1533 C1536 1.363 . S
N1534 C1536 1.356 . S
N1534 H1546 0.984 . S
N1534 H1547 0.985 . S
N1535 C1537 1.356 . S
N1535 H1540 0.984 . S
N1535 H1541 0.985 . S
C1536 C1530 1.379 . S
C1536 C1533 1.363 . S
C1536 N1534 1.356 . S
C1537 C1531 1.363 . S
C1537 C1532 1.379 . S
C1537 N1535 1.356 . S
N1538 C1530 1.356 . S
N1538 H1544 0.984 . S
N1538 H1545 0.984 . S
N1539 C1532 1.356 . S
N1539 H1542 0.984 . S
N1539 H1543 0.985 . S
H1540 N1535 0.984 . S
H1541 N1535 0.985 . S
H1542 N1539 0.984 . S
H1543 N1539 0.985 . S
H1544 N1538 0.984 . S
H1545 N1538 0.984 . S
H1546 N1534 0.984 . S
H1547 N1534 0.985 . S
C1548 C1549 1.363 . S
C1548 C1554 1.379 . S
C1548 N1556 1.356 . S
C1549 C1548 1.363 . S
C1549 C1555 1.363 . S
C1550 C1551 1.363 . S
C1550 C1555 1.379 . S
C1550 N1557 1.356 . S
C1551 C1550 1.363 . S
C1551 C1554 1.363 . S
N1552 C1554 1.356 . S
N1552 H1564 0.984 1_655 S
N1552 H1565 0.985 . S
N1553 C1555 1.356 . S
N1553 H1558 0.984 . S
N1553 H1559 0.985 . S
C1554 C1548 1.379 . S
C1554 C1551 1.363 . S
C1554 N1552 1.356 . S
C1555 C1549 1.363 . S
C1555 C1550 1.379 . S
C1555 N1553 1.356 . S
N1556 C1548 1.356 . S
N1556 H1562 0.984 . S
N1556 H1563 0.984 . S
N1557 C1550 1.356 . S
N1557 H1560 0.984 . S
N1557 H1561 0.985 . S
H1558 N1553 0.984 . S
H1559 N1553 0.985 . S
H1560 N1557 0.984 . S
H1561 N1557 0.985 . S
H1562 N1556 0.984 . S
H1563 N1556 0.984 . S
H1564 N1552 0.984 1_455 S
H1565 N1552 0.985 . S
C595 N170 1.967 . S
C597 C243 1.982 . S
C613 N184 1.220 . S
C615 C283 1.206 . S
C631 N158 1.652 . S
C633 C322 1.630 . S
C649 N145 1.560 . S
C651 C282 1.522 1_556 S
C669 C323 0.967 . S
C667 N119 0.976 . S
C685 N131 1.785 . S
C687 C242 1.832 1_556 S
C705 C253 1.708 . S
C703 N144 1.719 . S
C723 C293 1.624 . S
C721 N118 1.645 . S
C739 N132 1.553 . S
C741 C332 1.555 . S
C757 N171 1.490 . S
C759 C292 1.480 . S
C775 N183 1.370 . S
C777 C333 1.373 . S
C795 C252 1.472 . S
C793 N157 1.493 . S
C813 C363 1.982 . S
C811 N14 1.967 . S
C829 N28 1.221 . S
C831 C403 1.206 . S
C847 N2 1.651 . S
C849 C442 1.630 . S
C865 N223 1.560 . S
C867 C402 1.534 . S
C883 N197 0.976 . S
C885 C443 0.967 . S
C901 N209 1.785 . S
C903 C362 1.832 . S
C919 N222 1.719 . S
C921 C373 1.708 . S
C937 N196 1.644 . S
C939 C413 1.623 . S
C957 C452 1.555 . S
C955 N210 1.553 . S
C973 N15 1.490 . S
C975 C412 1.480 . S
C993 C453 1.372 . S
C991 N27 1.370 . S
C1009 N1 1.493 . S
C1011 C372 1.472 . S
C1029 C483 1.982 . S
C1027 N92 1.967 . S
C1045 N106 1.220 . S
C1047 C523 1.206 . S
C1065 C562 1.631 . S
C1063 N80 1.652 . S
C1083 C522 1.534 . S
C1081 N67 1.560 . S
C1101 C563 0.967 . S
C1099 N41 0.976 . S
C1117 N53 1.785 . S
C1119 C482 1.832 . S
C1135 N66 1.719 . S
C1137 C493 1.708 . S
C1153 N40 1.645 . S
C1155 C533 1.624 . S
C1173 C572 1.555 . S
C1171 N54 1.553 . S
C1189 N93 1.490 . S
C1191 C532 1.480 . S
C1207 N105 1.370 . S
C1209 C573 1.372 . S
C1225 N79 1.493 . S
C1227 C492 1.471 . S
C1243 N200 1.178 . S
C1245 C239 1.199 . S
C1263 C279 1.894 . S
C1261 N213 1.868 . S
C1279 N226 1.604 . S
C1281 C329 1.599 . S
C1297 N83 1.798 . S
C1299 C289 1.773 . S
C1315 N96 1.722 . S
C1317 C319 1.763 . S
C1335 C249 1.342 . S
C1333 N109 1.374 . S
C1351 N44 1.178 . S
C1353 C359 1.199 . S
C1369 N57 1.867 . S
C1371 C399 1.894 . S
C1387 N70 1.604 . S
C1389 C449 1.599 . S
C1405 N161 1.798 . S
C1407 C409 1.773 . S
C1425 C439 1.763 . S
C1423 N174 1.722 . S
C1441 N187 1.374 . S
C1443 C369 1.342 . S
C1459 N122 1.178 . S
C1461 C479 1.199 . S
C1477 N135 1.867 . S
C1479 C519 1.894 . S
C1497 C569 1.599 . S
C1495 N148 1.604 . S
C1513 N5 1.798 . S
C1515 C529 1.774 . S
C1531 N18 1.722 . S
C1533 C559 1.763 . S
C1549 N31 1.374 . S
C1551 C489 1.342 . S
