# Generated by pormake.
# Topology ctn, (3,4)-cn, num edge types: 1
# Building blocks:
#     Node 0, Type 0, BuildingBlock: KAKCAD_clean_linker_0, # of connection points: 3
#     Node 1, Type 0, BuildingBlock: KAKCAD_clean_linker_0, # of connection points: 3
#     Node 2, Type 0, BuildingBlock: KAKCAD_clean_linker_0, # of connection points: 3
#     Node 3, Type 0, BuildingBlock: KAKCAD_clean_linker_0, # of connection points: 3
#     Node 4, Type 0, BuildingBlock: KAKCAD_clean_linker_0, # of connection points: 3
#     Node 5, Type 0, BuildingBlock: KAKCAD_clean_linker_0, # of connection points: 3
#     Node 6, Type 0, BuildingBlock: KAKCAD_clean_linker_0, # of connection points: 3
#     Node 7, Type 0, BuildingBlock: KAKCAD_clean_linker_0, # of connection points: 3
#     Node 8, Type 0, BuildingBlock: KAKCAD_clean_linker_0, # of connection points: 3
#     Node 9, Type 0, BuildingBlock: KAKCAD_clean_linker_0, # of connection points: 3
#     Node 10, Type 0, BuildingBlock: KAKCAD_clean_linker_0, # of connection points: 3
#     Node 11, Type 0, BuildingBlock: KAKCAD_clean_linker_0, # of connection points: 3
#     Node 12, Type 0, BuildingBlock: KAKCAD_clean_linker_0, # of connection points: 3
#     Node 13, Type 0, BuildingBlock: KAKCAD_clean_linker_0, # of connection points: 3
#     Node 14, Type 0, BuildingBlock: KAKCAD_clean_linker_0, # of connection points: 3
#     Node 15, Type 0, BuildingBlock: KAKCAD_clean_linker_0, # of connection points: 3
#     Node 16, Type 1, BuildingBlock: AZAVOO_clean_sbu_0, # of connection points: 4
#     Node 17, Type 1, BuildingBlock: AZAVOO_clean_sbu_0, # of connection points: 4
#     Node 18, Type 1, BuildingBlock: AZAVOO_clean_sbu_0, # of connection points: 4
#     Node 19, Type 1, BuildingBlock: AZAVOO_clean_sbu_0, # of connection points: 4
#     Node 20, Type 1, BuildingBlock: AZAVOO_clean_sbu_0, # of connection points: 4
#     Node 21, Type 1, BuildingBlock: AZAVOO_clean_sbu_0, # of connection points: 4
#     Node 22, Type 1, BuildingBlock: AZAVOO_clean_sbu_0, # of connection points: 4
#     Node 23, Type 1, BuildingBlock: AZAVOO_clean_sbu_0, # of connection points: 4
#     Node 24, Type 1, BuildingBlock: AZAVOO_clean_sbu_0, # of connection points: 4
#     Node 25, Type 1, BuildingBlock: AZAVOO_clean_sbu_0, # of connection points: 4
#     Node 26, Type 1, BuildingBlock: AZAVOO_clean_sbu_0, # of connection points: 4
#     Node 27, Type 1, BuildingBlock: AZAVOO_clean_sbu_0, # of connection points: 4
#     Edge 28, Type (0, 1), BuildingBlock: ZUJKAS_clean_linker_0, # of connection points: 2
#     Edge 29, Type (0, 1), BuildingBlock: ZUJKAS_clean_linker_0, # of connection points: 2
#     Edge 30, Type (0, 1), BuildingBlock: ZUJKAS_clean_linker_0, # of connection points: 2
#     Edge 31, Type (0, 1), BuildingBlock: ZUJKAS_clean_linker_0, # of connection points: 2
#     Edge 32, Type (0, 1), BuildingBlock: ZUJKAS_clean_linker_0, # of connection points: 2
#     Edge 33, Type (0, 1), BuildingBlock: ZUJKAS_clean_linker_0, # of connection points: 2
#     Edge 34, Type (0, 1), BuildingBlock: ZUJKAS_clean_linker_0, # of connection points: 2
#     Edge 35, Type (0, 1), BuildingBlock: ZUJKAS_clean_linker_0, # of connection points: 2
#     Edge 36, Type (0, 1), BuildingBlock: ZUJKAS_clean_linker_0, # of connection points: 2
#     Edge 37, Type (0, 1), BuildingBlock: ZUJKAS_clean_linker_0, # of connection points: 2
#     Edge 38, Type (0, 1), BuildingBlock: ZUJKAS_clean_linker_0, # of connection points: 2
#     Edge 39, Type (0, 1), BuildingBlock: ZUJKAS_clean_linker_0, # of connection points: 2
#     Edge 40, Type (0, 1), BuildingBlock: ZUJKAS_clean_linker_0, # of connection points: 2
#     Edge 41, Type (0, 1), BuildingBlock: ZUJKAS_clean_linker_0, # of connection points: 2
#     Edge 42, Type (0, 1), BuildingBlock: ZUJKAS_clean_linker_0, # of connection points: 2
#     Edge 43, Type (0, 1), BuildingBlock: ZUJKAS_clean_linker_0, # of connection points: 2
#     Edge 44, Type (0, 1), BuildingBlock: ZUJKAS_clean_linker_0, # of connection points: 2
#     Edge 45, Type (0, 1), BuildingBlock: ZUJKAS_clean_linker_0, # of connection points: 2
#     Edge 46, Type (0, 1), BuildingBlock: ZUJKAS_clean_linker_0, # of connection points: 2
#     Edge 47, Type (0, 1), BuildingBlock: ZUJKAS_clean_linker_0, # of connection points: 2
#     Edge 48, Type (0, 1), BuildingBlock: ZUJKAS_clean_linker_0, # of connection points: 2
#     Edge 49, Type (0, 1), BuildingBlock: ZUJKAS_clean_linker_0, # of connection points: 2
#     Edge 50, Type (0, 1), BuildingBlock: ZUJKAS_clean_linker_0, # of connection points: 2
#     Edge 51, Type (0, 1), BuildingBlock: ZUJKAS_clean_linker_0, # of connection points: 2
#     Edge 52, Type (0, 1), BuildingBlock: ZUJKAS_clean_linker_0, # of connection points: 2
#     Edge 53, Type (0, 1), BuildingBlock: ZUJKAS_clean_linker_0, # of connection points: 2
#     Edge 54, Type (0, 1), BuildingBlock: ZUJKAS_clean_linker_0, # of connection points: 2
#     Edge 55, Type (0, 1), BuildingBlock: ZUJKAS_clean_linker_0, # of connection points: 2
#     Edge 56, Type (0, 1), BuildingBlock: ZUJKAS_clean_linker_0, # of connection points: 2
#     Edge 57, Type (0, 1), BuildingBlock: ZUJKAS_clean_linker_0, # of connection points: 2
#     Edge 58, Type (0, 1), BuildingBlock: ZUJKAS_clean_linker_0, # of connection points: 2
#     Edge 59, Type (0, 1), BuildingBlock: ZUJKAS_clean_linker_0, # of connection points: 2
#     Edge 60, Type (0, 1), BuildingBlock: ZUJKAS_clean_linker_0, # of connection points: 2
#     Edge 61, Type (0, 1), BuildingBlock: ZUJKAS_clean_linker_0, # of connection points: 2
#     Edge 62, Type (0, 1), BuildingBlock: ZUJKAS_clean_linker_0, # of connection points: 2
#     Edge 63, Type (0, 1), BuildingBlock: ZUJKAS_clean_linker_0, # of connection points: 2
#     Edge 64, Type (0, 1), BuildingBlock: ZUJKAS_clean_linker_0, # of connection points: 2
#     Edge 65, Type (0, 1), BuildingBlock: ZUJKAS_clean_linker_0, # of connection points: 2
#     Edge 66, Type (0, 1), BuildingBlock: ZUJKAS_clean_linker_0, # of connection points: 2
#     Edge 67, Type (0, 1), BuildingBlock: ZUJKAS_clean_linker_0, # of connection points: 2
#     Edge 68, Type (0, 1), BuildingBlock: ZUJKAS_clean_linker_0, # of connection points: 2
#     Edge 69, Type (0, 1), BuildingBlock: ZUJKAS_clean_linker_0, # of connection points: 2
#     Edge 70, Type (0, 1), BuildingBlock: ZUJKAS_clean_linker_0, # of connection points: 2
#     Edge 71, Type (0, 1), BuildingBlock: ZUJKAS_clean_linker_0, # of connection points: 2
#     Edge 72, Type (0, 1), BuildingBlock: ZUJKAS_clean_linker_0, # of connection points: 2
#     Edge 73, Type (0, 1), BuildingBlock: ZUJKAS_clean_linker_0, # of connection points: 2
#     Edge 74, Type (0, 1), BuildingBlock: ZUJKAS_clean_linker_0, # of connection points: 2
#     Edge 75, Type (0, 1), BuildingBlock: ZUJKAS_clean_linker_0, # of connection points: 2
# Relax obj value: 0.001
# Max RMSD: 0.043
# Mean RMSD: 0.022
data_MOF--net-ctn--node1-AZAVOO_clean_sbu_0--node2-KAKCAD_clean_linker_0--edge1-ZUJKAS_clean_linker_0
_symmetry_space_group_name_H-M    P1
_symmetry_Int_Tables_number       1
_symmetry_cell_setting            triclinic
loop_
_symmetry_equiv_pos_as_xyz
'x, y, z'
_cell_length_a     83.34812
_cell_length_b     84.410378
_cell_length_c     84.323116
_cell_angle_alpha  90.189588
_cell_angle_beta   92.773784
_cell_angle_gamma 92.909468
loop_
_atom_site_label
_atom_site_type_symbol
_atom_site_fract_x
_atom_site_fract_y
_atom_site_fract_z
_atom_type_partial_charge
C0 C 0.02972 0.06486 0.97271 0.0
C1 C 0.03158 0.07988 0.97997 0.0
C2 C 0.03022 0.05112 0.98192 0.0
C3 C 0.03224 0.05223 0.99854 0.0
C4 C 0.03381 0.06727 0.00578 0.0
C5 C 0.03361 0.08097 0.99657 0.0
C6 C 0.03309 0.03782 0.0084 0.0
C7 C 0.04415 0.02639 0.00526 0.0
C8 C 0.046 0.01334 0.01538 0.0
C9 C 0.03633 0.01167 0.02856 0.0
C10 C 0.02502 0.02295 0.03175 0.0
C11 C 0.02351 0.03598 0.02155 0.0
C12 C 0.0151 0.02145 0.04593 0.0
C13 C 0.00863 0.00658 0.05066 0.0
C14 C 0.01196 0.03497 0.05484 0.0
C15 C 0.00246 0.0337 0.068 0.0
C16 C 0.99596 0.01887 0.07268 0.0
C17 C 0.05867 0.00201 0.01261 0.0
C18 C 0.06134 0.99671 0.99718 0.0
C19 C 0.06864 0.99694 0.02532 0.0
C20 C 0.08114 0.987 0.02264 0.0
C21 C 0.08397 0.98187 0.00718 0.0
C22 C 0.07384 0.98675 0.9945 0.0
C23 C 0.99921 0.0053 0.06393 0.0
H24 H 0.02818 0.06377 0.95992 0.0
H25 H 0.02896 0.03963 0.97611 0.0
H26 H 0.03549 0.06842 0.01856 0.0
H27 H 0.03497 0.09243 0.00242 0.0
H28 H 0.05188 0.02809 0.99536 0.0
H29 H 0.01478 0.04473 0.02374 0.0
H30 H 0.0378 0.00171 0.03648 0.0
H31 H 0.01063 0.99595 0.04396 0.0
H32 H 0.01703 0.04656 0.05178 0.0
H33 H 0.00041 0.04433 0.07469 0.0
H34 H 0.05374 0.00026 0.98717 0.0
H35 H 0.06708 0.00102 0.03731 0.0
H36 H 0.99425 0.99373 0.06721 0.0
H37 H 0.07551 0.98281 0.98248 0.0
H38 H 0.08886 0.98366 0.03264 0.0
C39 C 0.35411 0.74353 0.26021 0.0
C40 C 0.36312 0.73069 0.26529 0.0
C41 C 0.34043 0.74105 0.25008 0.0
C42 C 0.33543 0.72568 0.24486 0.0
C43 C 0.34438 0.71283 0.25001 0.0
C44 C 0.35809 0.71531 0.26009 0.0
C45 C 0.32105 0.72305 0.23387 0.0
C46 C 0.3185 0.73324 0.22096 0.0
C47 C 0.30517 0.73066 0.21028 0.0
C48 C 0.29435 0.71766 0.21258 0.0
C49 C 0.29654 0.70741 0.22553 0.0
C50 C 0.30995 0.71026 0.23614 0.0
C51 C 0.28485 0.69378 0.228 0.0
C52 C 0.26829 0.69516 0.22448 0.0
C53 C 0.29015 0.67924 0.23385 0.0
C54 C 0.27918 0.6665 0.23624 0.0
C55 C 0.2627 0.6679 0.2326 0.0
C56 C 0.30253 0.74157 0.19675 0.0
C57 C 0.30439 0.75808 0.19898 0.0
C58 C 0.29794 0.73557 0.18155 0.0
C59 C 0.29511 0.74585 0.1689 0.0
C60 C 0.29676 0.76238 0.17116 0.0
C61 C 0.30152 0.76837 0.18633 0.0
C62 C 0.25736 0.68232 0.22664 0.0
H63 H 0.35775 0.75553 0.2639 0.0
H64 H 0.33371 0.75118 0.24644 0.0
H65 H 0.34093 0.70086 0.24607 0.0
H66 H 0.36466 0.70515 0.26394 0.0
H67 H 0.32715 0.74297 0.21896 0.0
H68 H 0.3116 0.70273 0.24641 0.0
H69 H 0.28416 0.71557 0.20424 0.0
H70 H 0.26368 0.70622 0.22025 0.0
H71 H 0.30281 0.6776 0.23641 0.0
H72 H 0.28362 0.65544 0.24068 0.0
H73 H 0.30774 0.76305 0.2106 0.0
H74 H 0.29667 0.72289 0.17941 0.0
H75 H 0.24468 0.68374 0.2239 0.0
H76 H 0.30268 0.78104 0.18853 0.0
H77 H 0.29175 0.74084 0.1573 0.0
C78 C 0.99958 0.48314 0.10342 0.0
C79 C 0.01627 0.4818 0.10264 0.0
C80 C 0.98946 0.48135 0.08974 0.0
C81 C 0.99579 0.47819 0.07496 0.0
C82 C 0.01248 0.47689 0.07419 0.0
C83 C 0.02259 0.47867 0.08785 0.0
C84 C 0.98503 0.47621 0.0604 0.0
C85 C 0.97229 0.48628 0.05756 0.0
C86 C 0.96205 0.48448 0.04385 0.0
C87 C 0.96473 0.47241 0.0329 0.0
C88 C 0.97743 0.46225 0.03549 0.0
C89 C 0.9875 0.46424 0.04927 0.0
C90 C 0.98009 0.44951 0.02382 0.0
C91 C 0.96701 0.44037 0.01688 0.0
C92 C 0.99572 0.44639 0.01953 0.0
C93 C 0.9982 0.43439 0.00857 0.0
C94 C 0.98512 0.42521 0.00169 0.0
C95 C 0.94861 0.49523 0.04091 0.0
C96 C 0.93931 0.49988 0.05343 0.0
C97 C 0.94494 0.50088 0.02555 0.0
C98 C 0.93228 0.51091 0.02278 0.0
C99 C 0.92305 0.51562 0.03531 0.0
C100 C 0.9267 0.50999 0.05067 0.0
C101 C 0.96949 0.42837 0.00595 0.0
H102 H 0.99429 0.48534 0.11465 0.0
H103 H 0.97663 0.4822 0.09078 0.0
H104 H 0.01778 0.47471 0.06296 0.0
H105 H 0.03542 0.47785 0.08678 0.0
H106 H 0.9706 0.49582 0.06586 0.0
H107 H 0.99704 0.45617 0.05155 0.0
H108 H 0.95689 0.47091 0.02232 0.0
H109 H 0.95483 0.44235 0.02005 0.0
H110 H 0.00604 0.45332 0.02454 0.0
H111 H 0.01041 0.43216 0.00567 0.0
H112 H 0.94162 0.49555 0.06536 0.0
H113 H 0.95202 0.49776 0.01567 0.0
H114 H 0.95913 0.42164 0.00075 0.0
H115 H 0.91967 0.51324 0.06054 0.0
H116 H 0.92991 0.51524 0.01086 0.0
C117 C 0.70984 0.77263 0.16988 0.0
C118 C 0.72497 0.76643 0.168 0.0
C119 C 0.70797 0.78455 0.1811 0.0
C120 C 0.72122 0.7906 0.19059 0.0
C121 C 0.73633 0.7843 0.1888 0.0
C122 C 0.73817 0.77231 0.17767 0.0
C123 C 0.71933 0.8036 0.20215 0.0
C124 C 0.7062 0.80314 0.21201 0.0
C125 C 0.70425 0.81543 0.22294 0.0
C126 C 0.71555 0.82839 0.22376 0.0
C127 C 0.7288 0.829 0.21407 0.0
C128 C 0.73063 0.81653 0.20334 0.0
C129 C 0.7408 0.84261 0.21528 0.0
C130 C 0.73582 0.85824 0.21584 0.0
C131 C 0.75734 0.84003 0.21609 0.0
C132 C 0.76865 0.8528 0.2176 0.0
C133 C 0.76371 0.86848 0.21819 0.0
C134 C 0.6907 0.81451 0.23381 0.0
C135 C 0.67525 0.8088 0.22838 0.0
C136 C 0.69322 0.81906 0.24983 0.0
C137 C 0.68065 0.81783 0.26019 0.0
C138 C 0.66526 0.81195 0.25481 0.0
C139 C 0.66268 0.8075 0.23877 0.0
C140 C 0.74713 0.87103 0.21722 0.0
H141 H 0.69942 0.76825 0.16269 0.0
H142 H 0.69621 0.78924 0.18213 0.0
H143 H 0.74673 0.78863 0.19605 0.0
H144 H 0.75001 0.76787 0.17639 0.0
H145 H 0.69775 0.79293 0.21149 0.0
H146 H 0.74066 0.8171 0.19561 0.0
H147 H 0.71412 0.83797 0.23207 0.0
H148 H 0.72315 0.86059 0.21504 0.0
H149 H 0.76152 0.82809 0.21589 0.0
H150 H 0.78129 0.85035 0.21859 0.0
H151 H 0.67284 0.8054 0.21606 0.0
H152 H 0.70503 0.82323 0.25448 0.0
H153 H 0.74287 0.88294 0.21735 0.0
H154 H 0.6509 0.80311 0.23423 0.0
H155 H 0.6831 0.82109 0.27253 0.0
C156 C 0.99682 0.99044 0.43885 0.0
C157 C 0.00283 0.99301 0.42374 0.0
C158 C 0.00732 0.9884 0.45206 0.0
C159 C 0.02405 0.98904 0.45044 0.0
C160 C 0.03006 0.99184 0.43537 0.0
C161 C 0.01957 0.99374 0.42215 0.0
C162 C 0.0352 0.98658 0.4644 0.0
C163 C 0.03207 0.97409 0.47497 0.0
C164 C 0.04263 0.97146 0.48811 0.0
C165 C 0.05642 0.98164 0.49061 0.0
C166 C 0.05985 0.99409 0.48007 0.0
C167 C 0.04915 0.99648 0.46701 0.0
C168 C 0.07476 0.00443 0.48259 0.0
C169 C 0.07987 0.00982 0.4979 0.0
C170 C 0.08413 0.0088 0.46973 0.0
C171 C 0.09829 0.01828 0.47212 0.0
C172 C 0.10343 0.02362 0.48744 0.0
C173 C 0.03953 0.95777 0.49887 0.0
C174 C 0.02374 0.953 0.50265 0.0
C175 C 0.05233 0.94907 0.50513 0.0
C176 C 0.04941 0.9359 0.51476 0.0
C177 C 0.03362 0.93097 0.51819 0.0
C178 C 0.02082 0.93968 0.5121 0.0
C179 C 0.09403 0.01929 0.50029 0.0
H180 H 0.98398 0.98972 0.44043 0.0
H181 H 0.00234 0.98639 0.46355 0.0
H182 H 0.04289 0.99228 0.43373 0.0
H183 H 0.02456 0.99586 0.41068 0.0
H184 H 0.02166 0.96608 0.47259 0.0
H185 H 0.05151 0.00625 0.459 0.0
H186 H 0.06464 0.97978 0.5007 0.0
H187 H 0.07281 0.00686 0.50803 0.0
H188 H 0.08066 0.00465 0.45782 0.0
H189 H 0.10535 0.02122 0.46199 0.0
H190 H 0.01361 0.95955 0.49831 0.0
H191 H 0.06462 0.95215 0.50225 0.0
H192 H 0.09749 0.02342 0.5122 0.0
H193 H 0.00854 0.93621 0.51469 0.0
H194 H 0.05949 0.92926 0.51912 0.0
C195 C 0.16015 0.70249 0.73476 0.0
C196 C 0.15576 0.71765 0.72984 0.0
C197 C 0.17323 0.70077 0.74556 0.0
C198 C 0.18214 0.71417 0.75173 0.0
C199 C 0.17783 0.72931 0.74668 0.0
C200 C 0.16481 0.73102 0.73588 0.0
C201 C 0.19569 0.7125 0.76364 0.0
C202 C 0.2069 0.70078 0.7619 0.0
C203 C 0.2199 0.69948 0.77302 0.0
C204 C 0.2215 0.71001 0.78603 0.0
C205 C 0.21036 0.72171 0.78803 0.0
C206 C 0.19748 0.72281 0.7768 0.0
C207 C 0.21216 0.7328 0.80184 0.0
C208 C 0.21706 0.72735 0.81697 0.0
C209 C 0.20899 0.74892 0.80002 0.0
C210 C 0.21063 0.75932 0.813 0.0
C211 C 0.21555 0.75387 0.82812 0.0
C212 C 0.23194 0.68728 0.77106 0.0
C213 C 0.22708 0.67167 0.76645 0.0
C214 C 0.24841 0.69111 0.7741 0.0
C215 C 0.25974 0.6796 0.77277 0.0
C216 C 0.2549 0.66395 0.76832 0.0
C217 C 0.23843 0.66013 0.76513 0.0
C218 C 0.21878 0.73776 0.82992 0.0
H219 H 0.15354 0.69194 0.7302 0.0
H220 H 0.17618 0.68896 0.7493 0.0
H221 H 0.18456 0.73987 0.75106 0.0
H222 H 0.16167 0.74287 0.73247 0.0
H223 H 0.20578 0.69299 0.75162 0.0
H224 H 0.18858 0.73151 0.77848 0.0
H225 H 0.2315 0.7091 0.79462 0.0
H226 H 0.21943 0.71499 0.81886 0.0
H227 H 0.20538 0.75356 0.7885 0.0
H228 H 0.20788 0.7716 0.81119 0.0
H229 H 0.21447 0.6683 0.76414 0.0
H230 H 0.2526 0.70307 0.77747 0.0
H231 H 0.22282 0.73319 0.84133 0.0
H232 H 0.23431 0.64823 0.76151 0.0
H233 H 0.27229 0.68294 0.77549 0.0
C234 C 0.98211 0.57518 0.48528 0.0
C235 C 0.98087 0.57391 0.50181 0.0
C236 C 0.97878 0.56198 0.4754 0.0
C237 C 0.97403 0.54723 0.4818 0.0
C238 C 0.97294 0.5459 0.49832 0.0
C239 C 0.97636 0.55907 0.50823 0.0
C240 C 0.96984 0.5334 0.47121 0.0
C241 C 0.97952 0.53 0.45859 0.0
C242 C 0.97543 0.51717 0.44824 0.0
C243 C 0.96145 0.50763 0.45075 0.0
C244 C 0.95166 0.51081 0.4634 0.0
C245 C 0.95597 0.52373 0.47354 0.0
C246 C 0.93681 0.50083 0.466 0.0
C247 C 0.9264 0.49578 0.45314 0.0
C248 C 0.93276 0.49654 0.48146 0.0
C249 C 0.91858 0.48758 0.48402 0.0
C250 C 0.90811 0.48265 0.47119 0.0
C251 C 0.98585 0.51378 0.4349 0.0
C252 C 0.99291 0.52629 0.42624 0.0
C253 C 0.98915 0.4981 0.43096 0.0
C254 C 0.99952 0.49505 0.41886 0.0
C255 C 0.00688 0.5076 0.41052 0.0
C256 C 0.00333 0.52324 0.41424 0.0
C257 C 0.91222 0.48678 0.45571 0.0
H258 H 0.98527 0.58647 0.47989 0.0
H259 H 0.97951 0.56343 0.46269 0.0
H260 H 0.96952 0.53462 0.50361 0.0
H261 H 0.97554 0.55761 0.52092 0.0
H262 H 0.99046 0.53721 0.45703 0.0
H263 H 0.94824 0.52658 0.48301 0.0
H264 H 0.95816 0.49772 0.44284 0.0
H265 H 0.92905 0.49907 0.4411 0.0
H266 H 0.94064 0.5 0.49161 0.0
H267 H 0.91593 0.48434 0.49607 0.0
H268 H 0.99037 0.53849 0.42871 0.0
H269 H 0.98408 0.48819 0.4375 0.0
H270 H 0.90432 0.4833 0.44558 0.0
H271 H 0.0086 0.53315 0.40784 0.0
H272 H 0.00214 0.48288 0.41635 0.0
C273 C 0.81022 0.74468 0.82904 0.0
C274 C 0.79522 0.7389 0.83415 0.0
C275 C 0.81115 0.75517 0.81629 0.0
C276 C 0.7971 0.76006 0.80823 0.0
C277 C 0.78211 0.75396 0.81307 0.0
C278 C 0.78118 0.74357 0.82589 0.0
C279 C 0.79806 0.77179 0.79511 0.0
C280 C 0.81026 0.77128 0.7842 0.0
C281 C 0.81156 0.7826 0.77207 0.0
C282 C 0.80025 0.7944 0.77079 0.0
C283 C 0.78786 0.79504 0.78147 0.0
C284 C 0.78694 0.78375 0.79363 0.0
C285 C 0.77595 0.80758 0.78 0.0
C286 C 0.78087 0.82325 0.77626 0.0
C287 C 0.75956 0.80397 0.78229 0.0
C288 C 0.74836 0.81573 0.78079 0.0
C289 C 0.75328 0.83135 0.7769 0.0
C290 C 0.82476 0.78215 0.76082 0.0
C291 C 0.84038 0.77853 0.76622 0.0
C292 C 0.82189 0.78541 0.74462 0.0
C293 C 0.83432 0.78508 0.73409 0.0
C294 C 0.84992 0.78138 0.73947 0.0
C295 C 0.85279 0.77812 0.75567 0.0
C296 C 0.76966 0.83498 0.77469 0.0
H297 H 0.8213 0.74118 0.83498 0.0
H298 H 0.8229 0.75972 0.813 0.0
H299 H 0.77105 0.75728 0.80699 0.0
H300 H 0.7694 0.73954 0.82957 0.0
H301 H 0.81861 0.76185 0.78496 0.0
H302 H 0.7778 0.78456 0.80227 0.0
H303 H 0.80112 0.80315 0.76146 0.0
H304 H 0.79343 0.82652 0.77471 0.0
H305 H 0.75533 0.79198 0.78498 0.0
H306 H 0.73579 0.81252 0.78238 0.0
H307 H 0.84308 0.77615 0.77865 0.0
H308 H 0.80999 0.78807 0.74 0.0
H309 H 0.77388 0.84696 0.77196 0.0
H310 H 0.8646 0.77504 0.76021 0.0
H311 H 0.8317 0.78786 0.72174 0.0
C312 C 0.31093 0.24654 0.33161 0.0
C313 C 0.29587 0.24063 0.33647 0.0
C314 C 0.31198 0.25713 0.31896 0.0
C315 C 0.298 0.262 0.31073 0.0
C316 C 0.28297 0.25577 0.31532 0.0
C317 C 0.28191 0.24528 0.32806 0.0
C318 C 0.29909 0.27382 0.29769 0.0
C319 C 0.31151 0.2735 0.28702 0.0
C320 C 0.31294 0.28492 0.27499 0.0
C321 C 0.30151 0.29658 0.27353 0.0
C322 C 0.28887 0.297 0.28395 0.0
C323 C 0.28784 0.28564 0.29605 0.0
C324 C 0.27678 0.30935 0.28228 0.0
C325 C 0.28154 0.32512 0.27878 0.0
C326 C 0.26037 0.30545 0.28416 0.0
C327 C 0.249 0.31704 0.28253 0.0
C328 C 0.25376 0.33277 0.27893 0.0
C329 C 0.32638 0.28461 0.26399 0.0
C330 C 0.34191 0.28095 0.26965 0.0
C331 C 0.32379 0.28788 0.24774 0.0
C332 C 0.33638 0.28738 0.23741 0.0
C333 C 0.35182 0.2835 0.24305 0.0
C334 C 0.35446 0.28034 0.25929 0.0
C335 C 0.27017 0.33668 0.27711 0.0
H336 H 0.32195 0.24306 0.33765 0.0
H337 H 0.32376 0.26179 0.31587 0.0
H338 H 0.27196 0.25905 0.30912 0.0
H339 H 0.2701 0.24115 0.33155 0.0
H340 H 0.31994 0.26415 0.28789 0.0
H341 H 0.27851 0.2863 0.30449 0.0
H342 H 0.30246 0.30538 0.26426 0.0
H343 H 0.2941 0.3286 0.27754 0.0
H344 H 0.25627 0.29338 0.28664 0.0
H345 H 0.23643 0.3136 0.28382 0.0
H346 H 0.34441 0.27867 0.28213 0.0
H347 H 0.31195 0.2905 0.24292 0.0
H348 H 0.27426 0.34875 0.27459 0.0
H349 H 0.36628 0.27751 0.26402 0.0
H350 H 0.33392 0.28965 0.22491 0.0
C351 C 0.50111 0.98433 0.60421 0.0
C352 C 0.51778 0.98273 0.60363 0.0
C353 C 0.49112 0.98272 0.59041 0.0
C354 C 0.49758 0.97947 0.57572 0.0
C355 C 0.51426 0.97795 0.57514 0.0
C356 C 0.52423 0.97956 0.58891 0.0
C357 C 0.48698 0.97757 0.56105 0.0
C358 C 0.47436 0.98776 0.55803 0.0
C359 C 0.46432 0.98604 0.54417 0.0
C360 C 0.46704 0.97393 0.5333 0.0
C361 C 0.47958 0.96362 0.53609 0.0
C362 C 0.48947 0.96554 0.55 0.0
C363 C 0.48222 0.95077 0.52453 0.0
C364 C 0.46909 0.94186 0.51738 0.0
C365 C 0.49786 0.94733 0.52054 0.0
C366 C 0.50031 0.93524 0.50968 0.0
C367 C 0.48717 0.92629 0.50257 0.0
C368 C 0.45098 0.99684 0.54101 0.0
C369 C 0.4413 0.00133 0.55329 0.0
C370 C 0.44769 0.00258 0.52561 0.0
C371 C 0.43496 0.01245 0.52254 0.0
C372 C 0.42524 0.01689 0.53481 0.0
C373 C 0.42859 0.01126 0.55023 0.0
C374 C 0.47153 0.92979 0.50652 0.0
H375 H 0.49572 0.98658 0.61538 0.0
H376 H 0.4783 0.98375 0.59131 0.0
H377 H 0.51967 0.97572 0.56397 0.0
H378 H 0.53706 0.97854 0.58799 0.0
H379 H 0.4726 0.99731 0.56628 0.0
H380 H 0.49888 0.95736 0.55244 0.0
H381 H 0.45935 0.97249 0.52261 0.0
H382 H 0.45689 0.94408 0.52031 0.0
H383 H 0.50822 0.95408 0.52571 0.0
H384 H 0.51252 0.93275 0.50703 0.0
H385 H 0.44335 0.99695 0.56524 0.0
H386 H 0.45508 0.99958 0.51592 0.0
H387 H 0.46114 0.92325 0.50114 0.0
H388 H 0.42121 0.01431 0.5599 0.0
H389 H 0.43286 0.0168 0.51059 0.0
C390 C 0.21215 0.27023 0.67178 0.0
C391 C 0.22772 0.26558 0.66896 0.0
C392 C 0.20984 0.28228 0.68274 0.0
C393 C 0.22304 0.28991 0.69116 0.0
C394 C 0.23858 0.28503 0.68851 0.0
C395 C 0.24089 0.27305 0.67752 0.0
C396 C 0.22068 0.30298 0.70256 0.0
C397 C 0.20777 0.30209 0.71272 0.0
C398 C 0.20563 0.31431 0.72366 0.0
C399 C 0.21651 0.32759 0.72432 0.0
C400 C 0.2295 0.32868 0.71432 0.0
C401 C 0.23146 0.31636 0.70345 0.0
C402 C 0.24125 0.34251 0.71548 0.0
C403 C 0.23599 0.35801 0.71659 0.0
C404 C 0.25783 0.34024 0.71575 0.0
C405 C 0.26895 0.35318 0.71722 0.0
C406 C 0.26374 0.36872 0.71834 0.0
C407 C 0.19233 0.31298 0.73477 0.0
C408 C 0.17678 0.3075 0.72942 0.0
C409 C 0.19516 0.31701 0.75088 0.0
C410 C 0.18277 0.31551 0.76143 0.0
C411 C 0.16724 0.30996 0.75611 0.0
C412 C 0.16436 0.30605 0.73997 0.0
C413 C 0.24711 0.37098 0.71795 0.0
H414 H 0.20178 0.26481 0.66524 0.0
H415 H 0.19773 0.28586 0.68434 0.0
H416 H 0.249 0.29041 0.69503 0.0
H417 H 0.25301 0.26955 0.67579 0.0
H418 H 0.19968 0.29162 0.71248 0.0
H419 H 0.24126 0.31735 0.69547 0.0
H420 H 0.21498 0.33703 0.73276 0.0
H421 H 0.22327 0.36013 0.71623 0.0
H422 H 0.26224 0.32841 0.71515 0.0
H423 H 0.28164 0.35095 0.71778 0.0
H424 H 0.17421 0.30441 0.71704 0.0
H425 H 0.20703 0.32111 0.75541 0.0
H426 H 0.24266 0.38279 0.71855 0.0
H427 H 0.15256 0.30161 0.73554 0.0
H428 H 0.18534 0.31877 0.77376 0.0
C429 C 0.85603 0.24081 0.75753 0.0
C430 C 0.86458 0.22776 0.76287 0.0
C431 C 0.84214 0.23858 0.74766 0.0
C432 C 0.83647 0.22324 0.74292 0.0
C433 C 0.84508 0.21019 0.74816 0.0
C434 C 0.859 0.21243 0.758 0.0
C435 C 0.8215 0.2209 0.7327 0.0
C436 C 0.81854 0.231 0.71979 0.0
C437 C 0.80422 0.22921 0.7103 0.0
C438 C 0.79281 0.21708 0.7139 0.0
C439 C 0.79567 0.20669 0.72658 0.0
C440 C 0.81004 0.20869 0.73594 0.0
C441 C 0.78368 0.19364 0.72989 0.0
C442 C 0.76717 0.19637 0.72948 0.0
C443 C 0.78864 0.17826 0.73306 0.0
C444 C 0.77733 0.16583 0.73552 0.0
C445 C 0.76079 0.16851 0.73494 0.0
C446 C 0.8012 0.23988 0.69656 0.0
C447 C 0.80603 0.25611 0.69742 0.0
C448 C 0.79335 0.23393 0.68247 0.0
C449 C 0.79013 0.24396 0.66971 0.0
C450 C 0.7949 0.26013 0.67064 0.0
C451 C 0.80301 0.2661 0.68454 0.0
C452 C 0.75586 0.18396 0.73199 0.0
H453 H 0.8601 0.25279 0.76094 0.0
H454 H 0.8357 0.24886 0.74395 0.0
H455 H 0.8411 0.19824 0.74458 0.0
H456 H 0.86523 0.20212 0.76203 0.0
H457 H 0.82761 0.24005 0.71692 0.0
H458 H 0.8121 0.20099 0.74601 0.0
H459 H 0.78167 0.21562 0.70676 0.0
H460 H 0.76299 0.20815 0.7273 0.0
H461 H 0.80127 0.17575 0.73324 0.0
H462 H 0.78154 0.15405 0.73753 0.0
H463 H 0.81189 0.26117 0.70814 0.0
H464 H 0.78979 0.22145 0.6812 0.0
H465 H 0.74324 0.18649 0.73174 0.0
H466 H 0.80671 0.27857 0.68557 0.0
H467 H 0.78407 0.23903 0.65902 0.0
C468 C 0.53018 0.56493 0.47267 0.0
C469 C 0.53094 0.58 0.47986 0.0
C470 C 0.53117 0.55128 0.48197 0.0
C471 C 0.53262 0.5525 0.4986 0.0
C472 C 0.53316 0.56757 0.50577 0.0
C473 C 0.53243 0.58119 0.49649 0.0
C474 C 0.53388 0.53819 0.50859 0.0
C475 C 0.54523 0.52701 0.50553 0.0
C476 C 0.54736 0.51403 0.51569 0.0
C477 C 0.53778 0.51229 0.52895 0.0
C478 C 0.52628 0.52337 0.53215 0.0
C479 C 0.52436 0.5362 0.52176 0.0
C480 C 0.51666 0.52195 0.54658 0.0
C481 C 0.51105 0.50705 0.55205 0.0
C482 C 0.51309 0.5356 0.55508 0.0
C483 C 0.50408 0.53441 0.56858 0.0
C484 C 0.49859 0.51952 0.57417 0.0
C485 C 0.56011 0.50277 0.51282 0.0
C486 C 0.56315 0.49799 0.4973 0.0
C487 C 0.56966 0.49708 0.52556 0.0
C488 C 0.58196 0.48691 0.52284 0.0
C489 C 0.58508 0.48227 0.50732 0.0
C490 C 0.57554 0.4879 0.49457 0.0
C491 C 0.50219 0.50584 0.56572 0.0
H492 H 0.52909 0.56373 0.45986 0.0
H493 H 0.53069 0.53977 0.47619 0.0
H494 H 0.53441 0.56883 0.51857 0.0
H495 H 0.53291 0.59267 0.50232 0.0
H496 H 0.55291 0.52886 0.49562 0.0
H497 H 0.51538 0.54472 0.52386 0.0
H498 H 0.53948 0.50243 0.53693 0.0
H499 H 0.5134 0.49629 0.54574 0.0
H500 H 0.51741 0.54727 0.55142 0.0
H501 H 0.50135 0.54524 0.57457 0.0
H502 H 0.55589 0.50197 0.48723 0.0
H503 H 0.56789 0.50076 0.53764 0.0
H504 H 0.49835 0.49415 0.56975 0.0
H505 H 0.57753 0.48436 0.4825 0.0
H506 H 0.58926 0.48293 0.53289 0.0
C507 C 0.49715 0.4917 0.93925 0.0
C508 C 0.50302 0.4941 0.92405 0.0
C509 C 0.50772 0.48921 0.95229 0.0
C510 C 0.5244 0.48922 0.95044 0.0
C511 C 0.53028 0.49194 0.9353 0.0
C512 C 0.51971 0.4943 0.92224 0.0
C513 C 0.53563 0.48595 0.96413 0.0
C514 C 0.53209 0.47338 0.97447 0.0
C515 C 0.54295 0.4697 0.98702 0.0
C516 C 0.5574 0.47892 0.98931 0.0
C517 C 0.56108 0.49168 0.97921 0.0
C518 C 0.55012 0.49507 0.96662 0.0
C519 C 0.57635 0.50147 0.98184 0.0
C520 C 0.58197 0.50594 0.99729 0.0
C521 C 0.58537 0.50649 0.96895 0.0
C522 C 0.59961 0.51585 0.97143 0.0
C523 C 0.60517 0.52043 0.98686 0.0
C524 C 0.53941 0.45591 0.9974 0.0
C525 C 0.52403 0.45319 0.00329 0.0
C526 C 0.55132 0.44515 0.00119 0.0
C527 C 0.54785 0.43183 0.01045 0.0
C528 C 0.53242 0.42899 0.01623 0.0
C529 C 0.52059 0.43991 0.01264 0.0
C530 C 0.59621 0.51529 -0.00024 0.0
H531 H 0.48435 0.49139 0.94099 0.0
H532 H 0.50285 0.48726 0.96385 0.0
H533 H 0.54306 0.4919 0.93346 0.0
H534 H 0.52461 0.49628 0.91071 0.0
H535 H 0.52113 0.46604 0.97237 0.0
H536 H 0.55272 0.50501 0.95889 0.0
H537 H 0.56583 0.47608 0.99894 0.0
H538 H 0.57525 0.50241 0.00748 0.0
H539 H 0.58148 0.5031 0.95691 0.0
H540 H 0.60612 0.51973 0.96121 0.0
H541 H 0.51468 0.46139 0.00073 0.0
H542 H 0.56321 0.4468 0.99663 0.0
H543 H 0.60022 0.51845 0.01182 0.0
H544 H 0.50866 0.43825 0.0171 0.0
H545 H 0.55718 0.42353 0.01271 0.0
C546 C 0.65952 0.20283 0.23532 0.0
C547 C 0.65542 0.21797 0.23005 0.0
C548 C 0.67292 0.20106 0.2457 0.0
C549 C 0.68247 0.21439 0.25107 0.0
C550 C 0.67852 0.22948 0.24558 0.0
C551 C 0.66519 0.23124 0.2352 0.0
C552 C 0.69629 0.21273 0.26266 0.0
C553 C 0.70717 0.20071 0.26091 0.0
C554 C 0.72044 0.19945 0.27172 0.0
C555 C 0.72262 0.21031 0.28443 0.0
C556 C 0.7118 0.2223 0.28644 0.0
C557 C 0.69866 0.22337 0.2755 0.0
C558 C 0.71418 0.2337 0.29995 0.0
C559 C 0.71941 0.22854 0.31508 0.0
C560 C 0.71119 0.24983 0.29785 0.0
C561 C 0.71328 0.26051 0.31058 0.0
C562 C 0.71849 0.25534 0.32571 0.0
C563 C 0.73219 0.18697 0.26973 0.0
C564 C 0.72696 0.17133 0.26558 0.0
C565 C 0.74876 0.19057 0.27232 0.0
C566 C 0.75983 0.17882 0.27101 0.0
C567 C 0.75463 0.16314 0.26701 0.0
C568 C 0.73806 0.15954 0.26426 0.0
C569 C 0.7216 0.23923 0.32778 0.0
H570 H 0.65217 0.19237 0.23171 0.0
H571 H 0.67558 0.1893 0.24984 0.0
H572 H 0.68582 0.23995 0.24927 0.0
H573 H 0.66261 0.24303 0.2311 0.0
H574 H 0.70558 0.19265 0.25087 0.0
H575 H 0.69002 0.23232 0.27717 0.0
H576 H 0.73281 0.20942 0.29279 0.0
H577 H 0.72166 0.21619 0.31719 0.0
H578 H 0.70734 0.25427 0.28632 0.0
H579 H 0.71061 0.27279 0.30858 0.0
H580 H 0.71427 0.16814 0.26362 0.0
H581 H 0.75323 0.20253 0.27533 0.0
H582 H 0.72586 0.23486 0.3392 0.0
H583 H 0.73366 0.14763 0.26099 0.0
H584 H 0.77247 0.18199 0.2734 0.0
C585 C 0.48127 0.07429 0.98357 0.0
C586 C 0.47923 0.07366 1e-05 0.0
C587 C 0.47799 0.06083 0.97405 0.0
C588 C 0.47258 0.04642 0.98074 0.0
C589 C 0.47073 0.04572 0.99721 0.0
C590 C 0.47404 0.05919 0.00674 0.0
C591 C 0.46864 0.03224 0.9705 0.0
C592 C 0.47856 0.02854 0.95816 0.0
C593 C 0.47474 0.01542 0.94812 0.0
C594 C 0.46086 0.00579 0.95073 0.0
C595 C 0.45083 0.00922 0.96312 0.0
C596 C 0.45481 0.02251 0.97288 0.0
C597 C 0.43616 0.99901 0.96588 0.0
C598 C 0.42615 0.99314 0.95306 0.0
C599 C 0.43201 0.99513 0.98141 0.0
C600 C 0.41819 0.98564 0.98407 0.0
C601 C 0.40819 0.97973 0.97127 0.0
C602 C 0.48533 0.01185 0.93497 0.0
C603 C 0.49227 0.02424 0.92607 0.0
C604 C 0.48884 0.99614 0.9314 0.0
C605 C 0.49928 0.99294 0.91941 0.0
C606 C 0.50652 0.00539 0.91083 0.0
C607 C 0.50278 0.02105 0.91419 0.0
C608 C 0.41233 0.98361 0.95573 0.0
H609 H 0.48543 0.08521 0.97804 0.0
H610 H 0.47941 0.06181 0.96138 0.0
H611 H 0.46675 0.03475 0.00275 0.0
H612 H 0.4722 0.05833 0.01935 0.0
H613 H 0.48949 0.03576 0.95658 0.0
H614 H 0.44687 0.02555 0.9821 0.0
H615 H 0.45783 0.99562 0.9431 0.0
H616 H 0.42889 0.99604 0.94096 0.0
H617 H 0.43954 0.99932 0.99155 0.0
H618 H 0.41529 0.98305 0.9962 0.0
H619 H 0.48957 0.03645 0.92825 0.0
H620 H 0.48385 0.98632 0.93813 0.0
H621 H 0.405 0.97912 0.94558 0.0
H622 H 0.50796 0.03087 0.90759 0.0
H623 H 0.50205 0.98076 0.91717 0.0
Mg624 Mg 0.23925 0.85702 0.00592 0.0
O625 O 0.26307 0.87115 0.00187 0.0
O626 O 0.28238 0.85367 0.00308 0.0
Mg627 Mg 0.27135 0.829 0.00825 0.0
C628 C 0.27781 0.86778 0.00115 0.0
C629 C 0.20946 0.87397 0.99533 0.0
O630 O 0.20446 0.85904 0.99666 0.0
O631 O 0.23928 0.84679 0.98085 0.0
O632 O 0.2581 0.82892 0.98365 0.0
O633 O 0.24277 0.86064 0.03211 0.0
O634 O 0.25145 0.84028 0.0191 0.0
C635 C 0.24732 0.83575 0.97524 0.0
C636 C 0.25065 0.84781 0.03232 0.0
O637 O 0.22437 0.87761 0.99772 0.0
Mg638 Mg 0.14894 0.50249 0.26866 0.0
O639 O 0.13337 0.50093 0.24526 0.0
O640 O 0.15038 0.50205 0.22556 0.0
Mg641 Mg 0.17621 0.50475 0.23589 0.0
C642 C 0.13612 0.50087 0.23047 0.0
C643 C 0.12787 0.50213 0.29663 0.0
O644 O 0.14022 0.51193 0.30043 0.0
O645 O 0.156 0.47689 0.26549 0.0
O646 O 0.17363 0.47969 0.24641 0.0
O647 O 0.14899 0.52896 0.26866 0.0
O648 O 0.16719 0.51524 0.25736 0.0
C649 C 0.16616 0.47115 0.25646 0.0
C650 C 0.16167 0.52884 0.2604 0.0
O651 O 0.12743 0.49515 0.28322 0.0
Mg652 Mg 0.77346 0.65036 0.01719 0.0
O653 O 0.75 0.63478 0.0133 0.0
O654 O 0.73006 0.65144 0.01046 0.0
Mg655 Mg 0.74022 0.67699 0.01291 0.0
C656 C 0.7351 0.6374 0.01092 0.0
C657 C 0.80166 0.62979 0.0223 0.0
O658 O 0.8042 0.64176 0.03227 0.0
O659 O 0.77278 0.65691 0.9909 0.0
O660 O 0.75314 0.67402 0.98967 0.0
O661 O 0.77073 0.65083 0.04345 0.0
O662 O 0.76088 0.66846 0.0269 0.0
C663 C 0.76413 0.66661 0.98317 0.0
C664 C 0.76251 0.6633 0.04121 0.0
O665 O 0.78896 0.6293 0.01328 0.0
Mg666 Mg 0.90216 0.02892 0.24461 0.0
O667 O 0.8866 0.00586 0.24015 0.0
O668 O 0.90323 0.98679 0.23479 0.0
Mg669 Mg 0.92906 0.99728 0.23614 0.0
C670 C 0.8891 0.99148 0.23661 0.0
C671 C 0.88109 0.05613 0.25113 0.0
O672 O 0.89349 0.06255 0.24401 0.0
O673 O 0.9102 0.02021 0.26926 0.0
O674 O 0.92735 0.00196 0.26289 0.0
O675 O 0.90095 0.0343 0.21866 0.0
O676 O 0.91989 0.0206 0.23049 0.0
C677 C 0.9204 0.00995 0.27323 0.0
C678 C 0.91356 0.02611 0.21755 0.0
O679 O 0.88076 0.04133 0.25393 0.0
Mg680 Mg 0.2746 0.14916 0.51825 0.0
O681 O 0.25051 0.13466 0.51445 0.0
O682 O 0.23117 0.15207 0.51282 0.0
Mg683 Mg 0.24251 0.1772 0.51541 0.0
C684 C 0.23569 0.13784 0.51271 0.0
C685 C 0.30399 0.13047 0.51273 0.0
O686 O 0.30954 0.14531 0.51382 0.0
O687 O 0.27375 0.15639 0.49216 0.0
O688 O 0.25467 0.17411 0.49174 0.0
O689 O 0.27215 0.149 0.54454 0.0
O690 O 0.26309 0.16758 0.52862 0.0
C691 C 0.26525 0.16649 0.48483 0.0
C692 C 0.26449 0.16189 0.54273 0.0
O693 O 0.28894 0.12751 0.51343 0.0
Mg694 Mg 0.40224 0.52921 0.74479 0.0
O695 O 0.38647 0.50621 0.74065 0.0
O696 O 0.40305 0.48691 0.73591 0.0
Mg697 Mg 0.42895 0.49719 0.73704 0.0
C698 C 0.38893 0.49173 0.73749 0.0
C699 C 0.3811 0.55667 0.7505 0.0
O700 O 0.39323 0.56287 0.74283 0.0
O701 O 0.41014 0.52082 0.76963 0.0
O702 O 0.42727 0.50243 0.76366 0.0
O703 O 0.40112 0.53444 0.71881 0.0
O704 O 0.41973 0.52034 0.73067 0.0
C705 C 0.42031 0.51061 0.77383 0.0
C706 C 0.41348 0.5259 0.71771 0.0
O707 O 0.381 0.54201 0.75395 0.0
Mg708 Mg 0.74141 0.35633 0.50357 0.0
O709 O 0.76459 0.37206 0.50104 0.0
O710 O 0.78479 0.35558 0.50171 0.0
Mg711 Mg 0.77507 0.3301 0.50507 0.0
C712 C 0.77955 0.36951 0.50053 0.0
C713 C 0.71228 0.3753 0.50368 0.0
O714 O 0.71007 0.36341 0.51348 0.0
O715 O 0.74269 0.34783 0.47799 0.0
O716 O 0.76229 0.33075 0.48027 0.0
O717 O 0.74368 0.35834 0.52996 0.0
O718 O 0.75433 0.3396 0.5162 0.0
C719 C 0.75138 0.33754 0.472 0.0
C720 C 0.75239 0.34608 0.52978 0.0
O721 O 0.72531 0.3764 0.49642 0.0
Mg722 Mg 0.64936 0.00257 0.77015 0.0
O723 O 0.63422 0.00072 0.74655 0.0
O724 O 0.65141 0.0028 0.72704 0.0
Mg725 Mg 0.67707 0.00601 0.73782 0.0
C726 C 0.63711 0.00106 0.7318 0.0
C727 C 0.62801 0.0013 0.79777 0.0
O728 O 0.64019 0.01125 0.80178 0.0
O729 O 0.65728 0.97727 0.76697 0.0
O730 O 0.67501 0.98077 0.74807 0.0
O731 O 0.64844 0.02897 0.76995 0.0
O732 O 0.6675 0.01583 0.75932 0.0
C733 C 0.66769 0.97192 0.75798 0.0
C734 C 0.66136 0.0292 0.76201 0.0
O735 O 0.62778 0.99452 0.78427 0.0
Mg736 Mg 0.03005 0.26011 0.89449 0.0
O737 O 0.00672 0.25386 0.87963 0.0
O738 O 0.98823 0.2451 0.89627 0.0
Mg739 Mg 0.99962 0.24551 0.92147 0.0
C740 C 0.99249 0.2485 0.8823 0.0
C741 C 0.05333 0.28178 0.87568 0.0
O742 O 0.05904 0.28437 0.89031 0.0
O743 O 0.0195 0.28265 0.90356 0.0
O744 O 0.00206 0.27279 0.92074 0.0
O745 O 0.03779 0.23543 0.89199 0.0
O746 O 0.02336 0.24343 0.91151 0.0
C747 C 0.00914 0.28455 0.91399 0.0
C748 C 0.02993 0.23199 0.90451 0.0
O749 O 0.04073 0.2728 0.87338 0.0
Mg750 Mg 0.5305 0.75999 0.3954 0.0
O751 O 0.50684 0.75506 0.38059 0.0
O752 O 0.48832 0.74657 0.39734 0.0
Mg753 Mg 0.4999 0.74581 0.4224 0.0
C754 C 0.49249 0.75017 0.38338 0.0
C755 C 0.55564 0.77967 0.37754 0.0
O756 O 0.56208 0.77939 0.39207 0.0
O757 O 0.52095 0.78268 0.40527 0.0
O758 O 0.50342 0.77301 0.42244 0.0
O759 O 0.53727 0.73506 0.39202 0.0
O760 O 0.5232 0.743 0.41184 0.0
C761 C 0.51083 0.7847 0.4159 0.0
C762 C 0.52925 0.73152 0.4044 0.0
O763 O 0.54172 0.7731 0.37481 0.0
Mg764 Mg 0.99017 0.74753 0.60146 0.0
O765 O 0.01362 0.74299 0.61596 0.0
O766 O 0.03187 0.73758 0.59839 0.0
Mg767 Mg 0.02036 0.73817 0.57325 0.0
C768 C 0.02784 0.73949 0.61267 0.0
C769 C 0.96359 0.75851 0.62099 0.0
O770 O 0.95672 0.75379 0.60731 0.0
O771 O 0.00052 0.77179 0.59404 0.0
O772 O 0.01739 0.76504 0.57563 0.0
O773 O 0.98271 0.72178 0.60211 0.0
O774 O 0.99692 0.73282 0.5833 0.0
C775 C 0.01043 0.77553 0.5834 0.0
C776 C 0.99052 0.72017 0.58935 0.0
O777 O 0.97877 0.7579 0.62295 0.0
Mg778 Mg 0.48936 0.24581 0.1017 0.0
O779 O 0.51312 0.24253 0.11618 0.0
O780 O 0.53162 0.23746 0.09876 0.0
Mg781 Mg 0.52001 0.23727 0.07366 0.0
C782 C 0.5275 0.23951 0.11299 0.0
C783 C 0.46405 0.24914 0.12579 0.0
O784 O 0.45857 0.23751 0.1163 0.0
O785 O 0.49851 0.27031 0.09371 0.0
O786 O 0.5162 0.26402 0.07591 0.0
O787 O 0.4833 0.21981 0.10286 0.0
O788 O 0.49667 0.23121 0.08366 0.0
C789 C 0.50863 0.2743 0.08334 0.0
C790 C 0.49094 0.2184 0.08997 0.0
O791 O 0.47764 0.25594 0.12323 0.0
H792 H 0.20768 0.74803 0.8588 0.0
H793 H 0.21201 0.76564 0.88174 0.0
H794 H 0.23123 0.80258 0.85178 0.0
H795 H 0.22772 0.78472 0.82885 0.0
H796 H 0.24997 0.7995 0.87787 0.0
H797 H 0.18721 0.80249 0.89538 0.0
H798 H 0.19279 0.78232 0.89395 0.0
H799 H 0.19223 0.79453 0.87646 0.0
C800 C 0.21289 0.75987 0.85706 0.0
C801 C 0.21738 0.76492 0.84195 0.0
C802 C 0.21511 0.77003 0.87017 0.0
C803 C 0.22162 0.78556 0.86844 0.0
C804 C 0.22602 0.7907 0.85337 0.0
H805 H 0.22651 0.8479 0.95262 0.0
H806 H 0.22058 0.8381 0.92546 0.0
C807 C 0.2239 0.7805 0.84025 0.0
C808 C 0.22486 0.79596 0.88257 0.0
H809 H 0.20781 0.80943 0.91572 0.0
C810 C 0.2407 0.80188 0.88601 0.0
C811 C 0.21272 0.79938 0.89305 0.0
C812 C 0.19526 0.79449 0.88943 0.0
C813 C 0.24488 0.81034 0.90008 0.0
C814 C 0.23299 0.81259 0.91118 0.0
C815 C 0.21698 0.80749 0.90732 0.0
C816 C 0.2371 0.81915 0.92729 0.0
C817 C 0.26204 0.81666 0.90295 0.0
C818 C 0.24823 0.81166 0.93735 0.0
C819 C 0.2517 0.81724 0.95278 0.0
C820 C 0.24394 0.83033 0.95861 0.0
C821 C 0.23274 0.83781 0.94852 0.0
C822 C 0.22933 0.83224 0.933 0.0
H823 H 0.26793 0.81891 0.89157 0.0
H824 H 0.26271 0.82784 0.90999 0.0
H825 H 0.26895 0.80772 0.90959 0.0
H826 H 0.25403 0.80127 0.93337 0.0
H827 H 0.26029 0.81108 0.96022 0.0
H828 H 0.00429 0.48525 0.38671 0.0
H829 H 0.02386 0.48043 0.36657 0.0
H830 H 0.05532 0.5182 0.38662 0.0
H831 H 0.03599 0.52299 0.40678 0.0
H832 H 0.037 0.50416 0.34416 0.0
H833 H 0.08364 0.47867 0.38425 0.0
H834 H 0.06284 0.47931 0.38926 0.0
H835 H 0.07599 0.49681 0.39127 0.0
C836 C 0.01544 0.49243 0.38688 0.0
C837 C 0.01861 0.50451 0.39831 0.0
C838 C 0.02655 0.48971 0.37535 0.0
C839 C 0.04107 0.49886 0.37524 0.0
C840 C 0.04425 0.5109 0.38663 0.0
H841 H 0.1254 0.51659 0.32522 0.0
H842 H 0.10352 0.51374 0.34328 0.0
C843 C 0.03313 0.51371 0.39804 0.0
C844 C 0.05286 0.49623 0.36305 0.0
H845 H 0.09184 0.48714 0.3588 0.0
C846 C 0.04892 0.5002 0.34724 0.0
C847 C 0.06835 0.49103 0.36718 0.0
C848 C 0.07297 0.48607 0.38389 0.0
C849 C 0.06042 0.49996 0.33559 0.0
C850 C 0.07613 0.49534 0.33986 0.0
C851 C 0.07981 0.49072 0.35555 0.0
C852 C 0.08935 0.49658 0.32869 0.0
C853 C 0.05591 0.50548 0.31904 0.0
C854 C 0.08874 0.48774 0.31451 0.0
C855 C 0.10128 0.4894 0.30404 0.0
C856 C 0.11466 0.49985 0.30767 0.0
C857 C 0.11529 0.50845 0.32202 0.0
C858 C 0.10279 0.50682 0.33239 0.0
H859 H 0.04441 0.5116 0.31854 0.0
H860 H 0.06549 0.51369 0.31458 0.0
H861 H 0.0545 0.49508 0.31093 0.0
H862 H 0.07862 0.47954 0.31156 0.0
H863 H 0.10048 0.48254 0.29313 0.0
H864 H 0.81384 0.74119 0.86181 0.0
H865 H 0.81094 0.72566 0.88593 0.0
H866 H 0.77065 0.69868 0.86357 0.0
H867 H 0.774 0.71359 0.83907 0.0
H868 H 0.78555 0.72525 0.90376 0.0
H869 H 0.79514 0.66379 0.88461 0.0
H870 H 0.80052 0.68084 0.87274 0.0
H871 H 0.78002 0.67297 0.87245 0.0
C872 C 0.80464 0.73166 0.86182 0.0
C873 C 0.79415 0.72866 0.84845 0.0
C874 C 0.80293 0.72285 0.87569 0.0
C875 C 0.7907 0.71087 0.87652 0.0
C876 C 0.7804 0.70762 0.86312 0.0
H877 H 0.74505 0.68182 0.96157 0.0
H878 H 0.75192 0.69123 0.93533 0.0
C879 C 0.78217 0.71635 0.84919 0.0
C880 C 0.78779 0.7029 0.89186 0.0
H881 H 0.78274 0.6667 0.9095 0.0
C882 C 0.78509 0.71245 0.90502 0.0
C883 C 0.78736 0.6862 0.89357 0.0
C884 C 0.79108 0.67536 0.88013 0.0
C885 C 0.78157 0.70579 0.91972 0.0
C886 C 0.78031 0.68909 0.92123 0.0
C887 C 0.78348 0.6795 0.90823 0.0
C888 C 0.77547 0.68154 0.93621 0.0
C889 C 0.77929 0.71673 0.93355 0.0
C890 C 0.78612 0.67225 0.94506 0.0
C891 C 0.78217 0.66669 0.96009 0.0
C892 C 0.76752 0.6704 0.96647 0.0
C893 C 0.75654 0.67895 0.95714 0.0
C894 C 0.76045 0.68438 0.94213 0.0
H895 H 0.78496 0.72874 0.93169 0.0
H896 H 0.76624 0.71802 0.93487 0.0
H897 H 0.78447 0.71188 0.94479 0.0
H898 H 0.79774 0.66984 0.94062 0.0
H899 H 0.79087 0.6601 0.96694 0.0
H900 H 0.97617 0.01071 0.42092 0.0
H901 H 0.9581 0.0136 0.39735 0.0
H902 H 0.98644 0.9822 0.37115 0.0
H903 H 0.00442 0.97913 0.39462 0.0
H904 H 0.96765 0.02474 0.36636 0.0
H905 H 0.93921 0.96388 0.36413 0.0
H906 H 0.94932 0.97229 0.38189 0.0
H907 H 0.96079 0.96463 0.36634 0.0
C908 C 0.97843 0.0043 0.41018 0.0
C909 C 0.99171 0.99469 0.40961 0.0
C910 C 0.96815 0.00601 0.39673 0.0
C911 C 0.97084 0.99795 0.38261 0.0
C912 C 0.98404 0.98833 0.38203 0.0
H913 H 0.94163 0.98921 0.28574 0.0
H914 H 0.95149 0.987 0.31322 0.0
C915 C 0.99438 0.98672 0.39539 0.0
C916 C 0.96033 4e-05 0.36818 0.0
H917 H 0.93621 0.97938 0.34063 0.0
C918 C 0.96054 0.01492 0.36082 0.0
C919 C 0.95107 0.98719 0.36106 0.0
C920 C 0.94992 0.97112 0.36881 0.0
C921 C 0.95249 0.01708 0.34602 0.0
C922 C 0.94371 0.00405 0.3386 0.0
C923 C 0.94294 0.98934 0.34633 0.0
C924 C 0.93664 0.00499 0.32215 0.0
C925 C 0.95419 0.03303 0.33807 0.0
C926 C 0.9247 0.01561 0.31806 0.0
C927 C 0.91904 0.017 0.30222 0.0
C928 C 0.92517 0.0077 0.29025 0.0
C929 C 0.93667 0.99665 0.29457 0.0
C930 C 0.94232 0.99532 0.31032 0.0
H931 H 0.96391 0.0408 0.34391 0.0
H932 H 0.95678 0.03162 0.32536 0.0
H933 H 0.94274 0.03911 0.33868 0.0
H934 H 0.9199 0.02296 0.32707 0.0
H935 H 0.91011 0.02556 0.29935 0.0
H936 H 0.25036 0.26627 0.64663 0.0
H937 H 0.25454 0.24621 0.6265 0.0
H938 H 0.21527 0.21695 0.6438 0.0
H939 H 0.21091 0.2371 0.66394 0.0
H940 H 0.26209 0.21528 0.62994 0.0
H941 H 0.2033 0.21924 0.59657 0.0
H942 H 0.21058 0.23374 0.61132 0.0
H943 H 0.20196 0.21488 0.6173 0.0
C944 C 0.24266 0.25553 0.64621 0.0
C945 C 0.23028 0.25327 0.65685 0.0
C946 C 0.24503 0.2441 0.63467 0.0
C947 C 0.23509 0.23018 0.63351 0.0
C948 C 0.22285 0.22776 0.64425 0.0
H949 H 0.26311 0.15167 0.57348 0.0
H950 H 0.25459 0.16656 0.59634 0.0
C951 C 0.2204 0.23926 0.65576 0.0
C952 C 0.23777 0.21823 0.62111 0.0
H953 H 0.22052 0.20001 0.58783 0.0
C954 C 0.25298 0.21185 0.62078 0.0
C955 C 0.22589 0.21389 0.60911 0.0
C956 C 0.20955 0.22087 0.60844 0.0
C957 C 0.25677 0.20151 0.6086 0.0
C958 C 0.24487 0.19713 0.59662 0.0
C959 C 0.22956 0.20327 0.59712 0.0
C960 C 0.24853 0.18732 0.58276 0.0
C961 C 0.27368 0.19593 0.60832 0.0
C962 C 0.24727 0.19377 0.56746 0.0
C963 C 0.25193 0.18525 0.55439 0.0
C964 C 0.25796 0.17009 0.55636 0.0
C965 C 0.25862 0.16337 0.5716 0.0
C966 C 0.25385 0.17189 0.58468 0.0
H967 H 0.28221 0.20318 0.61625 0.0
H968 H 0.27379 0.18346 0.61242 0.0
H969 H 0.27807 0.19639 0.5961 0.0
H970 H 0.24315 0.20563 0.5657 0.0
H971 H 0.2513 0.19079 0.54284 0.0
H972 H 0.5027 0.53781 0.60116 0.0
H973 H 0.48692 0.53659 0.62468 0.0
H974 H 0.45823 0.49682 0.60464 0.0
H975 H 0.47326 0.49866 0.58047 0.0
H976 H 0.43963 0.517 0.61785 0.0
H977 H 0.49024 0.50598 0.66042 0.0
H978 H 0.49413 0.52383 0.64952 0.0
H979 H 0.49216 0.50503 0.63923 0.0
C980 C 0.49293 0.5289 0.6016 0.0
C981 C 0.48929 0.51833 0.58883 0.0
C982 C 0.48407 0.52805 0.61523 0.0
C983 C 0.47163 0.51638 0.61662 0.0
C984 C 0.46789 0.50583 0.60391 0.0
H985 H 0.43189 0.50145 0.70945 0.0
H986 H 0.44437 0.49747 0.6843 0.0
C987 C 0.47662 0.5068 0.59015 0.0
C988 C 0.46224 0.51556 0.63115 0.0
H989 H 0.46634 0.51497 0.67158 0.0
C990 C 0.44544 0.51636 0.6296 0.0
C991 C 0.46975 0.51438 0.64648 0.0
C992 C 0.48754 0.51207 0.64901 0.0
C993 C 0.43604 0.51661 0.64298 0.0
C994 C 0.44371 0.51658 0.65834 0.0
C995 C 0.46044 0.51521 0.65984 0.0
C996 C 0.43478 0.51822 0.67305 0.0
C997 C 0.418 0.5167 0.64045 0.0
C998 C 0.42507 0.53113 0.67513 0.0
C999 C 0.41767 0.53326 0.68947 0.0
C1000 C 0.42019 0.52278 0.70215 0.0
C1001 C 0.42979 0.50982 0.70001 0.0
C1002 C 0.43694 0.50751 0.68559 0.0
H1003 H 0.4139 0.51115 0.62888 0.0
H1004 H 0.41178 0.51029 0.65005 0.0
H1005 H 0.41431 0.52914 0.64026 0.0
H1006 H 0.42359 0.53985 0.66586 0.0
H1007 H 0.41047 0.54347 0.69081 0.0
H1008 H 0.81555 0.28101 0.6562 0.0
H1009 H 0.80975 0.2973 0.63281 0.0
H1010 H 0.76021 0.27955 0.63153 0.0
H1011 H 0.76612 0.26289 0.65454 0.0
H1012 H 0.77174 0.27809 0.60321 0.0
H1013 H 0.78725 0.338 0.62825 0.0
H1014 H 0.80356 0.32498 0.63033 0.0
H1015 H 0.78539 0.3206 0.64053 0.0
C1016 C 0.8034 0.28076 0.65099 0.0
C1017 C 0.79128 0.2707 0.65711 0.0
C1018 C 0.80007 0.29013 0.6377 0.0
C1019 C 0.78448 0.28985 0.63055 0.0
C1020 C 0.77232 0.27998 0.63686 0.0
H1021 H 0.74552 0.35359 0.5601 0.0
H1022 H 0.75428 0.34034 0.58452 0.0
C1023 C 0.7757 0.27045 0.64997 0.0
C1024 C 0.78094 0.29905 0.61594 0.0
H1025 H 0.78267 0.33628 0.60016 0.0
C1026 C 0.77408 0.29083 0.60257 0.0
C1027 C 0.78384 0.31569 0.61517 0.0
C1028 C 0.79026 0.32537 0.62938 0.0
C1029 C 0.77003 0.29875 0.58848 0.0
C1030 C 0.77347 0.3153 0.58749 0.0
C1031 C 0.78027 0.32356 0.60087 0.0
C1032 C 0.76945 0.32429 0.57288 0.0
C1033 C 0.76164 0.28932 0.57496 0.0
C1034 C 0.77549 0.32004 0.55829 0.0
C1035 C 0.7703 0.32741 0.54429 0.0
C1036 C 0.75927 0.33944 0.54466 0.0
C1037 C 0.754 0.34434 0.55941 0.0
C1038 C 0.759 0.33679 0.57338 0.0
H1039 H 0.75585 0.27805 0.57916 0.0
H1040 H 0.75229 0.29624 0.56873 0.0
H1041 H 0.7706 0.28624 0.56629 0.0
H1042 H 0.78392 0.31073 0.55768 0.0
H1043 H 0.77471 0.32343 0.53319 0.0
H1044 H 0.54311 0.96481 0.61264 0.0
H1045 H 0.56131 0.96825 0.63614 0.0
H1046 H 0.5347 0.00756 0.65145 0.0
H1047 H 0.51669 0.00451 0.6277 0.0
H1048 H 0.56746 0.01421 0.65253 0.0
H1049 H 0.55341 0.95709 0.68226 0.0
H1050 H 0.55859 0.95471 0.66201 0.0
H1051 H 0.5407 0.96464 0.66636 0.0
C1052 C 0.54113 0.97422 0.62098 0.0
C1053 C 0.52844 0.9844 0.61827 0.0
C1054 C 0.55143 0.97603 0.63452 0.0
C1055 C 0.5492 0.98799 0.64568 0.0
C1056 C 0.53653 0.99816 0.64306 0.0
H1057 H 0.60483 0.99635 0.73669 0.0
H1058 H 0.58263 0.99394 0.71654 0.0
C1059 C 0.52621 0.99634 0.62952 0.0
C1060 C 0.56064 0.99042 0.65961 0.0
H1061 H 0.57749 0.97159 0.69162 0.0
C1062 C 0.56954 0.00495 0.66117 0.0
C1063 C 0.56318 0.97841 0.671 0.0
C1064 C 0.55335 0.96289 0.67045 0.0
C1065 C 0.58134 0.00758 0.67346 0.0
C1066 C 0.5845 0.99526 0.68433 0.0
C1067 C 0.57517 0.98096 0.68316 0.0
C1068 C 0.59786 0.99679 0.69658 0.0
C1069 C 0.59038 0.02353 0.67468 0.0
C1070 C 0.61378 0.99896 0.69202 0.0
C1071 C 0.62646 0.00033 0.70346 0.0
C1072 C 0.62353 0.99948 0.71974 0.0
C1073 C 0.60754 0.99712 0.72428 0.0
C1074 C 0.59484 0.99572 0.71278 0.0
H1075 H 0.58357 0.0329 0.66854 0.0
H1076 H 0.59289 0.02711 0.68727 0.0
H1077 H 0.60203 0.0228 0.66896 0.0
H1078 H 0.61641 0.99949 0.67957 0.0
H1079 H 0.63859 0.00205 0.69948 0.0
H1080 H 0.86881 0.24773 0.78848 0.0
H1081 H 0.89243 0.25128 0.80668 0.0
H1082 H 0.91669 0.21661 0.7803 0.0
H1083 H 0.89307 0.213 0.76196 0.0
H1084 H 0.9187 0.21149 0.81246 0.0
H1085 H 0.93562 0.27426 0.79951 0.0
H1086 H 0.91499 0.27128 0.80446 0.0
H1087 H 0.92176 0.26232 0.78676 0.0
C1088 C 0.87926 0.24104 0.78639 0.0
C1089 C 0.87909 0.23014 0.77372 0.0
C1090 C 0.89276 0.2431 0.79679 0.0
C1091 C 0.90642 0.23442 0.79467 0.0
C1092 C 0.9063 0.22349 0.78208 0.0
H1093 H 0.99671 0.25386 0.85061 0.0
H1094 H 0.97676 0.24971 0.82851 0.0
C1095 C 0.89277 0.22139 0.77168 0.0
C1096 C 0.92048 0.23619 0.8061 0.0
H1097 H 0.94746 0.2636 0.82336 0.0
C1098 C 0.92511 0.22285 0.81473 0.0
C1099 C 0.92898 0.25096 0.80887 0.0
C1100 C 0.92521 0.26549 0.7993 0.0
C1101 C 0.93759 0.22401 0.82651 0.0
C1102 C 0.94545 0.23897 0.82993 0.0
C1103 C 0.94128 0.25218 0.82085 0.0
C1104 C 0.95762 0.24125 0.84324 0.0
C1105 C 0.94224 0.2092 0.83522 0.0
C1106 C 0.95339 0.23808 0.85885 0.0
C1107 C 0.96472 0.24041 0.87149 0.0
C1108 C 0.98052 0.24609 0.8688 0.0
C1109 C 0.98467 0.24943 0.85313 0.0
C1110 C 0.9733 0.24707 0.84047 0.0
H1111 H 0.93859 0.19834 0.8282 0.0
H1112 H 0.95541 0.20936 0.83797 0.0
H1113 H 0.93604 0.20849 0.84656 0.0
H1114 H 0.94125 0.23393 0.86129 0.0
H1115 H 0.96103 0.23781 0.88338 0.0
H1116 H 0.50883 0.92579 0.47907 0.0
H1117 H 0.51317 0.90395 0.4608 0.0
H1118 H 0.47575 0.87545 0.48224 0.0
H1119 H 0.47147 0.89706 0.50062 0.0
H1120 H 0.52181 0.87313 0.46852 0.0
H1121 H 0.46311 0.87199 0.43471 0.0
H1122 H 0.47047 0.88865 0.44697 0.0
H1123 H 0.46117 0.87135 0.45581 0.0
C1124 C 0.50156 0.91485 0.47992 0.0
C1125 C 0.48974 0.91321 0.49126 0.0
C1126 C 0.50399 0.90244 0.46941 0.0
C1127 C 0.49457 0.88821 0.46997 0.0
C1128 C 0.48286 0.88649 0.48133 0.0
H1129 H 0.48876 0.79353 0.4367 0.0
H1130 H 0.48555 0.81983 0.4477 0.0
C1131 C 0.48043 0.89886 0.49183 0.0
C1132 C 0.49743 0.8748 0.45927 0.0
H1133 H 0.4784 0.84882 0.4326 0.0
C1134 C 0.51243 0.86795 0.46045 0.0
C1135 C 0.48518 0.86814 0.44872 0.0
C1136 C 0.46913 0.8755 0.44633 0.0
C1137 C 0.51521 0.85405 0.45203 0.0
C1138 C 0.50271 0.84701 0.442 0.0
C1139 C 0.48794 0.85424 0.44033 0.0
C1140 C 0.50423 0.8314 0.4343 0.0
C1141 C 0.53118 0.84655 0.45456 0.0
C1142 C 0.51558 0.82924 0.42282 0.0
C1143 C 0.51749 0.81414 0.41646 0.0
C1144 C 0.50805 0.80097 0.42149 0.0
C1145 C 0.49633 0.80335 0.4326 0.0
C1146 C 0.49443 0.8184 0.4389 0.0
H1147 H 0.53845 0.85193 0.46477 0.0
H1148 H 0.52939 0.83361 0.45663 0.0
H1149 H 0.53816 0.84818 0.44375 0.0
H1150 H 0.52309 0.8392 0.41893 0.0
H1151 H 0.52658 0.81276 0.40788 0.0
H1152 H 0.13581 0.31787 0.75191 0.0
H1153 H 0.11443 0.31445 0.77077 0.0
H1154 H 0.14789 0.29444 0.80479 0.0
H1155 H 0.1692 0.29749 0.78594 0.0
H1156 H 0.11795 0.27682 0.80005 0.0
H1157 H 0.11023 0.34079 0.81201 0.0
H1158 H 0.10928 0.33481 0.79147 0.0
H1159 H 0.12783 0.33377 0.80307 0.0
C1160 C 0.13858 0.31267 0.76338 0.0
C1161 C 0.15422 0.30801 0.76747 0.0
C1162 C 0.1264 0.31087 0.77418 0.0
C1163 C 0.12966 0.30439 0.78922 0.0
C1164 C 0.14518 0.29958 0.79327 0.0
H1165 H 0.08128 0.30022 0.87656 0.0
H1166 H 0.09845 0.30649 0.8545 0.0
C1167 C 0.15736 0.30142 0.78252 0.0
C1168 C 0.11687 0.30222 0.80072 0.0
H1169 H 0.09283 0.32236 0.8246 0.0
C1170 C 0.11237 0.28675 0.80536 0.0
C1171 C 0.10974 0.31525 0.80767 0.0
C1172 C 0.11455 0.33212 0.80344 0.0
C1173 C 0.10102 0.28393 0.8169 0.0
C1174 C 0.09385 0.29694 0.82383 0.0
C1175 C 0.09826 0.31242 0.81913 0.0
C1176 C 0.0825 0.29466 0.83671 0.0
C1177 C 0.09717 0.26708 0.82196 0.0
C1178 C 0.06761 0.28638 0.83389 0.0
C1179 C 0.05776 0.28276 0.84647 0.0
C1180 C 0.06264 0.28739 0.86209 0.0
C1181 C 0.0772 0.2964 0.86471 0.0
C1182 C 0.08702 0.30002 0.85211 0.0
H1183 H 0.10601 0.25878 0.81777 0.0
H1184 H 0.09694 0.2663 0.83509 0.0
H1185 H 0.08508 0.26311 0.8169 0.0
H1186 H 0.06382 0.28235 0.82202 0.0
H1187 H 0.04657 0.2759 0.84403 0.0
H1188 H 0.55135 0.60616 0.48198 0.0
H1189 H 0.54942 0.6309 0.46718 0.0
H1190 H 0.50683 0.61158 0.44141 0.0
H1191 H 0.50904 0.58655 0.45591 0.0
H1192 H 0.52611 0.62821 0.42212 0.0
H1193 H 0.51776 0.66376 0.47604 0.0
H1194 H 0.53608 0.6535 0.47758 0.0
H1195 H 0.51703 0.64237 0.47618 0.0
C1196 C 0.5416 0.60721 0.47314 0.0
C1197 C 0.53024 0.59456 0.47019 0.0
C1198 C 0.54045 0.62135 0.46475 0.0
C1199 C 0.52773 0.62324 0.4535 0.0
C1200 C 0.51667 0.61042 0.45013 0.0
H1201 H 0.5062 0.71857 0.42326 0.0
H1202 H 0.50408 0.69161 0.43345 0.0
C1203 C 0.51795 0.59615 0.45839 0.0
C1204 C 0.52593 0.63868 0.44544 0.0
H1205 H 0.52414 0.67829 0.45272 0.0
C1206 C 0.52552 0.63916 0.42878 0.0
C1207 C 0.52477 0.65292 0.45412 0.0
C1208 C 0.52375 0.65311 0.47195 0.0
C1209 C 0.52456 0.65358 0.4206 0.0
C1210 C 0.52448 0.66792 0.42935 0.0
C1211 C 0.52438 0.66734 0.44598 0.0
C1212 C 0.52481 0.68374 0.42168 0.0
C1213 C 0.52342 0.65322 0.40269 0.0
C1214 C 0.53705 0.68831 0.41151 0.0
C1215 C 0.53811 0.7037 0.40543 0.0
C1216 C 0.5272 0.71493 0.40975 0.0
C1217 C 0.51486 0.71029 0.41978 0.0
C1218 C 0.51362 0.69483 0.42561 0.0
H1219 H 0.51807 0.64167 0.39812 0.0
H1220 H 0.51606 0.66285 0.39782 0.0
H1221 H 0.53568 0.65477 0.39817 0.0
H1222 H 0.54612 0.68016 0.40866 0.0
H1223 H 0.54785 0.70696 0.39784 0.0
H1224 H 0.84806 0.76989 0.70896 0.0
H1225 H 0.86963 0.76898 0.69041 0.0
H1226 H 0.90326 0.79004 0.7258 0.0
H1227 H 0.88166 0.79147 0.74436 0.0
H1228 H 0.8915 0.79706 0.68098 0.0
H1229 H 0.92253 0.74705 0.71007 0.0
H1230 H 0.90158 0.75028 0.71283 0.0
H1231 H 0.91689 0.76322 0.72228 0.0
C1232 C 0.85998 0.77453 0.71278 0.0
C1233 C 0.86309 0.78077 0.72818 0.0
C1234 C 0.87231 0.7739 0.70218 0.0
C1235 C 0.88801 0.77934 0.7068 0.0
C1236 C 0.89122 0.78562 0.7221 0.0
H1237 H 0.97341 0.76832 0.65122 0.0
H1238 H 0.95629 0.77555 0.67272 0.0
C1239 C 0.87887 0.78635 0.7327 0.0
C1240 C 0.90094 0.77843 0.69548 0.0
H1241 H 0.93292 0.75697 0.68645 0.0
C1242 C 0.90066 0.7884 0.68222 0.0
C1243 C 0.91294 0.76725 0.69728 0.0
C1244 C 0.91359 0.75624 0.71132 0.0
C1245 C 0.91189 0.78723 0.67045 0.0
C1246 C 0.92341 0.77548 0.67181 0.0
C1247 C 0.92406 0.76594 0.68541 0.0
C1248 C 0.93396 0.77203 0.65868 0.0
C1249 C 0.91125 0.79855 0.65665 0.0
C1250 C 0.92708 0.76755 0.64373 0.0
C1251 C 0.93678 0.76348 0.63147 0.0
C1252 C 0.95359 0.76362 0.63394 0.0
C1253 C 0.96051 0.76814 0.64893 0.0
C1254 C 0.95075 0.77226 0.66122 0.0
H1255 H 0.90587 0.8098 0.65997 0.0
H1256 H 0.92342 0.80137 0.65229 0.0
H1257 H 0.9036 0.79304 0.64678 0.0
H1258 H 0.91414 0.76686 0.6416 0.0
H1259 H 0.93102 0.75996 0.62013 0.0
H1260 H 0.04824 0.92262 0.54644 0.0
H1261 H 0.04414 0.89773 0.56094 0.0
H1262 H 0.00838 0.88135 0.52509 0.0
H1263 H 0.01207 0.90639 0.51088 0.0
H1264 H 0.99907 0.87365 0.55399 0.0
H1265 H 0.06198 0.85667 0.54807 0.0
H1266 H 0.0604 0.87512 0.55834 0.0
H1267 H 0.05386 0.87333 0.53772 0.0
C1268 C 0.03948 0.9137 0.54172 0.0
C1269 C 0.03054 0.91636 0.5275 0.0
C1270 C 0.0372 0.89947 0.54996 0.0
C1271 C 0.02621 0.88751 0.54392 0.0
C1272 C 0.01695 0.89037 0.52996 0.0
H1273 H 0.02506 0.78742 0.55745 0.0
H1274 H 0.0287 0.81503 0.54962 0.0
C1275 C 0.01905 0.90468 0.52185 0.0
C1276 C 0.02455 0.87186 0.55184 0.0
H1277 H 0.04534 0.83954 0.56291 0.0
C1278 C 0.00919 0.8662 0.556 0.0
C1279 C 0.03775 0.86209 0.55431 0.0
C1280 C 0.05439 0.86701 0.54925 0.0
C1281 C 0.00659 0.85092 0.56224 0.0
C1282 C 0.01982 0.84121 0.56485 0.0
C1283 C 0.03523 0.84703 0.56103 0.0
C1284 C 0.01781 0.8245 0.57019 0.0
C1285 C 0.98959 0.8451 0.56528 0.0
C1286 C 0.01067 0.82058 0.58451 0.0
C1287 C 0.00836 0.80468 0.58895 0.0
C1288 C 0.01343 0.79245 0.57929 0.0
C1289 C 0.02103 0.7965 0.56522 0.0
C1290 C 0.02313 0.81232 0.56071 0.0
H1291 H 0.98057 0.85238 0.559 0.0
H1292 H 0.98735 0.83255 0.56146 0.0
H1293 H 0.98769 0.84586 0.57819 0.0
H1294 H 0.00685 0.82979 0.59223 0.0
H1295 H 0.00261 0.80198 0.59994 0.0
H1296 H 0.15344 0.73808 0.70479 0.0
H1297 H 0.13019 0.74166 0.6866 0.0
H1298 H 0.10313 0.70515 0.71096 0.0
H1299 H 0.12632 0.70155 0.72932 0.0
H1300 H 0.10071 0.70178 0.6782 0.0
H1301 H 0.08875 0.7632 0.69593 0.0
H1302 H 0.10913 0.76091 0.69072 0.0
H1303 H 0.10159 0.75076 0.70776 0.0
C1304 C 0.14249 0.73093 0.70641 0.0
C1305 C 0.14172 0.71958 0.71857 0.0
C1306 C 0.1292 0.73301 0.69601 0.0
C1307 C 0.11484 0.72387 0.69762 0.0
C1308 C 0.11408 0.71238 0.70958 0.0
H1309 H 0.02454 0.74257 0.64483 0.0
H1310 H 0.04481 0.73821 0.6662 0.0
C1311 C 0.12737 0.71028 0.71999 0.0
C1312 C 0.10083 0.72596 0.68644 0.0
H1313 H 0.07549 0.75353 0.67177 0.0
C1314 C 0.0951 0.71305 0.67689 0.0
C1315 C 0.09336 0.7406 0.68492 0.0
C1316 C 0.0984 0.75462 0.69549 0.0
C1317 C 0.08249 0.71456 0.66543 0.0
C1318 C 0.07561 0.72943 0.66333 0.0
C1319 C 0.08091 0.74218 0.67329 0.0
C1320 C 0.06332 0.73213 0.65046 0.0
C1321 C 0.07666 0.70022 0.65565 0.0
C1322 C 0.06712 0.73042 0.63456 0.0
C1323 C 0.05563 0.73291 0.62234 0.0
C1324 C 0.04007 0.73724 0.62576 0.0
C1325 C 0.03637 0.73919 0.64175 0.0
C1326 C 0.04792 0.73671 0.65398 0.0
H1327 H 0.07986 0.689 0.66161 0.0
H1328 H 0.06342 0.69998 0.65335 0.0
H1329 H 0.08241 0.70067 0.64405 0.0
H1330 H 0.07903 0.72722 0.63157 0.0
H1331 H 0.05898 0.73138 0.6102 0.0
H1332 H 0.96426 0.58217 0.52764 0.0
H1333 H 0.9682 0.60628 0.54383 0.0
H1334 H 0.00757 0.62222 0.5156 0.0
H1335 H 0.00406 0.59795 0.49957 0.0
H1336 H 0.99919 0.62005 0.56088 0.0
H1337 H 0.97246 0.65738 0.51314 0.0
H1338 H 0.96865 0.63614 0.51375 0.0
H1339 H 0.98766 0.64427 0.50765 0.0
C1340 C 0.97396 0.59064 0.52503 0.0
C1341 C 0.98379 0.58814 0.51222 0.0
C1342 C 0.97613 0.60444 0.53426 0.0
C1343 C 0.98807 0.61602 0.53079 0.0
C1344 C 0.99818 0.61344 0.51832 0.0
H1345 H 0.00672 0.71303 0.563 0.0
H1346 H 0.0076 0.68732 0.54987 0.0
C1347 C 0.99608 0.59962 0.50914 0.0
C1348 C 0.98953 0.63111 0.53979 0.0
H1349 H 0.98242 0.67042 0.53655 0.0
C1350 C 0.99556 0.6311 0.55561 0.0
C1351 C 0.98479 0.64543 0.53281 0.0
C1352 C 0.97792 0.64592 0.51594 0.0
C1353 C 0.99716 0.64517 0.56462 0.0
C1354 C 0.99222 0.6595 0.5577 0.0
C1355 C 0.98624 0.65945 0.54184 0.0
C1356 C 0.99289 0.6747 0.56664 0.0
C1357 C 0.00443 0.64461 0.58134 0.0
C1358 C 0.9844 0.67617 0.58051 0.0
C1359 C 0.98404 0.69085 0.58817 0.0
C1360 C 0.99198 0.7044 0.58198 0.0
C1361 C 0.0006 0.70285 0.56819 0.0
C1362 C 0.00107 0.68815 0.56062 0.0
H1363 H 0.01192 0.63417 0.5831 0.0
H1364 H 0.01199 0.65553 0.58429 0.0
H1365 H 0.99464 0.64361 0.58979 0.0
H1366 H 0.97765 0.66606 0.58516 0.0
H1367 H 0.97717 0.69166 0.5987 0.0
H1368 H 0.79287 0.87214 0.20454 0.0
H1369 H 0.81303 0.89403 0.20816 0.0
H1370 H 0.78177 0.91798 0.23857 0.0
H1371 H 0.76189 0.89576 0.23572 0.0
H1372 H 0.81147 0.92514 0.20079 0.0
H1373 H 0.82298 0.91872 0.2658 0.0
H1374 H 0.81175 0.90379 0.25389 0.0
H1375 H 0.80227 0.92132 0.26005 0.0
C1376 C 0.79036 0.88193 0.21221 0.0
C1377 C 0.77578 0.88208 0.21995 0.0
C1378 C 0.80185 0.89451 0.21415 0.0
C1379 C 0.79903 0.90752 0.22385 0.0
C1380 C 0.78437 0.9079 0.23131 0.0
H1381 H 0.85786 0.99476 0.24454 0.0
H1382 H 0.83524 0.9751 0.24118 0.0
C1383 C 0.77291 0.89527 0.22948 0.0
C1384 C 0.8114 0.92074 0.22594 0.0
H1385 H 0.83557 0.94112 0.25377 0.0
C1386 C 0.81673 0.92863 0.21238 0.0
C1387 C 0.81827 0.92528 0.24108 0.0
C1388 C 0.81365 0.91675 0.25603 0.0
C1389 C 0.82874 0.9409 0.21354 0.0
C1390 C 0.83561 0.94535 0.22864 0.0
C1391 C 0.83015 0.93769 0.24223 0.0
C1392 C 0.84913 0.95735 0.23045 0.0
C1393 C 0.83406 0.94903 0.19864 0.0
C1394 C 0.86439 0.95376 0.22564 0.0
C1395 C 0.87734 0.96485 0.22764 0.0
C1396 C 0.87525 0.97982 0.23445 0.0
C1397 C 0.85988 0.98339 0.23921 0.0
C1398 C 0.84695 0.97219 0.23733 0.0
H1399 H 0.82554 0.94634 0.18833 0.0
H1400 H 0.83525 0.96208 0.20045 0.0
H1401 H 0.84604 0.94495 0.19575 0.0
H1402 H 0.86631 0.94229 0.22044 0.0
H1403 H 0.88898 0.96169 0.22381 0.0
H1404 H 0.78426 0.16565 0.25429 0.0
H1405 H 0.80435 0.14558 0.2537 0.0
H1406 H 0.77213 0.11221 0.27642 0.0
H1407 H 0.75201 0.13232 0.27734 0.0
H1408 H 0.81791 0.12942 0.28116 0.0
H1409 H 0.78675 0.08804 0.23676 0.0
H1410 H 0.78147 0.10842 0.23872 0.0
H1411 H 0.77537 0.09404 0.25315 0.0
C1412 C 0.78144 0.15407 0.25924 0.0
C1413 C 0.76651 0.15063 0.26591 0.0
C1414 C 0.79291 0.1426 0.25881 0.0
C1415 C 0.78967 0.1274 0.26491 0.0
C1416 C 0.77476 0.12381 0.27143 0.0
H1417 H 0.85248 0.04666 0.26401 0.0
H1418 H 0.82987 0.06319 0.26923 0.0
C1419 C 0.76327 0.13531 0.27191 0.0
C1420 C 0.80221 0.11556 0.26484 0.0
H1421 H 0.812 0.08098 0.24746 0.0
C1422 C 0.81659 0.11878 0.27387 0.0
C1423 C 0.80037 0.10162 0.25545 0.0
C1424 C 0.78522 0.09777 0.24536 0.0
C1425 C 0.82934 0.10857 0.27353 0.0
C1426 C 0.82778 0.09496 0.26362 0.0
C1427 C 0.81317 0.09144 0.25502 0.0
C1428 C 0.84157 0.08494 0.2611 0.0
C1429 C 0.84438 0.11248 0.28376 0.0
C1430 C 0.85555 0.09166 0.2547 0.0
C1431 C 0.86842 0.08231 0.25174 0.0
C1432 C 0.86756 0.06597 0.255 0.0
C1433 C 0.85354 0.05922 0.26144 0.0
C1434 C 0.84062 0.06863 0.26439 0.0
H1435 H 0.84184 0.12 0.2941 0.0
H1436 H 0.84993 0.10155 0.28819 0.0
H1437 H 0.85324 0.1192 0.27663 0.0
H1438 H 0.85641 0.10414 0.25173 0.0
H1439 H 0.87897 0.08791 0.2467 0.0
H1440 H 0.40492 0.95608 0.9932 0.0
H1441 H 0.38107 0.93896 0.99774 0.0
H1442 H 0.3547 0.96261 0.96034 0.0
H1443 H 0.37843 0.98003 0.95586 0.0
H1444 H 0.34915 0.94777 0.00526 0.0
H1445 H 0.35039 0.91463 0.94818 0.0
H1446 H 0.36753 0.92645 0.9563 0.0
H1447 H 0.35082 0.93591 0.94685 0.0
C1448 C 0.39401 0.95779 0.98604 0.0
C1449 C 0.39362 0.96942 0.97413 0.0
C1450 C 0.38041 0.94795 0.98862 0.0
C1451 C 0.3662 0.94944 0.97928 0.0
C1452 C 0.36565 0.96113 0.96751 0.0
H1453 H 0.27387 0.89984 0.99846 0.0
H1454 H 0.29443 0.92063 0.99292 0.0
C1455 C 0.37924 0.97103 0.96494 0.0
C1456 C 0.35206 0.93857 0.98179 0.0
H1457 H 0.32928 0.90769 0.96483 0.0
C1458 C 0.3447 0.93907 0.9964 0.0
C1459 C 0.34641 0.92719 0.97022 0.0
C1460 C 0.35422 0.92585 0.95453 0.0
C1461 C 0.3319 0.92836 -0.00019 0.0
C1462 C 0.32631 0.91694 0.98826 0.0
C1463 C 0.33355 0.91655 0.9736 0.0
C1464 C 0.31372 0.90455 0.99158 0.0
C1465 C 0.32479 0.92896 0.0159 0.0
C1466 C 0.31775 0.88865 0.99244 0.0
C1467 C 0.30609 0.87678 0.9956 0.0
C1468 C 0.29009 0.88054 0.99785 0.0
C1469 C 0.28606 0.89652 0.99684 0.0
C1470 C 0.29779 0.90842 0.99373 0.0
H1471 H 0.33221 0.93673 0.02437 0.0
H1472 H 0.3126 0.93364 0.01463 0.0
H1473 H 0.32357 0.91687 0.02101 0.0
H1474 H 0.32998 0.88543 0.99078 0.0
H1475 H 0.30966 0.86463 0.99623 0.0
H1476 H 0.25204 0.35569 0.25619 0.0
H1477 H 0.23278 0.37655 0.25354 0.0
H1478 H 0.20868 0.35839 0.2943 0.0
H1479 H 0.22814 0.33764 0.29727 0.0
H1480 H 0.19792 0.37336 0.2499 0.0
H1481 H 0.21999 0.40597 0.30491 0.0
H1482 H 0.2317 0.39143 0.29562 0.0
H1483 H 0.21475 0.38515 0.30679 0.0
C1484 C 0.24271 0.35619 0.26467 0.0
C1485 C 0.2417 0.34509 0.27702 0.0
C1486 C 0.23165 0.36803 0.26306 0.0
C1487 C 0.21942 0.36908 0.27381 0.0
C1488 C 0.21815 0.35787 0.28598 0.0
H1489 H 0.15768 0.45011 0.27985 0.0
H1490 H 0.16757 0.42353 0.28424 0.0
C1491 C 0.22919 0.34596 0.28758 0.0
C1492 C 0.20826 0.38216 0.27232 0.0
H1493 H 0.19943 0.41718 0.28937 0.0
C1494 C 0.19811 0.38287 0.2586 0.0
C1495 C 0.20844 0.39445 0.28376 0.0
C1496 C 0.21935 0.39437 0.29858 0.0
C1497 C 0.18844 0.39581 0.2558 0.0
C1498 C 0.18923 0.4085 0.26685 0.0
C1499 C 0.19884 0.40744 0.28092 0.0
C1500 C 0.18163 0.42369 0.26332 0.0
C1501 C 0.17761 0.39583 0.24094 0.0
C1502 C 0.18616 0.43253 0.25007 0.0
C1503 C 0.18057 0.44765 0.24753 0.0
C1504 C 0.1704 0.45436 0.25827 0.0
C1505 C 0.16545 0.44529 0.27131 0.0
C1506 C 0.17111 0.43011 0.27386 0.0
H1507 H 0.17416 0.38356 0.23683 0.0
H1508 H 0.16651 0.40218 0.24286 0.0
H1509 H 0.18413 0.4019 0.23133 0.0
H1510 H 0.19455 0.42798 0.24198 0.0
H1511 H 0.18464 0.45426 0.23737 0.0
H1512 H 0.11427 0.04837 0.46925 0.0
H1513 H 0.13861 0.06546 0.47389 0.0
H1514 H 0.15087 0.03911 0.51611 0.0
H1515 H 0.12656 0.02188 0.51151 0.0
H1516 H 0.15271 0.07136 0.52108 0.0
H1517 H 0.18557 0.05628 0.46795 0.0
H1518 H 0.16545 0.06198 0.46323 0.0
H1519 H 0.16863 0.04425 0.47449 0.0
C1520 C 0.12227 0.04604 0.47938 0.0
C1521 C 0.11847 0.03374 0.49 0.0
C1522 C 0.1362 0.0558 0.482 0.0
C1523 C 0.14669 0.0534 0.49521 0.0
C1524 C 0.14298 0.04112 0.5058 0.0
H1525 H 0.23997 0.10581 0.51049 0.0
H1526 H 0.2191 0.08437 0.50707 0.0
C1527 C 0.12903 0.03136 0.50321 0.0
C1528 C 0.16101 0.06429 0.49844 0.0
H1529 H 0.19506 0.07981 0.48215 0.0
C1530 C 0.16206 0.07309 0.51264 0.0
C1531 C 0.17331 0.06637 0.48753 0.0
C1532 C 0.17331 0.05661 0.47252 0.0
C1533 C 0.17475 0.08436 0.51594 0.0
C1534 C 0.18656 0.08707 0.50463 0.0
C1535 C 0.18589 0.07782 0.49072 0.0
C1536 C 0.19926 0.09994 0.50672 0.0
C1537 C 0.17536 0.09334 0.53148 0.0
C1538 C 0.195 0.11577 0.50742 0.0
C1539 C 0.20684 0.12801 0.50935 0.0
C1540 C 0.22323 0.1247 0.51056 0.0
C1541 C 0.22748 0.1088 0.50967 0.0
C1542 C 0.21558 0.09653 0.5077 0.0
H1543 H 0.16833 0.08689 0.54052 0.0
H1544 H 0.18795 0.09542 0.53625 0.0
H1545 H 0.1701 0.10503 0.52954 0.0
H1546 H 0.18248 0.11868 0.50637 0.0
H1547 H 0.20308 0.14009 0.50989 0.0
H1548 H 0.73179 0.16267 0.7187 0.0
H1549 H 0.71212 0.14063 0.72234 0.0
H1550 H 0.74316 0.12181 0.75929 0.0
H1551 H 0.76258 0.1441 0.75619 0.0
H1552 H 0.71573 0.10889 0.71862 0.0
H1553 H 0.7004 0.12181 0.78033 0.0
H1554 H 0.71115 0.13607 0.76835 0.0
H1555 H 0.72163 0.12057 0.77837 0.0
C1556 C 0.73431 0.154 0.7278 0.0
C1557 C 0.74874 0.15521 0.73722 0.0
C1558 C 0.72311 0.14135 0.72978 0.0
C1559 C 0.72606 0.12972 0.74124 0.0
C1560 C 0.74048 0.13083 0.75059 0.0
H1561 H 0.6901 0.03348 0.74802 0.0
H1562 H 0.70409 0.05851 0.74155 0.0
C1563 C 0.75167 0.14348 0.74866 0.0
C1564 C 0.7144 0.11607 0.74305 0.0
H1565 H 0.69276 0.09574 0.77043 0.0
C1566 C 0.71056 0.1061 0.7299 0.0
C1567 C 0.70742 0.1126 0.75768 0.0
C1568 C 0.71022 0.12342 0.77194 0.0
C1569 C 0.70047 0.09238 0.73118 0.0
C1570 C 0.69432 0.08839 0.74608 0.0
C1571 C 0.69761 0.09872 0.75905 0.0
C1572 C 0.68514 0.0732 0.74874 0.0
C1573 C 0.6965 0.08231 0.71657 0.0
C1574 C 0.66989 0.0731 0.75513 0.0
C1575 C 0.66188 0.05876 0.75898 0.0
C1576 C 0.66903 0.04427 0.75656 0.0
C1577 C 0.68416 0.0444 0.74986 0.0
C1578 C 0.69216 0.05872 0.74607 0.0
H1579 H 0.69759 0.08939 0.70555 0.0
H1580 H 0.7051 0.07272 0.71616 0.0
H1581 H 0.68413 0.07678 0.71668 0.0
H1582 H 0.66429 0.08414 0.75737 0.0
H1583 H 0.65026 0.05906 0.76416 0.0
H1584 H 0.40318 0.01558 0.50962 0.0
H1585 H 0.38123 0.03326 0.50407 0.0
H1586 H 0.39478 0.05962 0.54695 0.0
H1587 H 0.41672 0.04199 0.55261 0.0
H1588 H 0.36203 0.05291 0.54323 0.0
H1589 H 0.38603 0.07876 0.48813 0.0
H1590 H 0.38348 0.0575 0.48805 0.0
H1591 H 0.398 0.06723 0.50175 0.0
C1592 C 0.40156 0.02523 0.5178 0.0
C1593 C 0.41174 0.02744 0.53152 0.0
C1594 C 0.38902 0.03532 0.5146 0.0
C1595 C 0.38652 0.0479 0.52497 0.0
C1596 C 0.39652 0.04999 0.53878 0.0
H1597 H 0.3367 0.13334 0.51247 0.0
H1598 H 0.35563 0.11227 0.51441 0.0
C1599 C 0.40901 0.03988 0.54202 0.0
C1600 C 0.37348 0.05889 0.52155 0.0
H1601 H 0.36051 0.08664 0.49517 0.0
C1602 C 0.36163 0.06025 0.53269 0.0
C1603 C 0.3731 0.06852 0.50785 0.0
C1604 C 0.38589 0.06808 0.49581 0.0
C1605 C 0.34951 0.07112 0.5306 0.0
C1606 C 0.34906 0.08067 0.51684 0.0
C1607 C 0.3608 0.07918 0.50561 0.0
C1608 C 0.3373 0.09318 0.51453 0.0
C1609 C 0.33768 0.07269 0.54344 0.0
C1610 C 0.32067 0.08943 0.51354 0.0
C1611 C 0.30976 0.10151 0.51249 0.0
C1612 C 0.31532 0.11752 0.51232 0.0
C1613 C 0.33199 0.12115 0.51266 0.0
C1614 C 0.34285 0.10911 0.51374 0.0
H1615 H 0.34182 0.06707 0.55471 0.0
H1616 H 0.33567 0.08536 0.54585 0.0
H1617 H 0.32598 0.06677 0.53947 0.0
H1618 H 0.31614 0.07719 0.51379 0.0
H1619 H 0.29699 0.09831 0.51215 0.0
H1620 H 0.60771 0.48518 0.48488 0.0
H1621 H 0.62977 0.4677 0.4806 0.0
H1622 H 0.61446 0.43809 0.51918 0.0
H1623 H 0.59234 0.45536 0.52343 0.0
H1624 H 0.65487 0.45941 0.5044 0.0
H1625 H 0.61802 0.40722 0.48073 0.0
H1626 H 0.61069 0.427 0.48083 0.0
H1627 H 0.61113 0.41547 0.4987 0.0
C1628 C 0.60896 0.47484 0.49233 0.0
C1629 C 0.59828 0.47161 0.50448 0.0
C1630 C 0.62159 0.46494 0.48992 0.0
C1631 C 0.6236 0.45154 0.49946 0.0
C1632 C 0.61297 0.44828 0.51157 0.0
H1633 H 0.68438 0.37632 0.51897 0.0
H1634 H 0.66376 0.39563 0.51598 0.0
C1635 C 0.60043 0.45822 0.51406 0.0
C1636 C 0.63706 0.44113 0.49718 0.0
H1637 H 0.64514 0.4028 0.48913 0.0
C1638 C 0.65283 0.44709 0.50083 0.0
C1639 C 0.63429 0.42511 0.49247 0.0
C1640 C 0.61763 0.41831 0.48781 0.0
C1641 C 0.66587 0.43716 0.50077 0.0
C1642 C 0.66301 0.42097 0.49664 0.0
C1643 C 0.6473 0.41521 0.49233 0.0
C1644 C 0.67583 0.40943 0.49811 0.0
C1645 C 0.68244 0.44388 0.50591 0.0
C1646 C 0.68948 0.41072 0.48896 0.0
C1647 C 0.70143 0.39967 0.4907 0.0
C1648 C 0.69982 0.38711 0.50153 0.0
C1649 C 0.68604 0.38583 0.51052 0.0
C1650 C 0.6742 0.39685 0.50882 0.0
H1651 H 0.68206 0.45573 0.51162 0.0
H1652 H 0.68848 0.43578 0.51436 0.0
H1653 H 0.68985 0.44517 0.49537 0.0
H1654 H 0.69084 0.4202 0.48043 0.0
H1655 H 0.71187 0.40093 0.48355 0.0
H1656 H 0.7113 0.25014 0.35669 0.0
H1657 H 0.71608 0.26821 0.3792 0.0
H1658 H 0.7347 0.3045 0.34817 0.0
H1659 H 0.73077 0.28616 0.32563 0.0
H1660 H 0.7538 0.3022 0.37404 0.0
H1661 H 0.69138 0.30517 0.39246 0.0
H1662 H 0.69698 0.28499 0.39138 0.0
H1663 H 0.69613 0.29681 0.37362 0.0
C1664 C 0.71649 0.26193 0.35462 0.0
C1665 C 0.72068 0.26666 0.33931 0.0
C1666 C 0.71897 0.27235 0.36749 0.0
C1667 C 0.72542 0.28784 0.36533 0.0
C1668 C 0.72954 0.29266 0.35008 0.0
H1669 H 0.73047 0.34992 0.44963 0.0
H1670 H 0.72466 0.34062 0.4223 0.0
C1671 C 0.72718 0.28219 0.33719 0.0
C1672 C 0.72882 0.29854 0.37922 0.0
H1673 H 0.71227 0.31225 0.41252 0.0
C1674 C 0.74466 0.30462 0.38231 0.0
C1675 C 0.71684 0.30205 0.38985 0.0
C1676 C 0.69935 0.29706 0.38656 0.0
C1677 C 0.74902 0.31327 0.39623 0.0
C1678 C 0.73733 0.31552 0.40754 0.0
C1679 C 0.7213 0.31031 0.40398 0.0
C1680 C 0.74169 0.32209 0.42361 0.0
C1681 C 0.76617 0.31975 0.39872 0.0
C1682 C 0.75313 0.31474 0.43342 0.0
C1683 C 0.75655 0.32006 0.44895 0.0
C1684 C 0.7484 0.33272 0.45514 0.0
C1685 C 0.73698 0.34016 0.44525 0.0
C1686 C 0.73364 0.33486 0.42963 0.0
H1687 H 0.77172 0.32215 0.3872 0.0
H1688 H 0.76692 0.33087 0.40585 0.0
H1689 H 0.77336 0.31083 0.40509 0.0
H1690 H 0.75915 0.30457 0.42922 0.0
H1691 H 0.76532 0.31395 0.45622 0.0
H1692 H 0.50412 0.9827 0.88735 0.0
H1693 H 0.52374 0.97778 0.86728 0.0
H1694 H 0.55494 0.01595 0.88693 0.0
H1695 H 0.53555 0.02086 0.90699 0.0
H1696 H 0.53679 0.00173 0.84468 0.0
H1697 H 0.58341 0.97631 0.88485 0.0
H1698 H 0.56256 0.97677 0.88975 0.0
H1699 H 0.57558 0.99435 0.8919 0.0
C1700 C 0.51523 0.98994 0.88744 0.0
C1701 C 0.5183 0.00217 0.89872 0.0
C1702 C 0.52636 0.98716 0.87596 0.0
C1703 C 0.54082 0.9964 0.87576 0.0
C1704 C 0.54392 0.00858 0.88701 0.0
H1705 H 0.62511 0.01532 0.8265 0.0
H1706 H 0.60312 0.0119 0.84435 0.0
C1707 C 0.53277 0.01145 0.89837 0.0
C1708 C 0.55262 0.99378 0.86358 0.0
H1709 H 0.59168 0.98493 0.85946 0.0
C1710 C 0.54872 0.9978 0.84779 0.0
C1711 C 0.56811 0.98862 0.86775 0.0
C1712 C 0.57269 0.98362 0.88446 0.0
C1713 C 0.56028 0.99771 0.83619 0.0
C1714 C 0.57601 0.99317 0.84052 0.0
C1715 C 0.57963 0.98844 0.85618 0.0
C1716 C 0.58931 0.99472 0.82947 0.0
C1717 C 0.55583 0.00332 0.81966 0.0
C1718 C 0.58895 0.98606 0.81519 0.0
C1719 C 0.60155 0.98805 0.80484 0.0
C1720 C 0.61475 0.99866 0.80868 0.0
C1721 C 0.61514 0.00707 0.82313 0.0
C1722 C 0.60258 0.00511 0.83339 0.0
H1723 H 0.54422 0.00927 0.81911 0.0
H1724 H 0.56534 0.0117 0.81535 0.0
H1725 H 0.55463 0.99299 0.81145 0.0
H1726 H 0.57895 0.97775 0.81207 0.0
H1727 H 0.60093 0.98134 0.79384 0.0
H1728 H 0.31423 0.24269 0.36432 0.0
H1729 H 0.31118 0.22689 0.38822 0.0
H1730 H 0.27109 0.20007 0.36531 0.0
H1731 H 0.27462 0.21524 0.341 0.0
H1732 H 0.28581 0.22617 0.40594 0.0
H1733 H 0.29542 0.16497 0.386 0.0
H1734 H 0.30079 0.18217 0.37435 0.0
H1735 H 0.2803 0.17428 0.37397 0.0
C1736 C 0.30505 0.23314 0.36415 0.0
C1737 C 0.29468 0.23026 0.35067 0.0
C1738 C 0.30325 0.22418 0.3779 0.0
C1739 C 0.29103 0.21216 0.37852 0.0
C1740 C 0.28083 0.20904 0.36502 0.0
H1741 H 0.24597 0.18217 0.46379 0.0
H1742 H 0.25249 0.1919 0.43755 0.0
C1743 C 0.2827 0.21792 0.3512 0.0
C1744 C 0.28805 0.20398 0.39374 0.0
H1745 H 0.28306 0.16756 0.41094 0.0
C1746 C 0.28536 0.21335 0.40703 0.0
C1747 C 0.28763 0.18726 0.39524 0.0
C1748 C 0.29136 0.17659 0.38167 0.0
C1749 C 0.28188 0.20651 0.42166 0.0
C1750 C 0.28064 0.18979 0.42296 0.0
C1751 C 0.28378 0.18037 0.40983 0.0
C1752 C 0.27595 0.18203 0.4379 0.0
C1753 C 0.27969 0.21728 0.43564 0.0
C1754 C 0.28663 0.17251 0.44643 0.0
C1755 C 0.28287 0.16674 0.46143 0.0
C1756 C 0.26838 0.17049 0.46812 0.0
C1757 C 0.25735 0.17927 0.4591 0.0
C1758 C 0.26106 0.18489 0.44411 0.0
H1759 H 0.2854 0.2293 0.43391 0.0
H1760 H 0.26666 0.21861 0.43703 0.0
H1761 H 0.28488 0.21228 0.4468 0.0
H1762 H 0.29815 0.17007 0.44176 0.0
H1763 H 0.29161 0.15997 0.46804 0.0
H1764 H 0.47686 0.51252 0.92143 0.0
H1765 H 0.45858 0.51565 0.89803 0.0
H1766 H 0.48571 0.48324 0.87173 0.0
H1767 H 0.50387 0.47995 0.895 0.0
H1768 H 0.46796 0.52617 0.86667 0.0
H1769 H 0.438 0.46597 0.86565 0.0
H1770 H 0.44853 0.47442 0.88318 0.0
H1771 H 0.45957 0.46617 0.86761 0.0
C1772 C 0.47881 0.50596 0.91069 0.0
C1773 C 0.4918 0.496 0.91003 0.0
C1774 C 0.46841 0.5078 0.89735 0.0
C1775 C 0.47069 0.49952 0.88325 0.0
C1776 C 0.48362 0.48956 0.88258 0.0
H1777 H 0.44111 0.48973 0.7868 0.0
H1778 H 0.45086 0.48787 0.81434 0.0
C1779 C 0.49407 0.48781 0.89583 0.0
C1780 C 0.46005 0.50167 0.86893 0.0
H1781 H 0.43527 0.4811 0.84185 0.0
C1782 C 0.46056 0.51643 0.86134 0.0
C1783 C 0.45042 0.48892 0.86209 0.0
C1784 C 0.44893 0.473 0.8701 0.0
C1785 C 0.45248 0.51853 0.84654 0.0
C1786 C 0.44337 0.50557 0.83936 0.0
C1787 C 0.44227 0.49102 0.84736 0.0
C1788 C 0.43636 0.50634 0.82288 0.0
C1789 C 0.45451 0.5343 0.83831 0.0
C1790 C 0.42464 0.51712 0.81855 0.0
C1791 C 0.41903 0.5183 0.80267 0.0
C1792 C 0.425 0.50864 0.7909 0.0
C1793 C 0.43628 0.49745 0.79547 0.0
C1794 C 0.44187 0.49632 0.81126 0.0
H1795 H 0.46435 0.542 0.84404 0.0
H1796 H 0.45711 0.53259 0.82564 0.0
H1797 H 0.44318 0.54062 0.83874 0.0
H1798 H 0.41998 0.52475 0.8274 0.0
H1799 H 0.41028 0.52697 0.7996 0.0
H1800 H 0.71298 0.7659 0.13728 0.0
H1801 H 0.71754 0.74651 0.11653 0.0
H1802 H 0.74661 0.72029 0.14984 0.0
H1803 H 0.74197 0.73956 0.17075 0.0
H1804 H 0.74981 0.73917 0.10708 0.0
H1805 H 0.71402 0.68638 0.12768 0.0
H1806 H 0.71032 0.70634 0.13385 0.0
H1807 H 0.72735 0.69657 0.14221 0.0
C1808 C 0.72012 0.75586 0.14026 0.0
C1809 C 0.7271 0.75423 0.15565 0.0
C1810 C 0.72276 0.74485 0.12838 0.0
C1811 C 0.73226 0.73191 0.13172 0.0
C1812 C 0.73907 0.73009 0.14711 0.0
H1813 H 0.76676 0.65717 0.07294 0.0
H1814 H 0.75884 0.67339 0.0951 0.0
C1815 C 0.73653 0.74117 0.15898 0.0
C1816 C 0.73591 0.72095 0.11881 0.0
H1817 H 0.72962 0.68283 0.10535 0.0
C1818 C 0.74536 0.72687 0.10664 0.0
C1819 C 0.73021 0.70489 0.11844 0.0
C1820 C 0.71982 0.6981 0.13116 0.0
C1821 C 0.7494 0.7171 0.09411 0.0
C1822 C 0.74343 0.70109 0.09351 0.0
C1823 C 0.73409 0.69513 0.10579 0.0
C1824 C 0.74684 0.69043 0.08021 0.0
C1825 C 0.76035 0.72396 0.08185 0.0
C1826 C 0.74223 0.69432 0.06455 0.0
C1827 C 0.74684 0.68518 0.05188 0.0
C1828 C 0.75594 0.6718 0.05464 0.0
C1829 C 0.75978 0.66742 0.0704 0.0
C1830 C 0.75526 0.67667 0.08308 0.0
H1831 H 0.76743 0.73467 0.0864 0.0
H1832 H 0.76884 0.71512 0.07806 0.0
H1833 H 0.75298 0.7275 0.07126 0.0
H1834 H 0.73539 0.70468 0.06209 0.0
H1835 H 0.74363 0.68889 0.03993 0.0
H1836 H 0.97172 0.03765 0.0804 0.0
H1837 H 0.95647 0.0367 0.10455 0.0
H1838 H 0.9824 0.99651 0.12094 0.0
H1839 H 0.99778 0.9974 0.09684 0.0
H1840 H 0.93784 0.00694 0.11854 0.0
H1841 H 0.98898 0.03471 0.15556 0.0
H1842 H 0.98713 0.03738 0.13432 0.0
H1843 H 0.99304 0.01879 0.14229 0.0
C1844 C 0.97415 0.02859 0.08914 0.0
C1845 C 0.986 0.01765 0.08679 0.0
C1846 C 0.96537 0.02801 0.10284 0.0
C1847 C 0.9684 0.01659 0.11447 0.0
C1848 C 0.97994 0.00542 0.11205 0.0
H1849 H 0.93957 0.0089 0.21156 0.0
H1850 H 0.95174 0.00516 0.1862 0.0
C1851 C 0.98865 0.0059 0.09828 0.0
C1852 C 0.95998 0.01682 0.12948 0.0
H1853 H 0.96529 0.02773 0.16842 0.0
C1854 C 0.94379 0.01143 0.12949 0.0
C1855 C 0.96786 0.02267 0.14366 0.0
C1856 C 0.9852 0.02881 0.14409 0.0
C1857 C 0.93526 0.0116 0.14345 0.0
C1858 C 0.94307 0.01772 0.15763 0.0
C1859 C 0.95931 0.02303 0.15756 0.0
C1860 C 0.93469 0.01891 0.17269 0.0
C1861 C 0.91809 0.00495 0.14295 0.0
C1862 C 0.92099 0.02783 0.17356 0.0
C1863 C 0.91384 0.02982 0.18806 0.0
C1864 C 0.92041 0.02309 0.202 0.0
C1865 C 0.93407 0.01409 0.20106 0.0
C1866 C 0.94111 0.012 0.18656 0.0
H1867 H 0.91558 0.99655 0.13285 0.0
H1868 H 0.91532 0.99872 0.15414 0.0
H1869 H 0.90986 0.01482 0.14135 0.0
H1870 H 0.91606 0.03363 0.16311 0.0
H1871 H 0.90341 0.03694 0.1884 0.0
H1872 H 0.31333 0.79003 0.1636 0.0
H1873 H 0.30721 0.80806 0.14167 0.0
H1874 H 0.26663 0.77714 0.12627 0.0
H1875 H 0.27226 0.75942 0.14842 0.0
H1876 H 0.3061 0.80221 0.10956 0.0
H1877 H 0.24682 0.82009 0.12806 0.0
H1878 H 0.2607 0.81017 0.14126 0.0
H1879 H 0.2479 0.79894 0.12704 0.0
C1880 C 0.30297 0.7872 0.15568 0.0
C1881 C 0.29325 0.77331 0.1578 0.0
C1882 C 0.29955 0.79746 0.14311 0.0
C1883 C 0.28631 0.79407 0.13251 0.0
C1884 C 0.2767 0.78016 0.1345 0.0
H1885 H 0.26501 0.81975 0.03681 0.0
H1886 H 0.27549 0.80885 0.06171 0.0
C1887 C 0.28007 0.76992 0.14706 0.0
C1888 C 0.2828 0.80472 0.119 0.0
H1889 H 0.25264 0.82485 0.10082 0.0
C1890 C 0.29449 0.80735 0.10774 0.0
C1891 C 0.26778 0.81169 0.11681 0.0
C1892 C 0.25515 0.81023 0.12903 0.0
C1893 C 0.29125 0.81607 0.09391 0.0
C1894 C 0.2758 0.82204 0.09117 0.0
C1895 C 0.26442 0.82012 0.10284 0.0
C1896 C 0.2708 0.82938 0.0759 0.0
C1897 C 0.30435 0.8187 0.08233 0.0
C1898 C 0.26445 0.84447 0.0756 0.0
C1899 C 0.2583 0.8507 0.06134 0.0
C1900 C 0.25834 0.8419 0.04716 0.0
C1901 C 0.26498 0.82692 0.04746 0.0
C1902 C 0.27107 0.8207 0.0617 0.0
H1903 H 0.31647 0.81827 0.08838 0.0
H1904 H 0.30323 0.80915 0.07321 0.0
H1905 H 0.30347 0.83029 0.07625 0.0
H1906 H 0.26402 0.85132 0.08645 0.0
H1907 H 0.25323 0.86227 0.0615 0.0
H1908 H 0.01501 0.50356 0.12674 0.0
H1909 H 0.03333 0.50709 0.15021 0.0
H1910 H 0.06052 0.46828 0.13469 0.0
H1911 H 0.042 0.46435 0.11146 0.0
H1912 H 0.05458 0.46761 0.16736 0.0
H1913 H 0.07947 0.52663 0.14866 0.0
H1914 H 0.05797 0.52482 0.14969 0.0
H1915 H 0.06768 0.51343 0.13526 0.0
C1916 C 0.02478 0.49566 0.1284 0.0
C1917 C 0.0271 0.48374 0.11715 0.0
C1918 C 0.03532 0.49779 0.14175 0.0
C1919 C 0.04841 0.4881 0.14406 0.0
C1920 C 0.05054 0.47596 0.13307 0.0
H1921 H 0.13748 0.50088 0.19815 0.0
H1922 H 0.11526 0.49794 0.17835 0.0
C1923 C 0.04002 0.47381 0.11974 0.0
C1924 C 0.06012 0.49072 0.15774 0.0
H1925 H 0.08902 0.51714 0.17345 0.0
C1926 C 0.06206 0.47846 0.16878 0.0
C1927 C 0.06993 0.50485 0.15944 0.0
C1928 C 0.06881 0.51816 0.14759 0.0
C1929 C 0.07368 0.4799 0.1814 0.0
C1930 C 0.08348 0.49405 0.18311 0.0
C1931 C 0.0814 0.50636 0.17217 0.0
C1932 C 0.09675 0.49589 0.19544 0.0
C1933 C 0.07579 0.46608 0.19248 0.0
C1934 C 0.0937 0.49585 0.21167 0.0
C1935 C 0.10644 0.49751 0.22312 0.0
C1936 C 0.12245 0.4993 0.2185 0.0
C1937 C 0.12536 0.49949 0.2022 0.0
C1938 C 0.11265 0.49784 0.19082 0.0
H1939 H 0.06955 0.45501 0.1877 0.0
H1940 H 0.08874 0.46394 0.19471 0.0
H1941 H 0.07069 0.46883 0.20403 0.0
H1942 H 0.08148 0.49461 0.21548 0.0
H1943 H 0.10375 0.49738 0.23555 0.0
H1944 H 0.36703 0.75023 0.29129 0.0
H1945 H 0.39077 0.75406 0.30934 0.0
H1946 H 0.41577 0.72081 0.28187 0.0
H1947 H 0.39207 0.71695 0.26371 0.0
H1948 H 0.41802 0.71484 0.31386 0.0
H1949 H 0.43345 0.77828 0.30248 0.0
H1950 H 0.41292 0.7746 0.30751 0.0
H1951 H 0.41979 0.76638 0.28949 0.0
C1952 C 0.37766 0.74392 0.28894 0.0
C1953 C 0.37767 0.73331 0.27605 0.0
C1954 C 0.39123 0.74614 0.29925 0.0
C1955 C 0.40512 0.73792 0.29679 0.0
C1956 C 0.40519 0.72733 0.28393 0.0
H1957 H 0.49619 0.75647 0.35176 0.0
H1958 H 0.47583 0.75306 0.3299 0.0
C1959 C 0.39161 0.72507 0.27363 0.0
C1960 C 0.41924 0.73971 0.30814 0.0
H1961 H 0.446 0.76714 0.32572 0.0
C1962 C 0.42424 0.72625 0.31634 0.0
C1963 C 0.42749 0.75456 0.31119 0.0
C1964 C 0.42326 0.76925 0.30209 0.0
C1965 C 0.43688 0.72733 0.32795 0.0
C1966 C 0.44454 0.74232 0.33162 0.0
C1967 C 0.43997 0.75569 0.323 0.0
C1968 C 0.45689 0.74443 0.34478 0.0
C1969 C 0.44192 0.71241 0.3362 0.0
C1970 C 0.45288 0.74096 0.36039 0.0
C1971 C 0.46443 0.74288 0.37288 0.0
C1972 C 0.48024 0.74842 0.37004 0.0
C1973 C 0.48416 0.75213 0.35438 0.0
C1974 C 0.47255 0.7502 0.34187 0.0
H1975 H 0.43821 0.70165 0.32905 0.0
H1976 H 0.45515 0.71269 0.3386 0.0
H1977 H 0.43607 0.7114 0.34772 0.0
H1978 H 0.44077 0.73681 0.36293 0.0
H1979 H 0.46092 0.73999 0.38476 0.0
H1980 H 0.97008 0.39565 1e-05 0.0
H1981 H 0.97457 0.37416 0.98152 0.0
H1982 H 0.0106 0.40366 0.95918 0.0
H1983 H 0.00609 0.42534 0.97757 0.0
H1984 H 0.97188 0.37392 0.94769 0.0
H1985 H 0.03398 0.36309 0.97101 0.0
H1986 H 0.02041 0.37456 0.98185 0.0
H1987 H 0.03026 0.38309 0.9652 0.0
C1988 C 0.97886 0.39765 0.99108 0.0
C1989 C 0.98776 0.41221 0.9903 0.0
C1990 C 0.98145 0.38533 0.98056 0.0
C1991 C 0.99303 0.38727 0.96911 0.0
C1992 C 0.0018 0.40184 0.96812 0.0
H1993 H 0.02513 0.3127 0.90678 0.0
H1994 H 0.02095 0.33906 0.91769 0.0
C1995 C 0.99922 0.41419 0.97865 0.0
C1996 C 0.99589 0.37392 0.95833 0.0
H1997 H 0.02339 0.34684 0.94994 0.0
C1998 C 0.98318 0.36806 0.94808 0.0
C1999 C 0.01069 0.3664 0.95879 0.0
C2000 C 0.02462 0.37198 0.96986 0.0
C2001 C 0.98475 0.35464 0.93852 0.0
C2002 C 0.99932 0.34673 0.93946 0.0
C2003 C 0.01224 0.35295 0.94924 0.0
C2004 C 0.00093 0.33121 0.93159 0.0
C2005 C 0.97075 0.34897 0.9276 0.0
C2006 C 0.99102 0.3181 0.93575 0.0
C2007 C 0.99338 0.30308 0.9296 0.0
C2008 C 0.00577 0.3008 0.91919 0.0
C2009 C 0.01544 0.31404 0.91471 0.0
C2010 C 0.0131 0.3291 0.92095 0.0
H2011 H 0.9628 0.35878 0.92445 0.0
H2012 H 0.97492 0.34378 0.9165 0.0
H2013 H 0.96345 0.3397 0.9337 0.0
H2014 H 0.98178 0.31939 0.94419 0.0
H2015 H 0.9857 0.29319 0.93333 0.0
H2016 H 0.65738 0.83272 0.27784 0.0
H2017 H 0.63713 0.82855 0.29772 0.0
H2018 H 0.62311 0.78287 0.27699 0.0
H2019 H 0.64353 0.78679 0.25726 0.0
H2020 H 0.60239 0.82109 0.29385 0.0
H2021 H 0.63642 0.77408 0.32446 0.0
H2022 H 0.64549 0.78769 0.31062 0.0
H2023 H 0.63249 0.77134 0.30345 0.0
C2024 C 0.64999 0.82178 0.27752 0.0
C2025 C 0.65214 0.81002 0.26606 0.0
C2026 C 0.63836 0.81948 0.2888 0.0
C2027 C 0.62877 0.80534 0.28889 0.0
C2028 C 0.63051 0.7938 0.27718 0.0
H2029 H 0.54699 0.77994 0.34574 0.0
H2030 H 0.56413 0.78742 0.32392 0.0
C2031 C 0.6421 0.79611 0.26585 0.0
C2032 C 0.61747 0.80239 0.30167 0.0
H2033 H 0.61096 0.77907 0.33393 0.0
C2034 C 0.60421 0.8119 0.30262 0.0
C2035 C 0.62004 0.79052 0.31317 0.0
C2036 C 0.63444 0.78037 0.31303 0.0
C2037 C 0.59332 0.80972 0.31474 0.0
C2038 C 0.59577 0.79767 0.32608 0.0
C2039 C 0.6091 0.78826 0.32517 0.0
C2040 C 0.58483 0.79466 0.33919 0.0
C2041 C 0.57946 0.82046 0.31551 0.0
C2042 C 0.59078 0.79631 0.35498 0.0
C2043 C 0.58106 0.79201 0.36745 0.0
C2044 C 0.56522 0.78586 0.36437 0.0
C2045 C 0.55912 0.78467 0.34853 0.0
C2046 C 0.56887 0.789 0.33604 0.0
H2047 H 0.58126 0.83124 0.30813 0.0
H2048 H 0.56825 0.81395 0.31103 0.0
H2049 H 0.57779 0.82417 0.32794 0.0
H2050 H 0.60309 0.80062 0.35764 0.0
H2051 H 0.58615 0.7931 0.3795 0.0
H2052 H 0.00883 0.08848 0.95772 0.0
H2053 H 0.008 0.11363 0.94331 0.0
H2054 H 0.05375 0.12901 0.96593 0.0
H2055 H 0.05421 0.1042 0.98082 0.0
H2056 H 0.03365 0.15137 0.9676 0.0
H2057 H 0.03088 0.12938 0.90555 0.0
H2058 H 0.01479 0.12099 0.9167 0.0
H2059 H 0.03526 0.11672 0.92223 0.0
C2060 C 0.01876 0.0972 0.95943 0.0
C2061 C 0.03158 0.09448 0.97035 0.0
C2062 C 0.01835 0.1115 0.95113 0.0
C2063 C 0.03094 0.12314 0.95333 0.0
C2064 C 0.0439 0.12023 0.96402 0.0
H2065 H 0.0475 0.20715 0.89618 0.0
H2066 H 0.04726 0.18065 0.90779 0.0
C2067 C 0.04417 0.10608 0.97251 0.0
C2068 C 0.03023 0.13876 0.94534 0.0
H2069 H 0.02554 0.15662 0.90925 0.0
C2070 C 0.03197 0.1525 0.95482 0.0
C2071 C 0.02821 0.14026 0.92865 0.0
C2072 C 0.02735 0.12605 0.91768 0.0
C2073 C 0.03173 0.16767 0.94815 0.0
C2074 C 0.02903 0.16918 0.93153 0.0
C2075 C 0.02738 0.15545 0.922 0.0
C2076 C 0.02838 0.18491 0.9238 0.0
C2077 C 0.03487 0.18189 0.95898 0.0
C2078 C 0.01756 0.19599 0.92861 0.0
C2079 C 0.01788 0.21124 0.92221 0.0
C2080 C 0.02873 0.21557 0.91055 0.0
C2081 C 0.039 0.2042 0.90516 0.0
C2082 C 0.03886 0.18903 0.91178 0.0
H2083 H 0.04145 0.17872 0.9702 0.0
H2084 H 0.04198 0.19149 0.95313 0.0
H2085 H 0.02322 0.18655 0.96213 0.0
H2086 H 0.00901 0.19293 0.93752 0.0
H2087 H 0.00972 0.21961 0.92653 0.0
H2088 H 0.36013 0.30401 0.21937 0.0
H2089 H 0.381 0.30113 0.20023 0.0
H2090 H 0.39393 0.25728 0.22237 0.0
H2091 H 0.37327 0.2602 0.24165 0.0
H2092 H 0.42046 0.27582 0.21469 0.0
H2093 H 0.37614 0.27005 0.16335 0.0
H2094 H 0.37536 0.28808 0.17457 0.0
H2095 H 0.37021 0.26937 0.18363 0.0
C2096 C 0.36743 0.29376 0.22014 0.0
C2097 C 0.36499 0.28226 0.23193 0.0
C2098 C 0.37933 0.29212 0.2092 0.0
C2099 C 0.38884 0.27885 0.20971 0.0
C2100 C 0.38673 0.26761 0.22175 0.0
H2101 H 0.43684 0.23424 0.13605 0.0
H2102 H 0.41981 0.24272 0.1568 0.0
C2103 C 0.37493 0.2693 0.23277 0.0
C2104 C 0.40061 0.2763 0.19741 0.0
H2105 H 0.40352 0.26978 0.15771 0.0
C2106 C 0.4168 0.27458 0.20221 0.0
C2107 C 0.39575 0.27454 0.18116 0.0
C2108 C 0.37841 0.27545 0.17533 0.0
C2109 C 0.42823 0.2709 0.19122 0.0
C2110 C 0.42336 0.26917 0.17498 0.0
C2111 C 0.40724 0.27121 0.17016 0.0
C2112 C 0.43439 0.26401 0.16289 0.0
C2113 C 0.44524 0.26826 0.19718 0.0
C2114 C 0.44834 0.27314 0.15944 0.0
C2115 C 0.45825 0.26823 0.14757 0.0
C2116 C 0.45422 0.25422 0.13888 0.0
C2117 C 0.44028 0.24512 0.14246 0.0
C2118 C 0.4305 0.24996 0.15433 0.0
H2119 H 0.44615 0.2666 0.21025 0.0
H2120 H 0.4499 0.25772 0.19137 0.0
H2121 H 0.45309 0.27876 0.19427 0.0
H2122 H 0.45142 0.28418 0.1657 0.0
H2123 H 0.46886 0.27554 0.14502 0.0
H2124 H 0.50466 0.41007 0.01448 0.0
H2125 H 0.49893 0.38538 0.02861 0.0
H2126 H 0.546 0.38956 0.05227 0.0
H2127 H 0.55155 0.41467 0.0388 0.0
H2128 H 0.51445 0.35867 0.02607 0.0
H2129 H 0.51837 0.37811 0.08896 0.0
H2130 H 0.51696 0.39191 0.07271 0.0
H2131 H 0.536 0.38408 0.07867 0.0
C2132 C 0.51366 0.40598 0.02299 0.0
C2133 C 0.52858 0.4144 0.0255 0.0
C2134 C 0.51039 0.39178 0.03098 0.0
C2135 C 0.52194 0.38571 0.04166 0.0
C2136 C 0.53676 0.39417 0.04436 0.0
H2137 H 0.53181 0.28755 0.06499 0.0
H2138 H 0.53455 0.31487 0.05582 0.0
C2139 C 0.54001 0.40842 0.03645 0.0
C2140 C 0.51899 0.3699 0.04894 0.0
H2141 H 0.51941 0.35012 0.08425 0.0
C2142 C 0.51539 0.35685 0.0388 0.0
C2143 C 0.52002 0.36753 0.06557 0.0
C2144 C 0.52288 0.38118 0.07712 0.0
C2145 C 0.51325 0.34145 0.04478 0.0
C2146 C 0.51513 0.33896 0.06134 0.0
C2147 C 0.51821 0.35204 0.07155 0.0
C2148 C 0.51422 0.32279 0.06813 0.0
C2149 C 0.50891 0.32798 0.03329 0.0
C2150 C 0.50232 0.31835 0.07872 0.0
C2151 C 0.50078 0.3027 0.08413 0.0
C2152 C 0.51114 0.29125 0.07904 0.0
C2153 C 0.52348 0.29598 0.06899 0.0
C2154 C 0.52504 0.31159 0.06367 0.0
H2155 H 0.50346 0.33231 0.02192 0.0
H2156 H 0.51996 0.32193 0.03056 0.0
H2157 H 0.50034 0.31914 0.03843 0.0
H2158 H 0.49393 0.32687 0.0824 0.0
H2159 H 0.49118 0.29949 0.09191 0.0
H2160 H 0.63368 0.24119 0.23105 0.0
H2161 H 0.61061 0.24514 0.21273 0.0
H2162 H 0.62128 0.20337 0.18645 0.0
H2163 H 0.64454 0.19943 0.20457 0.0
H2164 H 0.61128 0.24971 0.17976 0.0
H2165 H 0.57294 0.19657 0.19436 0.0
H2166 H 0.5897 0.20394 0.20715 0.0
H2167 H 0.59314 0.19239 0.18981 0.0
C2168 C 0.63118 0.23286 0.22134 0.0
C2169 C 0.64101 0.22 0.21927 0.0
C2170 C 0.61792 0.23509 0.21095 0.0
C2171 C 0.61413 0.22445 0.19836 0.0
C2172 C 0.62381 0.21154 0.19629 0.0
H2173 H 0.55976 0.23624 0.11062 0.0
H2174 H 0.58008 0.23338 0.13207 0.0
C2175 C 0.6371 0.20931 0.20667 0.0
C2176 C 0.60052 0.2273 0.18694 0.0
H2177 H 0.56502 0.21077 0.17111 0.0
C2178 C 0.60111 0.24125 0.17794 0.0
C2179 C 0.58717 0.21634 0.18475 0.0
C2180 C 0.58556 0.20153 0.19462 0.0
C2181 C 0.58894 0.24432 0.16644 0.0
C2182 C 0.57595 0.23304 0.16377 0.0
C2183 C 0.57508 0.21933 0.17311 0.0
C2184 C 0.5635 0.235 0.15089 0.0
C2185 C 0.59009 0.25958 0.1572 0.0
C2186 C 0.54737 0.23661 0.15436 0.0
C2187 C 0.53565 0.23826 0.1421 0.0
C2188 C 0.53985 0.23814 0.12613 0.0
C2189 C 0.55605 0.23642 0.12275 0.0
C2190 C 0.56773 0.23486 0.135 0.0
H2191 H 0.59834 0.26862 0.16335 0.0
H2192 H 0.59483 0.25718 0.1454 0.0
H2193 H 0.57807 0.26455 0.15528 0.0
H2194 H 0.54387 0.23666 0.16657 0.0
H2195 H 0.52329 0.23949 0.14513 0.0
H2196 H 0.47056 0.10372 0.99303 0.0
H2197 H 0.47479 0.12752 0.00958 0.0
H2198 H 0.49793 0.1002 0.04639 0.0
H2199 H 0.49415 0.07636 0.02971 0.0
H2200 H 0.46303 0.13193 0.03975 0.0
H2201 H 0.52978 0.13864 0.04102 0.0
H2202 H 0.51827 0.12624 0.02665 0.0
H2203 H 0.52162 0.11947 0.04664 0.0
C2204 C 0.47679 0.10281 0.00454 0.0
C2205 C 0.48209 0.08815 0.01001 0.0
C2206 C 0.4791 0.1164 0.01402 0.0
C2207 C 0.48683 0.11565 0.02912 0.0
C2208 C 0.49216 0.10108 0.03466 0.0
H2209 H 0.48107 0.18936 0.10121 0.0
H2210 H 0.4811 0.16376 0.08752 0.0
C2211 C 0.48983 0.08744 0.02518 0.0
C2212 C 0.48866 0.13006 0.03925 0.0
H2213 H 0.51644 0.15635 0.05709 0.0
C2214 C 0.4747 0.13725 0.0436 0.0
C2215 C 0.50391 0.137 0.04412 0.0
C2216 C 0.51928 0.13006 0.03929 0.0
C2217 C 0.47556 0.15126 0.05264 0.0
C2218 C 0.49081 0.15813 0.05767 0.0
C2219 C 0.50478 0.15094 0.05334 0.0
C2220 C 0.49238 0.17321 0.06675 0.0
C2221 C 0.46015 0.15885 0.05636 0.0
C2222 C 0.4993 0.18686 0.05986 0.0
C2223 C 0.49936 0.2015 0.06767 0.0
C2224 C 0.49256 0.2027 0.08254 0.0
C2225 C 0.48631 0.18885 0.08972 0.0
C2226 C 0.48626 0.17422 0.0819 0.0
H2227 H 0.44976 0.15402 0.04878 0.0
H2228 H 0.45751 0.15654 0.06894 0.0
H2229 H 0.46131 0.1719 0.05471 0.0
H2230 H 0.50412 0.1863 0.04818 0.0
H2231 H 0.50425 0.21192 0.0618 0.0
H2232 H 0.29228 0.37328 0.70374 0.0
H2233 H 0.31241 0.39522 0.70766 0.0
H2234 H 0.28223 0.41747 0.74035 0.0
H2235 H 0.26219 0.39532 0.73695 0.0
H2236 H 0.29859 0.43688 0.7118 0.0
H2237 H 0.33804 0.40402 0.75401 0.0
H2238 H 0.32949 0.39367 0.73663 0.0
H2239 H 0.31661 0.39959 0.75175 0.0
C2240 C 0.28994 0.38275 0.71188 0.0
C2241 C 0.27563 0.38245 0.72011 0.0
C2242 C 0.30141 0.39532 0.714 0.0
C2243 C 0.29876 0.40787 0.72431 0.0
C2244 C 0.28441 0.40786 0.73231 0.0
H2245 H 0.35746 0.49553 0.74441 0.0
H2246 H 0.33491 0.47581 0.74161 0.0
C2247 C 0.27296 0.39523 0.73027 0.0
C2248 C 0.31123 0.42078 0.72699 0.0
H2249 H 0.34791 0.42912 0.74564 0.0
C2250 C 0.30934 0.4353 0.71927 0.0
C2251 C 0.32519 0.41855 0.7367 0.0
C2252 C 0.32755 0.40317 0.74536 0.0
C2253 C 0.32137 0.44758 0.72066 0.0
C2254 C 0.33544 0.44532 0.73033 0.0
C2255 C 0.33713 0.43084 0.73825 0.0
C2256 C 0.34891 0.4575 0.7319 0.0
C2257 C 0.31917 0.46259 0.71132 0.0
C2258 C 0.36434 0.45366 0.72773 0.0
C2259 C 0.37726 0.46479 0.72952 0.0
C2260 C 0.37506 0.48007 0.7355 0.0
C2261 C 0.35957 0.48392 0.73965 0.0
C2262 C 0.34663 0.4727 0.73797 0.0
H2263 H 0.30986 0.46084 0.7015 0.0
H2264 H 0.31525 0.47195 0.71932 0.0
H2265 H 0.33062 0.4669 0.70622 0.0
H2266 H 0.36638 0.442 0.72306 0.0
H2267 H 0.38899 0.4614 0.72615 0.0
H2268 H 0.25261 0.63289 0.77793 0.0
H2269 H 0.2731 0.61313 0.77681 0.0
H2270 H 0.30509 0.64752 0.75519 0.0
H2271 H 0.28469 0.66724 0.75604 0.0
H2272 H 0.28885 0.60156 0.7501 0.0
H2273 H 0.3319 0.63179 0.79388 0.0
H2274 H 0.31103 0.63655 0.79172 0.0
H2275 H 0.32524 0.64438 0.77801 0.0
C2276 C 0.26395 0.6362 0.77279 0.0
C2277 C 0.26705 0.6517 0.76719 0.0
C2278 C 0.27566 0.62492 0.77225 0.0
C2279 C 0.29071 0.62896 0.7662 0.0
C2280 C 0.2937 0.64428 0.76026 0.0
H2281 H 0.37846 0.58818 0.74474 0.0
H2282 H 0.35585 0.60444 0.74969 0.0
C2283 C 0.28202 0.65554 0.76077 0.0
C2284 C 0.30329 0.61718 0.76587 0.0
H2285 H 0.34204 0.61113 0.77845 0.0
C2286 C 0.30042 0.60351 0.75644 0.0
C2287 C 0.31832 0.61976 0.77423 0.0
C2288 C 0.3218 0.63383 0.78516 0.0
C2289 C 0.31249 0.59271 0.75453 0.0
C2290 C 0.32771 0.59557 0.76249 0.0
C2291 C 0.33038 0.60898 0.77232 0.0
C2292 C 0.3414 0.58545 0.75992 0.0
C2293 C 0.3091 0.57872 0.74347 0.0
C2294 C 0.34088 0.56938 0.76424 0.0
C2295 C 0.35385 0.55999 0.76141 0.0
C2296 C 0.36755 0.56655 0.75425 0.0
C2297 C 0.3681 0.58272 0.75023 0.0
C2298 C 0.35518 0.59205 0.75307 0.0
H2299 H 0.29796 0.57995 0.73589 0.0
H2300 H 0.3193 0.57726 0.73569 0.0
H2301 H 0.30756 0.56775 0.75058 0.0
H2302 H 0.33047 0.56412 0.76981 0.0
H2303 H 0.35308 0.54759 0.7647 0.0
H2304 H 0.89544 0.4567 0.45452 0.0
H2305 H 0.87127 0.44036 0.4599 0.0
H2306 H 0.8626 0.47054 0.49963 0.0
H2307 H 0.88678 0.48696 0.49432 0.0
H2308 H 0.86093 0.43925 0.50734 0.0
H2309 H 0.82392 0.44872 0.45222 0.0
H2310 H 0.84362 0.44246 0.44836 0.0
H2311 H 0.84146 0.46127 0.45792 0.0
C2312 C 0.88824 0.46002 0.46423 0.0
C2313 C 0.89303 0.47312 0.47399 0.0
C2314 C 0.8744 0.4507 0.46727 0.0
C2315 C 0.86499 0.45438 0.48001 0.0
C2316 C 0.86965 0.46753 0.48969 0.0
H2317 H 0.77371 0.401 0.49582 0.0
H2318 H 0.79354 0.42295 0.49191 0.0
C2319 C 0.88351 0.47684 0.48669 0.0
C2320 C 0.85093 0.44387 0.48387 0.0
H2321 H 0.81597 0.42626 0.46797 0.0
C2322 C 0.851 0.43657 0.4988 0.0
C2323 C 0.83784 0.44057 0.47283 0.0
C2324 C 0.83658 0.4488 0.457 0.0
C2325 C 0.83872 0.4255 0.50271 0.0
C2326 C 0.82619 0.42142 0.49129 0.0
C2327 C 0.82569 0.42928 0.47665 0.0
C2328 C 0.81412 0.40834 0.49396 0.0
C2329 C 0.83936 0.41814 0.519 0.0
C2330 C 0.81912 0.39287 0.49622 0.0
C2331 C 0.8079 0.38036 0.49844 0.0
C2332 C 0.79135 0.383 0.49837 0.0
C2333 C 0.78634 0.39854 0.49601 0.0
C2334 C 0.79764 0.41109 0.49375 0.0
H2335 H 0.8466 0.42578 0.52771 0.0
H2336 H 0.8271 0.41599 0.52341 0.0
H2337 H 0.84509 0.40659 0.51839 0.0
H2338 H 0.83175 0.39044 0.49609 0.0
H2339 H 0.81224 0.36857 0.50014 0.0
H2340 H 0.72838 0.83709 0.79587 0.0
H2341 H 0.70931 0.85822 0.79309 0.0
H2342 H 0.73256 0.87513 0.75135 0.0
H2343 H 0.75139 0.85392 0.75383 0.0
H2344 H 0.71724 0.89103 0.79333 0.0
H2345 H 0.68472 0.87254 0.73695 0.0
H2346 H 0.69669 0.85924 0.74871 0.0
H2347 H 0.70618 0.87331 0.7357 0.0
C2348 C 0.72926 0.84517 0.78596 0.0
C2349 C 0.74139 0.84384 0.77506 0.0
C2350 C 0.71841 0.85726 0.78443 0.0
C2351 C 0.71938 0.86808 0.77188 0.0
C2352 C 0.7314 0.86671 0.76095 0.0
H2353 H 0.68802 0.95619 0.73977 0.0
H2354 H 0.69803 0.92988 0.74405 0.0
C2355 C 0.74228 0.8547 0.76249 0.0
C2356 C 0.70853 0.88145 0.77067 0.0
H2357 H 0.68249 0.89961 0.745 0.0
C2358 C 0.7094 0.8928 0.78291 0.0
C2359 C 0.6983 0.88366 0.75707 0.0
C2360 C 0.69626 0.87146 0.74392 0.0
C2361 C 0.70105 0.90681 0.7815 0.0
C2362 C 0.69136 0.90935 0.76758 0.0
C2363 C 0.68994 0.89765 0.75565 0.0
C2364 C 0.68397 0.92471 0.76447 0.0
C2365 C 0.70339 0.91916 0.7945 0.0
C2366 C 0.67238 0.93039 0.7743 0.0
C2367 C 0.66661 0.94555 0.77192 0.0
C2368 C 0.67233 0.95524 0.75964 0.0
C2369 C 0.68341 0.94915 0.74942 0.0
C2370 C 0.68914 0.93406 0.75182 0.0
H2371 H 0.71351 0.9166 0.80302 0.0
H2372 H 0.70574 0.93112 0.78941 0.0
H2373 H 0.69227 0.91943 0.8012 0.0
H2374 H 0.66802 0.92322 0.78397 0.0
H2375 H 0.65802 0.94981 0.77995 0.0
H2376 H 0.61037 0.54531 0.00768 0.0
H2377 H 0.6345 0.56286 0.01147 0.0
H2378 H 0.65769 0.53687 0.97572 0.0
H2379 H 0.63364 0.51909 0.97196 0.0
H2380 H 0.66696 0.55563 0.01988 0.0
H2381 H 0.6604 0.58339 0.9603 0.0
H2382 H 0.64424 0.57179 0.96887 0.0
H2383 H 0.6606 0.5621 0.96053 0.0
C2384 C 0.62066 0.54318 0.00075 0.0
C2385 C 0.62004 0.53081 0.98947 0.0
C2386 C 0.63442 0.55326 0.0029 0.0
C2387 C 0.6478 0.55126 0.99376 0.0
C2388 C 0.64738 0.53877 0.98271 0.0
H2389 H 0.74021 0.60542 0.01185 0.0
H2390 H 0.72013 0.58337 0.0075 0.0
C2391 C 0.63362 0.52865 0.98055 0.0
C2392 C 0.662 0.56252 0.99565 0.0
H2393 H 0.68274 0.59219 0.97674 0.0
C2394 C 0.67052 0.56355 0.01043 0.0
C2395 C 0.6665 0.57289 0.98331 0.0
C2396 C 0.65742 0.57265 0.96738 0.0
C2397 C 0.68331 0.57485 0.01326 0.0
C2398 C 0.68773 0.58529 0.00095 0.0
C2399 C 0.67937 0.58408 0.98611 0.0
C2400 C 0.70007 0.59841 0.00359 0.0
C2401 C 0.6916 0.57596 0.02956 0.0
C2402 C 0.69546 0.61413 0.00262 0.0
C2403 C 0.70684 0.62671 0.00506 0.0
C2404 C 0.72314 0.62386 0.00846 0.0
C2405 C 0.72776 0.60806 0.00933 0.0
C2406 C 0.71631 0.59544 0.0069 0.0
H2407 H 0.68496 0.5689 0.03846 0.0
H2408 H 0.70383 0.57142 0.02905 0.0
H2409 H 0.69292 0.5885 0.03365 0.0
H2410 H 0.68299 0.61667 5e-05 0.0
H2411 H 0.7028 0.63868 0.00425 0.0
H2412 H 0.23948 0.65541 0.21157 0.0
H2413 H 0.221 0.63239 0.21536 0.0
H2414 H 0.24112 0.62712 0.26307 0.0
H2415 H 0.25999 0.64976 0.25909 0.0
H2416 H 0.23842 0.59965 0.2487 0.0
H2417 H 0.18066 0.62862 0.23903 0.0
H2418 H 0.19319 0.63093 0.22241 0.0
H2419 H 0.19968 0.63977 0.24126 0.0
C2420 C 0.23983 0.6494 0.2229 0.0
C2421 C 0.25112 0.65434 0.23505 0.0
C2422 C 0.2292 0.63631 0.2251 0.0
C2423 C 0.22943 0.62818 0.23961 0.0
C2424 C 0.24067 0.63322 0.25178 0.0
H2425 H 0.15745 0.55882 0.27104 0.0
H2426 H 0.17357 0.58298 0.26538 0.0
C2427 C 0.25145 0.64612 0.2495 0.0
C2428 C 0.21857 0.61395 0.24191 0.0
H2429 H 0.17922 0.60032 0.2397 0.0
C2430 C 0.22547 0.59983 0.2468 0.0
C2431 C 0.20164 0.61423 0.23964 0.0
C2432 C 0.19334 0.62924 0.23546 0.0
C2433 C 0.21597 0.58598 0.24941 0.0
C2434 C 0.1991 0.58606 0.24646 0.0
C2435 C 0.19216 0.6002 0.24171 0.0
C2436 C 0.18846 0.57169 0.24878 0.0
C2437 C 0.22413 0.57157 0.25574 0.0
C2438 C 0.19108 0.55743 0.24092 0.0
C2439 C 0.18206 0.54356 0.24433 0.0
C2440 C 0.16997 0.54377 0.25537 0.0
C2441 C 0.16669 0.55826 0.26249 0.0
C2442 C 0.1759 0.57209 0.25927 0.0
H2443 H 0.236 0.57484 0.26175 0.0
H2444 H 0.2166 0.56501 0.2643 0.0
H2445 H 0.22622 0.5635 0.24572 0.0
H2446 H 0.20035 0.55694 0.2324 0.0
H2447 H 0.1848 0.53267 0.23851 0.0
H2448 H 0.91623 0.54128 0.05313 0.0
H2449 H 0.89461 0.55949 0.04828 0.0
H2450 H 0.87855 0.53319 0.00605 0.0
H2451 H 0.90006 0.51476 0.01092 0.0
H2452 H 0.88934 0.57784 0.01868 0.0
H2453 H 0.83753 0.53696 0.03306 0.0
H2454 H 0.85787 0.53364 0.04017 0.0
H2455 H 0.85185 0.52985 0.01976 0.0
C2456 C 0.90799 0.53926 0.04291 0.0
C2457 C 0.90981 0.52655 0.03243 0.0
C2458 C 0.89572 0.54972 0.04011 0.0
C2459 C 0.88494 0.54758 0.02689 0.0
C2460 C 0.88667 0.53492 0.01641 0.0
H2461 H 0.80118 0.60376 0.00249 0.0
H2462 H 0.82133 0.58355 0.00176 0.0
C2463 C 0.89902 0.5245 0.01914 0.0
C2464 C 0.87218 0.55892 0.02397 0.0
H2465 H 0.83174 0.563 0.02564 0.0
C2466 C 0.87673 0.5746 0.0201 0.0
C2467 C 0.85575 0.55456 0.02565 0.0
C2468 C 0.85035 0.53787 0.02997 0.0
C2469 C 0.86529 0.58615 0.01815 0.0
C2470 C 0.84893 0.58199 0.02054 0.0
C2471 C 0.8443 0.56617 0.02386 0.0
C2472 C 0.83669 0.59413 0.02078 0.0
C2473 C 0.87087 0.60273 0.01358 0.0
C2474 C 0.83851 0.60656 0.03189 0.0
C2475 C 0.82711 0.61807 0.03231 0.0
C2476 C 0.81352 0.61733 0.02172 0.0
C2477 C 0.81154 0.6047 0.01076 0.0
C2478 C 0.82302 0.59315 0.01033 0.0
H2479 H 0.88231 0.60275 0.00734 0.0
H2480 H 0.86168 0.60836 0.00581 0.0
H2481 H 0.87306 0.61008 0.02449 0.0
H2482 H 0.84874 0.60733 0.04033 0.0
H2483 H 0.82897 0.62754 0.041 0.0
H2484 H 0.09403 0.95678 0.02488 0.0
H2485 H 0.11686 0.9405 0.02052 0.0
H2486 H 0.12746 0.96739 0.97858 0.0
H2487 H 0.10473 0.98387 0.98293 0.0
H2488 H 0.12791 0.93451 0.97415 0.0
H2489 H 0.16466 0.9541 0.02786 0.0
H2490 H 0.14458 0.9472 0.03205 0.0
H2491 H 0.14767 0.96469 0.02023 0.0
C2492 C 0.10131 0.95935 0.01482 0.0
C2493 C 0.0976 0.97169 0.00431 0.0
C2494 C 0.11435 0.95004 0.01235 0.0
C2495 C 0.124 0.95292 0.99938 0.0
C2496 C 0.1202 0.96503 0.9887 0.0
H2497 H 0.21521 0.90626 0.99436 0.0
H2498 H 0.1952 0.92658 0.99309 0.0
C2499 C 0.10715 0.97437 0.99116 0.0
C2500 C 0.13785 0.94304 0.99683 0.0
H2501 H 0.17259 0.93078 0.01481 0.0
C2502 C 0.13777 0.9338 0.98295 0.0
C2503 C 0.15086 0.94237 0.00818 0.0
C2504 C 0.15208 0.95274 0.02285 0.0
C2505 C 0.15001 0.92337 0.98046 0.0
C2506 C 0.1625 0.92198 0.99228 0.0
C2507 C 0.16294 0.93175 0.00582 0.0
C2508 C 0.17466 0.90982 0.99137 0.0
C2509 C 0.14941 0.91389 0.96523 0.0
C2510 C 0.16975 0.89368 0.99072 0.0
C2511 C 0.18112 0.88208 0.99139 0.0
C2512 C 0.19765 0.88637 0.99289 0.0
C2513 C 0.20257 0.90256 0.99317 0.0
C2514 C 0.19116 0.91418 0.99247 0.0
H2515 H 0.14253 0.91988 0.95557 0.0
H2516 H 0.16168 0.91196 0.96127 0.0
H2517 H 0.14325 0.90214 0.96718 0.0
H2518 H 0.15709 0.89001 0.99025 0.0
H2519 H 0.17689 0.86973 0.99121 0.0
loop_
_geom_bond_atom_site_label_1
_geom_bond_atom_site_label_2
_geom_bond_distance
_geom_bond_site_symmetry_2
_ccdc_geom_bond_type
C0 C1 1.386 . S
C0 C2 1.397 . S
C0 H24 0.931 . S
C1 C0 1.386 . S
C1 C5 1.397 1_556 S
C2 C0 1.397 . S
C2 C3 1.384 1_556 S
C2 H25 0.930 . S
C3 C2 1.384 1_554 S
C3 C4 1.377 . S
C3 C6 1.481 . S
C4 C3 1.377 . S
C4 C5 1.389 . S
C4 H26 0.929 . S
C5 C1 1.397 1_554 S
C5 C4 1.389 . S
C5 H27 0.931 . S
C6 C3 1.481 . S
C6 C7 1.387 . S
C6 C11 1.390 . S
C7 C6 1.387 . S
C7 C8 1.401 . S
C7 H28 0.930 . S
C8 C7 1.401 . S
C8 C9 1.376 . S
C8 C17 1.511 . S
C9 C8 1.376 . S
C9 C10 1.392 . S
C9 H30 0.931 . S
C10 C9 1.392 . S
C10 C11 1.361 . S
C10 C12 1.500 . S
C11 C6 1.390 . S
C11 C10 1.361 . S
C11 H29 0.931 . S
C12 C10 1.500 . S
C12 C13 1.371 . S
C12 C14 1.365 . S
C13 C12 1.371 . S
C13 C23 1.417 . S
C13 H31 0.931 . S
C14 C12 1.365 . S
C14 C15 1.409 1_455 S
C14 H32 0.929 . S
C15 C14 1.409 1_655 S
C15 C16 1.380 . S
C15 H33 0.930 . S
C16 C15 1.380 . S
C16 C23 1.337 1_655 S
C17 C8 1.511 . S
C17 C18 1.341 . S
C17 C19 1.371 . S
C18 C17 1.341 . S
C18 C22 1.394 . S
C18 H34 0.975 . S
C19 C17 1.371 . S
C19 C20 1.392 1_545 S
C19 H35 0.931 . S
C20 C19 1.392 1_565 S
C20 C21 1.331 . S
C20 H38 0.932 . S
C21 C20 1.331 . S
C21 C22 1.336 1_565 S
C22 C18 1.394 . S
C22 C21 1.336 1_545 S
C22 H37 0.929 1_554 S
C23 C13 1.417 . S
C23 C16 1.337 1_455 S
C23 H36 0.919 1_455 S
H24 C0 0.931 . S
H25 C2 0.930 . S
H26 C4 0.929 . S
H27 C5 0.931 . S
H28 C7 0.930 . S
H29 C11 0.931 . S
H30 C9 0.931 . S
H31 C13 0.931 . S
H32 C14 0.929 . S
H33 C15 0.930 . S
H34 C18 0.975 . S
H35 C19 0.931 . S
H36 C23 0.919 1_655 S
H37 C22 0.929 1_556 S
H38 C20 0.932 . S
C39 C40 1.386 . S
C39 C41 1.397 . S
C39 H63 0.931 . S
C40 C39 1.386 . S
C40 C44 1.397 . S
C41 C39 1.397 . S
C41 C42 1.384 . S
C41 H64 0.930 . S
C42 C41 1.384 . S
C42 C43 1.377 . S
C42 C45 1.481 . S
C43 C42 1.377 . S
C43 C44 1.389 . S
C43 H65 0.929 . S
C44 C40 1.397 . S
C44 C43 1.389 . S
C44 H66 0.931 . S
C45 C42 1.481 . S
C45 C46 1.387 . S
C45 C50 1.390 . S
C46 C45 1.387 . S
C46 C47 1.401 . S
C46 H67 0.930 . S
C47 C46 1.401 . S
C47 C48 1.376 . S
C47 C56 1.511 . S
C48 C47 1.376 . S
C48 C49 1.392 . S
C48 H69 0.931 . S
C49 C48 1.392 . S
C49 C50 1.361 . S
C49 C51 1.500 . S
C50 C45 1.390 . S
C50 C49 1.361 . S
C50 H68 0.931 . S
C51 C49 1.500 . S
C51 C52 1.371 . S
C51 C53 1.365 . S
C52 C51 1.371 . S
C52 C62 1.386 . S
C52 H70 0.931 . S
C53 C51 1.365 . S
C53 C54 1.409 . S
C53 H71 0.929 . S
C54 C53 1.409 . S
C54 C55 1.380 . S
C54 H72 0.930 . S
C55 C54 1.380 . S
C55 C62 1.357 . S
C56 C47 1.511 . S
C56 C57 1.341 . S
C56 C58 1.371 . S
C57 C56 1.341 . S
C57 C61 1.394 . S
C57 H73 0.930 . S
C58 C56 1.371 . S
C58 C59 1.392 . S
C58 H74 0.931 . S
C59 C58 1.392 . S
C59 C60 1.331 . S
C59 H77 0.932 . S
C60 C59 1.331 . S
C60 C61 1.336 . S
C61 C57 1.394 . S
C61 C60 1.336 . S
C61 H76 0.929 . S
C62 C52 1.386 . S
C62 C55 1.357 . S
C62 H75 0.928 . S
H63 C39 0.931 . S
H64 C41 0.930 . S
H65 C43 0.929 . S
H66 C44 0.931 . S
H67 C46 0.930 . S
H68 C50 0.931 . S
H69 C48 0.931 . S
H70 C52 0.931 . S
H71 C53 0.929 . S
H72 C54 0.930 . S
H73 C57 0.930 . S
H74 C58 0.931 . S
H75 C62 0.928 . S
H76 C61 0.929 . S
H77 C59 0.932 . S
C78 C79 1.386 . S
C78 C80 1.397 1_455 S
C78 H102 0.913 1_455 S
C79 C78 1.386 . S
C79 C83 1.397 . S
C80 C78 1.397 1_655 S
C80 C81 1.413 . S
C80 H103 0.930 . S
C81 C80 1.413 . S
C81 C82 1.311 1_655 S
C81 C84 1.520 . S
C82 C81 1.311 1_455 S
C82 C83 1.389 . S
C82 H104 0.929 . S
C83 C79 1.397 . S
C83 C82 1.389 . S
C83 H105 0.931 . S
C84 C81 1.520 . S
C84 C85 1.387 . S
C84 C89 1.390 . S
C85 C84 1.387 . S
C85 C86 1.401 . S
C85 H106 0.930 . S
C86 C85 1.401 . S
C86 C87 1.376 . S
C86 C95 1.511 . S
C87 C86 1.376 . S
C87 C88 1.392 . S
C87 H108 0.931 . S
C88 C87 1.392 . S
C88 C89 1.361 . S
C88 C90 1.500 . S
C89 C84 1.390 . S
C89 C88 1.361 . S
C89 H107 0.931 . S
C90 C88 1.500 . S
C90 C91 1.371 . S
C90 C92 1.365 . S
C91 C90 1.371 . S
C91 C101 1.386 . S
C91 H109 0.931 . S
C92 C90 1.365 . S
C92 C93 1.409 1_655 S
C92 H110 0.929 1_655 S
C93 C92 1.409 1_455 S
C93 C94 1.380 1_455 S
C93 H111 0.930 . S
C94 C93 1.380 1_655 S
C94 C101 1.357 . S
C95 C86 1.511 . S
C95 C96 1.341 . S
C95 C97 1.371 . S
C96 C95 1.341 . S
C96 C100 1.394 . S
C96 H112 0.930 . S
C97 C95 1.371 . S
C97 C98 1.392 . S
C97 H113 0.931 . S
C98 C97 1.392 . S
C98 C99 1.331 . S
C98 H116 0.932 . S
C99 C98 1.331 . S
C99 C100 1.336 . S
C100 C96 1.394 . S
C100 C99 1.336 . S
C100 H115 0.929 . S
C101 C91 1.386 . S
C101 C94 1.357 . S
C101 H114 0.927 1_554 S
H102 C78 0.913 1_655 S
H103 C80 0.930 . S
H104 C82 0.929 . S
H105 C83 0.931 . S
H106 C85 0.930 . S
H107 C89 0.931 . S
H108 C87 0.931 . S
H109 C91 0.931 . S
H110 C92 0.929 1_455 S
H111 C93 0.930 . S
H112 C96 0.930 . S
H113 C97 0.931 . S
H114 C101 0.927 1_556 S
H115 C100 0.929 . S
H116 C98 0.932 . S
C117 C118 1.386 . S
C117 C119 1.397 . S
C117 H141 0.931 . S
C118 C117 1.386 . S
C118 C122 1.397 . S
C119 C117 1.397 . S
C119 C120 1.384 . S
C119 H142 0.930 . S
C120 C119 1.384 . S
C120 C121 1.377 . S
C120 C123 1.481 . S
C121 C120 1.377 . S
C121 C122 1.389 . S
C121 H143 0.929 . S
C122 C118 1.397 . S
C122 C121 1.389 . S
C122 H144 0.931 . S
C123 C120 1.481 . S
C123 C124 1.387 . S
C123 C128 1.390 . S
C124 C123 1.387 . S
C124 C125 1.401 . S
C124 H145 0.930 . S
C125 C124 1.401 . S
C125 C126 1.376 . S
C125 C134 1.511 . S
C126 C125 1.376 . S
C126 C127 1.392 . S
C126 H147 0.931 . S
C127 C126 1.392 . S
C127 C128 1.361 . S
C127 C129 1.500 . S
C128 C123 1.390 . S
C128 C127 1.361 . S
C128 H146 0.931 . S
C129 C127 1.500 . S
C129 C130 1.371 . S
C129 C131 1.365 . S
C130 C129 1.371 . S
C130 C140 1.386 . S
C130 H148 0.931 . S
C131 C129 1.365 . S
C131 C132 1.409 . S
C131 H149 0.929 . S
C132 C131 1.409 . S
C132 C133 1.380 . S
C132 H150 0.930 . S
C133 C132 1.380 . S
C133 C140 1.357 . S
C134 C125 1.511 . S
C134 C135 1.341 . S
C134 C136 1.371 . S
C135 C134 1.341 . S
C135 C139 1.394 . S
C135 H151 0.930 . S
C136 C134 1.371 . S
C136 C137 1.392 . S
C136 H152 0.931 . S
C137 C136 1.392 . S
C137 C138 1.331 . S
C137 H155 0.932 . S
C138 C137 1.331 . S
C138 C139 1.336 . S
C139 C135 1.394 . S
C139 C138 1.336 . S
C139 H154 0.929 . S
C140 C130 1.386 . S
C140 C133 1.357 . S
C140 H153 0.928 . S
H141 C117 0.931 . S
H142 C119 0.930 . S
H143 C121 0.929 . S
H144 C122 0.931 . S
H145 C124 0.930 . S
H146 C128 0.931 . S
H147 C126 0.931 . S
H148 C130 0.931 . S
H149 C131 0.929 . S
H150 C132 0.930 . S
H151 C135 0.930 . S
H152 C136 0.931 . S
H153 C140 0.928 . S
H154 C139 0.929 . S
H155 C137 0.932 . S
C156 C157 1.386 . S
C156 C158 1.397 . S
C156 H180 0.931 1_455 S
C157 C156 1.386 . S
C157 C161 1.397 . S
C158 C156 1.397 . S
C158 C159 1.384 . S
C158 H181 0.930 . S
C159 C158 1.384 . S
C159 C160 1.377 . S
C159 C162 1.481 . S
C160 C159 1.377 . S
C160 C161 1.389 . S
C160 H182 0.929 . S
C161 C157 1.397 . S
C161 C160 1.389 . S
C161 H183 0.931 . S
C162 C159 1.481 . S
C162 C163 1.387 . S
C162 C167 1.390 . S
C163 C162 1.387 . S
C163 C164 1.401 . S
C163 H184 0.930 . S
C164 C163 1.401 . S
C164 C165 1.376 . S
C164 C173 1.511 . S
C165 C164 1.376 . S
C165 C166 1.392 . S
C165 H186 0.931 . S
C166 C165 1.392 . S
C166 C167 1.361 . S
C166 C168 1.500 . S
C167 C162 1.390 . S
C167 C166 1.361 . S
C167 H185 0.931 . S
C168 C166 1.500 . S
C168 C169 1.371 . S
C168 C170 1.363 1_565 S
C169 C168 1.371 . S
C169 C179 1.386 1_565 S
C169 H187 0.931 . S
C170 C168 1.363 1_545 S
C170 C171 1.411 . S
C170 H188 0.929 1_545 S
C171 C170 1.411 . S
C171 C172 1.380 . S
C171 H189 0.930 . S
C172 C171 1.380 . S
C172 C179 1.357 . S
C173 C164 1.511 . S
C173 C174 1.341 . S
C173 C175 1.371 . S
C174 C173 1.341 . S
C174 C178 1.394 . S
C174 H190 0.930 . S
C175 C173 1.371 . S
C175 C176 1.392 . S
C175 H191 0.931 . S
C176 C175 1.392 . S
C176 C177 1.331 . S
C176 H194 0.932 . S
C177 C176 1.331 . S
C177 C178 1.336 . S
C178 C174 1.394 . S
C178 C177 1.336 . S
C178 H193 0.929 . S
C179 C169 1.386 1_545 S
C179 C172 1.357 . S
C179 H192 0.928 . S
H180 C156 0.931 1_655 S
H181 C158 0.930 . S
H182 C160 0.929 . S
H183 C161 0.931 . S
H184 C163 0.930 . S
H185 C167 0.931 . S
H186 C165 0.931 . S
H187 C169 0.931 . S
H188 C170 0.929 1_565 S
H189 C171 0.930 . S
H190 C174 0.930 . S
H191 C175 0.931 . S
H192 C179 0.928 . S
H193 C178 0.929 . S
H194 C176 0.932 . S
C195 C196 1.386 . S
C195 C197 1.397 . S
C195 H219 0.931 . S
C196 C195 1.386 . S
C196 C200 1.397 . S
C197 C195 1.397 . S
C197 C198 1.384 . S
C197 H220 0.930 . S
C198 C197 1.384 . S
C198 C199 1.377 . S
C198 C201 1.481 . S
C199 C198 1.377 . S
C199 C200 1.389 . S
C199 H221 0.929 . S
C200 C196 1.397 . S
C200 C199 1.389 . S
C200 H222 0.931 . S
C201 C198 1.481 . S
C201 C202 1.387 . S
C201 C206 1.390 . S
C202 C201 1.387 . S
C202 C203 1.401 . S
C202 H223 0.930 . S
C203 C202 1.401 . S
C203 C204 1.376 . S
C203 C212 1.511 . S
C204 C203 1.376 . S
C204 C205 1.392 . S
C204 H225 0.931 . S
C205 C204 1.392 . S
C205 C206 1.361 . S
C205 C207 1.500 . S
C206 C201 1.390 . S
C206 C205 1.361 . S
C206 H224 0.931 . S
C207 C205 1.500 . S
C207 C208 1.371 . S
C207 C209 1.365 . S
C208 C207 1.371 . S
C208 C218 1.386 . S
C208 H226 0.931 . S
C209 C207 1.365 . S
C209 C210 1.409 . S
C209 H227 0.929 . S
C210 C209 1.409 . S
C210 C211 1.380 . S
C210 H228 0.930 . S
C211 C210 1.380 . S
C211 C218 1.357 . S
C212 C203 1.511 . S
C212 C213 1.341 . S
C212 C214 1.371 . S
C213 C212 1.341 . S
C213 C217 1.394 . S
C213 H229 0.930 . S
C214 C212 1.371 . S
C214 C215 1.392 . S
C214 H230 0.931 . S
C215 C214 1.392 . S
C215 C216 1.331 . S
C215 H233 0.932 . S
C216 C215 1.331 . S
C216 C217 1.336 . S
C217 C213 1.394 . S
C217 C216 1.336 . S
C217 H232 0.929 . S
C218 C208 1.386 . S
C218 C211 1.357 . S
C218 H231 0.928 . S
H219 C195 0.931 . S
H220 C197 0.930 . S
H221 C199 0.929 . S
H222 C200 0.931 . S
H223 C202 0.930 . S
H224 C206 0.931 . S
H225 C204 0.931 . S
H226 C208 0.931 . S
H227 C209 0.929 . S
H228 C210 0.930 . S
H229 C213 0.930 . S
H230 C214 0.931 . S
H231 C218 0.928 . S
H232 C217 0.929 . S
H233 C215 0.932 . S
C234 C235 1.386 . S
C234 C236 1.397 . S
C234 H258 0.931 . S
C235 C234 1.386 . S
C235 C239 1.397 . S
C236 C234 1.397 . S
C236 C237 1.384 . S
C236 H259 0.930 . S
C237 C236 1.384 . S
C237 C238 1.377 . S
C237 C240 1.481 . S
C238 C237 1.377 . S
C238 C239 1.389 . S
C238 H260 0.929 . S
C239 C235 1.397 . S
C239 C238 1.389 . S
C239 H261 0.931 . S
C240 C237 1.481 . S
C240 C241 1.387 . S
C240 C245 1.390 . S
C241 C240 1.387 . S
C241 C242 1.401 . S
C241 H262 0.930 . S
C242 C241 1.401 . S
C242 C243 1.376 . S
C242 C251 1.511 . S
C243 C242 1.376 . S
C243 C244 1.392 . S
C243 H264 0.931 . S
C244 C243 1.392 . S
C244 C245 1.361 . S
C244 C246 1.500 . S
C245 C240 1.390 . S
C245 C244 1.361 . S
C245 H263 0.931 . S
C246 C244 1.500 . S
C246 C247 1.371 . S
C246 C248 1.365 . S
C247 C246 1.371 . S
C247 C257 1.386 . S
C247 H265 0.931 . S
C248 C246 1.365 . S
C248 C249 1.409 . S
C248 H266 0.929 . S
C249 C248 1.409 . S
C249 C250 1.380 . S
C249 H267 0.930 . S
C250 C249 1.380 . S
C250 C257 1.357 . S
C251 C242 1.511 . S
C251 C252 1.366 . S
C251 C253 1.371 . S
C252 C251 1.366 . S
C252 C256 1.365 1_655 S
C252 H268 0.935 . S
C253 C251 1.371 . S
C253 C254 1.392 1_655 S
C253 H269 0.931 . S
C254 C253 1.392 1_455 S
C254 C255 1.331 . S
C254 H272 0.932 . S
C255 C254 1.331 . S
C255 C256 1.336 . S
C256 C252 1.365 1_455 S
C256 C255 1.336 . S
C256 H271 0.929 . S
C257 C247 1.386 . S
C257 C250 1.357 . S
C257 H270 0.928 . S
H258 C234 0.931 . S
H259 C236 0.930 . S
H260 C238 0.929 . S
H261 C239 0.931 . S
H262 C241 0.930 . S
H263 C245 0.931 . S
H264 C243 0.931 . S
H265 C247 0.931 . S
H266 C248 0.929 . S
H267 C249 0.930 . S
H268 C252 0.935 . S
H269 C253 0.931 . S
H270 C257 0.928 . S
H271 C256 0.929 . S
H272 C254 0.932 . S
C273 C274 1.386 . S
C273 C275 1.397 . S
C273 H297 0.931 . S
C274 C273 1.386 . S
C274 C278 1.397 . S
C275 C273 1.397 . S
C275 C276 1.384 . S
C275 H298 0.930 . S
C276 C275 1.384 . S
C276 C277 1.377 . S
C276 C279 1.481 . S
C277 C276 1.377 . S
C277 C278 1.389 . S
C277 H299 0.929 . S
C278 C274 1.397 . S
C278 C277 1.389 . S
C278 H300 0.931 . S
C279 C276 1.481 . S
C279 C280 1.387 . S
C279 C284 1.390 . S
C280 C279 1.387 . S
C280 C281 1.401 . S
C280 H301 0.930 . S
C281 C280 1.401 . S
C281 C282 1.376 . S
C281 C290 1.511 . S
C282 C281 1.376 . S
C282 C283 1.392 . S
C282 H303 0.931 . S
C283 C282 1.392 . S
C283 C284 1.361 . S
C283 C285 1.500 . S
C284 C279 1.390 . S
C284 C283 1.361 . S
C284 H302 0.931 . S
C285 C283 1.500 . S
C285 C286 1.371 . S
C285 C287 1.365 . S
C286 C285 1.371 . S
C286 C296 1.386 . S
C286 H304 0.931 . S
C287 C285 1.365 . S
C287 C288 1.409 . S
C287 H305 0.929 . S
C288 C287 1.409 . S
C288 C289 1.380 . S
C288 H306 0.930 . S
C289 C288 1.380 . S
C289 C296 1.357 . S
C290 C281 1.511 . S
C290 C291 1.341 . S
C290 C292 1.371 . S
C291 C290 1.341 . S
C291 C295 1.394 . S
C291 H307 0.930 . S
C292 C290 1.371 . S
C292 C293 1.392 . S
C292 H308 0.931 . S
C293 C292 1.392 . S
C293 C294 1.331 . S
C293 H311 0.932 . S
C294 C293 1.331 . S
C294 C295 1.336 . S
C295 C291 1.394 . S
C295 C294 1.336 . S
C295 H310 0.929 . S
C296 C286 1.386 . S
C296 C289 1.357 . S
C296 H309 0.928 . S
H297 C273 0.931 . S
H298 C275 0.930 . S
H299 C277 0.929 . S
H300 C278 0.931 . S
H301 C280 0.930 . S
H302 C284 0.931 . S
H303 C282 0.931 . S
H304 C286 0.931 . S
H305 C287 0.929 . S
H306 C288 0.930 . S
H307 C291 0.930 . S
H308 C292 0.931 . S
H309 C296 0.928 . S
H310 C295 0.929 . S
H311 C293 0.932 . S
C312 C313 1.386 . S
C312 C314 1.397 . S
C312 H336 0.931 . S
C313 C312 1.386 . S
C313 C317 1.397 . S
C314 C312 1.397 . S
C314 C315 1.384 . S
C314 H337 0.930 . S
C315 C314 1.384 . S
C315 C316 1.377 . S
C315 C318 1.481 . S
C316 C315 1.377 . S
C316 C317 1.389 . S
C316 H338 0.929 . S
C317 C313 1.397 . S
C317 C316 1.389 . S
C317 H339 0.931 . S
C318 C315 1.481 . S
C318 C319 1.387 . S
C318 C323 1.390 . S
C319 C318 1.387 . S
C319 C320 1.401 . S
C319 H340 0.930 . S
C320 C319 1.401 . S
C320 C321 1.376 . S
C320 C329 1.511 . S
C321 C320 1.376 . S
C321 C322 1.392 . S
C321 H342 0.931 . S
C322 C321 1.392 . S
C322 C323 1.361 . S
C322 C324 1.500 . S
C323 C318 1.390 . S
C323 C322 1.361 . S
C323 H341 0.931 . S
C324 C322 1.500 . S
C324 C325 1.371 . S
C324 C326 1.365 . S
C325 C324 1.371 . S
C325 C335 1.386 . S
C325 H343 0.931 . S
C326 C324 1.365 . S
C326 C327 1.409 . S
C326 H344 0.929 . S
C327 C326 1.409 . S
C327 C328 1.380 . S
C327 H345 0.930 . S
C328 C327 1.380 . S
C328 C335 1.357 . S
C329 C320 1.511 . S
C329 C330 1.341 . S
C329 C331 1.371 . S
C330 C329 1.341 . S
C330 C334 1.394 . S
C330 H346 0.930 . S
C331 C329 1.371 . S
C331 C332 1.392 . S
C331 H347 0.931 . S
C332 C331 1.392 . S
C332 C333 1.331 . S
C332 H350 0.932 . S
C333 C332 1.331 . S
C333 C334 1.336 . S
C334 C330 1.394 . S
C334 C333 1.336 . S
C334 H349 0.929 . S
C335 C325 1.386 . S
C335 C328 1.357 . S
C335 H348 0.928 . S
H336 C312 0.931 . S
H337 C314 0.930 . S
H338 C316 0.929 . S
H339 C317 0.931 . S
H340 C319 0.930 . S
H341 C323 0.931 . S
H342 C321 0.931 . S
H343 C325 0.931 . S
H344 C326 0.929 . S
H345 C327 0.930 . S
H346 C330 0.930 . S
H347 C331 0.931 . S
H348 C335 0.928 . S
H349 C334 0.929 . S
H350 C332 0.932 . S
C351 C352 1.386 . S
C351 C353 1.397 . S
C351 H375 0.931 . S
C352 C351 1.386 . S
C352 C356 1.397 . S
C353 C351 1.397 . S
C353 C354 1.384 . S
C353 H376 0.930 . S
C354 C353 1.384 . S
C354 C355 1.377 . S
C354 C357 1.481 . S
C355 C354 1.377 . S
C355 C356 1.389 . S
C355 H377 0.929 . S
C356 C352 1.397 . S
C356 C355 1.389 . S
C356 H378 0.931 . S
C357 C354 1.481 . S
C357 C358 1.387 . S
C357 C362 1.390 . S
C358 C357 1.387 . S
C358 C359 1.401 . S
C358 H379 0.930 . S
C359 C358 1.401 . S
C359 C360 1.376 . S
C359 C368 1.511 . S
C360 C359 1.376 . S
C360 C361 1.392 . S
C360 H381 0.931 . S
C361 C360 1.392 . S
C361 C362 1.361 . S
C361 C363 1.500 . S
C362 C357 1.390 . S
C362 C361 1.361 . S
C362 H380 0.931 . S
C363 C361 1.500 . S
C363 C364 1.371 . S
C363 C365 1.365 . S
C364 C363 1.371 . S
C364 C374 1.386 . S
C364 H382 0.931 . S
C365 C363 1.365 . S
C365 C366 1.409 . S
C365 H383 0.929 . S
C366 C365 1.409 . S
C366 C367 1.380 . S
C366 H384 0.930 . S
C367 C366 1.380 . S
C367 C374 1.357 . S
C368 C359 1.511 . S
C368 C369 1.341 . S
C368 C370 1.371 . S
C369 C368 1.341 . S
C369 C373 1.394 1_565 S
C369 H385 0.930 . S
C370 C368 1.371 . S
C370 C371 1.406 . S
C370 H386 0.931 . S
C371 C370 1.406 . S
C371 C372 1.319 1_565 S
C371 H389 0.925 1_565 S
C372 C371 1.319 1_545 S
C372 C373 1.336 . S
C373 C369 1.394 1_545 S
C373 C372 1.336 . S
C373 H388 0.929 . S
C374 C364 1.386 . S
C374 C367 1.357 . S
C374 H387 0.928 . S
H375 C351 0.931 . S
H376 C353 0.930 . S
H377 C355 0.929 . S
H378 C356 0.931 . S
H379 C358 0.930 . S
H380 C362 0.931 . S
H381 C360 0.931 . S
H382 C364 0.931 . S
H383 C365 0.929 . S
H384 C366 0.930 . S
H385 C369 0.930 . S
H386 C370 0.931 . S
H387 C374 0.928 . S
H388 C373 0.929 . S
H389 C371 0.925 1_545 S
C390 C391 1.386 . S
C390 C392 1.397 . S
C390 H414 0.931 . S
C391 C390 1.386 . S
C391 C395 1.397 . S
C392 C390 1.397 . S
C392 C393 1.384 . S
C392 H415 0.930 . S
C393 C392 1.384 . S
C393 C394 1.377 . S
C393 C396 1.481 . S
C394 C393 1.377 . S
C394 C395 1.389 . S
C394 H416 0.929 . S
C395 C391 1.397 . S
C395 C394 1.389 . S
C395 H417 0.931 . S
C396 C393 1.481 . S
C396 C397 1.387 . S
C396 C401 1.390 . S
C397 C396 1.387 . S
C397 C398 1.401 . S
C397 H418 0.930 . S
C398 C397 1.401 . S
C398 C399 1.376 . S
C398 C407 1.511 . S
C399 C398 1.376 . S
C399 C400 1.392 . S
C399 H420 0.931 . S
C400 C399 1.392 . S
C400 C401 1.361 . S
C400 C402 1.500 . S
C401 C396 1.390 . S
C401 C400 1.361 . S
C401 H419 0.931 . S
C402 C400 1.500 . S
C402 C403 1.371 . S
C402 C404 1.365 . S
C403 C402 1.371 . S
C403 C413 1.386 . S
C403 H421 0.931 . S
C404 C402 1.365 . S
C404 C405 1.409 . S
C404 H422 0.929 . S
C405 C404 1.409 . S
C405 C406 1.380 . S
C405 H423 0.930 . S
C406 C405 1.380 . S
C406 C413 1.357 . S
C407 C398 1.511 . S
C407 C408 1.341 . S
C407 C409 1.371 . S
C408 C407 1.341 . S
C408 C412 1.394 . S
C408 H424 0.930 . S
C409 C407 1.371 . S
C409 C410 1.392 . S
C409 H425 0.931 . S
C410 C409 1.392 . S
C410 C411 1.331 . S
C410 H428 0.932 . S
C411 C410 1.331 . S
C411 C412 1.336 . S
C412 C408 1.394 . S
C412 C411 1.336 . S
C412 H427 0.929 . S
C413 C403 1.386 . S
C413 C406 1.357 . S
C413 H426 0.928 . S
H414 C390 0.931 . S
H415 C392 0.930 . S
H416 C394 0.929 . S
H417 C395 0.931 . S
H418 C397 0.930 . S
H419 C401 0.931 . S
H420 C399 0.931 . S
H421 C403 0.931 . S
H422 C404 0.929 . S
H423 C405 0.930 . S
H424 C408 0.930 . S
H425 C409 0.931 . S
H426 C413 0.928 . S
H427 C412 0.929 . S
H428 C410 0.932 . S
C429 C430 1.386 . S
C429 C431 1.397 . S
C429 H453 0.931 . S
C430 C429 1.386 . S
C430 C434 1.397 . S
C431 C429 1.397 . S
C431 C432 1.384 . S
C431 H454 0.930 . S
C432 C431 1.384 . S
C432 C433 1.377 . S
C432 C435 1.481 . S
C433 C432 1.377 . S
C433 C434 1.389 . S
C433 H455 0.929 . S
C434 C430 1.397 . S
C434 C433 1.389 . S
C434 H456 0.931 . S
C435 C432 1.481 . S
C435 C436 1.387 . S
C435 C440 1.390 . S
C436 C435 1.387 . S
C436 C437 1.401 . S
C436 H457 0.930 . S
C437 C436 1.401 . S
C437 C438 1.376 . S
C437 C446 1.511 . S
C438 C437 1.376 . S
C438 C439 1.392 . S
C438 H459 0.931 . S
C439 C438 1.392 . S
C439 C440 1.361 . S
C439 C441 1.500 . S
C440 C435 1.390 . S
C440 C439 1.361 . S
C440 H458 0.931 . S
C441 C439 1.500 . S
C441 C442 1.371 . S
C441 C443 1.365 . S
C442 C441 1.371 . S
C442 C452 1.386 . S
C442 H460 0.931 . S
C443 C441 1.365 . S
C443 C444 1.409 . S
C443 H461 0.929 . S
C444 C443 1.409 . S
C444 C445 1.380 . S
C444 H462 0.930 . S
C445 C444 1.380 . S
C445 C452 1.357 . S
C446 C437 1.511 . S
C446 C447 1.341 . S
C446 C448 1.371 . S
C447 C446 1.341 . S
C447 C451 1.394 . S
C447 H463 0.930 . S
C448 C446 1.371 . S
C448 C449 1.392 . S
C448 H464 0.931 . S
C449 C448 1.392 . S
C449 C450 1.331 . S
C449 H467 0.932 . S
C450 C449 1.331 . S
C450 C451 1.336 . S
C451 C447 1.394 . S
C451 C450 1.336 . S
C451 H466 0.929 . S
C452 C442 1.386 . S
C452 C445 1.357 . S
C452 H465 0.928 . S
H453 C429 0.931 . S
H454 C431 0.930 . S
H455 C433 0.929 . S
H456 C434 0.931 . S
H457 C436 0.930 . S
H458 C440 0.931 . S
H459 C438 0.931 . S
H460 C442 0.931 . S
H461 C443 0.929 . S
H462 C444 0.930 . S
H463 C447 0.930 . S
H464 C448 0.931 . S
H465 C452 0.928 . S
H466 C451 0.929 . S
H467 C449 0.932 . S
C468 C469 1.386 . S
C468 C470 1.397 . S
C468 H492 0.931 . S
C469 C468 1.386 . S
C469 C473 1.397 . S
C470 C468 1.397 . S
C470 C471 1.384 . S
C470 H493 0.930 . S
C471 C470 1.384 . S
C471 C472 1.377 . S
C471 C474 1.481 . S
C472 C471 1.377 . S
C472 C473 1.389 . S
C472 H494 0.929 . S
C473 C469 1.397 . S
C473 C472 1.389 . S
C473 H495 0.931 . S
C474 C471 1.481 . S
C474 C475 1.387 . S
C474 C479 1.390 . S
C475 C474 1.387 . S
C475 C476 1.401 . S
C475 H496 0.930 . S
C476 C475 1.401 . S
C476 C477 1.376 . S
C476 C485 1.511 . S
C477 C476 1.376 . S
C477 C478 1.392 . S
C477 H498 0.931 . S
C478 C477 1.392 . S
C478 C479 1.361 . S
C478 C480 1.500 . S
C479 C474 1.390 . S
C479 C478 1.361 . S
C479 H497 0.931 . S
C480 C478 1.500 . S
C480 C481 1.371 . S
C480 C482 1.365 . S
C481 C480 1.371 . S
C481 C491 1.386 . S
C481 H499 0.931 . S
C482 C480 1.365 . S
C482 C483 1.409 . S
C482 H500 0.929 . S
C483 C482 1.409 . S
C483 C484 1.380 . S
C483 H501 0.930 . S
C484 C483 1.380 . S
C484 C491 1.357 . S
C485 C476 1.511 . S
C485 C486 1.341 . S
C485 C487 1.371 . S
C486 C485 1.341 . S
C486 C490 1.394 . S
C486 H502 0.930 . S
C487 C485 1.371 . S
C487 C488 1.392 . S
C487 H503 0.931 . S
C488 C487 1.392 . S
C488 C489 1.331 . S
C488 H506 0.932 . S
C489 C488 1.331 . S
C489 C490 1.336 . S
C490 C486 1.394 . S
C490 C489 1.336 . S
C490 H505 0.929 . S
C491 C481 1.386 . S
C491 C484 1.357 . S
C491 H504 0.928 . S
H492 C468 0.931 . S
H493 C470 0.930 . S
H494 C472 0.929 . S
H495 C473 0.931 . S
H496 C475 0.930 . S
H497 C479 0.931 . S
H498 C477 0.931 . S
H499 C481 0.931 . S
H500 C482 0.929 . S
H501 C483 0.930 . S
H502 C486 0.930 . S
H503 C487 0.931 . S
H504 C491 0.928 . S
H505 C490 0.929 . S
H506 C488 0.932 . S
C507 C508 1.386 . S
C507 C509 1.397 . S
C507 H531 0.931 . S
C508 C507 1.386 . S
C508 C512 1.397 . S
C509 C507 1.397 . S
C509 C510 1.384 . S
C509 H532 0.930 . S
C510 C509 1.384 . S
C510 C511 1.377 . S
C510 C513 1.481 . S
C511 C510 1.377 . S
C511 C512 1.389 . S
C511 H533 0.929 . S
C512 C508 1.397 . S
C512 C511 1.389 . S
C512 H534 0.931 . S
C513 C510 1.481 . S
C513 C514 1.387 . S
C513 C518 1.390 . S
C514 C513 1.387 . S
C514 C515 1.401 . S
C514 H535 0.930 . S
C515 C514 1.401 . S
C515 C516 1.376 . S
C515 C524 1.511 . S
C516 C515 1.376 . S
C516 C517 1.392 . S
C516 H537 0.931 . S
C517 C516 1.392 . S
C517 C518 1.361 . S
C517 C519 1.500 . S
C518 C513 1.390 . S
C518 C517 1.361 . S
C518 H536 0.931 . S
C519 C517 1.500 . S
C519 C520 1.371 . S
C519 C521 1.365 . S
C520 C519 1.371 . S
C520 C530 1.386 . S
C520 H538 0.931 . S
C521 C519 1.365 . S
C521 C522 1.409 . S
C521 H539 0.929 . S
C522 C521 1.409 . S
C522 C523 1.380 . S
C522 H540 0.930 . S
C523 C522 1.380 . S
C523 C530 1.357 . S
C524 C515 1.511 . S
C524 C525 1.341 . S
C524 C526 1.371 . S
C525 C524 1.341 . S
C525 C529 1.394 . S
C525 H541 0.930 . S
C526 C524 1.371 . S
C526 C527 1.392 1_556 S
C526 H542 0.931 . S
C527 C526 1.392 1_554 S
C527 C528 1.331 . S
C527 H545 0.932 . S
C528 C527 1.331 . S
C528 C529 1.336 1_554 S
C529 C525 1.394 . S
C529 C528 1.336 1_556 S
C529 H544 0.929 . S
C530 C520 1.386 . S
C530 C523 1.357 . S
C530 H543 0.928 . S
H531 C507 0.931 . S
H532 C509 0.930 . S
H533 C511 0.929 . S
H534 C512 0.931 . S
H535 C514 0.930 . S
H536 C518 0.931 . S
H537 C516 0.931 . S
H538 C520 0.931 . S
H539 C521 0.929 . S
H540 C522 0.930 . S
H541 C525 0.930 . S
H542 C526 0.931 . S
H543 C530 0.928 . S
H544 C529 0.929 . S
H545 C527 0.932 . S
C546 C547 1.386 . S
C546 C548 1.397 . S
C546 H570 0.931 . S
C547 C546 1.386 . S
C547 C551 1.397 . S
C548 C546 1.397 . S
C548 C549 1.384 . S
C548 H571 0.930 . S
C549 C548 1.384 . S
C549 C550 1.377 . S
C549 C552 1.481 . S
C550 C549 1.377 . S
C550 C551 1.389 . S
C550 H572 0.929 . S
C551 C547 1.397 . S
C551 C550 1.389 . S
C551 H573 0.931 . S
C552 C549 1.481 . S
C552 C553 1.387 . S
C552 C557 1.390 . S
C553 C552 1.387 . S
C553 C554 1.401 . S
C553 H574 0.930 . S
C554 C553 1.401 . S
C554 C555 1.376 . S
C554 C563 1.511 . S
C555 C554 1.376 . S
C555 C556 1.392 . S
C555 H576 0.931 . S
C556 C555 1.392 . S
C556 C557 1.361 . S
C556 C558 1.500 . S
C557 C552 1.390 . S
C557 C556 1.361 . S
C557 H575 0.931 . S
C558 C556 1.500 . S
C558 C559 1.371 . S
C558 C560 1.365 . S
C559 C558 1.371 . S
C559 C569 1.386 . S
C559 H577 0.931 . S
C560 C558 1.365 . S
C560 C561 1.409 . S
C560 H578 0.929 . S
C561 C560 1.409 . S
C561 C562 1.380 . S
C561 H579 0.930 . S
C562 C561 1.380 . S
C562 C569 1.357 . S
C563 C554 1.511 . S
C563 C564 1.341 . S
C563 C565 1.371 . S
C564 C563 1.341 . S
C564 C568 1.394 . S
C564 H580 0.930 . S
C565 C563 1.371 . S
C565 C566 1.392 . S
C565 H581 0.931 . S
C566 C565 1.392 . S
C566 C567 1.331 . S
C566 H584 0.932 . S
C567 C566 1.331 . S
C567 C568 1.336 . S
C568 C564 1.394 . S
C568 C567 1.336 . S
C568 H583 0.929 . S
C569 C559 1.386 . S
C569 C562 1.357 . S
C569 H582 0.928 . S
H570 C546 0.931 . S
H571 C548 0.930 . S
H572 C550 0.929 . S
H573 C551 0.931 . S
H574 C553 0.930 . S
H575 C557 0.931 . S
H576 C555 0.931 . S
H577 C559 0.931 . S
H578 C560 0.929 . S
H579 C561 0.930 . S
H580 C564 0.930 . S
H581 C565 0.931 . S
H582 C569 0.928 . S
H583 C568 0.929 . S
H584 C566 0.932 . S
C585 C586 1.386 1_556 S
C585 C587 1.397 . S
C585 H609 0.931 . S
C586 C585 1.386 1_554 S
C586 C590 1.397 . S
C587 C585 1.397 . S
C587 C588 1.384 . S
C587 H610 0.930 . S
C588 C587 1.384 . S
C588 C589 1.377 1_556 S
C588 C591 1.481 . S
C589 C588 1.377 1_554 S
C589 C590 1.389 . S
C589 H611 0.929 . S
C590 C586 1.397 . S
C590 C589 1.389 . S
C590 H612 0.931 . S
C591 C588 1.481 . S
C591 C592 1.387 . S
C591 C596 1.390 . S
C592 C591 1.387 . S
C592 C593 1.401 . S
C592 H613 0.930 . S
C593 C592 1.401 . S
C593 C594 1.376 . S
C593 C602 1.511 . S
C594 C593 1.376 . S
C594 C595 1.392 . S
C594 H615 0.931 . S
C595 C594 1.392 . S
C595 C596 1.361 . S
C595 C597 1.500 . S
C596 C591 1.390 . S
C596 C595 1.361 . S
C596 H614 0.931 . S
C597 C595 1.500 . S
C597 C598 1.371 . S
C597 C599 1.365 . S
C598 C597 1.371 . S
C598 C608 1.386 1_545 S
C598 H616 0.931 . S
C599 C597 1.365 . S
C599 C600 1.409 1_545 S
C599 H617 0.933 1_556 S
C600 C599 1.409 1_565 S
C600 C601 1.380 . S
C600 H618 0.930 1_556 S
C601 C600 1.380 . S
C601 C608 1.357 . S
C602 C593 1.511 . S
C602 C603 1.341 . S
C602 C604 1.371 . S
C603 C602 1.341 . S
C603 C607 1.394 . S
C603 H619 0.930 . S
C604 C602 1.371 . S
C604 C605 1.392 . S
C604 H620 0.931 . S
C605 C604 1.392 . S
C605 C606 1.331 . S
C605 H623 0.904 1_545 S
C606 C605 1.331 . S
C606 C607 1.336 . S
C607 C603 1.394 . S
C607 C606 1.336 . S
C607 H622 0.929 . S
C608 C598 1.386 1_565 S
C608 C601 1.357 . S
C608 H621 0.928 . S
H609 C585 0.931 . S
H610 C587 0.930 . S
H611 C589 0.929 . S
H612 C590 0.931 . S
H613 C592 0.930 . S
H614 C596 0.931 . S
H615 C594 0.931 . S
H616 C598 0.931 . S
H617 C599 0.933 1_554 S
H618 C600 0.930 1_554 S
H619 C603 0.930 . S
H620 C604 0.931 . S
H621 C608 0.928 . S
H622 C607 0.929 . S
H623 C605 0.904 1_565 S
Mg624 O625 2.036 . S
Mg624 O631 1.986 1_554 S
Mg624 O633 2.114 . S
Mg624 O634 2.251 . S
Mg624 O637 2.010 . S
O625 Mg624 2.036 . S
O625 C628 1.244 1_554 S
O626 Mg627 2.028 . S
O626 C628 1.248 . S
Mg627 O626 2.028 . S
Mg627 O632 2.032 . S
Mg627 O634 2.079 1_556 S
C628 O625 1.244 1_556 S
C628 O626 1.248 . S
C629 O630 1.264 . S
C629 O637 1.249 . S
O630 C629 1.264 . S
O631 Mg624 1.986 1_556 S
O631 C635 1.246 . S
O632 Mg627 2.032 . S
O632 C635 1.259 . S
O633 Mg624 2.114 . S
O633 C636 1.252 . S
O634 Mg624 2.251 . S
O634 Mg627 2.079 1_554 S
O634 C636 1.273 . S
C635 O631 1.246 . S
C635 O632 1.259 . S
C636 O633 1.252 . S
C636 O634 1.273 . S
O637 Mg624 2.010 . S
O637 C629 1.249 . S
Mg638 O639 2.028 . S
Mg638 O645 1.986 . S
Mg638 O647 2.114 . S
Mg638 O648 2.251 . S
Mg638 O651 2.010 . S
O639 Mg638 2.028 . S
O639 C642 1.250 . S
O640 Mg641 2.028 . S
O640 C642 1.248 . S
Mg641 O640 2.028 . S
Mg641 O646 2.032 . S
Mg641 O648 2.079 . S
C642 O639 1.250 . S
C642 O640 1.248 . S
C643 O644 1.264 . S
C643 O651 1.249 . S
O644 C643 1.264 . S
O645 Mg638 1.986 . S
O645 C649 1.246 . S
O646 Mg641 2.032 . S
O646 C649 1.259 . S
O647 Mg638 2.114 . S
O647 C650 1.252 . S
O648 Mg638 2.251 . S
O648 Mg641 2.079 . S
O648 C650 1.273 . S
C649 O645 1.246 . S
C649 O646 1.259 . S
C650 O647 1.252 . S
C650 O648 1.273 . S
O651 Mg638 2.010 . S
O651 C643 1.249 . S
Mg652 O653 2.028 . S
Mg652 O659 1.986 1_554 S
Mg652 O661 2.114 . S
Mg652 O662 2.251 . S
Mg652 O665 2.010 . S
O653 Mg652 2.028 . S
O653 C656 1.250 . S
O654 Mg655 2.029 . S
O654 C656 1.247 1_556 S
Mg655 O654 2.029 . S
Mg655 O660 2.032 . S
Mg655 O662 2.079 1_556 S
C656 O653 1.250 . S
C656 O654 1.247 1_554 S
C657 O658 1.264 . S
C657 O665 1.249 . S
O658 C657 1.264 . S
O659 Mg652 1.986 1_556 S
O659 C663 1.246 . S
O660 Mg655 2.032 . S
O660 C663 1.259 . S
O661 Mg652 2.114 . S
O661 C664 1.252 . S
O662 Mg652 2.251 . S
O662 Mg655 2.079 1_554 S
O662 C664 1.273 . S
C663 O659 1.246 . S
C663 O660 1.259 . S
C664 O661 1.252 . S
C664 O662 1.273 . S
O665 Mg652 2.010 . S
O665 C657 1.249 . S
Mg666 O667 2.028 . S
Mg666 O673 1.986 . S
Mg666 O675 2.114 . S
Mg666 O676 2.251 . S
Mg666 O679 2.010 . S
O667 Mg666 2.028 . S
O667 C670 1.250 1_545 S
O668 Mg669 2.028 . S
O668 C670 1.248 . S
Mg669 O668 2.028 . S
Mg669 O674 2.032 . S
Mg669 O676 2.079 1_565 S
C670 O667 1.250 1_565 S
C670 O668 1.248 . S
C671 O672 1.264 . S
C671 O679 1.249 . S
O672 C671 1.264 . S
O673 Mg666 1.986 . S
O673 C677 1.246 . S
O674 Mg669 2.032 . S
O674 C677 1.259 1_565 S
O675 Mg666 2.114 . S
O675 C678 1.252 . S
O676 Mg666 2.251 . S
O676 Mg669 2.079 1_545 S
O676 C678 1.273 . S
C677 O673 1.246 . S
C677 O674 1.259 1_545 S
C678 O675 1.252 . S
C678 O676 1.273 . S
O679 Mg666 2.010 . S
O679 C671 1.249 . S
Mg680 O681 2.028 . S
Mg680 O687 1.986 . S
Mg680 O689 2.114 . S
Mg680 O690 2.251 . S
Mg680 O693 2.010 . S
O681 Mg680 2.028 . S
O681 C684 1.250 . S
O682 Mg683 2.028 . S
O682 C684 1.248 . S
Mg683 O682 2.028 . S
Mg683 O688 2.032 . S
Mg683 O690 2.079 . S
C684 O681 1.250 . S
C684 O682 1.248 . S
C685 O686 1.264 . S
C685 O693 1.249 . S
O686 C685 1.264 . S
O687 Mg680 1.986 . S
O687 C691 1.246 . S
O688 Mg683 2.032 . S
O688 C691 1.259 . S
O689 Mg680 2.114 . S
O689 C692 1.252 . S
O690 Mg680 2.251 . S
O690 Mg683 2.079 . S
O690 C692 1.273 . S
C691 O687 1.246 . S
C691 O688 1.259 . S
C692 O689 1.252 . S
C692 O690 1.273 . S
O693 Mg680 2.010 . S
O693 C685 1.249 . S
Mg694 O695 2.028 . S
Mg694 O701 1.986 . S
Mg694 O703 2.114 . S
Mg694 O704 2.251 . S
Mg694 O707 2.010 . S
O695 Mg694 2.028 . S
O695 C698 1.250 . S
O696 Mg697 2.028 . S
O696 C698 1.248 . S
Mg697 O696 2.028 . S
Mg697 O702 2.032 . S
Mg697 O704 2.079 . S
C698 O695 1.250 . S
C698 O696 1.248 . S
C699 O700 1.264 . S
C699 O707 1.249 . S
O700 C699 1.264 . S
O701 Mg694 1.986 . S
O701 C705 1.246 . S
O702 Mg697 2.032 . S
O702 C705 1.259 . S
O703 Mg694 2.114 . S
O703 C706 1.252 . S
O704 Mg694 2.251 . S
O704 Mg697 2.079 . S
O704 C706 1.273 . S
C705 O701 1.246 . S
C705 O702 1.259 . S
C706 O703 1.252 . S
C706 O704 1.273 . S
O707 Mg694 2.010 . S
O707 C699 1.249 . S
Mg708 O709 2.028 . S
Mg708 O715 1.986 . S
Mg708 O717 2.114 . S
Mg708 O718 2.251 . S
Mg708 O721 2.010 . S
O709 Mg708 2.028 . S
O709 C712 1.250 . S
O710 Mg711 2.028 . S
O710 C712 1.248 . S
Mg711 O710 2.028 . S
Mg711 O716 2.032 . S
Mg711 O718 2.079 . S
C712 O709 1.250 . S
C712 O710 1.248 . S
C713 O714 1.264 . S
C713 O721 1.249 . S
O714 C713 1.264 . S
O715 Mg708 1.986 . S
O715 C719 1.246 . S
O716 Mg711 2.032 . S
O716 C719 1.259 . S
O717 Mg708 2.114 . S
O717 C720 1.252 . S
O718 Mg708 2.251 . S
O718 Mg711 2.079 . S
O718 C720 1.273 . S
C719 O715 1.246 . S
C719 O716 1.259 . S
C720 O717 1.252 . S
C720 O718 1.273 . S
O721 Mg708 2.010 . S
O721 C713 1.249 . S
Mg722 O723 2.028 1_545 S
Mg722 O729 1.986 1_545 S
Mg722 O731 2.114 . S
Mg722 O732 2.251 . S
Mg722 O735 2.010 . S
O723 Mg722 2.028 1_565 S
O723 C726 1.250 . S
O724 Mg725 2.028 . S
O724 C726 1.248 . S
Mg725 O724 2.028 . S
Mg725 O730 2.032 . S
Mg725 O732 2.079 1_565 S
C726 O723 1.250 . S
C726 O724 1.248 . S
C727 O728 1.264 . S
C727 O735 1.249 . S
O728 C727 1.264 . S
O729 Mg722 1.986 1_565 S
O729 C733 1.246 . S
O730 Mg725 2.032 . S
O730 C733 1.259 . S
O731 Mg722 2.114 . S
O731 C734 1.252 . S
O732 Mg722 2.251 . S
O732 Mg725 2.079 1_545 S
O732 C734 1.273 . S
C733 O729 1.246 . S
C733 O730 1.259 . S
C734 O731 1.252 . S
C734 O732 1.273 . S
O735 Mg722 2.010 . S
O735 C727 1.249 . S
Mg736 O737 2.028 . S
Mg736 O743 1.986 . S
Mg736 O745 2.114 . S
Mg736 O746 2.251 . S
Mg736 O749 2.010 . S
O737 Mg736 2.028 . S
O737 C740 1.250 1_455 S
O738 Mg739 2.028 . S
O738 C740 1.248 . S
Mg739 O738 2.028 . S
Mg739 O744 2.032 . S
Mg739 O746 2.079 1_655 S
C740 O737 1.250 1_655 S
C740 O738 1.248 . S
C741 O742 1.264 . S
C741 O749 1.249 . S
O742 C741 1.264 . S
O743 Mg736 1.986 . S
O743 C747 1.246 . S
O744 Mg739 2.032 . S
O744 C747 1.259 1_655 S
O745 Mg736 2.114 . S
O745 C748 1.252 . S
O746 Mg736 2.251 . S
O746 Mg739 2.079 1_455 S
O746 C748 1.273 . S
C747 O743 1.246 . S
C747 O744 1.259 1_455 S
C748 O745 1.252 . S
C748 O746 1.273 . S
O749 Mg736 2.010 . S
O749 C741 1.249 . S
Mg750 O751 2.028 . S
Mg750 O757 1.986 . S
Mg750 O759 2.114 . S
Mg750 O760 2.251 . S
Mg750 O763 2.010 . S
O751 Mg750 2.028 . S
O751 C754 1.250 . S
O752 Mg753 2.028 . S
O752 C754 1.248 . S
Mg753 O752 2.028 . S
Mg753 O758 2.032 . S
Mg753 O760 2.079 . S
C754 O751 1.250 . S
C754 O752 1.248 . S
C755 O756 1.264 . S
C755 O763 1.249 . S
O756 C755 1.264 . S
O757 Mg750 1.986 . S
O757 C761 1.246 . S
O758 Mg753 2.032 . S
O758 C761 1.259 . S
O759 Mg750 2.114 . S
O759 C762 1.252 . S
O760 Mg750 2.251 . S
O760 Mg753 2.079 . S
O760 C762 1.273 . S
C761 O757 1.246 . S
C761 O758 1.259 . S
C762 O759 1.252 . S
C762 O760 1.273 . S
O763 Mg750 2.010 . S
O763 C755 1.249 . S
Mg764 O765 2.028 1_655 S
Mg764 O771 2.001 . S
Mg764 O773 2.114 . S
Mg764 O774 2.251 1_655 S
Mg764 O777 2.010 . S
O765 Mg764 2.028 1_455 S
O765 C768 1.250 . S
O766 Mg767 2.028 . S
O766 C768 1.248 . S
Mg767 O766 2.028 . S
Mg767 O772 2.032 . S
Mg767 O774 2.079 . S
C768 O765 1.250 . S
C768 O766 1.248 . S
C769 O770 1.264 . S
C769 O777 1.249 . S
O770 C769 1.264 . S
O771 Mg764 2.001 . S
O771 C775 1.207 1_655 S
O772 Mg767 2.032 . S
O772 C775 1.259 . S
O773 Mg764 2.114 . S
O773 C776 1.252 . S
O774 Mg764 2.251 1_455 S
O774 Mg767 2.079 . S
O774 C776 1.273 1_455 S
C775 O771 1.207 1_455 S
C775 O772 1.259 . S
C776 O773 1.252 . S
C776 O774 1.273 1_655 S
O777 Mg764 2.010 . S
O777 C769 1.249 . S
Mg778 O779 2.028 . S
Mg778 O785 1.986 . S
Mg778 O787 2.114 . S
Mg778 O788 2.251 . S
Mg778 O791 2.010 . S
O779 Mg778 2.028 . S
O779 C782 1.250 . S
O780 Mg781 2.028 . S
O780 C782 1.248 . S
Mg781 O780 2.028 . S
Mg781 O786 2.032 . S
Mg781 O788 2.079 . S
C782 O779 1.250 . S
C782 O780 1.248 . S
C783 O784 1.264 . S
C783 O791 1.249 . S
O784 C783 1.264 . S
O785 Mg778 1.986 . S
O785 C789 1.246 . S
O786 Mg781 2.032 . S
O786 C789 1.259 . S
O787 Mg778 2.114 . S
O787 C790 1.252 . S
O788 Mg778 2.251 . S
O788 Mg781 2.079 . S
O788 C790 1.273 . S
C789 O785 1.246 . S
C789 O786 1.259 . S
C790 O787 1.252 . S
C790 O788 1.273 . S
O791 Mg778 2.010 . S
O791 C783 1.249 . S
H792 C800 0.929 . S
H793 C802 0.930 . S
H794 C804 0.930 . S
H795 C807 0.929 . S
H796 C810 0.930 . S
H797 C812 0.960 . S
H798 C812 0.960 . S
H799 C812 0.960 . S
C800 H792 0.929 . S
C800 C801 1.377 . S
C800 C802 1.384 . S
C801 C800 1.377 . S
C801 C807 1.390 . S
C802 H793 0.930 . S
C802 C800 1.384 . S
C802 C803 1.372 . S
C803 C802 1.372 . S
C803 C804 1.400 . S
C803 C808 1.490 . S
C804 H794 0.930 . S
C804 C803 1.400 . S
C804 C807 1.386 . S
H805 C821 0.930 . S
H806 C822 0.931 . S
C807 H795 0.929 . S
C807 C801 1.390 . S
C807 C804 1.386 . S
C808 C803 1.490 . S
C808 C810 1.395 . S
C808 C811 1.403 . S
H809 C815 0.930 . S
C810 H796 0.930 . S
C810 C808 1.395 . S
C810 C813 1.403 . S
C811 C808 1.403 . S
C811 C812 1.524 . S
C811 C815 1.400 . S
C812 H797 0.960 . S
C812 H798 0.960 . S
C812 H799 0.960 . S
C812 C811 1.524 . S
C813 C810 1.403 . S
C813 C814 1.392 . S
C813 C817 1.495 . S
C814 C813 1.392 . S
C814 C815 1.385 . S
C814 C816 1.478 . S
C815 H809 0.930 . S
C815 C811 1.400 . S
C815 C814 1.385 . S
C816 C814 1.478 . S
C816 C818 1.381 . S
C816 C822 1.383 . S
C817 C813 1.495 . S
C817 H823 0.959 . S
C817 H824 0.961 . S
C817 H825 0.960 . S
C818 C816 1.381 . S
C818 C819 1.394 . S
C818 H826 0.930 . S
C819 C818 1.394 . S
C819 C820 1.383 . S
C819 H827 0.929 . S
C820 C819 1.383 . S
C820 C821 1.377 . S
C821 H805 0.930 . S
C821 C820 1.377 . S
C821 C822 1.379 . S
C822 H806 0.931 . S
C822 C816 1.383 . S
C822 C821 1.379 . S
H823 C817 0.959 . S
H824 C817 0.961 . S
H825 C817 0.960 . S
H826 C818 0.930 . S
H827 C819 0.929 . S
H828 C836 0.929 . S
H829 C838 0.930 . S
H830 C840 0.930 . S
H831 C843 0.929 . S
H832 C846 0.930 . S
H833 C848 0.960 . S
H834 C848 0.960 . S
H835 C848 0.960 . S
C836 H828 0.929 . S
C836 C837 1.377 . S
C836 C838 1.384 . S
C837 C836 1.377 . S
C837 C843 1.390 . S
C838 H829 0.930 . S
C838 C836 1.384 . S
C838 C839 1.372 . S
C839 C838 1.372 . S
C839 C840 1.400 . S
C839 C844 1.490 . S
C840 H830 0.930 . S
C840 C839 1.400 . S
C840 C843 1.386 . S
H841 C857 0.930 . S
H842 C858 0.931 . S
C843 H831 0.929 . S
C843 C837 1.390 . S
C843 C840 1.386 . S
C844 C839 1.490 . S
C844 C846 1.395 . S
C844 C847 1.403 . S
H845 C851 0.930 . S
C846 H832 0.930 . S
C846 C844 1.395 . S
C846 C849 1.403 . S
C847 C844 1.403 . S
C847 C848 1.524 . S
C847 C851 1.400 . S
C848 H833 0.960 . S
C848 H834 0.960 . S
C848 H835 0.960 . S
C848 C847 1.524 . S
C849 C846 1.403 . S
C849 C850 1.392 . S
C849 C853 1.495 . S
C850 C849 1.392 . S
C850 C851 1.385 . S
C850 C852 1.478 . S
C851 H845 0.930 . S
C851 C847 1.400 . S
C851 C850 1.385 . S
C852 C850 1.478 . S
C852 C854 1.381 . S
C852 C858 1.383 . S
C853 C849 1.495 . S
C853 H859 0.959 . S
C853 H860 0.961 . S
C853 H861 0.960 . S
C854 C852 1.381 . S
C854 C855 1.394 . S
C854 H862 0.930 . S
C855 C854 1.394 . S
C855 C856 1.383 . S
C855 H863 0.929 . S
C856 C855 1.383 . S
C856 C857 1.377 . S
C857 H841 0.930 . S
C857 C856 1.377 . S
C857 C858 1.379 . S
C858 H842 0.931 . S
C858 C852 1.383 . S
C858 C857 1.379 . S
H859 C853 0.959 . S
H860 C853 0.961 . S
H861 C853 0.960 . S
H862 C854 0.930 . S
H863 C855 0.929 . S
H864 C872 0.929 . S
H865 C874 0.930 . S
H866 C876 0.930 . S
H867 C879 0.929 . S
H868 C882 0.930 . S
H869 C884 0.960 . S
H870 C884 0.960 . S
H871 C884 0.960 . S
C872 H864 0.929 . S
C872 C873 1.377 . S
C872 C874 1.384 . S
C873 C872 1.377 . S
C873 C879 1.390 . S
C874 H865 0.930 . S
C874 C872 1.384 . S
C874 C875 1.372 . S
C875 C874 1.372 . S
C875 C876 1.400 . S
C875 C880 1.490 . S
C876 H866 0.930 . S
C876 C875 1.400 . S
C876 C879 1.386 . S
H877 C893 0.930 . S
H878 C894 0.931 . S
C879 H867 0.929 . S
C879 C873 1.390 . S
C879 C876 1.386 . S
C880 C875 1.490 . S
C880 C882 1.395 . S
C880 C883 1.403 . S
H881 C887 0.930 . S
C882 H868 0.930 . S
C882 C880 1.395 . S
C882 C885 1.403 . S
C883 C880 1.403 . S
C883 C884 1.524 . S
C883 C887 1.400 . S
C884 H869 0.960 . S
C884 H870 0.960 . S
C884 H871 0.960 . S
C884 C883 1.524 . S
C885 C882 1.403 . S
C885 C886 1.392 . S
C885 C889 1.495 . S
C886 C885 1.392 . S
C886 C887 1.385 . S
C886 C888 1.478 . S
C887 H881 0.930 . S
C887 C883 1.400 . S
C887 C886 1.385 . S
C888 C886 1.478 . S
C888 C890 1.381 . S
C888 C894 1.383 . S
C889 C885 1.495 . S
C889 H895 0.959 . S
C889 H896 0.961 . S
C889 H897 0.960 . S
C890 C888 1.381 . S
C890 C891 1.394 . S
C890 H898 0.930 . S
C891 C890 1.394 . S
C891 C892 1.383 . S
C891 H899 0.929 . S
C892 C891 1.383 . S
C892 C893 1.377 . S
C893 H877 0.930 . S
C893 C892 1.377 . S
C893 C894 1.379 . S
C894 H878 0.931 . S
C894 C888 1.383 . S
C894 C893 1.379 . S
H895 C889 0.959 . S
H896 C889 0.961 . S
H897 C889 0.960 . S
H898 C890 0.930 . S
H899 C891 0.929 . S
H900 C908 0.929 . S
H901 C910 0.930 . S
H902 C912 0.930 . S
H903 C915 0.929 . S
H904 C918 0.930 . S
H905 C920 0.960 . S
H906 C920 0.960 . S
H907 C920 0.960 . S
C908 H900 0.929 . S
C908 C909 1.377 1_545 S
C908 C910 1.384 . S
C909 C908 1.377 1_565 S
C909 C915 1.390 . S
C910 H901 0.930 . S
C910 C908 1.384 . S
C910 C911 1.372 1_545 S
C911 C910 1.372 1_565 S
C911 C912 1.400 . S
C911 C916 1.490 . S
C912 H902 0.930 . S
C912 C911 1.400 . S
C912 C915 1.386 . S
H913 C929 0.930 . S
H914 C930 0.931 . S
C915 H903 0.929 . S
C915 C909 1.390 . S
C915 C912 1.386 . S
C916 C911 1.490 . S
C916 C918 1.395 1_565 S
C916 C919 1.403 . S
H917 C923 0.930 . S
C918 H904 0.930 . S
C918 C916 1.395 1_545 S
C918 C921 1.403 . S
C919 C916 1.403 . S
C919 C920 1.524 . S
C919 C923 1.400 . S
C920 H905 0.960 . S
C920 H906 0.960 . S
C920 H907 0.960 . S
C920 C919 1.524 . S
C921 C918 1.403 . S
C921 C922 1.392 . S
C921 C925 1.495 . S
C922 C921 1.392 . S
C922 C923 1.385 1_545 S
C922 C924 1.478 . S
C923 H917 0.930 . S
C923 C919 1.400 . S
C923 C922 1.385 1_565 S
C924 C922 1.478 . S
C924 C926 1.381 . S
C924 C930 1.383 1_545 S
C925 C921 1.495 . S
C925 H931 0.959 . S
C925 H932 0.961 . S
C925 H933 0.960 . S
C926 C924 1.381 . S
C926 C927 1.394 . S
C926 H934 0.930 . S
C927 C926 1.394 . S
C927 C928 1.383 . S
C927 H935 0.929 . S
C928 C927 1.383 . S
C928 C929 1.377 1_545 S
C929 H913 0.930 . S
C929 C928 1.377 1_565 S
C929 C930 1.379 . S
C930 H914 0.931 . S
C930 C924 1.383 1_565 S
C930 C929 1.379 . S
H931 C925 0.959 . S
H932 C925 0.961 . S
H933 C925 0.960 . S
H934 C926 0.930 . S
H935 C927 0.929 . S
H936 C944 0.929 . S
H937 C946 0.930 . S
H938 C948 0.930 . S
H939 C951 0.929 . S
H940 C954 0.930 . S
H941 C956 0.960 . S
H942 C956 0.960 . S
H943 C956 0.960 . S
C944 H936 0.929 . S
C944 C945 1.377 . S
C944 C946 1.384 . S
C945 C944 1.377 . S
C945 C951 1.390 . S
C946 H937 0.930 . S
C946 C944 1.384 . S
C946 C947 1.372 . S
C947 C946 1.372 . S
C947 C948 1.400 . S
C947 C952 1.490 . S
C948 H938 0.930 . S
C948 C947 1.400 . S
C948 C951 1.386 . S
H949 C965 0.930 . S
H950 C966 0.931 . S
C951 H939 0.929 . S
C951 C945 1.390 . S
C951 C948 1.386 . S
C952 C947 1.490 . S
C952 C954 1.395 . S
C952 C955 1.403 . S
H953 C959 0.930 . S
C954 H940 0.930 . S
C954 C952 1.395 . S
C954 C957 1.403 . S
C955 C952 1.403 . S
C955 C956 1.524 . S
C955 C959 1.400 . S
C956 H941 0.960 . S
C956 H942 0.960 . S
C956 H943 0.960 . S
C956 C955 1.524 . S
C957 C954 1.403 . S
C957 C958 1.392 . S
C957 C961 1.495 . S
C958 C957 1.392 . S
C958 C959 1.385 . S
C958 C960 1.478 . S
C959 H953 0.930 . S
C959 C955 1.400 . S
C959 C958 1.385 . S
C960 C958 1.478 . S
C960 C962 1.381 . S
C960 C966 1.383 . S
C961 C957 1.495 . S
C961 H967 0.959 . S
C961 H968 0.961 . S
C961 H969 0.960 . S
C962 C960 1.381 . S
C962 C963 1.394 . S
C962 H970 0.930 . S
C963 C962 1.394 . S
C963 C964 1.383 . S
C963 H971 0.929 . S
C964 C963 1.383 . S
C964 C965 1.377 . S
C965 H949 0.930 . S
C965 C964 1.377 . S
C965 C966 1.379 . S
C966 H950 0.931 . S
C966 C960 1.383 . S
C966 C965 1.379 . S
H967 C961 0.959 . S
H968 C961 0.961 . S
H969 C961 0.960 . S
H970 C962 0.930 . S
H971 C963 0.929 . S
H972 C980 0.929 . S
H973 C982 0.930 . S
H974 C984 0.930 . S
H975 C987 0.929 . S
H976 C990 0.930 . S
H977 C992 0.960 . S
H978 C992 0.960 . S
H979 C992 0.960 . S
C980 H972 0.929 . S
C980 C981 1.377 . S
C980 C982 1.384 . S
C981 C980 1.377 . S
C981 C987 1.390 . S
C982 H973 0.930 . S
C982 C980 1.384 . S
C982 C983 1.372 . S
C983 C982 1.372 . S
C983 C984 1.400 . S
C983 C988 1.490 . S
C984 H974 0.930 . S
C984 C983 1.400 . S
C984 C987 1.386 . S
H985 C1001 0.930 . S
H986 C1002 0.931 . S
C987 H975 0.929 . S
C987 C981 1.390 . S
C987 C984 1.386 . S
C988 C983 1.490 . S
C988 C990 1.395 . S
C988 C991 1.403 . S
H989 C995 0.930 . S
C990 H976 0.930 . S
C990 C988 1.395 . S
C990 C993 1.403 . S
C991 C988 1.403 . S
C991 C992 1.524 . S
C991 C995 1.400 . S
C992 H977 0.960 . S
C992 H978 0.960 . S
C992 H979 0.960 . S
C992 C991 1.524 . S
C993 C990 1.403 . S
C993 C994 1.392 . S
C993 C997 1.495 . S
C994 C993 1.392 . S
C994 C995 1.385 . S
C994 C996 1.478 . S
C995 H989 0.930 . S
C995 C991 1.400 . S
C995 C994 1.385 . S
C996 C994 1.478 . S
C996 C998 1.381 . S
C996 C1002 1.383 . S
C997 C993 1.495 . S
C997 H1003 0.959 . S
C997 H1004 0.961 . S
C997 H1005 0.960 . S
C998 C996 1.381 . S
C998 C999 1.394 . S
C998 H1006 0.930 . S
C999 C998 1.394 . S
C999 C1000 1.383 . S
C999 H1007 0.929 . S
C1000 C999 1.383 . S
C1000 C1001 1.377 . S
C1001 H985 0.930 . S
C1001 C1000 1.377 . S
C1001 C1002 1.379 . S
C1002 H986 0.931 . S
C1002 C996 1.383 . S
C1002 C1001 1.379 . S
H1003 C997 0.959 . S
H1004 C997 0.961 . S
H1005 C997 0.960 . S
H1006 C998 0.930 . S
H1007 C999 0.929 . S
H1008 C1016 0.929 . S
H1009 C1018 0.930 . S
H1010 C1020 0.930 . S
H1011 C1023 0.929 . S
H1012 C1026 0.930 . S
H1013 C1028 0.960 . S
H1014 C1028 0.960 . S
H1015 C1028 0.960 . S
C1016 H1008 0.929 . S
C1016 C1017 1.377 . S
C1016 C1018 1.384 . S
C1017 C1016 1.377 . S
C1017 C1023 1.390 . S
C1018 H1009 0.930 . S
C1018 C1016 1.384 . S
C1018 C1019 1.372 . S
C1019 C1018 1.372 . S
C1019 C1020 1.400 . S
C1019 C1024 1.490 . S
C1020 H1010 0.930 . S
C1020 C1019 1.400 . S
C1020 C1023 1.386 . S
H1021 C1037 0.930 . S
H1022 C1038 0.931 . S
C1023 H1011 0.929 . S
C1023 C1017 1.390 . S
C1023 C1020 1.386 . S
C1024 C1019 1.490 . S
C1024 C1026 1.395 . S
C1024 C1027 1.403 . S
H1025 C1031 0.930 . S
C1026 H1012 0.930 . S
C1026 C1024 1.395 . S
C1026 C1029 1.403 . S
C1027 C1024 1.403 . S
C1027 C1028 1.524 . S
C1027 C1031 1.400 . S
C1028 H1013 0.960 . S
C1028 H1014 0.960 . S
C1028 H1015 0.960 . S
C1028 C1027 1.524 . S
C1029 C1026 1.403 . S
C1029 C1030 1.392 . S
C1029 C1033 1.495 . S
C1030 C1029 1.392 . S
C1030 C1031 1.385 . S
C1030 C1032 1.478 . S
C1031 H1025 0.930 . S
C1031 C1027 1.400 . S
C1031 C1030 1.385 . S
C1032 C1030 1.478 . S
C1032 C1034 1.381 . S
C1032 C1038 1.383 . S
C1033 C1029 1.495 . S
C1033 H1039 0.959 . S
C1033 H1040 0.961 . S
C1033 H1041 0.960 . S
C1034 C1032 1.381 . S
C1034 C1035 1.394 . S
C1034 H1042 0.930 . S
C1035 C1034 1.394 . S
C1035 C1036 1.383 . S
C1035 H1043 0.929 . S
C1036 C1035 1.383 . S
C1036 C1037 1.377 . S
C1037 H1021 0.930 . S
C1037 C1036 1.377 . S
C1037 C1038 1.379 . S
C1038 H1022 0.931 . S
C1038 C1032 1.383 . S
C1038 C1037 1.379 . S
H1039 C1033 0.959 . S
H1040 C1033 0.961 . S
H1041 C1033 0.960 . S
H1042 C1034 0.930 . S
H1043 C1035 0.929 . S
H1044 C1052 0.929 . S
H1045 C1054 0.930 . S
H1046 C1056 0.930 1_545 S
H1047 C1059 0.936 . S
H1048 C1062 0.930 . S
H1049 C1064 0.960 . S
H1050 C1064 0.960 . S
H1051 C1064 0.960 . S
C1052 H1044 0.929 . S
C1052 C1053 1.377 . S
C1052 C1054 1.384 . S
C1053 C1052 1.377 . S
C1053 C1059 1.390 . S
C1054 H1045 0.930 . S
C1054 C1052 1.384 . S
C1054 C1055 1.372 . S
C1055 C1054 1.372 . S
C1055 C1056 1.400 . S
C1055 C1060 1.490 . S
C1056 H1046 0.930 1_565 S
C1056 C1055 1.400 . S
C1056 C1059 1.386 . S
H1057 C1073 0.930 . S
H1058 C1074 0.931 . S
C1059 H1047 0.936 . S
C1059 C1053 1.390 . S
C1059 C1056 1.386 . S
C1060 C1055 1.490 . S
C1060 C1062 1.395 . S
C1060 C1063 1.403 . S
H1061 C1067 0.930 . S
C1062 H1048 0.930 . S
C1062 C1060 1.395 . S
C1062 C1065 1.403 . S
C1063 C1060 1.403 . S
C1063 C1064 1.524 . S
C1063 C1067 1.400 . S
C1064 H1049 0.960 . S
C1064 H1050 0.960 . S
C1064 H1051 0.960 . S
C1064 C1063 1.524 . S
C1065 C1062 1.403 . S
C1065 C1066 1.392 . S
C1065 C1069 1.495 . S
C1066 C1065 1.392 . S
C1066 C1067 1.385 . S
C1066 C1068 1.478 . S
C1067 H1061 0.930 . S
C1067 C1063 1.400 . S
C1067 C1066 1.385 . S
C1068 C1066 1.478 . S
C1068 C1070 1.381 . S
C1068 C1074 1.383 1_565 S
C1069 C1065 1.495 . S
C1069 H1075 0.959 . S
C1069 H1076 0.961 . S
C1069 H1077 0.960 . S
C1070 C1068 1.381 . S
C1070 C1071 1.394 . S
C1070 H1078 0.930 . S
C1071 C1070 1.394 . S
C1071 C1072 1.383 . S
C1071 H1079 0.929 . S
C1072 C1071 1.383 . S
C1072 C1073 1.377 1_565 S
C1073 H1057 0.930 . S
C1073 C1072 1.377 1_545 S
C1073 C1074 1.379 . S
C1074 H1058 0.931 . S
C1074 C1068 1.383 1_545 S
C1074 C1073 1.379 . S
H1075 C1069 0.959 . S
H1076 C1069 0.961 . S
H1077 C1069 0.960 . S
H1078 C1070 0.930 . S
H1079 C1071 0.929 . S
H1080 C1088 0.929 . S
H1081 C1090 0.930 . S
H1082 C1092 0.930 . S
H1083 C1095 0.929 . S
H1084 C1098 0.930 . S
H1085 C1100 0.960 . S
H1086 C1100 0.960 . S
H1087 C1100 0.960 . S
C1088 H1080 0.929 . S
C1088 C1089 1.377 . S
C1088 C1090 1.384 . S
C1089 C1088 1.377 . S
C1089 C1095 1.390 . S
C1090 H1081 0.930 . S
C1090 C1088 1.384 . S
C1090 C1091 1.372 . S
C1091 C1090 1.372 . S
C1091 C1092 1.400 . S
C1091 C1096 1.490 . S
C1092 H1082 0.930 . S
C1092 C1091 1.400 . S
C1092 C1095 1.386 . S
H1093 C1109 0.930 . S
H1094 C1110 0.931 . S
C1095 H1083 0.929 . S
C1095 C1089 1.390 . S
C1095 C1092 1.386 . S
C1096 C1091 1.490 . S
C1096 C1098 1.395 . S
C1096 C1099 1.403 . S
H1097 C1103 0.930 . S
C1098 H1084 0.930 . S
C1098 C1096 1.395 . S
C1098 C1101 1.403 . S
C1099 C1096 1.403 . S
C1099 C1100 1.524 . S
C1099 C1103 1.400 . S
C1100 H1085 0.960 . S
C1100 H1086 0.960 . S
C1100 H1087 0.960 . S
C1100 C1099 1.524 . S
C1101 C1098 1.403 . S
C1101 C1102 1.392 . S
C1101 C1105 1.495 . S
C1102 C1101 1.392 . S
C1102 C1103 1.385 . S
C1102 C1104 1.478 . S
C1103 H1097 0.930 . S
C1103 C1099 1.400 . S
C1103 C1102 1.385 . S
C1104 C1102 1.478 . S
C1104 C1106 1.381 . S
C1104 C1110 1.383 . S
C1105 C1101 1.495 . S
C1105 H1111 0.959 . S
C1105 H1112 0.961 . S
C1105 H1113 0.960 . S
C1106 C1104 1.381 . S
C1106 C1107 1.394 . S
C1106 H1114 0.930 . S
C1107 C1106 1.394 . S
C1107 C1108 1.383 . S
C1107 H1115 0.929 . S
C1108 C1107 1.383 . S
C1108 C1109 1.377 . S
C1109 H1093 0.930 . S
C1109 C1108 1.377 . S
C1109 C1110 1.379 . S
C1110 H1094 0.931 . S
C1110 C1104 1.383 . S
C1110 C1109 1.379 . S
H1111 C1105 0.959 . S
H1112 C1105 0.961 . S
H1113 C1105 0.960 . S
H1114 C1106 0.930 . S
H1115 C1107 0.929 . S
H1116 C1124 0.929 . S
H1117 C1126 0.930 . S
H1118 C1128 0.930 . S
H1119 C1131 0.929 . S
H1120 C1134 0.930 . S
H1121 C1136 0.960 . S
H1122 C1136 0.960 . S
H1123 C1136 0.960 . S
C1124 H1116 0.929 . S
C1124 C1125 1.377 . S
C1124 C1126 1.384 . S
C1125 C1124 1.377 . S
C1125 C1131 1.390 . S
C1126 H1117 0.930 . S
C1126 C1124 1.384 . S
C1126 C1127 1.372 . S
C1127 C1126 1.372 . S
C1127 C1128 1.400 . S
C1127 C1132 1.490 . S
C1128 H1118 0.930 . S
C1128 C1127 1.400 . S
C1128 C1131 1.386 . S
H1129 C1145 0.930 . S
H1130 C1146 0.931 . S
C1131 H1119 0.929 . S
C1131 C1125 1.390 . S
C1131 C1128 1.386 . S
C1132 C1127 1.490 . S
C1132 C1134 1.395 . S
C1132 C1135 1.403 . S
H1133 C1139 0.930 . S
C1134 H1120 0.930 . S
C1134 C1132 1.395 . S
C1134 C1137 1.403 . S
C1135 C1132 1.403 . S
C1135 C1136 1.524 . S
C1135 C1139 1.400 . S
C1136 H1121 0.960 . S
C1136 H1122 0.960 . S
C1136 H1123 0.960 . S
C1136 C1135 1.524 . S
C1137 C1134 1.403 . S
C1137 C1138 1.392 . S
C1137 C1141 1.495 . S
C1138 C1137 1.392 . S
C1138 C1139 1.385 . S
C1138 C1140 1.478 . S
C1139 H1133 0.930 . S
C1139 C1135 1.400 . S
C1139 C1138 1.385 . S
C1140 C1138 1.478 . S
C1140 C1142 1.381 . S
C1140 C1146 1.383 . S
C1141 C1137 1.495 . S
C1141 H1147 0.959 . S
C1141 H1148 0.961 . S
C1141 H1149 0.960 . S
C1142 C1140 1.381 . S
C1142 C1143 1.394 . S
C1142 H1150 0.930 . S
C1143 C1142 1.394 . S
C1143 C1144 1.383 . S
C1143 H1151 0.929 . S
C1144 C1143 1.383 . S
C1144 C1145 1.377 . S
C1145 H1129 0.930 . S
C1145 C1144 1.377 . S
C1145 C1146 1.379 . S
C1146 H1130 0.931 . S
C1146 C1140 1.383 . S
C1146 C1145 1.379 . S
H1147 C1141 0.959 . S
H1148 C1141 0.961 . S
H1149 C1141 0.960 . S
H1150 C1142 0.930 . S
H1151 C1143 0.929 . S
H1152 C1160 0.929 . S
H1153 C1162 0.930 . S
H1154 C1164 0.930 . S
H1155 C1167 0.929 . S
H1156 C1170 0.930 . S
H1157 C1172 0.960 . S
H1158 C1172 0.960 . S
H1159 C1172 0.960 . S
C1160 H1152 0.929 . S
C1160 C1161 1.377 . S
C1160 C1162 1.384 . S
C1161 C1160 1.377 . S
C1161 C1167 1.390 . S
C1162 H1153 0.930 . S
C1162 C1160 1.384 . S
C1162 C1163 1.372 . S
C1163 C1162 1.372 . S
C1163 C1164 1.400 . S
C1163 C1168 1.490 . S
C1164 H1154 0.930 . S
C1164 C1163 1.400 . S
C1164 C1167 1.386 . S
H1165 C1181 0.930 . S
H1166 C1182 0.931 . S
C1167 H1155 0.929 . S
C1167 C1161 1.390 . S
C1167 C1164 1.386 . S
C1168 C1163 1.490 . S
C1168 C1170 1.395 . S
C1168 C1171 1.403 . S
H1169 C1175 0.930 . S
C1170 H1156 0.930 . S
C1170 C1168 1.395 . S
C1170 C1173 1.403 . S
C1171 C1168 1.403 . S
C1171 C1172 1.524 . S
C1171 C1175 1.400 . S
C1172 H1157 0.960 . S
C1172 H1158 0.960 . S
C1172 H1159 0.960 . S
C1172 C1171 1.524 . S
C1173 C1170 1.403 . S
C1173 C1174 1.392 . S
C1173 C1177 1.495 . S
C1174 C1173 1.392 . S
C1174 C1175 1.385 . S
C1174 C1176 1.478 . S
C1175 H1169 0.930 . S
C1175 C1171 1.400 . S
C1175 C1174 1.385 . S
C1176 C1174 1.478 . S
C1176 C1178 1.381 . S
C1176 C1182 1.383 . S
C1177 C1173 1.495 . S
C1177 H1183 0.959 . S
C1177 H1184 0.961 . S
C1177 H1185 0.960 . S
C1178 C1176 1.381 . S
C1178 C1179 1.394 . S
C1178 H1186 0.930 . S
C1179 C1178 1.394 . S
C1179 C1180 1.383 . S
C1179 H1187 0.929 . S
C1180 C1179 1.383 . S
C1180 C1181 1.377 . S
C1181 H1165 0.930 . S
C1181 C1180 1.377 . S
C1181 C1182 1.379 . S
C1182 H1166 0.931 . S
C1182 C1176 1.383 . S
C1182 C1181 1.379 . S
H1183 C1177 0.959 . S
H1184 C1177 0.961 . S
H1185 C1177 0.960 . S
H1186 C1178 0.930 . S
H1187 C1179 0.929 . S
H1188 C1196 0.929 . S
H1189 C1198 0.930 . S
H1190 C1200 0.930 . S
H1191 C1203 0.929 . S
H1192 C1206 0.930 . S
H1193 C1208 0.960 . S
H1194 C1208 0.960 . S
H1195 C1208 0.960 . S
C1196 H1188 0.929 . S
C1196 C1197 1.377 . S
C1196 C1198 1.384 . S
C1197 C1196 1.377 . S
C1197 C1203 1.390 . S
C1198 H1189 0.930 . S
C1198 C1196 1.384 . S
C1198 C1199 1.372 . S
C1199 C1198 1.372 . S
C1199 C1200 1.400 . S
C1199 C1204 1.490 . S
C1200 H1190 0.930 . S
C1200 C1199 1.400 . S
C1200 C1203 1.386 . S
H1201 C1217 0.930 . S
H1202 C1218 0.931 . S
C1203 H1191 0.929 . S
C1203 C1197 1.390 . S
C1203 C1200 1.386 . S
C1204 C1199 1.490 . S
C1204 C1206 1.395 . S
C1204 C1207 1.403 . S
H1205 C1211 0.930 . S
C1206 H1192 0.930 . S
C1206 C1204 1.395 . S
C1206 C1209 1.403 . S
C1207 C1204 1.403 . S
C1207 C1208 1.524 . S
C1207 C1211 1.400 . S
C1208 H1193 0.960 . S
C1208 H1194 0.960 . S
C1208 H1195 0.960 . S
C1208 C1207 1.524 . S
C1209 C1206 1.403 . S
C1209 C1210 1.392 . S
C1209 C1213 1.495 . S
C1210 C1209 1.392 . S
C1210 C1211 1.385 . S
C1210 C1212 1.478 . S
C1211 H1205 0.930 . S
C1211 C1207 1.400 . S
C1211 C1210 1.385 . S
C1212 C1210 1.478 . S
C1212 C1214 1.381 . S
C1212 C1218 1.383 . S
C1213 C1209 1.495 . S
C1213 H1219 0.959 . S
C1213 H1220 0.961 . S
C1213 H1221 0.960 . S
C1214 C1212 1.381 . S
C1214 C1215 1.394 . S
C1214 H1222 0.930 . S
C1215 C1214 1.394 . S
C1215 C1216 1.383 . S
C1215 H1223 0.929 . S
C1216 C1215 1.383 . S
C1216 C1217 1.377 . S
C1217 H1201 0.930 . S
C1217 C1216 1.377 . S
C1217 C1218 1.379 . S
C1218 H1202 0.931 . S
C1218 C1212 1.383 . S
C1218 C1217 1.379 . S
H1219 C1213 0.959 . S
H1220 C1213 0.961 . S
H1221 C1213 0.960 . S
H1222 C1214 0.930 . S
H1223 C1215 0.929 . S
H1224 C1232 0.929 . S
H1225 C1234 0.930 . S
H1226 C1236 0.930 . S
H1227 C1239 0.929 . S
H1228 C1242 0.930 . S
H1229 C1244 0.960 . S
H1230 C1244 0.960 . S
H1231 C1244 0.960 . S
C1232 H1224 0.929 . S
C1232 C1233 1.377 . S
C1232 C1234 1.384 . S
C1233 C1232 1.377 . S
C1233 C1239 1.390 . S
C1234 H1225 0.930 . S
C1234 C1232 1.384 . S
C1234 C1235 1.372 . S
C1235 C1234 1.372 . S
C1235 C1236 1.400 . S
C1235 C1240 1.490 . S
C1236 H1226 0.930 . S
C1236 C1235 1.400 . S
C1236 C1239 1.386 . S
H1237 C1253 0.930 . S
H1238 C1254 0.931 . S
C1239 H1227 0.929 . S
C1239 C1233 1.390 . S
C1239 C1236 1.386 . S
C1240 C1235 1.490 . S
C1240 C1242 1.395 . S
C1240 C1243 1.403 . S
H1241 C1247 0.930 . S
C1242 H1228 0.930 . S
C1242 C1240 1.395 . S
C1242 C1245 1.403 . S
C1243 C1240 1.403 . S
C1243 C1244 1.524 . S
C1243 C1247 1.400 . S
C1244 H1229 0.960 . S
C1244 H1230 0.960 . S
C1244 H1231 0.960 . S
C1244 C1243 1.524 . S
C1245 C1242 1.403 . S
C1245 C1246 1.392 . S
C1245 C1249 1.495 . S
C1246 C1245 1.392 . S
C1246 C1247 1.385 . S
C1246 C1248 1.478 . S
C1247 H1241 0.930 . S
C1247 C1243 1.400 . S
C1247 C1246 1.385 . S
C1248 C1246 1.478 . S
C1248 C1250 1.381 . S
C1248 C1254 1.383 . S
C1249 C1245 1.495 . S
C1249 H1255 0.959 . S
C1249 H1256 0.961 . S
C1249 H1257 0.960 . S
C1250 C1248 1.381 . S
C1250 C1251 1.394 . S
C1250 H1258 0.930 . S
C1251 C1250 1.394 . S
C1251 C1252 1.383 . S
C1251 H1259 0.929 . S
C1252 C1251 1.383 . S
C1252 C1253 1.377 . S
C1253 H1237 0.930 . S
C1253 C1252 1.377 . S
C1253 C1254 1.379 . S
C1254 H1238 0.931 . S
C1254 C1248 1.383 . S
C1254 C1253 1.379 . S
H1255 C1249 0.959 . S
H1256 C1249 0.961 . S
H1257 C1249 0.960 . S
H1258 C1250 0.930 . S
H1259 C1251 0.929 . S
H1260 C1268 0.929 . S
H1261 C1270 0.930 . S
H1262 C1272 0.930 . S
H1263 C1275 0.929 . S
H1264 C1278 0.930 . S
H1265 C1280 0.960 . S
H1266 C1280 0.960 . S
H1267 C1280 0.960 . S
C1268 H1260 0.929 . S
C1268 C1269 1.377 . S
C1268 C1270 1.384 . S
C1269 C1268 1.377 . S
C1269 C1275 1.390 . S
C1270 H1261 0.930 . S
C1270 C1268 1.384 . S
C1270 C1271 1.372 . S
C1271 C1270 1.372 . S
C1271 C1272 1.400 . S
C1271 C1276 1.490 . S
C1272 H1262 0.930 . S
C1272 C1271 1.400 . S
C1272 C1275 1.386 . S
H1273 C1289 0.930 . S
H1274 C1290 0.931 . S
C1275 H1263 0.929 . S
C1275 C1269 1.390 . S
C1275 C1272 1.386 . S
C1276 C1271 1.490 . S
C1276 C1278 1.395 . S
C1276 C1279 1.403 . S
H1277 C1283 0.930 . S
C1278 H1264 0.930 . S
C1278 C1276 1.395 . S
C1278 C1281 1.403 . S
C1279 C1276 1.403 . S
C1279 C1280 1.524 . S
C1279 C1283 1.400 . S
C1280 H1265 0.960 . S
C1280 H1266 0.960 . S
C1280 H1267 0.960 . S
C1280 C1279 1.524 . S
C1281 C1278 1.403 . S
C1281 C1282 1.392 . S
C1281 C1285 1.495 1_455 S
C1282 C1281 1.392 . S
C1282 C1283 1.385 . S
C1282 C1284 1.478 . S
C1283 H1277 0.930 . S
C1283 C1279 1.400 . S
C1283 C1282 1.385 . S
C1284 C1282 1.478 . S
C1284 C1286 1.381 . S
C1284 C1290 1.383 . S
C1285 C1281 1.495 1_655 S
C1285 H1291 0.959 . S
C1285 H1292 0.961 . S
C1285 H1293 0.960 . S
C1286 C1284 1.381 . S
C1286 C1287 1.394 . S
C1286 H1294 0.930 . S
C1287 C1286 1.394 . S
C1287 C1288 1.383 . S
C1287 H1295 0.929 . S
C1288 C1287 1.383 . S
C1288 C1289 1.377 . S
C1289 H1273 0.930 . S
C1289 C1288 1.377 . S
C1289 C1290 1.379 . S
C1290 H1274 0.931 . S
C1290 C1284 1.383 . S
C1290 C1289 1.379 . S
H1291 C1285 0.959 . S
H1292 C1285 0.961 . S
H1293 C1285 0.960 . S
H1294 C1286 0.930 . S
H1295 C1287 0.929 . S
H1296 C1304 0.929 . S
H1297 C1306 0.930 . S
H1298 C1308 0.930 . S
H1299 C1311 0.929 . S
H1300 C1314 0.930 . S
H1301 C1316 0.960 . S
H1302 C1316 0.960 . S
H1303 C1316 0.960 . S
C1304 H1296 0.929 . S
C1304 C1305 1.377 . S
C1304 C1306 1.384 . S
C1305 C1304 1.377 . S
C1305 C1311 1.390 . S
C1306 H1297 0.930 . S
C1306 C1304 1.384 . S
C1306 C1307 1.372 . S
C1307 C1306 1.372 . S
C1307 C1308 1.400 . S
C1307 C1312 1.490 . S
C1308 H1298 0.930 . S
C1308 C1307 1.400 . S
C1308 C1311 1.386 . S
H1309 C1325 0.930 . S
H1310 C1326 0.931 . S
C1311 H1299 0.929 . S
C1311 C1305 1.390 . S
C1311 C1308 1.386 . S
C1312 C1307 1.490 . S
C1312 C1314 1.395 . S
C1312 C1315 1.403 . S
H1313 C1319 0.930 . S
C1314 H1300 0.930 . S
C1314 C1312 1.395 . S
C1314 C1317 1.403 . S
C1315 C1312 1.403 . S
C1315 C1316 1.524 . S
C1315 C1319 1.400 . S
C1316 H1301 0.960 . S
C1316 H1302 0.960 . S
C1316 H1303 0.960 . S
C1316 C1315 1.524 . S
C1317 C1314 1.403 . S
C1317 C1318 1.392 . S
C1317 C1321 1.495 . S
C1318 C1317 1.392 . S
C1318 C1319 1.385 . S
C1318 C1320 1.478 . S
C1319 H1313 0.930 . S
C1319 C1315 1.400 . S
C1319 C1318 1.385 . S
C1320 C1318 1.478 . S
C1320 C1322 1.381 . S
C1320 C1326 1.383 . S
C1321 C1317 1.495 . S
C1321 H1327 0.959 . S
C1321 H1328 0.961 . S
C1321 H1329 0.960 . S
C1322 C1320 1.381 . S
C1322 C1323 1.394 . S
C1322 H1330 0.930 . S
C1323 C1322 1.394 . S
C1323 C1324 1.383 . S
C1323 H1331 0.929 . S
C1324 C1323 1.383 . S
C1324 C1325 1.377 . S
C1325 H1309 0.930 . S
C1325 C1324 1.377 . S
C1325 C1326 1.379 . S
C1326 H1310 0.931 . S
C1326 C1320 1.383 . S
C1326 C1325 1.379 . S
H1327 C1321 0.959 . S
H1328 C1321 0.961 . S
H1329 C1321 0.960 . S
H1330 C1322 0.930 . S
H1331 C1323 0.929 . S
H1332 C1340 0.929 . S
H1333 C1342 0.930 . S
H1334 C1344 0.930 1_455 S
H1335 C1347 0.929 1_455 S
H1336 C1350 0.930 . S
H1337 C1352 0.960 . S
H1338 C1352 0.960 . S
H1339 C1352 0.960 . S
C1340 H1332 0.929 . S
C1340 C1341 1.377 . S
C1340 C1342 1.384 . S
C1341 C1340 1.377 . S
C1341 C1347 1.390 . S
C1342 H1333 0.930 . S
C1342 C1340 1.384 . S
C1342 C1343 1.372 . S
C1343 C1342 1.372 . S
C1343 C1344 1.400 . S
C1343 C1348 1.490 . S
C1344 H1334 0.930 1_655 S
C1344 C1343 1.400 . S
C1344 C1347 1.386 . S
H1345 C1361 0.930 . S
H1346 C1362 0.931 . S
C1347 H1335 0.929 1_655 S
C1347 C1341 1.390 . S
C1347 C1344 1.386 . S
C1348 C1343 1.490 . S
C1348 C1350 1.395 . S
C1348 C1351 1.403 . S
H1349 C1355 0.930 . S
C1350 H1336 0.930 . S
C1350 C1348 1.395 . S
C1350 C1353 1.403 . S
C1351 C1348 1.403 . S
C1351 C1352 1.524 . S
C1351 C1355 1.400 . S
C1352 H1337 0.960 . S
C1352 H1338 0.960 . S
C1352 H1339 0.960 . S
C1352 C1351 1.524 . S
C1353 C1350 1.403 . S
C1353 C1354 1.392 . S
C1353 C1357 1.495 . S
C1354 C1353 1.392 . S
C1354 C1355 1.385 . S
C1354 C1356 1.478 . S
C1355 H1349 0.930 . S
C1355 C1351 1.400 . S
C1355 C1354 1.385 . S
C1356 C1354 1.478 . S
C1356 C1358 1.381 . S
C1356 C1362 1.383 1_655 S
C1357 C1353 1.495 . S
C1357 H1363 0.959 . S
C1357 H1364 0.961 . S
C1357 H1365 0.960 . S
C1358 C1356 1.381 . S
C1358 C1359 1.394 . S
C1358 H1366 0.930 . S
C1359 C1358 1.394 . S
C1359 C1360 1.383 . S
C1359 H1367 0.929 . S
C1360 C1359 1.383 . S
C1360 C1361 1.377 1_655 S
C1361 H1345 0.930 . S
C1361 C1360 1.377 1_455 S
C1361 C1362 1.379 . S
C1362 H1346 0.931 . S
C1362 C1356 1.383 1_455 S
C1362 C1361 1.379 . S
H1363 C1357 0.959 . S
H1364 C1357 0.961 . S
H1365 C1357 0.960 . S
H1366 C1358 0.930 . S
H1367 C1359 0.929 . S
H1368 C1376 0.929 . S
H1369 C1378 0.930 . S
H1370 C1380 0.930 . S
H1371 C1383 0.929 . S
H1372 C1386 0.930 . S
H1373 C1388 0.960 . S
H1374 C1388 0.960 . S
H1375 C1388 0.960 . S
C1376 H1368 0.929 . S
C1376 C1377 1.377 . S
C1376 C1378 1.384 . S
C1377 C1376 1.377 . S
C1377 C1383 1.390 . S
C1378 H1369 0.930 . S
C1378 C1376 1.384 . S
C1378 C1379 1.372 . S
C1379 C1378 1.372 . S
C1379 C1380 1.400 . S
C1379 C1384 1.490 . S
C1380 H1370 0.930 . S
C1380 C1379 1.400 . S
C1380 C1383 1.386 . S
H1381 C1397 0.930 . S
H1382 C1398 0.931 . S
C1383 H1371 0.929 . S
C1383 C1377 1.390 . S
C1383 C1380 1.386 . S
C1384 C1379 1.490 . S
C1384 C1386 1.395 . S
C1384 C1387 1.403 . S
H1385 C1391 0.930 . S
C1386 H1372 0.930 . S
C1386 C1384 1.395 . S
C1386 C1389 1.403 . S
C1387 C1384 1.403 . S
C1387 C1388 1.524 . S
C1387 C1391 1.400 . S
C1388 H1373 0.960 . S
C1388 H1374 0.960 . S
C1388 H1375 0.960 . S
C1388 C1387 1.524 . S
C1389 C1386 1.403 . S
C1389 C1390 1.392 . S
C1389 C1393 1.495 . S
C1390 C1389 1.392 . S
C1390 C1391 1.385 . S
C1390 C1392 1.478 . S
C1391 H1385 0.930 . S
C1391 C1387 1.400 . S
C1391 C1390 1.385 . S
C1392 C1390 1.478 . S
C1392 C1394 1.381 . S
C1392 C1398 1.383 . S
C1393 C1389 1.495 . S
C1393 H1399 0.959 . S
C1393 H1400 0.961 . S
C1393 H1401 0.960 . S
C1394 C1392 1.381 . S
C1394 C1395 1.394 . S
C1394 H1402 0.930 . S
C1395 C1394 1.394 . S
C1395 C1396 1.383 . S
C1395 H1403 0.929 . S
C1396 C1395 1.383 . S
C1396 C1397 1.377 . S
C1397 H1381 0.930 . S
C1397 C1396 1.377 . S
C1397 C1398 1.379 . S
C1398 H1382 0.931 . S
C1398 C1392 1.383 . S
C1398 C1397 1.379 . S
H1399 C1393 0.959 . S
H1400 C1393 0.961 . S
H1401 C1393 0.960 . S
H1402 C1394 0.930 . S
H1403 C1395 0.929 . S
H1404 C1412 0.929 . S
H1405 C1414 0.930 . S
H1406 C1416 0.930 . S
H1407 C1419 0.929 . S
H1408 C1422 0.930 . S
H1409 C1424 0.960 . S
H1410 C1424 0.960 . S
H1411 C1424 0.960 . S
C1412 H1404 0.929 . S
C1412 C1413 1.377 . S
C1412 C1414 1.384 . S
C1413 C1412 1.377 . S
C1413 C1419 1.390 . S
C1414 H1405 0.930 . S
C1414 C1412 1.384 . S
C1414 C1415 1.372 . S
C1415 C1414 1.372 . S
C1415 C1416 1.400 . S
C1415 C1420 1.490 . S
C1416 H1406 0.930 . S
C1416 C1415 1.400 . S
C1416 C1419 1.386 . S
H1417 C1433 0.930 . S
H1418 C1434 0.931 . S
C1419 H1407 0.929 . S
C1419 C1413 1.390 . S
C1419 C1416 1.386 . S
C1420 C1415 1.490 . S
C1420 C1422 1.395 . S
C1420 C1423 1.403 . S
H1421 C1427 0.930 . S
C1422 H1408 0.930 . S
C1422 C1420 1.395 . S
C1422 C1425 1.403 . S
C1423 C1420 1.403 . S
C1423 C1424 1.524 . S
C1423 C1427 1.400 . S
C1424 H1409 0.960 . S
C1424 H1410 0.960 . S
C1424 H1411 0.960 . S
C1424 C1423 1.524 . S
C1425 C1422 1.403 . S
C1425 C1426 1.392 . S
C1425 C1429 1.495 . S
C1426 C1425 1.392 . S
C1426 C1427 1.385 . S
C1426 C1428 1.478 . S
C1427 H1421 0.930 . S
C1427 C1423 1.400 . S
C1427 C1426 1.385 . S
C1428 C1426 1.478 . S
C1428 C1430 1.381 . S
C1428 C1434 1.383 . S
C1429 C1425 1.495 . S
C1429 H1435 0.959 . S
C1429 H1436 0.961 . S
C1429 H1437 0.960 . S
C1430 C1428 1.381 . S
C1430 C1431 1.394 . S
C1430 H1438 0.930 . S
C1431 C1430 1.394 . S
C1431 C1432 1.383 . S
C1431 H1439 0.929 . S
C1432 C1431 1.383 . S
C1432 C1433 1.377 . S
C1433 H1417 0.930 . S
C1433 C1432 1.377 . S
C1433 C1434 1.379 . S
C1434 H1418 0.931 . S
C1434 C1428 1.383 . S
C1434 C1433 1.379 . S
H1435 C1429 0.959 . S
H1436 C1429 0.961 . S
H1437 C1429 0.960 . S
H1438 C1430 0.930 . S
H1439 C1431 0.929 . S
H1440 C1448 0.929 1_554 S
H1441 C1450 0.923 . S
H1442 C1452 0.930 . S
H1443 C1455 0.929 . S
H1444 C1458 0.970 . S
H1445 C1460 0.960 . S
H1446 C1460 0.960 . S
H1447 C1460 0.960 . S
C1448 H1440 0.929 1_556 S
C1448 C1449 1.377 . S
C1448 C1450 1.385 1_556 S
C1449 C1448 1.377 . S
C1449 C1455 1.390 . S
C1450 H1441 0.923 . S
C1450 C1448 1.385 1_554 S
C1450 C1451 1.378 1_554 S
C1451 C1450 1.378 1_556 S
C1451 C1452 1.400 . S
C1451 C1456 1.490 . S
C1452 H1442 0.930 . S
C1452 C1451 1.400 . S
C1452 C1455 1.386 . S
H1453 C1469 0.930 . S
H1454 C1470 0.931 . S
C1455 H1443 0.929 . S
C1455 C1449 1.390 . S
C1455 C1452 1.386 . S
C1456 C1451 1.490 . S
C1456 C1458 1.344 1_556 S
C1456 C1459 1.403 . S
H1457 C1463 0.930 . S
C1458 H1444 0.970 . S
C1458 C1456 1.344 1_554 S
C1458 C1461 1.420 . S
C1459 C1456 1.403 . S
C1459 C1460 1.524 . S
C1459 C1463 1.400 . S
C1460 H1445 0.960 . S
C1460 H1446 0.960 . S
C1460 H1447 0.960 . S
C1460 C1459 1.524 . S
C1461 C1458 1.420 . S
C1461 C1462 1.392 1_554 S
C1461 C1465 1.495 . S
C1462 C1461 1.392 1_556 S
C1462 C1463 1.385 . S
C1462 C1464 1.478 . S
C1463 H1457 0.930 . S
C1463 C1459 1.400 . S
C1463 C1462 1.385 . S
C1464 C1462 1.478 . S
C1464 C1466 1.381 1_556 S
C1464 C1470 1.383 . S
C1465 C1461 1.495 . S
C1465 H1471 0.959 . S
C1465 H1472 0.961 . S
C1465 H1473 0.960 . S
C1466 C1464 1.381 1_554 S
C1466 C1467 1.394 . S
C1466 H1474 0.930 . S
C1467 C1466 1.394 . S
C1467 C1468 1.383 1_554 S
C1467 H1475 0.929 . S
C1468 C1467 1.383 1_556 S
C1468 C1469 1.377 . S
C1469 H1453 0.930 . S
C1469 C1468 1.377 . S
C1469 C1470 1.379 . S
C1470 H1454 0.931 . S
C1470 C1464 1.383 . S
C1470 C1469 1.379 . S
H1471 C1465 0.959 . S
H1472 C1465 0.961 . S
H1473 C1465 0.960 . S
H1474 C1466 0.930 . S
H1475 C1467 0.929 . S
H1476 C1484 0.929 . S
H1477 C1486 0.930 . S
H1478 C1488 0.930 . S
H1479 C1491 0.929 . S
H1480 C1494 0.930 . S
H1481 C1496 0.960 . S
H1482 C1496 0.960 . S
H1483 C1496 0.960 . S
C1484 H1476 0.929 . S
C1484 C1485 1.377 . S
C1484 C1486 1.384 . S
C1485 C1484 1.377 . S
C1485 C1491 1.390 . S
C1486 H1477 0.930 . S
C1486 C1484 1.384 . S
C1486 C1487 1.372 . S
C1487 C1486 1.372 . S
C1487 C1488 1.400 . S
C1487 C1492 1.490 . S
C1488 H1478 0.930 . S
C1488 C1487 1.400 . S
C1488 C1491 1.386 . S
H1489 C1505 0.930 . S
H1490 C1506 0.931 . S
C1491 H1479 0.929 . S
C1491 C1485 1.390 . S
C1491 C1488 1.386 . S
C1492 C1487 1.490 . S
C1492 C1494 1.395 . S
C1492 C1495 1.403 . S
H1493 C1499 0.930 . S
C1494 H1480 0.930 . S
C1494 C1492 1.395 . S
C1494 C1497 1.403 . S
C1495 C1492 1.403 . S
C1495 C1496 1.524 . S
C1495 C1499 1.400 . S
C1496 H1481 0.960 . S
C1496 H1482 0.960 . S
C1496 H1483 0.960 . S
C1496 C1495 1.524 . S
C1497 C1494 1.403 . S
C1497 C1498 1.392 . S
C1497 C1501 1.495 . S
C1498 C1497 1.392 . S
C1498 C1499 1.385 . S
C1498 C1500 1.478 . S
C1499 H1493 0.930 . S
C1499 C1495 1.400 . S
C1499 C1498 1.385 . S
C1500 C1498 1.478 . S
C1500 C1502 1.381 . S
C1500 C1506 1.383 . S
C1501 C1497 1.495 . S
C1501 H1507 0.959 . S
C1501 H1508 0.961 . S
C1501 H1509 0.960 . S
C1502 C1500 1.381 . S
C1502 C1503 1.394 . S
C1502 H1510 0.930 . S
C1503 C1502 1.394 . S
C1503 C1504 1.383 . S
C1503 H1511 0.929 . S
C1504 C1503 1.383 . S
C1504 C1505 1.377 . S
C1505 H1489 0.930 . S
C1505 C1504 1.377 . S
C1505 C1506 1.379 . S
C1506 H1490 0.931 . S
C1506 C1500 1.383 . S
C1506 C1505 1.379 . S
H1507 C1501 0.959 . S
H1508 C1501 0.961 . S
H1509 C1501 0.960 . S
H1510 C1502 0.930 . S
H1511 C1503 0.929 . S
H1512 C1520 0.929 . S
H1513 C1522 0.930 . S
H1514 C1524 0.930 . S
H1515 C1527 0.929 . S
H1516 C1530 0.930 . S
H1517 C1532 0.960 . S
H1518 C1532 0.960 . S
H1519 C1532 0.960 . S
C1520 H1512 0.929 . S
C1520 C1521 1.377 . S
C1520 C1522 1.384 . S
C1521 C1520 1.377 . S
C1521 C1527 1.390 . S
C1522 H1513 0.930 . S
C1522 C1520 1.384 . S
C1522 C1523 1.372 . S
C1523 C1522 1.372 . S
C1523 C1524 1.400 . S
C1523 C1528 1.490 . S
C1524 H1514 0.930 . S
C1524 C1523 1.400 . S
C1524 C1527 1.386 . S
H1525 C1541 0.930 . S
H1526 C1542 0.931 . S
C1527 H1515 0.929 . S
C1527 C1521 1.390 . S
C1527 C1524 1.386 . S
C1528 C1523 1.490 . S
C1528 C1530 1.395 . S
C1528 C1531 1.403 . S
H1529 C1535 0.930 . S
C1530 H1516 0.930 . S
C1530 C1528 1.395 . S
C1530 C1533 1.403 . S
C1531 C1528 1.403 . S
C1531 C1532 1.524 . S
C1531 C1535 1.400 . S
C1532 H1517 0.960 . S
C1532 H1518 0.960 . S
C1532 H1519 0.960 . S
C1532 C1531 1.524 . S
C1533 C1530 1.403 . S
C1533 C1534 1.392 . S
C1533 C1537 1.495 . S
C1534 C1533 1.392 . S
C1534 C1535 1.385 . S
C1534 C1536 1.478 . S
C1535 H1529 0.930 . S
C1535 C1531 1.400 . S
C1535 C1534 1.385 . S
C1536 C1534 1.478 . S
C1536 C1538 1.381 . S
C1536 C1542 1.383 . S
C1537 C1533 1.495 . S
C1537 H1543 0.959 . S
C1537 H1544 0.961 . S
C1537 H1545 0.960 . S
C1538 C1536 1.381 . S
C1538 C1539 1.394 . S
C1538 H1546 0.930 . S
C1539 C1538 1.394 . S
C1539 C1540 1.383 . S
C1539 H1547 0.929 . S
C1540 C1539 1.383 . S
C1540 C1541 1.377 . S
C1541 H1525 0.930 . S
C1541 C1540 1.377 . S
C1541 C1542 1.379 . S
C1542 H1526 0.931 . S
C1542 C1536 1.383 . S
C1542 C1541 1.379 . S
H1543 C1537 0.959 . S
H1544 C1537 0.961 . S
H1545 C1537 0.960 . S
H1546 C1538 0.930 . S
H1547 C1539 0.929 . S
H1548 C1556 0.929 . S
H1549 C1558 0.930 . S
H1550 C1560 0.930 . S
H1551 C1563 0.929 . S
H1552 C1566 0.930 . S
H1553 C1568 0.960 . S
H1554 C1568 0.960 . S
H1555 C1568 0.960 . S
C1556 H1548 0.929 . S
C1556 C1557 1.377 . S
C1556 C1558 1.384 . S
C1557 C1556 1.377 . S
C1557 C1563 1.390 . S
C1558 H1549 0.930 . S
C1558 C1556 1.384 . S
C1558 C1559 1.372 . S
C1559 C1558 1.372 . S
C1559 C1560 1.400 . S
C1559 C1564 1.490 . S
C1560 H1550 0.930 . S
C1560 C1559 1.400 . S
C1560 C1563 1.386 . S
H1561 C1577 0.930 . S
H1562 C1578 0.931 . S
C1563 H1551 0.929 . S
C1563 C1557 1.390 . S
C1563 C1560 1.386 . S
C1564 C1559 1.490 . S
C1564 C1566 1.395 . S
C1564 C1567 1.403 . S
H1565 C1571 0.930 . S
C1566 H1552 0.930 . S
C1566 C1564 1.395 . S
C1566 C1569 1.403 . S
C1567 C1564 1.403 . S
C1567 C1568 1.524 . S
C1567 C1571 1.400 . S
C1568 H1553 0.960 . S
C1568 H1554 0.960 . S
C1568 H1555 0.960 . S
C1568 C1567 1.524 . S
C1569 C1566 1.403 . S
C1569 C1570 1.392 . S
C1569 C1573 1.495 . S
C1570 C1569 1.392 . S
C1570 C1571 1.385 . S
C1570 C1572 1.478 . S
C1571 H1565 0.930 . S
C1571 C1567 1.400 . S
C1571 C1570 1.385 . S
C1572 C1570 1.478 . S
C1572 C1574 1.381 . S
C1572 C1578 1.383 . S
C1573 C1569 1.495 . S
C1573 H1579 0.959 . S
C1573 H1580 0.961 . S
C1573 H1581 0.960 . S
C1574 C1572 1.381 . S
C1574 C1575 1.394 . S
C1574 H1582 0.930 . S
C1575 C1574 1.394 . S
C1575 C1576 1.383 . S
C1575 H1583 0.929 . S
C1576 C1575 1.383 . S
C1576 C1577 1.377 . S
C1577 H1561 0.930 . S
C1577 C1576 1.377 . S
C1577 C1578 1.379 . S
C1578 H1562 0.931 . S
C1578 C1572 1.383 . S
C1578 C1577 1.379 . S
H1579 C1573 0.959 . S
H1580 C1573 0.961 . S
H1581 C1573 0.960 . S
H1582 C1574 0.930 . S
H1583 C1575 0.929 . S
H1584 C1592 0.929 . S
H1585 C1594 0.930 . S
H1586 C1596 0.930 . S
H1587 C1599 0.929 . S
H1588 C1602 0.930 . S
H1589 C1604 0.960 . S
H1590 C1604 0.960 . S
H1591 C1604 0.960 . S
C1592 H1584 0.929 . S
C1592 C1593 1.377 . S
C1592 C1594 1.384 . S
C1593 C1592 1.377 . S
C1593 C1599 1.390 . S
C1594 H1585 0.930 . S
C1594 C1592 1.384 . S
C1594 C1595 1.372 . S
C1595 C1594 1.372 . S
C1595 C1596 1.400 . S
C1595 C1600 1.490 . S
C1596 H1586 0.930 . S
C1596 C1595 1.400 . S
C1596 C1599 1.386 . S
H1597 C1613 0.930 . S
H1598 C1614 0.931 . S
C1599 H1587 0.929 . S
C1599 C1593 1.390 . S
C1599 C1596 1.386 . S
C1600 C1595 1.490 . S
C1600 C1602 1.395 . S
C1600 C1603 1.403 . S
H1601 C1607 0.930 . S
C1602 H1588 0.930 . S
C1602 C1600 1.395 . S
C1602 C1605 1.403 . S
C1603 C1600 1.403 . S
C1603 C1604 1.524 . S
C1603 C1607 1.400 . S
C1604 H1589 0.960 . S
C1604 H1590 0.960 . S
C1604 H1591 0.960 . S
C1604 C1603 1.524 . S
C1605 C1602 1.403 . S
C1605 C1606 1.392 . S
C1605 C1609 1.495 . S
C1606 C1605 1.392 . S
C1606 C1607 1.385 . S
C1606 C1608 1.478 . S
C1607 H1601 0.930 . S
C1607 C1603 1.400 . S
C1607 C1606 1.385 . S
C1608 C1606 1.478 . S
C1608 C1610 1.381 . S
C1608 C1614 1.383 . S
C1609 C1605 1.495 . S
C1609 H1615 0.959 . S
C1609 H1616 0.961 . S
C1609 H1617 0.960 . S
C1610 C1608 1.381 . S
C1610 C1611 1.394 . S
C1610 H1618 0.930 . S
C1611 C1610 1.394 . S
C1611 C1612 1.383 . S
C1611 H1619 0.929 . S
C1612 C1611 1.383 . S
C1612 C1613 1.377 . S
C1613 H1597 0.930 . S
C1613 C1612 1.377 . S
C1613 C1614 1.379 . S
C1614 H1598 0.931 . S
C1614 C1608 1.383 . S
C1614 C1613 1.379 . S
H1615 C1609 0.959 . S
H1616 C1609 0.961 . S
H1617 C1609 0.960 . S
H1618 C1610 0.930 . S
H1619 C1611 0.929 . S
H1620 C1628 0.929 . S
H1621 C1630 0.930 . S
H1622 C1632 0.930 . S
H1623 C1635 0.929 . S
H1624 C1638 0.930 . S
H1625 C1640 0.960 . S
H1626 C1640 0.960 . S
H1627 C1640 0.960 . S
C1628 H1620 0.929 . S
C1628 C1629 1.377 . S
C1628 C1630 1.384 . S
C1629 C1628 1.377 . S
C1629 C1635 1.390 . S
C1630 H1621 0.930 . S
C1630 C1628 1.384 . S
C1630 C1631 1.372 . S
C1631 C1630 1.372 . S
C1631 C1632 1.400 . S
C1631 C1636 1.490 . S
C1632 H1622 0.930 . S
C1632 C1631 1.400 . S
C1632 C1635 1.386 . S
H1633 C1649 0.930 . S
H1634 C1650 0.931 . S
C1635 H1623 0.929 . S
C1635 C1629 1.390 . S
C1635 C1632 1.386 . S
C1636 C1631 1.490 . S
C1636 C1638 1.395 . S
C1636 C1639 1.403 . S
H1637 C1643 0.930 . S
C1638 H1624 0.930 . S
C1638 C1636 1.395 . S
C1638 C1641 1.403 . S
C1639 C1636 1.403 . S
C1639 C1640 1.524 . S
C1639 C1643 1.400 . S
C1640 H1625 0.960 . S
C1640 H1626 0.960 . S
C1640 H1627 0.960 . S
C1640 C1639 1.524 . S
C1641 C1638 1.403 . S
C1641 C1642 1.392 . S
C1641 C1645 1.495 . S
C1642 C1641 1.392 . S
C1642 C1643 1.385 . S
C1642 C1644 1.478 . S
C1643 H1637 0.930 . S
C1643 C1639 1.400 . S
C1643 C1642 1.385 . S
C1644 C1642 1.478 . S
C1644 C1646 1.381 . S
C1644 C1650 1.383 . S
C1645 C1641 1.495 . S
C1645 H1651 0.959 . S
C1645 H1652 0.961 . S
C1645 H1653 0.960 . S
C1646 C1644 1.381 . S
C1646 C1647 1.394 . S
C1646 H1654 0.930 . S
C1647 C1646 1.394 . S
C1647 C1648 1.383 . S
C1647 H1655 0.929 . S
C1648 C1647 1.383 . S
C1648 C1649 1.377 . S
C1649 H1633 0.930 . S
C1649 C1648 1.377 . S
C1649 C1650 1.379 . S
C1650 H1634 0.931 . S
C1650 C1644 1.383 . S
C1650 C1649 1.379 . S
H1651 C1645 0.959 . S
H1652 C1645 0.961 . S
H1653 C1645 0.960 . S
H1654 C1646 0.930 . S
H1655 C1647 0.929 . S
H1656 C1664 0.929 . S
H1657 C1666 0.930 . S
H1658 C1668 0.930 . S
H1659 C1671 0.929 . S
H1660 C1674 0.930 . S
H1661 C1676 0.960 . S
H1662 C1676 0.960 . S
H1663 C1676 0.960 . S
C1664 H1656 0.929 . S
C1664 C1665 1.377 . S
C1664 C1666 1.384 . S
C1665 C1664 1.377 . S
C1665 C1671 1.390 . S
C1666 H1657 0.930 . S
C1666 C1664 1.384 . S
C1666 C1667 1.372 . S
C1667 C1666 1.372 . S
C1667 C1668 1.400 . S
C1667 C1672 1.490 . S
C1668 H1658 0.930 . S
C1668 C1667 1.400 . S
C1668 C1671 1.386 . S
H1669 C1685 0.930 . S
H1670 C1686 0.931 . S
C1671 H1659 0.929 . S
C1671 C1665 1.390 . S
C1671 C1668 1.386 . S
C1672 C1667 1.490 . S
C1672 C1674 1.395 . S
C1672 C1675 1.403 . S
H1673 C1679 0.930 . S
C1674 H1660 0.930 . S
C1674 C1672 1.395 . S
C1674 C1677 1.403 . S
C1675 C1672 1.403 . S
C1675 C1676 1.524 . S
C1675 C1679 1.400 . S
C1676 H1661 0.960 . S
C1676 H1662 0.960 . S
C1676 H1663 0.960 . S
C1676 C1675 1.524 . S
C1677 C1674 1.403 . S
C1677 C1678 1.392 . S
C1677 C1681 1.495 . S
C1678 C1677 1.392 . S
C1678 C1679 1.385 . S
C1678 C1680 1.478 . S
C1679 H1673 0.930 . S
C1679 C1675 1.400 . S
C1679 C1678 1.385 . S
C1680 C1678 1.478 . S
C1680 C1682 1.381 . S
C1680 C1686 1.383 . S
C1681 C1677 1.495 . S
C1681 H1687 0.959 . S
C1681 H1688 0.961 . S
C1681 H1689 0.960 . S
C1682 C1680 1.381 . S
C1682 C1683 1.394 . S
C1682 H1690 0.930 . S
C1683 C1682 1.394 . S
C1683 C1684 1.383 . S
C1683 H1691 0.929 . S
C1684 C1683 1.383 . S
C1684 C1685 1.377 . S
C1685 H1669 0.930 . S
C1685 C1684 1.377 . S
C1685 C1686 1.379 . S
C1686 H1670 0.931 . S
C1686 C1680 1.383 . S
C1686 C1685 1.379 . S
H1687 C1681 0.959 . S
H1688 C1681 0.961 . S
H1689 C1681 0.960 . S
H1690 C1682 0.930 . S
H1691 C1683 0.929 . S
H1692 C1700 0.929 1_565 S
H1693 C1702 0.930 1_565 S
H1694 C1704 0.930 . S
H1695 C1707 0.929 . S
H1696 C1710 0.930 . S
H1697 C1712 0.960 . S
H1698 C1712 0.960 . S
H1699 C1712 0.960 . S
C1700 H1692 0.929 1_545 S
C1700 C1701 1.377 . S
C1700 C1702 1.384 . S
C1701 C1700 1.377 . S
C1701 C1707 1.390 . S
C1702 H1693 0.930 1_545 S
C1702 C1700 1.384 . S
C1702 C1703 1.372 . S
C1703 C1702 1.372 . S
C1703 C1704 1.400 . S
C1703 C1708 1.490 . S
C1704 H1694 0.930 . S
C1704 C1703 1.400 . S
C1704 C1707 1.386 . S
H1705 C1721 0.930 . S
H1706 C1722 0.931 . S
C1707 H1695 0.929 . S
C1707 C1701 1.390 . S
C1707 C1704 1.386 . S
C1708 C1703 1.490 . S
C1708 C1710 1.395 . S
C1708 C1711 1.403 . S
H1709 C1715 0.930 . S
C1710 H1696 0.930 . S
C1710 C1708 1.395 . S
C1710 C1713 1.403 . S
C1711 C1708 1.403 . S
C1711 C1712 1.524 . S
C1711 C1715 1.400 . S
C1712 H1697 0.960 . S
C1712 H1698 0.960 . S
C1712 H1699 0.960 . S
C1712 C1711 1.524 . S
C1713 C1710 1.403 . S
C1713 C1714 1.392 . S
C1713 C1717 1.495 . S
C1714 C1713 1.392 . S
C1714 C1715 1.385 . S
C1714 C1716 1.478 . S
C1715 H1709 0.930 . S
C1715 C1711 1.400 . S
C1715 C1714 1.385 . S
C1716 C1714 1.478 . S
C1716 C1718 1.381 1_545 S
C1716 C1722 1.383 . S
C1717 C1713 1.495 . S
C1717 H1723 0.959 . S
C1717 H1724 0.961 . S
C1717 H1725 0.960 1_545 S
C1718 C1716 1.381 1_565 S
C1718 C1719 1.394 . S
C1718 H1726 0.930 . S
C1719 C1718 1.394 . S
C1719 C1720 1.383 1_565 S
C1719 H1727 0.929 . S
C1720 C1719 1.383 1_545 S
C1720 C1721 1.377 . S
C1721 H1705 0.930 . S
C1721 C1720 1.377 . S
C1721 C1722 1.379 . S
C1722 H1706 0.931 . S
C1722 C1716 1.383 . S
C1722 C1721 1.379 . S
H1723 C1717 0.959 . S
H1724 C1717 0.961 . S
H1725 C1717 0.960 1_565 S
H1726 C1718 0.930 . S
H1727 C1719 0.929 . S
H1728 C1736 0.929 . S
H1729 C1738 0.930 . S
H1730 C1740 0.930 . S
H1731 C1743 0.929 . S
H1732 C1746 0.930 . S
H1733 C1748 0.960 . S
H1734 C1748 0.960 . S
H1735 C1748 0.960 . S
C1736 H1728 0.929 . S
C1736 C1737 1.377 . S
C1736 C1738 1.384 . S
C1737 C1736 1.377 . S
C1737 C1743 1.390 . S
C1738 H1729 0.930 . S
C1738 C1736 1.384 . S
C1738 C1739 1.372 . S
C1739 C1738 1.372 . S
C1739 C1740 1.400 . S
C1739 C1744 1.490 . S
C1740 H1730 0.930 . S
C1740 C1739 1.400 . S
C1740 C1743 1.386 . S
H1741 C1757 0.930 . S
H1742 C1758 0.931 . S
C1743 H1731 0.929 . S
C1743 C1737 1.390 . S
C1743 C1740 1.386 . S
C1744 C1739 1.490 . S
C1744 C1746 1.395 . S
C1744 C1747 1.403 . S
H1745 C1751 0.930 . S
C1746 H1732 0.930 . S
C1746 C1744 1.395 . S
C1746 C1749 1.403 . S
C1747 C1744 1.403 . S
C1747 C1748 1.524 . S
C1747 C1751 1.400 . S
C1748 H1733 0.960 . S
C1748 H1734 0.960 . S
C1748 H1735 0.960 . S
C1748 C1747 1.524 . S
C1749 C1746 1.403 . S
C1749 C1750 1.392 . S
C1749 C1753 1.495 . S
C1750 C1749 1.392 . S
C1750 C1751 1.385 . S
C1750 C1752 1.478 . S
C1751 H1745 0.930 . S
C1751 C1747 1.400 . S
C1751 C1750 1.385 . S
C1752 C1750 1.478 . S
C1752 C1754 1.381 . S
C1752 C1758 1.383 . S
C1753 C1749 1.495 . S
C1753 H1759 0.959 . S
C1753 H1760 0.961 . S
C1753 H1761 0.960 . S
C1754 C1752 1.381 . S
C1754 C1755 1.394 . S
C1754 H1762 0.930 . S
C1755 C1754 1.394 . S
C1755 C1756 1.383 . S
C1755 H1763 0.929 . S
C1756 C1755 1.383 . S
C1756 C1757 1.377 . S
C1757 H1741 0.930 . S
C1757 C1756 1.377 . S
C1757 C1758 1.379 . S
C1758 H1742 0.931 . S
C1758 C1752 1.383 . S
C1758 C1757 1.379 . S
H1759 C1753 0.959 . S
H1760 C1753 0.961 . S
H1761 C1753 0.960 . S
H1762 C1754 0.930 . S
H1763 C1755 0.929 . S
H1764 C1772 0.929 . S
H1765 C1774 0.930 . S
H1766 C1776 0.930 . S
H1767 C1779 0.929 . S
H1768 C1782 0.930 . S
H1769 C1784 0.960 . S
H1770 C1784 0.960 . S
H1771 C1784 0.960 . S
C1772 H1764 0.929 . S
C1772 C1773 1.377 . S
C1772 C1774 1.384 . S
C1773 C1772 1.377 . S
C1773 C1779 1.390 . S
C1774 H1765 0.930 . S
C1774 C1772 1.384 . S
C1774 C1775 1.372 . S
C1775 C1774 1.372 . S
C1775 C1776 1.400 . S
C1775 C1780 1.490 . S
C1776 H1766 0.930 . S
C1776 C1775 1.400 . S
C1776 C1779 1.386 . S
H1777 C1793 0.930 . S
H1778 C1794 0.931 . S
C1779 H1767 0.929 . S
C1779 C1773 1.390 . S
C1779 C1776 1.386 . S
C1780 C1775 1.490 . S
C1780 C1782 1.395 . S
C1780 C1783 1.403 . S
H1781 C1787 0.930 . S
C1782 H1768 0.930 . S
C1782 C1780 1.395 . S
C1782 C1785 1.403 . S
C1783 C1780 1.403 . S
C1783 C1784 1.524 . S
C1783 C1787 1.400 . S
C1784 H1769 0.960 . S
C1784 H1770 0.960 . S
C1784 H1771 0.960 . S
C1784 C1783 1.524 . S
C1785 C1782 1.403 . S
C1785 C1786 1.392 . S
C1785 C1789 1.495 . S
C1786 C1785 1.392 . S
C1786 C1787 1.385 . S
C1786 C1788 1.478 . S
C1787 H1781 0.930 . S
C1787 C1783 1.400 . S
C1787 C1786 1.385 . S
C1788 C1786 1.478 . S
C1788 C1790 1.381 . S
C1788 C1794 1.383 . S
C1789 C1785 1.495 . S
C1789 H1795 0.959 . S
C1789 H1796 0.961 . S
C1789 H1797 0.960 . S
C1790 C1788 1.381 . S
C1790 C1791 1.394 . S
C1790 H1798 0.930 . S
C1791 C1790 1.394 . S
C1791 C1792 1.383 . S
C1791 H1799 0.929 . S
C1792 C1791 1.383 . S
C1792 C1793 1.377 . S
C1793 H1777 0.930 . S
C1793 C1792 1.377 . S
C1793 C1794 1.379 . S
C1794 H1778 0.931 . S
C1794 C1788 1.383 . S
C1794 C1793 1.379 . S
H1795 C1789 0.959 . S
H1796 C1789 0.961 . S
H1797 C1789 0.960 . S
H1798 C1790 0.930 . S
H1799 C1791 0.929 . S
H1800 C1808 0.929 . S
H1801 C1810 0.930 . S
H1802 C1812 0.930 . S
H1803 C1815 0.929 . S
H1804 C1818 0.930 . S
H1805 C1820 0.960 . S
H1806 C1820 0.960 . S
H1807 C1820 0.960 . S
C1808 H1800 0.929 . S
C1808 C1809 1.377 . S
C1808 C1810 1.384 . S
C1809 C1808 1.377 . S
C1809 C1815 1.390 . S
C1810 H1801 0.930 . S
C1810 C1808 1.384 . S
C1810 C1811 1.372 . S
C1811 C1810 1.372 . S
C1811 C1812 1.400 . S
C1811 C1816 1.490 . S
C1812 H1802 0.930 . S
C1812 C1811 1.400 . S
C1812 C1815 1.386 . S
H1813 C1829 0.930 . S
H1814 C1830 0.931 . S
C1815 H1803 0.929 . S
C1815 C1809 1.390 . S
C1815 C1812 1.386 . S
C1816 C1811 1.490 . S
C1816 C1818 1.395 . S
C1816 C1819 1.403 . S
H1817 C1823 0.930 . S
C1818 H1804 0.930 . S
C1818 C1816 1.395 . S
C1818 C1821 1.403 . S
C1819 C1816 1.403 . S
C1819 C1820 1.524 . S
C1819 C1823 1.400 . S
C1820 H1805 0.960 . S
C1820 H1806 0.960 . S
C1820 H1807 0.960 . S
C1820 C1819 1.524 . S
C1821 C1818 1.403 . S
C1821 C1822 1.392 . S
C1821 C1825 1.495 . S
C1822 C1821 1.392 . S
C1822 C1823 1.385 . S
C1822 C1824 1.478 . S
C1823 H1817 0.930 . S
C1823 C1819 1.400 . S
C1823 C1822 1.385 . S
C1824 C1822 1.478 . S
C1824 C1826 1.381 . S
C1824 C1830 1.383 . S
C1825 C1821 1.495 . S
C1825 H1831 0.959 . S
C1825 H1832 0.961 . S
C1825 H1833 0.960 . S
C1826 C1824 1.381 . S
C1826 C1827 1.394 . S
C1826 H1834 0.930 . S
C1827 C1826 1.394 . S
C1827 C1828 1.383 . S
C1827 H1835 0.929 . S
C1828 C1827 1.383 . S
C1828 C1829 1.377 . S
C1829 H1813 0.930 . S
C1829 C1828 1.377 . S
C1829 C1830 1.379 . S
C1830 H1814 0.931 . S
C1830 C1824 1.383 . S
C1830 C1829 1.379 . S
H1831 C1825 0.959 . S
H1832 C1825 0.961 . S
H1833 C1825 0.960 . S
H1834 C1826 0.930 . S
H1835 C1827 0.929 . S
H1836 C1844 0.929 . S
H1837 C1846 0.930 . S
H1838 C1848 0.930 . S
H1839 C1851 0.929 . S
H1840 C1854 0.930 . S
H1841 C1856 0.960 . S
H1842 C1856 0.960 . S
H1843 C1856 0.960 . S
C1844 H1836 0.929 . S
C1844 C1845 1.377 . S
C1844 C1846 1.384 . S
C1845 C1844 1.377 . S
C1845 C1851 1.390 . S
C1846 H1837 0.930 . S
C1846 C1844 1.384 . S
C1846 C1847 1.372 . S
C1847 C1846 1.372 . S
C1847 C1848 1.400 . S
C1847 C1852 1.490 . S
C1848 H1838 0.930 . S
C1848 C1847 1.400 . S
C1848 C1851 1.386 . S
H1849 C1865 0.930 1_565 S
H1850 C1866 0.925 1_565 S
C1851 H1839 0.929 . S
C1851 C1845 1.390 . S
C1851 C1848 1.386 . S
C1852 C1847 1.490 . S
C1852 C1854 1.395 . S
C1852 C1855 1.403 . S
H1853 C1859 0.930 . S
C1854 H1840 0.930 . S
C1854 C1852 1.395 . S
C1854 C1857 1.403 . S
C1855 C1852 1.403 . S
C1855 C1856 1.524 . S
C1855 C1859 1.400 . S
C1856 H1841 0.960 . S
C1856 H1842 0.960 . S
C1856 H1843 0.960 . S
C1856 C1855 1.524 . S
C1857 C1854 1.403 . S
C1857 C1858 1.392 . S
C1857 C1861 1.495 . S
C1858 C1857 1.392 . S
C1858 C1859 1.385 . S
C1858 C1860 1.478 . S
C1859 H1853 0.930 . S
C1859 C1855 1.400 . S
C1859 C1858 1.385 . S
C1860 C1858 1.478 . S
C1860 C1862 1.381 . S
C1860 C1866 1.383 . S
C1861 C1857 1.495 . S
C1861 H1867 0.959 . S
C1861 H1868 0.961 . S
C1861 H1869 0.960 . S
C1862 C1860 1.381 . S
C1862 C1863 1.394 . S
C1862 H1870 0.930 . S
C1863 C1862 1.394 . S
C1863 C1864 1.383 . S
C1863 H1871 0.929 . S
C1864 C1863 1.383 . S
C1864 C1865 1.377 . S
C1865 H1849 0.930 1_545 S
C1865 C1864 1.377 . S
C1865 C1866 1.379 . S
C1866 H1850 0.925 1_545 S
C1866 C1860 1.383 . S
C1866 C1865 1.379 . S
H1867 C1861 0.959 . S
H1868 C1861 0.961 . S
H1869 C1861 0.960 . S
H1870 C1862 0.930 . S
H1871 C1863 0.929 . S
H1872 C1880 0.929 . S
H1873 C1882 0.930 . S
H1874 C1884 0.930 . S
H1875 C1887 0.929 . S
H1876 C1890 0.930 . S
H1877 C1892 0.960 . S
H1878 C1892 0.960 . S
H1879 C1892 0.960 . S
C1880 H1872 0.929 . S
C1880 C1881 1.377 . S
C1880 C1882 1.384 . S
C1881 C1880 1.377 . S
C1881 C1887 1.390 . S
C1882 H1873 0.930 . S
C1882 C1880 1.384 . S
C1882 C1883 1.372 . S
C1883 C1882 1.372 . S
C1883 C1884 1.400 . S
C1883 C1888 1.490 . S
C1884 H1874 0.930 . S
C1884 C1883 1.400 . S
C1884 C1887 1.386 . S
H1885 C1901 0.930 . S
H1886 C1902 0.931 . S
C1887 H1875 0.929 . S
C1887 C1881 1.390 . S
C1887 C1884 1.386 . S
C1888 C1883 1.490 . S
C1888 C1890 1.395 . S
C1888 C1891 1.403 . S
H1889 C1895 0.930 . S
C1890 H1876 0.930 . S
C1890 C1888 1.395 . S
C1890 C1893 1.403 . S
C1891 C1888 1.403 . S
C1891 C1892 1.524 . S
C1891 C1895 1.400 . S
C1892 H1877 0.960 . S
C1892 H1878 0.960 . S
C1892 H1879 0.960 . S
C1892 C1891 1.524 . S
C1893 C1890 1.403 . S
C1893 C1894 1.392 . S
C1893 C1897 1.495 . S
C1894 C1893 1.392 . S
C1894 C1895 1.385 . S
C1894 C1896 1.478 . S
C1895 H1889 0.930 . S
C1895 C1891 1.400 . S
C1895 C1894 1.385 . S
C1896 C1894 1.478 . S
C1896 C1898 1.381 . S
C1896 C1902 1.383 . S
C1897 C1893 1.495 . S
C1897 H1903 0.959 . S
C1897 H1904 0.961 . S
C1897 H1905 0.960 . S
C1898 C1896 1.381 . S
C1898 C1899 1.394 . S
C1898 H1906 0.930 . S
C1899 C1898 1.394 . S
C1899 C1900 1.383 . S
C1899 H1907 0.929 . S
C1900 C1899 1.383 . S
C1900 C1901 1.377 . S
C1901 H1885 0.930 . S
C1901 C1900 1.377 . S
C1901 C1902 1.379 . S
C1902 H1886 0.931 . S
C1902 C1896 1.383 . S
C1902 C1901 1.379 . S
H1903 C1897 0.959 . S
H1904 C1897 0.961 . S
H1905 C1897 0.960 . S
H1906 C1898 0.930 . S
H1907 C1899 0.929 . S
H1908 C1916 0.929 . S
H1909 C1918 0.930 . S
H1910 C1920 0.930 . S
H1911 C1923 0.929 . S
H1912 C1926 0.930 . S
H1913 C1928 0.960 . S
H1914 C1928 0.960 . S
H1915 C1928 0.960 . S
C1916 H1908 0.929 . S
C1916 C1917 1.377 . S
C1916 C1918 1.384 . S
C1917 C1916 1.377 . S
C1917 C1923 1.390 . S
C1918 H1909 0.930 . S
C1918 C1916 1.384 . S
C1918 C1919 1.372 . S
C1919 C1918 1.372 . S
C1919 C1920 1.400 . S
C1919 C1924 1.490 . S
C1920 H1910 0.930 . S
C1920 C1919 1.400 . S
C1920 C1923 1.386 . S
H1921 C1937 0.930 . S
H1922 C1938 0.931 . S
C1923 H1911 0.929 . S
C1923 C1917 1.390 . S
C1923 C1920 1.386 . S
C1924 C1919 1.490 . S
C1924 C1926 1.395 . S
C1924 C1927 1.403 . S
H1925 C1931 0.930 . S
C1926 H1912 0.930 . S
C1926 C1924 1.395 . S
C1926 C1929 1.403 . S
C1927 C1924 1.403 . S
C1927 C1928 1.524 . S
C1927 C1931 1.400 . S
C1928 H1913 0.960 . S
C1928 H1914 0.960 . S
C1928 H1915 0.960 . S
C1928 C1927 1.524 . S
C1929 C1926 1.403 . S
C1929 C1930 1.392 . S
C1929 C1933 1.495 . S
C1930 C1929 1.392 . S
C1930 C1931 1.385 . S
C1930 C1932 1.478 . S
C1931 H1925 0.930 . S
C1931 C1927 1.400 . S
C1931 C1930 1.385 . S
C1932 C1930 1.478 . S
C1932 C1934 1.381 . S
C1932 C1938 1.383 . S
C1933 C1929 1.495 . S
C1933 H1939 0.959 . S
C1933 H1940 0.961 . S
C1933 H1941 0.960 . S
C1934 C1932 1.381 . S
C1934 C1935 1.394 . S
C1934 H1942 0.930 . S
C1935 C1934 1.394 . S
C1935 C1936 1.383 . S
C1935 H1943 0.929 . S
C1936 C1935 1.383 . S
C1936 C1937 1.377 . S
C1937 H1921 0.930 . S
C1937 C1936 1.377 . S
C1937 C1938 1.379 . S
C1938 H1922 0.931 . S
C1938 C1932 1.383 . S
C1938 C1937 1.379 . S
H1939 C1933 0.959 . S
H1940 C1933 0.961 . S
H1941 C1933 0.960 . S
H1942 C1934 0.930 . S
H1943 C1935 0.929 . S
H1944 C1952 0.929 . S
H1945 C1954 0.930 . S
H1946 C1956 0.930 . S
H1947 C1959 0.929 . S
H1948 C1962 0.930 . S
H1949 C1964 0.960 . S
H1950 C1964 0.960 . S
H1951 C1964 0.960 . S
C1952 H1944 0.929 . S
C1952 C1953 1.377 . S
C1952 C1954 1.384 . S
C1953 C1952 1.377 . S
C1953 C1959 1.390 . S
C1954 H1945 0.930 . S
C1954 C1952 1.384 . S
C1954 C1955 1.372 . S
C1955 C1954 1.372 . S
C1955 C1956 1.400 . S
C1955 C1960 1.490 . S
C1956 H1946 0.930 . S
C1956 C1955 1.400 . S
C1956 C1959 1.386 . S
H1957 C1973 0.930 . S
H1958 C1974 0.931 . S
C1959 H1947 0.929 . S
C1959 C1953 1.390 . S
C1959 C1956 1.386 . S
C1960 C1955 1.490 . S
C1960 C1962 1.395 . S
C1960 C1963 1.403 . S
H1961 C1967 0.930 . S
C1962 H1948 0.930 . S
C1962 C1960 1.395 . S
C1962 C1965 1.403 . S
C1963 C1960 1.403 . S
C1963 C1964 1.524 . S
C1963 C1967 1.400 . S
C1964 H1949 0.960 . S
C1964 H1950 0.960 . S
C1964 H1951 0.960 . S
C1964 C1963 1.524 . S
C1965 C1962 1.403 . S
C1965 C1966 1.392 . S
C1965 C1969 1.495 . S
C1966 C1965 1.392 . S
C1966 C1967 1.385 . S
C1966 C1968 1.478 . S
C1967 H1961 0.930 . S
C1967 C1963 1.400 . S
C1967 C1966 1.385 . S
C1968 C1966 1.478 . S
C1968 C1970 1.381 . S
C1968 C1974 1.383 . S
C1969 C1965 1.495 . S
C1969 H1975 0.959 . S
C1969 H1976 0.961 . S
C1969 H1977 0.960 . S
C1970 C1968 1.381 . S
C1970 C1971 1.394 . S
C1970 H1978 0.930 . S
C1971 C1970 1.394 . S
C1971 C1972 1.383 . S
C1971 H1979 0.929 . S
C1972 C1971 1.383 . S
C1972 C1973 1.377 . S
C1973 H1957 0.930 . S
C1973 C1972 1.377 . S
C1973 C1974 1.379 . S
C1974 H1958 0.931 . S
C1974 C1968 1.383 . S
C1974 C1973 1.379 . S
H1975 C1969 0.959 . S
H1976 C1969 0.961 . S
H1977 C1969 0.960 . S
H1978 C1970 0.930 . S
H1979 C1971 0.929 . S
H1980 C1988 0.929 1_554 S
H1981 C1990 0.930 . S
H1982 C1992 0.930 . S
H1983 C1995 0.916 1_455 S
H1984 C1998 0.930 . S
H1985 C2000 0.960 . S
H1986 C2000 0.960 . S
H1987 C2000 0.960 . S
C1988 H1980 0.929 1_556 S
C1988 C1989 1.377 . S
C1988 C1990 1.384 . S
C1989 C1988 1.377 . S
C1989 C1995 1.415 . S
C1990 H1981 0.930 . S
C1990 C1988 1.384 . S
C1990 C1991 1.372 . S
C1991 C1990 1.372 . S
C1991 C1992 1.400 1_655 S
C1991 C1996 1.490 . S
C1992 H1982 0.930 . S
C1992 C1991 1.400 1_455 S
C1992 C1995 1.376 1_455 S
H1993 C2009 0.930 . S
H1994 C2010 0.931 . S
C1995 H1983 0.916 1_655 S
C1995 C1989 1.415 . S
C1995 C1992 1.376 1_655 S
C1996 C1991 1.490 . S
C1996 C1998 1.395 . S
C1996 C1999 1.403 1_655 S
H1997 C2003 0.930 . S
C1998 H1984 0.930 . S
C1998 C1996 1.395 . S
C1998 C2001 1.403 . S
C1999 C1996 1.403 1_455 S
C1999 C2000 1.524 . S
C1999 C2003 1.400 . S
C2000 H1985 0.960 . S
C2000 H1986 0.960 . S
C2000 H1987 0.960 . S
C2000 C1999 1.524 . S
C2001 C1998 1.403 . S
C2001 C2002 1.401 . S
C2001 C2005 1.495 . S
C2002 C2001 1.401 . S
C2002 C2003 1.378 1_655 S
C2002 C2004 1.476 1_655 S
C2003 H1997 0.930 . S
C2003 C1999 1.400 . S
C2003 C2002 1.378 1_455 S
C2004 C2002 1.476 1_455 S
C2004 C2006 1.381 1_455 S
C2004 C2010 1.383 . S
C2005 C2001 1.495 . S
C2005 H2011 0.959 . S
C2005 H2012 0.961 . S
C2005 H2013 0.960 . S
C2006 C2004 1.381 1_655 S
C2006 C2007 1.394 1_655 S
C2006 H2014 0.930 . S
C2007 C2006 1.394 1_455 S
C2007 C2008 1.383 . S
C2007 H2015 0.928 . S
C2008 C2007 1.383 . S
C2008 C2009 1.377 . S
C2009 H1993 0.930 . S
C2009 C2008 1.377 . S
C2009 C2010 1.379 . S
C2010 H1994 0.931 . S
C2010 C2004 1.383 . S
C2010 C2009 1.379 . S
H2011 C2005 0.959 . S
H2012 C2005 0.961 . S
H2013 C2005 0.960 . S
H2014 C2006 0.930 . S
H2015 C2007 0.928 . S
H2016 C2024 0.929 . S
H2017 C2026 0.930 . S
H2018 C2028 0.930 . S
H2019 C2031 0.929 . S
H2020 C2034 0.930 . S
H2021 C2036 0.960 . S
H2022 C2036 0.960 . S
H2023 C2036 0.960 . S
C2024 H2016 0.929 . S
C2024 C2025 1.377 . S
C2024 C2026 1.384 . S
C2025 C2024 1.377 . S
C2025 C2031 1.390 . S
C2026 H2017 0.930 . S
C2026 C2024 1.384 . S
C2026 C2027 1.372 . S
C2027 C2026 1.372 . S
C2027 C2028 1.400 . S
C2027 C2032 1.490 . S
C2028 H2018 0.930 . S
C2028 C2027 1.400 . S
C2028 C2031 1.386 . S
H2029 C2045 0.930 . S
H2030 C2046 0.931 . S
C2031 H2019 0.929 . S
C2031 C2025 1.390 . S
C2031 C2028 1.386 . S
C2032 C2027 1.490 . S
C2032 C2034 1.395 . S
C2032 C2035 1.403 . S
H2033 C2039 0.930 . S
C2034 H2020 0.930 . S
C2034 C2032 1.395 . S
C2034 C2037 1.403 . S
C2035 C2032 1.403 . S
C2035 C2036 1.524 . S
C2035 C2039 1.400 . S
C2036 H2021 0.960 . S
C2036 H2022 0.960 . S
C2036 H2023 0.960 . S
C2036 C2035 1.524 . S
C2037 C2034 1.403 . S
C2037 C2038 1.392 . S
C2037 C2041 1.495 . S
C2038 C2037 1.392 . S
C2038 C2039 1.385 . S
C2038 C2040 1.478 . S
C2039 H2033 0.930 . S
C2039 C2035 1.400 . S
C2039 C2038 1.385 . S
C2040 C2038 1.478 . S
C2040 C2042 1.381 . S
C2040 C2046 1.383 . S
C2041 C2037 1.495 . S
C2041 H2047 0.959 . S
C2041 H2048 0.961 . S
C2041 H2049 0.960 . S
C2042 C2040 1.381 . S
C2042 C2043 1.394 . S
C2042 H2050 0.930 . S
C2043 C2042 1.394 . S
C2043 C2044 1.383 . S
C2043 H2051 0.929 . S
C2044 C2043 1.383 . S
C2044 C2045 1.377 . S
C2045 H2029 0.930 . S
C2045 C2044 1.377 . S
C2045 C2046 1.379 . S
C2046 H2030 0.931 . S
C2046 C2040 1.383 . S
C2046 C2045 1.379 . S
H2047 C2041 0.959 . S
H2048 C2041 0.961 . S
H2049 C2041 0.960 . S
H2050 C2042 0.930 . S
H2051 C2043 0.929 . S
H2052 C2060 0.929 . S
H2053 C2062 0.950 . S
H2054 C2064 0.930 . S
H2055 C2067 0.929 . S
H2056 C2070 0.930 . S
H2057 C2072 0.960 . S
H2058 C2072 0.960 . S
H2059 C2072 0.960 . S
C2060 H2052 0.929 . S
C2060 C2061 1.377 . S
C2060 C2062 1.384 . S
C2061 C2060 1.377 . S
C2061 C2067 1.390 . S
C2062 H2053 0.950 . S
C2062 C2060 1.384 . S
C2062 C2063 1.372 . S
C2063 C2062 1.372 . S
C2063 C2064 1.400 . S
C2063 C2068 1.490 . S
C2064 H2054 0.930 . S
C2064 C2063 1.400 . S
C2064 C2067 1.386 . S
H2065 C2081 0.930 . S
H2066 C2082 0.931 . S
C2067 H2055 0.929 . S
C2067 C2061 1.390 . S
C2067 C2064 1.386 . S
C2068 C2063 1.490 . S
C2068 C2070 1.395 . S
C2068 C2071 1.403 . S
H2069 C2075 0.930 . S
C2070 H2056 0.930 . S
C2070 C2068 1.395 . S
C2070 C2073 1.403 . S
C2071 C2068 1.403 . S
C2071 C2072 1.524 . S
C2071 C2075 1.400 . S
C2072 H2057 0.960 . S
C2072 H2058 0.960 . S
C2072 H2059 0.960 . S
C2072 C2071 1.524 . S
C2073 C2070 1.403 . S
C2073 C2074 1.392 . S
C2073 C2077 1.495 . S
C2074 C2073 1.392 . S
C2074 C2075 1.385 . S
C2074 C2076 1.478 . S
C2075 H2069 0.930 . S
C2075 C2071 1.400 . S
C2075 C2074 1.385 . S
C2076 C2074 1.478 . S
C2076 C2078 1.381 . S
C2076 C2082 1.383 . S
C2077 C2073 1.495 . S
C2077 H2083 0.959 1_455 S
C2077 H2084 0.961 . S
C2077 H2085 0.960 1_455 S
C2078 C2076 1.381 . S
C2078 C2079 1.394 . S
C2078 H2086 0.930 1_455 S
C2079 C2078 1.394 . S
C2079 C2080 1.383 . S
C2079 H2087 0.929 1_455 S
C2080 C2079 1.383 . S
C2080 C2081 1.377 . S
C2081 H2065 0.930 . S
C2081 C2080 1.377 . S
C2081 C2082 1.379 . S
C2082 H2066 0.931 . S
C2082 C2076 1.383 . S
C2082 C2081 1.379 . S
H2083 C2077 0.959 1_655 S
H2084 C2077 0.961 . S
H2085 C2077 0.960 1_655 S
H2086 C2078 0.930 1_655 S
H2087 C2079 0.929 1_655 S
H2088 C2096 0.929 . S
H2089 C2098 0.930 . S
H2090 C2100 0.930 . S
H2091 C2103 0.929 . S
H2092 C2106 0.930 . S
H2093 C2108 0.960 . S
H2094 C2108 0.960 . S
H2095 C2108 0.960 . S
C2096 H2088 0.929 . S
C2096 C2097 1.377 . S
C2096 C2098 1.384 . S
C2097 C2096 1.377 . S
C2097 C2103 1.390 . S
C2098 H2089 0.930 . S
C2098 C2096 1.384 . S
C2098 C2099 1.372 . S
C2099 C2098 1.372 . S
C2099 C2100 1.400 . S
C2099 C2104 1.490 . S
C2100 H2090 0.930 . S
C2100 C2099 1.400 . S
C2100 C2103 1.386 . S
H2101 C2117 0.930 . S
H2102 C2118 0.931 . S
C2103 H2091 0.929 . S
C2103 C2097 1.390 . S
C2103 C2100 1.386 . S
C2104 C2099 1.490 . S
C2104 C2106 1.395 . S
C2104 C2107 1.403 . S
H2105 C2111 0.930 . S
C2106 H2092 0.930 . S
C2106 C2104 1.395 . S
C2106 C2109 1.403 . S
C2107 C2104 1.403 . S
C2107 C2108 1.524 . S
C2107 C2111 1.400 . S
C2108 H2093 0.960 . S
C2108 H2094 0.960 . S
C2108 H2095 0.960 . S
C2108 C2107 1.524 . S
C2109 C2106 1.403 . S
C2109 C2110 1.392 . S
C2109 C2113 1.495 . S
C2110 C2109 1.392 . S
C2110 C2111 1.385 . S
C2110 C2112 1.478 . S
C2111 H2105 0.930 . S
C2111 C2107 1.400 . S
C2111 C2110 1.385 . S
C2112 C2110 1.478 . S
C2112 C2114 1.381 . S
C2112 C2118 1.383 . S
C2113 C2109 1.495 . S
C2113 H2119 0.959 . S
C2113 H2120 0.961 . S
C2113 H2121 0.960 . S
C2114 C2112 1.381 . S
C2114 C2115 1.394 . S
C2114 H2122 0.930 . S
C2115 C2114 1.394 . S
C2115 C2116 1.383 . S
C2115 H2123 0.929 . S
C2116 C2115 1.383 . S
C2116 C2117 1.377 . S
C2117 H2101 0.930 . S
C2117 C2116 1.377 . S
C2117 C2118 1.379 . S
C2118 H2102 0.931 . S
C2118 C2112 1.383 . S
C2118 C2117 1.379 . S
H2119 C2113 0.959 . S
H2120 C2113 0.961 . S
H2121 C2113 0.960 . S
H2122 C2114 0.930 . S
H2123 C2115 0.929 . S
H2124 C2132 0.929 . S
H2125 C2134 0.930 . S
H2126 C2136 0.930 . S
H2127 C2139 0.929 . S
H2128 C2142 0.930 . S
H2129 C2144 0.960 . S
H2130 C2144 0.960 . S
H2131 C2144 0.960 . S
C2132 H2124 0.929 . S
C2132 C2133 1.377 . S
C2132 C2134 1.384 . S
C2133 C2132 1.377 . S
C2133 C2139 1.390 . S
C2134 H2125 0.930 . S
C2134 C2132 1.384 . S
C2134 C2135 1.372 . S
C2135 C2134 1.372 . S
C2135 C2136 1.400 . S
C2135 C2140 1.490 . S
C2136 H2126 0.930 . S
C2136 C2135 1.400 . S
C2136 C2139 1.386 . S
H2137 C2153 0.930 . S
H2138 C2154 0.931 . S
C2139 H2127 0.929 . S
C2139 C2133 1.390 . S
C2139 C2136 1.386 . S
C2140 C2135 1.490 . S
C2140 C2142 1.395 . S
C2140 C2143 1.403 . S
H2141 C2147 0.930 . S
C2142 H2128 0.930 . S
C2142 C2140 1.395 . S
C2142 C2145 1.403 . S
C2143 C2140 1.403 . S
C2143 C2144 1.524 . S
C2143 C2147 1.400 . S
C2144 H2129 0.960 . S
C2144 H2130 0.960 . S
C2144 H2131 0.960 . S
C2144 C2143 1.524 . S
C2145 C2142 1.403 . S
C2145 C2146 1.392 . S
C2145 C2149 1.495 . S
C2146 C2145 1.392 . S
C2146 C2147 1.385 . S
C2146 C2148 1.478 . S
C2147 H2141 0.930 . S
C2147 C2143 1.400 . S
C2147 C2146 1.385 . S
C2148 C2146 1.478 . S
C2148 C2150 1.381 . S
C2148 C2154 1.383 . S
C2149 C2145 1.495 . S
C2149 H2155 0.959 . S
C2149 H2156 0.961 . S
C2149 H2157 0.960 . S
C2150 C2148 1.381 . S
C2150 C2151 1.394 . S
C2150 H2158 0.930 . S
C2151 C2150 1.394 . S
C2151 C2152 1.383 . S
C2151 H2159 0.929 . S
C2152 C2151 1.383 . S
C2152 C2153 1.377 . S
C2153 H2137 0.930 . S
C2153 C2152 1.377 . S
C2153 C2154 1.379 . S
C2154 H2138 0.931 . S
C2154 C2148 1.383 . S
C2154 C2153 1.379 . S
H2155 C2149 0.959 . S
H2156 C2149 0.961 . S
H2157 C2149 0.960 . S
H2158 C2150 0.930 . S
H2159 C2151 0.929 . S
H2160 C2168 0.929 . S
H2161 C2170 0.930 . S
H2162 C2172 0.930 . S
H2163 C2175 0.929 . S
H2164 C2178 0.930 . S
H2165 C2180 0.960 . S
H2166 C2180 0.960 . S
H2167 C2180 0.960 . S
C2168 H2160 0.929 . S
C2168 C2169 1.377 . S
C2168 C2170 1.384 . S
C2169 C2168 1.377 . S
C2169 C2175 1.390 . S
C2170 H2161 0.930 . S
C2170 C2168 1.384 . S
C2170 C2171 1.372 . S
C2171 C2170 1.372 . S
C2171 C2172 1.400 . S
C2171 C2176 1.490 . S
C2172 H2162 0.930 . S
C2172 C2171 1.400 . S
C2172 C2175 1.386 . S
H2173 C2189 0.930 . S
H2174 C2190 0.931 . S
C2175 H2163 0.929 . S
C2175 C2169 1.390 . S
C2175 C2172 1.386 . S
C2176 C2171 1.490 . S
C2176 C2178 1.395 . S
C2176 C2179 1.403 . S
H2177 C2183 0.930 . S
C2178 H2164 0.930 . S
C2178 C2176 1.395 . S
C2178 C2181 1.403 . S
C2179 C2176 1.403 . S
C2179 C2180 1.524 . S
C2179 C2183 1.400 . S
C2180 H2165 0.960 . S
C2180 H2166 0.960 . S
C2180 H2167 0.960 . S
C2180 C2179 1.524 . S
C2181 C2178 1.403 . S
C2181 C2182 1.392 . S
C2181 C2185 1.495 . S
C2182 C2181 1.392 . S
C2182 C2183 1.385 . S
C2182 C2184 1.478 . S
C2183 H2177 0.930 . S
C2183 C2179 1.400 . S
C2183 C2182 1.385 . S
C2184 C2182 1.478 . S
C2184 C2186 1.381 . S
C2184 C2190 1.383 . S
C2185 C2181 1.495 . S
C2185 H2191 0.959 . S
C2185 H2192 0.961 . S
C2185 H2193 0.960 . S
C2186 C2184 1.381 . S
C2186 C2187 1.394 . S
C2186 H2194 0.930 . S
C2187 C2186 1.394 . S
C2187 C2188 1.383 . S
C2187 H2195 0.929 . S
C2188 C2187 1.383 . S
C2188 C2189 1.377 . S
C2189 H2173 0.930 . S
C2189 C2188 1.377 . S
C2189 C2190 1.379 . S
C2190 H2174 0.931 . S
C2190 C2184 1.383 . S
C2190 C2189 1.379 . S
H2191 C2185 0.959 . S
H2192 C2185 0.961 . S
H2193 C2185 0.960 . S
H2194 C2186 0.930 . S
H2195 C2187 0.929 . S
H2196 C2204 0.929 . S
H2197 C2206 0.930 . S
H2198 C2208 0.930 . S
H2199 C2211 0.929 . S
H2200 C2214 0.930 . S
H2201 C2216 0.960 . S
H2202 C2216 0.960 . S
H2203 C2216 0.960 . S
C2204 H2196 0.929 . S
C2204 C2205 1.377 . S
C2204 C2206 1.384 . S
C2205 C2204 1.377 . S
C2205 C2211 1.390 . S
C2206 H2197 0.930 . S
C2206 C2204 1.384 . S
C2206 C2207 1.372 . S
C2207 C2206 1.372 . S
C2207 C2208 1.400 . S
C2207 C2212 1.490 . S
C2208 H2198 0.930 . S
C2208 C2207 1.400 . S
C2208 C2211 1.386 . S
H2209 C2225 0.930 . S
H2210 C2226 0.931 . S
C2211 H2199 0.929 . S
C2211 C2205 1.390 . S
C2211 C2208 1.386 . S
C2212 C2207 1.490 . S
C2212 C2214 1.395 . S
C2212 C2215 1.403 . S
H2213 C2219 0.930 . S
C2214 H2200 0.930 . S
C2214 C2212 1.395 . S
C2214 C2217 1.403 . S
C2215 C2212 1.403 . S
C2215 C2216 1.524 . S
C2215 C2219 1.400 . S
C2216 H2201 0.960 . S
C2216 H2202 0.960 . S
C2216 H2203 0.960 . S
C2216 C2215 1.524 . S
C2217 C2214 1.403 . S
C2217 C2218 1.392 . S
C2217 C2221 1.495 . S
C2218 C2217 1.392 . S
C2218 C2219 1.385 . S
C2218 C2220 1.478 . S
C2219 H2213 0.930 . S
C2219 C2215 1.400 . S
C2219 C2218 1.385 . S
C2220 C2218 1.478 . S
C2220 C2222 1.381 . S
C2220 C2226 1.383 . S
C2221 C2217 1.495 . S
C2221 H2227 0.959 . S
C2221 H2228 0.961 . S
C2221 H2229 0.960 . S
C2222 C2220 1.381 . S
C2222 C2223 1.394 . S
C2222 H2230 0.930 . S
C2223 C2222 1.394 . S
C2223 C2224 1.383 . S
C2223 H2231 0.929 . S
C2224 C2223 1.383 . S
C2224 C2225 1.377 . S
C2225 H2209 0.930 . S
C2225 C2224 1.377 . S
C2225 C2226 1.379 . S
C2226 H2210 0.931 . S
C2226 C2220 1.383 . S
C2226 C2225 1.379 . S
H2227 C2221 0.959 . S
H2228 C2221 0.961 . S
H2229 C2221 0.960 . S
H2230 C2222 0.930 . S
H2231 C2223 0.929 . S
H2232 C2240 0.929 . S
H2233 C2242 0.930 . S
H2234 C2244 0.930 . S
H2235 C2247 0.929 . S
H2236 C2250 0.930 . S
H2237 C2252 0.960 . S
H2238 C2252 0.960 . S
H2239 C2252 0.960 . S
C2240 H2232 0.929 . S
C2240 C2241 1.377 . S
C2240 C2242 1.384 . S
C2241 C2240 1.377 . S
C2241 C2247 1.390 . S
C2242 H2233 0.930 . S
C2242 C2240 1.384 . S
C2242 C2243 1.372 . S
C2243 C2242 1.372 . S
C2243 C2244 1.400 . S
C2243 C2248 1.490 . S
C2244 H2234 0.930 . S
C2244 C2243 1.400 . S
C2244 C2247 1.386 . S
H2245 C2261 0.930 . S
H2246 C2262 0.931 . S
C2247 H2235 0.929 . S
C2247 C2241 1.390 . S
C2247 C2244 1.386 . S
C2248 C2243 1.490 . S
C2248 C2250 1.395 . S
C2248 C2251 1.403 . S
H2249 C2255 0.930 . S
C2250 H2236 0.930 . S
C2250 C2248 1.395 . S
C2250 C2253 1.403 . S
C2251 C2248 1.403 . S
C2251 C2252 1.524 . S
C2251 C2255 1.400 . S
C2252 H2237 0.960 . S
C2252 H2238 0.960 . S
C2252 H2239 0.960 . S
C2252 C2251 1.524 . S
C2253 C2250 1.403 . S
C2253 C2254 1.392 . S
C2253 C2257 1.495 . S
C2254 C2253 1.392 . S
C2254 C2255 1.385 . S
C2254 C2256 1.478 . S
C2255 H2249 0.930 . S
C2255 C2251 1.400 . S
C2255 C2254 1.385 . S
C2256 C2254 1.478 . S
C2256 C2258 1.381 . S
C2256 C2262 1.383 . S
C2257 C2253 1.495 . S
C2257 H2263 0.959 . S
C2257 H2264 0.961 . S
C2257 H2265 0.960 . S
C2258 C2256 1.381 . S
C2258 C2259 1.394 . S
C2258 H2266 0.930 . S
C2259 C2258 1.394 . S
C2259 C2260 1.383 . S
C2259 H2267 0.929 . S
C2260 C2259 1.383 . S
C2260 C2261 1.377 . S
C2261 H2245 0.930 . S
C2261 C2260 1.377 . S
C2261 C2262 1.379 . S
C2262 H2246 0.931 . S
C2262 C2256 1.383 . S
C2262 C2261 1.379 . S
H2263 C2257 0.959 . S
H2264 C2257 0.961 . S
H2265 C2257 0.960 . S
H2266 C2258 0.930 . S
H2267 C2259 0.929 . S
H2268 C2276 0.929 . S
H2269 C2278 0.930 . S
H2270 C2280 0.930 . S
H2271 C2283 0.929 . S
H2272 C2286 0.930 . S
H2273 C2288 0.960 . S
H2274 C2288 0.960 . S
H2275 C2288 0.960 . S
C2276 H2268 0.929 . S
C2276 C2277 1.377 . S
C2276 C2278 1.384 . S
C2277 C2276 1.377 . S
C2277 C2283 1.390 . S
C2278 H2269 0.930 . S
C2278 C2276 1.384 . S
C2278 C2279 1.372 . S
C2279 C2278 1.372 . S
C2279 C2280 1.400 . S
C2279 C2284 1.490 . S
C2280 H2270 0.930 . S
C2280 C2279 1.400 . S
C2280 C2283 1.386 . S
H2281 C2297 0.930 . S
H2282 C2298 0.931 . S
C2283 H2271 0.929 . S
C2283 C2277 1.390 . S
C2283 C2280 1.386 . S
C2284 C2279 1.490 . S
C2284 C2286 1.395 . S
C2284 C2287 1.403 . S
H2285 C2291 0.930 . S
C2286 H2272 0.930 . S
C2286 C2284 1.395 . S
C2286 C2289 1.403 . S
C2287 C2284 1.403 . S
C2287 C2288 1.524 . S
C2287 C2291 1.400 . S
C2288 H2273 0.960 . S
C2288 H2274 0.960 . S
C2288 H2275 0.960 . S
C2288 C2287 1.524 . S
C2289 C2286 1.403 . S
C2289 C2290 1.392 . S
C2289 C2293 1.495 . S
C2290 C2289 1.392 . S
C2290 C2291 1.385 . S
C2290 C2292 1.478 . S
C2291 H2285 0.930 . S
C2291 C2287 1.400 . S
C2291 C2290 1.385 . S
C2292 C2290 1.478 . S
C2292 C2294 1.381 . S
C2292 C2298 1.383 . S
C2293 C2289 1.495 . S
C2293 H2299 0.959 . S
C2293 H2300 0.961 . S
C2293 H2301 0.960 . S
C2294 C2292 1.381 . S
C2294 C2295 1.394 . S
C2294 H2302 0.930 . S
C2295 C2294 1.394 . S
C2295 C2296 1.383 . S
C2295 H2303 0.929 . S
C2296 C2295 1.383 . S
C2296 C2297 1.377 . S
C2297 H2281 0.930 . S
C2297 C2296 1.377 . S
C2297 C2298 1.379 . S
C2298 H2282 0.931 . S
C2298 C2292 1.383 . S
C2298 C2297 1.379 . S
H2299 C2293 0.959 . S
H2300 C2293 0.961 . S
H2301 C2293 0.960 . S
H2302 C2294 0.930 . S
H2303 C2295 0.929 . S
H2304 C2312 0.929 . S
H2305 C2314 0.930 . S
H2306 C2316 0.930 . S
H2307 C2319 0.929 . S
H2308 C2322 0.930 . S
H2309 C2324 0.960 . S
H2310 C2324 0.960 . S
H2311 C2324 0.960 . S
C2312 H2304 0.929 . S
C2312 C2313 1.377 . S
C2312 C2314 1.384 . S
C2313 C2312 1.377 . S
C2313 C2319 1.390 . S
C2314 H2305 0.930 . S
C2314 C2312 1.384 . S
C2314 C2315 1.372 . S
C2315 C2314 1.372 . S
C2315 C2316 1.400 . S
C2315 C2320 1.490 . S
C2316 H2306 0.930 . S
C2316 C2315 1.400 . S
C2316 C2319 1.386 . S
H2317 C2333 0.930 . S
H2318 C2334 0.931 . S
C2319 H2307 0.929 . S
C2319 C2313 1.390 . S
C2319 C2316 1.386 . S
C2320 C2315 1.490 . S
C2320 C2322 1.395 . S
C2320 C2323 1.403 . S
H2321 C2327 0.930 . S
C2322 H2308 0.930 . S
C2322 C2320 1.395 . S
C2322 C2325 1.403 . S
C2323 C2320 1.403 . S
C2323 C2324 1.524 . S
C2323 C2327 1.400 . S
C2324 H2309 0.960 . S
C2324 H2310 0.960 . S
C2324 H2311 0.960 . S
C2324 C2323 1.524 . S
C2325 C2322 1.403 . S
C2325 C2326 1.392 . S
C2325 C2329 1.495 . S
C2326 C2325 1.392 . S
C2326 C2327 1.385 . S
C2326 C2328 1.478 . S
C2327 H2321 0.930 . S
C2327 C2323 1.400 . S
C2327 C2326 1.385 . S
C2328 C2326 1.478 . S
C2328 C2330 1.381 . S
C2328 C2334 1.383 . S
C2329 C2325 1.495 . S
C2329 H2335 0.959 . S
C2329 H2336 0.961 . S
C2329 H2337 0.960 . S
C2330 C2328 1.381 . S
C2330 C2331 1.394 . S
C2330 H2338 0.930 . S
C2331 C2330 1.394 . S
C2331 C2332 1.383 . S
C2331 H2339 0.929 . S
C2332 C2331 1.383 . S
C2332 C2333 1.377 . S
C2333 H2317 0.930 . S
C2333 C2332 1.377 . S
C2333 C2334 1.379 . S
C2334 H2318 0.931 . S
C2334 C2328 1.383 . S
C2334 C2333 1.379 . S
H2335 C2329 0.959 . S
H2336 C2329 0.961 . S
H2337 C2329 0.960 . S
H2338 C2330 0.930 . S
H2339 C2331 0.929 . S
H2340 C2348 0.929 . S
H2341 C2350 0.930 . S
H2342 C2352 0.930 . S
H2343 C2355 0.929 . S
H2344 C2358 0.930 . S
H2345 C2360 0.960 . S
H2346 C2360 0.960 . S
H2347 C2360 0.960 . S
C2348 H2340 0.929 . S
C2348 C2349 1.377 . S
C2348 C2350 1.384 . S
C2349 C2348 1.377 . S
C2349 C2355 1.390 . S
C2350 H2341 0.930 . S
C2350 C2348 1.384 . S
C2350 C2351 1.372 . S
C2351 C2350 1.372 . S
C2351 C2352 1.400 . S
C2351 C2356 1.490 . S
C2352 H2342 0.930 . S
C2352 C2351 1.400 . S
C2352 C2355 1.386 . S
H2353 C2369 0.930 . S
H2354 C2370 0.931 . S
C2355 H2343 0.929 . S
C2355 C2349 1.390 . S
C2355 C2352 1.386 . S
C2356 C2351 1.490 . S
C2356 C2358 1.395 . S
C2356 C2359 1.403 . S
H2357 C2363 0.930 . S
C2358 H2344 0.930 . S
C2358 C2356 1.395 . S
C2358 C2361 1.403 . S
C2359 C2356 1.403 . S
C2359 C2360 1.524 . S
C2359 C2363 1.400 . S
C2360 H2345 0.960 . S
C2360 H2346 0.960 . S
C2360 H2347 0.960 . S
C2360 C2359 1.524 . S
C2361 C2358 1.403 . S
C2361 C2362 1.392 . S
C2361 C2365 1.495 . S
C2362 C2361 1.392 . S
C2362 C2363 1.385 . S
C2362 C2364 1.478 . S
C2363 H2357 0.930 . S
C2363 C2359 1.400 . S
C2363 C2362 1.385 . S
C2364 C2362 1.478 . S
C2364 C2366 1.381 . S
C2364 C2370 1.383 . S
C2365 C2361 1.495 . S
C2365 H2371 0.959 . S
C2365 H2372 0.961 . S
C2365 H2373 0.960 . S
C2366 C2364 1.381 . S
C2366 C2367 1.394 . S
C2366 H2374 0.930 . S
C2367 C2366 1.394 . S
C2367 C2368 1.383 . S
C2367 H2375 0.929 . S
C2368 C2367 1.383 . S
C2368 C2369 1.377 . S
C2369 H2353 0.930 . S
C2369 C2368 1.377 . S
C2369 C2370 1.379 . S
C2370 H2354 0.931 . S
C2370 C2364 1.383 . S
C2370 C2369 1.379 . S
H2371 C2365 0.959 . S
H2372 C2365 0.961 . S
H2373 C2365 0.960 . S
H2374 C2366 0.930 . S
H2375 C2367 0.929 . S
H2376 C2384 0.929 1_554 S
H2377 C2386 0.930 1_554 S
H2378 C2388 0.930 . S
H2379 C2391 0.929 . S
H2380 C2394 0.939 . S
H2381 C2396 0.960 . S
H2382 C2396 0.960 . S
H2383 C2396 0.960 . S
C2384 H2376 0.929 1_556 S
C2384 C2385 1.377 . S
C2384 C2386 1.384 . S
C2385 C2384 1.377 . S
C2385 C2391 1.390 . S
C2386 H2377 0.930 1_556 S
C2386 C2384 1.384 . S
C2386 C2387 1.372 . S
C2387 C2386 1.372 . S
C2387 C2388 1.400 . S
C2387 C2392 1.490 . S
C2388 H2378 0.930 . S
C2388 C2387 1.400 . S
C2388 C2391 1.386 . S
H2389 C2405 0.930 . S
H2390 C2406 0.931 . S
C2391 H2379 0.929 . S
C2391 C2385 1.390 . S
C2391 C2388 1.386 . S
C2392 C2387 1.490 . S
C2392 C2394 1.384 1_556 S
C2392 C2395 1.403 . S
H2393 C2399 0.930 . S
C2394 H2380 0.939 . S
C2394 C2392 1.384 1_554 S
C2394 C2397 1.406 . S
C2395 C2392 1.403 . S
C2395 C2396 1.524 . S
C2395 C2399 1.400 . S
C2396 H2381 0.960 . S
C2396 H2382 0.960 . S
C2396 H2383 0.960 . S
C2396 C2395 1.524 . S
C2397 C2394 1.406 . S
C2397 C2398 1.392 1_554 S
C2397 C2401 1.495 . S
C2398 C2397 1.392 1_556 S
C2398 C2399 1.385 . S
C2398 C2400 1.478 . S
C2399 H2393 0.930 . S
C2399 C2395 1.400 . S
C2399 C2398 1.385 . S
C2400 C2398 1.478 . S
C2400 C2402 1.381 1_556 S
C2400 C2406 1.383 . S
C2401 C2397 1.495 . S
C2401 H2407 0.959 . S
C2401 H2408 0.961 . S
C2401 H2409 0.960 . S
C2402 C2400 1.381 1_554 S
C2402 C2403 1.394 . S
C2402 H2410 0.930 . S
C2403 C2402 1.394 . S
C2403 C2404 1.391 . S
C2403 H2411 0.929 . S
C2404 C2403 1.391 . S
C2404 C2405 1.368 1_554 S
C2405 H2389 0.930 . S
C2405 C2404 1.368 1_556 S
C2405 C2406 1.379 . S
C2406 H2390 0.931 . S
C2406 C2400 1.383 . S
C2406 C2405 1.379 . S
H2407 C2401 0.959 . S
H2408 C2401 0.961 . S
H2409 C2401 0.960 . S
H2410 C2402 0.930 . S
H2411 C2403 0.929 . S
H2412 C2420 0.929 . S
H2413 C2422 0.930 . S
H2414 C2424 0.930 . S
H2415 C2427 0.929 . S
H2416 C2430 0.930 . S
H2417 C2432 0.960 . S
H2418 C2432 0.960 . S
H2419 C2432 0.960 . S
C2420 H2412 0.929 . S
C2420 C2421 1.377 . S
C2420 C2422 1.384 . S
C2421 C2420 1.377 . S
C2421 C2427 1.390 . S
C2422 H2413 0.930 . S
C2422 C2420 1.384 . S
C2422 C2423 1.372 . S
C2423 C2422 1.372 . S
C2423 C2424 1.400 . S
C2423 C2428 1.490 . S
C2424 H2414 0.930 . S
C2424 C2423 1.400 . S
C2424 C2427 1.386 . S
H2425 C2441 0.930 . S
H2426 C2442 0.931 . S
C2427 H2415 0.929 . S
C2427 C2421 1.390 . S
C2427 C2424 1.386 . S
C2428 C2423 1.490 . S
C2428 C2430 1.395 . S
C2428 C2431 1.403 . S
H2429 C2435 0.930 . S
C2430 H2416 0.930 . S
C2430 C2428 1.395 . S
C2430 C2433 1.403 . S
C2431 C2428 1.403 . S
C2431 C2432 1.524 . S
C2431 C2435 1.400 . S
C2432 H2417 0.960 . S
C2432 H2418 0.960 . S
C2432 H2419 0.960 . S
C2432 C2431 1.524 . S
C2433 C2430 1.403 . S
C2433 C2434 1.392 . S
C2433 C2437 1.495 . S
C2434 C2433 1.392 . S
C2434 C2435 1.385 . S
C2434 C2436 1.478 . S
C2435 H2429 0.930 . S
C2435 C2431 1.400 . S
C2435 C2434 1.385 . S
C2436 C2434 1.478 . S
C2436 C2438 1.381 . S
C2436 C2442 1.383 . S
C2437 C2433 1.495 . S
C2437 H2443 0.959 . S
C2437 H2444 0.961 . S
C2437 H2445 0.960 . S
C2438 C2436 1.381 . S
C2438 C2439 1.394 . S
C2438 H2446 0.930 . S
C2439 C2438 1.394 . S
C2439 C2440 1.383 . S
C2439 H2447 0.929 . S
C2440 C2439 1.383 . S
C2440 C2441 1.377 . S
C2441 H2425 0.930 . S
C2441 C2440 1.377 . S
C2441 C2442 1.379 . S
C2442 H2426 0.931 . S
C2442 C2436 1.383 . S
C2442 C2441 1.379 . S
H2443 C2437 0.959 . S
H2444 C2437 0.961 . S
H2445 C2437 0.960 . S
H2446 C2438 0.930 . S
H2447 C2439 0.929 . S
H2448 C2456 0.929 . S
H2449 C2458 0.930 . S
H2450 C2460 0.930 . S
H2451 C2463 0.929 . S
H2452 C2466 0.930 . S
H2453 C2468 0.960 . S
H2454 C2468 0.960 . S
H2455 C2468 0.960 . S
C2456 H2448 0.929 . S
C2456 C2457 1.377 . S
C2456 C2458 1.384 . S
C2457 C2456 1.377 . S
C2457 C2463 1.390 . S
C2458 H2449 0.930 . S
C2458 C2456 1.384 . S
C2458 C2459 1.372 . S
C2459 C2458 1.372 . S
C2459 C2460 1.400 . S
C2459 C2464 1.490 . S
C2460 H2450 0.930 . S
C2460 C2459 1.400 . S
C2460 C2463 1.386 . S
H2461 C2477 0.930 1_556 S
H2462 C2478 0.931 1_556 S
C2463 H2451 0.929 . S
C2463 C2457 1.390 . S
C2463 C2460 1.386 . S
C2464 C2459 1.490 . S
C2464 C2466 1.395 . S
C2464 C2467 1.403 . S
H2465 C2471 0.930 . S
C2466 H2452 0.930 . S
C2466 C2464 1.395 . S
C2466 C2469 1.403 . S
C2467 C2464 1.403 . S
C2467 C2468 1.524 . S
C2467 C2471 1.400 . S
C2468 H2453 0.960 . S
C2468 H2454 0.960 . S
C2468 H2455 0.960 . S
C2468 C2467 1.524 . S
C2469 C2466 1.403 . S
C2469 C2470 1.392 . S
C2469 C2473 1.495 . S
C2470 C2469 1.392 . S
C2470 C2471 1.385 . S
C2470 C2472 1.478 . S
C2471 H2465 0.930 . S
C2471 C2467 1.400 . S
C2471 C2470 1.385 . S
C2472 C2470 1.478 . S
C2472 C2474 1.381 . S
C2472 C2478 1.383 . S
C2473 C2469 1.495 . S
C2473 H2479 0.959 . S
C2473 H2480 0.961 . S
C2473 H2481 0.960 . S
C2474 C2472 1.381 . S
C2474 C2475 1.394 . S
C2474 H2482 0.930 . S
C2475 C2474 1.394 . S
C2475 C2476 1.383 . S
C2475 H2483 0.929 . S
C2476 C2475 1.383 . S
C2476 C2477 1.377 . S
C2477 H2461 0.930 1_554 S
C2477 C2476 1.377 . S
C2477 C2478 1.379 . S
C2478 H2462 0.931 1_554 S
C2478 C2472 1.383 . S
C2478 C2477 1.379 . S
H2479 C2473 0.959 . S
H2480 C2473 0.961 . S
H2481 C2473 0.960 . S
H2482 C2474 0.930 . S
H2483 C2475 0.929 . S
H2484 C2492 0.929 . S
H2485 C2494 0.930 . S
H2486 C2496 0.930 1_556 S
H2487 C2499 0.929 1_556 S
H2488 C2502 0.930 . S
H2489 C2504 0.960 . S
H2490 C2504 0.960 . S
H2491 C2504 0.960 . S
C2492 H2484 0.929 . S
C2492 C2493 1.377 . S
C2492 C2494 1.384 . S
C2493 C2492 1.377 . S
C2493 C2499 1.390 . S
C2494 H2485 0.930 . S
C2494 C2492 1.384 . S
C2494 C2495 1.372 . S
C2495 C2494 1.372 . S
C2495 C2496 1.400 . S
C2495 C2500 1.490 . S
C2496 H2486 0.930 1_554 S
C2496 C2495 1.400 . S
C2496 C2499 1.386 . S
H2497 C2513 0.930 . S
H2498 C2514 0.931 . S
C2499 H2487 0.929 1_554 S
C2499 C2493 1.390 . S
C2499 C2496 1.386 . S
C2500 C2495 1.490 . S
C2500 C2502 1.395 . S
C2500 C2503 1.403 . S
H2501 C2507 0.930 . S
C2502 H2488 0.930 . S
C2502 C2500 1.395 . S
C2502 C2505 1.403 . S
C2503 C2500 1.403 . S
C2503 C2504 1.524 . S
C2503 C2507 1.400 . S
C2504 H2489 0.960 . S
C2504 H2490 0.960 . S
C2504 H2491 0.960 . S
C2504 C2503 1.524 . S
C2505 C2502 1.403 . S
C2505 C2506 1.392 . S
C2505 C2509 1.495 . S
C2506 C2505 1.392 . S
C2506 C2507 1.385 . S
C2506 C2508 1.478 . S
C2507 H2501 0.930 . S
C2507 C2503 1.400 . S
C2507 C2506 1.385 . S
C2508 C2506 1.478 . S
C2508 C2510 1.381 . S
C2508 C2514 1.383 1_554 S
C2509 C2505 1.495 . S
C2509 H2515 0.959 . S
C2509 H2516 0.961 1_554 S
C2509 H2517 0.960 . S
C2510 C2508 1.381 . S
C2510 C2511 1.394 . S
C2510 H2518 0.930 . S
C2511 C2510 1.394 . S
C2511 C2512 1.383 . S
C2511 H2519 0.929 . S
C2512 C2511 1.383 . S
C2512 C2513 1.377 1_554 S
C2513 H2497 0.930 . S
C2513 C2512 1.377 1_556 S
C2513 C2514 1.379 . S
C2514 H2498 0.931 . S
C2514 C2508 1.383 1_556 S
C2514 C2513 1.379 . S
H2515 C2509 0.959 . S
H2516 C2509 0.961 1_556 S
H2517 C2509 0.960 . S
H2518 C2510 0.930 . S
H2519 C2511 0.929 . S
C820 C635 1.407 . S
C801 C211 1.449 . S
C856 C643 1.338 . S
C837 C255 1.545 . S
C873 C274 1.425 . S
C892 C663 1.391 . S
C928 C677 1.508 . S
C909 C157 1.532 1_655 S
C964 C692 1.538 . S
C945 C391 1.544 . S
C1000 C706 1.508 . S
C981 C484 1.508 . S
C1017 C450 1.572 . S
C1036 C720 1.570 . S
C1072 C726 1.416 . S
C1053 C352 1.484 . S
C1089 C430 1.522 . S
C1108 C740 1.459 . S
C1144 C761 1.566 . S
C1125 C367 1.579 . S
C1161 C411 1.477 . S
C1180 C741 1.248 . S
C1216 C762 1.535 . S
C1197 C469 1.537 . S
C1233 C294 1.470 . S
C1252 C769 1.167 . S
C1269 C177 1.518 . S
C1288 C775 1.510 . S
C1305 C196 1.507 . S
C1324 C768 1.439 . S
C1341 C235 1.469 . S
C1360 C776 1.466 . S
C1377 C133 1.500 . S
C1396 C670 1.457 . S
C1413 C567 1.487 . S
C1432 C671 1.190 . S
C1468 C628 1.537 . S
C1449 C601 1.567 . S
C1504 C649 1.429 . S
C1485 C328 1.454 . S
C1521 C172 1.488 . S
C1540 C684 1.426 . S
C1576 C734 1.533 . S
C1557 C445 1.535 . S
C1612 C685 1.253 . S
C1593 C372 1.460 . S
C1648 C713 1.330 . S
C1629 C489 1.551 . S
C1684 C719 1.407 . S
C1665 C562 1.449 . S
C1701 C606 1.545 . S
C1720 C727 1.340 . S
C1737 C313 1.425 . S
C1756 C691 1.393 . S
C1792 C705 1.510 . S
C1773 C508 1.532 . S
C1809 C118 1.544 . S
C1828 C664 1.538 . S
C1864 C678 1.509 . S
C1845 C16 1.509 . S
C1900 C636 1.571 . S
C1881 C60 1.572 . S
C1936 C642 1.464 . S
C1917 C79 1.484 . S
C1953 C40 1.522 . S
C1972 C754 1.459 . S
C1989 C94 1.579 1_556 S
C2008 C747 1.537 . S
C2025 C138 1.478 . S
C2044 C755 1.263 . S
C2061 C1 1.539 . S
C2080 C748 1.537 . S
C2116 C783 1.277 . S
C2097 C333 1.469 . S
C2152 C789 1.485 . S
C2133 C528 1.518 . S
C2188 C782 1.441 . S
C2169 C547 1.507 . S
C2205 C586 1.469 . S
C2224 C790 1.466 . S
C2241 C406 1.500 . S
C2260 C698 1.478 . S
C2296 C699 1.301 . S
C2277 C216 1.485 . S
C2332 C712 1.494 . S
C2313 C250 1.566 . S
C2368 C733 1.439 . S
C2349 C289 1.455 . S
C2385 C523 1.489 . S
C2404 C656 1.466 . S
C2440 C650 1.533 . S
C2421 C55 1.535 . S
C2457 C99 1.459 . S
C2476 C657 1.167 . S
C2512 C629 1.226 . S
C2493 C21 1.549 . S
