# Generated by pormake.
# Topology zzz, (3,6)-cn, num edge types: 1
# Building blocks:
#     Node 0, Type 0, BuildingBlock: QEWDON_clean_linker_0, # of connection points: 3
#     Node 1, Type 0, BuildingBlock: QEWDON_clean_linker_0, # of connection points: 3
#     Node 2, Type 0, BuildingBlock: QEWDON_clean_linker_0, # of connection points: 3
#     Node 3, Type 0, BuildingBlock: QEWDON_clean_linker_0, # of connection points: 3
#     Node 4, Type 0, BuildingBlock: QEWDON_clean_linker_0, # of connection points: 3
#     Node 5, Type 0, BuildingBlock: QEWDON_clean_linker_0, # of connection points: 3
#     Node 6, Type 0, BuildingBlock: QEWDON_clean_linker_0, # of connection points: 3
#     Node 7, Type 0, BuildingBlock: QEWDON_clean_linker_0, # of connection points: 3
#     Node 8, Type 1, BuildingBlock: KUMBUR_clean_sbu_1, # of connection points: 6
#     Node 9, Type 1, BuildingBlock: KUMBUR_clean_sbu_1, # of connection points: 6
#     Node 10, Type 1, BuildingBlock: KUMBUR_clean_sbu_1, # of connection points: 6
#     Node 11, Type 1, BuildingBlock: KUMBUR_clean_sbu_1, # of connection points: 6
#     Edge 12, Type (0, 1), BuildingBlock: EZIPEK_clean_linker_0, # of connection points: 2
#     Edge 13, Type (0, 1), BuildingBlock: EZIPEK_clean_linker_0, # of connection points: 2
#     Edge 14, Type (0, 1), BuildingBlock: EZIPEK_clean_linker_0, # of connection points: 2
#     Edge 15, Type (0, 1), BuildingBlock: EZIPEK_clean_linker_0, # of connection points: 2
#     Edge 16, Type (0, 1), BuildingBlock: EZIPEK_clean_linker_0, # of connection points: 2
#     Edge 17, Type (0, 1), BuildingBlock: EZIPEK_clean_linker_0, # of connection points: 2
#     Edge 18, Type (0, 1), BuildingBlock: EZIPEK_clean_linker_0, # of connection points: 2
#     Edge 19, Type (0, 1), BuildingBlock: EZIPEK_clean_linker_0, # of connection points: 2
#     Edge 20, Type (0, 1), BuildingBlock: EZIPEK_clean_linker_0, # of connection points: 2
#     Edge 21, Type (0, 1), BuildingBlock: EZIPEK_clean_linker_0, # of connection points: 2
#     Edge 22, Type (0, 1), BuildingBlock: EZIPEK_clean_linker_0, # of connection points: 2
#     Edge 23, Type (0, 1), BuildingBlock: EZIPEK_clean_linker_0, # of connection points: 2
#     Edge 24, Type (0, 1), BuildingBlock: EZIPEK_clean_linker_0, # of connection points: 2
#     Edge 25, Type (0, 1), BuildingBlock: EZIPEK_clean_linker_0, # of connection points: 2
#     Edge 26, Type (0, 1), BuildingBlock: EZIPEK_clean_linker_0, # of connection points: 2
#     Edge 27, Type (0, 1), BuildingBlock: EZIPEK_clean_linker_0, # of connection points: 2
#     Edge 28, Type (0, 1), BuildingBlock: EZIPEK_clean_linker_0, # of connection points: 2
#     Edge 29, Type (0, 1), BuildingBlock: EZIPEK_clean_linker_0, # of connection points: 2
#     Edge 30, Type (0, 1), BuildingBlock: EZIPEK_clean_linker_0, # of connection points: 2
#     Edge 31, Type (0, 1), BuildingBlock: EZIPEK_clean_linker_0, # of connection points: 2
#     Edge 32, Type (0, 1), BuildingBlock: EZIPEK_clean_linker_0, # of connection points: 2
#     Edge 33, Type (0, 1), BuildingBlock: EZIPEK_clean_linker_0, # of connection points: 2
#     Edge 34, Type (0, 1), BuildingBlock: EZIPEK_clean_linker_0, # of connection points: 2
#     Edge 35, Type (0, 1), BuildingBlock: EZIPEK_clean_linker_0, # of connection points: 2
# Relax obj value: 0.161
# Max RMSD: 0.111
# Mean RMSD: 0.043
data_MOF--net-zzz--node1-KUMBUR_clean_sbu_1--node2-QEWDON_clean_linker_0--edge1-EZIPEK_clean_linker_0
_symmetry_space_group_name_H-M    P1
_symmetry_Int_Tables_number       1
_symmetry_cell_setting            triclinic
loop_
_symmetry_equiv_pos_as_xyz
'x, y, z'
_cell_length_a     40.647147
_cell_length_b     40.608316
_cell_length_c     11.673756
_cell_angle_alpha  89.946189
_cell_angle_beta   89.800053
_cell_angle_gamma 90.150069
loop_
_atom_site_label
_atom_site_type_symbol
_atom_site_fract_x
_atom_site_fract_y
_atom_site_fract_z
_atom_type_partial_charge
H0 H 0.77913 0.57094 0.14667 0.0
C1 C 0.79567 0.56195 0.2111 0.0
C2 C 0.82954 0.56618 0.19354 0.0
C3 C 0.78272 0.5457 0.30716 0.0
H4 H 0.87764 0.56154 0.27246 0.0
C5 C 0.85141 0.55813 0.28357 0.0
C6 C 0.84097 0.54327 0.386 0.0
C7 C 0.80604 0.53644 0.39653 0.0
C8 C 0.7449 0.53991 0.30946 0.0
H9 H 0.79745 0.52355 0.47204 0.0
C10 C 0.72397 0.53964 0.20779 0.0
C11 C 0.68857 0.53734 0.21485 0.0
C12 C 0.72879 0.53686 0.41557 0.0
H13 H 0.74257 0.53742 0.49463 0.0
C14 C 0.69448 0.53431 0.42271 0.0
H15 H 0.73479 0.54097 0.12321 0.0
C16 C 0.67478 0.5347 0.32468 0.0
H17 H 0.64832 0.53307 0.33481 0.0
H18 H 0.68288 0.53251 0.50607 0.0
H19 H 0.97689 0.75345 0.18156 0.0
C20 C 0.98529 0.77062 0.24517 0.0
C21 C 0.97292 0.80272 0.24103 0.0
C22 C 1.00904 0.76088 0.32508 0.0
H23 H 0.96788 0.84804 0.33868 0.0
C24 C 0.9793 0.82407 0.33454 0.0
C25 C 1.00326 0.81739 0.41697 0.0
C26 C 0.01865 0.78528 0.41094 0.0
C27 C 0.02266 0.72532 0.31412 0.0
H28 H 0.03806 0.77983 0.47102 0.0
C29 C 0.01961 0.70475 0.21184 0.0
C30 C 0.02954 0.67066 0.20979 0.0
C31 C 0.0377 0.71073 0.4095 0.0
H32 H 0.04077 0.72423 0.48852 0.0
C33 C 0.04836 0.67805 0.40674 0.0
H34 H 1.0101 0.71485 0.13307 0.0
C35 C 0.04347 0.65818 0.31079 0.0
H36 H 0.05142 0.63275 0.31484 0.0
H37 H 0.06019 0.66769 0.48129 0.0
H38 H 0.77003 0.9857 0.17398 0.0
C39 C 0.75595 0.99206 0.24935 0.0
C40 C 0.72205 0.98634 0.24649 0.0
C41 C 0.77104 1.0071 0.34431 0.0
H42 H 0.67636 0.98755 0.3397 0.0
C43 C 0.70264 0.99212 0.34401 0.0
C44 C 0.71472 1.00854 0.43975 0.0
C45 C 0.74948 1.01626 0.43973 0.0
C46 C 0.80876 1.01288 0.33992 0.0
H47 H 0.75917 0.02999 0.51141 0.0
C48 C 0.82866 1.01275 0.23555 0.0
C49 C 0.86397 1.01637 0.23773 0.0
C50 C 0.82581 0.01689 0.44359 0.0
H51 H 0.81294 1.0164 0.52477 0.0
C52 C 0.85996 0.02072 0.44593 0.0
H53 H 0.81717 1.0105 0.15266 0.0
C54 C 0.87864 0.02037 0.3454 0.0
H55 H 0.90504 0.02348 0.35171 0.0
H56 H 0.87225 0.02372 0.52741 0.0
H57 H 0.53003 0.78774 0.12247 0.0
C58 C 0.53115 0.77178 0.19662 0.0
C59 C 0.5208 0.73971 0.18201 0.0
C60 C 0.54193 0.78348 0.30179 0.0
H61 H 0.51609 0.69129 0.25076 0.0
C62 C 0.52378 0.71632 0.26918 0.0
C63 C 0.53431 0.72488 0.38028 0.0
C64 C 0.54358 0.75949 0.39608 0.0
C65 C 0.55259 0.82013 0.30133 0.0
H66 H 0.55131 0.76767 0.47995 0.0
C67 C 0.54041 0.84442 0.21906 0.0
C68 C 0.55533 0.87637 0.20461 0.0
C69 C 0.57877 0.83002 0.37099 0.0
H70 H 0.58938 0.81304 0.43202 0.0
C71 C 0.593 0.86127 0.35877 0.0
H72 H 0.51965 0.83867 0.16494 0.0
C73 C 0.58146 0.88401 0.27812 0.0
H74 H 0.59324 0.90788 0.27317 0.0
H75 H 0.61377 0.86785 0.41189 0.0
H76 H 0.29189 0.46272 0.24531 0.0
C77 C 0.27399 0.4695 0.18137 0.0
C78 C 0.24332 0.45366 0.18151 0.0
C79 C 0.27903 0.4987 0.12032 0.0
H80 H 0.19902 0.44628 0.08102 0.0
C81 C 0.22122 0.4607 0.09053 0.0
C82 C 0.22408 0.4891 0.02244 0.0
C83 C 0.25332 0.50887 0.04104 0.0
C84 C 0.30523 0.52153 0.17215 0.0
H85 H 0.25566 0.53223 0.99702 0.0
C86 C 0.33729 0.51078 0.21421 0.0
C87 C 0.35601 0.53018 0.29568 0.0
C88 C 0.29405 0.55249 0.20743 0.0
H89 H 0.27023 0.56151 0.18048 0.0
C90 C 0.3113 0.57081 0.28792 0.0
H91 H 0.347 0.48747 0.18497 0.0
C92 C 0.34074 0.55942 0.33389 0.0
H93 H 0.35219 0.5745 0.39915 0.0
H94 H 0.30114 0.59387 0.31804 0.0
H95 H 0.99707 0.26819 0.2874 0.0
C96 C 1.00612 0.25063 0.225 0.0
C97 C 0.99518 0.21828 0.23388 0.0
C98 C 0.02564 0.26119 0.13357 0.0
H99 H 0.99491 0.16958 0.16245 0.0
C100 C 1.00431 0.19448 0.15307 0.0
C101 C 0.02312 0.20268 0.05621 0.0
C102 C 0.03374 0.23678 0.04619 0.0
C103 C 0.03146 0.29865 0.12668 0.0
H104 H 0.04742 0.24422 0.97081 0.0
C105 C 0.03342 0.31997 0.2268 0.0
C106 C 0.03123 0.35528 0.21809 0.0
C107 C 0.02874 0.31408 0.01973 0.0
H108 H 0.02629 0.2996 0.94242 0.0
C109 C 0.02626 0.34832 0.01107 0.0
H110 H 0.03545 0.30923 0.31133 0.0
C111 C 0.02733 0.3685 0.10801 0.0
H112 H 0.0244 0.39482 0.09712 0.0
H113 H 0.02236 0.35936 0.92792 0.0
H114 H 0.2619 0.07762 0.27081 0.0
C115 C 0.27903 0.07054 0.20428 0.0
C116 C 0.30943 0.08707 0.19657 0.0
C117 C 0.27287 0.04151 0.14305 0.0
H118 H 0.35374 0.09239 0.0933 0.0
C119 C 0.33119 0.07864 0.10617 0.0
C120 C 0.32734 0.05004 0.04088 0.0
C121 C 0.29777 0.03106 0.06093 0.0
C122 C 0.24499 0.0194 0.18951 0.0
H123 H 0.29455 1.00814 0.01511 0.0
C124 C 0.21405 0.03126 0.23791 0.0
C125 C 0.19242 1.01002 0.30416 0.0
C126 C 0.25238 0.986 0.20501 0.0
H127 H 0.27523 0.97582 0.1731 0.0
C128 C 0.23207 0.96558 0.26999 0.0
H129 H 0.20718 0.05671 0.22501 0.0
C130 C 0.20337 0.97744 0.3207 0.0
H131 H 0.18917 0.96042 0.37266 0.0
H132 H 0.23911 0.94018 0.2837 0.0
H133 H 0.56362 0.28016 0.27497 0.0
C134 C 0.55374 0.29687 0.21216 0.0
C135 C 0.56607 0.32888 0.21288 0.0
C136 C 0.52916 0.287 0.13564 0.0
H137 H 0.56674 0.37666 0.13534 0.0
C138 C 0.55621 0.35208 0.1318 0.0
C139 C 0.5346 0.34406 0.04329 0.0
C140 C 0.52028 0.31114 0.04688 0.0
C141 C 0.51457 0.25164 0.15163 0.0
H142 H 0.50287 0.30479 0.98086 0.0
C143 C 0.52141 0.22977 0.24895 0.0
C144 C 0.50788 0.1969 0.25822 0.0
C145 C 0.49295 0.23913 0.06868 0.0
H146 H 0.48623 0.25348 0.99455 0.0
C147 C 0.47914 0.20771 0.07885 0.0
H148 H 0.53655 0.23776 0.31932 0.0
C149 C 0.48687 0.18682 0.16987 0.0
H150 H 0.47567 0.16258 0.17239 0.0
H151 H 0.4618 0.19948 0.01511 0.0
Tb152 Tb 0.98866 0.02643 0.61448 0.0
C153 C 0.11197 0.04086 0.93496 0.0
N154 N 0.10482 0.01997 0.84722 0.0
C155 C 0.16157 0.0212 0.78764 0.0
C156 C 0.14427 0.05265 0.95232 0.0
C157 C 0.12936 1.00969 0.77474 0.0
C158 C 0.16911 0.04267 0.87696 0.0
C159 C 0.09284 0.07377 0.09537 0.0
C160 C 0.08658 0.05122 1.00603 0.0
C161 C 0.12513 0.08461 0.11524 0.0
C162 C 0.15075 0.07418 0.04363 0.0
Tb163 Tb 0.05158 1.00047 0.84546 0.0
N164 N 0.05545 0.04074 0.98291 0.0
C165 C 0.06633 0.08553 0.15997 0.0
C166 C 0.02961 0.0521 0.04657 0.0
C167 C 0.03455 0.07494 0.13448 0.0
H168 H 0.12481 0.99132 0.71006 0.0
H169 H 1.01386 0.0837 0.18441 0.0
H170 H 0.92482 0.99039 0.75637 0.0
H171 H 0.03846 1.00499 0.19208 0.0
H172 H 1.00532 0.04281 0.03363 0.0
H173 H 0.0701 0.10301 0.2288 0.0
H174 H 0.03562 0.03322 0.37544 0.0
H175 H 0.18075 1.01292 0.72997 0.0
H176 H 0.13044 0.10167 0.18412 0.0
H177 H 0.17544 0.08329 0.05856 0.0
H178 H 0.88163 0.95078 0.71343 0.0
H179 H 0.19419 0.05125 0.88737 0.0
H180 H 0.99184 0.9702 0.12754 0.0
N181 N 0.94833 0.98714 0.59354 0.0
C182 C 0.94531 0.97558 0.48422 0.0
C183 C 0.89971 0.95709 0.64866 0.0
C184 C 0.91955 0.95395 0.45429 0.0
C185 C 0.9252 0.97899 0.67419 0.0
C186 C 0.89689 0.94443 0.53833 0.0
N187 N 0.99333 1.00637 0.43331 0.0
C188 C 0.01691 1.01533 0.3556 0.0
C189 C 0.96655 0.97307 0.29019 0.0
C190 C 0.9685 0.98546 0.40232 0.0
C191 C 0.99182 0.9805 0.21301 0.0
C192 C 0.01771 1.00067 0.24776 0.0
H193 H 0.87675 0.92791 0.5183 0.0
H194 H 0.89693 0.92677 0.31604 0.0
H195 H 0.93848 0.94293 0.17422 0.0
O196 O 0.98291 0.07024 0.51645 0.0
O197 O 0.99899 0.97219 0.61061 0.0
O198 O 0.03884 0.95588 0.73879 0.0
O199 O 0.9418 0.03992 0.56195 0.0
O200 O 0.04226 0.03646 0.57226 0.0
O201 O 0.06797 0.99442 0.6665 0.0
O202 O 0.04522 0.97474 0.9994 0.0
O203 O 0.05115 0.05491 0.80642 0.0
O204 O 0.9985 0.06373 0.7508 0.0
O205 O 0.08958 0.96928 0.90192 0.0
O206 O 0.99843 0.99548 0.90106 0.0
O207 O 0.96735 0.03015 0.78779 0.0
C208 C 0.01769 0.94894 0.65532 0.0
C209 C 0.93088 0.09581 0.55481 0.0
C210 C 0.91758 0.15367 0.53584 0.0
C211 C 0.89383 0.15102 0.62242 0.0
C212 C 0.90701 0.09314 0.64265 0.0
C213 C 0.88852 0.12061 0.67549 0.0
C214 C 0.93554 0.12601 0.5011 0.0
C215 C 0.06827 0.01681 0.58476 0.0
C216 C 0.95087 0.0675 0.51782 0.0
C217 C 0.91682 0.943 0.34119 0.0
C218 C 0.94017 0.95269 0.25976 0.0
C219 C 0.02661 0.0758 0.7896 0.0
C220 C 0.07165 0.92311 1.0044 0.0
C221 C 0.0399 0.87254 0.02247 0.0
C222 C 0.06853 0.85587 0.05643 0.0
C223 C 0.10003 0.90626 0.03859 0.0
C224 C 0.04205 0.90578 0.99096 0.0
C225 C 0.09853 0.8726 0.06271 0.0
C226 C 0.97115 1.01283 0.88231 0.0
C227 C 0.07287 0.95894 0.98927 0.0
H228 H 0.87992 0.17237 0.64948 0.0
H229 H 0.90269 0.07 0.68646 0.0
H230 H 0.87036 0.11838 0.74308 0.0
H231 H 0.95388 0.1283 0.43367 0.0
H232 H 0.06743 0.83024 0.08196 0.0
H233 H 0.12316 0.91925 0.04849 0.0
H234 H 0.01998 0.91878 0.9661 0.0
H235 H 0.12041 0.85973 0.0902 0.0
Tb236 Tb 0.53512 0.06736 0.85744 0.0
C237 C 0.52286 0.93274 0.63779 0.0
N238 N 0.53855 0.96033 0.5981 0.0
C239 C 0.58564 0.9271 0.54904 0.0
C240 C 0.53856 0.90172 0.63835 0.0
C241 C 0.56905 0.95717 0.5482 0.0
C242 C 0.57063 0.89943 0.59647 0.0
C243 C 0.47269 0.90677 0.70806 0.0
C244 C 0.49027 0.93508 0.6732 0.0
C245 C 0.48881 0.87631 0.71342 0.0
C246 C 0.5217 0.87382 0.67901 0.0
Tb247 Tb 0.5083 1.00836 0.62093 0.0
N248 N 0.47536 0.96496 0.66905 0.0
C249 C 0.43915 0.90973 0.73332 0.0
C250 C 0.44211 0.96745 0.68454 0.0
C251 C 0.42366 0.94007 0.71891 0.0
H252 H 0.58163 0.97733 0.50783 0.0
H253 H 0.39747 0.94236 0.73375 0.0
H254 H 0.46421 0.10551 0.90095 0.0
H255 H 0.6579 0.11901 0.79885 0.0
H256 H 0.42947 0.99037 0.67003 0.0
H257 H 0.42479 0.88854 0.75996 0.0
H258 H 0.61833 0.07661 0.85749 0.0
H259 H 0.61012 0.92535 0.51274 0.0
H260 H 0.47583 0.85438 0.74142 0.0
H261 H 0.53362 0.84999 0.68123 0.0
H262 H 0.44 0.15968 0.85534 0.0
H263 H 0.58369 0.87622 0.59815 0.0
H264 H 0.6385 0.17374 0.73583 0.0
N265 N 0.51148 0.11797 0.83513 0.0
C266 C 0.53175 0.14276 0.80081 0.0
C267 C 0.46578 0.15513 0.83822 0.0
C268 C 0.51937 0.17441 0.77725 0.0
C269 C 0.47945 0.12439 0.86304 0.0
C270 C 0.48572 0.18011 0.79317 0.0
N271 N 0.57585 0.10545 0.81722 0.0
C272 C 0.60902 0.09972 0.82548 0.0
C273 C 0.58705 0.16161 0.75975 0.0
C274 C 0.565 0.13623 0.79095 0.0
C275 C 0.62077 0.15493 0.75937 0.0
C276 C 0.63179 0.12403 0.79441 0.0
H277 H 0.47516 0.20403 0.77528 0.0
H278 H 0.53193 0.22376 0.72111 0.0
H279 H 0.59131 0.21263 0.70653 0.0
O280 O 0.5587 0.09003 0.99704 0.0
O281 O 0.50943 0.08676 0.70301 0.0
O282 O 0.53012 0.05621 0.56056 0.0
O283 O 0.51497 0.06142 0.02198 0.0
O284 O 0.57867 0.04229 0.77433 0.0
O285 O 0.56115 0.0216 0.60061 0.0
O286 O 0.48462 0.03386 0.49167 0.0
O287 O 0.50769 0.98937 0.80194 0.0
O288 O 0.55153 1.01529 0.88086 0.0
O289 O 0.49157 0.98198 0.47478 0.0
O290 O 0.46635 0.03454 0.70688 0.0
O291 O 0.48436 0.04697 0.88775 0.0
C292 C 0.52148 0.08559 0.59849 0.0
C293 C 0.55876 0.05063 0.14251 0.0
C294 C 0.60568 1.0143 0.16706 0.0
C295 C 0.59162 1.00263 0.26961 0.0
C296 C 0.54507 0.03918 0.24499 0.0
C297 C 0.56102 1.01449 0.30635 0.0
C298 C 0.588 0.03664 0.10099 0.0
C299 C 0.58524 0.03108 0.66943 0.0
C300 C 0.54088 0.07375 0.07014 0.0
C301 C 0.54099 0.19932 0.74061 0.0
C302 C 0.57479 0.19296 0.73221 0.0
C303 C 0.53198 0.98928 0.87692 0.0
C304 C 0.4408 1.00532 0.41107 0.0
C305 C 0.38867 0.034 0.38789 0.0
C306 C 0.37448 1.00478 0.34648 0.0
C307 C 0.42655 0.97638 0.36831 0.0
C308 C 0.42099 0.03335 0.42615 0.0
C309 C 0.39323 0.97599 0.33871 0.0
C310 C 0.45996 0.04001 0.81661 0.0
C311 C 0.47626 1.00768 0.43595 0.0
H312 H 0.60445 0.98461 0.32105 0.0
H313 H 0.52172 0.04859 0.27549 0.0
H314 H 0.54973 1.00514 0.38336 0.0
H315 H 0.59783 0.04392 0.01839 0.0
H316 H 0.34908 1.00441 0.31864 0.0
H317 H 0.44102 0.95425 0.3577 0.0
H318 H 0.43096 0.05561 0.46245 0.0
H319 H 0.38216 0.9536 0.30638 0.0
Tb320 Tb 0.5614 0.52684 0.59582 0.0
C321 C 0.44772 0.49716 0.94615 0.0
N322 N 0.45022 0.51762 0.85348 0.0
C323 C 0.39416 0.50469 0.80334 0.0
C324 C 0.41844 0.4795 0.96956 0.0
C325 C 0.42341 0.522 0.78402 0.0
C326 C 0.39166 0.48331 0.89623 0.0
C327 C 0.47311 0.47242 0.11337 0.0
C328 C 0.47449 0.49423 0.01912 0.0
C329 C 0.444 0.45502 0.13684 0.0
C330 C 0.41668 0.4587 0.06554 0.0
Tb331 Tb 0.49941 0.54618 0.83773 0.0
N332 N 0.50233 0.51185 0.99504 0.0
C333 C 0.50116 0.4684 0.1807 0.0
C334 C 0.52897 0.50943 0.06596 0.0
C335 C 0.52928 0.48678 0.15618 0.0
H336 H 0.42348 0.53959 0.7153 0.0
H337 H 0.55083 0.48457 0.20987 0.0
H338 H 0.62631 0.56522 0.71206 0.0
H339 H 0.49223 0.5526 0.20557 0.0
H340 H 0.5499 0.52524 0.05652 0.0
H341 H 0.5012 0.45158 0.25285 0.0
H342 H 0.50973 0.51812 0.36471 0.0
H343 H 0.3733 0.50834 0.74741 0.0
H344 H 0.44241 0.4385 0.20963 0.0
H345 H 0.39436 0.44511 0.08485 0.0
H346 H 0.66218 0.61242 0.6651 0.0
H347 H 0.36879 0.4702 0.91143 0.0
H348 H 0.52329 0.60295 0.15652 0.0
N349 N 0.59536 0.57154 0.56652 0.0
C350 C 0.59009 0.58865 0.46786 0.0
C351 C 0.64188 0.60614 0.60944 0.0
C352 C 0.60994 0.61599 0.43865 0.0
C353 C 0.62132 0.57961 0.63637 0.0
C354 C 0.6361 0.62448 0.51049 0.0
N355 N 0.54531 0.55261 0.42828 0.0
C356 C 0.52169 0.54159 0.35389 0.0
C357 C 0.55664 0.59816 0.29953 0.0
C358 C 0.56377 0.57953 0.3988 0.0
C359 C 0.53002 0.58883 0.23161 0.0
C360 C 0.51243 0.56048 0.25922 0.0
H361 H 0.65191 0.64525 0.49055 0.0
H362 H 0.61763 0.65555 0.31671 0.0
H363 H 0.57082 0.64015 0.19553 0.0
O364 O 0.57394 0.48964 0.47477 0.0
O365 O 0.55564 0.5785 0.662 0.0
O366 O 0.50166 0.58327 0.69278 0.0
O367 O 0.61052 0.51915 0.55325 0.0
O368 O 0.50844 0.51168 0.55807 0.0
O369 O 0.47807 0.54748 0.66509 0.0
O370 O 0.50618 0.59113 0.92529 0.0
O371 O 0.51363 0.49297 0.83541 0.0
O372 O 0.54943 0.47993 0.68853 0.0
O373 O 0.46035 0.56501 0.93571 0.0
O374 O 0.55265 0.55519 0.88332 0.0
O375 O 0.58276 0.51972 0.76967 0.0
C376 C 0.52908 0.59673 0.65261 0.0
C377 C 0.62568 0.4649 0.52197 0.0
C378 C 0.63883 0.4071 0.49832 0.0
C379 C 0.66422 0.40972 0.57847 0.0
C380 C 0.6514 0.46745 0.60271 0.0
C381 C 0.6705 0.44001 0.63034 0.0
C382 C 0.6199 0.43466 0.46952 0.0
C383 C 0.47995 0.52699 0.5785 0.0
C384 C 0.60532 0.49365 0.49146 0.0
C385 C 0.60281 0.63434 0.33999 0.0
C386 C 0.57611 0.6256 0.27112 0.0
C387 C 0.53149 0.47112 0.77887 0.0
C388 C 0.45741 0.62098 0.893 0.0
C389 C 0.45497 0.67951 0.85499 0.0
C390 C 0.43178 0.67448 0.76853 0.0
C391 C 0.43317 0.61604 0.80852 0.0
C392 C 0.46776 0.65278 0.91639 0.0
C393 C 0.42067 0.64262 0.74618 0.0
C394 C 0.58 0.53795 0.86323 0.0
C395 C 0.47472 0.59318 0.94674 0.0
H396 H 0.6787 0.38838 0.60152 0.0
H397 H 0.65676 0.49053 0.64517 0.0
H398 H 0.69001 0.4422 0.69277 0.0
H399 H 0.60026 0.43229 0.40726 0.0
H400 H 0.42192 0.69508 0.72079 0.0
H401 H 0.42428 0.59169 0.78875 0.0
H402 H 0.48612 0.6568 0.98234 0.0
H403 H 0.40242 0.63845 0.6804 0.0
Tb404 Tb 0.04682 0.54618 0.5942 0.0
C405 C 0.06583 0.43854 0.94376 0.0
N406 N 0.04985 0.44071 0.84171 0.0
C407 C 0.07151 0.38795 0.78654 0.0
C408 C 0.08554 0.411 0.97003 0.0
C409 C 0.05093 0.41484 0.76664 0.0
C410 C 0.08909 0.38609 0.88848 0.0
C411 C 0.07787 0.46201 0.12959 0.0
C412 C 0.06257 0.46424 0.02196 0.0
C413 C 0.09517 0.43351 0.15868 0.0
C414 C 0.09993 0.40849 0.07841 0.0
Tb415 Tb 0.0158 0.48539 0.82515 0.0
N416 N 0.04359 0.49075 0.99437 0.0
C417 C 0.07549 0.48852 0.20505 0.0
C418 C 0.03943 0.51563 0.07194 0.0
C419 C 0.05733 0.51601 0.17369 0.0
H420 H 0.03534 0.41375 0.69303 0.0
H421 H 0.05647 0.53723 0.22923 0.0
H422 H 0.07616 0.61273 0.7322 0.0
H423 H 0.9731 0.54709 0.21145 0.0
H424 H 0.02206 0.53506 0.05835 0.0
H425 H 0.08754 0.488 0.28755 0.0
H426 H 1.01403 0.52541 0.34718 0.0
H427 H 0.07271 0.36799 0.72528 0.0
H428 H 0.10561 0.43109 0.24291 0.0
H429 H 0.11417 0.38701 0.10178 0.0
H430 H 0.0562 0.66831 0.781 0.0
H431 H 0.10416 0.36468 0.90547 0.0
H432 H 0.94471 0.59995 0.25344 0.0
N433 N 0.03494 0.60106 0.62693 0.0
C434 C 1.00873 0.61355 0.57048 0.0
C435 C 0.04231 0.65302 0.7226 0.0
C436 C 0.99709 0.64565 0.59172 0.0
C437 C 0.05339 0.62136 0.6952 0.0
C438 C 1.01346 0.66492 0.67294 0.0
N439 N 1.00991 0.5656 0.46162 0.0
C440 C 1.00309 0.5492 0.36217 0.0
C441 C 0.9721 0.6086 0.40895 0.0
C442 C 0.99623 0.59538 0.4819 0.0
C443 C 0.96321 0.59071 0.31144 0.0
C444 C 0.97929 0.56114 0.28686 0.0
H445 H 1.00531 0.68969 0.69223 0.0
H446 H 0.96176 0.68275 0.54048 0.0
H447 H 0.93998 0.65026 0.37912 0.0
O448 O 0.07946 0.52569 0.47671 0.0
O449 O 0.9947 0.53022 0.57087 0.0
O450 O 0.97451 0.51416 0.74498 0.0
O451 O 0.07982 0.57781 0.50553 0.0
O452 O 0.0472 0.49287 0.53913 0.0
O453 O 1.01042 0.46456 0.65281 0.0
O454 O 0.9921 0.47037 0.97614 0.0
O455 O 0.07098 0.48603 0.78655 0.0
O456 O 0.08358 0.53814 0.73189 0.0
O457 O 0.98044 0.44726 0.81705 0.0
O458 O 1.00515 0.53828 0.86585 0.0
O459 O 0.04985 0.56042 0.77838 0.0
C460 C 0.96932 0.52329 0.63725 0.0
C461 C 0.1311 0.55179 0.4627 0.0
C462 C 0.18076 0.51862 0.43962 0.0
C463 C 0.19919 0.54761 0.42388 0.0
C464 C 0.14991 0.58048 0.44709 0.0
C465 C 0.18392 0.57836 0.4305 0.0
C466 C 0.14715 0.5211 0.46617 0.0
C467 C 0.02878 0.46631 0.55998 0.0
C468 C 0.0948 0.55319 0.45746 0.0
C469 C 0.97116 0.65819 0.52535 0.0
C470 C 0.95883 0.63974 0.43331 0.0
C471 C 0.09304 0.51035 0.77988 0.0
C472 C 0.9386 0.45197 0.95616 0.0
C473 C 0.89277 0.48889 0.9883 0.0
C474 C 0.87836 0.4654 0.06163 0.0
C475 C 0.92443 0.42883 0.03061 0.0
C476 C 0.92153 0.48084 0.92953 0.0
C477 C 0.89387 0.43522 0.08087 0.0
C478 C 0.02571 0.56332 0.85342 0.0
C479 C 0.97333 0.44918 0.92533 0.0
H480 H 0.22508 0.54644 0.40198 0.0
H481 H 0.13819 0.60439 0.44374 0.0
H482 H 0.19822 0.60055 0.41681 0.0
H483 H 0.13306 0.49861 0.47718 0.0
H484 H 0.85561 0.47081 0.10635 0.0
H485 H 0.93749 0.40651 0.053 0.0
H486 H 0.93199 0.49854 0.87142 0.0
H487 H 0.88298 0.4175 0.13911 0.0
C488 C 0.13257 0.99447 0.34696 0.0
C489 C 0.15805 0.0184 0.357 0.0
C490 C 0.12004 0.04671 0.4957 0.0
C491 C 0.09867 0.01854 0.50267 0.0
N492 N 0.09766 0.96004 0.46141 0.0
N493 N 0.17601 0.06668 0.4601 0.0
C494 C 0.10846 0.99088 0.43547 0.0
C495 C 0.15162 0.04471 0.43585 0.0
N496 N 0.13183 0.97402 0.25442 0.0
N497 N 0.11102 0.07507 0.54946 0.0
H498 H 0.19916 0.06558 0.42193 0.0
H499 H 0.17409 0.08414 0.52511 0.0
H500 H 0.08916 0.07704 0.59581 0.0
H501 H 0.12393 0.09711 0.54003 0.0
H502 H 0.11269 0.95725 0.24153 0.0
H503 H 0.14827 0.97663 0.18602 0.0
H504 H 0.1062 0.93923 0.41821 0.0
H505 H 0.08402 0.95473 0.53451 0.0
C506 C 0.5442 0.15717 0.38196 0.0
C507 C 0.51318 0.17225 0.35898 0.0
C508 C 0.4877 0.12999 0.4885 0.0
C509 C 0.51883 0.11588 0.51637 0.0
N510 N 0.57737 0.1246 0.51302 0.0
N511 N 0.45669 0.17716 0.41854 0.0
C512 C 0.54724 0.13196 0.4695 0.0
C513 C 0.48544 0.15985 0.42135 0.0
N514 N 0.57087 0.16584 0.31732 0.0
N515 N 0.4598 0.114 0.52187 0.0
H516 H 0.45437 0.19926 0.37369 0.0
H517 H 0.43647 0.17161 0.47018 0.0
H518 H 0.46066 0.09179 0.56588 0.0
H519 H 0.43628 0.12074 0.49585 0.0
H520 H 0.59313 0.1532 0.32045 0.0
H521 H 0.56989 0.18398 0.25419 0.0
H522 H 0.59869 0.13756 0.49174 0.0
H523 H 0.58032 0.10775 0.57954 0.0
C524 C 0.4122 0.55157 0.3573 0.0
C525 C 0.39142 0.52377 0.34369 0.0
C526 C 0.43429 0.49428 0.4611 0.0
C527 C 0.44956 0.52476 0.49558 0.0
N528 N 0.43352 0.5826 0.51217 0.0
N529 N 0.38318 0.46716 0.40076 0.0
C530 C 0.43333 0.55364 0.45374 0.0
C531 C 0.40283 0.49437 0.39949 0.0
N532 N 0.41008 0.57753 0.28369 0.0
N533 N 0.44853 0.46526 0.49165 0.0
H534 H 0.36025 0.46665 0.3614 0.0
H535 H 0.38853 0.44622 0.44881 0.0
H536 H 0.46968 0.46419 0.54173 0.0
H537 H 0.44041 0.44258 0.46087 0.0
H538 H 0.42528 0.59817 0.29164 0.0
H539 H 0.39552 0.5766 0.21019 0.0
H540 H 0.41937 0.60265 0.48577 0.0
H541 H 0.44477 0.58613 0.59054 0.0
C542 C 1.0 0.39475 0.35363 0.0
C543 C 0.03002 0.37966 0.3198 0.0
C544 C 0.05957 0.42085 0.44174 0.0
C545 C 0.02919 0.43592 0.47756 0.0
N546 N 0.97005 0.42649 0.49399 0.0
N547 N 0.08692 0.37348 0.34831 0.0
C548 C 0.99936 0.41968 0.44162 0.0
C549 C 0.05939 0.39146 0.37016 0.0
N550 N 0.97154 0.38564 0.30022 0.0
N551 N 0.08865 0.43423 0.47738 0.0
H552 H 0.10994 0.37783 0.38434 0.0
H553 H 0.10994 0.37783 0.38434 0.0
H554 H 0.08999 0.45355 0.53542 0.0
H555 H 0.11166 0.42729 0.4469 0.0
H556 H 0.94972 0.39891 0.30767 0.0
H557 H 0.9703 0.36608 0.2425 0.0
H558 H 0.94892 0.41239 0.48128 0.0
H559 H 0.96673 0.44408 0.55721 0.0
C560 C 0.90629 0.04548 0.106 0.0
C561 C 0.88723 0.01691 0.13218 0.0
C562 C 0.92336 0.98515 0.99774 0.0
C563 C 0.94261 1.01385 0.97143 0.0
N564 N 0.94667 0.07315 0.98583 0.0
N565 N 0.87392 0.96166 0.09213 0.0
C566 C 0.93221 0.04447 0.02109 0.0
C567 C 0.8947 0.98742 0.0727 0.0
N568 N 0.90001 0.07391 0.16468 0.0
N569 N 0.9328 0.95564 0.9521 0.0
H570 H 0.87541 0.93877 0.05229 0.0
H571 H 0.87541 0.93877 0.05229 0.0
H572 H 0.95288 0.95336 0.8971 0.0
H573 H 0.92216 0.93305 0.97191 0.0
H574 H 0.91576 0.09417 0.16503 0.0
H575 H 0.87954 0.07669 0.21791 0.0
H576 H 0.93744 0.09642 1.00468 0.0
H577 H 0.96697 0.07396 0.93182 0.0
C578 C 0.52556 0.93015 0.14615 0.0
C579 C 0.54526 0.90266 0.11436 0.0
C580 C 0.55808 0.93276 0.93148 0.0
C581 C 0.53671 0.95949 0.96006 0.0
N582 N 0.50072 0.98217 0.1063 0.0
N583 N 0.57621 0.87622 0.96505 0.0
C584 C 0.52058 0.95753 0.06942 0.0
C585 C 0.56005 0.90353 1.0031 0.0
N586 N 0.51113 0.93054 0.25186 0.0
N587 N 0.5789 0.9364 0.84054 0.0
H588 H 0.57867 0.85506 0.01505 0.0
H589 H 0.58451 0.87352 0.88106 0.0
H590 H 0.57886 0.95736 0.78905 0.0
H591 H 0.59815 0.9203 0.82298 0.0
H592 H 0.49673 0.95015 0.28 0.0
H593 H 0.51338 0.91124 0.31038 0.0
H594 H 0.49588 1.00331 0.05895 0.0
H595 H 0.49588 1.00331 0.05895 0.0
C596 C 0.65099 0.50785 0.06792 0.0
C597 C 0.66441 0.53765 0.11222 0.0
C598 C 0.62407 0.56813 0.98997 0.0
C599 C 0.60892 0.53821 0.95147 0.0
N600 N 0.6041 0.47986 0.98304 0.0
N601 N 0.65978 0.59534 0.13157 0.0
C602 C 0.62168 0.50814 0.99768 0.0
C603 C 0.64966 0.56759 0.07656 0.0
N604 N 0.66623 0.47887 0.09365 0.0
N605 N 0.61482 0.59711 0.94108 0.0
H606 H 0.64917 0.61849 0.12128 0.0
H607 H 0.64917 0.61849 0.12128 0.0
H608 H 0.59632 0.59822 0.88017 0.0
H609 H 0.62716 0.61932 0.95295 0.0
H610 H 0.6601 0.45651 0.05548 0.0
H611 H 0.68705 0.4778 0.14562 0.0
H612 H 0.60959 0.45778 0.02412 0.0
H613 H 0.58162 0.47957 0.94085 0.0
C614 C 0.998 0.63735 0.0508 0.0
C615 C 0.02802 0.64704 0.10501 0.0
C616 C 0.0552 0.60052 1.00279 0.0
C617 C 0.0261 0.59235 0.94067 0.0
N618 N 0.9719 0.61022 0.88787 0.0
N619 N 0.08708 0.64261 0.09968 0.0
C620 C 0.99807 0.61289 0.95995 0.0
C621 C 0.05708 0.63007 0.07028 0.0
N622 N 0.96907 0.65051 0.08817 0.0
N623 N 0.08082 0.57901 1.00424 0.0
H624 H 0.08968 0.66474 0.14421 0.0
H625 H 0.10915 0.63311 0.06836 0.0
H626 H 0.08029 0.55668 0.96081 0.0
H627 H 0.1008 0.5816 0.05931 0.0
H628 H 0.94619 0.6423 0.06011 0.0
H629 H 0.96788 0.66779 0.15399 0.0
H630 H 0.95185 0.62614 0.89 0.0
H631 H 0.97217 0.59434 0.81782 0.0
C632 C 0.93733 0.20461 0.28792 0.0
C633 C 0.97033 0.21047 0.32194 0.0
C634 C 0.95499 0.20018 0.52035 0.0
C635 C 0.92599 0.18506 0.48089 0.0
N636 N 0.88609 0.17661 0.33341 0.0
N637 N 1.01088 0.21542 0.47231 0.0
C638 C 0.91559 0.18943 0.36687 0.0
C639 C 0.97919 0.20953 0.43934 0.0
N640 N 0.92702 0.21356 0.18111 0.0
N641 N 0.95962 0.20387 0.63518 0.0
H642 H 0.02953 0.2217 0.4147 0.0
H643 H 0.01918 0.2118 0.55569 0.0
H644 H 0.94118 0.19741 0.69356 0.0
H645 H 0.97964 0.21622 0.67053 0.0
H646 H 0.90264 0.21192 0.1546 0.0
H647 H 0.94236 0.22559 0.12265 0.0
H648 H 0.8786 0.17512 0.24835 0.0
H649 H 0.86963 0.1664 0.39257 0.0
C650 C 0.35506 0.11625 0.29069 0.0
C651 C 0.3222 0.10567 0.29978 0.0
C652 C 0.33857 0.06639 0.44402 0.0
C653 C 0.36971 0.06527 0.38803 0.0
N654 N 0.41038 0.09623 0.27483 0.0
N655 N 0.28713 0.09704 0.46217 0.0
C656 C 0.37958 0.09309 0.3203 0.0
C657 C 0.31542 0.08999 0.40495 0.0
N658 N 0.36276 0.14399 0.23156 0.0
N659 N 0.33117 0.0447 0.5295 0.0
H660 H 0.27073 0.11447 0.42974 0.0
H661 H 0.28139 0.08734 0.54247 0.0
H662 H 0.34871 0.02851 0.56221 0.0
H663 H 0.30783 0.04279 0.56615 0.0
H664 H 0.34465 0.15986 0.20062 0.0
H665 H 0.34465 0.15986 0.20062 0.0
H666 H 0.41696 0.11637 0.22386 0.0
H667 H 0.42882 0.07877 0.28395 0.0
C668 C 0.6225 0.34708 0.26509 0.0
C669 C 0.59011 0.33878 0.30035 0.0
C670 C 0.60134 0.35986 0.49117 0.0
C671 C 0.62966 0.37546 0.44671 0.0
N672 N 0.66989 0.38228 0.29739 0.0
N673 N 0.54809 0.33669 0.44774 0.0
C674 C 0.6416 0.36782 0.33619 0.0
C675 C 0.57958 0.34407 0.41481 0.0
N676 N 0.6344 0.33559 0.16313 0.0
N677 N 0.59477 0.3618 0.60553 0.0
H678 H 0.53098 0.32556 0.39392 0.0
H679 H 0.5381 0.34363 0.52633 0.0
H680 H 0.61081 0.37381 0.66105 0.0
H681 H 0.57574 0.34898 0.64576 0.0
H682 H 0.6586 0.33894 0.13603 0.0
H683 H 0.62064 0.32013 0.11022 0.0
H684 H 0.67794 0.38103 0.21275 0.0
H685 H 0.68478 0.39661 0.35046 0.0
C686 C 0.19645 0.43605 0.29707 0.0
C687 C 0.23059 0.4385 0.29233 0.0
C688 C 0.22642 0.47608 0.45534 0.0
C689 C 0.19532 0.48596 0.41052 0.0
N690 N 0.1556 0.47646 0.25849 0.0
N691 N 0.27302 0.43814 0.43374 0.0
C692 C 0.18009 0.4653 0.3273 0.0
C693 C 0.24408 0.45077 0.39571 0.0
N694 N 0.1809 0.41016 0.24769 0.0
N695 N 0.23887 0.49118 0.55006 0.0
H696 H 0.28481 0.41946 0.38789 0.0
H697 H 0.28424 0.44506 0.51002 0.0
H698 H 0.22516 0.50826 0.59687 0.0
H699 H 0.26223 0.48659 0.58236 0.0
H700 H 0.15538 0.40829 0.24745 0.0
H701 H 0.19424 0.39031 0.21482 0.0
H702 H 0.14994 0.46409 0.18299 0.0
H703 H 0.14583 0.50008 0.26357 0.0
C704 C 0.9545 0.84988 0.12871 0.0
C705 C 0.95971 0.81599 0.12897 0.0
C706 C 1.00181 0.8246 0.98325 0.0
C707 C 1.00734 0.85612 0.03355 0.0
N708 N 0.98821 0.8962 0.17366 0.0
N709 N 0.96587 0.7761 0.97984 0.0
C710 C 0.98256 0.86939 0.10683 0.0
C711 C 0.97584 0.80477 0.02895 0.0
N712 N 0.92641 0.8624 0.17396 0.0
N713 N 0.02163 0.81372 0.89687 0.0
H714 H 0.94619 0.76277 0.01459 0.0
H715 H 0.97546 0.76702 0.90335 0.0
H716 H 0.03936 0.82893 0.85903 0.0
H717 H 0.02043 0.78999 0.86347 0.0
H718 H 0.92213 0.88766 0.17646 0.0
H719 H 0.90733 0.84687 0.20072 0.0
H720 H 0.97372 0.90041 0.24576 0.0
H721 H 1.0095 0.91037 0.17043 0.0
C722 C 0.67999 0.95938 0.13091 0.0
C723 C 0.70441 0.98392 0.1359 0.0
C724 C 0.66455 0.02688 0.10705 0.0
C725 C 0.63907 1.00352 0.13016 0.0
N726 N 0.62187 0.94686 0.11251 0.0
N727 N 0.72092 0.03587 0.055 0.0
C728 C 0.64654 0.96932 0.12356 0.0
C729 C 0.69679 1.01517 0.09156 0.0
N730 N 0.68884 0.92758 0.15084 0.0
N731 N 0.65928 0.06007 0.10935 0.0
H732 H 0.74538 0.02844 0.04629 0.0
H733 H 0.74538 0.02844 0.04629 0.0
H734 H 0.63744 0.07088 0.13641 0.0
H735 H 0.6781 0.07697 0.09255 0.0
H736 H 0.67212 0.90839 0.16246 0.0
H737 H 0.71364 0.92123 0.15901 0.0
H738 H 0.62598 0.9219 0.09816 0.0
H739 H 0.59732 0.95402 0.10882 0.0
C740 C 0.46705 0.7359 0.08203 0.0
C741 C 0.50188 0.73264 0.07811 0.0
C742 C 0.4992 0.7187 0.87588 0.0
C743 C 0.46547 0.71236 0.89121 0.0
N744 N 0.41503 0.72297 0.98968 0.0
N745 N 0.55197 0.72554 0.96897 0.0
C746 C 0.44855 0.72493 0.98692 0.0
C747 C 0.51838 0.72623 0.97328 0.0
N748 N 0.45201 0.74905 0.17643 0.0
N749 N 0.51258 0.71464 0.76973 0.0
H750 H 0.56664 0.73085 0.0398 0.0
H751 H 0.5653 0.7182 0.89715 0.0
H752 H 0.49785 0.70794 0.7003 0.0
H753 H 0.53686 0.72046 0.74938 0.0
H754 H 0.42699 0.75418 0.18125 0.0
H755 H 0.46488 0.75679 0.24872 0.0
H756 H 0.40065 0.72796 0.06141 0.0
H757 H 0.40166 0.71574 0.91773 0.0
C758 C 0.87635 0.57749 0.06321 0.0
C759 C 0.84225 0.5729 0.07415 0.0
C760 C 0.84509 0.52589 0.9477 0.0
C761 C 0.87846 0.5224 0.98082 0.0
N762 N 0.92866 0.55137 0.03809 0.0
N763 N 0.79886 0.56376 0.93934 0.0
C764 C 0.89537 0.55055 0.02513 0.0
C765 C 0.82782 0.55404 0.98628 0.0
N766 N 0.89094 0.60469 0.10752 0.0
N767 N 0.83009 0.50219 0.88375 0.0
H768 H 0.78779 0.58582 0.96437 0.0
H769 H 0.78804 0.55186 0.8699 0.0
H770 H 0.84313 0.48226 0.85019 0.0
H771 H 0.80494 0.50222 0.86669 0.0
H772 H 0.87733 0.624 0.14286 0.0
H773 H 0.87733 0.624 0.14286 0.0
H774 H 0.94073 0.57245 0.06708 0.0
H775 H 0.94417 0.5318 0.01967 0.0
C776 C 0.0566 0.15596 0.95572 0.0
C777 C 0.02715 0.1749 0.96548 0.0
C778 C 1.0006 0.1337 0.83524 0.0
C779 C 0.02857 0.11231 0.83707 0.0
N780 N 0.08775 0.11449 0.85152 0.0
N781 N 0.97009 0.17988 0.91531 0.0
C782 C 0.05793 0.1266 0.88446 0.0
C783 C 0.999 0.16303 0.90521 0.0
N784 N 0.08328 0.16521 0.01869 0.0
N785 N 0.97704 0.12846 0.75493 0.0
H786 H 0.96867 0.20317 0.95245 0.0
H787 H 0.94736 0.17008 0.89227 0.0
H788 H 0.98173 0.11385 0.6839 0.0
H789 H 0.95604 0.1427 0.74628 0.0
H790 H 0.1041 0.15057 0.02821 0.0
H791 H 0.08363 0.18668 0.06767 0.0
H792 H 0.11009 0.12526 0.87398 0.0
H793 H 0.09023 0.09655 0.78862 0.0
C794 C 0.37987 1.01595 0.99119 0.0
C795 C 0.35712 0.04127 0.9623 0.0
C796 C 0.40022 0.06392 0.82882 0.0
C797 C 0.42365 0.03937 0.86154 0.0
N798 N 0.43086 0.98768 0.9628 0.0
N799 N 0.34341 0.08381 0.82848 0.0
C800 C 0.412 1.01432 0.93851 0.0
C801 C 0.36679 0.06344 0.87306 0.0
N802 N 0.37099 0.99259 0.06934 0.0
N803 N 0.41034 0.08903 0.75958 0.0
H804 H 0.31912 0.08361 0.85781 0.0
H805 H 0.34698 0.09824 0.75575 0.0
H806 H 0.43415 0.09035 0.72769 0.0
H807 H 0.39635 0.10983 0.74179 0.0
H808 H 0.34792 0.99211 0.10845 0.0
H809 H 0.3866 0.97341 0.09296 0.0
H810 H 0.45363 0.98317 0.9248 0.0
H811 H 0.45363 0.98317 0.9248 0.0
C812 C 0.50177 0.39014 0.93488 0.0
C813 C 0.53101 0.37129 0.94924 0.0
C814 C 0.56105 0.4155 0.8382 0.0
C815 C 0.53157 0.43469 0.82502 0.0
N816 N 0.47243 0.43196 0.82594 0.0
N817 N 0.58711 0.36325 0.89227 0.0
C818 C 0.50159 0.41947 0.86352 0.0
C819 C 0.56005 0.38322 0.89262 0.0
N820 N 0.47412 0.38089 0.9932 0.0
N821 N 0.59045 0.42828 0.8022 0.0
H822 H 0.58639 0.3392 0.92383 0.0
H823 H 0.60964 0.36901 0.85512 0.0
H824 H 0.59288 0.45079 0.76097 0.0
H825 H 0.61322 0.41797 0.82023 0.0
H826 H 0.45298 0.39529 0.99723 0.0
H827 H 0.4731 0.35967 0.04342 0.0
H828 H 0.44982 0.42056 0.84079 0.0
H829 H 0.47124 0.45161 0.76848 0.0
C830 C 0.17496 0.5269 0.95692 0.0
C831 C 0.19373 0.49752 0.94468 0.0
C832 C 0.14744 0.47642 0.82076 0.0
C833 C 0.12931 0.50672 0.82853 0.0
N834 N 0.13865 0.56532 0.86385 0.0
N835 N 0.20032 0.44807 0.83421 0.0
C836 C 0.14683 0.5333 0.88418 0.0
C837 C 0.18049 0.47343 0.86766 0.0
N838 N 0.18276 0.54869 0.04149 0.0
N839 N 0.13391 0.45031 0.76461 0.0
H840 H 0.22457 0.44585 0.86219 0.0
H841 H 0.19419 0.43152 0.7696 0.0
H842 H 0.11292 0.45221 0.71466 0.0
H843 H 0.14314 0.42646 0.77029 0.0
H844 H 0.16782 0.56874 0.06169 0.0
H845 H 0.20201 0.5449 0.09864 0.0
H846 H 0.15262 0.58493 0.89498 0.0
H847 H 0.12094 0.57279 0.80587 0.0
C848 C 0.02956 0.87462 0.43947 0.0
C849 C 1.01329 0.84752 0.49294 0.0
C850 C 1.00173 0.88579 0.6588 0.0
C851 C 0.01629 0.91345 0.60072 0.0
N852 N 0.03455 0.93363 0.41719 0.0
N853 N 0.98177 0.82842 0.6535 0.0
C854 C 0.02755 0.90751 0.48612 0.0
C855 C 0.99899 0.85352 0.60334 0.0
N856 N 0.0474 0.8689 0.3422 0.0
N857 N 0.98887 0.8909 0.76534 0.0
H858 H 0.98061 0.80496 0.61721 0.0
H859 H 0.9681 0.83058 0.72849 0.0
H860 H 0.98832 0.91415 0.8029 0.0
H861 H 0.97885 0.8726 0.81692 0.0
H862 H 0.06274 0.88649 0.30462 0.0
H863 H 0.04949 0.8455 0.30606 0.0
H864 H 0.03916 0.93166 0.3297 0.0
H865 H 0.03398 0.95767 0.44674 0.0
C866 C 0.67793 1.00358 0.62343 0.0
C867 C 0.68753 0.02111 0.52256 0.0
C868 C 0.63123 0.04523 0.51893 0.0
C869 C 0.62149 0.02909 0.62349 0.0
N870 N 0.64039 0.99759 0.7862 0.0
N871 N 0.67543 0.06612 0.39716 0.0
C872 C 0.64651 1.01005 0.67961 0.0
C873 C 0.66484 0.04455 0.47932 0.0
N874 N 0.6983 0.97957 0.66328 0.0
N875 N 0.60826 0.06021 0.45229 0.0
H876 H 0.69956 0.06604 0.3662 0.0
H877 H 0.66156 0.08612 0.36936 0.0
H878 H 0.5836 0.06122 0.47351 0.0
H879 H 0.61309 0.06891 0.36993 0.0
H880 H 0.6916 0.96291 0.72717 0.0
H881 H 0.72146 0.97537 0.62729 0.0
H882 H 0.65837 0.98655 0.83652 0.0
H883 H 0.618 1.00055 0.82838 0.0
C884 C 0.55889 0.68545 0.54243 0.0
C885 C 0.53223 0.69627 0.47169 0.0
C886 C 0.50663 0.64141 0.51073 0.0
C887 C 0.53025 0.63189 0.59381 0.0
N888 N 0.57628 0.65142 0.70402 0.0
N889 N 0.47485 0.68599 0.43102 0.0
C890 C 0.55565 0.65596 0.61403 0.0
C891 C 0.50424 0.67481 0.47105 0.0
N892 N 0.5879 0.70229 0.53909 0.0
N893 N 0.48886 0.61788 0.4569 0.0
H894 H 0.47133 0.71053 0.40736 0.0
H895 H 0.45353 0.6716 0.43402 0.0
H896 H 0.49291 0.59302 0.47278 0.0
H897 H 0.474 0.62314 0.38652 0.0
H898 H 0.60914 0.6939 0.57936 0.0
H899 H 0.59133 0.72312 0.48826 0.0
H900 H 0.59351 0.66893 0.72977 0.0
H901 H 0.57324 0.63172 0.75986 0.0
C902 C 0.89317 0.5099 0.43002 0.0
C903 C 0.86916 0.53276 0.46938 0.0
C904 C 0.90764 0.54459 0.63326 0.0
C905 C 0.93373 0.52523 0.58386 0.0
N906 N 0.95018 0.49364 0.41697 0.0
N907 N 0.85557 0.57422 0.60742 0.0
C908 C 0.926 0.50914 0.47734 0.0
C909 C 0.87696 0.5505 0.57149 0.0
N910 N 0.88433 0.48806 0.34668 0.0
N911 N 0.91208 0.55799 0.73909 0.0
H912 H 0.83297 0.57811 0.56757 0.0
H913 H 0.86086 0.59116 0.67164 0.0
H914 H 0.93365 0.55506 0.78539 0.0
H915 H 0.89358 0.56986 0.78478 0.0
H916 H 0.899 0.46828 0.32186 0.0
H917 H 0.86069 0.48754 0.31208 0.0
H918 H 0.94733 0.48593 0.33244 0.0
H919 H 0.9739 0.49046 0.44717 0.0
loop_
_geom_bond_atom_site_label_1
_geom_bond_atom_site_label_2
_geom_bond_distance
_geom_bond_site_symmetry_2
_ccdc_geom_bond_type
H0 C1 0.949 . S
C1 H0 0.949 . S
C1 C2 1.395 . S
C1 C3 1.391 . S
C2 C1 1.395 . S
C2 C5 1.390 . S
C3 C1 1.391 . S
C3 C7 1.387 . S
C3 C8 1.491 . S
H4 C5 0.950 . S
C5 C2 1.390 . S
C5 H4 0.950 . S
C5 C6 1.378 . S
C6 C5 1.378 . S
C6 C7 1.409 . S
C7 C3 1.387 . S
C7 C6 1.409 . S
C7 H9 0.951 . S
C8 C3 1.491 . S
C8 C10 1.382 . S
C8 C12 1.404 . S
H9 C7 0.951 . S
C10 C8 1.382 . S
C10 C11 1.390 . S
C10 H15 0.949 . S
C11 C10 1.390 . S
C11 C16 1.399 . S
C12 C8 1.404 . S
C12 H13 0.950 . S
C12 C14 1.375 . S
H13 C12 0.950 . S
C14 C12 1.375 . S
C14 C16 1.382 . S
C14 H18 0.950 . S
H15 C10 0.949 . S
C16 C11 1.399 . S
C16 C14 1.382 . S
C16 H17 0.952 . S
H17 C16 0.952 . S
H18 C14 0.950 . S
H19 C20 0.949 . S
C20 H19 0.949 . S
C20 C21 1.395 . S
C20 C22 1.391 . S
C21 C20 1.395 . S
C21 C24 1.390 . S
C22 C20 1.391 . S
C22 C26 1.387 . S
C22 C27 1.491 . S
H23 C24 0.950 . S
C24 C21 1.390 . S
C24 H23 0.950 . S
C24 C25 1.378 . S
C25 C24 1.378 . S
C25 C26 1.409 . S
C26 C22 1.387 . S
C26 C25 1.409 . S
C26 H28 0.951 . S
C27 C22 1.491 . S
C27 C29 1.382 . S
C27 C31 1.404 . S
H28 C26 0.951 . S
C29 C27 1.382 . S
C29 C30 1.390 . S
C29 H34 0.968 . S
C30 C29 1.390 . S
C30 C35 1.399 . S
C31 C27 1.404 . S
C31 H32 0.950 . S
C31 C33 1.375 . S
H32 C31 0.950 . S
C33 C31 1.375 . S
C33 C35 1.382 . S
C33 H37 0.950 . S
H34 C29 0.968 . S
C35 C30 1.399 . S
C35 C33 1.382 . S
C35 H36 0.952 . S
H36 C35 0.952 . S
H37 C33 0.950 . S
H38 C39 0.949 . S
C39 H38 0.949 . S
C39 C40 1.395 . S
C39 C41 1.391 . S
C40 C39 1.395 . S
C40 C43 1.390 . S
C41 C39 1.391 . S
C41 C45 1.387 . S
C41 C46 1.491 . S
H42 C43 0.950 . S
C43 C40 1.390 . S
C43 H42 0.950 . S
C43 C44 1.378 . S
C44 C43 1.378 . S
C44 C45 1.409 . S
C45 C41 1.387 . S
C45 C44 1.409 . S
C45 H47 0.951 . S
C46 C41 1.491 . S
C46 C48 1.382 . S
C46 C50 1.404 . S
H47 C45 0.951 . S
C48 C46 1.382 . S
C48 C49 1.390 . S
C48 H53 0.949 . S
C49 C48 1.390 . S
C49 C54 1.399 . S
C50 C46 1.404 . S
C50 H51 0.950 . S
C50 C52 1.375 . S
H51 C50 0.950 . S
C52 C50 1.375 . S
C52 C54 1.382 . S
C52 H56 0.950 . S
H53 C48 0.949 . S
C54 C49 1.399 . S
C54 C52 1.382 . S
C54 H55 0.952 . S
H55 C54 0.952 . S
H56 C52 0.950 . S
H57 C58 0.949 . S
C58 H57 0.949 . S
C58 C59 1.395 . S
C58 C60 1.391 . S
C59 C58 1.395 . S
C59 C62 1.390 . S
C60 C58 1.391 . S
C60 C64 1.387 . S
C60 C65 1.491 . S
H61 C62 0.950 . S
C62 C59 1.390 . S
C62 H61 0.950 . S
C62 C63 1.378 . S
C63 C62 1.378 . S
C63 C64 1.409 . S
C64 C60 1.387 . S
C64 C63 1.409 . S
C64 H66 0.951 . S
C65 C60 1.491 . S
C65 C67 1.382 . S
C65 C69 1.404 . S
H66 C64 0.951 . S
C67 C65 1.382 . S
C67 C68 1.390 . S
C67 H72 0.949 . S
C68 C67 1.390 . S
C68 C73 1.399 . S
C69 C65 1.404 . S
C69 H70 0.950 . S
C69 C71 1.375 . S
H70 C69 0.950 . S
C71 C69 1.375 . S
C71 C73 1.382 . S
C71 H75 0.950 . S
H72 C67 0.949 . S
C73 C68 1.399 . S
C73 C71 1.382 . S
C73 H74 0.952 . S
H74 C73 0.952 . S
H75 C71 0.950 . S
H76 C77 0.949 . S
C77 H76 0.949 . S
C77 C78 1.395 . S
C77 C79 1.391 . S
C78 C77 1.395 . S
C78 C81 1.390 1_554 S
C79 C77 1.391 . S
C79 C83 1.387 1_554 S
C79 C84 1.491 . S
H80 C81 0.950 . S
C81 C78 1.390 1_556 S
C81 H80 0.950 . S
C81 C82 1.378 . S
C82 C81 1.378 . S
C82 C83 1.409 . S
C83 C79 1.387 1_556 S
C83 C82 1.409 . S
C83 H85 0.951 . S
C84 C79 1.491 . S
C84 C86 1.382 . S
C84 C88 1.404 1_554 S
H85 C83 0.951 . S
C86 C84 1.382 . S
C86 C87 1.390 . S
C86 H91 0.949 . S
C87 C86 1.390 . S
C87 C92 1.399 . S
C88 C84 1.404 1_556 S
C88 H89 0.950 . S
C88 C90 1.375 . S
H89 C88 0.950 . S
C90 C88 1.375 . S
C90 C92 1.382 1_556 S
C90 H94 0.950 . S
H91 C86 0.949 . S
C92 C87 1.399 . S
C92 C90 1.382 1_554 S
C92 H93 0.952 . S
H93 C92 0.952 . S
H94 C90 0.950 . S
H95 C96 0.949 . S
C96 H95 0.949 . S
C96 C97 1.395 . S
C96 C98 1.391 . S
C97 C96 1.395 . S
C97 C100 1.390 1_554 S
C98 C96 1.391 . S
C98 C102 1.387 1_554 S
C98 C103 1.491 . S
H99 C100 0.950 . S
C100 C97 1.390 1_556 S
C100 H99 0.950 . S
C100 C101 1.378 . S
C101 C100 1.378 . S
C101 C102 1.409 . S
C102 C98 1.387 1_556 S
C102 C101 1.409 . S
C102 H104 0.951 . S
C103 C98 1.491 . S
C103 C105 1.382 . S
C103 C107 1.404 1_454 S
H104 C102 0.951 . S
C105 C103 1.382 . S
C105 C106 1.390 . S
C105 H110 0.949 . S
C106 C105 1.390 . S
C106 C111 1.399 . S
C107 C103 1.404 1_656 S
C107 H108 0.950 . S
C107 C109 1.375 . S
H108 C107 0.950 . S
C109 C107 1.375 . S
C109 C111 1.382 1_656 S
C109 H113 0.950 . S
H110 C105 0.949 . S
C111 C106 1.399 . S
C111 C109 1.382 1_454 S
C111 H112 0.952 1_455 S
H112 C111 0.952 1_655 S
H113 C109 0.950 . S
H114 C115 0.949 . S
C115 H114 0.949 . S
C115 C116 1.395 . S
C115 C117 1.391 . S
C116 C115 1.395 . S
C116 C119 1.390 1_554 S
C117 C115 1.391 . S
C117 C121 1.387 1_554 S
C117 C122 1.491 . S
H118 C119 0.950 . S
C119 C116 1.390 1_556 S
C119 H118 0.950 . S
C119 C120 1.378 . S
C120 C119 1.378 . S
C120 C121 1.409 . S
C121 C117 1.387 1_556 S
C121 C120 1.409 . S
C121 H123 0.951 . S
C122 C117 1.491 . S
C122 C124 1.382 . S
C122 C126 1.404 1_544 S
H123 C121 0.951 . S
C124 C122 1.382 . S
C124 C125 1.390 . S
C124 H129 0.949 . S
C125 C124 1.390 . S
C125 C130 1.399 . S
C126 C122 1.404 1_566 S
C126 H127 0.950 . S
C126 C128 1.375 . S
H127 C126 0.950 . S
C128 C126 1.375 . S
C128 C130 1.382 1_566 S
C128 H132 0.950 . S
H129 C124 0.949 . S
C130 C125 1.399 . S
C130 C128 1.382 1_544 S
C130 H131 0.952 1_545 S
H131 C130 0.952 1_565 S
H132 C128 0.950 . S
H133 C134 0.949 . S
C134 H133 0.949 . S
C134 C135 1.395 . S
C134 C136 1.391 1_554 S
C135 C134 1.395 . S
C135 C138 1.390 1_554 S
C136 C134 1.391 1_556 S
C136 C140 1.387 . S
C136 C141 1.491 1_556 S
H137 C138 0.950 . S
C138 C135 1.390 1_556 S
C138 H137 0.950 . S
C138 C139 1.378 . S
C139 C138 1.378 . S
C139 C140 1.409 . S
C140 C136 1.387 . S
C140 C139 1.409 . S
C140 H142 0.951 . S
C141 C136 1.491 1_554 S
C141 C143 1.382 . S
C141 C145 1.404 1_554 S
H142 C140 0.951 . S
C143 C141 1.382 . S
C143 C144 1.390 . S
C143 H148 0.949 . S
C144 C143 1.390 . S
C144 C149 1.399 . S
C145 C141 1.404 1_556 S
C145 H146 0.950 . S
C145 C147 1.375 . S
H146 C145 0.950 . S
C147 C145 1.375 . S
C147 C149 1.382 1_556 S
C147 H151 0.950 . S
H148 C143 0.949 . S
C149 C144 1.399 . S
C149 C147 1.382 1_554 S
C149 H150 0.952 . S
H150 C149 0.952 . S
H151 C147 0.950 . S
Tb152 N181 2.617 . S
Tb152 N187 2.572 . S
Tb152 O196 2.462 1_655 S
Tb152 O197 2.387 1_545 S
Tb152 O199 2.428 . S
Tb152 O200 2.308 1_655 S
Tb152 O204 2.349 1_655 S
Tb152 O207 2.393 . S
Tb152 C216 2.802 . S
C153 N154 1.379 1_554 S
C153 C156 1.416 . S
C153 C160 1.424 . S
N154 C153 1.379 1_556 S
N154 C157 1.334 . S
N154 Tb163 2.617 1_545 S
C155 C157 1.390 . S
C155 C158 1.339 . S
C155 H175 0.930 . S
C156 C153 1.416 . S
C156 C158 1.416 1_554 S
C156 C162 1.448 . S
C157 N154 1.334 . S
C157 C155 1.390 . S
C157 H168 0.930 1_545 S
C158 C155 1.339 . S
C158 C156 1.416 1_556 S
C158 H179 0.930 1_556 S
C159 C160 1.413 . S
C159 C161 1.427 . S
C159 C165 1.416 . S
C160 C153 1.424 . S
C160 C159 1.413 . S
C160 N164 1.361 . S
C161 C159 1.427 . S
C161 C162 1.328 . S
C161 H176 0.929 . S
C162 C156 1.448 . S
C162 C161 1.328 . S
C162 H177 0.930 . S
Tb163 N154 2.617 1_565 S
Tb163 N164 2.572 1_566 S
Tb163 O198 2.349 . S
Tb163 O201 2.393 . S
Tb163 O202 2.465 . S
Tb163 O203 2.387 1_565 S
Tb163 O205 2.428 . S
Tb163 O206 2.308 1_465 S
Tb163 C227 2.802 . S
N164 C160 1.361 . S
N164 Tb163 2.572 1_544 S
N164 C166 1.340 . S
C165 C159 1.416 . S
C165 C167 1.332 . S
C165 H173 0.931 . S
C166 N164 1.340 . S
C166 C167 1.407 . S
C166 H172 0.930 1_455 S
C167 C165 1.332 . S
C167 C166 1.407 . S
C167 H169 0.929 1_455 S
H168 C157 0.930 1_565 S
H169 C167 0.929 1_655 S
H170 C185 0.930 . S
H171 C192 0.929 . S
H172 C166 0.930 1_655 S
H173 C165 0.931 . S
H174 C188 0.930 . S
H175 C155 0.930 . S
H176 C161 0.929 . S
H177 C162 0.930 . S
H178 C183 0.930 . S
H179 C158 0.930 1_554 S
H180 C191 0.931 . S
N181 Tb152 2.617 . S
N181 C182 1.379 1_545 S
N181 C185 1.334 . S
C182 N181 1.379 1_565 S
C182 C184 1.416 . S
C182 C190 1.424 . S
C183 H178 0.930 . S
C183 C185 1.390 . S
C183 C186 1.339 1_545 S
C184 C182 1.416 . S
C184 C186 1.416 . S
C184 C217 1.448 . S
C185 H170 0.930 . S
C185 N181 1.334 . S
C185 C183 1.390 . S
C186 C183 1.339 1_565 S
C186 C184 1.416 . S
C186 H193 0.930 . S
N187 Tb152 2.572 . S
N187 C188 1.340 1_655 S
N187 C190 1.361 1_545 S
C188 H174 0.930 . S
C188 N187 1.340 1_455 S
C188 C192 1.407 1_545 S
C189 C190 1.413 . S
C189 C191 1.416 . S
C189 C218 1.427 . S
C190 C182 1.424 . S
C190 N187 1.361 1_565 S
C190 C189 1.413 . S
C191 H180 0.931 . S
C191 C189 1.416 . S
C191 C192 1.332 1_655 S
C192 H171 0.929 . S
C192 C188 1.407 1_565 S
C192 C191 1.332 1_455 S
H193 C186 0.930 . S
H194 C217 0.930 . S
H195 C218 0.929 . S
O196 Tb152 2.462 1_455 S
O196 C216 1.257 1_455 S
O197 Tb152 2.387 1_565 S
O197 C208 1.264 . S
O198 Tb163 2.349 . S
O198 C208 1.243 1_455 S
O199 Tb152 2.428 . S
O199 C216 1.256 . S
O200 Tb152 2.308 1_455 S
O200 C215 1.266 . S
O201 Tb163 2.393 . S
O201 C215 1.248 1_565 S
O202 Tb163 2.465 . S
O202 C227 1.264 . S
O203 Tb163 2.387 1_545 S
O203 C219 1.264 . S
O204 Tb152 2.349 1_455 S
O204 C219 1.243 . S
O205 Tb163 2.428 . S
O205 C227 1.256 . S
O206 Tb163 2.308 1_645 S
O206 C226 1.266 . S
O207 Tb152 2.393 . S
O207 C226 1.248 . S
C208 O197 1.264 . S
C208 O198 1.243 1_655 S
C209 C212 1.399 . S
C209 C214 1.383 . S
C209 C216 1.496 . S
C210 C211 1.399 . S
C210 C214 1.389 . S
C211 C210 1.399 . S
C211 C213 1.380 . S
C211 H228 0.929 . S
C212 C209 1.399 . S
C212 C213 1.392 . S
C212 H229 0.929 . S
C213 C211 1.380 . S
C213 C212 1.392 . S
C213 H230 0.929 . S
C214 C209 1.383 . S
C214 C210 1.389 . S
C214 H231 0.931 1_655 S
C215 O200 1.266 . S
C215 O201 1.248 1_545 S
C216 Tb152 2.802 . S
C216 O196 1.257 1_655 S
C216 O199 1.256 . S
C216 C209 1.496 . S
C217 C184 1.448 . S
C217 H194 0.930 . S
C217 C218 1.328 . S
C218 C189 1.427 . S
C218 H195 0.929 . S
C218 C217 1.328 . S
C219 O203 1.264 . S
C219 O204 1.243 . S
C220 C223 1.399 . S
C220 C224 1.383 . S
C220 C227 1.496 1_554 S
C221 C222 1.399 . S
C221 C224 1.389 . S
C222 C221 1.399 . S
C222 C225 1.380 . S
C222 H232 0.929 . S
C223 C220 1.399 . S
C223 C225 1.392 . S
C223 H233 0.929 1_554 S
C224 C220 1.383 . S
C224 C221 1.389 . S
C224 H234 0.931 . S
C225 C222 1.380 . S
C225 C223 1.392 . S
C225 H235 0.929 . S
C226 O206 1.266 . S
C226 O207 1.248 . S
C227 Tb163 2.802 . S
C227 O202 1.264 . S
C227 O205 1.256 . S
C227 C220 1.496 1_556 S
H228 C211 0.929 . S
H229 C212 0.929 . S
H230 C213 0.929 . S
H231 C214 0.931 1_455 S
H232 C222 0.929 . S
H233 C223 0.929 1_556 S
H234 C224 0.931 . S
H235 C225 0.929 . S
Tb236 N265 2.617 . S
Tb236 N271 2.572 . S
Tb236 O280 2.465 . S
Tb236 O281 2.387 . S
Tb236 O283 2.428 1_556 S
Tb236 O284 2.308 . S
Tb236 O288 2.349 1_545 S
Tb236 O291 2.393 . S
Tb236 C300 2.802 1_556 S
C237 N238 1.379 . S
C237 C240 1.416 . S
C237 C244 1.424 . S
N238 C237 1.379 . S
N238 C241 1.334 . S
N238 Tb247 2.617 . S
C239 C241 1.390 . S
C239 C242 1.339 . S
C239 H259 0.930 . S
C240 C237 1.416 . S
C240 C242 1.416 . S
C240 C246 1.448 . S
C241 N238 1.334 . S
C241 C239 1.390 . S
C241 H252 0.930 . S
C242 C239 1.339 . S
C242 C240 1.416 . S
C242 H263 0.930 . S
C243 C244 1.413 . S
C243 C245 1.427 . S
C243 C249 1.416 . S
C244 C237 1.424 . S
C244 C243 1.413 . S
C244 N248 1.361 . S
C245 C243 1.427 . S
C245 C246 1.328 . S
C245 H260 0.929 . S
C246 C240 1.448 . S
C246 C245 1.328 . S
C246 H261 0.930 . S
Tb247 N238 2.617 . S
Tb247 N248 2.572 . S
Tb247 O282 2.349 1_565 S
Tb247 O285 2.393 . S
Tb247 O286 2.465 . S
Tb247 O287 2.387 . S
Tb247 O289 2.428 . S
Tb247 O290 2.299 1_565 S
Tb247 C311 2.802 . S
N248 C244 1.361 . S
N248 Tb247 2.572 . S
N248 C250 1.340 . S
C249 C243 1.416 . S
C249 C251 1.332 . S
C249 H257 0.931 . S
C250 N248 1.340 . S
C250 C251 1.407 . S
C250 H256 0.930 . S
C251 C249 1.332 . S
C251 C250 1.407 . S
C251 H253 0.929 . S
H252 C241 0.930 . S
H253 C251 0.929 . S
H254 C269 0.930 . S
H255 C276 0.929 . S
H256 C250 0.930 . S
H257 C249 0.931 . S
H258 C272 0.930 . S
H259 C239 0.930 . S
H260 C245 0.929 . S
H261 C246 0.930 . S
H262 C267 0.930 . S
H263 C242 0.930 . S
H264 C275 0.931 . S
N265 Tb236 2.617 . S
N265 C266 1.379 . S
N265 C269 1.334 1_556 S
C266 N265 1.379 . S
C266 C268 1.416 . S
C266 C274 1.424 . S
C267 H262 0.930 . S
C267 C269 1.390 . S
C267 C270 1.339 . S
C268 C266 1.416 . S
C268 C270 1.416 1_556 S
C268 C301 1.448 . S
C269 H254 0.930 . S
C269 N265 1.334 1_554 S
C269 C267 1.390 . S
C270 C267 1.339 . S
C270 C268 1.416 1_554 S
C270 H277 0.930 . S
N271 Tb236 2.572 . S
N271 C272 1.340 . S
N271 C274 1.361 . S
C272 H258 0.930 . S
C272 N271 1.340 . S
C272 C276 1.407 . S
C273 C274 1.413 . S
C273 C275 1.416 . S
C273 C302 1.427 . S
C274 C266 1.424 . S
C274 N271 1.361 . S
C274 C273 1.413 . S
C275 H264 0.931 . S
C275 C273 1.416 . S
C275 C276 1.332 . S
C276 H255 0.929 . S
C276 C272 1.407 . S
C276 C275 1.332 . S
H277 C270 0.930 . S
H278 C301 0.930 . S
H279 C302 0.929 . S
O280 Tb236 2.465 . S
O280 C300 1.264 1_556 S
O281 Tb236 2.387 . S
O281 C292 1.264 . S
O282 Tb247 2.349 1_545 S
O282 C292 1.243 . S
O283 Tb236 2.428 1_554 S
O283 C300 1.256 . S
O284 Tb236 2.308 . S
O284 C299 1.266 1_545 S
O285 Tb247 2.393 . S
O285 C299 1.248 . S
O286 Tb247 2.465 . S
O286 C311 1.264 . S
O287 Tb247 2.387 . S
O287 C303 1.264 . S
O288 Tb236 2.349 1_565 S
O288 C303 1.243 . S
O289 Tb247 2.428 . S
O289 C311 1.256 . S
O290 Tb247 2.299 1_545 S
O290 C310 1.280 . S
O291 Tb236 2.393 . S
O291 C310 1.248 . S
C292 O281 1.264 . S
C292 O282 1.243 . S
C293 C296 1.399 . S
C293 C298 1.383 . S
C293 C300 1.496 . S
C294 C295 1.399 . S
C294 C298 1.389 . S
C295 C294 1.399 . S
C295 C297 1.380 . S
C295 H312 0.929 . S
C296 C293 1.399 . S
C296 C297 1.392 . S
C296 H313 0.929 . S
C297 C295 1.380 . S
C297 C296 1.392 . S
C297 H314 0.929 . S
C298 C293 1.383 . S
C298 C294 1.389 . S
C298 H315 0.931 . S
C299 O284 1.266 1_565 S
C299 O285 1.248 . S
C300 Tb236 2.802 1_554 S
C300 O280 1.264 1_554 S
C300 O283 1.256 . S
C300 C293 1.496 . S
C301 C268 1.448 . S
C301 H278 0.930 . S
C301 C302 1.328 . S
C302 C273 1.427 . S
C302 H279 0.929 . S
C302 C301 1.328 . S
C303 O287 1.264 . S
C303 O288 1.243 . S
C304 C307 1.399 . S
C304 C308 1.392 . S
C304 C311 1.496 . S
C305 C306 1.395 1_545 S
C305 C308 1.388 1_545 S
C306 C305 1.395 1_565 S
C306 C309 1.380 . S
C306 H316 0.929 . S
C307 C304 1.399 . S
C307 C309 1.392 . S
C307 H317 0.929 . S
C308 C304 1.392 . S
C308 C305 1.388 1_565 S
C308 H318 0.924 1_565 S
C309 C306 1.380 . S
C309 C307 1.392 . S
C309 H319 0.929 . S
C310 O290 1.280 . S
C310 O291 1.248 . S
C311 Tb247 2.802 . S
C311 O286 1.264 . S
C311 O289 1.256 . S
C311 C304 1.496 . S
H312 C295 0.929 . S
H313 C296 0.929 . S
H314 C297 0.929 . S
H315 C298 0.931 . S
H316 C306 0.929 . S
H317 C307 0.929 . S
H318 C308 0.924 1_545 S
H319 C309 0.929 . S
Tb320 N349 2.617 . S
Tb320 N355 2.572 . S
Tb320 O364 2.465 . S
Tb320 O365 2.387 . S
Tb320 O367 2.428 . S
Tb320 O368 2.308 . S
Tb320 O372 2.349 . S
Tb320 O375 2.393 . S
Tb320 C384 2.802 . S
C321 N322 1.379 1_554 S
C321 C324 1.416 . S
C321 C328 1.424 . S
N322 C321 1.379 1_556 S
N322 C325 1.334 . S
N322 Tb331 2.617 . S
C323 C325 1.390 . S
C323 C326 1.339 . S
C323 H343 0.930 . S
C324 C321 1.416 . S
C324 C326 1.416 1_554 S
C324 C330 1.448 . S
C325 N322 1.334 . S
C325 C323 1.390 . S
C325 H336 0.930 . S
C326 C323 1.339 . S
C326 C324 1.416 1_556 S
C326 H347 0.930 1_556 S
C327 C328 1.413 . S
C327 C329 1.427 . S
C327 C333 1.416 . S
C328 C321 1.424 . S
C328 C327 1.413 . S
C328 N332 1.361 . S
C329 C327 1.427 . S
C329 C330 1.328 . S
C329 H344 0.929 . S
C330 C324 1.448 . S
C330 C329 1.328 . S
C330 H345 0.930 . S
Tb331 N322 2.617 . S
Tb331 N332 2.572 1_556 S
Tb331 O366 2.349 . S
Tb331 O369 2.393 . S
Tb331 O370 2.465 . S
Tb331 O371 2.387 . S
Tb331 O373 2.428 . S
Tb331 O374 2.308 . S
Tb331 C395 2.802 . S
N332 C328 1.361 . S
N332 Tb331 2.572 1_554 S
N332 C334 1.340 . S
C333 C327 1.416 . S
C333 C335 1.332 . S
C333 H341 0.931 . S
C334 N332 1.340 . S
C334 C335 1.407 . S
C334 H340 0.930 . S
C335 C333 1.332 . S
C335 C334 1.407 . S
C335 H337 0.929 . S
H336 C325 0.930 . S
H337 C335 0.929 . S
H338 C353 0.930 . S
H339 C360 0.929 . S
H340 C334 0.930 . S
H341 C333 0.931 . S
H342 C356 0.930 . S
H343 C323 0.930 . S
H344 C329 0.929 . S
H345 C330 0.930 . S
H346 C351 0.930 . S
H347 C326 0.930 1_554 S
H348 C359 0.931 . S
N349 Tb320 2.617 . S
N349 C350 1.379 . S
N349 C353 1.334 . S
C350 N349 1.379 . S
C350 C352 1.416 . S
C350 C358 1.424 . S
C351 H346 0.930 . S
C351 C353 1.390 . S
C351 C354 1.339 . S
C352 C350 1.416 . S
C352 C354 1.416 . S
C352 C385 1.448 . S
C353 H338 0.930 . S
C353 N349 1.334 . S
C353 C351 1.390 . S
C354 C351 1.339 . S
C354 C352 1.416 . S
C354 H361 0.930 . S
N355 Tb320 2.572 . S
N355 C356 1.340 . S
N355 C358 1.361 . S
C356 H342 0.930 . S
C356 N355 1.340 . S
C356 C360 1.407 . S
C357 C358 1.413 . S
C357 C359 1.416 . S
C357 C386 1.427 . S
C358 C350 1.424 . S
C358 N355 1.361 . S
C358 C357 1.413 . S
C359 H348 0.931 . S
C359 C357 1.416 . S
C359 C360 1.332 . S
C360 H339 0.929 . S
C360 C356 1.407 . S
C360 C359 1.332 . S
H361 C354 0.930 . S
H362 C385 0.930 . S
H363 C386 0.929 . S
O364 Tb320 2.465 . S
O364 C384 1.264 . S
O365 Tb320 2.387 . S
O365 C376 1.264 . S
O366 Tb331 2.349 . S
O366 C376 1.243 . S
O367 Tb320 2.428 . S
O367 C384 1.256 . S
O368 Tb320 2.308 . S
O368 C383 1.266 . S
O369 Tb331 2.393 . S
O369 C383 1.248 . S
O370 Tb331 2.465 . S
O370 C395 1.264 . S
O371 Tb331 2.387 . S
O371 C387 1.264 . S
O372 Tb320 2.349 . S
O372 C387 1.243 . S
O373 Tb331 2.428 . S
O373 C395 1.256 . S
O374 Tb331 2.308 . S
O374 C394 1.266 . S
O375 Tb320 2.393 . S
O375 C394 1.248 . S
C376 O365 1.264 . S
C376 O366 1.243 . S
C377 C380 1.399 . S
C377 C382 1.383 . S
C377 C384 1.496 . S
C378 C379 1.399 . S
C378 C382 1.389 . S
C379 C378 1.399 . S
C379 C381 1.380 . S
C379 H396 0.929 . S
C380 C377 1.399 . S
C380 C381 1.392 . S
C380 H397 0.929 . S
C381 C379 1.380 . S
C381 C380 1.392 . S
C381 H398 0.929 . S
C382 C377 1.383 . S
C382 C378 1.389 . S
C382 H399 0.931 . S
C383 O368 1.266 . S
C383 O369 1.248 . S
C384 Tb320 2.802 . S
C384 O364 1.264 . S
C384 O367 1.256 . S
C384 C377 1.496 . S
C385 C352 1.448 . S
C385 H362 0.930 . S
C385 C386 1.328 . S
C386 C357 1.427 . S
C386 H363 0.929 . S
C386 C385 1.328 . S
C387 O371 1.264 . S
C387 O372 1.243 . S
C388 C391 1.399 . S
C388 C392 1.383 . S
C388 C395 1.496 1_554 S
C389 C390 1.399 . S
C389 C392 1.389 . S
C390 C389 1.399 . S
C390 C393 1.380 . S
C390 H400 0.929 . S
C391 C388 1.399 . S
C391 C393 1.392 . S
C391 H401 0.929 1_554 S
C392 C388 1.383 . S
C392 C389 1.389 . S
C392 H402 0.931 . S
C393 C390 1.380 . S
C393 C391 1.392 . S
C393 H403 0.929 . S
C394 O374 1.266 . S
C394 O375 1.248 . S
C395 Tb331 2.802 . S
C395 O370 1.264 . S
C395 O373 1.256 . S
C395 C388 1.496 1_556 S
H396 C379 0.929 . S
H397 C380 0.929 . S
H398 C381 0.929 . S
H399 C382 0.931 . S
H400 C390 0.929 . S
H401 C391 0.929 1_556 S
H402 C392 0.931 . S
H403 C393 0.929 . S
Tb404 N433 2.617 . S
Tb404 N439 2.572 . S
Tb404 O448 2.465 . S
Tb404 O449 2.387 1_455 S
Tb404 O451 2.428 . S
Tb404 O452 2.308 . S
Tb404 O456 2.349 . S
Tb404 O459 2.393 . S
Tb404 C468 2.802 . S
C405 N406 1.379 1_554 S
C405 C408 1.416 . S
C405 C412 1.424 . S
N406 C405 1.379 1_556 S
N406 C409 1.334 . S
N406 Tb415 2.617 1_455 S
C407 C409 1.390 . S
C407 C410 1.339 . S
C407 H427 0.930 . S
C408 C405 1.416 . S
C408 C410 1.416 1_554 S
C408 C414 1.448 . S
C409 N406 1.334 . S
C409 C407 1.390 . S
C409 H420 0.930 1_455 S
C410 C407 1.339 . S
C410 C408 1.416 1_556 S
C410 H431 0.930 1_556 S
C411 C412 1.413 . S
C411 C413 1.427 . S
C411 C417 1.416 . S
C412 C405 1.424 . S
C412 C411 1.413 . S
C412 N416 1.361 . S
C413 C411 1.427 . S
C413 C414 1.328 . S
C413 H428 0.929 . S
C414 C408 1.448 . S
C414 C413 1.328 . S
C414 H429 0.930 . S
Tb415 N406 2.617 1_655 S
Tb415 N416 2.572 1_656 S
Tb415 O450 2.349 . S
Tb415 O453 2.393 . S
Tb415 O454 2.465 . S
Tb415 O455 2.387 1_655 S
Tb415 O457 2.428 . S
Tb415 O458 2.308 1_655 S
Tb415 C479 2.802 . S
N416 C412 1.361 . S
N416 Tb415 2.572 1_454 S
N416 C418 1.340 . S
C417 C411 1.416 . S
C417 C419 1.332 . S
C417 H425 0.931 . S
C418 N416 1.340 . S
C418 C419 1.407 . S
C418 H424 0.930 . S
C419 C417 1.332 . S
C419 C418 1.407 . S
C419 H421 0.929 . S
H420 C409 0.930 1_655 S
H421 C419 0.929 . S
H422 C437 0.930 . S
H423 C444 0.929 . S
H424 C418 0.930 . S
H425 C417 0.931 . S
H426 C440 0.930 . S
H427 C407 0.930 . S
H428 C413 0.929 . S
H429 C414 0.930 . S
H430 C435 0.930 . S
H431 C410 0.930 1_554 S
H432 C443 0.931 . S
N433 Tb404 2.617 . S
N433 C434 1.379 1_455 S
N433 C437 1.334 . S
C434 N433 1.379 1_655 S
C434 C436 1.416 . S
C434 C442 1.424 . S
C435 H430 0.930 . S
C435 C437 1.390 . S
C435 C438 1.339 1_455 S
C436 C434 1.416 . S
C436 C438 1.416 . S
C436 C469 1.448 . S
C437 H422 0.930 . S
C437 N433 1.334 . S
C437 C435 1.390 . S
C438 C435 1.339 1_655 S
C438 C436 1.416 . S
C438 H445 0.930 . S
N439 Tb404 2.572 . S
N439 C440 1.340 . S
N439 C442 1.361 1_455 S
C440 H426 0.930 . S
C440 N439 1.340 . S
C440 C444 1.407 1_455 S
C441 C442 1.413 . S
C441 C443 1.416 . S
C441 C470 1.427 . S
C442 C434 1.424 . S
C442 N439 1.361 1_655 S
C442 C441 1.413 . S
C443 H432 0.931 . S
C443 C441 1.416 . S
C443 C444 1.332 . S
C444 H423 0.929 . S
C444 C440 1.407 1_655 S
C444 C443 1.332 . S
H445 C438 0.930 . S
H446 C469 0.930 . S
H447 C470 0.929 . S
O448 Tb404 2.465 . S
O448 C468 1.264 . S
O449 Tb404 2.387 1_655 S
O449 C460 1.264 . S
O450 Tb415 2.349 . S
O450 C460 1.243 . S
O451 Tb404 2.428 . S
O451 C468 1.256 . S
O452 Tb404 2.308 . S
O452 C467 1.266 . S
O453 Tb415 2.393 . S
O453 C467 1.248 1_655 S
O454 Tb415 2.465 . S
O454 C479 1.264 . S
O455 Tb415 2.387 1_455 S
O455 C471 1.264 . S
O456 Tb404 2.349 . S
O456 C471 1.243 . S
O457 Tb415 2.428 . S
O457 C479 1.256 . S
O458 Tb415 2.308 1_455 S
O458 C478 1.266 . S
O459 Tb404 2.393 . S
O459 C478 1.248 . S
C460 O449 1.264 . S
C460 O450 1.243 . S
C461 C464 1.399 . S
C461 C466 1.383 . S
C461 C468 1.496 . S
C462 C463 1.399 . S
C462 C466 1.389 . S
C463 C462 1.399 . S
C463 C465 1.380 . S
C463 H480 0.929 . S
C464 C461 1.399 . S
C464 C465 1.392 . S
C464 H481 0.929 . S
C465 C463 1.380 . S
C465 C464 1.392 . S
C465 H482 0.929 . S
C466 C461 1.383 . S
C466 C462 1.389 . S
C466 H483 0.931 . S
C467 O452 1.266 . S
C467 O453 1.248 1_455 S
C468 Tb404 2.802 . S
C468 O448 1.264 . S
C468 O451 1.256 . S
C468 C461 1.496 . S
C469 C436 1.448 . S
C469 H446 0.930 . S
C469 C470 1.328 . S
C470 C441 1.427 . S
C470 H447 0.929 . S
C470 C469 1.328 . S
C471 O455 1.264 . S
C471 O456 1.243 . S
C472 C475 1.399 . S
C472 C476 1.383 . S
C472 C479 1.496 1_554 S
C473 C474 1.399 . S
C473 C476 1.389 . S
C474 C473 1.399 . S
C474 C477 1.380 . S
C474 H484 0.929 . S
C475 C472 1.399 . S
C475 C477 1.392 . S
C475 H485 0.929 1_554 S
C476 C472 1.383 . S
C476 C473 1.389 . S
C476 H486 0.931 . S
C477 C474 1.380 . S
C477 C475 1.392 . S
C477 H487 0.929 . S
C478 O458 1.266 . S
C478 O459 1.248 . S
C479 Tb415 2.802 . S
C479 O454 1.264 . S
C479 O457 1.256 . S
C479 C472 1.496 1_556 S
H480 C463 0.929 . S
H481 C464 0.929 . S
H482 C465 0.929 . S
H483 C466 0.931 . S
H484 C474 0.929 . S
H485 C475 0.929 1_556 S
H486 C476 0.931 . S
H487 C477 0.929 . S
C488 C489 1.363 . S
C488 C494 1.376 1_545 S
C488 N496 1.356 1_545 S
C489 C488 1.363 . S
C489 C495 1.363 . S
C490 C491 1.363 . S
C490 C495 1.379 . S
C490 N497 1.356 . S
C491 C490 1.363 . S
C491 C494 1.345 1_545 S
N492 C494 1.375 . S
N492 H504 0.984 . S
N492 H505 0.985 . S
N493 C495 1.356 . S
N493 H498 0.984 . S
N493 H499 0.985 . S
C494 C488 1.376 1_565 S
C494 C491 1.345 1_565 S
C494 N492 1.375 . S
C495 C489 1.363 . S
C495 C490 1.379 . S
C495 N493 1.356 . S
N496 C488 1.356 1_565 S
N496 H502 0.984 . S
N496 H503 0.984 . S
N497 C490 1.356 . S
N497 H500 0.984 . S
N497 H501 0.985 . S
H498 N493 0.984 . S
H499 N493 0.985 . S
H500 N497 0.984 . S
H501 N497 0.985 . S
H502 N496 0.984 . S
H503 N496 0.984 . S
H504 N492 0.984 . S
H505 N492 0.985 . S
C506 C507 1.363 . S
C506 C512 1.379 . S
C506 N514 1.356 . S
C507 C506 1.363 . S
C507 C513 1.363 . S
C508 C509 1.363 . S
C508 C513 1.379 . S
C508 N515 1.356 . S
C509 C508 1.363 . S
C509 C512 1.363 . S
N510 C512 1.356 . S
N510 H522 0.984 . S
N510 H523 0.985 . S
N511 C513 1.356 . S
N511 H516 0.984 . S
N511 H517 0.985 . S
C512 C506 1.379 . S
C512 C509 1.363 . S
C512 N510 1.356 . S
C513 C507 1.363 . S
C513 C508 1.379 . S
C513 N511 1.356 . S
N514 C506 1.356 . S
N514 H520 0.984 . S
N514 H521 0.984 . S
N515 C508 1.356 . S
N515 H518 0.984 . S
N515 H519 0.985 . S
H516 N511 0.984 . S
H517 N511 0.985 . S
H518 N515 0.984 . S
H519 N515 0.985 . S
H520 N514 0.984 . S
H521 N514 0.984 . S
H522 N510 0.984 . S
H523 N510 0.985 . S
C524 C525 1.363 . S
C524 C530 1.379 . S
C524 N532 1.356 . S
C525 C524 1.363 . S
C525 C531 1.363 . S
C526 C527 1.363 . S
C526 C531 1.379 . S
C526 N533 1.356 . S
C527 C526 1.363 . S
C527 C530 1.363 . S
N528 C530 1.356 . S
N528 H540 0.984 . S
N528 H541 0.985 . S
N529 C531 1.356 . S
N529 H534 0.984 . S
N529 H535 0.985 . S
C530 C524 1.379 . S
C530 C527 1.363 . S
C530 N528 1.356 . S
C531 C525 1.363 . S
C531 C526 1.379 . S
C531 N529 1.356 . S
N532 C524 1.356 . S
N532 H538 0.984 . S
N532 H539 0.984 . S
N533 C526 1.356 . S
N533 H536 0.984 . S
N533 H537 0.985 . S
H534 N529 0.984 . S
H535 N529 0.985 . S
H536 N533 0.984 . S
H537 N533 0.985 . S
H538 N532 0.984 . S
H539 N532 0.984 . S
H540 N528 0.984 . S
H541 N528 0.985 . S
C542 C543 1.363 . S
C542 C548 1.379 . S
C542 N550 1.356 . S
C543 C542 1.363 . S
C543 C549 1.363 . S
C544 C545 1.363 . S
C544 C549 1.379 . S
C544 N551 1.356 . S
C545 C544 1.363 . S
C545 C548 1.363 . S
N546 C548 1.356 1_655 S
N546 H558 0.984 . S
N546 H559 0.985 . S
N547 C549 1.356 . S
N547 H552 0.984 . S
N547 H553 0.985 . S
C548 C542 1.379 . S
C548 C545 1.363 . S
C548 N546 1.356 1_455 S
C549 C543 1.363 . S
C549 C544 1.379 . S
C549 N547 1.356 . S
N550 C542 1.356 . S
N550 H556 0.984 1_455 S
N550 H557 0.984 . S
N551 C544 1.356 . S
N551 H554 0.984 . S
N551 H555 0.985 . S
H552 N547 0.984 . S
H553 N547 0.985 . S
H554 N551 0.984 . S
H555 N551 0.985 . S
H556 N550 0.984 1_655 S
H557 N550 0.984 . S
H558 N546 0.984 . S
H559 N546 0.985 . S
C560 C561 1.363 1_545 S
C560 C566 1.379 . S
C560 N568 1.356 . S
C561 C560 1.363 1_565 S
C561 C567 1.363 . S
C562 C563 1.363 1_554 S
C562 C567 1.379 . S
C562 N569 1.356 . S
C563 C562 1.363 1_556 S
C563 C566 1.363 1_566 S
N564 C566 1.356 1_556 S
N564 H576 0.984 . S
N564 H577 0.985 . S
N565 C567 1.356 . S
N565 H570 0.984 . S
N565 H571 0.985 . S
C566 C560 1.379 . S
C566 C563 1.363 1_544 S
C566 N564 1.356 1_554 S
C567 C561 1.363 . S
C567 C562 1.379 . S
C567 N565 1.356 . S
N568 C560 1.356 . S
N568 H574 0.984 . S
N568 H575 0.984 . S
N569 C562 1.356 . S
N569 H572 0.984 1_554 S
N569 H573 0.985 . S
H570 N565 0.984 . S
H571 N565 0.985 . S
H572 N569 0.984 1_556 S
H573 N569 0.985 . S
H574 N568 0.984 . S
H575 N568 0.984 . S
H576 N564 0.984 . S
H577 N564 0.985 . S
C578 C579 1.363 . S
C578 C584 1.379 . S
C578 N586 1.356 . S
C579 C578 1.363 . S
C579 C585 1.363 . S
C580 C581 1.363 1_554 S
C580 C585 1.378 . S
C580 N587 1.357 1_554 S
C581 C580 1.363 1_556 S
C581 C584 1.363 1_556 S
N582 C584 1.356 . S
N582 H594 0.984 . S
N582 H595 0.985 1_554 S
N583 C585 1.356 . S
N583 H588 0.984 . S
N583 H589 0.985 . S
C584 C578 1.379 . S
C584 C581 1.363 1_554 S
C584 N582 1.356 . S
C585 C579 1.363 . S
C585 C580 1.378 . S
C585 N583 1.356 . S
N586 C578 1.356 . S
N586 H592 0.984 . S
N586 H593 0.984 . S
N587 C580 1.357 1_556 S
N587 H590 0.984 . S
N587 H591 0.985 . S
H588 N583 0.984 . S
H589 N583 0.985 . S
H590 N587 0.984 . S
H591 N587 0.985 . S
H592 N586 0.984 . S
H593 N586 0.984 . S
H594 N582 0.984 . S
H595 N582 0.985 1_556 S
C596 C597 1.363 . S
C596 C602 1.379 . S
C596 N604 1.356 . S
C597 C596 1.363 . S
C597 C603 1.363 . S
C598 C599 1.363 1_554 S
C598 C603 1.379 . S
C598 N605 1.356 . S
C599 C598 1.363 1_556 S
C599 C602 1.363 1_556 S
N600 C602 1.356 1_556 S
N600 H612 0.984 . S
N600 H613 0.985 . S
N601 C603 1.356 . S
N601 H606 0.984 . S
N601 H607 0.985 . S
C602 C596 1.379 . S
C602 C599 1.363 1_554 S
C602 N600 1.356 1_554 S
C603 C597 1.363 . S
C603 C598 1.379 . S
C603 N601 1.356 . S
N604 C596 1.356 . S
N604 H610 0.984 . S
N604 H611 0.984 . S
N605 C598 1.356 . S
N605 H608 0.984 1_554 S
N605 H609 0.985 . S
H606 N601 0.984 . S
H607 N601 0.985 . S
H608 N605 0.984 1_556 S
H609 N605 0.985 . S
H610 N604 0.984 . S
H611 N604 0.984 . S
H612 N600 0.984 . S
H613 N600 0.985 . S
C614 C615 1.363 . S
C614 C620 1.379 . S
C614 N622 1.356 . S
C615 C614 1.363 . S
C615 C621 1.363 1_655 S
C616 C617 1.363 1_454 S
C616 C621 1.379 . S
C616 N623 1.356 . S
C617 C616 1.363 1_656 S
C617 C620 1.363 1_556 S
N618 C620 1.356 1_556 S
N618 H630 0.984 . S
N618 H631 0.985 . S
N619 C621 1.356 . S
N619 H624 0.984 . S
N619 H625 0.985 . S
C620 C614 1.379 . S
C620 C617 1.363 1_554 S
C620 N618 1.356 1_554 S
C621 C615 1.363 1_455 S
C621 C616 1.379 . S
C621 N619 1.356 . S
N622 C614 1.356 . S
N622 H628 0.984 . S
N622 H629 0.984 . S
N623 C616 1.356 . S
N623 H626 0.984 1_554 S
N623 H627 0.985 . S
H624 N619 0.984 . S
H625 N619 0.985 . S
H626 N623 0.984 1_556 S
H627 N623 0.985 . S
H628 N622 0.984 . S
H629 N622 0.984 . S
H630 N618 0.984 . S
H631 N618 0.985 . S
C632 C633 1.363 . S
C632 C638 1.379 1_455 S
C632 N640 1.353 1_455 S
C633 C632 1.363 . S
C633 C639 1.363 . S
C634 C635 1.363 . S
C634 C639 1.379 . S
C634 N641 1.356 . S
C635 C634 1.363 . S
C635 C638 1.363 1_455 S
N636 C638 1.356 . S
N636 H648 0.984 . S
N636 H649 0.985 . S
N637 C639 1.356 . S
N637 H642 0.984 . S
N637 H643 0.985 . S
C638 C632 1.379 1_655 S
C638 C635 1.363 1_655 S
C638 N636 1.356 . S
C639 C633 1.363 . S
C639 C634 1.379 . S
C639 N637 1.356 . S
N640 C632 1.353 1_655 S
N640 H646 0.998 1_554 S
N640 H647 0.974 1_655 S
N641 C634 1.356 . S
N641 H644 0.984 . S
N641 H645 0.985 . S
H642 N637 0.984 . S
H643 N637 0.985 . S
H644 N641 0.984 . S
H645 N641 0.985 . S
H646 N640 0.998 1_556 S
H647 N640 0.974 1_455 S
H648 N636 0.984 . S
H649 N636 0.985 . S
C650 C651 1.363 . S
C650 C656 1.379 . S
C650 N658 1.356 1_554 S
C651 C650 1.363 . S
C651 C657 1.363 . S
C652 C653 1.363 . S
C652 C657 1.379 . S
C652 N659 1.356 1_545 S
C653 C652 1.363 . S
C653 C656 1.363 . S
N654 C656 1.356 . S
N654 H666 0.984 . S
N654 H667 0.986 1_545 S
N655 C657 1.356 . S
N655 H660 0.984 . S
N655 H661 0.985 . S
C656 C650 1.379 . S
C656 C653 1.363 . S
C656 N654 1.356 . S
C657 C651 1.363 . S
C657 C652 1.379 . S
C657 N655 1.356 . S
N658 C650 1.356 1_556 S
N658 H664 0.984 . S
N658 H665 0.984 . S
N659 C652 1.356 1_565 S
N659 H662 0.984 . S
N659 H663 0.985 . S
H660 N655 0.984 . S
H661 N655 0.985 . S
H662 N659 0.984 . S
H663 N659 0.985 . S
H664 N658 0.984 . S
H665 N658 0.984 . S
H666 N654 0.984 . S
H667 N654 0.986 1_565 S
C668 C669 1.363 . S
C668 C674 1.379 . S
C668 N676 1.356 . S
C669 C668 1.363 . S
C669 C675 1.363 . S
C670 C671 1.363 . S
C670 C675 1.379 . S
C670 N677 1.356 . S
C671 C670 1.363 . S
C671 C674 1.363 . S
N672 C674 1.356 . S
N672 H684 0.984 . S
N672 H685 0.985 . S
N673 C675 1.356 . S
N673 H678 0.984 . S
N673 H679 0.985 . S
C674 C668 1.379 . S
C674 C671 1.363 . S
C674 N672 1.356 . S
C675 C669 1.363 . S
C675 C670 1.379 . S
C675 N673 1.356 . S
N676 C668 1.356 . S
N676 H682 0.984 1_554 S
N676 H683 0.984 . S
N677 C670 1.356 . S
N677 H680 0.984 . S
N677 H681 0.985 . S
H678 N673 0.984 . S
H679 N673 0.985 . S
H680 N677 0.984 . S
H681 N677 0.985 . S
H682 N676 0.984 1_556 S
H683 N676 0.984 . S
H684 N672 0.984 . S
H685 N672 0.985 . S
C686 C687 1.363 . S
C686 C692 1.379 . S
C686 N694 1.356 . S
C687 C686 1.363 . S
C687 C693 1.363 . S
C688 C689 1.363 . S
C688 C693 1.379 . S
C688 N695 1.356 . S
C689 C688 1.363 . S
C689 C692 1.363 . S
N690 C692 1.356 . S
N690 H702 0.984 . S
N690 H703 0.985 . S
N691 C693 1.356 . S
N691 H696 0.984 . S
N691 H697 0.985 . S
C692 C686 1.379 . S
C692 C689 1.363 . S
C692 N690 1.356 . S
C693 C687 1.363 . S
C693 C688 1.379 . S
C693 N691 1.356 . S
N694 C686 1.356 . S
N694 H700 0.984 . S
N694 H701 0.984 . S
N695 C688 1.356 . S
N695 H698 0.984 . S
N695 H699 0.985 . S
H696 N691 0.984 . S
H697 N691 0.985 . S
H698 N695 0.984 . S
H699 N695 0.985 . S
H700 N694 0.984 . S
H701 N694 0.984 . S
H702 N690 0.984 . S
H703 N690 0.985 . S
C704 C705 1.363 . S
C704 C710 1.379 . S
C704 N712 1.356 . S
C705 C704 1.363 . S
C705 C711 1.363 1_655 S
C706 C707 1.363 . S
C706 C711 1.379 . S
C706 N713 1.356 . S
C707 C706 1.363 . S
C707 C710 1.363 1_455 S
N708 C710 1.356 . S
N708 H720 0.984 . S
N708 H721 0.985 1_655 S
N709 C711 1.356 . S
N709 H714 0.967 1_455 S
N709 H715 0.985 . S
C710 C704 1.379 . S
C710 C707 1.363 1_655 S
C710 N708 1.356 . S
C711 C705 1.363 1_455 S
C711 C706 1.379 . S
C711 N709 1.356 . S
N712 C704 1.356 . S
N712 H718 0.984 . S
N712 H719 0.984 . S
N713 C706 1.356 . S
N713 H716 0.984 . S
N713 H717 0.985 . S
H714 N709 0.967 1_655 S
H715 N709 0.985 . S
H716 N713 0.984 . S
H717 N713 0.985 . S
H718 N712 0.984 . S
H719 N712 0.984 . S
H720 N708 0.984 . S
H721 N708 0.985 1_455 S
C722 C723 1.363 . S
C722 C728 1.379 . S
C722 N730 1.356 . S
C723 C722 1.363 . S
C723 C729 1.374 . S
C724 C725 1.363 . S
C724 C729 1.370 1_545 S
C724 N731 1.356 . S
C725 C724 1.363 . S
C725 C728 1.363 1_545 S
N726 C728 1.356 . S
N726 H738 0.984 1_554 S
N726 H739 0.985 1_565 S
N727 C729 1.359 . S
N727 H732 0.984 . S
N727 H733 0.985 1_565 S
C728 C722 1.379 . S
C728 C725 1.363 1_565 S
C728 N726 1.356 . S
C729 C723 1.374 . S
C729 C724 1.370 1_565 S
C729 N727 1.359 . S
N730 C722 1.356 . S
N730 H736 0.984 . S
N730 H737 0.984 . S
N731 C724 1.356 . S
N731 H734 0.984 . S
N731 H735 0.985 . S
H732 N727 0.984 . S
H733 N727 0.985 1_545 S
H734 N731 0.984 . S
H735 N731 0.985 . S
H736 N730 0.984 . S
H737 N730 0.984 . S
H738 N726 0.984 1_556 S
H739 N726 0.985 1_545 S
C740 C741 1.363 . S
C740 C746 1.379 . S
C740 N748 1.356 . S
C741 C740 1.363 . S
C741 C747 1.363 . S
C742 C743 1.363 . S
C742 C747 1.379 . S
C742 N749 1.356 . S
C743 C742 1.363 . S
C743 C746 1.363 . S
N744 C746 1.356 . S
N744 H756 0.984 . S
N744 H757 0.985 . S
N745 C747 1.356 . S
N745 H750 0.984 . S
N745 H751 0.985 . S
C746 C740 1.379 . S
C746 C743 1.363 . S
C746 N744 1.356 . S
C747 C741 1.363 . S
C747 C742 1.379 . S
C747 N745 1.356 . S
N748 C740 1.356 . S
N748 H754 0.984 . S
N748 H755 0.984 . S
N749 C742 1.356 . S
N749 H752 0.984 . S
N749 H753 0.985 . S
H750 N745 0.984 . S
H751 N745 0.985 . S
H752 N749 0.984 . S
H753 N749 0.985 . S
H754 N748 0.984 . S
H755 N748 0.984 . S
H756 N744 0.984 . S
H757 N744 0.985 . S
C758 C759 1.363 . S
C758 C764 1.379 . S
C758 N766 1.356 . S
C759 C758 1.363 . S
C759 C765 1.363 . S
C760 C761 1.363 . S
C760 C765 1.379 . S
C760 N767 1.356 . S
C761 C760 1.363 . S
C761 C764 1.363 . S
N762 C764 1.356 . S
N762 H774 0.984 . S
N762 H775 0.985 . S
N763 C765 1.356 . S
N763 H768 0.984 . S
N763 H769 0.985 . S
C764 C758 1.379 . S
C764 C761 1.363 . S
C764 N762 1.356 . S
C765 C759 1.363 . S
C765 C760 1.379 . S
C765 N763 1.356 . S
N766 C758 1.356 . S
N766 H772 0.984 . S
N766 H773 0.984 . S
N767 C760 1.356 . S
N767 H770 0.984 . S
N767 H771 0.985 1_554 S
H768 N763 0.984 . S
H769 N763 0.985 . S
H770 N767 0.984 . S
H771 N767 0.985 1_556 S
H772 N766 0.984 . S
H773 N766 0.984 . S
H774 N762 0.984 . S
H775 N762 0.985 . S
C776 C777 1.363 . S
C776 C782 1.379 . S
C776 N784 1.356 . S
C777 C776 1.363 . S
C777 C783 1.363 . S
C778 C779 1.363 . S
C778 C783 1.379 . S
C778 N785 1.356 1_455 S
C779 C778 1.363 . S
C779 C782 1.363 . S
N780 C782 1.356 . S
N780 H792 0.984 1_556 S
N780 H793 0.985 . S
N781 C783 1.356 . S
N781 H786 0.984 . S
N781 H787 0.985 1_455 S
C782 C776 1.379 . S
C782 C779 1.363 . S
C782 N780 1.356 . S
C783 C777 1.363 . S
C783 C778 1.379 . S
C783 N781 1.356 . S
N784 C776 1.356 . S
N784 H790 0.984 1_556 S
N784 H791 0.984 . S
N785 C778 1.356 1_655 S
N785 H788 0.984 . S
N785 H789 0.985 . S
H786 N781 0.984 . S
H787 N781 0.985 1_655 S
H788 N785 0.984 . S
H789 N785 0.985 . S
H790 N784 0.984 1_554 S
H791 N784 0.984 . S
H792 N780 0.984 1_554 S
H793 N780 0.985 . S
C794 C795 1.363 . S
C794 C800 1.379 . S
C794 N802 1.356 1_556 S
C795 C794 1.363 . S
C795 C801 1.363 . S
C796 C797 1.363 . S
C796 C801 1.379 . S
C796 N803 1.356 . S
C797 C796 1.363 . S
C797 C800 1.363 . S
N798 C800 1.362 . S
N798 H810 0.976 1_556 S
N798 H811 0.987 . S
N799 C801 1.356 . S
N799 H804 0.984 . S
N799 H805 0.985 . S
C800 C794 1.379 . S
C800 C797 1.363 . S
C800 N798 1.362 . S
C801 C795 1.363 . S
C801 C796 1.379 . S
C801 N799 1.356 . S
N802 C794 1.356 1_554 S
N802 H808 0.984 . S
N802 H809 0.984 1_554 S
N803 C796 1.356 . S
N803 H806 0.984 . S
N803 H807 0.985 . S
H804 N799 0.984 . S
H805 N799 0.985 . S
H806 N803 0.984 . S
H807 N803 0.985 . S
H808 N802 0.984 . S
H809 N802 0.984 1_556 S
H810 N798 0.976 1_554 S
H811 N798 0.987 . S
C812 C813 1.363 . S
C812 C818 1.379 . S
C812 N820 1.356 . S
C813 C812 1.363 . S
C813 C819 1.363 . S
C814 C815 1.363 . S
C814 C819 1.379 . S
C814 N821 1.356 . S
C815 C814 1.363 . S
C815 C818 1.363 . S
N816 C818 1.356 . S
N816 H828 0.984 1_556 S
N816 H829 0.985 . S
N817 C819 1.356 . S
N817 H822 0.984 . S
N817 H823 0.985 . S
C818 C812 1.379 . S
C818 C815 1.363 . S
C818 N816 1.356 . S
C819 C813 1.363 . S
C819 C814 1.379 . S
C819 N817 1.356 . S
N820 C812 1.356 . S
N820 H826 0.984 1_556 S
N820 H827 0.984 . S
N821 C814 1.356 . S
N821 H824 0.984 . S
N821 H825 0.985 . S
H822 N817 0.984 . S
H823 N817 0.985 . S
H824 N821 0.984 . S
H825 N821 0.985 . S
H826 N820 0.984 1_554 S
H827 N820 0.984 . S
H828 N816 0.984 1_554 S
H829 N816 0.985 . S
C830 C831 1.363 . S
C830 C836 1.379 . S
C830 N838 1.356 . S
C831 C830 1.363 . S
C831 C837 1.363 . S
C832 C833 1.363 . S
C832 C837 1.379 . S
C832 N839 1.356 . S
C833 C832 1.363 . S
C833 C836 1.363 . S
N834 C836 1.356 . S
N834 H846 0.984 . S
N834 H847 0.985 . S
N835 C837 1.356 . S
N835 H840 0.984 . S
N835 H841 0.985 1_556 S
C836 C830 1.379 . S
C836 C833 1.363 . S
C836 N834 1.356 . S
C837 C831 1.363 . S
C837 C832 1.379 . S
C837 N835 1.356 . S
N838 C830 1.356 . S
N838 H844 0.984 . S
N838 H845 0.984 . S
N839 C832 1.356 . S
N839 H842 0.984 . S
N839 H843 0.985 1_556 S
H840 N835 0.984 . S
H841 N835 0.985 1_554 S
H842 N839 0.984 . S
H843 N839 0.985 1_554 S
H844 N838 0.984 . S
H845 N838 0.984 . S
H846 N834 0.984 . S
H847 N834 0.985 . S
C848 C849 1.363 1_455 S
C848 C854 1.379 . S
C848 N856 1.356 . S
C849 C848 1.363 1_655 S
C849 C855 1.363 . S
C850 C851 1.363 . S
C850 C855 1.379 . S
C850 N857 1.356 . S
C851 C850 1.363 . S
C851 C854 1.363 1_655 S
N852 C854 1.356 . S
N852 H864 0.984 . S
N852 H865 0.985 . S
N853 C855 1.356 . S
N853 H858 0.984 . S
N853 H859 0.985 . S
C854 C848 1.379 . S
C854 C851 1.363 1_455 S
C854 N852 1.356 . S
C855 C849 1.363 . S
C855 C850 1.379 . S
C855 N853 1.356 . S
N856 C848 1.356 . S
N856 H862 0.984 . S
N856 H863 0.984 . S
N857 C850 1.356 . S
N857 H860 0.984 . S
N857 H861 0.985 . S
H858 N853 0.984 . S
H859 N853 0.985 . S
H860 N857 0.984 . S
H861 N857 0.985 . S
H862 N856 0.984 . S
H863 N856 0.984 . S
H864 N852 0.984 . S
H865 N852 0.985 . S
C866 C867 1.363 . S
C866 C872 1.379 . S
C866 N874 1.356 . S
C867 C866 1.363 . S
C867 C873 1.363 1_565 S
C868 C869 1.363 1_545 S
C868 C873 1.379 . S
C868 N875 1.356 . S
C869 C868 1.363 1_565 S
C869 C872 1.363 . S
N870 C872 1.356 . S
N870 H882 0.984 . S
N870 H883 0.985 . S
N871 C873 1.356 . S
N871 H876 0.984 . S
N871 H877 0.985 . S
C872 C866 1.379 . S
C872 C869 1.363 . S
C872 N870 1.356 . S
C873 C867 1.363 1_545 S
C873 C868 1.379 . S
C873 N871 1.356 . S
N874 C866 1.356 . S
N874 H880 0.984 . S
N874 H881 0.984 . S
N875 C868 1.356 . S
N875 H878 0.984 . S
N875 H879 0.985 . S
H876 N871 0.984 . S
H877 N871 0.985 . S
H878 N875 0.984 . S
H879 N875 0.985 . S
H880 N874 0.984 . S
H881 N874 0.984 . S
H882 N870 0.984 . S
H883 N870 0.985 . S
C884 C885 1.363 . S
C884 C890 1.379 . S
C884 N892 1.356 . S
C885 C884 1.363 . S
C885 C891 1.363 . S
C886 C887 1.363 . S
C886 C891 1.379 . S
C886 N893 1.356 . S
C887 C886 1.363 . S
C887 C890 1.363 . S
N888 C890 1.356 . S
N888 H900 0.984 . S
N888 H901 0.985 . S
N889 C891 1.356 . S
N889 H894 0.984 . S
N889 H895 0.985 . S
C890 C884 1.379 . S
C890 C887 1.363 . S
C890 N888 1.356 . S
C891 C885 1.363 . S
C891 C886 1.379 . S
C891 N889 1.356 . S
N892 C884 1.356 . S
N892 H898 0.984 . S
N892 H899 0.984 . S
N893 C886 1.356 . S
N893 H896 0.984 . S
N893 H897 0.985 . S
H894 N889 0.984 . S
H895 N889 0.985 . S
H896 N893 0.984 . S
H897 N893 0.985 . S
H898 N892 0.984 . S
H899 N892 0.984 . S
H900 N888 0.984 . S
H901 N888 0.985 . S
C902 C903 1.363 . S
C902 C908 1.379 . S
C902 N910 1.356 . S
C903 C902 1.363 . S
C903 C909 1.363 . S
C904 C905 1.363 . S
C904 C909 1.379 . S
C904 N911 1.356 . S
C905 C904 1.363 . S
C905 C908 1.363 . S
N906 C908 1.356 . S
N906 H918 0.984 . S
N906 H919 0.985 . S
N907 C909 1.356 . S
N907 H912 0.984 . S
N907 H913 0.985 . S
C908 C902 1.379 . S
C908 C905 1.363 . S
C908 N906 1.356 . S
C909 C903 1.363 . S
C909 C904 1.379 . S
C909 N907 1.356 . S
N910 C902 1.356 . S
N910 H916 0.984 . S
N910 H917 0.984 . S
N911 C904 1.356 . S
N911 H914 0.984 . S
N911 H915 0.985 . S
H912 N907 0.984 . S
H913 N907 0.985 . S
H914 N911 0.984 . S
H915 N911 0.985 . S
H916 N910 0.984 . S
H917 N910 0.984 . S
H918 N906 0.984 . S
H919 N906 0.985 . S
C489 C125 2.106 . S
C491 C215 2.157 . S
C509 C292 2.159 . S
C507 C144 2.109 . S
C527 C383 2.157 . S
C525 C87 2.109 . S
C545 C467 2.145 . S
C543 C106 2.096 . S
C563 C226 2.158 1_565 S
C561 C49 2.164 . S
C579 C68 2.167 . S
C581 C303 2.158 . S
C597 C11 2.164 . S
C599 C394 2.157 . S
C615 C30 2.151 . S
C617 C478 2.145 1_655 S
C635 C210 0.794 1_455 S
C633 C97 0.791 . S
C653 C305 0.787 . S
C651 C116 0.780 . S
C671 C378 0.799 . S
C669 C135 0.795 . S
C687 C78 0.778 . S
C689 C462 0.780 . S
C705 C21 0.791 . S
C707 C221 0.794 . S
C725 C294 0.783 . S
C723 C40 0.780 . S
C743 C389 0.799 . S
C741 C59 0.795 . S
C759 C2 0.778 . S
C761 C473 0.780 . S
C777 C101 2.033 . S
C779 C219 2.263 . S
C795 C120 2.039 . S
C797 C310 2.323 . S
C815 C387 2.280 . S
C813 C139 2.047 . S
C833 C471 2.283 . S
C831 C82 2.051 . S
C849 C25 2.035 . S
C851 C208 2.263 . S
C869 C299 2.323 . S
C867 C44 2.042 . S
C887 C376 2.280 . S
C885 C63 2.049 . S
C903 C6 2.053 . S
C905 C460 2.282 . S
