# Generated by pormake.
# Topology nom, (4,4)-cn, num edge types: 1
# Building blocks:
#     Node 0, Type 0, BuildingBlock: GIZVER_clean_linker_0, # of connection points: 4
#     Node 1, Type 0, BuildingBlock: GIZVER_clean_linker_0, # of connection points: 4
#     Node 2, Type 0, BuildingBlock: GIZVER_clean_linker_0, # of connection points: 4
#     Node 3, Type 0, BuildingBlock: GIZVER_clean_linker_0, # of connection points: 4
#     Node 4, Type 0, BuildingBlock: GIZVER_clean_linker_0, # of connection points: 4
#     Node 5, Type 0, BuildingBlock: GIZVER_clean_linker_0, # of connection points: 4
#     Node 6, Type 1, BuildingBlock: UXUYUI_clean_sbu_0, # of connection points: 4
#     Node 7, Type 1, BuildingBlock: UXUYUI_clean_sbu_0, # of connection points: 4
#     Node 8, Type 1, BuildingBlock: UXUYUI_clean_sbu_0, # of connection points: 4
#     Node 9, Type 1, BuildingBlock: UXUYUI_clean_sbu_0, # of connection points: 4
#     Node 10, Type 1, BuildingBlock: UXUYUI_clean_sbu_0, # of connection points: 4
#     Node 11, Type 1, BuildingBlock: UXUYUI_clean_sbu_0, # of connection points: 4
#     Edge 12, Type (0, 1), BuildingBlock: MIFKUJ_clean_linker_0, # of connection points: 2
#     Edge 13, Type (0, 1), BuildingBlock: MIFKUJ_clean_linker_0, # of connection points: 2
#     Edge 14, Type (0, 1), BuildingBlock: MIFKUJ_clean_linker_0, # of connection points: 2
#     Edge 15, Type (0, 1), BuildingBlock: MIFKUJ_clean_linker_0, # of connection points: 2
#     Edge 16, Type (0, 1), BuildingBlock: MIFKUJ_clean_linker_0, # of connection points: 2
#     Edge 17, Type (0, 1), BuildingBlock: MIFKUJ_clean_linker_0, # of connection points: 2
#     Edge 18, Type (0, 1), BuildingBlock: MIFKUJ_clean_linker_0, # of connection points: 2
#     Edge 19, Type (0, 1), BuildingBlock: MIFKUJ_clean_linker_0, # of connection points: 2
#     Edge 20, Type (0, 1), BuildingBlock: MIFKUJ_clean_linker_0, # of connection points: 2
#     Edge 21, Type (0, 1), BuildingBlock: MIFKUJ_clean_linker_0, # of connection points: 2
#     Edge 22, Type (0, 1), BuildingBlock: MIFKUJ_clean_linker_0, # of connection points: 2
#     Edge 23, Type (0, 1), BuildingBlock: MIFKUJ_clean_linker_0, # of connection points: 2
#     Edge 24, Type (0, 1), BuildingBlock: MIFKUJ_clean_linker_0, # of connection points: 2
#     Edge 25, Type (0, 1), BuildingBlock: MIFKUJ_clean_linker_0, # of connection points: 2
#     Edge 26, Type (0, 1), BuildingBlock: MIFKUJ_clean_linker_0, # of connection points: 2
#     Edge 27, Type (0, 1), BuildingBlock: MIFKUJ_clean_linker_0, # of connection points: 2
#     Edge 28, Type (0, 1), BuildingBlock: MIFKUJ_clean_linker_0, # of connection points: 2
#     Edge 29, Type (0, 1), BuildingBlock: MIFKUJ_clean_linker_0, # of connection points: 2
#     Edge 30, Type (0, 1), BuildingBlock: MIFKUJ_clean_linker_0, # of connection points: 2
#     Edge 31, Type (0, 1), BuildingBlock: MIFKUJ_clean_linker_0, # of connection points: 2
#     Edge 32, Type (0, 1), BuildingBlock: MIFKUJ_clean_linker_0, # of connection points: 2
#     Edge 33, Type (0, 1), BuildingBlock: MIFKUJ_clean_linker_0, # of connection points: 2
#     Edge 34, Type (0, 1), BuildingBlock: MIFKUJ_clean_linker_0, # of connection points: 2
#     Edge 35, Type (0, 1), BuildingBlock: MIFKUJ_clean_linker_0, # of connection points: 2
# Relax obj value: 0.036
# Max RMSD: 0.148
# Mean RMSD: 0.105
data_MOF--net-nom--node1-UXUYUI_clean_sbu_0--node2-GIZVER_clean_linker_0--edge1-MIFKUJ_clean_linker_0
_symmetry_space_group_name_H-M    P1
_symmetry_Int_Tables_number       1
_symmetry_cell_setting            triclinic
loop_
_symmetry_equiv_pos_as_xyz
'x, y, z'
_cell_length_a     70.553156
_cell_length_b     70.570084
_cell_length_c     69.804108
_cell_angle_alpha  89.990825
_cell_angle_beta   90.038215
_cell_angle_gamma 120.01052
loop_
_atom_site_label
_atom_site_type_symbol
_atom_site_fract_x
_atom_site_fract_y
_atom_site_fract_z
_atom_type_partial_charge
H0 H 0.98045 0.53905 0.35034 0.0
H1 H 0.00993 0.5351 0.29756 0.0
H2 H 0.94393 0.48618 0.31108 0.0
H3 H 0.01515 0.56848 0.34194 0.0
H4 H 0.02027 0.57149 0.31686 0.0
H5 H 0.02884 0.54531 0.36079 0.0
H6 H 0.09509 0.56556 0.34491 0.0
H7 H 0.05431 0.57683 0.30641 0.0
C8 C 0.97981 0.53013 0.33749 0.0
C9 C 0.96002 0.51147 0.33227 0.0
C10 C 0.99816 0.53851 0.32523 0.0
C11 C 0.99648 0.52794 0.30767 0.0
C12 C 0.977 0.50888 0.30269 0.0
C13 C 0.95921 0.50045 0.31531 0.0
C14 C 0.01795 0.56064 0.32926 0.0
C15 C 0.03863 0.55964 0.33258 0.0
C16 C 0.04178 0.55178 0.35017 0.0
C17 C 0.06207 0.55358 0.35453 0.0
C18 C 0.07911 0.56319 0.34117 0.0
C19 C 0.07662 0.57196 0.32398 0.0
C20 C 0.05613 0.56954 0.31944 0.0
H21 H 0.46134 0.98825 0.52291 0.0
H22 H 0.4765 1.00076 0.46275 0.0
H23 H 0.46627 0.94086 0.48798 0.0
H24 H 0.45887 0.01732 0.50753 0.0
H25 H 0.45912 0.01864 0.48207 0.0
H26 H 0.49422 0.03687 0.52603 0.0
H27 H 0.54318 0.09577 0.49887 0.0
H28 H 0.49038 0.04665 0.46544 0.0
C29 C 0.46521 0.98363 0.50928 0.0
C30 C 0.464 0.96323 0.50747 0.0
C31 C 0.47033 0.9976 0.49328 0.0
C32 C 0.47388 0.99073 0.47533 0.0
C33 C 0.47211 0.9701 0.47335 0.0
C34 C 0.468 0.95695 0.4896 0.0
C35 C 0.46848 0.01799 0.49465 0.0
C36 C 0.49054 0.03872 0.49542 0.0
C37 C 0.50134 0.04637 0.51314 0.0
C38 C 0.52014 0.06715 0.51446 0.0
C39 C 0.52886 0.07956 0.49778 0.0
C40 C 0.51826 0.07242 0.4801 0.0
C41 C 0.49909 0.05191 0.47894 0.0
H42 H 0.46173 0.49216 0.63539 0.0
H43 H 0.47813 0.48862 0.69426 0.0
H44 H 0.46887 0.54138 0.67559 0.0
H45 H 0.45984 0.45941 0.64668 0.0
H46 H 0.45813 0.45489 0.67185 0.0
H47 H 0.4953 0.47381 0.62972 0.0
H48 H 0.54297 0.46247 0.65781 0.0
H49 H 0.48883 0.45763 0.68983 0.0
C50 C 0.46599 0.49926 0.6496 0.0
C51 C 0.46541 0.51851 0.65358 0.0
C52 C 0.471 0.48858 0.66413 0.0
C53 C 0.47532 0.4973 0.68281 0.0
C54 C 0.47496 0.51661 0.68691 0.0
C55 C 0.4704 0.52722 0.67216 0.0
C56 C 0.46859 0.46636 0.66042 0.0
C57 C 0.49033 0.46698 0.66006 0.0
C58 C 0.50182 0.47073 0.64266 0.0
C59 C 0.52057 0.4686 0.64166 0.0
C60 C 0.52853 0.46418 0.6585 0.0
C61 C 0.51718 0.46001 0.67585 0.0
C62 C 0.49806 0.46148 0.6766 0.0
H63 H 0.98472 0.45819 0.79993 0.0
H64 H 0.00589 0.48071 0.85756 0.0
H65 H 0.94252 0.46745 0.83824 0.0
H66 H 0.01641 0.45838 0.81227 0.0
H67 H 0.02053 0.46023 0.83753 0.0
H68 H 0.03159 0.49396 0.79286 0.0
H69 H 0.09468 0.54345 0.81328 0.0
H70 H 0.05143 0.49157 0.85078 0.0
C71 C 0.98206 0.46369 0.81364 0.0
C72 C 0.96208 0.46289 0.8172 0.0
C73 C 0.99819 0.47058 0.82804 0.0
C74 C 0.99397 0.47639 0.84618 0.0
C75 C 0.97396 0.47551 0.84993 0.0
C76 C 0.95842 0.46926 0.83519 0.0
C77 C 0.01841 0.46873 0.82498 0.0
C78 C 0.03883 0.49077 0.82234 0.0
C79 C 0.04336 0.50126 0.80439 0.0
C80 C 0.06345 0.52047 0.80104 0.0
C81 C 0.0787 0.52936 0.81603 0.0
C82 C 0.07459 0.51912 0.83398 0.0
C83 C 0.05452 0.49987 0.8371 0.0
H84 H 0.58551 0.05294 0.01508 0.0
H85 H 0.5514 0.02598 0.96193 0.0
H86 H 0.57263 0.09271 0.97679 0.0
H87 H 0.57711 0.01728 0.00673 0.0
H88 H 0.57847 0.01475 0.98155 0.0
H89 H 0.54158 0.99695 0.02386 0.0
H90 H 0.49307 0.9385 0.99565 0.0
H91 H 0.54748 0.98736 0.96362 0.0
C92 C 0.57769 0.05444 0.00226 0.0
C93 C 0.57999 0.07484 0.99754 0.0
C94 C 0.56703 0.03651 0.98961 0.0
C95 C 0.5585 0.03923 0.97222 0.0
C96 C 0.56015 0.05941 0.96765 0.0
C97 C 0.57051 0.07686 0.98059 0.0
C98 C 0.56832 0.01601 0.99312 0.0
C99 C 0.54621 0.99527 0.99342 0.0
C100 C 0.53481 0.98754 0.01086 0.0
C101 C 0.51589 0.96678 0.01183 0.0
C102 C 0.50759 0.95459 0.99495 0.0
C103 C 0.51889 0.96174 0.97759 0.0
C104 C 0.53823 0.98213 0.97685 0.0
H105 H 0.57781 0.54608 0.13027 0.0
H106 H 0.56042 0.54074 0.18997 0.0
H107 H 0.57055 0.49157 0.16321 0.0
H108 H 0.5792 0.57679 0.14661 0.0
H109 H 0.57671 0.57626 0.17206 0.0
H110 H 0.54224 0.55318 0.12727 0.0
H111 H 0.49268 0.56629 0.14808 0.0
H112 H 0.54677 0.57848 0.18437 0.0
C113 C 0.57329 0.53691 0.14356 0.0
C114 C 0.57428 0.51757 0.14483 0.0
C115 C 0.56746 0.54493 0.15967 0.0
C116 C 0.5634 0.53377 0.17728 0.0
C117 C 0.56501 0.51474 0.1788 0.0
C118 C 0.56933 0.50627 0.16224 0.0
C119 C 0.56871 0.56695 0.15878 0.0
C120 C 0.54643 0.56489 0.15647 0.0
C121 C 0.53525 0.55793 0.13886 0.0
C122 C 0.5156 0.55802 0.13592 0.0
C123 C 0.50715 0.565 0.15075 0.0
C124 C 0.51826 0.57254 0.16819 0.0
C125 C 0.53785 0.57226 0.17106 0.0
Li126 Li 0.63535 0.39563 0.42819 0.0
Li127 Li 0.63118 0.36459 0.41103 0.0
Li128 Li 0.66505 0.39912 0.40826 0.0
Li129 Li 0.63016 0.39325 0.39208 0.0
C130 C 0.65542 0.38253 0.45081 0.0
N131 N 0.65982 0.38654 0.49018 0.0
C132 C 0.64053 0.36567 0.46266 0.0
C133 C 0.67265 0.40135 0.459 0.0
C134 C 0.64301 0.36802 0.48253 0.0
C135 C 0.67456 0.4031 0.47893 0.0
C136 C 0.58985 0.35582 0.4126 0.0
C137 C 0.55633 0.33003 0.39674 0.0
N138 N 0.55018 0.31712 0.4126 0.0
C139 C 0.58316 0.34231 0.42876 0.0
C140 C 0.57632 0.34964 0.39644 0.0
C141 C 0.56307 0.3228 0.42847 0.0
C142 C 0.63633 0.42892 0.45154 0.0
N143 N 0.62788 0.40691 0.45023 0.0
C144 C 0.6065 0.40131 0.47848 0.0
C145 C 0.61319 0.3931 0.46333 0.0
C146 C 0.6148 0.42397 0.48008 0.0
C147 C 0.63003 0.43784 0.46642 0.0
H148 H 0.64761 0.43959 0.44081 0.0
H149 H 0.60632 0.37568 0.46187 0.0
C150 C 0.62958 0.32584 0.42416 0.0
N151 N 0.62007 0.33333 0.41163 0.0
C152 C 0.62216 0.30346 0.42564 0.0
C153 C 0.59576 0.29679 0.40075 0.0
C154 C 0.60376 0.31933 0.39971 0.0
C155 C 0.60485 0.28854 0.41398 0.0
H156 H 0.64299 0.33726 0.43306 0.0
H157 H 0.59694 0.32562 0.38935 0.0
C158 C 0.66872 0.43884 0.40482 0.0
N159 N 0.70379 0.47999 0.39731 0.0
C160 C 0.67018 0.44901 0.38727 0.0
C161 C 0.68498 0.44974 0.41865 0.0
C162 C 0.68806 0.46978 0.38372 0.0
C163 C 0.70262 0.47048 0.41455 0.0
C164 C 0.64748 0.36239 0.37735 0.0
C165 C 0.66191 0.35515 0.3826 0.0
C166 C 0.63248 0.35192 0.36253 0.0
C167 C 0.66091 0.33728 0.37304 0.0
C168 C 0.63202 0.33413 0.3533 0.0
N169 N 0.6461 0.32723 0.35871 0.0
C170 C 0.70832 0.40811 0.41678 0.0
C171 C 0.70512 0.42532 0.38883 0.0
C172 C 0.73081 0.41716 0.41371 0.0
N173 N 0.69602 0.41245 0.40447 0.0
C174 C 0.72755 0.43495 0.38536 0.0
C175 C 0.74079 0.43083 0.3978 0.0
H176 H 0.7006 0.39729 0.4288 0.0
H177 H 0.69491 0.42805 0.37897 0.0
C178 C 0.60109 0.40442 0.37495 0.0
N179 N 0.61834 0.40144 0.37133 0.0
C180 C 0.59263 0.41177 0.36051 0.0
C181 C 0.62018 0.41333 0.33898 0.0
C182 C 0.62783 0.40551 0.35375 0.0
C183 C 0.60236 0.41668 0.34224 0.0
H184 H 0.59399 0.40119 0.38913 0.0
H185 H 0.64177 0.40333 0.35139 0.0
O186 O 0.65306 0.38069 0.43132 0.0
O187 O 0.60947 0.37499 0.41259 0.0
O188 O 0.65146 0.41837 0.40847 0.0
O189 O 0.64784 0.37948 0.38685 0.0
H190 H 0.627 0.35102 0.45663 0.0
H191 H 0.68442 0.41448 0.45009 0.0
H192 H 0.63152 0.35515 0.49186 0.0
H193 H 0.68778 0.41762 0.48544 0.0
H194 H 0.54575 0.32502 0.38431 0.0
H195 H 0.59353 0.34657 0.44125 0.0
H196 H 0.5813 0.35968 0.38371 0.0
H197 H 0.55779 0.31213 0.44083 0.0
H198 H 0.59446 0.38997 0.4885 0.0
H199 H 0.63698 0.45541 0.46716 0.0
H200 H 0.62965 0.2979 0.43609 0.0
H201 H 0.58272 0.28597 0.39118 0.0
H202 H 0.6577 0.44097 0.37646 0.0
H203 H 0.68404 0.44224 0.43236 0.0
H204 H 0.68943 0.47779 0.37015 0.0
H205 H 0.71538 0.47902 0.42508 0.0
H206 H 0.67356 0.36309 0.3941 0.0
H207 H 0.62116 0.35734 0.35838 0.0
H208 H 0.67186 0.33138 0.37702 0.0
H209 H 0.62042 0.32577 0.34188 0.0
H210 H 0.74014 0.41306 0.42348 0.0
H211 H 0.73438 0.44554 0.37304 0.0
H212 H 0.57864 0.41361 0.36373 0.0
H213 H 0.6286 0.41726 0.32535 0.0
Li214 Li 0.25881 0.6385 0.59373 0.0
Li215 Li 0.2879 0.6341 0.57744 0.0
Li216 Li 0.28744 0.66938 0.57569 0.0
Li217 Li 0.26003 0.63703 0.55997 0.0
C218 C 0.2968 0.64828 0.61535 0.0
N219 N 0.30856 0.63496 0.64829 0.0
C220 C 0.28503 0.62641 0.62115 0.0
C221 C 0.31454 0.66338 0.62632 0.0
C222 C 0.29123 0.61999 0.63784 0.0
C223 C 0.32023 0.65633 0.64293 0.0
C224 C 0.24546 0.59543 0.56695 0.0
C225 C 0.24612 0.5722 0.54192 0.0
N226 N 0.22401 0.55935 0.54331 0.0
C227 C 0.22276 0.58195 0.56818 0.0
C228 C 0.25726 0.59052 0.55373 0.0
C229 C 0.21222 0.56381 0.55608 0.0
C230 C 0.21719 0.61798 0.6089 0.0
N231 N 0.23845 0.62986 0.61445 0.0
C232 C 0.22767 0.62731 0.64728 0.0
C233 C 0.24396 0.63505 0.63318 0.0
C234 C 0.20557 0.61424 0.64198 0.0
C235 C 0.20043 0.60987 0.62246 0.0
H236 H 0.21327 0.61485 0.59385 0.0
H237 H 0.26093 0.6451 0.63724 0.0
C238 C 0.32792 0.63437 0.57347 0.0
N239 N 0.30683 0.62207 0.57938 0.0
C240 C 0.34254 0.62656 0.57552 0.0
C241 C 0.3134 0.5935 0.58959 0.0
C242 C 0.29934 0.60191 0.58718 0.0
C243 C 0.33541 0.60592 0.58384 0.0
H244 H 0.33343 0.65036 0.5673 0.0
H245 H 0.28249 0.59248 0.59183 0.0
C246 C 0.25134 0.67229 0.58512 0.0
N247 N 0.24314 0.7014 0.60486 0.0
C248 C 0.23624 0.67784 0.578 0.0
C249 C 0.26231 0.68159 0.60229 0.0
C250 C 0.23232 0.69258 0.58818 0.0
C251 C 0.25792 0.69625 0.61205 0.0
C252 C 0.29458 0.65576 0.53578 0.0
C253 C 0.28839 0.6694 0.52655 0.0
C254 C 0.30316 0.64502 0.52514 0.0
C255 C 0.29072 0.67192 0.50669 0.0
C256 C 0.30526 0.648 0.50531 0.0
N257 N 0.29903 0.66125 0.49657 0.0
C258 C 0.32634 0.70964 0.58217 0.0
C259 C 0.29901 0.71284 0.56515 0.0
C260 C 0.34063 0.73222 0.58089 0.0
N261 N 0.30601 0.70044 0.57431 0.0
C262 C 0.31273 0.73547 0.56357 0.0
C263 C 0.33393 0.74548 0.5714 0.0
H264 H 0.33152 0.69937 0.58929 0.0
H265 H 0.28284 0.70512 0.55885 0.0
C266 C 0.22113 0.62643 0.54167 0.0
N267 N 0.24 0.6261 0.5387 0.0
C268 C 0.2046 0.61816 0.52789 0.0
C269 C 0.22693 0.60888 0.50822 0.0
C270 C 0.24311 0.6174 0.52242 0.0
C271 C 0.20737 0.60927 0.51084 0.0
H272 H 0.21876 0.63282 0.55496 0.0
H273 H 0.25794 0.61673 0.52051 0.0
O274 O 0.29128 0.65494 0.59891 0.0
O275 O 0.25607 0.61361 0.57831 0.0
O276 O 0.25531 0.6579 0.57517 0.0
O277 O 0.29234 0.65298 0.55517 0.0
H278 H 0.27117 0.61451 0.61293 0.0
H279 H 0.32383 0.68038 0.62203 0.0
H280 H 0.28225 0.60312 0.64249 0.0
H281 H 0.33393 0.66783 0.65155 0.0
H282 H 0.25504 0.56829 0.53155 0.0
H283 H 0.21334 0.58543 0.57832 0.0
H284 H 0.27477 0.60096 0.55232 0.0
H285 H 0.19465 0.55329 0.55684 0.0
H286 H 0.23236 0.6311 0.66217 0.0
H287 H 0.18361 0.60034 0.61769 0.0
H288 H 0.35924 0.63661 0.57064 0.0
H289 H 0.30719 0.57768 0.59634 0.0
H290 H 0.22767 0.67089 0.56469 0.0
H291 H 0.2741 0.67763 0.60807 0.0
H292 H 0.22067 0.69702 0.58282 0.0
H293 H 0.26628 0.70354 0.62535 0.0
H294 H 0.28162 0.67772 0.53461 0.0
H295 H 0.30804 0.63443 0.53213 0.0
H296 H 0.28588 0.68231 0.49931 0.0
H297 H 0.3118 0.63974 0.49686 0.0
H298 H 0.35673 0.73921 0.5873 0.0
H299 H 0.30696 0.74494 0.55587 0.0
H300 H 0.18962 0.61837 0.53074 0.0
H301 H 0.2298 0.60223 0.49527 0.0
Li302 Li 0.66658 0.28361 0.74663 0.0
Li303 Li 0.63254 0.25357 0.76273 0.0
Li304 Li 0.63734 0.25691 0.72684 0.0
Li305 Li 0.63192 0.28273 0.74432 0.0
C306 C 0.67226 0.24915 0.75068 0.0
N307 N 0.70857 0.24587 0.76011 0.0
C308 C 0.67408 0.24197 0.7689 0.0
C309 C 0.68886 0.25452 0.73722 0.0
C310 C 0.69257 0.24043 0.77339 0.0
C311 C 0.70711 0.25281 0.74228 0.0
C312 C 0.6498 0.30294 0.77687 0.0
C313 C 0.6357 0.31853 0.7996 0.0
N314 N 0.65043 0.33889 0.79322 0.0
C315 C 0.66485 0.32402 0.77057 0.0
C316 C 0.63513 0.30013 0.79152 0.0
C317 C 0.66489 0.34199 0.77901 0.0
C318 C 0.70905 0.31794 0.73647 0.0
N319 N 0.6976 0.30222 0.74978 0.0
C320 C 0.73019 0.3134 0.76811 0.0
C321 C 0.70762 0.3 0.76557 0.0
C322 C 0.74247 0.32964 0.7545 0.0
C323 C 0.7316 0.33192 0.73858 0.0
H324 H 0.70064 0.3198 0.7243 0.0
H325 H 0.69807 0.28787 0.77627 0.0
C326 C 0.61163 0.21131 0.77668 0.0
N327 N 0.62096 0.23244 0.78263 0.0
C328 C 0.60322 0.19429 0.78998 0.0
C329 C 0.61382 0.22104 0.81535 0.0
C330 C 0.62222 0.23762 0.80152 0.0
C331 C 0.60434 0.19904 0.80962 0.0
H332 H 0.61092 0.20775 0.76154 0.0
H333 H 0.62999 0.25458 0.80585 0.0
C334 C 0.65513 0.28922 0.70424 0.0
N335 N 0.65719 0.28737 0.6648 0.0
C336 C 0.63943 0.29032 0.69282 0.0
C337 C 0.67191 0.28723 0.69558 0.0
C338 C 0.64076 0.28937 0.67291 0.0
C339 C 0.67266 0.28629 0.67563 0.0
C340 C 0.59113 0.24861 0.74386 0.0
C341 C 0.58288 0.25526 0.72867 0.0
C342 C 0.57849 0.23979 0.76035 0.0
C343 C 0.56217 0.25313 0.73031 0.0
C344 C 0.55783 0.23789 0.76142 0.0
N345 N 0.55018 0.24456 0.74651 0.0
C346 C 0.6406 0.22711 0.70153 0.0
C347 C 0.61316 0.23561 0.69322 0.0
C348 C 0.63435 0.21217 0.68642 0.0
N349 N 0.62998 0.23845 0.70467 0.0
C350 C 0.60642 0.22092 0.67791 0.0
C351 C 0.61693 0.2088 0.67443 0.0
H352 H 0.65366 0.22932 0.71099 0.0
H353 H 0.60471 0.24448 0.69614 0.0
C354 C 0.62872 0.31905 0.73168 0.0
N355 N 0.61966 0.3019 0.74406 0.0
C356 C 0.62074 0.33357 0.73048 0.0
C357 C 0.59471 0.31311 0.75537 0.0
C358 C 0.6032 0.29896 0.75606 0.0
C359 C 0.60339 0.33066 0.74235 0.0
H360 H 0.64222 0.32152 0.72268 0.0
H361 H 0.59667 0.28566 0.76626 0.0
O362 O 0.65438 0.25099 0.74607 0.0
O363 O 0.64913 0.28515 0.76841 0.0
O364 O 0.65382 0.28958 0.72379 0.0
O365 O 0.61136 0.25051 0.74255 0.0
H366 H 0.66148 0.2378 0.77954 0.0
H367 H 0.68779 0.26016 0.72309 0.0
H368 H 0.69422 0.23499 0.78746 0.0
H369 H 0.72013 0.25705 0.73204 0.0
H370 H 0.62436 0.31661 0.81087 0.0
H371 H 0.67618 0.32645 0.75912 0.0
H372 H 0.62318 0.28392 0.79638 0.0
H373 H 0.67636 0.35839 0.77421 0.0
H374 H 0.73787 0.31139 0.78078 0.0
H375 H 0.74046 0.34428 0.72779 0.0
H376 H 0.59587 0.17756 0.78495 0.0
H377 H 0.61522 0.2254 0.83037 0.0
H378 H 0.62615 0.29156 0.69924 0.0
H379 H 0.68414 0.28624 0.70417 0.0
H380 H 0.62865 0.29009 0.66391 0.0
H381 H 0.6855 0.28466 0.66875 0.0
H382 H 0.59253 0.26244 0.71593 0.0
H383 H 0.58457 0.23454 0.77225 0.0
H384 H 0.55567 0.25839 0.71873 0.0
H385 H 0.54791 0.23115 0.77412 0.0
H386 H 0.64303 0.20332 0.68418 0.0
H387 H 0.59269 0.21863 0.66924 0.0
H388 H 0.6279 0.34673 0.72012 0.0
H389 H 0.58164 0.31045 0.76508 0.0
Li390 Li 0.39842 0.63712 0.92974 0.0
Li391 Li 0.4042 0.66972 0.91171 0.0
Li392 Li 0.36777 0.63417 0.90993 0.0
Li393 Li 0.40078 0.63859 0.8941 0.0
C394 C 0.3762 0.65518 0.95062 0.0
N395 N 0.36357 0.65853 0.98737 0.0
C396 C 0.38935 0.67365 0.96176 0.0
C397 C 0.35646 0.63856 0.9581 0.0
C398 C 0.38273 0.67501 0.98033 0.0
C399 C 0.35041 0.64051 0.97673 0.0
C400 C 0.44407 0.67372 0.91652 0.0
C401 C 0.47672 0.70601 0.90574 0.0
N402 N 0.48547 0.70856 0.92357 0.0
C403 C 0.45343 0.67658 0.93471 0.0
C404 C 0.45584 0.68846 0.90188 0.0
C405 C 0.47437 0.69432 0.93799 0.0
C406 C 0.41388 0.6121 0.94669 0.0
N407 N 0.40654 0.62602 0.95136 0.0
C408 C 0.41297 0.62311 0.9846 0.0
C409 C 0.40593 0.6316 0.9699 0.0
C410 C 0.42077 0.60878 0.98018 0.0
C411 C 0.42107 0.60324 0.9609 0.0
H412 H 0.41435 0.60808 0.93181 0.0
H413 H 0.4002 0.64276 0.97338 0.0
C414 C 0.41125 0.71087 0.89883 0.0
N415 N 0.41743 0.70108 0.91228 0.0
C416 C 0.42001 0.73358 0.89897 0.0
C417 C 0.4415 0.73577 0.9267 0.0
C418 C 0.43221 0.71305 0.92611 0.0
C419 C 0.43536 0.74634 0.91306 0.0
H420 H 0.39934 0.70103 0.88806 0.0
H421 H 0.43665 0.70497 0.93686 0.0
C422 C 0.36508 0.59353 0.91661 0.0
N423 N 0.33505 0.55176 0.92865 0.0
C424 C 0.35812 0.5758 0.9041 0.0
C425 C 0.35697 0.58996 0.9353 0.0
C426 C 0.34286 0.55483 0.91043 0.0
C427 C 0.34175 0.56874 0.94111 0.0
C428 C 0.38569 0.65556 0.86951 0.0
C429 C 0.36732 0.6408 0.85899 0.0
C430 C 0.40477 0.67052 0.85995 0.0
C431 C 0.36846 0.64108 0.839 0.0
C432 C 0.40526 0.67027 0.83995 0.0
N433 N 0.38725 0.65567 0.82998 0.0
C434 C 0.32705 0.6322 0.91577 0.0
C435 C 0.32489 0.6028 0.89767 0.0
C436 C 0.30451 0.62379 0.91388 0.0
N437 N 0.33673 0.6216 0.90779 0.0
C438 C 0.30233 0.59386 0.89534 0.0
C439 C 0.29179 0.6044 0.90344 0.0
H440 H 0.33689 0.6473 0.92352 0.0
H441 H 0.33303 0.595 0.891 0.0
C442 C 0.43236 0.63671 0.87012 0.0
N443 N 0.41058 0.62872 0.87287 0.0
C444 C 0.4396 0.62806 0.85575 0.0
C445 C 0.40188 0.60325 0.8472 0.0
C446 C 0.39538 0.61243 0.86168 0.0
C447 C 0.42426 0.61086 0.84424 0.0
H448 H 0.4441 0.64938 0.87943 0.0
H449 H 0.37817 0.60627 0.86427 0.0
O450 O 0.38237 0.65369 0.93234 0.0
O451 O 0.42355 0.65649 0.91306 0.0
O452 O 0.37996 0.61418 0.91058 0.0
O453 O 0.38505 0.65524 0.88909 0.0
H454 H 0.40458 0.68674 0.95622 0.0
H455 H 0.3458 0.62434 0.94961 0.0
H456 H 0.39283 0.68915 0.98913 0.0
H457 H 0.33521 0.62773 0.9827 0.0
H458 H 0.48596 0.71762 0.89458 0.0
H459 H 0.44459 0.66533 0.94621 0.0
H460 H 0.44887 0.68646 0.88772 0.0
H461 H 0.48178 0.69679 0.95202 0.0
H462 H 0.41222 0.62766 0.99928 0.0
H463 H 0.42724 0.59254 0.95675 0.0
H464 H 0.41488 0.74106 0.88813 0.0
H465 H 0.45297 0.74489 0.93803 0.0
H466 H 0.36436 0.57821 0.88962 0.0
H467 H 0.36249 0.60337 0.94529 0.0
H468 H 0.33724 0.54098 0.90086 0.0
H469 H 0.33533 0.56577 0.95555 0.0
H470 H 0.35242 0.62914 0.86617 0.0
H471 H 0.41907 0.68213 0.8679 0.0
H472 H 0.35441 0.62967 0.83066 0.0
H473 H 0.41996 0.68168 0.83236 0.0
H474 H 0.29714 0.63242 0.92052 0.0
H475 H 0.29336 0.57918 0.88681 0.0
H476 H 0.45699 0.63425 0.85412 0.0
H477 H 0.38951 0.59021 0.8385 0.0
Li478 Li 0.75631 0.40395 0.07962 0.0
Li479 Li 0.78392 0.3992 0.09594 0.0
Li480 Li 0.78256 0.40142 0.06062 0.0
Li481 Li 0.75444 0.36842 0.07642 0.0
C482 C 0.79186 0.44434 0.08454 0.0
N483 N 0.79854 0.48525 0.09408 0.0
C484 C 0.79925 0.45289 0.10286 0.0
C485 C 0.78803 0.45669 0.07104 0.0
C486 C 0.80251 0.47359 0.10741 0.0
C487 C 0.79144 0.4773 0.07616 0.0
C488 C 0.7372 0.38457 0.11164 0.0
C489 C 0.70039 0.37719 0.11728 0.0
N490 N 0.70749 0.39033 0.133 0.0
C491 C 0.74415 0.39808 0.1278 0.0
C492 C 0.71515 0.37407 0.1063 0.0
C493 C 0.72887 0.40073 0.13845 0.0
C494 C 0.72043 0.40995 0.06985 0.0
N495 N 0.73789 0.41704 0.08185 0.0
C496 C 0.7276 0.44047 0.09797 0.0
C497 C 0.74154 0.43193 0.09582 0.0
C498 C 0.70925 0.43329 0.08596 0.0
C499 C 0.70584 0.41783 0.07168 0.0
H500 H 0.71751 0.39772 0.05913 0.0
H501 H 0.75503 0.43691 0.10562 0.0
C502 C 0.82556 0.4189 0.11188 0.0
N503 N 0.80409 0.40599 0.11646 0.0
C504 C 0.8417 0.4251 0.12592 0.0
C505 C 0.81333 0.40434 0.14912 0.0
C506 C 0.79774 0.39832 0.13456 0.0
C507 C 0.83564 0.418 0.14487 0.0
H508 H 0.8301 0.42457 0.0973 0.0
H509 H 0.78059 0.38757 0.13769 0.0
C510 C 0.75081 0.38847 0.037 0.0
N511 N 0.75382 0.39457 0.99779 0.0
C512 C 0.74933 0.37202 0.02489 0.0
C513 C 0.75361 0.40793 0.02918 0.0
C514 C 0.75094 0.37543 0.0051 0.0
C515 C 0.75515 0.41073 0.00931 0.0
C516 C 0.79241 0.36636 0.08433 0.0
C517 C 0.80957 0.36424 0.07673 0.0
C518 C 0.78134 0.35438 0.1006 0.0
C519 C 0.81537 0.35009 0.08555 0.0
C520 C 0.78764 0.34041 0.10899 0.0
N521 N 0.80438 0.33857 0.10136 0.0
C522 C 0.812 0.43254 0.03361 0.0
C523 C 0.80526 0.39631 0.02984 0.0
C524 C 0.82744 0.43989 0.01886 0.0
N525 N 0.80142 0.41112 0.03886 0.0
C526 C 0.8206 0.40295 0.01505 0.0
C527 C 0.83216 0.42507 0.00956 0.0
H528 H 0.8089 0.44403 0.04122 0.0
H529 H 0.79669 0.37939 0.0344 0.0
C530 C 0.71865 0.32503 0.08396 0.0
N531 N 0.73735 0.33726 0.07381 0.0
C532 C 0.70622 0.30239 0.08109 0.0
C533 C 0.73298 0.30528 0.05794 0.0
C534 C 0.74478 0.32782 0.06117 0.0
C535 C 0.71321 0.29221 0.06775 0.0
H536 H 0.71325 0.3328 0.09418 0.0
H537 H 0.75988 0.33788 0.05349 0.0
O538 O 0.78876 0.42417 0.07978 0.0
O539 O 0.75199 0.38209 0.10083 0.0
O540 O 0.74996 0.38573 0.05644 0.0
O541 O 0.78663 0.38023 0.07587 0.0
H542 H 0.80225 0.4436 0.11353 0.0
H543 H 0.78226 0.45035 0.05682 0.0
H544 H 0.80812 0.48036 0.12155 0.0
H545 H 0.7884 0.48696 0.06589 0.0
H546 H 0.68331 0.3693 0.11322 0.0
H547 H 0.76122 0.40679 0.13189 0.0
H548 H 0.70958 0.36405 0.09353 0.0
H549 H 0.73404 0.4112 0.15094 0.0
H550 H 0.73121 0.45255 0.10904 0.0
H551 H 0.69175 0.41142 0.06229 0.0
H552 H 0.85869 0.43576 0.12208 0.0
H553 H 0.80804 0.39829 0.16352 0.0
H554 H 0.74714 0.35685 0.0307 0.0
H555 H 0.7547 0.42079 0.03835 0.0
H556 H 0.74996 0.36289 0.99556 0.0
H557 H 0.75745 0.42576 0.00307 0.0
H558 H 0.81832 0.37345 0.06417 0.0
H559 H 0.76804 0.35583 0.1067 0.0
H560 H 0.82862 0.34827 0.07982 0.0
H561 H 0.77923 0.33104 0.12158 0.0
H562 H 0.83612 0.45712 0.01524 0.0
H563 H 0.82351 0.39091 0.0081 0.0
H564 H 0.69107 0.29307 0.08892 0.0
H565 H 0.73934 0.29819 0.04786 0.0
Li566 Li 0.40354 0.78242 0.26228 0.0
Li567 Li 0.36996 0.75521 0.24696 0.0
Li568 Li 0.40283 0.75212 0.2425 0.0
Li569 Li 0.39838 0.78078 0.22712 0.0
C570 C 0.37126 0.73794 0.27991 0.0
N571 N 0.33717 0.7127 0.30461 0.0
C572 C 0.36717 0.74754 0.29571 0.0
C573 C 0.35788 0.7155 0.27662 0.0
C574 C 0.34992 0.7345 0.30806 0.0
C575 C 0.34075 0.70303 0.28927 0.0
C576 C 0.36642 0.79145 0.2516 0.0
C577 C 0.33325 0.79144 0.24314 0.0
N578 N 0.33282 0.79923 0.26086 0.0
C579 C 0.36567 0.79952 0.26972 0.0
C580 C 0.35012 0.78745 0.23817 0.0
C581 C 0.34855 0.80333 0.27412 0.0
C582 C 0.42426 0.8239 0.27886 0.0
N583 N 0.4178 0.80262 0.28263 0.0
C584 C 0.43049 0.81152 0.31491 0.0
C585 C 0.42122 0.79628 0.30007 0.0
C586 C 0.43659 0.83351 0.31164 0.0
C587 C 0.43373 0.8397 0.29322 0.0
H588 H 0.42151 0.82847 0.26478 0.0
H589 H 0.4164 0.77933 0.30255 0.0
C590 C 0.32716 0.71996 0.23863 0.0
N591 N 0.33854 0.73762 0.25022 0.0
C592 C 0.30467 0.70596 0.24131 0.0
C593 C 0.30589 0.72879 0.26756 0.0
C594 C 0.32832 0.7421 0.26455 0.0
C595 C 0.2937 0.71022 0.25604 0.0
H596 H 0.33566 0.71642 0.22756 0.0
H597 H 0.33761 0.75576 0.27399 0.0
C598 C 0.44389 0.78939 0.2492 0.0
N599 N 0.48403 0.80015 0.26483 0.0
C600 C 0.46313 0.80611 0.24112 0.0
C601 C 0.44504 0.77813 0.26524 0.0
C602 C 0.48327 0.81131 0.24923 0.0
C603 C 0.46549 0.78382 0.27293 0.0
C604 C 0.37844 0.74839 0.20387 0.0
C605 C 0.39289 0.7458 0.19196 0.0
C606 C 0.36208 0.75152 0.19581 0.0
C607 C 0.39091 0.74669 0.17211 0.0
C608 C 0.36064 0.75232 0.17589 0.0
N609 N 0.37498 0.74993 0.16455 0.0
C610 C 0.40666 0.71407 0.24856 0.0
C611 C 0.43285 0.74045 0.22746 0.0
C612 C 0.41524 0.70023 0.24558 0.0
N613 N 0.41537 0.73364 0.23936 0.0
C614 C 0.44208 0.72722 0.22421 0.0
C615 C 0.43312 0.70669 0.23318 0.0
H616 H 0.393 0.70912 0.25814 0.0
H617 H 0.43948 0.75609 0.2203 0.0
C618 C 0.39715 0.81163 0.20176 0.0
N619 N 0.4068 0.79944 0.20524 0.0
C620 C 0.4044 0.82663 0.18667 0.0
C621 C 0.43132 0.8162 0.17896 0.0
C622 C 0.42359 0.80144 0.19425 0.0
C623 C 0.42181 0.82918 0.17511 0.0
H624 H 0.38412 0.81005 0.2109 0.0
H625 H 0.43125 0.79184 0.19759 0.0
O626 O 0.38788 0.75052 0.26748 0.0
O627 O 0.38315 0.78776 0.247 0.0
O628 O 0.42408 0.78419 0.24141 0.0
O629 O 0.38047 0.74816 0.22334 0.0
H630 H 0.37686 0.76495 0.29821 0.0
H631 H 0.36031 0.70786 0.26416 0.0
H632 H 0.34655 0.74176 0.32029 0.0
H633 H 0.33019 0.68569 0.2868 0.0
H634 H 0.32047 0.7883 0.23292 0.0
H635 H 0.378 0.80256 0.28037 0.0
H636 H 0.35036 0.78114 0.22413 0.0
H637 H 0.34772 0.80948 0.28811 0.0
H638 H 0.43274 0.80616 0.32884 0.0
H639 H 0.43806 0.85643 0.29011 0.0
H640 H 0.29615 0.69168 0.23225 0.0
H641 H 0.29827 0.73307 0.27891 0.0
H642 H 0.46248 0.81497 0.2287 0.0
H643 H 0.43033 0.76514 0.27168 0.0
H644 H 0.4983 0.82421 0.24312 0.0
H645 H 0.46663 0.77525 0.28533 0.0
H646 H 0.40562 0.74334 0.19797 0.0
H647 H 0.35067 0.75338 0.20483 0.0
H648 H 0.40208 0.74486 0.16271 0.0
H649 H 0.34813 0.75485 0.16945 0.0
H650 H 0.40802 0.68467 0.25299 0.0
H651 H 0.45574 0.73278 0.21442 0.0
H652 H 0.39646 0.83615 0.1841 0.0
H653 H 0.44498 0.81783 0.1706 0.0
H654 H 0.11377 0.6061 0.33758 0.0
H655 H 0.1479 0.62914 0.32075 0.0
H656 H 0.11854 0.59528 0.26794 0.0
H657 H 0.08418 0.57131 0.28523 0.0
H658 H 0.15925 0.60094 0.27247 0.0
H659 H 0.12902 0.64758 0.2745 0.0
H660 H 0.11062 0.66609 0.28873 0.0
H661 H 0.16377 0.69961 0.32838 0.0
H662 H 0.18237 0.68108 0.31457 0.0
H663 H 0.26062 0.68699 0.22991 0.0
H664 H 0.22154 0.66297 0.23643 0.0
H665 H 0.23354 0.67611 0.29683 0.0
H666 H 0.27255 0.69914 0.2907 0.0
H667 H 0.1986 0.6815 0.2814 0.0
H668 H 0.22528 0.62992 0.28179 0.0
H669 H 0.24327 0.61107 0.2674 0.0
H670 H 0.19602 0.58723 0.22183 0.0
H671 H 0.17793 0.60623 0.23583 0.0
C672 C 0.11462 0.60344 0.32241 0.0
C673 C 0.09649 0.5867 0.31277 0.0
C674 C 0.13406 0.61682 0.31272 0.0
C675 C 0.13577 0.61417 0.293 0.0
C676 C 0.11757 0.59766 0.28315 0.0
C677 C 0.09796 0.58409 0.29297 0.0
C678 C 0.15698 0.62838 0.2832 0.0
C679 C 0.16763 0.6186 0.27397 0.0
C680 C 0.16804 0.65144 0.28527 0.0
C681 C 0.15706 0.66286 0.29352 0.0
C682 C 0.13674 0.65882 0.28631 0.0
C683 C 0.12628 0.66932 0.29431 0.0
C684 C 0.13601 0.684 0.30946 0.0
C685 C 0.15626 0.68825 0.31663 0.0
C686 C 0.1668 0.67778 0.3087 0.0
C687 C 0.25504 0.68454 0.24462 0.0
C688 C 0.26987 0.69526 0.25974 0.0
C689 C 0.23266 0.6709 0.24828 0.0
C690 C 0.22468 0.66789 0.26709 0.0
C691 C 0.23936 0.67841 0.28219 0.0
C692 C 0.26169 0.69174 0.2786 0.0
C693 C 0.20101 0.65398 0.27132 0.0
C694 C 0.18997 0.66388 0.27948 0.0
C695 C 0.18957 0.63113 0.2681 0.0
C696 C 0.20045 0.61974 0.2597 0.0
C697 C 0.21887 0.62086 0.26859 0.0
C698 C 0.22905 0.6101 0.26053 0.0
C699 C 0.22084 0.59803 0.24367 0.0
C700 C 0.20239 0.59663 0.23486 0.0
C701 C 0.19217 0.60739 0.24285 0.0
H702 H 0.22874 0.5897 0.23746 0.0
H703 H 0.12788 0.69211 0.31564 0.0
H704 H 0.55907 0.09491 0.46457 0.0
H705 H 0.57403 0.1293 0.44675 0.0
H706 H 0.50961 0.12185 0.44344 0.0
H707 H 0.49455 0.08723 0.46102 0.0
H708 H 0.53482 0.14353 0.41167 0.0
H709 H 0.54127 0.14925 0.48051 0.0
H710 H 0.55164 0.1425 0.51245 0.0
H711 H 0.61882 0.17263 0.49483 0.0
H712 H 0.60884 0.17962 0.46275 0.0
H713 H 0.562 0.25559 0.41342 0.0
H714 H 0.54765 0.2165 0.41865 0.0
H715 H 0.61348 0.22805 0.42436 0.0
H716 H 0.62795 0.26716 0.41908 0.0
H717 H 0.58857 0.20369 0.45306 0.0
H718 H 0.58171 0.20201 0.38473 0.0
H719 H 0.57026 0.20942 0.35356 0.0
H720 H 0.50285 0.17196 0.3705 0.0
H721 H 0.5139 0.16458 0.40189 0.0
C722 C 0.54799 0.10018 0.45933 0.0
C723 C 0.52569 0.08849 0.46421 0.0
C724 C 0.55656 0.1199 0.44929 0.0
C725 C 0.54302 0.12841 0.4442 0.0
C726 C 0.52037 0.11564 0.44731 0.0
C727 C 0.51174 0.09579 0.45725 0.0
C728 C 0.55281 0.15164 0.43817 0.0
C729 C 0.54649 0.15672 0.42072 0.0
C730 C 0.56819 0.16885 0.44992 0.0
C731 C 0.57428 0.16474 0.46919 0.0
C732 C 0.55823 0.1543 0.48341 0.0
C733 C 0.56403 0.15044 0.50154 0.0
C734 C 0.58584 0.15697 0.50564 0.0
C735 C 0.60192 0.16752 0.49163 0.0
C736 C 0.59621 0.17149 0.47349 0.0
C737 C 0.57345 0.24978 0.41544 0.0
C738 C 0.59614 0.26456 0.41589 0.0
C739 C 0.56521 0.22739 0.41842 0.0
C740 C 0.57948 0.21926 0.42175 0.0
C741 C 0.60214 0.23392 0.42185 0.0
C742 C 0.61039 0.2563 0.41892 0.0
C743 C 0.57077 0.19575 0.42642 0.0
C744 C 0.57717 0.19058 0.44378 0.0
C745 C 0.55536 0.17856 0.41463 0.0
C746 C 0.54866 0.1829 0.39573 0.0
C747 C 0.56445 0.19549 0.38187 0.0
C748 C 0.55803 0.19966 0.36415 0.0
C749 C 0.53584 0.19121 0.36007 0.0
C750 C 0.52003 0.17852 0.37369 0.0
C751 C 0.52636 0.17431 0.39144 0.0
H752 H 0.5309 0.19445 0.34634 0.0
H753 H 0.59028 0.15394 0.51968 0.0
H754 H 0.42873 0.49701 0.63129 0.0
H755 H 0.40985 0.51315 0.61437 0.0
H756 H 0.46271 0.57778 0.62806 0.0
H757 H 0.48169 0.56171 0.64494 0.0
H758 H 0.42417 0.57213 0.63997 0.0
H759 H 0.45209 0.55978 0.58177 0.0
H760 H 0.45948 0.53839 0.55807 0.0
H761 H 0.39046 0.49512 0.55051 0.0
H762 H 0.38264 0.51608 0.57438 0.0
H763 H 0.37842 0.62928 0.59506 0.0
H764 H 0.40323 0.6155 0.60207 0.0
H765 H 0.35236 0.55003 0.58802 0.0
H766 H 0.32767 0.56384 0.58014 0.0
H767 H 0.39128 0.55717 0.575 0.0
H768 H 0.36327 0.56722 0.63448 0.0
H769 H 0.35511 0.58757 0.6587 0.0
H770 H 0.42369 0.6339 0.66448 0.0
H771 H 0.43224 0.61398 0.64008 0.0
C772 C 0.43671 0.51466 0.6301 0.0
C773 C 0.45666 0.52809 0.63955 0.0
C774 C 0.42584 0.52388 0.62047 0.0
C775 C 0.4348 0.5467 0.62001 0.0
C776 C 0.45541 0.56014 0.62833 0.0
C777 C 0.46626 0.55094 0.63793 0.0
C778 C 0.42167 0.55644 0.61287 0.0
C779 C 0.41736 0.56921 0.62562 0.0
C780 C 0.41214 0.55203 0.59438 0.0
C781 C 0.41678 0.53939 0.58 0.0
C782 C 0.43848 0.54559 0.57518 0.0
C783 C 0.44275 0.53357 0.56169 0.0
C784 C 0.42545 0.51538 0.55283 0.0
C785 C 0.40384 0.50921 0.55741 0.0
C786 C 0.39948 0.52117 0.5709 0.0
C787 C 0.37257 0.61201 0.59309 0.0
C788 C 0.35093 0.59767 0.58714 0.0
C789 C 0.38675 0.60411 0.59729 0.0
C790 C 0.37957 0.58166 0.59587 0.0
C791 C 0.35825 0.5674 0.58931 0.0
C792 C 0.34407 0.5753 0.58501 0.0
C793 C 0.39394 0.57295 0.60209 0.0
C794 C 0.39833 0.56027 0.58926 0.0
C795 C 0.40346 0.57728 0.62058 0.0
C796 C 0.39837 0.58925 0.6353 0.0
C797 C 0.37659 0.58184 0.64081 0.0
C798 C 0.3719 0.59328 0.65458 0.0
C799 C 0.38886 0.61205 0.66308 0.0
C800 C 0.41056 0.61938 0.65786 0.0
C801 C 0.41534 0.60802 0.64407 0.0
H802 H 0.3852 0.62089 0.67375 0.0
H803 H 0.42879 0.50609 0.54238 0.0
H804 H 0.94443 0.42228 0.80145 0.0
H805 H 0.90886 0.40174 0.78567 0.0
H806 H 0.90182 0.45908 0.78691 0.0
H807 H 0.93707 0.47936 0.80341 0.0
H808 H 0.86736 0.42727 0.80088 0.0
H809 H 0.90742 0.43504 0.74382 0.0
H810 H 0.9351 0.43383 0.72314 0.0
H811 H 0.90451 0.36438 0.73149 0.0
H812 H 0.87681 0.36521 0.75245 0.0
H813 H 0.76575 0.37416 0.75074 0.0
H814 H 0.80489 0.39866 0.75666 0.0
H815 H 0.81232 0.34311 0.77024 0.0
H816 H 0.77314 0.3185 0.76439 0.0
H817 H 0.84655 0.37566 0.74626 0.0
H818 H 0.80839 0.36985 0.80556 0.0
H819 H 0.78062 0.372 0.82541 0.0
H820 H 0.80834 0.43994 0.81104 0.0
H821 H 0.83609 0.43809 0.79086 0.0
C822 C 0.9356 0.43067 0.79777 0.0
C823 C 0.9435 0.45241 0.80356 0.0
C824 C 0.91522 0.41891 0.78874 0.0
C825 C 0.90255 0.42881 0.78498 0.0
C826 C 0.91116 0.45099 0.7897 0.0
C827 C 0.93136 0.46263 0.799 0.0
C828 C 0.8795 0.4155 0.77814 0.0
C829 C 0.86297 0.41638 0.78865 0.0
C830 C 0.87351 0.40082 0.76246 0.0
C831 C 0.89013 0.40023 0.74985 0.0
C832 C 0.90669 0.41953 0.74137 0.0
C833 C 0.92237 0.41891 0.72957 0.0
C834 C 0.9216 0.39905 0.72603 0.0
C835 C 0.9051 0.37976 0.73425 0.0
C836 C 0.88939 0.38029 0.74608 0.0
C837 C 0.77578 0.36716 0.75477 0.0
C838 C 0.76638 0.34442 0.75719 0.0
C839 C 0.7981 0.38117 0.7582 0.0
C840 C 0.81147 0.37269 0.76394 0.0
C841 C 0.80228 0.34997 0.76579 0.0
C842 C 0.7799 0.33596 0.7626 0.0
C843 C 0.83477 0.38759 0.76903 0.0
C844 C 0.8512 0.38686 0.75828 0.0
C845 C 0.84075 0.40262 0.78434 0.0
C846 C 0.82415 0.40377 0.79653 0.0
C847 C 0.80844 0.38519 0.8065 0.0
C848 C 0.79273 0.38636 0.81783 0.0
C849 C 0.79267 0.40607 0.81944 0.0
C850 C 0.80837 0.42467 0.80975 0.0
C851 C 0.8241 0.42357 0.79838 0.0
H852 H 0.7805 0.40695 0.82822 0.0
H853 H 0.93375 0.3986 0.71689 0.0
H854 H 0.54285 0.94608 0.9605 0.0
H855 H 0.5284 0.91205 0.94232 0.0
H856 H 0.46464 0.90653 0.94134 0.0
H857 H 0.47901 0.94023 0.96014 0.0
H858 H 0.46112 0.87143 0.95551 0.0
H859 H 0.49546 0.9125 0.89934 0.0
H860 H 0.52527 0.94039 0.8795 0.0
H861 H 0.56295 0.90863 0.88843 0.0
H862 H 0.5335 0.88071 0.90856 0.0
H863 H 0.41332 0.76883 0.90864 0.0
H864 H 0.42758 0.80811 0.91282 0.0
H865 H 0.49181 0.81756 0.92431 0.0
H866 H 0.47774 0.77832 0.91985 0.0
H867 H 0.49304 0.85099 0.90156 0.0
H868 H 0.46014 0.81296 0.96067 0.0
H869 H 0.43027 0.7852 0.98057 0.0
H870 H 0.38955 0.81214 0.96544 0.0
H871 H 0.41911 0.83989 0.94522 0.0
C872 C 0.52599 0.93808 0.95569 0.0
C873 C 0.51204 0.94578 0.96165 0.0
C874 C 0.51768 0.91855 0.94531 0.0
C875 C 0.49536 0.90659 0.94043 0.0
C876 C 0.48188 0.91534 0.945 0.0
C877 C 0.49011 0.93469 0.95559 0.0
C878 C 0.48552 0.88371 0.93318 0.0
C879 C 0.46782 0.86712 0.94339 0.0
C880 C 0.49455 0.87784 0.91771 0.0
C881 C 0.51231 0.89458 0.90559 0.0
C882 C 0.51017 0.91155 0.8972 0.0
C883 C 0.52699 0.92735 0.88588 0.0
C884 C 0.54601 0.92631 0.88273 0.0
C885 C 0.54822 0.90943 0.89088 0.0
C886 C 0.53145 0.89358 0.90223 0.0
C887 C 0.43056 0.77932 0.91171 0.0
C888 C 0.44436 0.77042 0.91406 0.0
C889 C 0.43867 0.80175 0.91418 0.0
C890 C 0.46072 0.81573 0.91904 0.0
C891 C 0.47474 0.80707 0.92057 0.0
C892 C 0.46663 0.78462 0.91821 0.0
C893 C 0.4688 0.83904 0.92391 0.0
C894 C 0.48619 0.85555 0.91341 0.0
C895 C 0.45947 0.84494 0.93906 0.0
C896 C 0.44173 0.82832 0.95126 0.0
C897 C 0.44475 0.81285 0.96146 0.0
C898 C 0.42789 0.79713 0.97282 0.0
C899 C 0.408 0.79686 0.97422 0.0
C900 C 0.40495 0.81234 0.96431 0.0
C901 C 0.42175 0.82807 0.9529 0.0
H902 H 0.39497 0.78469 0.98302 0.0
H903 H 0.55901 0.93856 0.87396 0.0
H904 H 0.55635 0.47845 0.12607 0.0
H905 H 0.57667 0.46374 0.10923 0.0
H906 H 0.63594 0.52622 0.11468 0.0
H907 H 0.61541 0.54113 0.13069 0.0
H908 H 0.63878 0.50694 0.08375 0.0
H909 H 0.6201 0.48572 0.14983 0.0
H910 H 0.59498 0.46965 0.17727 0.0
H911 H 0.5612 0.40786 0.14818 0.0
H912 H 0.58614 0.42356 0.12053 0.0
H913 H 0.69669 0.44374 0.11972 0.0
H914 H 0.67233 0.45839 0.12428 0.0
H915 H 0.66005 0.45434 0.06344 0.0
H916 H 0.68582 0.4412 0.05855 0.0
H917 H 0.6318 0.44306 0.11966 0.0
H918 H 0.64655 0.49256 0.04984 0.0
H919 H 0.67575 0.51243 0.02601 0.0
H920 H 0.72451 0.52404 0.06843 0.0
H921 H 0.69562 0.50449 0.09256 0.0
C922 C 0.57351 0.48925 0.12287 0.0
C923 C 0.58435 0.5109 0.12962 0.0
C924 C 0.58518 0.4808 0.11346 0.0
C925 C 0.60799 0.49367 0.11121 0.0
C926 C 0.6184 0.51591 0.11631 0.0
C927 C 0.60664 0.52447 0.12539 0.0
C928 C 0.62137 0.48347 0.10603 0.0
C929 C 0.63712 0.49284 0.09146 0.0
C930 C 0.61966 0.4654 0.11639 0.0
C931 C 0.60481 0.45586 0.13305 0.0
C932 C 0.60725 0.46873 0.14926 0.0
C933 C 0.59306 0.4597 0.16484 0.0
C934 C 0.57643 0.43781 0.16441 0.0
C935 C 0.57406 0.42484 0.14845 0.0
C936 C 0.58824 0.43377 0.13285 0.0
C937 C 0.68924 0.44637 0.10719 0.0
C938 C 0.69359 0.44151 0.08871 0.0
C939 C 0.67499 0.45449 0.10988 0.0
C940 C 0.66444 0.45773 0.09421 0.0
C941 C 0.66826 0.4524 0.07576 0.0
C942 C 0.68282 0.44457 0.07302 0.0
C943 C 0.64943 0.46661 0.09744 0.0
C944 C 0.6333 0.45695 0.11168 0.0
C945 C 0.65139 0.48489 0.08724 0.0
C946 C 0.66891 0.49684 0.07291 0.0
C947 C 0.66351 0.49941 0.05408 0.0
C948 C 0.68 0.5106 0.04052 0.0
C949 C 0.70197 0.51942 0.04568 0.0
C950 C 0.70749 0.51713 0.06443 0.0
C951 C 0.69106 0.50597 0.07804 0.0
H952 H 0.71471 0.52806 0.03517 0.0
H953 H 0.56543 0.4309 0.17645 0.0
H954 H 0.48162 0.93939 0.52148 0.0
H955 H 0.46177 0.90442 0.53837 0.0
H956 H 0.40582 0.91327 0.54391 0.0
H957 H 0.42571 0.94837 0.52706 0.0
H958 H 0.4105 0.89028 0.57521 0.0
H959 H 0.40706 0.88665 0.50619 0.0
H960 H 0.42251 0.89441 0.47358 0.0
H961 H 0.45951 0.86281 0.4866 0.0
H962 H 0.44419 0.8548 0.51934 0.0
H963 H 0.32452 0.77871 0.57421 0.0
H964 H 0.34908 0.81777 0.56853 0.0
H965 H 0.4024 0.80572 0.55815 0.0
H966 H 0.37779 0.76658 0.56322 0.0
H967 H 0.40032 0.83093 0.53083 0.0
H968 H 0.39976 0.83089 0.59941 0.0
H969 H 0.38313 0.8229 0.63158 0.0
H970 H 0.35291 0.86139 0.6194 0.0
H971 H 0.36912 0.86937 0.58704 0.0
C972 C 0.46539 0.93426 0.52696 0.0
C973 C 0.45514 0.9465 0.52286 0.0
C974 C 0.45403 0.91424 0.53651 0.0
C975 C 0.43216 0.90604 0.54201 0.0
C976 C 0.42266 0.91927 0.53973 0.0
C977 C 0.43408 0.93939 0.53019 0.0
C978 C 0.41845 0.88268 0.54756 0.0
C979 C 0.40812 0.87726 0.5655 0.0
C980 C 0.41555 0.86572 0.53495 0.0
C981 C 0.42467 0.87034 0.51525 0.0
C982 C 0.4186 0.88149 0.50213 0.0
C983 C 0.42733 0.88592 0.48362 0.0
C984 C 0.44213 0.87928 0.47805 0.0
C985 C 0.4481 0.86802 0.49095 0.0
C986 C 0.43935 0.86346 0.50947 0.0
C987 C 0.34147 0.78436 0.5707 0.0
C988 C 0.34915 0.76945 0.56915 0.0
C989 C 0.35557 0.80675 0.56767 0.0
C990 C 0.37767 0.81476 0.5631 0.0
C991 C 0.38544 0.79996 0.56174 0.0
C992 C 0.37137 0.77758 0.56479 0.0
C993 C 0.39239 0.83834 0.55862 0.0
C994 C 0.40283 0.84385 0.54072 0.0
C995 C 0.39524 0.85529 0.57127 0.0
C996 C 0.3855 0.85056 0.59073 0.0
C997 C 0.38943 0.83751 0.60353 0.0
C998 C 0.3801 0.83301 0.62182 0.0
C999 C 0.36693 0.84159 0.62752 0.0
C1000 C 0.3631 0.85474 0.61496 0.0
C1001 C 0.37237 0.85927 0.59665 0.0
H1002 H 0.35973 0.83809 0.64168 0.0
H1003 H 0.44889 0.88277 0.46372 0.0
H1004 H 0.55764 0.47729 0.69196 0.0
H1005 H 0.57149 0.45716 0.7102 0.0
H1006 H 0.50633 0.4013 0.71301 0.0
H1007 H 0.49236 0.42149 0.69479 0.0
H1008 H 0.5334 0.406 0.74615 0.0
H1009 H 0.53381 0.39898 0.67736 0.0
H1010 H 0.54059 0.41325 0.64436 0.0
H1011 H 0.60861 0.45547 0.65756 0.0
H1012 H 0.60223 0.44106 0.69061 0.0
H1013 H 0.56035 0.32024 0.74438 0.0
H1014 H 0.54534 0.34451 0.73954 0.0
H1015 H 0.61055 0.39912 0.73158 0.0
H1016 H 0.62573 0.3751 0.73675 0.0
H1017 H 0.58323 0.39569 0.70271 0.0
H1018 H 0.58161 0.39533 0.77151 0.0
H1019 H 0.57229 0.37846 0.80357 0.0
H1020 H 0.50384 0.34794 0.79009 0.0
H1021 H 0.51276 0.36439 0.75783 0.0
C1022 C 0.54615 0.46103 0.69713 0.0
C1023 C 0.52396 0.45089 0.69187 0.0
C1024 C 0.55407 0.44952 0.70749 0.0
C1025 C 0.53999 0.42761 0.71266 0.0
C1026 C 0.51745 0.41819 0.70917 0.0
C1027 C 0.50948 0.42977 0.69882 0.0
C1028 C 0.5493 0.41375 0.71866 0.0
C1029 C 0.54419 0.40359 0.73668 0.0
C1030 C 0.56341 0.41067 0.7063 0.0
C1031 C 0.56752 0.41911 0.68642 0.0
C1032 C 0.5502 0.41135 0.67321 0.0
C1033 C 0.55397 0.41945 0.6545 0.0
C1034 C 0.57497 0.43545 0.64889 0.0
C1035 C 0.59233 0.44314 0.66192 0.0
C1036 C 0.58868 0.43491 0.68062 0.0
C1037 C 0.57155 0.33749 0.742 0.0
C1038 C 0.59427 0.34565 0.74083 0.0
C1039 C 0.56293 0.35136 0.73921 0.0
C1040 C 0.57682 0.37367 0.73527 0.0
C1041 C 0.59951 0.38195 0.73455 0.0
C1042 C 0.60815 0.36814 0.73739 0.0
C1043 C 0.56769 0.38804 0.73043 0.0
C1044 C 0.5727 0.39823 0.71242 0.0
C1045 C 0.55327 0.39078 0.74276 0.0
C1046 C 0.54787 0.38094 0.76218 0.0
C1047 C 0.56457 0.38488 0.77532 0.0
C1048 C 0.55936 0.37542 0.79354 0.0
C1049 C 0.53749 0.36209 0.79885 0.0
C1050 C 0.52078 0.35825 0.78596 0.0
C1051 C 0.5259 0.36765 0.7677 0.0
H1052 H 0.53348 0.35479 0.81297 0.0
H1053 H 0.57777 0.44179 0.63442 0.0
H1054 H 0.09012 0.49585 0.85305 0.0
H1055 H 0.12502 0.5107 0.8701 0.0
H1056 H 0.13537 0.57598 0.86329 0.0
H1057 H 0.1006 0.56118 0.84609 0.0
H1058 H 0.16898 0.57352 0.84973 0.0
H1059 H 0.12752 0.55162 0.90784 0.0
H1060 H 0.09869 0.5263 0.92995 0.0
H1061 H 0.12664 0.48445 0.93027 0.0
H1062 H 0.15548 0.50937 0.90794 0.0
H1063 H 0.27066 0.62753 0.89686 0.0
H1064 H 0.23191 0.61321 0.89014 0.0
H1065 H 0.22004 0.54726 0.89542 0.0
H1066 H 0.25869 0.56147 0.903 0.0
H1067 H 0.1869 0.55075 0.91118 0.0
H1068 H 0.22634 0.5708 0.85162 0.0
H1069 H 0.25498 0.59541 0.82902 0.0
H1070 H 0.23019 0.63992 0.83092 0.0
H1071 H 0.20157 0.6157 0.85375 0.0
C1072 C 0.09949 0.51328 0.85578 0.0
C1073 C 0.0927 0.52738 0.84818 0.0
C1074 C 0.11948 0.52178 0.86549 0.0
C1075 C 0.13291 0.5445 0.86794 0.0
C1076 C 0.12538 0.55842 0.86148 0.0
C1077 C 0.10549 0.54996 0.85172 0.0
C1078 C 0.15573 0.55391 0.87515 0.0
C1079 C 0.17283 0.56885 0.86337 0.0
C1080 C 0.16086 0.54729 0.89262 0.0
C1081 C 0.14356 0.53228 0.90608 0.0
C1082 C 0.12742 0.53693 0.9125 0.0
C1083 C 0.1111 0.52266 0.92509 0.0
C1084 C 0.1108 0.50375 0.93147 0.0
C1085 C 0.12687 0.49909 0.9253 0.0
C1086 C 0.14323 0.5133 0.91269 0.0
C1087 C 0.25979 0.60998 0.89698 0.0
C1088 C 0.26791 0.59567 0.90036 0.0
C1089 C 0.23763 0.6018 0.89295 0.0
C1090 C 0.2231 0.57914 0.89197 0.0
C1091 C 0.23095 0.5648 0.896 0.0
C1092 C 0.25312 0.57297 0.90013 0.0
C1093 C 0.20001 0.57045 0.88581 0.0
C1094 C 0.18294 0.55556 0.89767 0.0
C1095 C 0.19482 0.577 0.86834 0.0
C1096 C 0.21196 0.59155 0.85455 0.0
C1097 C 0.2271 0.58591 0.84733 0.0
C1098 C 0.24331 0.59978 0.83446 0.0
C1099 C 0.24444 0.61925 0.82858 0.0
C1100 C 0.22932 0.62485 0.83551 0.0
C1101 C 0.21309 0.61106 0.84841 0.0
H1102 H 0.257 0.62996 0.81861 0.0
H1103 H 0.09815 0.49273 0.94122 0.0
H1104 H 0.61204 0.1134 0.98339 0.0
H1105 H 0.635 0.14739 0.00045 0.0
H1106 H 0.60499 0.11607 0.0539 0.0
H1107 H 0.5813 0.08168 0.03657 0.0
H1108 H 0.60826 0.15648 0.0502 0.0
H1109 H 0.65679 0.12853 0.04502 0.0
H1110 H 0.67578 0.11153 0.02913 0.0
H1111 H 0.70656 0.16584 0.99028 0.0
H1112 H 0.68751 0.18304 0.00576 0.0
H1113 H 0.6894 0.25854 0.09308 0.0
H1114 H 0.66721 0.21939 0.08596 0.0
H1115 H 0.68474 0.23252 0.0263 0.0
H1116 H 0.70644 0.27154 0.03314 0.0
H1117 H 0.68856 0.19811 0.0397 0.0
H1118 H 0.63539 0.22257 0.04189 0.0
H1119 H 0.61581 0.23929 0.05726 0.0
H1120 H 0.59381 0.19112 0.10199 0.0
H1121 H 0.61352 0.17428 0.087 0.0
C1122 C 0.61023 0.11369 0.99878 0.0
C1123 C 0.59468 0.09492 0.00862 0.0
C1124 C 0.62354 0.13311 0.00855 0.0
C1125 C 0.62192 0.13427 0.02849 0.0
C1126 C 0.60657 0.11552 0.03851 0.0
C1127 C 0.59316 0.0959 0.02865 0.0
C1128 C 0.63593 0.15545 0.03841 0.0
C1129 C 0.62588 0.16537 0.04834 0.0
C1130 C 0.65891 0.16719 0.03578 0.0
C1131 C 0.67063 0.15704 0.02653 0.0
C1132 C 0.66751 0.1368 0.03302 0.0
C1133 C 0.6783 0.12713 0.02409 0.0
C1134 C 0.69235 0.13759 0.0087 0.0
C1135 C 0.69568 0.15776 0.00222 0.0
C1136 C 0.68492 0.1675 0.01109 0.0
C1137 C 0.68838 0.25314 0.07841 0.0
C1138 C 0.69982 0.26828 0.0637 0.0
C1139 C 0.67575 0.23072 0.07439 0.0
C1140 C 0.6743 0.22302 0.05559 0.0
C1141 C 0.68576 0.23806 0.04094 0.0
C1142 C 0.69827 0.2604 0.04491 0.0
C1143 C 0.6608 0.19937 0.0509 0.0
C1144 C 0.67099 0.18901 0.04195 0.0
C1145 C 0.638 0.18725 0.05449 0.0
C1146 C 0.62615 0.19735 0.06347 0.0
C1147 C 0.62654 0.21567 0.0551 0.0
C1148 C 0.61539 0.22514 0.06372 0.0
C1149 C 0.60364 0.21632 0.08062 0.0
C1150 C 0.60296 0.19796 0.08892 0.0
C1151 C 0.61411 0.18845 0.08036 0.0
H1152 H 0.59501 0.22367 0.08727 0.0
H1153 H 0.70068 0.13006 0.00179 0.0
H1154 H 0.47665 0.55745 0.1812 0.0
H1155 H 0.46244 0.57907 0.19634 0.0
H1156 H 0.528 0.63414 0.20048 0.0
H1157 H 0.54231 0.61257 0.18524 0.0
H1158 H 0.50183 0.63126 0.23172 0.0
H1159 H 0.49862 0.63037 0.16307 0.0
H1160 H 0.48899 0.6132 0.13112 0.0
H1161 H 0.42072 0.58189 0.14536 0.0
H1162 H 0.42996 0.59848 0.17759 0.0
H1163 H 0.47613 0.71728 0.23132 0.0
H1164 H 0.49065 0.69302 0.22392 0.0
H1165 H 0.42489 0.63851 0.2188 0.0
H1166 H 0.41027 0.6627 0.226 0.0
H1167 H 0.45105 0.64072 0.18878 0.0
H1168 H 0.45453 0.64256 0.25738 0.0
H1169 H 0.46457 0.65993 0.28922 0.0
H1170 H 0.5327 0.69031 0.27464 0.0
H1171 H 0.52306 0.67336 0.24257 0.0
C1172 C 0.48809 0.57398 0.18579 0.0
C1173 C 0.51057 0.58339 0.18186 0.0
C1174 C 0.47995 0.58634 0.19438 0.0
C1175 C 0.49412 0.60835 0.19914 0.0
C1176 C 0.51677 0.6172 0.19684 0.0
C1177 C 0.52495 0.60482 0.18822 0.0
C1178 C 0.48511 0.62265 0.20457 0.0
C1179 C 0.49089 0.63351 0.22228 0.0
C1180 C 0.47062 0.62536 0.1923 0.0
C1181 C 0.465 0.61547 0.17285 0.0
C1182 C 0.48156 0.61966 0.15947 0.0
C1183 C 0.47617 0.61005 0.1413 0.0
C1184 C 0.45426 0.59642 0.13623 0.0
C1185 C 0.43769 0.59241 0.14932 0.0
C1186 C 0.44299 0.6019 0.16755 0.0
C1187 C 0.46477 0.70013 0.2286 0.0
C1188 C 0.44204 0.69191 0.22927 0.0
C1189 C 0.47309 0.68626 0.22451 0.0
C1190 C 0.45885 0.66391 0.22095 0.0
C1191 C 0.43617 0.65568 0.22156 0.0
C1192 C 0.42784 0.66949 0.22581 0.0
C1193 C 0.46761 0.64924 0.21602 0.0
C1194 C 0.46187 0.63839 0.19831 0.0
C1195 C 0.4822 0.64665 0.22823 0.0
C1196 C 0.48806 0.65687 0.2475 0.0
C1197 C 0.47165 0.6531 0.26089 0.0
C1198 C 0.47727 0.66284 0.279 0.0
C1199 C 0.49925 0.67627 0.28393 0.0
C1200 C 0.51567 0.67994 0.27078 0.0
C1201 C 0.51014 0.67025 0.25265 0.0
H1202 H 0.50357 0.68379 0.29796 0.0
H1203 H 0.45013 0.58901 0.12215 0.0
H1204 H 0.92137 0.50257 0.3164 0.0
H1205 H 0.88664 0.49115 0.33214 0.0
H1206 H 0.91667 0.4964 0.38722 0.0
H1207 H 0.95175 0.507 0.37122 0.0
H1208 H 0.87674 0.45947 0.38498 0.0
H1209 H 0.90399 0.53489 0.37355 0.0
H1210 H 0.92095 0.56939 0.35525 0.0
H1211 H 0.86736 0.54186 0.31544 0.0
H1212 H 0.85021 0.50706 0.33332 0.0
H1213 H 0.77475 0.44534 0.42376 0.0
H1214 H 0.81381 0.46087 0.417 0.0
H1215 H 0.80019 0.45411 0.35642 0.0
H1216 H 0.7612 0.43778 0.36292 0.0
H1217 H 0.83456 0.49595 0.3675 0.0
H1218 H 0.81059 0.41904 0.37742 0.0
H1219 H 0.79405 0.38484 0.39615 0.0
H1220 H 0.84223 0.41667 0.44028 0.0
H1221 H 0.85887 0.45117 0.42191 0.0
C1222 C 0.9206 0.50098 0.33186 0.0
C1223 C 0.93924 0.50529 0.34254 0.0
C1224 C 0.90075 0.49476 0.34088 0.0
C1225 C 0.89905 0.4932 0.3609 0.0
C1226 C 0.91763 0.49757 0.37174 0.0
C1227 C 0.93765 0.50373 0.36263 0.0
C1228 C 0.87761 0.48663 0.37007 0.0
C1229 C 0.86772 0.46776 0.38155 0.0
C1230 C 0.86572 0.49733 0.3655 0.0
C1231 C 0.87585 0.51831 0.35475 0.0
C1232 C 0.89587 0.53614 0.36083 0.0
C1233 C 0.90552 0.55576 0.35053 0.0
C1234 C 0.89525 0.55781 0.33418 0.0
C1235 C 0.87529 0.54025 0.32812 0.0
C1236 C 0.86557 0.52058 0.33835 0.0
C1237 C 0.77998 0.44685 0.40899 0.0
C1238 C 0.76467 0.44034 0.3939 0.0
C1239 C 0.80235 0.45586 0.40518 0.0
C1240 C 0.80988 0.45868 0.38621 0.0
C1241 C 0.79473 0.45224 0.37116 0.0
C1242 C 0.7724 0.44303 0.37494 0.0
C1243 C 0.83353 0.46846 0.38181 0.0
C1244 C 0.84379 0.48796 0.37125 0.0
C1245 C 0.84578 0.45848 0.3874 0.0
C1246 C 0.83579 0.43775 0.39842 0.0
C1247 C 0.81752 0.41881 0.3912 0.0
C1248 C 0.80816 0.39935 0.40174 0.0
C1249 C 0.81704 0.3986 0.41943 0.0
C1250 C 0.83534 0.41729 0.4266 0.0
C1251 C 0.84475 0.43679 0.41613 0.0
H1252 H 0.80977 0.38353 0.42756 0.0
H1253 H 0.90275 0.57301 0.32623 0.0
H1254 H 0.0588 0.5721 0.38745 0.0
H1255 H 0.07909 0.57611 0.41706 0.0
H1256 H 0.09944 0.532 0.3951 0.0
H1257 H 0.07942 0.52822 0.36526 0.0
H1258 H 0.09096 0.53116 0.43869 0.0
H1259 H 0.13389 0.57722 0.38579 0.0
H1260 H 0.14075 0.60225 0.35871 0.0
H1261 H 0.13521 0.64741 0.39632 0.0
H1262 H 0.12831 0.62254 0.42366 0.0
H1263 H 0.19258 0.57196 0.48924 0.0
H1264 H 0.16377 0.55787 0.46481 0.0
H1265 H 0.15347 0.61237 0.47482 0.0
H1266 H 0.18261 0.62686 0.49876 0.0
H1267 H 0.15567 0.60608 0.43745 0.0
H1268 H 0.11754 0.56088 0.49162 0.0
H1269 H 0.11145 0.53533 0.51811 0.0
H1270 H 0.10807 0.48762 0.47798 0.0
H1271 H 0.11444 0.51302 0.45126 0.0
C1272 C 0.06673 0.56245 0.3893 0.0
C1273 C 0.06754 0.54983 0.37412 0.0
C1274 C 0.07842 0.56486 0.40616 0.0
C1275 C 0.09085 0.55446 0.40815 0.0
C1276 C 0.08984 0.54005 0.39384 0.0
C1277 C 0.0784 0.53788 0.37684 0.0
C1278 C 0.10769 0.56164 0.42337 0.0
C1279 C 0.10523 0.54744 0.43842 0.0
C1280 C 0.12616 0.58292 0.42299 0.0
C1281 C 0.13036 0.59796 0.40669 0.0
C1282 C 0.13397 0.59242 0.38824 0.0
C1283 C 0.13791 0.60659 0.37286 0.0
C1284 C 0.13829 0.62637 0.37576 0.0
C1285 C 0.13486 0.63206 0.39408 0.0
C1286 C 0.131 0.61797 0.40954 0.0
C1287 C 0.18428 0.58101 0.48613 0.0
C1288 C 0.18989 0.60053 0.49598 0.0
C1289 C 0.16764 0.5728 0.47233 0.0
C1290 C 0.15626 0.58391 0.46815 0.0
C1291 C 0.16194 0.60345 0.47787 0.0
C1292 C 0.17852 0.61164 0.49165 0.0
C1293 C 0.13899 0.57574 0.45315 0.0
C1294 C 0.14141 0.5898 0.43795 0.0
C1295 C 0.12061 0.55427 0.45342 0.0
C1296 C 0.11669 0.53894 0.46946 0.0
C1297 C 0.11567 0.54501 0.48846 0.0
C1298 C 0.11214 0.53054 0.50351 0.0
C1299 C 0.10943 0.50989 0.49973 0.0
C1300 C 0.11019 0.50363 0.48088 0.0
C1301 C 0.11375 0.51805 0.46578 0.0
H1302 H 0.1067 0.49871 0.51141 0.0
H1303 H 0.14131 0.63731 0.36381 0.0
H1304 H 0.53312 0.05166 0.5452 0.0
H1305 H 0.55156 0.07208 0.57459 0.0
H1306 H 0.54578 0.12687 0.55475 0.0
H1307 H 0.52708 0.10655 0.52601 0.0
H1308 H 0.58835 0.13826 0.56547 0.0
H1309 H 0.51352 0.09554 0.58908 0.0
H1310 H 0.47973 0.06103 0.59657 0.0
H1311 H 0.51587 0.04203 0.63374 0.0
H1312 H 0.54995 0.07634 0.62624 0.0
H1313 H 0.60439 0.21264 0.63823 0.0
H1314 H 0.59025 0.18512 0.61291 0.0
H1315 H 0.59843 0.14038 0.6494 0.0
H1316 H 0.61199 0.16769 0.67511 0.0
H1317 H 0.55938 0.11988 0.63172 0.0
H1318 H 0.63307 0.16492 0.61233 0.0
H1319 H 0.66724 0.19905 0.6049 0.0
H1320 H 0.63474 0.213 0.55968 0.0
H1321 H 0.60026 0.17912 0.56703 0.0
C1322 C 0.53557 0.06794 0.54734 0.0
C1323 C 0.52915 0.07777 0.53319 0.0
C1324 C 0.54614 0.07959 0.56403 0.0
C1325 C 0.55028 0.1011 0.56668 0.0
C1326 C 0.54305 0.11045 0.55287 0.0
C1327 C 0.53245 0.09886 0.53643 0.0
C1328 C 0.56262 0.11452 0.58343 0.0
C1329 C 0.58204 0.13429 0.57998 0.0
C1330 C 0.55478 0.1089 0.6024 0.0
C1331 C 0.53431 0.08834 0.6069 0.0
C1332 C 0.51429 0.0839 0.5987 0.0
C1333 C 0.49508 0.06441 0.60298 0.0
C1334 C 0.49566 0.04931 0.61557 0.0
C1335 C 0.51545 0.05372 0.62395 0.0
C1336 C 0.53471 0.07318 0.6197 0.0
C1337 C 0.60312 0.19693 0.64092 0.0
C1338 C 0.60934 0.19239 0.6587 0.0
C1339 C 0.59523 0.18127 0.62636 0.0
C1340 C 0.59353 0.16076 0.62916 0.0
C1341 C 0.59971 0.15613 0.64688 0.0
C1342 C 0.60763 0.17183 0.66149 0.0
C1343 C 0.58469 0.14411 0.61365 0.0
C1344 C 0.56601 0.12372 0.61732 0.0
C1345 C 0.59329 0.14907 0.59484 0.0
C1346 C 0.61401 0.16952 0.59034 0.0
C1347 C 0.63315 0.17534 0.6009 0.0
C1348 C 0.65259 0.19464 0.59669 0.0
C1349 C 0.65315 0.2082 0.58186 0.0
C1350 C 0.63427 0.20248 0.57118 0.0
C1351 C 0.61478 0.18321 0.57535 0.0
H1352 H 0.66822 0.22313 0.57861 0.0
H1353 H 0.48077 0.03422 0.61887 0.0
H1354 H 0.4997 0.55813 0.70076 0.0
H1355 H 0.49437 0.57226 0.73106 0.0
H1356 H 0.44618 0.50677 0.74803 0.0
H1357 H 0.45139 0.49259 0.71765 0.0
H1358 H 0.4303 0.53502 0.74843 0.0
H1359 H 0.49315 0.53409 0.7728 0.0
H1360 H 0.53128 0.54175 0.77275 0.0
H1361 H 0.55459 0.6108 0.7719 0.0
H1362 H 0.51658 0.60356 0.77166 0.0
H1363 H 0.40651 0.56721 0.83681 0.0
H1364 H 0.41804 0.54987 0.81281 0.0
H1365 H 0.47 0.61328 0.79495 0.0
H1366 H 0.45858 0.63076 0.81906 0.0
H1367 H 0.48428 0.58442 0.79647 0.0
H1368 H 0.4229 0.5862 0.76907 0.0
H1369 H 0.38521 0.57978 0.76785 0.0
H1370 H 0.35974 0.51054 0.77275 0.0
H1371 H 0.39732 0.51658 0.77428 0.0
C1372 C 0.48846 0.5467 0.71122 0.0
C1373 C 0.47594 0.52428 0.70687 0.0
C1374 C 0.48545 0.55477 0.72854 0.0
C1375 C 0.46983 0.54058 0.7418 0.0
C1376 C 0.45832 0.518 0.738 0.0
C1377 C 0.46146 0.50989 0.72073 0.0
C1378 C 0.46362 0.54959 0.7583 0.0
C1379 C 0.442 0.54543 0.75919 0.0
C1380 C 0.47909 0.56384 0.77189 0.0
C1381 C 0.50198 0.56827 0.77204 0.0
C1382 C 0.5064 0.55091 0.77243 0.0
C1383 C 0.528 0.55518 0.77249 0.0
C1384 C 0.54535 0.57675 0.77228 0.0
C1385 C 0.54113 0.5941 0.77205 0.0
C1386 C 0.51956 0.58992 0.77197 0.0
C1387 C 0.42029 0.57749 0.82768 0.0
C1388 C 0.43148 0.60039 0.82971 0.0
C1389 C 0.42692 0.56754 0.81401 0.0
C1390 C 0.44473 0.58028 0.8019 0.0
C1391 C 0.45624 0.60312 0.80415 0.0
C1392 C 0.44968 0.61308 0.81791 0.0
C1393 C 0.45094 0.56978 0.78659 0.0
C1394 C 0.47254 0.57378 0.78585 0.0
C1395 C 0.43553 0.55555 0.77294 0.0
C1396 C 0.41292 0.55186 0.77201 0.0
C1397 C 0.40926 0.56962 0.77005 0.0
C1398 C 0.38792 0.56605 0.76927 0.0
C1399 C 0.37009 0.54477 0.77028 0.0
C1400 C 0.37357 0.52702 0.77201 0.0
C1401 C 0.39489 0.5305 0.77282 0.0
H1402 H 0.35358 0.54204 0.76967 0.0
H1403 H 0.56206 0.58002 0.77234 0.0
H1404 H 0.95356 0.4978 0.86166 0.0
H1405 H 0.9346 0.49332 0.89205 0.0
H1406 H 0.95991 0.45286 0.91316 0.0
H1407 H 0.97849 0.45687 0.8826 0.0
H1408 H 0.91638 0.43227 0.91546 0.0
H1409 H 0.97484 0.50263 0.93367 0.0
H1410 H 1.0011 0.54204 0.93004 0.0
H1411 H 0.948 0.55515 0.92604 0.0
H1412 H 0.92139 0.51577 0.92938 0.0
H1413 H 0.86333 0.41322 0.00512 0.0
H1414 H 0.89173 0.42546 0.98059 0.0
H1415 H 0.86914 0.46676 0.95605 0.0
H1416 H 0.84063 0.45457 0.98061 0.0
H1417 H 0.91346 0.48765 0.95717 0.0
H1418 H 0.85538 0.41783 0.93589 0.0
H1419 H 0.82852 0.37846 0.93871 0.0
H1420 H 0.88062 0.36459 0.94745 0.0
H1421 H 0.90778 0.40393 0.94495 0.0
C1422 C 0.95553 0.48841 0.87297 0.0
C1423 C 0.96741 0.47758 0.8697 0.0
C1424 C 0.94477 0.48594 0.89038 0.0
C1425 C 0.94578 0.4727 0.9049 0.0
C1426 C 0.95889 0.46313 0.90215 0.0
C1427 C 0.96968 0.46561 0.88473 0.0
C1428 C 0.93106 0.46666 0.92179 0.0
C1429 C 0.9161 0.44439 0.92484 0.0
C1430 C 0.93016 0.48248 0.93362 0.0
C1431 C 0.94611 0.5062 0.93162 0.0
C1432 C 0.96875 0.51389 0.93186 0.0
C1433 C 0.9837 0.53623 0.92988 0.0
C1434 C 0.97622 0.55108 0.92777 0.0
C1435 C 0.95377 0.54363 0.92767 0.0
C1436 C 0.93875 0.52129 0.92962 0.0
C1437 C 0.86428 0.42478 0.99441 0.0
C1438 C 0.84956 0.43274 0.9947 0.0
C1439 C 0.88059 0.43184 0.98045 0.0
C1440 C 0.88242 0.44685 0.96634 0.0
C1441 C 0.86806 0.4552 0.96681 0.0
C1442 C 0.85177 0.4482 0.98085 0.0
C1443 C 0.89888 0.4533 0.95078 0.0
C1444 C 0.914 0.47558 0.94792 0.0
C1445 C 0.89989 0.43752 0.939 0.0
C1446 C 0.88359 0.41385 0.94044 0.0
C1447 C 0.86109 0.4064 0.93857 0.0
C1448 C 0.84582 0.38409 0.94008 0.0
C1449 C 0.85285 0.36904 0.94331 0.0
C1450 C 0.87519 0.37627 0.94498 0.0
C1451 C 0.89053 0.39857 0.94351 0.0
H1452 H 0.841 0.35177 0.94447 0.0
H1453 H 0.98782 0.56838 0.92625 0.0
H1454 H 0.50538 0.98349 0.04331 0.0
H1455 H 0.48775 0.96389 0.07318 0.0
H1456 H 0.48787 0.90655 0.05194 0.0
H1457 H 0.50548 0.92585 0.02261 0.0
H1458 H 0.4477 0.89699 0.06547 0.0
H1459 H 0.52417 0.93887 0.08514 0.0
H1460 H 0.55895 0.97306 0.0909 0.0
H1461 H 0.5266 0.99466 0.12992 0.0
H1462 H 0.49154 0.96068 0.12418 0.0
H1463 H 0.43419 0.82439 0.13914 0.0
H1464 H 0.44846 0.85136 0.11335 0.0
H1465 H 0.44248 0.8978 0.14929 0.0
H1466 H 0.4287 0.87103 0.17543 0.0
H1467 H 0.4813 0.91699 0.13011 0.0
H1468 H 0.40606 0.87285 0.11416 0.0
H1469 H 0.37117 0.83873 0.10862 0.0
H1470 H 0.40033 0.82181 0.06262 0.0
H1471 H 0.43551 0.85568 0.06806 0.0
C1472 C 0.50174 0.96677 0.04517 0.0
C1473 C 0.50638 0.95606 0.03047 0.0
C1474 C 0.49166 0.95559 0.06216 0.0
C1475 C 0.48629 0.93368 0.06466 0.0
C1476 C 0.49154 0.92332 0.05021 0.0
C1477 C 0.50155 0.93438 0.03341 0.0
C1478 C 0.47494 0.92096 0.08204 0.0
C1479 C 0.45506 0.90134 0.07961 0.0
C1480 C 0.48414 0.92703 0.10058 0.0
C1481 C 0.5052 0.94739 0.10404 0.0
C1482 C 0.52444 0.951 0.09481 0.0
C1483 C 0.54421 0.97032 0.0981 0.0
C1484 C 0.54497 0.98606 0.11072 0.0
C1485 C 0.52597 0.98247 0.12012 0.0
C1486 C 0.50616 0.96319 0.11686 0.0
C1487 C 0.43604 0.84038 0.14162 0.0
C1488 C 0.43023 0.84552 0.15932 0.0
C1489 C 0.44402 0.85573 0.12681 0.0
C1490 C 0.44627 0.87651 0.12931 0.0
C1491 C 0.44076 0.88183 0.14702 0.0
C1492 C 0.43272 0.86645 0.16187 0.0
C1493 C 0.45453 0.89257 0.11335 0.0
C1494 C 0.47371 0.91282 0.11606 0.0
C1495 C 0.44465 0.88714 0.09502 0.0
C1496 C 0.42348 0.86677 0.09161 0.0
C1497 C 0.40508 0.86179 0.10294 0.0
C1498 C 0.38525 0.84249 0.09981 0.0
C1499 C 0.38354 0.82809 0.0853 0.0
C1500 C 0.40167 0.83298 0.07386 0.0
C1501 C 0.42156 0.85224 0.07695 0.0
H1502 H 0.36817 0.81316 0.08289 0.0
H1503 H 0.56029 1.001 0.11325 0.0
H1504 H 0.59253 0.50052 0.19057 0.0
H1505 H 0.59204 0.48269 0.22051 0.0
H1506 H 0.53917 0.49114 0.24111 0.0
H1507 H 0.53856 0.50799 0.21033 0.0
H1508 H 0.58537 0.50497 0.26534 0.0
H1509 H 0.5196 0.44692 0.23567 0.0
H1510 H 0.49875 0.4236 0.20837 0.0
H1511 H 0.54415 0.40008 0.20377 0.0
H1512 H 0.56558 0.42369 0.23074 0.0
H1513 H 0.58507 0.44391 0.34618 0.0
H1514 H 0.5726 0.45904 0.32109 0.0
H1515 H 0.59065 0.42687 0.27825 0.0
H1516 H 0.60133 0.41008 0.30329 0.0
H1517 H 0.55534 0.42466 0.2674 0.0
H1518 H 0.62348 0.48354 0.29134 0.0
H1519 H 0.64906 0.50845 0.31579 0.0
H1520 H 0.60481 0.53187 0.3286 0.0
H1521 H 0.57884 0.50688 0.30436 0.0
C1522 C 0.58036 0.49814 0.2012 0.0
C1523 C 0.56509 0.50507 0.19776 0.0
C1524 C 0.58033 0.48819 0.21841 0.0
C1525 C 0.56542 0.4854 0.23285 0.0
C1526 C 0.55069 0.49306 0.22998 0.0
C1527 C 0.55042 0.50272 0.21247 0.0
C1528 C 0.56571 0.4744 0.25077 0.0
C1529 C 0.57828 0.48735 0.26614 0.0
C1530 C 0.55723 0.45154 0.25129 0.0
C1531 C 0.5443 0.43724 0.23512 0.0
C1532 C 0.52528 0.43698 0.2287 0.0
C1533 C 0.51334 0.42368 0.21329 0.0
C1534 C 0.52016 0.41042 0.2043 0.0
C1535 C 0.5389 0.41038 0.21073 0.0
C1536 C 0.55096 0.42373 0.22607 0.0
C1537 C 0.58597 0.43959 0.33148 0.0
C1538 C 0.59438 0.42576 0.32689 0.0
C1539 C 0.57912 0.44859 0.31707 0.0
C1540 C 0.58107 0.44452 0.29769 0.0
C1541 C 0.58904 0.4304 0.29307 0.0
C1542 C 0.59547 0.42103 0.30747 0.0
C1543 C 0.5753 0.45522 0.28213 0.0
C1544 C 0.56192 0.44222 0.26704 0.0
C1545 C 0.58354 0.47814 0.28166 0.0
C1546 C 0.59911 0.49315 0.29623 0.0
C1547 C 0.61914 0.49388 0.29948 0.0
C1548 C 0.63372 0.50803 0.31328 0.0
C1549 C 0.62853 0.52168 0.32379 0.0
C1550 C 0.60878 0.52125 0.32048 0.0
C1551 C 0.59413 0.5071 0.30671 0.0
H1552 H 0.63984 0.53263 0.33446 0.0
H1553 H 0.5109 0.40013 0.19238 0.0
H1554 H 0.50168 0.9873 0.44353 0.0
H1555 H 0.50133 0.9682 0.41376 0.0
H1556 H 0.44042 0.91204 0.43112 0.0
H1557 H 0.44042 0.93108 0.46021 0.0
H1558 H 0.47376 0.9025 0.42159 0.0
H1559 H 0.43974 0.94331 0.39728 0.0
H1560 H 0.43941 0.97732 0.38988 0.0
H1561 H 0.49603 0.99877 0.35412 0.0
H1562 H 0.49686 0.96499 0.36154 0.0
H1563 H 0.42032 0.82795 0.34787 0.0
H1564 H 0.43222 0.85487 0.37358 0.0
H1565 H 0.48311 0.90271 0.33719 0.0
H1566 H 0.47093 0.87577 0.31117 0.0
H1567 H 0.46388 0.92105 0.35517 0.0
H1568 H 0.49489 0.87824 0.37506 0.0
H1569 H 0.49647 0.8449 0.38248 0.0
H1570 H 0.4485 0.82832 0.42677 0.0
H1571 H 0.44635 0.86137 0.41944 0.0
C1572 C 0.48811 0.97104 0.44074 0.0
C1573 C 0.47131 0.96043 0.4543 0.0
C1574 C 0.48796 0.96014 0.42384 0.0
C1575 C 0.47099 0.9386 0.42042 0.0
C1576 C 0.45381 0.92851 0.43361 0.0
C1577 C 0.45387 0.93937 0.45024 0.0
C1578 C 0.47107 0.92582 0.40362 0.0
C1579 C 0.47158 0.9065 0.40704 0.0
C1580 C 0.46911 0.93155 0.38463 0.0
C1581 C 0.46854 0.95178 0.38017 0.0
C1582 C 0.45225 0.95538 0.38799 0.0
C1583 C 0.45194 0.97459 0.38376 0.0
C1584 C 0.46773 0.99023 0.37159 0.0
C1585 C 0.48383 0.98666 0.36358 0.0
C1586 C 0.48422 0.96749 0.36779 0.0
C1587 C 0.43426 0.84408 0.34542 0.0
C1588 C 0.44479 0.84968 0.32754 0.0
C1589 C 0.44108 0.8595 0.36015 0.0
C1590 C 0.45884 0.88076 0.35748 0.0
C1591 C 0.46943 0.88641 0.33963 0.0
C1592 C 0.46246 0.87101 0.32478 0.0
C1593 C 0.46563 0.89713 0.37319 0.0
C1594 C 0.46652 0.91717 0.36961 0.0
C1595 C 0.46913 0.89218 0.39208 0.0
C1596 C 0.47037 0.87225 0.39659 0.0
C1597 C 0.48456 0.86741 0.38629 0.0
C1598 C 0.48557 0.84856 0.39049 0.0
C1599 C 0.47257 0.83448 0.40506 0.0
C1600 C 0.45855 0.83923 0.41548 0.0
C1601 C 0.45745 0.85804 0.41132 0.0
H1602 H 0.47338 0.8199 0.40829 0.0
H1603 H 0.46746 0.00509 0.36833 0.0
H1604 H 0.53241 0.43925 0.63046 0.0
H1605 H 0.55126 0.43908 0.60141 0.0
H1606 H 0.54871 0.49526 0.5805 0.0
H1607 H 0.53041 0.49609 0.61036 0.0
H1608 H 0.53639 0.45891 0.55308 0.0
H1609 H 0.59434 0.50538 0.59465 0.0
H1610 H 0.6156 0.5174 0.62462 0.0
H1611 H 0.62649 0.46281 0.62198 0.0
H1612 H 0.60469 0.45001 0.59235 0.0
H1613 H 0.60451 0.4566 0.47759 0.0
H1614 H 0.59091 0.47053 0.50307 0.0
H1615 H 0.59357 0.4252 0.54294 0.0
H1616 H 0.60774 0.41167 0.51774 0.0
H1617 H 0.60942 0.46512 0.55871 0.0
H1618 H 0.54549 0.41499 0.52179 0.0
H1619 H 0.52336 0.40151 0.49232 0.0
H1620 H 0.52389 0.46236 0.48655 0.0
H1621 H 0.54628 0.4763 0.51587 0.0
C1622 C 0.53619 0.45185 0.6199 0.0
C1623 C 0.53052 0.46809 0.62301 0.0
C1624 C 0.54681 0.45161 0.60321 0.0
C1625 C 0.55173 0.46738 0.58898 0.0
C1626 C 0.5452 0.48307 0.59145 0.0
C1627 C 0.53473 0.48349 0.60844 0.0
C1628 C 0.56373 0.46699 0.57171 0.0
C1629 C 0.55261 0.46083 0.55414 0.0
C1630 C 0.58472 0.46913 0.57327 0.0
C1631 C 0.59769 0.47663 0.59128 0.0
C1632 C 0.60101 0.49575 0.60057 0.0
C1633 C 0.61318 0.50272 0.61751 0.0
C1634 C 0.62236 0.49086 0.62521 0.0
C1635 C 0.61939 0.472 0.61599 0.0
C1636 C 0.60706 0.46484 0.59914 0.0
C1637 C 0.60247 0.4498 0.49185 0.0
C1638 C 0.60715 0.43296 0.49562 0.0
C1639 C 0.59451 0.45765 0.50635 0.0
C1640 C 0.59102 0.44877 0.52487 0.0
C1641 C 0.5961 0.43228 0.52875 0.0
C1642 C 0.60402 0.42442 0.51428 0.0
C1643 C 0.58176 0.45623 0.54028 0.0
C1644 C 0.59343 0.46371 0.55752 0.0
C1645 C 0.56125 0.45518 0.53845 0.0
C1646 C 0.54778 0.44679 0.52086 0.0
C1647 C 0.54104 0.42556 0.51414 0.0
C1648 C 0.52842 0.41782 0.49749 0.0
C1649 C 0.52229 0.4311 0.48753 0.0
C1650 C 0.5287 0.45211 0.49425 0.0
C1651 C 0.54134 0.45994 0.51088 0.0
H1652 H 0.51252 0.42508 0.47464 0.0
H1653 H 0.6318 0.49629 0.63832 0.0
H1654 H 0.08529 0.56367 0.79071 0.0
H1655 H 0.10441 0.57899 0.76063 0.0
H1656 H 0.07619 0.514 0.73684 0.0
H1657 H 0.05784 0.49851 0.76729 0.0
H1658 H 0.11836 0.53419 0.73286 0.0
H1659 H 0.06398 0.55347 0.71928 0.0
H1660 H 0.04016 0.5691 0.72537 0.0
H1661 H 0.09664 0.63293 0.73215 0.0
H1662 H 0.12084 0.61764 0.72637 0.0
H1663 H 0.17036 0.57281 0.64319 0.0
H1664 H 0.14172 0.55682 0.66754 0.0
H1665 H 0.17232 0.61788 0.69853 0.0
H1666 H 0.20091 0.63418 0.67396 0.0
H1667 H 0.12665 0.59845 0.69675 0.0
H1668 H 0.18046 0.57808 0.71313 0.0
H1669 H 0.20419 0.56235 0.70699 0.0
H1670 H 0.14771 0.49998 0.6947 0.0
H1671 H 0.12365 0.51544 0.70051 0.0
C1672 C 0.08282 0.55266 0.77895 0.0
C1673 C 0.07023 0.52985 0.78148 0.0
C1674 C 0.09363 0.56146 0.76166 0.0
C1675 C 0.09179 0.54768 0.7464 0.0
C1676 C 0.07792 0.52497 0.74842 0.0
C1677 C 0.06723 0.51614 0.76579 0.0
C1678 C 0.10635 0.55672 0.72939 0.0
C1679 C 0.11975 0.54792 0.72471 0.0
C1680 C 0.10873 0.57508 0.71907 0.0
C1681 C 0.09423 0.58436 0.72253 0.0
C1682 C 0.07134 0.57081 0.72222 0.0
C1683 C 0.05776 0.57962 0.72559 0.0
C1684 C 0.06688 0.60198 0.72918 0.0
C1685 C 0.0896 0.6156 0.72937 0.0
C1686 C 0.10325 0.60688 0.72603 0.0
C1687 C 0.17087 0.58294 0.65505 0.0
C1688 C 0.18796 0.60476 0.65666 0.0
C1689 C 0.15455 0.57374 0.66901 0.0
C1690 C 0.15497 0.58612 0.6849 0.0
C1691 C 0.1717 0.60804 0.68637 0.0
C1692 C 0.18812 0.61726 0.67243 0.0
C1693 C 0.13848 0.57587 0.70037 0.0
C1694 C 0.12491 0.58452 0.7048 0.0
C1695 C 0.13584 0.55732 0.71046 0.0
C1696 C 0.15028 0.54797 0.70705 0.0
C1697 C 0.17311 0.56106 0.70896 0.0
C1698 C 0.18662 0.55218 0.70557 0.0
C1699 C 0.17747 0.53019 0.7004 0.0
C1700 C 0.15478 0.51702 0.69867 0.0
C1701 C 0.1412 0.52582 0.70202 0.0
H1702 H 0.18796 0.52335 0.69778 0.0
H1703 H 0.05634 0.60877 0.73178 0.0
H1704 H 0.57115 0.04961 0.93305 0.0
H1705 H 0.57232 0.06699 0.90242 0.0
H1706 H 0.53967 0.09849 0.92813 0.0
H1707 H 0.53786 0.08062 0.95862 0.0
H1708 H 0.52946 0.09056 0.8902 0.0
H1709 H 0.59414 0.12338 0.92959 0.0
H1710 H 0.62398 0.12374 0.94828 0.0
H1711 H 0.64692 0.1065 0.89791 0.0
H1712 H 0.617 0.10577 0.87896 0.0
H1713 H 0.57927 0.19351 0.84137 0.0
H1714 H 0.56637 0.16413 0.86523 0.0
H1715 H 0.59798 0.13479 0.83411 0.0
H1716 H 0.61105 0.16416 0.81034 0.0
H1717 H 0.60743 0.13908 0.8727 0.0
H1718 H 0.54377 0.11123 0.83262 0.0
H1719 H 0.51412 0.1127 0.81521 0.0
H1720 H 0.4896 0.12298 0.86815 0.0
H1721 H 0.51931 0.12189 0.88586 0.0
C1722 C 0.56334 0.05943 0.93196 0.0
C1723 C 0.5547 0.06403 0.9483 0.0
C1724 C 0.5642 0.06954 0.91449 0.0
C1725 C 0.55662 0.08451 0.91315 0.0
C1726 C 0.54579 0.08716 0.92886 0.0
C1727 C 0.54483 0.077 0.9463 0.0
C1728 C 0.56282 0.09973 0.89663 0.0
C1729 C 0.54649 0.1012 0.88637 0.0
C1730 C 0.58506 0.11361 0.89161 0.0
C1731 C 0.6032 0.11428 0.90291 0.0
C1732 C 0.60546 0.11953 0.92253 0.0
C1733 C 0.62239 0.1198 0.93317 0.0
C1734 C 0.63729 0.11506 0.92431 0.0
C1735 C 0.63533 0.11011 0.90476 0.0
C1736 C 0.6184 0.10978 0.89406 0.0
C1737 C 0.58346 0.1808 0.83964 0.0
C1738 C 0.59614 0.18112 0.82398 0.0
C1739 C 0.57593 0.16393 0.85317 0.0
C1740 C 0.58104 0.14716 0.85132 0.0
C1741 C 0.59374 0.1475 0.83574 0.0
C1742 C 0.6011 0.16423 0.82213 0.0
C1743 C 0.57408 0.12988 0.86615 0.0
C1744 C 0.59035 0.12818 0.87625 0.0
C1745 C 0.55183 0.11608 0.87115 0.0
C1746 C 0.53389 0.11667 0.86055 0.0
C1747 C 0.53217 0.11399 0.84054 0.0
C1748 C 0.51533 0.11472 0.83061 0.0
C1749 C 0.50001 0.11798 0.84056 0.0
C1750 C 0.50149 0.12047 0.86046 0.0
C1751 C 0.51831 0.11977 0.87045 0.0
H1752 H 0.48699 0.11854 0.83286 0.0
H1753 H 0.65039 0.11529 0.93257 0.0
H1754 H 0.47244 0.53189 0.12724 0.0
H1755 H 0.45394 0.53361 0.0982 0.0
H1756 H 0.51646 0.57824 0.07287 0.0
H1757 H 0.53501 0.57641 0.10186 0.0
H1758 H 0.45547 0.57024 0.08802 0.0
H1759 H 0.51128 0.57739 0.02398 0.0
H1760 H 0.53391 0.56167 0.01354 0.0
H1761 H 0.49482 0.50433 0.04749 0.0
H1762 H 0.47177 0.51955 0.05791 0.0
H1763 H 0.44558 0.63034 0.01156 0.0
H1764 H 0.45939 0.61602 0.03644 0.0
H1765 H 0.42881 0.55322 0.00825 0.0
H1766 H 0.41471 0.56735 0.98338 0.0
H1767 H 0.46989 0.5651 0.01924 0.0
H1768 H 0.40652 0.5611 0.04799 0.0
H1769 H 0.38201 0.57436 0.05897 0.0
H1770 H 0.43236 0.6205 0.09632 0.0
H1771 H 0.45735 0.60784 0.08527 0.0
C1772 C 0.48224 0.54148 0.1152 0.0
C1773 C 0.50514 0.55409 0.1168 0.0
C1774 C 0.47166 0.54253 0.09867 0.0
C1775 C 0.48378 0.55617 0.08341 0.0
C1776 C 0.50676 0.56742 0.08437 0.0
C1777 C 0.51737 0.56631 0.10092 0.0
C1778 C 0.47242 0.56092 0.06781 0.0
C1779 C 0.45854 0.56898 0.07297 0.0
C1780 C 0.47626 0.55911 0.04819 0.0
C1781 C 0.48992 0.54972 0.04185 0.0
C1782 C 0.50745 0.56138 0.02915 0.0
C1783 C 0.52037 0.55256 0.02325 0.0
C1784 C 0.51585 0.53204 0.02989 0.0
C1785 C 0.49836 0.52026 0.04241 0.0
C1786 C 0.48539 0.529 0.04835 0.0
C1787 C 0.44154 0.6134 0.01076 0.0
C1788 C 0.42894 0.59998 0.99549 0.0
C1789 C 0.44953 0.60526 0.02496 0.0
C1790 C 0.44499 0.58349 0.02429 0.0
C1791 C 0.43256 0.57008 0.00902 0.0
C1792 C 0.42456 0.57821 0.9948 0.0
C1793 C 0.45331 0.57481 0.0395 0.0
C1794 C 0.4667 0.56616 0.03428 0.0
C1795 C 0.44883 0.57581 0.05912 0.0
C1796 C 0.4339 0.58367 0.06562 0.0
C1797 C 0.41246 0.57424 0.05838 0.0
C1798 C 0.39847 0.58163 0.06464 0.0
C1799 C 0.40564 0.59831 0.07829 0.0
C1800 C 0.42684 0.60763 0.08571 0.0
C1801 C 0.44093 0.60035 0.07944 0.0
H1802 H 0.39477 0.60398 0.08314 0.0
H1803 H 0.52587 0.52525 0.02531 0.0
H1804 H 0.97829 0.52997 0.26991 0.0
H1805 H 0.95897 0.51257 0.24026 0.0
H1806 H 0.94627 0.44989 0.26161 0.0
H1807 H 0.96478 0.46723 0.29167 0.0
H1808 H 0.95681 0.48822 0.21116 0.0
H1809 H 0.89445 0.41212 0.25306 0.0
H1810 H 0.88135 0.40116 0.28622 0.0
H1811 H 0.89863 0.46725 0.29959 0.0
H1812 H 0.91181 0.4786 0.26653 0.0
H1813 H 0.87483 0.4188 0.14415 0.0
H1814 H 0.90311 0.4324 0.16905 0.0
H1815 H 0.86296 0.44827 0.20465 0.0
H1816 H 0.83449 0.43412 0.18005 0.0
H1817 H 0.88025 0.43153 0.22588 0.0
H1818 H 0.90794 0.48754 0.17761 0.0
H1819 H 0.91943 0.50269 0.14511 0.0
H1820 H 0.96859 0.48378 0.14526 0.0
H1821 H 0.95719 0.46826 0.1777 0.0
C1822 C 0.97216 0.51263 0.26792 0.0
C1823 C 0.97291 0.49989 0.28303 0.0
C1824 C 0.96101 0.50265 0.251 0.0
C1825 C 0.95061 0.47981 0.24891 0.0
C1826 C 0.95369 0.46746 0.26309 0.0
C1827 C 0.96448 0.47738 0.28016 0.0
C1828 C 0.93422 0.46886 0.23338 0.0
C1829 C 0.94013 0.47565 0.21433 0.0
C1830 C 0.91226 0.45286 0.23752 0.0
C1831 C 0.90431 0.44622 0.25741 0.0
C1832 C 0.89544 0.42429 0.26309 0.0
C1833 C 0.88804 0.41803 0.28187 0.0
C1834 C 0.88929 0.43354 0.29503 0.0
C1835 C 0.89785 0.45532 0.28942 0.0
C1836 C 0.9053 0.46168 0.27068 0.0
C1837 C 0.87208 0.42517 0.15732 0.0
C1838 C 0.85248 0.42543 0.16017 0.0
C1839 C 0.88827 0.43301 0.17152 0.0
C1840 C 0.88535 0.44167 0.18867 0.0
C1841 C 0.86561 0.44162 0.19159 0.0
C1842 C 0.84933 0.43352 0.17754 0.0
C1843 C 0.90276 0.45093 0.2036 0.0
C1844 C 0.89701 0.44381 0.22258 0.0
C1845 C 0.92464 0.46717 0.19944 0.0
C1846 C 0.93155 0.47652 0.17998 0.0
C1847 C 0.92109 0.48647 0.17065 0.0
C1848 C 0.9276 0.49514 0.15226 0.0
C1849 C 0.94469 0.49414 0.1431 0.0
C1850 C 0.95533 0.48451 0.15236 0.0
C1851 C 0.94886 0.47578 0.17075 0.0
H1852 H 0.94971 0.50087 0.12886 0.0
H1853 H 0.88355 0.42866 0.30956 0.0
loop_
_geom_bond_atom_site_label_1
_geom_bond_atom_site_label_2
_geom_bond_distance
_geom_bond_site_symmetry_2
_ccdc_geom_bond_type
H0 C8 0.930 . S
H1 C11 0.930 1_455 S
H2 C13 0.930 . S
H3 C14 0.970 . S
H4 C14 0.970 . S
H5 C16 0.930 . S
H6 C18 0.930 . S
H7 C20 0.930 . S
C8 H0 0.930 . S
C8 C9 1.382 . S
C8 C10 1.426 . S
C9 C8 1.382 . S
C9 C13 1.389 . S
C10 C8 1.426 . S
C10 C11 1.375 . S
C10 C14 1.532 1_655 S
C11 H1 0.930 1_655 S
C11 C10 1.375 . S
C11 C12 1.416 . S
C12 C11 1.416 . S
C12 C13 1.371 . S
C13 H2 0.930 . S
C13 C9 1.389 . S
C13 C12 1.371 . S
C14 H3 0.970 . S
C14 H4 0.970 . S
C14 C10 1.532 1_455 S
C14 C15 1.499 . S
C15 C14 1.499 . S
C15 C16 1.370 . S
C15 C20 1.415 . S
C16 H5 0.930 . S
C16 C15 1.370 . S
C16 C17 1.407 . S
C17 C16 1.407 . S
C17 C18 1.365 . S
C18 H6 0.930 . S
C18 C17 1.365 . S
C18 C19 1.393 . S
C19 C18 1.393 . S
C19 C20 1.387 . S
C20 H7 0.930 . S
C20 C15 1.415 . S
C20 C19 1.387 . S
H21 C29 0.930 . S
H22 C32 0.930 1_545 S
H23 C34 0.930 . S
H24 C35 0.970 . S
H25 C35 0.970 . S
H26 C37 0.930 . S
H27 C39 0.930 . S
H28 C41 0.930 . S
C29 H21 0.930 . S
C29 C30 1.382 . S
C29 C31 1.426 . S
C30 C29 1.382 . S
C30 C34 1.389 . S
C31 C29 1.426 . S
C31 C32 1.375 . S
C31 C35 1.532 1_565 S
C32 H22 0.930 1_565 S
C32 C31 1.375 . S
C32 C33 1.416 . S
C33 C32 1.416 . S
C33 C34 1.371 . S
C34 H23 0.930 . S
C34 C30 1.389 . S
C34 C33 1.371 . S
C35 H24 0.970 . S
C35 H25 0.970 . S
C35 C31 1.532 1_545 S
C35 C36 1.499 . S
C36 C35 1.499 . S
C36 C37 1.370 . S
C36 C41 1.415 . S
C37 H26 0.930 . S
C37 C36 1.370 . S
C37 C38 1.407 . S
C38 C37 1.407 . S
C38 C39 1.365 . S
C39 H27 0.930 . S
C39 C38 1.365 . S
C39 C40 1.393 . S
C40 C39 1.393 . S
C40 C41 1.387 . S
C41 H28 0.930 . S
C41 C36 1.415 . S
C41 C40 1.387 . S
H42 C50 0.930 . S
H43 C53 0.930 . S
H44 C55 0.930 . S
H45 C56 0.970 . S
H46 C56 0.970 . S
H47 C58 0.930 . S
H48 C60 0.930 . S
H49 C62 0.930 . S
C50 H42 0.930 . S
C50 C51 1.382 . S
C50 C52 1.426 . S
C51 C50 1.382 . S
C51 C55 1.389 . S
C52 C50 1.426 . S
C52 C53 1.375 . S
C52 C56 1.532 . S
C53 H43 0.930 . S
C53 C52 1.375 . S
C53 C54 1.416 . S
C54 C53 1.416 . S
C54 C55 1.371 . S
C55 H44 0.930 . S
C55 C51 1.389 . S
C55 C54 1.371 . S
C56 H45 0.970 . S
C56 H46 0.970 . S
C56 C52 1.532 . S
C56 C57 1.499 . S
C57 C56 1.499 . S
C57 C58 1.370 . S
C57 C62 1.415 . S
C58 H47 0.930 . S
C58 C57 1.370 . S
C58 C59 1.407 . S
C59 C58 1.407 . S
C59 C60 1.365 . S
C60 H48 0.930 . S
C60 C59 1.365 . S
C60 C61 1.393 . S
C61 C60 1.393 . S
C61 C62 1.387 . S
C62 H49 0.930 . S
C62 C57 1.415 . S
C62 C61 1.387 . S
H63 C71 0.930 . S
H64 C74 0.930 1_455 S
H65 C76 0.930 . S
H66 C77 0.970 . S
H67 C77 0.970 . S
H68 C79 0.930 . S
H69 C81 0.930 . S
H70 C83 0.930 . S
C71 H63 0.930 . S
C71 C72 1.382 . S
C71 C73 1.426 . S
C72 C71 1.382 . S
C72 C76 1.389 . S
C73 C71 1.426 . S
C73 C74 1.375 . S
C73 C77 1.532 1_655 S
C74 H64 0.930 1_655 S
C74 C73 1.375 . S
C74 C75 1.416 . S
C75 C74 1.416 . S
C75 C76 1.371 . S
C76 H65 0.930 . S
C76 C72 1.389 . S
C76 C75 1.371 . S
C77 H66 0.970 . S
C77 H67 0.970 . S
C77 C73 1.532 1_455 S
C77 C78 1.499 . S
C78 C77 1.499 . S
C78 C79 1.370 . S
C78 C83 1.415 . S
C79 H68 0.930 . S
C79 C78 1.370 . S
C79 C80 1.407 . S
C80 C79 1.407 . S
C80 C81 1.365 . S
C81 H69 0.930 . S
C81 C80 1.365 . S
C81 C82 1.393 . S
C82 C81 1.393 . S
C82 C83 1.387 . S
C83 H70 0.930 . S
C83 C78 1.415 . S
C83 C82 1.387 . S
H84 C92 0.930 . S
H85 C95 0.930 . S
H86 C97 0.930 . S
H87 C98 0.970 1_554 S
H88 C98 0.970 . S
H89 C100 0.930 1_545 S
H90 C102 0.930 . S
H91 C104 0.930 . S
C92 H84 0.930 . S
C92 C93 1.382 1_554 S
C92 C94 1.426 1_554 S
C93 C92 1.382 1_556 S
C93 C97 1.389 . S
C94 C92 1.426 1_556 S
C94 C95 1.375 . S
C94 C98 1.532 . S
C95 H85 0.930 . S
C95 C94 1.375 . S
C95 C96 1.416 . S
C96 C95 1.416 . S
C96 C97 1.371 . S
C97 H86 0.930 . S
C97 C93 1.389 . S
C97 C96 1.371 . S
C98 H87 0.970 1_556 S
C98 H88 0.970 . S
C98 C94 1.532 . S
C98 C99 1.499 1_545 S
C99 C98 1.499 1_565 S
C99 C100 1.370 1_556 S
C99 C104 1.415 . S
C100 H89 0.930 1_565 S
C100 C99 1.370 1_554 S
C100 C101 1.407 . S
C101 C100 1.407 . S
C101 C102 1.365 . S
C102 H90 0.930 . S
C102 C101 1.365 . S
C102 C103 1.393 1_554 S
C103 C102 1.393 1_556 S
C103 C104 1.387 . S
C104 H91 0.930 . S
C104 C99 1.415 . S
C104 C103 1.387 . S
H105 C113 0.930 . S
H106 C116 0.930 . S
H107 C118 0.930 . S
H108 C119 0.970 . S
H109 C119 0.970 . S
H110 C121 0.930 . S
H111 C123 0.930 . S
H112 C125 0.930 . S
C113 H105 0.930 . S
C113 C114 1.382 . S
C113 C115 1.426 . S
C114 C113 1.382 . S
C114 C118 1.389 . S
C115 C113 1.426 . S
C115 C116 1.375 . S
C115 C119 1.532 . S
C116 H106 0.930 . S
C116 C115 1.375 . S
C116 C117 1.416 . S
C117 C116 1.416 . S
C117 C118 1.371 . S
C118 H107 0.930 . S
C118 C114 1.389 . S
C118 C117 1.371 . S
C119 H108 0.970 . S
C119 H109 0.970 . S
C119 C115 1.532 . S
C119 C120 1.499 . S
C120 C119 1.499 . S
C120 C121 1.370 . S
C120 C125 1.415 . S
C121 H110 0.930 . S
C121 C120 1.370 . S
C121 C122 1.407 . S
C122 C121 1.407 . S
C122 C123 1.365 . S
C123 H111 0.930 . S
C123 C122 1.365 . S
C123 C124 1.393 . S
C124 C123 1.393 . S
C124 C125 1.387 . S
C125 H112 0.930 . S
C125 C120 1.415 . S
C125 C124 1.387 . S
Li126 N143 1.990 . S
Li126 O186 1.956 . S
Li126 O187 1.970 . S
Li126 O188 1.961 . S
Li127 N151 1.990 . S
Li127 O186 1.970 . S
Li127 O187 1.956 . S
Li127 O189 1.961 . S
Li128 N173 1.990 . S
Li128 O186 1.961 . S
Li128 O188 1.956 . S
Li128 O189 1.970 . S
Li129 N179 1.990 . S
Li129 O187 1.961 . S
Li129 O188 1.970 . S
Li129 O189 1.956 . S
C130 C132 1.348 . S
C130 C133 1.356 . S
C130 O186 1.325 . S
N131 C134 1.314 . S
N131 C135 1.279 . S
C132 C130 1.348 . S
C132 C134 1.353 . S
C132 H190 0.929 . S
C133 C130 1.356 . S
C133 C135 1.358 . S
C133 H191 0.930 . S
C134 N131 1.314 . S
C134 C132 1.353 . S
C134 H192 0.930 . S
C135 N131 1.279 . S
C135 C133 1.358 . S
C135 H193 0.930 . S
C136 C139 1.348 . S
C136 C140 1.356 . S
C136 O187 1.325 . S
C137 N138 1.279 . S
C137 C140 1.358 . S
C137 H194 0.930 . S
N138 C137 1.279 . S
N138 C141 1.314 . S
C139 C136 1.348 . S
C139 C141 1.353 . S
C139 H195 0.929 . S
C140 C136 1.356 . S
C140 C137 1.358 . S
C140 H196 0.930 . S
C141 N138 1.314 . S
C141 C139 1.353 . S
C141 H197 0.930 . S
C142 N143 1.314 . S
C142 C147 1.353 . S
C142 H148 0.930 . S
N143 Li126 1.990 . S
N143 C142 1.314 . S
N143 C145 1.279 . S
C144 C145 1.358 . S
C144 C146 1.356 . S
C144 H198 0.930 . S
C145 N143 1.279 . S
C145 C144 1.358 . S
C145 H149 0.930 . S
C146 C144 1.356 . S
C146 C147 1.348 . S
C147 C142 1.353 . S
C147 C146 1.348 . S
C147 H199 0.929 . S
H148 C142 0.930 . S
H149 C145 0.930 . S
C150 N151 1.314 . S
C150 C152 1.353 . S
C150 H156 0.930 . S
N151 Li127 1.990 . S
N151 C150 1.314 . S
N151 C154 1.279 . S
C152 C150 1.353 . S
C152 C155 1.348 . S
C152 H200 0.929 . S
C153 C154 1.358 . S
C153 C155 1.356 . S
C153 H201 0.930 . S
C154 N151 1.279 . S
C154 C153 1.358 . S
C154 H157 0.930 . S
C155 C152 1.348 . S
C155 C153 1.356 . S
H156 C150 0.930 . S
H157 C154 0.930 . S
C158 C160 1.348 . S
C158 C161 1.356 . S
C158 O188 1.325 . S
N159 C162 1.314 . S
N159 C163 1.279 . S
C160 C158 1.348 . S
C160 C162 1.353 . S
C160 H202 0.929 . S
C161 C158 1.356 . S
C161 C163 1.358 . S
C161 H203 0.930 . S
C162 N159 1.314 . S
C162 C160 1.353 . S
C162 H204 0.930 . S
C163 N159 1.279 . S
C163 C161 1.358 . S
C163 H205 0.930 . S
C164 C165 1.348 . S
C164 C166 1.356 . S
C164 O189 1.325 . S
C165 C164 1.348 . S
C165 C167 1.353 . S
C165 H206 0.929 . S
C166 C164 1.356 . S
C166 C168 1.358 . S
C166 H207 0.930 . S
C167 C165 1.353 . S
C167 N169 1.314 . S
C167 H208 0.930 . S
C168 C166 1.358 . S
C168 N169 1.279 . S
C168 H209 0.930 . S
N169 C167 1.314 . S
N169 C168 1.279 . S
C170 C172 1.353 . S
C170 N173 1.314 . S
C170 H176 0.930 . S
C171 N173 1.279 . S
C171 C174 1.358 . S
C171 H177 0.930 . S
C172 C170 1.353 . S
C172 C175 1.348 . S
C172 H210 0.929 . S
N173 Li128 1.990 . S
N173 C170 1.314 . S
N173 C171 1.279 . S
C174 C171 1.358 . S
C174 C175 1.356 . S
C174 H211 0.930 . S
C175 C172 1.348 . S
C175 C174 1.356 . S
H176 C170 0.930 . S
H177 C171 0.930 . S
C178 N179 1.314 . S
C178 C180 1.353 . S
C178 H184 0.930 . S
N179 Li129 1.990 . S
N179 C178 1.314 . S
N179 C182 1.279 . S
C180 C178 1.353 . S
C180 C183 1.348 . S
C180 H212 0.929 . S
C181 C182 1.358 . S
C181 C183 1.356 . S
C181 H213 0.930 . S
C182 N179 1.279 . S
C182 C181 1.358 . S
C182 H185 0.930 . S
C183 C180 1.348 . S
C183 C181 1.356 . S
H184 C178 0.930 . S
H185 C182 0.930 . S
O186 Li126 1.956 . S
O186 Li127 1.970 . S
O186 Li128 1.961 . S
O186 C130 1.325 . S
O187 Li126 1.970 . S
O187 Li127 1.956 . S
O187 Li129 1.961 . S
O187 C136 1.325 . S
O188 Li126 1.961 . S
O188 Li128 1.956 . S
O188 Li129 1.970 . S
O188 C158 1.325 . S
O189 Li127 1.961 . S
O189 Li128 1.970 . S
O189 Li129 1.956 . S
O189 C164 1.325 . S
H190 C132 0.929 . S
H191 C133 0.930 . S
H192 C134 0.930 . S
H193 C135 0.930 . S
H194 C137 0.930 . S
H195 C139 0.929 . S
H196 C140 0.930 . S
H197 C141 0.930 . S
H198 C144 0.930 . S
H199 C147 0.929 . S
H200 C152 0.929 . S
H201 C153 0.930 . S
H202 C160 0.929 . S
H203 C161 0.930 . S
H204 C162 0.930 . S
H205 C163 0.930 . S
H206 C165 0.929 . S
H207 C166 0.930 . S
H208 C167 0.930 . S
H209 C168 0.930 . S
H210 C172 0.929 . S
H211 C174 0.930 . S
H212 C180 0.929 . S
H213 C181 0.930 . S
Li214 N231 1.990 . S
Li214 O274 1.956 . S
Li214 O275 1.970 . S
Li214 O276 1.961 . S
Li215 N239 1.990 . S
Li215 O274 1.970 . S
Li215 O275 1.956 . S
Li215 O277 1.961 . S
Li216 N261 1.990 . S
Li216 O274 1.961 . S
Li216 O276 1.956 . S
Li216 O277 1.970 . S
Li217 N267 1.990 . S
Li217 O275 1.961 . S
Li217 O276 1.970 . S
Li217 O277 1.956 . S
C218 C220 1.348 . S
C218 C221 1.356 . S
C218 O274 1.325 . S
N219 C222 1.314 . S
N219 C223 1.279 . S
C220 C218 1.348 . S
C220 C222 1.353 . S
C220 H278 0.929 . S
C221 C218 1.356 . S
C221 C223 1.358 . S
C221 H279 0.930 . S
C222 N219 1.314 . S
C222 C220 1.353 . S
C222 H280 0.930 . S
C223 N219 1.279 . S
C223 C221 1.358 . S
C223 H281 0.930 . S
C224 C227 1.348 . S
C224 C228 1.356 . S
C224 O275 1.325 . S
C225 N226 1.279 . S
C225 C228 1.358 . S
C225 H282 0.930 . S
N226 C225 1.279 . S
N226 C229 1.314 . S
C227 C224 1.348 . S
C227 C229 1.353 . S
C227 H283 0.929 . S
C228 C224 1.356 . S
C228 C225 1.358 . S
C228 H284 0.930 . S
C229 N226 1.314 . S
C229 C227 1.353 . S
C229 H285 0.930 . S
C230 N231 1.314 . S
C230 C235 1.353 . S
C230 H236 0.930 . S
N231 Li214 1.990 . S
N231 C230 1.314 . S
N231 C233 1.279 . S
C232 C233 1.358 . S
C232 C234 1.356 . S
C232 H286 0.930 . S
C233 N231 1.279 . S
C233 C232 1.358 . S
C233 H237 0.930 . S
C234 C232 1.356 . S
C234 C235 1.348 . S
C235 C230 1.353 . S
C235 C234 1.348 . S
C235 H287 0.929 . S
H236 C230 0.930 . S
H237 C233 0.930 . S
C238 N239 1.314 . S
C238 C240 1.353 . S
C238 H244 0.930 . S
N239 Li215 1.990 . S
N239 C238 1.314 . S
N239 C242 1.279 . S
C240 C238 1.353 . S
C240 C243 1.348 . S
C240 H288 0.929 . S
C241 C242 1.358 . S
C241 C243 1.356 . S
C241 H289 0.930 . S
C242 N239 1.279 . S
C242 C241 1.358 . S
C242 H245 0.930 . S
C243 C240 1.348 . S
C243 C241 1.356 . S
H244 C238 0.930 . S
H245 C242 0.930 . S
C246 C248 1.348 . S
C246 C249 1.356 . S
C246 O276 1.325 . S
N247 C250 1.314 . S
N247 C251 1.279 . S
C248 C246 1.348 . S
C248 C250 1.353 . S
C248 H290 0.929 . S
C249 C246 1.356 . S
C249 C251 1.358 . S
C249 H291 0.930 . S
C250 N247 1.314 . S
C250 C248 1.353 . S
C250 H292 0.930 . S
C251 N247 1.279 . S
C251 C249 1.358 . S
C251 H293 0.930 . S
C252 C253 1.348 . S
C252 C254 1.356 . S
C252 O277 1.325 . S
C253 C252 1.348 . S
C253 C255 1.353 . S
C253 H294 0.929 . S
C254 C252 1.356 . S
C254 C256 1.358 . S
C254 H295 0.930 . S
C255 C253 1.353 . S
C255 N257 1.314 . S
C255 H296 0.930 . S
C256 C254 1.358 . S
C256 N257 1.279 . S
C256 H297 0.930 . S
N257 C255 1.314 . S
N257 C256 1.279 . S
C258 C260 1.353 . S
C258 N261 1.314 . S
C258 H264 0.930 . S
C259 N261 1.279 . S
C259 C262 1.358 . S
C259 H265 0.930 . S
C260 C258 1.353 . S
C260 C263 1.348 . S
C260 H298 0.929 . S
N261 Li216 1.990 . S
N261 C258 1.314 . S
N261 C259 1.279 . S
C262 C259 1.358 . S
C262 C263 1.356 . S
C262 H299 0.930 . S
C263 C260 1.348 . S
C263 C262 1.356 . S
H264 C258 0.930 . S
H265 C259 0.930 . S
C266 N267 1.314 . S
C266 C268 1.353 . S
C266 H272 0.930 . S
N267 Li217 1.990 . S
N267 C266 1.314 . S
N267 C270 1.279 . S
C268 C266 1.353 . S
C268 C271 1.348 . S
C268 H300 0.929 . S
C269 C270 1.358 . S
C269 C271 1.356 . S
C269 H301 0.930 . S
C270 N267 1.279 . S
C270 C269 1.358 . S
C270 H273 0.930 . S
C271 C268 1.348 . S
C271 C269 1.356 . S
H272 C266 0.930 . S
H273 C270 0.930 . S
O274 Li214 1.956 . S
O274 Li215 1.970 . S
O274 Li216 1.961 . S
O274 C218 1.325 . S
O275 Li214 1.970 . S
O275 Li215 1.956 . S
O275 Li217 1.961 . S
O275 C224 1.325 . S
O276 Li214 1.961 . S
O276 Li216 1.956 . S
O276 Li217 1.970 . S
O276 C246 1.325 . S
O277 Li215 1.961 . S
O277 Li216 1.970 . S
O277 Li217 1.956 . S
O277 C252 1.325 . S
H278 C220 0.929 . S
H279 C221 0.930 . S
H280 C222 0.930 . S
H281 C223 0.930 . S
H282 C225 0.930 . S
H283 C227 0.929 . S
H284 C228 0.930 . S
H285 C229 0.930 . S
H286 C232 0.930 . S
H287 C235 0.929 . S
H288 C240 0.929 . S
H289 C241 0.930 . S
H290 C248 0.929 . S
H291 C249 0.930 . S
H292 C250 0.930 . S
H293 C251 0.930 . S
H294 C253 0.929 . S
H295 C254 0.930 . S
H296 C255 0.930 . S
H297 C256 0.930 . S
H298 C260 0.929 . S
H299 C262 0.930 . S
H300 C268 0.929 . S
H301 C269 0.930 . S
Li302 N319 1.990 . S
Li302 O362 1.956 . S
Li302 O363 1.970 . S
Li302 O364 1.961 . S
Li303 N327 1.990 . S
Li303 O362 1.970 . S
Li303 O363 1.956 . S
Li303 O365 1.961 . S
Li304 N349 1.990 . S
Li304 O362 1.961 . S
Li304 O364 1.956 . S
Li304 O365 1.970 . S
Li305 N355 1.990 . S
Li305 O363 1.961 . S
Li305 O364 1.970 . S
Li305 O365 1.956 . S
C306 C308 1.348 . S
C306 C309 1.356 . S
C306 O362 1.325 . S
N307 C310 1.314 . S
N307 C311 1.279 . S
C308 C306 1.348 . S
C308 C310 1.353 . S
C308 H366 0.929 . S
C309 C306 1.356 . S
C309 C311 1.358 . S
C309 H367 0.930 . S
C310 N307 1.314 . S
C310 C308 1.353 . S
C310 H368 0.930 . S
C311 N307 1.279 . S
C311 C309 1.358 . S
C311 H369 0.930 . S
C312 C315 1.348 . S
C312 C316 1.356 . S
C312 O363 1.325 . S
C313 N314 1.279 . S
C313 C316 1.358 . S
C313 H370 0.930 . S
N314 C313 1.279 . S
N314 C317 1.314 . S
C315 C312 1.348 . S
C315 C317 1.353 . S
C315 H371 0.929 . S
C316 C312 1.356 . S
C316 C313 1.358 . S
C316 H372 0.930 . S
C317 N314 1.314 . S
C317 C315 1.353 . S
C317 H373 0.930 . S
C318 N319 1.314 . S
C318 C323 1.353 . S
C318 H324 0.930 . S
N319 Li302 1.990 . S
N319 C318 1.314 . S
N319 C321 1.279 . S
C320 C321 1.358 . S
C320 C322 1.356 . S
C320 H374 0.930 . S
C321 N319 1.279 . S
C321 C320 1.358 . S
C321 H325 0.930 . S
C322 C320 1.356 . S
C322 C323 1.348 . S
C323 C318 1.353 . S
C323 C322 1.348 . S
C323 H375 0.929 . S
H324 C318 0.930 . S
H325 C321 0.930 . S
C326 N327 1.314 . S
C326 C328 1.353 . S
C326 H332 0.930 . S
N327 Li303 1.990 . S
N327 C326 1.314 . S
N327 C330 1.279 . S
C328 C326 1.353 . S
C328 C331 1.348 . S
C328 H376 0.929 . S
C329 C330 1.358 . S
C329 C331 1.356 . S
C329 H377 0.930 . S
C330 N327 1.279 . S
C330 C329 1.358 . S
C330 H333 0.930 . S
C331 C328 1.348 . S
C331 C329 1.356 . S
H332 C326 0.930 . S
H333 C330 0.930 . S
C334 C336 1.348 . S
C334 C337 1.356 . S
C334 O364 1.325 . S
N335 C338 1.314 . S
N335 C339 1.279 . S
C336 C334 1.348 . S
C336 C338 1.353 . S
C336 H378 0.929 . S
C337 C334 1.356 . S
C337 C339 1.358 . S
C337 H379 0.930 . S
C338 N335 1.314 . S
C338 C336 1.353 . S
C338 H380 0.930 . S
C339 N335 1.279 . S
C339 C337 1.358 . S
C339 H381 0.930 . S
C340 C341 1.348 . S
C340 C342 1.356 . S
C340 O365 1.325 . S
C341 C340 1.348 . S
C341 C343 1.353 . S
C341 H382 0.929 . S
C342 C340 1.356 . S
C342 C344 1.358 . S
C342 H383 0.930 . S
C343 C341 1.353 . S
C343 N345 1.314 . S
C343 H384 0.930 . S
C344 C342 1.358 . S
C344 N345 1.279 . S
C344 H385 0.930 . S
N345 C343 1.314 . S
N345 C344 1.279 . S
C346 C348 1.353 . S
C346 N349 1.314 . S
C346 H352 0.930 . S
C347 N349 1.279 . S
C347 C350 1.358 . S
C347 H353 0.930 . S
C348 C346 1.353 . S
C348 C351 1.348 . S
C348 H386 0.929 . S
N349 Li304 1.990 . S
N349 C346 1.314 . S
N349 C347 1.279 . S
C350 C347 1.358 . S
C350 C351 1.356 . S
C350 H387 0.930 . S
C351 C348 1.348 . S
C351 C350 1.356 . S
H352 C346 0.930 . S
H353 C347 0.930 . S
C354 N355 1.314 . S
C354 C356 1.353 . S
C354 H360 0.930 . S
N355 Li305 1.990 . S
N355 C354 1.314 . S
N355 C358 1.279 . S
C356 C354 1.353 . S
C356 C359 1.348 . S
C356 H388 0.929 . S
C357 C358 1.358 . S
C357 C359 1.356 . S
C357 H389 0.930 . S
C358 N355 1.279 . S
C358 C357 1.358 . S
C358 H361 0.930 . S
C359 C356 1.348 . S
C359 C357 1.356 . S
H360 C354 0.930 . S
H361 C358 0.930 . S
O362 Li302 1.956 . S
O362 Li303 1.970 . S
O362 Li304 1.961 . S
O362 C306 1.325 . S
O363 Li302 1.970 . S
O363 Li303 1.956 . S
O363 Li305 1.961 . S
O363 C312 1.325 . S
O364 Li302 1.961 . S
O364 Li304 1.956 . S
O364 Li305 1.970 . S
O364 C334 1.325 . S
O365 Li303 1.961 . S
O365 Li304 1.970 . S
O365 Li305 1.956 . S
O365 C340 1.325 . S
H366 C308 0.929 . S
H367 C309 0.930 . S
H368 C310 0.930 . S
H369 C311 0.930 . S
H370 C313 0.930 . S
H371 C315 0.929 . S
H372 C316 0.930 . S
H373 C317 0.930 . S
H374 C320 0.930 . S
H375 C323 0.929 . S
H376 C328 0.929 . S
H377 C329 0.930 . S
H378 C336 0.929 . S
H379 C337 0.930 . S
H380 C338 0.930 . S
H381 C339 0.930 . S
H382 C341 0.929 . S
H383 C342 0.930 . S
H384 C343 0.930 . S
H385 C344 0.930 . S
H386 C348 0.929 . S
H387 C350 0.930 . S
H388 C356 0.929 . S
H389 C357 0.930 . S
Li390 N407 1.990 . S
Li390 O450 1.956 . S
Li390 O451 1.970 . S
Li390 O452 1.961 . S
Li391 N415 1.990 . S
Li391 O450 1.970 . S
Li391 O451 1.956 . S
Li391 O453 1.961 . S
Li392 N437 1.990 . S
Li392 O450 1.961 . S
Li392 O452 1.956 . S
Li392 O453 1.970 . S
Li393 N443 1.990 . S
Li393 O451 1.961 . S
Li393 O452 1.970 . S
Li393 O453 1.956 . S
C394 C396 1.348 . S
C394 C397 1.356 . S
C394 O450 1.325 . S
N395 C398 1.314 . S
N395 C399 1.279 . S
C396 C394 1.348 . S
C396 C398 1.353 . S
C396 H454 0.929 . S
C397 C394 1.356 . S
C397 C399 1.358 . S
C397 H455 0.930 . S
C398 N395 1.314 . S
C398 C396 1.353 . S
C398 H456 0.930 . S
C399 N395 1.279 . S
C399 C397 1.358 . S
C399 H457 0.930 . S
C400 C403 1.348 . S
C400 C404 1.356 . S
C400 O451 1.325 . S
C401 N402 1.279 . S
C401 C404 1.358 . S
C401 H458 0.930 . S
N402 C401 1.279 . S
N402 C405 1.314 . S
C403 C400 1.348 . S
C403 C405 1.353 . S
C403 H459 0.929 . S
C404 C400 1.356 . S
C404 C401 1.358 . S
C404 H460 0.930 . S
C405 N402 1.314 . S
C405 C403 1.353 . S
C405 H461 0.930 . S
C406 N407 1.314 . S
C406 C411 1.353 . S
C406 H412 0.930 . S
N407 Li390 1.990 . S
N407 C406 1.314 . S
N407 C409 1.279 . S
C408 C409 1.358 . S
C408 C410 1.356 . S
C408 H462 0.930 . S
C409 N407 1.279 . S
C409 C408 1.358 . S
C409 H413 0.930 . S
C410 C408 1.356 . S
C410 C411 1.348 . S
C411 C406 1.353 . S
C411 C410 1.348 . S
C411 H463 0.929 . S
H412 C406 0.930 . S
H413 C409 0.930 . S
C414 N415 1.314 . S
C414 C416 1.353 . S
C414 H420 0.930 . S
N415 Li391 1.990 . S
N415 C414 1.314 . S
N415 C418 1.279 . S
C416 C414 1.353 . S
C416 C419 1.348 . S
C416 H464 0.929 . S
C417 C418 1.358 . S
C417 C419 1.356 . S
C417 H465 0.930 . S
C418 N415 1.279 . S
C418 C417 1.358 . S
C418 H421 0.930 . S
C419 C416 1.348 . S
C419 C417 1.356 . S
H420 C414 0.930 . S
H421 C418 0.930 . S
C422 C424 1.348 . S
C422 C425 1.356 . S
C422 O452 1.325 . S
N423 C426 1.314 . S
N423 C427 1.279 . S
C424 C422 1.348 . S
C424 C426 1.353 . S
C424 H466 0.929 . S
C425 C422 1.356 . S
C425 C427 1.358 . S
C425 H467 0.930 . S
C426 N423 1.314 . S
C426 C424 1.353 . S
C426 H468 0.930 . S
C427 N423 1.279 . S
C427 C425 1.358 . S
C427 H469 0.930 . S
C428 C429 1.348 . S
C428 C430 1.356 . S
C428 O453 1.325 . S
C429 C428 1.348 . S
C429 C431 1.353 . S
C429 H470 0.929 . S
C430 C428 1.356 . S
C430 C432 1.358 . S
C430 H471 0.930 . S
C431 C429 1.353 . S
C431 N433 1.314 . S
C431 H472 0.930 . S
C432 C430 1.358 . S
C432 N433 1.279 . S
C432 H473 0.930 . S
N433 C431 1.314 . S
N433 C432 1.279 . S
C434 C436 1.353 . S
C434 N437 1.314 . S
C434 H440 0.930 . S
C435 N437 1.279 . S
C435 C438 1.358 . S
C435 H441 0.930 . S
C436 C434 1.353 . S
C436 C439 1.348 . S
C436 H474 0.929 . S
N437 Li392 1.990 . S
N437 C434 1.314 . S
N437 C435 1.279 . S
C438 C435 1.358 . S
C438 C439 1.356 . S
C438 H475 0.930 . S
C439 C436 1.348 . S
C439 C438 1.356 . S
H440 C434 0.930 . S
H441 C435 0.930 . S
C442 N443 1.314 . S
C442 C444 1.353 . S
C442 H448 0.930 . S
N443 Li393 1.990 . S
N443 C442 1.314 . S
N443 C446 1.279 . S
C444 C442 1.353 . S
C444 C447 1.348 . S
C444 H476 0.929 . S
C445 C446 1.358 . S
C445 C447 1.356 . S
C445 H477 0.930 . S
C446 N443 1.279 . S
C446 C445 1.358 . S
C446 H449 0.930 . S
C447 C444 1.348 . S
C447 C445 1.356 . S
H448 C442 0.930 . S
H449 C446 0.930 . S
O450 Li390 1.956 . S
O450 Li391 1.970 . S
O450 Li392 1.961 . S
O450 C394 1.325 . S
O451 Li390 1.970 . S
O451 Li391 1.956 . S
O451 Li393 1.961 . S
O451 C400 1.325 . S
O452 Li390 1.961 . S
O452 Li392 1.956 . S
O452 Li393 1.970 . S
O452 C422 1.325 . S
O453 Li391 1.961 . S
O453 Li392 1.970 . S
O453 Li393 1.956 . S
O453 C428 1.325 . S
H454 C396 0.929 . S
H455 C397 0.930 . S
H456 C398 0.930 . S
H457 C399 0.930 . S
H458 C401 0.930 . S
H459 C403 0.929 . S
H460 C404 0.930 . S
H461 C405 0.930 . S
H462 C408 0.930 . S
H463 C411 0.929 . S
H464 C416 0.929 . S
H465 C417 0.930 . S
H466 C424 0.929 . S
H467 C425 0.930 . S
H468 C426 0.930 . S
H469 C427 0.930 . S
H470 C429 0.929 . S
H471 C430 0.930 . S
H472 C431 0.930 . S
H473 C432 0.930 . S
H474 C436 0.929 . S
H475 C438 0.930 . S
H476 C444 0.929 . S
H477 C445 0.930 . S
Li478 N495 1.990 . S
Li478 O538 1.956 . S
Li478 O539 1.970 . S
Li478 O540 1.961 . S
Li479 N503 1.990 . S
Li479 O538 1.970 . S
Li479 O539 1.956 . S
Li479 O541 1.961 . S
Li480 N525 1.990 . S
Li480 O538 1.961 . S
Li480 O540 1.956 . S
Li480 O541 1.970 . S
Li481 N531 1.990 . S
Li481 O539 1.961 . S
Li481 O540 1.970 . S
Li481 O541 1.956 . S
C482 C484 1.348 . S
C482 C485 1.356 . S
C482 O538 1.325 . S
N483 C486 1.314 . S
N483 C487 1.279 . S
C484 C482 1.348 . S
C484 C486 1.353 . S
C484 H542 0.929 . S
C485 C482 1.356 . S
C485 C487 1.358 . S
C485 H543 0.930 . S
C486 N483 1.314 . S
C486 C484 1.353 . S
C486 H544 0.930 . S
C487 N483 1.279 . S
C487 C485 1.358 . S
C487 H545 0.930 . S
C488 C491 1.348 . S
C488 C492 1.356 . S
C488 O539 1.325 . S
C489 N490 1.279 . S
C489 C492 1.358 . S
C489 H546 0.930 . S
N490 C489 1.279 . S
N490 C493 1.314 . S
C491 C488 1.348 . S
C491 C493 1.353 . S
C491 H547 0.929 . S
C492 C488 1.356 . S
C492 C489 1.358 . S
C492 H548 0.930 . S
C493 N490 1.314 . S
C493 C491 1.353 . S
C493 H549 0.930 . S
C494 N495 1.314 . S
C494 C499 1.353 . S
C494 H500 0.930 . S
N495 Li478 1.990 . S
N495 C494 1.314 . S
N495 C497 1.279 . S
C496 C497 1.358 . S
C496 C498 1.356 . S
C496 H550 0.930 . S
C497 N495 1.279 . S
C497 C496 1.358 . S
C497 H501 0.930 . S
C498 C496 1.356 . S
C498 C499 1.348 . S
C499 C494 1.353 . S
C499 C498 1.348 . S
C499 H551 0.929 . S
H500 C494 0.930 . S
H501 C497 0.930 . S
C502 N503 1.314 . S
C502 C504 1.353 . S
C502 H508 0.930 . S
N503 Li479 1.990 . S
N503 C502 1.314 . S
N503 C506 1.279 . S
C504 C502 1.353 . S
C504 C507 1.348 . S
C504 H552 0.929 . S
C505 C506 1.358 . S
C505 C507 1.356 . S
C505 H553 0.930 . S
C506 N503 1.279 . S
C506 C505 1.358 . S
C506 H509 0.930 . S
C507 C504 1.348 . S
C507 C505 1.356 . S
H508 C502 0.930 . S
H509 C506 0.930 . S
C510 C512 1.348 . S
C510 C513 1.356 . S
C510 O540 1.325 . S
N511 C514 1.314 . S
N511 C515 1.279 . S
C512 C510 1.348 . S
C512 C514 1.353 . S
C512 H554 0.929 . S
C513 C510 1.356 . S
C513 C515 1.358 . S
C513 H555 0.930 . S
C514 N511 1.314 . S
C514 C512 1.353 . S
C514 H556 0.930 . S
C515 N511 1.279 . S
C515 C513 1.358 . S
C515 H557 0.930 . S
C516 C517 1.348 . S
C516 C518 1.356 . S
C516 O541 1.325 . S
C517 C516 1.348 . S
C517 C519 1.353 . S
C517 H558 0.929 . S
C518 C516 1.356 . S
C518 C520 1.358 . S
C518 H559 0.930 . S
C519 C517 1.353 . S
C519 N521 1.314 . S
C519 H560 0.930 . S
C520 C518 1.358 . S
C520 N521 1.279 . S
C520 H561 0.930 . S
N521 C519 1.314 . S
N521 C520 1.279 . S
C522 C524 1.353 . S
C522 N525 1.314 . S
C522 H528 0.930 . S
C523 N525 1.279 . S
C523 C526 1.358 . S
C523 H529 0.930 . S
C524 C522 1.353 . S
C524 C527 1.348 . S
C524 H562 0.929 . S
N525 Li480 1.990 . S
N525 C522 1.314 . S
N525 C523 1.279 . S
C526 C523 1.358 . S
C526 C527 1.356 . S
C526 H563 0.930 1_554 S
C527 C524 1.348 . S
C527 C526 1.356 . S
H528 C522 0.930 . S
H529 C523 0.930 . S
C530 N531 1.314 . S
C530 C532 1.353 . S
C530 H536 0.930 . S
N531 Li481 1.990 . S
N531 C530 1.314 . S
N531 C534 1.279 . S
C532 C530 1.353 . S
C532 C535 1.348 . S
C532 H564 0.929 . S
C533 C534 1.358 . S
C533 C535 1.356 . S
C533 H565 0.930 . S
C534 N531 1.279 . S
C534 C533 1.358 . S
C534 H537 0.930 . S
C535 C532 1.348 . S
C535 C533 1.356 . S
H536 C530 0.930 . S
H537 C534 0.930 . S
O538 Li478 1.956 . S
O538 Li479 1.970 . S
O538 Li480 1.961 . S
O538 C482 1.325 . S
O539 Li478 1.970 . S
O539 Li479 1.956 . S
O539 Li481 1.961 . S
O539 C488 1.325 . S
O540 Li478 1.961 . S
O540 Li480 1.956 . S
O540 Li481 1.970 . S
O540 C510 1.325 . S
O541 Li479 1.961 . S
O541 Li480 1.970 . S
O541 Li481 1.956 . S
O541 C516 1.325 . S
H542 C484 0.929 . S
H543 C485 0.930 . S
H544 C486 0.930 . S
H545 C487 0.930 . S
H546 C489 0.930 . S
H547 C491 0.929 . S
H548 C492 0.930 . S
H549 C493 0.930 . S
H550 C496 0.930 . S
H551 C499 0.929 . S
H552 C504 0.929 . S
H553 C505 0.930 . S
H554 C512 0.929 . S
H555 C513 0.930 . S
H556 C514 0.930 . S
H557 C515 0.930 . S
H558 C517 0.929 . S
H559 C518 0.930 . S
H560 C519 0.930 . S
H561 C520 0.930 . S
H562 C524 0.929 . S
H563 C526 0.930 1_556 S
H564 C532 0.929 . S
H565 C533 0.930 . S
Li566 N583 1.990 . S
Li566 O626 1.956 . S
Li566 O627 1.970 . S
Li566 O628 1.961 . S
Li567 N591 1.990 . S
Li567 O626 1.970 . S
Li567 O627 1.956 . S
Li567 O629 1.961 . S
Li568 N613 1.990 . S
Li568 O626 1.961 . S
Li568 O628 1.956 . S
Li568 O629 1.970 . S
Li569 N619 1.990 . S
Li569 O627 1.961 . S
Li569 O628 1.970 . S
Li569 O629 1.956 . S
C570 C572 1.348 . S
C570 C573 1.356 . S
C570 O626 1.325 . S
N571 C574 1.314 . S
N571 C575 1.279 . S
C572 C570 1.348 . S
C572 C574 1.353 . S
C572 H630 0.929 . S
C573 C570 1.356 . S
C573 C575 1.358 . S
C573 H631 0.930 . S
C574 N571 1.314 . S
C574 C572 1.353 . S
C574 H632 0.930 . S
C575 N571 1.279 . S
C575 C573 1.358 . S
C575 H633 0.930 . S
C576 C579 1.348 . S
C576 C580 1.356 . S
C576 O627 1.325 . S
C577 N578 1.279 . S
C577 C580 1.358 . S
C577 H634 0.930 . S
N578 C577 1.279 . S
N578 C581 1.314 . S
C579 C576 1.348 . S
C579 C581 1.353 . S
C579 H635 0.929 . S
C580 C576 1.356 . S
C580 C577 1.358 . S
C580 H636 0.930 . S
C581 N578 1.314 . S
C581 C579 1.353 . S
C581 H637 0.930 . S
C582 N583 1.314 . S
C582 C587 1.353 . S
C582 H588 0.930 . S
N583 Li566 1.990 . S
N583 C582 1.314 . S
N583 C585 1.279 . S
C584 C585 1.358 . S
C584 C586 1.356 . S
C584 H638 0.930 . S
C585 N583 1.279 . S
C585 C584 1.358 . S
C585 H589 0.930 . S
C586 C584 1.356 . S
C586 C587 1.348 . S
C587 C582 1.353 . S
C587 C586 1.348 . S
C587 H639 0.929 . S
H588 C582 0.930 . S
H589 C585 0.930 . S
C590 N591 1.314 . S
C590 C592 1.353 . S
C590 H596 0.930 . S
N591 Li567 1.990 . S
N591 C590 1.314 . S
N591 C594 1.279 . S
C592 C590 1.353 . S
C592 C595 1.348 . S
C592 H640 0.929 . S
C593 C594 1.358 . S
C593 C595 1.356 . S
C593 H641 0.930 . S
C594 N591 1.279 . S
C594 C593 1.358 . S
C594 H597 0.930 . S
C595 C592 1.348 . S
C595 C593 1.356 . S
H596 C590 0.930 . S
H597 C594 0.930 . S
C598 C600 1.348 . S
C598 C601 1.356 . S
C598 O628 1.325 . S
N599 C602 1.314 . S
N599 C603 1.279 . S
C600 C598 1.348 . S
C600 C602 1.353 . S
C600 H642 0.929 . S
C601 C598 1.356 . S
C601 C603 1.358 . S
C601 H643 0.930 . S
C602 N599 1.314 . S
C602 C600 1.353 . S
C602 H644 0.930 . S
C603 N599 1.279 . S
C603 C601 1.358 . S
C603 H645 0.930 . S
C604 C605 1.348 . S
C604 C606 1.356 . S
C604 O629 1.325 . S
C605 C604 1.348 . S
C605 C607 1.353 . S
C605 H646 0.929 . S
C606 C604 1.356 . S
C606 C608 1.358 . S
C606 H647 0.930 . S
C607 C605 1.353 . S
C607 N609 1.314 . S
C607 H648 0.930 . S
C608 C606 1.358 . S
C608 N609 1.279 . S
C608 H649 0.930 . S
N609 C607 1.314 . S
N609 C608 1.279 . S
C610 C612 1.353 . S
C610 N613 1.314 . S
C610 H616 0.930 . S
C611 N613 1.279 . S
C611 C614 1.358 . S
C611 H617 0.930 . S
C612 C610 1.353 . S
C612 C615 1.348 . S
C612 H650 0.929 . S
N613 Li568 1.990 . S
N613 C610 1.314 . S
N613 C611 1.279 . S
C614 C611 1.358 . S
C614 C615 1.356 . S
C614 H651 0.930 . S
C615 C612 1.348 . S
C615 C614 1.356 . S
H616 C610 0.930 . S
H617 C611 0.930 . S
C618 N619 1.314 . S
C618 C620 1.353 . S
C618 H624 0.930 . S
N619 Li569 1.990 . S
N619 C618 1.314 . S
N619 C622 1.279 . S
C620 C618 1.353 . S
C620 C623 1.348 . S
C620 H652 0.929 . S
C621 C622 1.358 . S
C621 C623 1.356 . S
C621 H653 0.930 . S
C622 N619 1.279 . S
C622 C621 1.358 . S
C622 H625 0.930 . S
C623 C620 1.348 . S
C623 C621 1.356 . S
H624 C618 0.930 . S
H625 C622 0.930 . S
O626 Li566 1.956 . S
O626 Li567 1.970 . S
O626 Li568 1.961 . S
O626 C570 1.325 . S
O627 Li566 1.970 . S
O627 Li567 1.956 . S
O627 Li569 1.961 . S
O627 C576 1.325 . S
O628 Li566 1.961 . S
O628 Li568 1.956 . S
O628 Li569 1.970 . S
O628 C598 1.325 . S
O629 Li567 1.961 . S
O629 Li568 1.970 . S
O629 Li569 1.956 . S
O629 C604 1.325 . S
H630 C572 0.929 . S
H631 C573 0.930 . S
H632 C574 0.930 . S
H633 C575 0.930 . S
H634 C577 0.930 . S
H635 C579 0.929 . S
H636 C580 0.930 . S
H637 C581 0.930 . S
H638 C584 0.930 . S
H639 C587 0.929 . S
H640 C592 0.929 . S
H641 C593 0.930 . S
H642 C600 0.929 . S
H643 C601 0.930 . S
H644 C602 0.930 . S
H645 C603 0.930 . S
H646 C605 0.929 . S
H647 C606 0.930 . S
H648 C607 0.930 . S
H649 C608 0.930 . S
H650 C612 0.929 . S
H651 C614 0.930 . S
H652 C620 0.929 . S
H653 C621 0.930 . S
H654 C672 0.951 . S
H655 C674 0.951 . S
H656 C676 0.950 . S
H657 C677 0.950 . S
H658 C679 0.950 . S
H659 C682 0.950 . S
H660 C683 0.950 . S
H661 C685 0.950 . S
H662 C686 0.950 . S
H663 C687 0.951 . S
H664 C689 0.951 . S
H665 C691 0.950 . S
H666 C692 0.950 . S
H667 C694 0.950 . S
H668 C697 0.950 . S
H669 C698 0.950 . S
H670 C700 0.950 . S
H671 C701 0.950 . S
C672 H654 0.951 . S
C672 C673 1.366 . S
C672 C674 1.388 . S
C673 C672 1.366 . S
C673 C677 1.385 . S
C674 H655 0.951 . S
C674 C672 1.388 . S
C674 C675 1.366 . S
C675 C674 1.366 . S
C675 C676 1.414 . S
C675 C678 1.499 . S
C676 H656 0.950 . S
C676 C675 1.414 . S
C676 C677 1.374 . S
C677 H657 0.950 . S
C677 C673 1.385 . S
C677 C676 1.374 . S
C678 C675 1.499 . S
C678 C679 1.373 . S
C678 C680 1.389 . S
C679 H658 0.950 . S
C679 C678 1.373 . S
C679 C695 1.377 . S
C680 C678 1.389 . S
C680 C681 1.524 . S
C680 C694 1.377 . S
C681 C680 1.524 . S
C681 C682 1.397 . S
C681 C686 1.363 . S
C682 H659 0.950 . S
C682 C681 1.397 . S
C682 C683 1.334 . S
C683 H660 0.950 . S
C683 C682 1.334 . S
C683 C684 1.287 . S
C684 C683 1.287 . S
C684 C685 1.524 . S
C684 H703 0.913 . S
C685 H661 0.950 . S
C685 C684 1.524 . S
C685 C686 1.415 . S
C686 H662 0.950 . S
C686 C681 1.363 . S
C686 C685 1.415 . S
C687 H663 0.951 . S
C687 C688 1.366 . S
C687 C689 1.388 . S
C688 C687 1.366 . S
C688 C692 1.385 . S
C689 H664 0.951 . S
C689 C687 1.388 . S
C689 C690 1.366 . S
C690 C689 1.366 . S
C690 C691 1.414 . S
C690 C693 1.499 . S
C691 H665 0.950 . S
C691 C690 1.414 . S
C691 C692 1.374 . S
C692 H666 0.950 . S
C692 C688 1.385 . S
C692 C691 1.374 . S
C693 C690 1.499 . S
C693 C694 1.373 . S
C693 C695 1.389 . S
C694 H667 0.950 . S
C694 C680 1.377 . S
C694 C693 1.373 . S
C695 C679 1.377 . S
C695 C693 1.389 . S
C695 C696 1.524 . S
C696 C695 1.524 . S
C696 C697 1.397 . S
C696 C701 1.363 . S
C697 H668 0.950 . S
C697 C696 1.397 . S
C697 C698 1.334 . S
C698 H669 0.950 . S
C698 C697 1.334 . S
C698 C699 1.287 . S
C699 C698 1.287 . S
C699 C700 1.524 . S
C699 H702 0.999 . S
C700 H670 0.950 . S
C700 C699 1.524 . S
C700 C701 1.415 . S
C701 H671 0.950 . S
C701 C696 1.363 . S
C701 C700 1.415 . S
H702 C699 0.999 . S
H703 C684 0.913 . S
H704 C722 0.951 . S
H705 C724 0.951 . S
H706 C726 0.950 . S
H707 C727 0.950 . S
H708 C729 0.950 . S
H709 C732 0.950 . S
H710 C733 0.950 . S
H711 C735 0.950 . S
H712 C736 0.950 . S
H713 C737 0.951 . S
H714 C739 0.951 . S
H715 C741 0.950 . S
H716 C742 0.950 . S
H717 C744 0.950 . S
H718 C747 0.950 . S
H719 C748 0.950 . S
H720 C750 0.950 . S
H721 C751 0.950 . S
C722 H704 0.951 . S
C722 C723 1.366 . S
C722 C724 1.388 . S
C723 C722 1.366 . S
C723 C727 1.385 . S
C724 H705 0.951 . S
C724 C722 1.388 . S
C724 C725 1.366 . S
C725 C724 1.366 . S
C725 C726 1.414 . S
C725 C728 1.499 . S
C726 H706 0.950 . S
C726 C725 1.414 . S
C726 C727 1.374 . S
C727 H707 0.950 . S
C727 C723 1.385 . S
C727 C726 1.374 . S
C728 C725 1.499 . S
C728 C729 1.373 . S
C728 C730 1.389 . S
C729 H708 0.950 . S
C729 C728 1.373 . S
C729 C745 1.377 . S
C730 C728 1.389 . S
C730 C731 1.524 . S
C730 C744 1.377 . S
C731 C730 1.524 . S
C731 C732 1.397 . S
C731 C736 1.363 . S
C732 H709 0.950 . S
C732 C731 1.397 . S
C732 C733 1.334 . S
C733 H710 0.950 . S
C733 C732 1.334 . S
C733 C734 1.287 . S
C734 C733 1.287 . S
C734 C735 1.524 . S
C734 H753 0.913 . S
C735 H711 0.950 . S
C735 C734 1.524 . S
C735 C736 1.415 . S
C736 H712 0.950 . S
C736 C731 1.363 . S
C736 C735 1.415 . S
C737 H713 0.951 . S
C737 C738 1.366 . S
C737 C739 1.388 . S
C738 C737 1.366 . S
C738 C742 1.385 . S
C739 H714 0.951 . S
C739 C737 1.388 . S
C739 C740 1.366 . S
C740 C739 1.366 . S
C740 C741 1.414 . S
C740 C743 1.499 . S
C741 H715 0.950 . S
C741 C740 1.414 . S
C741 C742 1.374 . S
C742 H716 0.950 . S
C742 C738 1.385 . S
C742 C741 1.374 . S
C743 C740 1.499 . S
C743 C744 1.373 . S
C743 C745 1.389 . S
C744 H717 0.950 . S
C744 C730 1.377 . S
C744 C743 1.373 . S
C745 C729 1.377 . S
C745 C743 1.389 . S
C745 C746 1.524 . S
C746 C745 1.524 . S
C746 C747 1.397 . S
C746 C751 1.363 . S
C747 H718 0.950 . S
C747 C746 1.397 . S
C747 C748 1.334 . S
C748 H719 0.950 . S
C748 C747 1.334 . S
C748 C749 1.287 . S
C749 C748 1.287 . S
C749 C750 1.524 . S
C749 H752 0.999 . S
C750 H720 0.950 . S
C750 C749 1.524 . S
C750 C751 1.415 . S
C751 H721 0.950 . S
C751 C746 1.363 . S
C751 C750 1.415 . S
H752 C749 0.999 . S
H753 C734 0.913 . S
H754 C772 0.951 . S
H755 C774 0.951 . S
H756 C776 0.950 . S
H757 C777 0.950 . S
H758 C779 0.950 . S
H759 C782 0.950 . S
H760 C783 0.950 . S
H761 C785 0.950 . S
H762 C786 0.950 . S
H763 C787 0.951 . S
H764 C789 0.951 . S
H765 C791 0.950 . S
H766 C792 0.950 . S
H767 C794 0.950 . S
H768 C797 0.950 . S
H769 C798 0.950 . S
H770 C800 0.950 . S
H771 C801 0.950 . S
C772 H754 0.951 . S
C772 C773 1.366 . S
C772 C774 1.388 . S
C773 C772 1.366 . S
C773 C777 1.385 . S
C774 H755 0.951 . S
C774 C772 1.388 . S
C774 C775 1.366 . S
C775 C774 1.366 . S
C775 C776 1.414 . S
C775 C778 1.499 . S
C776 H756 0.950 . S
C776 C775 1.414 . S
C776 C777 1.374 . S
C777 H757 0.950 . S
C777 C773 1.385 . S
C777 C776 1.374 . S
C778 C775 1.499 . S
C778 C779 1.373 . S
C778 C780 1.389 . S
C779 H758 0.950 . S
C779 C778 1.373 . S
C779 C795 1.377 . S
C780 C778 1.389 . S
C780 C781 1.524 . S
C780 C794 1.377 . S
C781 C780 1.524 . S
C781 C782 1.397 . S
C781 C786 1.363 . S
C782 H759 0.950 . S
C782 C781 1.397 . S
C782 C783 1.334 . S
C783 H760 0.950 . S
C783 C782 1.334 . S
C783 C784 1.287 . S
C784 C783 1.287 . S
C784 C785 1.524 . S
C784 H803 0.913 . S
C785 H761 0.950 . S
C785 C784 1.524 . S
C785 C786 1.415 . S
C786 H762 0.950 . S
C786 C781 1.363 . S
C786 C785 1.415 . S
C787 H763 0.951 . S
C787 C788 1.366 . S
C787 C789 1.388 . S
C788 C787 1.366 . S
C788 C792 1.385 . S
C789 H764 0.951 . S
C789 C787 1.388 . S
C789 C790 1.366 . S
C790 C789 1.366 . S
C790 C791 1.414 . S
C790 C793 1.499 . S
C791 H765 0.950 . S
C791 C790 1.414 . S
C791 C792 1.374 . S
C792 H766 0.950 . S
C792 C788 1.385 . S
C792 C791 1.374 . S
C793 C790 1.499 . S
C793 C794 1.373 . S
C793 C795 1.389 . S
C794 H767 0.950 . S
C794 C780 1.377 . S
C794 C793 1.373 . S
C795 C779 1.377 . S
C795 C793 1.389 . S
C795 C796 1.524 . S
C796 C795 1.524 . S
C796 C797 1.397 . S
C796 C801 1.363 . S
C797 H768 0.950 . S
C797 C796 1.397 . S
C797 C798 1.334 . S
C798 H769 0.950 . S
C798 C797 1.334 . S
C798 C799 1.287 . S
C799 C798 1.287 . S
C799 C800 1.524 . S
C799 H802 0.999 . S
C800 H770 0.950 . S
C800 C799 1.524 . S
C800 C801 1.415 . S
C801 H771 0.950 . S
C801 C796 1.363 . S
C801 C800 1.415 . S
H802 C799 0.999 . S
H803 C784 0.913 . S
H804 C822 0.951 . S
H805 C824 0.951 . S
H806 C826 0.950 . S
H807 C827 0.950 . S
H808 C829 0.950 . S
H809 C832 0.950 . S
H810 C833 0.950 . S
H811 C835 0.950 . S
H812 C836 0.950 . S
H813 C837 0.951 . S
H814 C839 0.951 . S
H815 C841 0.950 . S
H816 C842 0.950 . S
H817 C844 0.950 . S
H818 C847 0.950 . S
H819 C848 0.950 . S
H820 C850 0.950 . S
H821 C851 0.950 . S
C822 H804 0.951 . S
C822 C823 1.366 . S
C822 C824 1.388 . S
C823 C822 1.366 . S
C823 C827 1.385 . S
C824 H805 0.951 . S
C824 C822 1.388 . S
C824 C825 1.366 . S
C825 C824 1.366 . S
C825 C826 1.414 . S
C825 C828 1.499 . S
C826 H806 0.950 . S
C826 C825 1.414 . S
C826 C827 1.374 . S
C827 H807 0.950 . S
C827 C823 1.385 . S
C827 C826 1.374 . S
C828 C825 1.499 . S
C828 C829 1.373 . S
C828 C830 1.389 . S
C829 H808 0.950 . S
C829 C828 1.373 . S
C829 C845 1.377 . S
C830 C828 1.389 . S
C830 C831 1.524 . S
C830 C844 1.377 . S
C831 C830 1.524 . S
C831 C832 1.397 . S
C831 C836 1.363 . S
C832 H809 0.950 . S
C832 C831 1.397 . S
C832 C833 1.334 . S
C833 H810 0.950 . S
C833 C832 1.334 . S
C833 C834 1.287 . S
C834 C833 1.287 . S
C834 C835 1.524 . S
C834 H853 0.913 . S
C835 H811 0.950 . S
C835 C834 1.524 . S
C835 C836 1.415 . S
C836 H812 0.950 . S
C836 C831 1.363 . S
C836 C835 1.415 . S
C837 H813 0.951 . S
C837 C838 1.366 . S
C837 C839 1.388 . S
C838 C837 1.366 . S
C838 C842 1.385 . S
C839 H814 0.951 . S
C839 C837 1.388 . S
C839 C840 1.366 . S
C840 C839 1.366 . S
C840 C841 1.414 . S
C840 C843 1.499 . S
C841 H815 0.950 . S
C841 C840 1.414 . S
C841 C842 1.374 . S
C842 H816 0.950 . S
C842 C838 1.385 . S
C842 C841 1.374 . S
C843 C840 1.499 . S
C843 C844 1.373 . S
C843 C845 1.389 . S
C844 H817 0.950 . S
C844 C830 1.377 . S
C844 C843 1.373 . S
C845 C829 1.377 . S
C845 C843 1.389 . S
C845 C846 1.524 . S
C846 C845 1.524 . S
C846 C847 1.397 . S
C846 C851 1.363 . S
C847 H818 0.950 . S
C847 C846 1.397 . S
C847 C848 1.334 . S
C848 H819 0.950 . S
C848 C847 1.334 . S
C848 C849 1.287 . S
C849 C848 1.287 . S
C849 C850 1.524 . S
C849 H852 0.999 . S
C850 H820 0.950 . S
C850 C849 1.524 . S
C850 C851 1.415 . S
C851 H821 0.950 . S
C851 C846 1.363 . S
C851 C850 1.415 . S
H852 C849 0.999 . S
H853 C834 0.913 . S
H854 C872 0.951 . S
H855 C874 0.951 . S
H856 C876 0.950 . S
H857 C877 0.950 . S
H858 C879 0.950 . S
H859 C882 0.950 . S
H860 C883 0.950 . S
H861 C885 0.950 . S
H862 C886 0.950 . S
H863 C887 0.951 . S
H864 C889 0.951 . S
H865 C891 0.950 . S
H866 C892 0.950 . S
H867 C894 0.950 . S
H868 C897 0.950 . S
H869 C898 0.942 1_554 S
H870 C900 0.950 . S
H871 C901 0.950 . S
C872 H854 0.951 . S
C872 C873 1.366 . S
C872 C874 1.388 . S
C873 C872 1.366 . S
C873 C877 1.385 . S
C874 H855 0.951 . S
C874 C872 1.388 . S
C874 C875 1.366 . S
C875 C874 1.366 . S
C875 C876 1.414 . S
C875 C878 1.499 . S
C876 H856 0.950 . S
C876 C875 1.414 . S
C876 C877 1.374 . S
C877 H857 0.950 . S
C877 C873 1.385 . S
C877 C876 1.374 . S
C878 C875 1.499 . S
C878 C879 1.373 . S
C878 C880 1.389 . S
C879 H858 0.950 . S
C879 C878 1.373 . S
C879 C895 1.377 . S
C880 C878 1.389 . S
C880 C881 1.524 . S
C880 C894 1.377 . S
C881 C880 1.524 . S
C881 C882 1.397 . S
C881 C886 1.363 . S
C882 H859 0.950 . S
C882 C881 1.397 . S
C882 C883 1.334 . S
C883 H860 0.950 . S
C883 C882 1.334 . S
C883 C884 1.287 . S
C884 C883 1.287 . S
C884 C885 1.524 . S
C884 H903 0.913 . S
C885 H861 0.950 . S
C885 C884 1.524 . S
C885 C886 1.415 . S
C886 H862 0.950 . S
C886 C881 1.363 . S
C886 C885 1.415 . S
C887 H863 0.951 . S
C887 C888 1.366 . S
C887 C889 1.388 . S
C888 C887 1.366 . S
C888 C892 1.385 . S
C889 H864 0.951 . S
C889 C887 1.388 . S
C889 C890 1.366 . S
C890 C889 1.366 . S
C890 C891 1.414 . S
C890 C893 1.499 . S
C891 H865 0.950 . S
C891 C890 1.414 . S
C891 C892 1.374 . S
C892 H866 0.950 . S
C892 C888 1.385 . S
C892 C891 1.374 . S
C893 C890 1.499 . S
C893 C894 1.373 . S
C893 C895 1.389 . S
C894 H867 0.950 . S
C894 C880 1.377 . S
C894 C893 1.373 . S
C895 C879 1.377 . S
C895 C893 1.389 . S
C895 C896 1.524 . S
C896 C895 1.524 . S
C896 C897 1.397 . S
C896 C901 1.363 . S
C897 H868 0.950 . S
C897 C896 1.397 . S
C897 C898 1.334 . S
C898 H869 0.942 1_556 S
C898 C897 1.334 . S
C898 C899 1.287 . S
C899 C898 1.287 . S
C899 C900 1.524 . S
C899 H902 0.999 1_556 S
C900 H870 0.950 . S
C900 C899 1.524 . S
C900 C901 1.415 . S
C901 H871 0.950 . S
C901 C896 1.363 . S
C901 C900 1.415 . S
H902 C899 0.999 1_554 S
H903 C884 0.913 . S
H904 C922 0.951 . S
H905 C924 0.951 . S
H906 C926 0.950 . S
H907 C927 0.950 . S
H908 C929 0.950 . S
H909 C932 0.950 . S
H910 C933 0.950 . S
H911 C935 0.950 . S
H912 C936 0.950 . S
H913 C937 0.951 . S
H914 C939 0.951 . S
H915 C941 0.950 . S
H916 C942 0.950 . S
H917 C944 0.950 . S
H918 C947 0.950 . S
H919 C948 0.950 . S
H920 C950 0.950 . S
H921 C951 0.950 . S
C922 H904 0.951 . S
C922 C923 1.366 . S
C922 C924 1.388 . S
C923 C922 1.366 . S
C923 C927 1.385 . S
C924 H905 0.951 . S
C924 C922 1.388 . S
C924 C925 1.366 . S
C925 C924 1.366 . S
C925 C926 1.414 . S
C925 C928 1.499 . S
C926 H906 0.950 . S
C926 C925 1.414 . S
C926 C927 1.374 . S
C927 H907 0.950 . S
C927 C923 1.385 . S
C927 C926 1.374 . S
C928 C925 1.499 . S
C928 C929 1.373 . S
C928 C930 1.389 . S
C929 H908 0.950 . S
C929 C928 1.373 . S
C929 C945 1.377 . S
C930 C928 1.389 . S
C930 C931 1.524 . S
C930 C944 1.377 . S
C931 C930 1.524 . S
C931 C932 1.397 . S
C931 C936 1.363 . S
C932 H909 0.950 . S
C932 C931 1.397 . S
C932 C933 1.334 . S
C933 H910 0.950 . S
C933 C932 1.334 . S
C933 C934 1.287 . S
C934 C933 1.287 . S
C934 C935 1.524 . S
C934 H953 0.913 . S
C935 H911 0.950 . S
C935 C934 1.524 . S
C935 C936 1.415 . S
C936 H912 0.950 . S
C936 C931 1.363 . S
C936 C935 1.415 . S
C937 H913 0.951 . S
C937 C938 1.366 . S
C937 C939 1.388 . S
C938 C937 1.366 . S
C938 C942 1.385 . S
C939 H914 0.951 . S
C939 C937 1.388 . S
C939 C940 1.366 . S
C940 C939 1.366 . S
C940 C941 1.414 . S
C940 C943 1.499 . S
C941 H915 0.950 . S
C941 C940 1.414 . S
C941 C942 1.374 . S
C942 H916 0.950 . S
C942 C938 1.385 . S
C942 C941 1.374 . S
C943 C940 1.499 . S
C943 C944 1.373 . S
C943 C945 1.389 . S
C944 H917 0.950 . S
C944 C930 1.377 . S
C944 C943 1.373 . S
C945 C929 1.377 . S
C945 C943 1.389 . S
C945 C946 1.524 . S
C946 C945 1.524 . S
C946 C947 1.397 . S
C946 C951 1.363 . S
C947 H918 0.950 . S
C947 C946 1.397 . S
C947 C948 1.334 . S
C948 H919 0.950 . S
C948 C947 1.334 . S
C948 C949 1.287 . S
C949 C948 1.287 . S
C949 C950 1.524 . S
C949 H952 0.999 . S
C950 H920 0.950 . S
C950 C949 1.524 . S
C950 C951 1.415 . S
C951 H921 0.950 . S
C951 C946 1.363 . S
C951 C950 1.415 . S
H952 C949 0.999 . S
H953 C934 0.913 . S
H954 C972 0.951 . S
H955 C974 0.951 . S
H956 C976 0.950 . S
H957 C977 0.950 . S
H958 C979 0.950 . S
H959 C982 0.950 . S
H960 C983 0.950 . S
H961 C985 0.950 . S
H962 C986 0.950 . S
H963 C987 0.951 . S
H964 C989 0.951 . S
H965 C991 0.950 . S
H966 C992 0.950 . S
H967 C994 0.950 . S
H968 C997 0.950 . S
H969 C998 0.950 . S
H970 C1000 0.950 . S
H971 C1001 0.950 . S
C972 H954 0.951 . S
C972 C973 1.366 . S
C972 C974 1.388 . S
C973 C972 1.366 . S
C973 C977 1.385 . S
C974 H955 0.951 . S
C974 C972 1.388 . S
C974 C975 1.366 . S
C975 C974 1.366 . S
C975 C976 1.414 . S
C975 C978 1.499 . S
C976 H956 0.950 . S
C976 C975 1.414 . S
C976 C977 1.374 . S
C977 H957 0.950 . S
C977 C973 1.385 . S
C977 C976 1.374 . S
C978 C975 1.499 . S
C978 C979 1.373 . S
C978 C980 1.389 . S
C979 H958 0.950 . S
C979 C978 1.373 . S
C979 C995 1.377 . S
C980 C978 1.389 . S
C980 C981 1.524 . S
C980 C994 1.377 . S
C981 C980 1.524 . S
C981 C982 1.397 . S
C981 C986 1.363 . S
C982 H959 0.950 . S
C982 C981 1.397 . S
C982 C983 1.334 . S
C983 H960 0.950 . S
C983 C982 1.334 . S
C983 C984 1.287 . S
C984 C983 1.287 . S
C984 C985 1.524 . S
C984 H1003 0.913 . S
C985 H961 0.950 . S
C985 C984 1.524 . S
C985 C986 1.415 . S
C986 H962 0.950 . S
C986 C981 1.363 . S
C986 C985 1.415 . S
C987 H963 0.951 . S
C987 C988 1.366 . S
C987 C989 1.388 . S
C988 C987 1.366 . S
C988 C992 1.385 . S
C989 H964 0.951 . S
C989 C987 1.388 . S
C989 C990 1.366 . S
C990 C989 1.366 . S
C990 C991 1.414 . S
C990 C993 1.499 . S
C991 H965 0.950 . S
C991 C990 1.414 . S
C991 C992 1.374 . S
C992 H966 0.950 . S
C992 C988 1.385 . S
C992 C991 1.374 . S
C993 C990 1.499 . S
C993 C994 1.373 . S
C993 C995 1.389 . S
C994 H967 0.950 . S
C994 C980 1.377 . S
C994 C993 1.373 . S
C995 C979 1.377 . S
C995 C993 1.389 . S
C995 C996 1.524 . S
C996 C995 1.524 . S
C996 C997 1.397 . S
C996 C1001 1.363 . S
C997 H968 0.950 . S
C997 C996 1.397 . S
C997 C998 1.334 . S
C998 H969 0.950 . S
C998 C997 1.334 . S
C998 C999 1.287 . S
C999 C998 1.287 . S
C999 C1000 1.524 . S
C999 H1002 0.999 . S
C1000 H970 0.950 . S
C1000 C999 1.524 . S
C1000 C1001 1.415 . S
C1001 H971 0.950 . S
C1001 C996 1.363 . S
C1001 C1000 1.415 . S
H1002 C999 0.999 . S
H1003 C984 0.913 . S
H1004 C1022 0.951 . S
H1005 C1024 0.951 . S
H1006 C1026 0.950 . S
H1007 C1027 0.950 . S
H1008 C1029 0.950 . S
H1009 C1032 0.950 . S
H1010 C1033 0.950 . S
H1011 C1035 0.950 . S
H1012 C1036 0.950 . S
H1013 C1037 0.951 . S
H1014 C1039 0.951 . S
H1015 C1041 0.950 . S
H1016 C1042 0.950 . S
H1017 C1044 0.950 . S
H1018 C1047 0.950 . S
H1019 C1048 0.950 . S
H1020 C1050 0.950 . S
H1021 C1051 0.950 . S
C1022 H1004 0.951 . S
C1022 C1023 1.366 . S
C1022 C1024 1.388 . S
C1023 C1022 1.366 . S
C1023 C1027 1.385 . S
C1024 H1005 0.951 . S
C1024 C1022 1.388 . S
C1024 C1025 1.366 . S
C1025 C1024 1.366 . S
C1025 C1026 1.414 . S
C1025 C1028 1.499 . S
C1026 H1006 0.950 . S
C1026 C1025 1.414 . S
C1026 C1027 1.374 . S
C1027 H1007 0.950 . S
C1027 C1023 1.385 . S
C1027 C1026 1.374 . S
C1028 C1025 1.499 . S
C1028 C1029 1.373 . S
C1028 C1030 1.389 . S
C1029 H1008 0.950 . S
C1029 C1028 1.373 . S
C1029 C1045 1.377 . S
C1030 C1028 1.389 . S
C1030 C1031 1.524 . S
C1030 C1044 1.377 . S
C1031 C1030 1.524 . S
C1031 C1032 1.397 . S
C1031 C1036 1.363 . S
C1032 H1009 0.950 . S
C1032 C1031 1.397 . S
C1032 C1033 1.334 . S
C1033 H1010 0.950 . S
C1033 C1032 1.334 . S
C1033 C1034 1.287 . S
C1034 C1033 1.287 . S
C1034 C1035 1.524 . S
C1034 H1053 0.913 . S
C1035 H1011 0.950 . S
C1035 C1034 1.524 . S
C1035 C1036 1.415 . S
C1036 H1012 0.950 . S
C1036 C1031 1.363 . S
C1036 C1035 1.415 . S
C1037 H1013 0.951 . S
C1037 C1038 1.366 . S
C1037 C1039 1.388 . S
C1038 C1037 1.366 . S
C1038 C1042 1.385 . S
C1039 H1014 0.951 . S
C1039 C1037 1.388 . S
C1039 C1040 1.366 . S
C1040 C1039 1.366 . S
C1040 C1041 1.414 . S
C1040 C1043 1.499 . S
C1041 H1015 0.950 . S
C1041 C1040 1.414 . S
C1041 C1042 1.374 . S
C1042 H1016 0.950 . S
C1042 C1038 1.385 . S
C1042 C1041 1.374 . S
C1043 C1040 1.499 . S
C1043 C1044 1.373 . S
C1043 C1045 1.389 . S
C1044 H1017 0.950 . S
C1044 C1030 1.377 . S
C1044 C1043 1.373 . S
C1045 C1029 1.377 . S
C1045 C1043 1.389 . S
C1045 C1046 1.524 . S
C1046 C1045 1.524 . S
C1046 C1047 1.397 . S
C1046 C1051 1.363 . S
C1047 H1018 0.950 . S
C1047 C1046 1.397 . S
C1047 C1048 1.334 . S
C1048 H1019 0.950 . S
C1048 C1047 1.334 . S
C1048 C1049 1.287 . S
C1049 C1048 1.287 . S
C1049 C1050 1.524 . S
C1049 H1052 0.999 . S
C1050 H1020 0.950 . S
C1050 C1049 1.524 . S
C1050 C1051 1.415 . S
C1051 H1021 0.950 . S
C1051 C1046 1.363 . S
C1051 C1050 1.415 . S
H1052 C1049 0.999 . S
H1053 C1034 0.913 . S
H1054 C1072 0.951 . S
H1055 C1074 0.951 . S
H1056 C1076 0.950 . S
H1057 C1077 0.950 . S
H1058 C1079 0.950 . S
H1059 C1082 0.950 . S
H1060 C1083 0.950 . S
H1061 C1085 0.950 . S
H1062 C1086 0.950 . S
H1063 C1087 0.951 . S
H1064 C1089 0.951 . S
H1065 C1091 0.950 . S
H1066 C1092 0.950 . S
H1067 C1094 0.950 . S
H1068 C1097 0.950 . S
H1069 C1098 0.950 . S
H1070 C1100 0.950 . S
H1071 C1101 0.950 . S
C1072 H1054 0.951 . S
C1072 C1073 1.366 . S
C1072 C1074 1.388 . S
C1073 C1072 1.366 . S
C1073 C1077 1.385 . S
C1074 H1055 0.951 . S
C1074 C1072 1.388 . S
C1074 C1075 1.366 . S
C1075 C1074 1.366 . S
C1075 C1076 1.414 . S
C1075 C1078 1.499 . S
C1076 H1056 0.950 . S
C1076 C1075 1.414 . S
C1076 C1077 1.374 . S
C1077 H1057 0.950 . S
C1077 C1073 1.385 . S
C1077 C1076 1.374 . S
C1078 C1075 1.499 . S
C1078 C1079 1.373 . S
C1078 C1080 1.389 . S
C1079 H1058 0.950 . S
C1079 C1078 1.373 . S
C1079 C1095 1.377 . S
C1080 C1078 1.389 . S
C1080 C1081 1.524 . S
C1080 C1094 1.377 . S
C1081 C1080 1.524 . S
C1081 C1082 1.397 . S
C1081 C1086 1.363 . S
C1082 H1059 0.950 . S
C1082 C1081 1.397 . S
C1082 C1083 1.334 . S
C1083 H1060 0.950 . S
C1083 C1082 1.334 . S
C1083 C1084 1.287 . S
C1084 C1083 1.287 . S
C1084 C1085 1.524 . S
C1084 H1103 0.913 . S
C1085 H1061 0.950 . S
C1085 C1084 1.524 . S
C1085 C1086 1.415 . S
C1086 H1062 0.950 . S
C1086 C1081 1.363 . S
C1086 C1085 1.415 . S
C1087 H1063 0.951 . S
C1087 C1088 1.366 . S
C1087 C1089 1.388 . S
C1088 C1087 1.366 . S
C1088 C1092 1.385 . S
C1089 H1064 0.951 . S
C1089 C1087 1.388 . S
C1089 C1090 1.366 . S
C1090 C1089 1.366 . S
C1090 C1091 1.414 . S
C1090 C1093 1.499 . S
C1091 H1065 0.950 . S
C1091 C1090 1.414 . S
C1091 C1092 1.374 . S
C1092 H1066 0.950 . S
C1092 C1088 1.385 . S
C1092 C1091 1.374 . S
C1093 C1090 1.499 . S
C1093 C1094 1.373 . S
C1093 C1095 1.389 . S
C1094 H1067 0.950 . S
C1094 C1080 1.377 . S
C1094 C1093 1.373 . S
C1095 C1079 1.377 . S
C1095 C1093 1.389 . S
C1095 C1096 1.524 . S
C1096 C1095 1.524 . S
C1096 C1097 1.397 . S
C1096 C1101 1.363 . S
C1097 H1068 0.950 . S
C1097 C1096 1.397 . S
C1097 C1098 1.334 . S
C1098 H1069 0.950 . S
C1098 C1097 1.334 . S
C1098 C1099 1.287 . S
C1099 C1098 1.287 . S
C1099 C1100 1.524 . S
C1099 H1102 0.999 . S
C1100 H1070 0.950 . S
C1100 C1099 1.524 . S
C1100 C1101 1.415 . S
C1101 H1071 0.950 . S
C1101 C1096 1.363 . S
C1101 C1100 1.415 . S
H1102 C1099 0.999 . S
H1103 C1084 0.913 . S
H1104 C1122 0.951 . S
H1105 C1124 0.951 1_556 S
H1106 C1126 0.950 . S
H1107 C1127 0.950 . S
H1108 C1129 0.950 . S
H1109 C1132 0.950 1_554 S
H1110 C1133 0.950 . S
H1111 C1135 0.950 . S
H1112 C1136 0.950 . S
H1113 C1137 0.951 . S
H1114 C1139 0.951 . S
H1115 C1141 0.950 . S
H1116 C1142 0.950 . S
H1117 C1144 0.950 . S
H1118 C1147 0.950 . S
H1119 C1148 0.950 . S
H1120 C1150 0.950 . S
H1121 C1151 0.950 . S
C1122 H1104 0.951 . S
C1122 C1123 1.366 1_556 S
C1122 C1124 1.388 1_556 S
C1123 C1122 1.366 1_554 S
C1123 C1127 1.385 . S
C1124 H1105 0.951 1_554 S
C1124 C1122 1.388 1_554 S
C1124 C1125 1.366 . S
C1125 C1124 1.366 . S
C1125 C1126 1.414 . S
C1125 C1128 1.499 . S
C1126 H1106 0.950 . S
C1126 C1125 1.414 . S
C1126 C1127 1.374 . S
C1127 H1107 0.950 . S
C1127 C1123 1.385 . S
C1127 C1126 1.374 . S
C1128 C1125 1.499 . S
C1128 C1129 1.373 . S
C1128 C1130 1.389 . S
C1129 H1108 0.950 . S
C1129 C1128 1.373 . S
C1129 C1145 1.377 . S
C1130 C1128 1.389 . S
C1130 C1131 1.524 1_554 S
C1130 C1144 1.377 . S
C1131 C1130 1.524 1_556 S
C1131 C1132 1.397 . S
C1131 C1136 1.363 . S
C1132 H1109 0.950 1_556 S
C1132 C1131 1.397 . S
C1132 C1133 1.334 . S
C1133 H1110 0.950 . S
C1133 C1132 1.334 . S
C1133 C1134 1.287 . S
C1134 C1133 1.287 . S
C1134 C1135 1.524 . S
C1134 H1153 0.913 . S
C1135 H1111 0.950 . S
C1135 C1134 1.524 . S
C1135 C1136 1.415 . S
C1136 H1112 0.950 . S
C1136 C1131 1.363 . S
C1136 C1135 1.415 . S
C1137 H1113 0.951 . S
C1137 C1138 1.366 . S
C1137 C1139 1.388 . S
C1138 C1137 1.366 . S
C1138 C1142 1.385 . S
C1139 H1114 0.951 . S
C1139 C1137 1.388 . S
C1139 C1140 1.366 . S
C1140 C1139 1.366 . S
C1140 C1141 1.414 . S
C1140 C1143 1.499 . S
C1141 H1115 0.950 . S
C1141 C1140 1.414 . S
C1141 C1142 1.374 . S
C1142 H1116 0.950 . S
C1142 C1138 1.385 . S
C1142 C1141 1.374 . S
C1143 C1140 1.499 . S
C1143 C1144 1.373 . S
C1143 C1145 1.389 . S
C1144 H1117 0.950 . S
C1144 C1130 1.377 . S
C1144 C1143 1.373 . S
C1145 C1129 1.377 . S
C1145 C1143 1.389 . S
C1145 C1146 1.524 . S
C1146 C1145 1.524 . S
C1146 C1147 1.397 . S
C1146 C1151 1.363 . S
C1147 H1118 0.950 . S
C1147 C1146 1.397 . S
C1147 C1148 1.334 . S
C1148 H1119 0.950 . S
C1148 C1147 1.334 . S
C1148 C1149 1.287 . S
C1149 C1148 1.287 . S
C1149 C1150 1.524 . S
C1149 H1152 0.999 . S
C1150 H1120 0.950 . S
C1150 C1149 1.524 . S
C1150 C1151 1.415 . S
C1151 H1121 0.950 . S
C1151 C1146 1.363 . S
C1151 C1150 1.415 . S
H1152 C1149 0.999 . S
H1153 C1134 0.913 . S
H1154 C1172 0.951 . S
H1155 C1174 0.951 . S
H1156 C1176 0.950 . S
H1157 C1177 0.950 . S
H1158 C1179 0.950 . S
H1159 C1182 0.950 . S
H1160 C1183 0.950 . S
H1161 C1185 0.950 . S
H1162 C1186 0.950 . S
H1163 C1187 0.951 . S
H1164 C1189 0.951 . S
H1165 C1191 0.950 . S
H1166 C1192 0.950 . S
H1167 C1194 0.950 . S
H1168 C1197 0.950 . S
H1169 C1198 0.950 . S
H1170 C1200 0.950 . S
H1171 C1201 0.950 . S
C1172 H1154 0.951 . S
C1172 C1173 1.366 . S
C1172 C1174 1.388 . S
C1173 C1172 1.366 . S
C1173 C1177 1.385 . S
C1174 H1155 0.951 . S
C1174 C1172 1.388 . S
C1174 C1175 1.366 . S
C1175 C1174 1.366 . S
C1175 C1176 1.414 . S
C1175 C1178 1.499 . S
C1176 H1156 0.950 . S
C1176 C1175 1.414 . S
C1176 C1177 1.374 . S
C1177 H1157 0.950 . S
C1177 C1173 1.385 . S
C1177 C1176 1.374 . S
C1178 C1175 1.499 . S
C1178 C1179 1.373 . S
C1178 C1180 1.389 . S
C1179 H1158 0.950 . S
C1179 C1178 1.373 . S
C1179 C1195 1.377 . S
C1180 C1178 1.389 . S
C1180 C1181 1.524 . S
C1180 C1194 1.377 . S
C1181 C1180 1.524 . S
C1181 C1182 1.397 . S
C1181 C1186 1.363 . S
C1182 H1159 0.950 . S
C1182 C1181 1.397 . S
C1182 C1183 1.334 . S
C1183 H1160 0.950 . S
C1183 C1182 1.334 . S
C1183 C1184 1.287 . S
C1184 C1183 1.287 . S
C1184 C1185 1.524 . S
C1184 H1203 0.913 . S
C1185 H1161 0.950 . S
C1185 C1184 1.524 . S
C1185 C1186 1.415 . S
C1186 H1162 0.950 . S
C1186 C1181 1.363 . S
C1186 C1185 1.415 . S
C1187 H1163 0.951 . S
C1187 C1188 1.366 . S
C1187 C1189 1.388 . S
C1188 C1187 1.366 . S
C1188 C1192 1.385 . S
C1189 H1164 0.951 . S
C1189 C1187 1.388 . S
C1189 C1190 1.366 . S
C1190 C1189 1.366 . S
C1190 C1191 1.414 . S
C1190 C1193 1.499 . S
C1191 H1165 0.950 . S
C1191 C1190 1.414 . S
C1191 C1192 1.374 . S
C1192 H1166 0.950 . S
C1192 C1188 1.385 . S
C1192 C1191 1.374 . S
C1193 C1190 1.499 . S
C1193 C1194 1.373 . S
C1193 C1195 1.389 . S
C1194 H1167 0.950 . S
C1194 C1180 1.377 . S
C1194 C1193 1.373 . S
C1195 C1179 1.377 . S
C1195 C1193 1.389 . S
C1195 C1196 1.524 . S
C1196 C1195 1.524 . S
C1196 C1197 1.397 . S
C1196 C1201 1.363 . S
C1197 H1168 0.950 . S
C1197 C1196 1.397 . S
C1197 C1198 1.334 . S
C1198 H1169 0.950 . S
C1198 C1197 1.334 . S
C1198 C1199 1.287 . S
C1199 C1198 1.287 . S
C1199 C1200 1.524 . S
C1199 H1202 0.999 . S
C1200 H1170 0.950 . S
C1200 C1199 1.524 . S
C1200 C1201 1.415 . S
C1201 H1171 0.950 . S
C1201 C1196 1.363 . S
C1201 C1200 1.415 . S
H1202 C1199 0.999 . S
H1203 C1184 0.913 . S
H1204 C1222 0.951 . S
H1205 C1224 0.951 . S
H1206 C1226 0.950 . S
H1207 C1227 0.950 . S
H1208 C1229 0.950 . S
H1209 C1232 0.950 . S
H1210 C1233 0.950 . S
H1211 C1235 0.950 . S
H1212 C1236 0.950 . S
H1213 C1237 0.951 . S
H1214 C1239 0.951 . S
H1215 C1241 0.950 . S
H1216 C1242 0.950 . S
H1217 C1244 0.950 . S
H1218 C1247 0.950 . S
H1219 C1248 0.950 . S
H1220 C1250 0.950 . S
H1221 C1251 0.950 . S
C1222 H1204 0.951 . S
C1222 C1223 1.366 . S
C1222 C1224 1.388 . S
C1223 C1222 1.366 . S
C1223 C1227 1.385 . S
C1224 H1205 0.951 . S
C1224 C1222 1.388 . S
C1224 C1225 1.366 . S
C1225 C1224 1.366 . S
C1225 C1226 1.414 . S
C1225 C1228 1.499 . S
C1226 H1206 0.950 . S
C1226 C1225 1.414 . S
C1226 C1227 1.374 . S
C1227 H1207 0.950 . S
C1227 C1223 1.385 . S
C1227 C1226 1.374 . S
C1228 C1225 1.499 . S
C1228 C1229 1.373 . S
C1228 C1230 1.389 . S
C1229 H1208 0.950 . S
C1229 C1228 1.373 . S
C1229 C1245 1.377 . S
C1230 C1228 1.389 . S
C1230 C1231 1.524 . S
C1230 C1244 1.377 . S
C1231 C1230 1.524 . S
C1231 C1232 1.397 . S
C1231 C1236 1.363 . S
C1232 H1209 0.950 . S
C1232 C1231 1.397 . S
C1232 C1233 1.334 . S
C1233 H1210 0.950 . S
C1233 C1232 1.334 . S
C1233 C1234 1.287 . S
C1234 C1233 1.287 . S
C1234 C1235 1.524 . S
C1234 H1253 0.913 . S
C1235 H1211 0.950 . S
C1235 C1234 1.524 . S
C1235 C1236 1.415 . S
C1236 H1212 0.950 . S
C1236 C1231 1.363 . S
C1236 C1235 1.415 . S
C1237 H1213 0.951 . S
C1237 C1238 1.366 . S
C1237 C1239 1.388 . S
C1238 C1237 1.366 . S
C1238 C1242 1.385 . S
C1239 H1214 0.951 . S
C1239 C1237 1.388 . S
C1239 C1240 1.366 . S
C1240 C1239 1.366 . S
C1240 C1241 1.414 . S
C1240 C1243 1.499 . S
C1241 H1215 0.950 . S
C1241 C1240 1.414 . S
C1241 C1242 1.374 . S
C1242 H1216 0.950 . S
C1242 C1238 1.385 . S
C1242 C1241 1.374 . S
C1243 C1240 1.499 . S
C1243 C1244 1.373 . S
C1243 C1245 1.389 . S
C1244 H1217 0.950 . S
C1244 C1230 1.377 . S
C1244 C1243 1.373 . S
C1245 C1229 1.377 . S
C1245 C1243 1.389 . S
C1245 C1246 1.524 . S
C1246 C1245 1.524 . S
C1246 C1247 1.397 . S
C1246 C1251 1.363 . S
C1247 H1218 0.950 . S
C1247 C1246 1.397 . S
C1247 C1248 1.334 . S
C1248 H1219 0.950 . S
C1248 C1247 1.334 . S
C1248 C1249 1.287 . S
C1249 C1248 1.287 . S
C1249 C1250 1.524 . S
C1249 H1252 0.999 . S
C1250 H1220 0.950 . S
C1250 C1249 1.524 . S
C1250 C1251 1.415 . S
C1251 H1221 0.950 . S
C1251 C1246 1.363 . S
C1251 C1250 1.415 . S
H1252 C1249 0.999 . S
H1253 C1234 0.913 . S
H1254 C1272 0.951 . S
H1255 C1274 0.951 . S
H1256 C1276 0.950 . S
H1257 C1277 0.950 . S
H1258 C1279 0.950 . S
H1259 C1282 0.950 . S
H1260 C1283 0.950 . S
H1261 C1285 0.950 . S
H1262 C1286 0.950 . S
H1263 C1287 0.951 . S
H1264 C1289 0.951 . S
H1265 C1291 0.950 . S
H1266 C1292 0.950 . S
H1267 C1294 0.950 . S
H1268 C1297 0.950 . S
H1269 C1298 0.950 . S
H1270 C1300 0.950 . S
H1271 C1301 0.950 . S
C1272 H1254 0.951 . S
C1272 C1273 1.366 . S
C1272 C1274 1.388 . S
C1273 C1272 1.366 . S
C1273 C1277 1.385 . S
C1274 H1255 0.951 . S
C1274 C1272 1.388 . S
C1274 C1275 1.366 . S
C1275 C1274 1.366 . S
C1275 C1276 1.414 . S
C1275 C1278 1.499 . S
C1276 H1256 0.950 . S
C1276 C1275 1.414 . S
C1276 C1277 1.374 . S
C1277 H1257 0.950 . S
C1277 C1273 1.385 . S
C1277 C1276 1.374 . S
C1278 C1275 1.499 . S
C1278 C1279 1.373 . S
C1278 C1280 1.389 . S
C1279 H1258 0.950 . S
C1279 C1278 1.373 . S
C1279 C1295 1.377 . S
C1280 C1278 1.389 . S
C1280 C1281 1.524 . S
C1280 C1294 1.377 . S
C1281 C1280 1.524 . S
C1281 C1282 1.397 . S
C1281 C1286 1.363 . S
C1282 H1259 0.950 . S
C1282 C1281 1.397 . S
C1282 C1283 1.334 . S
C1283 H1260 0.950 . S
C1283 C1282 1.334 . S
C1283 C1284 1.287 . S
C1284 C1283 1.287 . S
C1284 C1285 1.524 . S
C1284 H1303 0.913 . S
C1285 H1261 0.950 . S
C1285 C1284 1.524 . S
C1285 C1286 1.415 . S
C1286 H1262 0.950 . S
C1286 C1281 1.363 . S
C1286 C1285 1.415 . S
C1287 H1263 0.951 . S
C1287 C1288 1.366 . S
C1287 C1289 1.388 . S
C1288 C1287 1.366 . S
C1288 C1292 1.385 . S
C1289 H1264 0.951 . S
C1289 C1287 1.388 . S
C1289 C1290 1.366 . S
C1290 C1289 1.366 . S
C1290 C1291 1.414 . S
C1290 C1293 1.499 . S
C1291 H1265 0.950 . S
C1291 C1290 1.414 . S
C1291 C1292 1.374 . S
C1292 H1266 0.950 . S
C1292 C1288 1.385 . S
C1292 C1291 1.374 . S
C1293 C1290 1.499 . S
C1293 C1294 1.373 . S
C1293 C1295 1.389 . S
C1294 H1267 0.950 . S
C1294 C1280 1.377 . S
C1294 C1293 1.373 . S
C1295 C1279 1.377 . S
C1295 C1293 1.389 . S
C1295 C1296 1.524 . S
C1296 C1295 1.524 . S
C1296 C1297 1.397 . S
C1296 C1301 1.363 . S
C1297 H1268 0.950 . S
C1297 C1296 1.397 . S
C1297 C1298 1.334 . S
C1298 H1269 0.950 . S
C1298 C1297 1.334 . S
C1298 C1299 1.287 . S
C1299 C1298 1.287 . S
C1299 C1300 1.524 . S
C1299 H1302 0.999 . S
C1300 H1270 0.950 . S
C1300 C1299 1.524 . S
C1300 C1301 1.415 . S
C1301 H1271 0.950 . S
C1301 C1296 1.363 . S
C1301 C1300 1.415 . S
H1302 C1299 0.999 . S
H1303 C1284 0.913 . S
H1304 C1322 0.951 . S
H1305 C1324 0.951 . S
H1306 C1326 0.950 . S
H1307 C1327 0.950 . S
H1308 C1329 0.950 . S
H1309 C1332 0.950 . S
H1310 C1333 0.950 . S
H1311 C1335 0.950 . S
H1312 C1336 0.950 . S
H1313 C1337 0.951 . S
H1314 C1339 0.951 . S
H1315 C1341 0.950 . S
H1316 C1342 0.950 . S
H1317 C1344 0.950 . S
H1318 C1347 0.950 . S
H1319 C1348 0.950 . S
H1320 C1350 0.950 . S
H1321 C1351 0.950 . S
C1322 H1304 0.951 . S
C1322 C1323 1.366 . S
C1322 C1324 1.388 . S
C1323 C1322 1.366 . S
C1323 C1327 1.385 . S
C1324 H1305 0.951 . S
C1324 C1322 1.388 . S
C1324 C1325 1.366 . S
C1325 C1324 1.366 . S
C1325 C1326 1.414 . S
C1325 C1328 1.499 . S
C1326 H1306 0.950 . S
C1326 C1325 1.414 . S
C1326 C1327 1.374 . S
C1327 H1307 0.950 . S
C1327 C1323 1.385 . S
C1327 C1326 1.374 . S
C1328 C1325 1.499 . S
C1328 C1329 1.373 . S
C1328 C1330 1.389 . S
C1329 H1308 0.950 . S
C1329 C1328 1.373 . S
C1329 C1345 1.377 . S
C1330 C1328 1.389 . S
C1330 C1331 1.524 . S
C1330 C1344 1.377 . S
C1331 C1330 1.524 . S
C1331 C1332 1.397 . S
C1331 C1336 1.363 . S
C1332 H1309 0.950 . S
C1332 C1331 1.397 . S
C1332 C1333 1.334 . S
C1333 H1310 0.950 . S
C1333 C1332 1.334 . S
C1333 C1334 1.287 . S
C1334 C1333 1.287 . S
C1334 C1335 1.524 . S
C1334 H1353 0.913 . S
C1335 H1311 0.950 . S
C1335 C1334 1.524 . S
C1335 C1336 1.415 . S
C1336 H1312 0.950 . S
C1336 C1331 1.363 . S
C1336 C1335 1.415 . S
C1337 H1313 0.951 . S
C1337 C1338 1.366 . S
C1337 C1339 1.388 . S
C1338 C1337 1.366 . S
C1338 C1342 1.385 . S
C1339 H1314 0.951 . S
C1339 C1337 1.388 . S
C1339 C1340 1.366 . S
C1340 C1339 1.366 . S
C1340 C1341 1.414 . S
C1340 C1343 1.499 . S
C1341 H1315 0.950 . S
C1341 C1340 1.414 . S
C1341 C1342 1.374 . S
C1342 H1316 0.950 . S
C1342 C1338 1.385 . S
C1342 C1341 1.374 . S
C1343 C1340 1.499 . S
C1343 C1344 1.373 . S
C1343 C1345 1.389 . S
C1344 H1317 0.950 . S
C1344 C1330 1.377 . S
C1344 C1343 1.373 . S
C1345 C1329 1.377 . S
C1345 C1343 1.389 . S
C1345 C1346 1.524 . S
C1346 C1345 1.524 . S
C1346 C1347 1.397 . S
C1346 C1351 1.363 . S
C1347 H1318 0.950 . S
C1347 C1346 1.397 . S
C1347 C1348 1.334 . S
C1348 H1319 0.950 . S
C1348 C1347 1.334 . S
C1348 C1349 1.287 . S
C1349 C1348 1.287 . S
C1349 C1350 1.524 . S
C1349 H1352 0.999 . S
C1350 H1320 0.950 . S
C1350 C1349 1.524 . S
C1350 C1351 1.415 . S
C1351 H1321 0.950 . S
C1351 C1346 1.363 . S
C1351 C1350 1.415 . S
H1352 C1349 0.999 . S
H1353 C1334 0.913 . S
H1354 C1372 0.951 . S
H1355 C1374 0.951 . S
H1356 C1376 0.950 . S
H1357 C1377 0.950 . S
H1358 C1379 0.950 . S
H1359 C1382 0.950 . S
H1360 C1383 0.950 . S
H1361 C1385 0.950 . S
H1362 C1386 0.950 . S
H1363 C1387 0.951 . S
H1364 C1389 0.951 . S
H1365 C1391 0.950 . S
H1366 C1392 0.950 . S
H1367 C1394 0.950 . S
H1368 C1397 0.950 . S
H1369 C1398 0.950 . S
H1370 C1400 0.950 . S
H1371 C1401 0.950 . S
C1372 H1354 0.951 . S
C1372 C1373 1.366 . S
C1372 C1374 1.388 . S
C1373 C1372 1.366 . S
C1373 C1377 1.385 . S
C1374 H1355 0.951 . S
C1374 C1372 1.388 . S
C1374 C1375 1.366 . S
C1375 C1374 1.366 . S
C1375 C1376 1.414 . S
C1375 C1378 1.499 . S
C1376 H1356 0.950 . S
C1376 C1375 1.414 . S
C1376 C1377 1.374 . S
C1377 H1357 0.950 . S
C1377 C1373 1.385 . S
C1377 C1376 1.374 . S
C1378 C1375 1.499 . S
C1378 C1379 1.373 . S
C1378 C1380 1.389 . S
C1379 H1358 0.950 . S
C1379 C1378 1.373 . S
C1379 C1395 1.377 . S
C1380 C1378 1.389 . S
C1380 C1381 1.524 . S
C1380 C1394 1.377 . S
C1381 C1380 1.524 . S
C1381 C1382 1.397 . S
C1381 C1386 1.363 . S
C1382 H1359 0.950 . S
C1382 C1381 1.397 . S
C1382 C1383 1.334 . S
C1383 H1360 0.950 . S
C1383 C1382 1.334 . S
C1383 C1384 1.287 . S
C1384 C1383 1.287 . S
C1384 C1385 1.524 . S
C1384 H1403 0.913 . S
C1385 H1361 0.950 . S
C1385 C1384 1.524 . S
C1385 C1386 1.415 . S
C1386 H1362 0.950 . S
C1386 C1381 1.363 . S
C1386 C1385 1.415 . S
C1387 H1363 0.951 . S
C1387 C1388 1.366 . S
C1387 C1389 1.388 . S
C1388 C1387 1.366 . S
C1388 C1392 1.385 . S
C1389 H1364 0.951 . S
C1389 C1387 1.388 . S
C1389 C1390 1.366 . S
C1390 C1389 1.366 . S
C1390 C1391 1.414 . S
C1390 C1393 1.499 . S
C1391 H1365 0.950 . S
C1391 C1390 1.414 . S
C1391 C1392 1.374 . S
C1392 H1366 0.950 . S
C1392 C1388 1.385 . S
C1392 C1391 1.374 . S
C1393 C1390 1.499 . S
C1393 C1394 1.373 . S
C1393 C1395 1.389 . S
C1394 H1367 0.950 . S
C1394 C1380 1.377 . S
C1394 C1393 1.373 . S
C1395 C1379 1.377 . S
C1395 C1393 1.389 . S
C1395 C1396 1.524 . S
C1396 C1395 1.524 . S
C1396 C1397 1.397 . S
C1396 C1401 1.363 . S
C1397 H1368 0.950 . S
C1397 C1396 1.397 . S
C1397 C1398 1.334 . S
C1398 H1369 0.950 . S
C1398 C1397 1.334 . S
C1398 C1399 1.287 . S
C1399 C1398 1.287 . S
C1399 C1400 1.524 . S
C1399 H1402 0.999 . S
C1400 H1370 0.950 . S
C1400 C1399 1.524 . S
C1400 C1401 1.415 . S
C1401 H1371 0.950 . S
C1401 C1396 1.363 . S
C1401 C1400 1.415 . S
H1402 C1399 0.999 . S
H1403 C1384 0.913 . S
H1404 C1422 0.951 . S
H1405 C1424 0.951 . S
H1406 C1426 0.950 . S
H1407 C1427 0.950 . S
H1408 C1429 0.950 . S
H1409 C1432 0.950 . S
H1410 C1433 0.950 . S
H1411 C1435 0.950 . S
H1412 C1436 0.950 . S
H1413 C1437 0.951 . S
H1414 C1439 0.951 . S
H1415 C1441 0.950 . S
H1416 C1442 0.950 . S
H1417 C1444 0.950 . S
H1418 C1447 0.950 . S
H1419 C1448 0.950 . S
H1420 C1450 0.950 . S
H1421 C1451 0.950 . S
C1422 H1404 0.951 . S
C1422 C1423 1.366 . S
C1422 C1424 1.388 . S
C1423 C1422 1.366 . S
C1423 C1427 1.385 . S
C1424 H1405 0.951 . S
C1424 C1422 1.388 . S
C1424 C1425 1.366 . S
C1425 C1424 1.366 . S
C1425 C1426 1.414 . S
C1425 C1428 1.499 . S
C1426 H1406 0.950 . S
C1426 C1425 1.414 . S
C1426 C1427 1.374 . S
C1427 H1407 0.950 . S
C1427 C1423 1.385 . S
C1427 C1426 1.374 . S
C1428 C1425 1.499 . S
C1428 C1429 1.373 . S
C1428 C1430 1.389 . S
C1429 H1408 0.950 . S
C1429 C1428 1.373 . S
C1429 C1445 1.377 . S
C1430 C1428 1.389 . S
C1430 C1431 1.524 . S
C1430 C1444 1.377 . S
C1431 C1430 1.524 . S
C1431 C1432 1.397 . S
C1431 C1436 1.363 . S
C1432 H1409 0.950 . S
C1432 C1431 1.397 . S
C1432 C1433 1.334 . S
C1433 H1410 0.950 . S
C1433 C1432 1.334 . S
C1433 C1434 1.287 . S
C1434 C1433 1.287 . S
C1434 C1435 1.524 . S
C1434 H1453 0.913 . S
C1435 H1411 0.950 . S
C1435 C1434 1.524 . S
C1435 C1436 1.415 . S
C1436 H1412 0.950 . S
C1436 C1431 1.363 . S
C1436 C1435 1.415 . S
C1437 H1413 0.951 . S
C1437 C1438 1.366 . S
C1437 C1439 1.388 . S
C1438 C1437 1.366 . S
C1438 C1442 1.385 . S
C1439 H1414 0.951 . S
C1439 C1437 1.388 . S
C1439 C1440 1.366 . S
C1440 C1439 1.366 . S
C1440 C1441 1.414 . S
C1440 C1443 1.499 . S
C1441 H1415 0.950 . S
C1441 C1440 1.414 . S
C1441 C1442 1.374 . S
C1442 H1416 0.950 . S
C1442 C1438 1.385 . S
C1442 C1441 1.374 . S
C1443 C1440 1.499 . S
C1443 C1444 1.373 . S
C1443 C1445 1.389 . S
C1444 H1417 0.950 . S
C1444 C1430 1.377 . S
C1444 C1443 1.373 . S
C1445 C1429 1.377 . S
C1445 C1443 1.389 . S
C1445 C1446 1.524 . S
C1446 C1445 1.524 . S
C1446 C1447 1.397 . S
C1446 C1451 1.363 . S
C1447 H1418 0.950 . S
C1447 C1446 1.397 . S
C1447 C1448 1.334 . S
C1448 H1419 0.950 . S
C1448 C1447 1.334 . S
C1448 C1449 1.287 . S
C1449 C1448 1.287 . S
C1449 C1450 1.524 . S
C1449 H1452 0.999 . S
C1450 H1420 0.950 . S
C1450 C1449 1.524 . S
C1450 C1451 1.415 . S
C1451 H1421 0.950 . S
C1451 C1446 1.363 . S
C1451 C1450 1.415 . S
H1452 C1449 0.999 . S
H1453 C1434 0.913 . S
H1454 C1472 0.951 . S
H1455 C1474 0.951 . S
H1456 C1476 0.950 . S
H1457 C1477 0.950 . S
H1458 C1479 0.950 . S
H1459 C1482 0.950 . S
H1460 C1483 0.950 . S
H1461 C1485 0.950 . S
H1462 C1486 0.950 . S
H1463 C1487 0.951 . S
H1464 C1489 0.951 . S
H1465 C1491 0.950 . S
H1466 C1492 0.950 . S
H1467 C1494 0.950 . S
H1468 C1497 0.950 . S
H1469 C1498 0.950 . S
H1470 C1500 0.950 . S
H1471 C1501 0.950 . S
C1472 H1454 0.951 . S
C1472 C1473 1.366 . S
C1472 C1474 1.388 . S
C1473 C1472 1.366 . S
C1473 C1477 1.385 . S
C1474 H1455 0.951 . S
C1474 C1472 1.388 . S
C1474 C1475 1.366 . S
C1475 C1474 1.366 . S
C1475 C1476 1.414 . S
C1475 C1478 1.499 . S
C1476 H1456 0.950 . S
C1476 C1475 1.414 . S
C1476 C1477 1.374 . S
C1477 H1457 0.950 . S
C1477 C1473 1.385 . S
C1477 C1476 1.374 . S
C1478 C1475 1.499 . S
C1478 C1479 1.373 . S
C1478 C1480 1.389 . S
C1479 H1458 0.950 . S
C1479 C1478 1.373 . S
C1479 C1495 1.377 . S
C1480 C1478 1.389 . S
C1480 C1481 1.524 . S
C1480 C1494 1.377 . S
C1481 C1480 1.524 . S
C1481 C1482 1.397 . S
C1481 C1486 1.363 . S
C1482 H1459 0.950 . S
C1482 C1481 1.397 . S
C1482 C1483 1.334 . S
C1483 H1460 0.950 . S
C1483 C1482 1.334 . S
C1483 C1484 1.287 . S
C1484 C1483 1.287 . S
C1484 C1485 1.524 . S
C1484 H1503 0.913 . S
C1485 H1461 0.950 . S
C1485 C1484 1.524 . S
C1485 C1486 1.415 . S
C1486 H1462 0.950 . S
C1486 C1481 1.363 . S
C1486 C1485 1.415 . S
C1487 H1463 0.951 . S
C1487 C1488 1.366 . S
C1487 C1489 1.388 . S
C1488 C1487 1.366 . S
C1488 C1492 1.385 . S
C1489 H1464 0.951 . S
C1489 C1487 1.388 . S
C1489 C1490 1.366 . S
C1490 C1489 1.366 . S
C1490 C1491 1.414 . S
C1490 C1493 1.499 . S
C1491 H1465 0.950 . S
C1491 C1490 1.414 . S
C1491 C1492 1.374 . S
C1492 H1466 0.950 . S
C1492 C1488 1.385 . S
C1492 C1491 1.374 . S
C1493 C1490 1.499 . S
C1493 C1494 1.373 . S
C1493 C1495 1.389 . S
C1494 H1467 0.950 . S
C1494 C1480 1.377 . S
C1494 C1493 1.373 . S
C1495 C1479 1.377 . S
C1495 C1493 1.389 . S
C1495 C1496 1.524 . S
C1496 C1495 1.524 . S
C1496 C1497 1.397 . S
C1496 C1501 1.363 . S
C1497 H1468 0.950 . S
C1497 C1496 1.397 . S
C1497 C1498 1.334 . S
C1498 H1469 0.950 . S
C1498 C1497 1.334 . S
C1498 C1499 1.287 . S
C1499 C1498 1.287 . S
C1499 C1500 1.524 . S
C1499 H1502 0.999 . S
C1500 H1470 0.950 . S
C1500 C1499 1.524 . S
C1500 C1501 1.415 . S
C1501 H1471 0.950 . S
C1501 C1496 1.363 . S
C1501 C1500 1.415 . S
H1502 C1499 0.999 . S
H1503 C1484 0.913 . S
H1504 C1522 0.951 . S
H1505 C1524 0.951 . S
H1506 C1526 0.950 . S
H1507 C1527 0.950 . S
H1508 C1529 0.950 . S
H1509 C1532 0.950 . S
H1510 C1533 0.950 . S
H1511 C1535 0.950 . S
H1512 C1536 0.950 . S
H1513 C1537 0.951 . S
H1514 C1539 0.951 . S
H1515 C1541 0.950 . S
H1516 C1542 0.950 . S
H1517 C1544 0.950 . S
H1518 C1547 0.950 . S
H1519 C1548 0.950 . S
H1520 C1550 0.950 . S
H1521 C1551 0.950 . S
C1522 H1504 0.951 . S
C1522 C1523 1.366 . S
C1522 C1524 1.388 . S
C1523 C1522 1.366 . S
C1523 C1527 1.385 . S
C1524 H1505 0.951 . S
C1524 C1522 1.388 . S
C1524 C1525 1.366 . S
C1525 C1524 1.366 . S
C1525 C1526 1.414 . S
C1525 C1528 1.499 . S
C1526 H1506 0.950 . S
C1526 C1525 1.414 . S
C1526 C1527 1.374 . S
C1527 H1507 0.950 . S
C1527 C1523 1.385 . S
C1527 C1526 1.374 . S
C1528 C1525 1.499 . S
C1528 C1529 1.373 . S
C1528 C1530 1.389 . S
C1529 H1508 0.950 . S
C1529 C1528 1.373 . S
C1529 C1545 1.377 . S
C1530 C1528 1.389 . S
C1530 C1531 1.524 . S
C1530 C1544 1.377 . S
C1531 C1530 1.524 . S
C1531 C1532 1.397 . S
C1531 C1536 1.363 . S
C1532 H1509 0.950 . S
C1532 C1531 1.397 . S
C1532 C1533 1.334 . S
C1533 H1510 0.950 . S
C1533 C1532 1.334 . S
C1533 C1534 1.287 . S
C1534 C1533 1.287 . S
C1534 C1535 1.524 . S
C1534 H1553 0.913 . S
C1535 H1511 0.950 . S
C1535 C1534 1.524 . S
C1535 C1536 1.415 . S
C1536 H1512 0.950 . S
C1536 C1531 1.363 . S
C1536 C1535 1.415 . S
C1537 H1513 0.951 . S
C1537 C1538 1.366 . S
C1537 C1539 1.388 . S
C1538 C1537 1.366 . S
C1538 C1542 1.385 . S
C1539 H1514 0.951 . S
C1539 C1537 1.388 . S
C1539 C1540 1.366 . S
C1540 C1539 1.366 . S
C1540 C1541 1.414 . S
C1540 C1543 1.499 . S
C1541 H1515 0.950 . S
C1541 C1540 1.414 . S
C1541 C1542 1.374 . S
C1542 H1516 0.950 . S
C1542 C1538 1.385 . S
C1542 C1541 1.374 . S
C1543 C1540 1.499 . S
C1543 C1544 1.373 . S
C1543 C1545 1.389 . S
C1544 H1517 0.950 . S
C1544 C1530 1.377 . S
C1544 C1543 1.373 . S
C1545 C1529 1.377 . S
C1545 C1543 1.389 . S
C1545 C1546 1.524 . S
C1546 C1545 1.524 . S
C1546 C1547 1.397 . S
C1546 C1551 1.363 . S
C1547 H1518 0.950 . S
C1547 C1546 1.397 . S
C1547 C1548 1.334 . S
C1548 H1519 0.950 . S
C1548 C1547 1.334 . S
C1548 C1549 1.287 . S
C1549 C1548 1.287 . S
C1549 C1550 1.524 . S
C1549 H1552 0.999 . S
C1550 H1520 0.950 . S
C1550 C1549 1.524 . S
C1550 C1551 1.415 . S
C1551 H1521 0.950 . S
C1551 C1546 1.363 . S
C1551 C1550 1.415 . S
H1552 C1549 0.999 . S
H1553 C1534 0.913 . S
H1554 C1572 0.951 . S
H1555 C1574 0.951 . S
H1556 C1576 0.950 . S
H1557 C1577 0.950 . S
H1558 C1579 0.950 . S
H1559 C1582 0.950 . S
H1560 C1583 0.950 . S
H1561 C1585 0.950 . S
H1562 C1586 0.950 . S
H1563 C1587 0.951 . S
H1564 C1589 0.951 . S
H1565 C1591 0.950 . S
H1566 C1592 0.950 . S
H1567 C1594 0.950 . S
H1568 C1597 0.950 . S
H1569 C1598 0.950 . S
H1570 C1600 0.950 . S
H1571 C1601 0.950 . S
C1572 H1554 0.951 . S
C1572 C1573 1.366 . S
C1572 C1574 1.388 . S
C1573 C1572 1.366 . S
C1573 C1577 1.385 . S
C1574 H1555 0.951 . S
C1574 C1572 1.388 . S
C1574 C1575 1.366 . S
C1575 C1574 1.366 . S
C1575 C1576 1.414 . S
C1575 C1578 1.499 . S
C1576 H1556 0.950 . S
C1576 C1575 1.414 . S
C1576 C1577 1.374 . S
C1577 H1557 0.950 . S
C1577 C1573 1.385 . S
C1577 C1576 1.374 . S
C1578 C1575 1.499 . S
C1578 C1579 1.373 . S
C1578 C1580 1.389 . S
C1579 H1558 0.950 . S
C1579 C1578 1.373 . S
C1579 C1595 1.377 . S
C1580 C1578 1.389 . S
C1580 C1581 1.524 . S
C1580 C1594 1.377 . S
C1581 C1580 1.524 . S
C1581 C1582 1.397 . S
C1581 C1586 1.363 . S
C1582 H1559 0.950 . S
C1582 C1581 1.397 . S
C1582 C1583 1.334 . S
C1583 H1560 0.950 . S
C1583 C1582 1.334 . S
C1583 C1584 1.287 . S
C1584 C1583 1.287 . S
C1584 C1585 1.524 . S
C1584 H1603 0.913 . S
C1585 H1561 0.950 . S
C1585 C1584 1.524 . S
C1585 C1586 1.415 . S
C1586 H1562 0.950 . S
C1586 C1581 1.363 . S
C1586 C1585 1.415 . S
C1587 H1563 0.951 . S
C1587 C1588 1.366 . S
C1587 C1589 1.388 . S
C1588 C1587 1.366 . S
C1588 C1592 1.385 . S
C1589 H1564 0.951 . S
C1589 C1587 1.388 . S
C1589 C1590 1.366 . S
C1590 C1589 1.366 . S
C1590 C1591 1.414 . S
C1590 C1593 1.499 . S
C1591 H1565 0.950 . S
C1591 C1590 1.414 . S
C1591 C1592 1.374 . S
C1592 H1566 0.950 . S
C1592 C1588 1.385 . S
C1592 C1591 1.374 . S
C1593 C1590 1.499 . S
C1593 C1594 1.373 . S
C1593 C1595 1.389 . S
C1594 H1567 0.950 . S
C1594 C1580 1.377 . S
C1594 C1593 1.373 . S
C1595 C1579 1.377 . S
C1595 C1593 1.389 . S
C1595 C1596 1.524 . S
C1596 C1595 1.524 . S
C1596 C1597 1.397 . S
C1596 C1601 1.363 . S
C1597 H1568 0.950 . S
C1597 C1596 1.397 . S
C1597 C1598 1.334 . S
C1598 H1569 0.950 . S
C1598 C1597 1.334 . S
C1598 C1599 1.287 . S
C1599 C1598 1.287 . S
C1599 C1600 1.524 . S
C1599 H1602 0.999 . S
C1600 H1570 0.950 . S
C1600 C1599 1.524 . S
C1600 C1601 1.415 . S
C1601 H1571 0.950 . S
C1601 C1596 1.363 . S
C1601 C1600 1.415 . S
H1602 C1599 0.999 . S
H1603 C1584 0.913 . S
H1604 C1622 0.951 . S
H1605 C1624 0.951 . S
H1606 C1626 0.950 . S
H1607 C1627 0.950 . S
H1608 C1629 0.950 . S
H1609 C1632 0.950 . S
H1610 C1633 0.950 . S
H1611 C1635 0.950 . S
H1612 C1636 0.950 . S
H1613 C1637 0.951 . S
H1614 C1639 0.951 . S
H1615 C1641 0.950 . S
H1616 C1642 0.950 . S
H1617 C1644 0.950 . S
H1618 C1647 0.950 . S
H1619 C1648 0.950 . S
H1620 C1650 0.950 . S
H1621 C1651 0.950 . S
C1622 H1604 0.951 . S
C1622 C1623 1.366 . S
C1622 C1624 1.388 . S
C1623 C1622 1.366 . S
C1623 C1627 1.385 . S
C1624 H1605 0.951 . S
C1624 C1622 1.388 . S
C1624 C1625 1.366 . S
C1625 C1624 1.366 . S
C1625 C1626 1.414 . S
C1625 C1628 1.499 . S
C1626 H1606 0.950 . S
C1626 C1625 1.414 . S
C1626 C1627 1.374 . S
C1627 H1607 0.950 . S
C1627 C1623 1.385 . S
C1627 C1626 1.374 . S
C1628 C1625 1.499 . S
C1628 C1629 1.373 . S
C1628 C1630 1.389 . S
C1629 H1608 0.950 . S
C1629 C1628 1.373 . S
C1629 C1645 1.377 . S
C1630 C1628 1.389 . S
C1630 C1631 1.524 . S
C1630 C1644 1.377 . S
C1631 C1630 1.524 . S
C1631 C1632 1.397 . S
C1631 C1636 1.363 . S
C1632 H1609 0.950 . S
C1632 C1631 1.397 . S
C1632 C1633 1.334 . S
C1633 H1610 0.950 . S
C1633 C1632 1.334 . S
C1633 C1634 1.287 . S
C1634 C1633 1.287 . S
C1634 C1635 1.524 . S
C1634 H1653 0.913 . S
C1635 H1611 0.950 . S
C1635 C1634 1.524 . S
C1635 C1636 1.415 . S
C1636 H1612 0.950 . S
C1636 C1631 1.363 . S
C1636 C1635 1.415 . S
C1637 H1613 0.951 . S
C1637 C1638 1.366 . S
C1637 C1639 1.388 . S
C1638 C1637 1.366 . S
C1638 C1642 1.385 . S
C1639 H1614 0.951 . S
C1639 C1637 1.388 . S
C1639 C1640 1.366 . S
C1640 C1639 1.366 . S
C1640 C1641 1.414 . S
C1640 C1643 1.499 . S
C1641 H1615 0.950 . S
C1641 C1640 1.414 . S
C1641 C1642 1.374 . S
C1642 H1616 0.950 . S
C1642 C1638 1.385 . S
C1642 C1641 1.374 . S
C1643 C1640 1.499 . S
C1643 C1644 1.373 . S
C1643 C1645 1.389 . S
C1644 H1617 0.950 . S
C1644 C1630 1.377 . S
C1644 C1643 1.373 . S
C1645 C1629 1.377 . S
C1645 C1643 1.389 . S
C1645 C1646 1.524 . S
C1646 C1645 1.524 . S
C1646 C1647 1.397 . S
C1646 C1651 1.363 . S
C1647 H1618 0.950 . S
C1647 C1646 1.397 . S
C1647 C1648 1.334 . S
C1648 H1619 0.950 . S
C1648 C1647 1.334 . S
C1648 C1649 1.287 . S
C1649 C1648 1.287 . S
C1649 C1650 1.524 . S
C1649 H1652 0.999 . S
C1650 H1620 0.950 . S
C1650 C1649 1.524 . S
C1650 C1651 1.415 . S
C1651 H1621 0.950 . S
C1651 C1646 1.363 . S
C1651 C1650 1.415 . S
H1652 C1649 0.999 . S
H1653 C1634 0.913 . S
H1654 C1672 0.951 . S
H1655 C1674 0.951 . S
H1656 C1676 0.950 . S
H1657 C1677 0.950 . S
H1658 C1679 0.950 . S
H1659 C1682 0.950 . S
H1660 C1683 0.950 . S
H1661 C1685 0.950 . S
H1662 C1686 0.950 . S
H1663 C1687 0.951 . S
H1664 C1689 0.951 . S
H1665 C1691 0.950 . S
H1666 C1692 0.950 . S
H1667 C1694 0.950 . S
H1668 C1697 0.950 . S
H1669 C1698 0.950 . S
H1670 C1700 0.950 . S
H1671 C1701 0.950 . S
C1672 H1654 0.951 . S
C1672 C1673 1.366 . S
C1672 C1674 1.388 . S
C1673 C1672 1.366 . S
C1673 C1677 1.385 . S
C1674 H1655 0.951 . S
C1674 C1672 1.388 . S
C1674 C1675 1.366 . S
C1675 C1674 1.366 . S
C1675 C1676 1.414 . S
C1675 C1678 1.499 . S
C1676 H1656 0.950 . S
C1676 C1675 1.414 . S
C1676 C1677 1.374 . S
C1677 H1657 0.950 . S
C1677 C1673 1.385 . S
C1677 C1676 1.374 . S
C1678 C1675 1.499 . S
C1678 C1679 1.373 . S
C1678 C1680 1.389 . S
C1679 H1658 0.950 . S
C1679 C1678 1.373 . S
C1679 C1695 1.377 . S
C1680 C1678 1.389 . S
C1680 C1681 1.524 . S
C1680 C1694 1.377 . S
C1681 C1680 1.524 . S
C1681 C1682 1.397 . S
C1681 C1686 1.363 . S
C1682 H1659 0.950 . S
C1682 C1681 1.397 . S
C1682 C1683 1.334 . S
C1683 H1660 0.950 . S
C1683 C1682 1.334 . S
C1683 C1684 1.287 . S
C1684 C1683 1.287 . S
C1684 C1685 1.524 . S
C1684 H1703 0.913 . S
C1685 H1661 0.950 . S
C1685 C1684 1.524 . S
C1685 C1686 1.415 . S
C1686 H1662 0.950 . S
C1686 C1681 1.363 . S
C1686 C1685 1.415 . S
C1687 H1663 0.951 . S
C1687 C1688 1.366 . S
C1687 C1689 1.388 . S
C1688 C1687 1.366 . S
C1688 C1692 1.385 . S
C1689 H1664 0.951 . S
C1689 C1687 1.388 . S
C1689 C1690 1.366 . S
C1690 C1689 1.366 . S
C1690 C1691 1.414 . S
C1690 C1693 1.499 . S
C1691 H1665 0.950 . S
C1691 C1690 1.414 . S
C1691 C1692 1.374 . S
C1692 H1666 0.950 . S
C1692 C1688 1.385 . S
C1692 C1691 1.374 . S
C1693 C1690 1.499 . S
C1693 C1694 1.373 . S
C1693 C1695 1.389 . S
C1694 H1667 0.950 . S
C1694 C1680 1.377 . S
C1694 C1693 1.373 . S
C1695 C1679 1.377 . S
C1695 C1693 1.389 . S
C1695 C1696 1.524 . S
C1696 C1695 1.524 . S
C1696 C1697 1.397 . S
C1696 C1701 1.363 . S
C1697 H1668 0.950 . S
C1697 C1696 1.397 . S
C1697 C1698 1.334 . S
C1698 H1669 0.950 . S
C1698 C1697 1.334 . S
C1698 C1699 1.287 . S
C1699 C1698 1.287 . S
C1699 C1700 1.524 . S
C1699 H1702 0.999 . S
C1700 H1670 0.950 . S
C1700 C1699 1.524 . S
C1700 C1701 1.415 . S
C1701 H1671 0.950 . S
C1701 C1696 1.363 . S
C1701 C1700 1.415 . S
H1702 C1699 0.999 . S
H1703 C1684 0.913 . S
H1704 C1722 0.951 . S
H1705 C1724 0.951 . S
H1706 C1726 0.950 . S
H1707 C1727 0.950 . S
H1708 C1729 0.950 . S
H1709 C1732 0.950 . S
H1710 C1733 0.950 . S
H1711 C1735 0.950 . S
H1712 C1736 0.950 . S
H1713 C1737 0.951 . S
H1714 C1739 0.951 . S
H1715 C1741 0.950 . S
H1716 C1742 0.950 . S
H1717 C1744 0.950 . S
H1718 C1747 0.950 . S
H1719 C1748 0.950 . S
H1720 C1750 0.950 . S
H1721 C1751 0.950 . S
C1722 H1704 0.951 . S
C1722 C1723 1.366 . S
C1722 C1724 1.388 . S
C1723 C1722 1.366 . S
C1723 C1727 1.385 . S
C1724 H1705 0.951 . S
C1724 C1722 1.388 . S
C1724 C1725 1.366 . S
C1725 C1724 1.366 . S
C1725 C1726 1.414 . S
C1725 C1728 1.499 . S
C1726 H1706 0.950 . S
C1726 C1725 1.414 . S
C1726 C1727 1.374 . S
C1727 H1707 0.950 . S
C1727 C1723 1.385 . S
C1727 C1726 1.374 . S
C1728 C1725 1.499 . S
C1728 C1729 1.373 . S
C1728 C1730 1.389 . S
C1729 H1708 0.950 . S
C1729 C1728 1.373 . S
C1729 C1745 1.377 . S
C1730 C1728 1.389 . S
C1730 C1731 1.524 . S
C1730 C1744 1.377 . S
C1731 C1730 1.524 . S
C1731 C1732 1.397 . S
C1731 C1736 1.363 . S
C1732 H1709 0.950 . S
C1732 C1731 1.397 . S
C1732 C1733 1.334 . S
C1733 H1710 0.950 . S
C1733 C1732 1.334 . S
C1733 C1734 1.287 . S
C1734 C1733 1.287 . S
C1734 C1735 1.524 . S
C1734 H1753 0.913 . S
C1735 H1711 0.950 . S
C1735 C1734 1.524 . S
C1735 C1736 1.415 . S
C1736 H1712 0.950 . S
C1736 C1731 1.363 . S
C1736 C1735 1.415 . S
C1737 H1713 0.951 . S
C1737 C1738 1.366 . S
C1737 C1739 1.388 . S
C1738 C1737 1.366 . S
C1738 C1742 1.385 . S
C1739 H1714 0.951 . S
C1739 C1737 1.388 . S
C1739 C1740 1.366 . S
C1740 C1739 1.366 . S
C1740 C1741 1.414 . S
C1740 C1743 1.499 . S
C1741 H1715 0.950 . S
C1741 C1740 1.414 . S
C1741 C1742 1.374 . S
C1742 H1716 0.950 . S
C1742 C1738 1.385 . S
C1742 C1741 1.374 . S
C1743 C1740 1.499 . S
C1743 C1744 1.373 . S
C1743 C1745 1.389 . S
C1744 H1717 0.950 . S
C1744 C1730 1.377 . S
C1744 C1743 1.373 . S
C1745 C1729 1.377 . S
C1745 C1743 1.389 . S
C1745 C1746 1.524 . S
C1746 C1745 1.524 . S
C1746 C1747 1.397 . S
C1746 C1751 1.363 . S
C1747 H1718 0.950 . S
C1747 C1746 1.397 . S
C1747 C1748 1.334 . S
C1748 H1719 0.950 . S
C1748 C1747 1.334 . S
C1748 C1749 1.287 . S
C1749 C1748 1.287 . S
C1749 C1750 1.524 . S
C1749 H1752 0.999 . S
C1750 H1720 0.950 . S
C1750 C1749 1.524 . S
C1750 C1751 1.415 . S
C1751 H1721 0.950 . S
C1751 C1746 1.363 . S
C1751 C1750 1.415 . S
H1752 C1749 0.999 . S
H1753 C1734 0.913 . S
H1754 C1772 0.951 . S
H1755 C1774 0.951 . S
H1756 C1776 0.950 . S
H1757 C1777 0.950 . S
H1758 C1779 0.950 . S
H1759 C1782 0.950 . S
H1760 C1783 0.950 . S
H1761 C1785 0.950 . S
H1762 C1786 0.950 . S
H1763 C1787 0.951 . S
H1764 C1789 0.951 . S
H1765 C1791 0.950 . S
H1766 C1792 0.919 1_556 S
H1767 C1794 0.950 . S
H1768 C1797 0.950 . S
H1769 C1798 0.950 . S
H1770 C1800 0.950 . S
H1771 C1801 0.950 . S
C1772 H1754 0.951 . S
C1772 C1773 1.366 . S
C1772 C1774 1.388 . S
C1773 C1772 1.366 . S
C1773 C1777 1.385 . S
C1774 H1755 0.951 . S
C1774 C1772 1.388 . S
C1774 C1775 1.366 . S
C1775 C1774 1.366 . S
C1775 C1776 1.414 . S
C1775 C1778 1.499 . S
C1776 H1756 0.950 . S
C1776 C1775 1.414 . S
C1776 C1777 1.374 . S
C1777 H1757 0.950 . S
C1777 C1773 1.385 . S
C1777 C1776 1.374 . S
C1778 C1775 1.499 . S
C1778 C1779 1.373 . S
C1778 C1780 1.389 . S
C1779 H1758 0.950 . S
C1779 C1778 1.373 . S
C1779 C1795 1.377 . S
C1780 C1778 1.389 . S
C1780 C1781 1.524 . S
C1780 C1794 1.377 . S
C1781 C1780 1.524 . S
C1781 C1782 1.397 . S
C1781 C1786 1.363 . S
C1782 H1759 0.950 . S
C1782 C1781 1.397 . S
C1782 C1783 1.334 . S
C1783 H1760 0.950 . S
C1783 C1782 1.334 . S
C1783 C1784 1.287 . S
C1784 C1783 1.287 . S
C1784 C1785 1.524 . S
C1784 H1803 0.913 . S
C1785 H1761 0.950 . S
C1785 C1784 1.524 . S
C1785 C1786 1.415 . S
C1786 H1762 0.950 . S
C1786 C1781 1.363 . S
C1786 C1785 1.415 . S
C1787 H1763 0.951 . S
C1787 C1788 1.407 . S
C1787 C1789 1.388 . S
C1788 C1787 1.407 . S
C1788 C1792 1.384 . S
C1789 H1764 0.951 . S
C1789 C1787 1.388 . S
C1789 C1790 1.366 . S
C1790 C1789 1.366 . S
C1790 C1791 1.414 . S
C1790 C1793 1.499 . S
C1791 H1765 0.950 . S
C1791 C1790 1.414 . S
C1791 C1792 1.406 . S
C1792 H1766 0.919 1_554 S
C1792 C1788 1.384 . S
C1792 C1791 1.406 . S
C1793 C1790 1.499 . S
C1793 C1794 1.373 . S
C1793 C1795 1.389 . S
C1794 H1767 0.950 . S
C1794 C1780 1.377 . S
C1794 C1793 1.373 . S
C1795 C1779 1.377 . S
C1795 C1793 1.389 . S
C1795 C1796 1.524 . S
C1796 C1795 1.524 . S
C1796 C1797 1.397 . S
C1796 C1801 1.363 . S
C1797 H1768 0.950 . S
C1797 C1796 1.397 . S
C1797 C1798 1.334 . S
C1798 H1769 0.950 . S
C1798 C1797 1.334 . S
C1798 C1799 1.287 . S
C1799 C1798 1.287 . S
C1799 C1800 1.524 . S
C1799 H1802 0.999 . S
C1800 H1770 0.950 . S
C1800 C1799 1.524 . S
C1800 C1801 1.415 . S
C1801 H1771 0.950 . S
C1801 C1796 1.363 . S
C1801 C1800 1.415 . S
H1802 C1799 0.999 . S
H1803 C1784 0.913 . S
H1804 C1822 0.951 . S
H1805 C1824 0.951 . S
H1806 C1826 0.950 . S
H1807 C1827 0.950 . S
H1808 C1829 0.950 . S
H1809 C1832 0.950 . S
H1810 C1833 0.950 . S
H1811 C1835 0.950 . S
H1812 C1836 0.950 . S
H1813 C1837 0.951 . S
H1814 C1839 0.951 . S
H1815 C1841 0.950 . S
H1816 C1842 0.950 . S
H1817 C1844 0.950 . S
H1818 C1847 0.950 . S
H1819 C1848 0.950 . S
H1820 C1850 0.950 . S
H1821 C1851 0.950 . S
C1822 H1804 0.951 . S
C1822 C1823 1.366 . S
C1822 C1824 1.388 . S
C1823 C1822 1.366 . S
C1823 C1827 1.385 . S
C1824 H1805 0.951 . S
C1824 C1822 1.388 . S
C1824 C1825 1.366 . S
C1825 C1824 1.366 . S
C1825 C1826 1.414 . S
C1825 C1828 1.499 . S
C1826 H1806 0.950 . S
C1826 C1825 1.414 . S
C1826 C1827 1.374 . S
C1827 H1807 0.950 . S
C1827 C1823 1.385 . S
C1827 C1826 1.374 . S
C1828 C1825 1.499 . S
C1828 C1829 1.373 . S
C1828 C1830 1.389 . S
C1829 H1808 0.950 . S
C1829 C1828 1.373 . S
C1829 C1845 1.377 . S
C1830 C1828 1.389 . S
C1830 C1831 1.524 . S
C1830 C1844 1.377 . S
C1831 C1830 1.524 . S
C1831 C1832 1.397 . S
C1831 C1836 1.363 . S
C1832 H1809 0.950 . S
C1832 C1831 1.397 . S
C1832 C1833 1.334 . S
C1833 H1810 0.950 . S
C1833 C1832 1.334 . S
C1833 C1834 1.287 . S
C1834 C1833 1.287 . S
C1834 C1835 1.524 . S
C1834 H1853 0.913 . S
C1835 H1811 0.950 . S
C1835 C1834 1.524 . S
C1835 C1836 1.415 . S
C1836 H1812 0.950 . S
C1836 C1831 1.363 . S
C1836 C1835 1.415 . S
C1837 H1813 0.951 . S
C1837 C1838 1.366 . S
C1837 C1839 1.388 . S
C1838 C1837 1.366 . S
C1838 C1842 1.385 . S
C1839 H1814 0.951 . S
C1839 C1837 1.388 . S
C1839 C1840 1.366 . S
C1840 C1839 1.366 . S
C1840 C1841 1.414 . S
C1840 C1843 1.499 . S
C1841 H1815 0.950 . S
C1841 C1840 1.414 . S
C1841 C1842 1.374 . S
C1842 H1816 0.950 . S
C1842 C1838 1.385 . S
C1842 C1841 1.374 . S
C1843 C1840 1.499 . S
C1843 C1844 1.373 . S
C1843 C1845 1.389 . S
C1844 H1817 0.950 . S
C1844 C1830 1.377 . S
C1844 C1843 1.373 . S
C1845 C1829 1.377 . S
C1845 C1843 1.389 . S
C1845 C1846 1.524 . S
C1846 C1845 1.524 . S
C1846 C1847 1.397 . S
C1846 C1851 1.363 . S
C1847 H1818 0.950 . S
C1847 C1846 1.397 . S
C1847 C1848 1.334 . S
C1848 H1819 0.950 . S
C1848 C1847 1.334 . S
C1848 C1849 1.287 . S
C1849 C1848 1.287 . S
C1849 C1850 1.524 . S
C1849 H1852 0.999 . S
C1850 H1820 0.950 . S
C1850 C1849 1.524 . S
C1850 C1851 1.415 . S
C1851 H1821 0.950 . S
C1851 C1846 1.363 . S
C1851 C1850 1.415 . S
H1852 C1849 0.999 . S
H1853 C1834 0.913 . S
C688 C595 1.571 . S
C673 C19 1.481 . S
C723 C40 1.482 . S
C738 C155 1.572 . S
C773 C51 1.479 . S
C788 C243 1.588 . S
C823 C72 1.468 . S
C838 C322 1.577 . S
C888 C419 1.571 . S
C873 C103 1.481 . S
C923 C114 1.470 . S
C938 C498 1.577 . S
C973 C30 1.480 . S
C988 C263 1.587 . S
C1023 C61 1.483 . S
C1038 C359 1.574 . S
C1073 C82 1.480 . S
C1088 C439 1.571 . S
C1138 C535 1.578 . S
C1123 C93 1.471 1_554 S
C1188 C615 1.571 . S
C1173 C124 1.481 . S
C1238 C175 1.577 . S
C1223 C9 1.470 . S
C1273 C17 1.434 . S
C1288 C271 1.529 . S
C1323 C38 1.430 . S
C1338 C351 1.524 . S
C1388 C447 1.520 . S
C1373 C54 1.419 . S
C1423 C75 1.425 . S
C1438 C527 1.527 1_556 S
C1488 C623 1.523 . S
C1473 C101 1.428 . S
C1538 C183 1.521 . S
C1523 C117 1.420 . S
C1588 C586 1.520 . S
C1573 C33 1.419 . S
C1623 C59 1.430 . S
C1638 C146 1.525 . S
C1688 C234 1.529 . S
C1673 C80 1.433 . S
C1723 C96 1.421 . S
C1738 C331 1.521 . S
C1773 C122 1.428 . S
C1788 C410 1.481 1_554 S
C1823 C12 1.427 . S
C1838 C507 1.528 . S
