# Generated by pormake.
# Topology csq, (4,8)-cn, num edge types: 1
# Building blocks:
#     Node 0, Type 0, BuildingBlock: IZENUY_clean_linker_0, # of connection points: 4
#     Node 1, Type 0, BuildingBlock: IZENUY_clean_linker_0, # of connection points: 4
#     Node 2, Type 0, BuildingBlock: IZENUY_clean_linker_0, # of connection points: 4
#     Node 3, Type 0, BuildingBlock: IZENUY_clean_linker_0, # of connection points: 4
#     Node 4, Type 0, BuildingBlock: IZENUY_clean_linker_0, # of connection points: 4
#     Node 5, Type 0, BuildingBlock: IZENUY_clean_linker_0, # of connection points: 4
#     Node 6, Type 1, BuildingBlock: TAGTUT_clean_sbu_1, # of connection points: 8
#     Node 7, Type 1, BuildingBlock: TAGTUT_clean_sbu_1, # of connection points: 8
#     Node 8, Type 1, BuildingBlock: TAGTUT_clean_sbu_1, # of connection points: 8
#     Edge 9, Type (0, 1), BuildingBlock: CIFDUS_clean_linker_0, # of connection points: 2
#     Edge 10, Type (0, 1), BuildingBlock: CIFDUS_clean_linker_0, # of connection points: 2
#     Edge 11, Type (0, 1), BuildingBlock: CIFDUS_clean_linker_0, # of connection points: 2
#     Edge 12, Type (0, 1), BuildingBlock: CIFDUS_clean_linker_0, # of connection points: 2
#     Edge 13, Type (0, 1), BuildingBlock: CIFDUS_clean_linker_0, # of connection points: 2
#     Edge 14, Type (0, 1), BuildingBlock: CIFDUS_clean_linker_0, # of connection points: 2
#     Edge 15, Type (0, 1), BuildingBlock: CIFDUS_clean_linker_0, # of connection points: 2
#     Edge 16, Type (0, 1), BuildingBlock: CIFDUS_clean_linker_0, # of connection points: 2
#     Edge 17, Type (0, 1), BuildingBlock: CIFDUS_clean_linker_0, # of connection points: 2
#     Edge 18, Type (0, 1), BuildingBlock: CIFDUS_clean_linker_0, # of connection points: 2
#     Edge 19, Type (0, 1), BuildingBlock: CIFDUS_clean_linker_0, # of connection points: 2
#     Edge 20, Type (0, 1), BuildingBlock: CIFDUS_clean_linker_0, # of connection points: 2
#     Edge 21, Type (0, 1), BuildingBlock: CIFDUS_clean_linker_0, # of connection points: 2
#     Edge 22, Type (0, 1), BuildingBlock: CIFDUS_clean_linker_0, # of connection points: 2
#     Edge 23, Type (0, 1), BuildingBlock: CIFDUS_clean_linker_0, # of connection points: 2
#     Edge 24, Type (0, 1), BuildingBlock: CIFDUS_clean_linker_0, # of connection points: 2
#     Edge 25, Type (0, 1), BuildingBlock: CIFDUS_clean_linker_0, # of connection points: 2
#     Edge 26, Type (0, 1), BuildingBlock: CIFDUS_clean_linker_0, # of connection points: 2
#     Edge 27, Type (0, 1), BuildingBlock: CIFDUS_clean_linker_0, # of connection points: 2
#     Edge 28, Type (0, 1), BuildingBlock: CIFDUS_clean_linker_0, # of connection points: 2
#     Edge 29, Type (0, 1), BuildingBlock: CIFDUS_clean_linker_0, # of connection points: 2
#     Edge 30, Type (0, 1), BuildingBlock: CIFDUS_clean_linker_0, # of connection points: 2
#     Edge 31, Type (0, 1), BuildingBlock: CIFDUS_clean_linker_0, # of connection points: 2
#     Edge 32, Type (0, 1), BuildingBlock: CIFDUS_clean_linker_0, # of connection points: 2
# Relax obj value: 0.064
# Max RMSD: 0.144
# Mean RMSD: 0.136
data_MOF--net-csq--node1-TAGTUT_clean_sbu_1--node2-IZENUY_clean_linker_0--edge1-CIFDUS_clean_linker_0
_symmetry_space_group_name_H-M    P1
_symmetry_Int_Tables_number       1
_symmetry_cell_setting            triclinic
loop_
_symmetry_equiv_pos_as_xyz
'x, y, z'
_cell_length_a     50.989451
_cell_length_b     50.921532
_cell_length_c     16.905331
_cell_angle_alpha  93.720434
_cell_angle_beta   93.512485
_cell_angle_gamma 119.23914
loop_
_atom_site_label
_atom_site_type_symbol
_atom_site_fract_x
_atom_site_fract_y
_atom_site_fract_z
_atom_type_partial_charge
H0 H 0.21944 0.47559 0.03759 0.0
H1 H 0.22162 0.48877 0.29346 0.0
H2 H 0.14989 0.48639 0.13864 0.0
H3 H 0.30472 0.49386 0.24887 0.0
H4 H 0.28859 0.4698 -0.00605 0.0
H5 H 0.37521 0.4958 0.11762 0.0
N6 N 0.25252 0.48301 0.17675 0.0
N7 N 0.26388 0.47852 0.11749 0.0
C8 C 0.2097 0.47877 0.09009 0.0
C9 C 0.18317 0.48039 0.07994 0.0
C10 C 0.22407 0.4821 0.16698 0.0
C11 C 0.21077 0.48618 0.23411 0.0
C12 C 0.18388 0.48772 0.22423 0.0
C13 C 0.17048 0.4851 0.14684 0.0
C14 C 0.31229 0.49004 0.193 0.0
C15 C 0.34201 0.49531 0.19154 0.0
C16 C 0.29296 0.48102 0.12123 0.0
C17 C 0.30335 0.47649 0.04914 0.0
C18 C 0.33305 0.48199 0.04738 0.0
C19 C 0.35217 0.49144 0.11872 0.0
H20 H 0.74798 0.21185 -0.01165 0.0
H21 H 0.75319 0.22732 0.24439 0.0
H22 H 0.68152 0.14494 0.11829 0.0
H23 H 0.82209 0.30177 0.19343 0.0
H24 H 0.83048 0.28158 0.9471 0.0
H25 H 0.8982 0.36422 0.08208 0.0
N26 N 0.78055 0.25148 0.12057 0.0
N27 N 0.79473 0.26078 0.06163 0.0
C28 C 0.73884 0.20471 0.04419 0.0
C29 C 0.71287 0.17628 0.04467 0.0
C30 C 0.75345 0.22327 0.11674 0.0
C31 C 0.74172 0.21333 0.18866 0.0
C32 C 0.71574 0.18525 0.18924 0.0
C33 C 0.70138 0.16696 0.11737 0.0
C34 C 0.8339 0.30814 0.14077 0.0
C35 C 0.86131 0.33556 0.14559 0.0
C36 C 0.82218 0.28888 0.06814 0.0
C37 C 0.83876 0.29681 0.0018 0.0
C38 C 0.86665 0.32365 0.00762 0.0
C39 C 0.87681 0.34328 0.07819 0.0
H40 H 0.52352 0.72392 0.92016 0.0
H41 H 0.54638 0.73935 0.17528 0.0
H42 H 0.51328 0.65089 0.05048 0.0
H43 H 0.5463 0.81582 0.11691 0.0
H44 H 0.53886 0.80428 0.85905 0.0
H45 H 0.55811 0.88889 0.98316 0.0
N46 N 0.53861 0.76503 0.05017 0.0
N47 N 0.53678 0.77612 -0.01237 0.0
C48 C 0.52389 0.71534 0.97695 0.0
C49 C 0.51716 0.68522 0.97822 0.0
C50 C 0.53248 0.73456 0.04913 0.0
C51 C 0.537 0.72392 0.12099 0.0
C52 C 0.53125 0.69392 0.12096 0.0
C53 C 0.51831 0.67424 0.05077 0.0
C54 C 0.54741 0.82474 0.06001 0.0
C55 C 0.55351 0.85471 0.05802 0.0
C56 C 0.54259 0.80645 -0.01199 0.0
C57 C 0.54314 0.8183 0.91455 0.0
C58 C 0.54942 0.84836 0.91332 0.0
C59 C 0.55451 0.86608 0.98484 0.0
H60 H 0.74811 0.53435 0.95595 0.0
H61 H 0.74169 0.51466 0.20106 0.0
H62 H 0.67855 0.53611 0.08421 0.0
H63 H 0.81455 0.51597 0.15757 0.0
H64 H 0.817 0.51319 0.90208 0.0
H65 H 0.87852 0.49742 0.0508 0.0
N66 N 0.77349 0.51958 0.08035 0.0
N67 N 0.78725 0.5201 0.02118 0.0
C68 C 0.73728 0.53188 0.01027 0.0
C69 C 0.71247 0.53675 0.01285 0.0
C70 C 0.74816 0.52424 0.07879 0.0
C71 C 0.73365 0.52097 0.14876 0.0
C72 C 0.70842 0.52506 0.1507 0.0
C73 C 0.69821 0.53315 0.0829 0.0
C74 C 0.82415 0.51307 0.10448 0.0
C75 C 0.84764 0.50644 0.1125 0.0
C76 C 0.81256 0.51524 0.02875 0.0
C77 C 0.82576 0.51166 0.96058 0.0
C78 C 0.84952 0.50492 0.96831 0.0
C79 C 0.8601 0.50234 0.04443 0.0
H80 H 0.22798 0.72973 -0.00194 0.0
H81 H 0.21879 0.75153 0.24256 0.0
H82 H 0.14897 0.67067 0.10484 0.0
H83 H 0.30521 0.81631 0.20504 0.0
H84 H 0.30015 0.80133 0.94896 0.0
H85 H 0.37683 0.87882 0.07883 0.0
N86 N 0.2561 0.77024 0.13004 0.0
N87 N 0.27093 0.77859 0.07171 0.0
C88 C 0.21548 0.72422 0.04973 0.0
C89 C 0.18724 0.69778 0.04384 0.0
C90 C 0.22738 0.74344 0.12231 0.0
C91 C 0.21013 0.73645 0.1876 0.0
C92 C 0.18135 0.71056 0.18063 0.0
C93 C 0.1709 0.69103 0.10983 0.0
C94 C 0.31506 0.8228 0.14965 0.0
C95 C 0.34299 0.84943 0.15042 0.0
C96 C 0.29958 0.80523 0.07654 0.0
C97 C 0.31228 0.81449 0.00517 0.0
C98 C 0.34024 0.84081 0.00584 0.0
C99 C 0.35552 0.858 0.0785 0.0
H100 H 0.50083 0.204 0.07854 0.0
H101 H 0.50411 0.21343 0.33594 0.0
H102 H 0.49633 0.13339 0.21227 0.0
H103 H 0.5115 0.29026 0.27641 0.0
H104 H 0.4943 0.27778 0.01897 0.0
H105 H 0.51004 0.3599 0.15107 0.0
N106 N 0.50374 0.24081 0.20741 0.0
N107 N 0.5018 0.25187 0.14487 0.0
C108 C 0.50047 0.19519 0.13532 0.0
C109 C 0.49928 0.16713 0.13771 0.0
C110 C 0.50204 0.21207 0.20707 0.0
C111 C 0.50238 0.20044 0.28058 0.0
C112 C 0.50004 0.17183 0.28189 0.0
C113 C 0.49819 0.15553 0.21061 0.0
C114 C 0.50931 0.29862 0.22049 0.0
C115 C 0.51179 0.32727 0.22171 0.0
C116 C 0.50383 0.28084 0.14712 0.0
C117 C 0.49955 0.29169 0.0752 0.0
C118 C 0.50099 0.32008 0.077 0.0
C119 C 0.50847 0.33786 0.14992 0.0
C120 C 0.99884 0.43011 0.77815 0.0
C121 C 0.08843 0.49018 0.71975 0.0
C122 C 0.05863 0.57626 0.72504 0.0
Mg123 Mg 0.02616 0.45293 0.62216 0.0
O124 O 0.01612 0.48253 0.65585 0.0
Mg125 Mg 0.03318 0.50538 0.76377 0.0
Mg126 Mg 0.02589 0.51679 0.59192 0.0
O127 O 0.03544 0.5512 0.52886 0.0
Mg128 Mg 0.02377 0.57946 0.56543 0.0
Mg129 Mg 0.0168 0.52789 0.42213 0.0
C130 C 0.9924 0.45679 0.46063 0.0
C131 C 0.07572 0.52126 0.47049 0.0
O132 O 1.00973 0.45761 0.80966 0.0
O133 O 1.00154 0.42311 0.70627 0.0
O134 O 0.07626 0.5029 0.7587 0.0
O135 O 0.07403 0.47038 0.65973 0.0
O136 O 1.00267 0.4426 0.50139 0.0
O137 O 0.99795 0.48364 0.48474 0.0
C138 C 0.97512 0.51284 0.70963 0.0
O139 O 0.98402 0.51774 0.6399 0.0
O140 O 0.98971 0.50747 0.76439 0.0
O141 O 0.03886 0.57581 0.3762 0.0
O142 O 0.04636 0.60983 0.48013 0.0
O143 O 0.97357 0.5291 0.43382 0.0
C144 C 0.04905 0.60319 0.40792 0.0
O145 O 0.97512 0.56003 0.53569 0.0
O146 O 0.04802 0.59028 0.68492 0.0
C147 C 0.96072 0.54023 0.4758 0.0
O148 O 0.05353 0.54963 0.70033 0.0
O149 O 0.06788 0.51615 0.54137 0.0
O150 O 0.0602 0.52642 0.41787 0.0
C151 C 0.49276 0.03444 0.85341 0.0
C152 C 0.45369 0.94383 0.72634 0.0
C153 C 0.56772 0.97951 0.66448 0.0
Mg154 Mg 0.4714 0.00666 0.67751 0.0
O155 O 0.51271 0.0184 0.68846 0.0
Mg156 Mg 0.52713 0.99946 0.76746 0.0
Mg157 Mg 0.53008 0.01156 0.59434 0.0
O158 O 0.54772 1.00463 0.50086 0.0
Mg159 Mg 0.58951 0.01798 0.51668 0.0
Mg160 Mg 0.53367 0.02386 0.42212 0.0
C161 C 0.49161 0.04276 0.52455 0.0
C162 C 0.47405 0.96406 0.46407 0.0
O163 O 0.51081 0.02346 0.8582 0.0
O164 O 0.47532 0.03003 0.79021 0.0
O165 O 0.48112 0.95601 0.75691 0.0
O166 O 0.44435 0.95852 0.68578 0.0
O167 O 0.47152 0.02982 0.57262 0.0
O168 O 0.5161 0.04121 0.52681 0.0
C169 C 0.58667 0.05901 0.72399 0.0
O170 O 0.5757 0.05345 0.65059 0.0
O171 O 0.57247 0.04182 0.77616 0.0
O172 O 0.55199 1.00109 0.33261 0.0
O173 O 0.58943 0.99789 0.40265 0.0
O174 O 0.57926 0.06779 0.43661 0.0
C175 C 0.57239 0.99309 0.33844 0.0
O176 O 0.61551 0.06651 0.51386 0.0
O177 O 0.58854 0.99302 0.61865 0.0
C178 C 0.6062 0.08072 0.47115 0.0
O179 O 0.54363 0.98171 0.6616 0.0
O180 O 0.48459 0.96989 0.53786 0.0
O181 O 0.48851 0.98099 0.41165 0.0
C182 C 0.56674 0.59113 0.38757 0.0
C183 C 0.61015 0.54111 0.4688 0.0
C184 C 0.49887 0.45045 0.4931 0.0
Mg185 Mg 0.58423 0.57781 0.55246 0.0
O186 O 0.54454 0.54553 0.52828 0.0
Mg187 Mg 0.53548 0.51827 0.42831 0.0
Mg188 Mg 0.52709 0.51492 0.6047 0.0
O189 O 0.51007 0.48432 0.68087 0.0
Mg190 Mg 0.47049 0.45162 0.65641 0.0
Mg191 Mg 0.5199 0.51139 0.78152 0.0
C192 C 0.55709 0.57909 0.71823 0.0
C193 C 0.5835 0.52203 0.723 0.0
O194 O 0.55173 0.56247 0.36491 0.0
O195 O 0.58027 0.60215 0.45791 0.0
O196 O 0.58358 0.52479 0.43257 0.0
O197 O 0.61593 0.56244 0.52317 0.0
O198 O 0.57814 0.59156 0.67227 0.0
O199 O 0.53516 0.55175 0.70212 0.0
C200 C 0.47183 0.50919 0.48426 0.0
O201 O 0.48026 0.50838 0.55675 0.0
O202 O 0.48868 0.51271 0.42838 0.0
O203 O 0.50423 0.46634 0.84369 0.0
O204 O 0.47447 0.42729 0.74999 0.0
O205 O 0.4719 0.50421 0.77775 0.0
C206 C 0.48859 0.43774 0.8198 0.0
O207 O 0.4385 0.46659 0.68826 0.0
O208 O 0.47765 0.43724 0.53822 0.0
C209 C 0.44512 0.48817 0.74279 0.0
O210 O 0.51919 0.47843 0.50863 0.0
O211 O 0.57371 0.5211 0.65069 0.0
O212 O 0.56746 0.51894 0.78057 0.0
H213 H 0.17998 0.53738 0.26876 0.0
H214 H 0.15381 0.44784 0.3305 0.0
H215 H 0.12058 0.45169 0.42442 0.0
H216 H 0.09348 0.47817 0.4739 0.0
H217 H 0.1198 0.56731 0.40711 0.0
H218 H 0.15879 0.56643 0.33238 0.0
C219 C 0.1676 0.51908 0.30452 0.0
C220 C 0.1693 0.49242 0.29308 0.0
C221 C 0.14838 0.52139 0.3574 0.0
C222 C 0.153 0.46869 0.33902 0.0
C223 C 0.13384 0.47084 0.39223 0.0
C224 C 0.10851 0.49773 0.44526 0.0
C225 C 0.10385 0.52283 0.44616 0.0
C226 C 0.13057 0.49674 0.40011 0.0
C227 C 0.12306 0.54781 0.40745 0.0
C228 C 0.14523 0.54724 0.36415 0.0
H229 H 0.6667 0.18175 0.25073 0.0
H230 H 0.73871 0.16155 0.29335 0.0
H231 H 0.71352 0.13158 0.40084 0.0
H232 H 0.66663 0.1039 0.46408 0.0
H233 H 0.59396 0.12323 0.41771 0.0
H234 H 0.62413 0.1616 0.33281 0.0
C235 C 0.67717 0.17147 0.28542 0.0
C236 C 0.70427 0.17354 0.26465 0.0
C237 C 0.66236 0.15404 0.34616 0.0
C238 C 0.71782 0.16017 0.30906 0.0
C239 C 0.70336 0.14296 0.37007 0.0
C240 C 0.65786 0.11733 0.43793 0.0
C241 C 0.6279 0.11031 0.44595 0.0
C242 C 0.67499 0.1387 0.38686 0.0
C243 C 0.61684 0.12792 0.41157 0.0
C244 C 0.63398 0.1497 0.36241 0.0
H245 H 0.56297 0.6648 0.10899 0.0
H246 H 0.52504 0.69882 0.28196 0.0
H247 H 0.53624 0.67219 0.3837 0.0
H248 H 0.55115 0.63415 0.41741 0.0
H249 H 0.58087 0.59453 0.23535 0.0
H250 H 0.57771 0.6278 0.14151 0.0
C251 C 0.55703 0.66638 0.16901 0.0
C252 C 0.54248 0.68312 0.1876 0.0
C253 C 0.56162 0.64956 0.22465 0.0
C254 C 0.53604 0.68592 0.26617 0.0
C255 C 0.54216 0.67044 0.32386 0.0
C256 C 0.55722 0.63317 0.35733 0.0
C257 C 0.56636 0.61218 0.33275 0.0
C258 C 0.55402 0.6514 0.30291 0.0
C259 C 0.57376 0.61054 0.2549 0.0
C260 C 0.57202 0.62956 0.20163 0.0
H261 H 0.8673 0.54728 0.24448 0.0
H262 H 0.85488 0.46 0.15752 0.0
H263 H 0.88261 0.45931 0.27961 0.0
H264 H 0.91818 0.48765 0.39658 0.0
H265 H 0.936 0.57748 0.47684 0.0
H266 H 0.89703 0.57247 0.375 0.0
C267 C 0.87006 0.52783 0.25349 0.0
C268 C 0.85962 0.50395 0.19192 0.0
C269 C 0.88687 0.52805 0.32288 0.0
C270 C 0.86326 0.47883 0.20375 0.0
C271 C 0.87899 0.47839 0.27355 0.0
C272 C 0.91274 0.50572 0.39355 0.0
C273 C 0.93024 0.5331 0.44285 0.0
C274 C 0.89202 0.50347 0.33165 0.0
C275 C 0.92282 0.55619 0.43943 0.0
C276 C 0.90094 0.55352 0.38017 0.0
H277 H 0.37431 0.84249 0.27685 0.0
H278 H 0.34764 0.90387 0.18479 0.0
H279 H 0.38304 0.94432 0.28604 0.0
H280 H 0.42739 0.96431 0.38418 0.0
H281 H 0.45602 0.90441 0.47578 0.0
H282 H 0.41383 0.86112 0.39298 0.0
C283 C 0.37566 0.86447 0.28105 0.0
C284 C 0.35856 0.87039 0.22376 0.0
C285 C 0.39665 0.8879 0.33868 0.0
C286 C 0.36062 0.89897 0.22862 0.0
C287 C 0.38096 0.9221 0.28611 0.0
C288 C 0.4237 0.94156 0.38786 0.0
C289 C 0.44458 0.93736 0.43554 0.0
C290 C 0.39993 0.91716 0.33912 0.0
C291 C 0.43992 0.90799 0.43993 0.0
C292 C 0.41603 0.88335 0.39189 0.0
H293 H 0.54822 0.38737 0.26151 0.0
H294 H 0.47719 0.30761 0.34479 0.0
H295 H 0.46617 0.33935 0.43619 0.0
H296 H 0.47219 0.38912 0.47798 0.0
H297 H 0.53964 0.46841 0.38277 0.0
H298 H 0.55527 0.4372 0.30597 0.0
C299 C 0.53074 0.37701 0.30105 0.0
C300 C 0.51324 0.34526 0.29578 0.0
C301 C 0.52286 0.39518 0.34787 0.0
C302 C 0.49107 0.332 0.34806 0.0
C303 C 0.48428 0.35012 0.3988 0.0
C304 C 0.49003 0.39963 0.4396 0.0
C305 C 0.50454 0.43114 0.43569 0.0
C306 C 0.49904 0.3816 0.39612 0.0
C307 C 0.52792 0.44426 0.3865 0.0
C308 C 0.53713 0.42648 0.34332 0.0
H309 H 0.59708 0.89424 0.85989 0.0
H310 H 0.50079 0.83635 0.8112 0.0
H311 H 0.49763 0.87328 0.73078 0.0
H312 H 0.5217 0.92481 0.68904 0.0
H313 H 0.61812 0.9829 0.73978 0.0
H314 H 0.62185 0.94354 0.80715 0.0
C315 C 0.57566 0.88921 0.82851 0.0
C316 C 0.54926 0.86253 0.8401 0.0
C317 C 0.57392 0.91118 0.78615 0.0
C318 C 0.52144 0.85641 0.80124 0.0
C319 C 0.51959 0.87786 0.75701 0.0
C320 C 0.54346 0.92891 0.71563 0.0
C321 C 0.56954 0.95694 0.71143 0.0
C322 C 0.54551 0.90586 0.75208 0.0
C323 C 0.59773 0.96167 0.7437 0.0
C324 C 0.59988 0.93909 0.78137 0.0
H325 H 0.68589 0.5025 0.87098 0.0
H326 H 0.70922 0.58774 0.00221 0.0
H327 H 0.67419 0.59374 0.91014 0.0
H328 H 0.62942 0.56932 0.81206 0.0
H329 H 0.60412 0.4833 0.68287 0.0
H330 H 0.64762 0.48303 0.75282 0.0
C331 C 0.68414 0.52292 0.87705 0.0
C332 C 0.69982 0.54459 0.94319 0.0
C333 C 0.66318 0.52572 0.82513 0.0
C334 C 0.69726 0.57084 0.95153 0.0
C335 C 0.67706 0.57412 0.89937 0.0
C336 C 0.63424 0.55115 0.79722 0.0
C337 C 0.61386 0.52636 0.74305 0.0
C338 C 0.65876 0.55094 0.83883 0.0
C339 C 0.61985 0.50271 0.72414 0.0
C340 C 0.64449 0.50244 0.76474 0.0
H341 H 0.15939 0.63651 0.01741 0.0
H342 H 0.17919 0.71622 0.90158 0.0
H343 H 0.14042 0.68498 0.79187 0.0
H344 H 0.09702 0.63628 0.73842 0.0
H345 H 0.07623 0.55618 0.85379 0.0
H346 H 0.11882 0.58654 0.95623 0.0
C347 C 0.15566 0.64687 0.96701 0.0
C348 C 0.17189 0.67861 0.96766 0.0
C349 C 0.13247 0.62893 0.90614 0.0
C350 C 0.16718 0.69185 0.90201 0.0
C351 C 0.14462 0.67406 0.84014 0.0
C352 C 0.10153 0.62545 0.7865 0.0
C353 C 0.08291 0.59419 0.79018 0.0
C354 C 0.12633 0.64283 0.84354 0.0
C355 C 0.08983 0.58031 0.85088 0.0
C356 C 0.11431 0.59761 0.90887 0.0
H357 H 0.53498 0.14269 0.12019 0.0
H358 H 0.46171 0.14885 -0.00163 0.0
H359 H 0.45222 0.10667 0.9001 0.0
H360 H 0.46193 0.06547 0.85778 0.0
H361 H 0.53279 0.05725 -0.01177 0.0
H362 H 0.54475 0.10189 0.07821 0.0
C363 C 0.51718 0.13502 0.0713 0.0
C364 C 0.49888 0.14855 0.06644 0.0
C365 C 0.51062 0.10969 0.01921 0.0
C366 C 0.4762 0.13887 0.00267 0.0
C367 C 0.47042 0.11443 0.94771 0.0
C368 C 0.47979 0.07316 0.90638 0.0
C369 C 0.49634 0.05783 0.91631 0.0
C370 C 0.48684 0.09906 0.95724 0.0
C371 C 0.51946 0.06831 0.97954 0.0
C372 C 0.52661 0.0941 0.03035 0.0
H373 H 0.37813 0.52638 0.98009 0.0
H374 H 0.31532 0.43061 0.94717 0.0
H375 H 0.34173 0.42433 0.837 0.0
H376 H 0.3875 0.44541 0.76457 0.0
H377 H 0.45042 0.54133 0.80164 0.0
H378 H 0.41887 0.54847 0.89352 0.0
C379 C 0.36989 0.50428 0.94741 0.0
C380 C 0.34506 0.47895 0.97168 0.0
C381 C 0.3853 0.50092 0.88487 0.0
C382 C 0.33441 0.45039 0.92916 0.0
C383 C 0.34961 0.44683 0.86652 0.0
C384 C 0.39365 0.46797 0.79049 0.0
C385 C 0.42136 0.49281 0.77658 0.0
C386 C 0.37572 0.4718 0.84555 0.0
C387 C 0.42925 0.52188 0.81154 0.0
C388 C 0.41134 0.52595 0.86469 0.0
H389 H 0.92612 0.34249 0.02289 0.0
H390 H 0.85225 0.32423 0.84871 0.0
H391 H 0.88834 0.35245 0.75511 0.0
H392 H 0.94053 0.39016 0.73431 0.0
H393 H 1.01288 0.41598 0.92076 0.0
H394 H 0.97788 0.37767 -3e-05 0.0
C395 C 0.91794 0.34437 0.96389 0.0
C396 C 0.8867 0.33203 0.9431 0.0
C397 C 0.93864 0.36271 0.91401 0.0
C398 C 0.87621 0.33371 0.86599 0.0
C399 C 0.89684 0.35021 0.81315 0.0
C400 C 0.94854 0.38689 0.79181 0.0
C401 C 0.97895 0.40553 0.82248 0.0
C402 C 0.92802 0.36606 0.83828 0.0
C403 C 0.98942 0.40176 0.89696 0.0
C404 C 0.96949 0.37991 0.94176 0.0
H405 H 0.88353 0.54437 0.86432 0.0
H406 H 0.84804 0.45261 0.9213 0.0
H407 H 0.88165 0.44561 0.83651 0.0
H408 H 0.92669 0.4681 0.76469 0.0
H409 H 0.96285 0.55944 0.70484 0.0
H410 H 0.92344 0.56413 0.77082 0.0
C411 C 0.88247 0.52257 0.85563 0.0
C412 C 0.86336 0.49902 0.89914 0.0
C413 C 0.90239 0.51883 0.80733 0.0
C414 C 0.86249 0.47099 0.88829 0.0
C415 C 0.88189 0.46706 0.84033 0.0
C416 C 0.92535 0.48871 0.76414 0.0
C417 C 0.94756 0.5134 0.73021 0.0
C418 C 0.90278 0.49118 0.80234 0.0
C419 C 0.94576 0.54005 0.72996 0.0
C420 C 0.92339 0.54279 0.76837 0.0
H421 H 0.39087 0.84503 0.95256 0.0
H422 H 0.31817 0.86299 0.89435 0.0
H423 H 0.34489 0.89252 0.78783 0.0
H424 H 0.39283 0.92035 0.72892 0.0
H425 H 0.46567 0.90238 0.78898 0.0
H426 H 0.43467 0.86494 0.87476 0.0
C427 C 0.38062 0.85474 0.91483 0.0
C428 C 0.35286 0.85219 0.93104 0.0
C429 C 0.39622 0.87181 0.85437 0.0
C430 C 0.33957 0.86473 0.88234 0.0
C431 C 0.35491 0.88172 0.82188 0.0
C432 C 0.40155 0.90749 0.75849 0.0
C433 C 0.43179 0.91472 0.75396 0.0
C434 C 0.38382 0.88644 0.80956 0.0
C435 C 0.44264 0.89767 0.79246 0.0
C436 C 0.425 0.87636 0.84208 0.0
H437 H 0.46382 0.34341 0.06594 0.0
H438 H 0.52394 0.32607 0.93149 0.0
H439 H 0.52417 0.36064 0.83604 0.0
H440 H 0.51238 0.40087 0.80202 0.0
H441 H 0.4598 0.42384 0.95287 0.0
H442 H 0.45271 0.38312 0.03402 0.0
C443 C 0.47673 0.34692 0.01509 0.0
C444 C 0.49418 0.33253 0.00629 0.0
C445 C 0.47905 0.3688 0.96577 0.0
C446 C 0.51025 0.33675 0.93941 0.0
C447 C 0.51084 0.35697 0.88592 0.0
C448 C 0.49963 0.39698 0.85323 0.0
C449 C 0.48698 0.41542 0.87286 0.0
C450 C 0.49637 0.37407 0.9006 0.0
C451 C 0.47019 0.41022 0.93824 0.0
C452 C 0.46586 0.38678 0.98375 0.0
H453 H 0.1875 0.52559 -0.00312 0.0
H454 H 0.14698 0.42864 0.98318 0.0
H455 H 0.11871 0.42322 0.85469 0.0
H456 H 0.09991 0.446 0.75815 0.0
H457 H 0.13846 0.5429 0.77702 0.0
H458 H 0.17416 0.54872 0.8891 0.0
C459 C 0.17279 0.50339 0.96478 0.0
C460 C 0.16878 0.47749 -0.00094 0.0
C461 C 0.15662 0.50055 0.89143 0.0
C462 C 0.15 0.44877 0.95753 0.0
C463 C 0.13397 0.44572 0.88421 0.0
C464 C 0.11715 0.46841 0.78435 0.0
C465 C 0.11681 0.49401 0.75914 0.0
C466 C 0.13642 0.47142 0.85172 0.0
C467 C 0.13866 0.52293 0.79489 0.0
C468 C 0.15868 0.52621 0.85991 0.0
H469 H 0.68358 0.18202 0.91102 0.0
H470 H 0.70861 0.12164 0.01723 0.0
H471 H 0.67509 0.08058 0.91516 0.0
H472 H 0.63247 0.05977 0.81153 0.0
H473 H 0.60517 0.11844 0.70566 0.0
H474 H 0.64606 0.1624 0.78988 0.0
C475 C 0.68229 0.16011 0.90996 0.0
C476 C 0.69828 0.15467 0.97169 0.0
C477 C 0.66233 0.13627 0.85165 0.0
C478 C 0.69636 0.12618 0.97041 0.0
C479 C 0.67712 0.10269 0.9123 0.0
C480 C 0.63618 0.08237 0.80512 0.0
C481 C 0.61594 0.086 0.75302 0.0
C482 C 0.65909 0.10714 0.85487 0.0
C483 C 0.62073 0.11524 0.745 0.0
C484 C 0.64386 0.14027 0.79391 0.0
H485 H 0.56707 0.69051 0.92607 0.0
H486 H 0.47009 0.63777 0.88471 0.0
H487 H 0.47388 0.59792 0.80492 0.0
H488 H 0.50522 0.57689 0.75582 0.0
H489 H 0.6023 0.62908 0.80582 0.0
H490 H 0.59813 0.66987 0.87752 0.0
C491 C 0.54686 0.67076 0.89673 0.0
C492 C 0.5184 0.66736 0.90827 0.0
C493 C 0.54927 0.64729 0.85649 0.0
C494 C 0.4922 0.6412 0.87367 0.0
C495 C 0.49441 0.61817 0.83003 0.0
C496 C 0.52538 0.59688 0.78416 0.0
C497 C 0.55404 0.59985 0.77679 0.0
C498 C 0.52284 0.62059 0.82328 0.0
C499 C 0.58003 0.62619 0.81184 0.0
C500 C 0.57768 0.64966 0.85166 0.0
H501 H 0.45421 0.12268 0.33005 0.0
H502 H 0.54868 0.18734 0.38829 0.0
H503 H 0.55514 0.15155 0.46625 0.0
H504 H 0.53488 0.09949 0.50386 0.0
H505 H 0.44035 0.03473 0.44279 0.0
H506 H 0.43302 0.07244 0.37709 0.0
C507 C 0.47586 0.12935 0.36306 0.0
C508 C 0.50083 0.15772 0.35487 0.0
C509 C 0.47965 0.10807 0.4036 0.0
C510 C 0.52901 0.16595 0.3957 0.0
C511 C 0.53283 0.14517 0.43841 0.0
C512 C 0.51281 0.0936 0.47508 0.0
C513 C 0.48831 0.0642 0.47605 0.0
C514 C 0.50858 0.11572 0.43977 0.0
C515 C 0.4596 0.05706 0.44116 0.0
C516 C 0.45534 0.0787 0.4046 0.0
H517 H 0.3428 0.46405 0.31568 0.0
H518 H 0.39083 0.5507 0.22553 0.0
H519 H 0.43457 0.56511 0.32181 0.0
H520 H 0.4621 0.54923 0.4124 0.0
H521 H 0.41577 0.46225 0.50113 0.0
H522 H 0.36819 0.4518 0.42628 0.0
C523 C 0.36248 0.48645 0.3195 0.0
C524 C 0.36381 0.50637 0.26395 0.0
C525 C 0.38792 0.49425 0.37388 0.0
C526 C 0.38946 0.53517 0.26814 0.0
C527 C 0.4145 0.5433 0.3227 0.0
C528 C 0.44128 0.52844 0.41737 0.0
C529 C 0.44221 0.50647 0.46158 0.0
C530 C 0.41446 0.52249 0.3731 0.0
C531 C 0.41536 0.47954 0.46777 0.0
C532 C 0.3883 0.47348 0.42429 0.0
H533 H 0.88834 0.39685 0.17537 0.0
H534 H 0.87164 0.31664 0.28483 0.0
H535 H 0.91159 0.34766 0.39211 0.0
H536 H 0.95503 0.3964 0.44471 0.0
H537 H 0.97283 0.47705 0.33564 0.0
H538 H 0.92918 0.44681 0.23613 0.0
C539 C 0.89301 0.38629 0.22391 0.0
C540 C 0.87726 0.35447 0.22192 0.0
C541 C 0.91693 0.40415 0.28324 0.0
C542 C 0.88322 0.34104 0.28536 0.0
C543 C 0.90648 0.35873 0.34579 0.0
C544 C 0.94969 0.40741 0.39856 0.0
C545 C 0.96778 0.43883 0.39597 0.0
C546 C 0.92428 0.39007 0.34322 0.0
C547 C 0.95972 0.45282 0.33772 0.0
C548 C 0.93461 0.43558 0.28142 0.0
H549 H 0.59896 0.91127 0.10295 0.0
H550 H 0.51346 0.84311 0.16812 0.0
H551 H 0.51054 0.8814 0.25702 0.0
H552 H 0.53046 0.93504 0.30661 0.0
H553 H 0.61585 1.00303 0.24087 0.0
H554 H 0.62014 0.96425 0.15774 0.0
C555 C 0.58009 0.90477 0.13835 0.0
C556 C 0.55646 0.87456 0.12948 0.0
C557 C 0.57793 0.92704 0.18568 0.0
C558 C 0.53207 0.86618 0.17514 0.0
C559 C 0.53012 0.88815 0.22444 0.0
C560 C 0.54957 0.94128 0.27225 0.0
C561 C 0.57223 0.97173 0.2764 0.0
C562 C 0.55237 0.91877 0.22776 0.0
C563 C 0.5977 0.97975 0.23548 0.0
C564 C 0.60036 0.95757 0.18943 0.0
H565 H 0.72169 0.56245 0.28776 0.0
H566 H 0.65518 0.47574 0.16649 0.0
H567 H 0.62003 0.47058 0.26445 0.0
H568 H 0.60561 0.49419 0.37118 0.0
H569 H 0.67099 0.58209 0.49002 0.0
H570 H 0.70936 0.58298 0.40847 0.0
C571 C 0.69985 0.54207 0.28465 0.0
C572 C 0.69096 0.51938 0.22059 0.0
C573 C 0.67944 0.53964 0.34028 0.0
C574 C 0.66246 0.49329 0.21587 0.0
C575 C 0.64233 0.49046 0.27151 0.0
C576 C 0.62844 0.51329 0.38063 0.0
C577 C 0.63519 0.53825 0.43593 0.0
C578 C 0.65015 0.514 0.3321 0.0
C579 C 0.66503 0.56259 0.44788 0.0
C580 C 0.68697 0.56324 0.40063 0.0
H581 H 0.12177 0.69212 0.16519 0.0
H582 H 0.19545 0.71017 0.3399 0.0
H583 H 0.15923 0.68179 0.43289 0.0
H584 H 0.1071 0.64368 0.4527 0.0
H585 H 0.035 0.61763 0.26538 0.0
H586 H 0.06997 0.65645 0.18718 0.0
C587 C 0.1299 0.69014 0.22414 0.0
C588 C 0.16116 0.70248 0.24508 0.0
C589 C 0.10912 0.67155 0.2736 0.0
C590 C 0.17151 0.70073 0.32232 0.0
C591 C 0.15079 0.68409 0.37484 0.0
C592 C 0.09911 0.64701 0.39527 0.0
C593 C 0.06877 0.62815 0.36413 0.0
C594 C 0.11965 0.6681 0.3493 0.0
C595 C 0.05838 0.63201 0.28965 0.0
C596 C 0.07831 0.65416 0.2454 0.0
loop_
_geom_bond_atom_site_label_1
_geom_bond_atom_site_label_2
_geom_bond_distance
_geom_bond_site_symmetry_2
_ccdc_geom_bond_type
H0 C8 0.940 . S
H1 C11 0.940 . S
H2 C13 0.940 . S
H3 C14 0.940 . S
H4 C17 0.940 . S
H5 C19 0.940 . S
N6 N7 1.190 . S
N6 C10 1.477 . S
N7 N6 1.190 . S
N7 C16 1.477 . S
C8 H0 0.940 . S
C8 C9 1.390 . S
C8 C10 1.322 . S
C9 C8 1.390 . S
C9 C13 1.370 . S
C10 N6 1.477 . S
C10 C8 1.322 . S
C10 C11 1.447 . S
C11 H1 0.940 . S
C11 C10 1.447 . S
C11 C12 1.373 . S
C12 C11 1.373 . S
C12 C13 1.417 . S
C13 H2 0.940 . S
C13 C9 1.370 . S
C13 C12 1.417 . S
C14 H3 0.940 . S
C14 C15 1.390 . S
C14 C16 1.322 . S
C15 C14 1.390 . S
C15 C19 1.370 . S
C16 N7 1.477 . S
C16 C14 1.322 . S
C16 C17 1.447 . S
C17 H4 0.940 . S
C17 C16 1.447 . S
C17 C18 1.373 . S
C18 C17 1.373 . S
C18 C19 1.417 . S
C19 H5 0.940 . S
C19 C15 1.370 . S
C19 C18 1.417 . S
H20 C28 0.940 . S
H21 C31 0.940 . S
H22 C33 0.940 . S
H23 C34 0.940 . S
H24 C37 0.940 . S
H25 C39 0.940 . S
N26 N27 1.190 . S
N26 C30 1.477 . S
N27 N26 1.190 . S
N27 C36 1.477 . S
C28 H20 0.940 . S
C28 C29 1.390 . S
C28 C30 1.322 . S
C29 C28 1.390 . S
C29 C33 1.370 . S
C30 N26 1.477 . S
C30 C28 1.322 . S
C30 C31 1.447 . S
C31 H21 0.940 . S
C31 C30 1.447 . S
C31 C32 1.373 . S
C32 C31 1.373 . S
C32 C33 1.417 . S
C33 H22 0.940 . S
C33 C29 1.370 . S
C33 C32 1.417 . S
C34 H23 0.940 . S
C34 C35 1.390 . S
C34 C36 1.322 . S
C35 C34 1.390 . S
C35 C39 1.370 . S
C36 N27 1.477 . S
C36 C34 1.322 . S
C36 C37 1.447 . S
C37 H24 0.940 . S
C37 C36 1.447 . S
C37 C38 1.373 . S
C38 C37 1.373 . S
C38 C39 1.417 . S
C39 H25 0.940 . S
C39 C35 1.370 . S
C39 C38 1.417 . S
H40 C48 0.940 . S
H41 C51 0.940 . S
H42 C53 0.940 1_556 S
H43 C54 0.940 . S
H44 C57 0.940 . S
H45 C59 0.940 . S
N46 N47 1.190 1_554 S
N46 C50 1.477 . S
N47 N46 1.190 1_556 S
N47 C56 1.477 . S
C48 H40 0.940 . S
C48 C49 1.390 . S
C48 C50 1.322 1_556 S
C49 C48 1.390 . S
C49 C53 1.363 1_556 S
C50 N46 1.477 . S
C50 C48 1.322 1_554 S
C50 C51 1.447 . S
C51 H41 0.940 . S
C51 C50 1.447 . S
C51 C52 1.373 . S
C52 C51 1.373 . S
C52 C53 1.424 . S
C53 H42 0.940 1_554 S
C53 C49 1.363 1_554 S
C53 C52 1.424 . S
C54 H43 0.940 . S
C54 C55 1.390 . S
C54 C56 1.322 1_554 S
C55 C54 1.390 . S
C55 C59 1.370 . S
C56 N47 1.477 . S
C56 C54 1.322 1_556 S
C56 C57 1.447 . S
C57 H44 0.940 . S
C57 C56 1.447 . S
C57 C58 1.373 . S
C58 C57 1.373 . S
C58 C59 1.417 1_556 S
C59 H45 0.940 . S
C59 C55 1.370 . S
C59 C58 1.417 1_554 S
H60 C68 0.940 . S
H61 C71 0.940 . S
H62 C73 0.940 . S
H63 C74 0.940 . S
H64 C77 0.940 . S
H65 C79 0.940 . S
N66 N67 1.190 . S
N66 C70 1.477 . S
N67 N66 1.190 . S
N67 C76 1.477 . S
C68 H60 0.940 . S
C68 C69 1.390 . S
C68 C70 1.322 1_556 S
C69 C68 1.390 . S
C69 C73 1.370 1_556 S
C70 N66 1.477 . S
C70 C68 1.322 1_554 S
C70 C71 1.447 . S
C71 H61 0.940 . S
C71 C70 1.447 . S
C71 C72 1.373 . S
C72 C71 1.373 . S
C72 C73 1.417 . S
C73 H62 0.940 . S
C73 C69 1.370 1_554 S
C73 C72 1.417 . S
C74 H63 0.940 . S
C74 C75 1.390 . S
C74 C76 1.322 . S
C75 C74 1.390 . S
C75 C79 1.370 . S
C76 N67 1.477 . S
C76 C74 1.322 . S
C76 C77 1.447 1_554 S
C77 H64 0.940 . S
C77 C76 1.447 1_556 S
C77 C78 1.373 . S
C78 C77 1.373 . S
C78 C79 1.417 1_556 S
C79 H65 0.940 . S
C79 C75 1.370 . S
C79 C78 1.417 1_554 S
H80 C88 0.940 1_556 S
H81 C91 0.940 . S
H82 C93 0.940 . S
H83 C94 0.940 . S
H84 C97 0.940 1_556 S
H85 C99 0.940 . S
N86 N87 1.190 . S
N86 C90 1.477 . S
N87 N86 1.190 . S
N87 C96 1.477 . S
C88 H80 0.940 1_554 S
C88 C89 1.390 . S
C88 C90 1.322 . S
C89 C88 1.390 . S
C89 C93 1.370 . S
C90 N86 1.477 . S
C90 C88 1.322 . S
C90 C91 1.447 . S
C91 H81 0.940 . S
C91 C90 1.447 . S
C91 C92 1.373 . S
C92 C91 1.373 . S
C92 C93 1.417 . S
C93 H82 0.940 . S
C93 C89 1.370 . S
C93 C92 1.417 . S
C94 H83 0.940 . S
C94 C95 1.390 . S
C94 C96 1.322 . S
C95 C94 1.390 . S
C95 C99 1.370 . S
C96 N87 1.477 . S
C96 C94 1.322 . S
C96 C97 1.447 . S
C97 H84 0.940 1_554 S
C97 C96 1.447 . S
C97 C98 1.373 . S
C98 C97 1.373 . S
C98 C99 1.417 . S
C99 H85 0.940 . S
C99 C95 1.370 . S
C99 C98 1.417 . S
H100 C108 0.940 . S
H101 C111 0.940 . S
H102 C113 0.940 . S
H103 C114 0.940 . S
H104 C117 0.940 . S
H105 C119 0.940 . S
N106 N107 1.190 . S
N106 C110 1.477 . S
N107 N106 1.190 . S
N107 C116 1.477 . S
C108 H100 0.940 . S
C108 C109 1.390 . S
C108 C110 1.322 . S
C109 C108 1.390 . S
C109 C113 1.370 . S
C110 N106 1.477 . S
C110 C108 1.322 . S
C110 C111 1.447 . S
C111 H101 0.940 . S
C111 C110 1.447 . S
C111 C112 1.373 . S
C112 C111 1.373 . S
C112 C113 1.417 . S
C113 H102 0.940 . S
C113 C109 1.370 . S
C113 C112 1.417 . S
C114 H103 0.940 . S
C114 C115 1.390 . S
C114 C116 1.322 . S
C115 C114 1.390 . S
C115 C119 1.370 . S
C116 N107 1.477 . S
C116 C114 1.322 . S
C116 C117 1.447 . S
C117 H104 0.940 . S
C117 C116 1.447 . S
C117 C118 1.373 . S
C118 C117 1.373 . S
C118 C119 1.417 . S
C119 H105 0.940 . S
C119 C115 1.370 . S
C119 C118 1.417 . S
C120 O132 1.241 . S
C120 O133 1.280 . S
C121 O134 1.277 . S
C121 O135 1.245 . S
C122 O146 1.247 . S
C122 O148 1.289 . S
Mg123 O124 1.915 . S
Mg123 O133 1.984 . S
Mg123 O135 1.988 1_655 S
Mg123 O136 2.061 . S
O124 Mg123 1.915 . S
O124 Mg125 1.988 1_655 S
O124 Mg126 1.919 1_655 S
Mg125 O124 1.988 1_455 S
Mg125 O132 2.042 1_455 S
Mg125 O134 2.041 . S
Mg125 O140 2.038 1_455 S
Mg125 O148 2.238 . S
Mg126 O124 1.919 1_455 S
Mg126 O127 1.917 . S
Mg126 O137 2.106 1_455 S
Mg126 O139 2.079 1_455 S
Mg126 O148 2.106 . S
Mg126 O149 2.079 . S
O127 Mg126 1.917 . S
O127 Mg128 1.926 . S
O127 Mg129 1.986 . S
Mg128 O127 1.926 . S
Mg128 O142 1.984 . S
Mg128 O145 1.988 1_455 S
Mg128 O146 2.061 . S
Mg129 O127 1.986 . S
Mg129 O137 2.238 1_455 S
Mg129 O141 2.042 . S
Mg129 O143 2.041 1_455 S
Mg129 O150 2.038 . S
C130 O136 1.247 . S
C130 O137 1.289 . S
C131 O149 1.245 . S
C131 O150 1.274 . S
O132 C120 1.241 . S
O132 Mg125 2.042 1_655 S
O133 C120 1.280 . S
O133 Mg123 1.984 . S
O134 C121 1.277 . S
O134 Mg125 2.041 . S
O135 C121 1.245 . S
O135 Mg123 1.988 1_455 S
O136 Mg123 2.061 . S
O136 C130 1.247 . S
O137 Mg126 2.106 1_655 S
O137 Mg129 2.238 1_655 S
O137 C130 1.289 . S
C138 O139 1.245 . S
C138 O140 1.274 . S
O139 Mg126 2.079 1_655 S
O139 C138 1.245 . S
O140 Mg125 2.038 1_655 S
O140 C138 1.274 . S
O141 Mg129 2.042 . S
O141 C144 1.241 . S
O142 Mg128 1.984 . S
O142 C144 1.280 . S
O143 Mg129 2.041 1_655 S
O143 C147 1.277 . S
C144 O141 1.241 . S
C144 O142 1.280 . S
O145 Mg128 1.988 1_655 S
O145 C147 1.245 . S
O146 C122 1.247 . S
O146 Mg128 2.061 . S
C147 O143 1.277 . S
C147 O145 1.245 . S
O148 C122 1.289 . S
O148 Mg125 2.238 . S
O148 Mg126 2.106 . S
O149 Mg126 2.079 . S
O149 C131 1.245 . S
O150 Mg129 2.038 . S
O150 C131 1.274 . S
C151 O163 1.241 . S
C151 O164 1.280 . S
C152 O165 1.277 . S
C152 O166 1.245 . S
C153 O177 1.247 . S
C153 O179 1.289 . S
Mg154 O155 1.926 . S
Mg154 O164 1.984 . S
Mg154 O166 1.988 1_545 S
Mg154 O167 2.061 . S
O155 Mg154 1.926 . S
O155 Mg156 1.986 . S
O155 Mg157 1.917 . S
Mg156 O155 1.986 . S
Mg156 O163 2.042 . S
Mg156 O165 2.041 1_545 S
Mg156 O171 2.038 . S
Mg156 O179 2.238 1_545 S
Mg157 O155 1.917 . S
Mg157 O158 1.917 1_545 S
Mg157 O168 2.106 . S
Mg157 O170 2.079 . S
Mg157 O179 2.106 1_545 S
Mg157 O180 2.079 1_545 S
O158 Mg157 1.917 1_565 S
O158 Mg159 1.926 . S
O158 Mg160 1.986 1_565 S
Mg159 O158 1.926 . S
Mg159 O173 1.984 . S
Mg159 O176 1.988 1_565 S
Mg159 O177 2.061 . S
Mg160 O158 1.986 1_545 S
Mg160 O168 2.238 . S
Mg160 O172 2.042 1_545 S
Mg160 O174 2.041 . S
Mg160 O181 2.038 1_545 S
C161 O167 1.247 . S
C161 O168 1.289 . S
C162 O180 1.245 . S
C162 O181 1.274 . S
O163 C151 1.241 . S
O163 Mg156 2.042 . S
O164 C151 1.280 . S
O164 Mg154 1.984 . S
O165 C152 1.277 . S
O165 Mg156 2.041 1_565 S
O166 C152 1.245 . S
O166 Mg154 1.988 1_565 S
O167 Mg154 2.061 . S
O167 C161 1.247 . S
O168 Mg157 2.106 . S
O168 Mg160 2.238 . S
O168 C161 1.289 . S
C169 O170 1.245 . S
C169 O171 1.274 . S
O170 Mg157 2.079 . S
O170 C169 1.245 . S
O171 Mg156 2.038 . S
O171 C169 1.274 . S
O172 Mg160 2.042 1_565 S
O172 C175 1.241 . S
O173 Mg159 1.984 . S
O173 C175 1.280 . S
O174 Mg160 2.041 . S
O174 C178 1.277 . S
C175 O172 1.241 . S
C175 O173 1.280 . S
O176 Mg159 1.988 1_545 S
O176 C178 1.245 . S
O177 C153 1.247 . S
O177 Mg159 2.061 . S
C178 O174 1.277 . S
C178 O176 1.245 . S
O179 C153 1.289 . S
O179 Mg156 2.238 1_565 S
O179 Mg157 2.106 1_565 S
O180 Mg157 2.079 1_565 S
O180 C162 1.245 . S
O181 Mg160 2.038 1_565 S
O181 C162 1.274 . S
C182 O194 1.241 . S
C182 O195 1.280 . S
C183 O196 1.277 . S
C183 O197 1.245 . S
C184 O208 1.247 . S
C184 O210 1.289 . S
Mg185 O186 1.926 . S
Mg185 O195 1.984 . S
Mg185 O197 1.988 . S
Mg185 O198 2.061 . S
O186 Mg185 1.926 . S
O186 Mg187 1.986 . S
O186 Mg188 1.917 . S
Mg187 O186 1.986 . S
Mg187 O194 2.042 . S
Mg187 O196 2.041 . S
Mg187 O202 2.038 . S
Mg187 O210 2.238 . S
Mg188 O186 1.917 . S
Mg188 O189 1.917 . S
Mg188 O199 2.106 . S
Mg188 O201 2.079 . S
Mg188 O210 2.106 . S
Mg188 O211 2.079 . S
O189 Mg188 1.917 . S
O189 Mg190 1.926 . S
O189 Mg191 1.986 . S
Mg190 O189 1.926 . S
Mg190 O204 1.984 . S
Mg190 O207 1.988 . S
Mg190 O208 2.061 . S
Mg191 O189 1.986 . S
Mg191 O199 2.238 . S
Mg191 O203 2.042 . S
Mg191 O205 2.041 . S
Mg191 O212 2.038 . S
C192 O198 1.247 . S
C192 O199 1.289 . S
C193 O211 1.245 . S
C193 O212 1.274 . S
O194 C182 1.241 . S
O194 Mg187 2.042 . S
O195 C182 1.280 . S
O195 Mg185 1.984 . S
O196 C183 1.277 . S
O196 Mg187 2.041 . S
O197 C183 1.245 . S
O197 Mg185 1.988 . S
O198 Mg185 2.061 . S
O198 C192 1.247 . S
O199 Mg188 2.106 . S
O199 Mg191 2.238 . S
O199 C192 1.289 . S
C200 O201 1.245 . S
C200 O202 1.274 . S
O201 Mg188 2.079 . S
O201 C200 1.245 . S
O202 Mg187 2.038 . S
O202 C200 1.274 . S
O203 Mg191 2.042 . S
O203 C206 1.241 . S
O204 Mg190 1.984 . S
O204 C206 1.280 . S
O205 Mg191 2.041 . S
O205 C209 1.277 . S
C206 O203 1.241 . S
C206 O204 1.280 . S
O207 Mg190 1.988 . S
O207 C209 1.245 . S
O208 C184 1.247 . S
O208 Mg190 2.061 . S
C209 O205 1.277 . S
C209 O207 1.245 . S
O210 C184 1.289 . S
O210 Mg187 2.238 . S
O210 Mg188 2.106 . S
O211 Mg188 2.079 . S
O211 C193 1.245 . S
O212 Mg191 2.038 . S
O212 C193 1.274 . S
H213 C219 0.930 . S
H214 C222 0.930 . S
H215 C223 0.930 . S
H216 C224 0.930 . S
H217 C227 0.930 . S
H218 C228 0.930 . S
C219 H213 0.930 . S
C219 C220 1.355 . S
C219 C221 1.415 . S
C220 C219 1.355 . S
C220 C222 1.419 . S
C221 C219 1.415 . S
C221 C226 1.425 . S
C221 C228 1.409 . S
C222 H214 0.930 . S
C222 C220 1.419 . S
C222 C223 1.362 . S
C223 H215 0.930 . S
C223 C222 1.362 . S
C223 C226 1.409 . S
C224 H216 0.930 . S
C224 C225 1.355 . S
C224 C226 1.415 . S
C225 C224 1.355 . S
C225 C227 1.419 . S
C226 C221 1.425 . S
C226 C223 1.409 . S
C226 C224 1.415 . S
C227 H217 0.930 . S
C227 C225 1.419 . S
C227 C228 1.362 . S
C228 H218 0.930 . S
C228 C221 1.409 . S
C228 C227 1.362 . S
H229 C235 0.930 . S
H230 C238 0.930 . S
H231 C239 0.930 . S
H232 C240 0.930 . S
H233 C243 0.930 . S
H234 C244 0.930 . S
C235 H229 0.930 . S
C235 C236 1.355 . S
C235 C237 1.415 . S
C236 C235 1.355 . S
C236 C238 1.419 . S
C237 C235 1.415 . S
C237 C242 1.425 . S
C237 C244 1.409 . S
C238 H230 0.930 . S
C238 C236 1.419 . S
C238 C239 1.362 . S
C239 H231 0.930 . S
C239 C238 1.362 . S
C239 C242 1.409 . S
C240 H232 0.930 . S
C240 C241 1.355 . S
C240 C242 1.415 . S
C241 C240 1.355 . S
C241 C243 1.419 . S
C242 C237 1.425 . S
C242 C239 1.409 . S
C242 C240 1.415 . S
C243 H233 0.930 . S
C243 C241 1.419 . S
C243 C244 1.362 . S
C244 H234 0.930 . S
C244 C237 1.409 . S
C244 C243 1.362 . S
H245 C251 0.930 . S
H246 C254 0.930 . S
H247 C255 0.930 . S
H248 C256 0.930 . S
H249 C259 0.930 . S
H250 C260 0.930 . S
C251 H245 0.930 . S
C251 C252 1.355 . S
C251 C253 1.415 . S
C252 C251 1.355 . S
C252 C254 1.419 . S
C253 C251 1.415 . S
C253 C258 1.425 . S
C253 C260 1.409 . S
C254 H246 0.930 . S
C254 C252 1.419 . S
C254 C255 1.362 . S
C255 H247 0.930 . S
C255 C254 1.362 . S
C255 C258 1.409 . S
C256 H248 0.930 . S
C256 C257 1.355 . S
C256 C258 1.415 . S
C257 C256 1.355 . S
C257 C259 1.419 . S
C258 C253 1.425 . S
C258 C255 1.409 . S
C258 C256 1.415 . S
C259 H249 0.930 . S
C259 C257 1.419 . S
C259 C260 1.362 . S
C260 H250 0.930 . S
C260 C253 1.409 . S
C260 C259 1.362 . S
H261 C267 0.930 . S
H262 C270 0.930 . S
H263 C271 0.930 . S
H264 C272 0.930 . S
H265 C275 0.930 . S
H266 C276 0.930 . S
C267 H261 0.930 . S
C267 C268 1.355 . S
C267 C269 1.415 . S
C268 C267 1.355 . S
C268 C270 1.419 . S
C269 C267 1.415 . S
C269 C274 1.425 . S
C269 C276 1.409 . S
C270 H262 0.930 . S
C270 C268 1.419 . S
C270 C271 1.362 . S
C271 H263 0.930 . S
C271 C270 1.362 . S
C271 C274 1.409 . S
C272 H264 0.930 . S
C272 C273 1.355 . S
C272 C274 1.415 . S
C273 C272 1.355 . S
C273 C275 1.419 . S
C274 C269 1.425 . S
C274 C271 1.409 . S
C274 C272 1.415 . S
C275 H265 0.930 . S
C275 C273 1.419 . S
C275 C276 1.362 . S
C276 H266 0.930 . S
C276 C269 1.409 . S
C276 C275 1.362 . S
H277 C283 0.930 . S
H278 C286 0.930 . S
H279 C287 0.930 . S
H280 C288 0.930 . S
H281 C291 0.930 . S
H282 C292 0.930 . S
C283 H277 0.930 . S
C283 C284 1.355 . S
C283 C285 1.415 . S
C284 C283 1.355 . S
C284 C286 1.419 . S
C285 C283 1.415 . S
C285 C290 1.425 . S
C285 C292 1.409 . S
C286 H278 0.930 . S
C286 C284 1.419 . S
C286 C287 1.362 . S
C287 H279 0.930 . S
C287 C286 1.362 . S
C287 C290 1.409 . S
C288 H280 0.930 . S
C288 C289 1.355 . S
C288 C290 1.415 . S
C289 C288 1.355 . S
C289 C291 1.419 . S
C290 C285 1.425 . S
C290 C287 1.409 . S
C290 C288 1.415 . S
C291 H281 0.930 . S
C291 C289 1.419 . S
C291 C292 1.362 . S
C292 H282 0.930 . S
C292 C285 1.409 . S
C292 C291 1.362 . S
H293 C299 0.930 . S
H294 C302 0.930 . S
H295 C303 0.930 . S
H296 C304 0.930 . S
H297 C307 0.930 . S
H298 C308 0.930 . S
C299 H293 0.930 . S
C299 C300 1.355 . S
C299 C301 1.415 . S
C300 C299 1.355 . S
C300 C302 1.419 . S
C301 C299 1.415 . S
C301 C306 1.425 . S
C301 C308 1.409 . S
C302 H294 0.930 . S
C302 C300 1.419 . S
C302 C303 1.362 . S
C303 H295 0.930 . S
C303 C302 1.362 . S
C303 C306 1.409 . S
C304 H296 0.930 . S
C304 C305 1.355 . S
C304 C306 1.415 . S
C305 C304 1.355 . S
C305 C307 1.419 . S
C306 C301 1.425 . S
C306 C303 1.409 . S
C306 C304 1.415 . S
C307 H297 0.930 . S
C307 C305 1.419 . S
C307 C308 1.362 . S
C308 H298 0.930 . S
C308 C301 1.409 . S
C308 C307 1.362 . S
H309 C315 0.930 . S
H310 C318 0.930 . S
H311 C319 0.930 . S
H312 C320 0.930 . S
H313 C323 0.930 . S
H314 C324 0.930 . S
C315 H309 0.930 . S
C315 C316 1.355 . S
C315 C317 1.415 . S
C316 C315 1.355 . S
C316 C318 1.419 . S
C317 C315 1.415 . S
C317 C322 1.425 . S
C317 C324 1.409 . S
C318 H310 0.930 . S
C318 C316 1.419 . S
C318 C319 1.362 . S
C319 H311 0.930 . S
C319 C318 1.362 . S
C319 C322 1.409 . S
C320 H312 0.930 . S
C320 C321 1.355 . S
C320 C322 1.415 . S
C321 C320 1.355 . S
C321 C323 1.419 . S
C322 C317 1.425 . S
C322 C319 1.409 . S
C322 C320 1.415 . S
C323 H313 0.930 . S
C323 C321 1.419 . S
C323 C324 1.362 . S
C324 H314 0.930 . S
C324 C317 1.409 . S
C324 C323 1.362 . S
H325 C331 0.930 . S
H326 C334 0.930 . S
H327 C335 0.930 . S
H328 C336 0.930 . S
H329 C339 0.930 . S
H330 C340 0.930 . S
C331 H325 0.930 . S
C331 C332 1.355 . S
C331 C333 1.415 . S
C332 C331 1.355 . S
C332 C334 1.419 . S
C333 C331 1.415 . S
C333 C338 1.425 . S
C333 C340 1.409 . S
C334 H326 0.930 . S
C334 C332 1.419 . S
C334 C335 1.362 . S
C335 H327 0.930 . S
C335 C334 1.362 . S
C335 C338 1.409 . S
C336 H328 0.930 . S
C336 C337 1.355 . S
C336 C338 1.415 . S
C337 C336 1.355 . S
C337 C339 1.419 . S
C338 C333 1.425 . S
C338 C335 1.409 . S
C338 C336 1.415 . S
C339 H329 0.930 . S
C339 C337 1.419 . S
C339 C340 1.362 . S
C340 H330 0.930 . S
C340 C333 1.409 . S
C340 C339 1.362 . S
H341 C347 0.930 . S
H342 C350 0.930 1_554 S
H343 C351 0.930 . S
H344 C352 0.930 . S
H345 C355 0.930 . S
H346 C356 0.930 . S
C347 H341 0.930 . S
C347 C348 1.355 . S
C347 C349 1.415 . S
C348 C347 1.355 . S
C348 C350 1.419 . S
C349 C347 1.415 . S
C349 C354 1.425 . S
C349 C356 1.409 . S
C350 H342 0.930 1_556 S
C350 C348 1.419 . S
C350 C351 1.362 . S
C351 H343 0.930 . S
C351 C350 1.362 . S
C351 C354 1.409 . S
C352 H344 0.930 . S
C352 C353 1.355 . S
C352 C354 1.415 . S
C353 C352 1.355 . S
C353 C355 1.419 . S
C354 C349 1.425 . S
C354 C351 1.409 . S
C354 C352 1.415 . S
C355 H345 0.930 . S
C355 C353 1.419 . S
C355 C356 1.362 . S
C356 H346 0.930 . S
C356 C349 1.409 . S
C356 C355 1.362 . S
H357 C363 0.930 1_556 S
H358 C366 0.930 . S
H359 C367 0.930 . S
H360 C368 0.930 . S
H361 C371 0.930 . S
H362 C372 0.930 . S
C363 H357 0.930 1_554 S
C363 C364 1.355 . S
C363 C365 1.415 1_554 S
C364 C363 1.355 . S
C364 C366 1.419 . S
C365 C363 1.415 1_556 S
C365 C370 1.426 1_556 S
C365 C372 1.409 . S
C366 H358 0.930 . S
C366 C364 1.419 . S
C366 C367 1.362 . S
C367 H359 0.930 . S
C367 C366 1.362 . S
C367 C370 1.408 . S
C368 H360 0.930 . S
C368 C369 1.355 . S
C368 C370 1.415 1_556 S
C369 C368 1.355 . S
C369 C371 1.419 . S
C370 C365 1.426 1_554 S
C370 C367 1.408 . S
C370 C368 1.415 1_554 S
C371 H361 0.930 . S
C371 C369 1.419 . S
C371 C372 1.362 . S
C372 H362 0.930 . S
C372 C365 1.409 . S
C372 C371 1.362 . S
H373 C379 0.930 . S
H374 C382 0.930 . S
H375 C383 0.930 . S
H376 C384 0.930 . S
H377 C387 0.930 . S
H378 C388 0.930 . S
C379 H373 0.930 . S
C379 C380 1.355 . S
C379 C381 1.415 1_554 S
C380 C379 1.355 . S
C380 C382 1.419 1_554 S
C381 C379 1.415 1_556 S
C381 C386 1.425 . S
C381 C388 1.409 . S
C382 H374 0.930 . S
C382 C380 1.419 1_556 S
C382 C383 1.362 . S
C383 H375 0.930 . S
C383 C382 1.362 . S
C383 C386 1.409 . S
C384 H376 0.930 . S
C384 C385 1.355 . S
C384 C386 1.415 . S
C385 C384 1.355 . S
C385 C387 1.419 . S
C386 C381 1.425 . S
C386 C383 1.409 . S
C386 C384 1.415 . S
C387 H377 0.930 . S
C387 C385 1.419 . S
C387 C388 1.362 . S
C388 H378 0.930 . S
C388 C381 1.409 . S
C388 C387 1.362 . S
H389 C395 0.930 . S
H390 C398 0.930 . S
H391 C399 0.930 . S
H392 C400 0.930 . S
H393 C403 0.930 . S
H394 C404 0.930 . S
C395 H389 0.930 . S
C395 C396 1.355 1_554 S
C395 C397 1.415 1_554 S
C396 C395 1.355 1_556 S
C396 C398 1.419 . S
C397 C395 1.415 1_556 S
C397 C402 1.425 . S
C397 C404 1.409 1_556 S
C398 H390 0.930 . S
C398 C396 1.419 . S
C398 C399 1.362 . S
C399 H391 0.930 . S
C399 C398 1.362 . S
C399 C402 1.409 . S
C400 H392 0.930 . S
C400 C401 1.355 . S
C400 C402 1.415 . S
C401 C400 1.355 . S
C401 C403 1.419 . S
C402 C397 1.425 . S
C402 C399 1.409 . S
C402 C400 1.415 . S
C403 H393 0.930 . S
C403 C401 1.419 . S
C403 C404 1.362 1_556 S
C404 H394 0.930 . S
C404 C397 1.409 1_554 S
C404 C403 1.362 1_554 S
H405 C411 0.930 . S
H406 C414 0.930 . S
H407 C415 0.930 . S
H408 C416 0.930 . S
H409 C419 0.930 . S
H410 C420 0.930 . S
C411 H405 0.930 . S
C411 C412 1.355 . S
C411 C413 1.415 . S
C412 C411 1.355 . S
C412 C414 1.419 . S
C413 C411 1.415 . S
C413 C418 1.425 . S
C413 C420 1.409 . S
C414 H406 0.930 . S
C414 C412 1.419 . S
C414 C415 1.362 . S
C415 H407 0.930 . S
C415 C414 1.362 . S
C415 C418 1.409 . S
C416 H408 0.930 . S
C416 C417 1.355 . S
C416 C418 1.415 . S
C417 C416 1.355 . S
C417 C419 1.419 . S
C418 C413 1.425 . S
C418 C415 1.409 . S
C418 C416 1.415 . S
C419 H409 0.930 . S
C419 C417 1.419 . S
C419 C420 1.362 . S
C420 H410 0.930 . S
C420 C413 1.409 . S
C420 C419 1.362 . S
H421 C427 0.930 . S
H422 C430 0.930 1_554 S
H423 C431 0.930 . S
H424 C432 0.930 . S
H425 C435 0.930 . S
H426 C436 0.930 . S
C427 H421 0.930 . S
C427 C428 1.355 . S
C427 C429 1.415 . S
C428 C427 1.355 . S
C428 C430 1.419 . S
C429 C427 1.415 . S
C429 C434 1.425 . S
C429 C436 1.409 . S
C430 H422 0.930 1_556 S
C430 C428 1.419 . S
C430 C431 1.362 . S
C431 H423 0.930 . S
C431 C430 1.362 . S
C431 C434 1.409 . S
C432 H424 0.930 . S
C432 C433 1.355 . S
C432 C434 1.415 . S
C433 C432 1.355 . S
C433 C435 1.419 . S
C434 C429 1.425 . S
C434 C431 1.409 . S
C434 C432 1.415 . S
C435 H425 0.930 . S
C435 C433 1.419 . S
C435 C436 1.362 . S
C436 H426 0.930 . S
C436 C429 1.409 . S
C436 C435 1.362 . S
H437 C443 0.930 . S
H438 C446 0.930 . S
H439 C447 0.929 1_556 S
H440 C448 0.930 . S
H441 C451 0.930 . S
H442 C452 0.930 . S
C443 H437 0.930 . S
C443 C444 1.355 . S
C443 C445 1.415 1_554 S
C444 C443 1.355 . S
C444 C446 1.419 . S
C445 C443 1.415 1_556 S
C445 C450 1.425 . S
C445 C452 1.409 . S
C446 H438 0.930 . S
C446 C444 1.419 . S
C446 C447 1.365 . S
C447 H439 0.929 1_554 S
C447 C446 1.365 . S
C447 C450 1.408 1_554 S
C448 H440 0.930 . S
C448 C449 1.355 . S
C448 C450 1.415 . S
C449 C448 1.355 . S
C449 C451 1.419 . S
C450 C445 1.425 . S
C450 C447 1.408 1_556 S
C450 C448 1.415 . S
C451 H441 0.930 . S
C451 C449 1.419 . S
C451 C452 1.362 . S
C452 H442 0.930 . S
C452 C445 1.409 . S
C452 C451 1.362 . S
H453 C459 0.930 . S
H454 C462 0.930 . S
H455 C463 0.930 . S
H456 C464 0.930 . S
H457 C467 0.930 . S
H458 C468 0.930 1_554 S
C459 H453 0.930 . S
C459 C460 1.355 . S
C459 C461 1.415 1_554 S
C460 C459 1.355 . S
C460 C462 1.419 1_554 S
C461 C459 1.415 1_556 S
C461 C466 1.425 . S
C461 C468 1.409 . S
C462 H454 0.930 . S
C462 C460 1.419 1_556 S
C462 C463 1.362 . S
C463 H455 0.930 . S
C463 C462 1.362 . S
C463 C466 1.409 . S
C464 H456 0.930 . S
C464 C465 1.355 . S
C464 C466 1.415 . S
C465 C464 1.355 . S
C465 C467 1.419 . S
C466 C461 1.425 . S
C466 C463 1.409 . S
C466 C464 1.415 . S
C467 H457 0.930 . S
C467 C465 1.419 . S
C467 C468 1.362 . S
C468 H458 0.930 1_556 S
C468 C461 1.409 . S
C468 C467 1.362 . S
H469 C475 0.930 1_554 S
H470 C478 0.930 . S
H471 C479 0.930 . S
H472 C480 0.930 . S
H473 C483 0.930 . S
H474 C484 0.930 . S
C475 H469 0.930 1_556 S
C475 C476 1.355 . S
C475 C477 1.415 . S
C476 C475 1.355 . S
C476 C478 1.419 . S
C477 C475 1.415 . S
C477 C482 1.425 . S
C477 C484 1.409 . S
C478 H470 0.930 . S
C478 C476 1.419 . S
C478 C479 1.362 . S
C479 H471 0.930 . S
C479 C478 1.362 . S
C479 C482 1.409 . S
C480 H472 0.930 . S
C480 C481 1.355 . S
C480 C482 1.415 . S
C481 C480 1.355 . S
C481 C483 1.419 . S
C482 C477 1.425 . S
C482 C479 1.409 . S
C482 C480 1.415 . S
C483 H473 0.930 . S
C483 C481 1.419 . S
C483 C484 1.362 . S
C484 H474 0.930 . S
C484 C477 1.409 . S
C484 C483 1.362 . S
H485 C491 0.930 . S
H486 C494 0.930 . S
H487 C495 0.930 . S
H488 C496 0.930 . S
H489 C499 0.930 . S
H490 C500 0.930 . S
C491 H485 0.930 . S
C491 C492 1.355 . S
C491 C493 1.415 . S
C492 C491 1.355 . S
C492 C494 1.419 . S
C493 C491 1.415 . S
C493 C498 1.425 . S
C493 C500 1.409 . S
C494 H486 0.930 . S
C494 C492 1.419 . S
C494 C495 1.362 . S
C495 H487 0.930 . S
C495 C494 1.362 . S
C495 C498 1.409 . S
C496 H488 0.930 . S
C496 C497 1.355 . S
C496 C498 1.415 . S
C497 C496 1.355 . S
C497 C499 1.419 . S
C498 C493 1.425 . S
C498 C495 1.409 . S
C498 C496 1.415 . S
C499 H489 0.930 . S
C499 C497 1.419 . S
C499 C500 1.362 . S
C500 H490 0.930 . S
C500 C493 1.409 . S
C500 C499 1.362 . S
H501 C507 0.930 . S
H502 C510 0.930 . S
H503 C511 0.930 . S
H504 C512 0.930 . S
H505 C515 0.930 . S
H506 C516 0.930 . S
C507 H501 0.930 . S
C507 C508 1.355 . S
C507 C509 1.415 . S
C508 C507 1.355 . S
C508 C510 1.419 . S
C509 C507 1.415 . S
C509 C514 1.425 . S
C509 C516 1.409 . S
C510 H502 0.930 . S
C510 C508 1.419 . S
C510 C511 1.362 . S
C511 H503 0.930 . S
C511 C510 1.362 . S
C511 C514 1.409 . S
C512 H504 0.930 . S
C512 C513 1.355 . S
C512 C514 1.415 . S
C513 C512 1.355 . S
C513 C515 1.419 . S
C514 C509 1.425 . S
C514 C511 1.409 . S
C514 C512 1.415 . S
C515 H505 0.930 . S
C515 C513 1.419 . S
C515 C516 1.362 . S
C516 H506 0.930 . S
C516 C509 1.409 . S
C516 C515 1.362 . S
H517 C523 0.930 . S
H518 C526 0.930 . S
H519 C527 0.930 . S
H520 C528 0.930 . S
H521 C531 0.930 . S
H522 C532 0.930 . S
C523 H517 0.930 . S
C523 C524 1.355 . S
C523 C525 1.415 . S
C524 C523 1.355 . S
C524 C526 1.419 . S
C525 C523 1.415 . S
C525 C530 1.425 . S
C525 C532 1.409 . S
C526 H518 0.930 . S
C526 C524 1.419 . S
C526 C527 1.362 . S
C527 H519 0.930 . S
C527 C526 1.362 . S
C527 C530 1.409 . S
C528 H520 0.930 . S
C528 C529 1.355 . S
C528 C530 1.415 . S
C529 C528 1.355 . S
C529 C531 1.419 . S
C530 C525 1.425 . S
C530 C527 1.409 . S
C530 C528 1.415 . S
C531 H521 0.930 . S
C531 C529 1.419 . S
C531 C532 1.362 . S
C532 H522 0.930 . S
C532 C525 1.409 . S
C532 C531 1.362 . S
H533 C539 0.930 . S
H534 C542 0.930 . S
H535 C543 0.930 . S
H536 C544 0.930 . S
H537 C547 0.930 . S
H538 C548 0.930 . S
C539 H533 0.930 . S
C539 C540 1.355 . S
C539 C541 1.415 . S
C540 C539 1.355 . S
C540 C542 1.419 . S
C541 C539 1.415 . S
C541 C546 1.425 . S
C541 C548 1.409 . S
C542 H534 0.930 . S
C542 C540 1.419 . S
C542 C543 1.362 . S
C543 H535 0.930 . S
C543 C542 1.362 . S
C543 C546 1.409 . S
C544 H536 0.930 . S
C544 C545 1.355 . S
C544 C546 1.415 . S
C545 C544 1.355 . S
C545 C547 1.419 . S
C546 C541 1.425 . S
C546 C543 1.409 . S
C546 C544 1.415 . S
C547 H537 0.930 . S
C547 C545 1.419 . S
C547 C548 1.362 . S
C548 H538 0.930 . S
C548 C541 1.409 . S
C548 C547 1.362 . S
H549 C555 0.930 . S
H550 C558 0.930 . S
H551 C559 0.930 . S
H552 C560 0.930 . S
H553 C563 0.930 . S
H554 C564 0.930 . S
C555 H549 0.930 . S
C555 C556 1.355 . S
C555 C557 1.415 . S
C556 C555 1.355 . S
C556 C558 1.419 . S
C557 C555 1.415 . S
C557 C562 1.425 . S
C557 C564 1.409 . S
C558 H550 0.930 . S
C558 C556 1.419 . S
C558 C559 1.362 . S
C559 H551 0.930 . S
C559 C558 1.362 . S
C559 C562 1.409 . S
C560 H552 0.930 . S
C560 C561 1.355 . S
C560 C562 1.415 . S
C561 C560 1.355 . S
C561 C563 1.419 . S
C562 C557 1.425 . S
C562 C559 1.409 . S
C562 C560 1.415 . S
C563 H553 0.930 . S
C563 C561 1.419 . S
C563 C564 1.362 . S
C564 H554 0.930 . S
C564 C557 1.409 . S
C564 C563 1.362 . S
H565 C571 0.930 . S
H566 C574 0.930 . S
H567 C575 0.930 . S
H568 C576 0.930 . S
H569 C579 0.930 . S
H570 C580 0.930 . S
C571 H565 0.930 . S
C571 C572 1.355 . S
C571 C573 1.415 . S
C572 C571 1.355 . S
C572 C574 1.419 . S
C573 C571 1.415 . S
C573 C578 1.425 . S
C573 C580 1.409 . S
C574 H566 0.930 . S
C574 C572 1.419 . S
C574 C575 1.362 . S
C575 H567 0.930 . S
C575 C574 1.362 . S
C575 C578 1.409 . S
C576 H568 0.930 . S
C576 C577 1.355 . S
C576 C578 1.415 . S
C577 C576 1.355 . S
C577 C579 1.419 . S
C578 C573 1.425 . S
C578 C575 1.409 . S
C578 C576 1.415 . S
C579 H569 0.930 . S
C579 C577 1.419 . S
C579 C580 1.362 . S
C580 H570 0.930 . S
C580 C573 1.409 . S
C580 C579 1.362 . S
H581 C587 0.930 . S
H582 C590 0.930 . S
H583 C591 0.930 . S
H584 C592 0.930 . S
H585 C595 0.930 . S
H586 C596 0.930 . S
C587 H581 0.930 . S
C587 C588 1.355 . S
C587 C589 1.415 . S
C588 C587 1.355 . S
C588 C590 1.419 . S
C589 C587 1.415 . S
C589 C594 1.425 . S
C589 C596 1.409 . S
C590 H582 0.930 . S
C590 C588 1.419 . S
C590 C591 1.362 . S
C591 H583 0.930 . S
C591 C590 1.362 . S
C591 C594 1.409 . S
C592 H584 0.930 . S
C592 C593 1.355 . S
C592 C594 1.415 . S
C593 C592 1.355 . S
C593 C595 1.419 . S
C594 C589 1.425 . S
C594 C591 1.409 . S
C594 C592 1.415 . S
C595 H585 0.930 . S
C595 C593 1.419 . S
C595 C596 1.362 . S
C596 H586 0.930 . S
C596 C589 1.409 . S
C596 C595 1.362 . S
C220 C12 1.900 . S
C225 C131 1.834 . S
C236 C32 1.677 . S
C241 C178 1.692 . S
C257 C182 1.766 . S
C252 C52 1.845 . S
C273 C147 1.588 . S
C268 C75 1.555 . S
C284 C95 1.804 . S
C289 C162 1.758 . S
C305 C184 1.315 . S
C300 C115 1.286 . S
C321 C153 1.534 . S
C316 C58 1.564 . S
C332 C69 1.499 . S
C337 C193 1.596 . S
C353 C122 1.492 . S
C348 C89 1.439 1_556 S
C364 C109 1.510 . S
C369 C151 1.561 . S
C380 C18 1.919 . S
C385 C209 1.859 . S
C401 C120 1.578 . S
C396 C38 1.620 1_556 S
C417 C138 1.817 . S
C412 C78 1.811 . S
C433 C152 1.678 . S
C428 C98 1.621 1_556 S
C449 C206 1.734 . S
C444 C118 1.807 . S
C465 C121 1.589 . S
C460 C9 1.591 . S
C481 C169 1.769 . S
C476 C29 1.787 1_556 S
C492 C49 1.206 . S
C497 C192 1.209 . S
C513 C161 1.561 . S
C508 C112 1.585 . S
C529 C200 1.498 . S
C524 C15 1.535 . S
C545 C130 1.447 . S
C540 C35 1.410 . S
C561 C175 1.475 . S
C556 C55 1.509 . S
C572 C72 1.862 . S
C577 C183 1.845 . S
C588 C92 1.565 . S
C593 C144 1.537 . S
