# Generated by pormake.
# Topology ant, (3,6)-cn, num edge types: 1
# Building blocks:
#     Node 0, Type 0, BuildingBlock: BETDIP_clean_linker_0, # of connection points: 3
#     Node 1, Type 0, BuildingBlock: BETDIP_clean_linker_0, # of connection points: 3
#     Node 2, Type 0, BuildingBlock: BETDIP_clean_linker_0, # of connection points: 3
#     Node 3, Type 0, BuildingBlock: BETDIP_clean_linker_0, # of connection points: 3
#     Node 4, Type 0, BuildingBlock: BETDIP_clean_linker_0, # of connection points: 3
#     Node 5, Type 0, BuildingBlock: BETDIP_clean_linker_0, # of connection points: 3
#     Node 6, Type 0, BuildingBlock: BETDIP_clean_linker_0, # of connection points: 3
#     Node 7, Type 0, BuildingBlock: BETDIP_clean_linker_0, # of connection points: 3
#     Node 8, Type 1, BuildingBlock: MIDCAF_clean_sbu_0, # of connection points: 6
#     Node 9, Type 1, BuildingBlock: MIDCAF_clean_sbu_0, # of connection points: 6
#     Node 10, Type 1, BuildingBlock: MIDCAF_clean_sbu_0, # of connection points: 6
#     Node 11, Type 1, BuildingBlock: MIDCAF_clean_sbu_0, # of connection points: 6
#     Edge 12, Type (0, 1), BuildingBlock: MIFKUJ_clean_linker_0, # of connection points: 2
#     Edge 13, Type (0, 1), BuildingBlock: MIFKUJ_clean_linker_0, # of connection points: 2
#     Edge 14, Type (0, 1), BuildingBlock: MIFKUJ_clean_linker_0, # of connection points: 2
#     Edge 15, Type (0, 1), BuildingBlock: MIFKUJ_clean_linker_0, # of connection points: 2
#     Edge 16, Type (0, 1), BuildingBlock: MIFKUJ_clean_linker_0, # of connection points: 2
#     Edge 17, Type (0, 1), BuildingBlock: MIFKUJ_clean_linker_0, # of connection points: 2
#     Edge 18, Type (0, 1), BuildingBlock: MIFKUJ_clean_linker_0, # of connection points: 2
#     Edge 19, Type (0, 1), BuildingBlock: MIFKUJ_clean_linker_0, # of connection points: 2
#     Edge 20, Type (0, 1), BuildingBlock: MIFKUJ_clean_linker_0, # of connection points: 2
#     Edge 21, Type (0, 1), BuildingBlock: MIFKUJ_clean_linker_0, # of connection points: 2
#     Edge 22, Type (0, 1), BuildingBlock: MIFKUJ_clean_linker_0, # of connection points: 2
#     Edge 23, Type (0, 1), BuildingBlock: MIFKUJ_clean_linker_0, # of connection points: 2
#     Edge 24, Type (0, 1), BuildingBlock: MIFKUJ_clean_linker_0, # of connection points: 2
#     Edge 25, Type (0, 1), BuildingBlock: MIFKUJ_clean_linker_0, # of connection points: 2
#     Edge 26, Type (0, 1), BuildingBlock: MIFKUJ_clean_linker_0, # of connection points: 2
#     Edge 27, Type (0, 1), BuildingBlock: MIFKUJ_clean_linker_0, # of connection points: 2
#     Edge 28, Type (0, 1), BuildingBlock: MIFKUJ_clean_linker_0, # of connection points: 2
#     Edge 29, Type (0, 1), BuildingBlock: MIFKUJ_clean_linker_0, # of connection points: 2
#     Edge 30, Type (0, 1), BuildingBlock: MIFKUJ_clean_linker_0, # of connection points: 2
#     Edge 31, Type (0, 1), BuildingBlock: MIFKUJ_clean_linker_0, # of connection points: 2
#     Edge 32, Type (0, 1), BuildingBlock: MIFKUJ_clean_linker_0, # of connection points: 2
#     Edge 33, Type (0, 1), BuildingBlock: MIFKUJ_clean_linker_0, # of connection points: 2
#     Edge 34, Type (0, 1), BuildingBlock: MIFKUJ_clean_linker_0, # of connection points: 2
#     Edge 35, Type (0, 1), BuildingBlock: MIFKUJ_clean_linker_0, # of connection points: 2
# Relax obj value: 0.089
# Max RMSD: 0.189
# Mean RMSD: 0.128
data_MOF--net-ant--node1-MIDCAF_clean_sbu_0--node2-BETDIP_clean_linker_0--edge1-MIFKUJ_clean_linker_0
_symmetry_space_group_name_H-M    P1
_symmetry_Int_Tables_number       1
_symmetry_cell_setting            triclinic
loop_
_symmetry_equiv_pos_as_xyz
'x, y, z'
_cell_length_a     37.577951
_cell_length_b     37.350455
_cell_length_c     92.161159
_cell_angle_alpha  94.491168
_cell_angle_beta   93.511295
_cell_angle_gamma 89.930685
loop_
_atom_site_label
_atom_site_type_symbol
_atom_site_fract_x
_atom_site_fract_y
_atom_site_fract_z
_atom_type_partial_charge
H0 H 0.19502 0.25228 0.08972 0.0
H1 H 0.17692 0.16251 0.05797 0.0
H2 H 0.16583 0.26988 0.04484 0.0
H3 H 0.1455 0.14785 0.08042 0.0
C4 C 0.17134 0.1491 0.08645 0.0
C5 C 0.18831 0.24201 0.07857 0.0
C6 C 0.18085 0.26593 0.06766 0.0
C7 C 0.18634 0.2047 0.07516 0.0
C8 C 0.17803 0.19127 0.06068 0.0
C9 C 0.17071 0.21462 0.04973 0.0
C10 C 0.17202 0.25183 0.0533 0.0
N11 N 0.19241 0.18067 0.08629 0.0
H12 H 0.04813 0.81748 0.34146 0.0
H13 H 0.11002 0.81631 0.30376 0.0
H14 H 0.99889 0.78902 0.2985 0.0
H15 H 0.1109 0.79778 0.35074 0.0
C16 C 0.12738 0.81568 0.34523 0.0
C17 C 0.04989 0.81253 0.32979 0.0
C18 C 0.0189 0.80355 0.3207 0.0
C19 C 0.08283 0.8171 0.32355 0.0
C20 C 0.08471 0.81212 0.30844 0.0
C21 C 0.05474 0.80158 0.29936 0.0
C22 C 0.02199 0.79755 0.30554 0.0
N23 N 0.11447 0.82861 0.33182 0.0
H24 H 0.72257 0.75357 0.59282 0.0
H25 H 0.71151 0.67125 0.55744 0.0
H26 H 0.68358 0.78017 0.55011 0.0
H27 H 0.76837 0.65755 0.57072 0.0
C28 C 0.75476 0.65514 0.58068 0.0
C29 C 0.71502 0.74554 0.5815 0.0
C30 C 0.7032 0.77142 0.57199 0.0
C31 C 0.71891 0.70951 0.57622 0.0
C32 C 0.70913 0.6991 0.56151 0.0
C33 C 0.69649 0.72442 0.552 0.0
C34 C 0.69377 0.76049 0.55734 0.0
N35 N 0.73261 0.68384 0.58572 0.0
H36 H 0.54596 0.29691 0.84177 0.0
H37 H 0.60226 0.29818 0.80266 0.0
H38 H 0.48915 0.27858 0.79989 0.0
H39 H 0.64033 0.2629 0.81818 0.0
C40 C 0.64215 0.28322 0.82732 0.0
C41 C 0.54572 0.29491 0.82997 0.0
C42 C 0.51365 0.2879 0.82158 0.0
C43 C 0.5779 0.29712 0.82317 0.0
C44 C 0.57756 0.29469 0.80786 0.0
C45 C 0.54564 0.28823 0.79928 0.0
C46 C 0.51388 0.28448 0.8063 0.0
N47 N 0.61054 0.30065 0.83181 0.0
H48 H 0.02049 0.73615 0.90273 0.0
H49 H 0.06892 0.76923 0.94524 0.0
H50 H 0.04191 0.65828 0.93401 0.0
H51 H 0.03404 0.81968 0.94129 0.0
C52 C 0.04056 0.82374 0.93021 0.0
C53 C 0.03057 0.72972 0.91349 0.0
C54 C 0.02989 0.69406 0.91728 0.0
C55 C 0.04331 0.75729 0.92375 0.0
C56 C 0.05724 0.74845 0.93758 0.0
C57 C 0.05734 0.71265 0.94135 0.0
C58 C 0.04295 0.68587 0.93117 0.0
N59 N 0.0426 0.79349 0.91986 0.0
H60 H 0.63043 0.81324 0.15115 0.0
H61 H 0.69396 0.80955 0.19147 0.0
H62 H 0.57978 0.80685 0.19157 0.0
H63 H 0.72553 0.85432 0.17683 0.0
C64 C 0.72815 0.83227 0.16853 0.0
C65 C 0.63214 0.8119 0.16288 0.0
C66 C 0.60088 0.81102 0.1705 0.0
C67 C 0.66573 0.81243 0.17045 0.0
C68 C 0.66806 0.81058 0.18566 0.0
C69 C 0.63718 0.80794 0.19327 0.0
C70 C 0.60373 0.80864 0.18567 0.0
N71 N 0.6971 0.81337 0.16266 0.0
H72 H 0.55034 0.22603 0.40424 0.0
H73 H 0.60011 0.25941 0.4465 0.0
H74 H 0.56233 0.15089 0.43712 0.0
H75 H 0.53836 0.28565 0.40386 0.0
C76 C 0.55991 0.30008 0.41017 0.0
C77 C 0.55891 0.22041 0.41525 0.0
C78 C 0.55428 0.1856 0.41965 0.0
C79 C 0.57486 0.24743 0.42511 0.0
C80 C 0.58719 0.23878 0.43908 0.0
C81 C 0.58295 0.20399 0.44352 0.0
C82 C 0.56613 0.17776 0.43376 0.0
N83 N 0.57954 0.2834 0.42146 0.0
H84 H 0.1271 0.31535 0.65297 0.0
H85 H 0.18859 0.30973 0.69371 0.0
H86 H 0.07487 0.30112 0.69255 0.0
H87 H 0.22277 0.35035 0.683 0.0
C88 C 0.22478 0.33465 0.67264 0.0
C89 C 0.1283 0.31296 0.66463 0.0
C90 C 0.09678 0.30773 0.67175 0.0
C91 C 0.16154 0.31463 0.67253 0.0
C92 C 0.16312 0.31 0.68755 0.0
C93 C 0.132 0.30545 0.69479 0.0
C94 C 0.09894 0.30472 0.6869 0.0
N95 N 0.19328 0.31955 0.66523 0.0
Zn96 Zn 0.19317 0.68259 0.13603 0.0
Zn97 Zn 0.12184 0.76508 0.10311 0.0
Zn98 Zn 0.15862 0.72418 0.11997 0.0
C99 C 0.12875 0.7004 0.08688 0.0
C100 C 0.18643 0.80032 0.10983 0.0
O101 O 0.1313 0.72406 0.14067 0.0
O102 O 0.17157 0.69742 0.15456 0.0
C103 C 0.16628 0.6379 0.11331 0.0
O104 O 0.14733 0.69331 0.09853 0.0
O105 O 0.113 0.7301 0.0862 0.0
O106 O 0.1582 0.80261 0.10181 0.0
O107 O 0.19147 0.77312 0.11751 0.0
O108 O 0.17763 0.63596 0.12638 0.0
O109 O 0.16083 0.66891 0.1083 0.0
O110 O 0.21254 0.74766 0.12457 0.0
O111 O 0.24143 0.70073 0.13253 0.0
C112 C 0.24188 0.73219 0.12845 0.0
O113 O 0.10798 0.73928 0.13035 0.0
O114 O 0.08175 0.77644 0.11547 0.0
C115 C 0.14247 0.71412 0.15324 0.0
C116 C 0.08172 0.75987 0.12687 0.0
Zn117 Zn 0.54252 0.70862 0.35555 0.0
Zn118 Zn 0.61927 0.78741 0.38892 0.0
Zn119 Zn 0.58267 0.75025 0.37293 0.0
C120 C 0.57088 0.83286 0.37786 0.0
C121 C 0.66586 0.76131 0.37016 0.0
O122 O 0.57917 0.69701 0.38264 0.0
O123 O 0.55045 0.66339 0.36484 0.0
C124 C 0.49864 0.76409 0.36579 0.0
O125 O 0.55447 0.80237 0.37635 0.0
O126 O 0.6039 0.83365 0.38131 0.0
O127 O 0.66679 0.76841 0.38378 0.0
O128 O 0.63525 0.75833 0.36296 0.0
O129 O 0.49669 0.73329 0.35911 0.0
O130 O 0.52914 0.77698 0.3709 0.0
O131 O 0.60861 0.74705 0.35216 0.0
O132 O 0.5677 0.71703 0.33776 0.0
C133 C 0.59672 0.73432 0.33939 0.0
O134 O 0.59185 0.72344 0.39348 0.0
O135 O 0.60003 0.77385 0.40733 0.0
C136 C 0.5666 0.66627 0.37728 0.0
C137 C 0.59421 0.74046 0.40623 0.0
Zn138 Zn 0.62275 0.26319 0.60128 0.0
Zn139 Zn 0.68277 0.19424 0.64279 0.0
Zn140 Zn 0.65457 0.22942 0.6216 0.0
C141 C 0.73408 0.24403 0.63586 0.0
C142 C 0.66825 0.14313 0.61985 0.0
O143 O 0.6013 0.2493 0.62871 0.0
O144 O 0.58004 0.28074 0.61079 0.0
C145 C 0.68647 0.29946 0.60822 0.0
O146 O 0.70807 0.25387 0.62729 0.0
O147 O 0.73011 0.21777 0.64346 0.0
O148 O 0.6766 0.14516 0.63335 0.0
O149 O 0.66112 0.17189 0.61332 0.0
O150 O 0.66046 0.29847 0.59887 0.0
O151 O 0.68903 0.27604 0.61781 0.0
O152 O 0.64775 0.19131 0.60173 0.0
O153 O 0.61582 0.22304 0.58639 0.0
C154 C 0.63101 0.1941 0.58923 0.0
O155 O 0.62025 0.23506 0.64054 0.0
O156 O 0.65077 0.20907 0.65817 0.0
C157 C 0.57652 0.26889 0.62306 0.0
C158 C 0.62396 0.22647 0.65384 0.0
Zn159 Zn 0.04733 0.21371 0.85344 0.0
Zn160 Zn 0.11462 0.2986 0.89541 0.0
Zn161 Zn 0.08062 0.25697 0.87482 0.0
C162 C 0.09712 0.23604 0.90772 0.0
C163 C 0.05764 0.33825 0.8849 0.0
O164 O 0.11159 0.25595 0.85513 0.0
O165 O 0.08097 0.22094 0.83828 0.0
C166 C 0.06176 0.17226 0.87703 0.0
O167 O 0.08876 0.22618 0.89425 0.0
O168 O 0.10611 0.2681 0.91157 0.0
O169 O 0.0862 0.34221 0.89277 0.0
O170 O 0.04932 0.30742 0.8783 0.0
O171 O 0.0509 0.16899 0.86375 0.0
O172 O 0.07236 0.20309 0.88304 0.0
O173 O 0.02805 0.28116 0.87043 0.0
O174 O 1.0023 0.24261 0.85348 0.0
C175 C 1.00093 0.27094 0.86189 0.0
O176 O 0.13372 0.2691 0.86715 0.0
O177 O 0.16169 0.2968 0.88667 0.0
C178 C 0.10719 0.24139 0.84199 0.0
C179 C 0.16217 0.28341 0.87367 0.0
H180 H 0.15189 0.30372 0.09074 0.0
H181 H 0.14676 0.369 0.09508 0.0
H182 H 0.20305 0.38306 0.05651 0.0
H183 H 0.20894 0.31786 0.0523 0.0
H184 H 0.22534 0.43116 0.07859 0.0
H185 H 0.11362 0.39185 0.05546 0.0
H186 H 0.05893 0.35505 0.05173 0.0
H187 H 0.0264 0.39473 0.09385 0.0
H188 H 0.08119 0.43139 0.09794 0.0
H189 H 0.18607 0.61811 0.08559 0.0
H190 H 0.18416 0.55693 0.07347 0.0
H191 H 0.13088 0.51953 0.10964 0.0
H192 H 0.13218 0.58025 0.12147 0.0
H193 H 0.10571 0.48489 0.08437 0.0
H194 H 0.22138 0.51626 0.10872 0.0
H195 H 0.2763 0.5527 0.11283 0.0
H196 H 0.301 0.52765 0.0683 0.0
H197 H 0.24593 0.49141 0.06389 0.0
C198 C 0.16367 0.32072 0.08332 0.0
C199 C 0.18065 0.30557 0.07113 0.0
C200 C 0.16037 0.35803 0.08571 0.0
C201 C 0.17394 0.38096 0.07596 0.0
C202 C 0.19211 0.36595 0.06411 0.0
C203 C 0.19531 0.32867 0.06169 0.0
C204 C 0.16893 0.42053 0.07812 0.0
C205 C 0.19911 0.44294 0.07958 0.0
C206 C 0.13475 0.43602 0.07949 0.0
C207 C 0.10167 0.41416 0.07705 0.0
C208 C 0.09494 0.39253 0.06398 0.0
C209 C 0.0639 0.37173 0.06179 0.0
C210 C 0.03924 0.3725 0.07256 0.0
C211 C 0.04554 0.39414 0.08552 0.0
C212 C 0.07657 0.41497 0.08778 0.0
C213 C 0.17273 0.59705 0.0906 0.0
C214 C 0.15906 0.60384 0.10438 0.0
C215 C 0.17206 0.56204 0.0838 0.0
C216 C 0.1578 0.53349 0.09075 0.0
C217 C 0.14201 0.54098 0.10405 0.0
C218 C 0.14285 0.57569 0.11082 0.0
C219 C 0.16215 0.49533 0.0852 0.0
C220 C 0.13185 0.47313 0.0831 0.0
C221 C 0.1962 0.48001 0.08326 0.0
C222 C 0.22939 0.50151 0.08594 0.0
C223 C 0.23842 0.51874 0.09979 0.0
C224 C 0.26957 0.53932 0.10217 0.0
C225 C 0.29207 0.54258 0.09082 0.0
C226 C 0.28351 0.52516 0.07707 0.0
C227 C 0.25234 0.5046 0.07462 0.0
H228 H 0.31618 0.55853 0.09268 0.0
H229 H 0.01522 0.35637 0.07084 0.0
H230 H 1.00023 0.77222 0.34533 0.0
H231 H 0.93989 0.76329 0.35327 0.0
H232 H 0.89591 0.81843 0.31688 0.0
H233 H 0.95578 0.82875 0.30934 0.0
H234 H 0.86092 0.83772 0.33929 0.0
H235 H 0.89636 0.7243 0.31695 0.0
H236 H 0.93489 0.67131 0.31315 0.0
H237 H 0.92101 0.64433 0.35689 0.0
H238 H 0.88276 0.69746 0.36102 0.0
H239 H 0.68172 0.78316 0.34354 0.0
H240 H 0.74061 0.78675 0.33379 0.0
H241 H 0.78747 0.73998 0.37177 0.0
H242 H 0.72845 0.73553 0.38126 0.0
H243 H 0.82012 0.71516 0.34763 0.0
H244 H 0.78461 0.83101 0.36948 0.0
H245 H 0.74461 0.88321 0.37213 0.0
H246 H 0.75758 0.90467 0.32765 0.0
H247 H 0.79744 0.85239 0.32472 0.0
C248 C 0.97772 0.78292 0.33918 0.0
C249 C 0.9829 0.80075 0.32658 0.0
C250 C 0.94316 0.77742 0.34361 0.0
C251 C 0.9131 0.78947 0.33549 0.0
C252 C 0.91845 0.80857 0.32329 0.0
C253 C 0.95281 0.81421 0.31892 0.0
C254 C 0.87602 0.78207 0.3395 0.0
C255 C 0.85199 0.81081 0.34094 0.0
C256 C 0.86412 0.74706 0.34179 0.0
C257 C 0.88701 0.71506 0.33934 0.0
C258 C 0.90175 0.70721 0.32579 0.0
C259 C 0.9235 0.67713 0.32357 0.0
C260 C 0.93048 0.65453 0.33479 0.0
C261 C 0.91563 0.6619 0.34823 0.0
C262 C 0.89389 0.69198 0.35051 0.0
C263 C 0.70428 0.77233 0.34947 0.0
C264 C 0.70023 0.75862 0.36302 0.0
C265 C 0.73814 0.77489 0.34402 0.0
C266 C 0.7687 0.76398 0.35211 0.0
C267 C 0.76443 0.74859 0.36531 0.0
C268 C 0.73065 0.74616 0.37074 0.0
C269 C 0.80527 0.77082 0.34748 0.0
C270 C 0.82915 0.74201 0.34593 0.0
C271 C 0.81696 0.8057 0.34494 0.0
C272 C 0.7936 0.83754 0.34682 0.0
C273 C 0.77875 0.84675 0.36024 0.0
C274 C 0.75615 0.87637 0.36181 0.0
C275 C 0.74845 0.89717 0.35006 0.0
C276 C 0.76349 0.88849 0.33674 0.0
C277 C 0.7861 0.85888 0.33512 0.0
H278 H 0.73092 0.92008 0.35128 0.0
H279 H 0.94732 0.63125 0.33305 0.0
H280 H 0.78519 0.59454 0.56968 0.0
H281 H 0.78218 0.53432 0.57822 0.0
H282 H 0.72412 0.57589 0.61475 0.0
H283 H 0.72641 0.6365 0.60606 0.0
H284 H 0.78823 0.51547 0.61795 0.0
H285 H 0.67181 0.54422 0.59497 0.0
H286 H 0.63395 0.5688 0.57533 0.0
H287 H 0.68003 0.49504 0.54369 0.0
H288 H 0.71861 0.47046 0.56315 0.0
H289 H 0.70714 0.34564 0.63163 0.0
H290 H 0.72918 0.40706 0.63024 0.0
H291 H 0.74165 0.38455 0.58418 0.0
H292 H 0.71825 0.32408 0.5855 0.0
H293 H 0.69977 0.43844 0.58798 0.0
H294 H 0.81346 0.40677 0.60955 0.0
H295 H 0.856 0.3829 0.62771 0.0
H296 H 0.82015 0.45983 0.66072 0.0
H297 H 0.77715 0.48408 0.64271 0.0
C298 C 0.77224 0.59098 0.57966 0.0
C299 C 0.7558 0.62007 0.58714 0.0
C300 C 0.77069 0.55663 0.58455 0.0
C301 C 0.75307 0.55078 0.59712 0.0
C302 C 0.7381 0.58004 0.60508 0.0
C303 C 0.73922 0.61452 0.60006 0.0
C304 C 0.74683 0.51346 0.60071 0.0
C305 C 0.76849 0.49861 0.61164 0.0
C306 C 0.72184 0.49143 0.59215 0.0
C307 C 0.69833 0.50581 0.58048 0.0
C308 C 0.6741 0.5335 0.58381 0.0
C309 C 0.65247 0.54738 0.57272 0.0
C310 C 0.65466 0.53356 0.55827 0.0
C311 C 0.6784 0.50576 0.55489 0.0
C312 C 0.70014 0.49183 0.56594 0.0
C313 C 0.71599 0.3535 0.62137 0.0
C314 C 0.71091 0.33037 0.60864 0.0
C315 C 0.72849 0.38863 0.62055 0.0
C316 C 0.73665 0.4007 0.60704 0.0
C317 C 0.7351 0.37612 0.59468 0.0
C318 C 0.72203 0.34144 0.59545 0.0
C319 C 0.74152 0.43963 0.6052 0.0
C320 C 0.71943 0.45499 0.59451 0.0
C321 C 0.76638 0.46179 0.61391 0.0
C322 C 0.7918 0.44697 0.62481 0.0
C323 C 0.81438 0.41837 0.62071 0.0
C324 C 0.83865 0.40482 0.63098 0.0
C325 C 0.84068 0.41973 0.6454 0.0
C326 C 0.81849 0.44828 0.64956 0.0
C327 C 0.79421 0.46197 0.63931 0.0
H328 H 0.8595 0.4093 0.65336 0.0
H329 H 0.63789 0.54435 0.54969 0.0
H330 H 0.70167 0.24445 0.8236 0.0
H331 H 0.76086 0.25476 0.83566 0.0
H332 H 0.72157 0.34731 0.86069 0.0
H333 H 0.66178 0.33685 0.84865 0.0
H334 H 0.78583 0.36015 0.84782 0.0
H335 H 0.74046 0.27715 0.87847 0.0
H336 H 0.70957 0.22258 0.88454 0.0
H337 H 0.78784 0.15678 0.86335 0.0
H338 H 0.81892 0.21094 0.85697 0.0
H339 H 0.96654 0.2944 0.88596 0.0
H340 H 0.90371 0.31279 0.88648 0.0
H341 H 0.89595 0.30879 0.8395 0.0
H342 H 0.95808 0.28927 0.83896 0.0
H343 H 0.85175 0.26322 0.87165 0.0
H344 H 0.83526 0.37512 0.83095 0.0
H345 H 0.86358 0.4324 0.82639 0.0
H346 H 0.90708 0.44386 0.87071 0.0
H347 H 0.87923 0.38663 0.8755 0.0
C348 C 0.70557 0.26683 0.83176 0.0
C349 C 0.6772 0.28972 0.83525 0.0
C350 C 0.73934 0.27263 0.83867 0.0
C351 C 0.7455 0.30157 0.84918 0.0
C352 C 0.71725 0.32471 0.85267 0.0
C353 C 0.68318 0.31865 0.84583 0.0
C354 C 0.78201 0.30786 0.85593 0.0
C355 C 0.80019 0.33919 0.8532 0.0
C356 C 0.80041 0.28093 0.86332 0.0
C357 C 0.78196 0.24817 0.8672 0.0
C358 C 0.75097 0.25105 0.87503 0.0
C359 C 0.73344 0.22018 0.87853 0.0
C360 C 0.74672 0.18624 0.87432 0.0
C361 C 0.7776 0.1831 0.86662 0.0
C362 C 0.79522 0.21389 0.86307 0.0
C363 C 0.95166 0.29867 0.87581 0.0
C364 C 0.9669 0.29044 0.86242 0.0
C365 C 0.91585 0.30906 0.87611 0.0
C366 C 0.89529 0.31227 0.86303 0.0
C367 C 0.91147 0.30687 0.84972 0.0
C368 C 0.94687 0.29562 0.8494 0.0
C369 C 0.85594 0.31468 0.86287 0.0
C370 C 0.83721 0.28469 0.86668 0.0
C371 C 0.83704 0.34296 0.85662 0.0
C372 C 0.85523 0.37651 0.85356 0.0
C373 C 0.85093 0.38983 0.83971 0.0
C374 C 0.86695 0.42227 0.83708 0.0
C375 C 0.88707 0.44178 0.84825 0.0
C376 C 0.89156 0.42869 0.86204 0.0
C377 C 0.87587 0.39613 0.86469 0.0
H378 H 0.89917 0.46704 0.84622 0.0
H379 H 0.7331 0.16237 0.87705 0.0
H380 H 0.96738 0.65829 0.9177 0.0
H381 H 0.95387 0.59814 0.90611 0.0
H382 H 0.05081 0.60057 0.88341 0.0
H383 H 0.06375 0.66115 0.89475 0.0
H384 H 0.9993 0.55953 0.86747 0.0
H385 H 0.05331 0.57014 0.9165 0.0
H386 H 0.05727 0.59217 0.94249 0.0
H387 H 0.9567 0.54241 0.94829 0.0
H388 H 0.95201 0.52038 0.92226 0.0
H389 H 0.08196 0.39139 0.87045 0.0
H390 H 0.05896 0.45229 0.8702 0.0
H391 H 0.9672 0.42101 0.8923 0.0
H392 H 0.99111 0.35965 0.89286 0.0
H393 H 1.001 0.47601 0.90679 0.0
H394 H 0.96282 0.44883 0.85744 0.0
H395 H 0.96534 0.42707 0.83163 0.0
H396 H 0.04483 0.50649 0.82608 0.0
H397 H 0.04297 0.52856 0.85191 0.0
C398 C 0.98485 0.64654 0.90971 0.0
C399 C 0.01643 0.66419 0.90699 0.0
C400 C 0.9773 0.61214 0.90317 0.0
C401 C 1.00169 0.59457 0.89411 0.0
C402 C 0.03159 0.61359 0.89035 0.0
C403 C 0.03896 0.64819 0.89679 0.0
C404 C 0.99933 0.55508 0.89057 0.0
C405 C 0.99968 0.54109 0.876 0.0
C406 C 0.99919 0.53114 0.90175 0.0
C407 C 1.00209 0.54401 0.91742 0.0
C408 C 0.03194 0.5641 0.9233 0.0
C409 C 0.03433 0.57656 0.93803 0.0
C410 C 0.00718 0.56883 0.94702 0.0
C411 C 0.97766 0.54846 0.9413 0.0
C412 C 0.97513 0.53596 0.92656 0.0
C413 C 0.05623 0.39724 0.87479 0.0
C414 C 0.03806 0.37097 0.88155 0.0
C415 C 0.043 0.43206 0.8746 0.0
C416 C 0.01116 0.44135 0.88113 0.0
C417 C 0.99173 0.41442 0.88712 0.0
C418 C 0.00514 0.37935 0.88733 0.0
C419 C 1.00169 0.47996 0.88361 0.0
C420 C 0.99946 0.49403 0.8981 0.0
C421 C 1.00112 0.50379 0.87232 0.0
C422 C 1.0025 0.49052 0.8567 0.0
C423 C 0.9808 0.4617 0.85075 0.0
C424 C 0.98217 0.44925 0.83609 0.0
C425 C 0.0052 0.46542 0.82721 0.0
C426 C 0.02691 0.49405 0.83297 0.0
C427 C 0.02561 0.50661 0.84763 0.0
H428 H 0.00625 0.45574 0.81586 0.0
H429 H 0.00907 0.57852 0.95842 0.0
H430 H 0.74947 0.76944 0.15407 0.0
H431 H 0.81046 0.75302 0.148 0.0
H432 H 0.84832 0.85669 0.16645 0.0
H433 H 0.78771 0.87288 0.17285 0.0
H434 H 0.87167 0.83227 0.13725 0.0
H435 H 0.86261 0.79313 0.18602 0.0
H436 H 0.83643 0.75834 0.2044 0.0
H437 H 0.85643 0.66018 0.17878 0.0
H438 H 0.8822 0.69448 0.16011 0.0
H439 H 0.05437 0.82135 0.1388 0.0
H440 H 0.99482 0.82968 0.14775 0.0
H441 H 0.97656 0.71523 0.14161 0.0
H442 H 0.03738 0.70681 0.13358 0.0
H443 H 0.94037 0.73995 0.16283 0.0
H444 H 0.9501 0.77368 0.11484 0.0
H445 H 0.97476 0.80418 0.09489 0.0
H446 H 0.95019 0.90677 0.11623 0.0
H447 H 0.92585 0.87689 0.13644 0.0
C448 C 0.77079 0.78878 0.15672 0.0
C449 C 0.76401 0.82253 0.16386 0.0
C450 C 0.80555 0.7793 0.15332 0.0
C451 C 0.83377 0.80365 0.15683 0.0
C452 C 0.82683 0.83759 0.16366 0.0
C453 C 0.7923 0.84679 0.1673 0.0
C454 C 0.87071 0.79398 0.15346 0.0
C455 C 0.88691 0.81242 0.14296 0.0
C456 C 0.88986 0.76694 0.16047 0.0
C457 C 0.87386 0.7464 0.17157 0.0
C458 C 0.86095 0.76417 0.1842 0.0
C459 C 0.84632 0.74453 0.1947 0.0
C460 C 0.84464 0.70708 0.19273 0.0
C461 C 0.85763 0.6892 0.18027 0.0
C462 C 0.87224 0.70872 0.16972 0.0
C463 C 0.03798 0.79795 0.13983 0.0
C464 C 0.05012 0.76351 0.13548 0.0
C465 C 0.00383 0.80269 0.14477 0.0
C466 C 0.98058 0.77324 0.14476 0.0
C467 C 0.99377 0.73844 0.14153 0.0
C468 C 0.0285 0.73359 0.13699 0.0
C469 C 0.94207 0.77928 0.14702 0.0
C470 C 0.92533 0.75991 0.15715 0.0
C471 C 0.92202 0.80489 0.13939 0.0
C472 C 0.93642 0.82303 0.12722 0.0
C473 C 0.95015 0.80275 0.11533 0.0
C474 C 0.96406 0.81993 0.10397 0.0
C475 C 0.96411 0.85739 0.10431 0.0
C476 C 0.95017 0.87775 0.11599 0.0
C477 C 0.93628 0.86071 0.1274 0.0
H478 H 0.97489 0.87065 0.0955 0.0
H479 H 0.83337 0.69192 0.20089 0.0
H480 H 0.61239 0.34594 0.42284 0.0
H481 H 0.61952 0.40983 0.41945 0.0
H482 H 0.52578 0.40549 0.38985 0.0
H483 H 0.51921 0.34141 0.39291 0.0
H484 H 0.57451 0.44244 0.37911 0.0
H485 H 0.52642 0.44247 0.42629 0.0
H486 H 0.5242 0.42731 0.45179 0.0
H487 H 0.62513 0.47959 0.46258 0.0
H488 H 0.62818 0.49464 0.43708 0.0
H489 H 0.51411 0.6194 0.38078 0.0
H490 H 0.52018 0.55905 0.38912 0.0
H491 H 0.63241 0.57762 0.3994 0.0
H492 H 0.62662 0.63799 0.39045 0.0
H493 H 0.58285 0.53534 0.42076 0.0
H494 H 0.62782 0.53642 0.37239 0.0
H495 H 0.62443 0.55385 0.34708 0.0
H496 H 0.5233 0.50029 0.33895 0.0
H497 H 0.52585 0.48307 0.36431 0.0
C498 C 0.59332 0.35861 0.4156 0.0
C499 C 0.56511 0.33871 0.40816 0.0
C500 C 0.59732 0.39523 0.41373 0.0
C501 C 0.57293 0.41276 0.40453 0.0
C502 C 0.54499 0.3927 0.39701 0.0
C503 C 0.54117 0.35609 0.39878 0.0
C504 C 0.57649 0.45181 0.40253 0.0
C505 C 0.57627 0.46259 0.38827 0.0
C506 C 0.57948 0.47841 0.41443 0.0
C507 C 0.57774 0.46927 0.42974 0.0
C508 C 0.5483 0.45045 0.43407 0.0
C509 C 0.54686 0.44193 0.44853 0.0
C510 C 0.57457 0.45237 0.45878 0.0
C511 C 0.60373 0.47144 0.45461 0.0
C512 C 0.60532 0.47998 0.44016 0.0
C513 C 0.53991 0.61098 0.38518 0.0
C514 C 0.56978 0.6336 0.38529 0.0
C515 C 0.54332 0.57655 0.38994 0.0
C516 C 0.57668 0.56398 0.3949 0.0
C517 C 0.60635 0.58709 0.39577 0.0
C518 C 0.60298 0.62163 0.39082 0.0
C519 C 0.58058 0.52543 0.39743 0.0
C520 C 0.5819 0.51488 0.41171 0.0
C521 C 0.57822 0.49896 0.38558 0.0
C522 C 0.57688 0.50876 0.37028 0.0
C523 C 0.60472 0.52864 0.36524 0.0
C524 C 0.60298 0.53843 0.35088 0.0
C525 C 0.57363 0.52826 0.34142 0.0
C526 C 0.54601 0.50818 0.3463 0.0
C527 C 0.5476 0.49837 0.36066 0.0
H528 H 0.57232 0.53586 0.33031 0.0
H529 H 0.57339 0.44577 0.46997 0.0
H530 H 0.06754 0.35103 0.65137 0.0
H531 H 0.00671 0.34773 0.63981 0.0
H532 H 0.98581 0.25389 0.66247 0.0
H533 H 0.04623 0.25674 0.67376 0.0
H534 H 0.9579 0.24585 0.63497 0.0
H535 H 0.96112 0.33841 0.67546 0.0
H536 H 0.98109 0.39559 0.68865 0.0
H537 H 0.94516 0.45283 0.65188 0.0
H538 H 0.92554 0.39587 0.63839 0.0
H539 H 0.78415 0.24415 0.65825 0.0
H540 H 0.84594 0.26387 0.65873 0.0
H541 H 0.82711 0.30364 0.6163 0.0
H542 H 0.76501 0.28229 0.6154 0.0
H543 H 0.87511 0.3454 0.64752 0.0
H544 H 0.86659 0.24982 0.6075 0.0
H545 H 0.84312 0.19133 0.59676 0.0
H546 H 0.88735 0.14012 0.63388 0.0
H547 H 0.91056 0.19846 0.64493 0.0
C548 C 0.05005 0.32942 0.65367 0.0
C549 C 0.06146 0.30436 0.66358 0.0
C550 C 0.0153 0.32768 0.64714 0.0
C551 C 0.99158 0.30075 0.65038 0.0
C552 C 0.00357 0.27491 0.65979 0.0
C553 C 0.03804 0.27673 0.66633 0.0
C554 C 0.95364 0.29994 0.64473 0.0
C555 C 0.93999 0.26801 0.63743 0.0
C556 C 0.9301 0.32884 0.64781 0.0
C557 C 0.94234 0.36289 0.65586 0.0
C558 C 0.95784 0.36316 0.67014 0.0
C559 C 0.96904 0.39553 0.67768 0.0
C560 C 0.96453 0.42781 0.67109 0.0
C561 C 0.94877 0.4278 0.65695 0.0
C562 C 0.93765 0.39549 0.64935 0.0
C563 C 0.79286 0.25746 0.64905 0.0
C564 C 0.76953 0.2617 0.63677 0.0
C565 C 0.82819 0.26883 0.64939 0.0
C566 C 0.84102 0.28493 0.63753 0.0
C567 C 0.81754 0.29122 0.62556 0.0
C568 C 0.78199 0.27938 0.62513 0.0
C569 C 0.87975 0.29187 0.63752 0.0
C570 C 0.89343 0.32438 0.64416 0.0
C571 C 0.90337 0.26366 0.63379 0.0
C572 C 0.89002 0.2285 0.62708 0.0
C573 C 0.87103 0.22612 0.61342 0.0
C574 C 0.85783 0.193 0.60727 0.0
C575 C 0.86367 0.16204 0.61465 0.0
C576 C 0.88282 0.16412 0.62818 0.0
C577 C 0.89603 0.1972 0.63438 0.0
H578 H 0.85342 0.13642 0.60987 0.0
H579 H 0.97315 0.45285 0.67695 0.0
H580 H 0.28719 0.34755 0.68805 0.0
H581 H 0.34738 0.33473 0.68053 0.0
H582 H 0.30396 0.292 0.63827 0.0
H583 H 0.24337 0.30356 0.64603 0.0
H584 H 0.35721 0.25163 0.6469 0.0
H585 H 0.34058 0.37855 0.64418 0.0
H586 H 0.32581 0.44029 0.65332 0.0
H587 H 0.41023 0.43816 0.68682 0.0
H588 H 0.42516 0.37622 0.67801 0.0
H589 H 0.53275 0.32567 0.6194 0.0
H590 H 0.47364 0.33542 0.6283 0.0
H591 H 0.48519 0.24078 0.65224 0.0
H592 H 0.54323 0.22914 0.64206 0.0
H593 H 0.44665 0.35003 0.65193 0.0
H594 H 0.40524 0.20141 0.65497 0.0
H595 H 0.41833 0.1416 0.6432 0.0
H596 H 0.44769 0.18994 0.60487 0.0
H597 H 0.43436 0.24996 0.61634 0.0
C598 C 0.29052 0.33542 0.67715 0.0
C599 C 0.26074 0.32681 0.66758 0.0
C600 C 0.32492 0.32819 0.67284 0.0
C601 C 0.33032 0.31298 0.65874 0.0
C602 C 0.30048 0.30382 0.6492 0.0
C603 C 0.26591 0.31058 0.6536 0.0
C604 C 0.3671 0.3073 0.65392 0.0
C605 C 0.37687 0.27307 0.6481 0.0
C606 C 0.39267 0.33537 0.65522 0.0
C607 C 0.38379 0.37266 0.6605 0.0
C608 C 0.35583 0.39118 0.65355 0.0
C609 C 0.34745 0.42621 0.65867 0.0
C610 C 0.36702 0.44311 0.67066 0.0
C611 C 0.39507 0.42503 0.67754 0.0
C612 C 0.40353 0.38998 0.67248 0.0
C613 C 0.5228 0.30698 0.62662 0.0
C614 C 0.54299 0.27691 0.63028 0.0
C615 C 0.48898 0.3127 0.63178 0.0
C616 C 0.47454 0.28867 0.64083 0.0
C617 C 0.49535 0.25944 0.64506 0.0
C618 C 0.52899 0.25327 0.63959 0.0
C619 C 0.43739 0.29399 0.64537 0.0
C620 C 0.42736 0.32828 0.65101 0.0
C621 C 0.4115 0.26616 0.64364 0.0
C622 C 0.41917 0.23017 0.63658 0.0
C623 C 0.41437 0.19924 0.64401 0.0
C624 C 0.42186 0.16532 0.6374 0.0
C625 C 0.43395 0.16199 0.62332 0.0
C626 C 0.43845 0.19257 0.61579 0.0
C627 C 0.43097 0.22654 0.62235 0.0
H628 H 0.43976 0.13571 0.61822 0.0
H629 H 0.36048 0.47023 0.6746 0.0
H630 H 0.54524 0.85376 0.17801 0.0
H631 H 0.48378 0.8503 0.16769 0.0
H632 H 0.51358 0.76694 0.13567 0.0
H633 H 0.5755 0.77074 0.14589 0.0
H634 H 0.46283 0.8103 0.12407 0.0
H635 H 0.47929 0.74421 0.16603 0.0
H636 H 0.49795 0.73318 0.19139 0.0
H637 H 0.42607 0.81469 0.20711 0.0
H638 H 0.40733 0.82662 0.18179 0.0
H639 H 0.30137 0.70618 0.1165 0.0
H640 H 0.36182 0.73094 0.12039 0.0
H641 H 0.32137 0.82272 0.14553 0.0
H642 H 0.26063 0.79798 0.1415 0.0
H643 H 0.37606 0.78138 0.15997 0.0
H644 H 0.35201 0.83538 0.1152 0.0
H645 H 0.33281 0.83605 0.08919 0.0
H646 H 0.41954 0.76667 0.07774 0.0
H647 H 0.4386 0.76448 0.10372 0.0
C648 C 0.53877 0.83501 0.16866 0.0
C649 C 0.56499 0.81214 0.16288 0.0
C650 C 0.50367 0.8331 0.16275 0.0
C651 C 0.49393 0.80791 0.15108 0.0
C652 C 0.52049 0.78655 0.14469 0.0
C653 C 0.55581 0.78869 0.15054 0.0
C654 C 0.45568 0.80164 0.14654 0.0
C655 C 0.44384 0.8038 0.13188 0.0
C656 C 0.43087 0.79336 0.15676 0.0
C657 C 0.44222 0.7866 0.17202 0.0
C658 C 0.46771 0.76004 0.17489 0.0
C659 C 0.47826 0.75358 0.18925 0.0
C660 C 0.46324 0.77325 0.20085 0.0
C661 C 0.43769 0.79951 0.19811 0.0
C662 C 0.42709 0.80613 0.18375 0.0
C663 C 0.30533 0.73215 0.12249 0.0
C664 C 0.27648 0.75055 0.12854 0.0
C665 C 0.33978 0.74626 0.12469 0.0
C666 C 0.34599 0.7787 0.13319 0.0
C667 C 0.317 0.79778 0.13883 0.0
C668 C 0.28236 0.78391 0.1364 0.0
C669 C 0.38308 0.79019 0.13752 0.0
C670 C 0.39483 0.78864 0.15219 0.0
C671 C 0.40779 0.79791 0.12719 0.0
C672 C 0.39665 0.7996 0.11149 0.0
C673 C 0.36684 0.81996 0.10717 0.0
C674 C 0.35598 0.82063 0.09242 0.0
C675 C 0.375 0.8015 0.08182 0.0
C676 C 0.40486 0.78153 0.08597 0.0
C677 C 0.41568 0.78053 0.10072 0.0
H678 H 0.36659 0.80214 0.0704 0.0
H679 H 0.47126 0.76797 0.21195 0.0
H680 H 0.48422 0.33285 0.84236 0.0
H681 H 0.42482 0.32818 0.85167 0.0
H682 H 0.40765 0.2274 0.8259 0.0
H683 H 0.46651 0.23259 0.81632 0.0
H684 H 0.35336 0.26837 0.82179 0.0
H685 H 0.42001 0.23323 0.86406 0.0
H686 H 0.46662 0.23811 0.88415 0.0
H687 H 0.42118 0.33707 0.90114 0.0
H688 H 0.37455 0.33305 0.88104 0.0
H689 H 0.1866 0.23413 0.85294 0.0
H690 H 0.24646 0.23146 0.84371 0.0
H691 H 0.27392 0.33105 0.86888 0.0
H692 H 0.2148 0.33312 0.87839 0.0
H693 H 0.32358 0.28539 0.8735 0.0
H694 H 0.25915 0.3213 0.82968 0.0
H695 H 0.21651 0.31737 0.80823 0.0
H696 H 0.25926 0.21488 0.79386 0.0
H697 H 0.30199 0.21806 0.81533 0.0
C698 C 0.46791 0.30947 0.8389 0.0
C699 C 0.47972 0.2832 0.82857 0.0
C700 C 0.43404 0.30672 0.84424 0.0
C701 C 0.41176 0.27731 0.83955 0.0
C702 C 0.42423 0.25041 0.82963 0.0
C703 C 0.45782 0.25338 0.82417 0.0
C704 C 0.37454 0.27582 0.84406 0.0
C705 C 0.34687 0.27144 0.83313 0.0
C706 C 0.366 0.28053 0.85882 0.0
C707 C 0.39395 0.28298 0.87096 0.0
C708 C 0.4201 0.25617 0.87201 0.0
C709 C 0.4465 0.25876 0.88342 0.0
C710 C 0.4469 0.28792 0.89389 0.0
C711 C 0.42085 0.31451 0.89301 0.0
C712 C 0.3944 0.31207 0.88162 0.0
C713 C 0.20522 0.25578 0.85623 0.0
C714 C 0.19609 0.28382 0.86638 0.0
C715 C 0.23946 0.25424 0.85097 0.0
C716 C 0.26485 0.28109 0.85559 0.0
C717 C 0.25504 0.30983 0.86525 0.0
C718 C 0.22117 0.31107 0.87064 0.0
C719 C 0.30227 0.27859 0.85118 0.0
C720 C 0.33004 0.28208 0.86216 0.0
C721 C 0.31093 0.27278 0.83646 0.0
C722 C 0.28355 0.2698 0.82416 0.0
C723 C 0.25911 0.2977 0.82206 0.0
C724 C 0.23504 0.29567 0.80984 0.0
C725 C 0.23532 0.26595 0.79964 0.0
C726 C 0.2592 0.23792 0.80175 0.0
C727 C 0.28332 0.23982 0.81393 0.0
H728 H 0.2172 0.26457 0.79005 0.0
H729 H 0.46737 0.28987 0.90271 0.0
H730 H 0.16508 0.7823 0.36651 0.0
H731 H 0.22955 0.78483 0.37253 0.0
H732 H 0.24099 0.86177 0.34055 0.0
H733 H 0.17691 0.85882 0.33435 0.0
H734 H 0.28865 0.81178 0.33708 0.0
H735 H 0.2521 0.88533 0.37803 0.0
H736 H 0.2179 0.90214 0.39951 0.0
H737 H 0.26155 0.81228 0.42081 0.0
H738 H 0.29564 0.79461 0.39938 0.0
H739 H 0.47487 0.82647 0.35472 0.0
H740 H 0.41277 0.8479 0.35382 0.0
H741 H 0.38407 0.76411 0.38063 0.0
H742 H 0.44563 0.74276 0.38142 0.0
H743 H 0.34658 0.82663 0.38702 0.0
H744 H 0.37588 0.74944 0.34463 0.0
H745 H 0.41022 0.73254 0.32319 0.0
H746 H 0.37966 0.83089 0.30471 0.0
H747 H 0.34554 0.84859 0.32617 0.0
C748 C 0.18133 0.8001 0.36092 0.0
C749 C 0.16586 0.82018 0.34992 0.0
C750 C 0.2182 0.80167 0.3644 0.0
C751 C 0.24034 0.8237 0.35707 0.0
C752 C 0.22466 0.8445 0.34635 0.0
C753 C 0.18789 0.84282 0.34283 0.0
C754 C 0.27995 0.82332 0.35988 0.0
C755 C 0.30125 0.81585 0.348 0.0
C756 C 0.29669 0.82799 0.37411 0.0
C757 C 0.2762 0.83848 0.38703 0.0
C758 C 0.25419 0.86898 0.38725 0.0
C759 C 0.23486 0.8787 0.39943 0.0
C760 C 0.23749 0.85825 0.41151 0.0
C761 C 0.25951 0.82807 0.41144 0.0
C762 C 0.27888 0.81822 0.39929 0.0
C763 C 0.45546 0.81356 0.36081 0.0
C764 C 0.4649 0.7832 0.36823 0.0
C765 C 0.41998 0.82558 0.36022 0.0
C766 C 0.3936 0.80734 0.36703 0.0
C767 C 0.40382 0.77868 0.37532 0.0
C768 C 0.43901 0.76652 0.37578 0.0
C769 C 0.35491 0.8149 0.36425 0.0
C770 C 0.33384 0.82339 0.37611 0.0
C771 C 0.3383 0.81126 0.35 0.0
C772 C 0.35855 0.80053 0.33707 0.0
C773 C 0.37672 0.76758 0.33604 0.0
C774 C 0.39611 0.75784 0.32388 0.0
C775 C 0.39722 0.78068 0.31261 0.0
C776 C 0.37885 0.81326 0.31346 0.0
C777 C 0.35948 0.82317 0.32562 0.0
H778 H 0.41223 0.77309 0.3032 0.0
H779 H 0.22251 0.86582 0.42092 0.0
H780 H 0.72925 0.82796 0.55897 0.0
H781 H 0.72189 0.89201 0.56577 0.0
H782 H 0.66485 0.86672 0.60289 0.0
H783 H 0.67207 0.80225 0.59606 0.0
H784 H 0.63047 0.91819 0.58647 0.0
H785 H 0.74729 0.89735 0.60827 0.0
H786 H 0.80951 0.87624 0.60875 0.0
H787 H 0.83298 0.94801 0.57639 0.0
H788 H 0.77071 0.96919 0.57556 0.0
H789 H 0.63749 0.08432 0.62885 0.0
H790 H 0.64106 0.02243 0.61835 0.0
H791 H 0.69957 0.05806 0.58326 0.0
H792 H 0.69628 0.1204 0.59397 0.0
H793 H 0.73261 1.00237 0.59665 0.0
H794 H 0.61719 0.02638 0.57589 0.0
H795 H 0.5552 0.04806 0.57538 0.0
H796 H 0.52889 0.97104 0.6053 0.0
H797 H 0.59091 0.94925 0.60618 0.0
C798 C 0.71527 0.83605 0.56863 0.0
C799 C 0.70115 0.81013 0.57698 0.0
C800 C 0.7112 0.87265 0.57252 0.0
C801 C 0.69287 0.88416 0.58484 0.0
C802 C 0.67906 0.85838 0.59332 0.0
C803 C 0.68343 0.82163 0.5895 0.0
C804 C 0.68765 0.92313 0.58865 0.0
C805 C 0.65277 0.93656 0.58888 0.0
C806 C 0.71678 0.94725 0.59127 0.0
C807 C 0.75424 0.93456 0.59174 0.0
C808 C 0.76563 0.90839 0.60116 0.0
C809 C 0.80092 0.89646 0.60151 0.0
C810 C 0.82516 0.9107 0.59258 0.0
C811 C 0.81416 0.93696 0.58329 0.0
C812 C 0.77888 0.94896 0.58288 0.0
C813 C 0.65046 0.07902 0.61872 0.0
C814 C 0.66611 0.10711 0.61205 0.0
C815 C 0.65242 0.04367 0.61271 0.0
C816 C 0.67033 0.03559 0.59996 0.0
C817 C 0.68538 0.06374 0.59306 0.0
C818 C 0.68309 0.09934 0.59903 0.0
C819 C 0.6754 0.99744 0.59463 0.0
C820 C 0.71027 0.9841 0.59411 0.0
C821 C 0.64624 0.97344 0.5917 0.0
C822 C 0.60883 0.98636 0.59119 0.0
C823 C 0.59828 0.01424 0.58246 0.0
C824 C 0.56311 0.02653 0.58209 0.0
C825 C 0.53813 0.01098 0.59033 0.0
C826 C 0.54827 0.98307 0.59893 0.0
C827 C 0.58343 0.97071 0.59936 0.0
H828 H 0.51091 0.02052 0.59002 0.0
H829 H 0.85248 0.90144 0.59287 0.0
H830 H 0.1342 0.08833 0.08806 0.0
H831 H 0.15429 0.03249 0.09782 0.0
H832 H 0.25726 0.08015 0.11034 0.0
H833 H 0.23716 0.13645 0.10031 0.0
H834 H 0.26469 0.01419 0.09725 0.0
H835 H 0.2015 0.06261 0.13671 0.0
H836 H 0.1524 0.09272 0.14935 0.0
H837 H 0.08145 0.00629 0.13367 0.0
H838 H 0.12995 0.9759 0.12075 0.0
H839 H 0.21169 0.83731 0.13495 0.0
H840 H 0.23183 0.90001 0.13712 0.0
H841 H 0.23065 0.89847 0.09022 0.0
H842 H 0.21146 0.83597 0.08815 0.0
H843 H 0.18889 0.94821 0.12847 0.0
H844 H 0.27413 0.96206 0.07806 0.0
H845 H 0.32765 0.93475 0.06764 0.0
H846 H 0.36284 0.90076 0.10957 0.0
H847 H 0.30933 0.92737 0.1202 0.0
C848 C 0.16101 0.08708 0.09304 0.0
C849 C 0.18402 0.11674 0.09349 0.0
C850 C 0.17244 0.05518 0.09868 0.0
C851 C 0.20715 0.05219 0.10503 0.0
C852 C 0.2303 0.0819 0.10558 0.0
C853 C 0.21876 0.11406 0.0999 0.0
C854 C 0.21907 0.01723 0.11033 0.0
C855 C 0.24843 0.99986 0.10423 0.0
C856 C 0.19879 0.99897 0.11992 0.0
C857 C 0.16942 0.017 0.12773 0.0
C858 C 0.17538 0.0501 0.13589 0.0
C859 C 0.14765 0.06722 0.14311 0.0
C860 C 0.11383 0.05143 0.14231 0.0
C861 C 0.10768 0.01847 0.13429 0.0
C862 C 0.13531 1.00125 0.12704 0.0
C863 C 0.21793 0.84976 0.12519 0.0
C864 C 0.21045 0.83176 0.11139 0.0
C865 C 0.22898 0.88578 0.12641 0.0
C866 C 0.23273 0.90423 0.11384 0.0
C867 C 0.22864 0.88497 0.10012 0.0
C868 C 0.21753 0.84914 0.09891 0.0
C869 C 0.23322 0.94426 0.11465 0.0
C870 C 0.20595 0.96269 0.12185 0.0
C871 C 0.25598 0.96366 0.10639 0.0
C872 C 0.28765 0.94667 0.09991 0.0
C873 C 0.29327 0.94874 0.08505 0.0
C874 C 0.32354 0.93323 0.0791 0.0
C875 C 0.34856 0.91591 0.08792 0.0
C876 C 0.34329 0.91391 0.10271 0.0
C877 C 0.31288 0.929 0.10869 0.0
H878 H 0.37205 0.90405 0.08331 0.0
H879 H 0.09239 0.06473 0.1479 0.0
H880 H 0.58185 0.15431 0.39523 0.0
H881 H 0.56494 0.0958 0.38297 0.0
H882 H 0.47492 0.09137 0.40975 0.0
H883 H 0.49289 0.14925 0.42239 0.0
H884 H 0.51159 0.03489 0.41223 0.0
H885 H 0.46572 0.09199 0.37094 0.0
H886 H 0.46453 0.1338 0.3515 0.0
H887 H 0.55579 0.08167 0.33365 0.0
H888 H 0.5579 0.03986 0.35309 0.0
H889 H 0.50319 0.85249 0.3851 0.0
H890 H 0.47947 0.91407 0.38684 0.0
H891 H 0.57447 0.95212 0.36884 0.0
H892 H 0.5978 0.89125 0.367 0.0
H893 H 0.51664 0.99088 0.36023 0.0
H894 H 0.57087 0.94793 0.40539 0.0
H895 H 0.57467 0.90705 0.42519 0.0
H896 H 0.46771 0.93441 0.43568 0.0
H897 H 0.46318 0.97514 0.41579 0.0
C898 C 0.55773 0.14137 0.39807 0.0
C899 C 0.53853 0.15616 0.40966 0.0
C900 C 0.54795 0.10793 0.39106 0.0
C901 C 0.51846 0.08903 0.39535 0.0
C902 C 0.49776 0.10528 0.40622 0.0
C903 C 0.50786 0.13841 0.41338 0.0
C904 C 0.51274 0.0505 0.39021 0.0
C905 C 0.51151 0.02547 0.40079 0.0
C906 C 0.51323 0.03784 0.37532 0.0
C907 C 0.51202 0.06283 0.36353 0.0
C908 C 0.48568 0.08956 0.36292 0.0
C909 C 0.48483 0.11325 0.35189 0.0
C910 C 0.51009 0.11041 0.34135 0.0
C911 C 0.53622 0.08382 0.34181 0.0
C912 C 0.53721 0.06007 0.35282 0.0
C913 C 0.51832 0.8739 0.38108 0.0
C914 C 0.55245 0.8673 0.37608 0.0
C915 C 0.50488 0.90904 0.38213 0.0
C916 C 0.52546 0.93781 0.37816 0.0
C917 C 0.5581 0.93048 0.37198 0.0
C918 C 0.57153 0.89567 0.37103 0.0
C919 C 0.5164 0.97583 0.38229 0.0
C920 C 0.5152 1.00065 0.37158 0.0
C921 C 0.51375 0.98848 0.39706 0.0
C922 C 0.51652 0.96414 0.40901 0.0
C923 C 0.5481 0.94501 0.41186 0.0
C924 C 0.55039 0.92191 0.4231 0.0
C925 C 0.5214 0.91804 0.43166 0.0
C926 C 0.4901 0.93735 0.42902 0.0
C927 C 0.48765 0.96043 0.41776 0.0
H928 H 0.52323 0.90015 0.44036 0.0
H929 H 0.50939 0.12879 0.33283 0.0
H930 H 0.02617 0.88487 0.94652 0.0
H931 H 0.0318 0.94706 0.94018 0.0
H932 H 0.06914 0.90921 0.8984 0.0
H933 H 0.06326 0.8469 0.90465 0.0
H934 H 0.1103 0.96636 0.91287 0.0
H935 H 0.98607 0.93685 0.90011 0.0
H936 H 0.92598 0.91637 0.9051 0.0
H937 H 0.91922 1.00191 0.93877 0.0
H938 H 0.97949 0.02257 0.93411 0.0
H939 H 0.08295 0.10624 0.86712 0.0
H940 H 0.08237 0.05079 0.87948 0.0
H941 H 0.04273 0.10883 0.91745 0.0
H942 H 0.04294 0.16463 0.90495 0.0
H943 H 0.00457 0.04551 0.90869 0.0
H944 H 0.12452 0.07994 0.92016 0.0
H945 H 0.18435 0.102 0.91565 0.0
H946 H 0.20009 0.0095 0.88608 0.0
H947 H 0.1401 0.98713 0.89021 0.0
C948 C 0.03549 0.88985 0.93597 0.0
C949 C 0.04405 0.86108 0.92605 0.0
C950 C 0.03867 0.92536 0.93236 0.0
C951 C 0.05073 0.93278 0.91879 0.0
C952 C 0.05978 0.90407 0.90893 0.0
C953 C 0.05625 0.86849 0.91248 0.0
C954 C 0.05362 0.97044 0.91481 0.0
C955 C 0.08717 0.9836 0.91185 0.0
C956 C 0.02367 0.99342 0.91407 0.0
C957 C 0.98744 0.98101 0.91687 0.0
C958 C 0.97189 0.95109 0.90867 0.0
C959 C 0.93777 0.93949 0.91141 0.0
C960 C 0.91883 0.95776 0.92227 0.0
C961 C 0.93394 0.98774 0.93038 0.0
C962 C 0.96808 0.99942 0.92768 0.0
C963 C 0.07444 0.10723 0.87817 0.0
C964 C 0.06351 0.13976 0.88519 0.0
C965 C 0.07426 0.07558 0.88524 0.0
C966 C 0.06286 0.07565 0.89946 0.0
C967 C 0.05188 0.10816 0.90654 0.0
C968 C 0.05238 0.14007 0.89947 0.0
C969 C 0.06113 0.04118 0.90643 0.0
C970 C 0.02783 0.02852 0.90991 0.0
C971 C 0.09139 0.01884 0.90786 0.0
C972 C 0.12767 0.03196 0.90542 0.0
C973 C 0.14062 0.06441 0.91261 0.0
C974 C 0.17458 0.07697 0.91014 0.0
C975 C 0.19597 0.05719 0.90057 0.0
C976 C 0.18348 0.02478 0.89349 0.0
C977 C 0.14951 0.01213 0.8959 0.0
H978 H 0.22226 0.06696 0.89867 0.0
H979 H 0.89241 0.94874 0.92438 0.0
H980 H 0.20546 0.16307 0.03333 0.0
H981 H 0.19172 0.14247 0.00764 0.0
H982 H 0.10085 0.21309 0.00638 0.0
H983 H 0.11443 0.23369 0.03198 0.0
H984 H 0.08792 0.14426 0.99111 0.0
H985 H 0.17652 0.24174 0.99582 0.0
H986 H 0.2347 0.26835 0.00462 0.0
H987 H 0.28856 0.17948 0.98324 0.0
H988 H 0.2306 0.15212 0.97449 0.0
H989 H 0.05658 0.23949 0.93082 0.0
H990 H 0.06666 0.20768 0.95282 0.0
H991 H 0.14966 0.14538 0.93263 0.0
H992 H 0.13872 0.17682 0.91028 0.0
H993 H 0.1737 0.18589 0.95715 0.0
H994 H 0.08584 0.09761 0.94661 0.0
H995 H 0.02857 0.06931 0.93786 0.0
H996 H 0.97416 0.13722 0.96901 0.0
H997 H 0.0312 0.16582 0.97809 0.0
C998 C 0.18227 0.17374 0.0276 0.0
C999 C 0.16119 0.20023 0.03455 0.0
C1000 C 0.17446 0.16196 0.01297 0.0
C1001 C 0.1453 0.1763 0.00514 0.0
C1002 C 0.12336 0.20157 0.01226 0.0
C1003 C 0.13135 0.2136 0.02681 0.0
C1004 C 0.13938 0.1681 0.98921 0.0
C1005 C 0.10666 0.1531 0.98362 0.0
C1006 C 0.16456 0.17815 0.97947 0.0
C1007 C 0.19931 0.19466 0.98469 0.0
C1008 C 0.20078 0.22774 0.99311 0.0
C1009 C 0.2337 0.24298 0.99807 0.0
C1010 C 0.26531 0.22555 0.99453 0.0
C1011 C 0.26405 0.1929 0.986 0.0
C1012 C 0.23119 0.17751 0.98104 0.0
C1013 C 0.07591 0.21794 0.93089 0.0
C1014 C 0.09694 0.21049 0.919 0.0
C1015 C 0.08155 0.19959 0.94341 0.0
C1016 C 0.10887 0.17404 0.94436 0.0
C1017 C 0.12827 0.16476 0.93206 0.0
C1018 C 0.12206 0.18268 0.91936 0.0
C1019 C 0.12139 0.16363 0.95899 0.0
C1020 C 0.1554 0.17543 0.96446 0.0
C1021 C 0.0975 0.15035 0.96857 0.0
C1022 C 0.06286 0.13393 0.96302 0.0
C1023 C 0.06166 0.10669 0.95156 0.0
C1024 C 0.02922 0.09049 0.94657 0.0
C1025 C 0.99771 0.10153 0.95282 0.0
C1026 C 0.9986 0.12868 0.96417 0.0
C1027 C 0.03102 0.14476 0.96931 0.0
H1028 H 0.97261 0.089 0.9489 0.0
H1029 H 0.29077 0.23739 0.99837 0.0
H1030 H 0.10613 0.76285 0.28574 0.0
H1031 H 0.11311 0.75252 0.25961 0.0
H1032 H 0.0179 0.81381 0.25077 0.0
H1033 H 0.01055 0.82394 0.27706 0.0
H1034 H 0.01957 0.75498 0.23226 0.0
H1035 H 0.09945 0.85073 0.24763 0.0
H1036 H 0.14678 0.88333 0.263 0.0
H1037 H 0.22164 0.80043 0.2516 0.0
H1038 H 0.17463 0.76704 0.23633 0.0
H1039 H 0.0979 0.77119 0.15916 0.0
H1040 H 0.07192 0.7888 0.18247 0.0
H1041 H 0.12079 0.69702 0.20103 0.0
H1042 H 0.14495 0.67822 0.17768 0.0
H1043 H 0.1364 0.78112 0.21299 0.0
H1044 H 0.05062 0.68291 0.19974 0.0
H1045 H 1.00131 0.65295 0.18463 0.0
H1046 H 0.93557 0.74587 0.19207 0.0
H1047 H 0.98491 0.77686 0.20675 0.0
C1048 C 0.08678 0.7743 0.27824 0.0
C1049 C 0.05801 0.79452 0.28343 0.0
C1050 C 0.0908 0.76841 0.26331 0.0
C1051 C 0.06643 0.78302 0.25324 0.0
C1052 C 0.03711 0.80246 0.25835 0.0
C1053 C 0.03292 0.80817 0.27335 0.0
C1054 C 0.07194 0.77775 0.23741 0.0
C1055 C 0.0449 0.76129 0.228 0.0
C1056 C 0.10492 0.78615 0.23181 0.0
C1057 C 0.13342 0.80627 0.2409 0.0
C1058 C 0.12595 0.83933 0.24847 0.0
C1059 C 0.15273 0.85797 0.25716 0.0
C1060 C 0.18718 0.84393 0.25829 0.0
C1061 C 0.19494 0.81127 0.25071 0.0
C1062 C 0.16824 0.79249 0.24202 0.0
C1063 C 0.10155 0.75385 0.16797 0.0
C1064 C 0.12283 0.72295 0.16647 0.0
C1065 C 0.0871 0.76417 0.18132 0.0
C1066 C 0.09421 0.74392 0.19335 0.0
C1067 C 0.11471 0.7127 0.19179 0.0
C1068 C 0.12859 0.70212 0.17846 0.0
C1069 C 0.08456 0.75728 0.20808 0.0
C1070 C 0.11089 0.77543 0.21725 0.0
C1071 C 0.05087 0.75081 0.21337 0.0
C1072 C 0.02175 0.73252 0.20408 0.0
C1073 C 0.02596 0.69729 0.19786 0.0
C1074 C 0.99792 0.68004 0.18941 0.0
C1075 C 0.96536 0.69755 0.1873 0.0
C1076 C 0.96082 0.73237 0.19361 0.0
C1077 C 0.98886 0.74985 0.20195 0.0
H1078 H 0.94364 0.68406 0.18082 0.0
H1079 H 0.20788 0.8584 0.26503 0.0
H1080 H 0.71217 0.75897 0.52818 0.0
H1081 H 0.69121 0.74446 0.50286 0.0
H1082 H 0.63778 0.65015 0.51508 0.0
H1083 H 0.65774 0.66531 0.54066 0.0
H1084 H 0.69991 0.6901 0.48324 0.0
H1085 H 0.55997 0.63974 0.49276 0.0
H1086 H 0.516 0.64394 0.51166 0.0
H1087 H 0.55754 0.74752 0.52779 0.0
H1088 H 0.60141 0.74408 0.50889 0.0
H1089 H 0.62255 0.6753 0.41196 0.0
H1090 H 0.63318 0.65233 0.43603 0.0
H1091 H 0.57826 0.74402 0.45534 0.0
H1092 H 0.56622 0.76574 0.43129 0.0
H1093 H 0.56951 0.68842 0.47087 0.0
H1094 H 0.66879 0.74654 0.44981 0.0
H1095 H 0.71232 0.7515 0.43106 0.0
H1096 H 0.75225 0.64642 0.43872 0.0
H1097 H 0.70861 0.64073 0.4574 0.0
C1098 C 0.69588 0.73518 0.52551 0.0
C1099 C 0.68621 0.71357 0.53645 0.0
C1100 C 0.68424 0.72667 0.51099 0.0
C1101 C 0.6627 0.69636 0.50707 0.0
C1102 C 0.65411 0.67386 0.51788 0.0
C1103 C 0.66572 0.68243 0.53246 0.0
C1104 C 0.64782 0.69008 0.49179 0.0
C1105 C 0.6714 0.68906 0.48054 0.0
C1106 C 0.61063 0.68885 0.48822 0.0
C1107 C 0.58424 0.69138 0.49956 0.0
C1108 C 0.55965 0.6634 0.50034 0.0
C1109 C 0.53476 0.66566 0.51104 0.0
C1110 C 0.53408 0.69591 0.52096 0.0
C1111 C 0.55819 0.72404 0.52015 0.0
C1112 C 0.58309 0.72193 0.50945 0.0
C1113 C 0.61106 0.68929 0.42123 0.0
C1114 C 0.59336 0.72202 0.41976 0.0
C1115 C 0.61761 0.67653 0.43503 0.0
C1116 C 0.60706 0.6968 0.44754 0.0
C1117 C 0.58668 0.72787 0.44588 0.0
C1118 C 0.57998 0.7404 0.43213 0.0
C1119 C 0.6216 0.68955 0.46236 0.0
C1120 C 0.59802 0.68799 0.47354 0.0
C1121 C 0.65881 0.68948 0.46592 0.0
C1122 C 0.68524 0.69304 0.45484 0.0
C1123 C 0.68676 0.72445 0.44743 0.0
C1124 C 0.71143 0.72739 0.43683 0.0
C1125 C 0.73496 0.69925 0.43367 0.0
C1126 C 0.73395 0.66815 0.44115 0.0
C1127 C 0.70926 0.66505 0.45174 0.0
H1128 H 0.75404 0.70156 0.42546 0.0
H1129 H 0.51481 0.6976 0.52924 0.0
H1130 H 0.49461 0.31046 0.77923 0.0
H1131 H 0.49319 0.30032 0.7527 0.0
H1132 H 0.59618 0.2494 0.75599 0.0
H1133 H 0.59657 0.25679 0.78243 0.0
H1134 H 0.52985 0.32148 0.73253 0.0
H1135 H 0.60601 0.18451 0.73069 0.0
H1136 H 0.61037 0.13096 0.74474 0.0
H1137 H 0.50755 0.15386 0.7611 0.0
H1138 H 0.50232 0.20724 0.74699 0.0
H1139 H 0.62638 0.28911 0.67034 0.0
H1140 H 0.5974 0.30195 0.69313 0.0
H1141 H 0.53677 0.20344 0.68485 0.0
H1142 H 0.56817 0.18947 0.66258 0.0
H1143 H 0.5641 0.20292 0.7096 0.0
H1144 H 0.49876 0.29193 0.68705 0.0
H1145 H 0.48666 0.34291 0.67219 0.0
H1146 H 0.55034 0.41195 0.70284 0.0
H1147 H 0.56403 0.36107 0.71771 0.0
C1148 C 0.51671 0.29654 0.77433 0.0
C1149 C 0.54556 0.28415 0.78306 0.0
C1150 C 0.51601 0.29113 0.75913 0.0
C1151 C 0.54423 0.27347 0.75232 0.0
C1152 C 0.57361 0.26228 0.76097 0.0
C1153 C 0.57407 0.26709 0.77614 0.0
C1154 C 0.5434 0.26674 0.73619 0.0
C1155 C 0.53709 0.29553 0.72745 0.0
C1156 C 0.55113 0.23247 0.72948 0.0
C1157 C 0.55389 0.20003 0.73784 0.0
C1158 C 0.58423 0.178 0.73721 0.0
C1159 C 0.58687 0.1477 0.7452 0.0
C1160 C 0.55929 0.13906 0.75383 0.0
C1161 C 0.52894 0.16064 0.75444 0.0
C1162 C 0.52614 0.19094 0.74646 0.0
C1163 C 0.60591 0.27095 0.67319 0.0
C1164 C 0.59887 0.23872 0.66469 0.0
C1165 C 0.58919 0.2783 0.6862 0.0
C1166 C 0.56453 0.25384 0.69077 0.0
C1167 C 0.55572 0.22273 0.68165 0.0
C1168 C 0.5733 0.21489 0.66886 0.0
C1169 C 0.55233 0.25815 0.70588 0.0
C1170 C 0.55615 0.22881 0.7145 0.0
C1171 C 0.54087 0.29157 0.71232 0.0
C1172 C 0.53253 0.32251 0.7035 0.0
C1173 C 0.51043 0.31789 0.6906 0.0
C1174 C 0.50327 0.34682 0.68216 0.0
C1175 C 0.51754 0.3807 0.68658 0.0
C1176 C 0.53921 0.3857 0.69944 0.0
C1177 C 0.54673 0.35679 0.70788 0.0
H1178 H 0.51183 0.40307 0.68002 0.0
H1179 H 0.56141 0.11561 0.76002 0.0
H1180 H 0.05168 0.74973 0.96799 0.0
H1181 H 0.07488 0.73265 0.9918 0.0
H1182 H 0.11888 0.63587 0.97155 0.0
H1183 H 0.09673 0.6532 0.94761 0.0
H1184 H 0.08256 0.62326 0.99597 0.0
H1185 H 0.17485 0.69978 0.9834 0.0
H1186 H 0.20075 0.75406 0.97457 0.0
H1187 H 0.15905 0.81869 0.01019 0.0
H1188 H 0.13242 0.76487 0.01911 0.0
H1189 H 0.18629 0.67649 0.07273 0.0
H1190 H 0.18593 0.65896 0.04652 0.0
H1191 H 0.07089 0.65774 0.04408 0.0
H1192 H 0.07136 0.6752 0.07015 0.0
H1193 H 0.15864 0.70683 0.02891 0.0
H1194 H 0.03832 0.60813 0.01403 0.0
H1195 H 0.0145 0.55301 0.02294 0.0
H1196 H 0.11783 0.52906 0.04223 0.0
H1197 H 0.1425 0.5836 0.03319 0.0
C1198 C 0.06677 0.7251 0.96854 0.0
C1199 C 0.07229 0.70289 0.95585 0.0
C1200 C 0.07985 0.71527 0.98217 0.0
C1201 C 0.09873 0.68306 0.98341 0.0
C1202 C 0.10427 0.66075 0.97082 0.0
C1203 C 0.09143 0.67069 0.95716 0.0
C1204 C 0.11229 0.67284 0.99796 0.0
C1205 C 0.09944 0.64128 0.00318 0.0
C1206 C 0.13532 0.69579 0.00714 0.0
C1207 C 0.15149 0.72827 0.00188 0.0
C1208 C 0.171 0.7256 0.9893 0.0
C1209 C 0.18584 0.75629 0.98428 0.0
C1210 C 0.18152 0.78981 0.99181 0.0
C1211 C 0.16239 0.7927 0.00437 0.0
C1212 C 0.14746 0.7621 0.00943 0.0
C1213 C 0.16107 0.67044 0.06671 0.0
C1214 C 0.12885 0.67681 0.07338 0.0
C1215 C 0.16085 0.6608 0.05173 0.0
C1216 C 0.12839 0.65719 0.04332 0.0
C1217 C 0.09626 0.65989 0.05034 0.0
C1218 C 0.0965 0.66983 0.06525 0.0
C1219 C 0.12742 0.65814 0.02724 0.0
C1220 C 0.14251 0.68817 0.02167 0.0
C1221 C 0.1068 0.63354 0.01776 0.0
C1222 C 0.09224 0.60017 0.02296 0.0
C1223 C 0.05607 0.59098 0.02005 0.0
C1224 C 0.04239 0.55983 0.02516 0.0
C1225 C 0.06462 0.53757 0.03316 0.0
C1226 C 0.10062 0.54635 0.03605 0.0
C1227 C 0.11445 0.57741 0.03095 0.0
H1228 H 0.05396 0.51351 0.03712 0.0
H1229 H 0.19302 0.81354 0.98791 0.0
H1230 H 0.6049 0.75608 0.20679 0.0
H1231 H 0.60715 0.74764 0.2328 0.0
H1232 H 0.67686 0.83962 0.24145 0.0
H1233 H 0.67559 0.84736 0.21517 0.0
H1234 H 0.69706 0.79032 0.25906 0.0
H1235 H 0.58849 0.84696 0.24763 0.0
H1236 H 0.53137 0.8596 0.23444 0.0
H1237 H 0.4902 0.75751 0.24406 0.0
H1238 H 0.54731 0.74398 0.25714 0.0
H1239 H 0.62456 0.79835 0.33345 0.0
H1240 H 0.64317 0.81474 0.30973 0.0
H1241 H 0.62239 0.70638 0.29156 0.0
H1242 H 0.60519 0.68957 0.31532 0.0
H1243 H 0.5807 0.77408 0.28045 0.0
H1244 H 0.69806 0.72245 0.29285 0.0
H1245 H 0.75393 0.72141 0.30831 0.0
H1246 H 0.77711 0.82954 0.29909 0.0
H1247 H 0.72088 0.83161 0.28393 0.0
C1248 C 0.62068 0.7745 0.21425 0.0
C1249 C 0.63964 0.80268 0.20905 0.0
C1250 C 0.62197 0.7697 0.22911 0.0
C1251 C 0.64153 0.7935 0.23913 0.0
C1252 C 0.66147 0.82104 0.23393 0.0
C1253 C 0.66064 0.82552 0.21896 0.0
C1254 C 0.63986 0.78988 0.25501 0.0
C1255 C 0.67161 0.7872 0.26377 0.0
C1256 C 0.60667 0.78668 0.2613 0.0
C1257 C 0.57231 0.79436 0.25329 0.0
C1258 C 0.56738 0.82705 0.24683 0.0
C1259 C 0.53498 0.83441 0.2394 0.0
C1260 C 0.50717 0.80939 0.23843 0.0
C1261 C 0.51176 0.77688 0.24484 0.0
C1262 C 0.54413 0.76937 0.25228 0.0
C1263 C 0.62574 0.77768 0.32456 0.0
C1264 C 0.61442 0.74251 0.32625 0.0
C1265 C 0.63604 0.78713 0.31103 0.0
C1266 C 0.63442 0.76162 0.29902 0.0
C1267 C 0.62422 0.72623 0.30081 0.0
C1268 C 0.61441 0.7167 0.31433 0.0
C1269 C 0.63772 0.77272 0.28417 0.0
C1270 C 0.6061 0.77728 0.27568 0.0
C1271 C 0.67092 0.77897 0.2784 0.0
C1272 C 0.70496 0.77734 0.28739 0.0
C1273 C 0.7148 0.74618 0.29427 0.0
C1274 C 0.74661 0.74537 0.30296 0.0
C1275 C 0.76903 0.77542 0.30472 0.0
C1276 C 0.75969 0.80631 0.29777 0.0
C1277 C 0.72785 0.80732 0.28913 0.0
H1278 H 0.79361 0.77477 0.31147 0.0
H1279 H 0.48204 0.81528 0.23275 0.0
H1280 H 0.61906 0.14403 0.45131 0.0
H1281 H 0.6359 0.12738 0.47597 0.0
H1282 H 0.59126 0.2265 0.49391 0.0
H1283 H 0.57453 0.2433 0.46933 0.0
H1284 H 0.65277 0.21344 0.50791 0.0
H1285 H 0.54567 0.14599 0.49221 0.0
H1286 H 0.50916 0.1032 0.47585 0.0
H1287 H 0.58489 0.01959 0.48361 0.0
H1288 H 0.62211 0.06207 0.49987 0.0
H1289 H 0.57553 0.1623 0.57333 0.0
H1290 H 0.57709 0.14407 0.54741 0.0
H1291 H 0.69202 0.14815 0.55114 0.0
H1292 H 0.69033 0.1676 0.57705 0.0
H1293 H 0.6045 0.10195 0.52538 0.0
H1294 H 0.717 0.20449 0.52693 0.0
H1295 H 0.74686 0.25122 0.54385 0.0
H1296 H 0.64923 0.27076 0.56501 0.0
H1297 H 0.61874 0.22452 0.54808 0.0
C1298 C 0.61285 0.16225 0.46053 0.0
C1299 C 0.5953 0.19492 0.4584 0.0
C1300 C 0.6225 0.1527 0.4746 0.0
C1301 C 0.6145 0.17549 0.48679 0.0
C1302 C 0.5978 0.20852 0.48466 0.0
C1303 C 0.58832 0.21815 0.47061 0.0
C1304 C 0.62269 0.16496 0.50183 0.0
C1305 C 0.64263 0.1888 0.51165 0.0
C1306 C 0.60935 0.13287 0.50677 0.0
C1307 C 0.58686 0.10729 0.49711 0.0
C1308 C 0.55466 0.11855 0.49034 0.0
C1309 C 0.53382 0.09434 0.4811 0.0
C1310 C 0.54476 0.05873 0.47866 0.0
C1311 C 0.57649 0.04721 0.48549 0.0
C1312 C 0.59746 0.07133 0.49472 0.0
C1313 C 0.60115 0.15714 0.56879 0.0
C1314 C 0.6328 0.16638 0.57711 0.0
C1315 C 0.60205 0.14679 0.55395 0.0
C1316 C 0.63464 0.14583 0.54727 0.0
C1317 C 0.66656 0.14922 0.55607 0.0
C1318 C 0.66562 0.15986 0.57094 0.0
C1319 C 0.63431 0.1506 0.53142 0.0
C1320 C 0.6157 0.12591 0.52148 0.0
C1321 C 0.64803 0.18239 0.52637 0.0
C1322 C 0.6658 0.21081 0.53637 0.0
C1323 C 0.70194 0.21887 0.53517 0.0
C1324 C 0.71894 0.24525 0.54475 0.0
C1325 C 0.69998 0.26384 0.55552 0.0
C1326 C 0.6639 0.25627 0.55668 0.0
C1327 C 0.64674 0.23002 0.54709 0.0
H1328 H 0.71324 0.28417 0.56294 0.0
H1329 H 0.5286 0.04003 0.4715 0.0
H1330 H 0.09876 0.34467 0.71615 0.0
H1331 H 0.10357 0.33713 0.74246 0.0
H1332 H 0.17463 0.24767 0.7351 0.0
H1333 H 0.17051 0.25561 0.70886 0.0
H1334 H 0.11259 0.2369 0.7528 0.0
H1335 H 0.21214 0.31632 0.74881 0.0
H1336 H 0.24071 0.37106 0.74161 0.0
H1337 H 0.17252 0.43633 0.76843 0.0
H1338 H 0.14313 0.38194 0.77561 0.0
H1339 H 0.14758 0.20013 0.82389 0.0
H1340 H 0.1629 0.21523 0.79966 0.0
H1341 H 0.12378 0.32289 0.80877 0.0
H1342 H 0.11121 0.30845 0.83339 0.0
H1343 H 0.16962 0.32602 0.78977 0.0
H1344 H 0.06847 0.25136 0.79318 0.0
H1345 H 0.035 0.19937 0.80025 0.0
H1346 H 0.09965 0.12796 0.77428 0.0
H1347 H 0.13388 0.17954 0.76723 0.0
C1348 C 0.11538 0.32346 0.7202 0.0
C1349 C 0.13429 0.3007 0.71058 0.0
C1350 C 0.11825 0.31931 0.73517 0.0
C1351 C 0.13962 0.292 0.74065 0.0
C1352 C 0.15816 0.26898 0.73103 0.0
C1353 C 0.15583 0.27355 0.71611 0.0
C1354 C 0.14169 0.28665 0.75638 0.0
C1355 C 0.1257 0.25594 0.7609 0.0
C1356 C 0.15749 0.31235 0.76688 0.0
C1357 C 0.17516 0.34507 0.76261 0.0
C1358 C 0.20298 0.34235 0.75305 0.0
C1359 C 0.21938 0.37331 0.749 0.0
C1360 C 0.20836 0.40716 0.75452 0.0
C1361 C 0.18098 0.4101 0.76414 0.0
C1362 C 0.16446 0.37921 0.76821 0.0
C1363 C 0.14399 0.22746 0.82092 0.0
C1364 C 0.12818 0.25315 0.83035 0.0
C1365 C 0.15211 0.23595 0.80701 0.0
C1366 C 0.14276 0.26967 0.80213 0.0
C1367 C 0.1307 0.29653 0.81217 0.0
C1368 C 0.12373 0.28835 0.82627 0.0
C1369 C 0.14158 0.27543 0.78632 0.0
C1370 C 0.15706 0.30653 0.78174 0.0
C1371 C 0.12472 0.25034 0.77572 0.0
C1372 C 0.10394 0.21927 0.77979 0.0
C1373 C 0.07566 0.22455 0.78904 0.0
C1374 C 0.05656 0.19516 0.79304 0.0
C1375 C 0.06525 0.16038 0.78774 0.0
C1376 C 0.09299 0.15492 0.77839 0.0
C1377 C 0.11224 0.18422 0.77438 0.0
H1378 H 0.05043 0.13765 0.79086 0.0
H1379 H 0.2211 0.4311 0.75138 0.0
loop_
_geom_bond_atom_site_label_1
_geom_bond_atom_site_label_2
_geom_bond_distance
_geom_bond_site_symmetry_2
_ccdc_geom_bond_type
H0 C5 0.930 . S
H1 C8 0.930 . S
H2 C10 0.930 . S
H3 C4 1.016 . S
C4 H3 1.016 . S
C4 N11 1.286 . S
C5 H0 0.930 . S
C5 C6 1.397 . S
C5 C7 1.361 . S
C6 C5 1.397 . S
C6 C10 1.390 . S
C7 C5 1.361 . S
C7 C8 1.393 . S
C7 N11 1.413 . S
C8 H1 0.930 . S
C8 C7 1.393 . S
C8 C9 1.399 . S
C9 C8 1.399 . S
C9 C10 1.381 . S
C10 H2 0.930 . S
C10 C6 1.390 . S
C10 C9 1.381 . S
N11 C4 1.286 . S
N11 C7 1.413 . S
H12 C17 0.930 . S
H13 C20 0.930 . S
H14 C22 0.930 . S
H15 C16 1.016 . S
C16 H15 1.016 . S
C16 N23 1.286 . S
C17 H12 0.930 . S
C17 C18 1.397 . S
C17 C19 1.361 . S
C18 C17 1.397 . S
C18 C22 1.390 . S
C19 C17 1.361 . S
C19 C20 1.393 . S
C19 N23 1.413 . S
C20 H13 0.930 . S
C20 C19 1.393 . S
C20 C21 1.399 . S
C21 C20 1.399 . S
C21 C22 1.381 . S
C22 H14 0.930 . S
C22 C18 1.390 . S
C22 C21 1.381 . S
N23 C16 1.286 . S
N23 C19 1.413 . S
H24 C29 0.930 . S
H25 C32 0.930 . S
H26 C34 0.930 . S
H27 C28 1.016 . S
C28 H27 1.016 . S
C28 N35 1.286 . S
C29 H24 0.930 . S
C29 C30 1.397 . S
C29 C31 1.361 . S
C30 C29 1.397 . S
C30 C34 1.390 . S
C31 C29 1.361 . S
C31 C32 1.393 . S
C31 N35 1.413 . S
C32 H25 0.930 . S
C32 C31 1.393 . S
C32 C33 1.399 . S
C33 C32 1.399 . S
C33 C34 1.381 . S
C34 H26 0.930 . S
C34 C30 1.390 . S
C34 C33 1.381 . S
N35 C28 1.286 . S
N35 C31 1.413 . S
H36 C41 0.930 . S
H37 C44 0.930 . S
H38 C46 0.930 . S
H39 C40 1.016 . S
C40 H39 1.016 . S
C40 N47 1.286 . S
C41 H36 0.930 . S
C41 C42 1.397 . S
C41 C43 1.361 . S
C42 C41 1.397 . S
C42 C46 1.390 . S
C43 C41 1.361 . S
C43 C44 1.393 . S
C43 N47 1.413 . S
C44 H37 0.930 . S
C44 C43 1.393 . S
C44 C45 1.399 . S
C45 C44 1.399 . S
C45 C46 1.381 . S
C46 H38 0.930 . S
C46 C42 1.390 . S
C46 C45 1.381 . S
N47 C40 1.286 . S
N47 C43 1.413 . S
H48 C53 0.930 . S
H49 C56 0.930 . S
H50 C58 0.930 . S
H51 C52 1.016 . S
C52 H51 1.016 . S
C52 N59 1.286 . S
C53 H48 0.930 . S
C53 C54 1.397 . S
C53 C55 1.361 . S
C54 C53 1.397 . S
C54 C58 1.390 . S
C55 C53 1.361 . S
C55 C56 1.393 . S
C55 N59 1.413 . S
C56 H49 0.930 . S
C56 C55 1.393 . S
C56 C57 1.399 . S
C57 C56 1.399 . S
C57 C58 1.381 . S
C58 H50 0.930 . S
C58 C54 1.390 . S
C58 C57 1.381 . S
N59 C52 1.286 . S
N59 C55 1.413 . S
H60 C65 0.930 . S
H61 C68 0.930 . S
H62 C70 0.930 . S
H63 C64 1.016 . S
C64 H63 1.016 . S
C64 N71 1.286 . S
C65 H60 0.930 . S
C65 C66 1.397 . S
C65 C67 1.361 . S
C66 C65 1.397 . S
C66 C70 1.390 . S
C67 C65 1.361 . S
C67 C68 1.393 . S
C67 N71 1.413 . S
C68 H61 0.930 . S
C68 C67 1.393 . S
C68 C69 1.399 . S
C69 C68 1.399 . S
C69 C70 1.381 . S
C70 H62 0.930 . S
C70 C66 1.390 . S
C70 C69 1.381 . S
N71 C64 1.286 . S
N71 C67 1.413 . S
H72 C77 0.930 . S
H73 C80 0.930 . S
H74 C82 0.930 . S
H75 C76 1.016 . S
C76 H75 1.016 . S
C76 N83 1.286 . S
C77 H72 0.930 . S
C77 C78 1.397 . S
C77 C79 1.361 . S
C78 C77 1.397 . S
C78 C82 1.390 . S
C79 C77 1.361 . S
C79 C80 1.393 . S
C79 N83 1.413 . S
C80 H73 0.930 . S
C80 C79 1.393 . S
C80 C81 1.399 . S
C81 C80 1.399 . S
C81 C82 1.381 . S
C82 H74 0.930 . S
C82 C78 1.390 . S
C82 C81 1.381 . S
N83 C76 1.286 . S
N83 C79 1.413 . S
H84 C89 0.930 . S
H85 C92 0.930 . S
H86 C94 0.930 . S
H87 C88 1.016 . S
C88 H87 1.016 . S
C88 N95 1.286 . S
C89 H84 0.930 . S
C89 C90 1.397 . S
C89 C91 1.361 . S
C90 C89 1.397 . S
C90 C94 1.390 . S
C91 C89 1.361 . S
C91 C92 1.393 . S
C91 N95 1.413 . S
C92 H85 0.930 . S
C92 C91 1.393 . S
C92 C93 1.399 . S
C93 C92 1.399 . S
C93 C94 1.381 . S
C94 H86 0.930 . S
C94 C90 1.390 . S
C94 C93 1.381 . S
N95 C88 1.286 . S
N95 C91 1.413 . S
Zn96 O102 1.920 . S
Zn96 O108 1.898 . S
Zn96 O111 1.905 . S
Zn97 O105 1.905 . S
Zn97 O106 1.898 . S
Zn97 O114 1.920 . S
Zn98 O101 2.080 . S
Zn98 O104 2.114 . S
Zn98 O107 2.120 . S
Zn98 O109 2.120 . S
Zn98 O110 2.114 . S
Zn98 O113 2.080 . S
C99 O104 1.166 . S
C99 O105 1.182 . S
C100 O106 1.167 . S
C100 O107 1.299 . S
O101 Zn98 2.080 . S
O101 C115 1.305 . S
O102 Zn96 1.920 . S
O102 C115 1.234 . S
C103 O108 1.167 . S
C103 O109 1.299 . S
O104 Zn98 2.114 . S
O104 C99 1.166 . S
O105 Zn97 1.905 . S
O105 C99 1.182 . S
O106 Zn97 1.898 . S
O106 C100 1.167 . S
O107 Zn98 2.120 . S
O107 C100 1.299 . S
O108 Zn96 1.898 . S
O108 C103 1.167 . S
O109 Zn98 2.120 . S
O109 C103 1.299 . S
O110 Zn98 2.114 . S
O110 C112 1.166 . S
O111 Zn96 1.905 . S
O111 C112 1.182 . S
C112 O110 1.166 . S
C112 O111 1.182 . S
O113 Zn98 2.080 . S
O113 C116 1.305 . S
O114 Zn97 1.920 . S
O114 C116 1.234 . S
C115 O101 1.305 . S
C115 O102 1.234 . S
C116 O113 1.305 . S
C116 O114 1.234 . S
Zn117 O123 1.920 . S
Zn117 O129 1.898 . S
Zn117 O132 1.905 . S
Zn118 O126 1.905 . S
Zn118 O127 1.898 . S
Zn118 O135 1.920 . S
Zn119 O122 2.080 . S
Zn119 O125 2.114 . S
Zn119 O128 2.120 . S
Zn119 O130 2.120 . S
Zn119 O131 2.114 . S
Zn119 O134 2.080 . S
C120 O125 1.166 . S
C120 O126 1.182 . S
C121 O127 1.167 . S
C121 O128 1.299 . S
O122 Zn119 2.080 . S
O122 C136 1.305 . S
O123 Zn117 1.920 . S
O123 C136 1.234 . S
C124 O129 1.167 . S
C124 O130 1.299 . S
O125 Zn119 2.114 . S
O125 C120 1.166 . S
O126 Zn118 1.905 . S
O126 C120 1.182 . S
O127 Zn118 1.898 . S
O127 C121 1.167 . S
O128 Zn119 2.120 . S
O128 C121 1.299 . S
O129 Zn117 1.898 . S
O129 C124 1.167 . S
O130 Zn119 2.120 . S
O130 C124 1.299 . S
O131 Zn119 2.114 . S
O131 C133 1.166 . S
O132 Zn117 1.905 . S
O132 C133 1.182 . S
C133 O131 1.166 . S
C133 O132 1.182 . S
O134 Zn119 2.080 . S
O134 C137 1.305 . S
O135 Zn118 1.920 . S
O135 C137 1.234 . S
C136 O122 1.305 . S
C136 O123 1.234 . S
C137 O134 1.305 . S
C137 O135 1.234 . S
Zn138 O144 1.920 . S
Zn138 O150 1.898 . S
Zn138 O153 1.905 . S
Zn139 O147 1.905 . S
Zn139 O148 1.898 . S
Zn139 O156 1.920 . S
Zn140 O143 2.080 . S
Zn140 O146 2.114 . S
Zn140 O149 2.120 . S
Zn140 O151 2.120 . S
Zn140 O152 2.114 . S
Zn140 O155 2.080 . S
C141 O146 1.166 . S
C141 O147 1.182 . S
C142 O148 1.167 . S
C142 O149 1.299 . S
O143 Zn140 2.080 . S
O143 C157 1.305 . S
O144 Zn138 1.920 . S
O144 C157 1.234 . S
C145 O150 1.167 . S
C145 O151 1.299 . S
O146 Zn140 2.114 . S
O146 C141 1.166 . S
O147 Zn139 1.905 . S
O147 C141 1.182 . S
O148 Zn139 1.898 . S
O148 C142 1.167 . S
O149 Zn140 2.120 . S
O149 C142 1.299 . S
O150 Zn138 1.898 . S
O150 C145 1.167 . S
O151 Zn140 2.120 . S
O151 C145 1.299 . S
O152 Zn140 2.114 . S
O152 C154 1.166 . S
O153 Zn138 1.905 . S
O153 C154 1.182 . S
C154 O152 1.166 . S
C154 O153 1.182 . S
O155 Zn140 2.080 . S
O155 C158 1.305 . S
O156 Zn139 1.920 . S
O156 C158 1.234 . S
C157 O143 1.305 . S
C157 O144 1.234 . S
C158 O155 1.305 . S
C158 O156 1.234 . S
Zn159 O165 1.920 . S
Zn159 O171 1.898 . S
Zn159 O174 1.905 . S
Zn160 O168 1.905 . S
Zn160 O169 1.898 . S
Zn160 O177 1.920 . S
Zn161 O164 2.080 . S
Zn161 O167 2.114 . S
Zn161 O170 2.120 . S
Zn161 O172 2.120 . S
Zn161 O173 2.114 . S
Zn161 O176 2.080 . S
C162 O167 1.166 . S
C162 O168 1.182 . S
C163 O169 1.167 . S
C163 O170 1.299 . S
O164 Zn161 2.080 . S
O164 C178 1.305 . S
O165 Zn159 1.920 . S
O165 C178 1.234 . S
C166 O171 1.167 . S
C166 O172 1.299 . S
O167 Zn161 2.114 . S
O167 C162 1.166 . S
O168 Zn160 1.905 . S
O168 C162 1.182 . S
O169 Zn160 1.898 . S
O169 C163 1.167 . S
O170 Zn161 2.120 . S
O170 C163 1.299 . S
O171 Zn159 1.898 . S
O171 C166 1.167 . S
O172 Zn161 2.120 . S
O172 C166 1.299 . S
O173 Zn161 2.114 . S
O173 C175 1.166 . S
O174 Zn159 1.905 . S
O174 C175 1.182 . S
C175 O173 1.166 . S
C175 O174 1.182 . S
O176 Zn161 2.080 . S
O176 C179 1.305 . S
O177 Zn160 1.920 . S
O177 C179 1.234 . S
C178 O164 1.305 . S
C178 O165 1.234 . S
C179 O176 1.305 . S
C179 O177 1.234 . S
H180 C198 0.951 . S
H181 C200 0.951 . S
H182 C202 0.950 . S
H183 C203 0.950 . S
H184 C205 0.950 . S
H185 C208 0.950 . S
H186 C209 0.950 . S
H187 C211 0.950 . S
H188 C212 0.950 . S
H189 C213 0.951 . S
H190 C215 0.951 . S
H191 C217 0.950 . S
H192 C218 0.950 . S
H193 C220 0.950 . S
H194 C223 0.950 . S
H195 C224 0.950 . S
H196 C226 0.950 . S
H197 C227 0.950 . S
C198 H180 0.951 . S
C198 C199 1.366 . S
C198 C200 1.388 . S
C199 C198 1.366 . S
C199 C203 1.385 . S
C200 H181 0.951 . S
C200 C198 1.388 . S
C200 C201 1.366 . S
C201 C200 1.366 . S
C201 C202 1.414 . S
C201 C204 1.499 . S
C202 H182 0.950 . S
C202 C201 1.414 . S
C202 C203 1.374 . S
C203 H183 0.950 . S
C203 C199 1.385 . S
C203 C202 1.374 . S
C204 C201 1.499 . S
C204 C205 1.373 . S
C204 C206 1.389 . S
C205 H184 0.950 . S
C205 C204 1.373 . S
C205 C221 1.377 . S
C206 C204 1.389 . S
C206 C207 1.524 . S
C206 C220 1.377 . S
C207 C206 1.524 . S
C207 C208 1.397 . S
C207 C212 1.363 . S
C208 H185 0.950 . S
C208 C207 1.397 . S
C208 C209 1.334 . S
C209 H186 0.950 . S
C209 C208 1.334 . S
C209 C210 1.287 . S
C210 C209 1.287 . S
C210 C211 1.524 . S
C210 H229 0.913 . S
C211 H187 0.950 . S
C211 C210 1.524 . S
C211 C212 1.415 . S
C212 H188 0.950 . S
C212 C207 1.363 . S
C212 C211 1.415 . S
C213 H189 0.951 . S
C213 C214 1.366 . S
C213 C215 1.388 . S
C214 C213 1.366 . S
C214 C218 1.385 . S
C215 H190 0.951 . S
C215 C213 1.388 . S
C215 C216 1.366 . S
C216 C215 1.366 . S
C216 C217 1.414 . S
C216 C219 1.499 . S
C217 H191 0.950 . S
C217 C216 1.414 . S
C217 C218 1.374 . S
C218 H192 0.950 . S
C218 C214 1.385 . S
C218 C217 1.374 . S
C219 C216 1.499 . S
C219 C220 1.373 . S
C219 C221 1.389 . S
C220 H193 0.950 . S
C220 C206 1.377 . S
C220 C219 1.373 . S
C221 C205 1.377 . S
C221 C219 1.389 . S
C221 C222 1.524 . S
C222 C221 1.524 . S
C222 C223 1.397 . S
C222 C227 1.363 . S
C223 H194 0.950 . S
C223 C222 1.397 . S
C223 C224 1.334 . S
C224 H195 0.950 . S
C224 C223 1.334 . S
C224 C225 1.287 . S
C225 C224 1.287 . S
C225 C226 1.524 . S
C225 H228 0.999 . S
C226 H196 0.950 . S
C226 C225 1.524 . S
C226 C227 1.415 . S
C227 H197 0.950 . S
C227 C222 1.363 . S
C227 C226 1.415 . S
H228 C225 0.999 . S
H229 C210 0.913 . S
H230 C248 0.951 . S
H231 C250 0.951 . S
H232 C252 0.950 . S
H233 C253 0.950 . S
H234 C255 0.950 . S
H235 C258 0.950 . S
H236 C259 0.950 . S
H237 C261 0.950 . S
H238 C262 0.950 . S
H239 C263 0.951 . S
H240 C265 0.951 . S
H241 C267 0.950 . S
H242 C268 0.950 . S
H243 C270 0.950 . S
H244 C273 0.950 . S
H245 C274 0.950 . S
H246 C276 0.950 . S
H247 C277 0.950 . S
C248 H230 0.951 . S
C248 C249 1.366 . S
C248 C250 1.388 1_455 S
C249 C248 1.366 . S
C249 C253 1.385 1_455 S
C250 H231 0.951 . S
C250 C248 1.388 1_655 S
C250 C251 1.366 . S
C251 C250 1.366 . S
C251 C252 1.414 . S
C251 C254 1.499 . S
C252 H232 0.950 . S
C252 C251 1.414 . S
C252 C253 1.374 . S
C253 H233 0.950 . S
C253 C249 1.385 1_655 S
C253 C252 1.374 . S
C254 C251 1.499 . S
C254 C255 1.373 . S
C254 C256 1.389 . S
C255 H234 0.950 . S
C255 C254 1.373 . S
C255 C271 1.377 . S
C256 C254 1.389 . S
C256 C257 1.524 . S
C256 C270 1.377 . S
C257 C256 1.524 . S
C257 C258 1.397 . S
C257 C262 1.363 . S
C258 H235 0.950 . S
C258 C257 1.397 . S
C258 C259 1.334 . S
C259 H236 0.950 . S
C259 C258 1.334 . S
C259 C260 1.287 . S
C260 C259 1.287 . S
C260 C261 1.524 . S
C260 H279 0.913 . S
C261 H237 0.950 . S
C261 C260 1.524 . S
C261 C262 1.415 . S
C262 H238 0.950 . S
C262 C257 1.363 . S
C262 C261 1.415 . S
C263 H239 0.951 . S
C263 C264 1.366 . S
C263 C265 1.388 . S
C264 C263 1.366 . S
C264 C268 1.385 . S
C265 H240 0.951 . S
C265 C263 1.388 . S
C265 C266 1.366 . S
C266 C265 1.366 . S
C266 C267 1.414 . S
C266 C269 1.499 . S
C267 H241 0.950 . S
C267 C266 1.414 . S
C267 C268 1.374 . S
C268 H242 0.950 . S
C268 C264 1.385 . S
C268 C267 1.374 . S
C269 C266 1.499 . S
C269 C270 1.373 . S
C269 C271 1.389 . S
C270 H243 0.950 . S
C270 C256 1.377 . S
C270 C269 1.373 . S
C271 C255 1.377 . S
C271 C269 1.389 . S
C271 C272 1.524 . S
C272 C271 1.524 . S
C272 C273 1.397 . S
C272 C277 1.363 . S
C273 H244 0.950 . S
C273 C272 1.397 . S
C273 C274 1.334 . S
C274 H245 0.950 . S
C274 C273 1.334 . S
C274 C275 1.287 . S
C275 C274 1.287 . S
C275 C276 1.524 . S
C275 H278 0.999 . S
C276 H246 0.950 . S
C276 C275 1.524 . S
C276 C277 1.415 . S
C277 H247 0.950 . S
C277 C272 1.363 . S
C277 C276 1.415 . S
H278 C275 0.999 . S
H279 C260 0.913 . S
H280 C298 0.951 . S
H281 C300 0.951 . S
H282 C302 0.950 . S
H283 C303 0.950 . S
H284 C305 0.950 . S
H285 C308 0.950 . S
H286 C309 0.950 . S
H287 C311 0.950 . S
H288 C312 0.950 . S
H289 C313 0.951 . S
H290 C315 0.951 . S
H291 C317 0.950 . S
H292 C318 0.950 . S
H293 C320 0.950 . S
H294 C323 0.950 . S
H295 C324 0.950 . S
H296 C326 0.950 . S
H297 C327 0.950 . S
C298 H280 0.951 . S
C298 C299 1.366 . S
C298 C300 1.388 . S
C299 C298 1.366 . S
C299 C303 1.385 . S
C300 H281 0.951 . S
C300 C298 1.388 . S
C300 C301 1.366 . S
C301 C300 1.366 . S
C301 C302 1.414 . S
C301 C304 1.499 . S
C302 H282 0.950 . S
C302 C301 1.414 . S
C302 C303 1.374 . S
C303 H283 0.950 . S
C303 C299 1.385 . S
C303 C302 1.374 . S
C304 C301 1.499 . S
C304 C305 1.373 . S
C304 C306 1.389 . S
C305 H284 0.950 . S
C305 C304 1.373 . S
C305 C321 1.377 . S
C306 C304 1.389 . S
C306 C307 1.524 . S
C306 C320 1.377 . S
C307 C306 1.524 . S
C307 C308 1.397 . S
C307 C312 1.363 . S
C308 H285 0.950 . S
C308 C307 1.397 . S
C308 C309 1.334 . S
C309 H286 0.950 . S
C309 C308 1.334 . S
C309 C310 1.287 . S
C310 C309 1.287 . S
C310 C311 1.524 . S
C310 H329 0.913 . S
C311 H287 0.950 . S
C311 C310 1.524 . S
C311 C312 1.415 . S
C312 H288 0.950 . S
C312 C307 1.363 . S
C312 C311 1.415 . S
C313 H289 0.951 . S
C313 C314 1.366 . S
C313 C315 1.388 . S
C314 C313 1.366 . S
C314 C318 1.385 . S
C315 H290 0.951 . S
C315 C313 1.388 . S
C315 C316 1.366 . S
C316 C315 1.366 . S
C316 C317 1.414 . S
C316 C319 1.499 . S
C317 H291 0.950 . S
C317 C316 1.414 . S
C317 C318 1.374 . S
C318 H292 0.950 . S
C318 C314 1.385 . S
C318 C317 1.374 . S
C319 C316 1.499 . S
C319 C320 1.373 . S
C319 C321 1.389 . S
C320 H293 0.950 . S
C320 C306 1.377 . S
C320 C319 1.373 . S
C321 C305 1.377 . S
C321 C319 1.389 . S
C321 C322 1.524 . S
C322 C321 1.524 . S
C322 C323 1.397 . S
C322 C327 1.363 . S
C323 H294 0.950 . S
C323 C322 1.397 . S
C323 C324 1.334 . S
C324 H295 0.950 . S
C324 C323 1.334 . S
C324 C325 1.287 . S
C325 C324 1.287 . S
C325 C326 1.524 . S
C325 H328 0.999 . S
C326 H296 0.950 . S
C326 C325 1.524 . S
C326 C327 1.415 . S
C327 H297 0.950 . S
C327 C322 1.363 . S
C327 C326 1.415 . S
H328 C325 0.999 . S
H329 C310 0.913 . S
H330 C348 0.951 . S
H331 C350 0.951 . S
H332 C352 0.950 . S
H333 C353 0.950 . S
H334 C355 0.950 . S
H335 C358 0.950 . S
H336 C359 0.950 . S
H337 C361 0.950 . S
H338 C362 0.950 . S
H339 C363 0.951 . S
H340 C365 0.951 . S
H341 C367 0.950 . S
H342 C368 0.950 1_455 S
H343 C370 0.950 . S
H344 C373 0.950 . S
H345 C374 0.950 . S
H346 C376 0.950 . S
H347 C377 0.950 . S
C348 H330 0.951 . S
C348 C349 1.366 . S
C348 C350 1.388 . S
C349 C348 1.366 . S
C349 C353 1.385 . S
C350 H331 0.951 . S
C350 C348 1.388 . S
C350 C351 1.366 . S
C351 C350 1.366 . S
C351 C352 1.414 . S
C351 C354 1.499 . S
C352 H332 0.950 . S
C352 C351 1.414 . S
C352 C353 1.374 . S
C353 H333 0.950 . S
C353 C349 1.385 . S
C353 C352 1.374 . S
C354 C351 1.499 . S
C354 C355 1.373 . S
C354 C356 1.389 . S
C355 H334 0.950 . S
C355 C354 1.373 . S
C355 C371 1.377 . S
C356 C354 1.389 . S
C356 C357 1.524 . S
C356 C370 1.377 . S
C357 C356 1.524 . S
C357 C358 1.397 . S
C357 C362 1.363 . S
C358 H335 0.950 . S
C358 C357 1.397 . S
C358 C359 1.334 . S
C359 H336 0.950 . S
C359 C358 1.334 . S
C359 C360 1.287 . S
C360 C359 1.287 . S
C360 C361 1.524 . S
C360 H379 0.913 . S
C361 H337 0.950 . S
C361 C360 1.524 . S
C361 C362 1.415 . S
C362 H338 0.950 . S
C362 C357 1.363 . S
C362 C361 1.415 . S
C363 H339 0.951 . S
C363 C364 1.366 1_655 S
C363 C365 1.388 . S
C364 C363 1.366 1_455 S
C364 C368 1.385 1_455 S
C365 H340 0.951 . S
C365 C363 1.388 . S
C365 C366 1.366 . S
C366 C365 1.366 . S
C366 C367 1.414 . S
C366 C369 1.499 . S
C367 H341 0.950 . S
C367 C366 1.414 . S
C367 C368 1.374 . S
C368 H342 0.950 1_655 S
C368 C364 1.385 1_655 S
C368 C367 1.374 . S
C369 C366 1.499 . S
C369 C370 1.373 . S
C369 C371 1.389 . S
C370 H343 0.950 . S
C370 C356 1.377 . S
C370 C369 1.373 . S
C371 C355 1.377 . S
C371 C369 1.389 . S
C371 C372 1.524 . S
C372 C371 1.524 . S
C372 C373 1.397 . S
C372 C377 1.363 . S
C373 H344 0.950 . S
C373 C372 1.397 . S
C373 C374 1.334 . S
C374 H345 0.950 . S
C374 C373 1.334 . S
C374 C375 1.287 . S
C375 C374 1.287 . S
C375 C376 1.524 . S
C375 H378 0.999 . S
C376 H346 0.950 . S
C376 C375 1.524 . S
C376 C377 1.415 . S
C377 H347 0.950 . S
C377 C372 1.363 . S
C377 C376 1.415 . S
H378 C375 0.999 . S
H379 C360 0.913 . S
H380 C398 0.951 . S
H381 C400 0.951 . S
H382 C402 0.950 . S
H383 C403 0.950 . S
H384 C405 0.950 . S
H385 C408 0.950 . S
H386 C409 0.950 . S
H387 C411 0.950 . S
H388 C412 0.950 . S
H389 C413 0.951 . S
H390 C415 0.951 . S
H391 C417 0.950 . S
H392 C418 0.950 . S
H393 C420 0.950 . S
H394 C423 0.950 . S
H395 C424 0.950 . S
H396 C426 0.950 . S
H397 C427 0.950 . S
C398 H380 0.951 . S
C398 C399 1.366 . S
C398 C400 1.388 . S
C399 C398 1.366 . S
C399 C403 1.385 . S
C400 H381 0.951 . S
C400 C398 1.388 . S
C400 C401 1.366 . S
C401 C400 1.366 . S
C401 C402 1.414 . S
C401 C404 1.499 . S
C402 H382 0.950 . S
C402 C401 1.414 . S
C402 C403 1.374 . S
C403 H383 0.950 . S
C403 C399 1.385 . S
C403 C402 1.374 . S
C404 C401 1.499 . S
C404 C405 1.373 . S
C404 C406 1.389 . S
C405 H384 0.950 . S
C405 C404 1.373 . S
C405 C421 1.377 . S
C406 C404 1.389 . S
C406 C407 1.524 . S
C406 C420 1.377 . S
C407 C406 1.524 . S
C407 C408 1.397 . S
C407 C412 1.363 . S
C408 H385 0.950 . S
C408 C407 1.397 . S
C408 C409 1.334 . S
C409 H386 0.950 . S
C409 C408 1.334 . S
C409 C410 1.287 . S
C410 C409 1.287 . S
C410 C411 1.524 . S
C410 H429 0.913 . S
C411 H387 0.950 . S
C411 C410 1.524 . S
C411 C412 1.415 . S
C412 H388 0.950 . S
C412 C407 1.363 . S
C412 C411 1.415 . S
C413 H389 0.951 . S
C413 C414 1.366 . S
C413 C415 1.388 . S
C414 C413 1.366 . S
C414 C418 1.385 . S
C415 H390 0.951 . S
C415 C413 1.388 . S
C415 C416 1.366 . S
C416 C415 1.366 . S
C416 C417 1.414 . S
C416 C419 1.499 . S
C417 H391 0.950 . S
C417 C416 1.414 . S
C417 C418 1.374 . S
C418 H392 0.950 . S
C418 C414 1.385 . S
C418 C417 1.374 . S
C419 C416 1.499 . S
C419 C420 1.373 . S
C419 C421 1.389 . S
C420 H393 0.950 . S
C420 C406 1.377 . S
C420 C419 1.373 . S
C421 C405 1.377 . S
C421 C419 1.389 . S
C421 C422 1.524 . S
C422 C421 1.524 . S
C422 C423 1.397 . S
C422 C427 1.363 . S
C423 H394 0.950 . S
C423 C422 1.397 . S
C423 C424 1.334 1_455 S
C424 H395 0.950 . S
C424 C423 1.334 1_655 S
C424 C425 1.281 1_655 S
C425 C424 1.281 1_455 S
C425 C426 1.543 . S
C425 H428 0.988 1_455 S
C426 H396 0.950 . S
C426 C425 1.543 . S
C426 C427 1.415 . S
C427 H397 0.950 . S
C427 C422 1.363 . S
C427 C426 1.415 . S
H428 C425 0.988 1_655 S
H429 C410 0.913 . S
H430 C448 0.951 . S
H431 C450 0.951 . S
H432 C452 0.950 . S
H433 C453 0.950 . S
H434 C455 0.950 . S
H435 C458 0.950 . S
H436 C459 0.950 . S
H437 C461 0.950 . S
H438 C462 0.950 . S
H439 C463 0.951 1_455 S
H440 C465 0.951 . S
H441 C467 0.950 . S
H442 C468 0.949 . S
H443 C470 0.950 . S
H444 C473 0.950 . S
H445 C474 0.950 . S
H446 C476 0.950 . S
H447 C477 0.950 . S
C448 H430 0.951 . S
C448 C449 1.366 . S
C448 C450 1.388 . S
C449 C448 1.366 . S
C449 C453 1.385 . S
C450 H431 0.951 . S
C450 C448 1.388 . S
C450 C451 1.366 . S
C451 C450 1.366 . S
C451 C452 1.414 . S
C451 C454 1.499 . S
C452 H432 0.950 . S
C452 C451 1.414 . S
C452 C453 1.374 . S
C453 H433 0.950 . S
C453 C449 1.385 . S
C453 C452 1.374 . S
C454 C451 1.499 . S
C454 C455 1.373 . S
C454 C456 1.389 . S
C455 H434 0.950 . S
C455 C454 1.373 . S
C455 C471 1.377 . S
C456 C454 1.389 . S
C456 C457 1.524 . S
C456 C470 1.377 . S
C457 C456 1.524 . S
C457 C458 1.397 . S
C457 C462 1.363 . S
C458 H435 0.950 . S
C458 C457 1.397 . S
C458 C459 1.334 . S
C459 H436 0.950 . S
C459 C458 1.334 . S
C459 C460 1.287 . S
C460 C459 1.287 . S
C460 C461 1.524 . S
C460 H479 0.913 . S
C461 H437 0.950 . S
C461 C460 1.524 . S
C461 C462 1.415 . S
C462 H438 0.950 . S
C462 C457 1.363 . S
C462 C461 1.415 . S
C463 H439 0.951 1_655 S
C463 C464 1.366 1_655 S
C463 C465 1.388 . S
C464 C463 1.366 1_455 S
C464 C468 1.385 1_455 S
C465 H440 0.951 . S
C465 C463 1.388 . S
C465 C466 1.366 . S
C466 C465 1.366 . S
C466 C467 1.414 . S
C466 C469 1.499 . S
C467 H441 0.950 . S
C467 C466 1.414 . S
C467 C468 1.374 . S
C468 H442 0.949 . S
C468 C464 1.385 1_655 S
C468 C467 1.374 . S
C469 C466 1.499 . S
C469 C470 1.373 . S
C469 C471 1.389 . S
C470 H443 0.950 . S
C470 C456 1.377 . S
C470 C469 1.373 . S
C471 C455 1.377 . S
C471 C469 1.389 . S
C471 C472 1.524 . S
C472 C471 1.524 . S
C472 C473 1.397 . S
C472 C477 1.363 . S
C473 H444 0.950 . S
C473 C472 1.397 . S
C473 C474 1.334 . S
C474 H445 0.950 . S
C474 C473 1.334 . S
C474 C475 1.287 . S
C475 C474 1.287 . S
C475 C476 1.524 . S
C475 H478 0.999 . S
C476 H446 0.950 . S
C476 C475 1.524 . S
C476 C477 1.415 . S
C477 H447 0.950 . S
C477 C472 1.363 . S
C477 C476 1.415 . S
H478 C475 0.999 . S
H479 C460 0.913 . S
H480 C498 0.951 . S
H481 C500 0.951 . S
H482 C502 0.950 . S
H483 C503 0.950 . S
H484 C505 0.950 . S
H485 C508 0.950 . S
H486 C509 0.950 . S
H487 C511 0.950 . S
H488 C512 0.950 . S
H489 C513 0.951 . S
H490 C515 0.951 . S
H491 C517 0.950 . S
H492 C518 0.950 . S
H493 C520 0.950 . S
H494 C523 0.950 . S
H495 C524 0.950 . S
H496 C526 0.950 . S
H497 C527 0.950 . S
C498 H480 0.951 . S
C498 C499 1.366 . S
C498 C500 1.388 . S
C499 C498 1.366 . S
C499 C503 1.385 . S
C500 H481 0.951 . S
C500 C498 1.388 . S
C500 C501 1.366 . S
C501 C500 1.366 . S
C501 C502 1.414 . S
C501 C504 1.499 . S
C502 H482 0.950 . S
C502 C501 1.414 . S
C502 C503 1.374 . S
C503 H483 0.950 . S
C503 C499 1.385 . S
C503 C502 1.374 . S
C504 C501 1.499 . S
C504 C505 1.373 . S
C504 C506 1.389 . S
C505 H484 0.950 . S
C505 C504 1.373 . S
C505 C521 1.377 . S
C506 C504 1.389 . S
C506 C507 1.524 . S
C506 C520 1.377 . S
C507 C506 1.524 . S
C507 C508 1.397 . S
C507 C512 1.363 . S
C508 H485 0.950 . S
C508 C507 1.397 . S
C508 C509 1.334 . S
C509 H486 0.950 . S
C509 C508 1.334 . S
C509 C510 1.287 . S
C510 C509 1.287 . S
C510 C511 1.524 . S
C510 H529 0.913 . S
C511 H487 0.950 . S
C511 C510 1.524 . S
C511 C512 1.415 . S
C512 H488 0.950 . S
C512 C507 1.363 . S
C512 C511 1.415 . S
C513 H489 0.951 . S
C513 C514 1.366 . S
C513 C515 1.388 . S
C514 C513 1.366 . S
C514 C518 1.385 . S
C515 H490 0.951 . S
C515 C513 1.388 . S
C515 C516 1.366 . S
C516 C515 1.366 . S
C516 C517 1.414 . S
C516 C519 1.499 . S
C517 H491 0.950 . S
C517 C516 1.414 . S
C517 C518 1.374 . S
C518 H492 0.950 . S
C518 C514 1.385 . S
C518 C517 1.374 . S
C519 C516 1.499 . S
C519 C520 1.373 . S
C519 C521 1.389 . S
C520 H493 0.950 . S
C520 C506 1.377 . S
C520 C519 1.373 . S
C521 C505 1.377 . S
C521 C519 1.389 . S
C521 C522 1.524 . S
C522 C521 1.524 . S
C522 C523 1.397 . S
C522 C527 1.363 . S
C523 H494 0.950 . S
C523 C522 1.397 . S
C523 C524 1.334 . S
C524 H495 0.950 . S
C524 C523 1.334 . S
C524 C525 1.287 . S
C525 C524 1.287 . S
C525 C526 1.524 . S
C525 H528 0.999 . S
C526 H496 0.950 . S
C526 C525 1.524 . S
C526 C527 1.415 . S
C527 H497 0.950 . S
C527 C522 1.363 . S
C527 C526 1.415 . S
H528 C525 0.999 . S
H529 C510 0.913 . S
H530 C548 0.951 . S
H531 C550 0.951 . S
H532 C552 0.950 . S
H533 C553 0.950 . S
H534 C555 0.950 . S
H535 C558 0.950 . S
H536 C559 0.950 . S
H537 C561 0.950 . S
H538 C562 0.950 . S
H539 C563 0.951 . S
H540 C565 0.951 . S
H541 C567 0.950 . S
H542 C568 0.950 . S
H543 C570 0.950 . S
H544 C573 0.950 . S
H545 C574 0.950 . S
H546 C576 0.950 . S
H547 C577 0.950 . S
C548 H530 0.951 . S
C548 C549 1.366 . S
C548 C550 1.388 1_455 S
C549 C548 1.366 . S
C549 C553 1.385 . S
C550 H531 0.951 . S
C550 C548 1.388 1_655 S
C550 C551 1.366 . S
C551 C550 1.366 . S
C551 C552 1.414 . S
C551 C554 1.499 . S
C552 H532 0.950 . S
C552 C551 1.414 . S
C552 C553 1.374 1_655 S
C553 H533 0.950 . S
C553 C549 1.385 . S
C553 C552 1.374 1_455 S
C554 C551 1.499 . S
C554 C555 1.373 . S
C554 C556 1.389 . S
C555 H534 0.950 . S
C555 C554 1.373 . S
C555 C571 1.377 . S
C556 C554 1.389 . S
C556 C557 1.524 . S
C556 C570 1.377 . S
C557 C556 1.524 . S
C557 C558 1.397 . S
C557 C562 1.363 . S
C558 H535 0.950 . S
C558 C557 1.397 . S
C558 C559 1.334 . S
C559 H536 0.950 . S
C559 C558 1.334 . S
C559 C560 1.287 . S
C560 C559 1.287 . S
C560 C561 1.524 . S
C560 H579 0.913 . S
C561 H537 0.950 . S
C561 C560 1.524 . S
C561 C562 1.415 . S
C562 H538 0.950 . S
C562 C557 1.363 . S
C562 C561 1.415 . S
C563 H539 0.951 . S
C563 C564 1.366 . S
C563 C565 1.388 . S
C564 C563 1.366 . S
C564 C568 1.385 . S
C565 H540 0.951 . S
C565 C563 1.388 . S
C565 C566 1.366 . S
C566 C565 1.366 . S
C566 C567 1.414 . S
C566 C569 1.499 . S
C567 H541 0.950 . S
C567 C566 1.414 . S
C567 C568 1.374 . S
C568 H542 0.950 . S
C568 C564 1.385 . S
C568 C567 1.374 . S
C569 C566 1.499 . S
C569 C570 1.373 . S
C569 C571 1.389 . S
C570 H543 0.950 . S
C570 C556 1.377 . S
C570 C569 1.373 . S
C571 C555 1.377 . S
C571 C569 1.389 . S
C571 C572 1.524 . S
C572 C571 1.524 . S
C572 C573 1.397 . S
C572 C577 1.363 . S
C573 H544 0.950 . S
C573 C572 1.397 . S
C573 C574 1.334 . S
C574 H545 0.950 . S
C574 C573 1.334 . S
C574 C575 1.287 . S
C575 C574 1.287 . S
C575 C576 1.524 . S
C575 H578 0.999 . S
C576 H546 0.950 . S
C576 C575 1.524 . S
C576 C577 1.415 . S
C577 H547 0.950 . S
C577 C572 1.363 . S
C577 C576 1.415 . S
H578 C575 0.999 . S
H579 C560 0.913 . S
H580 C598 0.951 . S
H581 C600 0.951 . S
H582 C602 0.950 . S
H583 C603 0.950 . S
H584 C605 0.950 . S
H585 C608 0.950 . S
H586 C609 0.950 . S
H587 C611 0.950 . S
H588 C612 0.950 . S
H589 C613 0.951 . S
H590 C615 0.951 . S
H591 C617 0.950 . S
H592 C618 0.950 . S
H593 C620 0.950 . S
H594 C623 0.950 . S
H595 C624 0.950 . S
H596 C626 0.950 . S
H597 C627 0.950 . S
C598 H580 0.951 . S
C598 C599 1.366 . S
C598 C600 1.388 . S
C599 C598 1.366 . S
C599 C603 1.385 . S
C600 H581 0.951 . S
C600 C598 1.388 . S
C600 C601 1.366 . S
C601 C600 1.366 . S
C601 C602 1.414 . S
C601 C604 1.499 . S
C602 H582 0.950 . S
C602 C601 1.414 . S
C602 C603 1.374 . S
C603 H583 0.950 . S
C603 C599 1.385 . S
C603 C602 1.374 . S
C604 C601 1.499 . S
C604 C605 1.373 . S
C604 C606 1.389 . S
C605 H584 0.950 . S
C605 C604 1.373 . S
C605 C621 1.377 . S
C606 C604 1.389 . S
C606 C607 1.524 . S
C606 C620 1.377 . S
C607 C606 1.524 . S
C607 C608 1.397 . S
C607 C612 1.363 . S
C608 H585 0.950 . S
C608 C607 1.397 . S
C608 C609 1.334 . S
C609 H586 0.950 . S
C609 C608 1.334 . S
C609 C610 1.287 . S
C610 C609 1.287 . S
C610 C611 1.524 . S
C610 H629 0.913 . S
C611 H587 0.950 . S
C611 C610 1.524 . S
C611 C612 1.415 . S
C612 H588 0.950 . S
C612 C607 1.363 . S
C612 C611 1.415 . S
C613 H589 0.951 . S
C613 C614 1.366 . S
C613 C615 1.388 . S
C614 C613 1.366 . S
C614 C618 1.385 . S
C615 H590 0.951 . S
C615 C613 1.388 . S
C615 C616 1.366 . S
C616 C615 1.366 . S
C616 C617 1.414 . S
C616 C619 1.499 . S
C617 H591 0.950 . S
C617 C616 1.414 . S
C617 C618 1.374 . S
C618 H592 0.950 . S
C618 C614 1.385 . S
C618 C617 1.374 . S
C619 C616 1.499 . S
C619 C620 1.373 . S
C619 C621 1.389 . S
C620 H593 0.950 . S
C620 C606 1.377 . S
C620 C619 1.373 . S
C621 C605 1.377 . S
C621 C619 1.389 . S
C621 C622 1.524 . S
C622 C621 1.524 . S
C622 C623 1.397 . S
C622 C627 1.363 . S
C623 H594 0.950 . S
C623 C622 1.397 . S
C623 C624 1.334 . S
C624 H595 0.950 . S
C624 C623 1.334 . S
C624 C625 1.287 . S
C625 C624 1.287 . S
C625 C626 1.524 . S
C625 H628 0.999 . S
C626 H596 0.950 . S
C626 C625 1.524 . S
C626 C627 1.415 . S
C627 H597 0.950 . S
C627 C622 1.363 . S
C627 C626 1.415 . S
H628 C625 0.999 . S
H629 C610 0.913 . S
H630 C648 0.951 . S
H631 C650 0.951 . S
H632 C652 0.950 . S
H633 C653 0.950 . S
H634 C655 0.950 . S
H635 C658 0.950 . S
H636 C659 0.950 . S
H637 C661 0.950 . S
H638 C662 0.950 . S
H639 C663 0.951 . S
H640 C665 0.951 . S
H641 C667 0.950 . S
H642 C668 0.950 . S
H643 C670 0.950 . S
H644 C673 0.950 . S
H645 C674 0.950 . S
H646 C676 0.950 . S
H647 C677 0.950 . S
C648 H630 0.951 . S
C648 C649 1.366 . S
C648 C650 1.388 . S
C649 C648 1.366 . S
C649 C653 1.385 . S
C650 H631 0.951 . S
C650 C648 1.388 . S
C650 C651 1.366 . S
C651 C650 1.366 . S
C651 C652 1.414 . S
C651 C654 1.499 . S
C652 H632 0.950 . S
C652 C651 1.414 . S
C652 C653 1.374 . S
C653 H633 0.950 . S
C653 C649 1.385 . S
C653 C652 1.374 . S
C654 C651 1.499 . S
C654 C655 1.373 . S
C654 C656 1.389 . S
C655 H634 0.950 . S
C655 C654 1.373 . S
C655 C671 1.377 . S
C656 C654 1.389 . S
C656 C657 1.524 . S
C656 C670 1.377 . S
C657 C656 1.524 . S
C657 C658 1.397 . S
C657 C662 1.363 . S
C658 H635 0.950 . S
C658 C657 1.397 . S
C658 C659 1.334 . S
C659 H636 0.950 . S
C659 C658 1.334 . S
C659 C660 1.287 . S
C660 C659 1.287 . S
C660 C661 1.524 . S
C660 H679 0.913 . S
C661 H637 0.950 . S
C661 C660 1.524 . S
C661 C662 1.415 . S
C662 H638 0.950 . S
C662 C657 1.363 . S
C662 C661 1.415 . S
C663 H639 0.951 . S
C663 C664 1.366 . S
C663 C665 1.388 . S
C664 C663 1.366 . S
C664 C668 1.385 . S
C665 H640 0.951 . S
C665 C663 1.388 . S
C665 C666 1.366 . S
C666 C665 1.366 . S
C666 C667 1.414 . S
C666 C669 1.499 . S
C667 H641 0.950 . S
C667 C666 1.414 . S
C667 C668 1.374 . S
C668 H642 0.950 . S
C668 C664 1.385 . S
C668 C667 1.374 . S
C669 C666 1.499 . S
C669 C670 1.373 . S
C669 C671 1.389 . S
C670 H643 0.950 . S
C670 C656 1.377 . S
C670 C669 1.373 . S
C671 C655 1.377 . S
C671 C669 1.389 . S
C671 C672 1.524 . S
C672 C671 1.524 . S
C672 C673 1.397 . S
C672 C677 1.363 . S
C673 H644 0.950 . S
C673 C672 1.397 . S
C673 C674 1.334 . S
C674 H645 0.950 . S
C674 C673 1.334 . S
C674 C675 1.287 . S
C675 C674 1.287 . S
C675 C676 1.524 . S
C675 H678 0.999 . S
C676 H646 0.950 . S
C676 C675 1.524 . S
C676 C677 1.415 . S
C677 H647 0.950 . S
C677 C672 1.363 . S
C677 C676 1.415 . S
H678 C675 0.999 . S
H679 C660 0.913 . S
H680 C698 0.951 . S
H681 C700 0.951 . S
H682 C702 0.950 . S
H683 C703 0.950 . S
H684 C705 0.950 . S
H685 C708 0.950 . S
H686 C709 0.950 . S
H687 C711 0.950 . S
H688 C712 0.950 . S
H689 C713 0.951 . S
H690 C715 0.951 . S
H691 C717 0.950 . S
H692 C718 0.950 . S
H693 C720 0.950 . S
H694 C723 0.950 . S
H695 C724 0.950 . S
H696 C726 0.950 . S
H697 C727 0.950 . S
C698 H680 0.951 . S
C698 C699 1.366 . S
C698 C700 1.388 . S
C699 C698 1.366 . S
C699 C703 1.385 . S
C700 H681 0.951 . S
C700 C698 1.388 . S
C700 C701 1.366 . S
C701 C700 1.366 . S
C701 C702 1.414 . S
C701 C704 1.499 . S
C702 H682 0.950 . S
C702 C701 1.414 . S
C702 C703 1.374 . S
C703 H683 0.950 . S
C703 C699 1.385 . S
C703 C702 1.374 . S
C704 C701 1.499 . S
C704 C705 1.373 . S
C704 C706 1.389 . S
C705 H684 0.950 . S
C705 C704 1.373 . S
C705 C721 1.377 . S
C706 C704 1.389 . S
C706 C707 1.524 . S
C706 C720 1.377 . S
C707 C706 1.524 . S
C707 C708 1.397 . S
C707 C712 1.363 . S
C708 H685 0.950 . S
C708 C707 1.397 . S
C708 C709 1.334 . S
C709 H686 0.950 . S
C709 C708 1.334 . S
C709 C710 1.287 . S
C710 C709 1.287 . S
C710 C711 1.524 . S
C710 H729 0.913 . S
C711 H687 0.950 . S
C711 C710 1.524 . S
C711 C712 1.415 . S
C712 H688 0.950 . S
C712 C707 1.363 . S
C712 C711 1.415 . S
C713 H689 0.951 . S
C713 C714 1.366 . S
C713 C715 1.388 . S
C714 C713 1.366 . S
C714 C718 1.385 . S
C715 H690 0.951 . S
C715 C713 1.388 . S
C715 C716 1.366 . S
C716 C715 1.366 . S
C716 C717 1.414 . S
C716 C719 1.499 . S
C717 H691 0.950 . S
C717 C716 1.414 . S
C717 C718 1.374 . S
C718 H692 0.950 . S
C718 C714 1.385 . S
C718 C717 1.374 . S
C719 C716 1.499 . S
C719 C720 1.373 . S
C719 C721 1.389 . S
C720 H693 0.950 . S
C720 C706 1.377 . S
C720 C719 1.373 . S
C721 C705 1.377 . S
C721 C719 1.389 . S
C721 C722 1.524 . S
C722 C721 1.524 . S
C722 C723 1.397 . S
C722 C727 1.363 . S
C723 H694 0.950 . S
C723 C722 1.397 . S
C723 C724 1.334 . S
C724 H695 0.950 . S
C724 C723 1.334 . S
C724 C725 1.287 . S
C725 C724 1.287 . S
C725 C726 1.524 . S
C725 H728 0.999 . S
C726 H696 0.950 . S
C726 C725 1.524 . S
C726 C727 1.415 . S
C727 H697 0.950 . S
C727 C722 1.363 . S
C727 C726 1.415 . S
H728 C725 0.999 . S
H729 C710 0.913 . S
H730 C748 0.951 . S
H731 C750 0.951 . S
H732 C752 0.950 . S
H733 C753 0.950 . S
H734 C755 0.950 . S
H735 C758 0.950 . S
H736 C759 0.950 . S
H737 C761 0.950 . S
H738 C762 0.950 . S
H739 C763 0.951 . S
H740 C765 0.951 . S
H741 C767 0.950 . S
H742 C768 0.950 . S
H743 C770 0.950 . S
H744 C773 0.950 . S
H745 C774 0.950 . S
H746 C776 0.950 . S
H747 C777 0.950 . S
C748 H730 0.951 . S
C748 C749 1.366 . S
C748 C750 1.388 . S
C749 C748 1.366 . S
C749 C753 1.385 . S
C750 H731 0.951 . S
C750 C748 1.388 . S
C750 C751 1.366 . S
C751 C750 1.366 . S
C751 C752 1.414 . S
C751 C754 1.499 . S
C752 H732 0.950 . S
C752 C751 1.414 . S
C752 C753 1.374 . S
C753 H733 0.950 . S
C753 C749 1.385 . S
C753 C752 1.374 . S
C754 C751 1.499 . S
C754 C755 1.373 . S
C754 C756 1.389 . S
C755 H734 0.950 . S
C755 C754 1.373 . S
C755 C771 1.377 . S
C756 C754 1.389 . S
C756 C757 1.524 . S
C756 C770 1.377 . S
C757 C756 1.524 . S
C757 C758 1.397 . S
C757 C762 1.363 . S
C758 H735 0.950 . S
C758 C757 1.397 . S
C758 C759 1.334 . S
C759 H736 0.950 . S
C759 C758 1.334 . S
C759 C760 1.287 . S
C760 C759 1.287 . S
C760 C761 1.524 . S
C760 H779 0.913 . S
C761 H737 0.950 . S
C761 C760 1.524 . S
C761 C762 1.415 . S
C762 H738 0.950 . S
C762 C757 1.363 . S
C762 C761 1.415 . S
C763 H739 0.951 . S
C763 C764 1.366 . S
C763 C765 1.388 . S
C764 C763 1.366 . S
C764 C768 1.385 . S
C765 H740 0.951 . S
C765 C763 1.388 . S
C765 C766 1.366 . S
C766 C765 1.366 . S
C766 C767 1.414 . S
C766 C769 1.499 . S
C767 H741 0.950 . S
C767 C766 1.414 . S
C767 C768 1.374 . S
C768 H742 0.950 . S
C768 C764 1.385 . S
C768 C767 1.374 . S
C769 C766 1.499 . S
C769 C770 1.373 . S
C769 C771 1.389 . S
C770 H743 0.950 . S
C770 C756 1.377 . S
C770 C769 1.373 . S
C771 C755 1.377 . S
C771 C769 1.389 . S
C771 C772 1.524 . S
C772 C771 1.524 . S
C772 C773 1.397 . S
C772 C777 1.363 . S
C773 H744 0.950 . S
C773 C772 1.397 . S
C773 C774 1.334 . S
C774 H745 0.950 . S
C774 C773 1.334 . S
C774 C775 1.287 . S
C775 C774 1.287 . S
C775 C776 1.524 . S
C775 H778 0.999 . S
C776 H746 0.950 . S
C776 C775 1.524 . S
C776 C777 1.415 . S
C777 H747 0.950 . S
C777 C772 1.363 . S
C777 C776 1.415 . S
H778 C775 0.999 . S
H779 C760 0.913 . S
H780 C798 0.951 . S
H781 C800 0.951 . S
H782 C802 0.950 . S
H783 C803 0.950 . S
H784 C805 0.950 . S
H785 C808 0.950 . S
H786 C809 0.950 . S
H787 C811 0.950 . S
H788 C812 0.950 . S
H789 C813 0.951 . S
H790 C815 0.951 . S
H791 C817 0.950 . S
H792 C818 0.950 . S
H793 C820 0.950 . S
H794 C823 0.950 . S
H795 C824 0.950 . S
H796 C826 0.950 . S
H797 C827 0.950 . S
C798 H780 0.951 . S
C798 C799 1.366 . S
C798 C800 1.388 . S
C799 C798 1.366 . S
C799 C803 1.385 . S
C800 H781 0.951 . S
C800 C798 1.388 . S
C800 C801 1.366 . S
C801 C800 1.366 . S
C801 C802 1.414 . S
C801 C804 1.499 . S
C802 H782 0.950 . S
C802 C801 1.414 . S
C802 C803 1.374 . S
C803 H783 0.950 . S
C803 C799 1.385 . S
C803 C802 1.374 . S
C804 C801 1.499 . S
C804 C805 1.373 . S
C804 C806 1.389 . S
C805 H784 0.950 . S
C805 C804 1.373 . S
C805 C821 1.377 . S
C806 C804 1.389 . S
C806 C807 1.524 . S
C806 C820 1.377 . S
C807 C806 1.524 . S
C807 C808 1.397 . S
C807 C812 1.363 . S
C808 H785 0.950 . S
C808 C807 1.397 . S
C808 C809 1.334 . S
C809 H786 0.950 . S
C809 C808 1.334 . S
C809 C810 1.287 . S
C810 C809 1.287 . S
C810 C811 1.524 . S
C810 H829 0.913 . S
C811 H787 0.950 . S
C811 C810 1.524 . S
C811 C812 1.415 . S
C812 H788 0.950 . S
C812 C807 1.363 . S
C812 C811 1.415 . S
C813 H789 0.951 . S
C813 C814 1.366 . S
C813 C815 1.388 . S
C814 C813 1.366 . S
C814 C818 1.385 . S
C815 H790 0.951 . S
C815 C813 1.388 . S
C815 C816 1.366 . S
C816 C815 1.366 . S
C816 C817 1.414 . S
C816 C819 1.499 1_545 S
C817 H791 0.950 . S
C817 C816 1.414 . S
C817 C818 1.374 . S
C818 H792 0.950 . S
C818 C814 1.385 . S
C818 C817 1.374 . S
C819 C816 1.499 1_565 S
C819 C820 1.373 . S
C819 C821 1.389 . S
C820 H793 0.950 . S
C820 C806 1.377 . S
C820 C819 1.373 . S
C821 C805 1.377 . S
C821 C819 1.389 . S
C821 C822 1.524 . S
C822 C821 1.524 . S
C822 C823 1.397 1_565 S
C822 C827 1.363 . S
C823 H794 0.950 . S
C823 C822 1.397 1_545 S
C823 C824 1.334 . S
C824 H795 0.950 . S
C824 C823 1.334 . S
C824 C825 1.287 . S
C825 C824 1.287 . S
C825 C826 1.524 1_545 S
C825 H828 0.999 . S
C826 H796 0.950 . S
C826 C825 1.524 1_565 S
C826 C827 1.415 . S
C827 H797 0.950 . S
C827 C822 1.363 . S
C827 C826 1.415 . S
H828 C825 0.999 . S
H829 C810 0.913 . S
H830 C848 0.951 . S
H831 C850 0.951 . S
H832 C852 0.950 . S
H833 C853 0.950 . S
H834 C855 0.950 . S
H835 C858 0.950 . S
H836 C859 0.950 . S
H837 C861 0.950 . S
H838 C862 0.950 . S
H839 C863 0.951 . S
H840 C865 0.951 . S
H841 C867 0.950 . S
H842 C868 0.950 . S
H843 C870 0.950 . S
H844 C873 0.950 . S
H845 C874 0.950 . S
H846 C876 0.950 . S
H847 C877 0.950 . S
C848 H830 0.951 . S
C848 C849 1.366 . S
C848 C850 1.388 . S
C849 C848 1.366 . S
C849 C853 1.385 . S
C850 H831 0.951 . S
C850 C848 1.388 . S
C850 C851 1.366 . S
C851 C850 1.366 . S
C851 C852 1.414 . S
C851 C854 1.499 . S
C852 H832 0.950 . S
C852 C851 1.414 . S
C852 C853 1.374 . S
C853 H833 0.950 . S
C853 C849 1.385 . S
C853 C852 1.374 . S
C854 C851 1.499 . S
C854 C855 1.373 1_545 S
C854 C856 1.384 1_545 S
C855 H834 0.950 . S
C855 C854 1.373 1_565 S
C855 C871 1.377 . S
C856 C854 1.384 1_565 S
C856 C857 1.513 1_565 S
C856 C870 1.394 . S
C857 C856 1.513 1_545 S
C857 C858 1.397 . S
C857 C862 1.363 . S
C858 H835 0.950 . S
C858 C857 1.397 . S
C858 C859 1.334 . S
C859 H836 0.950 . S
C859 C858 1.334 . S
C859 C860 1.287 . S
C860 C859 1.287 . S
C860 C861 1.524 . S
C860 H879 0.913 . S
C861 H837 0.950 . S
C861 C860 1.524 . S
C861 C862 1.415 . S
C862 H838 0.950 . S
C862 C857 1.363 . S
C862 C861 1.415 . S
C863 H839 0.951 . S
C863 C864 1.366 . S
C863 C865 1.388 . S
C864 C863 1.366 . S
C864 C868 1.385 . S
C865 H840 0.951 . S
C865 C863 1.388 . S
C865 C866 1.366 . S
C866 C865 1.366 . S
C866 C867 1.414 . S
C866 C869 1.499 . S
C867 H841 0.950 . S
C867 C866 1.414 . S
C867 C868 1.374 . S
C868 H842 0.950 . S
C868 C864 1.385 . S
C868 C867 1.374 . S
C869 C866 1.499 . S
C869 C870 1.373 . S
C869 C871 1.389 . S
C870 H843 0.950 . S
C870 C856 1.394 . S
C870 C869 1.373 . S
C871 C855 1.377 . S
C871 C869 1.389 . S
C871 C872 1.524 . S
C872 C871 1.524 . S
C872 C873 1.397 . S
C872 C877 1.363 . S
C873 H844 0.950 . S
C873 C872 1.397 . S
C873 C874 1.334 . S
C874 H845 0.950 . S
C874 C873 1.334 . S
C874 C875 1.287 . S
C875 C874 1.287 . S
C875 C876 1.524 . S
C875 H878 0.999 . S
C876 H846 0.950 . S
C876 C875 1.524 . S
C876 C877 1.415 . S
C877 H847 0.950 . S
C877 C872 1.363 . S
C877 C876 1.415 . S
H878 C875 0.999 . S
H879 C860 0.913 . S
H880 C898 0.951 . S
H881 C900 0.951 . S
H882 C902 0.950 . S
H883 C903 0.950 . S
H884 C905 0.950 . S
H885 C908 0.950 . S
H886 C909 0.950 . S
H887 C911 0.950 . S
H888 C912 0.950 . S
H889 C913 0.951 . S
H890 C915 0.951 . S
H891 C917 0.950 . S
H892 C918 0.950 . S
H893 C920 0.950 . S
H894 C923 0.950 . S
H895 C924 0.950 . S
H896 C926 0.950 . S
H897 C927 0.950 . S
C898 H880 0.951 . S
C898 C899 1.366 . S
C898 C900 1.388 . S
C899 C898 1.366 . S
C899 C903 1.385 . S
C900 H881 0.951 . S
C900 C898 1.388 . S
C900 C901 1.366 . S
C901 C900 1.366 . S
C901 C902 1.414 . S
C901 C904 1.499 . S
C902 H882 0.950 . S
C902 C901 1.414 . S
C902 C903 1.374 . S
C903 H883 0.950 . S
C903 C899 1.385 . S
C903 C902 1.374 . S
C904 C901 1.499 . S
C904 C905 1.373 . S
C904 C906 1.389 . S
C905 H884 0.950 . S
C905 C904 1.373 . S
C905 C921 1.355 1_545 S
C906 C904 1.389 . S
C906 C907 1.524 . S
C906 C920 1.377 . S
C907 C906 1.524 . S
C907 C908 1.397 . S
C907 C912 1.363 . S
C908 H885 0.950 . S
C908 C907 1.397 . S
C908 C909 1.334 . S
C909 H886 0.950 . S
C909 C908 1.334 . S
C909 C910 1.287 . S
C910 C909 1.287 . S
C910 C911 1.524 . S
C910 H929 0.913 . S
C911 H887 0.950 . S
C911 C910 1.524 . S
C911 C912 1.415 . S
C912 H888 0.950 . S
C912 C907 1.363 . S
C912 C911 1.415 . S
C913 H889 0.951 . S
C913 C914 1.366 . S
C913 C915 1.388 . S
C914 C913 1.366 . S
C914 C918 1.385 . S
C915 H890 0.951 . S
C915 C913 1.388 . S
C915 C916 1.366 . S
C916 C915 1.366 . S
C916 C917 1.414 . S
C916 C919 1.499 . S
C917 H891 0.950 . S
C917 C916 1.414 . S
C917 C918 1.374 . S
C918 H892 0.950 . S
C918 C914 1.385 . S
C918 C917 1.374 . S
C919 C916 1.499 . S
C919 C920 1.373 1_565 S
C919 C921 1.396 . S
C920 H893 0.950 . S
C920 C906 1.377 . S
C920 C919 1.373 1_545 S
C921 C905 1.355 1_565 S
C921 C919 1.396 . S
C921 C922 1.538 . S
C922 C921 1.538 . S
C922 C923 1.397 . S
C922 C927 1.363 . S
C923 H894 0.950 . S
C923 C922 1.397 . S
C923 C924 1.334 . S
C924 H895 0.950 . S
C924 C923 1.334 . S
C924 C925 1.287 . S
C925 C924 1.287 . S
C925 C926 1.524 . S
C925 H928 0.999 . S
C926 H896 0.950 . S
C926 C925 1.524 . S
C926 C927 1.415 . S
C927 H897 0.950 . S
C927 C922 1.363 . S
C927 C926 1.415 . S
H928 C925 0.999 . S
H929 C910 0.913 . S
H930 C948 0.951 . S
H931 C950 0.951 . S
H932 C952 0.950 . S
H933 C953 0.950 . S
H934 C955 0.950 . S
H935 C958 0.950 . S
H936 C959 0.950 . S
H937 C961 0.950 . S
H938 C962 0.950 1_455 S
H939 C963 0.951 . S
H940 C965 0.951 . S
H941 C967 0.950 . S
H942 C968 0.950 . S
H943 C970 0.950 . S
H944 C973 0.950 . S
H945 C974 0.950 . S
H946 C976 0.950 1_565 S
H947 C977 0.950 1_565 S
C948 H930 0.951 . S
C948 C949 1.366 . S
C948 C950 1.388 . S
C949 C948 1.366 . S
C949 C953 1.385 . S
C950 H931 0.951 . S
C950 C948 1.388 . S
C950 C951 1.366 . S
C951 C950 1.366 . S
C951 C952 1.414 . S
C951 C954 1.499 . S
C952 H932 0.950 . S
C952 C951 1.414 . S
C952 C953 1.374 . S
C953 H933 0.950 . S
C953 C949 1.385 . S
C953 C952 1.374 . S
C954 C951 1.499 . S
C954 C955 1.373 . S
C954 C956 1.389 1_565 S
C955 H934 0.950 . S
C955 C954 1.373 . S
C955 C971 1.377 1_565 S
C956 C954 1.389 1_545 S
C956 C957 1.517 1_445 S
C956 C970 1.377 . S
C957 C956 1.517 1_665 S
C957 C958 1.401 . S
C957 C962 1.366 1_565 S
C958 H935 0.950 . S
C958 C957 1.401 . S
C958 C959 1.334 . S
C959 H936 0.950 . S
C959 C958 1.334 . S
C959 C960 1.287 . S
C960 C959 1.287 . S
C960 C961 1.524 1_565 S
C960 H979 0.913 . S
C961 H937 0.950 . S
C961 C960 1.524 1_545 S
C961 C962 1.415 . S
C962 H938 0.950 1_655 S
C962 C957 1.366 1_545 S
C962 C961 1.415 . S
C963 H939 0.951 . S
C963 C964 1.366 . S
C963 C965 1.388 . S
C964 C963 1.366 . S
C964 C968 1.385 . S
C965 H940 0.951 . S
C965 C963 1.388 . S
C965 C966 1.366 . S
C966 C965 1.366 . S
C966 C967 1.414 . S
C966 C969 1.499 . S
C967 H941 0.950 . S
C967 C966 1.414 . S
C967 C968 1.374 . S
C968 H942 0.950 . S
C968 C964 1.385 . S
C968 C967 1.374 . S
C969 C966 1.499 . S
C969 C970 1.373 . S
C969 C971 1.389 . S
C970 H943 0.950 . S
C970 C956 1.377 . S
C970 C969 1.373 . S
C971 C955 1.377 1_545 S
C971 C969 1.389 . S
C971 C972 1.524 . S
C972 C971 1.524 . S
C972 C973 1.397 . S
C972 C977 1.363 . S
C973 H944 0.950 . S
C973 C972 1.397 . S
C973 C974 1.334 . S
C974 H945 0.950 . S
C974 C973 1.334 . S
C974 C975 1.287 . S
C975 C974 1.287 . S
C975 C976 1.524 . S
C975 H978 0.999 . S
C976 H946 0.950 1_545 S
C976 C975 1.524 . S
C976 C977 1.415 . S
C977 H947 0.950 1_545 S
C977 C972 1.363 . S
C977 C976 1.415 . S
H978 C975 0.999 . S
H979 C960 0.913 . S
H980 C998 0.951 . S
H981 C1000 0.951 . S
H982 C1002 0.950 . S
H983 C1003 0.950 . S
H984 C1005 0.950 . S
H985 C1008 0.950 . S
H986 C1009 0.950 . S
H987 C1011 0.950 . S
H988 C1012 0.950 . S
H989 C1013 0.951 . S
H990 C1015 0.951 . S
H991 C1017 0.950 . S
H992 C1018 0.950 . S
H993 C1020 0.950 . S
H994 C1023 0.950 . S
H995 C1024 0.950 . S
H996 C1026 0.950 . S
H997 C1027 0.950 . S
C998 H980 0.951 . S
C998 C999 1.366 . S
C998 C1000 1.388 . S
C999 C998 1.366 . S
C999 C1003 1.385 . S
C1000 H981 0.951 . S
C1000 C998 1.388 . S
C1000 C1001 1.366 . S
C1001 C1000 1.366 . S
C1001 C1002 1.414 . S
C1001 C1004 1.499 1_554 S
C1002 H982 0.950 . S
C1002 C1001 1.414 . S
C1002 C1003 1.374 . S
C1003 H983 0.950 . S
C1003 C999 1.385 . S
C1003 C1002 1.374 . S
C1004 C1001 1.499 1_556 S
C1004 C1005 1.373 . S
C1004 C1006 1.389 . S
C1005 H984 0.950 . S
C1005 C1004 1.373 . S
C1005 C1021 1.377 . S
C1006 C1004 1.389 . S
C1006 C1007 1.524 . S
C1006 C1020 1.377 . S
C1007 C1006 1.524 . S
C1007 C1008 1.397 1_556 S
C1007 C1012 1.363 . S
C1008 H985 0.950 . S
C1008 C1007 1.397 1_554 S
C1008 C1009 1.334 . S
C1009 H986 0.950 . S
C1009 C1008 1.334 . S
C1009 C1010 1.287 . S
C1010 C1009 1.287 . S
C1010 C1011 1.524 1_554 S
C1010 H1029 0.913 . S
C1011 H987 0.950 . S
C1011 C1010 1.524 1_556 S
C1011 C1012 1.415 . S
C1012 H988 0.950 . S
C1012 C1007 1.363 . S
C1012 C1011 1.415 . S
C1013 H989 0.951 . S
C1013 C1014 1.366 . S
C1013 C1015 1.388 . S
C1014 C1013 1.366 . S
C1014 C1018 1.385 . S
C1015 H990 0.951 . S
C1015 C1013 1.388 . S
C1015 C1016 1.366 . S
C1016 C1015 1.366 . S
C1016 C1017 1.414 . S
C1016 C1019 1.499 . S
C1017 H991 0.950 . S
C1017 C1016 1.414 . S
C1017 C1018 1.374 . S
C1018 H992 0.950 . S
C1018 C1014 1.385 . S
C1018 C1017 1.374 . S
C1019 C1016 1.499 . S
C1019 C1020 1.373 . S
C1019 C1021 1.389 . S
C1020 H993 0.950 . S
C1020 C1006 1.377 . S
C1020 C1019 1.373 . S
C1021 C1005 1.377 . S
C1021 C1019 1.389 . S
C1021 C1022 1.524 . S
C1022 C1021 1.524 . S
C1022 C1023 1.397 . S
C1022 C1027 1.363 . S
C1023 H994 0.950 . S
C1023 C1022 1.397 . S
C1023 C1024 1.334 . S
C1024 H995 0.950 . S
C1024 C1023 1.334 . S
C1024 C1025 1.287 . S
C1025 C1024 1.287 . S
C1025 C1026 1.524 . S
C1025 H1028 0.999 . S
C1026 H996 0.950 . S
C1026 C1025 1.524 . S
C1026 C1027 1.415 . S
C1027 H997 0.950 . S
C1027 C1022 1.363 . S
C1027 C1026 1.415 . S
H1028 C1025 0.999 . S
H1029 C1010 0.913 . S
H1030 C1048 0.951 . S
H1031 C1050 0.951 . S
H1032 C1052 0.950 . S
H1033 C1053 0.950 . S
H1034 C1055 0.950 . S
H1035 C1058 0.950 . S
H1036 C1059 0.950 . S
H1037 C1061 0.950 . S
H1038 C1062 0.950 . S
H1039 C1063 0.951 . S
H1040 C1065 0.951 . S
H1041 C1067 0.950 . S
H1042 C1068 0.950 . S
H1043 C1070 0.950 . S
H1044 C1073 0.950 . S
H1045 C1074 0.950 . S
H1046 C1076 0.950 1_655 S
H1047 C1077 0.950 . S
C1048 H1030 0.951 . S
C1048 C1049 1.366 . S
C1048 C1050 1.388 . S
C1049 C1048 1.366 . S
C1049 C1053 1.385 . S
C1050 H1031 0.951 . S
C1050 C1048 1.388 . S
C1050 C1051 1.366 . S
C1051 C1050 1.366 . S
C1051 C1052 1.414 . S
C1051 C1054 1.499 . S
C1052 H1032 0.950 . S
C1052 C1051 1.414 . S
C1052 C1053 1.374 . S
C1053 H1033 0.950 . S
C1053 C1049 1.385 . S
C1053 C1052 1.374 . S
C1054 C1051 1.499 . S
C1054 C1055 1.373 . S
C1054 C1056 1.389 . S
C1055 H1034 0.950 . S
C1055 C1054 1.373 . S
C1055 C1071 1.377 . S
C1056 C1054 1.389 . S
C1056 C1057 1.524 . S
C1056 C1070 1.377 . S
C1057 C1056 1.524 . S
C1057 C1058 1.397 . S
C1057 C1062 1.363 . S
C1058 H1035 0.950 . S
C1058 C1057 1.397 . S
C1058 C1059 1.334 . S
C1059 H1036 0.950 . S
C1059 C1058 1.334 . S
C1059 C1060 1.287 . S
C1060 C1059 1.287 . S
C1060 C1061 1.524 . S
C1060 H1079 0.913 . S
C1061 H1037 0.950 . S
C1061 C1060 1.524 . S
C1061 C1062 1.415 . S
C1062 H1038 0.950 . S
C1062 C1057 1.363 . S
C1062 C1061 1.415 . S
C1063 H1039 0.951 . S
C1063 C1064 1.366 . S
C1063 C1065 1.388 . S
C1064 C1063 1.366 . S
C1064 C1068 1.385 . S
C1065 H1040 0.951 . S
C1065 C1063 1.388 . S
C1065 C1066 1.366 . S
C1066 C1065 1.366 . S
C1066 C1067 1.414 . S
C1066 C1069 1.499 . S
C1067 H1041 0.950 . S
C1067 C1066 1.414 . S
C1067 C1068 1.374 . S
C1068 H1042 0.950 . S
C1068 C1064 1.385 . S
C1068 C1067 1.374 . S
C1069 C1066 1.499 . S
C1069 C1070 1.373 . S
C1069 C1071 1.389 . S
C1070 H1043 0.950 . S
C1070 C1056 1.377 . S
C1070 C1069 1.373 . S
C1071 C1055 1.377 . S
C1071 C1069 1.389 . S
C1071 C1072 1.524 . S
C1072 C1071 1.524 . S
C1072 C1073 1.397 . S
C1072 C1077 1.363 . S
C1073 H1044 0.950 . S
C1073 C1072 1.397 . S
C1073 C1074 1.334 . S
C1074 H1045 0.950 . S
C1074 C1073 1.334 . S
C1074 C1075 1.287 . S
C1075 C1074 1.287 . S
C1075 C1076 1.524 . S
C1075 H1078 0.999 . S
C1076 H1046 0.950 1_455 S
C1076 C1075 1.524 . S
C1076 C1077 1.415 . S
C1077 H1047 0.950 . S
C1077 C1072 1.363 . S
C1077 C1076 1.415 . S
H1078 C1075 0.999 . S
H1079 C1060 0.913 . S
H1080 C1098 0.951 . S
H1081 C1100 0.951 . S
H1082 C1102 0.950 . S
H1083 C1103 0.950 . S
H1084 C1105 0.950 . S
H1085 C1108 0.950 . S
H1086 C1109 0.950 . S
H1087 C1111 0.950 . S
H1088 C1112 0.950 . S
H1089 C1113 0.951 . S
H1090 C1115 0.951 . S
H1091 C1117 0.950 . S
H1092 C1118 0.950 . S
H1093 C1120 0.950 . S
H1094 C1123 0.950 . S
H1095 C1124 0.950 . S
H1096 C1126 0.950 . S
H1097 C1127 0.950 . S
C1098 H1080 0.951 . S
C1098 C1099 1.366 . S
C1098 C1100 1.388 . S
C1099 C1098 1.366 . S
C1099 C1103 1.385 . S
C1100 H1081 0.951 . S
C1100 C1098 1.388 . S
C1100 C1101 1.366 . S
C1101 C1100 1.366 . S
C1101 C1102 1.414 . S
C1101 C1104 1.499 . S
C1102 H1082 0.950 . S
C1102 C1101 1.414 . S
C1102 C1103 1.374 . S
C1103 H1083 0.950 . S
C1103 C1099 1.385 . S
C1103 C1102 1.374 . S
C1104 C1101 1.499 . S
C1104 C1105 1.373 . S
C1104 C1106 1.389 . S
C1105 H1084 0.950 . S
C1105 C1104 1.373 . S
C1105 C1121 1.377 . S
C1106 C1104 1.389 . S
C1106 C1107 1.524 . S
C1106 C1120 1.377 . S
C1107 C1106 1.524 . S
C1107 C1108 1.397 . S
C1107 C1112 1.363 . S
C1108 H1085 0.950 . S
C1108 C1107 1.397 . S
C1108 C1109 1.334 . S
C1109 H1086 0.950 . S
C1109 C1108 1.334 . S
C1109 C1110 1.287 . S
C1110 C1109 1.287 . S
C1110 C1111 1.524 . S
C1110 H1129 0.913 . S
C1111 H1087 0.950 . S
C1111 C1110 1.524 . S
C1111 C1112 1.415 . S
C1112 H1088 0.950 . S
C1112 C1107 1.363 . S
C1112 C1111 1.415 . S
C1113 H1089 0.951 . S
C1113 C1114 1.366 . S
C1113 C1115 1.388 . S
C1114 C1113 1.366 . S
C1114 C1118 1.385 . S
C1115 H1090 0.951 . S
C1115 C1113 1.388 . S
C1115 C1116 1.366 . S
C1116 C1115 1.366 . S
C1116 C1117 1.414 . S
C1116 C1119 1.499 . S
C1117 H1091 0.950 . S
C1117 C1116 1.414 . S
C1117 C1118 1.374 . S
C1118 H1092 0.950 . S
C1118 C1114 1.385 . S
C1118 C1117 1.374 . S
C1119 C1116 1.499 . S
C1119 C1120 1.373 . S
C1119 C1121 1.389 . S
C1120 H1093 0.950 . S
C1120 C1106 1.377 . S
C1120 C1119 1.373 . S
C1121 C1105 1.377 . S
C1121 C1119 1.389 . S
C1121 C1122 1.524 . S
C1122 C1121 1.524 . S
C1122 C1123 1.397 . S
C1122 C1127 1.363 . S
C1123 H1094 0.950 . S
C1123 C1122 1.397 . S
C1123 C1124 1.334 . S
C1124 H1095 0.950 . S
C1124 C1123 1.334 . S
C1124 C1125 1.287 . S
C1125 C1124 1.287 . S
C1125 C1126 1.524 . S
C1125 H1128 0.999 . S
C1126 H1096 0.950 . S
C1126 C1125 1.524 . S
C1126 C1127 1.415 . S
C1127 H1097 0.950 . S
C1127 C1122 1.363 . S
C1127 C1126 1.415 . S
H1128 C1125 0.999 . S
H1129 C1110 0.913 . S
H1130 C1148 0.951 . S
H1131 C1150 0.951 . S
H1132 C1152 0.950 . S
H1133 C1153 0.950 . S
H1134 C1155 0.950 . S
H1135 C1158 0.950 . S
H1136 C1159 0.950 . S
H1137 C1161 0.950 . S
H1138 C1162 0.950 . S
H1139 C1163 0.951 . S
H1140 C1165 0.951 . S
H1141 C1167 0.950 . S
H1142 C1168 0.950 . S
H1143 C1170 0.950 . S
H1144 C1173 0.950 . S
H1145 C1174 0.950 . S
H1146 C1176 0.950 . S
H1147 C1177 0.950 . S
C1148 H1130 0.951 . S
C1148 C1149 1.366 . S
C1148 C1150 1.388 . S
C1149 C1148 1.366 . S
C1149 C1153 1.385 . S
C1150 H1131 0.951 . S
C1150 C1148 1.388 . S
C1150 C1151 1.366 . S
C1151 C1150 1.366 . S
C1151 C1152 1.414 . S
C1151 C1154 1.499 . S
C1152 H1132 0.950 . S
C1152 C1151 1.414 . S
C1152 C1153 1.374 . S
C1153 H1133 0.950 . S
C1153 C1149 1.385 . S
C1153 C1152 1.374 . S
C1154 C1151 1.499 . S
C1154 C1155 1.373 . S
C1154 C1156 1.389 . S
C1155 H1134 0.950 . S
C1155 C1154 1.373 . S
C1155 C1171 1.377 . S
C1156 C1154 1.389 . S
C1156 C1157 1.524 . S
C1156 C1170 1.377 . S
C1157 C1156 1.524 . S
C1157 C1158 1.397 . S
C1157 C1162 1.363 . S
C1158 H1135 0.950 . S
C1158 C1157 1.397 . S
C1158 C1159 1.334 . S
C1159 H1136 0.950 . S
C1159 C1158 1.334 . S
C1159 C1160 1.287 . S
C1160 C1159 1.287 . S
C1160 C1161 1.524 . S
C1160 H1179 0.913 . S
C1161 H1137 0.950 . S
C1161 C1160 1.524 . S
C1161 C1162 1.415 . S
C1162 H1138 0.950 . S
C1162 C1157 1.363 . S
C1162 C1161 1.415 . S
C1163 H1139 0.951 . S
C1163 C1164 1.366 . S
C1163 C1165 1.388 . S
C1164 C1163 1.366 . S
C1164 C1168 1.385 . S
C1165 H1140 0.951 . S
C1165 C1163 1.388 . S
C1165 C1166 1.366 . S
C1166 C1165 1.366 . S
C1166 C1167 1.414 . S
C1166 C1169 1.499 . S
C1167 H1141 0.950 . S
C1167 C1166 1.414 . S
C1167 C1168 1.374 . S
C1168 H1142 0.950 . S
C1168 C1164 1.385 . S
C1168 C1167 1.374 . S
C1169 C1166 1.499 . S
C1169 C1170 1.373 . S
C1169 C1171 1.389 . S
C1170 H1143 0.950 . S
C1170 C1156 1.377 . S
C1170 C1169 1.373 . S
C1171 C1155 1.377 . S
C1171 C1169 1.389 . S
C1171 C1172 1.524 . S
C1172 C1171 1.524 . S
C1172 C1173 1.397 . S
C1172 C1177 1.363 . S
C1173 H1144 0.950 . S
C1173 C1172 1.397 . S
C1173 C1174 1.334 . S
C1174 H1145 0.950 . S
C1174 C1173 1.334 . S
C1174 C1175 1.287 . S
C1175 C1174 1.287 . S
C1175 C1176 1.524 . S
C1175 H1178 0.999 . S
C1176 H1146 0.950 . S
C1176 C1175 1.524 . S
C1176 C1177 1.415 . S
C1177 H1147 0.950 . S
C1177 C1172 1.363 . S
C1177 C1176 1.415 . S
H1178 C1175 0.999 . S
H1179 C1160 0.913 . S
H1180 C1198 0.951 . S
H1181 C1200 0.951 . S
H1182 C1202 0.950 . S
H1183 C1203 0.950 . S
H1184 C1205 0.950 . S
H1185 C1208 0.950 . S
H1186 C1209 0.950 . S
H1187 C1211 0.950 . S
H1188 C1212 0.950 . S
H1189 C1213 0.951 . S
H1190 C1215 0.951 . S
H1191 C1217 0.950 . S
H1192 C1218 0.950 . S
H1193 C1220 0.950 . S
H1194 C1223 0.949 . S
H1195 C1224 0.950 . S
H1196 C1226 0.950 . S
H1197 C1227 0.950 . S
C1198 H1180 0.951 . S
C1198 C1199 1.366 . S
C1198 C1200 1.388 . S
C1199 C1198 1.366 . S
C1199 C1203 1.385 . S
C1200 H1181 0.951 . S
C1200 C1198 1.388 . S
C1200 C1201 1.366 . S
C1201 C1200 1.366 . S
C1201 C1202 1.414 . S
C1201 C1204 1.422 1_556 S
C1202 H1182 0.950 . S
C1202 C1201 1.414 . S
C1202 C1203 1.374 . S
C1203 H1183 0.950 . S
C1203 C1199 1.385 . S
C1203 C1202 1.374 . S
C1204 C1201 1.422 1_554 S
C1204 C1205 1.416 . S
C1204 C1206 1.430 . S
C1205 H1184 0.950 . S
C1205 C1204 1.416 . S
C1205 C1221 1.377 . S
C1206 C1204 1.430 . S
C1206 C1207 1.524 . S
C1206 C1220 1.377 . S
C1207 C1206 1.524 . S
C1207 C1208 1.397 1_554 S
C1207 C1212 1.363 . S
C1208 H1185 0.950 . S
C1208 C1207 1.397 1_556 S
C1208 C1209 1.334 . S
C1209 H1186 0.950 . S
C1209 C1208 1.334 . S
C1209 C1210 1.287 . S
C1210 C1209 1.287 . S
C1210 C1211 1.524 1_556 S
C1210 H1229 0.913 . S
C1211 H1187 0.950 . S
C1211 C1210 1.524 1_554 S
C1211 C1212 1.415 . S
C1212 H1188 0.950 . S
C1212 C1207 1.363 . S
C1212 C1211 1.415 . S
C1213 H1189 0.951 . S
C1213 C1214 1.366 . S
C1213 C1215 1.388 . S
C1214 C1213 1.366 . S
C1214 C1218 1.385 . S
C1215 H1190 0.951 . S
C1215 C1213 1.388 . S
C1215 C1216 1.366 . S
C1216 C1215 1.366 . S
C1216 C1217 1.414 . S
C1216 C1219 1.499 . S
C1217 H1191 0.950 . S
C1217 C1216 1.414 . S
C1217 C1218 1.374 . S
C1218 H1192 0.950 . S
C1218 C1214 1.385 . S
C1218 C1217 1.374 . S
C1219 C1216 1.499 . S
C1219 C1220 1.373 . S
C1219 C1221 1.389 . S
C1220 H1193 0.950 . S
C1220 C1206 1.377 . S
C1220 C1219 1.373 . S
C1221 C1205 1.377 . S
C1221 C1219 1.389 . S
C1221 C1222 1.524 . S
C1222 C1221 1.524 . S
C1222 C1223 1.396 . S
C1222 C1227 1.363 . S
C1223 H1194 0.949 . S
C1223 C1222 1.396 . S
C1223 C1224 1.335 1_455 S
C1224 H1195 0.950 . S
C1224 C1223 1.335 1_655 S
C1224 C1225 1.287 . S
C1225 C1224 1.287 . S
C1225 C1226 1.524 . S
C1225 H1228 0.999 . S
C1226 H1196 0.950 . S
C1226 C1225 1.524 . S
C1226 C1227 1.415 1_655 S
C1227 H1197 0.950 . S
C1227 C1222 1.363 . S
C1227 C1226 1.415 1_455 S
H1228 C1225 0.999 . S
H1229 C1210 0.913 . S
H1230 C1248 0.951 . S
H1231 C1250 0.951 . S
H1232 C1252 0.950 . S
H1233 C1253 0.950 . S
H1234 C1255 0.950 . S
H1235 C1258 0.950 . S
H1236 C1259 0.950 . S
H1237 C1261 0.950 . S
H1238 C1262 0.950 . S
H1239 C1263 0.951 . S
H1240 C1265 0.951 . S
H1241 C1267 0.950 . S
H1242 C1268 0.950 . S
H1243 C1270 0.950 . S
H1244 C1273 0.950 . S
H1245 C1274 0.950 . S
H1246 C1276 0.950 . S
H1247 C1277 0.950 . S
C1248 H1230 0.951 . S
C1248 C1249 1.366 . S
C1248 C1250 1.388 . S
C1249 C1248 1.366 . S
C1249 C1253 1.385 . S
C1250 H1231 0.951 . S
C1250 C1248 1.388 . S
C1250 C1251 1.366 . S
C1251 C1250 1.366 . S
C1251 C1252 1.414 . S
C1251 C1254 1.499 . S
C1252 H1232 0.950 . S
C1252 C1251 1.414 . S
C1252 C1253 1.374 . S
C1253 H1233 0.950 . S
C1253 C1249 1.385 . S
C1253 C1252 1.374 . S
C1254 C1251 1.499 . S
C1254 C1255 1.373 . S
C1254 C1256 1.389 . S
C1255 H1234 0.950 . S
C1255 C1254 1.373 . S
C1255 C1271 1.377 . S
C1256 C1254 1.389 . S
C1256 C1257 1.524 . S
C1256 C1270 1.377 . S
C1257 C1256 1.524 . S
C1257 C1258 1.397 . S
C1257 C1262 1.363 . S
C1258 H1235 0.950 . S
C1258 C1257 1.397 . S
C1258 C1259 1.334 . S
C1259 H1236 0.950 . S
C1259 C1258 1.334 . S
C1259 C1260 1.287 . S
C1260 C1259 1.287 . S
C1260 C1261 1.524 . S
C1260 H1279 0.913 . S
C1261 H1237 0.950 . S
C1261 C1260 1.524 . S
C1261 C1262 1.415 . S
C1262 H1238 0.950 . S
C1262 C1257 1.363 . S
C1262 C1261 1.415 . S
C1263 H1239 0.951 . S
C1263 C1264 1.366 . S
C1263 C1265 1.388 . S
C1264 C1263 1.366 . S
C1264 C1268 1.385 . S
C1265 H1240 0.951 . S
C1265 C1263 1.388 . S
C1265 C1266 1.366 . S
C1266 C1265 1.366 . S
C1266 C1267 1.414 . S
C1266 C1269 1.499 . S
C1267 H1241 0.950 . S
C1267 C1266 1.414 . S
C1267 C1268 1.374 . S
C1268 H1242 0.950 . S
C1268 C1264 1.385 . S
C1268 C1267 1.374 . S
C1269 C1266 1.499 . S
C1269 C1270 1.373 . S
C1269 C1271 1.389 . S
C1270 H1243 0.950 . S
C1270 C1256 1.377 . S
C1270 C1269 1.373 . S
C1271 C1255 1.377 . S
C1271 C1269 1.389 . S
C1271 C1272 1.524 . S
C1272 C1271 1.524 . S
C1272 C1273 1.397 . S
C1272 C1277 1.363 . S
C1273 H1244 0.950 . S
C1273 C1272 1.397 . S
C1273 C1274 1.334 . S
C1274 H1245 0.950 . S
C1274 C1273 1.334 . S
C1274 C1275 1.287 . S
C1275 C1274 1.287 . S
C1275 C1276 1.524 . S
C1275 H1278 0.999 . S
C1276 H1246 0.950 . S
C1276 C1275 1.524 . S
C1276 C1277 1.415 . S
C1277 H1247 0.950 . S
C1277 C1272 1.363 . S
C1277 C1276 1.415 . S
H1278 C1275 0.999 . S
H1279 C1260 0.913 . S
H1280 C1298 0.951 . S
H1281 C1300 0.951 . S
H1282 C1302 0.950 . S
H1283 C1303 0.950 . S
H1284 C1305 0.950 . S
H1285 C1308 0.950 . S
H1286 C1309 0.950 . S
H1287 C1311 0.950 . S
H1288 C1312 0.950 . S
H1289 C1313 0.951 . S
H1290 C1315 0.951 . S
H1291 C1317 0.950 . S
H1292 C1318 0.950 . S
H1293 C1320 0.950 . S
H1294 C1323 0.950 . S
H1295 C1324 0.950 . S
H1296 C1326 0.950 . S
H1297 C1327 0.950 . S
C1298 H1280 0.951 . S
C1298 C1299 1.366 . S
C1298 C1300 1.388 . S
C1299 C1298 1.366 . S
C1299 C1303 1.385 . S
C1300 H1281 0.951 . S
C1300 C1298 1.388 . S
C1300 C1301 1.366 . S
C1301 C1300 1.366 . S
C1301 C1302 1.414 . S
C1301 C1304 1.499 . S
C1302 H1282 0.950 . S
C1302 C1301 1.414 . S
C1302 C1303 1.374 . S
C1303 H1283 0.950 . S
C1303 C1299 1.385 . S
C1303 C1302 1.374 . S
C1304 C1301 1.499 . S
C1304 C1305 1.373 . S
C1304 C1306 1.389 . S
C1305 H1284 0.950 . S
C1305 C1304 1.373 . S
C1305 C1321 1.377 . S
C1306 C1304 1.389 . S
C1306 C1307 1.524 . S
C1306 C1320 1.377 . S
C1307 C1306 1.524 . S
C1307 C1308 1.397 . S
C1307 C1312 1.363 . S
C1308 H1285 0.950 . S
C1308 C1307 1.397 . S
C1308 C1309 1.334 . S
C1309 H1286 0.950 . S
C1309 C1308 1.334 . S
C1309 C1310 1.287 . S
C1310 C1309 1.287 . S
C1310 C1311 1.524 . S
C1310 H1329 0.913 . S
C1311 H1287 0.950 . S
C1311 C1310 1.524 . S
C1311 C1312 1.415 . S
C1312 H1288 0.950 . S
C1312 C1307 1.363 . S
C1312 C1311 1.415 . S
C1313 H1289 0.951 . S
C1313 C1314 1.366 . S
C1313 C1315 1.388 . S
C1314 C1313 1.366 . S
C1314 C1318 1.385 . S
C1315 H1290 0.951 . S
C1315 C1313 1.388 . S
C1315 C1316 1.366 . S
C1316 C1315 1.366 . S
C1316 C1317 1.414 . S
C1316 C1319 1.499 . S
C1317 H1291 0.950 . S
C1317 C1316 1.414 . S
C1317 C1318 1.374 . S
C1318 H1292 0.950 . S
C1318 C1314 1.385 . S
C1318 C1317 1.374 . S
C1319 C1316 1.499 . S
C1319 C1320 1.373 . S
C1319 C1321 1.389 . S
C1320 H1293 0.950 . S
C1320 C1306 1.377 . S
C1320 C1319 1.373 . S
C1321 C1305 1.377 . S
C1321 C1319 1.389 . S
C1321 C1322 1.524 . S
C1322 C1321 1.524 . S
C1322 C1323 1.397 . S
C1322 C1327 1.363 . S
C1323 H1294 0.950 . S
C1323 C1322 1.397 . S
C1323 C1324 1.334 . S
C1324 H1295 0.950 . S
C1324 C1323 1.334 . S
C1324 C1325 1.287 . S
C1325 C1324 1.287 . S
C1325 C1326 1.524 . S
C1325 H1328 0.999 . S
C1326 H1296 0.950 . S
C1326 C1325 1.524 . S
C1326 C1327 1.415 . S
C1327 H1297 0.950 . S
C1327 C1322 1.363 . S
C1327 C1326 1.415 . S
H1328 C1325 0.999 . S
H1329 C1310 0.913 . S
H1330 C1348 0.951 . S
H1331 C1350 0.951 . S
H1332 C1352 0.950 . S
H1333 C1353 0.950 . S
H1334 C1355 0.950 . S
H1335 C1358 0.950 . S
H1336 C1359 0.950 . S
H1337 C1361 0.950 . S
H1338 C1362 0.950 . S
H1339 C1363 0.951 . S
H1340 C1365 0.951 . S
H1341 C1367 0.950 . S
H1342 C1368 0.950 . S
H1343 C1370 0.950 . S
H1344 C1373 0.950 . S
H1345 C1374 0.950 . S
H1346 C1376 0.950 . S
H1347 C1377 0.950 . S
C1348 H1330 0.951 . S
C1348 C1349 1.366 . S
C1348 C1350 1.388 . S
C1349 C1348 1.366 . S
C1349 C1353 1.385 . S
C1350 H1331 0.951 . S
C1350 C1348 1.388 . S
C1350 C1351 1.366 . S
C1351 C1350 1.366 . S
C1351 C1352 1.414 . S
C1351 C1354 1.499 . S
C1352 H1332 0.950 . S
C1352 C1351 1.414 . S
C1352 C1353 1.374 . S
C1353 H1333 0.950 . S
C1353 C1349 1.385 . S
C1353 C1352 1.374 . S
C1354 C1351 1.499 . S
C1354 C1355 1.373 . S
C1354 C1356 1.389 . S
C1355 H1334 0.950 . S
C1355 C1354 1.373 . S
C1355 C1371 1.377 . S
C1356 C1354 1.389 . S
C1356 C1357 1.524 . S
C1356 C1370 1.377 . S
C1357 C1356 1.524 . S
C1357 C1358 1.397 . S
C1357 C1362 1.363 . S
C1358 H1335 0.950 . S
C1358 C1357 1.397 . S
C1358 C1359 1.334 . S
C1359 H1336 0.950 . S
C1359 C1358 1.334 . S
C1359 C1360 1.287 . S
C1360 C1359 1.287 . S
C1360 C1361 1.524 . S
C1360 H1379 0.913 . S
C1361 H1337 0.950 . S
C1361 C1360 1.524 . S
C1361 C1362 1.415 . S
C1362 H1338 0.950 . S
C1362 C1357 1.363 . S
C1362 C1361 1.415 . S
C1363 H1339 0.951 . S
C1363 C1364 1.366 . S
C1363 C1365 1.388 . S
C1364 C1363 1.366 . S
C1364 C1368 1.385 . S
C1365 H1340 0.951 . S
C1365 C1363 1.388 . S
C1365 C1366 1.366 . S
C1366 C1365 1.366 . S
C1366 C1367 1.414 . S
C1366 C1369 1.499 . S
C1367 H1341 0.950 . S
C1367 C1366 1.414 . S
C1367 C1368 1.374 . S
C1368 H1342 0.950 . S
C1368 C1364 1.385 . S
C1368 C1367 1.374 . S
C1369 C1366 1.499 . S
C1369 C1370 1.373 . S
C1369 C1371 1.389 . S
C1370 H1343 0.950 . S
C1370 C1356 1.377 . S
C1370 C1369 1.373 . S
C1371 C1355 1.377 . S
C1371 C1369 1.389 . S
C1371 C1372 1.524 . S
C1372 C1371 1.524 . S
C1372 C1373 1.397 . S
C1372 C1377 1.363 . S
C1373 H1344 0.950 . S
C1373 C1372 1.397 . S
C1373 C1374 1.334 . S
C1374 H1345 0.950 . S
C1374 C1373 1.334 . S
C1374 C1375 1.287 . S
C1375 C1374 1.287 . S
C1375 C1376 1.524 . S
C1375 H1378 0.999 . S
C1376 H1346 0.950 . S
C1376 C1375 1.524 . S
C1376 C1377 1.415 . S
C1377 H1347 0.950 . S
C1377 C1372 1.363 . S
C1377 C1376 1.415 . S
H1378 C1375 0.999 . S
H1379 C1360 0.913 . S
C214 C103 1.461 . S
C199 C6 1.597 . S
C264 C121 1.623 . S
C249 C18 1.730 . S
C299 C28 1.364 . S
C314 C145 1.262 . S
C364 C175 1.036 . S
C349 C40 1.114 . S
C414 C163 1.208 . S
C399 C54 1.304 . S
C449 C64 1.107 . S
C464 C116 1.062 . S
C499 C76 1.618 . S
C514 C136 1.528 . S
C549 C90 1.748 . S
C564 C141 1.569 . S
C599 C88 1.098 . S
C614 C157 1.052 . S
C649 C66 1.751 . S
C664 C112 1.567 . S
C714 C179 1.635 . S
C699 C42 1.734 . S
C764 C124 1.034 . S
C749 C16 1.116 . S
C799 C30 1.591 . S
C814 C142 1.455 . S
C849 C4 1.375 . S
C864 C100 1.274 . S
C914 C120 1.201 . S
C899 C78 1.288 . S
C964 C166 1.527 . S
C949 C52 1.625 . S
C1014 C162 1.358 . S
C999 C9 1.483 . S
C1064 C115 1.433 . S
C1049 C21 1.535 . S
C1099 C33 1.462 . S
C1114 C137 1.335 . S
C1149 C45 1.558 . S
C1164 C158 1.454 . S
C1214 C99 1.334 . S
C1199 C57 1.541 . S
C1249 C69 1.498 . S
C1264 C133 1.378 . S
C1314 C154 1.351 . S
C1299 C81 1.561 . S
C1364 C178 1.353 . S
C1349 C93 1.472 . S
