# Generated by pormake.
# Topology tsx, (6,3)-cn, num edge types: 1
# Building blocks:
#     Node 0, Type 0, BuildingBlock: FUNLAD_clean_sbu_0, # of connection points: 6
#     Node 1, Type 0, BuildingBlock: FUNLAD_clean_sbu_0, # of connection points: 6
#     Node 2, Type 1, BuildingBlock: PAMTOO_clean_linker_0, # of connection points: 3
#     Node 3, Type 1, BuildingBlock: PAMTOO_clean_linker_0, # of connection points: 3
#     Node 4, Type 1, BuildingBlock: PAMTOO_clean_linker_0, # of connection points: 3
#     Node 5, Type 1, BuildingBlock: PAMTOO_clean_linker_0, # of connection points: 3
#     Edge 6, Type (0, 1), BuildingBlock: TEMPAE_clean_linker_10, # of connection points: 2
#     Edge 7, Type (0, 1), BuildingBlock: TEMPAE_clean_linker_10, # of connection points: 2
#     Edge 8, Type (0, 1), BuildingBlock: TEMPAE_clean_linker_10, # of connection points: 2
#     Edge 9, Type (0, 1), BuildingBlock: TEMPAE_clean_linker_10, # of connection points: 2
#     Edge 10, Type (0, 1), BuildingBlock: TEMPAE_clean_linker_10, # of connection points: 2
#     Edge 11, Type (0, 1), BuildingBlock: TEMPAE_clean_linker_10, # of connection points: 2
#     Edge 12, Type (0, 1), BuildingBlock: TEMPAE_clean_linker_10, # of connection points: 2
#     Edge 13, Type (0, 1), BuildingBlock: TEMPAE_clean_linker_10, # of connection points: 2
#     Edge 14, Type (0, 1), BuildingBlock: TEMPAE_clean_linker_10, # of connection points: 2
#     Edge 15, Type (0, 1), BuildingBlock: TEMPAE_clean_linker_10, # of connection points: 2
#     Edge 16, Type (0, 1), BuildingBlock: TEMPAE_clean_linker_10, # of connection points: 2
#     Edge 17, Type (0, 1), BuildingBlock: TEMPAE_clean_linker_10, # of connection points: 2
# Relax obj value: 0.125
# Max RMSD: 0.131
# Mean RMSD: 0.119
data_MOF--net-tsx--node1-FUNLAD_clean_sbu_0--node2-PAMTOO_clean_linker_0--edge1-TEMPAE_clean_linker_10
_symmetry_space_group_name_H-M    P1
_symmetry_Int_Tables_number       1
_symmetry_cell_setting            triclinic
loop_
_symmetry_equiv_pos_as_xyz
'x, y, z'
_cell_length_a     19.645441
_cell_length_b     21.604112
_cell_length_c     39.875628
_cell_angle_alpha  82.009793
_cell_angle_beta   91.958598
_cell_angle_gamma 89.89164
loop_
_atom_site_label
_atom_site_type_symbol
_atom_site_fract_x
_atom_site_fract_y
_atom_site_fract_z
_atom_type_partial_charge
C0 C 0.93929 0.98484 0.99245 0.0
N1 N 0.03631 0.04706 0.07574 0.0
C2 C 0.97737 0.05435 0.09171 0.0
C3 C 0.977 0.04784 0.12697 0.0
C4 C 0.03755 0.03205 0.14614 0.0
C5 C 0.09718 0.02301 0.12886 0.0
C6 C 0.0956 0.03162 0.09357 0.0
Zn7 Zn 0.03761 0.06352 0.02431 0.0
C8 C 0.1361 0.98121 -0.00401 0.0
N9 N 0.04289 0.10049 0.91685 0.0
C10 C 0.98674 0.09144 0.89729 0.0
C11 C 0.10359 0.11633 0.90271 0.0
C12 C 0.10971 0.12287 0.86769 0.0
C13 C 0.05353 0.1107 0.84686 0.0
C14 C 0.99114 0.09539 0.86222 0.0
Zn15 Zn 0.039 0.08408 0.96838 0.0
O16 O 0.96074 0.99875 0.02081 0.0
C17 C 0.93867 0.16526 -0.0045 0.0
O18 O 0.96375 0.01283 0.96536 0.0
H19 H 0.14802 0.12257 0.91857 0.0
H20 H 0.93068 0.06635 0.0771 0.0
H21 H 0.9388 0.07921 0.90892 0.0
O22 O 0.96291 0.13643 0.02335 0.0
O23 O 0.9611 0.15192 0.96781 0.0
H24 H 0.14208 0.0266 0.08043 0.0
O25 O 0.11328 0.15472 0.97308 0.0
O26 O 0.11482 0.12836 0.02813 0.0
O27 O 0.11656 0.01569 0.96894 0.0
O28 O 0.11101 0.99033 0.02387 0.0
C29 C 0.1369 0.16218 0.0023 0.0
H30 H 0.9299 0.05636 0.13894 0.0
H31 H 0.14481 0.00942 0.14234 0.0
H32 H 0.15849 0.13638 0.85726 0.0
H33 H 0.94646 0.0844 0.84762 0.0
C34 C 0.42176 0.41982 0.49086 0.0
N35 N 0.50976 0.46669 0.57987 0.0
C36 C 0.44735 0.47206 0.59294 0.0
C37 C 0.43834 0.45664 0.62755 0.0
C38 C 0.49354 0.43329 0.64901 0.0
C39 C 0.55674 0.42554 0.63446 0.0
C40 C 0.56402 0.4436 0.59983 0.0
Zn41 Zn 0.52036 0.49296 0.52937 0.0
C42 C 0.61756 0.41308 0.49956 0.0
N43 N 0.53519 0.5434 0.42296 0.0
C44 C 0.48335 0.53814 0.40008 0.0
C45 C 0.59761 0.56379 0.4127 0.0
C46 C 0.6096 0.58065 0.37849 0.0
C47 C 0.55804 0.57354 0.35406 0.0
C48 C 0.49399 0.55196 0.36541 0.0
Zn49 Zn 0.52317 0.51783 0.47367 0.0
O50 O 0.44297 0.43053 0.5199 0.0
C51 C 0.42314 0.59574 0.50173 0.0
O52 O 0.44788 0.44945 0.46463 0.0
H53 H 0.63903 0.56636 0.43093 0.0
H54 H 0.40439 0.4892 0.57661 0.0
H55 H 0.43403 0.52192 0.40862 0.0
O56 O 0.44652 0.56529 0.52929 0.0
O57 O 0.44639 0.58471 0.47382 0.0
H58 H 0.6132 0.43943 0.58897 0.0
O59 O 0.59665 0.58617 0.48447 0.0
O60 O 0.5974 0.55651 0.53924 0.0
O61 O 0.59892 0.4499 0.47326 0.0
O62 O 0.59334 0.4204 0.52789 0.0
C63 C 0.6191 0.59258 0.51404 0.0
H64 H 0.38888 0.46482 0.63728 0.0
H65 H 0.60056 0.40635 0.6496 0.0
H66 H 0.6593 0.59852 0.37151 0.0
H67 H 0.4527 0.54418 0.34787 0.0
H68 H 0.11085 0.90197 0.4109 0.0
H69 H 0.94335 0.03335 0.40176 0.0
H70 H 0.99212 0.922 0.497 0.0
H71 H 0.82569 0.97257 0.474 0.0
C72 C 0.84812 0.01452 0.45931 0.0
O73 O 0.91748 0.0144 0.46577 0.0
H74 H 0.83628 0.01335 0.43193 0.0
C75 C 0.06826 0.92353 0.42156 0.0
C76 C 0.0555 0.90684 0.45597 0.0
C77 C 0.02697 0.96786 0.40114 0.0
C78 C 0.97524 0.99786 0.41643 0.0
C79 C 0.96239 0.98101 0.45079 0.0
C80 C 0.00135 0.93432 0.47036 0.0
H81 H 0.13419 0.1354 0.58048 0.0
H82 H 0.98317 0.99438 0.60779 0.0
H83 H 0.02199 0.05441 0.50328 0.0
H84 H 0.86424 0.02048 0.53217 0.0
C85 C 0.88461 0.98009 0.5499 0.0
O86 O 0.95407 0.97563 0.54651 0.0
H87 H 0.87336 0.98786 0.57615 0.0
C88 C 0.09529 0.10346 0.57362 0.0
C89 C 0.08171 0.09951 0.53921 0.0
C90 C 0.0595 0.06664 0.59893 0.0
C91 C 0.01185 0.02361 0.58909 0.0
C92 C 0.99808 0.0193 0.55488 0.0
C93 C 0.03228 0.05794 0.52977 0.0
H94 H 0.54641 0.39025 0.90756 0.0
H95 H 0.40077 0.54157 0.89083 0.0
H96 H 0.5162 0.50654 0.98471 0.0
H97 H 0.34988 0.54175 0.98069 0.0
C98 C 0.35607 0.57693 0.95821 0.0
O99 O 0.42327 0.57904 0.949 0.0
H100 H 0.32379 0.56238 0.93721 0.0
C101 C 0.51857 0.42762 0.91662 0.0
C102 C 0.53479 0.44219 0.94913 0.0
C103 C 0.47059 0.46297 0.89507 0.0
C104 C 0.43857 0.51373 0.90665 0.0
C105 C 0.45425 0.52909 0.93896 0.0
C106 C 0.50282 0.49364 0.96015 0.0
H107 H 0.6679 0.67703 0.08812 0.0
H108 H 0.52658 0.52471 0.10785 0.0
H109 H 0.55756 0.60839 0.00595 0.0
H110 H 0.40745 0.57028 0.02966 0.0
C111 C 0.42446 0.52877 0.04758 0.0
O112 O 0.49369 0.52088 0.04543 0.0
H113 H 0.4121 0.53668 0.0737 0.0
C114 C 0.63125 0.64479 0.07944 0.0
C115 C 0.61633 0.64773 0.04455 0.0
C116 C 0.59929 0.6006 0.1029 0.0
C117 C 0.55355 0.55853 0.09064 0.0
C118 C 0.53858 0.56147 0.05604 0.0
C119 C 0.56961 0.60619 0.03282 0.0
C120 C 0.20571 0.25518 0.97936 0.0
C121 C 0.18652 0.21184 0.00688 0.0
C122 C 0.24807 0.30562 0.98435 0.0
C123 C 0.27142 0.31257 0.01759 0.0
C124 C 0.2543 0.26769 0.04523 0.0
C125 C 0.21211 0.21788 0.03954 0.0
C126 C 0.26622 0.35245 0.9543 0.0
C127 C 0.27924 0.27309 0.08098 0.0
C128 C 0.42006 0.41849 0.03171 0.0
C129 C 0.38642 0.47183 0.0396 0.0
C130 C 0.38324 0.36645 0.0241 0.0
C131 C 0.31127 0.36816 0.02395 0.0
C132 C 0.27711 0.42189 0.03168 0.0
C133 C 0.31521 0.47282 0.03975 0.0
C134 C 0.42148 0.30981 0.0162 0.0
C135 C 0.20032 0.42536 0.03171 0.0
H136 H 0.18634 0.2506 0.95404 0.0
H137 H 0.19805 0.18429 0.06094 0.0
H138 H 0.24507 0.39905 0.95711 0.0
H139 H 0.32234 0.35734 0.9532 0.0
H140 H 0.24636 0.33892 0.92995 0.0
H141 H 0.26383 0.23265 0.09943 0.0
H142 H 0.3356 0.27649 0.0821 0.0
H143 H 0.25856 0.31642 0.08891 0.0
H144 H 0.47515 0.41691 0.03155 0.0
H145 H 0.2894 0.5141 0.04578 0.0
H146 H 0.41551 0.30677 0.98872 0.0
H147 H 0.40068 0.26624 0.03006 0.0
H148 H 0.47669 0.31195 0.0229 0.0
H149 H 0.17835 0.41632 0.00687 0.0
H150 H 0.18168 0.47158 0.03688 0.0
H151 H 0.18092 0.3887 0.05128 0.0
C152 C 0.18988 0.87925 0.02153 0.0
C153 C 0.18243 0.92751 -0.00581 0.0
C154 C 0.22525 0.82388 0.01821 0.0
C155 C 0.25423 0.81685 0.9869 0.0
C156 C 0.25057 0.86701 0.95996 0.0
C157 C 0.21454 0.92157 0.96388 0.0
C158 C 0.22796 0.7715 0.04754 0.0
C159 C 0.28136 0.86174 0.92628 0.0
C160 C 0.37521 0.68135 0.97973 0.0
C161 C 0.33145 0.63964 0.96575 0.0
C162 C 0.35093 0.7391 0.98712 0.0
C163 C 0.28115 0.75491 0.98086 0.0
C164 C 0.23655 0.71195 0.9678 0.0
C165 C 0.26221 0.65484 0.9606 0.0
C166 C 0.40001 0.78341 0.0012 0.0
C167 C 0.16167 0.72653 0.96109 0.0
H168 H 0.16534 0.88342 0.04506 0.0
H169 H 0.20963 0.95884 0.94271 0.0
H170 H 0.19476 0.7328 0.04144 0.0
H171 H 0.28046 0.75245 0.05198 0.0
H172 H 0.21063 0.78691 0.07131 0.0
H173 H 0.28067 0.90708 0.90927 0.0
H174 H 0.33475 0.84469 0.93007 0.0
H175 H 0.25239 0.82718 0.91345 0.0
H176 H 0.42847 0.66903 0.98469 0.0
H177 H 0.22802 0.6219 0.95068 0.0
H178 H 0.381 0.79693 0.02505 0.0
H179 H 0.40386 0.82686 0.98294 0.0
H180 H 0.45176 0.76271 0.00634 0.0
H181 H 0.13812 0.73686 0.98461 0.0
H182 H 0.13357 0.68739 0.95174 0.0
H183 H 0.15522 0.76877 0.94194 0.0
C184 C 0.87016 0.89965 0.02228 0.0
C185 C 0.88738 0.93555 0.99175 0.0
C186 C 0.82133 0.85266 0.02298 0.0
C187 C 0.78824 0.84126 0.99236 0.0
C188 C 0.80528 0.87705 0.96133 0.0
C189 C 0.85501 0.92389 0.96135 0.0
C190 C 0.80515 0.8153 0.05671 0.0
C191 C 0.7705 0.8664 0.92831 0.0
C192 C 0.71328 0.68076 0.00844 0.0
C193 C 0.65049 0.695 0.02104 0.0
C194 C 0.75636 0.72866 -0.00532 0.0
C195 C 0.73573 0.79175 -0.00612 0.0
C196 C 0.66886 0.8056 0.00294 0.0
C197 C 0.62709 0.7568 0.01681 0.0
C198 C 0.82696 0.71179 0.98507 0.0
C199 C 0.64439 0.87209 0.00198 0.0
H200 H 0.89515 0.90803 0.04587 0.0
H201 H 0.86804 0.95163 0.93769 0.0
H202 H 0.75066 0.82138 0.06203 0.0
H203 H 0.81406 0.76479 0.05596 0.0
H204 H 0.83648 0.82948 0.07805 0.0
H205 H 0.79308 0.89492 0.90614 0.0
H206 H 0.77368 0.81634 0.92502 0.0
H207 H 0.71567 0.87858 0.92866 0.0
H208 H 0.73097 0.63262 0.01193 0.0
H209 H 0.57835 0.76731 0.02677 0.0
H210 H 0.86362 0.71764 0.00619 0.0
H211 H 0.84311 0.74296 0.96229 0.0
H212 H 0.82991 0.66251 0.98011 0.0
H213 H 0.66591 0.8913 0.02445 0.0
H214 H 0.58795 0.87486 0.00245 0.0
H215 H 0.6618 0.90205 0.97905 0.0
C216 C 0.85214 0.22234 0.02511 0.0
C217 C 0.88295 0.21202 -0.00494 0.0
C218 C 0.79601 0.2632 0.02442 0.0
C219 C 0.7701 0.29437 -0.00703 0.0
C220 C 0.80259 0.28577 0.96275 0.0
C221 C 0.85841 0.2448 0.96417 0.0
C222 C 0.76291 0.27115 0.05716 0.0
C223 C 0.77681 0.31815 0.92863 0.0
C224 C 0.58579 0.33955 0.97336 0.0
C225 C 0.58892 0.40493 0.96958 0.0
C226 C 0.64323 0.30257 0.98407 0.0
C227 C 0.70576 0.33177 0.99074 0.0
C228 C 0.70761 0.3976 0.98997 0.0
C229 C 0.64885 0.43353 0.97948 0.0
C230 C 0.63831 0.2326 0.9851 0.0
C231 C 0.77295 0.43059 -0.00279 0.0
H232 H 0.87078 0.19735 0.04913 0.0
H233 H 0.88201 0.23752 0.94084 0.0
H234 H 0.75486 0.32142 0.0589 0.0
H235 H 0.71211 0.24876 0.05783 0.0
H236 H 0.7938 0.24982 0.0797 0.0
H237 H 0.81021 0.30954 0.90781 0.0
H238 H 0.7249 0.30135 0.92296 0.0
H239 H 0.77316 0.36931 0.92898 0.0
H240 H 0.53937 0.31743 0.96572 0.0
H241 H 0.65146 0.48413 0.97642 0.0
H242 H 0.66455 0.20806 0.00826 0.0
H243 H 0.66386 0.21849 0.96292 0.0
H244 H 0.58458 0.21671 0.98441 0.0
H245 H 0.80118 0.40506 0.0195 0.0
H246 H 0.76347 0.47935 0.00187 0.0
H247 H 0.80609 0.43205 0.97513 0.0
C248 C 0.67975 0.65972 0.55174 0.0
C249 C 0.66555 0.64479 0.5191 0.0
C250 C 0.71797 0.7128 0.55664 0.0
C251 C 0.74307 0.75163 0.52824 0.0
C252 C 0.73089 0.73569 0.49532 0.0
C253 C 0.69209 0.68259 0.49113 0.0
C254 C 0.72975 0.72834 0.59214 0.0
C255 C 0.75747 0.77559 0.46445 0.0
C256 C 0.77867 0.92131 0.53768 0.0
C257 C 0.84946 0.92068 0.54317 0.0
C258 C 0.74351 0.86683 0.53238 0.0
C259 C 0.78006 0.81008 0.53292 0.0
C260 C 0.8516 0.809 0.53861 0.0
C261 C 0.88533 0.86408 0.54414 0.0
C262 C 0.66718 0.86993 0.52648 0.0
C263 C 0.89247 0.74957 0.53917 0.0
H264 H 0.65932 0.63093 0.5735 0.0
H265 H 0.68158 0.67133 0.46581 0.0
H266 H 0.78504 0.73327 0.59767 0.0
H267 H 0.70521 0.77382 0.59438 0.0
H268 H 0.70901 0.69214 0.61161 0.0
H269 H 0.74653 0.7551 0.4408 0.0
H270 H 0.73389 0.82282 0.46173 0.0
H271 H 0.81332 0.78167 0.46743 0.0
H272 H 0.75083 0.96475 0.53753 0.0
H273 H 0.93985 0.86252 0.54928 0.0
H274 H 0.64228 0.83838 0.54673 0.0
H275 H 0.65303 0.85359 0.50202 0.0
H276 H 0.64663 0.91799 0.5261 0.0
H277 H 0.87679 0.71453 0.56049 0.0
H278 H 0.94815 0.75739 0.54198 0.0
H279 H 0.88233 0.7292 0.51545 0.0
C280 C 0.68479 0.31795 0.52458 0.0
C281 C 0.65996 0.35793 0.49604 0.0
C282 C 0.71848 0.26191 0.52104 0.0
C283 C 0.72621 0.24525 0.48826 0.0
C284 C 0.7025 0.28606 0.45939 0.0
C285 C 0.67032 0.34213 0.46362 0.0
C286 C 0.74464 0.22001 0.55231 0.0
C287 C 0.70929 0.26971 0.424 0.0
C288 C 0.85724 0.12746 0.46953 0.0
C289 C 0.8176 0.07351 0.46879 0.0
C290 C 0.82878 0.18276 0.47755 0.0
C291 C 0.75848 0.18495 0.48378 0.0
C292 C 0.71808 0.13087 0.48295 0.0
C293 C 0.74828 0.07566 0.47552 0.0
C294 C 0.87367 0.23922 0.47861 0.0
C295 C 0.6426 0.13191 0.4888 0.0
H296 H 0.67699 0.32996 0.54968 0.0
H297 H 0.65101 0.37255 0.4414 0.0
H298 H 0.71721 0.17486 0.55472 0.0
H299 H 0.79947 0.20944 0.5501 0.0
H300 H 0.73805 0.24136 0.57578 0.0
H301 H 0.68821 0.30674 0.40423 0.0
H302 H 0.76364 0.26216 0.41896 0.0
H303 H 0.68221 0.22542 0.42162 0.0
H304 H 0.91071 0.12679 0.46374 0.0
H305 H 0.71757 0.03426 0.4745 0.0
H306 H 0.86936 0.25697 0.50326 0.0
H307 H 0.85667 0.27736 0.4585 0.0
H308 H 0.92808 0.22869 0.47498 0.0
H309 H 0.63304 0.14874 0.51327 0.0
H310 H 0.61916 0.0851 0.48899 0.0
H311 H 0.61676 0.165 0.46854 0.0
C312 C 0.33676 0.34626 0.51849 0.0
C313 C 0.36706 0.37319 0.48862 0.0
C314 C 0.28621 0.30095 0.51804 0.0
C315 C 0.26484 0.28165 0.48686 0.0
C316 C 0.29409 0.30927 0.4564 0.0
C317 C 0.34513 0.35481 0.45763 0.0
C318 C 0.25632 0.27316 0.55123 0.0
C319 C 0.27253 0.28993 0.42272 0.0
C320 C 0.18835 0.12287 0.50888 0.0
C321 C 0.12108 0.13949 0.51404 0.0
C322 C 0.23485 0.16805 0.49538 0.0
C323 C 0.21326 0.23115 0.48735 0.0
C324 C 0.14322 0.24624 0.48858 0.0
C325 C 0.09783 0.20007 0.50223 0.0
C326 C 0.30872 0.1496 0.49409 0.0
C327 C 0.11769 0.31257 0.47967 0.0
H328 H 0.35282 0.36034 0.54257 0.0
H329 H 0.36823 0.37545 0.43444 0.0
H330 H 0.20032 0.28035 0.55013 0.0
H331 H 0.26607 0.22203 0.55587 0.0
H332 H 0.27799 0.29407 0.57315 0.0
H333 H 0.29246 0.32199 0.4011 0.0
H334 H 0.29193 0.24213 0.42136 0.0
H335 H 0.21619 0.28851 0.41996 0.0
H336 H 0.20607 0.07586 0.51827 0.0
H337 H 0.04573 0.21273 0.50655 0.0
H338 H 0.33699 0.16281 0.51658 0.0
H339 H 0.33226 0.17443 0.47118 0.0
H340 H 0.31483 0.09842 0.49423 0.0
H341 H 0.12913 0.33868 0.50126 0.0
H342 H 0.06174 0.31428 0.47443 0.0
H343 H 0.14346 0.33677 0.45726 0.0
C344 C 0.34194 0.67403 0.47103 0.0
C345 C 0.36785 0.64211 0.50181 0.0
C346 C 0.28806 0.71663 0.47015 0.0
C347 C 0.25939 0.72784 0.50086 0.0
C348 C 0.28544 0.69621 0.53212 0.0
C349 C 0.3395 0.65351 0.53224 0.0
C350 C 0.26171 0.74953 0.43622 0.0
C351 C 0.25612 0.70737 0.56527 0.0
C352 C 0.16658 0.8818 0.48556 0.0
C353 C 0.1015 0.86228 0.4766 0.0
C354 C 0.21749 0.83796 0.49731 0.0
C355 C 0.20261 0.77345 0.49951 0.0
C356 C 0.13493 0.75395 0.4936 0.0
C357 C 0.08485 0.79895 0.48211 0.0
C358 C 0.28868 0.86071 0.50384 0.0
C359 C 0.11691 0.68567 0.49586 0.0
H360 H 0.36348 0.66548 0.44741 0.0
H361 H 0.35924 0.62885 0.55614 0.0
H362 H 0.20677 0.73955 0.43259 0.0
H363 H 0.26691 0.80085 0.43536 0.0
H364 H 0.28931 0.73499 0.41471 0.0
H365 H 0.28253 0.67934 0.58742 0.0
H366 H 0.25998 0.75759 0.56817 0.0
H367 H 0.20124 0.69541 0.56547 0.0
H368 H 0.17875 0.93117 0.48121 0.0
H369 H 0.03414 0.78444 0.47503 0.0
H370 H 0.32022 0.85523 0.48186 0.0
H371 H 0.313 0.83274 0.52654 0.0
H372 H 0.28897 0.91079 0.50746 0.0
H373 H 0.13479 0.66722 0.47304 0.0
H374 H 0.06104 0.67836 0.49718 0.0
H375 H 0.14241 0.65808 0.51834 0.0
C376 C 0.98185 1.00227 0.20179 0.0
C377 C 0.03871 0.02554 0.18381 0.0
C378 C 0.98205 0.9964 0.23721 0.0
C379 C 0.04138 0.01206 0.25522 0.0
C380 C 0.09917 0.03501 0.23744 0.0
C381 C 0.09673 0.04252 0.20194 0.0
C382 C 0.91888 0.97296 0.25538 0.0
C383 C 0.16393 0.05066 0.25591 0.0
C384 C 0.02264 0.04076 0.34606 0.0
C385 C 0.03627 0.98106 0.36394 0.0
C386 C 0.02469 0.0518 0.31063 0.0
C387 C 0.04329 1.00257 0.29275 0.0
C388 C 0.06057 0.94318 0.31064 0.0
C389 C 0.05562 0.93281 0.3459 0.0
C390 C 0.00456 0.11545 0.29227 0.0
C391 C 0.08249 0.88999 0.29245 0.0
H392 H 0.9372 0.9878 0.18828 0.0
H393 H 0.14045 0.06192 0.18845 0.0
H394 H 0.9297 0.92727 0.27108 0.0
H395 H 0.9034 0.006 0.27273 0.0
H396 H 0.87543 0.96711 0.23755 0.0
H397 H 0.2047 0.06732 0.23828 0.0
H398 H 0.15377 0.08733 0.27201 0.0
H399 H 0.1829 0.00875 0.27296 0.0
H400 H 0.00938 0.07889 0.35965 0.0
H401 H 0.06512 0.88619 0.35915 0.0
H402 H 0.95886 0.11115 0.27563 0.0
H403 H 0.04589 0.13485 0.27577 0.0
H404 H 0.99296 0.14916 0.30998 0.0
H405 H 0.03901 0.87516 0.27704 0.0
H406 H 0.10101 0.84884 0.3103 0.0
H407 H 0.12363 0.90542 0.27485 0.0
C408 C 0.0051 0.12641 0.78702 0.0
C409 C 0.06072 0.11086 0.80973 0.0
C410 C 0.00929 0.1209 0.75255 0.0
C411 C 0.07151 0.10206 0.74012 0.0
C412 C 0.12896 0.08969 0.76235 0.0
C413 C 0.1225 0.09285 0.79697 0.0
C414 C 0.94642 0.13321 0.72967 0.0
C415 C 0.19687 0.07167 0.74975 0.0
C416 C 0.06143 0.02376 0.66089 0.0
C417 C 0.06953 0.07461 0.6353 0.0
C418 C 0.06242 0.03202 0.69512 0.0
C419 C 0.07512 0.09205 0.70418 0.0
C420 C 0.08788 0.14279 0.67881 0.0
C421 C 0.08347 0.13381 0.64466 0.0
C422 C 0.04721 0.97694 0.72145 0.0
C423 C 0.10437 0.20696 0.68766 0.0
H424 H 0.95769 0.14213 0.79616 0.0
H425 H 0.16572 0.07951 0.81403 0.0
H426 H 0.95629 0.17094 0.70861 0.0
H427 H 0.93328 0.09062 0.7182 0.0
H428 H 0.90177 0.14689 0.74341 0.0
H429 H 0.23843 0.07154 0.76937 0.0
H430 H 0.19371 0.02429 0.74213 0.0
H431 H 0.21048 0.10445 0.72704 0.0
H432 H 0.05298 0.97739 0.65424 0.0
H433 H 0.08901 0.17383 0.62536 0.0
H434 H 0.00153 0.98731 0.73539 0.0
H435 H 0.09021 0.96842 0.74028 0.0
H436 H 0.03785 0.93343 0.71013 0.0
H437 H 0.05849 0.22774 0.69724 0.0
H438 H 0.12194 0.23907 0.66547 0.0
H439 H 0.14451 0.20373 0.70812 0.0
C440 C 0.54084 0.43295 0.70827 0.0
C441 C 0.48613 0.42159 0.68641 0.0
C442 C 0.53262 0.42959 0.74318 0.0
C443 C 0.46748 0.41713 0.75647 0.0
C444 C 0.41274 0.40273 0.73504 0.0
C445 C 0.4231 0.40388 0.70034 0.0
C446 C 0.59293 0.44308 0.76552 0.0
C447 C 0.34222 0.39029 0.74823 0.0
C448 C 0.46354 0.38803 0.85213 0.0
C449 C 0.4584 0.44945 0.85976 0.0
C450 C 0.46377 0.37603 0.81848 0.0
C451 C 0.45582 0.42636 0.79192 0.0
C452 C 0.44436 0.48755 0.7994 0.0
C453 C 0.44713 0.49857 0.83317 0.0
C454 C 0.47747 0.3103 0.8115 0.0
C455 C 0.43337 0.5422 0.77167 0.0
H456 H 0.58962 0.44744 0.69815 0.0
H457 H 0.38093 0.39287 0.68403 0.0
H458 H 0.58636 0.4897 0.7737 0.0
H459 H 0.59648 0.40806 0.78868 0.0
H460 H 0.6417 0.44284 0.75223 0.0
H461 H 0.30779 0.37128 0.72952 0.0
H462 H 0.34414 0.35708 0.77209 0.0
H463 H 0.3199 0.43466 0.75404 0.0
H464 H 0.46998 0.34936 0.87242 0.0
H465 H 0.44375 0.5463 0.83842 0.0
H466 H 0.53021 0.30736 0.80269 0.0
H467 H 0.4426 0.29774 0.79109 0.0
H468 H 0.47213 0.2753 0.83444 0.0
H469 H 0.48195 0.55356 0.75887 0.0
H470 H 0.41524 0.5846 0.78165 0.0
H471 H 0.39567 0.53022 0.75226 0.0
C472 C 0.51928 0.60486 0.29321 0.0
C473 C 0.57196 0.58601 0.31718 0.0
C474 C 0.53039 0.61086 0.25839 0.0
C475 C 0.59656 0.60089 0.24719 0.0
C476 C 0.65097 0.58613 0.27103 0.0
C477 C 0.63773 0.57713 0.30565 0.0
C478 C 0.47063 0.62522 0.23363 0.0
C479 C 0.72285 0.57782 0.26001 0.0
C480 C 0.60548 0.5438 0.16214 0.0
C481 C 0.60959 0.60016 0.14006 0.0
C482 C 0.60229 0.54337 0.19714 0.0
C483 C 0.60723 0.6004 0.21064 0.0
C484 C 0.6178 0.65686 0.18893 0.0
C485 C 0.61739 0.65631 0.15379 0.0
C486 C 0.58973 0.48222 0.21942 0.0
C487 C 0.62674 0.71816 0.20265 0.0
H488 H 0.46879 0.61399 0.3015 0.0
H489 H 0.67904 0.56142 0.32346 0.0
H490 H 0.48037 0.66832 0.21594 0.0
H491 H 0.46389 0.58655 0.21819 0.0
H492 H 0.42235 0.63154 0.24651 0.0
H493 H 0.76078 0.57781 0.28133 0.0
H494 H 0.72737 0.53277 0.24989 0.0
H495 H 0.73585 0.6156 0.23947 0.0
H496 H 0.60216 0.49988 0.15199 0.0
H497 H 0.6204 0.70029 0.13718 0.0
H498 H 0.54113 0.48513 0.23254 0.0
H499 H 0.63081 0.47278 0.23923 0.0
H500 H 0.58692 0.44203 0.20481 0.0
H501 H 0.57704 0.7341 0.2108 0.0
H502 H 0.64655 0.75521 0.18336 0.0
H503 H 0.66221 0.71247 0.22515 0.0
loop_
_geom_bond_atom_site_label_1
_geom_bond_atom_site_label_2
_geom_bond_distance
_geom_bond_site_symmetry_2
_ccdc_geom_bond_type
C0 O16 1.251 . S
C0 O18 1.254 1_554 S
N1 C2 1.333 1_445 S
N1 C6 1.307 . S
N1 Zn7 2.020 . S
C2 N1 1.333 1_665 S
C2 C3 1.379 . S
C2 H20 0.952 . S
C3 C2 1.379 . S
C3 C4 1.390 1_665 S
C3 H30 0.949 . S
C4 C3 1.390 1_445 S
C4 C5 1.357 . S
C5 C4 1.357 . S
C5 C6 1.370 . S
C5 H31 0.950 . S
C6 N1 1.307 . S
C6 C5 1.370 . S
C6 H24 0.948 . S
Zn7 N1 2.020 . S
Zn7 O16 2.039 1_445 S
Zn7 O22 2.034 1_455 S
Zn7 O26 2.025 . S
Zn7 O28 2.024 1_545 S
C8 O27 1.246 1_554 S
C8 O28 1.249 . S
N9 C10 1.307 1_455 S
N9 C11 1.333 . S
N9 Zn15 2.020 . S
C10 N9 1.307 1_655 S
C10 C14 1.370 . S
C10 H21 0.948 . S
C11 N9 1.333 . S
C11 C12 1.379 . S
C11 H19 0.952 . S
C12 C11 1.379 . S
C12 C13 1.390 . S
C12 H32 0.949 . S
C13 C12 1.390 . S
C13 C14 1.357 1_455 S
C14 C10 1.370 . S
C14 C13 1.357 1_655 S
C14 H33 0.950 . S
Zn15 N9 2.020 . S
Zn15 O18 2.025 1_445 S
Zn15 O23 2.024 1_455 S
Zn15 O25 2.039 . S
Zn15 O27 2.034 1_545 S
O16 C0 1.251 . S
O16 Zn7 2.039 1_665 S
C17 O22 1.246 . S
C17 O23 1.249 1_554 S
O18 C0 1.254 1_556 S
O18 Zn15 2.025 1_665 S
H19 C11 0.952 . S
H20 C2 0.952 . S
H21 C10 0.948 . S
O22 Zn7 2.034 1_655 S
O22 C17 1.246 . S
O23 Zn15 2.024 1_655 S
O23 C17 1.249 1_556 S
H24 C6 0.948 . S
O25 Zn15 2.039 . S
O25 C29 1.251 1_556 S
O26 Zn7 2.025 . S
O26 C29 1.254 . S
O27 C8 1.246 1_556 S
O27 Zn15 2.034 1_565 S
O28 Zn7 2.024 1_565 S
O28 C8 1.249 . S
C29 O25 1.251 1_554 S
C29 O26 1.254 . S
H30 C3 0.949 . S
H31 C5 0.950 . S
H32 C12 0.949 . S
H33 C14 0.950 . S
C34 O50 1.251 . S
C34 O52 1.254 . S
N35 C36 1.333 . S
N35 C40 1.307 . S
N35 Zn41 2.020 . S
C36 N35 1.333 . S
C36 C37 1.379 . S
C36 H54 0.952 . S
C37 C36 1.379 . S
C37 C38 1.390 . S
C37 H64 0.949 . S
C38 C37 1.390 . S
C38 C39 1.357 . S
C39 C38 1.357 . S
C39 C40 1.370 . S
C39 H65 0.950 . S
C40 N35 1.307 . S
C40 C39 1.370 . S
C40 H58 0.948 . S
Zn41 N35 2.020 . S
Zn41 O50 2.039 . S
Zn41 O56 2.034 . S
Zn41 O60 2.025 . S
Zn41 O62 2.024 . S
C42 O61 1.246 . S
C42 O62 1.249 . S
N43 C44 1.307 . S
N43 C45 1.333 . S
N43 Zn49 2.020 . S
C44 N43 1.307 . S
C44 C48 1.370 . S
C44 H55 0.948 . S
C45 N43 1.333 . S
C45 C46 1.379 . S
C45 H53 0.952 . S
C46 C45 1.379 . S
C46 C47 1.390 . S
C46 H66 0.949 . S
C47 C46 1.390 . S
C47 C48 1.357 . S
C48 C44 1.370 . S
C48 C47 1.357 . S
C48 H67 0.950 . S
Zn49 N43 2.020 . S
Zn49 O52 2.025 . S
Zn49 O57 2.024 . S
Zn49 O59 2.039 . S
Zn49 O61 2.034 . S
O50 C34 1.251 . S
O50 Zn41 2.039 . S
C51 O56 1.246 . S
C51 O57 1.249 . S
O52 C34 1.254 . S
O52 Zn49 2.025 . S
H53 C45 0.952 . S
H54 C36 0.952 . S
H55 C44 0.948 . S
O56 Zn41 2.034 . S
O56 C51 1.246 . S
O57 Zn49 2.024 . S
O57 C51 1.249 . S
H58 C40 0.948 . S
O59 Zn49 2.039 . S
O59 C63 1.251 . S
O60 Zn41 2.025 . S
O60 C63 1.254 . S
O61 C42 1.246 . S
O61 Zn49 2.034 . S
O62 Zn41 2.024 . S
O62 C42 1.249 . S
C63 O59 1.251 . S
C63 O60 1.254 . S
H64 C37 0.949 . S
H65 C39 0.950 . S
H66 C46 0.949 . S
H67 C48 0.950 . S
H68 C75 0.929 . S
H69 C78 0.930 . S
H70 C80 0.929 . S
H71 C72 0.969 . S
C72 H71 0.969 . S
C72 O73 1.550 . S
C72 H74 0.973 . S
O73 C72 1.550 . S
O73 C79 1.412 . S
H74 C72 0.973 . S
C75 H68 0.929 . S
C75 C76 1.400 . S
C75 C77 1.364 . S
C76 C75 1.400 . S
C76 C80 1.377 . S
C77 C75 1.364 . S
C77 C78 1.374 1_465 S
C78 H69 0.930 . S
C78 C77 1.374 1_645 S
C78 C79 1.383 . S
C79 O73 1.412 . S
C79 C78 1.383 . S
C79 C80 1.394 1_645 S
C80 H70 0.929 . S
C80 C76 1.377 . S
C80 C79 1.394 1_465 S
H81 C88 0.929 . S
H82 C91 0.930 1_565 S
H83 C93 0.929 . S
H84 C85 0.969 . S
C85 H84 0.969 . S
C85 O86 1.550 . S
C85 H87 0.973 . S
O86 C85 1.550 . S
O86 C92 1.412 1_565 S
H87 C85 0.973 . S
C88 H81 0.929 . S
C88 C89 1.400 . S
C88 C90 1.364 . S
C89 C88 1.400 . S
C89 C93 1.377 . S
C90 C88 1.364 . S
C90 C91 1.374 1_455 S
C91 H82 0.930 1_545 S
C91 C90 1.374 1_655 S
C91 C92 1.383 . S
C92 O86 1.412 1_545 S
C92 C91 1.383 . S
C92 C93 1.394 1_655 S
C93 H83 0.929 . S
C93 C89 1.377 . S
C93 C92 1.394 1_455 S
H94 C101 0.929 . S
H95 C104 0.930 . S
H96 C106 0.929 1_554 S
H97 C98 0.969 . S
C98 H97 0.969 . S
C98 O99 1.550 1_556 S
C98 H100 0.973 . S
O99 C98 1.550 1_554 S
O99 C105 1.412 1_554 S
H100 C98 0.973 . S
C101 H94 0.929 . S
C101 C102 1.400 . S
C101 C103 1.364 . S
C102 C101 1.400 . S
C102 C106 1.377 . S
C103 C101 1.364 . S
C103 C104 1.374 . S
C104 H95 0.930 . S
C104 C103 1.374 . S
C104 C105 1.383 . S
C105 O99 1.412 1_556 S
C105 C104 1.383 . S
C105 C106 1.394 . S
C106 H96 0.929 1_556 S
C106 C102 1.377 . S
C106 C105 1.394 . S
H107 C114 0.929 . S
H108 C117 0.930 . S
H109 C119 0.929 1_556 S
H110 C111 0.969 . S
C111 H110 0.969 . S
C111 O112 1.550 . S
C111 H113 0.973 . S
O112 C111 1.550 . S
O112 C118 1.412 . S
H113 C111 0.973 . S
C114 H107 0.929 . S
C114 C115 1.400 . S
C114 C116 1.364 . S
C115 C114 1.400 . S
C115 C119 1.377 . S
C116 C114 1.364 . S
C116 C117 1.374 . S
C117 H108 0.930 . S
C117 C116 1.374 . S
C117 C118 1.383 . S
C118 O112 1.412 . S
C118 C117 1.383 . S
C118 C119 1.394 . S
C119 H109 0.929 1_554 S
C119 C115 1.377 . S
C119 C118 1.394 . S
C120 C121 1.391 1_556 S
C120 C122 1.394 . S
C120 H136 0.931 . S
C121 C120 1.391 1_554 S
C121 C125 1.376 . S
C122 C120 1.394 . S
C122 C123 1.369 1_556 S
C122 C126 1.531 . S
C123 C122 1.369 1_554 S
C123 C124 1.410 . S
C123 C131 1.503 . S
C124 C123 1.410 . S
C124 C125 1.392 . S
C124 C127 1.511 . S
C125 C121 1.376 . S
C125 C124 1.392 . S
C125 H137 0.929 . S
C126 C122 1.531 . S
C126 H138 0.960 . S
C126 H139 0.962 . S
C126 H140 0.960 . S
C127 C124 1.511 . S
C127 H141 0.961 . S
C127 H142 0.961 . S
C127 H143 0.961 . S
C128 C129 1.370 . S
C128 C130 1.363 . S
C128 H144 0.931 . S
C129 C128 1.370 . S
C129 C133 1.408 1_554 S
C130 C128 1.363 . S
C130 C131 1.370 . S
C130 C134 1.524 . S
C131 C123 1.503 . S
C131 C130 1.370 . S
C131 C132 1.403 1_554 S
C132 C131 1.403 1_556 S
C132 C133 1.404 . S
C132 C135 1.539 . S
C133 C129 1.408 1_556 S
C133 C132 1.404 . S
C133 H145 0.930 . S
C134 C130 1.524 . S
C134 H146 0.956 . S
C134 H147 0.961 . S
C134 H148 0.961 . S
C135 C132 1.539 . S
C135 H149 0.958 . S
C135 H150 0.961 . S
C135 H151 0.960 . S
H136 C120 0.931 . S
H137 C125 0.929 . S
H138 C126 0.960 . S
H139 C126 0.962 . S
H140 C126 0.960 . S
H141 C127 0.961 . S
H142 C127 0.961 . S
H143 C127 0.961 . S
H144 C128 0.931 . S
H145 C133 0.930 . S
H146 C134 0.956 . S
H147 C134 0.961 . S
H148 C134 0.961 . S
H149 C135 0.958 . S
H150 C135 0.961 . S
H151 C135 0.960 . S
C152 C153 1.391 . S
C152 C154 1.394 1_554 S
C152 H168 0.930 1_554 S
C153 C152 1.391 . S
C153 C157 1.376 . S
C154 C152 1.394 1_556 S
C154 C155 1.370 . S
C154 C158 1.531 . S
C155 C154 1.370 . S
C155 C156 1.404 1_556 S
C155 C163 1.503 . S
C156 C155 1.404 1_554 S
C156 C157 1.392 . S
C156 C159 1.511 . S
C157 C153 1.376 . S
C157 C156 1.392 . S
C157 H169 0.929 . S
C158 C154 1.531 . S
C158 H170 0.960 . S
C158 H171 0.962 1_556 S
C158 H172 0.960 . S
C159 C156 1.511 . S
C159 H173 0.961 . S
C159 H174 0.961 . S
C159 H175 0.961 1_554 S
C160 C161 1.369 1_554 S
C160 C162 1.363 . S
C160 H176 0.931 . S
C161 C160 1.369 1_556 S
C161 C165 1.409 . S
C162 C160 1.363 . S
C162 C163 1.354 1_554 S
C162 C166 1.524 . S
C163 C155 1.503 . S
C163 C162 1.354 1_556 S
C163 C164 1.422 . S
C164 C163 1.422 . S
C164 C165 1.404 . S
C164 C167 1.539 . S
C165 C161 1.409 . S
C165 C164 1.404 . S
C165 H177 0.930 . S
C166 C162 1.524 . S
C166 H178 0.956 . S
C166 H179 0.961 . S
C166 H180 0.961 . S
C167 C164 1.539 . S
C167 H181 0.958 . S
C167 H182 0.961 . S
C167 H183 0.960 . S
H168 C152 0.930 1_556 S
H169 C157 0.929 . S
H170 C158 0.960 . S
H171 C158 0.962 1_554 S
H172 C158 0.960 . S
H173 C159 0.961 . S
H174 C159 0.961 . S
H175 C159 0.961 1_556 S
H176 C160 0.931 . S
H177 C165 0.930 . S
H178 C166 0.956 . S
H179 C166 0.961 . S
H180 C166 0.961 . S
H181 C167 0.958 . S
H182 C167 0.961 . S
H183 C167 0.960 . S
C184 C185 1.391 . S
C184 C186 1.394 . S
C184 H200 0.931 . S
C185 C184 1.391 . S
C185 C189 1.376 1_554 S
C186 C184 1.394 . S
C186 C187 1.369 . S
C186 C190 1.531 . S
C187 C186 1.369 . S
C187 C188 1.410 1_554 S
C187 C195 1.503 . S
C188 C187 1.410 1_556 S
C188 C189 1.392 . S
C188 C191 1.511 . S
C189 C185 1.376 1_556 S
C189 C188 1.392 . S
C189 H201 0.929 . S
C190 C186 1.531 . S
C190 H202 0.960 . S
C190 H203 0.962 . S
C190 H204 0.960 . S
C191 C188 1.511 . S
C191 H205 0.961 . S
C191 H206 0.961 . S
C191 H207 0.961 . S
C192 C193 1.370 . S
C192 C194 1.363 . S
C192 H208 0.931 . S
C193 C192 1.370 . S
C193 C197 1.408 . S
C194 C192 1.363 . S
C194 C195 1.370 . S
C194 C198 1.524 1_554 S
C195 C187 1.503 . S
C195 C194 1.370 . S
C195 C196 1.403 . S
C196 C195 1.403 . S
C196 C197 1.404 . S
C196 C199 1.539 . S
C197 C193 1.408 . S
C197 C196 1.404 . S
C197 H209 0.930 . S
C198 C194 1.524 1_556 S
C198 H210 0.956 1_556 S
C198 H211 0.961 . S
C198 H212 0.961 . S
C199 C196 1.539 . S
C199 H213 0.958 . S
C199 H214 0.961 . S
C199 H215 0.960 . S
H200 C184 0.931 . S
H201 C189 0.929 . S
H202 C190 0.960 . S
H203 C190 0.962 . S
H204 C190 0.960 . S
H205 C191 0.961 . S
H206 C191 0.961 . S
H207 C191 0.961 . S
H208 C192 0.931 . S
H209 C197 0.930 . S
H210 C198 0.956 1_554 S
H211 C198 0.961 . S
H212 C198 0.961 . S
H213 C199 0.958 . S
H214 C199 0.961 . S
H215 C199 0.960 . S
C216 C217 1.394 . S
C216 C218 1.394 . S
C216 H232 0.931 . S
C217 C216 1.394 . S
C217 C221 1.372 1_554 S
C218 C216 1.394 . S
C218 C219 1.369 1_554 S
C218 C222 1.531 . S
C219 C218 1.369 1_556 S
C219 C220 1.410 . S
C219 C227 1.503 . S
C220 C219 1.410 . S
C220 C221 1.392 . S
C220 C223 1.511 . S
C221 C217 1.372 1_556 S
C221 C220 1.392 . S
C221 H233 0.929 . S
C222 C218 1.531 . S
C222 H234 0.960 . S
C222 H235 0.962 . S
C222 H236 0.960 . S
C223 C220 1.511 . S
C223 H237 0.961 . S
C223 H238 0.961 . S
C223 H239 0.961 . S
C224 C225 1.370 1_554 S
C224 C226 1.363 . S
C224 H240 0.931 . S
C225 C224 1.370 1_556 S
C225 C229 1.408 . S
C226 C224 1.363 . S
C226 C227 1.370 1_554 S
C226 C230 1.524 . S
C227 C219 1.503 . S
C227 C226 1.370 1_556 S
C227 C228 1.403 . S
C228 C227 1.403 . S
C228 C229 1.404 . S
C228 C231 1.539 . S
C229 C225 1.408 . S
C229 C228 1.404 . S
C229 H241 0.930 . S
C230 C226 1.524 . S
C230 H242 0.956 . S
C230 H243 0.961 . S
C230 H244 0.961 . S
C231 C228 1.539 . S
C231 H245 0.958 . S
C231 H246 0.961 . S
C231 H247 0.960 . S
H232 C216 0.931 . S
H233 C221 0.929 . S
H234 C222 0.960 . S
H235 C222 0.962 . S
H236 C222 0.960 . S
H237 C223 0.961 . S
H238 C223 0.961 . S
H239 C223 0.961 . S
H240 C224 0.931 . S
H241 C229 0.930 . S
H242 C230 0.956 . S
H243 C230 0.961 . S
H244 C230 0.961 . S
H245 C231 0.958 . S
H246 C231 0.961 . S
H247 C231 0.960 . S
C248 C249 1.391 . S
C248 C250 1.394 . S
C248 H264 0.931 . S
C249 C248 1.391 . S
C249 C253 1.376 . S
C250 C248 1.394 . S
C250 C251 1.369 . S
C250 C254 1.531 . S
C251 C250 1.369 . S
C251 C252 1.410 . S
C251 C259 1.503 . S
C252 C251 1.410 . S
C252 C253 1.392 . S
C252 C255 1.511 . S
C253 C249 1.376 . S
C253 C252 1.392 . S
C253 H265 0.929 . S
C254 C250 1.531 . S
C254 H266 0.960 . S
C254 H267 0.962 . S
C254 H268 0.960 . S
C255 C252 1.511 . S
C255 H269 0.961 . S
C255 H270 0.961 . S
C255 H271 0.961 . S
C256 C257 1.370 . S
C256 C258 1.363 . S
C256 H272 0.931 . S
C257 C256 1.370 . S
C257 C261 1.408 . S
C258 C256 1.363 . S
C258 C259 1.370 . S
C258 C262 1.524 . S
C259 C251 1.503 . S
C259 C258 1.370 . S
C259 C260 1.403 . S
C260 C259 1.403 . S
C260 C261 1.404 . S
C260 C263 1.539 . S
C261 C257 1.408 . S
C261 C260 1.404 . S
C261 H273 0.930 . S
C262 C258 1.524 . S
C262 H274 0.956 . S
C262 H275 0.961 . S
C262 H276 0.961 . S
C263 C260 1.539 . S
C263 H277 0.958 . S
C263 H278 0.961 . S
C263 H279 0.960 . S
H264 C248 0.931 . S
H265 C253 0.929 . S
H266 C254 0.960 . S
H267 C254 0.962 . S
H268 C254 0.960 . S
H269 C255 0.961 . S
H270 C255 0.961 . S
H271 C255 0.961 . S
H272 C256 0.931 . S
H273 C261 0.930 . S
H274 C262 0.956 . S
H275 C262 0.961 . S
H276 C262 0.961 . S
H277 C263 0.958 . S
H278 C263 0.961 . S
H279 C263 0.960 . S
C280 C281 1.391 . S
C280 C282 1.394 . S
C280 H296 0.931 . S
C281 C280 1.391 . S
C281 C285 1.376 . S
C282 C280 1.394 . S
C282 C283 1.369 . S
C282 C286 1.531 . S
C283 C282 1.369 . S
C283 C284 1.410 . S
C283 C291 1.503 . S
C284 C283 1.410 . S
C284 C285 1.392 . S
C284 C287 1.511 . S
C285 C281 1.376 . S
C285 C284 1.392 . S
C285 H297 0.929 . S
C286 C282 1.531 . S
C286 H298 0.960 . S
C286 H299 0.962 . S
C286 H300 0.960 . S
C287 C284 1.511 . S
C287 H301 0.961 . S
C287 H302 0.961 . S
C287 H303 0.961 . S
C288 C289 1.370 . S
C288 C290 1.363 . S
C288 H304 0.931 . S
C289 C288 1.370 . S
C289 C293 1.408 . S
C290 C288 1.363 . S
C290 C291 1.370 . S
C290 C294 1.524 . S
C291 C283 1.503 . S
C291 C290 1.370 . S
C291 C292 1.403 . S
C292 C291 1.403 . S
C292 C293 1.404 . S
C292 C295 1.539 . S
C293 C289 1.408 . S
C293 C292 1.404 . S
C293 H305 0.930 . S
C294 C290 1.524 . S
C294 H306 0.956 . S
C294 H307 0.961 . S
C294 H308 0.961 . S
C295 C292 1.539 . S
C295 H309 0.958 . S
C295 H310 0.961 . S
C295 H311 0.960 . S
H296 C280 0.931 . S
H297 C285 0.929 . S
H298 C286 0.960 . S
H299 C286 0.962 . S
H300 C286 0.960 . S
H301 C287 0.961 . S
H302 C287 0.961 . S
H303 C287 0.961 . S
H304 C288 0.931 . S
H305 C293 0.930 . S
H306 C294 0.956 . S
H307 C294 0.961 . S
H308 C294 0.961 . S
H309 C295 0.958 . S
H310 C295 0.961 . S
H311 C295 0.960 . S
C312 C313 1.391 . S
C312 C314 1.394 . S
C312 H328 0.931 . S
C313 C312 1.391 . S
C313 C317 1.376 . S
C314 C312 1.394 . S
C314 C315 1.369 . S
C314 C318 1.531 . S
C315 C314 1.369 . S
C315 C316 1.410 . S
C315 C323 1.503 . S
C316 C315 1.410 . S
C316 C317 1.392 . S
C316 C319 1.511 . S
C317 C313 1.376 . S
C317 C316 1.392 . S
C317 H329 0.929 . S
C318 C314 1.531 . S
C318 H330 0.960 . S
C318 H331 0.962 . S
C318 H332 0.960 . S
C319 C316 1.511 . S
C319 H333 0.961 . S
C319 H334 0.961 . S
C319 H335 0.961 . S
C320 C321 1.370 . S
C320 C322 1.363 . S
C320 H336 0.931 . S
C321 C320 1.370 . S
C321 C325 1.408 . S
C322 C320 1.363 . S
C322 C323 1.370 . S
C322 C326 1.524 . S
C323 C315 1.503 . S
C323 C322 1.370 . S
C323 C324 1.403 . S
C324 C323 1.403 . S
C324 C325 1.404 . S
C324 C327 1.539 . S
C325 C321 1.408 . S
C325 C324 1.404 . S
C325 H337 0.930 . S
C326 C322 1.524 . S
C326 H338 0.956 . S
C326 H339 0.961 . S
C326 H340 0.961 . S
C327 C324 1.539 . S
C327 H341 0.958 . S
C327 H342 0.961 . S
C327 H343 0.960 . S
H328 C312 0.931 . S
H329 C317 0.929 . S
H330 C318 0.960 . S
H331 C318 0.962 . S
H332 C318 0.960 . S
H333 C319 0.961 . S
H334 C319 0.961 . S
H335 C319 0.961 . S
H336 C320 0.931 . S
H337 C325 0.930 . S
H338 C326 0.956 . S
H339 C326 0.961 . S
H340 C326 0.961 . S
H341 C327 0.958 . S
H342 C327 0.961 . S
H343 C327 0.960 . S
C344 C345 1.391 . S
C344 C346 1.394 . S
C344 H360 0.931 . S
C345 C344 1.391 . S
C345 C349 1.376 . S
C346 C344 1.394 . S
C346 C347 1.369 . S
C346 C350 1.531 . S
C347 C346 1.369 . S
C347 C348 1.410 . S
C347 C355 1.503 . S
C348 C347 1.410 . S
C348 C349 1.392 . S
C348 C351 1.511 . S
C349 C345 1.376 . S
C349 C348 1.392 . S
C349 H361 0.929 . S
C350 C346 1.531 . S
C350 H362 0.960 . S
C350 H363 0.962 . S
C350 H364 0.960 . S
C351 C348 1.511 . S
C351 H365 0.961 . S
C351 H366 0.961 . S
C351 H367 0.961 . S
C352 C353 1.370 . S
C352 C354 1.363 . S
C352 H368 0.931 . S
C353 C352 1.370 . S
C353 C357 1.408 . S
C354 C352 1.363 . S
C354 C355 1.370 . S
C354 C358 1.524 . S
C355 C347 1.503 . S
C355 C354 1.370 . S
C355 C356 1.403 . S
C356 C355 1.403 . S
C356 C357 1.404 . S
C356 C359 1.539 . S
C357 C353 1.408 . S
C357 C356 1.404 . S
C357 H369 0.930 . S
C358 C354 1.524 . S
C358 H370 0.956 . S
C358 H371 0.961 . S
C358 H372 0.961 . S
C359 C356 1.539 . S
C359 H373 0.958 . S
C359 H374 0.961 . S
C359 H375 0.960 . S
H360 C344 0.931 . S
H361 C349 0.929 . S
H362 C350 0.960 . S
H363 C350 0.962 . S
H364 C350 0.960 . S
H365 C351 0.961 . S
H366 C351 0.961 . S
H367 C351 0.961 . S
H368 C352 0.931 . S
H369 C357 0.930 . S
H370 C358 0.956 . S
H371 C358 0.961 . S
H372 C358 0.961 . S
H373 C359 0.958 . S
H374 C359 0.961 . S
H375 C359 0.960 . S
C376 C377 1.391 1_655 S
C376 C378 1.394 . S
C376 H392 0.931 . S
C377 C376 1.391 1_455 S
C377 C381 1.376 1_565 S
C378 C376 1.394 . S
C378 C379 1.369 1_655 S
C378 C382 1.531 . S
C379 C378 1.369 1_455 S
C379 C380 1.410 1_565 S
C379 C387 1.503 . S
C380 C379 1.410 1_545 S
C380 C381 1.392 . S
C380 C383 1.511 . S
C381 C377 1.376 1_545 S
C381 C380 1.392 . S
C381 H393 0.929 . S
C382 C378 1.531 . S
C382 H394 0.960 . S
C382 H395 0.962 . S
C382 H396 0.960 . S
C383 C380 1.511 . S
C383 H397 0.961 . S
C383 H398 0.961 . S
C383 H399 0.961 . S
C384 C385 1.370 1_645 S
C384 C386 1.363 . S
C384 H400 0.931 . S
C385 C384 1.370 1_465 S
C385 C389 1.408 . S
C386 C384 1.363 . S
C386 C387 1.370 1_645 S
C386 C390 1.524 . S
C387 C379 1.503 . S
C387 C386 1.370 1_465 S
C387 C388 1.403 . S
C388 C387 1.403 . S
C388 C389 1.404 . S
C388 C391 1.539 . S
C389 C385 1.408 . S
C389 C388 1.404 . S
C389 H401 0.930 . S
C390 C386 1.524 . S
C390 H402 0.956 . S
C390 H403 0.961 . S
C390 H404 0.961 . S
C391 C388 1.539 . S
C391 H405 0.958 . S
C391 H406 0.961 . S
C391 H407 0.960 . S
H392 C376 0.931 . S
H393 C381 0.929 . S
H394 C382 0.960 . S
H395 C382 0.962 . S
H396 C382 0.960 . S
H397 C383 0.961 . S
H398 C383 0.961 . S
H399 C383 0.961 . S
H400 C384 0.931 . S
H401 C389 0.930 . S
H402 C390 0.956 . S
H403 C390 0.961 . S
H404 C390 0.961 . S
H405 C391 0.958 . S
H406 C391 0.961 . S
H407 C391 0.960 . S
C408 C409 1.391 1_655 S
C408 C410 1.394 . S
C408 H424 0.931 . S
C409 C408 1.391 1_455 S
C409 C413 1.376 . S
C410 C408 1.394 . S
C410 C411 1.369 1_655 S
C410 C414 1.531 . S
C411 C410 1.369 1_455 S
C411 C412 1.410 . S
C411 C419 1.503 . S
C412 C411 1.410 . S
C412 C413 1.392 . S
C412 C415 1.511 . S
C413 C409 1.376 . S
C413 C412 1.392 . S
C413 H425 0.929 . S
C414 C410 1.531 . S
C414 H426 0.960 . S
C414 H427 0.962 . S
C414 H428 0.960 . S
C415 C412 1.511 . S
C415 H429 0.961 . S
C415 H430 0.961 . S
C415 H431 0.961 . S
C416 C417 1.370 . S
C416 C418 1.363 . S
C416 H432 0.931 1_445 S
C417 C416 1.370 . S
C417 C421 1.408 . S
C418 C416 1.363 . S
C418 C419 1.370 . S
C418 C422 1.524 1_445 S
C419 C411 1.503 . S
C419 C418 1.370 . S
C419 C420 1.403 . S
C420 C419 1.403 . S
C420 C421 1.404 . S
C420 C423 1.539 . S
C421 C417 1.408 . S
C421 C420 1.404 . S
C421 H433 0.930 . S
C422 C418 1.524 1_665 S
C422 H434 0.956 . S
C422 H435 0.961 1_655 S
C422 H436 0.961 . S
C423 C420 1.539 . S
C423 H437 0.958 . S
C423 H438 0.961 . S
C423 H439 0.960 . S
H424 C408 0.931 . S
H425 C413 0.929 . S
H426 C414 0.960 . S
H427 C414 0.962 . S
H428 C414 0.960 . S
H429 C415 0.961 . S
H430 C415 0.961 . S
H431 C415 0.961 . S
H432 C416 0.931 1_665 S
H433 C421 0.930 . S
H434 C422 0.956 . S
H435 C422 0.961 1_455 S
H436 C422 0.961 . S
H437 C423 0.958 . S
H438 C423 0.961 . S
H439 C423 0.960 . S
C440 C441 1.391 . S
C440 C442 1.394 . S
C440 H456 0.931 . S
C441 C440 1.391 . S
C441 C445 1.376 . S
C442 C440 1.394 . S
C442 C443 1.369 . S
C442 C446 1.531 . S
C443 C442 1.369 . S
C443 C444 1.410 . S
C443 C451 1.503 . S
C444 C443 1.410 . S
C444 C445 1.392 . S
C444 C447 1.511 . S
C445 C441 1.376 . S
C445 C444 1.392 . S
C445 H457 0.929 . S
C446 C442 1.531 . S
C446 H458 0.960 . S
C446 H459 0.962 . S
C446 H460 0.960 . S
C447 C444 1.511 . S
C447 H461 0.961 . S
C447 H462 0.961 . S
C447 H463 0.961 . S
C448 C449 1.370 . S
C448 C450 1.363 . S
C448 H464 0.931 . S
C449 C448 1.370 . S
C449 C453 1.408 . S
C450 C448 1.363 . S
C450 C451 1.370 . S
C450 C454 1.524 . S
C451 C443 1.503 . S
C451 C450 1.370 . S
C451 C452 1.403 . S
C452 C451 1.403 . S
C452 C453 1.404 . S
C452 C455 1.539 . S
C453 C449 1.408 . S
C453 C452 1.404 . S
C453 H465 0.930 . S
C454 C450 1.524 . S
C454 H466 0.956 . S
C454 H467 0.961 . S
C454 H468 0.961 . S
C455 C452 1.539 . S
C455 H469 0.958 . S
C455 H470 0.961 . S
C455 H471 0.960 . S
H456 C440 0.931 . S
H457 C445 0.929 . S
H458 C446 0.960 . S
H459 C446 0.962 . S
H460 C446 0.960 . S
H461 C447 0.961 . S
H462 C447 0.961 . S
H463 C447 0.961 . S
H464 C448 0.931 . S
H465 C453 0.930 . S
H466 C454 0.956 . S
H467 C454 0.961 . S
H468 C454 0.961 . S
H469 C455 0.958 . S
H470 C455 0.961 . S
H471 C455 0.960 . S
C472 C473 1.391 . S
C472 C474 1.394 . S
C472 H488 0.931 . S
C473 C472 1.391 . S
C473 C477 1.376 . S
C474 C472 1.394 . S
C474 C475 1.369 . S
C474 C478 1.531 . S
C475 C474 1.369 . S
C475 C476 1.410 . S
C475 C483 1.503 . S
C476 C475 1.410 . S
C476 C477 1.392 . S
C476 C479 1.511 . S
C477 C473 1.376 . S
C477 C476 1.392 . S
C477 H489 0.929 . S
C478 C474 1.531 . S
C478 H490 0.960 . S
C478 H491 0.962 . S
C478 H492 0.960 . S
C479 C476 1.511 . S
C479 H493 0.961 . S
C479 H494 0.961 . S
C479 H495 0.961 . S
C480 C481 1.370 . S
C480 C482 1.363 . S
C480 H496 0.931 . S
C481 C480 1.370 . S
C481 C485 1.408 . S
C482 C480 1.363 . S
C482 C483 1.370 . S
C482 C486 1.524 . S
C483 C475 1.503 . S
C483 C482 1.370 . S
C483 C484 1.403 . S
C484 C483 1.403 . S
C484 C485 1.404 . S
C484 C487 1.539 . S
C485 C481 1.408 . S
C485 C484 1.404 . S
C485 H497 0.930 . S
C486 C482 1.524 . S
C486 H498 0.956 . S
C486 H499 0.961 . S
C486 H500 0.961 . S
C487 C484 1.539 . S
C487 H501 0.958 . S
C487 H502 0.961 . S
C487 H503 0.960 . S
H488 C472 0.931 . S
H489 C477 0.929 . S
H490 C478 0.960 . S
H491 C478 0.962 . S
H492 C478 0.960 . S
H493 C479 0.961 . S
H494 C479 0.961 . S
H495 C479 0.961 . S
H496 C480 0.931 . S
H497 C485 0.930 . S
H498 C486 0.956 . S
H499 C486 0.961 . S
H500 C486 0.961 . S
H501 C487 0.958 . S
H502 C487 0.961 . S
H503 C487 0.960 . S
C129 C111 1.279 . S
C121 C29 1.407 . S
C153 C8 1.414 . S
C161 C98 1.284 . S
C185 C0 1.493 . S
C193 C115 1.475 . S
C217 C17 1.489 . S
C225 C102 1.463 . S
C249 C63 1.408 . S
C257 C85 1.293 . S
C281 C42 1.416 . S
C289 C72 1.280 . S
C321 C89 1.485 . S
C313 C34 1.495 . S
C353 C76 1.469 . S
C345 C51 1.474 . S
C377 C4 1.514 1_565 S
C385 C77 1.508 . S
C409 C13 1.531 . S
C417 C90 1.523 . S
C449 C103 1.516 . S
C441 C38 1.501 . S
C473 C47 1.530 . S
C481 C116 1.524 . S
