# Generated by pormake.
# Topology pto, (3,4)-cn, num edge types: 1
# Building blocks:
#     Node 0, Type 0, BuildingBlock: QEWDON_clean_linker_0, # of connection points: 3
#     Node 1, Type 0, BuildingBlock: QEWDON_clean_linker_0, # of connection points: 3
#     Node 2, Type 0, BuildingBlock: QEWDON_clean_linker_0, # of connection points: 3
#     Node 3, Type 0, BuildingBlock: QEWDON_clean_linker_0, # of connection points: 3
#     Node 4, Type 0, BuildingBlock: QEWDON_clean_linker_0, # of connection points: 3
#     Node 5, Type 0, BuildingBlock: QEWDON_clean_linker_0, # of connection points: 3
#     Node 6, Type 0, BuildingBlock: QEWDON_clean_linker_0, # of connection points: 3
#     Node 7, Type 0, BuildingBlock: QEWDON_clean_linker_0, # of connection points: 3
#     Node 8, Type 1, BuildingBlock: KOZSID_clean_sbu_0, # of connection points: 4
#     Node 9, Type 1, BuildingBlock: KOZSID_clean_sbu_0, # of connection points: 4
#     Node 10, Type 1, BuildingBlock: KOZSID_clean_sbu_0, # of connection points: 4
#     Node 11, Type 1, BuildingBlock: KOZSID_clean_sbu_0, # of connection points: 4
#     Node 12, Type 1, BuildingBlock: KOZSID_clean_sbu_0, # of connection points: 4
#     Node 13, Type 1, BuildingBlock: KOZSID_clean_sbu_0, # of connection points: 4
#     Edge 14, Type (0, 1), BuildingBlock: EZIPEK_clean_linker_0, # of connection points: 2
#     Edge 15, Type (0, 1), BuildingBlock: EZIPEK_clean_linker_0, # of connection points: 2
#     Edge 16, Type (0, 1), BuildingBlock: EZIPEK_clean_linker_0, # of connection points: 2
#     Edge 17, Type (0, 1), BuildingBlock: EZIPEK_clean_linker_0, # of connection points: 2
#     Edge 18, Type (0, 1), BuildingBlock: EZIPEK_clean_linker_0, # of connection points: 2
#     Edge 19, Type (0, 1), BuildingBlock: EZIPEK_clean_linker_0, # of connection points: 2
#     Edge 20, Type (0, 1), BuildingBlock: EZIPEK_clean_linker_0, # of connection points: 2
#     Edge 21, Type (0, 1), BuildingBlock: EZIPEK_clean_linker_0, # of connection points: 2
#     Edge 22, Type (0, 1), BuildingBlock: EZIPEK_clean_linker_0, # of connection points: 2
#     Edge 23, Type (0, 1), BuildingBlock: EZIPEK_clean_linker_0, # of connection points: 2
#     Edge 24, Type (0, 1), BuildingBlock: EZIPEK_clean_linker_0, # of connection points: 2
#     Edge 25, Type (0, 1), BuildingBlock: EZIPEK_clean_linker_0, # of connection points: 2
#     Edge 26, Type (0, 1), BuildingBlock: EZIPEK_clean_linker_0, # of connection points: 2
#     Edge 27, Type (0, 1), BuildingBlock: EZIPEK_clean_linker_0, # of connection points: 2
#     Edge 28, Type (0, 1), BuildingBlock: EZIPEK_clean_linker_0, # of connection points: 2
#     Edge 29, Type (0, 1), BuildingBlock: EZIPEK_clean_linker_0, # of connection points: 2
#     Edge 30, Type (0, 1), BuildingBlock: EZIPEK_clean_linker_0, # of connection points: 2
#     Edge 31, Type (0, 1), BuildingBlock: EZIPEK_clean_linker_0, # of connection points: 2
#     Edge 32, Type (0, 1), BuildingBlock: EZIPEK_clean_linker_0, # of connection points: 2
#     Edge 33, Type (0, 1), BuildingBlock: EZIPEK_clean_linker_0, # of connection points: 2
#     Edge 34, Type (0, 1), BuildingBlock: EZIPEK_clean_linker_0, # of connection points: 2
#     Edge 35, Type (0, 1), BuildingBlock: EZIPEK_clean_linker_0, # of connection points: 2
#     Edge 36, Type (0, 1), BuildingBlock: EZIPEK_clean_linker_0, # of connection points: 2
#     Edge 37, Type (0, 1), BuildingBlock: EZIPEK_clean_linker_0, # of connection points: 2
# Relax obj value: 0.017
# Max RMSD: 0.202
# Mean RMSD: 0.076
data_MOF--net-pto--node1-KOZSID_clean_sbu_0--node2-QEWDON_clean_linker_0--edge1-EZIPEK_clean_linker_0
_symmetry_space_group_name_H-M    P1
_symmetry_Int_Tables_number       1
_symmetry_cell_setting            triclinic
loop_
_symmetry_equiv_pos_as_xyz
'x, y, z'
_cell_length_a     25.309839
_cell_length_b     39.492474
_cell_length_c     35.811803
_cell_angle_alpha  91.375939
_cell_angle_beta   109.64759
_cell_angle_gamma 105.14907
loop_
_atom_site_label
_atom_site_type_symbol
_atom_site_fract_x
_atom_site_fract_y
_atom_site_fract_z
_atom_type_partial_charge
H0 H 0.2688 0.32072 0.28503 0.0
C1 C 0.25858 0.29581 0.29688 0.0
C2 C 0.26488 0.26553 0.2796 0.0
C3 C 0.24314 0.29443 0.33106 0.0
H4 H 0.26402 0.21115 0.2846 0.0
C5 C 0.25637 0.23399 0.29692 0.0
C6 C 0.23845 0.2319 0.33017 0.0
C7 C 0.23029 0.26208 0.34625 0.0
C8 C 0.2488 0.32734 0.35446 0.0
H9 H 0.21733 0.26092 0.37226 0.0
C10 C 0.21891 0.35173 0.33715 0.0
C11 C 0.22618 0.38302 0.3603 0.0
C12 C 0.28608 0.33467 0.39475 0.0
H13 H 0.30996 0.3164 0.40853 0.0
C14 C 0.2937 0.36588 0.41747 0.0
H15 H 0.18953 0.34618 0.30626 0.0
C16 C 0.2639 0.38995 0.40041 0.0
H17 H 0.26967 0.41388 0.41862 0.0
H18 H 0.32261 0.37135 0.44843 0.0
H19 H 0.27758 0.84371 0.73788 0.0
C20 C 0.25328 0.81598 0.73314 0.0
C21 C 0.2758 0.79284 0.7591 0.0
C22 C 0.19716 0.80385 0.7034 0.0
H23 H 0.25919 0.74001 0.77557 0.0
C24 C 0.2428 0.75749 0.75462 0.0
C25 C 0.18738 0.74504 0.72483 0.0
C26 C 0.16513 0.76805 0.69884 0.0
C27 C 0.16811 0.82905 0.68088 0.0
H28 H 0.1214 0.75852 0.67661 0.0
C29 C 0.19428 0.85271 0.65898 0.0
C30 C 0.16414 0.87525 0.6367 0.0
C31 C 0.11272 0.82912 0.68124 0.0
H32 H 0.09203 0.81155 0.6983 0.0
C33 C 0.08362 0.85198 0.65993 0.0
H34 H 0.23681 0.85287 0.65824 0.0
C35 C 0.10897 0.8748 0.63762 0.0
H36 H 0.08531 0.892 0.62071 0.0
H37 H 0.04104 0.8518 0.66047 0.0
H38 H 0.93646 0.84051 0.44673 0.0
C39 C 0.92521 0.84389 0.41533 0.0
C40 C 0.93758 0.82194 0.38982 0.0
C41 C 0.89268 0.86743 0.39929 0.0
H42 H 0.92799 0.80718 0.32905 0.0
C43 C 0.92025 0.82498 0.34887 0.0
C44 C 0.88708 0.84787 0.33262 0.0
C45 C 0.87406 0.86937 0.35793 0.0
C46 C 0.86832 0.88498 0.42374 0.0
H47 H 0.84632 0.88604 0.34511 0.0
C48 C 0.90431 0.91164 0.45562 0.0
C49 C 0.87878 0.92936 0.47622 0.0
C50 C 0.80726 0.87554 0.41372 0.0
H51 H 0.77888 0.85497 0.3894 0.0
C52 C 0.78224 0.89253 0.43482 0.0
H53 H 0.95138 0.91924 0.46366 0.0
C54 C 0.81773 0.91945 0.46576 0.0
H55 H 0.79757 0.93282 0.48145 0.0
H56 H 0.73517 0.88508 0.42686 0.0
H57 H 0.8371 0.35742 0.95425 0.0
C58 C 0.85378 0.3389 0.94209 0.0
C59 C 0.8805 0.34879 0.91359 0.0
C60 C 0.85077 0.30551 0.95589 0.0
H61 H 0.9219 0.33106 0.87599 0.0
C62 C 0.90147 0.32418 0.89805 0.0
C63 C 0.89167 0.2897 0.90772 0.0
C64 C 0.86795 0.28065 0.93735 0.0
C65 C 0.83096 0.29607 0.98992 0.0
H66 H 0.86152 0.2539 0.94516 0.0
C67 C 0.78138 0.30388 0.99333 0.0
C68 C 0.76094 0.29169 0.02406 0.0
C69 C 0.86139 0.27773 0.01888 0.0
H70 H 0.90045 0.27207 0.01764 0.0
C71 C 0.84182 0.26631 0.04967 0.0
H72 H 0.75739 0.31803 0.97143 0.0
C73 C 0.79157 0.27287 0.05204 0.0
H74 H 0.7765 0.26329 0.07585 0.0
H75 H 0.86541 0.25203 0.07156 0.0
H76 H 0.9752 0.80168 0.84215 0.0
C77 C 0.94344 0.80555 0.85471 0.0
C78 C 0.90739 0.77617 0.86417 0.0
C79 C 0.93881 0.8397 0.86118 0.0
H80 H 0.83927 0.75858 0.88883 0.0
C81 C 0.86642 0.78107 0.88066 0.0
C82 C 0.86193 0.81515 0.88792 0.0
C83 C 0.89735 0.84428 0.87743 0.0
C84 C 0.97983 0.87055 0.8531 0.0
H85 H 0.89463 0.87061 0.88386 0.0
C86 C 0.95965 0.89727 0.83254 0.0
C87 C 0.99929 0.9263 0.82523 0.0
C88 C 0.03999 0.87331 0.8661 0.0
H89 H 0.05685 0.85335 0.88235 0.0
C90 C 0.07921 0.90214 0.85882 0.0
H91 H 0.91343 0.89551 0.82208 0.0
C92 C 0.05905 0.92857 0.83853 0.0
H93 H 0.09002 0.95085 0.83316 0.0
H94 H 0.12541 0.90405 0.86907 0.0
H95 H 0.93406 0.36772 0.45221 0.0
C96 C 0.89059 0.35718 0.42987 0.0
C97 C 0.86453 0.37994 0.40553 0.0
C98 C 0.86367 0.3205 0.42271 0.0
H99 H 0.79166 0.38352 0.35465 0.0
C100 C 0.81047 0.36611 0.37463 0.0
C101 C 0.78276 0.32966 0.36726 0.0
C102 C 0.80897 0.30683 0.39182 0.0
C103 C 0.89872 0.29679 0.44179 0.0
H104 H 0.78919 0.27849 0.3849 0.0
C105 C 0.88554 0.2756 0.47037 0.0
C106 C 0.92281 0.25535 0.48984 0.0
C107 C 0.94808 0.29673 0.4321 0.0
H108 H 0.95886 0.31284 0.41014 0.0
C109 C 0.9841 0.27613 0.45071 0.0
H110 H 0.84785 0.27568 0.4783 0.0
C111 C 0.97181 0.25569 0.47957 0.0
H112 H 1.00083 0.24029 0.49421 0.0
H113 H 0.02206 0.27631 0.44305 0.0
H114 H 0.24324 0.25766 0.75633 0.0
C115 C 0.2162 0.27547 0.7526 0.0
C116 C 0.20569 0.28807 0.78576 0.0
C117 C 0.19557 0.28798 0.7155 0.0
H118 H 0.16681 0.32309 0.80729 0.0
C119 C 0.17328 0.31252 0.78144 0.0
C120 C 0.15232 0.32514 0.74468 0.0
C121 C 0.16278 0.31241 0.71167 0.0
C122 C 0.21489 0.27969 0.6824 0.0
H123 H 0.14778 0.32284 0.6835 0.0
C124 C 0.20495 0.24461 0.66634 0.0
C125 C 0.22377 0.23799 0.63472 0.0
C126 C 0.24445 0.30777 0.66685 0.0
H127 H 0.25309 0.33491 0.67889 0.0
C128 C 0.26399 0.30121 0.63613 0.0
H129 H 0.18226 0.2226 0.67782 0.0
C130 C 0.25373 0.2666 0.62011 0.0
H131 H 0.26863 0.26208 0.59589 0.0
H132 H 0.28695 0.32306 0.62454 0.0
H133 H 0.26234 0.86613 0.19627 0.0
C134 C 0.2549 0.8432 0.21188 0.0
C135 C 0.25044 0.847 0.24979 0.0
C136 C 0.24535 0.80929 0.19311 0.0
H137 H 0.23599 0.82034 0.29873 0.0
C138 C 0.23987 0.81732 0.26964 0.0
C139 C 0.22931 0.78348 0.25104 0.0
C140 C 0.23198 0.77952 0.21275 0.0
C141 C 0.24404 0.80402 0.15171 0.0
H142 H 0.22258 0.75322 0.19795 0.0
C143 C 0.29489 0.81678 0.14234 0.0
C144 C 0.29506 0.80684 0.10425 0.0
C145 C 0.19249 0.78324 0.12202 0.0
H146 H 0.15288 0.77323 0.12862 0.0
C147 C 0.19187 0.77465 0.08384 0.0
H148 H 0.33506 0.83242 0.16526 0.0
C149 C 0.24296 0.78589 0.07511 0.0
H150 H 0.24215 0.77776 0.04576 0.0
H151 H 0.15201 0.75842 0.06123 0.0
C152 C 0.16871 0.65541 0.36521 0.0
C153 C 0.22146 0.6764 0.39235 0.0
C154 C 0.2272 0.66406 0.42841 0.0
C155 C 0.17762 0.63653 0.42131 0.0
N156 N 0.14103 0.63018 0.38275 0.0
Co157 Co 0.06108 0.59553 0.36049 0.0
N158 N 0.06977 0.57639 0.41303 0.0
C159 C 0.11712 0.58664 0.44711 0.0
C160 C 0.1137 0.56557 0.4766 0.0
C161 C 0.06158 0.53985 0.46009 0.0
C162 C 0.03585 0.54699 0.42151 0.0
N163 N 0.9798 0.56243 0.33884 0.0
C164 C 0.95126 0.53786 0.35652 0.0
C165 C 0.89399 0.52165 0.33163 0.0
C166 C 0.88653 0.53592 0.29653 0.0
C167 C 0.93935 0.56004 0.30212 0.0
N168 N 0.05316 0.61245 0.30716 0.0
C169 C 0.00714 0.60041 0.27256 0.0
C170 C 0.01562 0.6157 0.24031 0.0
C171 C 0.07022 0.63907 0.25526 0.0
C172 C 0.09166 0.63685 0.296 0.0
N173 N 0.09391 0.55896 0.34604 0.0
C174 C 0.1331 0.501 0.33386 0.0
C175 C 0.08227 0.50553 0.30598 0.0
C176 C 0.06399 0.53508 0.31229 0.0
C177 C 0.16684 0.52743 0.36557 0.0
C178 C 0.14657 0.55598 0.3711 0.0
N179 N 0.02945 0.63287 0.37534 0.0
C180 C 0.977 0.67643 0.35531 0.0
C181 C 0.00177 0.69405 0.39405 0.0
C182 C 0.0371 0.67938 0.4239 0.0
C183 C 0.04992 0.64879 0.414 0.0
C184 C 0.99095 0.64589 0.3467 0.0
H185 H 0.07764 0.63916 0.4381 0.0
H186 H 0.97137 0.6339 0.31643 0.0
H187 H 0.02357 0.5368 0.2911 0.0
H188 H 0.17319 0.5745 0.39684 0.0
C189 C 0.16511 0.61521 0.44969 0.0
C190 C 0.14607 0.66091 0.32331 0.0
C191 C 0.97932 0.52503 0.39378 0.0
C192 C 0.95477 0.57717 0.2721 0.0
H193 H 0.2524 0.69843 0.38667 0.0
H194 H 0.26315 0.67403 0.45647 0.0
H195 H 0.14603 0.56799 0.50617 0.0
H196 H 0.04471 0.51809 0.47461 0.0
H197 H 0.86217 0.50028 0.33749 0.0
H198 H 0.84825 0.52821 0.26945 0.0
H199 H 0.98505 0.61122 0.20985 0.0
H200 H 0.09111 0.65668 0.23838 0.0
H201 H 0.05535 0.48554 0.28078 0.0
H202 H 0.20694 0.5249 0.38742 0.0
H203 H 0.94813 0.6867 0.33159 0.0
H204 H 0.05573 0.69192 0.45451 0.0
C205 C 0.10794 0.59699 0.78575 0.0
C206 C 0.16669 0.61511 0.80474 0.0
C207 C 0.18356 0.60427 0.8417 0.0
C208 C 0.13439 0.58021 0.84303 0.0
N209 N 0.08737 0.57447 0.80893 0.0
Co210 Co 0.00656 0.54242 0.79832 0.0
N211 N 0.02934 0.52954 0.85425 0.0
C212 C 0.08206 0.54244 0.88391 0.0
C213 C 0.08707 0.52598 0.91758 0.0
C214 C 0.03478 0.5009 0.90895 0.0
C215 C 0.99994 0.50386 0.87047 0.0
N216 N 0.9261 0.50998 0.78742 0.0
C217 C 0.90441 0.48951 0.81172 0.0
C218 C 0.84514 0.47237 0.79298 0.0
C219 C 0.82952 0.48112 0.75495 0.0
C220 C 0.87974 0.50331 0.75276 0.0
N221 N 0.98367 0.55594 0.74265 0.0
C222 C 0.93087 0.5438 0.71304 0.0
C223 C 0.92713 0.55988 0.67908 0.0
C224 C 0.98038 0.58426 0.68776 0.0
C225 C 0.01356 0.58149 0.72657 0.0
N226 N 0.03014 0.50208 0.78088 0.0
C227 C 0.06108 0.44268 0.75958 0.0
C228 C 0.01102 0.4505 0.73479 0.0
C229 C 0.99637 0.48012 0.74599 0.0
C230 C 0.09588 0.4653 0.79461 0.0
C231 C 0.07995 0.49461 0.8045 0.0
N232 N 0.98275 0.58256 0.81579 0.0
C233 C 0.91136 0.61524 0.80604 0.0
C234 C 0.95187 0.64269 0.83481 0.0
C235 C 0.0071 0.63869 0.85559 0.0
C236 C 0.02109 0.60827 0.84625 0.0
C237 C 0.92793 0.58609 0.79649 0.0
H238 H 0.06375 0.60667 0.86325 0.0
H239 H 0.89586 0.56727 0.77266 0.0
H240 H 0.95734 0.48454 0.72615 0.0
H241 H 0.10852 0.51062 0.83167 0.0
C242 C 0.12911 0.56549 0.87706 0.0
C243 C 0.07215 0.60496 0.74768 0.0
C244 C 0.93987 0.48128 0.85005 0.0
C245 C 0.88432 0.51949 0.71923 0.0
H246 H 0.19374 0.63523 0.79365 0.0
H247 H 0.22581 0.61402 0.86542 0.0
H248 H 0.12551 0.53018 0.94431 0.0
H249 H 0.02491 0.48198 0.92866 0.0
H250 H 0.81684 0.45414 0.80505 0.0
H251 H 0.78684 0.47208 0.73156 0.0
H252 H 0.88944 0.55538 0.65181 0.0
H253 H 0.99301 0.60264 0.66824 0.0
H254 H 0.98319 0.4337 0.70711 0.0
H255 H 0.13537 0.46029 0.81442 0.0
H256 H 0.8678 0.61708 0.78964 0.0
H257 H 0.0396 0.6592 0.87855 0.0
C258 C 0.2686 0.9871 0.52044 0.0
C259 C 0.32161 0.98176 0.54301 0.0
C260 C 0.36265 1.0009 0.52865 0.0
C261 C 0.33247 0.01681 0.49827 0.0
N262 N 0.27517 0.00907 0.49284 0.0
Co263 Co 0.21576 0.02599 0.45199 0.0
N264 N 0.27708 0.0647 0.44353 0.0
C265 C 0.33389 0.066 0.45333 0.0
C266 C 0.36543 0.09474 0.44151 0.0
C267 C 0.32588 0.11245 0.4228 0.0
C268 C 0.27224 0.09351 0.42446 0.0
N269 N 0.1562 0.0431 0.4115 0.0
C270 C 0.16118 0.07508 0.39792 0.0
C271 C 0.1073 0.07705 0.37215 0.0
C272 C 0.068 0.04468 0.36834 0.0
C273 C 0.09961 0.02498 0.39241 0.0
N274 N 0.15462 0.98661 0.45968 0.0
C275 C 0.09922 0.97341 0.43398 0.0
C276 C 0.0675 0.94522 0.44645 0.0
C277 C 0.10526 0.94043 0.48231 0.0
C278 C 0.15831 0.96591 0.48948 0.0
N279 N 0.21187 0.05707 0.49383 0.0
C280 C 0.20593 0.10872 0.54599 0.0
C281 C 0.15504 0.08314 0.52164 0.0
C282 C 0.15891 0.05779 0.49545 0.0
C283 C 0.26003 0.10646 0.54563 0.0
C284 C 0.26209 0.08019 0.51975 0.0
N285 N 0.21998 0.99537 0.40988 0.0
C286 C 0.22787 0.98755 0.34523 0.0
C287 C 0.2325 0.95351 0.35126 0.0
C288 C 0.22992 0.94047 0.38675 0.0
C289 C 0.22346 0.9618 0.41565 0.0
C290 C 0.22155 0.00801 0.37488 0.0
H291 H 0.2218 0.95124 0.4428 0.0
H292 H 0.21861 0.03425 0.36959 0.0
H293 H 0.11886 0.03962 0.4755 0.0
H294 H 0.3043 0.07945 0.51966 0.0
C295 C 0.35721 0.0426 0.47809 0.0
C296 C 0.2122 0.96821 0.52324 0.0
C297 C 0.21708 0.10217 0.40503 0.0
C298 C 0.07605 0.99198 0.40276 0.0
H299 H 0.32949 0.96524 0.5668 0.0
H300 H 0.40913 0.00357 0.53972 0.0
H301 H 0.41184 0.10238 0.44664 0.0
H302 H 0.33536 0.13629 0.40903 0.0
H303 H 0.09752 0.09924 0.35698 0.0
H304 H 0.02152 0.0369 0.35118 0.0
H305 H 0.02188 0.93067 0.43184 0.0
H306 H 0.09496 0.9203 0.50079 0.0
H307 H 0.11247 0.08387 0.52147 0.0
H308 H 0.30035 0.12554 0.5644 0.0
H309 H 0.2293 0.99821 0.31788 0.0
H310 H 0.23288 0.91402 0.39204 0.0
C311 C 0.5421 0.86058 0.05969 0.0
C312 C 0.53962 0.89276 0.07436 0.0
C313 C 0.58918 0.91767 0.07495 0.0
C314 C 0.6192 0.89941 0.06078 0.0
N315 N 0.59136 0.8646 0.05082 0.0
Co316 Co 0.62219 0.82868 0.03188 0.0
N317 N 0.68132 0.86551 0.01866 0.0
C318 C 0.69927 0.90022 0.032 0.0
C319 C 0.74104 0.91929 0.01814 0.0
C320 C 0.75023 0.895 0.99482 0.0
C321 C 0.71348 0.86239 0.99585 0.0
N322 N 0.65319 0.79281 0.0132 0.0
C323 C 0.68767 0.79582 0.99086 0.0
C324 C 0.69958 0.76413 0.98502 0.0
C325 C 0.67188 0.74059 0.00469 0.0
C326 C 0.6447 0.75913 0.02135 0.0
N327 N 0.56325 0.79168 0.04525 0.0
C328 C 0.56337 0.7578 0.04876 0.0
C329 C 0.516 0.73789 0.05663 0.0
C330 C 0.48443 0.76071 0.05878 0.0
C331 C 0.5149 0.79359 0.05269 0.0
N332 N 0.56581 0.82529 0.97788 0.0
C333 C 0.47935 0.82047 0.90316 0.0
C334 C 0.49012 0.78997 0.91914 0.0
C335 C 0.53359 0.79294 0.95655 0.0
C336 C 0.51376 0.85347 0.92452 0.0
C337 C 0.55692 0.85531 0.96179 0.0
N338 N 0.67854 0.83228 0.08606 0.0
C339 C 0.69959 0.83766 0.15694 0.0
C340 C 0.75757 0.83846 0.16397 0.0
C341 C 0.77567 0.83608 0.13139 0.0
C342 C 0.73537 0.83318 0.09259 0.0
C343 C 0.66095 0.83442 0.11791 0.0
H344 H 0.74999 0.83154 0.06792 0.0
H345 H 0.61679 0.83371 0.11352 0.0
H346 H 0.5402 0.76902 0.96857 0.0
H347 H 0.58223 0.88103 0.97796 0.0
C348 C 0.6699 0.91436 0.05236 0.0
C349 C 0.50015 0.8265 0.05865 0.0
C350 C 0.71381 0.82879 0.97766 0.0
C351 C 0.60345 0.74449 0.0387 0.0
H352 H 0.50616 0.89762 0.08443 0.0
H353 H 0.60142 0.94579 0.08413 0.0
H354 H 0.76114 0.94758 0.02335 0.0
H355 H 0.78094 0.90055 0.97924 0.0
H356 H 0.72596 0.7587 0.96858 0.0
H357 H 0.67007 0.71294 0.0055 0.0
H358 H 0.50475 0.70988 0.05924 0.0
H359 H 0.44411 0.75392 0.06486 0.0
H360 H 0.46404 0.76403 0.9033 0.0
H361 H 0.50632 0.87755 0.9129 0.0
H362 H 0.68409 0.83914 0.18153 0.0
H363 H 0.82027 0.83629 0.13591 0.0
C364 C 1.00143 0.07661 0.75274 0.0
C365 C 0.05705 0.07915 0.7796 0.0
C366 C 0.09115 0.11278 0.78072 0.0
C367 C 0.05468 0.12877 0.75445 0.0
N368 N 1.00004 0.10718 0.73671 0.0
Co369 Co 0.93387 0.11954 0.69704 0.0
N370 N 0.98747 0.16007 0.68448 0.0
C371 C 0.04283 0.17668 0.70825 0.0
C372 C 0.06831 0.20515 0.69283 0.0
C373 C 0.02662 0.20644 0.65703 0.0
C374 C 0.9773 0.17878 0.65293 0.0
N375 N 0.86759 0.13196 0.65741 0.0
C376 C 0.86746 0.15269 0.62786 0.0
C377 C 0.81152 0.15504 0.60736 0.0
C378 C 0.77557 0.13517 0.62506 0.0
C379 C 0.81147 0.12188 0.65526 0.0
N380 N 0.88006 0.07931 0.71007 0.0
C381 C 0.82272 0.07478 0.70269 0.0
C382 C 0.7971 0.04469 0.71589 0.0
C383 C 0.84123 0.02955 0.73285 0.0
C384 C 0.8914 0.05137 0.72899 0.0
N385 N 0.93033 0.15058 0.73894 0.0
C386 C 0.92402 0.19431 0.79855 0.0
C387 C 0.93213 0.16115 0.80586 0.0
C388 C 0.93507 0.13966 0.77559 0.0
C389 C 0.91991 0.20555 0.76127 0.0
C390 C 0.92328 0.18329 0.73185 0.0
N391 N 0.93781 0.08848 0.6554 0.0
C392 C 0.88991 0.0407 0.60186 0.0
C393 C 0.94366 0.04118 0.59871 0.0
C394 C 0.99443 0.06627 0.62376 0.0
C395 C 0.99057 0.08964 0.65207 0.0
C396 C 0.88786 0.06464 0.63025 0.0
H397 H 0.03032 0.10839 0.6716 0.0
H398 H 0.84591 0.06359 0.63221 0.0
H399 H 0.94065 0.11405 0.78174 0.0
H400 H 0.91967 0.19245 0.70328 0.0
C401 C 0.07179 0.16151 0.74111 0.0
C402 C 0.94976 0.04635 0.74619 0.0
C403 C 0.9201 0.17296 0.62097 0.0
C404 C 0.79317 0.09598 0.67792 0.0
H405 H 0.07122 0.05906 0.79706 0.0
H406 H 0.13737 0.12382 0.79774 0.0
H407 H 0.1123 0.22238 0.70578 0.0
H408 H 0.03168 0.22594 0.63683 0.0
H409 H 0.79831 0.16997 0.58265 0.0
H410 H 0.72865 0.13022 0.61619 0.0
H411 H 0.75146 0.03433 0.71243 0.0
H412 H 0.83713 0.00545 0.74678 0.0
H413 H 0.93509 0.15175 0.83445 0.0
H414 H 0.9134 0.23114 0.75482 0.0
H415 H 0.84978 0.02177 0.58258 0.0
H416 H 0.03662 0.06743 0.62176 0.0
C417 C 0.36577 0.30767 0.13275 0.0
C418 C 0.35523 0.33816 0.14469 0.0
C419 C 0.38444 0.36508 0.12941 0.0
C420 C 0.41129 0.34953 0.10935 0.0
N421 N 0.39981 0.31416 0.11001 0.0
Co422 Co 0.43559 0.2817 0.08926 0.0
N423 N 0.48732 0.32209 0.07375 0.0
C424 C 0.48566 0.35605 0.0745 0.0
C425 C 0.5252 0.37756 0.06064 0.0
C426 C 0.55392 0.35608 0.05053 0.0
C427 C 0.53029 0.32262 0.05904 0.0
N428 N 0.47328 0.24936 0.07051 0.0
C429 C 0.52014 0.2571 0.05866 0.0
C430 C 0.53504 0.22686 0.05109 0.0
C431 C 0.49593 0.19905 0.05812 0.0
C432 C 0.45989 0.21381 0.06992 0.0
N433 N 0.38246 0.2413 0.10371 0.0
C434 C 0.37557 0.20648 0.09574 0.0
C435 C 0.33655 0.18513 0.11018 0.0
C436 C 0.31821 0.20772 0.12905 0.0
C437 C 0.34734 0.24162 0.12503 0.0
N438 N 0.37561 0.27546 0.03422 0.0
C439 C 0.30995 0.27139 0.95221 0.0
C440 C 0.3259 0.24218 0.96811 0.0
C441 C 0.35782 0.24463 0.00898 0.0
C442 C 0.32321 0.3017 0.97825 0.0
C443 C 0.35524 0.30303 0.01885 0.0
N444 N 0.49586 0.28799 0.14331 0.0
C445 C 0.55277 0.26341 0.1987 0.0
C446 C 0.58494 0.29722 0.21848 0.0
C447 C 0.57145 0.32632 0.20048 0.0
C448 C 0.52698 0.32116 0.16309 0.0
C449 C 0.5086 0.25939 0.16131 0.0
H450 H 0.51879 0.34432 0.15042 0.0
H451 H 0.48514 0.23296 0.14741 0.0
H452 H 0.36884 0.22143 0.01896 0.0
H453 H 0.3642 0.3271 0.03674 0.0
C454 C 0.4505 0.36754 0.09184 0.0
C455 C 0.34444 0.27333 0.14492 0.0
C456 C 0.55163 0.29252 0.05411 0.0
C457 C 0.41338 0.19515 0.08093 0.0
H458 H 0.33013 0.34077 0.16325 0.0
H459 H 0.38753 0.39285 0.13369 0.0
H460 H 0.53331 0.4057 0.05911 0.0
H461 H 0.58904 0.3642 0.03892 0.0
H462 H 0.57061 0.225 0.0416 0.0
H463 H 0.49438 0.17142 0.0554 0.0
H464 H 0.32551 0.15665 0.10927 0.0
H465 H 0.28878 0.20026 0.14541 0.0
H466 H 0.31548 0.21796 0.94886 0.0
H467 H 0.31061 0.32474 0.96703 0.0
H468 H 0.56211 0.24026 0.21189 0.0
H469 H 0.59571 0.35293 0.21501 0.0
C470 C 0.20945 0.43325 0.32001 0.0
C471 C 0.19198 0.40811 0.34438 0.0
C472 C 0.13128 0.44198 0.35825 0.0
C473 C 0.14791 0.46708 0.33353 0.0
N474 N 0.19261 0.48331 0.2844 0.0
N475 N 0.12337 0.38261 0.37612 0.0
C476 C 0.18333 0.46144 0.31196 0.0
C477 C 0.14822 0.41047 0.35974 0.0
N478 N 0.25314 0.43129 0.30647 0.0
N479 N 0.10261 0.4492 0.38232 0.0
H480 H 0.13503 0.35906 0.37747 0.0
H481 H 0.08734 0.38149 0.38447 0.0
H482 H 0.09109 0.47257 0.38332 0.0
H483 H 0.09494 0.43351 0.40399 0.0
H484 H 0.27266 0.45103 0.29255 0.0
H485 H 0.27229 0.41063 0.31116 0.0
H486 H 0.21351 0.47873 0.26505 0.0
H487 H 0.1752 0.50466 0.27872 0.0
C488 C 0.11007 0.70459 0.74496 0.0
C489 C 0.15017 0.70893 0.72446 0.0
C490 C 0.12682 0.64444 0.71028 0.0
C491 C 0.0922 0.64032 0.73474 0.0
N492 N 0.05074 0.66549 0.77594 0.0
N493 N 0.19779 0.6841 0.68749 0.0
C494 C 0.0831 0.67015 0.75171 0.0
C495 C 0.15838 0.6791 0.70667 0.0
N496 N 0.09775 0.73347 0.75798 0.0
N497 N 0.12937 0.6151 0.69071 0.0
H498 H 0.21954 0.70909 0.68289 0.0
H499 H 0.21096 0.66389 0.6775 0.0
H500 H 0.1073 0.5895 0.69341 0.0
H501 H 0.14968 0.61586 0.66974 0.0
H502 H 0.06391 0.73187 0.76879 0.0
H503 H 0.11883 0.75937 0.75566 0.0
H504 H 0.05019 0.68585 0.79468 0.0
H505 H 0.02599 0.64069 0.77851 0.0
C506 C 0.01755 0.79268 0.40808 0.0
C507 C 0.95919 0.79123 0.40337 0.0
C508 C 0.9358 0.72718 0.40568 0.0
C509 C 0.99055 0.7279 0.40287 0.0
N510 N 0.08464 0.76083 0.40156 0.0
N511 N 0.86154 0.75748 0.39717 0.0
C512 C 0.03228 0.7606 0.40485 0.0
C513 C 0.91822 0.75865 0.40284 0.0
N514 N 0.05846 0.82483 0.41538 0.0
N515 N 0.90081 0.69635 0.41112 0.0
H516 H 0.84728 0.78003 0.39634 0.0
H517 H 0.82782 0.73408 0.39113 0.0
H518 H 0.91256 0.67284 0.41309 0.0
H519 H 0.8629 0.69472 0.41728 0.0
H520 H 0.10302 0.82801 0.4225 0.0
H521 H 0.04821 0.84854 0.41787 0.0
H522 H 0.11404 0.78334 0.39803 0.0
H523 H 0.09749 0.73795 0.40011 0.0
C524 C 0.87183 0.38405 0.85563 0.0
C525 C 0.88473 0.38368 0.89738 0.0
C526 C 0.91317 0.44835 0.90427 0.0
C527 C 0.91695 0.44769 0.86563 0.0
N528 N 0.90862 0.41187 0.80683 0.0
N529 N 0.92897 0.41817 0.96297 0.0
C530 C 0.89852 0.41465 0.84174 0.0
C531 C 0.90774 0.41659 0.92235 0.0
N532 N 0.83423 0.35532 0.8293 0.0
N533 N 0.91581 0.47911 0.92391 0.0
H534 H 0.93191 0.39602 0.97782 0.0
H535 H 0.9501 0.44206 0.98162 0.0
H536 H 0.91899 0.50265 0.91104 0.0
H537 H 0.90933 0.4801 0.95114 0.0
H538 H 0.82116 0.35553 0.79842 0.0
H539 H 0.81123 0.33313 0.83846 0.0
H540 H 0.8987 0.38755 0.79017 0.0
H541 H 0.93241 0.43312 0.79691 0.0
C542 C 0.19628 0.16581 0.32607 0.0
C543 C 0.23114 0.19866 0.34947 0.0
C544 C 0.24612 0.16855 0.40969 0.0
C545 C 0.21906 0.1354 0.38561 0.0
N546 N 0.18401 0.10307 0.3196 0.0
N547 N 0.30339 0.22864 0.41312 0.0
C548 C 0.19877 0.13412 0.34336 0.0
C549 C 0.25997 0.19943 0.3913 0.0
N550 N 0.1592 0.16469 0.28789 0.0
N551 N 0.25909 0.17058 0.45006 0.0
H552 H 0.31898 0.2507 0.40031 0.0
H553 H 0.32872 0.22916 0.44299 0.0
H554 H 0.24945 0.14841 0.46453 0.0
H555 H 0.2742 0.19458 0.46838 0.0
H556 H 0.12968 0.14124 0.27107 0.0
H557 H 0.15314 0.18737 0.27485 0.0
H558 H 0.1739 0.10175 0.28877 0.0
H559 H 0.18772 0.07943 0.33102 0.0
C560 C 0.38454 0.80356 0.79253 0.0
C561 C 0.33055 0.80589 0.79456 0.0
C562 C 0.3748 0.81929 0.8675 0.0
C563 C 0.42915 0.81761 0.8655 0.0
N564 N 0.48938 0.8145 0.8266 0.0
N565 N 0.27633 0.82261 0.83218 0.0
C566 C 0.43515 0.81177 0.82807 0.0
C567 C 0.3265 0.81605 0.83154 0.0
N568 N 0.38677 0.79231 0.75684 0.0
N569 N 0.36861 0.82229 0.90384 0.0
H570 H 0.23959 0.81975 0.80651 0.0
H571 H 0.2726 0.83369 0.85751 0.0
H572 H 0.40307 0.82507 0.93085 0.0
H573 H 0.32859 0.81946 0.9074 0.0
H574 H 0.42271 0.78599 0.7539 0.0
H575 H 0.3511 0.78753 0.73008 0.0
H576 H 0.49795 0.81394 0.80017 0.0
H577 H 0.52706 0.82001 0.85216 0.0
C578 C 0.92036 0.99427 0.49822 0.0
C579 C 0.91435 0.9593 0.5082 0.0
C580 C 0.95093 0.98164 0.57934 0.0
C581 C 0.94535 0.01522 0.5687 0.0
N582 N 0.93014 0.05528 0.5192 0.0
N583 N 0.92722 0.91899 0.55758 0.0
C584 C 0.93273 0.02224 0.52847 0.0
C585 C 0.93181 0.95287 0.54871 0.0
N586 N 0.91361 1.00041 0.45972 0.0
N587 N 0.97428 0.97747 0.61871 0.0
H588 H 0.91585 0.89771 0.53579 0.0
H589 H 0.93246 0.91168 0.58603 0.0
H590 H 0.98885 0.9983 0.64155 0.0
H591 H 0.98399 0.9545 0.62865 0.0
H592 H 0.9218 0.0255 0.45071 0.0
H593 H 0.90441 0.98021 0.43716 0.0
H594 H 0.91452 0.06146 0.49018 0.0
H595 H 0.94207 0.07661 0.54103 0.0
C596 C 0.71212 0.31678 0.06361 0.0
C597 C 0.70729 0.29795 0.02778 0.0
C598 C 0.60056 0.28519 0.00511 0.0
C599 C 0.60551 0.29771 0.0439 0.0
N600 N 0.66611 0.32301 0.11171 0.0
N601 N 0.64574 0.26044 0.96582 0.0
C602 C 0.66136 0.31319 0.07358 0.0
C603 C 0.6512 0.28153 0.99851 0.0
N604 N 0.76523 0.33832 0.08786 0.0
N605 N 0.54739 0.27651 0.97477 0.0
H606 H 0.68136 0.25605 0.96022 0.0
H607 H 0.60553 0.2448 0.94601 0.0
H608 H 0.50945 0.27877 0.97884 0.0
H609 H 0.5421 0.27033 0.94504 0.0
H610 H 0.77054 0.3551 0.11257 0.0
H611 H 0.80301 0.34208 0.08081 0.0
H612 H 0.70591 0.33074 0.13554 0.0
H613 H 0.62993 0.32082 0.12026 0.0
C614 C 0.186 0.88481 0.57351 0.0
C615 C 0.18826 0.89897 0.61102 0.0
C616 C 0.21214 0.95909 0.59261 0.0
C617 C 0.21009 0.94487 0.55527 0.0
N618 N 0.21056 0.89578 0.51419 0.0
N619 N 0.21684 0.94926 0.66021 0.0
C620 C 0.20237 0.9082 0.54717 0.0
C621 C 0.2058 0.93611 0.62183 0.0
N622 N 0.16485 0.84915 0.56199 0.0
N623 N 0.21794 0.99431 0.59951 0.0
H624 H 0.21298 0.93296 0.68224 0.0
H625 H 0.23477 0.97599 0.67112 0.0
H626 H 0.22435 0.01204 0.57921 0.0
H627 H 0.21295 0.00567 0.62419 0.0
H628 H 0.15524 0.83767 0.53312 0.0
H629 H 0.15274 0.831 0.58041 0.0
H630 H 0.21121 0.86991 0.50869 0.0
H631 H 0.22201 0.91219 0.49409 0.0
C632 C 0.81181 0.81395 0.2684 0.0
C633 C 0.85772 0.8449 0.28863 0.0
C634 C 0.84083 0.8716 0.22609 0.0
C635 C 0.79735 0.83979 0.20566 0.0
N636 N 0.75201 0.77792 0.20517 0.0
N637 N 0.92372 0.90039 0.28594 0.0
C638 C 0.78638 0.81004 0.22618 0.0
C639 C 0.87473 0.87291 0.26719 0.0
N640 N 0.79024 0.78909 0.28958 0.0
N641 N 0.84796 0.90094 0.20677 0.0
H642 H 0.94924 0.90215 0.31605 0.0
H643 H 0.94177 0.91981 0.271 0.0
H644 H 0.82444 0.90086 0.17661 0.0
H645 H 0.8742 0.92593 0.22122 0.0
H646 H 0.75272 0.76797 0.27651 0.0
H647 H 0.80616 0.79128 0.3207 0.0
H648 H 0.7472 0.75453 0.21819 0.0
H649 H 0.73304 0.77407 0.17405 0.0
C650 C 0.85064 0.24041 0.85161 0.0
C651 C 0.90001 0.26235 0.88298 0.0
C652 C 0.96578 0.23958 0.85917 0.0
C653 C 0.91622 0.21651 0.82905 0.0
N654 N 0.81183 0.18957 0.80109 0.0
N655 N 0.00332 0.27903 0.92118 0.0
C656 C 0.85871 0.21521 0.82675 0.0
C657 C 0.95732 0.26072 0.88819 0.0
N658 N 0.79637 0.24488 0.84425 0.0
N659 N 0.02068 0.24208 0.85917 0.0
H660 H 0.99828 0.29479 0.94283 0.0
H661 H 0.04543 0.27643 0.92883 0.0
H662 H 0.02839 0.22641 0.83884 0.0
H663 H 0.05821 0.26117 0.87745 0.0
H664 H 0.76017 0.23277 0.81888 0.0
H665 H 0.78813 0.26286 0.86181 0.0
H666 H 0.76946 0.18478 0.80125 0.0
H667 H 0.81589 0.17101 0.78179 0.0
C668 C 0.24399 0.26554 0.20578 0.0
C669 C 0.28475 0.26749 0.24493 0.0
C670 C 0.36244 0.26964 0.21798 0.0
C671 C 0.32319 0.27086 0.17929 0.0
N672 N 0.22792 0.27255 0.13592 0.0
N673 N 0.38428 0.27654 0.28942 0.0
C674 C 0.26423 0.26955 0.17306 0.0
C675 C 0.34437 0.27083 0.25133 0.0
N676 N 0.18575 0.25876 0.19987 0.0
N677 N 0.4167 0.26643 0.22279 0.0
H678 H 0.37281 0.2774 0.31474 0.0
H679 H 0.42935 0.28329 0.29602 0.0
H680 H 0.4331 0.26763 0.19967 0.0
H681 H 0.44337 0.25964 0.2489 0.0
H682 H 0.15287 0.25329 0.1718 0.0
H683 H 0.16961 0.2561 0.22322 0.0
H684 H 0.18652 0.2758 0.13011 0.0
H685 H 0.24064 0.27396 0.11101 0.0
C686 C 0.90222 0.72633 0.81706 0.0
C687 C 0.91366 0.74037 0.85672 0.0
C688 C 0.9397 0.68719 0.88087 0.0
C689 C 0.93702 0.67588 0.84214 0.0
N690 N 0.92573 0.68885 0.77457 0.0
N691 N 0.9531 0.73679 0.92754 0.0
C692 C 0.92082 0.69652 0.81046 0.0
C693 C 0.93494 0.72149 0.88902 0.0
N694 N 0.87237 0.74103 0.78555 0.0
N695 N 0.94486 0.66481 0.90955 0.0
H696 H 0.95154 0.76212 0.93492 0.0
H697 H 0.97474 0.72564 0.95205 0.0
H698 H 0.94646 0.63906 0.90435 0.0
H699 H 0.94136 0.67049 0.93704 0.0
H700 H 0.85776 0.72971 0.75597 0.0
H701 H 0.85685 0.76244 0.78918 0.0
H702 H 0.92091 0.70552 0.75229 0.0
H703 H 0.94012 0.66775 0.76827 0.0
C704 C 0.8915 0.4452 0.42816 0.0
C705 C 0.8986 0.41705 0.40671 0.0
C706 C 0.95758 0.45922 0.37715 0.0
C707 C 0.95369 0.48771 0.40014 0.0
N708 N 0.91963 0.50845 0.44909 0.0
N709 N 0.94631 0.3967 0.3663 0.0
C710 C 0.92167 0.48084 0.42637 0.0
C711 C 0.93422 0.42394 0.38303 0.0
N712 N 0.8545 0.43773 0.44916 0.0
N713 N 0.98107 0.46579 0.34802 0.0
H714 H 0.92823 0.37017 0.36828 0.0
H715 H 0.97795 0.40043 0.35306 0.0
H716 H 0.00215 0.49107 0.34446 0.0
H717 H 0.97708 0.44644 0.32615 0.0
H718 H 0.8422 0.45672 0.46223 0.0
H719 H 0.83358 0.41192 0.45202 0.0
H720 H 0.90217 0.50551 0.47169 0.0
H721 H 0.93834 0.53481 0.44675 0.0
C722 C 0.15593 0.38928 0.73997 0.0
C723 C 0.12448 0.35437 0.74235 0.0
C724 C 0.04827 0.37678 0.75317 0.0
C725 C 0.07866 0.41147 0.74921 0.0
N726 N 0.15295 0.44918 0.7288 0.0
N727 N 0.03499 0.31368 0.74219 0.0
C728 C 0.12977 0.41715 0.73929 0.0
C729 C 0.06867 0.34775 0.74601 0.0
N730 N 0.21213 0.3963 0.74067 0.0
N731 N 0.00174 0.37176 0.76572 0.0
H732 H 0.04869 0.29191 0.73679 0.0
H733 H 0.99166 0.30702 0.74073 0.0
H734 H 0.98545 0.39229 0.7711 0.0
H735 H 0.98203 0.34781 0.77362 0.0
H736 H 0.23939 0.42181 0.74367 0.0
H737 H 0.23354 0.3769 0.74174 0.0
H738 H 0.18668 0.45387 0.71741 0.0
H739 H 0.13457 0.47008 0.72774 0.0
C740 C 0.24456 0.72874 0.28284 0.0
C741 C 0.20965 0.75217 0.27047 0.0
C742 C 0.14208 0.72018 0.30164 0.0
C743 C 0.17238 0.69414 0.30912 0.0
N744 N 0.24833 0.67085 0.30267 0.0
N745 N 0.11838 0.76564 0.26071 0.0
C746 C 0.22264 0.69764 0.29864 0.0
C747 C 0.15653 0.74671 0.27793 0.0
N748 N 0.29927 0.73672 0.28069 0.0
N749 N 0.09963 0.71959 0.31739 0.0
H750 H 0.12587 0.78426 0.24152 0.0
H751 H 0.07655 0.76025 0.26205 0.0
H752 H 0.08847 0.70062 0.33532 0.0
H753 H 0.07986 0.73982 0.31604 0.0
H754 H 0.32891 0.72246 0.29299 0.0
H755 H 0.31705 0.75946 0.26973 0.0
H756 H 0.281 0.67016 0.29137 0.0
H757 H 0.23412 0.64806 0.31494 0.0
C758 C 0.97328 0.9833 0.8257 0.0
C759 C 0.97902 0.95489 0.80384 0.0
C760 C 0.95503 0.98375 0.74286 0.0
C761 C 0.95647 0.01396 0.76575 0.0
N762 N 0.96638 0.04339 0.82856 0.0
N763 N 0.97757 0.9277 0.74238 0.0
C764 C 0.96489 0.01386 0.80704 0.0
C765 C 0.97003 0.95488 0.76251 0.0
N766 N 0.97547 0.98085 0.86421 0.0
N767 N 0.93816 0.98246 0.70223 0.0
H768 H 0.98561 0.90528 0.75525 0.0
H769 H 0.97894 0.92807 0.71366 0.0
H770 H 0.92824 0.00348 0.68699 0.0
H771 H 0.92948 0.95971 0.68329 0.0
H772 H 0.9655 0.99875 0.88062 0.0
H773 H 0.98347 0.95938 0.87923 0.0
H774 H 0.97948 0.04698 0.85954 0.0
H775 H 0.95716 0.06546 0.81553 0.0
C776 C 0.67468 0.31786 0.33026 0.0
C777 C 0.72998 0.31593 0.33045 0.0
C778 C 0.68992 0.30108 0.25742 0.0
C779 C 0.63431 0.30234 0.25728 0.0
N780 N 0.5709 0.30769 0.29298 0.0
N781 N 0.78927 0.30097 0.29583 0.0
C782 C 0.62585 0.3094 0.29362 0.0
C783 C 0.73713 0.30585 0.29449 0.0
N784 N 0.66954 0.32893 0.36503 0.0
N785 N 0.69826 0.29708 0.22192 0.0
H786 H 0.82572 0.30572 0.32205 0.0
H787 H 0.79555 0.28984 0.27159 0.0
H788 H 0.66467 0.29302 0.19419 0.0
H789 H 0.73904 0.30016 0.21951 0.0
H790 H 0.63276 0.3351 0.36659 0.0
H791 H 0.70357 0.33349 0.39263 0.0
H792 H 0.55993 0.30864 0.31841 0.0
H793 H 0.53495 0.3033 0.26653 0.0
C794 C 0.23917 0.17704 0.63408 0.0
C795 C 0.21025 0.20156 0.61465 0.0
C796 C 0.17621 0.16454 0.55049 0.0
C797 C 0.20295 0.13917 0.57001 0.0
N798 N 0.24665 0.11705 0.63162 0.0
N799 N 0.13693 0.21313 0.55722 0.0
C800 C 0.23017 0.14407 0.61229 0.0
C801 C 0.17389 0.19335 0.57377 0.0
N802 N 0.27752 0.18587 0.6726 0.0
N803 N 0.15641 0.16259 0.50974 0.0
H804 H 0.13354 0.23409 0.57374 0.0
H805 H 0.10549 0.20639 0.52853 0.0
H806 H 0.15922 0.14285 0.49128 0.0
H807 H 0.14244 0.18257 0.49439 0.0
H808 H 0.3048 0.17074 0.68671 0.0
H809 H 0.28533 0.20967 0.68957 0.0
H810 H 0.26168 0.11786 0.6626 0.0
H811 H 0.23984 0.09244 0.61656 0.0
C812 C 0.35373 0.8343 0.06217 0.0
C813 C 0.35029 0.81575 0.09522 0.0
C814 C 0.45072 0.81327 0.10972 0.0
C815 C 0.45 0.82557 0.07265 0.0
N816 N 0.39814 0.8455 0.01162 0.0
N817 N 0.39237 0.78081 0.14534 0.0
C818 C 0.40078 0.83562 0.04834 0.0
C819 C 0.39808 0.80357 0.11785 0.0
N820 N 0.31292 0.85142 0.04468 0.0
N821 N 0.50168 0.8109 0.13734 0.0
H822 H 0.3536 0.77108 0.15084 0.0
H823 H 0.42424 0.76849 0.15951 0.0
H824 H 0.54132 0.8183 0.13277 0.0
H825 H 0.50543 0.80519 0.16623 0.0
H826 H 0.31614 0.868 0.02287 0.0
H827 H 0.27903 0.85189 0.05488 0.0
H828 H 0.3606 0.84928 0.99076 0.0
H829 H 0.43221 0.84745 1.00087 0.0
C830 C 0.89792 0.19668 0.515 0.0
C831 C 0.91265 0.2341 0.52188 0.0
C832 C 0.91932 0.23034 0.5915 0.0
C833 C 0.91416 0.19373 0.58615 0.0
N834 N 0.90136 0.14183 0.54356 0.0
N835 N 0.94406 0.28721 0.56796 0.0
C836 C 0.90376 0.17674 0.54799 0.0
C837 C 0.92457 0.25116 0.5604 0.0
N838 N 0.87745 0.18028 0.47675 0.0
N839 N 0.91872 0.24513 0.6262 0.0
H840 H 0.94865 0.30355 0.54614 0.0
H841 H 0.96012 0.30088 0.59657 0.0
H842 H 0.91512 0.23067 0.64966 0.0
H843 H 0.91649 0.27085 0.6303 0.0
H844 H 0.86074 0.15299 0.46926 0.0
H845 H 0.87203 0.19421 0.45198 0.0
H846 H 0.90043 0.1289 0.51757 0.0
H847 H 0.90433 0.12624 0.56688 0.0
C848 C 0.29409 0.29718 0.8483 0.0
C849 C 0.23426 0.2794 0.82656 0.0
C850 C 0.22391 0.25464 0.88687 0.0
C851 C 0.28416 0.27165 0.90822 0.0
N852 N 0.37965 0.30168 0.90716 0.0
N853 N 0.14524 0.23579 0.82229 0.0
C854 C 0.3202 0.29056 0.88819 0.0
C855 C 0.20012 0.25633 0.84501 0.0
N856 N 0.32529 0.32177 0.83156 0.0
N857 N 0.18901 0.23815 0.90692 0.0
H858 H 0.1266 0.23676 0.79168 0.0
H859 H 0.12035 0.2157 0.83287 0.0
H860 H 0.20513 0.2361 0.93742 0.0
H861 H 0.14363 0.22854 0.89401 0.0
H862 H 0.36669 0.33865 0.8476 0.0
H863 H 0.30821 0.32733 0.80234 0.0
H864 H 0.4087 0.31225 0.89278 0.0
H865 H 0.40045 0.29733 0.93641 0.0
C866 C 0.30022 0.90216 0.29846 0.0
C867 C 0.24927 0.88083 0.26794 0.0
C868 C 0.18806 0.91043 0.2888 0.0
C869 C 0.23881 0.93105 0.32014 0.0
N870 N 0.34389 0.95273 0.34993 0.0
N871 N 0.14738 0.86963 0.22769 0.0
C872 C 0.29526 0.92898 0.32328 0.0
C873 C 0.19408 0.88687 0.26089 0.0
N874 N 0.35274 0.89559 0.30468 0.0
N875 N 0.13396 0.91212 0.28701 0.0
H876 H 0.15029 0.85178 0.20704 0.0
H877 H 0.10719 0.8751 0.21865 0.0
H878 H 0.12791 0.92968 0.30636 0.0
H879 H 0.09482 0.89481 0.26799 0.0
H880 H 0.39045 0.90705 0.32931 0.0
H881 H 0.35794 0.87731 0.28565 0.0
H882 H 0.38638 0.95482 0.35134 0.0
H883 H 0.34152 0.97235 0.36884 0.0
C884 C 0.76406 0.81705 0.88996 0.0
C885 C 0.8244 0.82073 0.91042 0.0
C886 C 0.81303 0.83089 0.9748 0.0
C887 C 0.75305 0.82838 0.95435 0.0
N888 N 0.67274 0.82403 0.89296 0.0
N889 N 0.90881 0.83592 0.97134 0.0
C890 C 0.72896 0.82296 0.91199 0.0
C891 C 0.8496 0.82915 0.95257 0.0
N892 N 0.74023 0.80713 0.8496 0.0
N893 N 0.83453 0.8336 0.01558 0.0
H894 H 0.93686 0.83319 0.95654 0.0
H895 H 0.93104 0.84652 1.00115 0.0
H896 H 0.81017 0.83668 0.03304 0.0
H897 H 0.87527 0.83071 0.03222 0.0
H898 H 0.69555 0.80022 0.83325 0.0
H899 H 0.76514 0.80382 0.83249 0.0
H900 H 0.65384 0.82365 0.86222 0.0
H901 H 0.64583 0.82783 0.90831 0.0
loop_
_geom_bond_atom_site_label_1
_geom_bond_atom_site_label_2
_geom_bond_distance
_geom_bond_site_symmetry_2
_ccdc_geom_bond_type
H0 C1 0.949 . S
C1 H0 0.949 . S
C1 C2 1.395 . S
C1 C3 1.391 . S
C2 C1 1.395 . S
C2 C5 1.390 . S
C3 C1 1.391 . S
C3 C7 1.387 . S
C3 C8 1.491 . S
H4 C5 0.950 . S
C5 C2 1.390 . S
C5 H4 0.950 . S
C5 C6 1.378 . S
C6 C5 1.378 . S
C6 C7 1.409 . S
C7 C3 1.387 . S
C7 C6 1.409 . S
C7 H9 0.951 . S
C8 C3 1.491 . S
C8 C10 1.382 . S
C8 C12 1.404 . S
H9 C7 0.951 . S
C10 C8 1.382 . S
C10 C11 1.390 . S
C10 H15 0.949 . S
C11 C10 1.390 . S
C11 C16 1.399 . S
C12 C8 1.404 . S
C12 H13 0.950 . S
C12 C14 1.375 . S
H13 C12 0.950 . S
C14 C12 1.375 . S
C14 C16 1.382 . S
C14 H18 0.950 . S
H15 C10 0.949 . S
C16 C11 1.399 . S
C16 C14 1.382 . S
C16 H17 0.952 . S
H17 C16 0.952 . S
H18 C14 0.950 . S
H19 C20 0.949 . S
C20 H19 0.949 . S
C20 C21 1.395 . S
C20 C22 1.391 . S
C21 C20 1.395 . S
C21 C24 1.390 . S
C22 C20 1.391 . S
C22 C26 1.387 . S
C22 C27 1.491 . S
H23 C24 0.950 . S
C24 C21 1.390 . S
C24 H23 0.950 . S
C24 C25 1.378 . S
C25 C24 1.378 . S
C25 C26 1.409 . S
C26 C22 1.387 . S
C26 C25 1.409 . S
C26 H28 0.951 . S
C27 C22 1.491 . S
C27 C29 1.382 . S
C27 C31 1.404 . S
H28 C26 0.951 . S
C29 C27 1.382 . S
C29 C30 1.390 . S
C29 H34 0.949 . S
C30 C29 1.390 . S
C30 C35 1.399 . S
C31 C27 1.404 . S
C31 H32 0.950 . S
C31 C33 1.375 . S
H32 C31 0.950 . S
C33 C31 1.375 . S
C33 C35 1.382 . S
C33 H37 0.950 . S
H34 C29 0.949 . S
C35 C30 1.399 . S
C35 C33 1.382 . S
C35 H36 0.952 . S
H36 C35 0.952 . S
H37 C33 0.950 . S
H38 C39 0.949 . S
C39 H38 0.949 . S
C39 C40 1.395 . S
C39 C41 1.391 . S
C40 C39 1.395 . S
C40 C43 1.390 . S
C41 C39 1.391 . S
C41 C45 1.387 . S
C41 C46 1.491 . S
H42 C43 0.950 . S
C43 C40 1.390 . S
C43 H42 0.950 . S
C43 C44 1.378 . S
C44 C43 1.378 . S
C44 C45 1.409 . S
C45 C41 1.387 . S
C45 C44 1.409 . S
C45 H47 0.951 . S
C46 C41 1.491 . S
C46 C48 1.382 . S
C46 C50 1.404 . S
H47 C45 0.951 . S
C48 C46 1.382 . S
C48 C49 1.390 . S
C48 H53 0.949 . S
C49 C48 1.390 . S
C49 C54 1.399 . S
C50 C46 1.404 . S
C50 H51 0.950 . S
C50 C52 1.375 . S
H51 C50 0.950 . S
C52 C50 1.375 . S
C52 C54 1.382 . S
C52 H56 0.950 . S
H53 C48 0.949 . S
C54 C49 1.399 . S
C54 C52 1.382 . S
C54 H55 0.952 . S
H55 C54 0.952 . S
H56 C52 0.950 . S
H57 C58 0.949 . S
C58 H57 0.949 . S
C58 C59 1.395 . S
C58 C60 1.391 . S
C59 C58 1.395 . S
C59 C62 1.390 . S
C60 C58 1.391 . S
C60 C64 1.387 . S
C60 C65 1.491 . S
H61 C62 0.950 . S
C62 C59 1.390 . S
C62 H61 0.950 . S
C62 C63 1.378 . S
C63 C62 1.378 . S
C63 C64 1.409 . S
C64 C60 1.387 . S
C64 C63 1.409 . S
C64 H66 0.951 . S
C65 C60 1.491 . S
C65 C67 1.382 . S
C65 C69 1.392 1_556 S
H66 C64 0.951 . S
C67 C65 1.382 . S
C67 C68 1.390 1_556 S
C67 H72 0.949 . S
C68 C67 1.390 1_554 S
C68 C73 1.399 . S
C69 C65 1.392 1_554 S
C69 H70 0.935 1_554 S
C69 C71 1.392 . S
H70 C69 0.935 1_556 S
C71 C69 1.392 . S
C71 C73 1.382 . S
C71 H75 0.950 . S
H72 C67 0.949 . S
C73 C68 1.399 . S
C73 C71 1.382 . S
C73 H74 0.952 . S
H74 C73 0.952 . S
H75 C71 0.950 . S
H76 C77 0.949 1_455 S
C77 H76 0.949 1_655 S
C77 C78 1.395 . S
C77 C79 1.391 . S
C78 C77 1.395 . S
C78 C81 1.390 . S
C79 C77 1.391 . S
C79 C83 1.387 . S
C79 C84 1.491 . S
H80 C81 0.950 . S
C81 C78 1.390 . S
C81 H80 0.950 . S
C81 C82 1.378 . S
C82 C81 1.378 . S
C82 C83 1.409 . S
C83 C79 1.387 . S
C83 C82 1.409 . S
C83 H85 0.951 . S
C84 C79 1.491 . S
C84 C86 1.382 . S
C84 C88 1.404 . S
H85 C83 0.951 . S
C86 C84 1.382 . S
C86 C87 1.390 1_655 S
C86 H91 0.949 . S
C87 C86 1.390 1_455 S
C87 C92 1.399 . S
C88 C84 1.404 . S
C88 H89 0.950 . S
C88 C90 1.375 1_655 S
H89 C88 0.950 . S
C90 C88 1.375 1_455 S
C90 C92 1.382 . S
C90 H94 0.950 . S
H91 C86 0.949 . S
C92 C87 1.399 . S
C92 C90 1.382 . S
C92 H93 0.952 1_565 S
H93 C92 0.952 1_545 S
H94 C90 0.950 . S
H95 C96 0.949 . S
C96 H95 0.949 . S
C96 C97 1.395 . S
C96 C98 1.391 . S
C97 C96 1.395 . S
C97 C100 1.390 . S
C98 C96 1.391 . S
C98 C102 1.387 . S
C98 C103 1.491 . S
H99 C100 0.950 . S
C100 C97 1.390 . S
C100 H99 0.950 . S
C100 C101 1.378 . S
C101 C100 1.378 . S
C101 C102 1.409 . S
C102 C98 1.387 . S
C102 C101 1.409 . S
C102 H104 0.951 . S
C103 C98 1.491 . S
C103 C105 1.382 . S
C103 C107 1.404 . S
H104 C102 0.951 . S
C105 C103 1.382 . S
C105 C106 1.390 . S
C105 H110 0.949 . S
C106 C105 1.390 . S
C106 C111 1.399 . S
C107 C103 1.404 . S
C107 H108 0.950 . S
C107 C109 1.375 . S
H108 C107 0.950 . S
C109 C107 1.375 . S
C109 C111 1.382 . S
C109 H113 0.950 . S
H110 C105 0.949 . S
C111 C106 1.399 . S
C111 C109 1.382 . S
C111 H112 0.952 . S
H112 C111 0.952 . S
H113 C109 0.950 . S
H114 C115 0.949 . S
C115 H114 0.949 . S
C115 C116 1.395 . S
C115 C117 1.391 . S
C116 C115 1.395 . S
C116 C119 1.390 . S
C117 C115 1.391 . S
C117 C121 1.387 . S
C117 C122 1.491 . S
H118 C119 0.950 . S
C119 C116 1.390 . S
C119 H118 0.950 . S
C119 C120 1.378 . S
C120 C119 1.378 . S
C120 C121 1.409 . S
C121 C117 1.387 . S
C121 C120 1.409 . S
C121 H123 0.951 . S
C122 C117 1.491 . S
C122 C124 1.382 . S
C122 C126 1.404 . S
H123 C121 0.951 . S
C124 C122 1.382 . S
C124 C125 1.390 . S
C124 H129 0.949 . S
C125 C124 1.390 . S
C125 C130 1.399 . S
C126 C122 1.404 . S
C126 H127 0.950 . S
C126 C128 1.375 . S
H127 C126 0.950 . S
C128 C126 1.375 . S
C128 C130 1.382 . S
C128 H132 0.950 . S
H129 C124 0.949 . S
C130 C125 1.399 . S
C130 C128 1.382 . S
C130 H131 0.952 . S
H131 C130 0.952 . S
H132 C128 0.950 . S
H133 C134 0.949 . S
C134 H133 0.949 . S
C134 C135 1.395 . S
C134 C136 1.391 . S
C135 C134 1.395 . S
C135 C138 1.390 . S
C136 C134 1.391 . S
C136 C140 1.387 . S
C136 C141 1.491 . S
H137 C138 0.950 . S
C138 C135 1.390 . S
C138 H137 0.950 . S
C138 C139 1.378 . S
C139 C138 1.378 . S
C139 C140 1.409 . S
C140 C136 1.387 . S
C140 C139 1.409 . S
C140 H142 0.951 . S
C141 C136 1.491 . S
C141 C143 1.382 . S
C141 C145 1.404 . S
H142 C140 0.951 . S
C143 C141 1.382 . S
C143 C144 1.390 . S
C143 H148 0.949 . S
C144 C143 1.390 . S
C144 C149 1.399 . S
C145 C141 1.404 . S
C145 H146 0.950 . S
C145 C147 1.375 . S
H146 C145 0.950 . S
C147 C145 1.375 . S
C147 C149 1.382 . S
C147 H151 0.950 . S
H148 C143 0.949 . S
C149 C144 1.399 . S
C149 C147 1.382 . S
C149 H150 0.952 . S
H150 C149 0.952 . S
H151 C147 0.950 . S
C152 C153 1.443 . S
C152 N156 1.376 . S
C152 C190 1.389 . S
C153 C152 1.443 . S
C153 C154 1.340 . S
C153 H193 0.951 . S
C154 C153 1.340 . S
C154 C155 1.439 . S
C154 H194 0.950 . S
C155 C154 1.439 . S
C155 N156 1.374 . S
C155 C189 1.395 . S
N156 C152 1.376 . S
N156 C155 1.374 . S
N156 Co157 2.024 . S
Co157 N156 2.024 . S
Co157 N158 1.993 . S
Co157 N163 1.993 1_455 S
Co157 N168 1.996 1_455 S
Co157 N173 2.295 . S
Co157 N179 2.270 1_455 S
N158 Co157 1.993 . S
N158 C159 1.376 . S
N158 C162 1.383 1_455 S
C159 N158 1.376 . S
C159 C160 1.446 . S
C159 C189 1.391 . S
C160 C159 1.446 . S
C160 C161 1.339 . S
C160 H195 0.949 . S
C161 C160 1.339 . S
C161 C162 1.439 1_455 S
C161 H196 0.950 1_455 S
C162 N158 1.383 1_655 S
C162 C161 1.439 1_655 S
C162 C191 1.392 . S
N163 Co157 1.993 1_655 S
N163 C164 1.376 . S
N163 C167 1.374 . S
C164 N163 1.376 . S
C164 C165 1.443 . S
C164 C191 1.389 . S
C165 C164 1.443 . S
C165 C166 1.340 . S
C165 H197 0.951 . S
C166 C165 1.340 . S
C166 C167 1.439 . S
C166 H198 0.950 . S
C167 N163 1.374 . S
C167 C166 1.439 . S
C167 C192 1.395 . S
N168 Co157 1.996 1_655 S
N168 C169 1.376 . S
N168 C172 1.383 1_655 S
C169 N168 1.376 . S
C169 C170 1.446 . S
C169 C192 1.391 . S
C170 C169 1.446 . S
C170 C171 1.339 . S
C170 H199 0.949 . S
C171 C170 1.339 . S
C171 C172 1.439 1_655 S
C171 H200 0.950 1_655 S
C172 N168 1.383 1_455 S
C172 C171 1.439 1_455 S
C172 C190 1.392 . S
N173 Co157 2.295 . S
N173 C176 1.332 . S
N173 C178 1.332 . S
C174 C175 1.386 . S
C174 C177 1.388 . S
C175 C174 1.386 . S
C175 C176 1.382 . S
C175 H201 0.950 1_455 S
C176 N173 1.332 . S
C176 C175 1.382 . S
C176 H187 0.952 1_455 S
C177 C174 1.388 . S
C177 C178 1.382 . S
C177 H202 0.950 . S
C178 N173 1.332 . S
C178 C177 1.382 . S
C178 H188 0.948 . S
N179 Co157 2.270 1_655 S
N179 C183 1.332 . S
N179 C184 1.332 . S
C180 C181 1.388 . S
C180 C184 1.382 . S
C180 H203 0.950 . S
C181 C180 1.388 . S
C181 C182 1.386 . S
C182 C181 1.386 . S
C182 C183 1.381 . S
C182 H204 0.950 1_655 S
C183 N179 1.332 . S
C183 C182 1.381 . S
C183 H185 0.952 1_655 S
C184 N179 1.332 . S
C184 C180 1.382 . S
C184 H186 0.948 . S
H185 C183 0.952 1_455 S
H186 C184 0.948 . S
H187 C176 0.952 1_655 S
H188 C178 0.948 . S
C189 C155 1.395 . S
C189 C159 1.391 . S
C190 C152 1.389 . S
C190 C172 1.392 . S
C191 C162 1.392 . S
C191 C164 1.389 . S
C192 C167 1.395 . S
C192 C169 1.391 . S
H193 C153 0.951 . S
H194 C154 0.950 . S
H195 C160 0.949 . S
H196 C161 0.950 1_655 S
H197 C165 0.951 . S
H198 C166 0.950 . S
H199 C170 0.949 . S
H200 C171 0.950 1_455 S
H201 C175 0.950 1_655 S
H202 C177 0.950 . S
H203 C180 0.950 . S
H204 C182 0.950 1_455 S
C205 C206 1.443 . S
C205 N209 1.376 . S
C205 C243 1.389 . S
C206 C205 1.443 . S
C206 C207 1.340 . S
C206 H246 0.951 . S
C207 C206 1.340 . S
C207 C208 1.439 . S
C207 H247 0.950 . S
C208 C207 1.439 . S
C208 N209 1.374 . S
C208 C242 1.395 . S
N209 C205 1.376 . S
N209 C208 1.374 . S
N209 Co210 2.008 . S
Co210 N209 2.008 . S
Co210 N211 1.995 . S
Co210 N216 2.008 1_455 S
Co210 N221 1.995 . S
Co210 N226 2.282 . S
Co210 N232 2.282 1_455 S
N211 Co210 1.995 . S
N211 C212 1.376 . S
N211 C215 1.383 . S
C212 N211 1.376 . S
C212 C213 1.446 . S
C212 C242 1.391 . S
C213 C212 1.446 . S
C213 C214 1.339 . S
C213 H248 0.949 . S
C214 C213 1.339 . S
C214 C215 1.439 . S
C214 H249 0.950 . S
C215 N211 1.383 . S
C215 C214 1.439 . S
C215 C244 1.392 1_455 S
N216 Co210 2.008 1_655 S
N216 C217 1.376 . S
N216 C220 1.374 . S
C217 N216 1.376 . S
C217 C218 1.443 . S
C217 C244 1.389 . S
C218 C217 1.443 . S
C218 C219 1.340 . S
C218 H250 0.951 . S
C219 C218 1.340 . S
C219 C220 1.439 . S
C219 H251 0.950 . S
C220 N216 1.374 . S
C220 C219 1.439 . S
C220 C245 1.395 . S
N221 Co210 1.995 . S
N221 C222 1.376 1_455 S
N221 C225 1.383 . S
C222 N221 1.376 1_655 S
C222 C223 1.446 . S
C222 C245 1.391 . S
C223 C222 1.446 . S
C223 C224 1.339 1_655 S
C223 H252 0.949 . S
C224 C223 1.339 1_455 S
C224 C225 1.439 . S
C224 H253 0.950 . S
C225 N221 1.383 . S
C225 C224 1.439 . S
C225 C243 1.392 . S
N226 Co210 2.282 . S
N226 C229 1.332 . S
N226 C231 1.332 . S
C227 C228 1.386 . S
C227 C230 1.388 . S
C228 C227 1.386 . S
C228 C229 1.382 . S
C228 H254 0.950 . S
C229 N226 1.332 . S
C229 C228 1.382 . S
C229 H240 0.942 1_455 S
C230 C227 1.388 . S
C230 C231 1.382 . S
C230 H255 0.950 . S
C231 N226 1.332 . S
C231 C230 1.382 . S
C231 H241 0.948 . S
N232 Co210 2.282 1_655 S
N232 C236 1.332 1_655 S
N232 C237 1.332 . S
C233 C234 1.388 . S
C233 C237 1.382 . S
C233 H256 0.950 . S
C234 C233 1.388 . S
C234 C235 1.386 1_655 S
C235 C234 1.386 1_455 S
C235 C236 1.382 . S
C235 H257 0.950 . S
C236 N232 1.332 1_455 S
C236 C235 1.382 . S
C236 H238 0.952 . S
C237 N232 1.332 . S
C237 C233 1.382 . S
C237 H239 0.948 . S
H238 C236 0.952 . S
H239 C237 0.948 . S
H240 C229 0.942 1_655 S
H241 C231 0.948 . S
C242 C208 1.395 . S
C242 C212 1.391 . S
C243 C205 1.389 . S
C243 C225 1.392 . S
C244 C215 1.392 1_655 S
C244 C217 1.389 . S
C245 C220 1.395 . S
C245 C222 1.391 . S
H246 C206 0.951 . S
H247 C207 0.950 . S
H248 C213 0.949 . S
H249 C214 0.950 . S
H250 C218 0.951 . S
H251 C219 0.950 . S
H252 C223 0.949 . S
H253 C224 0.950 . S
H254 C228 0.950 . S
H255 C230 0.950 . S
H256 C233 0.950 . S
H257 C235 0.950 . S
C258 C259 1.443 . S
C258 N262 1.376 1_565 S
C258 C296 1.389 . S
C259 C258 1.443 . S
C259 C260 1.340 1_565 S
C259 H299 0.951 . S
C260 C259 1.340 1_545 S
C260 C261 1.439 . S
C260 H300 0.950 . S
C261 C260 1.439 . S
C261 N262 1.374 . S
C261 C295 1.395 . S
N262 C258 1.376 1_545 S
N262 C261 1.374 . S
N262 Co263 2.008 . S
Co263 N262 2.008 . S
Co263 N264 1.995 . S
Co263 N269 2.008 . S
Co263 N274 1.995 1_545 S
Co263 N279 2.282 . S
Co263 N285 2.282 1_545 S
N264 Co263 1.995 . S
N264 C265 1.376 . S
N264 C268 1.383 . S
C265 N264 1.376 . S
C265 C266 1.446 . S
C265 C295 1.391 . S
C266 C265 1.446 . S
C266 C267 1.339 . S
C266 H301 0.949 . S
C267 C266 1.339 . S
C267 C268 1.439 . S
C267 H302 0.950 . S
C268 N264 1.383 . S
C268 C267 1.439 . S
C268 C297 1.392 . S
N269 Co263 2.008 . S
N269 C270 1.376 . S
N269 C273 1.374 . S
C270 N269 1.376 . S
C270 C271 1.443 . S
C270 C297 1.389 . S
C271 C270 1.443 . S
C271 C272 1.340 . S
C271 H303 0.951 . S
C272 C271 1.340 . S
C272 C273 1.439 . S
C272 H304 0.950 . S
C273 N269 1.374 . S
C273 C272 1.439 . S
C273 C298 1.395 1_545 S
N274 Co263 1.995 1_565 S
N274 C275 1.376 . S
N274 C278 1.383 . S
C275 N274 1.376 . S
C275 C276 1.446 . S
C275 C298 1.391 . S
C276 C275 1.446 . S
C276 C277 1.339 . S
C276 H305 0.949 . S
C277 C276 1.339 . S
C277 C278 1.439 . S
C277 H306 0.950 . S
C278 N274 1.383 . S
C278 C277 1.439 . S
C278 C296 1.392 . S
N279 Co263 2.282 . S
N279 C282 1.332 . S
N279 C284 1.332 . S
C280 C281 1.386 . S
C280 C283 1.388 . S
C281 C280 1.386 . S
C281 C282 1.382 . S
C281 H307 0.950 . S
C282 N279 1.332 . S
C282 C281 1.382 . S
C282 H293 0.952 . S
C283 C280 1.388 . S
C283 C284 1.382 . S
C283 H308 0.950 . S
C284 N279 1.332 . S
C284 C283 1.382 . S
C284 H294 0.948 . S
N285 Co263 2.282 1_565 S
N285 C289 1.332 . S
N285 C290 1.332 . S
C286 C287 1.388 . S
C286 C290 1.382 . S
C286 H309 0.950 . S
C287 C286 1.388 . S
C287 C288 1.386 . S
C288 C287 1.386 . S
C288 C289 1.382 . S
C288 H310 0.950 . S
C289 N285 1.332 . S
C289 C288 1.382 . S
C289 H291 0.952 1_565 S
C290 N285 1.332 . S
C290 C286 1.382 . S
C290 H292 0.948 . S
H291 C289 0.952 1_545 S
H292 C290 0.948 . S
H293 C282 0.952 . S
H294 C284 0.948 . S
C295 C261 1.395 . S
C295 C265 1.391 . S
C296 C258 1.389 . S
C296 C278 1.392 . S
C297 C268 1.392 . S
C297 C270 1.389 . S
C298 C273 1.395 1_565 S
C298 C275 1.391 . S
H299 C259 0.951 . S
H300 C260 0.950 . S
H301 C266 0.949 . S
H302 C267 0.950 . S
H303 C271 0.951 . S
H304 C272 0.950 . S
H305 C276 0.949 . S
H306 C277 0.950 . S
H307 C281 0.950 . S
H308 C283 0.950 . S
H309 C286 0.950 . S
H310 C288 0.950 . S
C311 C312 1.443 . S
C311 N315 1.376 . S
C311 C349 1.389 . S
C312 C311 1.443 . S
C312 C313 1.340 . S
C312 H352 0.951 . S
C313 C312 1.340 . S
C313 C314 1.439 . S
C313 H353 0.950 . S
C314 C313 1.439 . S
C314 N315 1.374 . S
C314 C348 1.395 . S
N315 C311 1.376 . S
N315 C314 1.374 . S
N315 Co316 2.008 . S
Co316 N315 2.008 . S
Co316 N317 1.995 . S
Co316 N322 2.008 1_554 S
Co316 N327 1.995 . S
Co316 N332 2.282 1_554 S
Co316 N338 2.282 . S
N317 Co316 1.995 . S
N317 C318 1.376 . S
N317 C321 1.383 1_554 S
C318 N317 1.376 . S
C318 C319 1.446 1_554 S
C318 C348 1.391 . S
C319 C318 1.446 1_556 S
C319 C320 1.339 . S
C319 H354 0.949 . S
C320 C319 1.339 . S
C320 C321 1.439 . S
C320 H355 0.950 . S
C321 N317 1.383 1_556 S
C321 C320 1.439 . S
C321 C350 1.392 . S
N322 Co316 2.008 1_556 S
N322 C323 1.376 . S
N322 C326 1.374 . S
C323 N322 1.376 . S
C323 C324 1.443 . S
C323 C350 1.389 . S
C324 C323 1.443 . S
C324 C325 1.340 . S
C324 H356 0.951 . S
C325 C324 1.340 . S
C325 C326 1.439 . S
C325 H357 0.950 . S
C326 N322 1.374 . S
C326 C325 1.439 . S
C326 C351 1.395 1_556 S
N327 Co316 1.995 . S
N327 C328 1.376 . S
N327 C331 1.383 . S
C328 N327 1.376 . S
C328 C329 1.446 . S
C328 C351 1.391 . S
C329 C328 1.446 . S
C329 C330 1.339 . S
C329 H358 0.949 . S
C330 C329 1.339 . S
C330 C331 1.439 . S
C330 H359 0.950 . S
C331 N327 1.383 . S
C331 C330 1.439 . S
C331 C349 1.392 . S
N332 Co316 2.282 1_556 S
N332 C335 1.332 . S
N332 C337 1.332 . S
C333 C334 1.386 . S
C333 C336 1.388 . S
C334 C333 1.386 . S
C334 C335 1.382 . S
C334 H360 0.950 . S
C335 N332 1.332 . S
C335 C334 1.382 . S
C335 H346 0.952 . S
C336 C333 1.388 . S
C336 C337 1.382 . S
C336 H361 0.950 . S
C337 N332 1.332 . S
C337 C336 1.382 . S
C337 H347 0.948 . S
N338 Co316 2.282 . S
N338 C342 1.332 . S
N338 C343 1.332 . S
C339 C340 1.388 . S
C339 C343 1.382 . S
C339 H362 0.950 . S
C340 C339 1.388 . S
C340 C341 1.386 . S
C341 C340 1.386 . S
C341 C342 1.382 . S
C341 H363 0.950 . S
C342 N338 1.332 . S
C342 C341 1.382 . S
C342 H344 0.952 . S
C343 N338 1.332 . S
C343 C339 1.382 . S
C343 H345 0.948 . S
H344 C342 0.952 . S
H345 C343 0.948 . S
H346 C335 0.952 . S
H347 C337 0.948 . S
C348 C314 1.395 . S
C348 C318 1.391 . S
C349 C311 1.389 . S
C349 C331 1.392 . S
C350 C321 1.392 . S
C350 C323 1.389 . S
C351 C326 1.395 1_554 S
C351 C328 1.391 . S
H352 C312 0.951 . S
H353 C313 0.950 . S
H354 C319 0.949 . S
H355 C320 0.950 . S
H356 C324 0.951 . S
H357 C325 0.950 . S
H358 C329 0.949 . S
H359 C330 0.950 . S
H360 C334 0.950 . S
H361 C336 0.950 . S
H362 C339 0.950 . S
H363 C341 0.950 . S
C364 C365 1.443 . S
C364 N368 1.376 . S
C364 C402 1.389 . S
C365 C364 1.443 . S
C365 C366 1.340 . S
C365 H405 0.951 . S
C366 C365 1.340 . S
C366 C367 1.439 . S
C366 H406 0.950 . S
C367 C366 1.439 . S
C367 N368 1.374 . S
C367 C401 1.395 . S
N368 C364 1.376 . S
N368 C367 1.374 . S
N368 Co369 2.008 1_455 S
Co369 N368 2.008 1_655 S
Co369 N370 1.995 1_655 S
Co369 N375 2.008 . S
Co369 N380 1.995 . S
Co369 N385 2.282 . S
Co369 N391 2.282 1_655 S
N370 Co369 1.995 1_455 S
N370 C371 1.376 . S
N370 C374 1.383 . S
C371 N370 1.376 . S
C371 C372 1.446 . S
C371 C401 1.391 . S
C372 C371 1.446 . S
C372 C373 1.339 . S
C372 H407 0.949 . S
C373 C372 1.339 . S
C373 C374 1.439 . S
C373 H408 0.950 . S
C374 N370 1.383 . S
C374 C373 1.439 . S
C374 C403 1.392 1_455 S
N375 Co369 2.008 . S
N375 C376 1.376 . S
N375 C379 1.374 . S
C376 N375 1.376 . S
C376 C377 1.443 . S
C376 C403 1.389 . S
C377 C376 1.443 . S
C377 C378 1.340 . S
C377 H409 0.951 . S
C378 C377 1.340 . S
C378 C379 1.439 . S
C378 H410 0.950 . S
C379 N375 1.374 . S
C379 C378 1.439 . S
C379 C404 1.395 . S
N380 Co369 1.995 . S
N380 C381 1.376 . S
N380 C384 1.383 . S
C381 N380 1.376 . S
C381 C382 1.446 . S
C381 C404 1.391 . S
C382 C381 1.446 . S
C382 C383 1.339 . S
C382 H411 0.949 . S
C383 C382 1.339 . S
C383 C384 1.439 . S
C383 H412 0.950 . S
C384 N380 1.383 . S
C384 C383 1.439 . S
C384 C402 1.392 1_655 S
N385 Co369 2.282 . S
N385 C388 1.332 . S
N385 C390 1.332 1_655 S
C386 C387 1.386 . S
C386 C389 1.388 1_655 S
C387 C386 1.386 . S
C387 C388 1.382 . S
C387 H413 0.950 . S
C388 N385 1.332 . S
C388 C387 1.382 . S
C388 H399 0.952 . S
C389 C386 1.388 1_455 S
C389 C390 1.382 . S
C389 H414 0.950 . S
C390 N385 1.332 1_455 S
C390 C389 1.382 . S
C390 H400 0.948 . S
N391 Co369 2.282 1_455 S
N391 C395 1.332 . S
N391 C396 1.332 1_455 S
C392 C393 1.388 1_655 S
C392 C396 1.382 . S
C392 H415 0.950 . S
C393 C392 1.388 1_455 S
C393 C394 1.386 . S
C394 C393 1.386 . S
C394 C395 1.382 . S
C394 H416 0.950 . S
C395 N391 1.332 . S
C395 C394 1.382 . S
C395 H397 0.952 . S
C396 N391 1.332 1_655 S
C396 C392 1.382 . S
C396 H398 0.948 . S
H397 C395 0.952 . S
H398 C396 0.948 . S
H399 C388 0.952 . S
H400 C390 0.948 . S
C401 C367 1.395 . S
C401 C371 1.391 . S
C402 C364 1.389 . S
C402 C384 1.392 1_455 S
C403 C374 1.392 1_655 S
C403 C376 1.389 . S
C404 C379 1.395 . S
C404 C381 1.391 . S
H405 C365 0.951 . S
H406 C366 0.950 . S
H407 C372 0.949 . S
H408 C373 0.950 . S
H409 C377 0.951 . S
H410 C378 0.950 . S
H411 C382 0.949 . S
H412 C383 0.950 . S
H413 C387 0.950 . S
H414 C389 0.950 . S
H415 C392 0.950 . S
H416 C394 0.950 . S
C417 C418 1.443 . S
C417 N421 1.376 . S
C417 C455 1.389 . S
C418 C417 1.443 . S
C418 C419 1.340 . S
C418 H458 0.951 . S
C419 C418 1.340 . S
C419 C420 1.439 . S
C419 H459 0.950 . S
C420 C419 1.439 . S
C420 N421 1.374 . S
C420 C454 1.395 . S
N421 C417 1.376 . S
N421 C420 1.374 . S
N421 Co422 2.008 . S
Co422 N421 2.008 . S
Co422 N423 1.995 . S
Co422 N428 2.008 . S
Co422 N433 1.995 . S
Co422 N438 2.282 . S
Co422 N444 2.282 . S
N423 Co422 1.995 . S
N423 C424 1.376 . S
N423 C427 1.383 . S
C424 N423 1.376 . S
C424 C425 1.446 . S
C424 C454 1.391 . S
C425 C424 1.446 . S
C425 C426 1.339 . S
C425 H460 0.949 . S
C426 C425 1.339 . S
C426 C427 1.439 . S
C426 H461 0.950 . S
C427 N423 1.383 . S
C427 C426 1.439 . S
C427 C456 1.392 . S
N428 Co422 2.008 . S
N428 C429 1.376 . S
N428 C432 1.374 . S
C429 N428 1.376 . S
C429 C430 1.443 . S
C429 C456 1.389 . S
C430 C429 1.443 . S
C430 C431 1.340 . S
C430 H462 0.951 . S
C431 C430 1.340 . S
C431 C432 1.439 . S
C431 H463 0.950 . S
C432 N428 1.374 . S
C432 C431 1.439 . S
C432 C457 1.395 . S
N433 Co422 1.995 . S
N433 C434 1.376 . S
N433 C437 1.383 . S
C434 N433 1.376 . S
C434 C435 1.446 . S
C434 C457 1.391 . S
C435 C434 1.446 . S
C435 C436 1.339 . S
C435 H464 0.949 . S
C436 C435 1.339 . S
C436 C437 1.439 . S
C436 H465 0.950 . S
C437 N433 1.383 . S
C437 C436 1.439 . S
C437 C455 1.392 . S
N438 Co422 2.282 . S
N438 C441 1.332 . S
N438 C443 1.332 . S
C439 C440 1.386 . S
C439 C442 1.388 . S
C440 C439 1.386 . S
C440 C441 1.382 1_556 S
C440 H466 0.950 . S
C441 N438 1.332 . S
C441 C440 1.382 1_554 S
C441 H452 0.952 . S
C442 C439 1.388 . S
C442 C443 1.382 1_556 S
C442 H467 0.950 . S
C443 N438 1.332 . S
C443 C442 1.382 1_554 S
C443 H453 0.948 . S
N444 Co422 2.282 . S
N444 C448 1.332 . S
N444 C449 1.332 . S
C445 C446 1.388 . S
C445 C449 1.382 . S
C445 H468 0.950 . S
C446 C445 1.388 . S
C446 C447 1.386 . S
C447 C446 1.386 . S
C447 C448 1.382 . S
C447 H469 0.950 . S
C448 N444 1.332 . S
C448 C447 1.382 . S
C448 H450 0.952 . S
C449 N444 1.332 . S
C449 C445 1.382 . S
C449 H451 0.948 . S
H450 C448 0.952 . S
H451 C449 0.948 . S
H452 C441 0.952 . S
H453 C443 0.948 . S
C454 C420 1.395 . S
C454 C424 1.391 . S
C455 C417 1.389 . S
C455 C437 1.392 . S
C456 C427 1.392 . S
C456 C429 1.389 . S
C457 C432 1.395 . S
C457 C434 1.391 . S
H458 C418 0.951 . S
H459 C419 0.950 . S
H460 C425 0.949 . S
H461 C426 0.950 . S
H462 C430 0.951 . S
H463 C431 0.950 . S
H464 C435 0.949 . S
H465 C436 0.950 . S
H466 C440 0.950 . S
H467 C442 0.950 . S
H468 C445 0.950 . S
H469 C447 0.950 . S
C470 C471 1.363 . S
C470 C476 1.379 . S
C470 N478 1.356 . S
C471 C470 1.363 . S
C471 C477 1.363 . S
C472 C473 1.363 . S
C472 C477 1.379 . S
C472 N479 1.356 . S
C473 C472 1.363 . S
C473 C476 1.363 . S
N474 C476 1.356 . S
N474 H486 0.984 . S
N474 H487 0.985 . S
N475 C477 1.356 . S
N475 H480 0.984 . S
N475 H481 0.985 . S
C476 C470 1.379 . S
C476 C473 1.363 . S
C476 N474 1.356 . S
C477 C471 1.363 . S
C477 C472 1.379 . S
C477 N475 1.356 . S
N478 C470 1.356 . S
N478 H484 0.984 . S
N478 H485 0.984 . S
N479 C472 1.356 . S
N479 H482 0.984 . S
N479 H483 0.985 . S
H480 N475 0.984 . S
H481 N475 0.985 . S
H482 N479 0.984 . S
H483 N479 0.985 . S
H484 N478 0.984 . S
H485 N478 0.984 . S
H486 N474 0.984 . S
H487 N474 0.985 . S
C488 C489 1.363 . S
C488 C494 1.379 . S
C488 N496 1.356 . S
C489 C488 1.363 . S
C489 C495 1.363 . S
C490 C491 1.363 . S
C490 C495 1.379 . S
C490 N497 1.356 . S
C491 C490 1.363 . S
C491 C494 1.363 . S
N492 C494 1.356 . S
N492 H504 0.984 . S
N492 H505 0.985 . S
N493 C495 1.356 . S
N493 H498 0.984 . S
N493 H499 0.985 . S
C494 C488 1.379 . S
C494 C491 1.363 . S
C494 N492 1.356 . S
C495 C489 1.363 . S
C495 C490 1.379 . S
C495 N493 1.356 . S
N496 C488 1.356 . S
N496 H502 0.984 . S
N496 H503 0.984 . S
N497 C490 1.356 . S
N497 H500 0.984 . S
N497 H501 0.985 . S
H498 N493 0.984 . S
H499 N493 0.985 . S
H500 N497 0.984 . S
H501 N497 0.985 . S
H502 N496 0.984 . S
H503 N496 0.984 . S
H504 N492 0.984 . S
H505 N492 0.985 . S
C506 C507 1.363 . S
C506 C512 1.379 . S
C506 N514 1.356 . S
C507 C506 1.363 . S
C507 C513 1.363 . S
C508 C509 1.363 . S
C508 C513 1.379 . S
C508 N515 1.356 . S
C509 C508 1.363 . S
C509 C512 1.363 . S
N510 C512 1.356 1_455 S
N510 H522 0.984 . S
N510 H523 0.985 . S
N511 C513 1.356 . S
N511 H516 0.984 . S
N511 H517 0.985 . S
C512 C506 1.379 . S
C512 C509 1.363 . S
C512 N510 1.356 1_655 S
C513 C507 1.363 . S
C513 C508 1.379 . S
C513 N511 1.356 . S
N514 C506 1.356 . S
N514 H520 0.984 1_655 S
N514 H521 0.984 . S
N515 C508 1.356 . S
N515 H518 0.984 . S
N515 H519 0.985 . S
H516 N511 0.984 . S
H517 N511 0.985 . S
H518 N515 0.984 . S
H519 N515 0.985 . S
H520 N514 0.984 1_455 S
H521 N514 0.984 . S
H522 N510 0.984 . S
H523 N510 0.985 . S
C524 C525 1.363 . S
C524 C530 1.379 . S
C524 N532 1.356 . S
C525 C524 1.363 . S
C525 C531 1.363 . S
C526 C527 1.363 . S
C526 C531 1.379 . S
C526 N533 1.356 . S
C527 C526 1.363 . S
C527 C530 1.363 . S
N528 C530 1.356 . S
N528 H540 0.984 . S
N528 H541 0.985 . S
N529 C531 1.356 . S
N529 H534 0.984 . S
N529 H535 0.985 . S
C530 C524 1.379 . S
C530 C527 1.363 . S
C530 N528 1.356 . S
C531 C525 1.363 . S
C531 C526 1.379 . S
C531 N529 1.356 . S
N532 C524 1.356 . S
N532 H538 0.984 . S
N532 H539 0.984 . S
N533 C526 1.356 . S
N533 H536 0.984 . S
N533 H537 0.985 . S
H534 N529 0.984 . S
H535 N529 0.985 . S
H536 N533 0.984 . S
H537 N533 0.985 . S
H538 N532 0.984 . S
H539 N532 0.984 . S
H540 N528 0.984 . S
H541 N528 0.985 . S
C542 C543 1.363 . S
C542 C548 1.379 . S
C542 N550 1.356 . S
C543 C542 1.363 . S
C543 C549 1.363 . S
C544 C545 1.363 . S
C544 C549 1.379 . S
C544 N551 1.356 . S
C545 C544 1.363 . S
C545 C548 1.363 . S
N546 C548 1.356 . S
N546 H558 0.984 . S
N546 H559 0.985 . S
N547 C549 1.356 . S
N547 H552 0.984 . S
N547 H553 0.985 . S
C548 C542 1.379 . S
C548 C545 1.363 . S
C548 N546 1.356 . S
C549 C543 1.363 . S
C549 C544 1.379 . S
C549 N547 1.356 . S
N550 C542 1.356 . S
N550 H556 0.984 . S
N550 H557 0.984 . S
N551 C544 1.356 . S
N551 H554 0.984 . S
N551 H555 0.985 . S
H552 N547 0.984 . S
H553 N547 0.985 . S
H554 N551 0.984 . S
H555 N551 0.985 . S
H556 N550 0.984 . S
H557 N550 0.984 . S
H558 N546 0.984 . S
H559 N546 0.985 . S
C560 C561 1.363 . S
C560 C566 1.379 . S
C560 N568 1.356 . S
C561 C560 1.363 . S
C561 C567 1.363 . S
C562 C563 1.363 . S
C562 C567 1.379 . S
C562 N569 1.356 . S
C563 C562 1.363 . S
C563 C566 1.363 . S
N564 C566 1.356 . S
N564 H576 0.984 . S
N564 H577 0.985 . S
N565 C567 1.356 . S
N565 H570 0.984 . S
N565 H571 0.985 . S
C566 C560 1.379 . S
C566 C563 1.363 . S
C566 N564 1.356 . S
C567 C561 1.363 . S
C567 C562 1.379 . S
C567 N565 1.356 . S
N568 C560 1.356 . S
N568 H574 0.984 . S
N568 H575 0.984 . S
N569 C562 1.356 . S
N569 H572 0.984 . S
N569 H573 0.985 . S
H570 N565 0.984 . S
H571 N565 0.985 . S
H572 N569 0.984 . S
H573 N569 0.985 . S
H574 N568 0.984 . S
H575 N568 0.984 . S
H576 N564 0.984 . S
H577 N564 0.985 . S
C578 C579 1.363 1_445 S
C578 C584 1.379 . S
C578 N586 1.356 . S
C579 C578 1.363 1_665 S
C579 C585 1.363 . S
C580 C581 1.363 1_655 S
C580 C585 1.379 1_545 S
C580 N587 1.356 . S
C581 C580 1.363 1_455 S
C581 C584 1.363 . S
N582 C584 1.356 . S
N582 H594 0.984 . S
N582 H595 0.985 . S
N583 C585 1.356 . S
N583 H588 0.984 . S
N583 H589 0.985 . S
C584 C578 1.379 . S
C584 C581 1.363 . S
C584 N582 1.356 . S
C585 C579 1.363 . S
C585 C580 1.379 1_565 S
C585 N583 1.356 . S
N586 C578 1.356 . S
N586 H592 0.984 . S
N586 H593 0.984 1_445 S
N587 C580 1.356 . S
N587 H590 0.984 . S
N587 H591 0.985 . S
H588 N583 0.984 . S
H589 N583 0.985 . S
H590 N587 0.984 . S
H591 N587 0.985 . S
H592 N586 0.984 . S
H593 N586 0.984 1_665 S
H594 N582 0.984 . S
H595 N582 0.985 . S
C596 C597 1.363 . S
C596 C602 1.379 . S
C596 N604 1.356 . S
C597 C596 1.363 . S
C597 C603 1.363 1_554 S
C598 C599 1.363 . S
C598 C603 1.379 1_554 S
C598 N605 1.356 . S
C599 C598 1.363 . S
C599 C602 1.363 . S
N600 C602 1.356 . S
N600 H612 0.984 . S
N600 H613 0.985 . S
N601 C603 1.356 . S
N601 H606 0.984 . S
N601 H607 0.985 . S
C602 C596 1.379 . S
C602 C599 1.363 . S
C602 N600 1.356 . S
C603 C597 1.363 1_556 S
C603 C598 1.379 1_556 S
C603 N601 1.356 . S
N604 C596 1.356 . S
N604 H610 0.984 . S
N604 H611 0.984 . S
N605 C598 1.356 . S
N605 H608 0.984 . S
N605 H609 0.985 1_554 S
H606 N601 0.984 . S
H607 N601 0.985 . S
H608 N605 0.984 . S
H609 N605 0.985 1_556 S
H610 N604 0.984 . S
H611 N604 0.984 . S
H612 N600 0.984 . S
H613 N600 0.985 . S
C614 C615 1.363 . S
C614 C620 1.379 . S
C614 N622 1.356 . S
C615 C614 1.363 . S
C615 C621 1.363 . S
C616 C617 1.363 . S
C616 C621 1.379 . S
C616 N623 1.356 . S
C617 C616 1.363 . S
C617 C620 1.363 . S
N618 C620 1.356 . S
N618 H630 0.984 . S
N618 H631 0.985 . S
N619 C621 1.356 . S
N619 H624 0.984 . S
N619 H625 0.985 . S
C620 C614 1.379 . S
C620 C617 1.363 . S
C620 N618 1.356 . S
C621 C615 1.363 . S
C621 C616 1.379 . S
C621 N619 1.356 . S
N622 C614 1.356 . S
N622 H628 0.984 . S
N622 H629 0.984 . S
N623 C616 1.356 . S
N623 H626 0.984 . S
N623 H627 0.985 . S
H624 N619 0.984 . S
H625 N619 0.985 . S
H626 N623 0.984 . S
H627 N623 0.985 . S
H628 N622 0.984 . S
H629 N622 0.984 . S
H630 N618 0.984 . S
H631 N618 0.985 . S
C632 C633 1.363 . S
C632 C638 1.379 . S
C632 N640 1.356 . S
C633 C632 1.363 . S
C633 C639 1.363 . S
C634 C635 1.363 . S
C634 C639 1.379 . S
C634 N641 1.356 . S
C635 C634 1.363 . S
C635 C638 1.363 . S
N636 C638 1.356 . S
N636 H648 0.984 . S
N636 H649 0.985 . S
N637 C639 1.356 . S
N637 H642 0.984 . S
N637 H643 0.985 . S
C638 C632 1.379 . S
C638 C635 1.363 . S
C638 N636 1.356 . S
C639 C633 1.363 . S
C639 C634 1.379 . S
C639 N637 1.356 . S
N640 C632 1.356 . S
N640 H646 0.984 . S
N640 H647 0.984 . S
N641 C634 1.356 . S
N641 H644 0.984 . S
N641 H645 0.985 . S
H642 N637 0.984 . S
H643 N637 0.985 . S
H644 N641 0.984 . S
H645 N641 0.985 . S
H646 N640 0.984 . S
H647 N640 0.984 . S
H648 N636 0.984 . S
H649 N636 0.985 . S
C650 C651 1.363 . S
C650 C656 1.379 . S
C650 N658 1.356 . S
C651 C650 1.363 . S
C651 C657 1.363 . S
C652 C653 1.363 . S
C652 C657 1.379 . S
C652 N659 1.356 1_655 S
C653 C652 1.363 . S
C653 C656 1.363 . S
N654 C656 1.356 . S
N654 H666 0.984 . S
N654 H667 0.985 . S
N655 C657 1.356 . S
N655 H660 0.984 . S
N655 H661 0.985 1_655 S
C656 C650 1.379 . S
C656 C653 1.363 . S
C656 N654 1.356 . S
C657 C651 1.363 . S
C657 C652 1.379 . S
C657 N655 1.356 . S
N658 C650 1.356 . S
N658 H664 0.984 . S
N658 H665 0.984 . S
N659 C652 1.356 1_455 S
N659 H662 0.984 . S
N659 H663 0.985 . S
H660 N655 0.984 . S
H661 N655 0.985 1_455 S
H662 N659 0.984 . S
H663 N659 0.985 . S
H664 N658 0.984 . S
H665 N658 0.984 . S
H666 N654 0.984 . S
H667 N654 0.985 . S
C668 C669 1.363 . S
C668 C674 1.379 . S
C668 N676 1.356 . S
C669 C668 1.363 . S
C669 C675 1.363 . S
C670 C671 1.363 . S
C670 C675 1.379 . S
C670 N677 1.356 . S
C671 C670 1.363 . S
C671 C674 1.363 . S
N672 C674 1.356 . S
N672 H684 0.984 . S
N672 H685 0.985 . S
N673 C675 1.356 . S
N673 H678 0.984 . S
N673 H679 0.985 . S
C674 C668 1.379 . S
C674 C671 1.363 . S
C674 N672 1.356 . S
C675 C669 1.363 . S
C675 C670 1.379 . S
C675 N673 1.356 . S
N676 C668 1.356 . S
N676 H682 0.984 . S
N676 H683 0.984 . S
N677 C670 1.356 . S
N677 H680 0.984 . S
N677 H681 0.985 . S
H678 N673 0.984 . S
H679 N673 0.985 . S
H680 N677 0.984 . S
H681 N677 0.985 . S
H682 N676 0.984 . S
H683 N676 0.984 . S
H684 N672 0.984 . S
H685 N672 0.985 . S
C686 C687 1.363 . S
C686 C692 1.379 . S
C686 N694 1.356 . S
C687 C686 1.363 . S
C687 C693 1.363 1_655 S
C688 C689 1.363 1_455 S
C688 C693 1.379 . S
C688 N695 1.356 . S
C689 C688 1.363 1_655 S
C689 C692 1.363 . S
N690 C692 1.356 . S
N690 H702 0.984 . S
N690 H703 0.985 . S
N691 C693 1.356 . S
N691 H696 0.984 . S
N691 H697 0.985 . S
C692 C686 1.379 . S
C692 C689 1.363 . S
C692 N690 1.356 . S
C693 C687 1.363 1_455 S
C693 C688 1.379 . S
C693 N691 1.356 . S
N694 C686 1.356 . S
N694 H700 0.984 . S
N694 H701 0.984 . S
N695 C688 1.356 . S
N695 H698 0.984 . S
N695 H699 0.985 . S
H696 N691 0.984 . S
H697 N691 0.985 . S
H698 N695 0.984 . S
H699 N695 0.985 . S
H700 N694 0.984 . S
H701 N694 0.984 . S
H702 N690 0.984 . S
H703 N690 0.985 . S
C704 C705 1.363 . S
C704 C710 1.379 . S
C704 N712 1.356 . S
C705 C704 1.363 . S
C705 C711 1.363 . S
C706 C707 1.363 . S
C706 C711 1.379 . S
C706 N713 1.356 . S
C707 C706 1.363 . S
C707 C710 1.363 . S
N708 C710 1.356 . S
N708 H720 0.984 . S
N708 H721 0.985 . S
N709 C711 1.356 . S
N709 H714 0.984 . S
N709 H715 0.985 . S
C710 C704 1.379 . S
C710 C707 1.363 . S
C710 N708 1.356 . S
C711 C705 1.363 . S
C711 C706 1.379 . S
C711 N709 1.356 . S
N712 C704 1.356 . S
N712 H718 0.984 . S
N712 H719 0.984 . S
N713 C706 1.356 . S
N713 H716 0.984 . S
N713 H717 0.985 . S
H714 N709 0.984 . S
H715 N709 0.985 . S
H716 N713 0.984 . S
H717 N713 0.985 . S
H718 N712 0.984 . S
H719 N712 0.984 . S
H720 N708 0.984 . S
H721 N708 0.985 . S
C722 C723 1.363 . S
C722 C728 1.379 . S
C722 N730 1.356 . S
C723 C722 1.363 . S
C723 C729 1.363 . S
C724 C725 1.363 . S
C724 C729 1.379 . S
C724 N731 1.356 . S
C725 C724 1.363 . S
C725 C728 1.363 . S
N726 C728 1.356 . S
N726 H738 0.984 . S
N726 H739 0.985 . S
N727 C729 1.356 . S
N727 H732 0.984 . S
N727 H733 0.985 . S
C728 C722 1.379 . S
C728 C725 1.363 . S
C728 N726 1.356 . S
C729 C723 1.363 . S
C729 C724 1.379 . S
C729 N727 1.356 . S
N730 C722 1.356 . S
N730 H736 0.984 . S
N730 H737 0.984 . S
N731 C724 1.356 . S
N731 H734 0.984 . S
N731 H735 0.985 . S
H732 N727 0.984 . S
H733 N727 0.985 . S
H734 N731 0.984 . S
H735 N731 0.985 . S
H736 N730 0.984 . S
H737 N730 0.984 . S
H738 N726 0.984 . S
H739 N726 0.985 . S
C740 C741 1.363 . S
C740 C746 1.379 . S
C740 N748 1.356 . S
C741 C740 1.363 . S
C741 C747 1.363 . S
C742 C743 1.363 . S
C742 C747 1.379 . S
C742 N749 1.356 . S
C743 C742 1.363 . S
C743 C746 1.363 . S
N744 C746 1.356 . S
N744 H756 0.984 . S
N744 H757 0.985 . S
N745 C747 1.356 . S
N745 H750 0.984 . S
N745 H751 0.985 . S
C746 C740 1.379 . S
C746 C743 1.363 . S
C746 N744 1.356 . S
C747 C741 1.363 . S
C747 C742 1.379 . S
C747 N745 1.356 . S
N748 C740 1.356 . S
N748 H754 0.984 . S
N748 H755 0.984 . S
N749 C742 1.356 . S
N749 H752 0.984 . S
N749 H753 0.985 1_455 S
H750 N745 0.984 . S
H751 N745 0.985 . S
H752 N749 0.984 . S
H753 N749 0.985 1_655 S
H754 N748 0.984 . S
H755 N748 0.984 . S
H756 N744 0.984 . S
H757 N744 0.985 . S
C758 C759 1.363 1_645 S
C758 C764 1.379 . S
C758 N766 1.356 1_545 S
C759 C758 1.363 1_465 S
C759 C765 1.363 . S
C760 C761 1.363 . S
C760 C765 1.379 1_545 S
C760 N767 1.356 . S
C761 C760 1.363 . S
C761 C764 1.363 1_455 S
N762 C764 1.356 . S
N762 H774 0.984 . S
N762 H775 0.985 . S
N763 C765 1.356 . S
N763 H768 0.984 . S
N763 H769 0.985 . S
C764 C758 1.379 . S
C764 C761 1.363 1_655 S
C764 N762 1.356 . S
C765 C759 1.363 . S
C765 C760 1.379 1_565 S
C765 N763 1.356 . S
N766 C758 1.356 1_565 S
N766 H772 0.970 1_565 S
N766 H773 0.984 . S
N767 C760 1.356 . S
N767 H770 0.984 . S
N767 H771 0.985 . S
H768 N763 0.984 . S
H769 N763 0.985 . S
H770 N767 0.984 . S
H771 N767 0.985 . S
H772 N766 0.970 1_545 S
H773 N766 0.984 . S
H774 N762 0.984 . S
H775 N762 0.985 . S
C776 C777 1.363 . S
C776 C782 1.379 . S
C776 N784 1.356 . S
C777 C776 1.363 . S
C777 C783 1.363 . S
C778 C779 1.363 . S
C778 C783 1.379 . S
C778 N785 1.356 . S
C779 C778 1.363 . S
C779 C782 1.363 . S
N780 C782 1.356 . S
N780 H792 0.984 . S
N780 H793 0.985 . S
N781 C783 1.356 . S
N781 H786 0.984 . S
N781 H787 0.985 . S
C782 C776 1.379 . S
C782 C779 1.363 . S
C782 N780 1.356 . S
C783 C777 1.363 . S
C783 C778 1.379 . S
C783 N781 1.356 . S
N784 C776 1.356 . S
N784 H790 0.984 . S
N784 H791 0.984 . S
N785 C778 1.356 . S
N785 H788 0.984 . S
N785 H789 0.985 . S
H786 N781 0.984 . S
H787 N781 0.985 . S
H788 N785 0.984 . S
H789 N785 0.985 . S
H790 N784 0.984 . S
H791 N784 0.984 . S
H792 N780 0.984 . S
H793 N780 0.985 . S
C794 C795 1.363 . S
C794 C800 1.379 . S
C794 N802 1.356 . S
C795 C794 1.363 . S
C795 C801 1.363 . S
C796 C797 1.363 . S
C796 C801 1.379 . S
C796 N803 1.356 . S
C797 C796 1.363 . S
C797 C800 1.363 . S
N798 C800 1.356 . S
N798 H810 0.984 . S
N798 H811 0.985 . S
N799 C801 1.356 . S
N799 H804 0.984 . S
N799 H805 0.985 . S
C800 C794 1.379 . S
C800 C797 1.363 . S
C800 N798 1.356 . S
C801 C795 1.363 . S
C801 C796 1.379 . S
C801 N799 1.356 . S
N802 C794 1.356 . S
N802 H808 0.984 . S
N802 H809 0.984 . S
N803 C796 1.356 . S
N803 H806 0.984 . S
N803 H807 0.985 . S
H804 N799 0.984 . S
H805 N799 0.985 . S
H806 N803 0.984 . S
H807 N803 0.985 . S
H808 N802 0.984 . S
H809 N802 0.984 . S
H810 N798 0.984 . S
H811 N798 0.985 . S
C812 C813 1.363 . S
C812 C818 1.379 . S
C812 N820 1.356 . S
C813 C812 1.363 . S
C813 C819 1.363 . S
C814 C815 1.363 . S
C814 C819 1.379 . S
C814 N821 1.356 . S
C815 C814 1.363 . S
C815 C818 1.363 . S
N816 C818 1.356 . S
N816 H828 0.984 1_554 S
N816 H829 0.985 . S
N817 C819 1.356 . S
N817 H822 0.984 . S
N817 H823 0.985 . S
C818 C812 1.379 . S
C818 C815 1.363 . S
C818 N816 1.356 . S
C819 C813 1.363 . S
C819 C814 1.379 . S
C819 N817 1.356 . S
N820 C812 1.356 . S
N820 H826 0.984 . S
N820 H827 0.984 . S
N821 C814 1.356 . S
N821 H824 0.984 . S
N821 H825 0.985 . S
H822 N817 0.984 . S
H823 N817 0.985 . S
H824 N821 0.984 . S
H825 N821 0.985 . S
H826 N820 0.984 . S
H827 N820 0.984 . S
H828 N816 0.984 1_556 S
H829 N816 0.985 . S
C830 C831 1.363 . S
C830 C836 1.379 . S
C830 N838 1.356 . S
C831 C830 1.363 . S
C831 C837 1.363 . S
C832 C833 1.363 . S
C832 C837 1.379 . S
C832 N839 1.356 1_655 S
C833 C832 1.363 . S
C833 C836 1.363 . S
N834 C836 1.356 . S
N834 H846 0.984 . S
N834 H847 0.985 . S
N835 C837 1.356 . S
N835 H840 0.984 . S
N835 H841 0.985 . S
C836 C830 1.379 . S
C836 C833 1.363 . S
C836 N834 1.356 . S
C837 C831 1.363 . S
C837 C832 1.379 . S
C837 N835 1.356 . S
N838 C830 1.356 . S
N838 H844 0.984 . S
N838 H845 0.984 . S
N839 C832 1.356 1_455 S
N839 H842 0.984 . S
N839 H843 0.985 . S
H840 N835 0.984 . S
H841 N835 0.985 . S
H842 N839 0.984 . S
H843 N839 0.985 . S
H844 N838 0.984 . S
H845 N838 0.984 . S
H846 N834 0.984 . S
H847 N834 0.985 . S
C848 C849 1.363 . S
C848 C854 1.379 . S
C848 N856 1.356 . S
C849 C848 1.363 . S
C849 C855 1.363 . S
C850 C851 1.363 . S
C850 C855 1.379 . S
C850 N857 1.356 . S
C851 C850 1.363 . S
C851 C854 1.363 . S
N852 C854 1.356 . S
N852 H864 0.984 . S
N852 H865 0.985 . S
N853 C855 1.356 . S
N853 H858 0.984 . S
N853 H859 0.985 . S
C854 C848 1.379 . S
C854 C851 1.363 . S
C854 N852 1.356 . S
C855 C849 1.363 . S
C855 C850 1.379 . S
C855 N853 1.356 . S
N856 C848 1.356 . S
N856 H862 0.984 . S
N856 H863 0.984 . S
N857 C850 1.356 . S
N857 H860 0.984 . S
N857 H861 0.985 . S
H858 N853 0.984 . S
H859 N853 0.985 . S
H860 N857 0.984 . S
H861 N857 0.985 . S
H862 N856 0.984 . S
H863 N856 0.984 . S
H864 N852 0.984 . S
H865 N852 0.985 . S
C866 C867 1.363 . S
C866 C872 1.379 . S
C866 N874 1.356 . S
C867 C866 1.363 . S
C867 C873 1.363 . S
C868 C869 1.363 . S
C868 C873 1.379 . S
C868 N875 1.356 . S
C869 C868 1.363 . S
C869 C872 1.363 . S
N870 C872 1.356 . S
N870 H882 0.984 . S
N870 H883 0.985 . S
N871 C873 1.356 . S
N871 H876 0.984 . S
N871 H877 0.985 . S
C872 C866 1.379 . S
C872 C869 1.363 . S
C872 N870 1.356 . S
C873 C867 1.363 . S
C873 C868 1.379 . S
C873 N871 1.356 . S
N874 C866 1.356 . S
N874 H880 0.984 . S
N874 H881 0.984 . S
N875 C868 1.356 . S
N875 H878 0.984 . S
N875 H879 0.985 . S
H876 N871 0.984 . S
H877 N871 0.985 . S
H878 N875 0.984 . S
H879 N875 0.985 . S
H880 N874 0.984 . S
H881 N874 0.984 . S
H882 N870 0.984 . S
H883 N870 0.985 . S
C884 C885 1.363 . S
C884 C890 1.379 . S
C884 N892 1.356 . S
C885 C884 1.363 . S
C885 C891 1.363 . S
C886 C887 1.363 . S
C886 C891 1.379 . S
C886 N893 1.356 1_556 S
C887 C886 1.363 . S
C887 C890 1.363 . S
N888 C890 1.356 . S
N888 H900 0.984 . S
N888 H901 0.985 . S
N889 C891 1.356 . S
N889 H894 0.984 . S
N889 H895 0.985 . S
C890 C884 1.379 . S
C890 C887 1.363 . S
C890 N888 1.356 . S
C891 C885 1.363 . S
C891 C886 1.379 . S
C891 N889 1.356 . S
N892 C884 1.356 . S
N892 H898 0.984 . S
N892 H899 0.984 . S
N893 C886 1.356 1_554 S
N893 H896 0.984 . S
N893 H897 0.985 . S
H894 N889 0.984 . S
H895 N889 0.985 . S
H896 N893 0.984 . S
H897 N893 0.985 . S
H898 N892 0.984 . S
H899 N892 0.984 . S
H900 N888 0.984 . S
H901 N888 0.985 . S
C473 C174 1.541 . S
C471 C11 1.358 . S
C491 C243 1.673 . S
C489 C25 1.628 . S
C509 C181 1.307 . S
C507 C40 1.272 . S
C527 C244 1.478 . S
C525 C59 1.425 . S
C545 C297 1.813 . S
C543 C6 1.791 . S
C563 C333 1.747 . S
C561 C21 1.675 . S
C579 C49 1.598 . S
C581 C393 1.618 . S
C599 C456 1.521 . S
C597 C68 1.433 . S
C617 C296 1.760 . S
C615 C30 1.530 . S
C633 C44 1.646 . S
C635 C340 1.659 . S
C653 C386 1.724 . S
C651 C63 1.740 . S
C671 C455 1.692 . S
C669 C2 1.670 . S
C687 C78 1.673 . S
C689 C234 1.716 . S
C707 C191 1.584 . S
C705 C97 1.499 . S
C723 C120 1.618 . S
C725 C227 1.623 . S
C741 C139 1.653 . S
C743 C190 1.670 . S
C761 C402 1.601 . S
C759 C87 1.463 . S
C779 C446 1.642 . S
C777 C101 1.604 . S
C797 C280 1.626 . S
C795 C125 1.461 . S
C813 C144 1.673 . S
C815 C349 1.769 . S
C833 C403 1.805 . S
C831 C106 1.551 . S
C851 C439 1.616 . S
C849 C116 1.592 . S
C869 C287 1.643 . S
C867 C135 1.627 . S
C885 C82 1.749 . S
C887 C350 1.733 . S
