# Generated by pormake.
# Topology ptr, (4,4)-cn, num edge types: 1
# Building blocks:
#     Node 0, Type 0, BuildingBlock: TATPOV_clean_sbu_0, # of connection points: 4
#     Node 1, Type 0, BuildingBlock: TATPOV_clean_sbu_0, # of connection points: 4
#     Node 2, Type 0, BuildingBlock: TATPOV_clean_sbu_0, # of connection points: 4
#     Node 3, Type 0, BuildingBlock: TATPOV_clean_sbu_0, # of connection points: 4
#     Node 4, Type 0, BuildingBlock: TATPOV_clean_sbu_0, # of connection points: 4
#     Node 5, Type 0, BuildingBlock: TATPOV_clean_sbu_0, # of connection points: 4
#     Node 6, Type 0, BuildingBlock: TATPOV_clean_sbu_0, # of connection points: 4
#     Node 7, Type 0, BuildingBlock: TATPOV_clean_sbu_0, # of connection points: 4
#     Node 8, Type 0, BuildingBlock: TATPOV_clean_sbu_0, # of connection points: 4
#     Node 9, Type 0, BuildingBlock: TATPOV_clean_sbu_0, # of connection points: 4
#     Node 10, Type 0, BuildingBlock: TATPOV_clean_sbu_0, # of connection points: 4
#     Node 11, Type 0, BuildingBlock: TATPOV_clean_sbu_0, # of connection points: 4
#     Node 12, Type 0, BuildingBlock: TATPOV_clean_sbu_0, # of connection points: 4
#     Node 13, Type 0, BuildingBlock: TATPOV_clean_sbu_0, # of connection points: 4
#     Node 14, Type 0, BuildingBlock: TATPOV_clean_sbu_0, # of connection points: 4
#     Node 15, Type 0, BuildingBlock: TATPOV_clean_sbu_0, # of connection points: 4
#     Node 16, Type 0, BuildingBlock: TATPOV_clean_sbu_0, # of connection points: 4
#     Node 17, Type 0, BuildingBlock: TATPOV_clean_sbu_0, # of connection points: 4
#     Node 18, Type 1, BuildingBlock: AZAVOO_clean_linker_0, # of connection points: 4
#     Node 19, Type 1, BuildingBlock: AZAVOO_clean_linker_0, # of connection points: 4
#     Node 20, Type 1, BuildingBlock: AZAVOO_clean_linker_0, # of connection points: 4
#     Node 21, Type 1, BuildingBlock: AZAVOO_clean_linker_0, # of connection points: 4
#     Node 22, Type 1, BuildingBlock: AZAVOO_clean_linker_0, # of connection points: 4
#     Node 23, Type 1, BuildingBlock: AZAVOO_clean_linker_0, # of connection points: 4
#     Node 24, Type 1, BuildingBlock: AZAVOO_clean_linker_0, # of connection points: 4
#     Node 25, Type 1, BuildingBlock: AZAVOO_clean_linker_0, # of connection points: 4
#     Node 26, Type 1, BuildingBlock: AZAVOO_clean_linker_0, # of connection points: 4
#     Node 27, Type 1, BuildingBlock: AZAVOO_clean_linker_0, # of connection points: 4
#     Node 28, Type 1, BuildingBlock: AZAVOO_clean_linker_0, # of connection points: 4
#     Node 29, Type 1, BuildingBlock: AZAVOO_clean_linker_0, # of connection points: 4
#     Node 30, Type 1, BuildingBlock: AZAVOO_clean_linker_0, # of connection points: 4
#     Node 31, Type 1, BuildingBlock: AZAVOO_clean_linker_0, # of connection points: 4
#     Node 32, Type 1, BuildingBlock: AZAVOO_clean_linker_0, # of connection points: 4
#     Node 33, Type 1, BuildingBlock: AZAVOO_clean_linker_0, # of connection points: 4
#     Node 34, Type 1, BuildingBlock: AZAVOO_clean_linker_0, # of connection points: 4
#     Node 35, Type 1, BuildingBlock: AZAVOO_clean_linker_0, # of connection points: 4
#     Edge 36, Type (0, 1), BuildingBlock: XIVTED_clean_linker_0, # of connection points: 2
#     Edge 37, Type (0, 1), BuildingBlock: XIVTED_clean_linker_0, # of connection points: 2
#     Edge 38, Type (0, 1), BuildingBlock: XIVTED_clean_linker_0, # of connection points: 2
#     Edge 39, Type (0, 1), BuildingBlock: XIVTED_clean_linker_0, # of connection points: 2
#     Edge 40, Type (0, 1), BuildingBlock: XIVTED_clean_linker_0, # of connection points: 2
#     Edge 41, Type (0, 1), BuildingBlock: XIVTED_clean_linker_0, # of connection points: 2
#     Edge 42, Type (0, 1), BuildingBlock: XIVTED_clean_linker_0, # of connection points: 2
#     Edge 43, Type (0, 1), BuildingBlock: XIVTED_clean_linker_0, # of connection points: 2
#     Edge 44, Type (0, 1), BuildingBlock: XIVTED_clean_linker_0, # of connection points: 2
#     Edge 45, Type (0, 1), BuildingBlock: XIVTED_clean_linker_0, # of connection points: 2
#     Edge 46, Type (0, 1), BuildingBlock: XIVTED_clean_linker_0, # of connection points: 2
#     Edge 47, Type (0, 1), BuildingBlock: XIVTED_clean_linker_0, # of connection points: 2
#     Edge 48, Type (0, 1), BuildingBlock: XIVTED_clean_linker_0, # of connection points: 2
#     Edge 49, Type (0, 1), BuildingBlock: XIVTED_clean_linker_0, # of connection points: 2
#     Edge 50, Type (0, 1), BuildingBlock: XIVTED_clean_linker_0, # of connection points: 2
#     Edge 51, Type (0, 1), BuildingBlock: XIVTED_clean_linker_0, # of connection points: 2
#     Edge 52, Type (0, 1), BuildingBlock: XIVTED_clean_linker_0, # of connection points: 2
#     Edge 53, Type (0, 1), BuildingBlock: XIVTED_clean_linker_0, # of connection points: 2
#     Edge 54, Type (0, 1), BuildingBlock: XIVTED_clean_linker_0, # of connection points: 2
#     Edge 55, Type (0, 1), BuildingBlock: XIVTED_clean_linker_0, # of connection points: 2
#     Edge 56, Type (0, 1), BuildingBlock: XIVTED_clean_linker_0, # of connection points: 2
#     Edge 57, Type (0, 1), BuildingBlock: XIVTED_clean_linker_0, # of connection points: 2
#     Edge 58, Type (0, 1), BuildingBlock: XIVTED_clean_linker_0, # of connection points: 2
#     Edge 59, Type (0, 1), BuildingBlock: XIVTED_clean_linker_0, # of connection points: 2
#     Edge 60, Type (0, 1), BuildingBlock: XIVTED_clean_linker_0, # of connection points: 2
#     Edge 61, Type (0, 1), BuildingBlock: XIVTED_clean_linker_0, # of connection points: 2
#     Edge 62, Type (0, 1), BuildingBlock: XIVTED_clean_linker_0, # of connection points: 2
#     Edge 63, Type (0, 1), BuildingBlock: XIVTED_clean_linker_0, # of connection points: 2
#     Edge 64, Type (0, 1), BuildingBlock: XIVTED_clean_linker_0, # of connection points: 2
#     Edge 65, Type (0, 1), BuildingBlock: XIVTED_clean_linker_0, # of connection points: 2
#     Edge 66, Type (0, 1), BuildingBlock: XIVTED_clean_linker_0, # of connection points: 2
#     Edge 67, Type (0, 1), BuildingBlock: XIVTED_clean_linker_0, # of connection points: 2
#     Edge 68, Type (0, 1), BuildingBlock: XIVTED_clean_linker_0, # of connection points: 2
#     Edge 69, Type (0, 1), BuildingBlock: XIVTED_clean_linker_0, # of connection points: 2
#     Edge 70, Type (0, 1), BuildingBlock: XIVTED_clean_linker_0, # of connection points: 2
#     Edge 71, Type (0, 1), BuildingBlock: XIVTED_clean_linker_0, # of connection points: 2
#     Edge 72, Type (0, 1), BuildingBlock: XIVTED_clean_linker_0, # of connection points: 2
#     Edge 73, Type (0, 1), BuildingBlock: XIVTED_clean_linker_0, # of connection points: 2
#     Edge 74, Type (0, 1), BuildingBlock: XIVTED_clean_linker_0, # of connection points: 2
#     Edge 75, Type (0, 1), BuildingBlock: XIVTED_clean_linker_0, # of connection points: 2
#     Edge 76, Type (0, 1), BuildingBlock: XIVTED_clean_linker_0, # of connection points: 2
#     Edge 77, Type (0, 1), BuildingBlock: XIVTED_clean_linker_0, # of connection points: 2
#     Edge 78, Type (0, 1), BuildingBlock: XIVTED_clean_linker_0, # of connection points: 2
#     Edge 79, Type (0, 1), BuildingBlock: XIVTED_clean_linker_0, # of connection points: 2
#     Edge 80, Type (0, 1), BuildingBlock: XIVTED_clean_linker_0, # of connection points: 2
#     Edge 81, Type (0, 1), BuildingBlock: XIVTED_clean_linker_0, # of connection points: 2
#     Edge 82, Type (0, 1), BuildingBlock: XIVTED_clean_linker_0, # of connection points: 2
#     Edge 83, Type (0, 1), BuildingBlock: XIVTED_clean_linker_0, # of connection points: 2
#     Edge 84, Type (0, 1), BuildingBlock: XIVTED_clean_linker_0, # of connection points: 2
#     Edge 85, Type (0, 1), BuildingBlock: XIVTED_clean_linker_0, # of connection points: 2
#     Edge 86, Type (0, 1), BuildingBlock: XIVTED_clean_linker_0, # of connection points: 2
#     Edge 87, Type (0, 1), BuildingBlock: XIVTED_clean_linker_0, # of connection points: 2
#     Edge 88, Type (0, 1), BuildingBlock: XIVTED_clean_linker_0, # of connection points: 2
#     Edge 89, Type (0, 1), BuildingBlock: XIVTED_clean_linker_0, # of connection points: 2
#     Edge 90, Type (0, 1), BuildingBlock: XIVTED_clean_linker_0, # of connection points: 2
#     Edge 91, Type (0, 1), BuildingBlock: XIVTED_clean_linker_0, # of connection points: 2
#     Edge 92, Type (0, 1), BuildingBlock: XIVTED_clean_linker_0, # of connection points: 2
#     Edge 93, Type (0, 1), BuildingBlock: XIVTED_clean_linker_0, # of connection points: 2
#     Edge 94, Type (0, 1), BuildingBlock: XIVTED_clean_linker_0, # of connection points: 2
#     Edge 95, Type (0, 1), BuildingBlock: XIVTED_clean_linker_0, # of connection points: 2
#     Edge 96, Type (0, 1), BuildingBlock: XIVTED_clean_linker_0, # of connection points: 2
#     Edge 97, Type (0, 1), BuildingBlock: XIVTED_clean_linker_0, # of connection points: 2
#     Edge 98, Type (0, 1), BuildingBlock: XIVTED_clean_linker_0, # of connection points: 2
#     Edge 99, Type (0, 1), BuildingBlock: XIVTED_clean_linker_0, # of connection points: 2
#     Edge 100, Type (0, 1), BuildingBlock: XIVTED_clean_linker_0, # of connection points: 2
#     Edge 101, Type (0, 1), BuildingBlock: XIVTED_clean_linker_0, # of connection points: 2
#     Edge 102, Type (0, 1), BuildingBlock: XIVTED_clean_linker_0, # of connection points: 2
#     Edge 103, Type (0, 1), BuildingBlock: XIVTED_clean_linker_0, # of connection points: 2
#     Edge 104, Type (0, 1), BuildingBlock: XIVTED_clean_linker_0, # of connection points: 2
#     Edge 105, Type (0, 1), BuildingBlock: XIVTED_clean_linker_0, # of connection points: 2
#     Edge 106, Type (0, 1), BuildingBlock: XIVTED_clean_linker_0, # of connection points: 2
#     Edge 107, Type (0, 1), BuildingBlock: XIVTED_clean_linker_0, # of connection points: 2
# Relax obj value: 0.094
# Max RMSD: 0.270
# Mean RMSD: 0.172
data_MOF--net-ptr--node1-TATPOV_clean_sbu_0--node2-AZAVOO_clean_linker_0--edge1-XIVTED_clean_linker_0
_symmetry_space_group_name_H-M    P1
_symmetry_Int_Tables_number       1
_symmetry_cell_setting            triclinic
loop_
_symmetry_equiv_pos_as_xyz
'x, y, z'
_cell_length_a     81.576437
_cell_length_b     81.755157
_cell_length_c     68.199151
_cell_angle_alpha  92.415213
_cell_angle_beta   93.256082
_cell_angle_gamma 121.55548
loop_
_atom_site_label
_atom_site_type_symbol
_atom_site_fract_x
_atom_site_fract_y
_atom_site_fract_z
_atom_type_partial_charge
Zn0 Zn 0.96013 0.36425 0.00833 0.0
Zn1 Zn 0.9927 0.36509 0.01873 0.0
O2 O 0.97173 0.33649 0.01085 0.0
O3 O 0.94444 0.33543 0.00466 0.0
O4 O 0.01513 0.36293 0.02943 0.0
O5 O 0.96225 0.37861 0.03398 0.0
O6 O 0.98855 0.37847 0.04269 0.0
C7 C 0.9536 0.32687 0.00588 0.0
C8 C 0.99095 0.38465 0.98264 0.0
O9 O 0.0013 0.3815 0.99475 0.0
O10 O 0.97346 0.37851 0.98521 0.0
C11 C 0.01782 0.34993 0.02238 0.0
O12 O 0.00704 0.33899 0.00656 0.0
C13 C 0.97623 0.38299 0.04656 0.0
Zn14 Zn 0.6143 0.57948 0.04435 0.0
Zn15 Zn 0.6233 0.61339 0.06227 0.0
O16 O 0.64829 0.61937 0.05067 0.0
O17 O 0.6409 0.59216 0.03454 0.0
O18 O 0.63135 0.63928 0.07559 0.0
O19 O 0.60948 0.56804 0.07047 0.0
O20 O 0.61485 0.59526 0.08478 0.0
C21 C 0.65302 0.60978 0.03972 0.0
C22 C 0.59051 0.59329 0.029 0.0
O23 O 0.60162 0.60791 0.04105 0.0
O24 O 0.59245 0.5789 0.02812 0.0
C25 C 0.6358 0.65304 0.06478 0.0
O26 O 0.63424 0.64964 0.04555 0.0
C27 C 0.61015 0.5778 0.08574 0.0
Zn28 Zn 0.37644 0.961 0.02463 0.0
Zn29 Zn 0.38461 0.9978 0.02407 0.0
O30 O 0.3559 0.98124 0.02823 0.0
O31 O 0.3484 0.95123 0.02853 0.0
O32 O 0.38739 0.02361 0.02202 0.0
O33 O 0.38471 0.96247 0.99697 0.0
O34 O 0.39257 0.99271 0.99753 0.0
C35 C 0.34349 0.96356 0.02973 0.0
C36 C 0.40555 0.98863 0.05577 0.0
O37 O 0.40259 0.00088 0.04802 0.0
O38 O 0.39647 0.97125 0.04849 0.0
C39 C 0.379 0.02881 0.03366 0.0
O40 O 0.37057 0.01823 0.04816 0.0
C41 C 0.39148 0.97806 0.98872 0.0
Zn42 Zn 0.0412 0.63534 0.05612 0.0
Zn43 Zn 0.00862 0.63528 0.04797 0.0
O44 O 0.02943 0.6629 0.05907 0.0
O45 O 0.05543 0.66256 0.0687 0.0
O46 O 0.98628 0.6382 0.03844 0.0
O47 O 0.04262 0.62934 0.02755 0.0
O48 O 0.01342 0.62441 0.02255 0.0
C49 C 0.04664 0.67147 0.06725 0.0
C50 C 0.00793 0.60786 0.07638 0.0
O51 O 0.99927 0.61576 0.06911 0.0
O52 O 0.02489 0.61314 0.07228 0.0
C53 C 0.98476 0.65205 0.04523 0.0
O54 O 0.99669 0.66356 0.06021 0.0
C55 C 0.02741 0.62355 0.01628 0.0
Zn56 Zn 0.37063 0.41982 0.01826 0.0
Zn57 Zn 0.37065 0.38848 0.00609 0.0
O58 O 0.34283 0.37839 0.01316 0.0
O59 O 0.34266 0.40421 0.02311 0.0
O60 O 0.36819 0.36393 0.99522 0.0
O61 O 0.37878 0.43118 0.99248 0.0
O62 O 0.38041 0.40601 0.98313 0.0
C63 C 0.33396 0.38609 0.01988 0.0
C64 C 0.39639 0.41277 0.04275 0.0
O65 O 0.39018 0.39795 0.03071 0.0
O66 O 0.39051 0.42421 0.04023 0.0
C67 C 0.36017 0.34919 0.00499 0.0
O68 O 0.35489 0.35078 0.02247 0.0
C69 C 0.38262 0.42225 0.97976 0.0
Zn70 Zn 0.61842 0.04148 0.0434 0.0
Zn71 Zn 0.61692 0.0081 0.04861 0.0
O72 O 0.64367 0.02579 0.03974 0.0
O73 O 0.64512 0.05271 0.03362 0.0
O74 O 0.61921 0.98582 0.05588 0.0
O75 O 0.61469 0.04447 0.07225 0.0
O76 O 0.61102 0.01605 0.07489 0.0
C77 C 0.65275 0.04262 0.03387 0.0
C78 C 0.58814 0.00765 0.01826 0.0
O79 O 0.59539 0.99861 0.026 0.0
O80 O 0.59485 0.0252 0.0238 0.0
C81 C 0.62239 0.97549 0.04417 0.0
O82 O 0.62218 0.97769 0.02521 0.0
C83 C 0.61098 0.03053 0.08246 0.0
Zn84 Zn 0.63257 0.7069 0.3367 0.0
Zn85 Zn 0.66322 0.70529 0.35119 0.0
O86 O 0.64228 0.6775 0.34086 0.0
O87 O 0.6166 0.67815 0.33063 0.0
O88 O 0.68394 0.70149 0.36368 0.0
O89 O 0.63233 0.71931 0.36289 0.0
O90 O 0.65674 0.71707 0.37454 0.0
C91 C 0.62483 0.66882 0.33337 0.0
C92 C 0.66724 0.72823 0.31601 0.0
O93 O 0.67534 0.72336 0.32906 0.0
O94 O 0.64957 0.72279 0.31612 0.0
C95 C 0.68706 0.68901 0.35604 0.0
O96 O 0.67783 0.67975 0.33897 0.0
C97 C 0.64442 0.72192 0.37703 0.0
Zn98 Zn 0.27153 0.90754 0.37967 0.0
Zn99 Zn 0.28356 0.94349 0.39443 0.0
O100 O 0.30797 0.94632 0.38405 0.0
O101 O 0.29789 0.91746 0.37008 0.0
O102 O 0.29294 0.9703 0.40621 0.0
O103 O 0.26664 0.8983 0.40689 0.0
O104 O 0.27371 0.92713 0.41818 0.0
C105 C 0.31128 0.93487 0.37431 0.0
C106 C 0.25089 0.92348 0.36105 0.0
O107 O 0.263 0.93849 0.37216 0.0
O108 O 0.25081 0.908 0.36216 0.0
C109 C 0.30336 0.98494 0.39693 0.0
O110 O 0.30763 0.98242 0.37921 0.0
C111 C 0.26816 0.90973 0.42099 0.0
Zn112 Zn 0.06283 0.30361 0.36522 0.0
Zn113 Zn 0.06614 0.33778 0.36079 0.0
O114 O 0.03858 0.32054 0.36866 0.0
O115 O 0.0362 0.29311 0.37425 0.0
O116 O 0.06708 0.36241 0.35614 0.0
O117 O 0.0659 0.30093 0.33635 0.0
O118 O 0.07115 0.33001 0.33369 0.0
C119 C 0.02891 0.3035 0.37397 0.0
C120 C 0.09363 0.33528 0.39106 0.0
O121 O 0.08721 0.34502 0.38338 0.0
O122 O 0.08621 0.31768 0.38524 0.0
C123 C 0.05859 0.36831 0.3668 0.0
O124 O 0.05017 0.35883 0.38191 0.0
C125 C 0.06996 0.31488 0.32605 0.0
Zn126 Zn 0.71127 0.96472 0.39922 0.0
Zn127 Zn 0.67891 0.96237 0.38407 0.0
O128 O 0.69746 0.99107 0.39325 0.0
O129 O 0.7247 0.99352 0.40392 0.0
O130 O 0.65634 0.96264 0.37078 0.0
O131 O 0.71272 0.95169 0.37415 0.0
O132 O 0.68721 0.95156 0.36149 0.0
C133 C 0.71495 0.00126 0.40064 0.0
C134 C 0.67779 0.94211 0.42079 0.0
O135 O 0.66846 0.94506 0.4072 0.0
O136 O 0.69578 0.94914 0.42058 0.0
C137 C 0.64957 0.97186 0.37893 0.0
O138 O 0.65651 0.98008 0.39689 0.0
C139 C 0.70043 0.94785 0.35975 0.0
Zn140 Zn 0.04893 0.75978 0.36163 0.0
Zn141 Zn 0.04668 0.72803 0.34554 0.0
O142 O 0.01913 0.71842 0.35291 0.0
O143 O 0.02047 0.74439 0.36538 0.0
O144 O 0.0436 0.7039 0.33243 0.0
O145 O 0.05834 0.77308 0.33703 0.0
O146 O 0.05662 0.7471 0.32383 0.0
C147 C 0.0109 0.72645 0.36051 0.0
C148 C 0.07391 0.74971 0.38259 0.0
O149 O 0.06654 0.7355 0.36953 0.0
O150 O 0.06875 0.76187 0.38234 0.0
C151 C 0.03561 0.68846 0.34112 0.0
O152 O 0.03024 0.6888 0.35886 0.0
C153 C 0.06065 0.76435 0.32272 0.0
Zn154 Zn 0.2875 0.37584 0.37624 0.0
Zn155 Zn 0.28195 0.34074 0.38089 0.0
O156 O 0.31 0.35743 0.3744 0.0
O157 O 0.3156 0.38663 0.37208 0.0
O158 O 0.28142 0.31666 0.38711 0.0
O159 O 0.27975 0.37724 0.40355 0.0
O160 O 0.27533 0.34859 0.40699 0.0
C161 C 0.32147 0.37503 0.37155 0.0
C162 C 0.25854 0.34477 0.34744 0.0
O163 O 0.26222 0.33375 0.35691 0.0
O164 O 0.26726 0.36261 0.35289 0.0
C165 C 0.28677 0.30829 0.37529 0.0
O166 O 0.29054 0.31408 0.35751 0.0
C167 C 0.27514 0.36322 0.41392 0.0
Zn168 Zn 0.2932 0.03292 0.67536 0.0
Zn169 Zn 0.32812 0.03881 0.68666 0.0
O170 O 0.3098 0.00933 0.68058 0.0
O171 O 0.28069 0.00422 0.67403 0.0
O172 O 0.35248 0.04044 0.69803 0.0
O173 O 0.29347 0.04698 0.7004 0.0
O174 O 0.32189 0.05138 0.7097 0.0
C175 C 0.29171 0.99777 0.67635 0.0
C176 C 0.32334 0.05522 0.64927 0.0
O177 O 0.33477 0.05403 0.66188 0.0
O178 O 0.30553 0.04723 0.6517 0.0
C179 C 0.35734 0.029 0.69124 0.0
O180 O 0.34753 0.0175 0.67535 0.0
C181 C 0.30787 0.05353 0.71307 0.0
Zn182 Zn 0.94607 0.23857 0.70589 0.0
Zn183 Zn 0.95347 0.27229 0.72307 0.0
O184 O 0.97936 0.27954 0.71271 0.0
O185 O 0.97326 0.2524 0.69747 0.0
O186 O 0.95935 0.29756 0.73632 0.0
O187 O 0.94062 0.22709 0.73197 0.0
O188 O 0.94519 0.25421 0.74565 0.0
C189 C 0.98485 0.27017 0.70251 0.0
C190 C 0.92186 0.25092 0.68857 0.0
O191 O 0.93219 0.26562 0.70079 0.0
O192 O 0.92438 0.23689 0.68826 0.0
C193 C 0.95932 0.3103 0.72628 0.0
O194 O 0.95512 0.30674 0.7071 0.0
C195 C 0.94085 0.23689 0.74697 0.0
Zn196 Zn 0.73447 0.64001 0.70019 0.0
Zn197 Zn 0.73201 0.67078 0.6922 0.0
O198 O 0.70596 0.65178 0.70191 0.0
O199 O 0.70795 0.62716 0.71035 0.0
O200 O 0.72727 0.69147 0.68437 0.0
O201 O 0.73708 0.63555 0.67143 0.0
O202 O 0.738 0.66238 0.6661 0.0
C203 C 0.69854 0.63549 0.70899 0.0
C204 C 0.76303 0.67597 0.72315 0.0
O205 O 0.75409 0.68296 0.71446 0.0
O206 O 0.75804 0.65862 0.7189 0.0
C207 C 0.72251 0.70018 0.69648 0.0
O208 O 0.72253 0.69703 0.71521 0.0
C209 C 0.73893 0.648 0.65985 0.0
Zn210 Zn 0.37616 0.29518 0.73024 0.0
Zn211 Zn 0.34524 0.2973 0.71813 0.0
O212 O 0.36592 0.32448 0.73039 0.0
O213 O 0.3909 0.32292 0.74132 0.0
O214 O 0.32386 0.30091 0.7069 0.0
O215 O 0.37869 0.288 0.70263 0.0
O216 O 0.35218 0.28757 0.69332 0.0
C217 C 0.38289 0.33252 0.73908 0.0
C218 C 0.34069 0.26888 0.74774 0.0
O219 O 0.33327 0.27699 0.73836 0.0
O220 O 0.35808 0.27387 0.74626 0.0
C221 C 0.32195 0.31455 0.71356 0.0
O222 O 0.33306 0.32567 0.72913 0.0
C223 C 0.36572 0.28488 0.6893 0.0
Zn224 Zn 0.72404 0.08992 0.68672 0.0
Zn225 Zn 0.71603 0.05562 0.67171 0.0
O226 O 0.69051 0.05015 0.68219 0.0
O227 O 0.69733 0.07822 0.69555 0.0
O228 O 0.70854 0.02939 0.65954 0.0
O229 O 0.72931 0.10033 0.66029 0.0
O230 O 0.72523 0.07289 0.64828 0.0
C231 C 0.6854 0.06039 0.69144 0.0
C232 C 0.74809 0.07755 0.70515 0.0
O233 O 0.73742 0.06219 0.69386 0.0
O234 O 0.74566 0.0916 0.70441 0.0
C235 C 0.69908 0.0146 0.669 0.0
O236 O 0.695 0.01682 0.6869 0.0
C237 C 0.72947 0.09005 0.646 0.0
Zn238 Zn 0.95054 0.71037 0.70785 0.0
Zn239 Zn 0.94427 0.67532 0.71377 0.0
O240 O 0.97166 0.69009 0.70504 0.0
O241 O 0.97685 0.71859 0.69903 0.0
O242 O 0.94238 0.65089 0.72102 0.0
O243 O 0.94695 0.71478 0.73626 0.0
O244 O 0.94009 0.68532 0.74002 0.0
C245 C 0.98248 0.7068 0.69934 0.0
C246 C 0.91859 0.6787 0.68231 0.0
O247 O 0.92334 0.66802 0.69092 0.0
O248 O 0.92749 0.69661 0.68746 0.0
C249 C 0.94468 0.63997 0.70919 0.0
O250 O 0.94656 0.64355 0.69058 0.0
C251 C 0.9419 0.70094 0.74701 0.0
H252 H 0.15145 0.32097 0.0099 0.0
H253 H 0.2468 0.27506 0.17635 0.0
H254 H 0.14619 0.33307 0.11936 0.0
H255 H 0.12443 0.34119 0.10267 0.0
H256 H 0.07768 0.28176 0.10118 0.0
H257 H 0.09981 0.27373 0.1179 0.0
H258 H 0.17181 0.3292 0.09487 0.0
H259 H 0.1676 0.33142 0.05948 0.0
H260 H 0.12104 0.27163 0.05286 0.0
H261 H 0.12557 0.26958 0.08828 0.0
H262 H 0.20056 0.33103 0.12535 0.0
H263 H 0.22765 0.34117 0.10569 0.0
H264 H 0.19841 0.28439 0.07467 0.0
H265 H 0.17074 0.27449 0.09437 0.0
H266 H 0.20164 0.32316 0.16668 0.0
H267 H 0.22929 0.32179 0.18019 0.0
H268 H 0.20366 0.26436 0.15161 0.0
H269 H 0.17599 0.26585 0.13838 0.0
H270 H 0.1659 0.32554 0.18224 0.0
H271 H 0.17852 0.33125 0.21657 0.0
H272 H 0.17298 0.2756 0.21342 0.0
H273 H 0.15867 0.26931 0.17932 0.0
H274 H 0.1362 0.32666 0.15748 0.0
H275 H 0.11804 0.32938 0.18325 0.0
H276 H 0.09971 0.27149 0.1975 0.0
H277 H 0.11682 0.26851 0.17078 0.0
O278 O 0.15288 0.31977 0.02385 0.0
O279 O 0.12893 0.28904 0.02127 0.0
O280 O 0.2486 0.30555 0.18558 0.0
O281 O 0.23605 0.276 0.17117 0.0
C282 C 0.13865 0.2981 0.12808 0.0
C283 C 0.15166 0.29775 0.11551 0.0
C284 C 0.16749 0.29687 0.12341 0.0
C285 C 0.16977 0.29517 0.14373 0.0
C286 C 0.15664 0.29522 0.15642 0.0
C287 C 0.14097 0.29661 0.14853 0.0
C288 C 0.12452 0.30285 0.11996 0.0
C289 C 0.13116 0.32186 0.1157 0.0
C290 C 0.1187 0.32647 0.10621 0.0
C291 C 0.09931 0.31213 0.10063 0.0
C292 C 0.09258 0.2931 0.10519 0.0
C293 C 0.1051 0.2885 0.11487 0.0
C294 C 0.14912 0.29917 0.09405 0.0
C295 C 0.16082 0.31657 0.08571 0.0
C296 C 0.15832 0.31781 0.06551 0.0
C297 C 0.14401 0.30168 0.05332 0.0
C298 C 0.13223 0.28431 0.06181 0.0
C299 C 0.13477 0.28309 0.08201 0.0
C300 C 0.18385 0.30201 0.11141 0.0
C301 C 0.20006 0.32071 0.11443 0.0
C302 C 0.21559 0.32642 0.10324 0.0
C303 C 0.21539 0.31348 0.08882 0.0
C304 C 0.199 0.29468 0.08567 0.0
C305 C 0.18327 0.28897 0.09692 0.0
C306 C 0.18672 0.2945 0.15177 0.0
C307 C 0.20198 0.31026 0.16346 0.0
C308 C 0.21778 0.30946 0.1711 0.0
C309 C 0.21866 0.29292 0.16703 0.0
C310 C 0.20343 0.27727 0.15508 0.0
C311 C 0.18761 0.27808 0.14749 0.0
C312 C 0.16128 0.29698 0.17817 0.0
C313 C 0.16668 0.31424 0.18912 0.0
C314 C 0.1743 0.31764 0.20871 0.0
C315 C 0.17731 0.30412 0.2177 0.0
C316 C 0.17087 0.28634 0.20706 0.0
C317 C 0.16277 0.28275 0.18751 0.0
C318 C 0.12764 0.29728 0.16203 0.0
C319 C 0.12761 0.31429 0.16561 0.0
C320 C 0.11751 0.31594 0.18065 0.0
C321 C 0.10754 0.30074 0.19267 0.0
C322 C 0.10695 0.28342 0.18844 0.0
C323 C 0.11682 0.2817 0.17321 0.0
C324 C 0.14142 0.30304 0.03185 0.0
C325 C 0.23537 0.29195 0.17518 0.0
H326 H 0.66507 0.82088 0.02401 0.0
H327 H 0.71399 0.97343 0.19239 0.0
H328 H 0.66101 0.81269 0.13007 0.0
H329 H 0.65296 0.78105 0.11624 0.0
H330 H 0.71168 0.79636 0.13147 0.0
H331 H 0.7199 0.82852 0.14482 0.0
H332 H 0.66046 0.83747 0.10705 0.0
H333 H 0.65664 0.82859 0.07167 0.0
H334 H 0.71761 0.84942 0.07333 0.0
H335 H 0.72126 0.85844 0.10871 0.0
H336 H 0.65781 0.86177 0.12953 0.0
H337 H 0.64677 0.87868 0.10901 0.0
H338 H 0.70582 0.91999 0.09887 0.0
H339 H 0.71675 0.90243 0.11882 0.0
H340 H 0.67065 0.87782 0.17834 0.0
H341 H 0.67061 0.90614 0.19147 0.0
H342 H 0.72612 0.94311 0.1695 0.0
H343 H 0.72605 0.91466 0.15667 0.0
H344 H 0.67781 0.84783 0.20106 0.0
H345 H 0.68045 0.86073 0.23498 0.0
H346 H 0.73471 0.91171 0.22556 0.0
H347 H 0.73258 0.89832 0.19196 0.0
H348 H 0.6711 0.81341 0.1743 0.0
H349 H 0.67251 0.79267 0.19812 0.0
H350 H 0.73297 0.8349 0.21394 0.0
H351 H 0.73148 0.85562 0.18969 0.0
O352 O 0.66694 0.82462 0.03799 0.0
O353 O 0.69836 0.83552 0.03964 0.0
O354 O 0.6851 0.94235 0.19835 0.0
O355 O 0.71358 0.96199 0.18725 0.0
C356 C 0.69572 0.8425 0.14534 0.0
C357 C 0.69366 0.85415 0.13189 0.0
C358 C 0.69433 0.87096 0.13889 0.0
C359 C 0.69856 0.877 0.15917 0.0
C360 C 0.70176 0.86601 0.17261 0.0
C361 C 0.69999 0.84851 0.16574 0.0
C362 C 0.69113 0.82304 0.13806 0.0
C363 C 0.67222 0.80933 0.13024 0.0
C364 C 0.66763 0.79127 0.12241 0.0
C365 C 0.68176 0.7864 0.12261 0.0
C366 C 0.70056 0.79984 0.13114 0.0
C367 C 0.70526 0.81814 0.13871 0.0
C368 C 0.6912 0.84887 0.11037 0.0
C369 C 0.67302 0.84036 0.0997 0.0
C370 C 0.67086 0.83517 0.07951 0.0
C371 C 0.68683 0.83835 0.06965 0.0
C372 C 0.70502 0.84682 0.08045 0.0
C373 C 0.70715 0.852 0.10064 0.0
C374 C 0.68803 0.88081 0.12546 0.0
C375 C 0.66832 0.87424 0.12253 0.0
C376 C 0.66205 0.88385 0.11083 0.0
C377 C 0.67547 0.90051 0.10233 0.0
C378 C 0.69524 0.9071 0.10525 0.0
C379 C 0.70147 0.89715 0.11658 0.0
C380 C 0.69832 0.89423 0.16652 0.0
C381 C 0.68276 0.89206 0.17635 0.0
C382 C 0.68278 0.90825 0.18384 0.0
C383 C 0.69837 0.9269 0.18153 0.0
C384 C 0.71388 0.92898 0.17152 0.0
C385 C 0.71386 0.91277 0.1641 0.0
C386 C 0.70503 0.87211 0.19403 0.0
C387 C 0.69063 0.86143 0.20653 0.0
C388 C 0.69208 0.86884 0.22582 0.0
C389 C 0.70771 0.88721 0.23268 0.0
C390 C 0.72251 0.89753 0.22048 0.0
C391 C 0.72131 0.8899 0.20138 0.0
C392 C 0.70124 0.83589 0.18003 0.0
C393 C 0.68474 0.81806 0.18264 0.0
C394 C 0.68559 0.80623 0.19625 0.0
C395 C 0.70293 0.81206 0.20775 0.0
C396 C 0.71944 0.83004 0.20529 0.0
C397 C 0.71861 0.84184 0.19145 0.0
C398 C 0.68447 0.83278 0.04821 0.0
C399 C 0.69854 0.94415 0.18957 0.0
H400 H 0.1328 0.84323 0.02232 0.0
H401 H 0.27761 0.00168 0.17226 0.0
H402 H 0.1171 0.85081 0.12541 0.0
H403 H 0.09459 0.81665 0.11482 0.0
H404 H 0.1343 0.80316 0.14352 0.0
H405 H 0.15604 0.83701 0.15465 0.0
H406 H 0.14912 0.88672 0.09866 0.0
H407 H 0.14052 0.87204 0.06472 0.0
H408 H 0.15906 0.83323 0.0809 0.0
H409 H 0.16783 0.8482 0.1147 0.0
H410 H 0.19049 0.92771 0.11303 0.0
H411 H 0.21455 0.94041 0.08861 0.0
H412 H 0.22607 0.89528 0.09814 0.0
H413 H 0.20246 0.88298 0.1223 0.0
H414 H 0.18284 0.93667 0.16299 0.0
H415 H 0.20959 0.97007 0.17021 0.0
H416 H 0.25023 0.95242 0.16036 0.0
H417 H 0.22339 0.91908 0.15343 0.0
H418 H 0.15317 0.90152 0.19512 0.0
H419 H 0.16228 0.91138 0.23059 0.0
H420 H 0.21751 0.91748 0.22425 0.0
H421 H 0.20801 0.90656 0.18938 0.0
H422 H 0.11993 0.85948 0.17021 0.0
H423 H 0.10256 0.8394 0.19655 0.0
H424 H 0.15555 0.84582 0.22181 0.0
H425 H 0.17265 0.86505 0.19498 0.0
O426 O 0.13635 0.84886 0.03581 0.0
O427 O 0.14598 0.82917 0.04491 0.0
O428 O 0.24528 0.99692 0.17442 0.0
O429 O 0.26676 0.9886 0.16946 0.0
C430 C 0.15301 0.86706 0.14503 0.0
C431 C 0.16396 0.87739 0.12975 0.0
C432 C 0.18034 0.89611 0.13403 0.0
C433 C 0.18477 0.90524 0.15331 0.0
C434 C 0.17374 0.89497 0.16871 0.0
C435 C 0.15805 0.87567 0.16458 0.0
C436 C 0.13811 0.8463 0.14084 0.0
C437 C 0.12062 0.84033 0.12974 0.0
C438 C 0.10791 0.82084 0.12354 0.0
C439 C 0.11263 0.80707 0.12817 0.0
C440 C 0.12992 0.81318 0.13994 0.0
C441 C 0.14245 0.83257 0.14629 0.0
C442 C 0.15884 0.86835 0.10918 0.0
C443 C 0.15129 0.87504 0.09483 0.0
C444 C 0.14639 0.86662 0.07547 0.0
C445 C 0.14902 0.85139 0.07011 0.0
C446 C 0.15676 0.84486 0.08454 0.0
C447 C 0.16169 0.85332 0.10388 0.0
C448 C 0.19462 0.90432 0.11923 0.0
C449 C 0.19823 0.92062 0.10972 0.0
C450 C 0.21192 0.92782 0.09584 0.0
C451 C 0.22193 0.91862 0.09124 0.0
C452 C 0.21825 0.90239 0.10096 0.0
C453 C 0.20483 0.89539 0.11484 0.0
C454 C 0.20115 0.92549 0.15747 0.0
C455 C 0.19753 0.94006 0.16237 0.0
C456 C 0.21283 0.95912 0.16649 0.0
C457 C 0.23206 0.96393 0.1658 0.0
C458 C 0.23561 0.94924 0.16095 0.0
C459 C 0.2203 0.93019 0.15687 0.0
C460 C 0.18 0.90352 0.18952 0.0
C461 C 0.16732 0.90522 0.20136 0.0
C462 C 0.1725 0.91083 0.22154 0.0
C463 C 0.19065 0.91536 0.23001 0.0
C464 C 0.20358 0.91441 0.21799 0.0
C465 C 0.19821 0.9083 0.19802 0.0
C466 C 0.1476 0.86392 0.18079 0.0
C467 C 0.12775 0.85644 0.18136 0.0
C468 C 0.11787 0.84499 0.19632 0.0
C469 C 0.1278 0.84118 0.21114 0.0
C470 C 0.14765 0.84871 0.2106 0.0
C471 C 0.15742 0.85975 0.19538 0.0
C472 C 0.14372 0.84243 0.04955 0.0
C473 C 0.24837 0.98416 0.17016 0.0
H474 H 0.31246 0.18309 0.04678 0.0
H475 H 0.32508 0.04471 0.90381 0.0
H476 H 0.28837 0.1716 0.94311 0.0
H477 H 0.29441 0.20338 0.95409 0.0
H478 H 0.34873 0.23032 0.92791 0.0
H479 H 0.34251 0.19858 0.91697 0.0
H480 H 0.29047 0.13974 0.96958 0.0
H481 H 0.29454 0.15344 0.00339 0.0
H482 H 0.35064 0.20156 0.99285 0.0
H483 H 0.34648 0.18756 0.95916 0.0
H484 H 0.29384 0.103 0.95381 0.0
H485 H 0.30597 0.08804 0.976 0.0
H486 H 0.36289 0.1396 0.97998 0.0
H487 H 0.3508 0.15416 0.95745 0.0
H488 H 0.28118 0.09442 0.9047 0.0
H489 H 0.27962 0.06394 0.89817 0.0
H490 H 0.3407 0.09243 0.91646 0.0
H491 H 0.3421 0.12284 0.92266 0.0
H492 H 0.28127 0.12453 0.87234 0.0
H493 H 0.28109 0.11242 0.8388 0.0
H494 H 0.33862 0.12364 0.85325 0.0
H495 H 0.33908 0.13684 0.88605 0.0
H496 H 0.28191 0.16244 0.89463 0.0
H497 H 0.27975 0.1786 0.86583 0.0
H498 H 0.33493 0.18899 0.85063 0.0
H499 H 0.33716 0.17328 0.87944 0.0
O500 O 0.31121 0.17787 0.03341 0.0
O501 O 0.33993 0.20233 0.02722 0.0
O502 O 0.29396 0.04265 0.89685 0.0
O503 O 0.3253 0.05658 0.90623 0.0
C504 C 0.31294 0.16378 0.92532 0.0
C505 C 0.31531 0.15445 0.94129 0.0
C506 C 0.31544 0.1374 0.93769 0.0
C507 C 0.31245 0.12921 0.91817 0.0
C508 C 0.31046 0.13868 0.90217 0.0
C509 C 0.31065 0.15597 0.90575 0.0
C510 C 0.31498 0.1828 0.92923 0.0
C511 C 0.30138 0.1844 0.93945 0.0
C512 C 0.30494 0.20254 0.94583 0.0
C513 C 0.32213 0.21937 0.94201 0.0
C514 C 0.33526 0.21767 0.93092 0.0
C515 C 0.33173 0.19955 0.92463 0.0
C516 C 0.3181 0.16274 0.96189 0.0
C517 C 0.30364 0.1532 0.97464 0.0
C518 C 0.30599 0.16109 0.99392 0.0
C519 C 0.32289 0.17864 0.0008 0.0
C520 C 0.33743 0.18805 0.988 0.0
C521 C 0.33507 0.18013 0.96874 0.0
C522 C 0.32146 0.12961 0.95398 0.0
C523 C 0.30881 0.11117 0.95984 0.0
C524 C 0.31576 0.1027 0.97255 0.0
C525 C 0.33544 0.11259 0.97954 0.0
C526 C 0.34773 0.13152 0.97459 0.0
C527 C 0.3408 0.13994 0.9619 0.0
C528 C 0.3117 0.11078 0.91434 0.0
C529 C 0.2942 0.09403 0.90729 0.0
C530 C 0.29335 0.07665 0.90358 0.0
C531 C 0.31003 0.07574 0.90686 0.0
C532 C 0.32757 0.09261 0.91384 0.0
C533 C 0.32841 0.10999 0.91748 0.0
C534 C 0.31011 0.13138 0.8817 0.0
C535 C 0.29386 0.1245 0.86812 0.0
C536 C 0.29375 0.11743 0.84903 0.0
C537 C 0.30982 0.11695 0.84324 0.0
C538 C 0.32609 0.12404 0.85695 0.0
C539 C 0.32629 0.13134 0.87585 0.0
C540 C 0.30956 0.16644 0.88894 0.0
C541 C 0.29356 0.16834 0.88511 0.0
C542 C 0.29234 0.17754 0.86873 0.0
C543 C 0.30702 0.18475 0.85587 0.0
C544 C 0.32321 0.1832 0.86006 0.0
C545 C 0.32453 0.17427 0.87651 0.0
C546 C 0.32526 0.18705 0.02125 0.0
C547 C 0.3092 0.0573 0.90299 0.0
H548 H 0.82586 0.14399 0.04107 0.0
H549 H 0.73695 0.99641 0.86572 0.0
H550 H 0.83727 0.15654 0.93524 0.0
H551 H 0.85783 0.18946 0.94961 0.0
H552 H 0.90786 0.18433 0.94738 0.0
H553 H 0.88668 0.15061 0.93367 0.0
H554 H 0.81114 0.12911 0.95535 0.0
H555 H 0.81298 0.13646 0.9908 0.0
H556 H 0.85863 0.12472 0.0 0.0
H557 H 0.85645 0.11715 0.96448 0.0
H558 H 0.78559 0.10356 0.91942 0.0
H559 H 0.75752 0.09137 0.93785 0.0
H560 H 0.77858 0.06258 0.97382 0.0
H561 H 0.80745 0.07593 0.95561 0.0
H562 H 0.78795 0.09241 0.87954 0.0
H563 H 0.76028 0.06272 0.86318 0.0
H564 H 0.77862 0.02944 0.89487 0.0
H565 H 0.80637 0.05927 0.91096 0.0
H566 H 0.82453 0.1288 0.86857 0.0
H567 H 0.81783 0.12194 0.83301 0.0
H568 H 0.82444 0.07305 0.83676 0.0
H569 H 0.83185 0.08047 0.87271 0.0
H570 H 0.85108 0.16031 0.89414 0.0
H571 H 0.87217 0.18146 0.87066 0.0
H572 H 0.89654 0.14579 0.86418 0.0
H573 H 0.87494 0.12442 0.88739 0.0
O574 O 0.82531 0.14093 0.0271 0.0
O575 O 0.84879 0.1348 0.03102 0.0
O576 O 0.73903 0.02615 0.85596 0.0
O577 O 0.74778 0.00837 0.87196 0.0
C578 C 0.84718 0.1311 0.92481 0.0
C579 C 0.83247 0.11779 0.93584 0.0
C580 C 0.81655 0.1007 0.92628 0.0
C581 C 0.81621 0.09599 0.90606 0.0
C582 C 0.83131 0.10891 0.89509 0.0
C583 C 0.84675 0.12657 0.90448 0.0
C584 C 0.86044 0.15111 0.93365 0.0
C585 C 0.85263 0.1624 0.93809 0.0
C586 C 0.86448 0.18133 0.94605 0.0
C587 C 0.88455 0.18964 0.94943 0.0
C588 C 0.89243 0.1783 0.94505 0.0
C589 C 0.88042 0.15912 0.93715 0.0
C590 C 0.83345 0.12229 0.95738 0.0
C591 C 0.82137 0.12791 0.96506 0.0
C592 C 0.82253 0.13221 0.98532 0.0
C593 C 0.8359 0.13111 0.99826 0.0
C594 C 0.84812 0.12564 0.99046 0.0
C595 C 0.84691 0.12131 0.97019 0.0
C596 C 0.79844 0.09049 0.93608 0.0
C597 C 0.78396 0.0943 0.93104 0.0
C598 C 0.76782 0.08721 0.9416 0.0
C599 C 0.76558 0.07583 0.95734 0.0
C600 C 0.7799 0.07148 0.96197 0.0
C601 C 0.79629 0.07888 0.95147 0.0
C602 C 0.7993 0.07798 0.89621 0.0
C603 C 0.78605 0.0787 0.8828 0.0
C604 C 0.77022 0.06171 0.87354 0.0
C605 C 0.76728 0.04369 0.87766 0.0
C606 C 0.78049 0.04306 0.89131 0.0
C607 C 0.79634 0.06007 0.90053 0.0
C608 C 0.82912 0.10542 0.87324 0.0
C609 C 0.82523 0.11701 0.86172 0.0
C610 C 0.82132 0.11301 0.84137 0.0
C611 C 0.82081 0.09707 0.83207 0.0
C612 C 0.82481 0.08546 0.84356 0.0
C613 C 0.82909 0.08971 0.86402 0.0
C614 C 0.86154 0.14087 0.89252 0.0
C615 C 0.86131 0.15734 0.88801 0.0
C616 C 0.87342 0.16943 0.87458 0.0
C617 C 0.88601 0.16529 0.86541 0.0
C618 C 0.8868 0.14923 0.8707 0.0
C619 C 0.8746 0.13709 0.88407 0.0
C620 C 0.83712 0.13571 0.01978 0.0
C621 C 0.7505 0.0256 0.86784 0.0
H622 H 0.8625 0.6943 0.06456 0.0
H623 H 0.7347 0.69568 0.89707 0.0
H624 H 0.89089 0.7231 0.96917 0.0
H625 H 0.9131 0.71519 0.98507 0.0
H626 H 0.88887 0.66401 0.94476 0.0
H627 H 0.86577 0.67136 0.93004 0.0
H628 H 0.85398 0.72095 0.9886 0.0
H629 H 0.85831 0.71484 0.02275 0.0
H630 H 0.84951 0.65971 0.00254 0.0
H631 H 0.84495 0.66589 0.96849 0.0
H632 H 0.81542 0.71848 0.96603 0.0
H633 H 0.78599 0.7049 0.98337 0.0
H634 H 0.78004 0.64911 0.97767 0.0
H635 H 0.8086 0.66248 0.95961 0.0
H636 H 0.82919 0.73574 0.92152 0.0
H637 H 0.80205 0.73904 0.91053 0.0
H638 H 0.76301 0.67763 0.91212 0.0
H639 H 0.79031 0.67452 0.92288 0.0
H640 H 0.86253 0.73672 0.8952 0.0
H641 H 0.85582 0.73984 0.86024 0.0
H642 H 0.80586 0.68206 0.85536 0.0
H643 H 0.81271 0.67882 0.88995 0.0
H644 H 0.89449 0.73189 0.91675 0.0
H645 H 0.91372 0.73241 0.89003 0.0
H646 H 0.86715 0.67554 0.86733 0.0
H647 H 0.84827 0.67511 0.89405 0.0
O648 O 0.86066 0.69638 0.05097 0.0
O649 O 0.85613 0.66821 0.03982 0.0
O650 O 0.76641 0.72624 0.90066 0.0
O651 O 0.74571 0.69477 0.90138 0.0
C652 C 0.86048 0.70037 0.94194 0.0
C653 C 0.84688 0.69791 0.95536 0.0
C654 C 0.83047 0.69859 0.94902 0.0
C655 C 0.82833 0.70313 0.92966 0.0
C656 C 0.84175 0.7054 0.91616 0.0
C657 C 0.85758 0.70358 0.92218 0.0
C658 C 0.8767 0.69785 0.94842 0.0
C659 C 0.89064 0.71036 0.96357 0.0
C660 C 0.90339 0.70581 0.9726 0.0
C661 C 0.90271 0.68878 0.96641 0.0
C662 C 0.88956 0.67698 0.95029 0.0
C663 C 0.87657 0.68137 0.94153 0.0
C664 C 0.84936 0.69396 0.97607 0.0
C665 C 0.85297 0.70755 0.99159 0.0
C666 C 0.85546 0.70403 0.01108 0.0
C667 C 0.85433 0.68681 0.01537 0.0
C668 C 0.85055 0.67315 -0.00025 0.0
C669 C 0.84801 0.67667 0.98028 0.0
C670 C 0.81412 0.69146 0.96154 0.0
C671 C 0.80777 0.70336 0.96868 0.0
C672 C 0.79104 0.6956 0.97865 0.0
C673 C 0.78053 0.67586 0.98168 0.0
C674 C 0.78751 0.66426 0.97521 0.0
C675 C 0.804 0.67194 0.96512 0.0
C676 C 0.81169 0.70494 0.92318 0.0
C677 C 0.81476 0.72303 0.9195 0.0
C678 C 0.79923 0.72487 0.91323 0.0
C679 C 0.78034 0.7086 0.91051 0.0
C680 C 0.77735 0.69046 0.91413 0.0
C681 C 0.7929 0.68864 0.92035 0.0
C682 C 0.83799 0.7076 0.89514 0.0
C683 C 0.85016 0.72476 0.88655 0.0
C684 C 0.84633 0.72655 0.86672 0.0
C685 C 0.83029 0.71121 0.8554 0.0
C686 C 0.81823 0.69408 0.86396 0.0
C687 C 0.8221 0.69225 0.88365 0.0
C688 C 0.87003 0.70347 0.90726 0.0
C689 C 0.88863 0.71949 0.90613 0.0
C690 C 0.8995 0.71979 0.89083 0.0
C691 C 0.89194 0.704 0.8766 0.0
C692 C 0.8735 0.6878 0.8782 0.0
C693 C 0.86265 0.68757 0.89337 0.0
C694 C 0.85708 0.68317 0.03608 0.0
C695 C 0.76379 0.71048 0.90389 0.0
H696 H 0.82124 0.66457 0.34289 0.0
H697 H 0.92122 0.62056 0.50635 0.0
H698 H 0.81472 0.67197 0.45244 0.0
H699 H 0.7922 0.67972 0.43695 0.0
H700 H 0.74674 0.61963 0.43354 0.0
H701 H 0.76963 0.61197 0.4492 0.0
H702 H 0.84154 0.67046 0.42763 0.0
H703 H 0.83728 0.6737 0.39249 0.0
H704 H 0.79181 0.61353 0.38413 0.0
H705 H 0.79638 0.61046 0.41928 0.0
H706 H 0.87155 0.67244 0.45874 0.0
H707 H 0.89815 0.68452 0.43787 0.0
H708 H 0.86858 0.62991 0.40272 0.0
H709 H 0.84179 0.61774 0.42403 0.0
H710 H 0.87101 0.66381 0.4997 0.0
H711 H 0.89951 0.66382 0.51301 0.0
H712 H 0.87776 0.6084 0.4812 0.0
H713 H 0.84923 0.60848 0.46817 0.0
H714 H 0.83335 0.66283 0.51511 0.0
H715 H 0.84289 0.66633 0.55008 0.0
H716 H 0.84186 0.61288 0.54416 0.0
H717 H 0.83018 0.6085 0.50934 0.0
H718 H 0.80336 0.66333 0.4897 0.0
H719 H 0.78498 0.66446 0.51597 0.0
H720 H 0.7705 0.60742 0.5296 0.0
H721 H 0.78746 0.60581 0.50204 0.0
O722 O 0.82271 0.66296 0.35673 0.0
O723 O 0.79935 0.632 0.35325 0.0
O724 O 0.92064 0.64942 0.51736 0.0
O725 O 0.9101 0.62093 0.50129 0.0
C726 C 0.80832 0.63714 0.45982 0.0
C727 C 0.82193 0.63814 0.44723 0.0
C728 C 0.83829 0.63809 0.455 0.0
C729 C 0.84052 0.63587 0.47521 0.0
C730 C 0.82673 0.63445 0.48786 0.0
C731 C 0.8105 0.63499 0.4801 0.0
C732 C 0.79375 0.64145 0.45206 0.0
C733 C 0.79983 0.66051 0.4486 0.0
C734 C 0.78693 0.66491 0.43982 0.0
C735 C 0.76768 0.6503 0.43412 0.0
C736 C 0.76152 0.63117 0.43775 0.0
C737 C 0.77448 0.62678 0.44677 0.0
C738 C 0.81941 0.64018 0.42591 0.0
C739 C 0.83078 0.65797 0.41814 0.0
C740 C 0.82826 0.65979 0.39809 0.0
C741 C 0.81423 0.64386 0.38549 0.0
C742 C 0.80277 0.62607 0.39341 0.0
C743 C 0.80535 0.62427 0.41346 0.0
C744 C 0.85482 0.64421 0.44294 0.0
C745 C 0.8709 0.66297 0.4467 0.0
C746 C 0.88597 0.66991 0.43465 0.0
C747 C 0.88529 0.65822 0.41853 0.0
C748 C 0.86943 0.63918 0.41507 0.0
C749 C 0.85418 0.63224 0.42716 0.0
C750 C 0.85796 0.63603 0.48316 0.0
C751 C 0.87238 0.65164 0.49573 0.0
C752 C 0.88866 0.65163 0.50326 0.0
C753 C 0.89088 0.63607 0.49822 0.0
C754 C 0.87649 0.62057 0.48543 0.0
C755 C 0.86019 0.62058 0.47795 0.0
C756 C 0.83091 0.63535 0.50959 0.0
C757 C 0.83452 0.65152 0.52146 0.0
C758 C 0.84042 0.65369 0.54146 0.0
C759 C 0.84369 0.64015 0.55001 0.0
C760 C 0.83943 0.62358 0.53822 0.0
C761 C 0.83291 0.62112 0.51824 0.0
C762 C 0.79657 0.63437 0.49368 0.0
C763 C 0.79543 0.6507 0.49769 0.0
C764 C 0.78527 0.65149 0.51312 0.0
C765 C 0.77649 0.63619 0.52527 0.0
C766 C 0.77683 0.61944 0.52053 0.0
C767 C 0.78663 0.61849 0.50479 0.0
C768 C 0.81159 0.64584 0.36419 0.0
C769 C 0.90812 0.63595 0.50623 0.0
H770 H 0.33165 0.13667 0.3576 0.0
H771 H 0.3724 0.30312 0.51898 0.0
H772 H 0.32528 0.13739 0.48134 0.0
H773 H 0.31915 0.10576 0.47028 0.0
H774 H 0.37527 0.13277 0.44778 0.0
H775 H 0.38127 0.16453 0.459 0.0
H776 H 0.3248 0.15152 0.44043 0.0
H777 H 0.32227 0.14055 0.40585 0.0
H778 H 0.37936 0.18962 0.40023 0.0
H779 H 0.38179 0.20029 0.43492 0.0
H780 H 0.32184 0.18537 0.44275 0.0
H781 H 0.31159 0.20292 0.42236 0.0
H782 H 0.36766 0.25476 0.43587 0.0
H783 H 0.37817 0.2369 0.45561 0.0
H784 H 0.32636 0.21091 0.48358 0.0
H785 H 0.32562 0.23982 0.49252 0.0
H786 H 0.38693 0.27077 0.51045 0.0
H787 H 0.38749 0.24182 0.5012 0.0
H788 H 0.32905 0.19156 0.52086 0.0
H789 H 0.33058 0.20588 0.55361 0.0
H790 H 0.39241 0.2307 0.5604 0.0
H791 H 0.39051 0.21568 0.52781 0.0
H792 H 0.32853 0.1576 0.51808 0.0
H793 H 0.32648 0.13618 0.54301 0.0
H794 H 0.38469 0.15097 0.53487 0.0
H795 H 0.38665 0.17262 0.50981 0.0
O796 O 0.33297 0.14126 0.37125 0.0
O797 O 0.36233 0.16678 0.3691 0.0
O798 O 0.34083 0.27502 0.50563 0.0
O799 O 0.37229 0.29151 0.51524 0.0
C800 C 0.35644 0.17234 0.47637 0.0
C801 C 0.35525 0.18317 0.46128 0.0
C802 C 0.35528 0.20016 0.46621 0.0
C803 C 0.3574 0.20675 0.48624 0.0
C804 C 0.3589 0.19611 0.50125 0.0
C805 C 0.35824 0.17883 0.49639 0.0
C806 C 0.35378 0.15324 0.47114 0.0
C807 C 0.33642 0.13646 0.47442 0.0
C808 C 0.33295 0.1184 0.46807 0.0
C809 C 0.34674 0.11674 0.45818 0.0
C810 C 0.3643 0.13359 0.45521 0.0
C811 C 0.36781 0.1517 0.4617 0.0
C812 C 0.35356 0.17659 0.44022 0.0
C813 C 0.3368 0.15979 0.43175 0.0
C814 C 0.33536 0.1536 0.41197 0.0
C815 C 0.35063 0.16418 0.40028 0.0
C816 C 0.36735 0.18111 0.40882 0.0
C817 C 0.36877 0.18726 0.42861 0.0
C818 C 0.35075 0.20985 0.45072 0.0
C819 C 0.33219 0.20031 0.44068 0.0
C820 C 0.32631 0.21036 0.42912 0.0
C821 C 0.3388 0.23019 0.42772 0.0
C822 C 0.35775 0.23949 0.43685 0.0
C823 C 0.36376 0.22932 0.44805 0.0
C824 C 0.35699 0.22433 0.49167 0.0
C825 C 0.33961 0.22398 0.48936 0.0
C826 C 0.33924 0.24049 0.49451 0.0
C827 C 0.35623 0.25762 0.5022 0.0
C828 C 0.37359 0.25784 0.50457 0.0
C829 C 0.37396 0.24134 0.49933 0.0
C830 C 0.35966 0.20256 0.52208 0.0
C831 C 0.34284 0.19978 0.52963 0.0
C832 C 0.3438 0.20817 0.54823 0.0
C833 C 0.36166 0.21967 0.55954 0.0
C834 C 0.3784 0.22181 0.55217 0.0
C835 C 0.37738 0.21326 0.53358 0.0
C836 C 0.35775 0.1667 0.51221 0.0
C837 C 0.34092 0.15638 0.52181 0.0
C838 C 0.33973 0.14404 0.53591 0.0
C839 C 0.35538 0.14179 0.54076 0.0
C840 C 0.37245 0.1525 0.53146 0.0
C841 C 0.37357 0.16478 0.51716 0.0
C842 C 0.34907 0.15755 0.37928 0.0
C843 C 0.35591 0.27519 0.50776 0.0
H844 H 0.80688 0.18675 0.3474 0.0
H845 H 0.95378 0.32337 0.51113 0.0
H846 H 0.78712 0.18323 0.44971 0.0
H847 H 0.7635 0.14911 0.43921 0.0
H848 H 0.801 0.13358 0.46918 0.0
H849 H 0.824 0.16726 0.47969 0.0
H850 H 0.82399 0.22407 0.42729 0.0
H851 H 0.81585 0.21265 0.3923 0.0
H852 H 0.82592 0.16686 0.40383 0.0
H853 H 0.83429 0.17857 0.43867 0.0
H854 H 0.86979 0.26251 0.44747 0.0
H855 H 0.89938 0.27674 0.43028 0.0
H856 H 0.89732 0.2228 0.42994 0.0
H857 H 0.86906 0.2094 0.44821 0.0
H858 H 0.85779 0.26765 0.49444 0.0
H859 H 0.88671 0.29913 0.50484 0.0
H860 H 0.92235 0.27536 0.49505 0.0
H861 H 0.89335 0.24394 0.48493 0.0
H862 H 0.8238 0.23168 0.52326 0.0
H863 H 0.83267 0.24071 0.55895 0.0
H864 H 0.88468 0.23988 0.55368 0.0
H865 H 0.87528 0.22971 0.51859 0.0
H866 H 0.78955 0.19318 0.49707 0.0
H867 H 0.76962 0.17097 0.52077 0.0
H868 H 0.818 0.16677 0.54249 0.0
H869 H 0.83764 0.18864 0.51851 0.0
O870 O 0.81019 0.19104 0.36129 0.0
O871 O 0.81546 0.1677 0.36801 0.0
O872 O 0.92314 0.32258 0.512 0.0
O873 O 0.94211 0.31108 0.50711 0.0
C874 C 0.82228 0.19811 0.4711 0.0
C875 C 0.83436 0.20918 0.45678 0.0
C876 C 0.85167 0.22688 0.46266 0.0
C877 C 0.85579 0.23451 0.48259 0.0
C878 C 0.84339 0.22366 0.49689 0.0
C879 C 0.82684 0.20528 0.49115 0.0
C880 C 0.8071 0.17763 0.46567 0.0
C881 C 0.78997 0.17234 0.45418 0.0
C882 C 0.77661 0.1529 0.44813 0.0
C883 C 0.78026 0.13858 0.45352 0.0
C884 C 0.79742 0.1441 0.46518 0.0
C885 C 0.81065 0.16338 0.47118 0.0
C886 C 0.82943 0.20199 0.43558 0.0
C887 C 0.8244 0.21156 0.42222 0.0
C888 C 0.81975 0.205 0.40225 0.0
C889 C 0.82013 0.18878 0.39528 0.0
C890 C 0.82537 0.17933 0.40871 0.0
C891 C 0.83005 0.18592 0.42866 0.0
C892 C 0.86725 0.2349 0.44912 0.0
C893 C 0.87567 0.25377 0.44343 0.0
C894 C 0.8925 0.26183 0.43356 0.0
C895 C 0.90093 0.25101 0.42909 0.0
C896 C 0.89157 0.23173 0.43362 0.0
C897 C 0.87514 0.22389 0.44376 0.0
C898 C 0.87348 0.25358 0.48872 0.0
C899 C 0.87187 0.26929 0.49453 0.0
C900 C 0.8884 0.28724 0.50046 0.0
C901 C 0.90686 0.28978 0.5007 0.0
C902 C 0.90839 0.27394 0.49497 0.0
C903 C 0.89184 0.25599 0.4891 0.0
C904 C 0.8491 0.23041 0.51819 0.0
C905 C 0.83714 0.23354 0.52982 0.0
C906 C 0.84219 0.23871 0.55009 0.0
C907 C 0.85947 0.24126 0.55881 0.0
C908 C 0.87148 0.23836 0.54713 0.0
C909 C 0.86619 0.23269 0.52709 0.0
C910 C 0.81508 0.19268 0.50624 0.0
C911 C 0.79583 0.18752 0.50703 0.0
C912 C 0.78451 0.17487 0.52057 0.0
C913 C 0.79224 0.16709 0.53347 0.0
C914 C 0.81156 0.17232 0.5326 0.0
C915 C 0.82286 0.185 0.5191 0.0
C916 C 0.81514 0.18182 0.37407 0.0
C917 C 0.92447 0.30882 0.50695 0.0
H918 H 0.00554 0.52896 0.37806 0.0
H919 H 0.02374 0.39803 0.22807 0.0
H920 H 0.97473 0.5139 0.27466 0.0
H921 H 0.97822 0.54426 0.28686 0.0
H922 H 0.03203 0.57576 0.26014 0.0
H923 H 0.02823 0.54534 0.24781 0.0
H924 H 0.98111 0.48527 0.30088 0.0
H925 H 0.98635 0.49905 0.33487 0.0
H926 H 0.04101 0.54802 0.32218 0.0
H927 H 0.03569 0.53396 0.2883 0.0
H928 H 0.9827 0.4496 0.28291 0.0
H929 H 0.99343 0.43358 0.30518 0.0
H930 H 0.05161 0.48325 0.30923 0.0
H931 H 0.04078 0.49903 0.28675 0.0
H932 H 0.97225 0.43966 0.23588 0.0
H933 H 0.97357 0.4109 0.22804 0.0
H934 H 0.03557 0.44446 0.24174 0.0
H935 H 0.03405 0.47313 0.2493 0.0
H936 H 0.96581 0.46424 0.20712 0.0
H937 H 0.9622 0.44775 0.17485 0.0
H938 H 0.02386 0.47162 0.17889 0.0
H939 H 0.02715 0.48755 0.21127 0.0
H940 H 0.96713 0.50543 0.22699 0.0
H941 H 0.96208 0.52044 0.19863 0.0
H942 H 0.01751 0.53456 0.18023 0.0
H943 H 0.02257 0.51993 0.20859 0.0
O944 O 0.00382 0.52372 0.3646 0.0
O945 O 0.03176 0.54862 0.35729 0.0
O946 O 0.9909 0.39257 0.22415 0.0
O947 O 0.02279 0.40916 0.2311 0.0
C948 C 0.00079 0.50929 0.25588 0.0
C949 C 0.00452 0.50039 0.27144 0.0
C950 C 0.00532 0.48379 0.26729 0.0
C951 C 0.00216 0.47589 0.24766 0.0
C952 C 0.99865 0.48484 0.2321 0.0
C953 C 0.99794 0.50155 0.23616 0.0
C954 C 0.00122 0.52744 0.26038 0.0
C955 C 0.98705 0.52738 0.27113 0.0
C956 C 0.98917 0.54473 0.27822 0.0
C957 C 0.00553 0.56245 0.27467 0.0
C958 C 0.01919 0.5624 0.263 0.0
C959 C 0.01704 0.54504 0.25592 0.0
C960 C 0.00797 0.50867 0.29214 0.0
C961 C 0.99424 0.49893 0.30551 0.0
C962 C 0.99725 0.50686 0.3249 0.0
C963 C 0.01407 0.52467 0.33124 0.0
C964 C 0.02788 0.53431 0.31778 0.0
C965 C 0.02486 0.52634 0.29842 0.0
C966 C 0.01098 0.47543 0.28323 0.0
C967 C 0.99767 0.45714 0.28895 0.0
C968 C 0.00381 0.44806 0.3017 0.0
C969 C 0.02339 0.45713 0.30883 0.0
C970 C 0.03649 0.47584 0.30378 0.0
C971 C 0.03031 0.48493 0.29111 0.0
C972 C 0.00303 0.45842 0.24324 0.0
C973 C 0.98609 0.44074 0.23717 0.0
C974 C 0.98689 0.42435 0.23272 0.0
C975 C 0.00469 0.42537 0.23428 0.0
C976 C 0.02164 0.44315 0.2404 0.0
C977 C 0.02081 0.45954 0.24479 0.0
C978 C 0.99671 0.477 0.2115 0.0
C979 C 0.97852 0.46608 0.20085 0.0
C980 C 0.97652 0.45672 0.18242 0.0
C981 C 0.99273 0.45819 0.17436 0.0
C982 C 0.01103 0.46983 0.18482 0.0
C983 C 0.01298 0.4791 0.20322 0.0
C984 C 0.9951 0.51136 0.21967 0.0
C985 C 0.9782 0.5119 0.21687 0.0
C986 C 0.97535 0.52046 0.20073 0.0
C987 C 0.98928 0.52839 0.1871 0.0
C988 C 0.00635 0.5282 0.19028 0.0
C989 C 0.00928 0.51988 0.20646 0.0
C990 C 0.01716 0.53311 0.3518 0.0
C991 C 0.00563 0.40801 0.22953 0.0
H992 H 0.50448 0.48532 0.38153 0.0
H993 H 0.39914 0.33611 0.20883 0.0
H994 H 0.50552 0.49553 0.27404 0.0
H995 H 0.52677 0.52914 0.28617 0.0
H996 H 0.57648 0.52434 0.27928 0.0
H997 H 0.55475 0.49005 0.26762 0.0
H998 H 0.48193 0.46832 0.29677 0.0
H999 H 0.487 0.47647 0.33237 0.0
H1000 H 0.5337 0.46584 0.33576 0.0
H1001 H 0.52829 0.45746 0.30012 0.0
H1002 H 0.45224 0.44025 0.26341 0.0
H1003 H 0.42687 0.42761 0.28576 0.0
H1004 H 0.45552 0.40406 0.31857 0.0
H1005 H 0.48108 0.41672 0.29574 0.0
H1006 H 0.45133 0.43204 0.22355 0.0
H1007 H 0.4221 0.40256 0.20912 0.0
H1008 H 0.44363 0.36874 0.23383 0.0
H1009 H 0.47291 0.39838 0.24799 0.0
H1010 H 0.48808 0.47064 0.21157 0.0
H1011 H 0.47491 0.46484 0.17752 0.0
H1012 H 0.47569 0.41239 0.17193 0.0
H1013 H 0.49063 0.4193 0.20599 0.0
H1014 H 0.51798 0.50003 0.23191 0.0
H1015 H 0.53904 0.52095 0.20824 0.0
H1016 H 0.55971 0.48242 0.19846 0.0
H1017 H 0.53805 0.46128 0.22172 0.0
O1018 O 0.50267 0.48196 0.36747 0.0
O1019 O 0.52662 0.47639 0.36841 0.0
O1020 O 0.4002 0.36606 0.20191 0.0
O1021 O 0.41057 0.348 0.21435 0.0
C1022 C 0.51492 0.47014 0.26203 0.0
C1023 C 0.50155 0.45701 0.27426 0.0
C1024 C 0.48491 0.43981 0.26584 0.0
C1025 C 0.48221 0.43522 0.24524 0.0
C1026 C 0.49584 0.44815 0.23296 0.0
C1027 C 0.51241 0.46547 0.24146 0.0
C1028 C 0.52858 0.49032 0.27015 0.0
C1029 C 0.52098 0.50162 0.27543 0.0
C1030 C 0.53317 0.5209 0.28211 0.0
C1031 C 0.55331 0.52946 0.28344 0.0
C1032 C 0.561 0.51808 0.27846 0.0
C1033 C 0.54867 0.49858 0.27177 0.0
C1034 C 0.50454 0.46199 0.29592 0.0
C1035 C 0.4931 0.46755 0.30525 0.0
C1036 C 0.4961 0.4723 0.32558 0.0
C1037 C 0.51071 0.47174 0.33694 0.0
C1038 C 0.52228 0.46636 0.32747 0.0
C1039 C 0.51923 0.46156 0.30713 0.0
C1040 C 0.4684 0.42926 0.27785 0.0
C1041 C 0.45283 0.43193 0.27509 0.0
C1042 C 0.4385 0.42494 0.28801 0.0
C1043 C 0.43944 0.41514 0.30402 0.0
C1044 C 0.45453 0.4116 0.30631 0.0
C1045 C 0.46904 0.41874 0.29332 0.0
C1046 C 0.46435 0.41734 0.23657 0.0
C1047 C 0.44977 0.41826 0.22569 0.0
C1048 C 0.43306 0.4014 0.21753 0.0
C1049 C 0.43056 0.38328 0.22026 0.0
C1050 C 0.44512 0.38244 0.23139 0.0
C1051 C 0.46185 0.39933 0.2395 0.0
C1052 C 0.49061 0.44557 0.21129 0.0
C1053 C 0.48625 0.45833 0.20283 0.0
C1054 C 0.47827 0.45473 0.18342 0.0
C1055 C 0.47376 0.43787 0.17211 0.0
C1056 C 0.47901 0.42551 0.18022 0.0
C1057 C 0.48747 0.4294 0.19968 0.0
C1058 C 0.52652 0.47915 0.22854 0.0
C1059 C 0.5273 0.49629 0.22488 0.0
C1060 C 0.53941 0.50827 0.21138 0.0
C1061 C 0.55105 0.50336 0.20134 0.0
C1062 C 0.5507 0.48648 0.20563 0.0
C1063 C 0.53845 0.47444 0.21901 0.0
C1064 C 0.51387 0.47682 0.35854 0.0
C1065 C 0.41284 0.36532 0.2116 0.0
H1066 H 0.52205 0.00744 0.39627 0.0
H1067 H 0.38139 0.98008 0.22449 0.0
H1068 H 0.54685 0.03235 0.29799 0.0
H1069 H 0.57187 0.02812 0.314 0.0
H1070 H 0.54734 0.97314 0.28024 0.0
H1071 H 0.52262 0.97767 0.2642 0.0
H1072 H 0.50919 0.02792 0.31819 0.0
H1073 H 0.51518 0.02443 0.35288 0.0
H1074 H 0.50848 0.96943 0.33642 0.0
H1075 H 0.50225 0.97299 0.30183 0.0
H1076 H 0.47063 0.02389 0.29329 0.0
H1077 H 0.44263 0.01348 0.31223 0.0
H1078 H 0.43665 0.95792 0.31565 0.0
H1079 H 0.46392 0.96812 0.29593 0.0
H1080 H 0.47671 0.03311 0.24824 0.0
H1081 H 0.44677 0.03084 0.23584 0.0
H1082 H 0.4151 0.9697 0.24279 0.0
H1083 H 0.44518 0.97215 0.25495 0.0
H1084 H 0.50947 0.03862 0.22505 0.0
H1085 H 0.49952 0.03955 0.19061 0.0
H1086 H 0.46008 0.9778 0.18638 0.0
H1087 H 0.47025 0.97706 0.22053 0.0
H1088 H 0.54676 0.04063 0.24895 0.0
H1089 H 0.56858 0.04598 0.2233 0.0
H1090 H 0.53053 0.98691 0.19937 0.0
H1091 H 0.50907 0.98169 0.22519 0.0
O1092 O 0.51957 0.00849 0.38248 0.0
O1093 O 0.51614 0.98037 0.37323 0.0
O1094 O 0.41041 0.01285 0.22599 0.0
O1095 O 0.39344 0.98138 0.22935 0.0
C1096 C 0.51575 0.00605 0.27308 0.0
C1097 C 0.50197 0.0031 0.28646 0.0
C1098 C 0.4847 0.00204 0.27978 0.0
C1099 C 0.48134 0.00426 0.2598 0.0
C1100 C 0.49508 0.0072 0.24646 0.0
C1101 C 0.51228 0.0081 0.25308 0.0
C1102 C 0.53296 0.00534 0.27991 0.0
C1103 C 0.5472 0.01963 0.29374 0.0
C1104 C 0.56134 0.01707 0.30301 0.0
C1105 C 0.56148 0.00017 0.29858 0.0
C1106 C 0.54779 0.9864 0.28389 0.0
C1107 C 0.53367 0.98897 0.27465 0.0
C1108 C 0.50544 0.00079 0.30751 0.0
C1109 C 0.50898 0.01512 0.32213 0.0
C1110 C 0.51243 0.01309 0.34192 0.0
C1111 C 0.51237 0.99668 0.34743 0.0
C1112 C 0.50869 0.98228 0.3327 0.0
C1113 C 0.50519 0.9843 0.31292 0.0
C1114 C 0.46927 0.99675 0.29321 0.0
C1115 C 0.46332 0.00953 0.29828 0.0
C1116 C 0.44741 0.00359 0.30921 0.0
C1117 C 0.43729 0.9848 0.31532 0.0
C1118 C 0.44386 0.97236 0.31086 0.0
C1119 C 0.4596 0.97823 0.29981 0.0
C1120 C 0.46307 0.00282 0.25256 0.0
C1121 C 0.46328 0.01925 0.24705 0.0
C1122 C 0.44617 0.01791 0.24 0.0
C1123 C 0.42852 8e-05 0.23835 0.0
C1124 C 0.42841 0.98364 0.2439 0.0
C1125 C 0.44555 0.985 0.2509 0.0
C1126 C 0.49055 0.00777 0.22521 0.0
C1127 C 0.49889 0.02531 0.21652 0.0
C1128 C 0.49311 0.02581 0.19695 0.0
C1129 C 0.47902 0.00874 0.18577 0.0
C1130 C 0.47116 0.99116 0.19446 0.0
C1131 C 0.47686 0.9907 0.21399 0.0
C1132 C 0.52637 0.0108 0.23885 0.0
C1133 C 0.54335 0.02881 0.23831 0.0
C1134 C 0.55569 0.03186 0.2236 0.0
C1135 C 0.55125 0.01688 0.20927 0.0
C1136 C 0.5345 0.99868 0.21031 0.0
C1137 C 0.52217 0.99568 0.22496 0.0
C1138 C 0.51613 0.99462 0.36845 0.0
C1139 C 0.4103 0.99857 0.23085 0.0
H1140 H 0.50928 0.03212 0.68806 0.0
H1141 H 0.59234 0.96132 0.84225 0.0
H1142 H 0.49287 0.02629 0.79331 0.0
H1143 H 0.46976 0.03257 0.77633 0.0
H1144 H 0.42646 0.97171 0.77217 0.0
H1145 H 0.44989 0.96558 0.78905 0.0
H1146 H 0.52482 0.02754 0.77179 0.0
H1147 H 0.52289 0.03501 0.73768 0.0
H1148 H 0.47433 0.97692 0.72293 0.0
H1149 H 0.47659 0.9696 0.75706 0.0
H1150 H 0.55323 0.02311 0.80047 0.0
H1151 H 0.57989 0.03299 0.77991 0.0
H1152 H 0.54456 0.98118 0.74105 0.0
H1153 H 0.51788 0.97118 0.76208 0.0
H1154 H 0.54843 0.01102 0.84156 0.0
H1155 H 0.57488 0.00737 0.85434 0.0
H1156 H 0.55117 0.95467 0.81659 0.0
H1157 H 0.52467 0.95838 0.80411 0.0
H1158 H 0.51346 0.01051 0.85846 0.0
H1159 H 0.521 0.00764 0.89278 0.0
H1160 H 0.50827 0.95008 0.87722 0.0
H1161 H 0.50082 0.95318 0.84272 0.0
H1162 H 0.4837 0.01607 0.83269 0.0
H1163 H 0.46316 0.01507 0.85787 0.0
H1164 H 0.44356 0.95519 0.86372 0.0
H1165 H 0.46316 0.95608 0.83763 0.0
O1166 O 0.50982 0.02884 0.70145 0.0
O1167 O 0.48483 0.99886 0.69467 0.0
O1168 O 0.59358 0.99024 0.85663 0.0
O1169 O 0.58203 0.96311 0.83745 0.0
C1170 C 0.48803 0.99168 0.80001 0.0
C1171 C 0.50205 0.99348 0.78754 0.0
C1172 C 0.51738 0.99147 0.79487 0.0
C1173 C 0.51834 0.98694 0.81447 0.0
C1174 C 0.50424 0.98493 0.82696 0.0
C1175 C 0.48907 0.98736 0.81974 0.0
C1176 C 0.47303 0.99549 0.79242 0.0
C1177 C 0.47828 0.01437 0.78904 0.0
C1178 C 0.46504 0.01792 0.77938 0.0
C1179 C 0.44629 0.00263 0.77281 0.0
C1180 C 0.44087 0.98377 0.77685 0.0
C1181 C 0.45413 0.98024 0.78664 0.0
C1182 C 0.50092 0.998 0.76682 0.0
C1183 C 0.51386 0.01643 0.76113 0.0
C1184 C 0.51268 0.02066 0.74166 0.0
C1185 C 0.49846 0.00655 0.72757 0.0
C1186 C 0.48547 0.98811 0.7334 0.0
C1187 C 0.48671 0.98389 0.75287 0.0
C1188 C 0.53368 0.99644 0.78277 0.0
C1189 C 0.55131 0.01378 0.78765 0.0
C1190 C 0.56644 0.01948 0.77578 0.0
C1191 C 0.56422 0.00796 0.75874 0.0
C1192 C 0.54668 0.9903 0.75413 0.0
C1193 C 0.53146 0.98461 0.76605 0.0
C1194 C 0.53456 0.98487 0.82204 0.0
C1195 C 0.54893 0.99864 0.83616 0.0
C1196 C 0.56405 0.99655 0.84339 0.0
C1197 C 0.56512 0.98069 0.83652 0.0
C1198 C 0.55076 0.96703 0.82223 0.0
C1199 C 0.53563 0.96912 0.81505 0.0
C1200 C 0.50654 0.98204 0.8481 0.0
C1201 C 0.51189 0.99712 0.86253 0.0
C1202 C 0.51616 0.99542 0.88216 0.0
C1203 C 0.51524 0.97861 0.88778 0.0
C1204 C 0.50931 0.96328 0.87335 0.0
C1205 C 0.50495 0.96497 0.85368 0.0
C1206 C 0.47485 0.98611 0.83322 0.0
C1207 C 0.4745 0.00259 0.83899 0.0
C1208 C 0.46298 0.00206 0.85364 0.0
C1209 C 0.4518 0.9851 0.86305 0.0
C1210 C 0.45171 0.96844 0.85669 0.0
C1211 C 0.46302 0.96893 0.84184 0.0
C1212 C 0.49723 0.01111 0.7069 0.0
C1213 C 0.58113 0.97838 0.84418 0.0
H1214 H 0.96519 0.45695 0.69155 0.0
H1215 H 0.02421 0.62592 0.85636 0.0
H1216 H 0.96557 0.45896 0.80415 0.0
H1217 H 0.95909 0.42754 0.79119 0.0
H1218 H 0.02039 0.45129 0.79042 0.0
H1219 H 0.02675 0.48292 0.8031 0.0
H1220 H 0.96357 0.47646 0.7746 0.0
H1221 H 0.95843 0.46461 0.7399 0.0
H1222 H 0.01949 0.5025 0.73436 0.0
H1223 H 0.02441 0.51412 0.76917 0.0
H1224 H 0.96436 0.50842 0.78061 0.0
H1225 H 0.95566 0.5273 0.76047 0.0
H1226 H 0.01465 0.57535 0.76924 0.0
H1227 H 0.02347 0.5561 0.78877 0.0
H1228 H 0.97316 0.53363 0.82083 0.0
H1229 H 0.97442 0.56337 0.83095 0.0
H1230 H 0.03616 0.59196 0.84523 0.0
H1231 H 0.03473 0.5622 0.83477 0.0
H1232 H 0.9777 0.51475 0.85685 0.0
H1233 H 0.98189 0.532 0.88849 0.0
H1234 H 0.04282 0.55205 0.89324 0.0
H1235 H 0.03853 0.53564 0.86081 0.0
H1236 H 0.97537 0.46895 0.84562 0.0
H1237 H 0.97807 0.4489 0.86966 0.0
H1238 H 0.04032 0.48472 0.87261 0.0
H1239 H 0.03743 0.50466 0.8483 0.0
O1240 O 0.96754 0.46185 0.70523 0.0
O1241 O 0.99903 0.48164 0.70313 0.0
O1242 O 0.99159 0.59872 0.84431 0.0
O1243 O 0.02332 0.614 0.85214 0.0
C1244 C 1e-05 0.49248 0.81004 0.0
C1245 C 0.9976 0.50304 0.79547 0.0
C1246 C 0.99892 0.52054 0.80095 0.0
C1247 C 0.00304 0.52767 0.821 0.0
C1248 C 0.00568 0.51721 0.83554 0.0
C1249 C 0.00434 0.4997 0.83005 0.0
C1250 C 0.99659 0.47318 0.80431 0.0
C1251 C 0.97759 0.45733 0.80128 0.0
C1252 C 0.97393 0.43946 0.79386 0.0
C1253 C 0.98924 0.43708 0.78965 0.0
C1254 C 0.00835 0.45277 0.79359 0.0
C1255 C 0.012 0.47078 0.80078 0.0
C1256 C 0.99437 0.49607 0.77436 0.0
C1257 C 0.97581 0.48213 0.76588 0.0
C1258 C 0.97292 0.47542 0.74604 0.0
C1259 C 0.98855 0.48259 0.73435 0.0
C1260 C 0.00713 0.49666 0.74295 0.0
C1261 C 0.00999 0.50334 0.76279 0.0
C1262 C 0.99458 0.53082 0.78604 0.0
C1263 C 0.97558 0.52274 0.77754 0.0
C1264 C 0.9706 0.53356 0.76614 0.0
C1265 C 0.98448 0.55276 0.76341 0.0
C1266 C 0.00368 0.56058 0.77123 0.0
C1267 C 0.00874 0.54962 0.78229 0.0
C1268 C 0.00387 0.54581 0.82699 0.0
C1269 C 0.98695 0.54638 0.82602 0.0
C1270 C 0.98771 0.56336 0.83187 0.0
C1271 C 0.00541 0.58006 0.8389 0.0
C1272 C 0.02231 0.57938 0.83988 0.0
C1273 C 0.02154 0.56241 0.83394 0.0
C1274 C 0.00779 0.5239 0.85659 0.0
C1275 C 0.99186 0.52252 0.86496 0.0
C1276 C 0.99432 0.5324 0.88313 0.0
C1277 C 0.01276 0.54363 0.89347 0.0
C1278 C 0.02849 0.54391 0.88554 0.0
C1279 C 0.02604 0.53425 0.86718 0.0
C1280 C 0.00619 0.48823 0.84529 0.0
C1281 C 0.98957 0.47247 0.85149 0.0
C1282 C 0.99116 0.461 0.86511 0.0
C1283 C 0.00942 0.46517 0.8729 0.0
C1284 C 0.02608 0.48123 0.86693 0.0
C1285 C 0.02446 0.4926 0.8531 0.0
C1286 C 0.98544 0.47539 0.7133 0.0
C1287 C 0.00627 0.59811 0.84525 0.0
H1288 H 0.49146 0.50828 0.69231 0.0
H1289 H 0.62256 0.65967 0.85502 0.0
H1290 H 0.46341 0.51447 0.78769 0.0
H1291 H 0.44226 0.48043 0.77562 0.0
H1292 H 0.47246 0.46539 0.81826 0.0
H1293 H 0.49404 0.49929 0.82935 0.0
H1294 H 0.50043 0.55164 0.76674 0.0
H1295 H 0.49572 0.53738 0.73305 0.0
H1296 H 0.50624 0.4946 0.75525 0.0
H1297 H 0.51118 0.50914 0.7888 0.0
H1298 H 0.5416 0.59197 0.78765 0.0
H1299 H 0.57076 0.60567 0.76985 0.0
H1300 H 0.57406 0.55538 0.77893 0.0
H1301 H 0.54603 0.54263 0.79761 0.0
H1302 H 0.52759 0.59999 0.83307 0.0
H1303 H 0.55519 0.63244 0.84305 0.0
H1304 H 0.59352 0.61087 0.84106 0.0
H1305 H 0.56581 0.5785 0.83134 0.0
H1306 H 0.49301 0.56619 0.86222 0.0
H1307 H 0.50006 0.57736 0.89759 0.0
H1308 H 0.55289 0.57719 0.89853 0.0
H1309 H 0.54531 0.56494 0.8639 0.0
H1310 H 0.46032 0.52661 0.83497 0.0
H1311 H 0.43791 0.50524 0.85773 0.0
H1312 H 0.48442 0.50291 0.88833 0.0
H1313 H 0.50659 0.52396 0.86534 0.0
O1314 O 0.49344 0.51372 0.70573 0.0
O1315 O 0.49886 0.49199 0.71791 0.0
O1316 O 0.59108 0.65736 0.85191 0.0
O1317 O 0.6114 0.647 0.85107 0.0
C1318 C 0.49533 0.52998 0.81442 0.0
C1319 C 0.50869 0.5401 0.80063 0.0
C1320 C 0.5253 0.55838 0.80638 0.0
C1321 C 0.52777 0.56726 0.82547 0.0
C1322 C 0.5144 0.55717 0.83934 0.0
C1323 C 0.49824 0.53846 0.83381 0.0
C1324 C 0.48023 0.50935 0.80943 0.0
C1325 C 0.46519 0.50374 0.79459 0.0
C1326 C 0.45311 0.4843 0.78778 0.0
C1327 C 0.45586 0.47024 0.7958 0.0
C1328 C 0.47021 0.47589 0.81147 0.0
C1329 C 0.48237 0.49524 0.81807 0.0
C1330 C 0.50588 0.53128 0.78023 0.0
C1331 C 0.5017 0.53918 0.76428 0.0
C1332 C 0.499 0.531 0.74506 0.0
C1333 C 0.50051 0.51479 0.74146 0.0
C1334 C 0.50489 0.50702 0.7575 0.0
C1335 C 0.50762 0.51524 0.7767 0.0
C1336 C 0.54167 0.56628 0.79386 0.0
C1337 C 0.54866 0.58397 0.78568 0.0
C1338 C 0.56522 0.59169 0.77544 0.0
C1339 C 0.57489 0.58172 0.77315 0.0
C1340 C 0.56731 0.56369 0.78079 0.0
C1341 C 0.55107 0.5562 0.79121 0.0
C1342 C 0.54471 0.58694 0.83124 0.0
C1343 C 0.54197 0.60233 0.83475 0.0
C1344 C 0.55775 0.62084 0.84045 0.0
C1345 C 0.57658 0.62426 0.84278 0.0
C1346 C 0.57924 0.60876 0.83933 0.0
C1347 C 0.56345 0.59026 0.83367 0.0
C1348 C 0.51884 0.56509 0.86034 0.0
C1349 C 0.50613 0.56865 0.87008 0.0
C1350 C 0.51016 0.57506 0.89015 0.0
C1351 C 0.52717 0.57843 0.9005 0.0
C1352 C 0.5399 0.57508 0.89068 0.0
C1353 C 0.53563 0.56819 0.8709 0.0
C1354 C 0.48509 0.52695 0.84862 0.0
C1355 C 0.46566 0.52161 0.84672 0.0
C1356 C 0.45292 0.50945 0.85972 0.0
C1357 C 0.45941 0.50233 0.87473 0.0
C1358 C 0.47896 0.50796 0.87675 0.0
C1359 C 0.49168 0.52016 0.86381 0.0
C1360 C 0.49757 0.5061 0.72103 0.0
C1361 C 0.59339 0.64389 0.84886 0.0
H1362 H 0.63403 0.8349 0.71261 0.0
H1363 H 0.66139 0.71161 0.56317 0.0
H1364 H 0.61784 0.8339 0.60831 0.0
H1365 H 0.62464 0.86595 0.61962 0.0
H1366 H 0.68076 0.89181 0.59727 0.0
H1367 H 0.67385 0.85991 0.58613 0.0
H1368 H 0.6166 0.79783 0.63259 0.0
H1369 H 0.61859 0.80883 0.66706 0.0
H1370 H 0.67594 0.85763 0.66186 0.0
H1371 H 0.67385 0.84634 0.62748 0.0
H1372 H 0.62095 0.76112 0.61295 0.0
H1373 H 0.6316 0.74377 0.63334 0.0
H1374 H 0.68751 0.79596 0.64629 0.0
H1375 H 0.67706 0.813 0.62543 0.0
H1376 H 0.61229 0.7561 0.56617 0.0
H1377 H 0.61306 0.72708 0.55794 0.0
H1378 H 0.67386 0.75798 0.57821 0.0
H1379 H 0.67295 0.78695 0.5861 0.0
H1380 H 0.61027 0.78319 0.53812 0.0
H1381 H 0.61049 0.77032 0.50504 0.0
H1382 H 0.67188 0.79392 0.51609 0.0
H1383 H 0.67133 0.80622 0.54916 0.0
H1384 H 0.61092 0.8225 0.55722 0.0
H1385 H 0.61175 0.84352 0.53192 0.0
H1386 H 0.67117 0.86204 0.52501 0.0
H1387 H 0.67019 0.84102 0.54999 0.0
O1388 O 0.63359 0.83077 0.69899 0.0
O1389 O 0.663 0.85564 0.69553 0.0
O1390 O 0.6295 0.70776 0.55563 0.0
O1391 O 0.6607 0.72292 0.56616 0.0
C1392 C 0.64233 0.8253 0.59127 0.0
C1393 C 0.64351 0.81465 0.60654 0.0
C1394 C 0.64366 0.79773 0.60188 0.0
C1395 C 0.64191 0.79107 0.58193 0.0
C1396 C 0.64043 0.80154 0.56671 0.0
C1397 C 0.64059 0.8186 0.57134 0.0
C1398 C 0.64527 0.84459 0.59621 0.0
C1399 C 0.63146 0.84654 0.60562 0.0
C1400 C 0.63543 0.86483 0.61217 0.0
C1401 C 0.65325 0.88145 0.60933 0.0
C1402 C 0.66678 0.87938 0.5994 0.0
C1403 C 0.66285 0.86114 0.59298 0.0
C1404 C 0.64499 0.82138 0.6275 0.0
C1405 C 0.62958 0.81087 0.63895 0.0
C1406 C 0.63075 0.8172 0.65862 0.0
C1407 C 0.6474 0.83415 0.6672 0.0
C1408 C 0.66289 0.84456 0.65569 0.0
C1409 C 0.66171 0.83819 0.63604 0.0
C1410 C 0.64824 0.78832 0.61764 0.0
C1411 C 0.63534 0.76889 0.62056 0.0
C1412 C 0.64145 0.75901 0.63212 0.0
C1413 C 0.66041 0.76853 0.64127 0.0
C1414 C 0.67278 0.78833 0.63956 0.0
C1415 C 0.66679 0.7981 0.62771 0.0
C1416 C 0.64253 0.77356 0.57683 0.0
C1417 C 0.62577 0.75656 0.56876 0.0
C1418 C 0.62624 0.74002 0.56411 0.0
C1419 C 0.64352 0.7402 0.56748 0.0
C1420 C 0.66032 0.75733 0.57547 0.0
C1421 C 0.65983 0.77388 0.58003 0.0
C1422 C 0.64076 0.79553 0.54598 0.0
C1423 C 0.62376 0.78571 0.53323 0.0
C1424 C 0.62395 0.77843 0.51436 0.0
C1425 C 0.64118 0.78092 0.50798 0.0
C1426 C 0.65829 0.79138 0.52066 0.0
C1427 C 0.65806 0.79857 0.53948 0.0
C1428 C 0.64051 0.83029 0.55537 0.0
C1429 C 0.62402 0.83099 0.55005 0.0
C1430 C 0.62448 0.84289 0.53564 0.0
C1431 C 0.64156 0.85445 0.52669 0.0
C1432 C 0.65789 0.8534 0.53185 0.0
C1433 C 0.65734 0.84136 0.54599 0.0
C1434 C 0.64854 0.84089 0.68807 0.0
C1435 C 0.64407 0.72262 0.5627 0.0
H1436 H 0.16065 0.8086 0.71879 0.0
H1437 H 0.07366 0.67088 0.53586 0.0
H1438 H 0.17484 0.82947 0.6158 0.0
H1439 H 0.19709 0.86096 0.63292 0.0
H1440 H 0.24443 0.8521 0.62681 0.0
H1441 H 0.22174 0.82026 0.6093 0.0
H1442 H 0.14633 0.79909 0.63288 0.0
H1443 H 0.14801 0.80421 0.6687 0.0
H1444 H 0.19365 0.79216 0.67493 0.0
H1445 H 0.19164 0.78685 0.63905 0.0
H1446 H 0.12068 0.77526 0.59605 0.0
H1447 H 0.09134 0.75946 0.61262 0.0
H1448 H 0.11287 0.72909 0.64507 0.0
H1449 H 0.14288 0.74576 0.62855 0.0
H1450 H 0.12255 0.76632 0.55585 0.0
H1451 H 0.09518 0.73711 0.53838 0.0
H1452 H 0.11529 0.7031 0.56552 0.0
H1453 H 0.14273 0.73248 0.58272 0.0
H1454 H 0.15888 0.80452 0.54642 0.0
H1455 H 0.15047 0.79901 0.51097 0.0
H1456 H 0.15815 0.75054 0.5094 0.0
H1457 H 0.16694 0.75641 0.54519 0.0
H1458 H 0.18782 0.83623 0.57682 0.0
H1459 H 0.20842 0.85994 0.555 0.0
H1460 H 0.22633 0.82146 0.53407 0.0
H1461 H 0.20707 0.7987 0.55737 0.0
O1462 O 0.16017 0.80643 0.70465 0.0
O1463 O 0.18366 0.80022 0.70705 0.0
O1464 O 0.07468 0.70081 0.52893 0.0
O1465 O 0.08436 0.68267 0.54256 0.0
C1466 C 0.18249 0.80337 0.60117 0.0
C1467 C 0.16778 0.78924 0.61164 0.0
C1468 C 0.15189 0.77265 0.60135 0.0
C1469 C 0.15151 0.76925 0.58084 0.0
C1470 C 0.16632 0.78316 0.5703 0.0
C1471 C 0.18176 0.8004 0.58045 0.0
C1472 C 0.19663 0.82247 0.61158 0.0
C1473 C 0.18998 0.83419 0.61837 0.0
C1474 C 0.20273 0.85217 0.62823 0.0
C1475 C 0.22251 0.85892 0.63156 0.0
C1476 C 0.22927 0.84727 0.62449 0.0
C1477 C 0.21638 0.82912 0.61456 0.0
C1478 C 0.16867 0.79232 0.6334 0.0
C1479 C 0.15652 0.79735 0.64201 0.0
C1480 C 0.15759 0.80037 0.66248 0.0
C1481 C 0.17092 0.79853 0.67469 0.0
C1482 C 0.18318 0.79363 0.66596 0.0
C1483 C 0.18206 0.79059 0.64549 0.0
C1484 C 0.13377 0.76148 0.61095 0.0
C1485 C 0.11897 0.76498 0.60653 0.0
C1486 C 0.10213 0.75581 0.61598 0.0
C1487 C 0.09955 0.74272 0.63 0.0
C1488 C 0.11442 0.73912 0.63438 0.0
C1489 C 0.13147 0.74848 0.62491 0.0
C1490 C 0.13476 0.75152 0.57031 0.0
C1491 C 0.1211 0.75256 0.55786 0.0
C1492 C 0.10544 0.73585 0.54797 0.0
C1493 C 0.10309 0.71776 0.55049 0.0
C1494 C 0.1167 0.71679 0.56319 0.0
C1495 C 0.13238 0.73353 0.57304 0.0
C1496 C 0.16376 0.78102 0.54838 0.0
C1497 C 0.15936 0.79308 0.53838 0.0
C1498 C 0.15451 0.78988 0.51809 0.0
C1499 C 0.15372 0.77438 0.50736 0.0
C1500 C 0.15859 0.76255 0.51731 0.0
C1501 C 0.16369 0.76593 0.53768 0.0
C1502 C 0.19614 0.81581 0.56897 0.0
C1503 C 0.19682 0.83327 0.56813 0.0
C1504 C 0.20832 0.84666 0.55526 0.0
C1505 C 0.21895 0.84264 0.54246 0.0
C1506 C 0.21867 0.82534 0.54383 0.0
C1507 C 0.20753 0.81217 0.55707 0.0
C1508 C 0.17203 0.80176 0.69643 0.0
C1509 C 0.0865 0.69996 0.53999 0.0
H1510 H 0.19972 0.36213 0.735 0.0
H1511 H 0.06554 0.34465 0.56215 0.0
H1512 H 0.22663 0.38529 0.63831 0.0
H1513 H 0.2496 0.37835 0.65429 0.0
H1514 H 0.22518 0.32605 0.61566 0.0
H1515 H 0.20133 0.33236 0.60104 0.0
H1516 H 0.18918 0.38385 0.65682 0.0
H1517 H 0.19422 0.37984 0.69156 0.0
H1518 H 0.187 0.32463 0.67498 0.0
H1519 H 0.18173 0.32871 0.64033 0.0
H1520 H 0.1493 0.37883 0.63278 0.0
H1521 H 0.11954 0.36539 0.64952 0.0
H1522 H 0.11602 0.31072 0.64894 0.0
H1523 H 0.1449 0.32387 0.63141 0.0
H1524 H 0.16039 0.39284 0.58878 0.0
H1525 H 0.13159 0.39281 0.57649 0.0
H1526 H 0.0971 0.33107 0.57925 0.0
H1527 H 0.12605 0.3313 0.59135 0.0
H1528 H 0.19069 0.39575 0.56333 0.0
H1529 H 0.18295 0.39579 0.52786 0.0
H1530 H 0.14455 0.33396 0.52418 0.0
H1531 H 0.15215 0.33409 0.5594 0.0
H1532 H 0.22739 0.39424 0.58355 0.0
H1533 H 0.24619 0.39562 0.5561 0.0
H1534 H 0.20457 0.33543 0.53883 0.0
H1535 H 0.18626 0.33418 0.56639 0.0
O1536 O 0.19761 0.36338 0.72119 0.0
O1537 O 0.19387 0.33513 0.71189 0.0
O1538 O 0.09556 0.3768 0.56573 0.0
O1539 O 0.07716 0.34507 0.56696 0.0
C1540 C 0.19592 0.36149 0.61164 0.0
C1541 C 0.18234 0.35934 0.62499 0.0
C1542 C 0.1655 0.3591 0.61821 0.0
C1543 C 0.16283 0.36227 0.5984 0.0
C1544 C 0.17636 0.3645 0.58513 0.0
C1545 C 0.1927 0.36376 0.59163 0.0
C1546 C 0.21234 0.35941 0.61841 0.0
C1547 C 0.22648 0.37249 0.63312 0.0
C1548 C 0.23967 0.3685 0.64219 0.0
C1549 C 0.23919 0.35148 0.63648 0.0
C1550 C 0.22574 0.33905 0.62084 0.0
C1551 C 0.21232 0.34285 0.6121 0.0
C1552 C 0.1853 0.35668 0.64605 0.0
C1553 C 0.18868 0.37089 0.66074 0.0
C1554 C 0.19157 0.36857 0.68056 0.0
C1555 C 0.19109 0.35195 0.68605 0.0
C1556 C 0.18754 0.33765 0.67126 0.0
C1557 C 0.1846 0.33997 0.65145 0.0
C1558 C 0.14926 0.35232 0.63086 0.0
C1559 C 0.14215 0.36401 0.63647 0.0
C1560 C 0.12522 0.35634 0.64611 0.0
C1561 C 0.11527 0.3369 0.65032 0.0
C1562 C 0.12307 0.32561 0.64553 0.0
C1563 C 0.13975 0.33319 0.63576 0.0
C1564 C 0.14524 0.3621 0.59109 0.0
C1565 C 0.14659 0.37934 0.58672 0.0
C1566 C 0.13012 0.37927 0.57971 0.0
C1567 C 0.11202 0.36193 0.57694 0.0
C1568 C 0.11079 0.34467 0.58127 0.0
C1569 C 0.12728 0.34476 0.58822 0.0
C1570 C 0.17197 0.36491 0.56382 0.0
C1571 C 0.18062 0.38227 0.55478 0.0
C1572 C 0.17618 0.38227 0.53463 0.0
C1573 C 0.16329 0.36486 0.5233 0.0
C1574 C 0.15475 0.34754 0.53249 0.0
C1575 C 0.15897 0.34759 0.55258 0.0
C1576 C 0.20556 0.3641 0.57695 0.0
C1577 C 0.22264 0.3813 0.57405 0.0
C1578 C 0.23322 0.38208 0.55829 0.0
C1579 C 0.22685 0.36563 0.54524 0.0
C1580 C 0.21007 0.34827 0.54873 0.0
C1581 C 0.19953 0.34754 0.56442 0.0
C1582 C 0.19426 0.34957 0.70712 0.0
C1583 C 0.09447 0.3618 0.56954 0.0
H1584 H 0.95438 0.39748 0.05801 0.0
H1585 H 0.01134 0.43946 0.16496 0.0
H1586 H 0.00295 0.39312 0.07834 0.0
H1587 H 0.96894 0.45139 0.14081 0.0
H1588 H 0.00751 0.42121 0.134 0.0
H1589 H 0.95834 0.4157 0.08899 0.0
C1590 C 0.96587 0.4003 0.069 0.0
C1591 C 0.97836 0.39374 0.06553 0.0
C1592 C 0.99908 0.42786 0.13545 0.0
C1593 C 0.98297 0.41467 0.10113 0.0
C1594 C 0.00134 0.4384 0.1531 0.0
C1595 C 0.99053 0.44711 0.1555 0.0
C1596 C 0.98582 0.42586 0.12007 0.0
C1597 C 0.97745 0.4448 0.13973 0.0
C1598 C 0.96814 0.41077 0.08669 0.0
C1599 C 0.993 0.3979 0.08035 0.0
N1600 N 0.97546 0.4344 0.12271 0.0
N1601 N 0.99488 0.40808 0.09751 0.0
H1602 H 0.60701 0.59269 0.12137 0.0
H1603 H 0.5568 0.49053 0.1662 0.0
H1604 H 0.60015 0.54118 0.09242 0.0
H1605 H 0.57104 0.54285 0.20013 0.0
H1606 H 0.57371 0.50946 0.13952 0.0
H1607 H 0.59487 0.57537 0.15081 0.0
C1608 C 0.60312 0.57782 0.12124 0.0
C1609 C 0.60445 0.56834 0.10431 0.0
C1610 C 0.57329 0.51686 0.15284 0.0
C1611 C 0.5905 0.54847 0.13784 0.0
C1612 C 0.56373 0.50604 0.16821 0.0
C1613 C 0.56246 0.51506 0.18553 0.0
C1614 C 0.58154 0.5369 0.15461 0.0
C1615 C 0.57138 0.53522 0.18696 0.0
C1616 C 0.59619 0.56795 0.13804 0.0
C1617 C 0.59925 0.54908 0.10502 0.0
N1618 N 0.58044 0.54546 0.17165 0.0
N1619 N 0.59239 0.53978 0.12141 0.0
H1620 H 0.42617 0.0239 0.07724 0.0
H1621 H 0.46984 0.03429 0.17202 0.0
H1622 H 0.41592 0.9664 0.07526 0.0
H1623 H 0.47107 0.98388 0.15341 0.0
H1624 H 0.45429 0.03245 0.13974 0.0
H1625 H 0.44705 0.03222 0.10774 0.0
C1626 C 0.42827 0.01301 0.08325 0.0
C1627 C 0.41907 0.99435 0.07376 0.0
C1628 C 0.45833 0.02203 0.14242 0.0
C1629 C 0.44264 0.0036 0.10903 0.0
C1630 C 0.46723 0.02308 0.16095 0.0
C1631 C 0.47169 0.00917 0.16547 0.0
C1632 C 0.45391 0.00695 0.12823 0.0
C1633 C 0.46764 0.99475 0.15068 0.0
C1634 C 0.44009 0.01772 0.10083 0.0
C1635 C 0.42253 0.98091 0.08211 0.0
N1636 N 0.45885 0.99394 0.13283 0.0
N1637 N 0.43396 0.98579 0.09925 0.0
H1638 H 0.3837 0.94836 0.96214 0.0
H1639 H 0.46292 0.01418 0.89218 0.0
H1640 H 0.41539 0.01047 0.97045 0.0
H1641 H 0.4168 0.95589 0.87347 0.0
H1642 H 0.44669 0.01304 0.92149 0.0
H1643 H 0.39682 0.95055 0.93036 0.0
C1644 C 0.39337 0.96247 0.95725 0.0
C1645 C 0.39853 0.97927 0.96901 0.0
C1646 C 0.44005 0.00057 0.91086 0.0
C1647 C 0.41371 0.98184 0.93272 0.0
C1648 C 0.44924 0.00123 0.89401 0.0
C1649 C 0.44129 0.98507 0.88023 0.0
C1650 C 0.42292 0.98356 0.91419 0.0
C1651 C 0.42372 0.96857 0.8838 0.0
C1652 C 0.40078 0.96369 0.93907 0.0
C1653 C 0.41102 0.99715 0.96186 0.0
N1654 N 0.41524 0.96818 0.9005 0.0
N1655 N 0.41836 0.99797 0.94425 0.0
H1656 H 0.02511 0.41895 0.97982 0.0
H1657 H 0.98938 0.42593 0.87038 0.0
H1658 H 0.97353 0.37413 0.94571 0.0
H1659 H 0.03273 0.47579 0.90767 0.0
H1660 H 0.98887 0.40532 0.89544 0.0
H1661 H 0.03342 0.43842 0.95117 0.0
C1662 C 0.01585 0.41305 0.96615 0.0
C1663 C 0.99857 0.39505 0.96504 0.0
C1664 C 0.99862 0.42076 0.89814 0.0
C1665 C 0.00782 0.417 0.93255 0.0
C1666 C 0.99885 0.43253 0.88385 0.0
C1667 C 0.01082 0.45261 0.88713 0.0
C1668 C 0.01035 0.42907 0.91597 0.0
C1669 C 0.0232 0.46036 0.90463 0.0
C1670 C 0.02049 0.42417 0.94991 0.0
C1671 C 0.98691 0.38805 0.94715 0.0
N1672 N 0.02246 0.44858 0.91856 0.0
N1673 N 0.99168 0.39905 0.93168 0.0
H1674 H 0.59322 0.62449 0.01256 0.0
H1675 H 0.50653 0.55803 0.93002 0.0
H1676 H 0.55648 0.56274 0.01205 0.0
H1677 H 0.55793 0.61117 0.91916 0.0
H1678 H 0.51807 0.56392 0.96519 0.0
H1679 H 0.57352 0.62359 0.98343 0.0
C1680 C 0.5807 0.61083 0.00666 0.0
C1681 C 0.5766 0.59362 0.01447 0.0
C1682 C 0.52655 0.57453 0.95517 0.0
C1683 C 0.55408 0.59253 0.98146 0.0
C1684 C 0.51992 0.57125 0.93521 0.0
C1685 C 0.5314 0.58412 0.92185 0.0
C1686 C 0.54466 0.59087 0.96169 0.0
C1687 C 0.54876 0.60092 0.92912 0.0
C1688 C 0.56955 0.61033 0.99003 0.0
C1689 C 0.56027 0.57629 0.00625 0.0
N1690 N 0.55499 0.60374 0.94857 0.0
N1691 N 0.54969 0.57616 0.99008 0.0
H1692 H 0.99387 0.5981 0.99375 0.0
H1693 H 0.04397 0.57968 0.90597 0.0
H1694 H 0.05585 0.62655 0.99444 0.0
H1695 H 0.98808 0.536 0.92248 0.0
H1696 H 0.04768 0.60025 0.93503 0.0
H1697 H 0.99041 0.57899 0.96342 0.0
C1698 C 0.00675 0.60055 0.98736 0.0
C1699 C 0.02518 0.61387 0.99666 0.0
C1700 C 0.03465 0.58613 0.93223 0.0
C1701 C 0.0213 0.59207 0.96208 0.0
C1702 C 0.03255 0.57426 0.91575 0.0
C1703 C 0.01567 0.55594 0.91168 0.0
C1704 C 0.01964 0.57984 0.94457 0.0
C1705 C 0.0012 0.55007 0.92472 0.0
C1706 C 0.00475 0.58952 0.97018 0.0
C1707 C 0.04137 0.61635 0.98779 0.0
N1708 N 0.00347 0.56203 0.94049 0.0
N1709 N 0.03906 0.60555 0.97097 0.0
H1710 H 0.40034 0.41215 0.95291 0.0
H1711 H 0.43164 0.50481 0.89295 0.0
H1712 H 0.38394 0.4536 0.96555 0.0
H1713 H 0.45628 0.46947 0.88714 0.0
H1714 H 0.41034 0.48335 0.91623 0.0
H1715 H 0.41711 0.43012 0.92529 0.0
C1716 C 0.40006 0.42488 0.94974 0.0
C1717 C 0.3909 0.43149 0.96168 0.0
C1718 C 0.42035 0.48024 0.9098 0.0
C1719 C 0.41007 0.45211 0.93021 0.0
C1720 C 0.43244 0.49243 0.89645 0.0
C1721 C 0.44585 0.489 0.88824 0.0
C1722 C 0.42161 0.46444 0.91493 0.0
C1723 C 0.44638 0.47282 0.8934 0.0
C1724 C 0.40971 0.43518 0.93404 0.0
C1725 C 0.39099 0.44808 0.95688 0.0
N1726 N 0.43447 0.46117 0.90647 0.0
N1727 N 0.40051 0.45786 0.9416 0.0
H1728 H 0.56153 0.0168 0.00735 0.0
H1729 H 0.53698 0.96367 0.90039 0.0
H1730 H 0.58042 0.97812 0.9911 0.0
H1731 H 0.50843 0.99182 0.92215 0.0
H1732 H 0.55094 0.96635 0.93394 0.0
H1733 H 0.54004 0.00561 0.97704 0.0
C1734 C 0.56094 0.00573 0.99749 0.0
C1735 C 0.5729 0.9985 0.00165 0.0
C1736 C 0.5414 0.97169 0.93141 0.0
C1737 C 0.54854 0.98583 0.96663 0.0
C1738 C 0.53333 0.97009 0.91225 0.0
C1739 C 0.52169 0.97776 0.90836 0.0
C1740 C 0.53794 0.98118 0.94677 0.0
C1741 C 0.51768 0.98611 0.92435 0.0
C1742 C 0.54865 0.99932 0.98016 0.0
C1743 C 0.57144 0.98407 0.98843 0.0
N1744 N 0.52596 0.98779 0.94276 0.0
N1745 N 0.55973 0.97843 0.97131 0.0
H1746 H 0.60758 0.05806 0.10302 0.0
H1747 H 0.56258 0.99351 0.19303 0.0
H1748 H 0.60178 0.00284 0.10829 0.0
H1749 H 0.56728 0.04816 0.18744 0.0
H1750 H 0.57976 0.99816 0.16358 0.0
H1751 H 0.59581 0.05623 0.13551 0.0
C1752 C 0.60398 0.04562 0.11106 0.0
C1753 C 0.60551 0.0305 0.1028 0.0
C1754 C 0.57718 0.00922 0.16887 0.0
C1755 C 0.59195 0.02829 0.14 0.0
C1756 C 0.56731 0.00653 0.18565 0.0
C1757 C 0.56336 0.0204 0.19263 0.0
C1758 C 0.58308 0.02585 0.1589 0.0
C1759 C 0.57012 0.03715 0.18267 0.0
C1760 C 0.59725 0.04458 0.12961 0.0
C1761 C 0.60071 0.01478 0.11397 0.0
N1762 N 0.5795 0.03933 0.16622 0.0
N1763 N 0.59403 0.01404 0.13191 0.0
H1764 H 0.00921 0.5756 0.07624 0.0
H1765 H 0.97695 0.55386 0.18462 0.0
H1766 H 0.98643 0.60543 0.10707 0.0
H1767 H 0.99459 0.52172 0.14929 0.0
H1768 H 0.97608 0.57024 0.15552 0.0
H1769 H 0.99948 0.55293 0.10146 0.0
C1770 C 0.00186 0.57716 0.08826 0.0
C1771 C 0.99874 0.59244 0.08973 0.0
C1772 C 0.97988 0.55941 0.1541 0.0
C1773 C 0.98798 0.56682 0.11909 0.0
C1774 C 0.98034 0.55004 0.17067 0.0
C1775 C 0.98621 0.5367 0.1694 0.0
C1776 C 0.9853 0.55531 0.13622 0.0
C1777 C 0.99043 0.53225 0.15102 0.0
C1778 C 0.99632 0.56423 0.10271 0.0
C1779 C 0.98906 0.59378 0.10548 0.0
N1780 N 0.99007 0.54165 0.13525 0.0
N1781 N 0.98432 0.58132 0.11983 0.0
H1782 H 0.41488 0.39361 0.05311 0.0
H1783 H 0.44375 0.44262 0.16244 0.0
H1784 H 0.40732 0.43983 0.07336 0.0
H1785 H 0.4769 0.42084 0.13762 0.0
H1786 H 0.42604 0.43633 0.13048 0.0
H1787 H 0.43433 0.39885 0.08441 0.0
C1788 C 0.41738 0.40489 0.06401 0.0
C1789 C 0.40937 0.41624 0.06061 0.0
C1790 C 0.43725 0.433 0.13195 0.0
C1791 C 0.43116 0.42199 0.09627 0.0
C1792 C 0.44749 0.43669 0.15021 0.0
C1793 C 0.46227 0.43278 0.15266 0.0
C1794 C 0.44148 0.42501 0.1159 0.0
C1795 C 0.46573 0.42422 0.13637 0.0
C1796 C 0.42847 0.40786 0.08179 0.0
C1797 C 0.41311 0.43067 0.07524 0.0
N1798 N 0.45542 0.42064 0.11858 0.0
N1799 N 0.42353 0.43298 0.09242 0.0
H1800 H 0.66634 0.72744 0.41155 0.0
H1801 H 0.62169 0.77847 0.47264 0.0
H1802 H 0.62187 0.73619 0.38676 0.0
H1803 H 0.66087 0.76328 0.49882 0.0
H1804 H 0.62227 0.76397 0.44079 0.0
H1805 H 0.66547 0.74172 0.44338 0.0
C1806 C 0.6564 0.73237 0.41277 0.0
C1807 C 0.64416 0.73059 0.39643 0.0
C1808 C 0.63075 0.76382 0.45352 0.0
C1809 C 0.64311 0.74699 0.43286 0.0
C1810 C 0.63035 0.77202 0.47173 0.0
C1811 C 0.64131 0.77219 0.48846 0.0
C1812 C 0.64221 0.75573 0.45198 0.0
C1813 C 0.65246 0.76382 0.48629 0.0
C1814 C 0.6559 0.7405 0.43098 0.0
C1815 C 0.63156 0.73723 0.39894 0.0
N1816 N 0.65263 0.75597 0.46841 0.0
N1817 N 0.63139 0.74515 0.41679 0.0
H1818 H 0.25408 0.92187 0.45005 0.0
H1819 H 0.2525 0.85029 0.52675 0.0
H1820 H 0.27146 0.88138 0.43655 0.0
H1821 H 0.2085 0.8647 0.52207 0.0
H1822 H 0.26647 0.86867 0.49849 0.0
H1823 H 0.24419 0.9079 0.4817 0.0
C1824 C 0.25602 0.91022 0.45386 0.0
C1825 C 0.26341 0.90261 0.44065 0.0
C1826 C 0.25386 0.8679 0.50387 0.0
C1827 C 0.25255 0.88696 0.47671 0.0
C1828 C 0.24577 0.85731 0.51992 0.0
C1829 C 0.22907 0.85563 0.52681 0.0
C1830 C 0.24548 0.87722 0.49485 0.0
C1831 C 0.22147 0.86567 0.51759 0.0
C1832 C 0.25033 0.90225 0.47181 0.0
C1833 C 0.26561 0.88749 0.44624 0.0
N1834 N 0.22971 0.87599 0.50207 0.0
N1835 N 0.26025 0.88019 0.46389 0.0
H1836 H 0.10641 0.36863 0.41467 0.0
H1837 H 0.16269 0.34135 0.4934 0.0
H1838 H 0.11492 0.32106 0.40609 0.0
H1839 H 0.15225 0.38725 0.50489 0.0
H1840 H 0.14995 0.33748 0.45916 0.0
H1841 H 0.12771 0.37934 0.4454 0.0
C1842 C 0.113 0.36063 0.41906 0.0
C1843 C 0.10865 0.34376 0.40794 0.0
C1844 C 0.15059 0.34855 0.46906 0.0
C1845 C 0.13291 0.35586 0.44304 0.0
C1846 C 0.15784 0.35073 0.48861 0.0
C1847 C 0.15824 0.36444 0.502 0.0
C1848 C 0.14346 0.36002 0.46285 0.0
C1849 C 0.15213 0.37647 0.49499 0.0
C1850 C 0.12509 0.36671 0.43664 0.0
C1851 C 0.11762 0.33397 0.41433 0.0
N1852 N 0.14471 0.3738 0.47593 0.0
N1853 N 0.12914 0.34006 0.4315 0.0
H1854 H 0.0889 0.34423 0.30218 0.0
H1855 H 0.07441 0.27418 0.2086 0.0
H1856 H 0.0589 0.28235 0.30246 0.0
H1857 H 0.12186 0.33341 0.21778 0.0
H1858 H 0.06344 0.27799 0.24012 0.0
H1859 H 0.09598 0.34137 0.26815 0.0
C1860 C 0.08367 0.33005 0.29504 0.0
C1861 C 0.07346 0.31351 0.3052 0.0
C1862 C 0.07616 0.29017 0.23508 0.0
C1863 C 0.0813 0.31017 0.26638 0.0
C1864 C 0.08249 0.28801 0.21713 0.0
C1865 C 0.09923 0.30342 0.21052 0.0
C1866 C 0.08649 0.30793 0.24644 0.0
C1867 C 0.10877 0.32115 0.22207 0.0
C1868 C 0.08776 0.32845 0.27568 0.0
C1869 C 0.06701 0.29549 0.29524 0.0
N1870 N 0.10232 0.32288 0.2395 0.0
N1871 N 0.07103 0.2943 0.27638 0.0
H1872 H 0.70205 0.76268 0.31816 0.0
H1873 H 0.68719 0.77319 0.20335 0.0
H1874 H 0.65567 0.71937 0.27729 0.0
H1875 H 0.71935 0.82231 0.24607 0.0
H1876 H 0.68305 0.75199 0.22926 0.0
H1877 H 0.71558 0.78329 0.29076 0.0
C1878 C 0.69504 0.75737 0.30335 0.0
C1879 C 0.67772 0.73945 0.29984 0.0
C1880 C 0.69122 0.76742 0.23294 0.0
C1881 C 0.69296 0.7626 0.26877 0.0
C1882 C 0.69354 0.77952 0.21817 0.0
C1883 C 0.70325 0.7995 0.22266 0.0
C1884 C 0.69861 0.77531 0.25239 0.0
C1885 C 0.71165 0.80696 0.24201 0.0
C1886 C 0.70265 0.76912 0.28781 0.0
C1887 C 0.669 0.73319 0.28053 0.0
N1888 N 0.70889 0.79483 0.25628 0.0
N1889 N 0.67666 0.74476 0.26574 0.0
H1890 H 0.25628 0.95532 0.34365 0.0
H1891 H 0.17029 0.8933 0.2589 0.0
H1892 H 0.21712 0.89379 0.34224 0.0
H1893 H 0.22285 0.94618 0.24981 0.0
H1894 H 0.18186 0.89711 0.29381 0.0
H1895 H 0.23845 0.95559 0.31359 0.0
C1896 C 0.24368 0.94195 0.33729 0.0
C1897 C 0.23831 0.92446 0.34528 0.0
C1898 C 0.19066 0.90806 0.28423 0.0
C1899 C 0.2179 0.92472 0.31107 0.0
C1900 C 0.18403 0.90597 0.26441 0.0
C1901 C 0.19573 0.91941 0.25155 0.0
C1902 C 0.209 0.9238 0.29121 0.0
C1903 C 0.21351 0.93545 0.2593 0.0
C1904 C 0.2336 0.94211 0.3201 0.0
C1905 C 0.22189 0.90755 0.3364 0.0
N1906 N 0.21968 0.93716 0.27863 0.0
N1907 N 0.21234 0.90807 0.31969 0.0
H1908 H 0.68669 0.94933 0.32276 0.0
H1909 H 0.70651 0.87424 0.26918 0.0
H1910 H 0.71646 0.9261 0.35401 0.0
H1911 H 0.70821 0.92043 0.23924 0.0
H1912 H 0.70496 0.88918 0.30056 0.0
H1913 H 0.68902 0.93473 0.2917 0.0
C1914 C 0.69363 0.9411 0.32308 0.0
C1915 C 0.70145 0.93896 0.34093 0.0
C1916 C 0.70578 0.89606 0.28711 0.0
C1917 C 0.70391 0.92209 0.30565 0.0
C1918 C 0.70663 0.88756 0.26931 0.0
C1919 C 0.70765 0.89628 0.2518 0.0
C1920 C 0.70543 0.91305 0.2872 0.0
C1921 C 0.70766 0.91345 0.25255 0.0
C1922 C 0.69504 0.93289 0.30539 0.0
C1923 C 0.71036 0.9282 0.34053 0.0
N1924 N 0.70638 0.92121 0.26997 0.0
N1925 N 0.71122 0.92002 0.32317 0.0
H1926 H 0.06012 0.74962 0.28546 0.0
H1927 H 0.13714 0.85129 0.25048 0.0
H1928 H 0.0812 0.80315 0.32067 0.0
H1929 H 0.09541 0.80503 0.2085 0.0
H1930 H 0.12009 0.83211 0.27736 0.0
H1931 H 0.07603 0.76812 0.25758 0.0
C1932 C 0.06802 0.76521 0.2873 0.0
C1933 C 0.06931 0.77487 0.30538 0.0
C1934 C 0.11466 0.82617 0.26226 0.0
C1935 C 0.0877 0.79594 0.27388 0.0
C1936 C 0.12441 0.83704 0.24699 0.0
C1937 C 0.11758 0.82967 0.22736 0.0
C1938 C 0.0982 0.80767 0.25786 0.0
C1939 C 0.10098 0.81119 0.22351 0.0
C1940 C 0.07702 0.77572 0.27142 0.0
C1941 C 0.07973 0.7951 0.30699 0.0
N1942 N 0.09188 0.8007 0.23867 0.0
N1943 N 0.08867 0.80494 0.29151 0.0
H1944 H 0.23468 0.30711 0.33137 0.0
H1945 H 0.20819 0.33928 0.23207 0.0
H1946 H 0.2515 0.36561 0.32199 0.0
H1947 H 0.17275 0.28094 0.24811 0.0
H1948 H 0.22654 0.3482 0.264 0.0
H1949 H 0.21388 0.2962 0.30009 0.0
C1950 C 0.23395 0.31762 0.32284 0.0
C1951 C 0.24493 0.33733 0.32932 0.0
C1952 C 0.21466 0.33346 0.26064 0.0
C1953 C 0.22146 0.325 0.29362 0.0
C1954 C 0.20401 0.32834 0.24238 0.0
C1955 C 0.18854 0.30937 0.23739 0.0
C1956 C 0.21015 0.31952 0.27411 0.0
C1957 C 0.18453 0.29574 0.25125 0.0
C1958 C 0.22207 0.31138 0.30505 0.0
C1959 C 0.24338 0.3503 0.31767 0.0
N1960 N 0.1953 0.30107 0.269 0.0
N1961 N 0.23204 0.34392 0.3004 0.0
H1962 H 0.26458 0.33607 0.44078 0.0
H1963 H 0.24156 0.39447 0.52029 0.0
H1964 H 0.27295 0.39203 0.43306 0.0
H1965 H 0.23434 0.33915 0.52902 0.0
H1966 H 0.25499 0.39466 0.48917 0.0
H1967 H 0.25486 0.3375 0.47375 0.0
C1968 C 0.26441 0.34867 0.44601 0.0
C1969 C 0.26951 0.36391 0.43406 0.0
C1970 C 0.25059 0.38253 0.49794 0.0
C1971 C 0.25842 0.36565 0.47182 0.0
C1972 C 0.24307 0.38249 0.51582 0.0
C1973 C 0.23675 0.36674 0.52728 0.0
C1974 C 0.25178 0.36668 0.4914 0.0
C1975 C 0.23877 0.35146 0.52053 0.0
C1976 C 0.25888 0.34949 0.46486 0.0
C1977 C 0.26908 0.3799 0.44168 0.0
N1978 N 0.24601 0.35177 0.50299 0.0
N1979 N 0.26357 0.38032 0.46003 0.0
H1980 H 0.69199 0.95133 0.45882 0.0
H1981 H 0.61758 0.84772 0.49331 0.0
H1982 H 0.64261 0.90808 0.42083 0.0
H1983 H 0.66868 0.89252 0.52809 0.0
H1984 H 0.6229 0.87054 0.46835 0.0
H1985 H 0.67986 0.93134 0.48614 0.0
C1986 C 0.67841 0.93762 0.45634 0.0
C1987 C 0.66837 0.93119 0.43757 0.0
C1988 C 0.63278 0.8754 0.48157 0.0
C1989 C 0.65454 0.90785 0.46873 0.0
C1990 C 0.62972 0.86243 0.49579 0.0
C1991 C 0.64291 0.86824 0.51256 0.0
C1992 C 0.64903 0.89425 0.48434 0.0
C1993 C 0.6584 0.88739 0.51517 0.0
C1994 C 0.67147 0.92617 0.47194 0.0
C1995 C 0.65074 0.91346 0.43514 0.0
N1996 N 0.66108 0.89962 0.50117 0.0
N1997 N 0.64451 0.90217 0.45052 0.0
H1998 H 0.07942 0.72229 0.39837 0.0
H1999 H 0.16264 0.79957 0.47887 0.0
H2000 H 0.10177 0.78335 0.40242 0.0
H2001 H 0.12774 0.73912 0.48779 0.0
H2002 H 0.14596 0.7929 0.44597 0.0
H2003 H 0.10225 0.72752 0.42668 0.0
C2004 C 0.08929 0.73678 0.40504 0.0
C2005 C 0.08857 0.75239 0.39825 0.0
C2006 C 0.14211 0.78105 0.45503 0.0
C2007 C 0.1147 0.75845 0.43022 0.0
C2008 C 0.15161 0.78485 0.4738 0.0
C2009 C 0.14633 0.76993 0.48621 0.0
C2010 C 0.12719 0.76219 0.44856 0.0
C2011 C 0.13225 0.75105 0.47871 0.0
C2012 C 0.10223 0.73974 0.42117 0.0
C2013 C 0.10165 0.77088 0.40737 0.0
N2014 N 0.12296 0.74773 0.46042 0.0
N2015 N 0.11411 0.77337 0.42288 0.0
H2016 H 0.27735 0.05238 0.72896 0.0
H2017 H 0.33996 0.12877 0.81994 0.0
H2018 H 0.33883 0.07712 0.73998 0.0
H2019 H 0.27918 0.08625 0.8207 0.0
H2020 H 0.33969 0.11363 0.78819 0.0
H2021 H 0.27773 0.06848 0.76014 0.0
C2022 C 0.29095 0.06126 0.7379 0.0
C2023 C 0.3081 0.06338 0.73187 0.0
C2024 C 0.32644 0.10767 0.79535 0.0
C2025 C 0.3086 0.08195 0.76749 0.0
C2026 C 0.32656 0.11623 0.81353 0.0
C2027 C 0.30959 0.10871 0.82324 0.0
C2028 C 0.30918 0.09164 0.78657 0.0
C2029 C 0.29257 0.09275 0.81379 0.0
C2030 C 0.29112 0.07037 0.75572 0.0
C2031 C 0.32528 0.07501 0.74411 0.0
N2032 N 0.2928 0.08477 0.79599 0.0
N2033 N 0.32512 0.08395 0.76132 0.0
H2034 H 0.93777 0.25226 0.78231 0.0
H2035 H 0.89262 0.15206 0.83106 0.0
H2036 H 0.93139 0.20057 0.75444 0.0
H2037 H 0.90407 0.20445 0.86259 0.0
H2038 H 0.90831 0.17032 0.80351 0.0
H2039 H 0.92672 0.23573 0.81237 0.0
C2040 C 0.93417 0.23751 0.78253 0.0
C2041 C 0.93538 0.22776 0.76575 0.0
C2042 C 0.90755 0.1779 0.8165 0.0
C2043 C 0.92271 0.20878 0.80002 0.0
C2044 C 0.89871 0.16748 0.83236 0.0
C2045 C 0.897 0.1767 0.84925 0.0
C2046 C 0.91463 0.19772 0.81735 0.0
C2047 C 0.90481 0.19667 0.84978 0.0
C2048 C 0.92788 0.22809 0.7997 0.0
C2049 C 0.93058 0.20866 0.76692 0.0
N2050 N 0.91318 0.2065 0.83401 0.0
N2051 N 0.92437 0.1998 0.78369 0.0
H2052 H 0.76779 0.70622 0.74718 0.0
H2053 H 0.84318 0.70171 0.82372 0.0
H2054 H 0.79183 0.67081 0.73718 0.0
H2055 H 0.80687 0.7228 0.84001 0.0
H2056 H 0.83107 0.69816 0.78905 0.0
H2057 H 0.78859 0.72008 0.77823 0.0
C2058 C 0.77776 0.70169 0.75128 0.0
C2059 C 0.77792 0.68716 0.73974 0.0
C2060 C 0.826 0.7039 0.80015 0.0
C2061 C 0.80164 0.70289 0.77512 0.0
C2062 C 0.83298 0.70601 0.81984 0.0
C2063 C 0.82597 0.71257 0.8345 0.0
C2064 C 0.81183 0.70828 0.79521 0.0
C2065 C 0.81262 0.71777 0.82896 0.0
C2066 C 0.78952 0.70952 0.76904 0.0
C2067 C 0.79106 0.68179 0.74578 0.0
N2068 N 0.80582 0.71535 0.80972 0.0
N2069 N 0.80227 0.68953 0.76312 0.0
H2070 H 0.73167 0.61535 0.63872 0.0
H2071 H 0.7898 0.66899 0.54993 0.0
H2072 H 0.75408 0.67581 0.63381 0.0
H2073 H 0.74559 0.60837 0.54337 0.0
H2074 H 0.77862 0.67186 0.58145 0.0
H2075 H 0.73868 0.6124 0.60479 0.0
C2076 C 0.73803 0.628 0.63049 0.0
C2077 C 0.74239 0.64589 0.63913 0.0
C2078 C 0.77125 0.65798 0.57299 0.0
C2079 C 0.75056 0.64261 0.60042 0.0
C2080 C 0.77751 0.65631 0.55484 0.0
C2081 C 0.76865 0.63837 0.54377 0.0
C2082 C 0.75627 0.64156 0.58042 0.0
C2083 C 0.75315 0.62242 0.55144 0.0
C2084 C 0.74191 0.62627 0.61111 0.0
C2085 C 0.75049 0.66175 0.62773 0.0
N2086 N 0.7476 0.62435 0.56939 0.0
N2087 N 0.75453 0.6598 0.60902 0.0
H2088 H 0.30286 0.04867 0.61414 0.0
H2089 H 0.38089 0.14684 0.57214 0.0
H2090 H 0.35959 0.08633 0.64434 0.0
H2091 H 0.32535 0.10498 0.54194 0.0
H2092 H 0.37526 0.12426 0.5974 0.0
H2093 H 0.31261 0.06823 0.58631 0.0
C2094 C 0.31747 0.06106 0.61485 0.0
C2095 C 0.33037 0.06601 0.63167 0.0
C2096 C 0.36442 0.11998 0.58513 0.0
C2097 C 0.34166 0.08881 0.59976 0.0
C2098 C 0.36764 0.13282 0.57071 0.0
C2099 C 0.35341 0.12787 0.55512 0.0
C2100 C 0.34688 0.10211 0.58384 0.0
C2101 C 0.33652 0.10955 0.55394 0.0
C2102 C 0.32307 0.07224 0.5989 0.0
C2103 C 0.3492 0.08206 0.63164 0.0
N2104 N 0.33369 0.09745 0.56814 0.0
N2105 N 0.35423 0.0931 0.61601 0.0
H2106 H 0.88924 0.21976 0.66999 0.0
H2107 H 0.89111 0.27303 0.57773 0.0
H2108 H 0.92391 0.28177 0.67198 0.0
H2109 H 0.84028 0.2192 0.58811 0.0
H2110 H 0.90292 0.27726 0.61257 0.0
H2111 H 0.8703 0.21935 0.64066 0.0
C2112 C 0.89263 0.23331 0.66443 0.0
C2113 C 0.90825 0.25081 0.67328 0.0
C2114 C 0.88897 0.26475 0.60736 0.0
C2115 C 0.88694 0.25042 0.63953 0.0
C2116 C 0.88227 0.26235 0.58754 0.0
C2117 C 0.86476 0.24578 0.58023 0.0
C2118 C 0.87832 0.25017 0.61974 0.0
C2119 C 0.85383 0.23222 0.59333 0.0
C2120 C 0.88179 0.23307 0.64774 0.0
C2121 C 0.91199 0.26797 0.66556 0.0
N2122 N 0.86098 0.23451 0.61242 0.0
N2123 N 0.90168 0.26732 0.64884 0.0
H2124 H 0.34086 0.27677 0.6563 0.0
H2125 H 0.38423 0.22559 0.59375 0.0
H2126 H 0.3907 0.27468 0.67703 0.0
H2127 H 0.34194 0.2373 0.56875 0.0
H2128 H 0.38607 0.24275 0.62476 0.0
H2129 H 0.34028 0.26159 0.62434 0.0
C2130 C 0.35175 0.27324 0.65412 0.0
C2131 C 0.36581 0.27696 0.66941 0.0
C2132 C 0.3764 0.24159 0.61247 0.0
C2133 C 0.36513 0.25945 0.63298 0.0
C2134 C 0.3754 0.23184 0.59473 0.0
C2135 C 0.36285 0.2299 0.5786 0.0
C2136 C 0.36471 0.2494 0.61418 0.0
C2137 C 0.35154 0.23809 0.58088 0.0
C2138 C 0.3514 0.26457 0.63587 0.0
C2139 C 0.37956 0.27207 0.66572 0.0
N2140 N 0.35271 0.24743 0.59835 0.0
N2141 N 0.37879 0.26348 0.64794 0.0
H2142 H 0.74246 0.07823 0.61532 0.0
H2143 H 0.76755 0.17029 0.55655 0.0
H2144 H 0.73031 0.12169 0.63374 0.0
H2145 H 0.78992 0.13385 0.54369 0.0
H2146 H 0.74945 0.14943 0.58179 0.0
H2147 H 0.75561 0.09532 0.58591 0.0
C2148 C 0.74233 0.0912 0.61306 0.0
C2149 C 0.73547 0.09866 0.62709 0.0
C2150 C 0.75824 0.14592 0.57339 0.0
C2151 C 0.75042 0.1182 0.59363 0.0
C2152 C 0.76849 0.15777 0.55889 0.0
C2153 C 0.78037 0.15388 0.54808 0.0
C2154 C 0.75981 0.13 0.57713 0.0
C2155 C 0.78118 0.13755 0.55191 0.0
C2156 C 0.74991 0.10098 0.59635 0.0
C2157 C 0.73566 0.11553 0.62344 0.0
N2158 N 0.77109 0.12623 0.56618 0.0
N2159 N 0.74308 0.12474 0.60714 0.0
H2160 H 0.90505 0.69785 0.662 0.0
H2161 H 0.83808 0.61439 0.57802 0.0
H2162 H 0.89892 0.64211 0.663 0.0
H2163 H 0.87055 0.67512 0.56927 0.0
H2164 H 0.85411 0.62207 0.61166 0.0
H2165 H 0.88484 0.68704 0.63099 0.0
C2166 C 0.8993 0.68323 0.65583 0.0
C2167 C 0.90398 0.67097 0.66503 0.0
C2168 C 0.85751 0.63362 0.60228 0.0
C2169 C 0.88073 0.65853 0.6293 0.0
C2170 C 0.84848 0.62929 0.58306 0.0
C2171 C 0.85271 0.64412 0.57068 0.0
C2172 C 0.87059 0.6529 0.60923 0.0
C2173 C 0.86622 0.66316 0.57825 0.0
C2174 C 0.8878 0.67711 0.63805 0.0
C2175 C 0.89581 0.65209 0.65633 0.0
N2176 N 0.87454 0.66696 0.59697 0.0
N2177 N 0.88465 0.64645 0.63881 0.0
H2178 H 0.94432 0.73214 0.76679 0.0
H2179 H 0.89634 0.67544 0.86044 0.0
H2180 H 0.92921 0.67374 0.77385 0.0
H2181 H 0.91163 0.73389 0.85364 0.0
H2182 H 0.91085 0.67552 0.83005 0.0
H2183 H 0.93491 0.734 0.79977 0.0
C2184 C 0.93913 0.71973 0.7753 0.0
C2185 C 0.93741 0.70269 0.76745 0.0
C2186 C 0.91119 0.68839 0.83527 0.0
C2187 C 0.92658 0.70473 0.80525 0.0
C2188 C 0.90286 0.68834 0.85259 0.0
C2189 C 0.90265 0.70463 0.85949 0.0
C2190 C 0.91928 0.70484 0.82467 0.0
C2191 C 0.91158 0.72105 0.84892 0.0
C2192 C 0.93377 0.72082 0.79416 0.0
C2193 C 0.93068 0.68713 0.77923 0.0
N2194 N 0.91937 0.72067 0.83194 0.0
N2195 N 0.9254 0.68849 0.79748 0.0
H2196 H 0.33906 0.23518 0.7479 0.0
H2197 H 0.29792 0.21256 0.85245 0.0
H2198 H 0.31711 0.26717 0.77593 0.0
H2199 H 0.31322 0.17751 0.81864 0.0
H2200 H 0.30057 0.23033 0.8234 0.0
H2201 H 0.32532 0.21144 0.77194 0.0
C2202 C 0.33104 0.23699 0.75903 0.0
C2203 C 0.3293 0.25314 0.76011 0.0
C2204 C 0.30304 0.21855 0.82228 0.0
C2205 C 0.31395 0.22632 0.78815 0.0
C2206 C 0.30149 0.2084 0.83881 0.0
C2207 C 0.30574 0.19383 0.83799 0.0
C2208 C 0.30886 0.21402 0.80491 0.0
C2209 C 0.31028 0.18897 0.82002 0.0
C2210 C 0.32319 0.22345 0.7728 0.0
C2211 C 0.3187 0.25484 0.77469 0.0
N2212 N 0.31192 0.19916 0.8043 0.0
N2213 N 0.31172 0.24175 0.78846 0.0
H2214 H 0.78129 0.11 0.72022 0.0
H2215 H 0.79423 0.06173 0.81311 0.0
H2216 H 0.74805 0.04856 0.72423 0.0
H2217 H 0.83304 0.12113 0.80246 0.0
H2218 H 0.77975 0.05536 0.77903 0.0
H2219 H 0.80283 0.11334 0.74838 0.0
C2220 C 0.77868 0.09716 0.72693 0.0
C2221 C 0.76275 0.07901 0.72006 0.0
C2222 C 0.79168 0.0697 0.78404 0.0
C2223 C 0.78719 0.08273 0.75266 0.0
C2224 C 0.80002 0.07331 0.80345 0.0
C2225 C 0.81464 0.09206 0.81068 0.0
C2226 C 0.79798 0.08498 0.77188 0.0
C2227 C 0.82152 0.10656 0.79759 0.0
C2228 C 0.79102 0.09906 0.74301 0.0
C2229 C 0.76017 0.06283 0.72914 0.0
N2230 N 0.81296 0.10277 0.77894 0.0
N2231 N 0.77206 0.0651 0.74525 0.0
H2232 H 0.04212 0.36922 0.05586 0.0
H2233 H 0.07352 0.292 0.06835 0.0
H2234 H 0.02354 0.32031 0.014 0.0
H2235 H 0.09625 0.34371 0.10718 0.0
H2236 H 0.05418 0.30152 0.0489 0.0
H2237 H 0.06175 0.35994 0.07507 0.0
C2238 C 0.04227 0.35662 0.05061 0.0
C2239 C 0.03113 0.34553 0.03327 0.0
C2240 C 0.06338 0.31077 0.06169 0.0
C2241 C 0.05343 0.33468 0.05535 0.0
C2242 C 0.07429 0.30525 0.0729 0.0
C2243 C 0.08654 0.31708 0.08942 0.0
C2244 C 0.06464 0.32822 0.06706 0.0
C2245 C 0.08717 0.33426 0.09444 0.0
C2246 C 0.05345 0.35129 0.06163 0.0
C2247 C 0.0319 0.32932 0.02724 0.0
N2248 N 0.07639 0.3393 0.08332 0.0
N2249 N 0.04276 0.32434 0.03831 0.0
H2250 H 0.64765 0.66699 0.10356 0.0
H2251 H 0.66399 0.77008 0.08605 0.0
H2252 H 0.6409 0.68406 0.04608 0.0
H2253 H 0.68781 0.75957 0.13864 0.0
H2254 H 0.65345 0.73775 0.07187 0.0
H2255 H 0.66026 0.69996 0.11757 0.0
C2256 C 0.64877 0.67765 0.0939 0.0
C2257 C 0.64317 0.67276 0.07362 0.0
C2258 C 0.66109 0.74252 0.08646 0.0
C2259 C 0.65754 0.71041 0.08955 0.0
C2260 C 0.66704 0.76092 0.09457 0.0
C2261 C 0.6767 0.76739 0.11354 0.0
C2262 C 0.66458 0.73037 0.09751 0.0
C2263 C 0.68046 0.75508 0.12392 0.0
C2264 C 0.65607 0.69647 0.10189 0.0
C2265 C 0.64504 0.68717 0.06179 0.0
N2266 N 0.67422 0.73704 0.11583 0.0
N2267 N 0.65196 0.7053 0.06994 0.0
H2268 H 0.32997 0.98675 0.04051 0.0
H2269 H 0.22715 0.89805 0.06237 0.0
H2270 H 0.31191 0.92699 0.02931 0.0
H2271 H 0.25078 0.95607 0.08798 0.0
H2272 H 0.2551 0.90955 0.04336 0.0
H2273 H 0.29817 0.9766 0.05136 0.0
C2274 C 0.31926 0.9715 0.0401 0.0
C2275 C 0.3237 0.95768 0.03423 0.0
C2276 C 0.25408 0.91982 0.05296 0.0
C2277 C 0.28731 0.94604 0.04653 0.0
C2278 C 0.23815 0.91327 0.06381 0.0
C2279 C 0.23685 0.92608 0.07705 0.0
C2280 C 0.26885 0.93933 0.05531 0.0
C2281 C 0.25125 0.94571 0.07799 0.0
C2282 C 0.30113 0.96574 0.04633 0.0
C2283 C 0.30921 0.93814 0.03392 0.0
N2284 N 0.26682 0.95172 0.06745 0.0
N2285 N 0.29171 0.93291 0.04011 0.0
H2286 H 0.39604 0.05513 0.00648 0.0
H2287 H 0.32046 0.08888 0.00952 0.0
H2288 H 0.35429 0.03779 0.04947 0.0
H2289 H 0.36866 0.11333 0.97391 0.0
H2290 H 0.33314 0.07082 0.02524 0.0
H2291 H 0.38714 0.07774 0.9955 0.0
C2292 C 0.38517 0.05625 0.01378 0.0
C2293 C 0.3758 0.04445 0.02882 0.0
C2294 C 0.34105 0.08031 0.01414 0.0
C2295 C 0.36533 0.07011 0.01613 0.0
C2296 C 0.33376 0.09053 0.00511 0.0
C2297 C 0.34352 0.10263 0.9904 0.0
C2298 C 0.35809 0.08204 0.00825 0.0
C2299 C 0.36078 0.10436 0.98535 0.0
C2300 C 0.38007 0.06915 0.00749 0.0
C2301 C 0.36187 0.04658 0.0378 0.0
N2302 N 0.36741 0.09407 0.99413 0.0
N2303 N 0.35688 0.05898 0.03115 0.0
H2304 H 0.91669 0.30379 0.98913 0.0
H2305 H 0.91599 0.20634 0.97737 0.0
H2306 H 0.96749 0.30256 0.00786 0.0
H2307 H 0.88123 0.21976 0.9393 0.0
H2308 H 0.93365 0.23981 0.99217 0.0
H2309 H 0.9011 0.27057 0.97546 0.0
C2310 C 0.92453 0.2965 0.99056 0.0
C2311 C 0.9435 0.30606 0.99957 0.0
C2312 C 0.92219 0.23533 0.98051 0.0
C2313 C 0.92566 0.26788 0.98376 0.0
C2314 C 0.9122 0.21632 0.97199 0.0
C2315 C 0.89686 0.21013 0.9573 0.0
C2316 C 0.91662 0.24806 0.9744 0.0
C2317 C 0.89254 0.22368 0.95096 0.0
C2318 C 0.91565 0.27753 0.98259 0.0
C2319 C 0.95288 0.29576 0.00094 0.0
N2320 N 0.9022 0.24188 0.95967 0.0
N2321 N 0.94385 0.27715 0.99309 0.0
H2322 H 0.66666 0.59444 0.01367 0.0
H2323 H 0.77079 0.69038 0.01315 0.0
H2324 H 0.68331 0.6471 0.04845 0.0
H2325 H 0.74765 0.6411 0.9706 0.0
H2326 H 0.73996 0.67455 0.02802 0.0
H2327 H 0.69776 0.61085 -2e-05 0.0
C2328 C 0.67689 0.60945 0.01852 0.0
C2329 C 0.67232 0.61941 0.03221 0.0
C2330 C 0.7417 0.66725 0.01543 0.0
C2331 C 0.70805 0.63837 0.01646 0.0
C2332 C 0.75924 0.6763 0.00688 0.0
C2333 C 0.76191 0.66697 0.99073 0.0
C2334 C 0.7268 0.64875 0.00778 0.0
C2335 C 0.74647 0.64868 0.98332 0.0
C2336 C 0.69465 0.61884 0.01062 0.0
C2337 C 0.68621 0.63886 0.03791 0.0
N2338 N 0.72966 0.64017 0.99193 0.0
N2339 N 0.70347 0.64773 0.02999 0.0
H2340 H 0.98557 0.68586 0.04876 0.0
H2341 H 0.89336 0.65208 0.97359 0.0
H2342 H 0.9542 0.62929 0.01754 0.0
H2343 H 0.93956 0.71169 0.98497 0.0
H2344 H 0.91279 0.64267 0.99283 0.0
H2345 H 0.96559 0.69462 0.0294 0.0
C2346 C 0.97434 0.67519 0.03798 0.0
C2347 C 0.97157 0.6568 0.03475 0.0
C2348 C 0.91865 0.65779 0.99102 0.0
C2349 C 0.94868 0.6668 0.01254 0.0
C2350 C 0.90765 0.66323 0.97987 0.0
C2351 C 0.91478 0.68279 0.97747 0.0
C2352 C 0.9368 0.67199 0.00018 0.0
C2353 C 0.93324 0.69649 0.98659 0.0
C2354 C 0.96306 0.68028 0.02684 0.0
C2355 C 0.95687 0.64364 0.02047 0.0
N2356 N 0.94354 0.69084 0.99761 0.0
N2357 N 0.94591 0.64887 0.00992 0.0
H2358 H 0.34248 0.31478 0.02161 0.0
H2359 H 0.33894 0.25363 0.92476 0.0
H2360 H 0.3665 0.34013 0.96811 0.0
H2361 H 0.31682 0.2289 0.97907 0.0
H2362 H 0.34874 0.28538 0.94014 0.0
H2363 H 0.33285 0.28319 0.00614 0.0
C2364 C 0.34583 0.31373 0.00664 0.0
C2365 C 0.35531 0.33016 0.99615 0.0
C2366 C 0.34168 0.273 0.94867 0.0
C2367 C 0.34418 0.29393 0.97827 0.0
C2368 C 0.33612 0.25487 0.93991 0.0
C2369 C 0.32702 0.23856 0.95062 0.0
C2370 C 0.33817 0.27486 0.96832 0.0
C2371 C 0.32353 0.24101 0.97014 0.0
C2372 C 0.34027 0.29566 0.99779 0.0
C2373 C 0.35923 0.32788 0.97677 0.0
N2374 N 0.32915 0.25881 0.97836 0.0
N2375 N 0.3536 0.3101 0.96845 0.0
H2376 H 0.67946 0.03274 0.0426 0.0
H2377 H 0.72856 0.06549 0.94464 0.0
H2378 H 0.66748 0.06708 0.00496 0.0
H2379 H 0.76404 0.07151 0.9973 0.0
H2380 H 0.70246 0.05908 0.96483 0.0
H2381 H 0.70782 0.04079 0.02479 0.0
C2382 C 0.68294 0.04214 0.03076 0.0
C2383 C 0.67119 0.04932 0.02524 0.0
C2384 C 0.71599 0.0618 0.97188 0.0
C2385 C 0.70296 0.05793 0.00461 0.0
C2386 C 0.73097 0.06553 0.96042 0.0
C2387 C 0.7488 0.06947 0.96925 0.0
C2388 C 0.71856 0.06143 0.99229 0.0
C2389 C 0.75059 0.06847 0.98976 0.0
C2390 C 0.69905 0.04669 0.02067 0.0
C2391 C 0.67625 0.06138 0.00977 0.0
N2392 N 0.73562 0.0645 0.00061 0.0
N2393 N 0.69159 0.06505 -0.00024 0.0
H2394 H 0.63714 0.97803 0.08179 0.0
H2395 H 0.64823 0.88782 0.07087 0.0
H2396 H 0.62375 0.94591 0.02521 0.0
H2397 H 0.68706 0.9381 0.11014 0.0
H2398 H 0.63507 0.90585 0.05566 0.0
H2399 H 0.65091 0.95999 0.09475 0.0
C2400 C 0.6369 0.96703 0.07212 0.0
C2401 C 0.62927 0.96345 0.05236 0.0
C2402 C 0.6466 0.91294 0.06746 0.0
C2403 C 0.64501 0.94277 0.0672 0.0
C2404 C 0.65407 0.90271 0.07612 0.0
C2405 C 0.66876 0.9116 0.09166 0.0
C2406 C 0.65356 0.93195 0.07483 0.0
C2407 C 0.67585 0.93085 0.09805 0.0
C2408 C 0.64493 0.95688 0.07951 0.0
C2409 C 0.62952 0.94913 0.04052 0.0
N2410 N 0.668 0.94033 0.08977 0.0
N2411 N 0.63717 0.93917 0.04816 0.0
H2412 H 0.07643 0.68972 0.09616 0.0
H2413 H 0.09206 0.79315 0.09169 0.0
H2414 H 0.03778 0.69861 0.05869 0.0
H2415 H 0.10537 0.77427 0.14525 0.0
H2416 H 0.07471 0.75989 0.0771 0.0
H2417 H 0.09084 0.7224 0.11169 0.0
C2418 C 0.07107 0.6986 0.09111 0.0
C2419 C 0.05592 0.69147 0.07609 0.0
C2420 C 0.08133 0.7631 0.0921 0.0
C2421 C 0.07238 0.72883 0.09375 0.0
C2422 C 0.09112 0.78206 0.10054 0.0
C2423 C 0.10039 0.78667 0.11976 0.0
C2424 C 0.0811 0.74871 0.10278 0.0
C2425 C 0.09892 0.77159 0.13025 0.0
C2426 C 0.07918 0.71716 0.10009 0.0
C2427 C 0.04942 0.70355 0.07025 0.0
N2428 N 0.0897 0.75335 0.12154 0.0
N2429 N 0.05781 0.72175 0.07899 0.0
H2430 H 0.31534 0.39764 0.04325 0.0
H2431 H 0.21573 0.30558 0.04906 0.0
H2432 H 0.30836 0.34694 0.01207 0.0
H2433 H 0.25359 0.3367 0.10174 0.0
H2434 H 0.24384 0.3214 0.0296 0.0
H2435 H 0.28566 0.3772 0.05851 0.0
C2436 C 0.3074 0.38226 0.03929 0.0
C2437 C 0.31445 0.37397 0.02648 0.0
C2438 C 0.24583 0.32446 0.04546 0.0
C2439 C 0.28043 0.35066 0.04384 0.0
C2440 C 0.22991 0.31543 0.05658 0.0
C2441 C 0.23223 0.32017 0.07704 0.0
C2442 C 0.26391 0.33844 0.05491 0.0
C2443 C 0.25096 0.3331 0.08597 0.0
C2444 C 0.29055 0.37065 0.04811 0.0
C2445 C 0.30347 0.35388 0.02197 0.0
N2446 N 0.26599 0.34208 0.07481 0.0
N2447 N 0.2869 0.34279 0.03071 0.0
H2448 H 0.69343 0.66016 0.34589 0.0
H2449 H 0.76295 0.68038 0.44337 0.0
H2450 H 0.70853 0.70517 0.39163 0.0
H2451 H 0.74271 0.63152 0.40101 0.0
H2452 H 0.74348 0.68996 0.42437 0.0
H2453 H 0.71219 0.65006 0.36533 0.0
C2454 C 0.70079 0.66801 0.35997 0.0
C2455 C 0.6994 0.68356 0.36712 0.0
C2456 C 0.7432 0.67708 0.41926 0.0
C2457 C 0.72083 0.67196 0.38953 0.0
C2458 C 0.75433 0.67163 0.43009 0.0
C2459 C 0.75449 0.65516 0.42372 0.0
C2460 C 0.7322 0.66608 0.40182 0.0
C2461 C 0.74288 0.64423 0.40653 0.0
C2462 C 0.71142 0.66216 0.37111 0.0
C2463 C 0.70919 0.69311 0.38551 0.0
N2464 N 0.7323 0.64995 0.39611 0.0
N2465 N 0.71948 0.68716 0.39607 0.0
H2466 H 0.32581 0.01938 0.3812 0.0
H2467 H 0.32901 0.0828 0.47583 0.0
H2468 H 0.29802 0.99534 0.43363 0.0
H2469 H 0.35407 0.1068 0.42226 0.0
H2470 H 0.3193 0.05083 0.46132 0.0
H2471 H 0.33789 0.05166 0.39663 0.0
C2472 C 0.32224 0.02087 0.39596 0.0
C2473 C 0.31081 0.00459 0.4061 0.0
C2474 C 0.32701 0.06309 0.45276 0.0
C2475 C 0.32465 0.04155 0.42389 0.0
C2476 C 0.33251 0.08135 0.46102 0.0
C2477 C 0.34228 0.09751 0.45021 0.0
C2478 C 0.33125 0.06091 0.43351 0.0
C2479 C 0.34672 0.09479 0.43121 0.0
C2480 C 0.32917 0.03933 0.40477 0.0
C2481 C 0.30672 0.00744 0.42522 0.0
N2482 N 0.34108 0.07684 0.42343 0.0
N2483 N 0.31361 0.02555 0.43347 0.0
H2484 H 0.00635 0.31934 0.37124 0.0
H2485 H 0.93027 0.24544 0.43956 0.0
H2486 H 0.00743 0.27085 0.39248 0.0
H2487 H 0.91551 0.27714 0.40076 0.0
H2488 H 0.96086 0.25823 0.42537 0.0
H2489 H 0.97492 0.30724 0.38439 0.0
C2490 C -3e-05 0.30614 0.37858 0.0
C2491 C 0.00954 0.2961 0.38079 0.0
C2492 C 0.95092 0.26234 0.41986 0.0
C2493 C 0.97391 0.28244 0.396 0.0
C2494 C 0.93336 0.25496 0.42789 0.0
C2495 C 0.92004 0.25984 0.42102 0.0
C2496 C 0.95548 0.27499 0.405 0.0
C2497 C 0.9253 0.27293 0.40644 0.0
C2498 C 0.98206 0.29926 0.38603 0.0
C2499 C 0.0006 0.27907 0.3904 0.0
N2500 N 0.94266 0.28006 0.39885 0.0
N2501 N 0.98339 0.27289 0.39776 0.0
H2502 H 0.07635 0.39289 0.33836 0.0
H2503 H 0.00709 0.43444 0.33916 0.0
H2504 H 0.03509 0.37962 0.38129 0.0
H2505 H 0.05537 0.45528 0.30384 0.0
H2506 H 0.01753 0.41484 0.35545 0.0
H2507 H 0.06955 0.41662 0.32628 0.0
C2508 C 0.06599 0.39509 0.34537 0.0
C2509 C 0.05618 0.38415 0.36077 0.0
C2510 C 0.02596 0.42387 0.34428 0.0
C2511 C 0.04817 0.41118 0.34688 0.0
C2512 C 0.01995 0.43498 0.33494 0.0
C2513 C 0.03037 0.44648 0.32012 0.0
C2514 C 0.04236 0.42409 0.3386 0.0
C2515 C 0.04703 0.44678 0.31533 0.0
C2516 C 0.06211 0.40866 0.33847 0.0
C2517 C 0.04296 0.38769 0.36935 0.0
N2518 N 0.0524 0.43562 0.32441 0.0
N2519 N 0.03919 0.40075 0.36215 0.0
H2520 H 0.58954 0.64724 0.31247 0.0
H2521 H 0.58629 0.54788 0.30923 0.0
H2522 H 0.63668 0.64323 0.33859 0.0
H2523 H 0.54896 0.55853 0.27179 0.0
H2524 H 0.6046 0.58208 0.32156 0.0
H2525 H 0.57341 0.6137 0.29967 0.0
C2526 C 0.59647 0.63928 0.31563 0.0
C2527 C 0.61451 0.6481 0.32663 0.0
C2528 C 0.59246 0.57688 0.31057 0.0
C2529 C 0.59608 0.60953 0.31184 0.0
C2530 C 0.58209 0.55743 0.30346 0.0
C2531 C 0.56591 0.55031 0.2897 0.0
C2532 C 0.58649 0.58916 0.30388 0.0
C2533 C 0.56104 0.56329 0.28276 0.0
C2534 C 0.58729 0.62011 0.30819 0.0
C2535 C 0.62278 0.637 0.33016 0.0
N2536 N 0.57117 0.58199 0.29003 0.0
N2537 N 0.61347 0.61824 0.32281 0.0
H2538 H 0.32275 0.91452 0.35236 0.0
H2539 H 0.42947 0.00424 0.34364 0.0
H2540 H 0.34358 0.97142 0.37977 0.0
H2541 H 0.40399 0.94934 0.30965 0.0
H2542 H 0.39926 0.99219 0.35914 0.0
H2543 H 0.35379 0.92664 0.33911 0.0
C2544 C 0.33388 0.92957 0.35569 0.0
C2545 C 0.33049 0.94198 0.36715 0.0
C2546 C 0.40036 0.9828 0.34834 0.0
C2547 C 0.36618 0.95602 0.35189 0.0
C2548 C 0.41756 0.98968 0.33942 0.0
C2549 C 0.41934 0.97777 0.32537 0.0
C2550 C 0.38486 0.96387 0.34318 0.0
C2551 C 0.40348 0.95895 0.32066 0.0
C2552 C 0.35162 0.9365 0.34805 0.0
C2553 C 0.34553 0.96134 0.37097 0.0
N2554 N 0.38695 0.95262 0.32953 0.0
N2555 N 0.36273 0.96779 0.36331 0.0
H2556 H 0.63182 0.99039 0.39189 0.0
H2557 H 0.58104 0.9835 0.28524 0.0
H2558 H 0.63551 0.96066 0.34009 0.0
H2559 H 0.57236 0.00765 0.33828 0.0
H2560 H 0.6017 0.97574 0.3049 0.0
H2561 H 0.61044 0.99732 0.37238 0.0
C2562 C 0.62805 0.98521 0.37644 0.0
C2563 C 0.6355 0.97494 0.36762 0.0
C2564 C 0.5953 0.98277 0.31223 0.0
C2565 C 0.61114 0.98299 0.34513 0.0
C2566 C 0.58346 0.98718 0.30101 0.0
C2567 C 0.57496 0.99631 0.31009 0.0
C2568 C 0.5987 0.98752 0.3327 0.0
C2569 C 0.57884 0.00092 0.33057 0.0
C2570 C 0.61586 0.98921 0.36529 0.0
C2571 C 0.6301 0.96861 0.34753 0.0
N2572 N 0.5904 0.99647 0.34116 0.0
N2573 N 0.61833 0.97281 0.33695 0.0
H2574 H 0.04298 0.6821 0.3037 0.0
H2575 H 0.99918 0.56947 0.31222 0.0
H2576 H 0.01884 0.653 0.35556 0.0
H2577 H 0.02018 0.59744 0.25902 0.0
H2578 H 0.00626 0.6 0.32822 0.0
H2579 H 0.0352 0.65142 0.28717 0.0
C2580 C 0.03609 0.66928 0.31164 0.0
C2581 C 0.03156 0.67014 0.33107 0.0
C2582 C 0.00926 0.59947 0.31302 0.0
C2583 C 0.02256 0.63495 0.31218 0.0
C2584 C 0.00506 0.58198 0.3038 0.0
C2585 C 0.00899 0.58083 0.28418 0.0
C2586 C 0.01754 0.61604 0.30262 0.0
C2587 C 0.01707 0.59768 0.27421 0.0
C2588 C 0.03161 0.65175 0.30216 0.0
C2589 C 0.02261 0.65304 0.34059 0.0
N2590 N 0.02109 0.61458 0.28354 0.0
N2591 N 0.01841 0.63618 0.33106 0.0
H2592 H 0.35074 0.41194 0.36771 0.0
H2593 H 0.41739 0.37991 0.31864 0.0
H2594 H 0.33718 0.35321 0.36328 0.0
H2595 H 0.42876 0.43778 0.3223 0.0
H2596 H 0.39056 0.37041 0.3393 0.0
H2597 H 0.38189 0.42223 0.35543 0.0
C2598 C 0.35438 0.40122 0.36431 0.0
C2599 C 0.34121 0.38165 0.36627 0.0
C2600 C 0.39908 0.38524 0.33575 0.0
C2601 C 0.37688 0.39333 0.35201 0.0
C2602 C 0.4144 0.39064 0.32407 0.0
C2603 C 0.425 0.40954 0.31854 0.0
C2604 C 0.3945 0.39889 0.34194 0.0
C2605 C 0.42063 0.42296 0.32592 0.0
C2606 C 0.3722 0.4071 0.35729 0.0
C2607 C 0.34682 0.36843 0.36184 0.0
N2608 N 0.40562 0.41734 0.33708 0.0
N2609 N 0.36416 0.37449 0.35468 0.0
H2610 H 0.29123 0.30156 0.41353 0.0
H2611 H 0.31956 0.22355 0.39114 0.0
H2612 H 0.29461 0.28433 0.35392 0.0
H2613 H 0.34051 0.26192 0.44422 0.0
H2614 H 0.30543 0.24145 0.37776 0.0
H2615 H 0.30363 0.28209 0.42576 0.0
C2616 C 0.29432 0.29348 0.40298 0.0
C2617 C 0.29196 0.29465 0.38265 0.0
C2618 C 0.31323 0.24597 0.39227 0.0
C2619 C 0.3062 0.27236 0.39662 0.0
C2620 C 0.32126 0.23581 0.39988 0.0
C2621 C 0.33135 0.24145 0.41869 0.0
C2622 C 0.31492 0.26151 0.40381 0.0
C2623 C 0.33309 0.25732 0.42953 0.0
C2624 C 0.30155 0.2825 0.41 0.0
C2625 C 0.2963 0.2839 0.36971 0.0
N2626 N 0.32482 0.26671 0.422 0.0
N2627 N 0.30322 0.27316 0.37691 0.0
H2628 H 0.70415 0.02611 0.38801 0.0
H2629 H 0.77002 0.107 0.47391 0.0
H2630 H 0.74459 0.02282 0.42879 0.0
H2631 H 0.76011 0.12314 0.41698 0.0
H2632 H 0.75271 0.07342 0.46058 0.0
H2633 H 0.71773 0.05974 0.40112 0.0
C2634 C 0.71589 0.03247 0.39963 0.0
C2635 C 0.72337 0.02175 0.40725 0.0
C2636 C 0.75421 0.08433 0.45108 0.0
C2637 C 0.73835 0.05962 0.42254 0.0
C2638 C 0.76411 0.10349 0.45863 0.0
C2639 C 0.76694 0.11799 0.44643 0.0
C2640 C 0.74676 0.07951 0.43126 0.0
C2641 C 0.75833 0.11245 0.42692 0.0
C2642 C 0.72356 0.05156 0.40706 0.0
C2643 C 0.73851 0.0306 0.42235 0.0
N2644 N 0.7487 0.09359 0.41985 0.0
N2645 N 0.74537 0.04894 0.42961 0.0
H2646 H 0.98806 0.68711 0.36099 0.0
H2647 H 0.90129 0.69274 0.40272 0.0
H2648 H 0.98721 0.73926 0.36978 0.0
H2649 H 0.90525 0.64224 0.40457 0.0
H2650 H 0.93004 0.70807 0.38484 0.0
H2651 H 0.95525 0.66874 0.37141 0.0
C2652 C 0.9809 0.69466 0.36487 0.0
C2653 C 0.99046 0.71478 0.36472 0.0
C2654 C 0.9246 0.69358 0.38901 0.0
C2655 C 0.95304 0.6939 0.37656 0.0
C2656 C 0.9082 0.68484 0.39924 0.0
C2657 C 0.90113 0.66635 0.40543 0.0
C2658 C 0.93412 0.68382 0.38496 0.0
C2659 C 0.91034 0.65657 0.40013 0.0
C2660 C 0.96222 0.68418 0.37086 0.0
C2661 C 0.9805 0.72381 0.36988 0.0
N2662 N 0.92655 0.66553 0.39038 0.0
N2663 N 0.96241 0.71333 0.37567 0.0
H2664 H 0.37985 0.04959 0.7253 0.0
H2665 H 0.42275 0.98186 0.7395 0.0
H2666 H 0.368 0.00295 0.68316 0.0
H2667 H 0.43956 0.03199 0.77874 0.0
H2668 H 0.40191 0.98892 0.7192 0.0
H2669 H 0.40166 0.04343 0.7452 0.0
C2670 C 0.38195 0.03817 0.72013 0.0
C2671 C 0.37202 0.02675 0.70252 0.0
C2672 C 0.41014 0.99839 0.73226 0.0
C2673 C 0.39683 0.01947 0.72538 0.0
C2674 C 0.4219 0.99425 0.74396 0.0
C2675 C 0.43288 0.00631 0.7609 0.0
C2676 C 0.40923 0.01468 0.73753 0.0
C2677 C 0.43148 0.02239 0.76573 0.0
C2678 C 0.39437 0.03462 0.73154 0.0
C2679 C 0.37532 0.01213 0.69661 0.0
N2680 N 0.41986 0.02608 0.75413 0.0
N2681 N 0.38733 0.00885 0.70805 0.0
H2682 H 0.97618 0.32588 0.76372 0.0
H2683 H 0.96424 0.4163 0.75751 0.0
H2684 H 0.95326 0.33725 0.71097 0.0
H2685 H 0.00488 0.41575 0.80035 0.0
H2686 H 0.95709 0.38543 0.74213 0.0
H2687 H 0.98397 0.357 0.77929 0.0
C2688 C 0.97275 0.33489 0.75543 0.0
C2689 C 0.96405 0.32896 0.73601 0.0
C2690 C 0.9676 0.39206 0.75487 0.0
C2691 C 0.97281 0.36444 0.75377 0.0
C2692 C 0.97159 0.4096 0.76371 0.0
C2693 C 0.9851 0.41849 0.78024 0.0
C2694 C 0.97701 0.3832 0.76276 0.0
C2695 C 0.99442 0.40935 0.78756 0.0
C2696 C 0.97728 0.35266 0.7643 0.0
C2697 C 0.96 0.34125 0.72594 0.0
N2698 N 0.9901 0.3921 0.77885 0.0
N2699 N 0.96431 0.35835 0.73498 0.0
H2700 H 0.67196 0.64619 0.70374 0.0
H2701 H 0.60675 0.58003 0.78384 0.0
H2702 H 0.68173 0.60543 0.73217 0.0
H2703 H 0.58497 0.60288 0.74066 0.0
H2704 H 0.63602 0.5923 0.76711 0.0
H2705 H 0.64143 0.63317 0.71884 0.0
C2706 C 0.66764 0.63444 0.71305 0.0
C2707 C 0.67943 0.6269 0.71674 0.0
C2708 C 0.62481 0.59456 0.76123 0.0
C2709 C 0.64476 0.6122 0.7342 0.0
C2710 C 0.60802 0.58749 0.77073 0.0
C2711 C 0.59317 0.59013 0.76348 0.0
C2712 C 0.62701 0.60465 0.74449 0.0
C2713 C 0.59604 0.60055 0.74682 0.0
C2714 C 0.65023 0.62703 0.72162 0.0
C2715 C 0.67311 0.61167 0.72889 0.0
N2716 N 0.61266 0.60746 0.73787 0.0
N2717 N 0.65629 0.60494 0.73731 0.0
H2718 H 0.71535 0.72476 0.71765 0.0
H2719 H 0.65736 0.73561 0.62623 0.0
H2720 H 0.71089 0.70106 0.65841 0.0
H2721 H 0.68139 0.7769 0.67714 0.0
H2722 H 0.67274 0.71927 0.64011 0.0
H2723 H 0.69953 0.74127 0.70498 0.0
C2724 C 0.71117 0.72312 0.70199 0.0
C2725 C 0.71448 0.71154 0.68906 0.0
C2726 C 0.67457 0.73185 0.6483 0.0
C2727 C 0.6961 0.73001 0.67463 0.0
C2728 C 0.66562 0.74104 0.6405 0.0
C2729 C 0.66806 0.75756 0.65063 0.0
C2730 C 0.68587 0.7391 0.66645 0.0
C2731 C 0.67922 0.76421 0.66889 0.0
C2732 C 0.70214 0.73252 0.6948 0.0
C2733 C 0.70872 0.70991 0.66892 0.0
N2734 N 0.6877 0.75493 0.67627 0.0
N2735 N 0.69968 0.71889 0.66236 0.0
H2736 H 0.2552 0.96925 0.68178 0.0
H2737 H 0.25887 0.8868 0.62278 0.0
H2738 H 0.30929 0.97871 0.66417 0.0
H2739 H 0.21637 0.87538 0.66377 0.0
H2740 H 0.27799 0.92034 0.63701 0.0
H2741 H 0.24054 0.9347 0.67419 0.0
C2742 C 0.26403 0.964 0.67644 0.0
C2743 C 0.28344 0.97682 0.6735 0.0
C2744 C 0.26461 0.91037 0.64304 0.0
C2745 C 0.26669 0.93731 0.66451 0.0
C2746 C 0.25373 0.89122 0.63499 0.0
C2747 C 0.23579 0.87835 0.64184 0.0
C2748 C 0.25736 0.91664 0.65783 0.0
C2749 C 0.22983 0.88492 0.65764 0.0
C2750 C 0.25569 0.94428 0.6722 0.0
C2751 C 0.29426 0.96926 0.66665 0.0
N2752 N 0.24041 0.90366 0.66487 0.0
N2753 N 0.28564 0.94996 0.66206 0.0
H2754 H 0.00018 0.2549 0.67871 0.0
H2755 H 0.10356 0.35208 0.67937 0.0
H2756 H 0.0143 0.308 0.71086 0.0
H2757 H 0.08343 0.30125 0.63984 0.0
H2758 H 0.07197 0.33619 0.69277 0.0
H2759 H 0.03195 0.27147 0.66651 0.0
C2760 C 0.00999 0.27005 0.68329 0.0
C2761 C 0.00451 0.28007 0.69581 0.0
C2762 C 0.07454 0.32856 0.68119 0.0
C2763 C 0.04106 0.29923 0.68176 0.0
C2764 C 0.09252 0.33763 0.67348 0.0
C2765 C 0.09625 0.3279 0.65861 0.0
C2766 C 0.06027 0.30965 0.67397 0.0
C2767 C 0.08143 0.30916 0.65161 0.0
C2768 C 0.02815 0.27954 0.67624 0.0
C2769 C 0.0179 0.29971 0.70121 0.0
N2770 N 0.06418 0.30067 0.65938 0.0
N2771 N 0.03558 0.30868 0.69413 0.0
H2772 H 0.29161 0.29142 0.6859 0.0
H2773 H 0.27645 0.37536 0.65374 0.0
H2774 H 0.32283 0.34841 0.71619 0.0
H2775 H 0.23082 0.31534 0.64467 0.0
H2776 H 0.2961 0.36616 0.67303 0.0
H2777 H 0.2714 0.30032 0.66689 0.0
C2778 C 0.29416 0.30576 0.6886 0.0
C2779 C 0.30887 0.31918 0.70269 0.0
C2780 C 0.28177 0.35505 0.66675 0.0
C2781 C 0.28611 0.32951 0.6808 0.0
C2782 C 0.27049 0.36027 0.65579 0.0
C2783 C 0.25185 0.34615 0.64746 0.0
C2784 C 0.27454 0.33554 0.66922 0.0
C2785 C 0.24519 0.32677 0.65037 0.0
C2786 C 0.28263 0.31081 0.67778 0.0
C2787 C 0.31157 0.33757 0.70557 0.0
N2788 N 0.25654 0.32205 0.66092 0.0
N2789 N 0.30041 0.34226 0.6946 0.0
H2790 H 0.70424 0.00458 0.63197 0.0
H2791 H 0.64606 0.89137 0.64533 0.0
H2792 H 0.67786 0.98006 0.68486 0.0
H2793 H 0.67218 0.91574 0.59229 0.0
H2794 H 0.6565 0.92364 0.65955 0.0
H2795 H 0.69204 0.97212 0.6169 0.0
C2796 C 0.69591 0.99238 0.64044 0.0
C2797 C 0.69212 0.99507 0.65974 0.0
C2798 C 0.65988 0.92194 0.64477 0.0
C2799 C 0.67802 0.95783 0.64253 0.0
C2800 C 0.65378 0.90347 0.63656 0.0
C2801 C 0.65827 0.90081 0.61758 0.0
C2802 C 0.67058 0.93791 0.63394 0.0
C2803 C 0.66861 0.91712 0.60707 0.0
C2804 C 0.68891 0.97384 0.6318 0.0
C2805 C 0.68119 0.9787 0.66997 0.0
N2806 N 0.67446 0.93495 0.61541 0.0
N2807 N 0.67455 0.96081 0.66125 0.0
H2808 H 0.006 0.69285 0.70805 0.0
H2809 H 0.06273 0.72988 0.61452 0.0
H2810 H -6e-05 0.73148 0.67137 0.0
H2811 H 0.09533 0.7349 0.66904 0.0
H2812 H 0.03458 0.72057 0.6326 0.0
H2813 H 0.03487 0.69964 0.69165 0.0
C2814 C 0.01081 0.70282 0.69667 0.0
C2815 C 0.00068 0.71172 0.69108 0.0
C2816 C 0.04789 0.72356 0.64051 0.0
C2817 C 0.03291 0.71887 0.67207 0.0
C2818 C 0.06399 0.72895 0.63027 0.0
C2819 C 0.08163 0.73373 0.64034 0.0
C2820 C 0.04922 0.72244 0.6609 0.0
C2821 C 0.08208 0.73144 0.66067 0.0
C2822 C 0.02719 0.70664 0.68739 0.0
C2823 C 0.00742 0.72445 0.67623 0.0
N2824 N 0.06607 0.72603 0.67036 0.0
N2825 N 0.02296 0.72744 0.66704 0.0
H2826 H 0.95117 0.63547 0.74771 0.0
H2827 H 0.96325 0.54582 0.72801 0.0
H2828 H 0.94652 0.61142 0.68858 0.0
H2829 H 0.99165 0.58745 0.77835 0.0
H2830 H 0.95207 0.56607 0.71429 0.0
H2831 H 0.96039 0.61368 0.76042 0.0
C2832 C 0.95186 0.62545 0.73739 0.0
C2833 C 0.94817 0.62535 0.71701 0.0
C2834 C 0.96084 0.57076 0.72828 0.0
C2835 C 0.95875 0.60038 0.73155 0.0
C2836 C 0.96718 0.55926 0.73608 0.0
C2837 C 0.97851 0.56512 0.75421 0.0
C2838 C 0.96551 0.58795 0.73895 0.0
C2839 C 0.98317 0.58258 0.76419 0.0
C2840 C 0.95727 0.61312 0.74467 0.0
C2841 C 0.94935 0.61205 0.70438 0.0
N2842 N 0.97653 0.59331 0.7565 0.0
N2843 N 0.95454 0.60005 0.71186 0.0
H2844 H 0.36952 0.3572 0.73946 0.0
H2845 H 0.46963 0.44667 0.78895 0.0
H2846 H 0.41988 0.35458 0.75632 0.0
H2847 H 0.41727 0.44777 0.78228 0.0
H2848 H 0.45179 0.41341 0.77496 0.0
H2849 H 0.38697 0.39088 0.75293 0.0
C2850 C 0.38423 0.36367 0.74596 0.0
C2851 C 0.39323 0.353 0.74679 0.0
C2852 C 0.44414 0.42086 0.7766 0.0
C2853 C 0.41325 0.39152 0.76214 0.0
C2854 C 0.45431 0.43985 0.78473 0.0
C2855 C 0.44489 0.44998 0.78708 0.0
C2856 C 0.42437 0.41183 0.77058 0.0
C2857 C 0.42512 0.44053 0.78071 0.0
C2858 C 0.39416 0.3829 0.75367 0.0
C2859 C 0.41233 0.36219 0.75537 0.0
N2860 N 0.41549 0.42194 0.77277 0.0
N2861 N 0.42168 0.38089 0.76267 0.0
H2862 H 0.65806 0.02189 0.69256 0.0
H2863 H 0.58623 0.04395 0.74658 0.0
H2864 H 0.66818 0.07874 0.70583 0.0
H2865 H 0.5784 0.98746 0.74131 0.0
H2866 H 0.61418 0.05595 0.72765 0.0
H2867 H 0.62679 0.00808 0.70642 0.0
C2868 C 0.65364 0.03145 0.6982 0.0
C2869 C 0.66582 0.05152 0.69819 0.0
C2870 C 0.60635 0.0409 0.73054 0.0
C2871 C 0.63019 0.03585 0.714 0.0
C2872 C 0.59043 0.03407 0.74142 0.0
C2873 C 0.58018 0.01476 0.74579 0.0
C2874 C 0.61219 0.02838 0.72395 0.0
C2875 C 0.58595 0.00247 0.73829 0.0
C2876 C 0.63584 0.02356 0.70615 0.0
C2877 C 0.65937 0.06321 0.70569 0.0
N2878 N 0.60171 0.00953 0.72786 0.0
N2879 N 0.64207 0.05521 0.71333 0.0
loop_
_geom_bond_atom_site_label_1
_geom_bond_atom_site_label_2
_geom_bond_distance
_geom_bond_site_symmetry_2
_ccdc_geom_bond_type
Zn0 O3 2.031 . S
Zn0 O5 2.049 . S
Zn0 O10 2.067 . S
Zn1 O2 1.962 1_455 S
Zn1 O4 1.986 . S
Zn1 O6 1.996 1_455 S
Zn1 O9 1.943 . S
O2 Zn1 1.962 1_655 S
O2 C7 1.254 . S
O3 Zn0 2.031 . S
O3 C7 1.269 . S
O4 Zn1 1.986 . S
O4 C11 1.262 . S
O5 Zn0 2.049 . S
O5 C13 1.260 . S
O6 Zn1 1.996 1_655 S
O6 C13 1.257 . S
C7 O2 1.254 . S
C7 O3 1.269 . S
C8 O9 1.249 . S
C8 O10 1.270 1_455 S
O9 Zn1 1.943 . S
O9 C8 1.249 . S
O10 Zn0 2.067 . S
O10 C8 1.270 1_655 S
C11 O4 1.262 . S
C11 O12 1.232 . S
O12 C11 1.232 . S
C13 O5 1.260 . S
C13 O6 1.257 . S
Zn14 O17 2.031 . S
Zn14 O19 2.049 . S
Zn14 O24 2.067 . S
Zn15 O16 1.962 . S
Zn15 O18 1.986 . S
Zn15 O20 1.996 . S
Zn15 O23 1.943 . S
O16 Zn15 1.962 . S
O16 C21 1.254 . S
O17 Zn14 2.031 . S
O17 C21 1.269 . S
O18 Zn15 1.986 . S
O18 C25 1.262 . S
O19 Zn14 2.049 . S
O19 C27 1.260 . S
O20 Zn15 1.996 . S
O20 C27 1.257 . S
C21 O16 1.254 . S
C21 O17 1.269 . S
C22 O23 1.249 . S
C22 O24 1.270 . S
O23 Zn15 1.943 . S
O23 C22 1.249 . S
O24 Zn14 2.067 . S
O24 C22 1.270 . S
C25 O18 1.262 . S
C25 O26 1.232 . S
O26 C25 1.232 . S
C27 O19 1.260 . S
C27 O20 1.257 . S
Zn28 O31 2.031 . S
Zn28 O33 2.049 . S
Zn28 O38 2.067 . S
Zn29 O30 1.962 1_545 S
Zn29 O32 2.026 . S
Zn29 O34 1.996 1_545 S
Zn29 O37 1.943 . S
O30 Zn29 1.962 1_565 S
O30 C35 1.254 . S
O31 Zn28 2.031 . S
O31 C35 1.269 . S
O32 Zn29 2.026 . S
O32 C39 1.294 . S
O33 Zn28 2.049 . S
O33 C41 1.260 1_554 S
O34 Zn29 1.996 1_565 S
O34 C41 1.257 1_554 S
C35 O30 1.254 . S
C35 O31 1.269 . S
C36 O37 1.249 . S
C36 O38 1.270 1_545 S
O37 Zn29 1.943 . S
O37 C36 1.249 . S
O38 Zn28 2.067 . S
O38 C36 1.270 1_565 S
C39 O32 1.294 . S
C39 O40 1.232 . S
O40 C39 1.232 . S
C41 O33 1.260 1_556 S
C41 O34 1.257 1_556 S
Zn42 O45 2.031 . S
Zn42 O47 2.049 . S
Zn42 O52 2.067 . S
Zn43 O44 1.962 1_655 S
Zn43 O46 1.986 . S
Zn43 O48 1.996 1_655 S
Zn43 O51 1.943 . S
O44 Zn43 1.962 1_455 S
O44 C49 1.254 . S
O45 Zn42 2.031 . S
O45 C49 1.269 . S
O46 Zn43 1.986 . S
O46 C53 1.262 . S
O47 Zn42 2.049 . S
O47 C55 1.260 . S
O48 Zn43 1.996 1_455 S
O48 C55 1.257 . S
C49 O44 1.254 . S
C49 O45 1.269 . S
C50 O51 1.249 . S
C50 O52 1.270 1_655 S
O51 Zn43 1.943 . S
O51 C50 1.249 . S
O52 Zn42 2.067 . S
O52 C50 1.270 1_455 S
C53 O46 1.262 . S
C53 O54 1.232 . S
O54 C53 1.232 . S
C55 O47 1.260 . S
C55 O48 1.257 . S
Zn56 O59 2.031 . S
Zn56 O61 2.049 1_554 S
Zn56 O66 2.067 . S
Zn57 O58 1.962 . S
Zn57 O60 1.986 1_554 S
Zn57 O62 1.996 1_554 S
Zn57 O65 1.943 . S
O58 Zn57 1.962 . S
O58 C63 1.254 . S
O59 Zn56 2.031 . S
O59 C63 1.269 . S
O60 Zn57 1.986 1_556 S
O60 C67 1.262 . S
O61 Zn56 2.049 1_556 S
O61 C69 1.260 . S
O62 Zn57 1.996 1_556 S
O62 C69 1.257 . S
C63 O58 1.254 . S
C63 O59 1.269 . S
C64 O65 1.249 . S
C64 O66 1.270 . S
O65 Zn57 1.943 . S
O65 C64 1.249 . S
O66 Zn56 2.067 . S
O66 C64 1.270 . S
C67 O60 1.262 . S
C67 O68 1.232 1_556 S
O68 C67 1.232 1_554 S
C69 O61 1.260 . S
C69 O62 1.257 . S
Zn70 O73 2.031 . S
Zn70 O75 2.049 . S
Zn70 O80 2.067 . S
Zn71 O72 1.962 1_565 S
Zn71 O74 1.986 . S
Zn71 O76 1.996 1_565 S
Zn71 O79 1.943 . S
O72 Zn71 1.962 1_545 S
O72 C77 1.254 . S
O73 Zn70 2.031 . S
O73 C77 1.269 . S
O74 Zn71 1.986 . S
O74 C81 1.262 . S
O75 Zn70 2.049 . S
O75 C83 1.260 . S
O76 Zn71 1.996 1_545 S
O76 C83 1.257 . S
C77 O72 1.254 . S
C77 O73 1.269 . S
C78 O79 1.249 . S
C78 O80 1.270 1_565 S
O79 Zn71 1.943 . S
O79 C78 1.249 . S
O80 Zn70 2.067 . S
O80 C78 1.270 1_545 S
C81 O74 1.262 . S
C81 O82 1.232 . S
O82 C81 1.232 . S
C83 O75 1.260 . S
C83 O76 1.257 . S
Zn84 O87 2.031 . S
Zn84 O89 2.049 . S
Zn84 O94 2.067 . S
Zn85 O86 1.962 . S
Zn85 O88 1.986 . S
Zn85 O90 1.996 . S
Zn85 O93 1.943 . S
O86 Zn85 1.962 . S
O86 C91 1.254 . S
O87 Zn84 2.031 . S
O87 C91 1.269 . S
O88 Zn85 1.986 . S
O88 C95 1.262 . S
O89 Zn84 2.049 . S
O89 C97 1.260 . S
O90 Zn85 1.996 . S
O90 C97 1.257 . S
C91 O86 1.254 . S
C91 O87 1.269 . S
C92 O93 1.249 . S
C92 O94 1.270 . S
O93 Zn85 1.943 . S
O93 C92 1.249 . S
O94 Zn84 2.067 . S
O94 C92 1.270 . S
C95 O88 1.262 . S
C95 O96 1.232 . S
O96 C95 1.232 . S
C97 O89 1.260 . S
C97 O90 1.257 . S
Zn98 O101 2.031 . S
Zn98 O103 2.049 . S
Zn98 O108 2.067 . S
Zn99 O100 1.962 . S
Zn99 O102 1.986 . S
Zn99 O104 1.996 . S
Zn99 O107 1.943 . S
O100 Zn99 1.962 . S
O100 C105 1.254 . S
O101 Zn98 2.031 . S
O101 C105 1.269 . S
O102 Zn99 1.986 . S
O102 C109 1.262 1_565 S
O103 Zn98 2.049 . S
O103 C111 1.260 . S
O104 Zn99 1.996 . S
O104 C111 1.257 . S
C105 O100 1.254 . S
C105 O101 1.269 . S
C106 O107 1.249 . S
C106 O108 1.270 . S
O107 Zn99 1.943 . S
O107 C106 1.249 . S
O108 Zn98 2.067 . S
O108 C106 1.270 . S
C109 O102 1.262 1_545 S
C109 O110 1.232 . S
O110 C109 1.232 . S
C111 O103 1.260 . S
C111 O104 1.257 . S
Zn112 O115 2.031 . S
Zn112 O117 2.049 . S
Zn112 O122 2.067 . S
Zn113 O114 1.962 . S
Zn113 O116 1.986 . S
Zn113 O118 1.996 . S
Zn113 O121 1.943 . S
O114 Zn113 1.962 . S
O114 C119 1.254 . S
O115 Zn112 2.031 . S
O115 C119 1.269 . S
O116 Zn113 1.986 . S
O116 C123 1.262 . S
O117 Zn112 2.049 . S
O117 C125 1.260 . S
O118 Zn113 1.996 . S
O118 C125 1.257 . S
C119 O114 1.254 . S
C119 O115 1.269 . S
C120 O121 1.249 . S
C120 O122 1.270 . S
O121 Zn113 1.943 . S
O121 C120 1.249 . S
O122 Zn112 2.067 . S
O122 C120 1.270 . S
C123 O116 1.262 . S
C123 O124 1.232 . S
O124 C123 1.232 . S
C125 O117 1.260 . S
C125 O118 1.257 . S
Zn126 O129 2.031 . S
Zn126 O131 2.049 . S
Zn126 O136 2.067 . S
Zn127 O128 1.962 . S
Zn127 O130 1.986 . S
Zn127 O132 1.996 . S
Zn127 O135 1.943 . S
O128 Zn127 1.962 . S
O128 C133 1.254 . S
O129 Zn126 2.031 . S
O129 C133 1.269 . S
O130 Zn127 1.986 . S
O130 C137 1.262 . S
O131 Zn126 2.049 . S
O131 C139 1.260 . S
O132 Zn127 1.996 . S
O132 C139 1.257 . S
C133 O128 1.254 . S
C133 O129 1.269 . S
C134 O135 1.249 . S
C134 O136 1.270 . S
O135 Zn127 1.943 . S
O135 C134 1.249 . S
O136 Zn126 2.067 . S
O136 C134 1.270 . S
C137 O130 1.262 . S
C137 O138 1.232 . S
O138 C137 1.232 . S
C139 O131 1.260 . S
C139 O132 1.257 . S
Zn140 O143 2.031 . S
Zn140 O145 2.049 . S
Zn140 O150 2.067 . S
Zn141 O142 1.962 . S
Zn141 O144 1.986 . S
Zn141 O146 1.996 . S
Zn141 O149 1.943 . S
O142 Zn141 1.962 . S
O142 C147 1.254 . S
O143 Zn140 2.031 . S
O143 C147 1.269 . S
O144 Zn141 1.986 . S
O144 C151 1.262 . S
O145 Zn140 2.049 . S
O145 C153 1.260 . S
O146 Zn141 1.996 . S
O146 C153 1.257 . S
C147 O142 1.254 . S
C147 O143 1.269 . S
C148 O149 1.249 . S
C148 O150 1.270 . S
O149 Zn141 1.943 . S
O149 C148 1.249 . S
O150 Zn140 2.067 . S
O150 C148 1.270 . S
C151 O144 1.262 . S
C151 O152 1.232 . S
O152 C151 1.232 . S
C153 O145 1.260 . S
C153 O146 1.257 . S
Zn154 O157 2.031 . S
Zn154 O159 2.049 . S
Zn154 O164 2.067 . S
Zn155 O156 1.962 . S
Zn155 O158 1.986 . S
Zn155 O160 1.996 . S
Zn155 O163 1.943 . S
O156 Zn155 1.962 . S
O156 C161 1.254 . S
O157 Zn154 2.031 . S
O157 C161 1.269 . S
O158 Zn155 1.986 . S
O158 C165 1.262 . S
O159 Zn154 2.049 . S
O159 C167 1.260 . S
O160 Zn155 1.996 . S
O160 C167 1.257 . S
C161 O156 1.254 . S
C161 O157 1.269 . S
C162 O163 1.249 . S
C162 O164 1.270 . S
O163 Zn155 1.943 . S
O163 C162 1.249 . S
O164 Zn154 2.067 . S
O164 C162 1.270 . S
C165 O158 1.262 . S
C165 O166 1.232 . S
O166 C165 1.232 . S
C167 O159 1.260 . S
C167 O160 1.257 . S
Zn168 O171 2.031 . S
Zn168 O173 2.049 . S
Zn168 O178 2.067 . S
Zn169 O170 1.962 . S
Zn169 O172 1.986 . S
Zn169 O174 1.996 . S
Zn169 O177 1.943 . S
O170 Zn169 1.962 . S
O170 C175 1.254 . S
O171 Zn168 2.031 . S
O171 C175 1.269 . S
O172 Zn169 1.986 . S
O172 C179 1.262 . S
O173 Zn168 2.049 . S
O173 C181 1.260 . S
O174 Zn169 1.996 . S
O174 C181 1.257 . S
C175 O170 1.254 . S
C175 O171 1.269 . S
C176 O177 1.249 . S
C176 O178 1.270 . S
O177 Zn169 1.943 . S
O177 C176 1.249 . S
O178 Zn168 2.067 . S
O178 C176 1.270 . S
C179 O172 1.262 . S
C179 O180 1.232 . S
O180 C179 1.232 . S
C181 O173 1.260 . S
C181 O174 1.257 . S
Zn182 O185 2.031 . S
Zn182 O187 2.049 . S
Zn182 O192 2.067 . S
Zn183 O184 1.962 . S
Zn183 O186 1.986 . S
Zn183 O188 1.996 . S
Zn183 O191 1.943 . S
O184 Zn183 1.962 . S
O184 C189 1.254 . S
O185 Zn182 2.031 . S
O185 C189 1.269 . S
O186 Zn183 1.986 . S
O186 C193 1.262 . S
O187 Zn182 2.049 . S
O187 C195 1.260 . S
O188 Zn183 1.996 . S
O188 C195 1.257 . S
C189 O184 1.254 . S
C189 O185 1.269 . S
C190 O191 1.249 . S
C190 O192 1.270 . S
O191 Zn183 1.943 . S
O191 C190 1.249 . S
O192 Zn182 2.067 . S
O192 C190 1.270 . S
C193 O186 1.262 . S
C193 O194 1.232 . S
O194 C193 1.232 . S
C195 O187 1.260 . S
C195 O188 1.257 . S
Zn196 O199 2.031 . S
Zn196 O201 2.049 . S
Zn196 O206 2.067 . S
Zn197 O198 1.962 . S
Zn197 O200 1.986 . S
Zn197 O202 1.996 . S
Zn197 O205 1.943 . S
O198 Zn197 1.962 . S
O198 C203 1.254 . S
O199 Zn196 2.031 . S
O199 C203 1.269 . S
O200 Zn197 1.986 . S
O200 C207 1.262 . S
O201 Zn196 2.049 . S
O201 C209 1.260 . S
O202 Zn197 1.996 . S
O202 C209 1.257 . S
C203 O198 1.254 . S
C203 O199 1.269 . S
C204 O205 1.249 . S
C204 O206 1.270 . S
O205 Zn197 1.943 . S
O205 C204 1.249 . S
O206 Zn196 2.067 . S
O206 C204 1.270 . S
C207 O200 1.262 . S
C207 O208 1.232 . S
O208 C207 1.232 . S
C209 O201 1.260 . S
C209 O202 1.257 . S
Zn210 O213 2.031 . S
Zn210 O215 2.049 . S
Zn210 O220 2.067 . S
Zn211 O212 1.962 . S
Zn211 O214 1.986 . S
Zn211 O216 1.996 . S
Zn211 O219 1.943 . S
O212 Zn211 1.962 . S
O212 C217 1.254 . S
O213 Zn210 2.031 . S
O213 C217 1.269 . S
O214 Zn211 1.986 . S
O214 C221 1.262 . S
O215 Zn210 2.049 . S
O215 C223 1.260 . S
O216 Zn211 1.996 . S
O216 C223 1.257 . S
C217 O212 1.254 . S
C217 O213 1.269 . S
C218 O219 1.249 . S
C218 O220 1.270 . S
O219 Zn211 1.943 . S
O219 C218 1.249 . S
O220 Zn210 2.067 . S
O220 C218 1.270 . S
C221 O214 1.262 . S
C221 O222 1.232 . S
O222 C221 1.232 . S
C223 O215 1.260 . S
C223 O216 1.257 . S
Zn224 O227 2.031 . S
Zn224 O229 2.049 . S
Zn224 O234 2.067 . S
Zn225 O226 1.962 . S
Zn225 O228 1.986 . S
Zn225 O230 1.996 . S
Zn225 O233 1.943 . S
O226 Zn225 1.962 . S
O226 C231 1.254 . S
O227 Zn224 2.031 . S
O227 C231 1.269 . S
O228 Zn225 1.986 . S
O228 C235 1.262 . S
O229 Zn224 2.049 . S
O229 C237 1.260 . S
O230 Zn225 1.996 . S
O230 C237 1.257 . S
C231 O226 1.254 . S
C231 O227 1.269 . S
C232 O233 1.249 . S
C232 O234 1.270 . S
O233 Zn225 1.943 . S
O233 C232 1.249 . S
O234 Zn224 2.067 . S
O234 C232 1.270 . S
C235 O228 1.262 . S
C235 O236 1.232 . S
O236 C235 1.232 . S
C237 O229 1.260 . S
C237 O230 1.257 . S
Zn238 O241 2.031 . S
Zn238 O243 2.049 . S
Zn238 O248 2.067 . S
Zn239 O240 1.962 . S
Zn239 O242 1.986 . S
Zn239 O244 1.996 . S
Zn239 O247 1.943 . S
O240 Zn239 1.962 . S
O240 C245 1.254 . S
O241 Zn238 2.031 . S
O241 C245 1.269 . S
O242 Zn239 1.986 . S
O242 C249 1.262 . S
O243 Zn238 2.049 . S
O243 C251 1.260 . S
O244 Zn239 1.996 . S
O244 C251 1.257 . S
C245 O240 1.254 . S
C245 O241 1.269 . S
C246 O247 1.249 . S
C246 O248 1.270 . S
O247 Zn239 1.943 . S
O247 C246 1.249 . S
O248 Zn238 2.067 . S
O248 C246 1.270 . S
C249 O242 1.262 . S
C249 O250 1.232 . S
O250 C249 1.232 . S
C251 O243 1.260 . S
C251 O244 1.257 . S
H252 O278 0.856 . S
H253 O281 0.854 . S
H254 C289 0.930 . S
H255 C290 0.930 . S
H256 C292 0.930 . S
H257 C293 0.930 . S
H258 C295 0.931 . S
H259 C296 0.930 . S
H260 C298 0.930 . S
H261 C299 0.929 . S
H262 C301 0.930 . S
H263 C302 0.931 . S
H264 C304 0.930 . S
H265 C305 0.929 . S
H266 C307 0.931 . S
H267 C308 0.930 . S
H268 C310 0.930 . S
H269 C311 0.932 . S
H270 C313 0.930 . S
H271 C314 0.929 . S
H272 C316 0.931 . S
H273 C317 0.930 . S
H274 C319 0.929 . S
H275 C320 0.931 . S
H276 C322 0.930 . S
H277 C323 0.929 . S
O278 H252 0.856 . S
O278 C324 1.300 . S
O279 C324 1.209 . S
O280 C325 1.199 . S
O281 H253 0.854 . S
O281 C325 1.297 . S
C282 C283 1.404 . S
C282 C287 1.397 . S
C282 C288 1.492 . S
C283 C282 1.404 . S
C283 C284 1.396 . S
C283 C294 1.492 . S
C284 C283 1.396 . S
C284 C285 1.397 . S
C284 C300 1.509 . S
C285 C284 1.397 . S
C285 C286 1.412 . S
C285 C306 1.485 . S
C286 C285 1.412 . S
C286 C287 1.388 . S
C286 C312 1.490 . S
C287 C282 1.397 . S
C287 C286 1.388 . S
C287 C318 1.519 . S
C288 C282 1.492 . S
C288 C289 1.363 . S
C288 C293 1.390 . S
C289 H254 0.930 . S
C289 C288 1.363 . S
C289 C290 1.372 . S
C290 H255 0.930 . S
C290 C289 1.372 . S
C290 C291 1.383 . S
C291 C290 1.383 . S
C291 C292 1.395 . S
C292 H256 0.930 . S
C292 C291 1.395 . S
C292 C293 1.362 . S
C293 H257 0.930 . S
C293 C288 1.390 . S
C293 C292 1.362 . S
C294 C283 1.492 . S
C294 C295 1.377 . S
C294 C299 1.397 . S
C295 H258 0.931 . S
C295 C294 1.377 . S
C295 C296 1.376 . S
C296 H259 0.930 . S
C296 C295 1.376 . S
C296 C297 1.376 . S
C297 C296 1.376 . S
C297 C298 1.378 . S
C297 C324 1.486 . S
C298 H260 0.930 . S
C298 C297 1.378 . S
C298 C299 1.376 . S
C299 H261 0.929 . S
C299 C294 1.397 . S
C299 C298 1.376 . S
C300 C284 1.509 . S
C300 C301 1.391 . S
C300 C305 1.386 . S
C301 H262 0.930 . S
C301 C300 1.391 . S
C301 C302 1.375 . S
C302 H263 0.931 . S
C302 C301 1.375 . S
C302 C303 1.375 . S
C303 C302 1.375 . S
C303 C304 1.361 . S
C304 H264 0.930 . S
C304 C303 1.361 . S
C304 C305 1.399 . S
C305 H265 0.929 . S
C305 C300 1.386 . S
C305 C304 1.399 . S
C306 C285 1.485 . S
C306 C307 1.394 . S
C306 C311 1.360 . S
C307 H266 0.931 . S
C307 C306 1.394 . S
C307 C308 1.372 . S
C308 H267 0.930 . S
C308 C307 1.372 . S
C308 C309 1.397 . S
C309 C308 1.397 . S
C309 C310 1.390 . S
C309 C325 1.476 . S
C310 H268 0.930 . S
C310 C309 1.390 . S
C310 C311 1.366 . S
C311 H269 0.932 . S
C311 C306 1.360 . S
C311 C310 1.366 . S
C312 C286 1.490 . S
C312 C313 1.380 . S
C312 C317 1.386 . S
C313 H270 0.930 . S
C313 C312 1.380 . S
C313 C314 1.381 . S
C314 H271 0.929 . S
C314 C313 1.381 . S
C314 C315 1.371 . S
C315 C314 1.371 . S
C315 C316 1.380 . S
C316 H272 0.931 . S
C316 C315 1.380 . S
C316 C317 1.387 . S
C317 H273 0.930 . S
C317 C312 1.386 . S
C317 C316 1.387 . S
C318 C287 1.519 . S
C318 C319 1.377 . S
C318 C323 1.361 . S
C319 H274 0.929 . S
C319 C318 1.377 . S
C319 C320 1.386 . S
C320 H275 0.931 . S
C320 C319 1.386 . S
C320 C321 1.363 . S
C321 C320 1.363 . S
C321 C322 1.385 . S
C322 H276 0.930 . S
C322 C321 1.385 . S
C322 C323 1.396 . S
C323 H277 0.929 . S
C323 C318 1.361 . S
C323 C322 1.396 . S
C324 O278 1.300 . S
C324 O279 1.209 . S
C324 C297 1.486 . S
C325 O280 1.199 . S
C325 O281 1.297 . S
C325 C309 1.476 . S
H326 O352 0.856 . S
H327 O355 0.854 . S
H328 C363 0.930 . S
H329 C364 0.930 . S
H330 C366 0.930 . S
H331 C367 0.930 . S
H332 C369 0.931 . S
H333 C370 0.930 . S
H334 C372 0.930 . S
H335 C373 0.929 . S
H336 C375 0.930 . S
H337 C376 0.931 . S
H338 C378 0.930 . S
H339 C379 0.929 . S
H340 C381 0.931 . S
H341 C382 0.930 . S
H342 C384 0.930 . S
H343 C385 0.932 . S
H344 C387 0.930 . S
H345 C388 0.929 . S
H346 C390 0.931 . S
H347 C391 0.930 . S
H348 C393 0.929 . S
H349 C394 0.931 . S
H350 C396 0.930 . S
H351 C397 0.929 . S
O352 H326 0.856 . S
O352 C398 1.300 . S
O353 C398 1.209 . S
O354 C399 1.199 . S
O355 H327 0.854 . S
O355 C399 1.297 . S
C356 C357 1.404 . S
C356 C361 1.397 . S
C356 C362 1.492 . S
C357 C356 1.404 . S
C357 C358 1.396 . S
C357 C368 1.492 . S
C358 C357 1.396 . S
C358 C359 1.397 . S
C358 C374 1.509 . S
C359 C358 1.397 . S
C359 C360 1.412 . S
C359 C380 1.485 . S
C360 C359 1.412 . S
C360 C361 1.388 . S
C360 C386 1.490 . S
C361 C356 1.397 . S
C361 C360 1.388 . S
C361 C392 1.519 . S
C362 C356 1.492 . S
C362 C363 1.363 . S
C362 C367 1.390 . S
C363 H328 0.930 . S
C363 C362 1.363 . S
C363 C364 1.372 . S
C364 H329 0.930 . S
C364 C363 1.372 . S
C364 C365 1.383 . S
C365 C364 1.383 . S
C365 C366 1.395 . S
C366 H330 0.930 . S
C366 C365 1.395 . S
C366 C367 1.362 . S
C367 H331 0.930 . S
C367 C362 1.390 . S
C367 C366 1.362 . S
C368 C357 1.492 . S
C368 C369 1.377 . S
C368 C373 1.397 . S
C369 H332 0.931 . S
C369 C368 1.377 . S
C369 C370 1.376 . S
C370 H333 0.930 . S
C370 C369 1.376 . S
C370 C371 1.376 . S
C371 C370 1.376 . S
C371 C372 1.378 . S
C371 C398 1.486 . S
C372 H334 0.930 . S
C372 C371 1.378 . S
C372 C373 1.376 . S
C373 H335 0.929 . S
C373 C368 1.397 . S
C373 C372 1.376 . S
C374 C358 1.509 . S
C374 C375 1.391 . S
C374 C379 1.386 . S
C375 H336 0.930 . S
C375 C374 1.391 . S
C375 C376 1.375 . S
C376 H337 0.931 . S
C376 C375 1.375 . S
C376 C377 1.375 . S
C377 C376 1.375 . S
C377 C378 1.361 . S
C378 H338 0.930 . S
C378 C377 1.361 . S
C378 C379 1.399 . S
C379 H339 0.929 . S
C379 C374 1.386 . S
C379 C378 1.399 . S
C380 C359 1.485 . S
C380 C381 1.394 . S
C380 C385 1.360 . S
C381 H340 0.931 . S
C381 C380 1.394 . S
C381 C382 1.372 . S
C382 H341 0.930 . S
C382 C381 1.372 . S
C382 C383 1.397 . S
C383 C382 1.397 . S
C383 C384 1.390 . S
C383 C399 1.476 . S
C384 H342 0.930 . S
C384 C383 1.390 . S
C384 C385 1.366 . S
C385 H343 0.932 . S
C385 C380 1.360 . S
C385 C384 1.366 . S
C386 C360 1.490 . S
C386 C387 1.380 . S
C386 C391 1.386 . S
C387 H344 0.930 . S
C387 C386 1.380 . S
C387 C388 1.381 . S
C388 H345 0.929 . S
C388 C387 1.381 . S
C388 C389 1.371 . S
C389 C388 1.371 . S
C389 C390 1.380 . S
C390 H346 0.931 . S
C390 C389 1.380 . S
C390 C391 1.387 . S
C391 H347 0.930 . S
C391 C386 1.386 . S
C391 C390 1.387 . S
C392 C361 1.519 . S
C392 C393 1.377 . S
C392 C397 1.361 . S
C393 H348 0.929 . S
C393 C392 1.377 . S
C393 C394 1.386 . S
C394 H349 0.931 . S
C394 C393 1.386 . S
C394 C395 1.363 . S
C395 C394 1.363 . S
C395 C396 1.385 . S
C396 H350 0.930 . S
C396 C395 1.385 . S
C396 C397 1.396 . S
C397 H351 0.929 . S
C397 C392 1.361 . S
C397 C396 1.396 . S
C398 O352 1.300 . S
C398 O353 1.209 . S
C398 C371 1.486 . S
C399 O354 1.199 . S
C399 O355 1.297 . S
C399 C383 1.476 . S
H400 O426 0.856 . S
H401 O429 0.854 . S
H402 C437 0.930 . S
H403 C438 0.930 . S
H404 C440 0.930 . S
H405 C441 0.930 . S
H406 C443 0.931 . S
H407 C444 0.930 . S
H408 C446 0.930 . S
H409 C447 0.929 . S
H410 C449 0.930 . S
H411 C450 0.931 . S
H412 C452 0.930 . S
H413 C453 0.929 . S
H414 C455 0.931 . S
H415 C456 0.930 . S
H416 C458 0.930 . S
H417 C459 0.932 . S
H418 C461 0.930 . S
H419 C462 0.929 . S
H420 C464 0.931 . S
H421 C465 0.930 . S
H422 C467 0.929 . S
H423 C468 0.931 . S
H424 C470 0.930 . S
H425 C471 0.929 . S
O426 H400 0.856 . S
O426 C472 1.300 . S
O427 C472 1.209 . S
O428 C473 1.199 . S
O429 H401 0.854 . S
O429 C473 1.297 . S
C430 C431 1.404 . S
C430 C435 1.397 . S
C430 C436 1.492 . S
C431 C430 1.404 . S
C431 C432 1.396 . S
C431 C442 1.492 . S
C432 C431 1.396 . S
C432 C433 1.397 . S
C432 C448 1.509 . S
C433 C432 1.397 . S
C433 C434 1.412 . S
C433 C454 1.485 . S
C434 C433 1.412 . S
C434 C435 1.388 . S
C434 C460 1.490 . S
C435 C430 1.397 . S
C435 C434 1.388 . S
C435 C466 1.519 . S
C436 C430 1.492 . S
C436 C437 1.363 . S
C436 C441 1.390 . S
C437 H402 0.930 . S
C437 C436 1.363 . S
C437 C438 1.372 . S
C438 H403 0.930 . S
C438 C437 1.372 . S
C438 C439 1.383 . S
C439 C438 1.383 . S
C439 C440 1.395 . S
C440 H404 0.930 . S
C440 C439 1.395 . S
C440 C441 1.362 . S
C441 H405 0.930 . S
C441 C436 1.390 . S
C441 C440 1.362 . S
C442 C431 1.492 . S
C442 C443 1.377 . S
C442 C447 1.397 . S
C443 H406 0.931 . S
C443 C442 1.377 . S
C443 C444 1.376 . S
C444 H407 0.930 . S
C444 C443 1.376 . S
C444 C445 1.376 . S
C445 C444 1.376 . S
C445 C446 1.378 . S
C445 C472 1.486 . S
C446 H408 0.930 . S
C446 C445 1.378 . S
C446 C447 1.376 . S
C447 H409 0.929 . S
C447 C442 1.397 . S
C447 C446 1.376 . S
C448 C432 1.509 . S
C448 C449 1.391 . S
C448 C453 1.386 . S
C449 H410 0.930 . S
C449 C448 1.391 . S
C449 C450 1.375 . S
C450 H411 0.931 . S
C450 C449 1.375 . S
C450 C451 1.375 . S
C451 C450 1.375 . S
C451 C452 1.361 . S
C452 H412 0.930 . S
C452 C451 1.361 . S
C452 C453 1.399 . S
C453 H413 0.929 . S
C453 C448 1.386 . S
C453 C452 1.399 . S
C454 C433 1.485 . S
C454 C455 1.394 . S
C454 C459 1.360 . S
C455 H414 0.931 . S
C455 C454 1.394 . S
C455 C456 1.372 . S
C456 H415 0.930 . S
C456 C455 1.372 . S
C456 C457 1.397 . S
C457 C456 1.397 . S
C457 C458 1.390 . S
C457 C473 1.476 . S
C458 H416 0.930 . S
C458 C457 1.390 . S
C458 C459 1.366 . S
C459 H417 0.932 . S
C459 C454 1.360 . S
C459 C458 1.366 . S
C460 C434 1.490 . S
C460 C461 1.380 . S
C460 C465 1.386 . S
C461 H418 0.930 . S
C461 C460 1.380 . S
C461 C462 1.381 . S
C462 H419 0.929 . S
C462 C461 1.381 . S
C462 C463 1.371 . S
C463 C462 1.371 . S
C463 C464 1.380 . S
C464 H420 0.931 . S
C464 C463 1.380 . S
C464 C465 1.387 . S
C465 H421 0.930 . S
C465 C460 1.386 . S
C465 C464 1.387 . S
C466 C435 1.519 . S
C466 C467 1.377 . S
C466 C471 1.361 . S
C467 H422 0.929 . S
C467 C466 1.377 . S
C467 C468 1.386 . S
C468 H423 0.931 . S
C468 C467 1.386 . S
C468 C469 1.363 . S
C469 C468 1.363 . S
C469 C470 1.385 . S
C470 H424 0.930 . S
C470 C469 1.385 . S
C470 C471 1.396 . S
C471 H425 0.929 . S
C471 C466 1.361 . S
C471 C470 1.396 . S
C472 O426 1.300 . S
C472 O427 1.209 . S
C472 C445 1.486 . S
C473 O428 1.199 . S
C473 O429 1.297 . S
C473 C457 1.476 . S
H474 O500 0.856 . S
H475 O503 0.854 . S
H476 C511 0.930 . S
H477 C512 0.930 . S
H478 C514 0.930 . S
H479 C515 0.930 . S
H480 C517 0.931 . S
H481 C518 0.930 . S
H482 C520 0.930 . S
H483 C521 0.929 . S
H484 C523 0.930 . S
H485 C524 0.931 . S
H486 C526 0.930 . S
H487 C527 0.929 . S
H488 C529 0.931 . S
H489 C530 0.930 . S
H490 C532 0.930 . S
H491 C533 0.932 . S
H492 C535 0.930 . S
H493 C536 0.929 . S
H494 C538 0.931 . S
H495 C539 0.930 . S
H496 C541 0.929 . S
H497 C542 0.931 . S
H498 C544 0.930 . S
H499 C545 0.929 . S
O500 H474 0.856 . S
O500 C546 1.300 1_554 S
O501 C546 1.209 1_554 S
O502 C547 1.199 . S
O503 H475 0.854 . S
O503 C547 1.297 . S
C504 C505 1.404 . S
C504 C509 1.397 . S
C504 C510 1.492 . S
C505 C504 1.404 . S
C505 C506 1.396 . S
C505 C516 1.492 . S
C506 C505 1.396 . S
C506 C507 1.397 . S
C506 C522 1.509 . S
C507 C506 1.397 . S
C507 C508 1.412 . S
C507 C528 1.485 . S
C508 C507 1.412 . S
C508 C509 1.388 . S
C508 C534 1.490 . S
C509 C504 1.397 . S
C509 C508 1.388 . S
C509 C540 1.519 . S
C510 C504 1.492 . S
C510 C511 1.363 . S
C510 C515 1.390 . S
C511 H476 0.930 . S
C511 C510 1.363 . S
C511 C512 1.372 . S
C512 H477 0.930 . S
C512 C511 1.372 . S
C512 C513 1.383 . S
C513 C512 1.383 . S
C513 C514 1.395 . S
C514 H478 0.930 . S
C514 C513 1.395 . S
C514 C515 1.362 . S
C515 H479 0.930 . S
C515 C510 1.390 . S
C515 C514 1.362 . S
C516 C505 1.492 . S
C516 C517 1.377 . S
C516 C521 1.397 . S
C517 H480 0.931 . S
C517 C516 1.377 . S
C517 C518 1.376 . S
C518 H481 0.930 . S
C518 C517 1.376 . S
C518 C519 1.376 . S
C519 C518 1.376 . S
C519 C520 1.378 . S
C519 C546 1.486 . S
C520 H482 0.930 . S
C520 C519 1.378 . S
C520 C521 1.376 . S
C521 H483 0.929 . S
C521 C516 1.397 . S
C521 C520 1.376 . S
C522 C506 1.509 . S
C522 C523 1.391 . S
C522 C527 1.386 . S
C523 H484 0.930 . S
C523 C522 1.391 . S
C523 C524 1.375 . S
C524 H485 0.931 . S
C524 C523 1.375 . S
C524 C525 1.375 . S
C525 C524 1.375 . S
C525 C526 1.361 . S
C526 H486 0.930 . S
C526 C525 1.361 . S
C526 C527 1.399 . S
C527 H487 0.929 . S
C527 C522 1.386 . S
C527 C526 1.399 . S
C528 C507 1.485 . S
C528 C529 1.394 . S
C528 C533 1.360 . S
C529 H488 0.931 . S
C529 C528 1.394 . S
C529 C530 1.372 . S
C530 H489 0.930 . S
C530 C529 1.372 . S
C530 C531 1.397 . S
C531 C530 1.397 . S
C531 C532 1.390 . S
C531 C547 1.476 . S
C532 H490 0.930 . S
C532 C531 1.390 . S
C532 C533 1.366 . S
C533 H491 0.932 . S
C533 C528 1.360 . S
C533 C532 1.366 . S
C534 C508 1.490 . S
C534 C535 1.380 . S
C534 C539 1.386 . S
C535 H492 0.930 . S
C535 C534 1.380 . S
C535 C536 1.381 . S
C536 H493 0.929 . S
C536 C535 1.381 . S
C536 C537 1.371 . S
C537 C536 1.371 . S
C537 C538 1.380 . S
C538 H494 0.931 . S
C538 C537 1.380 . S
C538 C539 1.387 . S
C539 H495 0.930 . S
C539 C534 1.386 . S
C539 C538 1.387 . S
C540 C509 1.519 . S
C540 C541 1.377 . S
C540 C545 1.361 . S
C541 H496 0.929 . S
C541 C540 1.377 . S
C541 C542 1.386 . S
C542 H497 0.931 . S
C542 C541 1.386 . S
C542 C543 1.363 . S
C543 C542 1.363 . S
C543 C544 1.385 . S
C544 H498 0.930 . S
C544 C543 1.385 . S
C544 C545 1.396 . S
C545 H499 0.929 . S
C545 C540 1.361 . S
C545 C544 1.396 . S
C546 O500 1.300 1_556 S
C546 O501 1.209 1_556 S
C546 C519 1.486 . S
C547 O502 1.199 . S
C547 O503 1.297 . S
C547 C531 1.476 . S
H548 O574 0.856 . S
H549 O577 0.854 . S
H550 C585 0.930 . S
H551 C586 0.930 . S
H552 C588 0.930 . S
H553 C589 0.930 . S
H554 C591 0.931 . S
H555 C592 0.930 . S
H556 C594 0.930 . S
H557 C595 0.929 . S
H558 C597 0.930 . S
H559 C598 0.931 . S
H560 C600 0.930 . S
H561 C601 0.929 . S
H562 C603 0.931 . S
H563 C604 0.930 . S
H564 C606 0.930 . S
H565 C607 0.932 . S
H566 C609 0.930 . S
H567 C610 0.929 . S
H568 C612 0.931 . S
H569 C613 0.930 . S
H570 C615 0.929 . S
H571 C616 0.931 . S
H572 C618 0.930 . S
H573 C619 0.929 . S
O574 H548 0.856 . S
O574 C620 1.300 . S
O575 C620 1.209 . S
O576 C621 1.199 . S
O577 H549 0.854 . S
O577 C621 1.297 . S
C578 C579 1.404 . S
C578 C583 1.397 . S
C578 C584 1.492 . S
C579 C578 1.404 . S
C579 C580 1.396 . S
C579 C590 1.492 . S
C580 C579 1.396 . S
C580 C581 1.397 . S
C580 C596 1.509 . S
C581 C580 1.397 . S
C581 C582 1.412 . S
C581 C602 1.485 . S
C582 C581 1.412 . S
C582 C583 1.388 . S
C582 C608 1.490 . S
C583 C578 1.397 . S
C583 C582 1.388 . S
C583 C614 1.519 . S
C584 C578 1.492 . S
C584 C585 1.363 . S
C584 C589 1.390 . S
C585 H550 0.930 . S
C585 C584 1.363 . S
C585 C586 1.372 . S
C586 H551 0.930 . S
C586 C585 1.372 . S
C586 C587 1.383 . S
C587 C586 1.383 . S
C587 C588 1.395 . S
C588 H552 0.930 . S
C588 C587 1.395 . S
C588 C589 1.362 . S
C589 H553 0.930 . S
C589 C584 1.390 . S
C589 C588 1.362 . S
C590 C579 1.492 . S
C590 C591 1.377 . S
C590 C595 1.397 . S
C591 H554 0.931 . S
C591 C590 1.377 . S
C591 C592 1.376 . S
C592 H555 0.930 . S
C592 C591 1.376 . S
C592 C593 1.376 . S
C593 C592 1.376 . S
C593 C594 1.378 . S
C593 C620 1.486 1_556 S
C594 H556 0.930 . S
C594 C593 1.378 . S
C594 C595 1.376 . S
C595 H557 0.929 . S
C595 C590 1.397 . S
C595 C594 1.376 . S
C596 C580 1.509 . S
C596 C597 1.391 . S
C596 C601 1.386 . S
C597 H558 0.930 . S
C597 C596 1.391 . S
C597 C598 1.375 . S
C598 H559 0.931 . S
C598 C597 1.375 . S
C598 C599 1.375 . S
C599 C598 1.375 . S
C599 C600 1.361 . S
C600 H560 0.930 . S
C600 C599 1.361 . S
C600 C601 1.399 . S
C601 H561 0.929 . S
C601 C596 1.386 . S
C601 C600 1.399 . S
C602 C581 1.485 . S
C602 C603 1.394 . S
C602 C607 1.360 . S
C603 H562 0.931 . S
C603 C602 1.394 . S
C603 C604 1.372 . S
C604 H563 0.930 . S
C604 C603 1.372 . S
C604 C605 1.397 . S
C605 C604 1.397 . S
C605 C606 1.390 . S
C605 C621 1.476 . S
C606 H564 0.930 . S
C606 C605 1.390 . S
C606 C607 1.366 . S
C607 H565 0.932 . S
C607 C602 1.360 . S
C607 C606 1.366 . S
C608 C582 1.490 . S
C608 C609 1.380 . S
C608 C613 1.386 . S
C609 H566 0.930 . S
C609 C608 1.380 . S
C609 C610 1.381 . S
C610 H567 0.929 . S
C610 C609 1.381 . S
C610 C611 1.371 . S
C611 C610 1.371 . S
C611 C612 1.380 . S
C612 H568 0.931 . S
C612 C611 1.380 . S
C612 C613 1.387 . S
C613 H569 0.930 . S
C613 C608 1.386 . S
C613 C612 1.387 . S
C614 C583 1.519 . S
C614 C615 1.377 . S
C614 C619 1.361 . S
C615 H570 0.929 . S
C615 C614 1.377 . S
C615 C616 1.386 . S
C616 H571 0.931 . S
C616 C615 1.386 . S
C616 C617 1.363 . S
C617 C616 1.363 . S
C617 C618 1.385 . S
C618 H572 0.930 . S
C618 C617 1.385 . S
C618 C619 1.396 . S
C619 H573 0.929 . S
C619 C614 1.361 . S
C619 C618 1.396 . S
C620 O574 1.300 . S
C620 O575 1.209 . S
C620 C593 1.486 1_554 S
C621 O576 1.199 . S
C621 O577 1.297 . S
C621 C605 1.476 . S
H622 O648 0.856 . S
H623 O651 0.854 . S
H624 C659 0.930 . S
H625 C660 0.930 . S
H626 C662 0.930 . S
H627 C663 0.930 . S
H628 C665 0.931 . S
H629 C666 0.930 1_554 S
H630 C668 0.930 . S
H631 C669 0.929 . S
H632 C671 0.930 . S
H633 C672 0.931 . S
H634 C674 0.930 . S
H635 C675 0.929 . S
H636 C677 0.931 . S
H637 C678 0.930 . S
H638 C680 0.930 . S
H639 C681 0.932 . S
H640 C683 0.930 . S
H641 C684 0.929 . S
H642 C686 0.931 . S
H643 C687 0.930 . S
H644 C689 0.929 . S
H645 C690 0.931 . S
H646 C692 0.930 . S
H647 C693 0.929 . S
O648 H622 0.856 . S
O648 C694 1.300 . S
O649 C694 1.209 . S
O650 C695 1.199 . S
O651 H623 0.854 . S
O651 C695 1.297 . S
C652 C653 1.404 . S
C652 C657 1.397 . S
C652 C658 1.492 . S
C653 C652 1.404 . S
C653 C654 1.396 . S
C653 C664 1.492 . S
C654 C653 1.396 . S
C654 C655 1.397 . S
C654 C670 1.509 . S
C655 C654 1.397 . S
C655 C656 1.412 . S
C655 C676 1.485 . S
C656 C655 1.412 . S
C656 C657 1.388 . S
C656 C682 1.490 . S
C657 C652 1.397 . S
C657 C656 1.388 . S
C657 C688 1.519 . S
C658 C652 1.492 . S
C658 C659 1.363 . S
C658 C663 1.390 . S
C659 H624 0.930 . S
C659 C658 1.363 . S
C659 C660 1.372 . S
C660 H625 0.930 . S
C660 C659 1.372 . S
C660 C661 1.383 . S
C661 C660 1.383 . S
C661 C662 1.395 . S
C662 H626 0.930 . S
C662 C661 1.395 . S
C662 C663 1.362 . S
C663 H627 0.930 . S
C663 C658 1.390 . S
C663 C662 1.362 . S
C664 C653 1.492 . S
C664 C665 1.377 . S
C664 C669 1.397 . S
C665 H628 0.931 . S
C665 C664 1.377 . S
C665 C666 1.376 . S
C666 H629 0.930 1_556 S
C666 C665 1.376 . S
C666 C667 1.376 . S
C667 C666 1.376 . S
C667 C668 1.378 . S
C667 C694 1.486 1_556 S
C668 H630 0.930 . S
C668 C667 1.378 . S
C668 C669 1.376 . S
C669 H631 0.929 . S
C669 C664 1.397 . S
C669 C668 1.376 . S
C670 C654 1.509 . S
C670 C671 1.391 . S
C670 C675 1.386 . S
C671 H632 0.930 . S
C671 C670 1.391 . S
C671 C672 1.375 . S
C672 H633 0.931 . S
C672 C671 1.375 . S
C672 C673 1.375 . S
C673 C672 1.375 . S
C673 C674 1.361 . S
C674 H634 0.930 . S
C674 C673 1.361 . S
C674 C675 1.399 . S
C675 H635 0.929 . S
C675 C670 1.386 . S
C675 C674 1.399 . S
C676 C655 1.485 . S
C676 C677 1.394 . S
C676 C681 1.360 . S
C677 H636 0.931 . S
C677 C676 1.394 . S
C677 C678 1.372 . S
C678 H637 0.930 . S
C678 C677 1.372 . S
C678 C679 1.397 . S
C679 C678 1.397 . S
C679 C680 1.390 . S
C679 C695 1.476 . S
C680 H638 0.930 . S
C680 C679 1.390 . S
C680 C681 1.366 . S
C681 H639 0.932 . S
C681 C676 1.360 . S
C681 C680 1.366 . S
C682 C656 1.490 . S
C682 C683 1.380 . S
C682 C687 1.386 . S
C683 H640 0.930 . S
C683 C682 1.380 . S
C683 C684 1.381 . S
C684 H641 0.929 . S
C684 C683 1.381 . S
C684 C685 1.371 . S
C685 C684 1.371 . S
C685 C686 1.380 . S
C686 H642 0.931 . S
C686 C685 1.380 . S
C686 C687 1.387 . S
C687 H643 0.930 . S
C687 C682 1.386 . S
C687 C686 1.387 . S
C688 C657 1.519 . S
C688 C689 1.377 . S
C688 C693 1.361 . S
C689 H644 0.929 . S
C689 C688 1.377 . S
C689 C690 1.386 . S
C690 H645 0.931 . S
C690 C689 1.386 . S
C690 C691 1.363 . S
C691 C690 1.363 . S
C691 C692 1.385 . S
C692 H646 0.930 . S
C692 C691 1.385 . S
C692 C693 1.396 . S
C693 H647 0.929 . S
C693 C688 1.361 . S
C693 C692 1.396 . S
C694 O648 1.300 . S
C694 O649 1.209 . S
C694 C667 1.486 1_554 S
C695 O650 1.199 . S
C695 O651 1.297 . S
C695 C679 1.476 . S
H696 O722 0.856 . S
H697 O725 0.854 . S
H698 C733 0.930 . S
H699 C734 0.930 . S
H700 C736 0.930 . S
H701 C737 0.930 . S
H702 C739 0.931 . S
H703 C740 0.930 . S
H704 C742 0.930 . S
H705 C743 0.929 . S
H706 C745 0.930 . S
H707 C746 0.931 . S
H708 C748 0.930 . S
H709 C749 0.929 . S
H710 C751 0.931 . S
H711 C752 0.930 . S
H712 C754 0.930 . S
H713 C755 0.932 . S
H714 C757 0.930 . S
H715 C758 0.929 . S
H716 C760 0.931 . S
H717 C761 0.930 . S
H718 C763 0.929 . S
H719 C764 0.931 . S
H720 C766 0.930 . S
H721 C767 0.929 . S
O722 H696 0.856 . S
O722 C768 1.300 . S
O723 C768 1.209 . S
O724 C769 1.199 . S
O725 H697 0.854 . S
O725 C769 1.297 . S
C726 C727 1.404 . S
C726 C731 1.397 . S
C726 C732 1.492 . S
C727 C726 1.404 . S
C727 C728 1.396 . S
C727 C738 1.492 . S
C728 C727 1.396 . S
C728 C729 1.397 . S
C728 C744 1.509 . S
C729 C728 1.397 . S
C729 C730 1.412 . S
C729 C750 1.485 . S
C730 C729 1.412 . S
C730 C731 1.388 . S
C730 C756 1.490 . S
C731 C726 1.397 . S
C731 C730 1.388 . S
C731 C762 1.519 . S
C732 C726 1.492 . S
C732 C733 1.363 . S
C732 C737 1.390 . S
C733 H698 0.930 . S
C733 C732 1.363 . S
C733 C734 1.372 . S
C734 H699 0.930 . S
C734 C733 1.372 . S
C734 C735 1.383 . S
C735 C734 1.383 . S
C735 C736 1.395 . S
C736 H700 0.930 . S
C736 C735 1.395 . S
C736 C737 1.362 . S
C737 H701 0.930 . S
C737 C732 1.390 . S
C737 C736 1.362 . S
C738 C727 1.492 . S
C738 C739 1.377 . S
C738 C743 1.397 . S
C739 H702 0.931 . S
C739 C738 1.377 . S
C739 C740 1.376 . S
C740 H703 0.930 . S
C740 C739 1.376 . S
C740 C741 1.376 . S
C741 C740 1.376 . S
C741 C742 1.378 . S
C741 C768 1.486 . S
C742 H704 0.930 . S
C742 C741 1.378 . S
C742 C743 1.376 . S
C743 H705 0.929 . S
C743 C738 1.397 . S
C743 C742 1.376 . S
C744 C728 1.509 . S
C744 C745 1.391 . S
C744 C749 1.386 . S
C745 H706 0.930 . S
C745 C744 1.391 . S
C745 C746 1.375 . S
C746 H707 0.931 . S
C746 C745 1.375 . S
C746 C747 1.375 . S
C747 C746 1.375 . S
C747 C748 1.361 . S
C748 H708 0.930 . S
C748 C747 1.361 . S
C748 C749 1.399 . S
C749 H709 0.929 . S
C749 C744 1.386 . S
C749 C748 1.399 . S
C750 C729 1.485 . S
C750 C751 1.394 . S
C750 C755 1.360 . S
C751 H710 0.931 . S
C751 C750 1.394 . S
C751 C752 1.372 . S
C752 H711 0.930 . S
C752 C751 1.372 . S
C752 C753 1.397 . S
C753 C752 1.397 . S
C753 C754 1.390 . S
C753 C769 1.476 . S
C754 H712 0.930 . S
C754 C753 1.390 . S
C754 C755 1.366 . S
C755 H713 0.932 . S
C755 C750 1.360 . S
C755 C754 1.366 . S
C756 C730 1.490 . S
C756 C757 1.380 . S
C756 C761 1.386 . S
C757 H714 0.930 . S
C757 C756 1.380 . S
C757 C758 1.381 . S
C758 H715 0.929 . S
C758 C757 1.381 . S
C758 C759 1.371 . S
C759 C758 1.371 . S
C759 C760 1.380 . S
C760 H716 0.931 . S
C760 C759 1.380 . S
C760 C761 1.387 . S
C761 H717 0.930 . S
C761 C756 1.386 . S
C761 C760 1.387 . S
C762 C731 1.519 . S
C762 C763 1.377 . S
C762 C767 1.361 . S
C763 H718 0.929 . S
C763 C762 1.377 . S
C763 C764 1.386 . S
C764 H719 0.931 . S
C764 C763 1.386 . S
C764 C765 1.363 . S
C765 C764 1.363 . S
C765 C766 1.385 . S
C766 H720 0.930 . S
C766 C765 1.385 . S
C766 C767 1.396 . S
C767 H721 0.929 . S
C767 C762 1.361 . S
C767 C766 1.396 . S
C768 O722 1.300 . S
C768 O723 1.209 . S
C768 C741 1.486 . S
C769 O724 1.199 . S
C769 O725 1.297 . S
C769 C753 1.476 . S
H770 O796 0.856 . S
H771 O799 0.854 . S
H772 C807 0.930 . S
H773 C808 0.930 . S
H774 C810 0.930 . S
H775 C811 0.930 . S
H776 C813 0.931 . S
H777 C814 0.930 . S
H778 C816 0.930 . S
H779 C817 0.929 . S
H780 C819 0.930 . S
H781 C820 0.931 . S
H782 C822 0.930 . S
H783 C823 0.929 . S
H784 C825 0.931 . S
H785 C826 0.930 . S
H786 C828 0.930 . S
H787 C829 0.932 . S
H788 C831 0.930 . S
H789 C832 0.929 . S
H790 C834 0.931 . S
H791 C835 0.930 . S
H792 C837 0.929 . S
H793 C838 0.931 . S
H794 C840 0.930 . S
H795 C841 0.929 . S
O796 H770 0.856 . S
O796 C842 1.300 . S
O797 C842 1.209 . S
O798 C843 1.199 . S
O799 H771 0.854 . S
O799 C843 1.297 . S
C800 C801 1.404 . S
C800 C805 1.397 . S
C800 C806 1.492 . S
C801 C800 1.404 . S
C801 C802 1.396 . S
C801 C812 1.492 . S
C802 C801 1.396 . S
C802 C803 1.397 . S
C802 C818 1.509 . S
C803 C802 1.397 . S
C803 C804 1.412 . S
C803 C824 1.485 . S
C804 C803 1.412 . S
C804 C805 1.388 . S
C804 C830 1.490 . S
C805 C800 1.397 . S
C805 C804 1.388 . S
C805 C836 1.519 . S
C806 C800 1.492 . S
C806 C807 1.363 . S
C806 C811 1.390 . S
C807 H772 0.930 . S
C807 C806 1.363 . S
C807 C808 1.372 . S
C808 H773 0.930 . S
C808 C807 1.372 . S
C808 C809 1.383 . S
C809 C808 1.383 . S
C809 C810 1.395 . S
C810 H774 0.930 . S
C810 C809 1.395 . S
C810 C811 1.362 . S
C811 H775 0.930 . S
C811 C806 1.390 . S
C811 C810 1.362 . S
C812 C801 1.492 . S
C812 C813 1.377 . S
C812 C817 1.397 . S
C813 H776 0.931 . S
C813 C812 1.377 . S
C813 C814 1.376 . S
C814 H777 0.930 . S
C814 C813 1.376 . S
C814 C815 1.376 . S
C815 C814 1.376 . S
C815 C816 1.378 . S
C815 C842 1.486 . S
C816 H778 0.930 . S
C816 C815 1.378 . S
C816 C817 1.376 . S
C817 H779 0.929 . S
C817 C812 1.397 . S
C817 C816 1.376 . S
C818 C802 1.509 . S
C818 C819 1.391 . S
C818 C823 1.386 . S
C819 H780 0.930 . S
C819 C818 1.391 . S
C819 C820 1.375 . S
C820 H781 0.931 . S
C820 C819 1.375 . S
C820 C821 1.375 . S
C821 C820 1.375 . S
C821 C822 1.361 . S
C822 H782 0.930 . S
C822 C821 1.361 . S
C822 C823 1.399 . S
C823 H783 0.929 . S
C823 C818 1.386 . S
C823 C822 1.399 . S
C824 C803 1.485 . S
C824 C825 1.394 . S
C824 C829 1.360 . S
C825 H784 0.931 . S
C825 C824 1.394 . S
C825 C826 1.372 . S
C826 H785 0.930 . S
C826 C825 1.372 . S
C826 C827 1.397 . S
C827 C826 1.397 . S
C827 C828 1.390 . S
C827 C843 1.476 . S
C828 H786 0.930 . S
C828 C827 1.390 . S
C828 C829 1.366 . S
C829 H787 0.932 . S
C829 C824 1.360 . S
C829 C828 1.366 . S
C830 C804 1.490 . S
C830 C831 1.380 . S
C830 C835 1.386 . S
C831 H788 0.930 . S
C831 C830 1.380 . S
C831 C832 1.381 . S
C832 H789 0.929 . S
C832 C831 1.381 . S
C832 C833 1.371 . S
C833 C832 1.371 . S
C833 C834 1.380 . S
C834 H790 0.931 . S
C834 C833 1.380 . S
C834 C835 1.387 . S
C835 H791 0.930 . S
C835 C830 1.386 . S
C835 C834 1.387 . S
C836 C805 1.519 . S
C836 C837 1.377 . S
C836 C841 1.361 . S
C837 H792 0.929 . S
C837 C836 1.377 . S
C837 C838 1.386 . S
C838 H793 0.931 . S
C838 C837 1.386 . S
C838 C839 1.363 . S
C839 C838 1.363 . S
C839 C840 1.385 . S
C840 H794 0.930 . S
C840 C839 1.385 . S
C840 C841 1.396 . S
C841 H795 0.929 . S
C841 C836 1.361 . S
C841 C840 1.396 . S
C842 O796 1.300 . S
C842 O797 1.209 . S
C842 C815 1.486 . S
C843 O798 1.199 . S
C843 O799 1.297 . S
C843 C827 1.476 . S
H844 O870 0.856 . S
H845 O873 0.854 . S
H846 C881 0.930 . S
H847 C882 0.930 . S
H848 C884 0.930 . S
H849 C885 0.930 . S
H850 C887 0.931 . S
H851 C888 0.930 . S
H852 C890 0.930 . S
H853 C891 0.929 . S
H854 C893 0.930 . S
H855 C894 0.931 . S
H856 C896 0.930 . S
H857 C897 0.929 . S
H858 C899 0.931 . S
H859 C900 0.930 . S
H860 C902 0.930 . S
H861 C903 0.932 . S
H862 C905 0.930 . S
H863 C906 0.929 . S
H864 C908 0.931 . S
H865 C909 0.930 . S
H866 C911 0.929 . S
H867 C912 0.931 . S
H868 C914 0.930 . S
H869 C915 0.929 . S
O870 H844 0.856 . S
O870 C916 1.300 . S
O871 C916 1.209 . S
O872 C917 1.199 . S
O873 H845 0.854 . S
O873 C917 1.297 . S
C874 C875 1.404 . S
C874 C879 1.397 . S
C874 C880 1.492 . S
C875 C874 1.404 . S
C875 C876 1.396 . S
C875 C886 1.492 . S
C876 C875 1.396 . S
C876 C877 1.397 . S
C876 C892 1.509 . S
C877 C876 1.397 . S
C877 C878 1.412 . S
C877 C898 1.485 . S
C878 C877 1.412 . S
C878 C879 1.388 . S
C878 C904 1.490 . S
C879 C874 1.397 . S
C879 C878 1.388 . S
C879 C910 1.519 . S
C880 C874 1.492 . S
C880 C881 1.363 . S
C880 C885 1.390 . S
C881 H846 0.930 . S
C881 C880 1.363 . S
C881 C882 1.372 . S
C882 H847 0.930 . S
C882 C881 1.372 . S
C882 C883 1.383 . S
C883 C882 1.383 . S
C883 C884 1.395 . S
C884 H848 0.930 . S
C884 C883 1.395 . S
C884 C885 1.362 . S
C885 H849 0.930 . S
C885 C880 1.390 . S
C885 C884 1.362 . S
C886 C875 1.492 . S
C886 C887 1.377 . S
C886 C891 1.397 . S
C887 H850 0.931 . S
C887 C886 1.377 . S
C887 C888 1.376 . S
C888 H851 0.930 . S
C888 C887 1.376 . S
C888 C889 1.376 . S
C889 C888 1.376 . S
C889 C890 1.378 . S
C889 C916 1.486 . S
C890 H852 0.930 . S
C890 C889 1.378 . S
C890 C891 1.376 . S
C891 H853 0.929 . S
C891 C886 1.397 . S
C891 C890 1.376 . S
C892 C876 1.509 . S
C892 C893 1.391 . S
C892 C897 1.386 . S
C893 H854 0.930 . S
C893 C892 1.391 . S
C893 C894 1.375 . S
C894 H855 0.931 . S
C894 C893 1.375 . S
C894 C895 1.375 . S
C895 C894 1.375 . S
C895 C896 1.361 . S
C896 H856 0.930 . S
C896 C895 1.361 . S
C896 C897 1.399 . S
C897 H857 0.929 . S
C897 C892 1.386 . S
C897 C896 1.399 . S
C898 C877 1.485 . S
C898 C899 1.394 . S
C898 C903 1.360 . S
C899 H858 0.931 . S
C899 C898 1.394 . S
C899 C900 1.372 . S
C900 H859 0.930 . S
C900 C899 1.372 . S
C900 C901 1.397 . S
C901 C900 1.397 . S
C901 C902 1.390 . S
C901 C917 1.476 . S
C902 H860 0.930 . S
C902 C901 1.390 . S
C902 C903 1.366 . S
C903 H861 0.932 . S
C903 C898 1.360 . S
C903 C902 1.366 . S
C904 C878 1.490 . S
C904 C905 1.380 . S
C904 C909 1.386 . S
C905 H862 0.930 . S
C905 C904 1.380 . S
C905 C906 1.381 . S
C906 H863 0.929 . S
C906 C905 1.381 . S
C906 C907 1.371 . S
C907 C906 1.371 . S
C907 C908 1.380 . S
C908 H864 0.931 . S
C908 C907 1.380 . S
C908 C909 1.387 . S
C909 H865 0.930 . S
C909 C904 1.386 . S
C909 C908 1.387 . S
C910 C879 1.519 . S
C910 C911 1.377 . S
C910 C915 1.361 . S
C911 H866 0.929 . S
C911 C910 1.377 . S
C911 C912 1.386 . S
C912 H867 0.931 . S
C912 C911 1.386 . S
C912 C913 1.363 . S
C913 C912 1.363 . S
C913 C914 1.385 . S
C914 H868 0.930 . S
C914 C913 1.385 . S
C914 C915 1.396 . S
C915 H869 0.929 . S
C915 C910 1.361 . S
C915 C914 1.396 . S
C916 O870 1.300 . S
C916 O871 1.209 . S
C916 C889 1.486 . S
C917 O872 1.199 . S
C917 O873 1.297 . S
C917 C901 1.476 . S
H918 O944 0.856 . S
H919 O947 0.854 . S
H920 C955 0.930 . S
H921 C956 0.930 . S
H922 C958 0.930 . S
H923 C959 0.930 . S
H924 C961 0.931 . S
H925 C962 0.930 1_655 S
H926 C964 0.930 . S
H927 C965 0.929 . S
H928 C967 0.930 . S
H929 C968 0.931 1_655 S
H930 C970 0.930 . S
H931 C971 0.929 . S
H932 C973 0.931 . S
H933 C974 0.930 . S
H934 C976 0.930 . S
H935 C977 0.932 . S
H936 C979 0.930 . S
H937 C980 0.929 . S
H938 C982 0.931 . S
H939 C983 0.930 . S
H940 C985 0.929 . S
H941 C986 0.931 . S
H942 C988 0.930 . S
H943 C989 0.929 . S
O944 H918 0.856 . S
O944 C990 1.300 . S
O945 C990 1.209 . S
O946 C991 1.199 1_655 S
O947 H919 0.854 . S
O947 C991 1.297 . S
C948 C949 1.404 . S
C948 C953 1.393 . S
C948 C954 1.492 . S
C949 C948 1.404 . S
C949 C950 1.396 . S
C949 C960 1.492 . S
C950 C949 1.396 . S
C950 C951 1.397 . S
C950 C966 1.509 . S
C951 C950 1.397 . S
C951 C952 1.428 . S
C951 C972 1.485 . S
C952 C951 1.428 . S
C952 C953 1.401 . S
C952 C978 1.491 1_455 S
C953 C948 1.393 . S
C953 C952 1.401 . S
C953 C984 1.483 1_455 S
C954 C948 1.492 . S
C954 C955 1.363 1_455 S
C954 C959 1.390 . S
C955 H920 0.930 . S
C955 C954 1.363 1_655 S
C955 C956 1.372 . S
C956 H921 0.930 . S
C956 C955 1.372 . S
C956 C957 1.383 . S
C957 C956 1.383 . S
C957 C958 1.395 1_655 S
C958 H922 0.930 . S
C958 C957 1.395 1_455 S
C958 C959 1.362 . S
C959 H923 0.930 . S
C959 C954 1.390 . S
C959 C958 1.362 . S
C960 C949 1.492 . S
C960 C961 1.377 1_455 S
C960 C965 1.397 . S
C961 H924 0.931 . S
C961 C960 1.377 1_655 S
C961 C962 1.376 1_655 S
C962 H925 0.930 1_455 S
C962 C961 1.376 1_455 S
C962 C963 1.376 . S
C963 C962 1.376 . S
C963 C964 1.378 . S
C963 C990 1.486 . S
C964 H926 0.930 . S
C964 C963 1.378 . S
C964 C965 1.376 . S
C965 H927 0.929 . S
C965 C960 1.397 . S
C965 C964 1.376 . S
C966 C950 1.509 . S
C966 C967 1.391 1_455 S
C966 C971 1.386 . S
C967 H928 0.930 . S
C967 C966 1.391 1_655 S
C967 C968 1.375 1_655 S
C968 H929 0.931 1_455 S
C968 C967 1.375 1_455 S
C968 C969 1.375 . S
C969 C968 1.375 . S
C969 C970 1.361 . S
C970 H930 0.930 . S
C970 C969 1.361 . S
C970 C971 1.399 . S
C971 H931 0.929 . S
C971 C966 1.386 . S
C971 C970 1.399 . S
C972 C951 1.485 . S
C972 C973 1.394 1_455 S
C972 C977 1.360 . S
C973 H932 0.931 . S
C973 C972 1.394 1_655 S
C973 C974 1.372 . S
C974 H933 0.930 . S
C974 C973 1.372 . S
C974 C975 1.397 1_655 S
C975 C974 1.397 1_455 S
C975 C976 1.390 . S
C975 C991 1.476 . S
C976 H934 0.930 . S
C976 C975 1.390 . S
C976 C977 1.366 . S
C977 H935 0.932 . S
C977 C972 1.360 . S
C977 C976 1.366 . S
C978 C952 1.491 1_655 S
C978 C979 1.380 . S
C978 C983 1.386 1_655 S
C979 H936 0.930 . S
C979 C978 1.380 . S
C979 C980 1.381 . S
C980 H937 0.929 . S
C980 C979 1.381 . S
C980 C981 1.371 . S
C981 C980 1.371 . S
C981 C982 1.380 1_655 S
C982 H938 0.931 . S
C982 C981 1.380 1_455 S
C982 C983 1.387 . S
C983 H939 0.930 . S
C983 C978 1.386 1_455 S
C983 C982 1.387 . S
C984 C953 1.483 1_655 S
C984 C985 1.419 . S
C984 C989 1.334 1_655 S
C985 H940 0.929 . S
C985 C984 1.419 . S
C985 C986 1.386 . S
C986 H941 0.931 . S
C986 C985 1.386 . S
C986 C987 1.399 . S
C987 C986 1.399 . S
C987 C988 1.330 1_655 S
C988 H942 0.930 . S
C988 C987 1.330 1_455 S
C988 C989 1.396 . S
C989 H943 0.929 . S
C989 C984 1.334 1_455 S
C989 C988 1.396 . S
C990 O944 1.300 . S
C990 O945 1.209 . S
C990 C963 1.486 . S
C991 O946 1.199 1_455 S
C991 O947 1.297 . S
C991 C975 1.476 . S
H992 O1018 0.856 . S
H993 O1021 0.854 . S
H994 C1029 0.930 . S
H995 C1030 0.930 . S
H996 C1032 0.930 . S
H997 C1033 0.930 . S
H998 C1035 0.931 . S
H999 C1036 0.930 . S
H1000 C1038 0.930 . S
H1001 C1039 0.929 . S
H1002 C1041 0.930 . S
H1003 C1042 0.931 . S
H1004 C1044 0.930 . S
H1005 C1045 0.929 . S
H1006 C1047 0.931 . S
H1007 C1048 0.930 . S
H1008 C1050 0.930 . S
H1009 C1051 0.932 . S
H1010 C1053 0.930 . S
H1011 C1054 0.929 . S
H1012 C1056 0.931 . S
H1013 C1057 0.930 . S
H1014 C1059 0.929 . S
H1015 C1060 0.931 . S
H1016 C1062 0.930 . S
H1017 C1063 0.929 . S
O1018 H992 0.856 . S
O1018 C1064 1.300 . S
O1019 C1064 1.209 . S
O1020 C1065 1.199 . S
O1021 H993 0.854 . S
O1021 C1065 1.297 . S
C1022 C1023 1.404 . S
C1022 C1027 1.397 . S
C1022 C1028 1.492 . S
C1023 C1022 1.404 . S
C1023 C1024 1.396 . S
C1023 C1034 1.492 . S
C1024 C1023 1.396 . S
C1024 C1025 1.397 . S
C1024 C1040 1.509 . S
C1025 C1024 1.397 . S
C1025 C1026 1.412 . S
C1025 C1046 1.485 . S
C1026 C1025 1.412 . S
C1026 C1027 1.388 . S
C1026 C1052 1.490 . S
C1027 C1022 1.397 . S
C1027 C1026 1.388 . S
C1027 C1058 1.519 . S
C1028 C1022 1.492 . S
C1028 C1029 1.363 . S
C1028 C1033 1.390 . S
C1029 H994 0.930 . S
C1029 C1028 1.363 . S
C1029 C1030 1.372 . S
C1030 H995 0.930 . S
C1030 C1029 1.372 . S
C1030 C1031 1.383 . S
C1031 C1030 1.383 . S
C1031 C1032 1.395 . S
C1032 H996 0.930 . S
C1032 C1031 1.395 . S
C1032 C1033 1.362 . S
C1033 H997 0.930 . S
C1033 C1028 1.390 . S
C1033 C1032 1.362 . S
C1034 C1023 1.492 . S
C1034 C1035 1.377 . S
C1034 C1039 1.397 . S
C1035 H998 0.931 . S
C1035 C1034 1.377 . S
C1035 C1036 1.376 . S
C1036 H999 0.930 . S
C1036 C1035 1.376 . S
C1036 C1037 1.376 . S
C1037 C1036 1.376 . S
C1037 C1038 1.378 . S
C1037 C1064 1.486 . S
C1038 H1000 0.930 . S
C1038 C1037 1.378 . S
C1038 C1039 1.376 . S
C1039 H1001 0.929 . S
C1039 C1034 1.397 . S
C1039 C1038 1.376 . S
C1040 C1024 1.509 . S
C1040 C1041 1.391 . S
C1040 C1045 1.386 . S
C1041 H1002 0.930 . S
C1041 C1040 1.391 . S
C1041 C1042 1.375 . S
C1042 H1003 0.931 . S
C1042 C1041 1.375 . S
C1042 C1043 1.375 . S
C1043 C1042 1.375 . S
C1043 C1044 1.361 . S
C1044 H1004 0.930 . S
C1044 C1043 1.361 . S
C1044 C1045 1.399 . S
C1045 H1005 0.929 . S
C1045 C1040 1.386 . S
C1045 C1044 1.399 . S
C1046 C1025 1.485 . S
C1046 C1047 1.394 . S
C1046 C1051 1.360 . S
C1047 H1006 0.931 . S
C1047 C1046 1.394 . S
C1047 C1048 1.372 . S
C1048 H1007 0.930 . S
C1048 C1047 1.372 . S
C1048 C1049 1.397 . S
C1049 C1048 1.397 . S
C1049 C1050 1.390 . S
C1049 C1065 1.476 . S
C1050 H1008 0.930 . S
C1050 C1049 1.390 . S
C1050 C1051 1.366 . S
C1051 H1009 0.932 . S
C1051 C1046 1.360 . S
C1051 C1050 1.366 . S
C1052 C1026 1.490 . S
C1052 C1053 1.380 . S
C1052 C1057 1.386 . S
C1053 H1010 0.930 . S
C1053 C1052 1.380 . S
C1053 C1054 1.381 . S
C1054 H1011 0.929 . S
C1054 C1053 1.381 . S
C1054 C1055 1.371 . S
C1055 C1054 1.371 . S
C1055 C1056 1.380 . S
C1056 H1012 0.931 . S
C1056 C1055 1.380 . S
C1056 C1057 1.387 . S
C1057 H1013 0.930 . S
C1057 C1052 1.386 . S
C1057 C1056 1.387 . S
C1058 C1027 1.519 . S
C1058 C1059 1.377 . S
C1058 C1063 1.361 . S
C1059 H1014 0.929 . S
C1059 C1058 1.377 . S
C1059 C1060 1.386 . S
C1060 H1015 0.931 . S
C1060 C1059 1.386 . S
C1060 C1061 1.363 . S
C1061 C1060 1.363 . S
C1061 C1062 1.385 . S
C1062 H1016 0.930 . S
C1062 C1061 1.385 . S
C1062 C1063 1.396 . S
C1063 H1017 0.929 . S
C1063 C1058 1.361 . S
C1063 C1062 1.396 . S
C1064 O1018 1.300 . S
C1064 O1019 1.209 . S
C1064 C1037 1.486 . S
C1065 O1020 1.199 . S
C1065 O1021 1.297 . S
C1065 C1049 1.476 . S
H1066 O1092 0.856 . S
H1067 O1095 0.854 . S
H1068 C1103 0.930 . S
H1069 C1104 0.930 . S
H1070 C1106 0.930 . S
H1071 C1107 0.930 . S
H1072 C1109 0.931 . S
H1073 C1110 0.938 . S
H1074 C1112 0.930 . S
H1075 C1113 0.929 . S
H1076 C1115 0.930 . S
H1077 C1116 0.931 . S
H1078 C1118 0.930 . S
H1079 C1119 0.929 . S
H1080 C1121 0.931 . S
H1081 C1122 0.930 . S
H1082 C1124 0.930 . S
H1083 C1125 0.932 . S
H1084 C1127 0.930 . S
H1085 C1128 0.929 . S
H1086 C1130 0.931 . S
H1087 C1131 0.930 . S
H1088 C1133 0.929 . S
H1089 C1134 0.931 . S
H1090 C1136 0.930 . S
H1091 C1137 0.929 . S
O1092 H1066 0.856 . S
O1092 C1138 1.300 . S
O1093 C1138 1.209 . S
O1094 C1139 1.199 1_545 S
O1095 H1067 0.854 . S
O1095 C1139 1.297 . S
C1096 C1097 1.404 . S
C1096 C1101 1.413 . S
C1096 C1102 1.492 . S
C1097 C1096 1.404 . S
C1097 C1098 1.396 . S
C1097 C1108 1.492 . S
C1098 C1097 1.396 . S
C1098 C1099 1.397 . S
C1098 C1114 1.509 . S
C1099 C1098 1.397 . S
C1099 C1100 1.412 1_565 S
C1099 C1120 1.485 . S
C1100 C1099 1.412 1_545 S
C1100 C1101 1.362 1_545 S
C1100 C1126 1.491 . S
C1101 C1096 1.413 . S
C1101 C1100 1.362 1_565 S
C1101 C1132 1.535 . S
C1102 C1096 1.492 . S
C1102 C1103 1.363 1_565 S
C1102 C1107 1.390 . S
C1103 H1068 0.930 . S
C1103 C1102 1.363 1_545 S
C1103 C1104 1.372 . S
C1104 H1069 0.930 . S
C1104 C1103 1.372 . S
C1104 C1105 1.449 . S
C1105 C1104 1.449 . S
C1105 C1106 1.362 1_545 S
C1106 H1070 0.930 . S
C1106 C1105 1.362 1_565 S
C1106 C1107 1.362 . S
C1107 H1071 0.930 . S
C1107 C1102 1.390 . S
C1107 C1106 1.362 . S
C1108 C1097 1.492 . S
C1108 C1109 1.377 1_565 S
C1108 C1113 1.397 . S
C1109 H1072 0.931 . S
C1109 C1108 1.377 1_545 S
C1109 C1110 1.380 . S
C1110 H1073 0.938 . S
C1110 C1109 1.380 . S
C1110 C1111 1.364 1_545 S
C1111 C1110 1.364 1_565 S
C1111 C1112 1.378 . S
C1111 C1138 1.486 . S
C1112 H1074 0.930 . S
C1112 C1111 1.378 . S
C1112 C1113 1.376 . S
C1113 H1075 0.929 . S
C1113 C1108 1.397 . S
C1113 C1112 1.376 . S
C1114 C1098 1.509 . S
C1114 C1115 1.391 1_565 S
C1114 C1119 1.386 . S
C1115 H1076 0.930 . S
C1115 C1114 1.391 1_545 S
C1115 C1116 1.375 . S
C1116 H1077 0.931 . S
C1116 C1115 1.375 . S
C1116 C1117 1.375 1_545 S
C1117 C1116 1.375 1_565 S
C1117 C1118 1.361 . S
C1118 H1078 0.930 . S
C1118 C1117 1.361 . S
C1118 C1119 1.399 . S
C1119 H1079 0.929 . S
C1119 C1114 1.386 . S
C1119 C1118 1.399 . S
C1120 C1099 1.485 . S
C1120 C1121 1.394 1_565 S
C1120 C1125 1.360 . S
C1121 H1080 0.931 . S
C1121 C1120 1.394 1_545 S
C1121 C1122 1.372 . S
C1122 H1081 0.930 . S
C1122 C1121 1.372 . S
C1122 C1123 1.397 1_545 S
C1123 C1122 1.397 1_565 S
C1123 C1124 1.390 . S
C1123 C1139 1.476 . S
C1124 H1082 0.930 . S
C1124 C1123 1.390 . S
C1124 C1125 1.366 . S
C1125 H1083 0.932 . S
C1125 C1120 1.360 . S
C1125 C1124 1.366 . S
C1126 C1100 1.491 . S
C1126 C1127 1.380 . S
C1126 C1131 1.386 1_545 S
C1127 H1084 0.930 . S
C1127 C1126 1.380 . S
C1127 C1128 1.381 . S
C1128 H1085 0.929 . S
C1128 C1127 1.381 . S
C1128 C1129 1.371 . S
C1129 C1128 1.371 . S
C1129 C1130 1.380 1_545 S
C1130 H1086 0.931 . S
C1130 C1129 1.380 1_565 S
C1130 C1131 1.387 . S
C1131 H1087 0.930 . S
C1131 C1126 1.386 1_565 S
C1131 C1130 1.387 . S
C1132 C1101 1.535 . S
C1132 C1133 1.378 1_565 S
C1132 C1137 1.358 . S
C1133 H1088 0.929 . S
C1133 C1132 1.378 1_545 S
C1133 C1134 1.386 . S
C1134 H1089 0.931 . S
C1134 C1133 1.386 . S
C1134 C1135 1.363 1_545 S
C1135 C1134 1.363 1_565 S
C1135 C1136 1.385 . S
C1136 H1090 0.930 . S
C1136 C1135 1.385 . S
C1136 C1137 1.396 . S
C1137 H1091 0.929 . S
C1137 C1132 1.358 . S
C1137 C1136 1.396 . S
C1138 O1092 1.300 . S
C1138 O1093 1.209 . S
C1138 C1111 1.486 . S
C1139 O1094 1.199 1_565 S
C1139 O1095 1.297 . S
C1139 C1123 1.476 . S
H1140 O1166 0.856 . S
H1141 O1169 0.854 . S
H1142 C1177 0.930 . S
H1143 C1178 0.930 . S
H1144 C1180 0.930 . S
H1145 C1181 0.930 . S
H1146 C1183 0.931 . S
H1147 C1184 0.930 . S
H1148 C1186 0.930 . S
H1149 C1187 0.929 . S
H1150 C1189 0.930 . S
H1151 C1190 0.931 . S
H1152 C1192 0.930 . S
H1153 C1193 0.929 . S
H1154 C1195 0.931 . S
H1155 C1196 0.930 . S
H1156 C1198 0.930 . S
H1157 C1199 0.932 . S
H1158 C1201 0.930 . S
H1159 C1202 0.929 . S
H1160 C1204 0.931 . S
H1161 C1205 0.930 . S
H1162 C1207 0.929 . S
H1163 C1208 0.931 . S
H1164 C1210 0.930 . S
H1165 C1211 0.929 . S
O1166 H1140 0.856 . S
O1166 C1212 1.300 . S
O1167 C1212 1.209 1_565 S
O1168 C1213 1.199 1_545 S
O1169 H1141 0.854 . S
O1169 C1213 1.297 . S
C1170 C1171 1.404 . S
C1170 C1175 1.396 1_545 S
C1170 C1176 1.492 . S
C1171 C1170 1.404 . S
C1171 C1172 1.413 . S
C1171 C1182 1.492 . S
C1172 C1171 1.413 . S
C1172 C1173 1.376 1_545 S
C1172 C1188 1.499 . S
C1173 C1172 1.376 1_565 S
C1173 C1174 1.412 . S
C1173 C1194 1.525 . S
C1174 C1173 1.412 . S
C1174 C1175 1.354 . S
C1174 C1200 1.505 . S
C1175 C1170 1.396 1_565 S
C1175 C1174 1.354 . S
C1175 C1206 1.518 . S
C1176 C1170 1.492 . S
C1176 C1177 1.363 . S
C1176 C1181 1.390 1_545 S
C1177 H1142 0.930 . S
C1177 C1176 1.363 . S
C1177 C1178 1.372 . S
C1178 H1143 0.930 . S
C1178 C1177 1.372 . S
C1178 C1179 1.383 . S
C1179 C1178 1.383 . S
C1179 C1180 1.395 1_545 S
C1180 H1144 0.930 . S
C1180 C1179 1.395 1_565 S
C1180 C1181 1.362 . S
C1181 H1145 0.930 . S
C1181 C1176 1.390 1_565 S
C1181 C1180 1.362 . S
C1182 C1171 1.492 . S
C1182 C1183 1.377 . S
C1182 C1187 1.397 1_545 S
C1183 H1146 0.931 . S
C1183 C1182 1.377 . S
C1183 C1184 1.376 . S
C1184 H1147 0.930 . S
C1184 C1183 1.376 . S
C1184 C1185 1.376 . S
C1185 C1184 1.376 . S
C1185 C1186 1.378 1_545 S
C1185 C1212 1.486 . S
C1186 H1148 0.930 . S
C1186 C1185 1.378 1_565 S
C1186 C1187 1.376 . S
C1187 H1149 0.929 . S
C1187 C1182 1.397 1_565 S
C1187 C1186 1.376 . S
C1188 C1172 1.499 . S
C1188 C1189 1.392 . S
C1188 C1193 1.386 1_545 S
C1189 H1150 0.930 . S
C1189 C1188 1.392 . S
C1189 C1190 1.375 . S
C1190 H1151 0.931 . S
C1190 C1189 1.375 . S
C1190 C1191 1.343 1_545 S
C1191 C1190 1.343 1_565 S
C1191 C1192 1.380 . S
C1192 H1152 0.930 . S
C1192 C1191 1.380 . S
C1192 C1193 1.399 . S
C1193 H1153 0.929 . S
C1193 C1188 1.386 1_565 S
C1193 C1192 1.399 . S
C1194 C1173 1.525 . S
C1194 C1195 1.394 1_565 S
C1194 C1199 1.360 . S
C1195 H1154 0.931 . S
C1195 C1194 1.394 1_545 S
C1195 C1196 1.372 . S
C1196 H1155 0.930 . S
C1196 C1195 1.372 . S
C1196 C1197 1.397 1_545 S
C1197 C1196 1.397 1_565 S
C1197 C1198 1.390 . S
C1197 C1213 1.476 . S
C1198 H1156 0.930 . S
C1198 C1197 1.390 . S
C1198 C1199 1.366 . S
C1199 H1157 0.932 . S
C1199 C1194 1.360 . S
C1199 C1198 1.366 . S
C1200 C1174 1.505 . S
C1200 C1201 1.380 1_565 S
C1200 C1205 1.386 . S
C1201 H1158 0.930 . S
C1201 C1200 1.380 1_545 S
C1201 C1202 1.381 . S
C1202 H1159 0.929 . S
C1202 C1201 1.381 . S
C1202 C1203 1.356 1_545 S
C1203 C1202 1.356 1_565 S
C1203 C1204 1.392 . S
C1204 H1160 0.931 . S
C1204 C1203 1.392 . S
C1204 C1205 1.387 . S
C1205 H1161 0.930 . S
C1205 C1200 1.386 . S
C1205 C1204 1.387 . S
C1206 C1175 1.518 . S
C1206 C1207 1.377 1_565 S
C1206 C1211 1.361 . S
C1207 H1162 0.929 . S
C1207 C1206 1.377 1_545 S
C1207 C1208 1.386 . S
C1208 H1163 0.931 . S
C1208 C1207 1.386 . S
C1208 C1209 1.363 1_545 S
C1209 C1208 1.363 1_565 S
C1209 C1210 1.385 . S
C1210 H1164 0.930 . S
C1210 C1209 1.385 . S
C1210 C1211 1.396 . S
C1211 H1165 0.929 . S
C1211 C1206 1.361 . S
C1211 C1210 1.396 . S
C1212 O1166 1.300 . S
C1212 O1167 1.209 1_545 S
C1212 C1185 1.486 . S
C1213 O1168 1.199 1_565 S
C1213 O1169 1.297 . S
C1213 C1197 1.476 . S
H1214 O1240 0.856 . S
H1215 O1243 0.854 . S
H1216 C1251 0.930 . S
H1217 C1252 0.930 . S
H1218 C1254 0.930 . S
H1219 C1255 0.930 . S
H1220 C1257 0.931 . S
H1221 C1258 0.930 . S
H1222 C1260 0.930 . S
H1223 C1261 0.929 . S
H1224 C1263 0.930 . S
H1225 C1264 0.931 . S
H1226 C1266 0.930 . S
H1227 C1267 0.929 . S
H1228 C1269 0.931 . S
H1229 C1270 0.930 . S
H1230 C1272 0.930 . S
H1231 C1273 0.932 . S
H1232 C1275 0.930 . S
H1233 C1276 0.929 . S
H1234 C1278 0.931 . S
H1235 C1279 0.930 . S
H1236 C1281 0.929 . S
H1237 C1282 0.931 . S
H1238 C1284 0.930 . S
H1239 C1285 0.929 . S
O1240 H1214 0.856 . S
O1240 C1286 1.300 . S
O1241 C1286 1.209 1_455 S
O1242 C1287 1.199 1_655 S
O1243 H1215 0.854 . S
O1243 C1287 1.297 . S
C1244 C1245 1.404 . S
C1244 C1249 1.398 . S
C1244 C1250 1.492 . S
C1245 C1244 1.404 . S
C1245 C1246 1.396 . S
C1245 C1256 1.492 . S
C1246 C1245 1.396 . S
C1246 C1247 1.395 . S
C1246 C1262 1.509 . S
C1247 C1246 1.395 . S
C1247 C1248 1.392 1_655 S
C1247 C1268 1.524 1_655 S
C1248 C1247 1.392 1_455 S
C1248 C1249 1.403 1_455 S
C1248 C1274 1.486 . S
C1249 C1244 1.398 . S
C1249 C1248 1.403 1_655 S
C1249 C1280 1.522 1_655 S
C1250 C1244 1.492 . S
C1250 C1251 1.363 . S
C1250 C1255 1.390 1_655 S
C1251 H1216 0.930 . S
C1251 C1250 1.363 . S
C1251 C1252 1.372 . S
C1252 H1217 0.930 . S
C1252 C1251 1.372 . S
C1252 C1253 1.383 . S
C1253 C1252 1.383 . S
C1253 C1254 1.395 1_655 S
C1254 H1218 0.930 . S
C1254 C1253 1.395 1_455 S
C1254 C1255 1.362 . S
C1255 H1219 0.930 . S
C1255 C1250 1.390 1_455 S
C1255 C1254 1.362 . S
C1256 C1245 1.492 . S
C1256 C1257 1.377 . S
C1256 C1261 1.397 1_655 S
C1257 H1220 0.931 . S
C1257 C1256 1.377 . S
C1257 C1258 1.376 . S
C1258 H1221 0.930 . S
C1258 C1257 1.376 . S
C1258 C1259 1.376 . S
C1259 C1258 1.376 . S
C1259 C1260 1.378 1_655 S
C1259 C1286 1.486 . S
C1260 H1222 0.930 . S
C1260 C1259 1.378 1_455 S
C1260 C1261 1.376 . S
C1261 H1223 0.929 . S
C1261 C1256 1.397 1_455 S
C1261 C1260 1.376 . S
C1262 C1246 1.509 . S
C1262 C1263 1.391 . S
C1262 C1267 1.386 1_655 S
C1263 H1224 0.930 . S
C1263 C1262 1.391 . S
C1263 C1264 1.375 . S
C1264 H1225 0.931 . S
C1264 C1263 1.375 . S
C1264 C1265 1.375 . S
C1265 C1264 1.375 . S
C1265 C1266 1.361 1_655 S
C1266 H1226 0.930 . S
C1266 C1265 1.361 1_455 S
C1266 C1267 1.399 . S
C1267 H1227 0.929 . S
C1267 C1262 1.386 1_455 S
C1267 C1266 1.399 . S
C1268 C1247 1.524 1_455 S
C1268 C1269 1.347 1_455 S
C1268 C1273 1.380 . S
C1269 H1228 0.931 . S
C1269 C1268 1.347 1_655 S
C1269 C1270 1.372 . S
C1270 H1229 0.930 . S
C1270 C1269 1.372 . S
C1270 C1271 1.397 1_655 S
C1271 C1270 1.397 1_455 S
C1271 C1272 1.390 . S
C1271 C1287 1.476 . S
C1272 H1230 0.930 . S
C1272 C1271 1.390 . S
C1272 C1273 1.366 . S
C1273 H1231 0.932 . S
C1273 C1268 1.380 . S
C1273 C1272 1.366 . S
C1274 C1248 1.486 . S
C1274 C1275 1.380 1_455 S
C1274 C1279 1.386 . S
C1275 H1232 0.930 . S
C1275 C1274 1.380 1_655 S
C1275 C1276 1.381 . S
C1276 H1233 0.929 . S
C1276 C1275 1.381 . S
C1276 C1277 1.371 1_655 S
C1277 C1276 1.371 1_455 S
C1277 C1278 1.380 . S
C1278 H1234 0.931 . S
C1278 C1277 1.380 . S
C1278 C1279 1.387 . S
C1279 H1235 0.930 . S
C1279 C1274 1.386 . S
C1279 C1278 1.387 . S
C1280 C1249 1.522 1_455 S
C1280 C1281 1.377 1_455 S
C1280 C1285 1.361 . S
C1281 H1236 0.929 . S
C1281 C1280 1.377 1_655 S
C1281 C1282 1.386 . S
C1282 H1237 0.931 . S
C1282 C1281 1.386 . S
C1282 C1283 1.363 1_655 S
C1283 C1282 1.363 1_455 S
C1283 C1284 1.385 . S
C1284 H1238 0.930 . S
C1284 C1283 1.385 . S
C1284 C1285 1.396 . S
C1285 H1239 0.929 . S
C1285 C1280 1.361 . S
C1285 C1284 1.396 . S
C1286 O1240 1.300 . S
C1286 O1241 1.209 1_655 S
C1286 C1259 1.486 . S
C1287 O1242 1.199 1_455 S
C1287 O1243 1.297 . S
C1287 C1271 1.476 . S
H1288 O1314 0.856 . S
H1289 O1317 0.854 . S
H1290 C1325 0.930 . S
H1291 C1326 0.930 . S
H1292 C1328 0.930 . S
H1293 C1329 0.930 . S
H1294 C1331 0.931 . S
H1295 C1332 0.930 . S
H1296 C1334 0.930 . S
H1297 C1335 0.929 . S
H1298 C1337 0.930 . S
H1299 C1338 0.931 . S
H1300 C1340 0.930 . S
H1301 C1341 0.929 . S
H1302 C1343 0.931 . S
H1303 C1344 0.930 . S
H1304 C1346 0.930 . S
H1305 C1347 0.932 . S
H1306 C1349 0.930 . S
H1307 C1350 0.929 . S
H1308 C1352 0.931 . S
H1309 C1353 0.930 . S
H1310 C1355 0.929 . S
H1311 C1356 0.931 . S
H1312 C1358 0.930 . S
H1313 C1359 0.929 . S
O1314 H1288 0.856 . S
O1314 C1360 1.300 . S
O1315 C1360 1.209 . S
O1316 C1361 1.199 . S
O1317 H1289 0.854 . S
O1317 C1361 1.297 . S
C1318 C1319 1.404 . S
C1318 C1323 1.397 . S
C1318 C1324 1.492 . S
C1319 C1318 1.404 . S
C1319 C1320 1.396 . S
C1319 C1330 1.492 . S
C1320 C1319 1.396 . S
C1320 C1321 1.397 . S
C1320 C1336 1.509 . S
C1321 C1320 1.397 . S
C1321 C1322 1.412 . S
C1321 C1342 1.485 . S
C1322 C1321 1.412 . S
C1322 C1323 1.388 . S
C1322 C1348 1.490 . S
C1323 C1318 1.397 . S
C1323 C1322 1.388 . S
C1323 C1354 1.519 . S
C1324 C1318 1.492 . S
C1324 C1325 1.363 . S
C1324 C1329 1.390 . S
C1325 H1290 0.930 . S
C1325 C1324 1.363 . S
C1325 C1326 1.372 . S
C1326 H1291 0.930 . S
C1326 C1325 1.372 . S
C1326 C1327 1.383 . S
C1327 C1326 1.383 . S
C1327 C1328 1.395 . S
C1328 H1292 0.930 . S
C1328 C1327 1.395 . S
C1328 C1329 1.362 . S
C1329 H1293 0.930 . S
C1329 C1324 1.390 . S
C1329 C1328 1.362 . S
C1330 C1319 1.492 . S
C1330 C1331 1.377 . S
C1330 C1335 1.397 . S
C1331 H1294 0.931 . S
C1331 C1330 1.377 . S
C1331 C1332 1.376 . S
C1332 H1295 0.930 . S
C1332 C1331 1.376 . S
C1332 C1333 1.376 . S
C1333 C1332 1.376 . S
C1333 C1334 1.378 . S
C1333 C1360 1.486 . S
C1334 H1296 0.930 . S
C1334 C1333 1.378 . S
C1334 C1335 1.376 . S
C1335 H1297 0.929 . S
C1335 C1330 1.397 . S
C1335 C1334 1.376 . S
C1336 C1320 1.509 . S
C1336 C1337 1.391 . S
C1336 C1341 1.386 . S
C1337 H1298 0.930 . S
C1337 C1336 1.391 . S
C1337 C1338 1.375 . S
C1338 H1299 0.931 . S
C1338 C1337 1.375 . S
C1338 C1339 1.375 . S
C1339 C1338 1.375 . S
C1339 C1340 1.361 . S
C1340 H1300 0.930 . S
C1340 C1339 1.361 . S
C1340 C1341 1.399 . S
C1341 H1301 0.929 . S
C1341 C1336 1.386 . S
C1341 C1340 1.399 . S
C1342 C1321 1.485 . S
C1342 C1343 1.394 . S
C1342 C1347 1.360 . S
C1343 H1302 0.931 . S
C1343 C1342 1.394 . S
C1343 C1344 1.372 . S
C1344 H1303 0.930 . S
C1344 C1343 1.372 . S
C1344 C1345 1.397 . S
C1345 C1344 1.397 . S
C1345 C1346 1.390 . S
C1345 C1361 1.476 . S
C1346 H1304 0.930 . S
C1346 C1345 1.390 . S
C1346 C1347 1.366 . S
C1347 H1305 0.932 . S
C1347 C1342 1.360 . S
C1347 C1346 1.366 . S
C1348 C1322 1.490 . S
C1348 C1349 1.380 . S
C1348 C1353 1.386 . S
C1349 H1306 0.930 . S
C1349 C1348 1.380 . S
C1349 C1350 1.381 . S
C1350 H1307 0.929 . S
C1350 C1349 1.381 . S
C1350 C1351 1.371 . S
C1351 C1350 1.371 . S
C1351 C1352 1.380 . S
C1352 H1308 0.931 . S
C1352 C1351 1.380 . S
C1352 C1353 1.387 . S
C1353 H1309 0.930 . S
C1353 C1348 1.386 . S
C1353 C1352 1.387 . S
C1354 C1323 1.519 . S
C1354 C1355 1.377 . S
C1354 C1359 1.361 . S
C1355 H1310 0.929 . S
C1355 C1354 1.377 . S
C1355 C1356 1.386 . S
C1356 H1311 0.931 . S
C1356 C1355 1.386 . S
C1356 C1357 1.363 . S
C1357 C1356 1.363 . S
C1357 C1358 1.385 . S
C1358 H1312 0.930 . S
C1358 C1357 1.385 . S
C1358 C1359 1.396 . S
C1359 H1313 0.929 . S
C1359 C1354 1.361 . S
C1359 C1358 1.396 . S
C1360 O1314 1.300 . S
C1360 O1315 1.209 . S
C1360 C1333 1.486 . S
C1361 O1316 1.199 . S
C1361 O1317 1.297 . S
C1361 C1345 1.476 . S
H1362 O1388 0.856 . S
H1363 O1391 0.854 . S
H1364 C1399 0.930 . S
H1365 C1400 0.930 . S
H1366 C1402 0.930 . S
H1367 C1403 0.930 . S
H1368 C1405 0.931 . S
H1369 C1406 0.930 . S
H1370 C1408 0.930 . S
H1371 C1409 0.929 . S
H1372 C1411 0.930 . S
H1373 C1412 0.931 . S
H1374 C1414 0.930 . S
H1375 C1415 0.929 . S
H1376 C1417 0.931 . S
H1377 C1418 0.930 . S
H1378 C1420 0.930 . S
H1379 C1421 0.932 . S
H1380 C1423 0.930 . S
H1381 C1424 0.929 . S
H1382 C1426 0.931 . S
H1383 C1427 0.930 . S
H1384 C1429 0.929 . S
H1385 C1430 0.931 . S
H1386 C1432 0.930 . S
H1387 C1433 0.929 . S
O1388 H1362 0.856 . S
O1388 C1434 1.300 . S
O1389 C1434 1.209 . S
O1390 C1435 1.199 . S
O1391 H1363 0.854 . S
O1391 C1435 1.297 . S
C1392 C1393 1.404 . S
C1392 C1397 1.397 . S
C1392 C1398 1.492 . S
C1393 C1392 1.404 . S
C1393 C1394 1.396 . S
C1393 C1404 1.492 . S
C1394 C1393 1.396 . S
C1394 C1395 1.397 . S
C1394 C1410 1.509 . S
C1395 C1394 1.397 . S
C1395 C1396 1.412 . S
C1395 C1416 1.485 . S
C1396 C1395 1.412 . S
C1396 C1397 1.388 . S
C1396 C1422 1.490 . S
C1397 C1392 1.397 . S
C1397 C1396 1.388 . S
C1397 C1428 1.519 . S
C1398 C1392 1.492 . S
C1398 C1399 1.363 . S
C1398 C1403 1.390 . S
C1399 H1364 0.930 . S
C1399 C1398 1.363 . S
C1399 C1400 1.372 . S
C1400 H1365 0.930 . S
C1400 C1399 1.372 . S
C1400 C1401 1.383 . S
C1401 C1400 1.383 . S
C1401 C1402 1.395 . S
C1402 H1366 0.930 . S
C1402 C1401 1.395 . S
C1402 C1403 1.362 . S
C1403 H1367 0.930 . S
C1403 C1398 1.390 . S
C1403 C1402 1.362 . S
C1404 C1393 1.492 . S
C1404 C1405 1.377 . S
C1404 C1409 1.397 . S
C1405 H1368 0.931 . S
C1405 C1404 1.377 . S
C1405 C1406 1.376 . S
C1406 H1369 0.930 . S
C1406 C1405 1.376 . S
C1406 C1407 1.376 . S
C1407 C1406 1.376 . S
C1407 C1408 1.378 . S
C1407 C1434 1.486 . S
C1408 H1370 0.930 . S
C1408 C1407 1.378 . S
C1408 C1409 1.376 . S
C1409 H1371 0.929 . S
C1409 C1404 1.397 . S
C1409 C1408 1.376 . S
C1410 C1394 1.509 . S
C1410 C1411 1.391 . S
C1410 C1415 1.386 . S
C1411 H1372 0.930 . S
C1411 C1410 1.391 . S
C1411 C1412 1.375 . S
C1412 H1373 0.931 . S
C1412 C1411 1.375 . S
C1412 C1413 1.375 . S
C1413 C1412 1.375 . S
C1413 C1414 1.361 . S
C1414 H1374 0.930 . S
C1414 C1413 1.361 . S
C1414 C1415 1.399 . S
C1415 H1375 0.929 . S
C1415 C1410 1.386 . S
C1415 C1414 1.399 . S
C1416 C1395 1.485 . S
C1416 C1417 1.394 . S
C1416 C1421 1.360 . S
C1417 H1376 0.931 . S
C1417 C1416 1.394 . S
C1417 C1418 1.372 . S
C1418 H1377 0.930 . S
C1418 C1417 1.372 . S
C1418 C1419 1.397 . S
C1419 C1418 1.397 . S
C1419 C1420 1.390 . S
C1419 C1435 1.476 . S
C1420 H1378 0.930 . S
C1420 C1419 1.390 . S
C1420 C1421 1.366 . S
C1421 H1379 0.932 . S
C1421 C1416 1.360 . S
C1421 C1420 1.366 . S
C1422 C1396 1.490 . S
C1422 C1423 1.380 . S
C1422 C1427 1.386 . S
C1423 H1380 0.930 . S
C1423 C1422 1.380 . S
C1423 C1424 1.381 . S
C1424 H1381 0.929 . S
C1424 C1423 1.381 . S
C1424 C1425 1.371 . S
C1425 C1424 1.371 . S
C1425 C1426 1.380 . S
C1426 H1382 0.931 . S
C1426 C1425 1.380 . S
C1426 C1427 1.387 . S
C1427 H1383 0.930 . S
C1427 C1422 1.386 . S
C1427 C1426 1.387 . S
C1428 C1397 1.519 . S
C1428 C1429 1.377 . S
C1428 C1433 1.361 . S
C1429 H1384 0.929 . S
C1429 C1428 1.377 . S
C1429 C1430 1.386 . S
C1430 H1385 0.931 . S
C1430 C1429 1.386 . S
C1430 C1431 1.363 . S
C1431 C1430 1.363 . S
C1431 C1432 1.385 . S
C1432 H1386 0.930 . S
C1432 C1431 1.385 . S
C1432 C1433 1.396 . S
C1433 H1387 0.929 . S
C1433 C1428 1.361 . S
C1433 C1432 1.396 . S
C1434 O1388 1.300 . S
C1434 O1389 1.209 . S
C1434 C1407 1.486 . S
C1435 O1390 1.199 . S
C1435 O1391 1.297 . S
C1435 C1419 1.476 . S
H1436 O1462 0.856 . S
H1437 O1465 0.854 . S
H1438 C1473 0.930 . S
H1439 C1474 0.930 . S
H1440 C1476 0.930 . S
H1441 C1477 0.930 . S
H1442 C1479 0.931 . S
H1443 C1480 0.930 . S
H1444 C1482 0.930 . S
H1445 C1483 0.929 . S
H1446 C1485 0.930 . S
H1447 C1486 0.931 . S
H1448 C1488 0.930 . S
H1449 C1489 0.929 . S
H1450 C1491 0.931 . S
H1451 C1492 0.930 . S
H1452 C1494 0.930 . S
H1453 C1495 0.932 . S
H1454 C1497 0.930 . S
H1455 C1498 0.929 . S
H1456 C1500 0.931 . S
H1457 C1501 0.930 . S
H1458 C1503 0.929 . S
H1459 C1504 0.931 . S
H1460 C1506 0.930 . S
H1461 C1507 0.929 . S
O1462 H1436 0.856 . S
O1462 C1508 1.300 . S
O1463 C1508 1.209 . S
O1464 C1509 1.199 . S
O1465 H1437 0.854 . S
O1465 C1509 1.297 . S
C1466 C1467 1.404 . S
C1466 C1471 1.397 . S
C1466 C1472 1.492 . S
C1467 C1466 1.404 . S
C1467 C1468 1.396 . S
C1467 C1478 1.492 . S
C1468 C1467 1.396 . S
C1468 C1469 1.397 . S
C1468 C1484 1.509 . S
C1469 C1468 1.397 . S
C1469 C1470 1.412 . S
C1469 C1490 1.485 . S
C1470 C1469 1.412 . S
C1470 C1471 1.388 . S
C1470 C1496 1.490 . S
C1471 C1466 1.397 . S
C1471 C1470 1.388 . S
C1471 C1502 1.519 . S
C1472 C1466 1.492 . S
C1472 C1473 1.363 . S
C1472 C1477 1.390 . S
C1473 H1438 0.930 . S
C1473 C1472 1.363 . S
C1473 C1474 1.372 . S
C1474 H1439 0.930 . S
C1474 C1473 1.372 . S
C1474 C1475 1.383 . S
C1475 C1474 1.383 . S
C1475 C1476 1.395 . S
C1476 H1440 0.930 . S
C1476 C1475 1.395 . S
C1476 C1477 1.362 . S
C1477 H1441 0.930 . S
C1477 C1472 1.390 . S
C1477 C1476 1.362 . S
C1478 C1467 1.492 . S
C1478 C1479 1.377 . S
C1478 C1483 1.397 . S
C1479 H1442 0.931 . S
C1479 C1478 1.377 . S
C1479 C1480 1.376 . S
C1480 H1443 0.930 . S
C1480 C1479 1.376 . S
C1480 C1481 1.376 . S
C1481 C1480 1.376 . S
C1481 C1482 1.378 . S
C1481 C1508 1.486 . S
C1482 H1444 0.930 . S
C1482 C1481 1.378 . S
C1482 C1483 1.376 . S
C1483 H1445 0.929 . S
C1483 C1478 1.397 . S
C1483 C1482 1.376 . S
C1484 C1468 1.509 . S
C1484 C1485 1.391 . S
C1484 C1489 1.386 . S
C1485 H1446 0.930 . S
C1485 C1484 1.391 . S
C1485 C1486 1.375 . S
C1486 H1447 0.931 . S
C1486 C1485 1.375 . S
C1486 C1487 1.375 . S
C1487 C1486 1.375 . S
C1487 C1488 1.361 . S
C1488 H1448 0.930 . S
C1488 C1487 1.361 . S
C1488 C1489 1.399 . S
C1489 H1449 0.929 . S
C1489 C1484 1.386 . S
C1489 C1488 1.399 . S
C1490 C1469 1.485 . S
C1490 C1491 1.394 . S
C1490 C1495 1.360 . S
C1491 H1450 0.931 . S
C1491 C1490 1.394 . S
C1491 C1492 1.372 . S
C1492 H1451 0.930 . S
C1492 C1491 1.372 . S
C1492 C1493 1.397 . S
C1493 C1492 1.397 . S
C1493 C1494 1.390 . S
C1493 C1509 1.476 . S
C1494 H1452 0.930 . S
C1494 C1493 1.390 . S
C1494 C1495 1.366 . S
C1495 H1453 0.932 . S
C1495 C1490 1.360 . S
C1495 C1494 1.366 . S
C1496 C1470 1.490 . S
C1496 C1497 1.380 . S
C1496 C1501 1.386 . S
C1497 H1454 0.930 . S
C1497 C1496 1.380 . S
C1497 C1498 1.381 . S
C1498 H1455 0.929 . S
C1498 C1497 1.381 . S
C1498 C1499 1.371 . S
C1499 C1498 1.371 . S
C1499 C1500 1.380 . S
C1500 H1456 0.931 . S
C1500 C1499 1.380 . S
C1500 C1501 1.387 . S
C1501 H1457 0.930 . S
C1501 C1496 1.386 . S
C1501 C1500 1.387 . S
C1502 C1471 1.519 . S
C1502 C1503 1.377 . S
C1502 C1507 1.361 . S
C1503 H1458 0.929 . S
C1503 C1502 1.377 . S
C1503 C1504 1.386 . S
C1504 H1459 0.931 . S
C1504 C1503 1.386 . S
C1504 C1505 1.363 . S
C1505 C1504 1.363 . S
C1505 C1506 1.385 . S
C1506 H1460 0.930 . S
C1506 C1505 1.385 . S
C1506 C1507 1.396 . S
C1507 H1461 0.929 . S
C1507 C1502 1.361 . S
C1507 C1506 1.396 . S
C1508 O1462 1.300 . S
C1508 O1463 1.209 . S
C1508 C1481 1.486 . S
C1509 O1464 1.199 . S
C1509 O1465 1.297 . S
C1509 C1493 1.476 . S
H1510 O1536 0.856 . S
H1511 O1539 0.854 . S
H1512 C1547 0.930 . S
H1513 C1548 0.930 . S
H1514 C1550 0.930 . S
H1515 C1551 0.930 . S
H1516 C1553 0.931 . S
H1517 C1554 0.930 . S
H1518 C1556 0.930 . S
H1519 C1557 0.929 . S
H1520 C1559 0.930 . S
H1521 C1560 0.931 . S
H1522 C1562 0.930 . S
H1523 C1563 0.929 . S
H1524 C1565 0.931 . S
H1525 C1566 0.930 . S
H1526 C1568 0.930 . S
H1527 C1569 0.932 . S
H1528 C1571 0.930 . S
H1529 C1572 0.929 . S
H1530 C1574 0.931 . S
H1531 C1575 0.930 . S
H1532 C1577 0.929 . S
H1533 C1578 0.931 . S
H1534 C1580 0.930 . S
H1535 C1581 0.929 . S
O1536 H1510 0.856 . S
O1536 C1582 1.300 . S
O1537 C1582 1.209 . S
O1538 C1583 1.199 . S
O1539 H1511 0.854 . S
O1539 C1583 1.297 . S
C1540 C1541 1.404 . S
C1540 C1545 1.397 . S
C1540 C1546 1.492 . S
C1541 C1540 1.404 . S
C1541 C1542 1.396 . S
C1541 C1552 1.492 . S
C1542 C1541 1.396 . S
C1542 C1543 1.397 . S
C1542 C1558 1.509 . S
C1543 C1542 1.397 . S
C1543 C1544 1.412 . S
C1543 C1564 1.485 . S
C1544 C1543 1.412 . S
C1544 C1545 1.388 . S
C1544 C1570 1.490 . S
C1545 C1540 1.397 . S
C1545 C1544 1.388 . S
C1545 C1576 1.519 . S
C1546 C1540 1.492 . S
C1546 C1547 1.363 . S
C1546 C1551 1.390 . S
C1547 H1512 0.930 . S
C1547 C1546 1.363 . S
C1547 C1548 1.372 . S
C1548 H1513 0.930 . S
C1548 C1547 1.372 . S
C1548 C1549 1.383 . S
C1549 C1548 1.383 . S
C1549 C1550 1.395 . S
C1550 H1514 0.930 . S
C1550 C1549 1.395 . S
C1550 C1551 1.362 . S
C1551 H1515 0.930 . S
C1551 C1546 1.390 . S
C1551 C1550 1.362 . S
C1552 C1541 1.492 . S
C1552 C1553 1.377 . S
C1552 C1557 1.397 . S
C1553 H1516 0.931 . S
C1553 C1552 1.377 . S
C1553 C1554 1.376 . S
C1554 H1517 0.930 . S
C1554 C1553 1.376 . S
C1554 C1555 1.376 . S
C1555 C1554 1.376 . S
C1555 C1556 1.378 . S
C1555 C1582 1.486 . S
C1556 H1518 0.930 . S
C1556 C1555 1.378 . S
C1556 C1557 1.376 . S
C1557 H1519 0.929 . S
C1557 C1552 1.397 . S
C1557 C1556 1.376 . S
C1558 C1542 1.509 . S
C1558 C1559 1.391 . S
C1558 C1563 1.386 . S
C1559 H1520 0.930 . S
C1559 C1558 1.391 . S
C1559 C1560 1.375 . S
C1560 H1521 0.931 . S
C1560 C1559 1.375 . S
C1560 C1561 1.375 . S
C1561 C1560 1.375 . S
C1561 C1562 1.361 . S
C1562 H1522 0.930 . S
C1562 C1561 1.361 . S
C1562 C1563 1.399 . S
C1563 H1523 0.929 . S
C1563 C1558 1.386 . S
C1563 C1562 1.399 . S
C1564 C1543 1.485 . S
C1564 C1565 1.394 . S
C1564 C1569 1.360 . S
C1565 H1524 0.931 . S
C1565 C1564 1.394 . S
C1565 C1566 1.372 . S
C1566 H1525 0.930 . S
C1566 C1565 1.372 . S
C1566 C1567 1.397 . S
C1567 C1566 1.397 . S
C1567 C1568 1.390 . S
C1567 C1583 1.476 . S
C1568 H1526 0.930 . S
C1568 C1567 1.390 . S
C1568 C1569 1.366 . S
C1569 H1527 0.932 . S
C1569 C1564 1.360 . S
C1569 C1568 1.366 . S
C1570 C1544 1.490 . S
C1570 C1571 1.380 . S
C1570 C1575 1.386 . S
C1571 H1528 0.930 . S
C1571 C1570 1.380 . S
C1571 C1572 1.381 . S
C1572 H1529 0.929 . S
C1572 C1571 1.381 . S
C1572 C1573 1.371 . S
C1573 C1572 1.371 . S
C1573 C1574 1.380 . S
C1574 H1530 0.931 . S
C1574 C1573 1.380 . S
C1574 C1575 1.387 . S
C1575 H1531 0.930 . S
C1575 C1570 1.386 . S
C1575 C1574 1.387 . S
C1576 C1545 1.519 . S
C1576 C1577 1.377 . S
C1576 C1581 1.361 . S
C1577 H1532 0.929 . S
C1577 C1576 1.377 . S
C1577 C1578 1.386 . S
C1578 H1533 0.931 . S
C1578 C1577 1.386 . S
C1578 C1579 1.363 . S
C1579 C1578 1.363 . S
C1579 C1580 1.385 . S
C1580 H1534 0.930 . S
C1580 C1579 1.385 . S
C1580 C1581 1.396 . S
C1581 H1535 0.929 . S
C1581 C1576 1.361 . S
C1581 C1580 1.396 . S
C1582 O1536 1.300 . S
C1582 O1537 1.209 . S
C1582 C1555 1.486 . S
C1583 O1538 1.199 . S
C1583 O1539 1.297 . S
C1583 C1567 1.476 . S
H1584 C1590 0.930 . S
H1585 C1594 0.930 1_455 S
H1586 C1599 0.929 . S
H1587 C1597 0.929 . S
H1588 C1592 0.929 1_455 S
H1589 C1598 0.929 . S
C1590 H1584 0.930 . S
C1590 C1591 1.367 . S
C1590 C1598 1.378 . S
C1591 C1590 1.367 . S
C1591 C1599 1.433 1_655 S
C1592 H1588 0.929 1_655 S
C1592 C1594 1.378 . S
C1592 C1596 1.350 . S
C1593 C1596 1.463 . S
C1593 C1598 1.350 . S
C1593 N1601 1.427 1_655 S
C1594 H1585 0.930 1_655 S
C1594 C1592 1.378 . S
C1594 C1595 1.367 . S
C1595 C1594 1.367 . S
C1595 C1597 1.433 . S
C1596 C1592 1.350 . S
C1596 C1593 1.463 . S
C1596 N1600 1.427 . S
C1597 H1587 0.929 . S
C1597 C1595 1.433 . S
C1597 N1600 1.384 . S
C1598 H1589 0.929 . S
C1598 C1590 1.378 . S
C1598 C1593 1.350 . S
C1599 H1586 0.929 . S
C1599 C1591 1.433 1_455 S
C1599 N1601 1.384 . S
N1600 C1596 1.427 . S
N1600 C1597 1.384 . S
N1601 C1593 1.427 1_455 S
N1601 C1599 1.384 . S
H1602 C1608 0.930 . S
H1603 C1612 0.930 . S
H1604 C1617 0.929 . S
H1605 C1615 0.929 . S
H1606 C1610 0.929 . S
H1607 C1616 0.929 . S
C1608 H1602 0.930 . S
C1608 C1609 1.367 . S
C1608 C1616 1.378 . S
C1609 C1608 1.367 . S
C1609 C1617 1.433 . S
C1610 H1606 0.929 . S
C1610 C1612 1.378 . S
C1610 C1614 1.350 . S
C1611 C1614 1.463 . S
C1611 C1616 1.350 . S
C1611 N1619 1.427 . S
C1612 H1603 0.930 . S
C1612 C1610 1.378 . S
C1612 C1613 1.367 . S
C1613 C1612 1.367 . S
C1613 C1615 1.433 . S
C1614 C1610 1.350 . S
C1614 C1611 1.463 . S
C1614 N1618 1.427 . S
C1615 H1605 0.929 . S
C1615 C1613 1.433 . S
C1615 N1618 1.384 . S
C1616 H1607 0.929 . S
C1616 C1608 1.378 . S
C1616 C1611 1.350 . S
C1617 H1604 0.929 . S
C1617 C1609 1.433 . S
C1617 N1619 1.384 . S
N1618 C1614 1.427 . S
N1618 C1615 1.384 . S
N1619 C1611 1.427 . S
N1619 C1617 1.384 . S
H1620 C1626 0.935 . S
H1621 C1630 0.930 . S
H1622 C1635 0.929 . S
H1623 C1633 0.957 . S
H1624 C1628 0.929 . S
H1625 C1634 0.936 . S
C1626 H1620 0.935 . S
C1626 C1627 1.359 1_565 S
C1626 C1634 1.378 . S
C1627 C1626 1.359 1_545 S
C1627 C1635 1.433 . S
C1628 H1624 0.929 . S
C1628 C1630 1.378 . S
C1628 C1632 1.350 . S
C1629 C1632 1.463 . S
C1629 C1634 1.346 1_545 S
C1629 N1637 1.427 . S
C1630 H1621 0.930 . S
C1630 C1628 1.378 . S
C1630 C1631 1.367 . S
C1631 C1630 1.367 . S
C1631 C1633 1.417 1_545 S
C1632 C1628 1.350 . S
C1632 C1629 1.463 . S
C1632 N1636 1.416 1_545 S
C1633 H1623 0.957 . S
C1633 C1631 1.417 1_565 S
C1633 N1636 1.376 . S
C1634 H1625 0.936 . S
C1634 C1626 1.378 . S
C1634 C1629 1.346 1_565 S
C1635 H1622 0.929 . S
C1635 C1627 1.433 . S
C1635 N1637 1.384 . S
N1636 C1632 1.416 1_565 S
N1636 C1633 1.376 . S
N1637 C1629 1.427 . S
N1637 C1635 1.384 . S
H1638 C1644 0.930 . S
H1639 C1648 0.930 1_545 S
H1640 C1653 0.929 . S
H1641 C1651 0.929 . S
H1642 C1646 0.918 1_545 S
H1643 C1652 0.929 . S
C1644 H1638 0.930 . S
C1644 C1645 1.367 . S
C1644 C1652 1.378 . S
C1645 C1644 1.367 . S
C1645 C1653 1.433 1_565 S
C1646 H1642 0.918 1_565 S
C1646 C1648 1.393 . S
C1646 C1650 1.348 . S
C1647 C1650 1.463 . S
C1647 C1652 1.350 . S
C1647 N1655 1.422 1_565 S
C1648 H1639 0.930 1_565 S
C1648 C1646 1.393 . S
C1648 C1649 1.367 . S
C1649 C1648 1.367 . S
C1649 C1651 1.433 . S
C1650 C1646 1.348 . S
C1650 C1647 1.463 . S
C1650 N1654 1.427 . S
C1651 H1641 0.929 . S
C1651 C1649 1.433 . S
C1651 N1654 1.384 . S
C1652 H1643 0.929 . S
C1652 C1644 1.378 . S
C1652 C1647 1.350 . S
C1653 H1640 0.929 . S
C1653 C1645 1.433 1_545 S
C1653 N1655 1.390 . S
N1654 C1650 1.427 . S
N1654 C1651 1.384 . S
N1655 C1647 1.422 1_545 S
N1655 C1653 1.390 . S
H1656 C1662 0.930 1_554 S
H1657 C1666 0.930 . S
H1658 C1671 0.929 . S
H1659 C1669 0.929 . S
H1660 C1664 0.929 . S
H1661 C1670 0.929 . S
C1662 H1656 0.930 1_556 S
C1662 C1663 1.367 . S
C1662 C1670 1.378 . S
C1663 C1662 1.367 . S
C1663 C1671 1.433 . S
C1664 H1660 0.929 . S
C1664 C1666 1.378 . S
C1664 C1668 1.350 . S
C1665 C1668 1.463 . S
C1665 C1670 1.350 . S
C1665 N1673 1.427 . S
C1666 H1657 0.930 . S
C1666 C1664 1.378 . S
C1666 C1667 1.367 . S
C1667 C1666 1.367 . S
C1667 C1669 1.433 . S
C1668 C1664 1.350 . S
C1668 C1665 1.463 . S
C1668 N1672 1.427 . S
C1669 H1659 0.929 . S
C1669 C1667 1.433 . S
C1669 N1672 1.384 . S
C1670 H1661 0.929 . S
C1670 C1662 1.378 . S
C1670 C1665 1.350 . S
C1671 H1658 0.929 . S
C1671 C1663 1.433 . S
C1671 N1673 1.384 . S
N1672 C1668 1.427 . S
N1672 C1669 1.384 . S
N1673 C1665 1.427 . S
N1673 C1671 1.384 . S
H1674 C1680 0.930 . S
H1675 C1684 0.930 . S
H1676 C1689 0.929 . S
H1677 C1687 0.929 . S
H1678 C1682 0.929 . S
H1679 C1688 0.929 . S
C1680 H1674 0.930 . S
C1680 C1681 1.367 . S
C1680 C1688 1.378 1_554 S
C1681 C1680 1.367 . S
C1681 C1689 1.433 . S
C1682 H1678 0.929 . S
C1682 C1684 1.378 . S
C1682 C1686 1.350 . S
C1683 C1686 1.463 . S
C1683 C1688 1.350 . S
C1683 N1691 1.427 1_556 S
C1684 H1675 0.930 . S
C1684 C1682 1.378 . S
C1684 C1685 1.367 . S
C1685 C1684 1.367 . S
C1685 C1687 1.433 . S
C1686 C1682 1.350 . S
C1686 C1683 1.463 . S
C1686 N1690 1.427 . S
C1687 H1677 0.929 . S
C1687 C1685 1.433 . S
C1687 N1690 1.384 . S
C1688 H1679 0.929 . S
C1688 C1680 1.378 1_556 S
C1688 C1683 1.350 . S
C1689 H1676 0.929 . S
C1689 C1681 1.433 . S
C1689 N1691 1.384 . S
N1690 C1686 1.427 . S
N1690 C1687 1.384 . S
N1691 C1683 1.427 1_554 S
N1691 C1689 1.384 . S
H1692 C1698 0.930 . S
H1693 C1702 0.930 . S
H1694 C1707 0.929 . S
H1695 C1705 0.929 . S
H1696 C1700 0.929 . S
H1697 C1706 0.929 . S
C1698 H1692 0.930 . S
C1698 C1699 1.367 1_655 S
C1698 C1706 1.378 1_554 S
C1699 C1698 1.367 1_455 S
C1699 C1707 1.433 1_554 S
C1700 H1696 0.929 . S
C1700 C1702 1.378 . S
C1700 C1704 1.350 . S
C1701 C1704 1.463 . S
C1701 C1706 1.350 1_455 S
C1701 N1709 1.427 . S
C1702 H1693 0.930 . S
C1702 C1700 1.378 . S
C1702 C1703 1.367 . S
C1703 C1702 1.367 . S
C1703 C1705 1.433 1_455 S
C1704 C1700 1.350 . S
C1704 C1701 1.463 . S
C1704 N1708 1.427 1_455 S
C1705 H1695 0.929 . S
C1705 C1703 1.433 1_655 S
C1705 N1708 1.384 . S
C1706 H1697 0.929 . S
C1706 C1698 1.378 1_556 S
C1706 C1701 1.350 1_655 S
C1707 H1694 0.929 . S
C1707 C1699 1.433 1_556 S
C1707 N1709 1.384 . S
N1708 C1704 1.427 1_655 S
N1708 C1705 1.384 . S
N1709 C1701 1.427 . S
N1709 C1707 1.384 . S
H1710 C1716 0.930 . S
H1711 C1720 0.930 . S
H1712 C1725 0.929 . S
H1713 C1723 0.929 . S
H1714 C1718 0.929 . S
H1715 C1724 0.929 . S
C1716 H1710 0.930 . S
C1716 C1717 1.367 . S
C1716 C1724 1.378 . S
C1717 C1716 1.367 . S
C1717 C1725 1.433 . S
C1718 H1714 0.929 . S
C1718 C1720 1.378 . S
C1718 C1722 1.350 . S
C1719 C1722 1.463 . S
C1719 C1724 1.350 . S
C1719 N1727 1.427 . S
C1720 H1711 0.930 . S
C1720 C1718 1.378 . S
C1720 C1721 1.367 . S
C1721 C1720 1.367 . S
C1721 C1723 1.433 . S
C1722 C1718 1.350 . S
C1722 C1719 1.463 . S
C1722 N1726 1.427 . S
C1723 H1713 0.929 . S
C1723 C1721 1.433 . S
C1723 N1726 1.384 . S
C1724 H1715 0.929 . S
C1724 C1716 1.378 . S
C1724 C1719 1.350 . S
C1725 H1712 0.929 . S
C1725 C1717 1.433 . S
C1725 N1727 1.384 . S
N1726 C1722 1.427 . S
N1726 C1723 1.384 . S
N1727 C1719 1.427 . S
N1727 C1725 1.384 . S
H1728 C1734 0.930 . S
H1729 C1738 0.930 . S
H1730 C1743 0.926 . S
H1731 C1741 0.929 . S
H1732 C1736 0.929 . S
H1733 C1742 0.929 . S
C1734 H1728 0.930 . S
C1734 C1735 1.367 . S
C1734 C1742 1.378 1_554 S
C1735 C1734 1.367 . S
C1735 C1743 1.419 1_564 S
C1736 H1732 0.929 . S
C1736 C1738 1.378 . S
C1736 C1740 1.350 1_545 S
C1737 C1740 1.463 . S
C1737 C1742 1.350 . S
C1737 N1745 1.427 1_565 S
C1738 H1729 0.930 . S
C1738 C1736 1.378 . S
C1738 C1739 1.367 1_545 S
C1739 C1738 1.367 1_565 S
C1739 C1741 1.434 . S
C1740 C1736 1.350 1_565 S
C1740 C1737 1.463 . S
C1740 N1744 1.427 . S
C1741 H1731 0.929 . S
C1741 C1739 1.434 . S
C1741 N1744 1.384 . S
C1742 H1733 0.929 . S
C1742 C1734 1.378 1_556 S
C1742 C1737 1.350 . S
C1743 H1730 0.926 . S
C1743 C1735 1.419 1_546 S
C1743 N1745 1.403 . S
N1744 C1740 1.427 . S
N1744 C1741 1.384 . S
N1745 C1737 1.427 1_545 S
N1745 C1743 1.403 . S
H1746 C1752 0.930 . S
H1747 C1756 0.930 . S
H1748 C1761 0.932 1_565 S
H1749 C1759 0.929 . S
H1750 C1754 0.929 . S
H1751 C1760 0.929 . S
C1752 H1746 0.930 . S
C1752 C1753 1.367 . S
C1752 C1760 1.378 . S
C1753 C1752 1.367 . S
C1753 C1761 1.433 . S
C1754 H1750 0.929 . S
C1754 C1756 1.378 . S
C1754 C1758 1.350 1_565 S
C1755 C1758 1.463 . S
C1755 C1760 1.350 . S
C1755 N1763 1.427 . S
C1756 H1747 0.930 . S
C1756 C1754 1.378 . S
C1756 C1757 1.379 . S
C1757 C1756 1.379 . S
C1757 C1759 1.423 1_565 S
C1758 C1754 1.350 1_545 S
C1758 C1755 1.463 . S
C1758 N1762 1.427 . S
C1759 H1749 0.929 . S
C1759 C1757 1.423 1_545 S
C1759 N1762 1.384 . S
C1760 H1751 0.929 . S
C1760 C1752 1.378 . S
C1760 C1755 1.350 . S
C1761 H1748 0.932 1_545 S
C1761 C1753 1.433 . S
C1761 N1763 1.384 . S
N1762 C1758 1.427 . S
N1762 C1759 1.384 . S
N1763 C1755 1.427 . S
N1763 C1761 1.384 . S
H1764 C1770 0.930 . S
H1765 C1774 0.930 . S
H1766 C1779 0.929 . S
H1767 C1777 0.929 . S
H1768 C1772 0.929 . S
H1769 C1778 0.929 . S
C1770 H1764 0.930 . S
C1770 C1771 1.367 1_455 S
C1770 C1778 1.378 . S
C1771 C1770 1.367 1_655 S
C1771 C1779 1.433 . S
C1772 H1768 0.929 . S
C1772 C1774 1.378 . S
C1772 C1776 1.350 . S
C1773 C1776 1.463 . S
C1773 C1778 1.350 1_655 S
C1773 N1781 1.427 . S
C1774 H1765 0.930 . S
C1774 C1772 1.378 . S
C1774 C1775 1.367 . S
C1775 C1774 1.367 . S
C1775 C1777 1.433 1_655 S
C1776 C1772 1.350 . S
C1776 C1773 1.463 . S
C1776 N1780 1.427 1_655 S
C1777 H1767 0.929 . S
C1777 C1775 1.433 1_455 S
C1777 N1780 1.384 . S
C1778 H1769 0.929 . S
C1778 C1770 1.378 . S
C1778 C1773 1.350 1_455 S
C1779 H1766 0.929 . S
C1779 C1771 1.433 . S
C1779 N1781 1.384 . S
N1780 C1776 1.427 1_455 S
N1780 C1777 1.384 . S
N1781 C1773 1.427 . S
N1781 C1779 1.384 . S
H1782 C1788 0.930 . S
H1783 C1792 0.930 . S
H1784 C1797 0.929 . S
H1785 C1795 0.929 . S
H1786 C1790 0.929 . S
H1787 C1796 0.929 . S
C1788 H1782 0.930 . S
C1788 C1789 1.367 . S
C1788 C1796 1.378 . S
C1789 C1788 1.367 . S
C1789 C1797 1.433 . S
C1790 H1786 0.929 . S
C1790 C1792 1.378 . S
C1790 C1794 1.350 . S
C1791 C1794 1.463 . S
C1791 C1796 1.350 . S
C1791 N1799 1.427 . S
C1792 H1783 0.930 . S
C1792 C1790 1.378 . S
C1792 C1793 1.367 . S
C1793 C1792 1.367 . S
C1793 C1795 1.433 . S
C1794 C1790 1.350 . S
C1794 C1791 1.463 . S
C1794 N1798 1.427 . S
C1795 H1785 0.929 . S
C1795 C1793 1.433 . S
C1795 N1798 1.384 . S
C1796 H1787 0.929 . S
C1796 C1788 1.378 . S
C1796 C1791 1.350 . S
C1797 H1784 0.929 . S
C1797 C1789 1.433 . S
C1797 N1799 1.384 . S
N1798 C1794 1.427 . S
N1798 C1795 1.384 . S
N1799 C1791 1.427 . S
N1799 C1797 1.384 . S
H1800 C1806 0.930 . S
H1801 C1810 0.930 . S
H1802 C1815 0.929 . S
H1803 C1813 0.929 . S
H1804 C1808 0.929 . S
H1805 C1814 0.929 . S
C1806 H1800 0.930 . S
C1806 C1807 1.367 . S
C1806 C1814 1.378 . S
C1807 C1806 1.367 . S
C1807 C1815 1.433 . S
C1808 H1804 0.929 . S
C1808 C1810 1.378 . S
C1808 C1812 1.350 . S
C1809 C1812 1.463 . S
C1809 C1814 1.350 . S
C1809 N1817 1.427 . S
C1810 H1801 0.930 . S
C1810 C1808 1.378 . S
C1810 C1811 1.367 . S
C1811 C1810 1.367 . S
C1811 C1813 1.433 . S
C1812 C1808 1.350 . S
C1812 C1809 1.463 . S
C1812 N1816 1.427 . S
C1813 H1803 0.929 . S
C1813 C1811 1.433 . S
C1813 N1816 1.384 . S
C1814 H1805 0.929 . S
C1814 C1806 1.378 . S
C1814 C1809 1.350 . S
C1815 H1802 0.929 . S
C1815 C1807 1.433 . S
C1815 N1817 1.384 . S
N1816 C1812 1.427 . S
N1816 C1813 1.384 . S
N1817 C1809 1.427 . S
N1817 C1815 1.384 . S
H1818 C1824 0.930 . S
H1819 C1828 0.930 . S
H1820 C1833 0.929 . S
H1821 C1831 0.929 . S
H1822 C1826 0.929 . S
H1823 C1832 0.929 . S
C1824 H1818 0.930 . S
C1824 C1825 1.367 . S
C1824 C1832 1.378 . S
C1825 C1824 1.367 . S
C1825 C1833 1.433 . S
C1826 H1822 0.929 . S
C1826 C1828 1.378 . S
C1826 C1830 1.350 . S
C1827 C1830 1.463 . S
C1827 C1832 1.350 . S
C1827 N1835 1.427 . S
C1828 H1819 0.930 . S
C1828 C1826 1.378 . S
C1828 C1829 1.367 . S
C1829 C1828 1.367 . S
C1829 C1831 1.433 . S
C1830 C1826 1.350 . S
C1830 C1827 1.463 . S
C1830 N1834 1.427 . S
C1831 H1821 0.929 . S
C1831 C1829 1.433 . S
C1831 N1834 1.384 . S
C1832 H1823 0.929 . S
C1832 C1824 1.378 . S
C1832 C1827 1.350 . S
C1833 H1820 0.929 . S
C1833 C1825 1.433 . S
C1833 N1835 1.384 . S
N1834 C1830 1.427 . S
N1834 C1831 1.384 . S
N1835 C1827 1.427 . S
N1835 C1833 1.384 . S
H1836 C1842 0.930 . S
H1837 C1846 0.930 . S
H1838 C1851 0.929 . S
H1839 C1849 0.929 . S
H1840 C1844 0.929 . S
H1841 C1850 0.929 . S
C1842 H1836 0.930 . S
C1842 C1843 1.367 . S
C1842 C1850 1.378 . S
C1843 C1842 1.367 . S
C1843 C1851 1.433 . S
C1844 H1840 0.929 . S
C1844 C1846 1.378 . S
C1844 C1848 1.350 . S
C1845 C1848 1.463 . S
C1845 C1850 1.350 . S
C1845 N1853 1.427 . S
C1846 H1837 0.930 . S
C1846 C1844 1.378 . S
C1846 C1847 1.367 . S
C1847 C1846 1.367 . S
C1847 C1849 1.433 . S
C1848 C1844 1.350 . S
C1848 C1845 1.463 . S
C1848 N1852 1.427 . S
C1849 H1839 0.929 . S
C1849 C1847 1.433 . S
C1849 N1852 1.384 . S
C1850 H1841 0.929 . S
C1850 C1842 1.378 . S
C1850 C1845 1.350 . S
C1851 H1838 0.929 . S
C1851 C1843 1.433 . S
C1851 N1853 1.384 . S
N1852 C1848 1.427 . S
N1852 C1849 1.384 . S
N1853 C1845 1.427 . S
N1853 C1851 1.384 . S
H1854 C1860 0.930 . S
H1855 C1864 0.930 . S
H1856 C1869 0.929 . S
H1857 C1867 0.929 . S
H1858 C1862 0.929 . S
H1859 C1868 0.929 . S
C1860 H1854 0.930 . S
C1860 C1861 1.367 . S
C1860 C1868 1.378 . S
C1861 C1860 1.367 . S
C1861 C1869 1.433 . S
C1862 H1858 0.929 . S
C1862 C1864 1.378 . S
C1862 C1866 1.350 . S
C1863 C1866 1.463 . S
C1863 C1868 1.350 . S
C1863 N1871 1.427 . S
C1864 H1855 0.930 . S
C1864 C1862 1.378 . S
C1864 C1865 1.367 . S
C1865 C1864 1.367 . S
C1865 C1867 1.433 . S
C1866 C1862 1.350 . S
C1866 C1863 1.463 . S
C1866 N1870 1.427 . S
C1867 H1857 0.929 . S
C1867 C1865 1.433 . S
C1867 N1870 1.384 . S
C1868 H1859 0.929 . S
C1868 C1860 1.378 . S
C1868 C1863 1.350 . S
C1869 H1856 0.929 . S
C1869 C1861 1.433 . S
C1869 N1871 1.384 . S
N1870 C1866 1.427 . S
N1870 C1867 1.384 . S
N1871 C1863 1.427 . S
N1871 C1869 1.384 . S
H1872 C1878 0.930 . S
H1873 C1882 0.930 . S
H1874 C1887 0.929 . S
H1875 C1885 0.929 . S
H1876 C1880 0.929 . S
H1877 C1886 0.929 . S
C1878 H1872 0.930 . S
C1878 C1879 1.367 . S
C1878 C1886 1.378 . S
C1879 C1878 1.367 . S
C1879 C1887 1.433 . S
C1880 H1876 0.929 . S
C1880 C1882 1.378 . S
C1880 C1884 1.350 . S
C1881 C1884 1.463 . S
C1881 C1886 1.350 . S
C1881 N1889 1.427 . S
C1882 H1873 0.930 . S
C1882 C1880 1.378 . S
C1882 C1883 1.367 . S
C1883 C1882 1.367 . S
C1883 C1885 1.433 . S
C1884 C1880 1.350 . S
C1884 C1881 1.463 . S
C1884 N1888 1.427 . S
C1885 H1875 0.929 . S
C1885 C1883 1.433 . S
C1885 N1888 1.384 . S
C1886 H1877 0.929 . S
C1886 C1878 1.378 . S
C1886 C1881 1.350 . S
C1887 H1874 0.929 . S
C1887 C1879 1.433 . S
C1887 N1889 1.384 . S
N1888 C1884 1.427 . S
N1888 C1885 1.384 . S
N1889 C1881 1.427 . S
N1889 C1887 1.384 . S
H1890 C1896 0.930 . S
H1891 C1900 0.930 . S
H1892 C1905 0.929 . S
H1893 C1903 0.929 . S
H1894 C1898 0.929 . S
H1895 C1904 0.929 . S
C1896 H1890 0.930 . S
C1896 C1897 1.367 . S
C1896 C1904 1.378 . S
C1897 C1896 1.367 . S
C1897 C1905 1.433 . S
C1898 H1894 0.929 . S
C1898 C1900 1.378 . S
C1898 C1902 1.350 . S
C1899 C1902 1.463 . S
C1899 C1904 1.350 . S
C1899 N1907 1.427 . S
C1900 H1891 0.930 . S
C1900 C1898 1.378 . S
C1900 C1901 1.367 . S
C1901 C1900 1.367 . S
C1901 C1903 1.433 . S
C1902 C1898 1.350 . S
C1902 C1899 1.463 . S
C1902 N1906 1.427 . S
C1903 H1893 0.929 . S
C1903 C1901 1.433 . S
C1903 N1906 1.384 . S
C1904 H1895 0.929 . S
C1904 C1896 1.378 . S
C1904 C1899 1.350 . S
C1905 H1892 0.929 . S
C1905 C1897 1.433 . S
C1905 N1907 1.384 . S
N1906 C1902 1.427 . S
N1906 C1903 1.384 . S
N1907 C1899 1.427 . S
N1907 C1905 1.384 . S
H1908 C1914 0.930 . S
H1909 C1918 0.930 . S
H1910 C1923 0.929 . S
H1911 C1921 0.929 . S
H1912 C1916 0.929 . S
H1913 C1922 0.929 . S
C1914 H1908 0.930 . S
C1914 C1915 1.367 . S
C1914 C1922 1.378 . S
C1915 C1914 1.367 . S
C1915 C1923 1.433 . S
C1916 H1912 0.929 . S
C1916 C1918 1.378 . S
C1916 C1920 1.350 . S
C1917 C1920 1.463 . S
C1917 C1922 1.350 . S
C1917 N1925 1.427 . S
C1918 H1909 0.930 . S
C1918 C1916 1.378 . S
C1918 C1919 1.367 . S
C1919 C1918 1.367 . S
C1919 C1921 1.433 . S
C1920 C1916 1.350 . S
C1920 C1917 1.463 . S
C1920 N1924 1.427 . S
C1921 H1911 0.929 . S
C1921 C1919 1.433 . S
C1921 N1924 1.384 . S
C1922 H1913 0.929 . S
C1922 C1914 1.378 . S
C1922 C1917 1.350 . S
C1923 H1910 0.929 . S
C1923 C1915 1.433 . S
C1923 N1925 1.384 . S
N1924 C1920 1.427 . S
N1924 C1921 1.384 . S
N1925 C1917 1.427 . S
N1925 C1923 1.384 . S
H1926 C1932 0.930 . S
H1927 C1936 0.930 . S
H1928 C1941 0.929 . S
H1929 C1939 0.929 . S
H1930 C1934 0.929 . S
H1931 C1940 0.929 . S
C1932 H1926 0.930 . S
C1932 C1933 1.367 . S
C1932 C1940 1.378 . S
C1933 C1932 1.367 . S
C1933 C1941 1.433 . S
C1934 H1930 0.929 . S
C1934 C1936 1.378 . S
C1934 C1938 1.350 . S
C1935 C1938 1.463 . S
C1935 C1940 1.350 . S
C1935 N1943 1.427 . S
C1936 H1927 0.930 . S
C1936 C1934 1.378 . S
C1936 C1937 1.367 . S
C1937 C1936 1.367 . S
C1937 C1939 1.433 . S
C1938 C1934 1.350 . S
C1938 C1935 1.463 . S
C1938 N1942 1.427 . S
C1939 H1929 0.929 . S
C1939 C1937 1.433 . S
C1939 N1942 1.384 . S
C1940 H1931 0.929 . S
C1940 C1932 1.378 . S
C1940 C1935 1.350 . S
C1941 H1928 0.929 . S
C1941 C1933 1.433 . S
C1941 N1943 1.384 . S
N1942 C1938 1.427 . S
N1942 C1939 1.384 . S
N1943 C1935 1.427 . S
N1943 C1941 1.384 . S
H1944 C1950 0.930 . S
H1945 C1954 0.930 . S
H1946 C1959 0.929 . S
H1947 C1957 0.929 . S
H1948 C1952 0.929 . S
H1949 C1958 0.929 . S
C1950 H1944 0.930 . S
C1950 C1951 1.367 . S
C1950 C1958 1.378 . S
C1951 C1950 1.367 . S
C1951 C1959 1.433 . S
C1952 H1948 0.929 . S
C1952 C1954 1.378 . S
C1952 C1956 1.350 . S
C1953 C1956 1.463 . S
C1953 C1958 1.350 . S
C1953 N1961 1.427 . S
C1954 H1945 0.930 . S
C1954 C1952 1.378 . S
C1954 C1955 1.367 . S
C1955 C1954 1.367 . S
C1955 C1957 1.433 . S
C1956 C1952 1.350 . S
C1956 C1953 1.463 . S
C1956 N1960 1.427 . S
C1957 H1947 0.929 . S
C1957 C1955 1.433 . S
C1957 N1960 1.384 . S
C1958 H1949 0.929 . S
C1958 C1950 1.378 . S
C1958 C1953 1.350 . S
C1959 H1946 0.929 . S
C1959 C1951 1.433 . S
C1959 N1961 1.384 . S
N1960 C1956 1.427 . S
N1960 C1957 1.384 . S
N1961 C1953 1.427 . S
N1961 C1959 1.384 . S
H1962 C1968 0.930 . S
H1963 C1972 0.930 . S
H1964 C1977 0.929 . S
H1965 C1975 0.929 . S
H1966 C1970 0.929 . S
H1967 C1976 0.929 . S
C1968 H1962 0.930 . S
C1968 C1969 1.367 . S
C1968 C1976 1.378 . S
C1969 C1968 1.367 . S
C1969 C1977 1.433 . S
C1970 H1966 0.929 . S
C1970 C1972 1.378 . S
C1970 C1974 1.350 . S
C1971 C1974 1.463 . S
C1971 C1976 1.350 . S
C1971 N1979 1.427 . S
C1972 H1963 0.930 . S
C1972 C1970 1.378 . S
C1972 C1973 1.367 . S
C1973 C1972 1.367 . S
C1973 C1975 1.433 . S
C1974 C1970 1.350 . S
C1974 C1971 1.463 . S
C1974 N1978 1.427 . S
C1975 H1965 0.929 . S
C1975 C1973 1.433 . S
C1975 N1978 1.384 . S
C1976 H1967 0.929 . S
C1976 C1968 1.378 . S
C1976 C1971 1.350 . S
C1977 H1964 0.929 . S
C1977 C1969 1.433 . S
C1977 N1979 1.384 . S
N1978 C1974 1.427 . S
N1978 C1975 1.384 . S
N1979 C1971 1.427 . S
N1979 C1977 1.384 . S
H1980 C1986 0.930 . S
H1981 C1990 0.930 . S
H1982 C1995 0.929 . S
H1983 C1993 0.929 . S
H1984 C1988 0.929 . S
H1985 C1994 0.929 . S
C1986 H1980 0.930 . S
C1986 C1987 1.367 . S
C1986 C1994 1.378 . S
C1987 C1986 1.367 . S
C1987 C1995 1.433 . S
C1988 H1984 0.929 . S
C1988 C1990 1.378 . S
C1988 C1992 1.350 . S
C1989 C1992 1.463 . S
C1989 C1994 1.350 . S
C1989 N1997 1.427 . S
C1990 H1981 0.930 . S
C1990 C1988 1.378 . S
C1990 C1991 1.367 . S
C1991 C1990 1.367 . S
C1991 C1993 1.433 . S
C1992 C1988 1.350 . S
C1992 C1989 1.463 . S
C1992 N1996 1.427 . S
C1993 H1983 0.929 . S
C1993 C1991 1.433 . S
C1993 N1996 1.384 . S
C1994 H1985 0.929 . S
C1994 C1986 1.378 . S
C1994 C1989 1.350 . S
C1995 H1982 0.929 . S
C1995 C1987 1.433 . S
C1995 N1997 1.384 . S
N1996 C1992 1.427 . S
N1996 C1993 1.384 . S
N1997 C1989 1.427 . S
N1997 C1995 1.384 . S
H1998 C2004 0.930 . S
H1999 C2008 0.930 . S
H2000 C2013 0.929 . S
H2001 C2011 0.929 . S
H2002 C2006 0.929 . S
H2003 C2012 0.929 . S
C2004 H1998 0.930 . S
C2004 C2005 1.367 . S
C2004 C2012 1.378 . S
C2005 C2004 1.367 . S
C2005 C2013 1.433 . S
C2006 H2002 0.929 . S
C2006 C2008 1.378 . S
C2006 C2010 1.350 . S
C2007 C2010 1.463 . S
C2007 C2012 1.350 . S
C2007 N2015 1.427 . S
C2008 H1999 0.930 . S
C2008 C2006 1.378 . S
C2008 C2009 1.367 . S
C2009 C2008 1.367 . S
C2009 C2011 1.433 . S
C2010 C2006 1.350 . S
C2010 C2007 1.463 . S
C2010 N2014 1.427 . S
C2011 H2001 0.929 . S
C2011 C2009 1.433 . S
C2011 N2014 1.384 . S
C2012 H2003 0.929 . S
C2012 C2004 1.378 . S
C2012 C2007 1.350 . S
C2013 H2000 0.929 . S
C2013 C2005 1.433 . S
C2013 N2015 1.384 . S
N2014 C2010 1.427 . S
N2014 C2011 1.384 . S
N2015 C2007 1.427 . S
N2015 C2013 1.384 . S
H2016 C2022 0.930 . S
H2017 C2026 0.930 . S
H2018 C2031 0.929 . S
H2019 C2029 0.929 . S
H2020 C2024 0.929 . S
H2021 C2030 0.929 . S
C2022 H2016 0.930 . S
C2022 C2023 1.367 . S
C2022 C2030 1.378 . S
C2023 C2022 1.367 . S
C2023 C2031 1.433 . S
C2024 H2020 0.929 . S
C2024 C2026 1.378 . S
C2024 C2028 1.350 . S
C2025 C2028 1.463 . S
C2025 C2030 1.350 . S
C2025 N2033 1.427 . S
C2026 H2017 0.930 . S
C2026 C2024 1.378 . S
C2026 C2027 1.367 . S
C2027 C2026 1.367 . S
C2027 C2029 1.433 . S
C2028 C2024 1.350 . S
C2028 C2025 1.463 . S
C2028 N2032 1.427 . S
C2029 H2019 0.929 . S
C2029 C2027 1.433 . S
C2029 N2032 1.384 . S
C2030 H2021 0.929 . S
C2030 C2022 1.378 . S
C2030 C2025 1.350 . S
C2031 H2018 0.929 . S
C2031 C2023 1.433 . S
C2031 N2033 1.384 . S
N2032 C2028 1.427 . S
N2032 C2029 1.384 . S
N2033 C2025 1.427 . S
N2033 C2031 1.384 . S
H2034 C2040 0.930 . S
H2035 C2044 0.930 . S
H2036 C2049 0.929 . S
H2037 C2047 0.929 . S
H2038 C2042 0.929 . S
H2039 C2048 0.929 . S
C2040 H2034 0.930 . S
C2040 C2041 1.367 . S
C2040 C2048 1.378 . S
C2041 C2040 1.367 . S
C2041 C2049 1.433 . S
C2042 H2038 0.929 . S
C2042 C2044 1.378 . S
C2042 C2046 1.350 . S
C2043 C2046 1.463 . S
C2043 C2048 1.350 . S
C2043 N2051 1.427 . S
C2044 H2035 0.930 . S
C2044 C2042 1.378 . S
C2044 C2045 1.367 . S
C2045 C2044 1.367 . S
C2045 C2047 1.433 . S
C2046 C2042 1.350 . S
C2046 C2043 1.463 . S
C2046 N2050 1.427 . S
C2047 H2037 0.929 . S
C2047 C2045 1.433 . S
C2047 N2050 1.384 . S
C2048 H2039 0.929 . S
C2048 C2040 1.378 . S
C2048 C2043 1.350 . S
C2049 H2036 0.929 . S
C2049 C2041 1.433 . S
C2049 N2051 1.384 . S
N2050 C2046 1.427 . S
N2050 C2047 1.384 . S
N2051 C2043 1.427 . S
N2051 C2049 1.384 . S
H2052 C2058 0.930 . S
H2053 C2062 0.930 . S
H2054 C2067 0.929 . S
H2055 C2065 0.929 . S
H2056 C2060 0.929 . S
H2057 C2066 0.929 . S
C2058 H2052 0.930 . S
C2058 C2059 1.367 . S
C2058 C2066 1.378 . S
C2059 C2058 1.367 . S
C2059 C2067 1.433 . S
C2060 H2056 0.929 . S
C2060 C2062 1.378 . S
C2060 C2064 1.350 . S
C2061 C2064 1.463 . S
C2061 C2066 1.350 . S
C2061 N2069 1.427 . S
C2062 H2053 0.930 . S
C2062 C2060 1.378 . S
C2062 C2063 1.367 . S
C2063 C2062 1.367 . S
C2063 C2065 1.433 . S
C2064 C2060 1.350 . S
C2064 C2061 1.463 . S
C2064 N2068 1.427 . S
C2065 H2055 0.929 . S
C2065 C2063 1.433 . S
C2065 N2068 1.384 . S
C2066 H2057 0.929 . S
C2066 C2058 1.378 . S
C2066 C2061 1.350 . S
C2067 H2054 0.929 . S
C2067 C2059 1.433 . S
C2067 N2069 1.384 . S
N2068 C2064 1.427 . S
N2068 C2065 1.384 . S
N2069 C2061 1.427 . S
N2069 C2067 1.384 . S
H2070 C2076 0.930 . S
H2071 C2080 0.930 . S
H2072 C2085 0.929 . S
H2073 C2083 0.929 . S
H2074 C2078 0.929 . S
H2075 C2084 0.929 . S
C2076 H2070 0.930 . S
C2076 C2077 1.367 . S
C2076 C2084 1.378 . S
C2077 C2076 1.367 . S
C2077 C2085 1.433 . S
C2078 H2074 0.929 . S
C2078 C2080 1.378 . S
C2078 C2082 1.350 . S
C2079 C2082 1.463 . S
C2079 C2084 1.350 . S
C2079 N2087 1.427 . S
C2080 H2071 0.930 . S
C2080 C2078 1.378 . S
C2080 C2081 1.367 . S
C2081 C2080 1.367 . S
C2081 C2083 1.433 . S
C2082 C2078 1.350 . S
C2082 C2079 1.463 . S
C2082 N2086 1.427 . S
C2083 H2073 0.929 . S
C2083 C2081 1.433 . S
C2083 N2086 1.384 . S
C2084 H2075 0.929 . S
C2084 C2076 1.378 . S
C2084 C2079 1.350 . S
C2085 H2072 0.929 . S
C2085 C2077 1.433 . S
C2085 N2087 1.384 . S
N2086 C2082 1.427 . S
N2086 C2083 1.384 . S
N2087 C2079 1.427 . S
N2087 C2085 1.384 . S
H2088 C2094 0.930 . S
H2089 C2098 0.930 . S
H2090 C2103 0.929 . S
H2091 C2101 0.929 . S
H2092 C2096 0.929 . S
H2093 C2102 0.929 . S
C2094 H2088 0.930 . S
C2094 C2095 1.367 . S
C2094 C2102 1.378 . S
C2095 C2094 1.367 . S
C2095 C2103 1.433 . S
C2096 H2092 0.929 . S
C2096 C2098 1.378 . S
C2096 C2100 1.350 . S
C2097 C2100 1.463 . S
C2097 C2102 1.350 . S
C2097 N2105 1.427 . S
C2098 H2089 0.930 . S
C2098 C2096 1.378 . S
C2098 C2099 1.367 . S
C2099 C2098 1.367 . S
C2099 C2101 1.433 . S
C2100 C2096 1.350 . S
C2100 C2097 1.463 . S
C2100 N2104 1.427 . S
C2101 H2091 0.929 . S
C2101 C2099 1.433 . S
C2101 N2104 1.384 . S
C2102 H2093 0.929 . S
C2102 C2094 1.378 . S
C2102 C2097 1.350 . S
C2103 H2090 0.929 . S
C2103 C2095 1.433 . S
C2103 N2105 1.384 . S
N2104 C2100 1.427 . S
N2104 C2101 1.384 . S
N2105 C2097 1.427 . S
N2105 C2103 1.384 . S
H2106 C2112 0.930 . S
H2107 C2116 0.930 . S
H2108 C2121 0.929 . S
H2109 C2119 0.929 . S
H2110 C2114 0.929 . S
H2111 C2120 0.929 . S
C2112 H2106 0.930 . S
C2112 C2113 1.367 . S
C2112 C2120 1.378 . S
C2113 C2112 1.367 . S
C2113 C2121 1.433 . S
C2114 H2110 0.929 . S
C2114 C2116 1.378 . S
C2114 C2118 1.350 . S
C2115 C2118 1.463 . S
C2115 C2120 1.350 . S
C2115 N2123 1.427 . S
C2116 H2107 0.930 . S
C2116 C2114 1.378 . S
C2116 C2117 1.367 . S
C2117 C2116 1.367 . S
C2117 C2119 1.433 . S
C2118 C2114 1.350 . S
C2118 C2115 1.463 . S
C2118 N2122 1.427 . S
C2119 H2109 0.929 . S
C2119 C2117 1.433 . S
C2119 N2122 1.384 . S
C2120 H2111 0.929 . S
C2120 C2112 1.378 . S
C2120 C2115 1.350 . S
C2121 H2108 0.929 . S
C2121 C2113 1.433 . S
C2121 N2123 1.384 . S
N2122 C2118 1.427 . S
N2122 C2119 1.384 . S
N2123 C2115 1.427 . S
N2123 C2121 1.384 . S
H2124 C2130 0.930 . S
H2125 C2134 0.930 . S
H2126 C2139 0.929 . S
H2127 C2137 0.929 . S
H2128 C2132 0.929 . S
H2129 C2138 0.929 . S
C2130 H2124 0.930 . S
C2130 C2131 1.367 . S
C2130 C2138 1.378 . S
C2131 C2130 1.367 . S
C2131 C2139 1.433 . S
C2132 H2128 0.929 . S
C2132 C2134 1.378 . S
C2132 C2136 1.350 . S
C2133 C2136 1.463 . S
C2133 C2138 1.350 . S
C2133 N2141 1.427 . S
C2134 H2125 0.930 . S
C2134 C2132 1.378 . S
C2134 C2135 1.367 . S
C2135 C2134 1.367 . S
C2135 C2137 1.433 . S
C2136 C2132 1.350 . S
C2136 C2133 1.463 . S
C2136 N2140 1.427 . S
C2137 H2127 0.929 . S
C2137 C2135 1.433 . S
C2137 N2140 1.384 . S
C2138 H2129 0.929 . S
C2138 C2130 1.378 . S
C2138 C2133 1.350 . S
C2139 H2126 0.929 . S
C2139 C2131 1.433 . S
C2139 N2141 1.384 . S
N2140 C2136 1.427 . S
N2140 C2137 1.384 . S
N2141 C2133 1.427 . S
N2141 C2139 1.384 . S
H2142 C2148 0.930 . S
H2143 C2152 0.930 . S
H2144 C2157 0.929 . S
H2145 C2155 0.929 . S
H2146 C2150 0.929 . S
H2147 C2156 0.929 . S
C2148 H2142 0.930 . S
C2148 C2149 1.367 . S
C2148 C2156 1.378 . S
C2149 C2148 1.367 . S
C2149 C2157 1.433 . S
C2150 H2146 0.929 . S
C2150 C2152 1.378 . S
C2150 C2154 1.350 . S
C2151 C2154 1.463 . S
C2151 C2156 1.350 . S
C2151 N2159 1.427 . S
C2152 H2143 0.930 . S
C2152 C2150 1.378 . S
C2152 C2153 1.367 . S
C2153 C2152 1.367 . S
C2153 C2155 1.433 . S
C2154 C2150 1.350 . S
C2154 C2151 1.463 . S
C2154 N2158 1.427 . S
C2155 H2145 0.929 . S
C2155 C2153 1.433 . S
C2155 N2158 1.384 . S
C2156 H2147 0.929 . S
C2156 C2148 1.378 . S
C2156 C2151 1.350 . S
C2157 H2144 0.929 . S
C2157 C2149 1.433 . S
C2157 N2159 1.384 . S
N2158 C2154 1.427 . S
N2158 C2155 1.384 . S
N2159 C2151 1.427 . S
N2159 C2157 1.384 . S
H2160 C2166 0.930 . S
H2161 C2170 0.930 . S
H2162 C2175 0.929 . S
H2163 C2173 0.929 . S
H2164 C2168 0.929 . S
H2165 C2174 0.929 . S
C2166 H2160 0.930 . S
C2166 C2167 1.367 . S
C2166 C2174 1.378 . S
C2167 C2166 1.367 . S
C2167 C2175 1.433 . S
C2168 H2164 0.929 . S
C2168 C2170 1.378 . S
C2168 C2172 1.350 . S
C2169 C2172 1.463 . S
C2169 C2174 1.350 . S
C2169 N2177 1.427 . S
C2170 H2161 0.930 . S
C2170 C2168 1.378 . S
C2170 C2171 1.367 . S
C2171 C2170 1.367 . S
C2171 C2173 1.433 . S
C2172 C2168 1.350 . S
C2172 C2169 1.463 . S
C2172 N2176 1.427 . S
C2173 H2163 0.929 . S
C2173 C2171 1.433 . S
C2173 N2176 1.384 . S
C2174 H2165 0.929 . S
C2174 C2166 1.378 . S
C2174 C2169 1.350 . S
C2175 H2162 0.929 . S
C2175 C2167 1.433 . S
C2175 N2177 1.384 . S
N2176 C2172 1.427 . S
N2176 C2173 1.384 . S
N2177 C2169 1.427 . S
N2177 C2175 1.384 . S
H2178 C2184 0.930 . S
H2179 C2188 0.930 . S
H2180 C2193 0.929 . S
H2181 C2191 0.929 . S
H2182 C2186 0.929 . S
H2183 C2192 0.929 . S
C2184 H2178 0.930 . S
C2184 C2185 1.367 . S
C2184 C2192 1.378 . S
C2185 C2184 1.367 . S
C2185 C2193 1.433 . S
C2186 H2182 0.929 . S
C2186 C2188 1.378 . S
C2186 C2190 1.350 . S
C2187 C2190 1.463 . S
C2187 C2192 1.350 . S
C2187 N2195 1.427 . S
C2188 H2179 0.930 . S
C2188 C2186 1.378 . S
C2188 C2189 1.367 . S
C2189 C2188 1.367 . S
C2189 C2191 1.433 . S
C2190 C2186 1.350 . S
C2190 C2187 1.463 . S
C2190 N2194 1.427 . S
C2191 H2181 0.929 . S
C2191 C2189 1.433 . S
C2191 N2194 1.384 . S
C2192 H2183 0.929 . S
C2192 C2184 1.378 . S
C2192 C2187 1.350 . S
C2193 H2180 0.929 . S
C2193 C2185 1.433 . S
C2193 N2195 1.384 . S
N2194 C2190 1.427 . S
N2194 C2191 1.384 . S
N2195 C2187 1.427 . S
N2195 C2193 1.384 . S
H2196 C2202 0.930 . S
H2197 C2206 0.930 . S
H2198 C2211 0.929 . S
H2199 C2209 0.929 . S
H2200 C2204 0.929 . S
H2201 C2210 0.929 . S
C2202 H2196 0.930 . S
C2202 C2203 1.367 . S
C2202 C2210 1.378 . S
C2203 C2202 1.367 . S
C2203 C2211 1.433 . S
C2204 H2200 0.929 . S
C2204 C2206 1.378 . S
C2204 C2208 1.350 . S
C2205 C2208 1.463 . S
C2205 C2210 1.350 . S
C2205 N2213 1.427 . S
C2206 H2197 0.930 . S
C2206 C2204 1.378 . S
C2206 C2207 1.367 . S
C2207 C2206 1.367 . S
C2207 C2209 1.433 . S
C2208 C2204 1.350 . S
C2208 C2205 1.463 . S
C2208 N2212 1.427 . S
C2209 H2199 0.929 . S
C2209 C2207 1.433 . S
C2209 N2212 1.384 . S
C2210 H2201 0.929 . S
C2210 C2202 1.378 . S
C2210 C2205 1.350 . S
C2211 H2198 0.929 . S
C2211 C2203 1.433 . S
C2211 N2213 1.384 . S
N2212 C2208 1.427 . S
N2212 C2209 1.384 . S
N2213 C2205 1.427 . S
N2213 C2211 1.384 . S
H2214 C2220 0.930 . S
H2215 C2224 0.930 . S
H2216 C2229 0.929 . S
H2217 C2227 0.929 . S
H2218 C2222 0.929 . S
H2219 C2228 0.929 . S
C2220 H2214 0.930 . S
C2220 C2221 1.367 . S
C2220 C2228 1.378 . S
C2221 C2220 1.367 . S
C2221 C2229 1.433 . S
C2222 H2218 0.929 . S
C2222 C2224 1.378 . S
C2222 C2226 1.350 . S
C2223 C2226 1.463 . S
C2223 C2228 1.350 . S
C2223 N2231 1.427 . S
C2224 H2215 0.930 . S
C2224 C2222 1.378 . S
C2224 C2225 1.367 . S
C2225 C2224 1.367 . S
C2225 C2227 1.433 . S
C2226 C2222 1.350 . S
C2226 C2223 1.463 . S
C2226 N2230 1.427 . S
C2227 H2217 0.929 . S
C2227 C2225 1.433 . S
C2227 N2230 1.384 . S
C2228 H2219 0.929 . S
C2228 C2220 1.378 . S
C2228 C2223 1.350 . S
C2229 H2216 0.929 . S
C2229 C2221 1.433 . S
C2229 N2231 1.384 . S
N2230 C2226 1.427 . S
N2230 C2227 1.384 . S
N2231 C2223 1.427 . S
N2231 C2229 1.384 . S
H2232 C2238 0.930 . S
H2233 C2242 0.930 . S
H2234 C2247 0.929 . S
H2235 C2245 0.929 . S
H2236 C2240 0.929 . S
H2237 C2246 0.929 . S
C2238 H2232 0.930 . S
C2238 C2239 1.367 . S
C2238 C2246 1.378 . S
C2239 C2238 1.367 . S
C2239 C2247 1.433 . S
C2240 H2236 0.929 . S
C2240 C2242 1.378 . S
C2240 C2244 1.350 . S
C2241 C2244 1.463 . S
C2241 C2246 1.350 . S
C2241 N2249 1.427 . S
C2242 H2233 0.930 . S
C2242 C2240 1.378 . S
C2242 C2243 1.367 . S
C2243 C2242 1.367 . S
C2243 C2245 1.433 . S
C2244 C2240 1.350 . S
C2244 C2241 1.463 . S
C2244 N2248 1.427 . S
C2245 H2235 0.929 . S
C2245 C2243 1.433 . S
C2245 N2248 1.384 . S
C2246 H2237 0.929 . S
C2246 C2238 1.378 . S
C2246 C2241 1.350 . S
C2247 H2234 0.929 . S
C2247 C2239 1.433 . S
C2247 N2249 1.384 . S
N2248 C2244 1.427 . S
N2248 C2245 1.384 . S
N2249 C2241 1.427 . S
N2249 C2247 1.384 . S
H2250 C2256 0.930 . S
H2251 C2260 0.930 . S
H2252 C2265 0.929 . S
H2253 C2263 0.929 . S
H2254 C2258 0.929 . S
H2255 C2264 0.929 . S
C2256 H2250 0.930 . S
C2256 C2257 1.367 . S
C2256 C2264 1.378 . S
C2257 C2256 1.367 . S
C2257 C2265 1.433 . S
C2258 H2254 0.929 . S
C2258 C2260 1.378 . S
C2258 C2262 1.350 . S
C2259 C2262 1.463 . S
C2259 C2264 1.350 . S
C2259 N2267 1.427 . S
C2260 H2251 0.930 . S
C2260 C2258 1.378 . S
C2260 C2261 1.367 . S
C2261 C2260 1.367 . S
C2261 C2263 1.433 . S
C2262 C2258 1.350 . S
C2262 C2259 1.463 . S
C2262 N2266 1.427 . S
C2263 H2253 0.929 . S
C2263 C2261 1.433 . S
C2263 N2266 1.384 . S
C2264 H2255 0.929 . S
C2264 C2256 1.378 . S
C2264 C2259 1.350 . S
C2265 H2252 0.929 . S
C2265 C2257 1.433 . S
C2265 N2267 1.384 . S
N2266 C2262 1.427 . S
N2266 C2263 1.384 . S
N2267 C2259 1.427 . S
N2267 C2265 1.384 . S
H2268 C2274 0.930 . S
H2269 C2278 0.930 . S
H2270 C2283 0.929 . S
H2271 C2281 0.929 . S
H2272 C2276 0.929 . S
H2273 C2282 0.929 . S
C2274 H2268 0.930 . S
C2274 C2275 1.367 . S
C2274 C2282 1.378 . S
C2275 C2274 1.367 . S
C2275 C2283 1.433 . S
C2276 H2272 0.929 . S
C2276 C2278 1.378 . S
C2276 C2280 1.350 . S
C2277 C2280 1.463 . S
C2277 C2282 1.350 . S
C2277 N2285 1.427 . S
C2278 H2269 0.930 . S
C2278 C2276 1.378 . S
C2278 C2279 1.367 . S
C2279 C2278 1.367 . S
C2279 C2281 1.433 . S
C2280 C2276 1.350 . S
C2280 C2277 1.463 . S
C2280 N2284 1.427 . S
C2281 H2271 0.929 . S
C2281 C2279 1.433 . S
C2281 N2284 1.384 . S
C2282 H2273 0.929 . S
C2282 C2274 1.378 . S
C2282 C2277 1.350 . S
C2283 H2270 0.929 . S
C2283 C2275 1.433 . S
C2283 N2285 1.384 . S
N2284 C2280 1.427 . S
N2284 C2281 1.384 . S
N2285 C2277 1.427 . S
N2285 C2283 1.384 . S
H2286 C2292 0.930 . S
H2287 C2296 0.930 . S
H2288 C2301 0.929 . S
H2289 C2299 0.929 . S
H2290 C2294 0.929 1_554 S
H2291 C2300 0.929 . S
C2292 H2286 0.930 . S
C2292 C2293 1.367 1_556 S
C2292 C2300 1.378 . S
C2293 C2292 1.367 1_554 S
C2293 C2301 1.433 . S
C2294 H2290 0.929 1_556 S
C2294 C2296 1.378 . S
C2294 C2298 1.350 . S
C2295 C2298 1.463 . S
C2295 C2300 1.350 . S
C2295 N2303 1.427 1_556 S
C2296 H2287 0.930 . S
C2296 C2294 1.378 . S
C2296 C2297 1.367 . S
C2297 C2296 1.367 . S
C2297 C2299 1.433 . S
C2298 C2294 1.350 . S
C2298 C2295 1.463 . S
C2298 N2302 1.427 . S
C2299 H2289 0.929 . S
C2299 C2297 1.433 . S
C2299 N2302 1.384 . S
C2300 H2291 0.929 . S
C2300 C2292 1.378 . S
C2300 C2295 1.350 . S
C2301 H2288 0.929 . S
C2301 C2293 1.433 . S
C2301 N2303 1.384 . S
N2302 C2298 1.427 . S
N2302 C2299 1.384 . S
N2303 C2295 1.427 1_554 S
N2303 C2301 1.384 . S
H2304 C2310 0.930 . S
H2305 C2314 0.930 . S
H2306 C2319 0.929 . S
H2307 C2317 0.929 . S
H2308 C2312 0.929 . S
H2309 C2318 0.929 . S
C2310 H2304 0.930 . S
C2310 C2311 1.367 . S
C2310 C2318 1.378 . S
C2311 C2310 1.367 . S
C2311 C2319 1.433 1_556 S
C2312 H2308 0.929 . S
C2312 C2314 1.378 . S
C2312 C2316 1.350 . S
C2313 C2316 1.463 . S
C2313 C2318 1.350 . S
C2313 N2321 1.427 . S
C2314 H2305 0.930 . S
C2314 C2312 1.378 . S
C2314 C2315 1.367 . S
C2315 C2314 1.367 . S
C2315 C2317 1.433 . S
C2316 C2312 1.350 . S
C2316 C2313 1.463 . S
C2316 N2320 1.427 . S
C2317 H2307 0.929 . S
C2317 C2315 1.433 . S
C2317 N2320 1.384 . S
C2318 H2309 0.929 . S
C2318 C2310 1.378 . S
C2318 C2313 1.350 . S
C2319 H2306 0.929 . S
C2319 C2311 1.433 1_554 S
C2319 N2321 1.384 1_554 S
N2320 C2316 1.427 . S
N2320 C2317 1.384 . S
N2321 C2313 1.427 . S
N2321 C2319 1.384 1_556 S
H2322 C2328 0.930 . S
H2323 C2332 0.930 . S
H2324 C2337 0.929 . S
H2325 C2335 0.929 . S
H2326 C2330 0.929 . S
H2327 C2336 0.929 1_556 S
C2328 H2322 0.930 . S
C2328 C2329 1.367 . S
C2328 C2336 1.378 . S
C2329 C2328 1.367 . S
C2329 C2337 1.433 . S
C2330 H2326 0.929 . S
C2330 C2332 1.378 . S
C2330 C2334 1.350 . S
C2331 C2334 1.463 . S
C2331 C2336 1.350 . S
C2331 N2339 1.427 . S
C2332 H2323 0.930 . S
C2332 C2330 1.378 . S
C2332 C2333 1.367 1_554 S
C2333 C2332 1.367 1_556 S
C2333 C2335 1.433 . S
C2334 C2330 1.350 . S
C2334 C2331 1.463 . S
C2334 N2338 1.427 1_554 S
C2335 H2325 0.929 . S
C2335 C2333 1.433 . S
C2335 N2338 1.384 . S
C2336 H2327 0.929 1_554 S
C2336 C2328 1.378 . S
C2336 C2331 1.350 . S
C2337 H2324 0.929 . S
C2337 C2329 1.433 . S
C2337 N2339 1.384 . S
N2338 C2334 1.427 1_556 S
N2338 C2335 1.384 . S
N2339 C2331 1.427 . S
N2339 C2337 1.384 . S
H2340 C2346 0.930 . S
H2341 C2350 0.930 . S
H2342 C2355 0.929 . S
H2343 C2353 0.929 . S
H2344 C2348 0.929 . S
H2345 C2354 0.929 . S
C2346 H2340 0.930 . S
C2346 C2347 1.367 . S
C2346 C2354 1.378 . S
C2347 C2346 1.367 . S
C2347 C2355 1.433 1_554 S
C2348 H2344 0.929 . S
C2348 C2350 1.378 . S
C2348 C2352 1.350 . S
C2349 C2352 1.463 . S
C2349 C2354 1.350 1_556 S
C2349 N2357 1.427 . S
C2350 H2341 0.930 . S
C2350 C2348 1.378 . S
C2350 C2351 1.367 . S
C2351 C2350 1.367 . S
C2351 C2353 1.433 . S
C2352 C2348 1.350 . S
C2352 C2349 1.463 . S
C2352 N2356 1.427 . S
C2353 H2343 0.929 . S
C2353 C2351 1.433 . S
C2353 N2356 1.384 . S
C2354 H2345 0.929 . S
C2354 C2346 1.378 . S
C2354 C2349 1.350 1_554 S
C2355 H2342 0.929 . S
C2355 C2347 1.433 1_556 S
C2355 N2357 1.384 . S
N2356 C2352 1.427 . S
N2356 C2353 1.384 . S
N2357 C2349 1.427 . S
N2357 C2355 1.384 . S
H2358 C2364 0.930 . S
H2359 C2368 0.930 . S
H2360 C2373 0.929 . S
H2361 C2371 0.929 . S
H2362 C2366 0.929 . S
H2363 C2372 0.929 . S
C2364 H2358 0.930 . S
C2364 C2365 1.367 . S
C2364 C2372 1.378 . S
C2365 C2364 1.367 . S
C2365 C2373 1.433 . S
C2366 H2362 0.929 . S
C2366 C2368 1.378 . S
C2366 C2370 1.350 . S
C2367 C2370 1.463 . S
C2367 C2372 1.350 . S
C2367 N2375 1.427 . S
C2368 H2359 0.930 . S
C2368 C2366 1.378 . S
C2368 C2369 1.367 . S
C2369 C2368 1.367 . S
C2369 C2371 1.433 . S
C2370 C2366 1.350 . S
C2370 C2367 1.463 . S
C2370 N2374 1.427 . S
C2371 H2361 0.929 . S
C2371 C2369 1.433 . S
C2371 N2374 1.384 . S
C2372 H2363 0.929 . S
C2372 C2364 1.378 . S
C2372 C2367 1.350 . S
C2373 H2360 0.929 . S
C2373 C2365 1.433 . S
C2373 N2375 1.384 . S
N2374 C2370 1.427 . S
N2374 C2371 1.384 . S
N2375 C2367 1.427 . S
N2375 C2373 1.384 . S
H2376 C2382 0.930 . S
H2377 C2386 0.930 . S
H2378 C2391 0.929 1_556 S
H2379 C2389 0.929 1_554 S
H2380 C2384 0.929 . S
H2381 C2390 0.929 . S
C2382 H2376 0.930 . S
C2382 C2383 1.367 . S
C2382 C2390 1.378 . S
C2383 C2382 1.367 . S
C2383 C2391 1.433 . S
C2384 H2380 0.929 . S
C2384 C2386 1.378 . S
C2384 C2388 1.350 . S
C2385 C2388 1.463 1_554 S
C2385 C2390 1.350 . S
C2385 N2393 1.427 1_554 S
C2386 H2377 0.930 . S
C2386 C2384 1.378 . S
C2386 C2387 1.367 . S
C2387 C2386 1.367 . S
C2387 C2389 1.433 . S
C2388 C2384 1.350 . S
C2388 C2385 1.463 1_556 S
C2388 N2392 1.427 1_556 S
C2389 H2379 0.929 1_556 S
C2389 C2387 1.433 . S
C2389 N2392 1.384 1_556 S
C2390 H2381 0.929 . S
C2390 C2382 1.378 . S
C2390 C2385 1.350 . S
C2391 H2378 0.929 1_554 S
C2391 C2383 1.433 . S
C2391 N2393 1.384 1_554 S
N2392 C2388 1.427 1_554 S
N2392 C2389 1.384 1_554 S
N2393 C2385 1.427 1_556 S
N2393 C2391 1.384 1_556 S
H2394 C2400 0.930 . S
H2395 C2404 0.930 . S
H2396 C2409 0.929 . S
H2397 C2407 0.929 . S
H2398 C2402 0.929 . S
H2399 C2408 0.929 . S
C2400 H2394 0.930 . S
C2400 C2401 1.367 . S
C2400 C2408 1.378 . S
C2401 C2400 1.367 . S
C2401 C2409 1.433 . S
C2402 H2398 0.929 . S
C2402 C2404 1.378 . S
C2402 C2406 1.350 . S
C2403 C2406 1.463 . S
C2403 C2408 1.350 . S
C2403 N2411 1.427 . S
C2404 H2395 0.930 . S
C2404 C2402 1.378 . S
C2404 C2405 1.367 . S
C2405 C2404 1.367 . S
C2405 C2407 1.433 . S
C2406 C2402 1.350 . S
C2406 C2403 1.463 . S
C2406 N2410 1.427 . S
C2407 H2397 0.929 . S
C2407 C2405 1.433 . S
C2407 N2410 1.384 . S
C2408 H2399 0.929 . S
C2408 C2400 1.378 . S
C2408 C2403 1.350 . S
C2409 H2396 0.929 . S
C2409 C2401 1.433 . S
C2409 N2411 1.384 . S
N2410 C2406 1.427 . S
N2410 C2407 1.384 . S
N2411 C2403 1.427 . S
N2411 C2409 1.384 . S
H2412 C2418 0.930 . S
H2413 C2422 0.930 . S
H2414 C2427 0.929 . S
H2415 C2425 0.929 . S
H2416 C2420 0.929 . S
H2417 C2426 0.929 . S
C2418 H2412 0.930 . S
C2418 C2419 1.367 . S
C2418 C2426 1.378 . S
C2419 C2418 1.367 . S
C2419 C2427 1.433 . S
C2420 H2416 0.929 . S
C2420 C2422 1.378 . S
C2420 C2424 1.350 . S
C2421 C2424 1.463 . S
C2421 C2426 1.350 . S
C2421 N2429 1.427 . S
C2422 H2413 0.930 . S
C2422 C2420 1.378 . S
C2422 C2423 1.367 . S
C2423 C2422 1.367 . S
C2423 C2425 1.433 . S
C2424 C2420 1.350 . S
C2424 C2421 1.463 . S
C2424 N2428 1.427 . S
C2425 H2415 0.929 . S
C2425 C2423 1.433 . S
C2425 N2428 1.384 . S
C2426 H2417 0.929 . S
C2426 C2418 1.378 . S
C2426 C2421 1.350 . S
C2427 H2414 0.929 . S
C2427 C2419 1.433 . S
C2427 N2429 1.384 . S
N2428 C2424 1.427 . S
N2428 C2425 1.384 . S
N2429 C2421 1.427 . S
N2429 C2427 1.384 . S
H2430 C2436 0.930 . S
H2431 C2440 0.930 . S
H2432 C2445 0.929 . S
H2433 C2443 0.929 . S
H2434 C2438 0.929 . S
H2435 C2444 0.929 . S
C2436 H2430 0.930 . S
C2436 C2437 1.367 . S
C2436 C2444 1.378 . S
C2437 C2436 1.367 . S
C2437 C2445 1.433 . S
C2438 H2434 0.929 . S
C2438 C2440 1.378 . S
C2438 C2442 1.350 . S
C2439 C2442 1.463 . S
C2439 C2444 1.350 . S
C2439 N2447 1.427 . S
C2440 H2431 0.930 . S
C2440 C2438 1.378 . S
C2440 C2441 1.367 . S
C2441 C2440 1.367 . S
C2441 C2443 1.433 . S
C2442 C2438 1.350 . S
C2442 C2439 1.463 . S
C2442 N2446 1.427 . S
C2443 H2433 0.929 . S
C2443 C2441 1.433 . S
C2443 N2446 1.384 . S
C2444 H2435 0.929 . S
C2444 C2436 1.378 . S
C2444 C2439 1.350 . S
C2445 H2432 0.929 . S
C2445 C2437 1.433 . S
C2445 N2447 1.384 . S
N2446 C2442 1.427 . S
N2446 C2443 1.384 . S
N2447 C2439 1.427 . S
N2447 C2445 1.384 . S
H2448 C2454 0.930 . S
H2449 C2458 0.930 . S
H2450 C2463 0.929 . S
H2451 C2461 0.929 . S
H2452 C2456 0.929 . S
H2453 C2462 0.929 . S
C2454 H2448 0.930 . S
C2454 C2455 1.367 . S
C2454 C2462 1.378 . S
C2455 C2454 1.367 . S
C2455 C2463 1.433 . S
C2456 H2452 0.929 . S
C2456 C2458 1.378 . S
C2456 C2460 1.350 . S
C2457 C2460 1.463 . S
C2457 C2462 1.350 . S
C2457 N2465 1.427 . S
C2458 H2449 0.930 . S
C2458 C2456 1.378 . S
C2458 C2459 1.367 . S
C2459 C2458 1.367 . S
C2459 C2461 1.433 . S
C2460 C2456 1.350 . S
C2460 C2457 1.463 . S
C2460 N2464 1.427 . S
C2461 H2451 0.929 . S
C2461 C2459 1.433 . S
C2461 N2464 1.384 . S
C2462 H2453 0.929 . S
C2462 C2454 1.378 . S
C2462 C2457 1.350 . S
C2463 H2450 0.929 . S
C2463 C2455 1.433 . S
C2463 N2465 1.384 . S
N2464 C2460 1.427 . S
N2464 C2461 1.384 . S
N2465 C2457 1.427 . S
N2465 C2463 1.384 . S
H2466 C2472 0.930 . S
H2467 C2476 0.930 . S
H2468 C2481 0.929 . S
H2469 C2479 0.929 . S
H2470 C2474 0.929 . S
H2471 C2480 0.929 . S
C2472 H2466 0.930 . S
C2472 C2473 1.367 . S
C2472 C2480 1.378 . S
C2473 C2472 1.367 . S
C2473 C2481 1.433 . S
C2474 H2470 0.929 . S
C2474 C2476 1.378 . S
C2474 C2478 1.350 . S
C2475 C2478 1.463 . S
C2475 C2480 1.350 . S
C2475 N2483 1.427 . S
C2476 H2467 0.930 . S
C2476 C2474 1.378 . S
C2476 C2477 1.367 . S
C2477 C2476 1.367 . S
C2477 C2479 1.433 . S
C2478 C2474 1.350 . S
C2478 C2475 1.463 . S
C2478 N2482 1.427 . S
C2479 H2469 0.929 . S
C2479 C2477 1.433 . S
C2479 N2482 1.384 . S
C2480 H2471 0.929 . S
C2480 C2472 1.378 . S
C2480 C2475 1.350 . S
C2481 H2468 0.929 . S
C2481 C2473 1.433 . S
C2481 N2483 1.384 . S
N2482 C2478 1.427 . S
N2482 C2479 1.384 . S
N2483 C2475 1.427 . S
N2483 C2481 1.384 . S
H2484 C2490 0.930 . S
H2485 C2494 0.930 . S
H2486 C2499 0.929 1_455 S
H2487 C2497 0.929 . S
H2488 C2492 0.929 . S
H2489 C2498 0.929 . S
C2490 H2484 0.930 . S
C2490 C2491 1.320 1_655 S
C2490 C2498 1.378 . S
C2491 C2490 1.320 1_455 S
C2491 C2499 1.445 1_455 S
C2492 H2488 0.929 . S
C2492 C2494 1.378 . S
C2492 C2496 1.350 . S
C2493 C2496 1.463 . S
C2493 C2498 1.350 . S
C2493 N2501 1.427 . S
C2494 H2485 0.930 . S
C2494 C2492 1.378 . S
C2494 C2495 1.367 . S
C2495 C2494 1.367 . S
C2495 C2497 1.433 . S
C2496 C2492 1.350 . S
C2496 C2493 1.463 . S
C2496 N2500 1.427 . S
C2497 H2487 0.929 . S
C2497 C2495 1.433 . S
C2497 N2500 1.384 . S
C2498 H2489 0.929 . S
C2498 C2490 1.378 . S
C2498 C2493 1.350 . S
C2499 H2486 0.929 1_655 S
C2499 C2491 1.445 1_655 S
C2499 N2501 1.384 . S
N2500 C2496 1.427 . S
N2500 C2497 1.384 . S
N2501 C2493 1.427 . S
N2501 C2499 1.384 . S
H2502 C2508 0.930 . S
H2503 C2512 0.930 . S
H2504 C2517 0.929 . S
H2505 C2515 0.929 . S
H2506 C2510 0.929 . S
H2507 C2516 0.929 . S
C2508 H2502 0.930 . S
C2508 C2509 1.367 . S
C2508 C2516 1.378 . S
C2509 C2508 1.367 . S
C2509 C2517 1.433 . S
C2510 H2506 0.929 . S
C2510 C2512 1.378 . S
C2510 C2514 1.350 . S
C2511 C2514 1.463 . S
C2511 C2516 1.350 . S
C2511 N2519 1.427 . S
C2512 H2503 0.930 . S
C2512 C2510 1.378 . S
C2512 C2513 1.367 . S
C2513 C2512 1.367 . S
C2513 C2515 1.433 . S
C2514 C2510 1.350 . S
C2514 C2511 1.463 . S
C2514 N2518 1.427 . S
C2515 H2505 0.929 . S
C2515 C2513 1.433 . S
C2515 N2518 1.384 . S
C2516 H2507 0.929 . S
C2516 C2508 1.378 . S
C2516 C2511 1.350 . S
C2517 H2504 0.929 . S
C2517 C2509 1.433 . S
C2517 N2519 1.384 . S
N2518 C2514 1.427 . S
N2518 C2515 1.384 . S
N2519 C2511 1.427 . S
N2519 C2517 1.384 . S
H2520 C2526 0.930 . S
H2521 C2530 0.930 . S
H2522 C2535 0.929 . S
H2523 C2533 0.929 . S
H2524 C2528 0.929 . S
H2525 C2534 0.929 . S
C2526 H2520 0.930 . S
C2526 C2527 1.367 . S
C2526 C2534 1.378 . S
C2527 C2526 1.367 . S
C2527 C2535 1.433 . S
C2528 H2524 0.929 . S
C2528 C2530 1.378 . S
C2528 C2532 1.350 . S
C2529 C2532 1.463 . S
C2529 C2534 1.350 . S
C2529 N2537 1.427 . S
C2530 H2521 0.930 . S
C2530 C2528 1.378 . S
C2530 C2531 1.367 . S
C2531 C2530 1.367 . S
C2531 C2533 1.433 . S
C2532 C2528 1.350 . S
C2532 C2529 1.463 . S
C2532 N2536 1.427 . S
C2533 H2523 0.929 . S
C2533 C2531 1.433 . S
C2533 N2536 1.384 . S
C2534 H2525 0.929 . S
C2534 C2526 1.378 . S
C2534 C2529 1.350 . S
C2535 H2522 0.929 . S
C2535 C2527 1.433 . S
C2535 N2537 1.384 . S
N2536 C2532 1.427 . S
N2536 C2533 1.384 . S
N2537 C2529 1.427 . S
N2537 C2535 1.384 . S
H2538 C2544 0.930 . S
H2539 C2548 0.930 1_545 S
H2540 C2553 0.929 . S
H2541 C2551 0.929 . S
H2542 C2546 0.929 1_545 S
H2543 C2552 0.929 . S
C2544 H2538 0.930 . S
C2544 C2545 1.367 . S
C2544 C2552 1.378 . S
C2545 C2544 1.367 . S
C2545 C2553 1.433 . S
C2546 H2542 0.929 1_565 S
C2546 C2548 1.378 . S
C2546 C2550 1.350 . S
C2547 C2550 1.463 . S
C2547 C2552 1.350 . S
C2547 N2555 1.427 . S
C2548 H2539 0.930 1_565 S
C2548 C2546 1.378 . S
C2548 C2549 1.367 . S
C2549 C2548 1.367 . S
C2549 C2551 1.433 . S
C2550 C2546 1.350 . S
C2550 C2547 1.463 . S
C2550 N2554 1.427 . S
C2551 H2541 0.929 . S
C2551 C2549 1.433 . S
C2551 N2554 1.384 . S
C2552 H2543 0.929 . S
C2552 C2544 1.378 . S
C2552 C2547 1.350 . S
C2553 H2540 0.929 . S
C2553 C2545 1.433 . S
C2553 N2555 1.384 . S
N2554 C2550 1.427 . S
N2554 C2551 1.384 . S
N2555 C2547 1.427 . S
N2555 C2553 1.384 . S
H2556 C2562 0.930 . S
H2557 C2566 0.930 . S
H2558 C2571 0.929 . S
H2559 C2569 0.929 . S
H2560 C2564 0.929 . S
H2561 C2570 0.929 1_545 S
C2562 H2556 0.930 . S
C2562 C2563 1.367 . S
C2562 C2570 1.378 . S
C2563 C2562 1.367 . S
C2563 C2571 1.433 . S
C2564 H2560 0.929 . S
C2564 C2566 1.378 . S
C2564 C2568 1.350 . S
C2565 C2568 1.463 . S
C2565 C2570 1.350 . S
C2565 N2573 1.427 . S
C2566 H2557 0.930 . S
C2566 C2564 1.378 . S
C2566 C2567 1.367 . S
C2567 C2566 1.367 . S
C2567 C2569 1.433 1_565 S
C2568 C2564 1.350 . S
C2568 C2565 1.463 . S
C2568 N2572 1.427 1_565 S
C2569 H2559 0.929 . S
C2569 C2567 1.433 1_545 S
C2569 N2572 1.384 . S
C2570 H2561 0.929 1_565 S
C2570 C2562 1.378 . S
C2570 C2565 1.350 . S
C2571 H2558 0.929 . S
C2571 C2563 1.433 . S
C2571 N2573 1.384 . S
N2572 C2568 1.427 1_545 S
N2572 C2569 1.384 . S
N2573 C2565 1.427 . S
N2573 C2571 1.384 . S
H2574 C2580 0.930 . S
H2575 C2584 0.930 . S
H2576 C2589 0.929 . S
H2577 C2587 0.929 . S
H2578 C2582 0.929 . S
H2579 C2588 0.929 . S
C2580 H2574 0.930 . S
C2580 C2581 1.367 . S
C2580 C2588 1.378 . S
C2581 C2580 1.367 . S
C2581 C2589 1.433 . S
C2582 H2578 0.929 . S
C2582 C2584 1.378 . S
C2582 C2586 1.350 . S
C2583 C2586 1.463 . S
C2583 C2588 1.350 . S
C2583 N2591 1.427 . S
C2584 H2575 0.930 . S
C2584 C2582 1.378 . S
C2584 C2585 1.367 1_455 S
C2585 C2584 1.367 1_655 S
C2585 C2587 1.433 . S
C2586 C2582 1.350 . S
C2586 C2583 1.463 . S
C2586 N2590 1.427 . S
C2587 H2577 0.929 . S
C2587 C2585 1.433 . S
C2587 N2590 1.384 1_655 S
C2588 H2579 0.929 . S
C2588 C2580 1.378 . S
C2588 C2583 1.350 . S
C2589 H2576 0.929 . S
C2589 C2581 1.433 . S
C2589 N2591 1.384 . S
N2590 C2586 1.427 . S
N2590 C2587 1.384 1_455 S
N2591 C2583 1.427 . S
N2591 C2589 1.384 . S
H2592 C2598 0.930 . S
H2593 C2602 0.930 . S
H2594 C2607 0.929 . S
H2595 C2605 0.929 . S
H2596 C2600 0.929 . S
H2597 C2606 0.929 . S
C2598 H2592 0.930 . S
C2598 C2599 1.367 . S
C2598 C2606 1.378 . S
C2599 C2598 1.367 . S
C2599 C2607 1.433 . S
C2600 H2596 0.929 . S
C2600 C2602 1.378 . S
C2600 C2604 1.350 . S
C2601 C2604 1.463 . S
C2601 C2606 1.350 . S
C2601 N2609 1.427 . S
C2602 H2593 0.930 . S
C2602 C2600 1.378 . S
C2602 C2603 1.367 . S
C2603 C2602 1.367 . S
C2603 C2605 1.433 . S
C2604 C2600 1.350 . S
C2604 C2601 1.463 . S
C2604 N2608 1.427 . S
C2605 H2595 0.929 . S
C2605 C2603 1.433 . S
C2605 N2608 1.384 . S
C2606 H2597 0.929 . S
C2606 C2598 1.378 . S
C2606 C2601 1.350 . S
C2607 H2594 0.929 . S
C2607 C2599 1.433 . S
C2607 N2609 1.384 . S
N2608 C2604 1.427 . S
N2608 C2605 1.384 . S
N2609 C2601 1.427 . S
N2609 C2607 1.384 . S
H2610 C2616 0.930 . S
H2611 C2620 0.930 . S
H2612 C2625 0.929 . S
H2613 C2623 0.929 . S
H2614 C2618 0.929 . S
H2615 C2624 0.929 . S
C2616 H2610 0.930 . S
C2616 C2617 1.367 . S
C2616 C2624 1.378 . S
C2617 C2616 1.367 . S
C2617 C2625 1.433 . S
C2618 H2614 0.929 . S
C2618 C2620 1.378 . S
C2618 C2622 1.350 . S
C2619 C2622 1.463 . S
C2619 C2624 1.350 . S
C2619 N2627 1.427 . S
C2620 H2611 0.930 . S
C2620 C2618 1.378 . S
C2620 C2621 1.367 . S
C2621 C2620 1.367 . S
C2621 C2623 1.433 . S
C2622 C2618 1.350 . S
C2622 C2619 1.463 . S
C2622 N2626 1.427 . S
C2623 H2613 0.929 . S
C2623 C2621 1.433 . S
C2623 N2626 1.384 . S
C2624 H2615 0.929 . S
C2624 C2616 1.378 . S
C2624 C2619 1.350 . S
C2625 H2612 0.929 . S
C2625 C2617 1.433 . S
C2625 N2627 1.384 . S
N2626 C2622 1.427 . S
N2626 C2623 1.384 . S
N2627 C2619 1.427 . S
N2627 C2625 1.384 . S
H2628 C2634 0.930 . S
H2629 C2638 0.930 . S
H2630 C2643 0.929 . S
H2631 C2641 0.929 . S
H2632 C2636 0.929 . S
H2633 C2642 0.929 . S
C2634 H2628 0.930 . S
C2634 C2635 1.367 . S
C2634 C2642 1.378 . S
C2635 C2634 1.367 . S
C2635 C2643 1.433 . S
C2636 H2632 0.929 . S
C2636 C2638 1.378 . S
C2636 C2640 1.350 . S
C2637 C2640 1.463 . S
C2637 C2642 1.350 . S
C2637 N2645 1.427 . S
C2638 H2629 0.930 . S
C2638 C2636 1.378 . S
C2638 C2639 1.367 . S
C2639 C2638 1.367 . S
C2639 C2641 1.433 . S
C2640 C2636 1.350 . S
C2640 C2637 1.463 . S
C2640 N2644 1.427 . S
C2641 H2631 0.929 . S
C2641 C2639 1.433 . S
C2641 N2644 1.384 . S
C2642 H2633 0.929 . S
C2642 C2634 1.378 . S
C2642 C2637 1.350 . S
C2643 H2630 0.929 . S
C2643 C2635 1.433 . S
C2643 N2645 1.384 . S
N2644 C2640 1.427 . S
N2644 C2641 1.384 . S
N2645 C2637 1.427 . S
N2645 C2643 1.384 . S
H2646 C2652 0.930 . S
H2647 C2656 0.930 . S
H2648 C2661 0.929 . S
H2649 C2659 0.929 . S
H2650 C2654 0.929 . S
H2651 C2660 0.929 . S
C2652 H2646 0.930 . S
C2652 C2653 1.367 . S
C2652 C2660 1.378 . S
C2653 C2652 1.367 . S
C2653 C2661 1.433 . S
C2654 H2650 0.929 . S
C2654 C2656 1.378 . S
C2654 C2658 1.350 . S
C2655 C2658 1.463 . S
C2655 C2660 1.350 . S
C2655 N2663 1.427 . S
C2656 H2647 0.930 . S
C2656 C2654 1.378 . S
C2656 C2657 1.367 . S
C2657 C2656 1.367 . S
C2657 C2659 1.433 . S
C2658 C2654 1.350 . S
C2658 C2655 1.463 . S
C2658 N2662 1.427 . S
C2659 H2649 0.929 . S
C2659 C2657 1.433 . S
C2659 N2662 1.384 . S
C2660 H2651 0.929 . S
C2660 C2652 1.378 . S
C2660 C2655 1.350 . S
C2661 H2648 0.929 . S
C2661 C2653 1.433 . S
C2661 N2663 1.384 . S
N2662 C2658 1.427 . S
N2662 C2659 1.384 . S
N2663 C2655 1.427 . S
N2663 C2661 1.384 . S
H2664 C2670 0.930 . S
H2665 C2674 0.965 . S
H2666 C2679 0.929 . S
H2667 C2677 0.929 . S
H2668 C2672 0.929 1_565 S
H2669 C2678 0.929 . S
C2670 H2664 0.930 . S
C2670 C2671 1.367 . S
C2670 C2678 1.378 . S
C2671 C2670 1.367 . S
C2671 C2679 1.433 . S
C2672 H2668 0.929 1_545 S
C2672 C2674 1.357 1_545 S
C2672 C2676 1.350 . S
C2673 C2676 1.463 . S
C2673 C2678 1.350 . S
C2673 N2681 1.427 . S
C2674 H2665 0.965 . S
C2674 C2672 1.357 1_565 S
C2674 C2675 1.354 1_565 S
C2675 C2674 1.354 1_545 S
C2675 C2677 1.433 . S
C2676 C2672 1.350 . S
C2676 C2673 1.463 . S
C2676 N2680 1.427 . S
C2677 H2667 0.929 . S
C2677 C2675 1.433 . S
C2677 N2680 1.384 . S
C2678 H2669 0.929 . S
C2678 C2670 1.378 . S
C2678 C2673 1.350 . S
C2679 H2666 0.929 . S
C2679 C2671 1.433 . S
C2679 N2681 1.384 . S
N2680 C2676 1.427 . S
N2680 C2677 1.384 . S
N2681 C2673 1.427 . S
N2681 C2679 1.384 . S
H2682 C2688 0.930 . S
H2683 C2692 0.930 . S
H2684 C2697 0.929 . S
H2685 C2695 0.929 . S
H2686 C2690 0.929 . S
H2687 C2696 0.929 . S
C2688 H2682 0.930 . S
C2688 C2689 1.367 . S
C2688 C2696 1.378 . S
C2689 C2688 1.367 . S
C2689 C2697 1.433 . S
C2690 H2686 0.929 . S
C2690 C2692 1.378 . S
C2690 C2694 1.350 . S
C2691 C2694 1.463 . S
C2691 C2696 1.350 . S
C2691 N2699 1.427 . S
C2692 H2683 0.930 . S
C2692 C2690 1.378 . S
C2692 C2693 1.367 . S
C2693 C2692 1.367 . S
C2693 C2695 1.433 . S
C2694 C2690 1.350 . S
C2694 C2691 1.463 . S
C2694 N2698 1.427 . S
C2695 H2685 0.929 . S
C2695 C2693 1.433 . S
C2695 N2698 1.384 . S
C2696 H2687 0.929 . S
C2696 C2688 1.378 . S
C2696 C2691 1.350 . S
C2697 H2684 0.929 . S
C2697 C2689 1.433 . S
C2697 N2699 1.384 . S
N2698 C2694 1.427 . S
N2698 C2695 1.384 . S
N2699 C2691 1.427 . S
N2699 C2697 1.384 . S
H2700 C2706 0.930 . S
H2701 C2710 0.930 . S
H2702 C2715 0.929 . S
H2703 C2713 0.929 . S
H2704 C2708 0.929 . S
H2705 C2714 0.929 . S
C2706 H2700 0.930 . S
C2706 C2707 1.367 . S
C2706 C2714 1.378 . S
C2707 C2706 1.367 . S
C2707 C2715 1.433 . S
C2708 H2704 0.929 . S
C2708 C2710 1.378 . S
C2708 C2712 1.350 . S
C2709 C2712 1.463 . S
C2709 C2714 1.350 . S
C2709 N2717 1.427 . S
C2710 H2701 0.930 . S
C2710 C2708 1.378 . S
C2710 C2711 1.367 . S
C2711 C2710 1.367 . S
C2711 C2713 1.433 . S
C2712 C2708 1.350 . S
C2712 C2709 1.463 . S
C2712 N2716 1.427 . S
C2713 H2703 0.929 . S
C2713 C2711 1.433 . S
C2713 N2716 1.384 . S
C2714 H2705 0.929 . S
C2714 C2706 1.378 . S
C2714 C2709 1.350 . S
C2715 H2702 0.929 . S
C2715 C2707 1.433 . S
C2715 N2717 1.384 . S
N2716 C2712 1.427 . S
N2716 C2713 1.384 . S
N2717 C2709 1.427 . S
N2717 C2715 1.384 . S
H2718 C2724 0.930 . S
H2719 C2728 0.930 . S
H2720 C2733 0.929 . S
H2721 C2731 0.929 . S
H2722 C2726 0.929 . S
H2723 C2732 0.929 . S
C2724 H2718 0.930 . S
C2724 C2725 1.367 . S
C2724 C2732 1.378 . S
C2725 C2724 1.367 . S
C2725 C2733 1.433 . S
C2726 H2722 0.929 . S
C2726 C2728 1.378 . S
C2726 C2730 1.350 . S
C2727 C2730 1.463 . S
C2727 C2732 1.350 . S
C2727 N2735 1.427 . S
C2728 H2719 0.930 . S
C2728 C2726 1.378 . S
C2728 C2729 1.367 . S
C2729 C2728 1.367 . S
C2729 C2731 1.433 . S
C2730 C2726 1.350 . S
C2730 C2727 1.463 . S
C2730 N2734 1.427 . S
C2731 H2721 0.929 . S
C2731 C2729 1.433 . S
C2731 N2734 1.384 . S
C2732 H2723 0.929 . S
C2732 C2724 1.378 . S
C2732 C2727 1.350 . S
C2733 H2720 0.929 . S
C2733 C2725 1.433 . S
C2733 N2735 1.384 . S
N2734 C2730 1.427 . S
N2734 C2731 1.384 . S
N2735 C2727 1.427 . S
N2735 C2733 1.384 . S
H2736 C2742 0.930 . S
H2737 C2746 0.930 . S
H2738 C2751 0.929 . S
H2739 C2749 0.929 . S
H2740 C2744 0.929 . S
H2741 C2750 0.929 . S
C2742 H2736 0.930 . S
C2742 C2743 1.367 . S
C2742 C2750 1.378 . S
C2743 C2742 1.367 . S
C2743 C2751 1.433 . S
C2744 H2740 0.929 . S
C2744 C2746 1.378 . S
C2744 C2748 1.350 . S
C2745 C2748 1.463 . S
C2745 C2750 1.350 . S
C2745 N2753 1.427 . S
C2746 H2737 0.930 . S
C2746 C2744 1.378 . S
C2746 C2747 1.367 . S
C2747 C2746 1.367 . S
C2747 C2749 1.433 . S
C2748 C2744 1.350 . S
C2748 C2745 1.463 . S
C2748 N2752 1.427 . S
C2749 H2739 0.929 . S
C2749 C2747 1.433 . S
C2749 N2752 1.384 . S
C2750 H2741 0.929 . S
C2750 C2742 1.378 . S
C2750 C2745 1.350 . S
C2751 H2738 0.929 . S
C2751 C2743 1.433 . S
C2751 N2753 1.384 . S
N2752 C2748 1.427 . S
N2752 C2749 1.384 . S
N2753 C2745 1.427 . S
N2753 C2751 1.384 . S
H2754 C2760 0.930 . S
H2755 C2764 0.930 . S
H2756 C2769 0.929 . S
H2757 C2767 0.929 . S
H2758 C2762 0.929 . S
H2759 C2768 0.929 . S
C2760 H2754 0.930 . S
C2760 C2761 1.367 . S
C2760 C2768 1.378 . S
C2761 C2760 1.367 . S
C2761 C2769 1.433 . S
C2762 H2758 0.929 . S
C2762 C2764 1.378 . S
C2762 C2766 1.350 . S
C2763 C2766 1.463 . S
C2763 C2768 1.350 . S
C2763 N2771 1.427 . S
C2764 H2755 0.930 . S
C2764 C2762 1.378 . S
C2764 C2765 1.367 . S
C2765 C2764 1.367 . S
C2765 C2767 1.433 . S
C2766 C2762 1.350 . S
C2766 C2763 1.463 . S
C2766 N2770 1.427 . S
C2767 H2757 0.929 . S
C2767 C2765 1.433 . S
C2767 N2770 1.384 . S
C2768 H2759 0.929 . S
C2768 C2760 1.378 . S
C2768 C2763 1.350 . S
C2769 H2756 0.929 . S
C2769 C2761 1.433 . S
C2769 N2771 1.384 . S
N2770 C2766 1.427 . S
N2770 C2767 1.384 . S
N2771 C2763 1.427 . S
N2771 C2769 1.384 . S
H2772 C2778 0.930 . S
H2773 C2782 0.930 . S
H2774 C2787 0.929 . S
H2775 C2785 0.929 . S
H2776 C2780 0.929 . S
H2777 C2786 0.929 . S
C2778 H2772 0.930 . S
C2778 C2779 1.367 . S
C2778 C2786 1.378 . S
C2779 C2778 1.367 . S
C2779 C2787 1.433 . S
C2780 H2776 0.929 . S
C2780 C2782 1.378 . S
C2780 C2784 1.350 . S
C2781 C2784 1.463 . S
C2781 C2786 1.350 . S
C2781 N2789 1.427 . S
C2782 H2773 0.930 . S
C2782 C2780 1.378 . S
C2782 C2783 1.367 . S
C2783 C2782 1.367 . S
C2783 C2785 1.433 . S
C2784 C2780 1.350 . S
C2784 C2781 1.463 . S
C2784 N2788 1.427 . S
C2785 H2775 0.929 . S
C2785 C2783 1.433 . S
C2785 N2788 1.384 . S
C2786 H2777 0.929 . S
C2786 C2778 1.378 . S
C2786 C2781 1.350 . S
C2787 H2774 0.929 . S
C2787 C2779 1.433 . S
C2787 N2789 1.384 . S
N2788 C2784 1.427 . S
N2788 C2785 1.384 . S
N2789 C2781 1.427 . S
N2789 C2787 1.384 . S
H2790 C2796 0.930 . S
H2791 C2800 0.930 . S
H2792 C2805 0.929 . S
H2793 C2803 0.929 . S
H2794 C2798 0.929 . S
H2795 C2804 0.929 . S
C2796 H2790 0.930 . S
C2796 C2797 1.367 . S
C2796 C2804 1.378 . S
C2797 C2796 1.367 . S
C2797 C2805 1.433 . S
C2798 H2794 0.929 . S
C2798 C2800 1.378 . S
C2798 C2802 1.350 . S
C2799 C2802 1.463 . S
C2799 C2804 1.350 . S
C2799 N2807 1.427 . S
C2800 H2791 0.930 . S
C2800 C2798 1.378 . S
C2800 C2801 1.367 . S
C2801 C2800 1.367 . S
C2801 C2803 1.433 . S
C2802 C2798 1.350 . S
C2802 C2799 1.463 . S
C2802 N2806 1.427 . S
C2803 H2793 0.929 . S
C2803 C2801 1.433 . S
C2803 N2806 1.384 . S
C2804 H2795 0.929 . S
C2804 C2796 1.378 . S
C2804 C2799 1.350 . S
C2805 H2792 0.929 . S
C2805 C2797 1.433 . S
C2805 N2807 1.384 . S
N2806 C2802 1.427 . S
N2806 C2803 1.384 . S
N2807 C2799 1.427 . S
N2807 C2805 1.384 . S
H2808 C2814 0.930 . S
H2809 C2818 0.930 . S
H2810 C2823 0.929 1_655 S
H2811 C2821 0.929 . S
H2812 C2816 0.929 . S
H2813 C2822 0.929 . S
C2814 H2808 0.930 . S
C2814 C2815 1.367 . S
C2814 C2822 1.378 . S
C2815 C2814 1.367 . S
C2815 C2823 1.433 . S
C2816 H2812 0.929 . S
C2816 C2818 1.378 . S
C2816 C2820 1.350 . S
C2817 C2820 1.463 . S
C2817 C2822 1.350 . S
C2817 N2825 1.427 . S
C2818 H2809 0.930 . S
C2818 C2816 1.378 . S
C2818 C2819 1.367 . S
C2819 C2818 1.367 . S
C2819 C2821 1.433 . S
C2820 C2816 1.350 . S
C2820 C2817 1.463 . S
C2820 N2824 1.427 . S
C2821 H2811 0.929 . S
C2821 C2819 1.433 . S
C2821 N2824 1.384 . S
C2822 H2813 0.929 . S
C2822 C2814 1.378 . S
C2822 C2817 1.350 . S
C2823 H2810 0.929 1_455 S
C2823 C2815 1.433 . S
C2823 N2825 1.384 . S
N2824 C2820 1.427 . S
N2824 C2821 1.384 . S
N2825 C2817 1.427 . S
N2825 C2823 1.384 . S
H2826 C2832 0.930 . S
H2827 C2836 0.930 . S
H2828 C2841 0.929 . S
H2829 C2839 0.929 . S
H2830 C2834 0.929 . S
H2831 C2840 0.929 . S
C2832 H2826 0.930 . S
C2832 C2833 1.367 . S
C2832 C2840 1.378 . S
C2833 C2832 1.367 . S
C2833 C2841 1.433 . S
C2834 H2830 0.929 . S
C2834 C2836 1.378 . S
C2834 C2838 1.350 . S
C2835 C2838 1.463 . S
C2835 C2840 1.350 . S
C2835 N2843 1.427 . S
C2836 H2827 0.930 . S
C2836 C2834 1.378 . S
C2836 C2837 1.367 . S
C2837 C2836 1.367 . S
C2837 C2839 1.433 1_655 S
C2838 C2834 1.350 . S
C2838 C2835 1.463 . S
C2838 N2842 1.427 . S
C2839 H2829 0.929 . S
C2839 C2837 1.433 1_455 S
C2839 N2842 1.384 1_455 S
C2840 H2831 0.929 . S
C2840 C2832 1.378 . S
C2840 C2835 1.350 . S
C2841 H2828 0.929 . S
C2841 C2833 1.433 . S
C2841 N2843 1.384 . S
N2842 C2838 1.427 . S
N2842 C2839 1.384 1_655 S
N2843 C2835 1.427 . S
N2843 C2841 1.384 . S
H2844 C2850 0.930 . S
H2845 C2854 0.930 . S
H2846 C2859 0.929 . S
H2847 C2857 0.929 . S
H2848 C2852 0.929 . S
H2849 C2858 0.929 . S
C2850 H2844 0.930 . S
C2850 C2851 1.367 . S
C2850 C2858 1.378 . S
C2851 C2850 1.367 . S
C2851 C2859 1.433 . S
C2852 H2848 0.929 . S
C2852 C2854 1.378 . S
C2852 C2856 1.350 . S
C2853 C2856 1.463 . S
C2853 C2858 1.350 . S
C2853 N2861 1.427 . S
C2854 H2845 0.930 . S
C2854 C2852 1.378 . S
C2854 C2855 1.367 . S
C2855 C2854 1.367 . S
C2855 C2857 1.433 . S
C2856 C2852 1.350 . S
C2856 C2853 1.463 . S
C2856 N2860 1.427 . S
C2857 H2847 0.929 . S
C2857 C2855 1.433 . S
C2857 N2860 1.384 . S
C2858 H2849 0.929 . S
C2858 C2850 1.378 . S
C2858 C2853 1.350 . S
C2859 H2846 0.929 . S
C2859 C2851 1.433 . S
C2859 N2861 1.384 . S
N2860 C2856 1.427 . S
N2860 C2857 1.384 . S
N2861 C2853 1.427 . S
N2861 C2859 1.384 . S
H2862 C2868 0.930 . S
H2863 C2872 0.930 . S
H2864 C2877 0.929 . S
H2865 C2875 0.929 . S
H2866 C2870 0.929 . S
H2867 C2876 0.929 1_565 S
C2868 H2862 0.930 . S
C2868 C2869 1.367 . S
C2868 C2876 1.378 . S
C2869 C2868 1.367 . S
C2869 C2877 1.433 . S
C2870 H2866 0.929 . S
C2870 C2872 1.378 . S
C2870 C2874 1.350 . S
C2871 C2874 1.463 . S
C2871 C2876 1.350 . S
C2871 N2879 1.427 . S
C2872 H2863 0.930 . S
C2872 C2870 1.378 . S
C2872 C2873 1.367 . S
C2873 C2872 1.367 . S
C2873 C2875 1.433 1_545 S
C2874 C2870 1.350 . S
C2874 C2871 1.463 . S
C2874 N2878 1.427 1_545 S
C2875 H2865 0.929 . S
C2875 C2873 1.433 1_565 S
C2875 N2878 1.384 . S
C2876 H2867 0.929 1_545 S
C2876 C2868 1.378 . S
C2876 C2871 1.350 . S
C2877 H2864 0.929 . S
C2877 C2869 1.433 . S
C2877 N2879 1.384 . S
N2878 C2874 1.427 1_565 S
N2878 C2875 1.384 . S
N2879 C2871 1.427 . S
N2879 C2877 1.384 . S
C1591 C13 1.144 . S
C1595 C981 1.157 . S
C1609 C27 1.371 . S
C1613 C1061 1.410 . S
C1631 C1129 1.276 . S
C1627 C36 1.230 . S
C1645 C41 1.666 . S
C1649 C1209 1.689 . S
C1663 C8 1.491 1_556 S
C1667 C1283 1.573 . S
C1681 C22 1.490 . S
C1685 C1351 1.462 . S
C1699 C55 1.110 . S
C1703 C1277 1.107 . S
C1721 C1357 1.329 . S
C1717 C69 1.284 . S
C1739 C1203 1.275 . S
C1735 C78 1.214 . S
C1753 C83 1.651 . S
C1757 C1135 1.670 . S
C1775 C987 1.582 . S
C1771 C50 1.454 . S
C1789 C64 1.340 . S
C1793 C1055 1.370 . S
C1807 C97 1.373 . S
C1811 C1425 1.381 . S
C1825 C111 1.409 . S
C1829 C1505 1.455 . S
C1847 C1573 1.440 . S
C1843 C120 1.494 . S
C1861 C125 1.803 . S
C1865 C321 1.819 . S
C1879 C92 1.774 . S
C1883 C395 1.761 . S
C1897 C106 1.531 . S
C1901 C463 1.496 . S
C1915 C139 1.123 . S
C1919 C389 1.156 . S
C1933 C153 1.329 . S
C1937 C469 1.368 . S
C1955 C315 1.359 . S
C1951 C162 1.329 . S
C1973 C1579 1.807 . S
C1969 C167 1.769 . S
C1991 C1431 1.631 . S
C1987 C134 1.573 . S
C2009 C1499 1.412 . S
C2005 C148 1.392 . S
C2023 C181 1.284 . S
C2027 C537 1.287 . S
C2041 C195 1.427 . S
C2045 C617 1.455 . S
C2059 C204 1.522 . S
C2063 C685 1.476 . S
C2077 C209 1.873 . S
C2081 C765 1.884 . S
C2099 C839 1.747 . S
C2095 C176 1.772 . S
C2117 C907 1.514 . S
C2113 C190 1.564 . S
C2135 C833 1.246 . S
C2131 C223 1.210 . S
C2153 C913 1.357 . S
C2149 C237 1.310 . S
C2167 C246 1.268 . S
C2171 C759 1.302 . S
C2189 C691 1.715 . S
C2185 C251 1.674 . S
C2203 C218 1.600 . S
C2207 C543 1.663 . S
C2225 C611 1.386 . S
C2221 C232 1.353 . S
C2243 C291 1.904 . S
C2239 C11 1.895 . S
C2257 C25 1.296 . S
C2261 C365 1.304 . S
C2279 C451 1.430 . S
C2275 C35 1.437 . S
C2297 C525 1.218 . S
C2293 C39 1.207 . S
C2315 C587 1.613 . S
C2311 C7 1.638 1_556 S
C2333 C673 1.501 . S
C2329 C21 1.510 . S
C2347 C53 2.064 . S
C2351 C661 2.029 . S
C2365 C67 1.507 . S
C2369 C513 1.463 . S
C2383 C77 1.667 . S
C2387 C599 1.608 . S
C2401 C81 1.474 . S
C2405 C377 1.459 . S
C2423 C439 1.744 . S
C2419 C49 1.833 . S
C2437 C63 1.756 . S
C2441 C303 1.695 . S
C2459 C735 1.843 . S
C2455 C95 1.841 . S
C2473 C109 1.408 . S
C2477 C809 1.414 . S
C2491 C119 1.536 . S
C2495 C895 1.480 . S
C2513 C969 0.991 . S
C2509 C123 0.990 . S
C2527 C91 1.538 . S
C2531 C1031 1.517 . S
C2545 C105 1.305 . S
C2549 C1117 1.313 . S
C2563 C137 1.772 . S
C2567 C1105 1.697 1_565 S
C2581 C151 1.194 . S
C2585 C957 1.174 . S
C2603 C1043 1.526 . S
C2599 C161 1.577 . S
C2617 C165 1.457 . S
C2621 C821 1.426 . S
C2635 C133 1.845 1_545 S
C2639 C883 1.758 . S
C2657 C747 1.753 . S
C2653 C147 1.828 1_655 S
C2675 C1179 1.714 . S
C2671 C179 1.731 . S
C2689 C193 1.077 . S
C2693 C1253 1.073 . S
C2707 C203 1.369 . S
C2711 C1339 1.356 . S
C2729 C1413 1.182 . S
C2725 C207 1.190 . S
C2747 C1475 1.649 . S
C2743 C175 1.663 1_565 S
C2761 C189 1.589 1_455 S
C2765 C1561 1.579 . S
C2779 C221 2.023 . S
C2783 C1549 1.972 . S
C2797 C235 1.617 1_565 S
C2801 C1401 1.564 . S
C2819 C1487 1.642 . S
C2815 C245 1.711 1_455 S
C2837 C1265 1.069 . S
C2833 C249 1.073 . S
C2855 C1327 1.640 . S
C2851 C217 1.722 . S
C2869 C231 1.439 . S
C2873 C1191 1.423 1_545 S
