# Generated by pormake.
# Topology anh, (6,3)-cn, num edge types: 1
# Building blocks:
#     Node 0, Type 0, BuildingBlock: CUKXOW_clean_sbu_0, # of connection points: 6
#     Node 1, Type 0, BuildingBlock: CUKXOW_clean_sbu_0, # of connection points: 6
#     Node 2, Type 0, BuildingBlock: CUKXOW_clean_sbu_0, # of connection points: 6
#     Node 3, Type 1, BuildingBlock: VETTIZ_charged_linker_0, # of connection points: 3
#     Node 4, Type 1, BuildingBlock: VETTIZ_charged_linker_0, # of connection points: 3
#     Node 5, Type 1, BuildingBlock: VETTIZ_charged_linker_0, # of connection points: 3
#     Node 6, Type 1, BuildingBlock: VETTIZ_charged_linker_0, # of connection points: 3
#     Node 7, Type 1, BuildingBlock: VETTIZ_charged_linker_0, # of connection points: 3
#     Node 8, Type 1, BuildingBlock: VETTIZ_charged_linker_0, # of connection points: 3
#     Edge 9, Type (0, 1), BuildingBlock: XIVTED_clean_linker_0, # of connection points: 2
#     Edge 10, Type (0, 1), BuildingBlock: XIVTED_clean_linker_0, # of connection points: 2
#     Edge 11, Type (0, 1), BuildingBlock: XIVTED_clean_linker_0, # of connection points: 2
#     Edge 12, Type (0, 1), BuildingBlock: XIVTED_clean_linker_0, # of connection points: 2
#     Edge 13, Type (0, 1), BuildingBlock: XIVTED_clean_linker_0, # of connection points: 2
#     Edge 14, Type (0, 1), BuildingBlock: XIVTED_clean_linker_0, # of connection points: 2
#     Edge 15, Type (0, 1), BuildingBlock: XIVTED_clean_linker_0, # of connection points: 2
#     Edge 16, Type (0, 1), BuildingBlock: XIVTED_clean_linker_0, # of connection points: 2
#     Edge 17, Type (0, 1), BuildingBlock: XIVTED_clean_linker_0, # of connection points: 2
#     Edge 18, Type (0, 1), BuildingBlock: XIVTED_clean_linker_0, # of connection points: 2
#     Edge 19, Type (0, 1), BuildingBlock: XIVTED_clean_linker_0, # of connection points: 2
#     Edge 20, Type (0, 1), BuildingBlock: XIVTED_clean_linker_0, # of connection points: 2
#     Edge 21, Type (0, 1), BuildingBlock: XIVTED_clean_linker_0, # of connection points: 2
#     Edge 22, Type (0, 1), BuildingBlock: XIVTED_clean_linker_0, # of connection points: 2
#     Edge 23, Type (0, 1), BuildingBlock: XIVTED_clean_linker_0, # of connection points: 2
#     Edge 24, Type (0, 1), BuildingBlock: XIVTED_clean_linker_0, # of connection points: 2
#     Edge 25, Type (0, 1), BuildingBlock: XIVTED_clean_linker_0, # of connection points: 2
#     Edge 26, Type (0, 1), BuildingBlock: XIVTED_clean_linker_0, # of connection points: 2
# Relax obj value: 0.137
# Max RMSD: 0.196
# Mean RMSD: 0.142
data_MOF--net-anh--node1-CUKXOW_clean_sbu_0--node2-VETTIZ_charged_linker_0--edge1-XIVTED_clean_linker_0
_symmetry_space_group_name_H-M    P1
_symmetry_Int_Tables_number       1
_symmetry_cell_setting            triclinic
loop_
_symmetry_equiv_pos_as_xyz
'x, y, z'
_cell_length_a     34.714195
_cell_length_b     33.610088
_cell_length_c     65.423597
_cell_angle_alpha  95.459208
_cell_angle_beta   90.358276
_cell_angle_gamma 114.42314
loop_
_atom_site_label
_atom_site_type_symbol
_atom_site_fract_x
_atom_site_fract_y
_atom_site_fract_z
_atom_type_partial_charge
Tb0 Tb 0.07543 0.52396 0.15529 0.0
C1 C 0.04848 0.48185 0.19583 0.0
Tb2 Tb 1.01821 0.42296 0.15317 0.0
O3 O 0.02389 0.53945 0.16774 0.0
O4 O 1.00978 0.48134 0.14897 0.0
O5 O 0.07948 0.51238 0.18699 0.0
C6 C 0.95003 0.34671 0.15329 0.0
O7 O 1.01722 0.44829 0.18516 0.0
C8 C 0.10062 0.4391 0.15432 0.0
C9 C 0.04925 0.46432 0.11193 0.0
O10 O 0.98307 0.36067 0.16586 0.0
O11 O 0.95548 0.37554 0.14047 0.0
O12 O 0.06989 0.39996 0.15308 0.0
O13 O 0.08282 0.46511 0.15466 0.0
O14 O 0.02351 0.42899 0.12039 0.0
O15 O 0.07335 0.50246 0.12267 0.0
C16 C 0.14004 0.60171 0.15268 0.0
O17 O 0.10146 0.59063 0.1457 0.0
O18 O 0.1419 0.56941 0.16138 0.0
C19 C 0.99342 0.50249 0.16021 0.0
Tb20 Tb 0.48963 0.99041 0.49894 0.0
C21 C 0.5301 0.01608 0.45665 0.0
Tb22 Tb 0.58621 0.05835 0.49848 0.0
O23 O 0.46953 0.03999 0.4892 0.0
O24 O 0.52688 0.05857 0.50589 0.0
O25 O 0.49954 0.98621 0.46617 0.0
C26 C 0.64847 0.137 0.49624 0.0
O27 O 0.56392 0.04845 0.46637 0.0
C28 C 0.57634 0.97553 0.49423 0.0
C29 C 0.54706 0.02768 0.54064 0.0
O30 O 0.61239 0.12108 0.48589 0.0
O31 O 0.65027 0.10809 0.50769 0.0
O32 O 0.61328 0.00858 0.49397 0.0
O33 O 0.54972 0.99163 0.49616 0.0
O34 O 0.57754 0.05831 0.53138 0.0
O35 O 0.51261 0.99639 0.53076 0.0
C36 C 0.41925 0.9195 0.50317 0.0
O37 O 0.42712 0.95892 0.51153 0.0
O38 O 0.45048 0.92032 0.49216 0.0
C39 C 0.50457 0.07282 0.49622 0.0
Tb40 Tb 0.55824 0.5873 0.83516 0.0
C41 C 0.61074 0.59691 0.87692 0.0
Tb42 Tb 0.6507 0.59094 0.83443 0.0
O43 O 0.52374 0.51569 0.83775 0.0
O44 O 0.58833 0.54583 0.83698 0.0
O45 O 0.58001 0.60354 0.86758 0.0
C46 C 0.71415 0.56783 0.82725 0.0
O47 O 0.63959 0.58727 0.86694 0.0
C48 C 0.64404 0.66654 0.83791 0.0
C49 C 0.59559 0.57352 0.79275 0.0
O50 O 0.71129 0.60196 0.82082 0.0
O51 O 0.68236 0.54807 0.83829 0.0
O52 O 0.67705 0.66197 0.84495 0.0
O53 O 0.61957 0.63087 0.82802 0.0
O54 O 0.62679 0.56859 0.8025 0.0
O55 O 0.56835 0.58614 0.80242 0.0
C56 C 0.49937 0.61809 0.83579 0.0
O57 O 0.49801 0.58441 0.82375 0.0
O58 O 0.53315 0.63352 0.84797 0.0
C59 C 0.55823 0.50918 0.8383 0.0
C60 C 0.6438 0.08262 0.17884 0.0
C61 C 0.68093 0.1118 0.19029 0.0
C62 C 0.68046 0.11699 0.21189 0.0
C63 C 0.60726 0.06445 0.21052 0.0
C64 C 0.60737 0.05904 0.18931 0.0
C65 C 0.56536 0.02507 0.17994 0.0
H66 H 0.36215 0.88522 0.19502 0.0
C67 C 0.56484 0.03596 0.21682 0.0
C68 C 0.53976 0.01294 0.199 0.0
H69 H 0.42645 0.89724 0.1382 0.0
H70 H 0.48975 0.95603 0.15526 0.0
H71 H 0.43231 0.88087 0.21953 0.0
H72 H 0.4023 0.99097 0.21307 0.0
H73 H 0.41563 0.99297 0.23925 0.0
H74 H 0.37113 0.94583 0.227 0.0
H75 H 0.39157 0.88893 0.23367 0.0
H76 H 0.44591 0.91223 0.24351 0.0
C77 C 0.57259 0.98581 0.16919 0.0
C78 C 0.54685 0.04716 0.16543 0.0
C79 C 0.53612 0.03053 0.2928 0.0
C80 C 0.49972 0.00763 0.30343 0.0
C81 C 0.46113 0.98266 0.29209 0.0
C82 C 0.45913 0.97934 0.27058 0.0
C83 C 0.49613 1.00108 0.26018 0.0
C84 C 0.53355 0.0269 0.27129 0.0
C85 C 0.56939 0.04842 0.25764 0.0
C86 C 0.5476 0.02984 0.23649 0.0
C87 C 0.50488 1.00201 0.23812 0.0
C88 C 0.60443 0.03257 0.26199 0.0
C89 C 0.58379 0.09892 0.26155 0.0
C90 C 0.38948 0.9014 0.18612 0.0
C91 C 0.38927 0.88754 0.16523 0.0
C92 C 0.42598 0.90794 0.1543 0.0
C93 C 0.46262 0.94169 0.16426 0.0
C94 C 0.46275 0.9541 0.18545 0.0
C95 C 0.42645 0.9338 0.19595 0.0
C96 C 0.43308 0.94699 0.21867 0.0
C97 C 0.47928 0.97893 0.22022 0.0
C98 C 0.49658 0.98375 0.20074 0.0
C99 C 0.42512 0.90534 0.22957 0.0
C100 C 0.40392 0.97018 0.22502 0.0
H101 H 0.6459 0.09931 0.23846 0.0
H102 H 0.64341 0.07776 0.16222 0.0
H103 H 0.54874 0.07893 0.17313 0.0
H104 H 0.51312 0.0271 0.16097 0.0
H105 H 0.5648 0.05404 0.15122 0.0
H106 H 0.5988 0.98151 0.17716 0.0
H107 H 0.58103 0.9908 0.15299 0.0
H108 H 0.54483 0.95411 0.16955 0.0
H109 H 0.56636 0.0499 0.30096 0.0
H110 H 0.43238 0.96552 0.29985 0.0
H111 H 0.42892 0.95944 0.26288 0.0
H112 H 0.59022 0.99715 0.26445 0.0
H113 H 0.62422 0.05123 0.27602 0.0
H114 H 0.62529 0.03498 0.24907 0.0
H115 H 0.55749 0.10733 0.26698 0.0
H116 H 0.5934 0.11543 0.2474 0.0
H117 H 0.61022 0.11399 0.27342 0.0
H118 H 0.70843 0.13969 0.22101 0.0
C119 C 0.64396 0.09369 0.22202 0.0
C120 C 0.54958 0.64151 0.51023 0.0
C121 C 0.54826 0.67937 0.52099 0.0
C122 C 0.54942 0.68345 0.5426 0.0
C123 C 0.55359 0.61349 0.54275 0.0
C124 C 0.55175 0.6086 0.52149 0.0
C125 C 0.55128 0.56476 0.5131 0.0
H126 H 0.56786 0.37718 0.53498 0.0
C127 C 0.55659 0.57472 0.55008 0.0
C128 C 0.55528 0.54563 0.53285 0.0
H129 H 0.54364 0.40723 0.47486 0.0
H130 H 0.54572 0.47755 0.48998 0.0
H131 H 0.63659 0.4726 0.55202 0.0
H132 H 0.50228 0.40263 0.55581 0.0
H133 H 0.5199 0.43372 0.57974 0.0
H134 H 0.53931 0.39287 0.57152 0.0
H135 H 0.61308 0.42887 0.56792 0.0
H136 H 0.6255 0.48527 0.57732 0.0
C137 C 0.58985 0.57322 0.49977 0.0
C138 C 0.50831 0.53726 0.50127 0.0
C139 C 0.57187 0.56889 0.62704 0.0
C140 C 0.57713 0.53808 0.63858 0.0
C141 C 0.57916 0.50035 0.62821 0.0
C142 C 0.57585 0.49327 0.60675 0.0
C143 C 0.57037 0.52418 0.5954 0.0
C144 C 0.56868 0.5613 0.60554 0.0
C145 C 0.56334 0.59075 0.59089 0.0
C146 C 0.56151 0.56475 0.57028 0.0
C147 C 0.56557 0.52595 0.5731 0.0
C148 C 0.60318 0.6351 0.59376 0.0
C149 C 0.52086 0.59433 0.59503 0.0
C150 C 0.56369 0.39912 0.52494 0.0
C151 C 0.55648 0.38718 0.50373 0.0
C152 C 0.54961 0.41601 0.4913 0.0
C153 C 0.55071 0.45661 0.50011 0.0
C154 C 0.5578 0.46782 0.52156 0.0
C155 C 0.56377 0.43873 0.53345 0.0
C156 C 0.56821 0.45339 0.55595 0.0
C157 C 0.56422 0.49641 0.55591 0.0
C158 C 0.55863 0.50555 0.5358 0.0
C159 C 0.61295 0.46019 0.56391 0.0
C160 C 0.53083 0.41897 0.56647 0.0
H161 H 0.55315 0.65652 0.56991 0.0
H162 H 0.54826 0.63742 0.49359 0.0
H163 H 0.48207 0.54139 0.50955 0.0
H164 H 0.50006 0.50168 0.49987 0.0
H165 H 0.50819 0.54768 0.48567 0.0
H166 H 0.61916 0.59826 0.50809 0.0
H167 H 0.5856 0.58563 0.48516 0.0
H168 H 0.59562 0.54353 0.49602 0.0
H169 H 0.5707 0.59849 0.63454 0.0
H170 H 0.58264 0.47583 0.63673 0.0
H171 H 0.57749 0.46379 0.59988 0.0
H172 H 0.63194 0.63004 0.59773 0.0
H173 H 0.59964 0.65777 0.60635 0.0
H174 H 0.61084 0.65178 0.57962 0.0
H175 H 0.49705 0.56347 0.60027 0.0
H176 H 0.50563 0.59885 0.58108 0.0
H177 H 0.52524 0.62153 0.60716 0.0
H178 H 0.54874 0.71238 0.55117 0.0
C179 C 0.55218 0.65098 0.55348 0.0
C180 C 0.20277 0.62278 0.84972 0.0
C181 C 0.24067 0.63913 0.86194 0.0
C182 C 0.23882 0.63056 0.88273 0.0
C183 C 0.16365 0.58524 0.87784 0.0
C184 C 0.16502 0.59525 0.8578 0.0
C185 C 0.1233 0.57034 0.84599 0.0
H186 H 0.91482 0.44908 0.84805 0.0
C187 C 0.12053 0.55258 0.88087 0.0
C188 C 0.09685 0.54332 0.86223 0.0
H189 H 0.98677 0.50856 0.79679 0.0
H190 H 0.05178 0.52638 0.81637 0.0
H191 H 0.98158 0.4026 0.86043 0.0
H192 H 0.96419 0.5189 0.88225 0.0
H193 H 0.97178 0.49464 0.9037 0.0
H194 H 0.92679 0.46448 0.88618 0.0
H195 H 0.9386 0.40032 0.87608 0.0
H196 H 0.98993 0.41042 0.8873 0.0
C197 C 0.12948 0.54099 0.82764 0.0
C198 C 0.10735 0.60443 0.83974 0.0
C199 C 0.0833 0.49988 0.95103 0.0
C200 C 0.0454 0.47235 0.95925 0.0
C201 C 1.00876 0.45069 0.9461 0.0
C202 C 1.00969 0.45757 0.92524 0.0
C203 C 0.04758 0.4866 0.91749 0.0
C204 C 0.0836 0.50677 0.93033 0.0
C205 C 0.12097 0.5369 0.9197 0.0
C206 C 0.10154 0.53154 0.89827 0.0
C207 C 0.0586 0.50212 0.89702 0.0
C208 C 0.15576 0.51925 0.91999 0.0
C209 C 0.13466 0.58424 0.93042 0.0
C210 C 0.94448 0.46452 0.8407 0.0
C211 C 0.94562 0.47861 0.82102 0.0
C212 C 0.98504 0.49855 0.81214 0.0
C213 C 0.02277 0.50918 0.8236 0.0
C214 C 1.02099 0.49966 0.8441 0.0
C215 C 0.98247 0.47537 0.85195 0.0
C216 C 0.98699 0.46755 0.87395 0.0
C217 C 0.03429 0.49352 0.8783 0.0
C218 C 0.05376 0.51289 0.86085 0.0
C219 C 0.97336 0.41765 0.87467 0.0
C220 C 0.96098 0.48707 0.88734 0.0
H221 H 0.20161 0.59754 0.90642 0.0
H222 H 0.20275 0.62895 0.83378 0.0
H223 H 0.11139 0.62954 0.85293 0.0
H224 H 0.07339 0.59003 0.83508 0.0
H225 H 0.12553 0.62183 0.82696 0.0
H226 H 0.15708 0.53323 0.83063 0.0
H227 H 0.13496 0.55744 0.81332 0.0
H228 H 0.10228 0.50847 0.82485 0.0
H229 H 0.11227 0.51635 0.96057 0.0
H230 H 0.97908 0.42948 0.95208 0.0
H231 H 0.98066 0.44088 0.91606 0.0
H232 H 0.1415 0.48273 0.91912 0.0
H233 H 0.17627 0.53217 0.93432 0.0
H234 H 0.17579 0.52696 0.90659 0.0
H235 H 0.10663 0.58989 0.93552 0.0
H236 H 0.15048 0.60991 0.92017 0.0
H237 H 0.15586 0.59017 0.94423 0.0
H238 H 0.26734 0.64187 0.89255 0.0
C239 C 0.20056 0.60393 0.89073 0.0
C240 C 0.9053 0.45112 0.4743 0.0
C241 C 0.86924 0.41886 0.46335 0.0
C242 C 0.86589 0.41727 0.44179 0.0
C243 C 0.93492 0.47767 0.44219 0.0
C244 C 0.93752 0.48053 0.46341 0.0
C245 C 0.97786 0.51758 0.47242 0.0
H246 H 0.17169 0.67343 0.45653 0.0
C247 C 0.97428 0.51123 0.43541 0.0
C248 C 0.99942 0.53528 0.45304 0.0
H249 H 0.11431 0.64377 0.51472 0.0
H250 H 0.04958 0.58906 0.49698 0.0
H251 H 0.13604 0.57306 0.43477 0.0
H252 H 0.09425 0.67689 0.43463 0.0
H253 H 0.07988 0.6477 0.41007 0.0
H254 H 0.13518 0.67493 0.41853 0.0
H255 H 0.16384 0.62274 0.42308 0.0
H256 H 0.12216 0.57574 0.4092 0.0
C257 C 1.0029 0.49781 0.48455 0.0
C258 C 0.96627 0.55157 0.48554 0.0
C259 C 1.00304 0.51125 0.35937 0.0
C260 C 0.0375 0.5374 0.34839 0.0
C261 C 0.07169 0.57284 0.35925 0.0
C262 C 0.07217 0.58119 0.38064 0.0
C263 C 0.03808 0.55397 0.3914 0.0
C264 C 1.0039 0.52028 0.38074 0.0
C265 C 0.96986 0.49575 0.39469 0.0
C266 C 0.98975 0.51981 0.41555 0.0
C267 C 0.02984 0.55341 0.4135 0.0
C268 C 0.96432 0.44734 0.39261 0.0
C269 C 0.92925 0.50177 0.38903 0.0
C270 C 0.14524 0.65478 0.46543 0.0
C271 C 0.14796 0.66188 0.48694 0.0
C272 C 0.1127 0.63824 0.49809 0.0
C273 C 0.07538 0.60664 0.48777 0.0
C274 C 0.07348 0.59927 0.46615 0.0
C275 C 0.10788 0.62382 0.4554 0.0
C276 C 0.10002 0.6134 0.43255 0.0
C277 C 0.05524 0.57799 0.43123 0.0
C278 C 0.03999 0.56935 0.45091 0.0
C279 C 0.1322 0.5955 0.42428 0.0
C280 C 0.10269 0.65528 0.42331 0.0
H281 H 0.89433 0.44309 0.41476 0.0
H282 H 0.90828 0.45333 0.49091 0.0
H283 H 0.93627 0.5517 0.47952 0.0
H284 H 0.99015 0.58569 0.48513 0.0
H285 H 0.96194 0.54412 0.50177 0.0
H286 H 1.0031 0.46812 0.47553 0.0
H287 H 0.98827 0.48786 0.49934 0.0
H288 H 0.03644 0.52047 0.48782 0.0
H289 H 0.97626 0.48369 0.35162 0.0
H290 H 0.09817 0.59433 0.35121 0.0
H291 H 0.09928 0.60836 0.38796 0.0
H292 H 0.99571 0.44577 0.39245 0.0
H293 H 0.94631 0.42922 0.37807 0.0
H294 H 0.94827 0.42929 0.40551 0.0
H295 H 0.93681 0.53224 0.38146 0.0
H296 H 0.91213 0.50581 0.40274 0.0
H297 H 0.90736 0.47374 0.37829 0.0
H298 H 0.83848 0.39245 0.43306 0.0
C299 C 0.89849 0.44648 0.43117 0.0
C300 C 0.61121 0.97785 0.82524 0.0
C301 C 0.61373 0.93997 0.81512 0.0
C302 C 0.61363 0.93499 0.79357 0.0
C303 C 0.6057 1.00282 0.79206 0.0
C304 C 0.6071 0.00902 0.81331 0.0
C305 C 0.60298 0.05121 0.82079 0.0
H306 H 0.55785 0.22084 0.79435 0.0
C307 C 0.59819 0.0385 0.78387 0.0
C308 C 0.59619 0.06728 0.80054 0.0
H309 H 0.59167 0.20381 0.85541 0.0
H310 H 0.5996 0.13726 0.84193 0.0
H311 H 0.6307 0.20362 0.7736 0.0
H312 H 0.49919 0.12235 0.77991 0.0
H313 H 0.51044 0.10605 0.75524 0.0
H314 H 0.51674 0.16195 0.76163 0.0
H315 H 0.58907 0.20805 0.75894 0.0
H316 H 0.61264 0.17122 0.74998 0.0
C317 C 0.64498 0.08308 0.83231 0.0
C318 C 0.56419 0.04004 0.83417 0.0
C319 C 0.579 0.03471 0.70639 0.0
C320 C 0.56644 0.05988 0.69419 0.0
C321 C 0.55751 0.09425 0.70368 0.0
C322 C 0.56152 0.10388 0.72507 0.0
C323 C 0.57422 0.07857 0.73717 0.0
C324 C 0.58215 0.04431 0.72782 0.0
C325 C 0.59254 0.01928 0.74322 0.0
C326 C 0.59088 0.04516 0.76334 0.0
C327 C 0.58059 0.07994 0.75963 0.0
C328 C 0.63789 0.02285 0.7396 0.0
C329 C 0.5574 0.97155 0.74093 0.0
C330 C 0.56659 0.20264 0.80492 0.0
C331 C 0.57349 0.21709 0.82594 0.0
C332 C 0.58598 0.19309 0.8391 0.0
C333 C 0.59058 0.1546 0.83125 0.0
C334 C 0.58339 0.14059 0.81 0.0
C335 C 0.57211 0.16521 0.79735 0.0
C336 C 0.56802 0.14826 0.77513 0.0
C337 C 0.57863 0.10922 0.77621 0.0
C338 C 0.58705 0.10382 0.79664 0.0
C339 C 0.60149 0.1845 0.76364 0.0
C340 C 0.52137 0.13412 0.76739 0.0
H341 H 0.60966 0.95982 0.76569 0.0
H342 H 0.61142 0.98244 0.84185 0.0
H343 H 0.53598 0.01278 0.82609 0.0
H344 H 0.55562 0.06803 0.83754 0.0
H345 H 0.57019 0.02951 0.84901 0.0
H346 H 0.67252 0.0826 0.82385 0.0
H347 H 0.64724 0.07361 0.84794 0.0
H348 H 0.64893 0.11751 0.83366 0.0
H349 H 0.58533 0.0076 0.69942 0.0
H350 H 0.54788 0.11405 0.69448 0.0
H351 H 0.55456 0.13071 0.73129 0.0
H352 H 0.65904 0.05638 0.73589 0.0
H353 H 0.63774 0.99908 0.72655 0.0
H354 H 0.65331 0.0178 0.75333 0.0
H355 H 0.52748 0.96959 0.73369 0.0
H356 H 0.54805 0.95862 0.75592 0.0
H357 H 0.56734 0.94885 0.73122 0.0
H358 H 0.61584 0.9063 0.78555 0.0
C359 C 0.60983 0.96609 0.78205 0.0
C360 C 0.66206 0.48107 0.14939 0.0
C361 C 0.70059 0.48644 0.13993 0.0
C362 C 0.70626 0.49933 0.12 0.0
C363 C 0.63716 0.50101 0.11866 0.0
C364 C 0.63034 0.4883 0.13828 0.0
C365 C 0.58624 0.4833 0.14465 0.0
H366 H 0.40283 0.50446 0.11562 0.0
C367 C 0.59961 0.50607 0.11076 0.0
C368 C 0.56883 0.49588 0.12575 0.0
H369 H 0.42348 0.46054 0.17281 0.0
H370 H 0.49406 0.46829 0.16245 0.0
H371 H 0.49345 0.58138 0.11419 0.0
H372 H 0.43495 0.44646 0.0886 0.0
H373 H 0.4682 0.47405 0.06974 0.0
H374 H 0.42556 0.48868 0.07759 0.0
H375 H 0.45489 0.56204 0.09303 0.0
H376 H 0.51074 0.58043 0.0891 0.0
C377 C 0.591 0.51545 0.16387 0.0
C378 C 0.55977 0.43509 0.14825 0.0
C379 C 0.60352 0.55271 0.03888 0.0
C380 C 0.5741 0.55952 0.02642 0.0
C381 C 0.53503 0.55482 0.03447 0.0
C382 C 0.52534 0.54315 0.05441 0.0
C383 C 0.55485 0.53572 0.06655 0.0
C384 C 0.59313 0.54068 0.05869 0.0
C385 C 0.62036 0.53088 0.07352 0.0
C386 C 0.59203 0.51898 0.09165 0.0
C387 C 0.5539 0.52197 0.08749 0.0
C388 C 0.66115 0.57373 0.07895 0.0
C389 C 0.6278 0.49101 0.06341 0.0
C390 C 0.42242 0.49701 0.12622 0.0
C391 C 0.40741 0.48271 0.14521 0.0
C392 C 0.43406 0.47191 0.15805 0.0
C393 C 0.47502 0.47644 0.15205 0.0
C394 C 0.48938 0.49119 0.13284 0.0
C395 C 0.46243 0.50071 0.12042 0.0
C396 C 0.48019 0.51414 0.10023 0.0
C397 C 0.52264 0.5121 0.1023 0.0
C398 C 0.52913 0.49882 0.12145 0.0
C399 C 0.48492 0.56181 0.09884 0.0
C400 C 0.4508 0.47944 0.08304 0.0
H401 H 0.68257 0.51649 0.09441 0.0
H402 H 0.65666 0.47103 0.16473 0.0
H403 H 0.56054 0.41266 0.13477 0.0
H404 H 0.52622 0.42828 0.15043 0.0
H405 H 0.5725 0.42665 0.16202 0.0
H406 H 0.61299 0.54942 0.16118 0.0
H407 H 0.60397 0.50614 0.17729 0.0
H408 H 0.56044 0.51616 0.16789 0.0
H409 H 0.63409 0.55657 0.03337 0.0
H410 H 0.51141 0.55917 0.02519 0.0
H411 H 0.49499 0.53996 0.05947 0.0
H412 H 0.65474 0.60343 0.0783 0.0
H413 H 0.68622 0.57605 0.06806 0.0
H414 H 0.67393 0.57702 0.09485 0.0
H415 H 0.60092 0.46918 0.05257 0.0
H416 H 0.6296 0.4692 0.07467 0.0
H417 H 0.65695 0.50191 0.05458 0.0
H418 H 0.73531 0.50399 0.11245 0.0
C419 C 0.67528 0.50668 0.10948 0.0
H420 H 0.16962 0.51486 0.14618 0.0
H421 H 0.3422 0.41497 0.16183 0.0
H422 H 0.13747 0.38468 0.16314 0.0
H423 H 0.37221 0.54128 0.14037 0.0
H424 H 0.26854 0.40589 0.16555 0.0
H425 H 0.2447 0.52759 0.14668 0.0
C426 C 0.17833 0.48925 0.15037 0.0
C427 C 0.14698 0.44891 0.15494 0.0
C428 C 0.29132 0.43576 0.16016 0.0
C429 C 0.23334 0.46278 0.15516 0.0
C430 C 0.33361 0.44112 0.15822 0.0
C431 C 0.36379 0.47883 0.15063 0.0
C432 C 0.27883 0.46843 0.15462 0.0
C433 C 0.3502 0.51133 0.14602 0.0
C434 C 0.2213 0.49632 0.15047 0.0
C435 C 0.16039 0.41638 0.15957 0.0
N436 N 0.30906 0.50532 0.14798 0.0
N437 N 0.20223 0.42397 0.15957 0.0
H438 H 0.72968 0.17452 0.51338 0.0
H439 H 0.7841 0.3937 0.45933 0.0
H440 H 0.64012 0.20153 0.47763 0.0
H441 H 0.87878 0.3666 0.4907 0.0
H442 H 0.72902 0.32875 0.47146 0.0
H443 H 0.78321 0.24921 0.51009 0.0
C444 C 0.72133 0.19628 0.50496 0.0
C445 C 0.68085 0.18189 0.49548 0.0
C446 C 0.76177 0.33716 0.47593 0.0
C447 C 0.74117 0.26681 0.49184 0.0
C448 C 0.79314 0.37428 0.46905 0.0
C449 C 0.83588 0.385 0.47384 0.0
C450 C 0.77327 0.31022 0.48747 0.0
C451 C 0.84606 0.35923 0.48667 0.0
C452 C 0.75171 0.2388 0.50312 0.0
C453 C 0.67124 0.21122 0.4849 0.0
N454 N 0.81494 0.3225 0.4928 0.0
N455 N 0.70124 0.25217 0.48328 0.0
H456 H 0.69545 0.74825 0.85735 0.0
H457 H 0.54946 0.85995 0.81637 0.0
H458 H 0.58074 0.67989 0.8192 0.0
H459 H 0.68006 0.93587 0.8366 0.0
H460 H 0.55512 0.79346 0.82533 0.0
H461 H 0.68611 0.81694 0.85654 0.0
C462 C 0.6681 0.74759 0.84901 0.0
C463 C 0.63858 0.70818 0.8385 0.0
C464 C 0.5824 0.82471 0.82821 0.0
C465 C 0.62748 0.78626 0.83771 0.0
C466 C 0.57898 0.86271 0.82336 0.0
C467 C 0.61419 0.90342 0.82601 0.0
C468 C 0.62151 0.8272 0.83562 0.0
C469 C 0.65203 0.90515 0.83465 0.0
C470 C 0.66279 0.78673 0.84857 0.0
C471 C 0.60388 0.70925 0.82784 0.0
N472 N 0.65487 0.86746 0.83898 0.0
N473 N 0.59927 0.74748 0.82776 0.0
H474 H 0.92517 0.43614 0.13797 0.0
H475 H 0.75855 0.53798 0.17109 0.0
H476 H 0.95635 0.5499 0.18206 0.0
H477 H 0.72715 0.42207 0.12852 0.0
H478 H 0.82844 0.53838 0.17833 0.0
H479 H 0.85102 0.42648 0.13674 0.0
C480 C 0.91642 0.45879 0.14759 0.0
C481 C 0.94734 0.49385 0.16016 0.0
C482 C 0.80595 0.5122 0.16775 0.0
C483 C 0.86195 0.48337 0.15866 0.0
C484 C 0.76568 0.5116 0.16389 0.0
C485 C 0.73638 0.47937 0.14952 0.0
C486 C 0.81744 0.48062 0.157 0.0
C487 C 0.74829 0.44702 0.14002 0.0
C488 C 0.87395 0.45339 0.14683 0.0
C489 C 0.93382 0.52242 0.17209 0.0
N490 N 0.78773 0.4487 0.14376 0.0
N491 N 0.89248 0.51674 0.17096 0.0
H492 H 0.40692 0.83538 0.49181 0.0
H493 H 0.16068 0.73671 0.51187 0.0
H494 H 0.34579 0.91307 0.52075 0.0
H495 H 0.22567 0.66197 0.48414 0.0
H496 H 0.22947 0.79878 0.52107 0.0
H497 H 0.34248 0.76915 0.49411 0.0
C498 C 0.37982 0.83837 0.49871 0.0
C499 C 0.38122 0.87958 0.50579 0.0
C500 C 0.2287 0.76846 0.51338 0.0
C501 C 0.30721 0.80403 0.50843 0.0
C502 C 0.18955 0.73305 0.50831 0.0
C503 C 0.18789 0.69466 0.49713 0.0
C504 C 0.26603 0.7651 0.50711 0.0
C505 C 0.22589 0.69135 0.49263 0.0
C506 C 0.34307 0.80056 0.50012 0.0
C507 C 0.34562 0.88175 0.51492 0.0
N508 N 0.2634 0.72633 0.4974 0.0
N509 N 0.30972 0.84443 0.51574 0.0
H510 H 0.62297 0.49226 0.85406 0.0
H511 H 0.50373 0.23299 0.82032 0.0
H512 H 0.49683 0.42793 0.82613 0.0
H513 H 0.63122 0.29397 0.847 0.0
H514 H 0.49884 0.3036 0.82573 0.0
H515 H 0.62588 0.42045 0.85408 0.0
C516 C 0.59632 0.46313 0.84751 0.0
C517 C 0.56034 0.46622 0.83932 0.0
C518 C 0.52778 0.30168 0.83068 0.0
C519 C 0.5624 0.38364 0.84015 0.0
C520 C 0.53046 0.26124 0.82771 0.0
C521 C 0.56791 0.25762 0.83325 0.0
C522 C 0.56301 0.33926 0.83908 0.0
C523 C 0.60165 0.29529 0.84268 0.0
C524 C 0.59762 0.42203 0.84787 0.0
C525 C 0.52546 0.42711 0.83232 0.0
N526 N 0.59861 0.3347 0.84508 0.0
N527 N 0.52746 0.3876 0.83276 0.0
H528 H 0.5094 0.91118 0.50971 0.0
H529 H 0.60438 0.73073 0.4948 0.0
H530 H 0.62622 0.93438 0.48029 0.0
H531 H 0.48865 0.71197 0.52452 0.0
H532 H 0.60853 0.8011 0.48475 0.0
H533 H 0.49704 0.83462 0.51107 0.0
C534 C 0.53181 0.89973 0.50297 0.0
C535 C 0.56818 0.92876 0.49436 0.0
C536 C 0.58183 0.78119 0.49315 0.0
C537 C 0.55548 0.84137 0.49668 0.0
C538 C 0.57925 0.74088 0.49867 0.0
C539 C 0.54617 0.7157 0.51051 0.0
C540 C 0.55107 0.79623 0.49955 0.0
C541 C 0.51473 0.73055 0.51544 0.0
C542 C 0.52514 0.8561 0.50402 0.0
C543 C 0.59757 0.91285 0.48694 0.0
N544 N 0.51816 0.76993 0.51012 0.0
N545 N 0.59068 0.87023 0.48833 0.0
H546 H 0.78344 0.60556 0.80463 0.0
H547 H 0.86232 0.41854 0.8205 0.0
H548 H 0.71458 0.49043 0.83534 0.0
H549 H 0.94186 0.54584 0.80196 0.0
H550 H 0.80078 0.43528 0.81626 0.0
H551 H 0.83532 0.57584 0.79505 0.0
C552 C 0.77931 0.57403 0.8093 0.0
C553 C 0.74544 0.55075 0.82113 0.0
C554 C 0.83165 0.45909 0.81269 0.0
C555 C 0.80374 0.51634 0.81002 0.0
C556 C 0.86675 0.44952 0.81506 0.0
C557 C 0.90749 0.48127 0.81215 0.0
C558 C 0.8375 0.50066 0.80738 0.0
C559 C 0.91121 0.52037 0.80455 0.0
C560 C 0.80863 0.55695 0.80374 0.0
C561 C 0.74085 0.50974 0.82653 0.0
N562 N 0.87676 0.52933 0.80284 0.0
N563 N 0.76989 0.49395 0.82106 0.0
H564 H 0.22344 0.61904 0.15729 0.0
H565 H 0.30667 0.87569 0.16271 0.0
H566 H 0.13961 0.67925 0.14328 0.0
H567 H 0.38791 0.80961 0.1486 0.0
H568 H 0.24465 0.80525 0.1556 0.0
H569 H 0.28417 0.68918 0.15498 0.0
C570 C 0.21789 0.64711 0.15368 0.0
C571 C 0.17658 0.64362 0.15062 0.0
C572 C 0.27599 0.80631 0.15359 0.0
C573 C 0.24578 0.72392 0.14807 0.0
C574 C 0.31128 0.84644 0.15755 0.0
C575 C 0.35227 0.84828 0.15612 0.0
C576 C 0.2819 0.76768 0.14872 0.0
C577 C 0.35676 0.80952 0.14966 0.0
C578 C 0.25253 0.68699 0.15221 0.0
C579 C 0.17106 0.68077 0.14581 0.0
N580 N 0.322 0.7706 0.14658 0.0
N581 N 0.20531 0.71965 0.14497 0.0
H582 H 0.57009 0.1445 0.51562 0.0
H583 H 0.49244 0.32024 0.48007 0.0
H584 H 0.46303 0.10775 0.47285 0.0
H585 H 0.61453 0.35408 0.50998 0.0
H586 H 0.48207 0.24292 0.47505 0.0
H587 H 0.58745 0.22178 0.51256 0.0
C588 C 0.55048 0.15276 0.5054 0.0
C589 C 0.51539 0.11971 0.49428 0.0
C590 C 0.51149 0.26743 0.48234 0.0
C591 C 0.53433 0.20837 0.49108 0.0
C592 C 0.51756 0.31158 0.485 0.0
C593 C 0.55425 0.34345 0.49558 0.0
C594 C 0.54222 0.25529 0.49047 0.0
C595 C 0.5856 0.33041 0.50192 0.0
C596 C 0.56033 0.19694 0.50367 0.0
C597 C 0.49047 0.1323 0.48164 0.0
N598 N 0.57861 0.28736 0.49955 0.0
N599 N 0.50022 0.17566 0.48049 0.0
H600 H 0.49584 0.68523 0.86151 0.0
H601 H 0.25971 0.61602 0.82324 0.0
H602 H 0.43168 0.59283 0.8089 0.0
H603 H 0.31723 0.70278 0.8786 0.0
H604 H 0.32927 0.62795 0.8119 0.0
H605 H 0.43804 0.70921 0.86272 0.0
C606 C 0.46974 0.67038 0.8501 0.0
C607 C 0.4676 0.63619 0.83546 0.0
C608 C 0.32684 0.64511 0.82637 0.0
C609 C 0.40208 0.66354 0.83657 0.0
C610 C 0.28686 0.63875 0.83283 0.0
C611 C 0.28226 0.65716 0.85236 0.0
C612 C 0.36243 0.66912 0.8397 0.0
C613 C 0.31913 0.68628 0.86386 0.0
C614 C 0.43698 0.68422 0.85071 0.0
C615 C 0.43384 0.61857 0.82074 0.0
N616 N 0.35772 0.69036 0.85765 0.0
N617 N 0.40207 0.63205 0.82184 0.0
H618 H 0.87349 0.3203 0.13226 0.0
H619 H 0.76062 0.12038 0.19971 0.0
H620 H 0.93802 0.28235 0.17796 0.0
H621 H 0.69118 0.16276 0.15854 0.0
H622 H 0.82686 0.17245 0.18754 0.0
H623 H 0.80757 0.2567 0.13764 0.0
C624 C 0.87384 0.29825 0.14323 0.0
C625 C 0.91107 0.30659 0.15479 0.0
C626 C 0.79723 0.1702 0.18097 0.0
C627 C 0.83612 0.2341 0.16102 0.0
C628 C 0.75941 0.1404 0.1879 0.0
C629 C 0.72044 0.1377 0.18029 0.0
C630 C 0.79629 0.19792 0.16639 0.0
C631 C 0.72061 0.16391 0.16479 0.0
C632 C 0.83626 0.26206 0.14632 0.0
C633 C 0.90992 0.2772 0.16883 0.0
N634 N 0.75802 0.19343 0.15853 0.0
N635 N 0.87305 0.24244 0.17162 0.0
H636 H 0.1012 0.52779 0.08939 0.0
H637 H 1.00421 0.39845 0.97921 0.0
H638 H 1.00003 0.39709 0.08271 0.0
H639 H 0.08342 0.53755 0.99038 0.0
H640 H 1.00535 0.39384 0.01647 0.0
H641 H 0.09982 0.52772 0.05238 0.0
C642 C 0.07869 0.4989 0.08016 0.0
C643 C 0.05039 0.4625 0.08927 0.0
C644 C 0.02246 0.42527 0.01067 0.0
C645 C 0.04859 0.46239 0.04656 0.0
C646 C 0.02166 0.42798 0.98946 0.0
C647 C 0.04418 0.46835 0.98164 0.0
C648 C 0.04601 0.46318 0.02402 0.0
C649 C 0.06644 0.50552 0.99561 0.0
C650 C 0.07786 0.49897 0.05894 0.0
C651 C 0.02231 0.42593 0.07636 0.0
N652 N 0.0669 0.50196 0.01604 0.0
N653 N 0.02199 0.42685 0.05559 0.0
H654 H 0.57794 0.07818 0.43219 0.0
H655 H 0.4598 0.93992 0.32687 0.0
H656 H 0.47255 0.95066 0.42951 0.0
H657 H 0.54579 0.07736 0.33188 0.0
H658 H 0.46625 0.94158 0.36414 0.0
H659 H 0.56966 0.07628 0.39509 0.0
C660 C 0.55313 0.04963 0.42382 0.0
C661 C 0.52591 0.01445 0.43404 0.0
C662 C 0.48357 0.9714 0.35708 0.0
C663 C 0.51623 0.01224 0.39142 0.0
C664 C 0.4797 0.97059 0.33579 0.0
C665 C 0.50227 0.0086 0.32616 0.0
C666 C 0.51044 0.01039 0.36885 0.0
C667 C 0.52828 0.0471 0.33855 0.0
C668 C 0.54832 0.04871 0.40261 0.0
C669 C 0.49422 0.97854 0.42231 0.0
N670 N 0.53174 0.04695 0.35923 0.0
N671 N 0.49031 0.97831 0.4016 0.0
H672 H 0.64436 0.54699 0.76692 0.0
H673 H 0.52991 0.56708 0.66427 0.0
H674 H 0.53989 0.58529 0.76673 0.0
H675 H 0.63111 0.5241 0.66467 0.0
H676 H 0.53407 0.57559 0.70186 0.0
H677 H 0.64024 0.53897 0.72944 0.0
C678 C 0.62046 0.55362 0.75903 0.0
C679 C 0.59246 0.56691 0.77004 0.0
C680 C 0.55538 0.56431 0.69372 0.0
C681 C 0.58772 0.55792 0.72706 0.0
C682 C 0.55321 0.55975 0.67227 0.0
C683 C 0.58014 0.54476 0.66134 0.0
C684 C 0.58477 0.55394 0.7043 0.0
C685 C 0.60935 0.53517 0.67249 0.0
C686 C 0.61817 0.54906 0.7376 0.0
C687 C 0.56215 0.57497 0.75892 0.0
N688 N 0.61088 0.53992 0.69336 0.0
N689 N 0.56066 0.57044 0.73805 0.0
H690 H 0.61896 0.06607 0.56585 0.0
H691 H 0.49773 0.04379 0.66905 0.0
H692 H 0.48341 0.99326 0.56679 0.0
H693 H 0.62614 0.0555 0.66824 0.0
H694 H 0.49278 0.03265 0.63138 0.0
H695 H 0.62362 0.07025 0.60346 0.0
C696 C 0.59022 0.05095 0.57396 0.0
C697 C 0.55072 0.02937 0.56321 0.0
C698 C 0.52192 0.03733 0.63946 0.0
C699 C 0.55585 0.03442 0.60606 0.0
C700 C 0.52478 0.04383 0.66087 0.0
C701 C 0.56239 0.05055 0.6716 0.0
C702 C 0.55723 0.03852 0.62876 0.0
C703 C 0.59657 0.05018 0.66041 0.0
C704 C 0.59295 0.05314 0.59536 0.0
C705 C 0.51452 0.01009 0.57446 0.0
N706 N 0.59338 0.04478 0.63952 0.0
N707 N 0.51789 0.01348 0.59531 0.0
H708 H 0.65549 0.56768 0.90153 0.0
H709 H 0.55375 0.61559 0.00519 0.0
H710 H 0.5663 0.62711 0.90391 0.0
H711 H 0.61577 0.52737 -0.00144 0.0
H712 H 0.56645 0.62925 0.96929 0.0
H713 H 0.65046 0.56284 0.93849 0.0
C714 C 0.63519 0.58017 0.90983 0.0
C715 C 0.61106 0.59758 0.89955 0.0
C716 C 0.57742 0.60706 0.97576 0.0
C717 C 0.60509 0.59194 0.94186 0.0
C718 C 0.56998 0.59903 -0.00378 0.0
C719 C 0.58347 0.57006 0.00495 0.0
C720 C 0.59874 0.58621 0.96394 0.0
C721 C 0.60521 0.55037 0.99264 0.0
C722 C 0.63219 0.57716 0.93093 0.0
C723 C 0.58523 0.61311 0.91115 0.0
N724 N 0.61206 0.55872 0.97277 0.0
N725 N 0.58283 0.6098 0.93168 0.0
H726 H 0.11436 0.52998 0.22343 0.0
H727 H 0.97094 0.50735 0.3195 0.0
H728 H 0.98034 0.44643 0.21957 0.0
H729 H 0.10575 0.54439 0.32565 0.0
H730 H 0.97331 0.49066 0.28248 0.0
H731 H 0.11153 0.5419 0.2607 0.0
C732 C 0.08436 0.51403 0.23044 0.0
C733 C 0.04751 0.4872 0.21842 0.0
C734 C 1.00229 0.50233 0.292 0.0
C735 C 0.04402 0.50107 0.26097 0.0
C736 C 1.00099 0.51173 0.31315 0.0
C737 C 0.03824 0.52745 0.32581 0.0
C738 C 0.04115 0.5092 0.28339 0.0
C739 C 0.07636 0.53324 0.31654 0.0
C740 C 0.08281 0.52075 0.2517 0.0
C741 C 1.00953 0.46719 0.2283 0.0
N742 N 0.07685 0.52434 0.2959 0.0
N743 N 1.00866 0.47486 0.24903 0.0
loop_
_geom_bond_atom_site_label_1
_geom_bond_atom_site_label_2
_geom_bond_distance
_geom_bond_site_symmetry_2
_ccdc_geom_bond_type
Tb0 O3 2.453 1_455 S
Tb0 O4 2.596 1_455 S
Tb0 O5 2.374 . S
Tb0 O13 2.343 . S
Tb0 O15 2.353 . S
Tb0 O17 2.427 . S
Tb0 O18 2.513 . S
C1 O5 1.251 . S
C1 O7 1.263 . S
Tb2 O4 2.343 1_455 S
Tb2 O7 2.353 . S
Tb2 O10 2.427 1_455 S
Tb2 O11 2.513 1_455 S
Tb2 O12 2.453 . S
Tb2 O13 2.596 . S
Tb2 O14 2.374 . S
O3 Tb0 2.453 1_655 S
O3 C19 1.245 . S
O4 Tb0 2.596 1_655 S
O4 Tb2 2.343 1_655 S
O4 C19 1.259 . S
O5 Tb0 2.374 . S
O5 C1 1.251 . S
C6 O10 1.275 . S
C6 O11 1.246 . S
O7 C1 1.263 . S
O7 Tb2 2.353 . S
C8 O12 1.245 . S
C8 O13 1.259 . S
C9 O14 1.250 . S
C9 O15 1.263 . S
O10 Tb2 2.427 1_655 S
O10 C6 1.275 . S
O11 Tb2 2.513 1_655 S
O11 C6 1.246 . S
O12 Tb2 2.453 . S
O12 C8 1.245 . S
O13 Tb0 2.343 . S
O13 Tb2 2.596 . S
O13 C8 1.259 . S
O14 Tb2 2.374 . S
O14 C9 1.250 . S
O15 Tb0 2.353 . S
O15 C9 1.263 . S
C16 O17 1.275 . S
C16 O18 1.246 . S
O17 Tb0 2.427 . S
O17 C16 1.275 . S
O18 Tb0 2.513 . S
O18 C16 1.246 . S
C19 O3 1.245 . S
C19 O4 1.259 . S
Tb20 O23 2.453 . S
Tb20 O24 2.596 . S
Tb20 O25 2.374 . S
Tb20 O33 2.343 1_545 S
Tb20 O35 2.353 . S
Tb20 O37 2.427 1_545 S
Tb20 O38 2.513 1_545 S
C21 O25 1.251 . S
C21 O27 1.263 . S
Tb22 O24 2.343 . S
Tb22 O27 2.353 . S
Tb22 O30 2.427 . S
Tb22 O31 2.513 . S
Tb22 O32 2.453 1_545 S
Tb22 O33 2.596 1_545 S
Tb22 O34 2.374 . S
O23 Tb20 2.453 . S
O23 C39 1.245 . S
O24 Tb20 2.596 . S
O24 Tb22 2.343 . S
O24 C39 1.259 . S
O25 Tb20 2.374 . S
O25 C21 1.251 . S
C26 O30 1.275 . S
C26 O31 1.246 . S
O27 C21 1.263 . S
O27 Tb22 2.353 . S
C28 O32 1.245 . S
C28 O33 1.259 . S
C29 O34 1.250 . S
C29 O35 1.263 . S
O30 Tb22 2.427 . S
O30 C26 1.275 . S
O31 Tb22 2.513 . S
O31 C26 1.246 . S
O32 Tb22 2.453 1_565 S
O32 C28 1.245 . S
O33 Tb20 2.343 1_565 S
O33 Tb22 2.596 1_565 S
O33 C28 1.259 . S
O34 Tb22 2.374 . S
O34 C29 1.250 . S
O35 Tb20 2.353 . S
O35 C29 1.263 . S
C36 O37 1.275 . S
C36 O38 1.246 . S
O37 Tb20 2.427 1_565 S
O37 C36 1.275 . S
O38 Tb20 2.513 1_565 S
O38 C36 1.246 . S
C39 O23 1.245 . S
C39 O24 1.259 . S
Tb40 O43 2.453 . S
Tb40 O44 2.596 . S
Tb40 O45 2.374 . S
Tb40 O53 2.343 . S
Tb40 O55 2.353 . S
Tb40 O57 2.427 . S
Tb40 O58 2.513 . S
C41 O45 1.251 . S
C41 O47 1.263 . S
Tb42 O44 2.343 . S
Tb42 O47 2.353 . S
Tb42 O50 2.427 . S
Tb42 O51 2.513 . S
Tb42 O52 2.453 . S
Tb42 O53 2.596 . S
Tb42 O54 2.374 . S
O43 Tb40 2.453 . S
O43 C59 1.245 . S
O44 Tb40 2.596 . S
O44 Tb42 2.343 . S
O44 C59 1.259 . S
O45 Tb40 2.374 . S
O45 C41 1.251 . S
C46 O50 1.275 . S
C46 O51 1.246 . S
O47 C41 1.263 . S
O47 Tb42 2.353 . S
C48 O52 1.245 . S
C48 O53 1.259 . S
C49 O54 1.250 . S
C49 O55 1.263 . S
O50 Tb42 2.427 . S
O50 C46 1.275 . S
O51 Tb42 2.513 . S
O51 C46 1.246 . S
O52 Tb42 2.453 . S
O52 C48 1.245 . S
O53 Tb40 2.343 . S
O53 Tb42 2.596 . S
O53 C48 1.259 . S
O54 Tb42 2.374 . S
O54 C49 1.250 . S
O55 Tb40 2.353 . S
O55 C49 1.263 . S
C56 O57 1.275 . S
C56 O58 1.246 . S
O57 Tb40 2.427 . S
O57 C56 1.275 . S
O58 Tb40 2.513 . S
O58 C56 1.246 . S
C59 O43 1.245 . S
C59 O44 1.259 . S
C60 C61 1.391 . S
C60 C64 1.391 . S
C60 H102 0.948 . S
C61 C60 1.391 . S
C61 C62 1.391 . S
C62 C61 1.391 . S
C62 H118 0.947 . S
C62 C119 1.392 . S
C63 C64 1.391 . S
C63 C67 1.397 . S
C63 C119 1.419 . S
C64 C60 1.391 . S
C64 C63 1.391 . S
C64 C65 1.399 . S
C65 C64 1.399 . S
C65 C68 1.396 . S
C65 C77 1.453 . S
C65 C78 1.684 . S
H66 C90 0.948 . S
C67 C63 1.397 . S
C67 C68 1.394 . S
C67 C86 1.723 . S
C68 C65 1.396 . S
C68 C67 1.394 . S
C68 C98 1.723 . S
H69 C92 0.947 . S
H70 C93 0.948 . S
H71 C99 0.982 . S
H72 C100 0.979 . S
H73 C100 0.980 . S
H74 C100 0.983 . S
H75 C99 0.979 . S
H76 C99 0.977 . S
C77 C65 1.453 . S
C77 H106 0.982 . S
C77 H107 0.979 . S
C77 H108 0.977 . S
C78 C65 1.684 . S
C78 H103 0.979 . S
C78 H104 0.980 . S
C78 H105 0.983 . S
C79 C80 1.391 . S
C79 C84 1.391 . S
C79 H109 0.948 . S
C80 C79 1.391 . S
C80 C81 1.391 . S
C81 C80 1.391 . S
C81 C82 1.392 . S
C81 H110 0.947 1_545 S
C82 C81 1.392 . S
C82 C83 1.419 . S
C82 H111 0.948 1_545 S
C83 C82 1.419 . S
C83 C84 1.391 . S
C83 C87 1.397 . S
C84 C79 1.391 . S
C84 C83 1.391 . S
C84 C85 1.399 . S
C85 C84 1.399 . S
C85 C86 1.396 . S
C85 C88 1.453 . S
C85 C89 1.684 . S
C86 C67 1.723 . S
C86 C85 1.396 . S
C86 C87 1.394 . S
C87 C83 1.397 . S
C87 C86 1.394 . S
C87 C97 1.723 1_545 S
C88 C85 1.453 . S
C88 H112 0.982 . S
C88 H113 0.979 . S
C88 H114 0.977 . S
C89 C85 1.684 . S
C89 H115 0.979 . S
C89 H116 0.980 . S
C89 H117 0.983 . S
C90 H66 0.948 . S
C90 C91 1.391 . S
C90 C95 1.391 . S
C91 C90 1.391 . S
C91 C92 1.391 . S
C92 H69 0.947 . S
C92 C91 1.391 . S
C92 C93 1.392 . S
C93 H70 0.948 . S
C93 C92 1.392 . S
C93 C94 1.419 . S
C94 C93 1.419 . S
C94 C95 1.391 . S
C94 C98 1.397 1_565 S
C95 C90 1.391 . S
C95 C94 1.391 . S
C95 C96 1.399 . S
C96 C95 1.399 . S
C96 C97 1.396 . S
C96 C99 1.453 . S
C96 C100 1.684 . S
C97 C87 1.723 1_565 S
C97 C96 1.396 . S
C97 C98 1.394 1_565 S
C98 C68 1.723 . S
C98 C94 1.397 1_545 S
C98 C97 1.394 1_545 S
C99 H71 0.982 . S
C99 H75 0.979 . S
C99 H76 0.977 . S
C99 C96 1.453 . S
C100 H72 0.979 . S
C100 H73 0.980 . S
C100 H74 0.983 . S
C100 C96 1.684 . S
H101 C119 0.948 . S
H102 C60 0.948 . S
H103 C78 0.979 . S
H104 C78 0.980 . S
H105 C78 0.983 . S
H106 C77 0.982 . S
H107 C77 0.979 . S
H108 C77 0.977 . S
H109 C79 0.948 . S
H110 C81 0.947 1_565 S
H111 C82 0.948 1_565 S
H112 C88 0.982 . S
H113 C88 0.979 . S
H114 C88 0.977 . S
H115 C89 0.979 . S
H116 C89 0.980 . S
H117 C89 0.983 . S
H118 C62 0.947 . S
C119 C62 1.392 . S
C119 C63 1.419 . S
C119 H101 0.948 . S
C120 C121 1.391 . S
C120 C124 1.391 . S
C120 H162 0.948 . S
C121 C120 1.391 . S
C121 C122 1.391 . S
C122 C121 1.391 . S
C122 H178 0.947 . S
C122 C179 1.392 . S
C123 C124 1.391 . S
C123 C127 1.397 . S
C123 C179 1.419 . S
C124 C120 1.391 . S
C124 C123 1.391 . S
C124 C125 1.399 . S
C125 C124 1.399 . S
C125 C128 1.396 . S
C125 C137 1.453 . S
C125 C138 1.684 . S
H126 C150 0.948 . S
C127 C123 1.397 . S
C127 C128 1.394 . S
C127 C146 1.723 . S
C128 C125 1.396 . S
C128 C127 1.394 . S
C128 C158 1.723 . S
H129 C152 0.947 . S
H130 C153 0.948 . S
H131 C159 0.982 . S
H132 C160 0.979 . S
H133 C160 0.980 . S
H134 C160 0.983 . S
H135 C159 0.979 . S
H136 C159 0.977 . S
C137 C125 1.453 . S
C137 H166 0.982 . S
C137 H167 0.979 . S
C137 H168 0.977 . S
C138 C125 1.684 . S
C138 H163 0.979 . S
C138 H164 0.980 . S
C138 H165 0.983 . S
C139 C140 1.391 . S
C139 C144 1.391 . S
C139 H169 0.948 . S
C140 C139 1.391 . S
C140 C141 1.391 . S
C141 C140 1.391 . S
C141 C142 1.392 . S
C141 H170 0.947 . S
C142 C141 1.392 . S
C142 C143 1.419 . S
C142 H171 0.948 . S
C143 C142 1.419 . S
C143 C144 1.391 . S
C143 C147 1.397 . S
C144 C139 1.391 . S
C144 C143 1.391 . S
C144 C145 1.399 . S
C145 C144 1.399 . S
C145 C146 1.396 . S
C145 C148 1.453 . S
C145 C149 1.684 . S
C146 C127 1.723 . S
C146 C145 1.396 . S
C146 C147 1.394 . S
C147 C143 1.397 . S
C147 C146 1.394 . S
C147 C157 1.723 . S
C148 C145 1.453 . S
C148 H172 0.982 . S
C148 H173 0.979 . S
C148 H174 0.977 . S
C149 C145 1.684 . S
C149 H175 0.979 . S
C149 H176 0.980 . S
C149 H177 0.983 . S
C150 H126 0.948 . S
C150 C151 1.391 . S
C150 C155 1.391 . S
C151 C150 1.391 . S
C151 C152 1.391 . S
C152 H129 0.947 . S
C152 C151 1.391 . S
C152 C153 1.392 . S
C153 H130 0.948 . S
C153 C152 1.392 . S
C153 C154 1.419 . S
C154 C153 1.419 . S
C154 C155 1.391 . S
C154 C158 1.397 . S
C155 C150 1.391 . S
C155 C154 1.391 . S
C155 C156 1.399 . S
C156 C155 1.399 . S
C156 C157 1.396 . S
C156 C159 1.453 . S
C156 C160 1.684 . S
C157 C147 1.723 . S
C157 C156 1.396 . S
C157 C158 1.394 . S
C158 C128 1.723 . S
C158 C154 1.397 . S
C158 C157 1.394 . S
C159 H131 0.982 . S
C159 H135 0.979 . S
C159 H136 0.977 . S
C159 C156 1.453 . S
C160 H132 0.979 . S
C160 H133 0.980 . S
C160 H134 0.983 . S
C160 C156 1.684 . S
H161 C179 0.948 . S
H162 C120 0.948 . S
H163 C138 0.979 . S
H164 C138 0.980 . S
H165 C138 0.983 . S
H166 C137 0.982 . S
H167 C137 0.979 . S
H168 C137 0.977 . S
H169 C139 0.948 . S
H170 C141 0.947 . S
H171 C142 0.948 . S
H172 C148 0.982 . S
H173 C148 0.979 . S
H174 C148 0.977 . S
H175 C149 0.979 . S
H176 C149 0.980 . S
H177 C149 0.983 . S
H178 C122 0.947 . S
C179 C122 1.392 . S
C179 C123 1.419 . S
C179 H161 0.948 . S
C180 C181 1.391 . S
C180 C184 1.391 . S
C180 H222 0.948 . S
C181 C180 1.391 . S
C181 C182 1.391 . S
C182 C181 1.391 . S
C182 H238 0.947 . S
C182 C239 1.392 . S
C183 C184 1.391 . S
C183 C187 1.397 . S
C183 C239 1.419 . S
C184 C180 1.391 . S
C184 C183 1.391 . S
C184 C185 1.399 . S
C185 C184 1.399 . S
C185 C188 1.396 . S
C185 C197 1.453 . S
C185 C198 1.684 . S
H186 C210 0.948 . S
C187 C183 1.397 . S
C187 C188 1.394 . S
C187 C206 1.723 . S
C188 C185 1.396 . S
C188 C187 1.394 . S
C188 C218 1.723 . S
H189 C212 0.947 . S
H190 C213 0.948 . S
H191 C219 0.982 . S
H192 C220 0.979 . S
H193 C220 0.980 . S
H194 C220 0.983 . S
H195 C219 0.979 . S
H196 C219 0.977 . S
C197 C185 1.453 . S
C197 H226 0.982 . S
C197 H227 0.979 . S
C197 H228 0.977 . S
C198 C185 1.684 . S
C198 H223 0.979 . S
C198 H224 0.980 . S
C198 H225 0.983 . S
C199 C200 1.391 . S
C199 C204 1.391 . S
C199 H229 0.948 . S
C200 C199 1.391 . S
C200 C201 1.391 . S
C201 C200 1.391 . S
C201 C202 1.392 . S
C201 H230 0.947 . S
C202 C201 1.392 . S
C202 C203 1.419 . S
C202 H231 0.948 . S
C203 C202 1.419 . S
C203 C204 1.391 . S
C203 C207 1.397 . S
C204 C199 1.391 . S
C204 C203 1.391 . S
C204 C205 1.399 . S
C205 C204 1.399 . S
C205 C206 1.396 . S
C205 C208 1.453 . S
C205 C209 1.684 . S
C206 C187 1.723 . S
C206 C205 1.396 . S
C206 C207 1.394 . S
C207 C203 1.397 . S
C207 C206 1.394 . S
C207 C217 1.723 . S
C208 C205 1.453 . S
C208 H232 0.982 . S
C208 H233 0.979 . S
C208 H234 0.977 . S
C209 C205 1.684 . S
C209 H235 0.979 . S
C209 H236 0.980 . S
C209 H237 0.983 . S
C210 H186 0.948 . S
C210 C211 1.391 . S
C210 C215 1.391 . S
C211 C210 1.391 . S
C211 C212 1.391 . S
C212 H189 0.947 . S
C212 C211 1.391 . S
C212 C213 1.392 1_655 S
C213 H190 0.948 . S
C213 C212 1.392 1_455 S
C213 C214 1.419 . S
C214 C213 1.419 . S
C214 C215 1.391 1_455 S
C214 C218 1.397 . S
C215 C210 1.391 . S
C215 C214 1.391 1_655 S
C215 C216 1.399 . S
C216 C215 1.399 . S
C216 C217 1.396 1_655 S
C216 C219 1.453 . S
C216 C220 1.684 . S
C217 C207 1.723 . S
C217 C216 1.396 1_455 S
C217 C218 1.394 . S
C218 C188 1.723 . S
C218 C214 1.397 . S
C218 C217 1.394 . S
C219 H191 0.982 . S
C219 H195 0.979 . S
C219 H196 0.977 . S
C219 C216 1.453 . S
C220 H192 0.979 . S
C220 H193 0.980 . S
C220 H194 0.983 . S
C220 C216 1.684 . S
H221 C239 0.948 . S
H222 C180 0.948 . S
H223 C198 0.979 . S
H224 C198 0.980 . S
H225 C198 0.983 . S
H226 C197 0.982 . S
H227 C197 0.979 . S
H228 C197 0.977 . S
H229 C199 0.948 . S
H230 C201 0.947 . S
H231 C202 0.948 . S
H232 C208 0.982 . S
H233 C208 0.979 . S
H234 C208 0.977 . S
H235 C209 0.979 . S
H236 C209 0.980 . S
H237 C209 0.983 . S
H238 C182 0.947 . S
C239 C182 1.392 . S
C239 C183 1.419 . S
C239 H221 0.948 . S
C240 C241 1.391 . S
C240 C244 1.391 . S
C240 H282 0.948 . S
C241 C240 1.391 . S
C241 C242 1.391 . S
C242 C241 1.391 . S
C242 H298 0.947 . S
C242 C299 1.392 . S
C243 C244 1.391 . S
C243 C247 1.397 . S
C243 C299 1.419 . S
C244 C240 1.391 . S
C244 C243 1.391 . S
C244 C245 1.399 . S
C245 C244 1.399 . S
C245 C248 1.396 . S
C245 C257 1.453 . S
C245 C258 1.684 . S
H246 C270 0.948 . S
C247 C243 1.397 . S
C247 C248 1.394 . S
C247 C266 1.723 . S
C248 C245 1.396 . S
C248 C247 1.394 . S
C248 C278 1.723 1_655 S
H249 C272 0.947 . S
H250 C273 0.948 . S
H251 C279 0.982 . S
H252 C280 0.979 . S
H253 C280 0.980 . S
H254 C280 0.983 . S
H255 C279 0.979 . S
H256 C279 0.977 . S
C257 C245 1.453 . S
C257 H286 0.982 1_655 S
C257 H287 0.979 . S
C257 H288 0.977 1_655 S
C258 C245 1.684 . S
C258 H283 0.979 . S
C258 H284 0.980 . S
C258 H285 0.983 . S
C259 C260 1.391 1_655 S
C259 C264 1.391 . S
C259 H289 0.948 . S
C260 C259 1.391 1_455 S
C260 C261 1.391 . S
C261 C260 1.391 . S
C261 C262 1.392 . S
C261 H290 0.947 . S
C262 C261 1.392 . S
C262 C263 1.419 . S
C262 H291 0.948 . S
C263 C262 1.419 . S
C263 C264 1.391 1_455 S
C263 C267 1.397 . S
C264 C259 1.391 . S
C264 C263 1.391 1_655 S
C264 C265 1.399 . S
C265 C264 1.399 . S
C265 C266 1.396 . S
C265 C268 1.453 . S
C265 C269 1.684 . S
C266 C247 1.723 . S
C266 C265 1.396 . S
C266 C267 1.394 1_655 S
C267 C263 1.397 . S
C267 C266 1.394 1_455 S
C267 C277 1.723 . S
C268 C265 1.453 . S
C268 H292 0.982 . S
C268 H293 0.979 . S
C268 H294 0.977 . S
C269 C265 1.684 . S
C269 H295 0.979 . S
C269 H296 0.980 . S
C269 H297 0.983 . S
C270 H246 0.948 . S
C270 C271 1.391 . S
C270 C275 1.391 . S
C271 C270 1.391 . S
C271 C272 1.391 . S
C272 H249 0.947 . S
C272 C271 1.391 . S
C272 C273 1.392 . S
C273 H250 0.948 . S
C273 C272 1.392 . S
C273 C274 1.419 . S
C274 C273 1.419 . S
C274 C275 1.391 . S
C274 C278 1.397 . S
C275 C270 1.391 . S
C275 C274 1.391 . S
C275 C276 1.399 . S
C276 C275 1.399 . S
C276 C277 1.396 . S
C276 C279 1.453 . S
C276 C280 1.684 . S
C277 C267 1.723 . S
C277 C276 1.396 . S
C277 C278 1.394 . S
C278 C248 1.723 1_455 S
C278 C274 1.397 . S
C278 C277 1.394 . S
C279 H251 0.982 . S
C279 H255 0.979 . S
C279 H256 0.977 . S
C279 C276 1.453 . S
C280 H252 0.979 . S
C280 H253 0.980 . S
C280 H254 0.983 . S
C280 C276 1.684 . S
H281 C299 0.948 . S
H282 C240 0.948 . S
H283 C258 0.979 . S
H284 C258 0.980 . S
H285 C258 0.983 . S
H286 C257 0.982 1_455 S
H287 C257 0.979 . S
H288 C257 0.977 1_455 S
H289 C259 0.948 . S
H290 C261 0.947 . S
H291 C262 0.948 . S
H292 C268 0.982 . S
H293 C268 0.979 . S
H294 C268 0.977 . S
H295 C269 0.979 . S
H296 C269 0.980 . S
H297 C269 0.983 . S
H298 C242 0.947 . S
C299 C242 1.392 . S
C299 C243 1.419 . S
C299 H281 0.948 . S
C300 C301 1.391 . S
C300 C304 1.391 . S
C300 H342 0.948 . S
C301 C300 1.391 . S
C301 C302 1.391 . S
C302 C301 1.391 . S
C302 H358 0.947 . S
C302 C359 1.392 . S
C303 C304 1.391 . S
C303 C307 1.397 . S
C303 C359 1.419 . S
C304 C300 1.391 . S
C304 C303 1.391 . S
C304 C305 1.399 . S
C305 C304 1.399 . S
C305 C308 1.396 1_565 S
C305 C317 1.453 1_565 S
C305 C318 1.684 . S
H306 C330 0.948 . S
C307 C303 1.397 . S
C307 C308 1.394 1_565 S
C307 C326 1.723 . S
C308 C305 1.396 1_545 S
C308 C307 1.394 1_545 S
C308 C338 1.723 . S
H309 C332 0.947 . S
H310 C333 0.948 . S
H311 C339 0.982 . S
H312 C340 0.979 . S
H313 C340 0.980 . S
H314 C340 0.983 . S
H315 C339 0.979 . S
H316 C339 0.977 . S
C317 C305 1.453 1_545 S
C317 H346 0.982 . S
C317 H347 0.979 . S
C317 H348 0.977 . S
C318 C305 1.684 . S
C318 H343 0.979 . S
C318 H344 0.980 1_565 S
C318 H345 0.983 . S
C319 C320 1.391 1_565 S
C319 C324 1.391 . S
C319 H349 0.948 . S
C320 C319 1.391 1_545 S
C320 C321 1.391 . S
C321 C320 1.391 . S
C321 C322 1.392 . S
C321 H350 0.947 . S
C322 C321 1.392 . S
C322 C323 1.419 . S
C322 H351 0.948 . S
C323 C322 1.419 . S
C323 C324 1.391 1_545 S
C323 C327 1.397 . S
C324 C319 1.391 . S
C324 C323 1.391 1_565 S
C324 C325 1.399 . S
C325 C324 1.399 . S
C325 C326 1.396 . S
C325 C328 1.453 . S
C325 C329 1.684 . S
C326 C307 1.723 . S
C326 C325 1.396 . S
C326 C327 1.394 1_565 S
C327 C323 1.397 . S
C327 C326 1.394 1_545 S
C327 C337 1.723 . S
C328 C325 1.453 . S
C328 H352 0.982 . S
C328 H353 0.979 . S
C328 H354 0.977 . S
C329 C325 1.684 . S
C329 H355 0.979 . S
C329 H356 0.980 . S
C329 H357 0.983 . S
C330 H306 0.948 . S
C330 C331 1.391 . S
C330 C335 1.391 . S
C331 C330 1.391 . S
C331 C332 1.391 . S
C332 H309 0.947 . S
C332 C331 1.391 . S
C332 C333 1.392 . S
C333 H310 0.948 . S
C333 C332 1.392 . S
C333 C334 1.419 . S
C334 C333 1.419 . S
C334 C335 1.391 . S
C334 C338 1.397 . S
C335 C330 1.391 . S
C335 C334 1.391 . S
C335 C336 1.399 . S
C336 C335 1.399 . S
C336 C337 1.396 . S
C336 C339 1.453 . S
C336 C340 1.684 . S
C337 C327 1.723 . S
C337 C336 1.396 . S
C337 C338 1.394 . S
C338 C308 1.723 . S
C338 C334 1.397 . S
C338 C337 1.394 . S
C339 H311 0.982 . S
C339 H315 0.979 . S
C339 H316 0.977 . S
C339 C336 1.453 . S
C340 H312 0.979 . S
C340 H313 0.980 . S
C340 H314 0.983 . S
C340 C336 1.684 . S
H341 C359 0.948 . S
H342 C300 0.948 . S
H343 C318 0.979 . S
H344 C318 0.980 1_545 S
H345 C318 0.983 . S
H346 C317 0.982 . S
H347 C317 0.979 . S
H348 C317 0.977 . S
H349 C319 0.948 . S
H350 C321 0.947 . S
H351 C322 0.948 . S
H352 C328 0.982 . S
H353 C328 0.979 . S
H354 C328 0.977 . S
H355 C329 0.979 . S
H356 C329 0.980 . S
H357 C329 0.983 . S
H358 C302 0.947 . S
C359 C302 1.392 . S
C359 C303 1.419 . S
C359 H341 0.948 . S
C360 C361 1.391 . S
C360 C364 1.391 . S
C360 H402 0.948 . S
C361 C360 1.391 . S
C361 C362 1.391 . S
C362 C361 1.391 . S
C362 H418 0.947 . S
C362 C419 1.392 . S
C363 C364 1.391 . S
C363 C367 1.397 . S
C363 C419 1.419 . S
C364 C360 1.391 . S
C364 C363 1.391 . S
C364 C365 1.399 . S
C365 C364 1.399 . S
C365 C368 1.396 . S
C365 C377 1.453 . S
C365 C378 1.684 . S
H366 C390 0.948 . S
C367 C363 1.397 . S
C367 C368 1.394 . S
C367 C386 1.723 . S
C368 C365 1.396 . S
C368 C367 1.394 . S
C368 C398 1.723 . S
H369 C392 0.947 . S
H370 C393 0.948 . S
H371 C399 0.982 . S
H372 C400 0.979 . S
H373 C400 0.980 . S
H374 C400 0.983 . S
H375 C399 0.979 . S
H376 C399 0.977 . S
C377 C365 1.453 . S
C377 H406 0.982 . S
C377 H407 0.979 . S
C377 H408 0.977 . S
C378 C365 1.684 . S
C378 H403 0.979 . S
C378 H404 0.980 . S
C378 H405 0.983 . S
C379 C380 1.391 . S
C379 C384 1.391 . S
C379 H409 0.948 . S
C380 C379 1.391 . S
C380 C381 1.391 . S
C381 C380 1.391 . S
C381 C382 1.392 . S
C381 H410 0.947 . S
C382 C381 1.392 . S
C382 C383 1.419 . S
C382 H411 0.948 . S
C383 C382 1.419 . S
C383 C384 1.391 . S
C383 C387 1.397 . S
C384 C379 1.391 . S
C384 C383 1.391 . S
C384 C385 1.399 . S
C385 C384 1.399 . S
C385 C386 1.396 . S
C385 C388 1.453 . S
C385 C389 1.684 . S
C386 C367 1.723 . S
C386 C385 1.396 . S
C386 C387 1.394 . S
C387 C383 1.397 . S
C387 C386 1.394 . S
C387 C397 1.723 . S
C388 C385 1.453 . S
C388 H412 0.982 . S
C388 H413 0.979 . S
C388 H414 0.977 . S
C389 C385 1.684 . S
C389 H415 0.979 . S
C389 H416 0.980 . S
C389 H417 0.983 . S
C390 H366 0.948 . S
C390 C391 1.391 . S
C390 C395 1.391 . S
C391 C390 1.391 . S
C391 C392 1.391 . S
C392 H369 0.947 . S
C392 C391 1.391 . S
C392 C393 1.392 . S
C393 H370 0.948 . S
C393 C392 1.392 . S
C393 C394 1.419 . S
C394 C393 1.419 . S
C394 C395 1.391 . S
C394 C398 1.397 . S
C395 C390 1.391 . S
C395 C394 1.391 . S
C395 C396 1.399 . S
C396 C395 1.399 . S
C396 C397 1.396 . S
C396 C399 1.453 . S
C396 C400 1.684 . S
C397 C387 1.723 . S
C397 C396 1.396 . S
C397 C398 1.394 . S
C398 C368 1.723 . S
C398 C394 1.397 . S
C398 C397 1.394 . S
C399 H371 0.982 . S
C399 H375 0.979 . S
C399 H376 0.977 . S
C399 C396 1.453 . S
C400 H372 0.979 . S
C400 H373 0.980 . S
C400 H374 0.983 . S
C400 C396 1.684 . S
H401 C419 0.948 . S
H402 C360 0.948 . S
H403 C378 0.979 . S
H404 C378 0.980 . S
H405 C378 0.983 . S
H406 C377 0.982 . S
H407 C377 0.979 . S
H408 C377 0.977 . S
H409 C379 0.948 . S
H410 C381 0.947 . S
H411 C382 0.948 . S
H412 C388 0.982 . S
H413 C388 0.979 . S
H414 C388 0.977 . S
H415 C389 0.979 . S
H416 C389 0.980 . S
H417 C389 0.983 . S
H418 C362 0.947 . S
C419 C362 1.392 . S
C419 C363 1.419 . S
C419 H401 0.948 . S
H420 C426 0.930 . S
H421 C430 0.930 . S
H422 C435 0.929 . S
H423 C433 0.929 . S
H424 C428 0.929 . S
H425 C434 0.929 . S
C426 H420 0.930 . S
C426 C427 1.367 . S
C426 C434 1.378 . S
C427 C426 1.367 . S
C427 C435 1.433 . S
C428 H424 0.929 . S
C428 C430 1.378 . S
C428 C432 1.350 . S
C429 C432 1.463 . S
C429 C434 1.350 . S
C429 N437 1.427 . S
C430 H421 0.930 . S
C430 C428 1.378 . S
C430 C431 1.367 . S
C431 C430 1.367 . S
C431 C433 1.433 . S
C432 C428 1.350 . S
C432 C429 1.463 . S
C432 N436 1.427 . S
C433 H423 0.929 . S
C433 C431 1.433 . S
C433 N436 1.384 . S
C434 H425 0.929 . S
C434 C426 1.378 . S
C434 C429 1.350 . S
C435 H422 0.929 . S
C435 C427 1.433 . S
C435 N437 1.384 . S
N436 C432 1.427 . S
N436 C433 1.384 . S
N437 C429 1.427 . S
N437 C435 1.384 . S
H438 C444 0.930 . S
H439 C448 0.930 . S
H440 C453 0.929 . S
H441 C451 0.929 . S
H442 C446 0.929 . S
H443 C452 0.929 . S
C444 H438 0.930 . S
C444 C445 1.367 . S
C444 C452 1.378 . S
C445 C444 1.367 . S
C445 C453 1.433 . S
C446 H442 0.929 . S
C446 C448 1.378 . S
C446 C450 1.350 . S
C447 C450 1.463 . S
C447 C452 1.350 . S
C447 N455 1.427 . S
C448 H439 0.930 . S
C448 C446 1.378 . S
C448 C449 1.367 . S
C449 C448 1.367 . S
C449 C451 1.433 . S
C450 C446 1.350 . S
C450 C447 1.463 . S
C450 N454 1.427 . S
C451 H441 0.929 . S
C451 C449 1.433 . S
C451 N454 1.384 . S
C452 H443 0.929 . S
C452 C444 1.378 . S
C452 C447 1.350 . S
C453 H440 0.929 . S
C453 C445 1.433 . S
C453 N455 1.384 . S
N454 C450 1.427 . S
N454 C451 1.384 . S
N455 C447 1.427 . S
N455 C453 1.384 . S
H456 C462 0.930 . S
H457 C466 0.930 . S
H458 C471 0.929 . S
H459 C469 0.929 . S
H460 C464 0.929 . S
H461 C470 0.929 . S
C462 H456 0.930 . S
C462 C463 1.367 . S
C462 C470 1.378 . S
C463 C462 1.367 . S
C463 C471 1.433 . S
C464 H460 0.929 . S
C464 C466 1.378 . S
C464 C468 1.350 . S
C465 C468 1.463 . S
C465 C470 1.350 . S
C465 N473 1.427 . S
C466 H457 0.930 . S
C466 C464 1.378 . S
C466 C467 1.367 . S
C467 C466 1.367 . S
C467 C469 1.433 . S
C468 C464 1.350 . S
C468 C465 1.463 . S
C468 N472 1.427 . S
C469 H459 0.929 . S
C469 C467 1.433 . S
C469 N472 1.384 . S
C470 H461 0.929 . S
C470 C462 1.378 . S
C470 C465 1.350 . S
C471 H458 0.929 . S
C471 C463 1.433 . S
C471 N473 1.384 . S
N472 C468 1.427 . S
N472 C469 1.384 . S
N473 C465 1.427 . S
N473 C471 1.384 . S
H474 C480 0.930 . S
H475 C484 0.930 . S
H476 C489 0.929 . S
H477 C487 0.929 . S
H478 C482 0.929 . S
H479 C488 0.929 . S
C480 H474 0.930 . S
C480 C481 1.367 . S
C480 C488 1.378 . S
C481 C480 1.367 . S
C481 C489 1.433 . S
C482 H478 0.929 . S
C482 C484 1.378 . S
C482 C486 1.350 . S
C483 C486 1.463 . S
C483 C488 1.350 . S
C483 N491 1.427 . S
C484 H475 0.930 . S
C484 C482 1.378 . S
C484 C485 1.367 . S
C485 C484 1.367 . S
C485 C487 1.433 . S
C486 C482 1.350 . S
C486 C483 1.463 . S
C486 N490 1.427 . S
C487 H477 0.929 . S
C487 C485 1.433 . S
C487 N490 1.384 . S
C488 H479 0.929 . S
C488 C480 1.378 . S
C488 C483 1.350 . S
C489 H476 0.929 . S
C489 C481 1.433 . S
C489 N491 1.384 . S
N490 C486 1.427 . S
N490 C487 1.384 . S
N491 C483 1.427 . S
N491 C489 1.384 . S
H492 C498 0.930 . S
H493 C502 0.930 . S
H494 C507 0.929 . S
H495 C505 0.929 . S
H496 C500 0.929 . S
H497 C506 0.929 . S
C498 H492 0.930 . S
C498 C499 1.367 . S
C498 C506 1.378 . S
C499 C498 1.367 . S
C499 C507 1.433 . S
C500 H496 0.929 . S
C500 C502 1.378 . S
C500 C504 1.350 . S
C501 C504 1.463 . S
C501 C506 1.350 . S
C501 N509 1.427 . S
C502 H493 0.930 . S
C502 C500 1.378 . S
C502 C503 1.367 . S
C503 C502 1.367 . S
C503 C505 1.433 . S
C504 C500 1.350 . S
C504 C501 1.463 . S
C504 N508 1.427 . S
C505 H495 0.929 . S
C505 C503 1.433 . S
C505 N508 1.384 . S
C506 H497 0.929 . S
C506 C498 1.378 . S
C506 C501 1.350 . S
C507 H494 0.929 . S
C507 C499 1.433 . S
C507 N509 1.384 . S
N508 C504 1.427 . S
N508 C505 1.384 . S
N509 C501 1.427 . S
N509 C507 1.384 . S
H510 C516 0.930 . S
H511 C520 0.930 . S
H512 C525 0.929 . S
H513 C523 0.929 . S
H514 C518 0.929 . S
H515 C524 0.929 . S
C516 H510 0.930 . S
C516 C517 1.367 . S
C516 C524 1.378 . S
C517 C516 1.367 . S
C517 C525 1.433 . S
C518 H514 0.929 . S
C518 C520 1.378 . S
C518 C522 1.350 . S
C519 C522 1.463 . S
C519 C524 1.350 . S
C519 N527 1.427 . S
C520 H511 0.930 . S
C520 C518 1.378 . S
C520 C521 1.367 . S
C521 C520 1.367 . S
C521 C523 1.433 . S
C522 C518 1.350 . S
C522 C519 1.463 . S
C522 N526 1.427 . S
C523 H513 0.929 . S
C523 C521 1.433 . S
C523 N526 1.384 . S
C524 H515 0.929 . S
C524 C516 1.378 . S
C524 C519 1.350 . S
C525 H512 0.929 . S
C525 C517 1.433 . S
C525 N527 1.384 . S
N526 C522 1.427 . S
N526 C523 1.384 . S
N527 C519 1.427 . S
N527 C525 1.384 . S
H528 C534 0.930 . S
H529 C538 0.930 . S
H530 C543 0.929 . S
H531 C541 0.929 . S
H532 C536 0.929 . S
H533 C542 0.929 . S
C534 H528 0.930 . S
C534 C535 1.367 . S
C534 C542 1.378 . S
C535 C534 1.367 . S
C535 C543 1.433 . S
C536 H532 0.929 . S
C536 C538 1.378 . S
C536 C540 1.350 . S
C537 C540 1.463 . S
C537 C542 1.350 . S
C537 N545 1.427 . S
C538 H529 0.930 . S
C538 C536 1.378 . S
C538 C539 1.367 . S
C539 C538 1.367 . S
C539 C541 1.433 . S
C540 C536 1.350 . S
C540 C537 1.463 . S
C540 N544 1.427 . S
C541 H531 0.929 . S
C541 C539 1.433 . S
C541 N544 1.384 . S
C542 H533 0.929 . S
C542 C534 1.378 . S
C542 C537 1.350 . S
C543 H530 0.929 . S
C543 C535 1.433 . S
C543 N545 1.384 . S
N544 C540 1.427 . S
N544 C541 1.384 . S
N545 C537 1.427 . S
N545 C543 1.384 . S
H546 C552 0.930 . S
H547 C556 0.930 . S
H548 C561 0.929 . S
H549 C559 0.929 . S
H550 C554 0.929 . S
H551 C560 0.929 . S
C552 H546 0.930 . S
C552 C553 1.367 . S
C552 C560 1.378 . S
C553 C552 1.367 . S
C553 C561 1.433 . S
C554 H550 0.929 . S
C554 C556 1.378 . S
C554 C558 1.350 . S
C555 C558 1.463 . S
C555 C560 1.350 . S
C555 N563 1.427 . S
C556 H547 0.930 . S
C556 C554 1.378 . S
C556 C557 1.367 . S
C557 C556 1.367 . S
C557 C559 1.433 . S
C558 C554 1.350 . S
C558 C555 1.463 . S
C558 N562 1.427 . S
C559 H549 0.929 . S
C559 C557 1.433 . S
C559 N562 1.384 . S
C560 H551 0.929 . S
C560 C552 1.378 . S
C560 C555 1.350 . S
C561 H548 0.929 . S
C561 C553 1.433 . S
C561 N563 1.384 . S
N562 C558 1.427 . S
N562 C559 1.384 . S
N563 C555 1.427 . S
N563 C561 1.384 . S
H564 C570 0.930 . S
H565 C574 0.930 . S
H566 C579 0.929 . S
H567 C577 0.929 . S
H568 C572 0.929 . S
H569 C578 0.929 . S
C570 H564 0.930 . S
C570 C571 1.367 . S
C570 C578 1.378 . S
C571 C570 1.367 . S
C571 C579 1.433 . S
C572 H568 0.929 . S
C572 C574 1.378 . S
C572 C576 1.350 . S
C573 C576 1.463 . S
C573 C578 1.350 . S
C573 N581 1.427 . S
C574 H565 0.930 . S
C574 C572 1.378 . S
C574 C575 1.367 . S
C575 C574 1.367 . S
C575 C577 1.433 . S
C576 C572 1.350 . S
C576 C573 1.463 . S
C576 N580 1.427 . S
C577 H567 0.929 . S
C577 C575 1.433 . S
C577 N580 1.384 . S
C578 H569 0.929 . S
C578 C570 1.378 . S
C578 C573 1.350 . S
C579 H566 0.929 . S
C579 C571 1.433 . S
C579 N581 1.384 . S
N580 C576 1.427 . S
N580 C577 1.384 . S
N581 C573 1.427 . S
N581 C579 1.384 . S
H582 C588 0.930 . S
H583 C592 0.930 . S
H584 C597 0.929 . S
H585 C595 0.929 . S
H586 C590 0.929 . S
H587 C596 0.929 . S
C588 H582 0.930 . S
C588 C589 1.367 . S
C588 C596 1.378 . S
C589 C588 1.367 . S
C589 C597 1.433 . S
C590 H586 0.929 . S
C590 C592 1.378 . S
C590 C594 1.350 . S
C591 C594 1.463 . S
C591 C596 1.350 . S
C591 N599 1.427 . S
C592 H583 0.930 . S
C592 C590 1.378 . S
C592 C593 1.367 . S
C593 C592 1.367 . S
C593 C595 1.433 . S
C594 C590 1.350 . S
C594 C591 1.463 . S
C594 N598 1.427 . S
C595 H585 0.929 . S
C595 C593 1.433 . S
C595 N598 1.384 . S
C596 H587 0.929 . S
C596 C588 1.378 . S
C596 C591 1.350 . S
C597 H584 0.929 . S
C597 C589 1.433 . S
C597 N599 1.384 . S
N598 C594 1.427 . S
N598 C595 1.384 . S
N599 C591 1.427 . S
N599 C597 1.384 . S
H600 C606 0.930 . S
H601 C610 0.930 . S
H602 C615 0.929 . S
H603 C613 0.929 . S
H604 C608 0.929 . S
H605 C614 0.929 . S
C606 H600 0.930 . S
C606 C607 1.367 . S
C606 C614 1.378 . S
C607 C606 1.367 . S
C607 C615 1.433 . S
C608 H604 0.929 . S
C608 C610 1.378 . S
C608 C612 1.350 . S
C609 C612 1.463 . S
C609 C614 1.350 . S
C609 N617 1.427 . S
C610 H601 0.930 . S
C610 C608 1.378 . S
C610 C611 1.367 . S
C611 C610 1.367 . S
C611 C613 1.433 . S
C612 C608 1.350 . S
C612 C609 1.463 . S
C612 N616 1.427 . S
C613 H603 0.929 . S
C613 C611 1.433 . S
C613 N616 1.384 . S
C614 H605 0.929 . S
C614 C606 1.378 . S
C614 C609 1.350 . S
C615 H602 0.929 . S
C615 C607 1.433 . S
C615 N617 1.384 . S
N616 C612 1.427 . S
N616 C613 1.384 . S
N617 C609 1.427 . S
N617 C615 1.384 . S
H618 C624 0.930 . S
H619 C628 0.930 . S
H620 C633 0.929 . S
H621 C631 0.929 . S
H622 C626 0.929 . S
H623 C632 0.929 . S
C624 H618 0.930 . S
C624 C625 1.367 . S
C624 C632 1.378 . S
C625 C624 1.367 . S
C625 C633 1.433 . S
C626 H622 0.929 . S
C626 C628 1.378 . S
C626 C630 1.350 . S
C627 C630 1.463 . S
C627 C632 1.350 . S
C627 N635 1.427 . S
C628 H619 0.930 . S
C628 C626 1.378 . S
C628 C629 1.367 . S
C629 C628 1.367 . S
C629 C631 1.433 . S
C630 C626 1.350 . S
C630 C627 1.463 . S
C630 N634 1.427 . S
C631 H621 0.929 . S
C631 C629 1.433 . S
C631 N634 1.384 . S
C632 H623 0.929 . S
C632 C624 1.378 . S
C632 C627 1.350 . S
C633 H620 0.929 . S
C633 C625 1.433 . S
C633 N635 1.384 . S
N634 C630 1.427 . S
N634 C631 1.384 . S
N635 C627 1.427 . S
N635 C633 1.384 . S
H636 C642 0.930 . S
H637 C646 0.930 1_556 S
H638 C651 0.929 1_655 S
H639 C649 0.929 . S
H640 C644 0.929 . S
H641 C650 0.929 . S
C642 H636 0.930 . S
C642 C643 1.367 . S
C642 C650 1.378 . S
C643 C642 1.367 . S
C643 C651 1.433 . S
C644 H640 0.929 . S
C644 C646 1.378 . S
C644 C648 1.350 . S
C645 C648 1.463 . S
C645 C650 1.350 . S
C645 N653 1.427 . S
C646 H637 0.930 1_554 S
C646 C644 1.378 . S
C646 C647 1.367 1_554 S
C647 C646 1.367 1_556 S
C647 C649 1.433 1_556 S
C648 C644 1.350 . S
C648 C645 1.463 . S
C648 N652 1.427 . S
C649 H639 0.929 . S
C649 C647 1.433 1_554 S
C649 N652 1.384 . S
C650 H641 0.929 . S
C650 C642 1.378 . S
C650 C645 1.350 . S
C651 H638 0.929 1_455 S
C651 C643 1.433 . S
C651 N653 1.384 . S
N652 C648 1.427 . S
N652 C649 1.384 . S
N653 C645 1.427 . S
N653 C651 1.384 . S
H654 C660 0.930 . S
H655 C664 0.932 . S
H656 C669 0.929 1_565 S
H657 C667 0.929 . S
H658 C662 0.929 1_565 S
H659 C668 0.929 . S
C660 H654 0.930 . S
C660 C661 1.367 . S
C660 C668 1.378 . S
C661 C660 1.367 . S
C661 C669 1.433 . S
C662 H658 0.929 1_545 S
C662 C664 1.378 . S
C662 C666 1.350 . S
C663 C666 1.463 . S
C663 C668 1.350 . S
C663 N671 1.427 . S
C664 H655 0.932 . S
C664 C662 1.378 . S
C664 C665 1.367 . S
C665 C664 1.367 . S
C665 C667 1.433 . S
C666 C662 1.350 . S
C666 C663 1.463 . S
C666 N670 1.427 . S
C667 H657 0.929 . S
C667 C665 1.433 . S
C667 N670 1.384 . S
C668 H659 0.929 . S
C668 C660 1.378 . S
C668 C663 1.350 . S
C669 H656 0.929 1_545 S
C669 C661 1.433 . S
C669 N671 1.384 . S
N670 C666 1.427 . S
N670 C667 1.384 . S
N671 C663 1.427 . S
N671 C669 1.384 . S
H672 C678 0.930 . S
H673 C682 0.930 . S
H674 C687 0.929 . S
H675 C685 0.929 . S
H676 C680 0.929 . S
H677 C686 0.929 . S
C678 H672 0.930 . S
C678 C679 1.367 . S
C678 C686 1.378 . S
C679 C678 1.367 . S
C679 C687 1.433 . S
C680 H676 0.929 . S
C680 C682 1.378 . S
C680 C684 1.350 . S
C681 C684 1.463 . S
C681 C686 1.350 . S
C681 N689 1.427 . S
C682 H673 0.930 . S
C682 C680 1.378 . S
C682 C683 1.367 . S
C683 C682 1.367 . S
C683 C685 1.433 . S
C684 C680 1.350 . S
C684 C681 1.463 . S
C684 N688 1.427 . S
C685 H675 0.929 . S
C685 C683 1.433 . S
C685 N688 1.384 . S
C686 H677 0.929 . S
C686 C678 1.378 . S
C686 C681 1.350 . S
C687 H674 0.929 . S
C687 C679 1.433 . S
C687 N689 1.384 . S
N688 C684 1.427 . S
N688 C685 1.384 . S
N689 C681 1.427 . S
N689 C687 1.384 . S
H690 C696 0.930 . S
H691 C700 0.930 . S
H692 C705 0.929 . S
H693 C703 0.929 . S
H694 C698 0.929 . S
H695 C704 0.929 . S
C696 H690 0.930 . S
C696 C697 1.367 1_565 S
C696 C704 1.378 . S
C697 C696 1.367 1_545 S
C697 C705 1.433 . S
C698 H694 0.929 . S
C698 C700 1.378 . S
C698 C702 1.350 . S
C699 C702 1.463 . S
C699 C704 1.350 1_545 S
C699 N707 1.427 . S
C700 H691 0.930 . S
C700 C698 1.378 . S
C700 C701 1.367 . S
C701 C700 1.367 . S
C701 C703 1.433 1_545 S
C702 C698 1.350 . S
C702 C699 1.463 . S
C702 N706 1.427 1_545 S
C703 H693 0.929 . S
C703 C701 1.433 1_565 S
C703 N706 1.384 . S
C704 H695 0.929 . S
C704 C696 1.378 . S
C704 C699 1.350 1_565 S
C705 H692 0.929 . S
C705 C697 1.433 . S
C705 N707 1.384 . S
N706 C702 1.427 1_565 S
N706 C703 1.384 . S
N707 C699 1.427 . S
N707 C705 1.384 . S
H708 C714 0.930 . S
H709 C718 0.930 1_554 S
H710 C723 0.929 . S
H711 C721 0.929 . S
H712 C716 0.929 . S
H713 C722 0.929 . S
C714 H708 0.930 . S
C714 C715 1.367 . S
C714 C722 1.378 . S
C715 C714 1.367 . S
C715 C723 1.433 . S
C716 H712 0.929 . S
C716 C718 1.378 . S
C716 C720 1.350 . S
C717 C720 1.463 . S
C717 C722 1.350 . S
C717 N725 1.427 . S
C718 H709 0.930 1_556 S
C718 C716 1.378 . S
C718 C719 1.374 . S
C719 C718 1.374 . S
C719 C721 1.446 . S
C720 C716 1.350 . S
C720 C717 1.463 . S
C720 N724 1.427 . S
C721 H711 0.929 . S
C721 C719 1.446 . S
C721 N724 1.384 . S
C722 H713 0.929 . S
C722 C714 1.378 . S
C722 C717 1.350 . S
C723 H710 0.929 . S
C723 C715 1.433 . S
C723 N725 1.384 . S
N724 C720 1.427 . S
N724 C721 1.384 . S
N725 C717 1.427 . S
N725 C723 1.384 . S
H726 C732 0.930 . S
H727 C736 0.930 . S
H728 C741 0.929 . S
H729 C739 0.929 . S
H730 C734 0.929 . S
H731 C740 0.929 . S
C732 H726 0.930 . S
C732 C733 1.367 . S
C732 C740 1.378 . S
C733 C732 1.367 . S
C733 C741 1.433 1_455 S
C734 H730 0.929 . S
C734 C736 1.378 . S
C734 C738 1.350 1_655 S
C735 C738 1.463 . S
C735 C740 1.350 . S
C735 N743 1.427 1_455 S
C736 H727 0.930 . S
C736 C734 1.378 . S
C736 C737 1.385 . S
C737 C736 1.385 . S
C737 C739 1.411 1_655 S
C738 C734 1.350 1_455 S
C738 C735 1.463 . S
C738 N742 1.427 . S
C739 H729 0.929 . S
C739 C737 1.411 1_455 S
C739 N742 1.384 . S
C740 H731 0.929 . S
C740 C732 1.378 . S
C740 C735 1.350 . S
C741 H728 0.929 . S
C741 C733 1.433 1_655 S
C741 N743 1.384 . S
N742 C738 1.427 . S
N742 C739 1.384 . S
N743 C735 1.427 1_655 S
N743 C741 1.384 . S
C427 C8 2.026 . S
C431 C391 2.123 . S
C445 C26 1.343 . S
C449 C241 1.272 . S
C463 C48 1.496 . S
C467 C301 1.452 . S
C481 C19 1.832 . S
C485 C361 1.781 . S
C503 C271 1.567 . S
C499 C36 1.528 . S
C521 C331 1.815 . S
C517 C59 1.732 . S
C535 C28 1.530 . S
C539 C121 1.491 . S
C553 C46 1.235 . S
C557 C211 1.273 . S
C571 C16 1.597 . S
C575 C91 1.654 . S
C593 C151 1.774 . S
C589 C39 1.700 . S
C611 C181 0.998 . S
C607 C56 1.036 . S
C625 C6 1.393 . S
C629 C61 1.322 . S
C647 C200 1.418 . S
C643 C9 1.405 . S
C661 C21 1.504 . S
C665 C80 1.478 . S
C679 C49 1.476 . S
C683 C140 1.454 . S
C701 C320 1.429 . S
C697 C29 1.468 . S
C719 C380 1.555 1_556 S
C715 C41 1.575 . S
C733 C1 1.496 . S
C737 C260 1.492 1_655 S
