# Generated by pormake.
# Topology csq, (4,8)-cn, num edge types: 1
# Building blocks:
#     Node 0, Type 0, BuildingBlock: KUFVIS_clean_linker_0, # of connection points: 4
#     Node 1, Type 0, BuildingBlock: KUFVIS_clean_linker_0, # of connection points: 4
#     Node 2, Type 0, BuildingBlock: KUFVIS_clean_linker_0, # of connection points: 4
#     Node 3, Type 0, BuildingBlock: KUFVIS_clean_linker_0, # of connection points: 4
#     Node 4, Type 0, BuildingBlock: KUFVIS_clean_linker_0, # of connection points: 4
#     Node 5, Type 0, BuildingBlock: KUFVIS_clean_linker_0, # of connection points: 4
#     Node 6, Type 1, BuildingBlock: TAGTUT_clean_sbu_1, # of connection points: 8
#     Node 7, Type 1, BuildingBlock: TAGTUT_clean_sbu_1, # of connection points: 8
#     Node 8, Type 1, BuildingBlock: TAGTUT_clean_sbu_1, # of connection points: 8
#     Edge 9, Type (0, 1), BuildingBlock: XIVTED_clean_linker_0, # of connection points: 2
#     Edge 10, Type (0, 1), BuildingBlock: XIVTED_clean_linker_0, # of connection points: 2
#     Edge 11, Type (0, 1), BuildingBlock: XIVTED_clean_linker_0, # of connection points: 2
#     Edge 12, Type (0, 1), BuildingBlock: XIVTED_clean_linker_0, # of connection points: 2
#     Edge 13, Type (0, 1), BuildingBlock: XIVTED_clean_linker_0, # of connection points: 2
#     Edge 14, Type (0, 1), BuildingBlock: XIVTED_clean_linker_0, # of connection points: 2
#     Edge 15, Type (0, 1), BuildingBlock: XIVTED_clean_linker_0, # of connection points: 2
#     Edge 16, Type (0, 1), BuildingBlock: XIVTED_clean_linker_0, # of connection points: 2
#     Edge 17, Type (0, 1), BuildingBlock: XIVTED_clean_linker_0, # of connection points: 2
#     Edge 18, Type (0, 1), BuildingBlock: XIVTED_clean_linker_0, # of connection points: 2
#     Edge 19, Type (0, 1), BuildingBlock: XIVTED_clean_linker_0, # of connection points: 2
#     Edge 20, Type (0, 1), BuildingBlock: XIVTED_clean_linker_0, # of connection points: 2
#     Edge 21, Type (0, 1), BuildingBlock: XIVTED_clean_linker_0, # of connection points: 2
#     Edge 22, Type (0, 1), BuildingBlock: XIVTED_clean_linker_0, # of connection points: 2
#     Edge 23, Type (0, 1), BuildingBlock: XIVTED_clean_linker_0, # of connection points: 2
#     Edge 24, Type (0, 1), BuildingBlock: XIVTED_clean_linker_0, # of connection points: 2
#     Edge 25, Type (0, 1), BuildingBlock: XIVTED_clean_linker_0, # of connection points: 2
#     Edge 26, Type (0, 1), BuildingBlock: XIVTED_clean_linker_0, # of connection points: 2
#     Edge 27, Type (0, 1), BuildingBlock: XIVTED_clean_linker_0, # of connection points: 2
#     Edge 28, Type (0, 1), BuildingBlock: XIVTED_clean_linker_0, # of connection points: 2
#     Edge 29, Type (0, 1), BuildingBlock: XIVTED_clean_linker_0, # of connection points: 2
#     Edge 30, Type (0, 1), BuildingBlock: XIVTED_clean_linker_0, # of connection points: 2
#     Edge 31, Type (0, 1), BuildingBlock: XIVTED_clean_linker_0, # of connection points: 2
#     Edge 32, Type (0, 1), BuildingBlock: XIVTED_clean_linker_0, # of connection points: 2
# Relax obj value: 0.044
# Max RMSD: 0.132
# Mean RMSD: 0.100
data_MOF--net-csq--node1-TAGTUT_clean_sbu_1--node2-KUFVIS_clean_linker_0--edge1-XIVTED_clean_linker_0
_symmetry_space_group_name_H-M    P1
_symmetry_Int_Tables_number       1
_symmetry_cell_setting            triclinic
loop_
_symmetry_equiv_pos_as_xyz
'x, y, z'
_cell_length_a     54.105859
_cell_length_b     53.685969
_cell_length_c     18.74378
_cell_angle_alpha  92.875466
_cell_angle_beta   91.466054
_cell_angle_gamma 120.09935
loop_
_atom_site_label
_atom_site_type_symbol
_atom_site_fract_x
_atom_site_fract_y
_atom_site_fract_z
_atom_type_partial_charge
H0 H 0.34166 0.47884 0.17782 0.0
H1 H 0.2718 0.4786 0.27918 0.0
H2 H 0.28571 0.49716 0.05598 0.0
H3 H 0.24185 0.48586 0.04754 0.0
H4 H 0.18804 0.51144 0.15173 0.0
H5 H 0.24797 0.5005 0.27916 0.0
C6 C 0.32268 0.48083 0.17415 0.0
C7 C 0.31443 0.48704 0.10923 0.0
C8 C 0.30759 0.47848 0.23526 0.0
C9 C 0.28325 0.48132 0.23118 0.0
C10 C 0.27425 0.48776 0.16663 0.0
C11 C 0.29048 0.49072 0.10575 0.0
C12 C 0.24909 0.49272 0.16364 0.0
C13 C 0.23576 0.49194 0.09697 0.0
C14 C 0.21469 0.49974 0.09255 0.0
C15 C 0.20496 0.50622 0.15523 0.0
C16 C 0.21623 0.50538 0.22238 0.0
C17 C 0.23858 0.49921 0.22661 0.0
H18 H 0.68432 0.18718 0.13734 0.0
H19 H 0.76872 0.23928 0.23442 0.0
H20 H 0.75299 0.23774 0.00563 0.0
H21 H 0.79817 0.2522 -4e-05 0.0
H22 H 0.87821 0.31723 0.09994 0.0
H23 H 0.80419 0.283 0.22241 0.0
C24 C 0.70671 0.20287 0.13232 0.0
C25 C 0.7168 0.2109 0.06436 0.0
C26 C 0.72527 0.21354 0.19367 0.0
C27 C 0.75458 0.23236 0.18673 0.0
C28 C 0.76537 0.24201 0.11928 0.0
C29 C 0.74595 0.23085 0.0582 0.0
C30 C 0.79669 0.2633 0.11317 0.0
C31 C 0.81005 0.2654 0.04774 0.0
C32 C 0.83932 0.28497 0.04327 0.0
C33 C 0.85567 0.30169 0.10409 0.0
C34 C 0.8431 0.30087 0.16838 0.0
C35 C 0.81361 0.28226 0.17273 0.0
H36 H 0.535 0.8581 0.03918 0.0
H37 H 0.53683 0.79302 0.15722 0.0
H38 H 0.53973 0.78987 0.92529 0.0
H39 H 0.51879 0.74297 0.93379 0.0
H40 H 0.53424 0.68482 0.04762 0.0
H41 H 0.55795 0.76719 0.15044 0.0
C42 C 0.53522 0.83798 0.0397 0.0
C43 C 0.53604 0.82447 0.97537 0.0
C44 C 0.53627 0.82707 0.10475 0.0
C45 C 0.53709 0.80147 0.10589 0.0
C46 C 0.53767 0.78692 0.04133 0.0
C47 C 0.53792 0.79932 0.97579 0.0
C48 C 0.53751 0.75888 0.04277 0.0
C49 C 0.52666 0.73861 0.98245 0.0
C50 C 0.52563 0.7121 0.98462 0.0
C51 C 0.53492 0.70538 0.04673 0.0
C52 C 0.54681 0.72516 0.10596 0.0
C53 C 0.54805 0.75188 0.10444 0.0
H54 H 0.86031 0.51734 0.07462 0.0
H55 H 0.78777 0.51327 0.16964 0.0
H56 H 0.80377 0.53323 0.94758 0.0
H57 H 0.76004 0.52146 0.93513 0.0
H58 H 0.69418 0.52929 0.03497 0.0
H59 H 0.75989 0.52996 0.16722 0.0
C60 C 0.84109 0.51885 0.06966 0.0
C61 C 0.83301 0.52465 0.004 0.0
C62 C 0.82499 0.51547 0.12927 0.0
C63 C 0.80015 0.51734 0.12298 0.0
C64 C 0.7914 0.5236 0.05773 0.0
C65 C 0.80855 0.52743 -0.00173 0.0
C66 C 0.76461 0.52586 0.05202 0.0
C67 C 0.75164 0.52456 0.98429 0.0
C68 C 0.72713 0.52702 0.97856 0.0
C69 C 0.71385 0.52861 0.04009 0.0
C70 C 0.72511 0.52849 0.10791 0.0
C71 C 0.75109 0.52852 0.1139 0.0
H72 H 0.35829 0.83645 0.08914 0.0
H73 H 0.28836 0.78737 0.21904 0.0
H74 H 0.27449 0.78419 -0.01103 0.0
H75 H 0.23856 0.74087 0.00141 0.0
H76 H 0.16351 0.70836 0.11972 0.0
H77 H 0.2432 0.77318 0.22173 0.0
C78 C 0.3358 0.82092 0.09356 0.0
C79 C 0.31767 0.80989 0.03148 0.0
C80 C 0.32513 0.81354 0.16132 0.0
C81 C 0.29586 0.79379 0.16651 0.0
C82 C 0.27689 0.78227 0.10462 0.0
C83 C 0.28826 0.79133 0.03736 0.0
C84 C 0.24542 0.7613 0.10963 0.0
C85 C 0.22881 0.74209 0.05011 0.0
C86 C 0.19918 0.72386 0.0532 0.0
C87 C 0.18617 0.72365 0.11637 0.0
C88 C 0.20217 0.7406 0.17733 0.0
C89 C 0.23158 0.75981 0.17394 0.0
H90 H 0.52223 0.33956 0.14355 0.0
H91 H 0.49239 0.26759 0.2724 0.0
H92 H 0.50294 0.25767 0.04594 0.0
H93 H 0.46863 0.21307 0.05932 0.0
H94 H 0.45996 0.14564 0.18667 0.0
H95 H 0.50545 0.23286 0.27749 0.0
C96 C 0.51657 0.31729 0.14877 0.0
C97 C 0.51351 0.29988 0.08761 0.0
C98 C 0.50904 0.30579 0.215 0.0
C99 C 0.49941 0.27647 0.22127 0.0
C100 C 0.49782 0.25861 0.16117 0.0
C101 C 0.50466 0.27068 0.09382 0.0
C102 C 0.48744 0.22727 0.16841 0.0
C103 C 0.47253 0.20668 0.11028 0.0
C104 C 0.46275 0.17737 0.11701 0.0
C105 C 0.46679 0.16827 0.18231 0.0
C106 C 0.48215 0.18809 0.23988 0.0
C107 C 0.49278 0.21763 0.23306 0.0
C108 C 0.9915 0.43002 0.78374 0.0
C109 C 0.07952 0.48874 0.72675 0.0
C110 C 0.04819 0.56841 0.72379 0.0
Mg111 Mg 0.02215 0.45259 0.64418 0.0
O112 O 0.01109 0.47995 0.66906 0.0
Mg113 Mg 0.02586 0.50218 0.7641 0.0
Mg114 Mg 0.0225 0.51245 0.60786 0.0
O115 O 0.03334 0.54508 0.5471 0.0
Mg116 Mg 0.02029 0.57082 0.57313 0.0
Mg117 Mg 0.01853 0.52283 0.45228 0.0
C118 C 0.99628 0.45604 0.49236 0.0
C119 C 0.07303 0.51735 0.50631 0.0
O120 O 1.00042 0.45624 0.80815 0.0
O121 O 0.9977 0.42374 0.72245 0.0
O122 O 0.06705 0.49981 0.7621 0.0
O123 O 0.06689 0.4705 0.67332 0.0
O124 O 1.00512 0.44322 0.53331 0.0
O125 O 0.99841 0.48039 0.51198 0.0
C126 C 0.9735 0.51099 0.71024 0.0
O127 O 0.98222 0.51359 0.64647 0.0
O128 O 0.98623 0.50635 0.76181 0.0
O129 O 0.04207 0.56882 0.4087 0.0
O130 O 0.04369 0.60051 0.49511 0.0
O131 O 0.97621 0.52269 0.45486 0.0
C132 C 0.05015 0.59478 0.43354 0.0
O133 O 0.97498 0.55085 0.5445 0.0
O134 O 0.03811 0.58045 0.68376 0.0
C135 C 0.96284 0.5325 0.49094 0.0
O136 O 0.04691 0.54448 0.70378 0.0
O137 O 0.06328 0.51208 0.56901 0.0
O138 O 0.05999 0.52218 0.45583 0.0
C139 C 0.45901 0.02192 0.81784 0.0
C140 C 0.43885 0.94217 0.70062 0.0
C141 C 0.55061 0.98247 0.69891 0.0
Mg142 Mg 0.45679 1.00283 0.65815 0.0
O143 O 0.49535 0.01671 0.68695 0.0
Mg144 Mg 0.50333 0.99792 0.76655 0.0
Mg145 Mg 0.51959 0.01315 0.61478 0.0
O146 O 0.54353 0.00932 0.54263 0.0
Mg147 Mg 0.58164 0.01993 0.56715 0.0
Mg148 Mg 0.53543 0.02767 0.46243 0.0
C149 C 0.48777 0.04195 0.52846 0.0
C150 C 0.47704 0.96744 0.48517 0.0
O151 O 0.47801 0.01486 0.83258 0.0
O152 O 0.44791 0.01887 0.75457 0.0
O153 O 0.46191 0.95438 0.7407 0.0
O154 O 0.43277 0.95634 0.6578 0.0
O155 O 0.46527 0.0279 0.56381 0.0
O156 O 0.51081 0.04114 0.54185 0.0
C157 C 0.56153 0.05874 0.74485 0.0
O158 O 0.55793 0.05309 0.67676 0.0
O159 O 0.54397 0.04138 0.78753 0.0
O160 O 0.55839 0.00874 0.39487 0.0
O161 O 0.58613 1.00039 0.47021 0.0
O162 O 0.57796 0.07046 0.48698 0.0
C163 C 0.57472 0.99825 0.40782 0.0
O164 O 0.60773 0.06623 0.5637 0.0
O165 O 0.57293 0.995 0.66214 0.0
C166 C 0.60177 0.08139 0.52392 0.0
O167 O 0.52869 0.98542 0.68719 0.0
O168 O 0.4811 0.973 0.55323 0.0
O169 O 0.49428 0.98485 0.44218 0.0
C170 C 0.55736 0.58848 0.41641 0.0
C171 C 0.59409 0.53475 0.46208 0.0
C172 C 0.48709 0.45149 0.50353 0.0
Mg173 Mg 0.57484 0.57008 0.55439 0.0
O174 O 0.53598 0.54154 0.53945 0.0
Mg175 Mg 0.52407 0.51737 0.44729 0.0
Mg176 Mg 0.52097 0.5107 0.60703 0.0
O177 O 0.50624 0.48003 0.67536 0.0
Mg178 Mg 0.46772 0.45027 0.66511 0.0
Mg179 Mg 0.51949 0.50451 0.76733 0.0
C180 C 0.55338 0.57016 0.71147 0.0
C181 C 0.5758 0.51338 0.68842 0.0
O182 O 0.54034 0.56175 0.3949 0.0
O183 O 0.57219 0.59632 0.47607 0.0
O184 O 0.56845 0.5216 0.43431 0.0
O185 O 0.60169 0.5536 0.51486 0.0
O186 O 0.57271 0.58234 0.66615 0.0
O187 O 0.53236 0.54424 0.6993 0.0
C188 C 0.4668 0.50815 0.52294 0.0
O189 O 0.4769 0.50594 0.58331 0.0
O190 O 0.48061 0.51288 0.46597 0.0
O191 O 0.50646 0.46106 0.8184 0.0
O192 O 0.4734 0.42502 0.74266 0.0
O193 O 0.47503 0.49928 0.78518 0.0
C194 C 0.49019 0.43401 0.7993 0.0
O195 O 0.44089 0.46631 0.70802 0.0
O196 O 0.46889 0.43909 0.55135 0.0
C197 C 0.44902 0.48557 0.76003 0.0
O198 O 0.5089 0.47706 0.51529 0.0
O199 O 0.56509 0.51508 0.62852 0.0
O200 O 0.56271 0.50955 0.74616 0.0
H201 H 0.21647 0.5548 0.26225 0.0
H202 H 0.09194 0.47931 0.53402 0.0
H203 H 0.18698 0.46881 0.32583 0.0
H204 H 0.11574 0.55894 0.43762 0.0
H205 H 0.13321 0.47899 0.48153 0.0
H206 H 0.18715 0.56087 0.35057 0.0
C207 C 0.20427 0.53744 0.29625 0.0
C208 C 0.20408 0.5113 0.28686 0.0
C209 C 0.12966 0.49679 0.47317 0.0
C210 C 0.16958 0.5176 0.3868 0.0
C211 C 0.10629 0.49708 0.50356 0.0
C212 C 0.10043 0.51911 0.48969 0.0
C213 C 0.14728 0.51887 0.42951 0.0
C214 C 0.11941 0.54144 0.44914 0.0
C215 C 0.18735 0.54078 0.34637 0.0
C216 C 0.18777 0.48936 0.33188 0.0
N217 N 0.14176 0.54064 0.42027 0.0
N218 N 0.17076 0.4928 0.37922 0.0
H219 H 0.7442 0.19134 0.29683 0.0
H220 H 0.59542 0.12528 0.47712 0.0
H221 H 0.67923 0.21318 0.25007 0.0
H222 H 0.65978 0.10327 0.53082 0.0
H223 H 0.63077 0.16614 0.41599 0.0
H224 H 0.71875 0.16733 0.40164 0.0
C225 C 0.72495 0.19165 0.30963 0.0
C226 C 0.71349 0.20378 0.26417 0.0
C227 C 0.63743 0.1528 0.44235 0.0
C228 C 0.68418 0.17625 0.3832 0.0
C229 C 0.61724 0.12953 0.4777 0.0
C230 C 0.62453 0.11054 0.508 0.0
C231 C 0.66501 0.15682 0.43596 0.0
C232 C 0.65318 0.11725 0.50771 0.0
C233 C 0.71036 0.17787 0.36925 0.0
C234 C 0.68846 0.20356 0.28302 0.0
N235 N 0.67223 0.13943 0.47057 0.0
N236 N 0.67447 0.18968 0.34042 0.0
H237 H 0.52982 0.7188 0.24371 0.0
H238 H 0.55683 0.59076 0.27053 0.0
H239 H 0.58728 0.70964 0.1041 0.0
H240 H 0.56111 0.6386 0.46691 0.0
H241 H 0.56058 0.63065 0.2034 0.0
H242 H 0.53583 0.68777 0.32672 0.0
C243 C 0.54456 0.71123 0.23205 0.0
C244 C 0.55798 0.71658 0.16709 0.0
C245 C 0.56082 0.63234 0.26127 0.0
C246 C 0.56367 0.68024 0.25882 0.0
C247 C 0.55845 0.60958 0.2993 0.0
C248 C 0.55882 0.61156 0.37408 0.0
C249 C 0.56266 0.6567 0.29834 0.0
C250 C 0.56101 0.63644 0.40914 0.0
C251 C 0.54766 0.69327 0.27871 0.0
C252 C 0.57647 0.70583 0.15365 0.0
N253 N 0.56248 0.65795 0.37093 0.0
N254 N 0.57814 0.68748 0.19804 0.0
H255 H 0.83611 0.473 0.16053 0.0
H256 H 0.93517 0.56363 0.50186 0.0
H257 H 0.83769 0.5487 0.25469 0.0
H258 H 0.92437 0.48241 0.41672 0.0
H259 H 0.89266 0.55406 0.42863 0.0
H260 H 0.86126 0.47131 0.26849 0.0
C261 C 0.84139 0.48897 0.20475 0.0
C262 C 0.83521 0.51118 0.19884 0.0
C263 C 0.89921 0.53802 0.42734 0.0
C264 C 0.8646 0.50996 0.32187 0.0
C265 C 0.92337 0.54341 0.46945 0.0
C266 C 0.93363 0.52406 0.46398 0.0
C267 C 0.88544 0.51317 0.37974 0.0
C268 C 0.91755 0.4982 0.4213 0.0
C269 C 0.85573 0.48806 0.26642 0.0
C270 C 0.84224 0.53129 0.2575 0.0
N271 N 0.89459 0.49374 0.37998 0.0
N272 N 0.85713 0.53058 0.3162 0.0
H273 H 0.37848 0.82124 0.1877 0.0
H274 H 0.42041 0.938 0.51966 0.0
H275 H 0.31696 0.83993 0.28062 0.0
H276 H 0.47984 0.93395 0.37738 0.0
H277 H 0.38116 0.8945 0.45372 0.0
H278 H 0.41441 0.85404 0.27989 0.0
C279 C 0.37243 0.83193 0.22831 0.0
C280 C 0.34483 0.82822 0.2258 0.0
C281 C 0.40289 0.90298 0.43781 0.0
C282 C 0.386 0.86611 0.33138 0.0
C283 C 0.42524 0.92763 0.47564 0.0
C284 C 0.45329 0.93959 0.45357 0.0
C285 C 0.40892 0.89014 0.37859 0.0
C286 C 0.45843 0.92558 0.39563 0.0
C287 C 0.39295 0.85072 0.28085 0.0
C288 C 0.33802 0.84226 0.28054 0.0
N289 N 0.43652 0.90172 0.3602 0.0
N290 N 0.35861 0.86098 0.33058 0.0
H291 H 0.55173 0.35752 0.273 0.0
H292 H 0.4433 0.39856 0.45197 0.0
H293 H 0.46154 0.29717 0.28119 0.0
H294 H 0.53216 0.45998 0.4245 0.0
H295 H 0.44887 0.3613 0.38706 0.0
H296 H 0.54523 0.39465 0.33573 0.0
C297 C 0.53072 0.35192 0.29036 0.0
C298 C 0.50715 0.32433 0.27262 0.0
C299 C 0.46704 0.38303 0.39438 0.0
C300 C 0.49925 0.36682 0.34141 0.0
C301 C 0.46379 0.40442 0.43062 0.0
C302 C 0.48742 0.43236 0.4447 0.0
C303 C 0.49412 0.38962 0.3723 0.0
C304 C 0.51338 0.43874 0.41531 0.0
C305 C 0.52689 0.37319 0.32487 0.0
C306 C 0.48026 0.31813 0.29494 0.0
N307 N 0.51616 0.41739 0.38156 0.0
N308 N 0.47695 0.33936 0.32757 0.0
H309 H 0.58212 0.85903 0.90148 0.0
H310 H 0.50256 0.93971 0.75551 0.0
H311 H 0.49151 0.82563 0.90983 0.0
H312 H 0.59303 0.9719 0.74202 0.0
H313 H 0.49771 0.89695 0.80856 0.0
H314 H 0.58576 0.89791 0.83124 0.0
C315 C 0.5628 0.85914 0.88544 0.0
C316 C 0.53643 0.83894 0.91026 0.0
C317 C 0.51865 0.91344 0.7943 0.0
C318 C 0.54051 0.88411 0.83378 0.0
C319 C 0.5215 0.93812 0.76493 0.0
C320 C 0.54824 0.95957 0.74425 0.0
C321 C 0.54272 0.91015 0.80325 0.0
C322 C 0.57196 0.95598 0.75699 0.0
C323 C 0.56492 0.88167 0.84676 0.0
C324 C 0.51213 0.84057 0.89043 0.0
N325 N 0.56862 0.93174 0.78533 0.0
N326 N 0.5148 0.86305 0.85431 0.0
H327 H 0.69932 0.48191 0.87808 0.0
H328 H 0.62802 0.56174 0.68694 0.0
H329 H 0.72443 0.57124 0.92256 0.0
H330 H 0.58647 0.47002 0.70592 0.0
H331 H 0.67323 0.56656 0.73343 0.0
H332 H 0.66806 0.479 0.77658 0.0
C333 C 0.69888 0.5011 0.86483 0.0
C334 C 0.71409 0.52677 0.90841 0.0
C335 C 0.65443 0.54527 0.72518 0.0
C336 C 0.67859 0.52366 0.79382 0.0
C337 C 0.6288 0.54254 0.69822 0.0
C338 C 0.60381 0.51549 0.693 0.0
C339 C 0.65475 0.52074 0.74694 0.0
C340 C 0.6055 0.49122 0.7093 0.0
C341 C 0.68104 0.49944 0.80736 0.0
C342 C 0.71278 0.55106 0.89001 0.0
N343 N 0.63051 0.49443 0.73651 0.0
N344 N 0.69501 0.54884 0.83451 0.0
H345 H 0.2022 0.67803 -0.00732 0.0
H346 H 0.04512 0.61024 0.80396 0.0
H347 H 0.15341 0.72131 0.98426 0.0
H348 H 0.09552 0.5688 0.78154 0.0
H349 H 0.08353 0.64872 0.88119 0.0
H350 H 0.1638 0.63692 0.91847 0.0
C351 C 0.18381 0.67919 0.97321 0.0
C352 C 0.18094 0.70306 -0.00631 0.0
C353 C 0.08619 0.63111 0.86009 0.0
C354 C 0.13672 0.65604 0.91204 0.0
C355 C 0.06407 0.60893 0.81668 0.0
C356 C 0.06722 0.58642 0.7859 0.0
C357 C 0.11182 0.63096 0.87266 0.0
C358 C 0.0922 0.58574 0.80441 0.0
C359 C 0.16174 0.65562 0.93201 0.0
C360 C 0.15644 0.70334 0.96894 0.0
N361 N 0.11378 0.60796 0.84592 0.0
N362 N 0.13521 0.68011 0.93 0.0
H363 H 0.41228 0.12658 0.08881 0.0
H364 H 0.49717 0.06048 0.92035 0.0
H365 H 0.49552 0.18008 0.009 0.0
H366 H 0.41067 0.02554 0.83218 0.0
H367 H 0.49384 0.09957 0.98343 0.0
H368 H 0.40743 0.08513 0.01403 0.0
C369 C 0.4289 0.12981 0.05307 0.0
C370 C 0.45424 0.15665 0.05429 0.0
C371 C 0.47549 0.08303 0.95103 0.0
C372 C 0.44959 0.1096 0.97334 0.0
C373 C 0.47716 0.06047 0.91619 0.0
C374 C 0.45416 0.03984 0.87104 0.0
C375 C 0.45049 0.08453 0.9418 0.0
C376 C 0.42886 0.04116 0.86655 0.0
C377 C 0.4263 0.1062 0.01148 0.0
C378 C 0.47556 0.15977 0.00871 0.0
N379 N 0.42765 0.06329 0.90157 0.0
N380 N 0.47312 0.13627 0.9715 0.0
H381 H 0.29768 0.45961 0.97408 0.0
H382 H 0.45972 0.52924 0.85976 0.0
H383 H 0.37175 0.52335 0.10345 0.0
H384 H 0.3899 0.45311 0.74764 0.0
H385 H 0.42577 0.53312 0.93545 0.0
H386 H 0.32917 0.46243 0.87819 0.0
C387 C 0.32049 0.47454 0.98169 0.0
C388 C 0.33221 0.49112 0.04684 0.0
C389 C 0.41776 0.51567 0.89395 0.0
C390 C 0.36822 0.49448 0.93802 0.0
C391 C 0.43718 0.51346 0.85037 0.0
C392 C 0.42779 0.49053 0.79767 0.0
C393 C 0.38855 0.49478 0.88539 0.0
C394 C 0.39818 0.47103 0.78782 0.0
C395 C 0.33844 0.47602 0.92727 0.0
C396 C 0.3619 0.50999 0.05429 0.0
N397 N 0.37964 0.47339 0.83184 0.0
N398 N 0.37882 0.51106 0.00085 0.0
H399 H 0.88086 0.27555 -0.00825 0.0
H400 H 0.95136 0.43078 0.86694 0.0
H401 H 0.83144 0.31618 0.94693 0.0
H402 H 0.98019 0.37418 0.78147 0.0
H403 H 0.90957 0.38903 0.90996 0.0
H404 H 0.91842 0.30949 0.91825 0.0
C405 C 0.87727 0.29059 0.9631 0.0
C406 C 0.85307 0.2931 0.97488 0.0
C407 C 0.92511 0.3858 0.88186 0.0
C408 C 0.89636 0.33283 0.89533 0.0
C409 C 0.94921 0.40966 0.85857 0.0
C410 C 0.96936 0.40594 0.82111 0.0
C411 C 0.9214 0.35812 0.86895 0.0
C412 C 0.96516 0.37793 0.81045 0.0
C413 C 0.89887 0.31025 0.92236 0.0
C414 C 0.84969 0.31345 0.93846 0.0
N415 N 0.94172 0.35503 0.8348 0.0
N416 N 0.87155 0.3332 0.90212 0.0
H417 H 0.88775 0.56707 -0.00992 0.0
H418 H 0.9153 0.47781 0.67997 0.0
H419 H 0.81959 0.48913 0.8815 0.0
H420 H 0.98055 0.55771 0.78798 0.0
H421 H 0.87853 0.48473 0.73796 0.0
H422 H 0.92052 0.56761 0.90206 0.0
C423 C 0.87961 0.55041 0.9465 0.0
C424 C 0.85101 0.52811 0.94268 0.0
C425 C 0.90086 0.50106 0.74769 0.0
C426 C 0.88856 0.5279 0.84266 0.0
C427 C 0.92176 0.4972 0.71418 0.0
C428 C 0.95084 0.51733 0.72919 0.0
C429 C 0.9093 0.52512 0.79665 0.0
C430 C 0.95827 0.54179 0.77494 0.0
C431 C 0.89832 0.55058 0.89639 0.0
C432 C 0.84151 0.50682 0.88573 0.0
N433 N 0.93772 0.54486 0.80743 0.0
N434 N 0.86035 0.50697 0.83847 0.0
H435 H 0.3637 0.80922 0.97825 0.0
H436 H 0.3805 0.91708 0.68342 0.0
H437 H 0.2998 0.83192 0.92566 0.0
H438 H 0.44691 0.9006 0.7562 0.0
H439 H 0.34576 0.87581 0.74567 0.0
H440 H 0.38903 0.8324 0.87342 0.0
C441 C 0.35481 0.81876 0.94384 0.0
C442 C 0.32993 0.81913 0.96119 0.0
C443 C 0.3678 0.88079 0.74648 0.0
C444 C 0.35896 0.84603 0.84143 0.0
C445 C 0.38762 0.90419 0.71032 0.0
C446 C 0.41676 0.91264 0.71594 0.0
C447 C 0.37727 0.86579 0.78811 0.0
C448 C 0.42474 0.89517 0.75162 0.0
C449 C 0.36924 0.83196 0.88394 0.0
C450 C 0.31903 0.83133 0.91428 0.0
N451 N 0.40522 0.87291 0.78737 0.0
N452 N 0.33391 0.8448 0.85718 0.0
H453 H 0.47036 0.28152 0.98506 0.0
H454 H 0.53395 0.44397 0.89447 0.0
H455 H 0.55788 0.34774 0.03741 0.0
H456 H 0.45563 0.375 0.78936 0.0
H457 H 0.54278 0.40816 0.94595 0.0
H458 H 0.46529 0.31338 0.90434 0.0
C459 C 0.48892 0.30224 0.97681 0.0
C460 C 0.51452 0.31216 0.01817 0.0
C461 C 0.52368 0.40082 0.91149 0.0
C462 C 0.50853 0.34914 0.92906 0.0
C463 C 0.51839 0.4213 0.8829 0.0
C464 C 0.49387 0.41255 0.83791 0.0
C465 C 0.50418 0.37127 0.89581 0.0
C466 C 0.47475 0.38278 0.82402 0.0
C467 C 0.48588 0.32064 0.93178 0.0
C468 C 0.53777 0.33939 0.00651 0.0
N469 N 0.48022 0.36321 0.85317 0.0
N470 N 0.53402 0.35723 0.96445 0.0
H471 H 0.21175 0.54549 0.04781 0.0
H472 H 0.10308 0.45389 0.71733 0.0
H473 H 0.19116 0.45906 0.9788 0.0
H474 H 0.11994 0.53742 0.80277 0.0
H475 H 0.14384 0.45987 0.79213 0.0
H476 H 0.18684 0.54711 0.93944 0.0
C477 C 0.20213 0.52693 0.00924 0.0
C478 C 0.20296 0.50191 0.02257 0.0
C479 C 0.13898 0.47714 0.79323 0.0
C480 C 0.17415 0.5034 0.89869 0.0
C481 C 0.11587 0.47384 0.75019 0.0
C482 C 0.10785 0.49497 0.75513 0.0
C483 C 0.15406 0.50178 0.84094 0.0
C484 C 0.12509 0.52037 0.79848 0.0
C485 C 0.18799 0.52786 0.94729 0.0
C486 C 0.19072 0.47865 0.97048 0.0
N487 N 0.1471 0.52288 0.84044 0.0
N488 N 0.17632 0.47974 0.9112 0.0
H489 H 0.66352 0.20382 0.04294 0.0
H490 H 0.61723 0.0894 0.7039 0.0
H491 H 0.72369 0.18517 0.94178 0.0
H492 H 0.56037 0.09076 0.85909 0.0
H493 H 0.65725 0.13258 0.76907 0.0
H494 H 0.62659 0.1715 0.95205 0.0
C495 C 0.66906 0.19326 0.00076 0.0
C496 C 0.69656 0.19679 0.00059 0.0
C497 C 0.63589 0.12354 0.78805 0.0
C498 C 0.65427 0.15948 0.89654 0.0
C499 C 0.61311 0.09905 0.75082 0.0
C500 C 0.58558 0.08638 0.77671 0.0
C501 C 0.63078 0.13558 0.85039 0.0
C502 C 0.58134 0.09961 0.83788 0.0
C503 C 0.64797 0.17475 0.949 0.0
C504 C 0.70271 0.18295 0.94394 0.0
N505 N 0.60364 0.12337 0.87254 0.0
N506 N 0.68157 0.1645 0.89465 0.0
H507 H 0.4823 0.65655 0.95858 0.0
H508 H 0.59183 0.62683 0.75094 0.0
H509 H 0.55859 0.72292 0.87195 0.0
H510 H 0.50629 0.55869 0.78647 0.0
H511 H 0.58025 0.66195 0.80267 0.0
H512 H 0.48847 0.61985 0.89193 0.0
C513 C 0.49948 0.66334 0.92238 0.0
C514 C 0.52004 0.69267 0.92062 0.0
C515 C 0.56404 0.63928 0.79947 0.0
C516 C 0.52818 0.65113 0.84798 0.0
C517 C 0.5708 0.61913 0.77108 0.0
C518 C 0.54989 0.58971 0.76328 0.0
C519 C 0.53627 0.63 0.821 0.0
C520 C 0.52309 0.5811 0.79102 0.0
C521 C 0.50339 0.64243 0.88573 0.0
C522 C 0.54225 0.70049 0.8743 0.0
N523 N 0.51694 0.60121 0.81803 0.0
N524 N 0.54619 0.67979 0.84118 0.0
H525 H 0.53166 0.18912 0.27659 0.0
H526 H 0.44247 0.04696 0.4815 0.0
H527 H 0.44557 0.15779 0.33933 0.0
H528 H 0.5341 0.08694 0.47028 0.0
H529 H 0.44398 0.08722 0.42427 0.0
H530 H 0.53482 0.15385 0.34929 0.0
C531 C 0.51395 0.17571 0.30847 0.0
C532 C 0.48847 0.17655 0.30314 0.0
C533 C 0.46381 0.08726 0.43413 0.0
C534 C 0.49129 0.13533 0.38279 0.0
C535 C 0.46294 0.06404 0.46621 0.0
C536 C 0.48822 0.06351 0.48119 0.0
C537 C 0.49013 0.11026 0.41612 0.0
C538 C 0.51405 0.08634 0.4596 0.0
C539 C 0.51554 0.15525 0.3488 0.0
C540 C 0.46571 0.15807 0.34317 0.0
N541 N 0.51436 0.10888 0.4283 0.0
N542 N 0.4675 0.13794 0.38039 0.0
H543 H 0.31811 0.4364 0.27583 0.0
H544 H 0.45054 0.54758 0.50243 0.0
H545 H 0.32677 0.51787 0.34937 0.0
H546 H 0.41752 0.45685 0.52219 0.0
H547 H 0.40305 0.53687 0.45765 0.0
H548 H 0.35085 0.4413 0.37531 0.0
C549 C 0.32622 0.45483 0.31451 0.0
C550 C 0.31999 0.47684 0.30465 0.0
C551 C 0.40587 0.51934 0.47394 0.0
C552 C 0.35805 0.48314 0.41653 0.0
C553 C 0.43292 0.5255 0.49951 0.0
C554 C 0.43759 0.50302 0.51597 0.0
C555 C 0.38382 0.49043 0.46225 0.0
C556 C 0.41445 0.47469 0.51029 0.0
C557 C 0.34489 0.45768 0.37117 0.0
C558 C 0.33113 0.50046 0.35554 0.0
N559 N 0.3886 0.46906 0.48209 0.0
N560 N 0.35028 0.5034 0.40835 0.0
H561 H 0.84062 0.34673 0.23035 0.0
H562 H 0.99902 0.41435 0.41063 0.0
H563 H 0.88911 0.30309 0.23496 0.0
H564 H 0.94908 0.45606 0.43662 0.0
H565 H 0.96004 0.37584 0.33463 0.0
H566 H 0.87971 0.38792 0.30268 0.0
C567 C 0.8591 0.3455 0.24872 0.0
C568 C 0.86166 0.3215 0.22772 0.0
C569 C 0.95763 0.39356 0.3561 0.0
C570 C 0.90669 0.36863 0.30705 0.0
C571 C 0.98007 0.41576 0.39869 0.0
C572 C 0.97722 0.43837 0.43003 0.0
C573 C 0.93196 0.39377 0.34507 0.0
C574 C 0.95219 0.43913 0.4129 0.0
C575 C 0.88156 0.36912 0.28879 0.0
C576 C 0.8863 0.32115 0.25088 0.0
N577 N 0.93028 0.41688 0.37229 0.0
N578 N 0.90793 0.34444 0.28871 0.0
H579 H 0.58199 0.85425 0.20075 0.0
H580 H 0.53913 0.97313 0.28779 0.0
H581 H 0.49851 0.84256 0.15053 0.0
H582 H 0.60796 0.97294 0.40956 0.0
H583 H 0.52849 0.92793 0.22432 0.0
H584 H 0.59426 0.89834 0.27514 0.0
C585 C 0.56586 0.86032 0.2081 0.0
C586 C 0.53925 0.84497 0.16989 0.0
C587 C 0.54607 0.93791 0.2646 0.0
C588 C 0.55347 0.89565 0.25084 0.0
C589 C 0.55254 0.96405 0.29998 0.0
C590 C 0.57426 0.97671 0.35486 0.0
C591 C 0.5616 0.92449 0.28356 0.0
C592 C 0.59082 0.96376 0.36813 0.0
C593 C 0.57301 0.88569 0.24928 0.0
C594 C 0.51922 0.85391 0.17954 0.0
N595 N 0.58398 0.93815 0.33312 0.0
N596 N 0.52695 0.87904 0.21794 0.0
H597 H 0.66985 0.48833 0.12451 0.0
H598 H 0.65304 0.56849 0.47499 0.0
H599 H 0.74151 0.56334 0.23408 0.0
H600 H 0.58459 0.49082 0.36471 0.0
H601 H 0.68712 0.56464 0.3976 0.0
H602 H 0.63981 0.48667 0.22081 0.0
C603 C 0.67928 0.5044 0.16935 0.0
C604 C 0.70811 0.52619 0.17098 0.0
C605 C 0.66469 0.54825 0.39112 0.0
C606 C 0.67365 0.52464 0.28194 0.0
C607 C 0.64522 0.55033 0.43556 0.0
C608 C 0.61578 0.53015 0.42587 0.0
C609 C 0.65465 0.52581 0.33673 0.0
C610 C 0.60696 0.50713 0.37373 0.0
C611 C 0.66212 0.50344 0.22452 0.0
C612 C 0.71934 0.54623 0.23081 0.0
N613 N 0.6262 0.50579 0.33093 0.0
N614 N 0.70198 0.54522 0.2836 0.0
H615 H 0.15933 0.74911 0.22356 0.0
H616 H 0.09096 0.59525 0.35121 0.0
H617 H 0.21049 0.71129 0.27839 0.0
H618 H 0.06027 0.6503 0.43652 0.0
H619 H 0.13247 0.63759 0.3096 0.0
H620 H 0.12166 0.71527 0.29702 0.0
C621 C 0.16324 0.73475 0.25435 0.0
C622 C 0.18797 0.7329 0.24527 0.0
C623 C 0.11658 0.64035 0.33731 0.0
C624 C 0.14464 0.69334 0.32493 0.0
C625 C 0.09262 0.61616 0.35977 0.0
C626 C 0.07203 0.61926 0.39677 0.0
C627 C 0.11971 0.66777 0.35054 0.0
C628 C 0.07564 0.64703 0.40781 0.0
C629 C 0.1416 0.71517 0.29513 0.0
C630 C 0.1918 0.71346 0.28458 0.0
N631 N 0.09898 0.6703 0.38417 0.0
N632 N 0.16992 0.69373 0.32086 0.0
loop_
_geom_bond_atom_site_label_1
_geom_bond_atom_site_label_2
_geom_bond_distance
_geom_bond_site_symmetry_2
_ccdc_geom_bond_type
H0 C6 0.930 . S
H1 C9 0.931 . S
H2 C11 0.931 . S
H3 C13 0.930 . S
H4 C15 0.930 . S
H5 C17 0.931 . S
C6 H0 0.930 . S
C6 C7 1.380 . S
C6 C8 1.394 . S
C7 C6 1.380 . S
C7 C11 1.382 . S
C8 C6 1.394 . S
C8 C9 1.400 . S
C9 H1 0.931 . S
C9 C8 1.400 . S
C9 C10 1.375 . S
C10 C9 1.375 . S
C10 C11 1.415 . S
C10 C12 1.501 . S
C11 H2 0.931 . S
C11 C7 1.382 . S
C11 C10 1.415 . S
C12 C10 1.501 . S
C12 C13 1.384 . S
C12 C17 1.408 . S
C13 H3 0.930 . S
C13 C12 1.384 . S
C13 C14 1.389 . S
C14 C13 1.389 . S
C14 C15 1.405 . S
C15 H4 0.930 . S
C15 C14 1.405 . S
C15 C16 1.364 . S
C16 C15 1.364 . S
C16 C17 1.400 . S
C17 H5 0.931 . S
C17 C12 1.408 . S
C17 C16 1.400 . S
H18 C24 0.930 . S
H19 C27 0.931 . S
H20 C29 0.931 . S
H21 C31 0.930 . S
H22 C33 0.930 . S
H23 C35 0.931 . S
C24 H18 0.930 . S
C24 C25 1.380 . S
C24 C26 1.394 . S
C25 C24 1.380 . S
C25 C29 1.382 . S
C26 C24 1.394 . S
C26 C27 1.400 . S
C27 H19 0.931 . S
C27 C26 1.400 . S
C27 C28 1.375 . S
C28 C27 1.375 . S
C28 C29 1.415 . S
C28 C30 1.501 . S
C29 H20 0.931 . S
C29 C25 1.382 . S
C29 C28 1.415 . S
C30 C28 1.501 . S
C30 C31 1.384 . S
C30 C35 1.408 . S
C31 H21 0.930 . S
C31 C30 1.384 . S
C31 C32 1.389 . S
C32 C31 1.389 . S
C32 C33 1.405 . S
C33 H22 0.930 . S
C33 C32 1.405 . S
C33 C34 1.364 . S
C34 C33 1.364 . S
C34 C35 1.400 . S
C35 H23 0.931 . S
C35 C30 1.408 . S
C35 C34 1.400 . S
H36 C42 0.930 . S
H37 C45 0.931 . S
H38 C47 0.931 . S
H39 C49 0.930 . S
H40 C51 0.930 . S
H41 C53 0.931 . S
C42 H36 0.930 . S
C42 C43 1.380 1_554 S
C42 C44 1.394 . S
C43 C42 1.380 1_556 S
C43 C47 1.382 . S
C44 C42 1.394 . S
C44 C45 1.400 . S
C45 H37 0.931 . S
C45 C44 1.400 . S
C45 C46 1.375 . S
C46 C45 1.375 . S
C46 C47 1.415 1_554 S
C46 C48 1.501 . S
C47 H38 0.931 . S
C47 C43 1.382 . S
C47 C46 1.415 1_556 S
C48 C46 1.501 . S
C48 C49 1.384 1_554 S
C48 C53 1.408 . S
C49 H39 0.930 . S
C49 C48 1.384 1_556 S
C49 C50 1.389 . S
C50 C49 1.389 . S
C50 C51 1.405 1_556 S
C51 H40 0.930 . S
C51 C50 1.405 1_554 S
C51 C52 1.364 . S
C52 C51 1.364 . S
C52 C53 1.400 . S
C53 H41 0.931 . S
C53 C48 1.408 . S
C53 C52 1.400 . S
H54 C60 0.930 . S
H55 C63 0.931 . S
H56 C65 0.939 . S
H57 C67 0.930 . S
H58 C69 0.930 . S
H59 C71 0.931 . S
C60 H54 0.930 . S
C60 C61 1.380 . S
C60 C62 1.394 . S
C61 C60 1.380 . S
C61 C65 1.383 1_554 S
C62 C60 1.394 . S
C62 C63 1.400 . S
C63 H55 0.931 . S
C63 C62 1.400 . S
C63 C64 1.375 . S
C64 C63 1.375 . S
C64 C65 1.406 1_554 S
C64 C66 1.501 . S
C65 H56 0.939 . S
C65 C61 1.383 1_556 S
C65 C64 1.406 1_556 S
C66 C64 1.501 . S
C66 C67 1.384 1_554 S
C66 C71 1.408 . S
C67 H57 0.930 . S
C67 C66 1.384 1_556 S
C67 C68 1.389 . S
C68 C67 1.389 . S
C68 C69 1.405 1_556 S
C69 H58 0.930 . S
C69 C68 1.405 1_554 S
C69 C70 1.364 . S
C70 C69 1.364 . S
C70 C71 1.400 . S
C71 H59 0.931 . S
C71 C66 1.408 . S
C71 C70 1.400 . S
H72 C78 0.930 . S
H73 C81 0.931 . S
H74 C83 0.931 1_556 S
H75 C85 0.930 1_556 S
H76 C87 0.930 . S
H77 C89 0.931 . S
C78 H72 0.930 . S
C78 C79 1.380 . S
C78 C80 1.394 . S
C79 C78 1.380 . S
C79 C83 1.382 . S
C80 C78 1.394 . S
C80 C81 1.400 . S
C81 H73 0.931 . S
C81 C80 1.400 . S
C81 C82 1.375 . S
C82 C81 1.375 . S
C82 C83 1.415 . S
C82 C84 1.501 . S
C83 H74 0.931 1_554 S
C83 C79 1.382 . S
C83 C82 1.415 . S
C84 C82 1.501 . S
C84 C85 1.384 . S
C84 C89 1.408 . S
C85 H75 0.930 1_554 S
C85 C84 1.384 . S
C85 C86 1.389 . S
C86 C85 1.389 . S
C86 C87 1.405 . S
C87 H76 0.930 . S
C87 C86 1.405 . S
C87 C88 1.364 . S
C88 C87 1.364 . S
C88 C89 1.400 . S
C89 H77 0.931 . S
C89 C84 1.408 . S
C89 C88 1.400 . S
H90 C96 0.930 . S
H91 C99 0.931 . S
H92 C101 0.931 . S
H93 C103 0.930 . S
H94 C105 0.930 . S
H95 C107 0.931 . S
C96 H90 0.930 . S
C96 C97 1.380 . S
C96 C98 1.394 . S
C97 C96 1.380 . S
C97 C101 1.382 . S
C98 C96 1.394 . S
C98 C99 1.400 . S
C99 H91 0.931 . S
C99 C98 1.400 . S
C99 C100 1.375 . S
C100 C99 1.375 . S
C100 C101 1.415 . S
C100 C102 1.501 . S
C101 H92 0.931 . S
C101 C97 1.382 . S
C101 C100 1.415 . S
C102 C100 1.501 . S
C102 C103 1.384 . S
C102 C107 1.408 . S
C103 H93 0.930 . S
C103 C102 1.384 . S
C103 C104 1.389 . S
C104 C103 1.389 . S
C104 C105 1.405 . S
C105 H94 0.930 . S
C105 C104 1.405 . S
C105 C106 1.364 . S
C106 C105 1.364 . S
C106 C107 1.400 . S
C107 H95 0.931 . S
C107 C102 1.408 . S
C107 C106 1.400 . S
C108 O120 1.241 . S
C108 O121 1.280 . S
C109 O122 1.277 . S
C109 O123 1.245 . S
C110 O134 1.247 . S
C110 O136 1.289 . S
Mg111 O112 1.948 1_655 S
Mg111 O121 2.011 . S
Mg111 O123 1.948 1_655 S
Mg111 O124 2.084 . S
O112 Mg111 1.948 1_455 S
O112 Mg113 1.986 . S
O112 Mg114 1.917 . S
Mg113 O112 1.986 . S
Mg113 O120 2.042 1_455 S
Mg113 O122 2.041 . S
Mg113 O128 2.038 1_455 S
Mg113 O136 2.238 . S
Mg114 O112 1.917 . S
Mg114 O115 1.917 . S
Mg114 O125 2.106 1_455 S
Mg114 O127 2.079 1_455 S
Mg114 O136 2.106 . S
Mg114 O137 2.079 . S
O115 Mg114 1.917 . S
O115 Mg116 1.926 . S
O115 Mg117 1.986 . S
Mg116 O115 1.926 . S
Mg116 O130 1.984 . S
Mg116 O133 1.988 1_455 S
Mg116 O134 2.061 . S
Mg117 O115 1.986 . S
Mg117 O125 2.238 1_455 S
Mg117 O129 2.042 . S
Mg117 O131 2.041 1_455 S
Mg117 O138 2.038 . S
C118 O124 1.247 . S
C118 O125 1.289 . S
C119 O137 1.245 . S
C119 O138 1.274 . S
O120 C108 1.241 . S
O120 Mg113 2.042 1_655 S
O121 C108 1.280 . S
O121 Mg111 2.011 . S
O122 C109 1.277 . S
O122 Mg113 2.041 . S
O123 C109 1.245 . S
O123 Mg111 1.948 1_455 S
O124 Mg111 2.084 . S
O124 C118 1.247 . S
O125 Mg114 2.106 1_655 S
O125 Mg117 2.238 1_655 S
O125 C118 1.289 . S
C126 O127 1.245 . S
C126 O128 1.274 . S
O127 Mg114 2.079 1_655 S
O127 C126 1.245 . S
O128 Mg113 2.038 1_655 S
O128 C126 1.274 . S
O129 Mg117 2.042 . S
O129 C132 1.241 . S
O130 Mg116 1.984 . S
O130 C132 1.280 . S
O131 Mg117 2.041 1_655 S
O131 C135 1.277 . S
C132 O129 1.241 . S
C132 O130 1.280 . S
O133 Mg116 1.988 1_655 S
O133 C135 1.245 . S
O134 C110 1.247 . S
O134 Mg116 2.061 . S
C135 O131 1.277 . S
C135 O133 1.245 . S
O136 C110 1.289 . S
O136 Mg113 2.238 . S
O136 Mg114 2.106 . S
O137 Mg114 2.079 . S
O137 C119 1.245 . S
O138 Mg117 2.038 . S
O138 C119 1.274 . S
C139 O151 1.241 . S
C139 O152 1.280 . S
C140 O153 1.277 . S
C140 O154 1.245 . S
C141 O165 1.247 . S
C141 O167 1.289 . S
Mg142 O143 1.926 . S
Mg142 O152 1.984 . S
Mg142 O154 1.988 1_545 S
Mg142 O155 2.061 . S
O143 Mg142 1.926 . S
O143 Mg144 1.986 . S
O143 Mg145 1.917 . S
Mg144 O143 1.986 . S
Mg144 O151 2.042 . S
Mg144 O153 2.041 1_545 S
Mg144 O159 2.038 . S
Mg144 O167 2.238 1_545 S
Mg145 O143 1.917 . S
Mg145 O146 1.917 1_545 S
Mg145 O156 2.106 . S
Mg145 O158 2.079 . S
Mg145 O167 2.106 1_545 S
Mg145 O168 2.079 1_545 S
O146 Mg145 1.917 1_565 S
O146 Mg147 1.926 . S
O146 Mg148 1.986 1_565 S
Mg147 O146 1.926 . S
Mg147 O161 1.984 . S
Mg147 O164 1.988 1_565 S
Mg147 O165 2.061 . S
Mg148 O146 1.986 1_545 S
Mg148 O156 2.238 . S
Mg148 O160 2.042 1_545 S
Mg148 O162 2.041 . S
Mg148 O169 2.038 1_545 S
C149 O155 1.247 . S
C149 O156 1.289 . S
C150 O168 1.245 . S
C150 O169 1.274 . S
O151 C139 1.241 . S
O151 Mg144 2.042 . S
O152 C139 1.280 . S
O152 Mg142 1.984 . S
O153 C140 1.277 . S
O153 Mg144 2.041 1_565 S
O154 C140 1.245 . S
O154 Mg142 1.988 1_565 S
O155 Mg142 2.061 . S
O155 C149 1.247 . S
O156 Mg145 2.106 . S
O156 Mg148 2.238 . S
O156 C149 1.289 . S
C157 O158 1.245 . S
C157 O159 1.274 . S
O158 Mg145 2.079 . S
O158 C157 1.245 . S
O159 Mg144 2.038 . S
O159 C157 1.274 . S
O160 Mg148 2.042 1_565 S
O160 C163 1.241 . S
O161 Mg147 1.984 . S
O161 C163 1.280 . S
O162 Mg148 2.041 . S
O162 C166 1.277 . S
C163 O160 1.241 . S
C163 O161 1.280 . S
O164 Mg147 1.988 1_545 S
O164 C166 1.245 . S
O165 C141 1.247 . S
O165 Mg147 2.061 . S
C166 O162 1.277 . S
C166 O164 1.245 . S
O167 C141 1.289 . S
O167 Mg144 2.238 1_565 S
O167 Mg145 2.106 1_565 S
O168 Mg145 2.079 1_565 S
O168 C150 1.245 . S
O169 Mg148 2.038 1_565 S
O169 C150 1.274 . S
C170 O182 1.241 . S
C170 O183 1.280 . S
C171 O184 1.277 . S
C171 O185 1.245 . S
C172 O196 1.247 . S
C172 O198 1.289 . S
Mg173 O174 1.926 . S
Mg173 O183 1.984 . S
Mg173 O185 1.988 . S
Mg173 O186 2.061 . S
O174 Mg173 1.926 . S
O174 Mg175 1.986 . S
O174 Mg176 1.917 . S
Mg175 O174 1.986 . S
Mg175 O182 2.042 . S
Mg175 O184 2.041 . S
Mg175 O190 2.038 . S
Mg175 O198 2.238 . S
Mg176 O174 1.917 . S
Mg176 O177 1.917 . S
Mg176 O187 2.106 . S
Mg176 O189 2.079 . S
Mg176 O198 2.106 . S
Mg176 O199 2.079 . S
O177 Mg176 1.917 . S
O177 Mg178 1.926 . S
O177 Mg179 1.986 . S
Mg178 O177 1.926 . S
Mg178 O192 1.984 . S
Mg178 O195 1.988 . S
Mg178 O196 2.061 . S
Mg179 O177 1.986 . S
Mg179 O187 2.238 . S
Mg179 O191 2.042 . S
Mg179 O193 2.041 . S
Mg179 O200 2.038 . S
C180 O186 1.247 . S
C180 O187 1.289 . S
C181 O199 1.245 . S
C181 O200 1.274 . S
O182 C170 1.241 . S
O182 Mg175 2.042 . S
O183 C170 1.280 . S
O183 Mg173 1.984 . S
O184 C171 1.277 . S
O184 Mg175 2.041 . S
O185 C171 1.245 . S
O185 Mg173 1.988 . S
O186 Mg173 2.061 . S
O186 C180 1.247 . S
O187 Mg176 2.106 . S
O187 Mg179 2.238 . S
O187 C180 1.289 . S
C188 O189 1.245 . S
C188 O190 1.274 . S
O189 Mg176 2.079 . S
O189 C188 1.245 . S
O190 Mg175 2.038 . S
O190 C188 1.274 . S
O191 Mg179 2.042 . S
O191 C194 1.241 . S
O192 Mg178 1.984 . S
O192 C194 1.280 . S
O193 Mg179 2.041 . S
O193 C197 1.277 . S
C194 O191 1.241 . S
C194 O192 1.280 . S
O195 Mg178 1.988 . S
O195 C197 1.245 . S
O196 C172 1.247 . S
O196 Mg178 2.061 . S
C197 O193 1.277 . S
C197 O195 1.245 . S
O198 C172 1.289 . S
O198 Mg175 2.238 . S
O198 Mg176 2.106 . S
O199 Mg176 2.079 . S
O199 C181 1.245 . S
O200 Mg179 2.038 . S
O200 C181 1.274 . S
H201 C207 0.930 . S
H202 C211 0.930 . S
H203 C216 0.929 . S
H204 C214 0.929 . S
H205 C209 0.929 . S
H206 C215 0.929 . S
C207 H201 0.930 . S
C207 C208 1.367 . S
C207 C215 1.378 . S
C208 C207 1.367 . S
C208 C216 1.433 . S
C209 H205 0.929 . S
C209 C211 1.378 . S
C209 C213 1.350 . S
C210 C213 1.463 . S
C210 C215 1.350 . S
C210 N218 1.427 . S
C211 H202 0.930 . S
C211 C209 1.378 . S
C211 C212 1.367 . S
C212 C211 1.367 . S
C212 C214 1.433 . S
C213 C209 1.350 . S
C213 C210 1.463 . S
C213 N217 1.427 . S
C214 H204 0.929 . S
C214 C212 1.433 . S
C214 N217 1.384 . S
C215 H206 0.929 . S
C215 C207 1.378 . S
C215 C210 1.350 . S
C216 H203 0.929 . S
C216 C208 1.433 . S
C216 N218 1.384 . S
N217 C213 1.427 . S
N217 C214 1.384 . S
N218 C210 1.427 . S
N218 C216 1.384 . S
H219 C225 0.930 . S
H220 C229 0.930 . S
H221 C234 0.929 . S
H222 C232 0.929 . S
H223 C227 0.929 . S
H224 C233 0.929 . S
C225 H219 0.930 . S
C225 C226 1.367 . S
C225 C233 1.378 . S
C226 C225 1.367 . S
C226 C234 1.433 . S
C227 H223 0.929 . S
C227 C229 1.378 . S
C227 C231 1.350 . S
C228 C231 1.463 . S
C228 C233 1.350 . S
C228 N236 1.427 . S
C229 H220 0.930 . S
C229 C227 1.378 . S
C229 C230 1.367 . S
C230 C229 1.367 . S
C230 C232 1.433 . S
C231 C227 1.350 . S
C231 C228 1.463 . S
C231 N235 1.427 . S
C232 H222 0.929 . S
C232 C230 1.433 . S
C232 N235 1.384 . S
C233 H224 0.929 . S
C233 C225 1.378 . S
C233 C228 1.350 . S
C234 H221 0.929 . S
C234 C226 1.433 . S
C234 N236 1.384 . S
N235 C231 1.427 . S
N235 C232 1.384 . S
N236 C228 1.427 . S
N236 C234 1.384 . S
H237 C243 0.930 . S
H238 C247 0.930 . S
H239 C252 0.929 . S
H240 C250 0.929 . S
H241 C245 0.929 . S
H242 C251 0.929 . S
C243 H237 0.930 . S
C243 C244 1.367 . S
C243 C251 1.378 . S
C244 C243 1.367 . S
C244 C252 1.433 . S
C245 H241 0.929 . S
C245 C247 1.378 . S
C245 C249 1.350 . S
C246 C249 1.463 . S
C246 C251 1.350 . S
C246 N254 1.427 . S
C247 H238 0.930 . S
C247 C245 1.378 . S
C247 C248 1.367 . S
C248 C247 1.367 . S
C248 C250 1.433 . S
C249 C245 1.350 . S
C249 C246 1.463 . S
C249 N253 1.427 . S
C250 H240 0.929 . S
C250 C248 1.433 . S
C250 N253 1.384 . S
C251 H242 0.929 . S
C251 C243 1.378 . S
C251 C246 1.350 . S
C252 H239 0.929 . S
C252 C244 1.433 . S
C252 N254 1.384 . S
N253 C249 1.427 . S
N253 C250 1.384 . S
N254 C246 1.427 . S
N254 C252 1.384 . S
H255 C261 0.930 . S
H256 C265 0.930 . S
H257 C270 0.929 . S
H258 C268 0.929 . S
H259 C263 0.929 . S
H260 C269 0.929 . S
C261 H255 0.930 . S
C261 C262 1.367 . S
C261 C269 1.378 . S
C262 C261 1.367 . S
C262 C270 1.433 . S
C263 H259 0.929 . S
C263 C265 1.378 . S
C263 C267 1.350 . S
C264 C267 1.463 . S
C264 C269 1.350 . S
C264 N272 1.427 . S
C265 H256 0.930 . S
C265 C263 1.378 . S
C265 C266 1.367 . S
C266 C265 1.367 . S
C266 C268 1.433 . S
C267 C263 1.350 . S
C267 C264 1.463 . S
C267 N271 1.427 . S
C268 H258 0.929 . S
C268 C266 1.433 . S
C268 N271 1.384 . S
C269 H260 0.929 . S
C269 C261 1.378 . S
C269 C264 1.350 . S
C270 H257 0.929 . S
C270 C262 1.433 . S
C270 N272 1.384 . S
N271 C267 1.427 . S
N271 C268 1.384 . S
N272 C264 1.427 . S
N272 C270 1.384 . S
H273 C279 0.930 . S
H274 C283 0.930 . S
H275 C288 0.929 . S
H276 C286 0.929 . S
H277 C281 0.929 . S
H278 C287 0.929 . S
C279 H273 0.930 . S
C279 C280 1.367 . S
C279 C287 1.378 . S
C280 C279 1.367 . S
C280 C288 1.433 . S
C281 H277 0.929 . S
C281 C283 1.378 . S
C281 C285 1.350 . S
C282 C285 1.463 . S
C282 C287 1.350 . S
C282 N290 1.427 . S
C283 H274 0.930 . S
C283 C281 1.378 . S
C283 C284 1.367 . S
C284 C283 1.367 . S
C284 C286 1.433 . S
C285 C281 1.350 . S
C285 C282 1.463 . S
C285 N289 1.427 . S
C286 H276 0.929 . S
C286 C284 1.433 . S
C286 N289 1.384 . S
C287 H278 0.929 . S
C287 C279 1.378 . S
C287 C282 1.350 . S
C288 H275 0.929 . S
C288 C280 1.433 . S
C288 N290 1.384 . S
N289 C285 1.427 . S
N289 C286 1.384 . S
N290 C282 1.427 . S
N290 C288 1.384 . S
H291 C297 0.930 . S
H292 C301 0.930 . S
H293 C306 0.929 . S
H294 C304 0.929 . S
H295 C299 0.929 . S
H296 C305 0.929 . S
C297 H291 0.930 . S
C297 C298 1.367 . S
C297 C305 1.378 . S
C298 C297 1.367 . S
C298 C306 1.433 . S
C299 H295 0.929 . S
C299 C301 1.378 . S
C299 C303 1.350 . S
C300 C303 1.463 . S
C300 C305 1.350 . S
C300 N308 1.427 . S
C301 H292 0.930 . S
C301 C299 1.378 . S
C301 C302 1.367 . S
C302 C301 1.367 . S
C302 C304 1.433 . S
C303 C299 1.350 . S
C303 C300 1.463 . S
C303 N307 1.427 . S
C304 H294 0.929 . S
C304 C302 1.433 . S
C304 N307 1.384 . S
C305 H296 0.929 . S
C305 C297 1.378 . S
C305 C300 1.350 . S
C306 H293 0.929 . S
C306 C298 1.433 . S
C306 N308 1.384 . S
N307 C303 1.427 . S
N307 C304 1.384 . S
N308 C300 1.427 . S
N308 C306 1.384 . S
H309 C315 0.930 . S
H310 C319 0.930 . S
H311 C324 0.929 . S
H312 C322 0.929 . S
H313 C317 0.929 . S
H314 C323 0.929 . S
C315 H309 0.930 . S
C315 C316 1.367 . S
C315 C323 1.378 . S
C316 C315 1.367 . S
C316 C324 1.433 . S
C317 H313 0.929 . S
C317 C319 1.378 . S
C317 C321 1.350 . S
C318 C321 1.463 . S
C318 C323 1.350 . S
C318 N326 1.427 . S
C319 H310 0.930 . S
C319 C317 1.378 . S
C319 C320 1.367 . S
C320 C319 1.367 . S
C320 C322 1.433 . S
C321 C317 1.350 . S
C321 C318 1.463 . S
C321 N325 1.427 . S
C322 H312 0.929 . S
C322 C320 1.433 . S
C322 N325 1.384 . S
C323 H314 0.929 . S
C323 C315 1.378 . S
C323 C318 1.350 . S
C324 H311 0.929 . S
C324 C316 1.433 . S
C324 N326 1.384 . S
N325 C321 1.427 . S
N325 C322 1.384 . S
N326 C318 1.427 . S
N326 C324 1.384 . S
H327 C333 0.930 1_554 S
H328 C337 0.930 . S
H329 C342 0.929 . S
H330 C340 0.929 . S
H331 C335 0.929 . S
H332 C341 0.929 . S
C333 H327 0.930 1_556 S
C333 C334 1.367 . S
C333 C341 1.378 . S
C334 C333 1.367 . S
C334 C342 1.433 . S
C335 H331 0.929 . S
C335 C337 1.378 . S
C335 C339 1.350 . S
C336 C339 1.463 . S
C336 C341 1.350 . S
C336 N344 1.427 . S
C337 H328 0.930 . S
C337 C335 1.378 . S
C337 C338 1.367 . S
C338 C337 1.367 . S
C338 C340 1.433 . S
C339 C335 1.350 . S
C339 C336 1.463 . S
C339 N343 1.427 . S
C340 H330 0.929 . S
C340 C338 1.433 . S
C340 N343 1.384 . S
C341 H332 0.929 . S
C341 C333 1.378 . S
C341 C336 1.350 . S
C342 H329 0.929 . S
C342 C334 1.433 . S
C342 N344 1.384 . S
N343 C339 1.427 . S
N343 C340 1.384 . S
N344 C336 1.427 . S
N344 C342 1.384 . S
H345 C351 0.930 . S
H346 C355 0.930 . S
H347 C360 0.929 . S
H348 C358 0.929 . S
H349 C353 0.929 . S
H350 C359 0.929 . S
C351 H345 0.930 . S
C351 C352 1.367 . S
C351 C359 1.378 . S
C352 C351 1.367 . S
C352 C360 1.433 . S
C353 H349 0.929 . S
C353 C355 1.378 . S
C353 C357 1.350 . S
C354 C357 1.463 . S
C354 C359 1.350 . S
C354 N362 1.427 . S
C355 H346 0.930 . S
C355 C353 1.378 . S
C355 C356 1.367 . S
C356 C355 1.367 . S
C356 C358 1.433 . S
C357 C353 1.350 . S
C357 C354 1.463 . S
C357 N361 1.427 . S
C358 H348 0.929 . S
C358 C356 1.433 . S
C358 N361 1.384 . S
C359 H350 0.929 . S
C359 C351 1.378 . S
C359 C354 1.350 . S
C360 H347 0.929 . S
C360 C352 1.433 . S
C360 N362 1.384 . S
N361 C357 1.427 . S
N361 C358 1.384 . S
N362 C354 1.427 . S
N362 C360 1.384 . S
H363 C369 0.930 . S
H364 C373 0.930 . S
H365 C378 0.929 . S
H366 C376 0.929 . S
H367 C371 0.929 . S
H368 C377 0.929 . S
C369 H363 0.930 . S
C369 C370 1.367 . S
C369 C377 1.378 . S
C370 C369 1.367 . S
C370 C378 1.433 . S
C371 H367 0.929 . S
C371 C373 1.378 . S
C371 C375 1.350 . S
C372 C375 1.463 1_554 S
C372 C377 1.350 . S
C372 N380 1.427 . S
C373 H364 0.930 . S
C373 C371 1.378 . S
C373 C374 1.367 . S
C374 C373 1.367 . S
C374 C376 1.433 . S
C375 C371 1.350 . S
C375 C372 1.463 1_556 S
C375 N379 1.427 . S
C376 H366 0.929 . S
C376 C374 1.433 . S
C376 N379 1.384 . S
C377 H368 0.929 . S
C377 C369 1.378 . S
C377 C372 1.350 . S
C378 H365 0.929 . S
C378 C370 1.433 . S
C378 N380 1.384 . S
N379 C375 1.427 . S
N379 C376 1.384 . S
N380 C372 1.427 . S
N380 C378 1.384 . S
H381 C387 0.930 . S
H382 C391 0.930 . S
H383 C396 0.929 . S
H384 C394 0.929 . S
H385 C389 0.929 . S
H386 C395 0.929 . S
C387 H381 0.930 . S
C387 C388 1.367 1_556 S
C387 C395 1.378 . S
C388 C387 1.367 1_554 S
C388 C396 1.433 . S
C389 H385 0.929 . S
C389 C391 1.378 . S
C389 C393 1.350 . S
C390 C393 1.463 . S
C390 C395 1.350 . S
C390 N398 1.427 1_556 S
C391 H382 0.930 . S
C391 C389 1.378 . S
C391 C392 1.367 . S
C392 C391 1.367 . S
C392 C394 1.433 . S
C393 C389 1.350 . S
C393 C390 1.463 . S
C393 N397 1.427 . S
C394 H384 0.929 . S
C394 C392 1.433 . S
C394 N397 1.384 . S
C395 H386 0.929 . S
C395 C387 1.378 . S
C395 C390 1.350 . S
C396 H383 0.929 . S
C396 C388 1.433 . S
C396 N398 1.384 . S
N397 C393 1.427 . S
N397 C394 1.384 . S
N398 C390 1.427 1_554 S
N398 C396 1.384 . S
H399 C405 0.930 . S
H400 C409 0.930 . S
H401 C414 0.929 . S
H402 C412 0.929 . S
H403 C407 0.929 . S
H404 C413 0.929 . S
C405 H399 0.930 . S
C405 C406 1.367 . S
C405 C413 1.378 . S
C406 C405 1.367 . S
C406 C414 1.433 1_554 S
C407 H403 0.929 . S
C407 C409 1.378 . S
C407 C411 1.350 . S
C408 C411 1.463 . S
C408 C413 1.350 1_556 S
C408 N416 1.427 . S
C409 H400 0.930 . S
C409 C407 1.378 . S
C409 C410 1.367 . S
C410 C409 1.367 . S
C410 C412 1.433 . S
C411 C407 1.350 . S
C411 C408 1.463 . S
C411 N415 1.427 . S
C412 H402 0.929 . S
C412 C410 1.433 . S
C412 N415 1.384 . S
C413 H404 0.929 . S
C413 C405 1.378 . S
C413 C408 1.350 1_554 S
C414 H401 0.929 . S
C414 C406 1.433 1_556 S
C414 N416 1.384 . S
N415 C411 1.427 . S
N415 C412 1.384 . S
N416 C408 1.427 . S
N416 C414 1.384 . S
H417 C423 0.930 1_554 S
H418 C427 0.930 . S
H419 C432 0.929 . S
H420 C430 0.929 . S
H421 C425 0.929 . S
H422 C431 0.929 . S
C423 H417 0.930 1_556 S
C423 C424 1.367 . S
C423 C431 1.378 . S
C424 C423 1.367 . S
C424 C432 1.433 . S
C425 H421 0.929 . S
C425 C427 1.378 . S
C425 C429 1.350 . S
C426 C429 1.463 . S
C426 C431 1.350 . S
C426 N434 1.427 . S
C427 H418 0.930 . S
C427 C425 1.378 . S
C427 C428 1.367 . S
C428 C427 1.367 . S
C428 C430 1.433 . S
C429 C425 1.350 . S
C429 C426 1.463 . S
C429 N433 1.427 . S
C430 H420 0.929 . S
C430 C428 1.433 . S
C430 N433 1.384 . S
C431 H422 0.929 . S
C431 C423 1.378 . S
C431 C426 1.350 . S
C432 H419 0.929 . S
C432 C424 1.433 . S
C432 N434 1.384 . S
N433 C429 1.427 . S
N433 C430 1.384 . S
N434 C426 1.427 . S
N434 C432 1.384 . S
H435 C441 0.930 . S
H436 C445 0.930 . S
H437 C450 0.929 . S
H438 C448 0.929 . S
H439 C443 0.929 . S
H440 C449 0.929 . S
C441 H435 0.930 . S
C441 C442 1.367 1_554 S
C441 C449 1.378 1_554 S
C442 C441 1.367 1_556 S
C442 C450 1.433 . S
C443 H439 0.929 . S
C443 C445 1.378 . S
C443 C447 1.350 . S
C444 C447 1.463 . S
C444 C449 1.350 . S
C444 N452 1.427 . S
C445 H436 0.930 . S
C445 C443 1.378 . S
C445 C446 1.367 . S
C446 C445 1.367 . S
C446 C448 1.433 . S
C447 C443 1.350 . S
C447 C444 1.463 . S
C447 N451 1.427 . S
C448 H438 0.929 . S
C448 C446 1.433 . S
C448 N451 1.384 . S
C449 H440 0.929 . S
C449 C441 1.378 1_556 S
C449 C444 1.350 . S
C450 H437 0.929 . S
C450 C442 1.433 . S
C450 N452 1.384 . S
N451 C447 1.427 . S
N451 C448 1.384 . S
N452 C444 1.427 . S
N452 C450 1.384 . S
H453 C459 0.930 . S
H454 C463 0.930 . S
H455 C468 0.929 . S
H456 C466 0.929 . S
H457 C461 0.929 . S
H458 C467 0.929 . S
C459 H453 0.930 . S
C459 C460 1.367 . S
C459 C467 1.378 . S
C460 C459 1.367 . S
C460 C468 1.433 . S
C461 H457 0.929 . S
C461 C463 1.378 . S
C461 C465 1.350 . S
C462 C465 1.463 1_554 S
C462 C467 1.350 . S
C462 N470 1.427 . S
C463 H454 0.930 . S
C463 C461 1.378 . S
C463 C464 1.367 . S
C464 C463 1.367 . S
C464 C466 1.433 . S
C465 C461 1.350 . S
C465 C462 1.463 1_556 S
C465 N469 1.427 . S
C466 H456 0.929 . S
C466 C464 1.433 . S
C466 N469 1.384 . S
C467 H458 0.929 . S
C467 C459 1.378 . S
C467 C462 1.350 . S
C468 H455 0.929 . S
C468 C460 1.433 . S
C468 N470 1.384 . S
N469 C465 1.427 . S
N469 C466 1.384 . S
N470 C462 1.427 . S
N470 C468 1.384 . S
H471 C477 0.930 . S
H472 C481 0.930 . S
H473 C486 0.929 . S
H474 C484 0.929 . S
H475 C479 0.929 . S
H476 C485 0.929 . S
C477 H471 0.930 . S
C477 C478 1.367 . S
C477 C485 1.378 1_554 S
C478 C477 1.367 . S
C478 C486 1.433 . S
C479 H475 0.929 . S
C479 C481 1.378 . S
C479 C483 1.350 . S
C480 C483 1.463 . S
C480 C485 1.350 . S
C480 N488 1.427 . S
C481 H472 0.930 . S
C481 C479 1.378 . S
C481 C482 1.367 . S
C482 C481 1.367 . S
C482 C484 1.433 . S
C483 C479 1.350 . S
C483 C480 1.463 . S
C483 N487 1.427 . S
C484 H474 0.929 . S
C484 C482 1.433 . S
C484 N487 1.384 . S
C485 H476 0.929 . S
C485 C477 1.378 1_556 S
C485 C480 1.350 . S
C486 H473 0.929 . S
C486 C478 1.433 . S
C486 N488 1.384 1_554 S
N487 C483 1.427 . S
N487 C484 1.384 . S
N488 C480 1.427 . S
N488 C486 1.384 1_556 S
H489 C495 0.930 . S
H490 C499 0.930 . S
H491 C504 0.929 . S
H492 C502 0.929 . S
H493 C497 0.929 . S
H494 C503 0.929 . S
C495 H489 0.930 . S
C495 C496 1.367 . S
C495 C503 1.378 1_554 S
C496 C495 1.367 . S
C496 C504 1.433 1_554 S
C497 H493 0.929 . S
C497 C499 1.378 . S
C497 C501 1.350 . S
C498 C501 1.463 . S
C498 C503 1.350 . S
C498 N506 1.427 . S
C499 H490 0.930 . S
C499 C497 1.378 . S
C499 C500 1.367 . S
C500 C499 1.367 . S
C500 C502 1.433 . S
C501 C497 1.350 . S
C501 C498 1.463 . S
C501 N505 1.427 . S
C502 H492 0.929 . S
C502 C500 1.433 . S
C502 N505 1.384 . S
C503 H494 0.929 . S
C503 C495 1.378 1_556 S
C503 C498 1.350 . S
C504 H491 0.929 . S
C504 C496 1.433 1_556 S
C504 N506 1.384 . S
N505 C501 1.427 . S
N505 C502 1.384 . S
N506 C498 1.427 . S
N506 C504 1.384 . S
H507 C513 0.930 . S
H508 C517 0.930 . S
H509 C522 0.929 . S
H510 C520 0.929 . S
H511 C515 0.929 . S
H512 C521 0.929 . S
C513 H507 0.930 . S
C513 C514 1.367 . S
C513 C521 1.378 . S
C514 C513 1.367 . S
C514 C522 1.433 . S
C515 H511 0.929 . S
C515 C517 1.378 . S
C515 C519 1.350 . S
C516 C519 1.463 . S
C516 C521 1.350 . S
C516 N524 1.427 . S
C517 H508 0.930 . S
C517 C515 1.378 . S
C517 C518 1.367 . S
C518 C517 1.367 . S
C518 C520 1.433 . S
C519 C515 1.350 . S
C519 C516 1.463 . S
C519 N523 1.427 . S
C520 H510 0.929 . S
C520 C518 1.433 . S
C520 N523 1.384 . S
C521 H512 0.929 . S
C521 C513 1.378 . S
C521 C516 1.350 . S
C522 H509 0.929 . S
C522 C514 1.433 . S
C522 N524 1.384 . S
N523 C519 1.427 . S
N523 C520 1.384 . S
N524 C516 1.427 . S
N524 C522 1.384 . S
H525 C531 0.930 . S
H526 C535 0.930 . S
H527 C540 0.929 . S
H528 C538 0.929 . S
H529 C533 0.929 . S
H530 C539 0.929 . S
C531 H525 0.930 . S
C531 C532 1.367 . S
C531 C539 1.378 . S
C532 C531 1.367 . S
C532 C540 1.433 . S
C533 H529 0.929 . S
C533 C535 1.378 . S
C533 C537 1.350 . S
C534 C537 1.463 . S
C534 C539 1.350 . S
C534 N542 1.427 . S
C535 H526 0.930 . S
C535 C533 1.378 . S
C535 C536 1.367 . S
C536 C535 1.367 . S
C536 C538 1.433 . S
C537 C533 1.350 . S
C537 C534 1.463 . S
C537 N541 1.427 . S
C538 H528 0.929 . S
C538 C536 1.433 . S
C538 N541 1.384 . S
C539 H530 0.929 . S
C539 C531 1.378 . S
C539 C534 1.350 . S
C540 H527 0.929 . S
C540 C532 1.433 . S
C540 N542 1.384 . S
N541 C537 1.427 . S
N541 C538 1.384 . S
N542 C534 1.427 . S
N542 C540 1.384 . S
H543 C549 0.930 . S
H544 C553 0.930 . S
H545 C558 0.929 . S
H546 C556 0.929 . S
H547 C551 0.929 . S
H548 C557 0.929 . S
C549 H543 0.930 . S
C549 C550 1.367 . S
C549 C557 1.378 . S
C550 C549 1.367 . S
C550 C558 1.433 . S
C551 H547 0.929 . S
C551 C553 1.378 . S
C551 C555 1.350 . S
C552 C555 1.463 . S
C552 C557 1.350 . S
C552 N560 1.427 . S
C553 H544 0.930 . S
C553 C551 1.378 . S
C553 C554 1.367 . S
C554 C553 1.367 . S
C554 C556 1.433 . S
C555 C551 1.350 . S
C555 C552 1.463 . S
C555 N559 1.427 . S
C556 H546 0.929 . S
C556 C554 1.433 . S
C556 N559 1.384 . S
C557 H548 0.929 . S
C557 C549 1.378 . S
C557 C552 1.350 . S
C558 H545 0.929 . S
C558 C550 1.433 . S
C558 N560 1.384 . S
N559 C555 1.427 . S
N559 C556 1.384 . S
N560 C552 1.427 . S
N560 C558 1.384 . S
H561 C567 0.930 . S
H562 C571 0.930 . S
H563 C576 0.929 . S
H564 C574 0.929 . S
H565 C569 0.929 . S
H566 C575 0.929 . S
C567 H561 0.930 . S
C567 C568 1.367 . S
C567 C575 1.378 . S
C568 C567 1.367 . S
C568 C576 1.433 . S
C569 H565 0.929 . S
C569 C571 1.378 . S
C569 C573 1.350 . S
C570 C573 1.463 . S
C570 C575 1.350 . S
C570 N578 1.427 . S
C571 H562 0.930 . S
C571 C569 1.378 . S
C571 C572 1.367 . S
C572 C571 1.367 . S
C572 C574 1.433 . S
C573 C569 1.350 . S
C573 C570 1.463 . S
C573 N577 1.427 . S
C574 H564 0.929 . S
C574 C572 1.433 . S
C574 N577 1.384 . S
C575 H566 0.929 . S
C575 C567 1.378 . S
C575 C570 1.350 . S
C576 H563 0.929 . S
C576 C568 1.433 . S
C576 N578 1.384 . S
N577 C573 1.427 . S
N577 C574 1.384 . S
N578 C570 1.427 . S
N578 C576 1.384 . S
H579 C585 0.930 . S
H580 C589 0.930 . S
H581 C594 0.929 . S
H582 C592 0.929 . S
H583 C587 0.929 . S
H584 C593 0.929 . S
C585 H579 0.930 . S
C585 C586 1.367 . S
C585 C593 1.378 . S
C586 C585 1.367 . S
C586 C594 1.433 . S
C587 H583 0.929 . S
C587 C589 1.378 . S
C587 C591 1.350 . S
C588 C591 1.463 . S
C588 C593 1.350 . S
C588 N596 1.427 . S
C589 H580 0.930 . S
C589 C587 1.378 . S
C589 C590 1.367 . S
C590 C589 1.367 . S
C590 C592 1.433 . S
C591 C587 1.350 . S
C591 C588 1.463 . S
C591 N595 1.427 . S
C592 H582 0.929 . S
C592 C590 1.433 . S
C592 N595 1.384 . S
C593 H584 0.929 . S
C593 C585 1.378 . S
C593 C588 1.350 . S
C594 H581 0.929 . S
C594 C586 1.433 . S
C594 N596 1.384 . S
N595 C591 1.427 . S
N595 C592 1.384 . S
N596 C588 1.427 . S
N596 C594 1.384 . S
H597 C603 0.930 . S
H598 C607 0.930 . S
H599 C612 0.929 . S
H600 C610 0.929 . S
H601 C605 0.929 . S
H602 C611 0.929 . S
C603 H597 0.930 . S
C603 C604 1.367 . S
C603 C611 1.378 . S
C604 C603 1.367 . S
C604 C612 1.433 . S
C605 H601 0.929 . S
C605 C607 1.378 . S
C605 C609 1.350 . S
C606 C609 1.463 . S
C606 C611 1.350 . S
C606 N614 1.427 . S
C607 H598 0.930 . S
C607 C605 1.378 . S
C607 C608 1.367 . S
C608 C607 1.367 . S
C608 C610 1.433 . S
C609 C605 1.350 . S
C609 C606 1.463 . S
C609 N613 1.427 . S
C610 H600 0.929 . S
C610 C608 1.433 . S
C610 N613 1.384 . S
C611 H602 0.929 . S
C611 C603 1.378 . S
C611 C606 1.350 . S
C612 H599 0.929 . S
C612 C604 1.433 . S
C612 N614 1.384 . S
N613 C609 1.427 . S
N613 C610 1.384 . S
N614 C606 1.427 . S
N614 C612 1.384 . S
H615 C621 0.930 . S
H616 C625 0.930 . S
H617 C630 0.929 . S
H618 C628 0.929 . S
H619 C623 0.929 . S
H620 C629 0.929 . S
C621 H615 0.930 . S
C621 C622 1.367 . S
C621 C629 1.378 . S
C622 C621 1.367 . S
C622 C630 1.433 . S
C623 H619 0.929 . S
C623 C625 1.378 . S
C623 C627 1.350 . S
C624 C627 1.463 . S
C624 C629 1.350 . S
C624 N632 1.427 . S
C625 H616 0.930 . S
C625 C623 1.378 . S
C625 C626 1.367 . S
C626 C625 1.367 . S
C626 C628 1.433 . S
C627 C623 1.350 . S
C627 C624 1.463 . S
C627 N631 1.427 . S
C628 H618 0.929 . S
C628 C626 1.433 . S
C628 N631 1.384 . S
C629 H620 0.929 . S
C629 C621 1.378 . S
C629 C624 1.350 . S
C630 H617 0.929 . S
C630 C622 1.433 . S
C630 N632 1.384 . S
N631 C627 1.427 . S
N631 C628 1.384 . S
N632 C624 1.427 . S
N632 C630 1.384 . S
C208 C16 1.823 . S
C212 C119 1.848 . S
C226 C26 1.604 . S
C230 C166 1.631 . S
C248 C170 1.796 . S
C244 C52 1.813 . S
C266 C135 1.522 . S
C262 C62 1.533 . S
C280 C80 1.778 . S
C284 C150 1.755 . S
C302 C172 1.136 . S
C298 C98 1.122 . S
C320 C141 1.543 . S
C316 C43 1.519 . S
C334 C68 1.444 . S
C338 C181 1.462 . S
C356 C110 1.406 . S
C352 C86 1.434 1_556 S
C370 C104 1.473 . S
C374 C139 1.464 . S
C388 C7 1.902 . S
C392 C197 1.889 . S
C410 C108 1.555 . S
C406 C32 1.542 . S
C428 C126 1.817 . S
C424 C61 1.818 1_556 S
C446 C140 1.616 . S
C442 C79 1.588 1_556 S
C464 C194 1.790 . S
C460 C97 1.808 . S
C482 C109 1.509 . S
C478 C14 1.518 . S
C500 C157 1.713 . S
C496 C25 1.751 . S
C514 C50 1.097 . S
C518 C180 1.115 . S
C536 C149 1.501 . S
C532 C106 1.511 . S
C554 C188 1.407 . S
C550 C8 1.410 . S
C572 C118 1.370 . S
C568 C34 1.407 . S
C590 C163 1.436 . S
C586 C44 1.444 . S
C604 C70 1.890 . S
C608 C171 1.861 . S
C622 C88 1.523 . S
C626 C132 1.520 . S
