# Generated by pormake.
# Topology sqc, (4,8)-cn, num edge types: 1
# Building blocks:
#     Node 0, Type 0, BuildingBlock: GIZVER_clean_linker_0, # of connection points: 4
#     Node 1, Type 0, BuildingBlock: GIZVER_clean_linker_0, # of connection points: 4
#     Node 2, Type 0, BuildingBlock: GIZVER_clean_linker_0, # of connection points: 4
#     Node 3, Type 0, BuildingBlock: GIZVER_clean_linker_0, # of connection points: 4
#     Node 4, Type 0, BuildingBlock: GIZVER_clean_linker_0, # of connection points: 4
#     Node 5, Type 0, BuildingBlock: GIZVER_clean_linker_0, # of connection points: 4
#     Node 6, Type 0, BuildingBlock: GIZVER_clean_linker_0, # of connection points: 4
#     Node 7, Type 0, BuildingBlock: GIZVER_clean_linker_0, # of connection points: 4
#     Node 8, Type 1, BuildingBlock: TAGTUT_clean_sbu_3, # of connection points: 8
#     Node 9, Type 1, BuildingBlock: TAGTUT_clean_sbu_3, # of connection points: 8
#     Node 10, Type 1, BuildingBlock: TAGTUT_clean_sbu_3, # of connection points: 8
#     Node 11, Type 1, BuildingBlock: TAGTUT_clean_sbu_3, # of connection points: 8
#     Edge 12, Type (0, 1), BuildingBlock: AJUNOK_clean_linker_0, # of connection points: 2
#     Edge 13, Type (0, 1), BuildingBlock: AJUNOK_clean_linker_0, # of connection points: 2
#     Edge 14, Type (0, 1), BuildingBlock: AJUNOK_clean_linker_0, # of connection points: 2
#     Edge 15, Type (0, 1), BuildingBlock: AJUNOK_clean_linker_0, # of connection points: 2
#     Edge 16, Type (0, 1), BuildingBlock: AJUNOK_clean_linker_0, # of connection points: 2
#     Edge 17, Type (0, 1), BuildingBlock: AJUNOK_clean_linker_0, # of connection points: 2
#     Edge 18, Type (0, 1), BuildingBlock: AJUNOK_clean_linker_0, # of connection points: 2
#     Edge 19, Type (0, 1), BuildingBlock: AJUNOK_clean_linker_0, # of connection points: 2
#     Edge 20, Type (0, 1), BuildingBlock: AJUNOK_clean_linker_0, # of connection points: 2
#     Edge 21, Type (0, 1), BuildingBlock: AJUNOK_clean_linker_0, # of connection points: 2
#     Edge 22, Type (0, 1), BuildingBlock: AJUNOK_clean_linker_0, # of connection points: 2
#     Edge 23, Type (0, 1), BuildingBlock: AJUNOK_clean_linker_0, # of connection points: 2
#     Edge 24, Type (0, 1), BuildingBlock: AJUNOK_clean_linker_0, # of connection points: 2
#     Edge 25, Type (0, 1), BuildingBlock: AJUNOK_clean_linker_0, # of connection points: 2
#     Edge 26, Type (0, 1), BuildingBlock: AJUNOK_clean_linker_0, # of connection points: 2
#     Edge 27, Type (0, 1), BuildingBlock: AJUNOK_clean_linker_0, # of connection points: 2
#     Edge 28, Type (0, 1), BuildingBlock: AJUNOK_clean_linker_0, # of connection points: 2
#     Edge 29, Type (0, 1), BuildingBlock: AJUNOK_clean_linker_0, # of connection points: 2
#     Edge 30, Type (0, 1), BuildingBlock: AJUNOK_clean_linker_0, # of connection points: 2
#     Edge 31, Type (0, 1), BuildingBlock: AJUNOK_clean_linker_0, # of connection points: 2
#     Edge 32, Type (0, 1), BuildingBlock: AJUNOK_clean_linker_0, # of connection points: 2
#     Edge 33, Type (0, 1), BuildingBlock: AJUNOK_clean_linker_0, # of connection points: 2
#     Edge 34, Type (0, 1), BuildingBlock: AJUNOK_clean_linker_0, # of connection points: 2
#     Edge 35, Type (0, 1), BuildingBlock: AJUNOK_clean_linker_0, # of connection points: 2
#     Edge 36, Type (0, 1), BuildingBlock: AJUNOK_clean_linker_0, # of connection points: 2
#     Edge 37, Type (0, 1), BuildingBlock: AJUNOK_clean_linker_0, # of connection points: 2
#     Edge 38, Type (0, 1), BuildingBlock: AJUNOK_clean_linker_0, # of connection points: 2
#     Edge 39, Type (0, 1), BuildingBlock: AJUNOK_clean_linker_0, # of connection points: 2
#     Edge 40, Type (0, 1), BuildingBlock: AJUNOK_clean_linker_0, # of connection points: 2
#     Edge 41, Type (0, 1), BuildingBlock: AJUNOK_clean_linker_0, # of connection points: 2
#     Edge 42, Type (0, 1), BuildingBlock: AJUNOK_clean_linker_0, # of connection points: 2
#     Edge 43, Type (0, 1), BuildingBlock: AJUNOK_clean_linker_0, # of connection points: 2
# Relax obj value: 0.176
# Max RMSD: 0.270
# Mean RMSD: 0.222
data_MOF--net-sqc--node1-TAGTUT_clean_sbu_3--node2-GIZVER_clean_linker_0--edge1-AJUNOK_clean_linker_0
_symmetry_space_group_name_H-M    P1
_symmetry_Int_Tables_number       1
_symmetry_cell_setting            triclinic
loop_
_symmetry_equiv_pos_as_xyz
'x, y, z'
_cell_length_a     18.77737
_cell_length_b     18.81589
_cell_length_c     54.307295
_cell_angle_alpha  89.820837
_cell_angle_beta   90.185411
_cell_angle_gamma 89.93183
loop_
_atom_site_label
_atom_site_type_symbol
_atom_site_fract_x
_atom_site_fract_y
_atom_site_fract_z
_atom_type_partial_charge
H0 H 0.98396 0.97665 0.43586 0.0
H1 H 1.0011 0.08005 0.50593 0.0
H2 H 0.79912 0.99758 0.4816 0.0
H3 H 0.07547 0.06284 0.442 0.0
H4 H 0.06747 0.12229 0.46705 0.0
H5 H 0.1381 0.9438 0.44887 0.0
H6 H 0.32998 0.97679 0.4906 0.0
H7 H 0.15491 0.12075 0.49858 0.0
C8 C 0.96015 0.9924 0.45316 0.0
C9 C 0.88734 0.97952 0.45736 0.0
C10 C 1.00113 0.03028 0.47039 0.0
C11 C 0.96956 0.05063 0.4927 0.0
C12 C 0.89604 0.04026 0.49671 0.0
C13 C 0.85617 1.00309 0.4792 0.0
C14 C 0.07021 0.06478 0.4624 0.0
C15 C 0.13682 0.03295 0.4737 0.0
C16 C 0.16707 0.97173 0.46316 0.0
C17 C 0.23741 0.95138 0.46896 0.0
C18 C 0.27517 0.99046 0.48654 0.0
C19 C 0.24622 0.05112 0.4974 0.0
C20 C 0.17648 0.0719 0.49116 0.0
H21 H 0.49147 0.7475 0.71165 0.0
H22 H 0.39318 0.79158 0.78161 0.0
H23 H 0.36121 0.9338 0.72091 0.0
H24 H 0.54332 0.70431 0.75297 0.0
H25 H 0.48983 0.70888 0.77994 0.0
H26 H 0.50952 0.62254 0.71827 0.0
H27 H 0.40069 0.43407 0.74103 0.0
H28 H 0.40155 0.61718 0.78832 0.0
C29 C 0.45624 0.7794 0.72284 0.0
C30 C 0.42523 0.84128 0.71284 0.0
C31 C 0.44462 0.76066 0.74769 0.0
C32 C 0.40045 0.80385 0.76226 0.0
C33 C 0.37033 0.86604 0.75245 0.0
C34 C 0.38237 0.88395 0.7279 0.0
C35 C 0.48738 0.70157 0.75963 0.0
C36 C 0.45813 0.62876 0.75386 0.0
C37 C 0.47649 0.59539 0.73164 0.0
C38 C 0.4536 0.52611 0.72692 0.0
C39 C 0.41416 0.48921 0.74447 0.0
C40 C 0.39404 0.5214 0.76653 0.0
C41 C 0.41602 0.59175 0.77117 0.0
H42 H 0.76913 0.04396 0.02899 0.0
H43 H 0.73297 0.14043 0.95808 0.0
H44 H 0.89274 0.97888 0.96663 0.0
H45 H 0.69741 0.15504 0.02408 0.0
H46 H 0.67418 0.18737 -0.006 0.0
H47 H 0.62359 0.06856 0.04415 0.0
H48 H 0.44765 0.97505 0.0055 0.0
H49 H 0.59015 0.11661 0.96746 0.0
C50 C 0.77965 0.04601 0.00938 0.0
C51 C 0.83532 0.00559 -0.00055 0.0
C52 C 0.74094 0.09324 -0.00568 0.0
C53 C 0.75896 0.1004 0.96937 0.0
C54 C 0.81368 0.05906 0.95934 0.0
C55 C 0.84851 0.00889 0.97415 0.0
C56 C 0.68276 0.13824 0.0051 0.0
C57 C 0.61535 0.09543 0.00552 0.0
C58 C 0.59387 0.06104 0.0272 0.0
C59 C 0.53299 0.01834 0.02721 0.0
C60 C 0.49465 0.00845 0.0053 0.0
C61 C 0.51323 0.04539 -0.01624 0.0
C62 C 0.57473 0.08779 -0.01609 0.0
H63 H 0.16487 0.2335 0.22596 0.0
H64 H 0.26357 0.25288 0.29753 0.0
H65 H 0.26941 0.05399 0.25943 0.0
H66 H 0.13662 0.33368 0.25268 0.0
H67 H 0.17617 0.34216 0.28241 0.0
H68 H 0.17522 0.41533 0.22267 0.0
H69 H 0.35452 0.54913 0.23789 0.0
H70 H 0.31677 0.3637 0.28248 0.0
C71 C 0.1951 0.21039 0.24103 0.0
C72 C 0.21305 0.13779 0.24053 0.0
C73 C 0.21405 0.25283 0.26136 0.0
C74 C 0.25105 0.22179 0.28132 0.0
C75 C 0.26953 0.14972 0.28063 0.0
C76 C 0.25214 0.109 0.26007 0.0
C77 C 0.18785 0.32856 0.2629 0.0
C78 C 0.24121 0.38204 0.25323 0.0
C79 C 0.22352 0.42571 0.23303 0.0
C80 C 0.26563 0.48501 0.22695 0.0
C81 C 0.32574 0.50017 0.24128 0.0
C82 C 0.34453 0.45727 0.26151 0.0
C83 C 0.30341 0.39664 0.26676 0.0
H84 H 0.68659 0.29168 0.2444 0.0
H85 H 0.74644 0.264 0.16832 0.0
H86 H 0.78477 0.46264 0.2044 0.0
H87 H 0.63933 0.19235 0.22064 0.0
H88 H 0.66122 0.18128 0.18892 0.0
H89 H 0.6905 0.10946 0.24831 0.0
H90 H 0.85968 0.9728 0.22457 0.0
H91 H 0.79587 0.1499 0.1794 0.0
C92 C 0.71007 0.3123 0.22763 0.0
C93 C 0.73334 0.38326 0.22667 0.0
C94 C 0.71505 0.26844 0.20672 0.0
C95 C 0.7439 0.29629 0.18478 0.0
C96 C 0.76797 0.36667 0.18403 0.0
C97 C 0.76362 0.40901 0.205 0.0
C98 C 0.68409 0.19444 0.20728 0.0
C99 C 0.73919 0.13853 0.21368 0.0
C100 C 0.73238 0.09742 0.23527 0.0
C101 C 0.7759 0.0375 0.23918 0.0
C102 C 0.82786 0.02036 0.22187 0.0
C103 C 0.83515 0.06034 0.20021 0.0
C104 C 0.79173 0.12025 0.19644 0.0
H105 H 0.76135 0.7286 0.71237 0.0
H106 H 0.83722 0.77237 0.78583 0.0
H107 H 0.85084 0.56151 0.757 0.0
H108 H 0.72353 0.83497 0.7329 0.0
H109 H 0.74565 0.85015 0.76438 0.0
H110 H 0.77597 0.91279 0.70404 0.0
H111 H 0.93619 0.05908 0.72816 0.0
H112 H 0.88044 0.88084 0.77373 0.0
C113 C 0.78695 0.71098 0.72925 0.0
C114 C 0.80612 0.63916 0.73211 0.0
C115 C 0.79821 0.75978 0.74844 0.0
C116 C 0.83057 0.73644 0.77047 0.0
C117 C 0.85152 0.66547 0.77304 0.0
C118 C 0.83825 0.61718 0.7541 0.0
C119 C 0.7684 0.834 0.74635 0.0
C120 C 0.82412 0.88813 0.73918 0.0
C121 C 0.8171 0.92695 0.71714 0.0
C122 C 0.85835 0.98809 0.713 0.0
C123 C 0.90787 0.0094 0.73072 0.0
C124 C 0.91605 0.9708 0.75267 0.0
C125 C 0.87582 0.90894 0.7564 0.0
H126 H 0.49185 0.51513 0.03801 0.0
H127 H 0.4863 0.39267 0.97103 0.0
H128 H 0.30012 0.50564 -0.00537 0.0
H129 H 0.58148 0.42643 0.03131 0.0
H130 H 0.56684 0.36146 0.0083 0.0
H131 H 0.65265 0.53579 0.02215 0.0
H132 H 0.81082 0.50814 0.96615 0.0
H133 H 0.64083 0.35751 0.97252 0.0
C134 C 0.46387 0.4974 0.02167 0.0
C135 C 0.3919 0.51662 0.01812 0.0
C136 C 0.49897 0.45281 0.00467 0.0
C137 C 0.46108 0.42898 -0.01621 0.0
C138 C 0.38908 0.44787 0.98036 0.0
C139 C 0.3558 0.49209 -0.00268 0.0
C140 C 0.57053 0.41982 0.0113 0.0
C141 C 0.63375 0.44863 -0.00305 0.0
C142 C 0.67109 0.50887 0.00575 0.0
C143 C 0.73648 0.52886 -0.00493 0.0
C144 C 0.76077 0.49229 0.97452 0.0
C145 C 0.72963 0.42849 0.96742 0.0
C146 C 0.66459 0.40757 0.97791 0.0
H147 H 0.26617 0.52685 0.52835 0.0
H148 H 0.26168 0.61938 0.45597 0.0
H149 H 0.40862 0.45138 0.47251 0.0
H150 H 0.20782 0.63982 0.52114 0.0
H151 H 0.21506 0.68291 0.49192 0.0
H152 H 0.1068 0.56667 0.53038 0.0
H153 H 0.92889 0.57559 0.48002 0.0
H154 H 0.13453 0.64303 0.45635 0.0
C155 C 0.28264 0.52558 0.50924 0.0
C156 C 0.33871 0.48077 0.50208 0.0
C157 C 0.25364 0.57484 0.49244 0.0
C158 C 0.28026 0.57808 0.46839 0.0
C159 C 0.33634 0.53385 0.46112 0.0
C160 C 0.36256 0.48284 0.47762 0.0
C161 C 0.20254 0.63124 0.50095 0.0
C162 C 0.12734 0.61102 0.49461 0.0
C163 C 0.08398 0.57932 0.51256 0.0
C164 C 0.01195 0.56453 0.50762 0.0
C165 C 0.98501 0.58108 0.48411 0.0
C166 C 0.02973 0.60493 0.46528 0.0
C167 C 0.1005 0.62202 0.47069 0.0
C168 C 0.16168 0.65809 0.14718 0.0
C169 C 0.91266 0.56235 0.12254 0.0
C170 C 0.93957 0.67429 0.05649 0.0
Mg171 Mg 0.24688 0.79927 0.12998 0.0
Mg172 Mg 0.17249 0.93654 0.10173 0.0
O173 O 0.18116 0.83826 0.10409 0.0
Mg174 Mg 0.0986 0.77468 0.10961 0.0
O175 O 0.02257 0.70342 0.11565 0.0
Mg176 Mg 0.06664 0.62083 0.09814 0.0
Mg177 Mg 0.92717 0.72212 0.10901 0.0
C178 C 0.04269 0.89268 0.06805 0.0
O179 O 0.03524 0.85485 0.13306 0.0
O180 O 0.33477 0.87067 0.11223 0.0
O181 O 0.92046 0.82484 0.12619 0.0
O182 O 0.21703 0.89103 0.15767 0.0
O183 O 0.27963 0.95954 0.0918 0.0
O184 O 0.15629 0.97559 0.13741 0.0
O185 O 0.15813 0.69496 0.08523 0.0
O186 O 0.26681 0.71261 0.10187 0.0
C187 C 0.225 0.67989 0.08704 0.0
C188 C 0.33604 0.92649 0.09853 0.0
O189 O 0.04129 0.8289 0.07662 0.0
O190 O 0.97564 0.55225 0.11415 0.0
O191 O 0.08566 0.94044 0.07594 0.0
O192 O 0.99362 0.6369 0.06331 0.0
O193 O 0.88383 0.62422 0.1232 0.0
O194 O 0.91153 0.71964 0.07073 0.0
O195 O 0.15569 0.72533 0.14307 0.0
O196 O 0.13203 0.61156 0.13335 0.0
C197 C 0.18294 0.95032 0.15711 0.0
C198 C 0.96806 0.86697 0.13478 0.0
C199 C 0.72607 0.83836 0.38247 0.0
C200 C 0.85529 0.61529 0.37913 0.0
C201 C 0.73195 0.56942 0.3113 0.0
Mg202 Mg 0.57137 0.89142 0.36648 0.0
Mg203 Mg 0.44167 0.78622 0.34945 0.0
O204 O 0.53682 0.81022 0.34557 0.0
Mg205 Mg 0.61413 0.74078 0.35322 0.0
O206 O 0.6968 0.68039 0.36126 0.0
Mg207 Mg 0.7697 0.72622 0.33977 0.0
Mg208 Mg 0.69884 0.58229 0.36627 0.0
C209 C 0.49551 0.64653 0.32274 0.0
O210 O 0.55071 0.67986 0.38258 0.0
O211 O 0.48263 0.95926 0.34826 0.0
O212 O 0.59841 0.56984 0.38542 0.0
O213 O 0.49003 0.86916 0.39828 0.0
O214 O 0.39631 0.8842 0.33599 0.0
O215 O 0.41746 0.78108 0.38718 0.0
O216 O 0.67973 0.79723 0.32293 0.0
O217 O 0.64689 0.90717 0.33464 0.0
C218 C 0.68317 0.86561 0.32081 0.0
C219 C 0.42182 0.9471 0.33826 0.0
O220 O 0.56184 0.66065 0.32613 0.0
O221 O 0.85503 0.66342 0.3623 0.0
O222 O 0.44481 0.68584 0.33076 0.0
O223 O 0.75567 0.63356 0.31095 0.0
O224 O 0.80012 0.57829 0.38434 0.0
O225 O 0.70736 0.54021 0.33063 0.0
O226 O 0.66054 0.81876 0.38144 0.0
O227 O 0.77409 0.81094 0.36882 0.0
C228 C 0.43851 0.82647 0.40282 0.0
C229 C 0.54978 0.61541 0.39049 0.0
C230 C 0.73282 0.1483 0.63487 0.0
C231 C 0.49084 0.02663 0.63354 0.0
C232 C 0.44572 0.15554 0.56956 0.0
Mg233 Mg 0.78395 0.30472 0.61706 0.0
Mg234 Mg 0.67367 0.43471 0.60291 0.0
O235 O 0.6968 0.33895 0.59948 0.0
Mg236 Mg 0.62986 0.26272 0.60881 0.0
O237 O 0.56953 0.1815 0.61851 0.0
Mg238 Mg 0.60673 0.10882 0.59515 0.0
Mg239 Mg 0.47169 0.18765 0.62365 0.0
C240 C 0.53282 0.38116 0.57753 0.0
O241 O 0.57958 0.32729 0.63994 0.0
O242 O 0.84362 0.39206 0.59455 0.0
O243 O 0.46846 0.28445 0.64503 0.0
O244 O 0.77079 0.38543 0.64938 0.0
O245 O 0.76268 0.47436 0.583 0.0
O246 O 0.68473 0.46317 0.64029 0.0
O247 O 0.67721 0.19642 0.57691 0.0
O248 O 0.78981 0.22929 0.5855 0.0
C249 C 0.74495 0.19348 0.57284 0.0
C250 C 0.82584 0.44898 0.58289 0.0
O251 O 0.54559 0.31567 0.58287 0.0
O252 O 0.54253 0.02572 0.61809 0.0
O253 O 0.5718 0.43259 0.58507 0.0
O254 O 0.50697 0.12467 0.5687 0.0
O255 O 0.45678 0.0835 0.63895 0.0
O256 O 0.42475 0.18866 0.58856 0.0
O257 O 0.71553 0.21474 0.63473 0.0
O258 O 0.69844 0.10236 0.62213 0.0
C259 C 0.73222 0.43935 0.65491 0.0
C260 C 0.51752 0.32993 0.64967 0.0
C261 C 0.23938 0.32023 0.89984 0.0
C262 C 0.32862 0.07229 0.8984 0.0
C263 C 0.24978 0.0632 0.82228 0.0
Mg264 Mg 0.10076 0.39531 0.8758 0.0
Mg265 Mg 0.97431 0.30989 0.8462 0.0
O266 O 0.07154 0.32267 0.85081 0.0
Mg267 Mg 0.13308 0.24305 0.86219 0.0
O268 O 0.1995 0.1695 0.87404 0.0
Mg269 Mg 0.28897 0.20558 0.85876 0.0
Mg270 Mg 0.18072 0.07195 0.87319 0.0
C271 C 0.02704 0.1681 0.82164 0.0
O272 O 0.04607 0.19031 0.88531 0.0
O273 O 0.03058 0.4762 0.85356 0.0
O274 O 0.07096 0.07303 0.88564 0.0
O275 O 0.99983 0.37318 0.90128 0.0
O276 O 0.94886 0.41288 0.83246 0.0
O277 O 0.92393 0.30419 0.88037 0.0
O278 O 0.22065 0.29254 0.83832 0.0
O279 O 0.19564 0.40556 0.84964 0.0
C280 C 0.23372 0.36002 0.83791 0.0
C281 C 0.97717 0.47199 0.83877 0.0
O282 O 0.08994 0.17375 0.83067 0.0
O283 O 0.34737 0.12419 0.88438 0.0
O284 O 0.97679 0.21242 0.82599 0.0
O285 O 0.28344 0.12081 0.82728 0.0
O286 O 0.26627 0.04472 0.89771 0.0
O287 O 0.20419 0.037 0.83703 0.0
O288 O 0.17301 0.3113 0.8945 0.0
O289 O 0.28866 0.285 0.88923 0.0
C290 C 0.94091 0.33847 0.89958 0.0
C291 C 0.02963 0.12563 0.89026 0.0
C292 C 0.27341 0.91243 0.42719 0.0
C293 C 0.2786 0.90276 0.45281 0.0
C294 C 0.32524 0.88538 0.41146 0.0
C295 C 0.38477 0.84861 0.42068 0.0
H296 H 0.23204 0.94553 0.41923 0.0
H297 H 0.32039 0.89618 0.39189 0.0
S298 S 0.41819 0.79841 0.48555 0.0
N299 N 0.3426 0.84343 0.48624 0.0
N300 N 0.44341 0.79762 0.45642 0.0
C301 C 0.38903 0.83451 0.44591 0.0
C302 C 0.33479 0.86004 0.46201 0.0
C303 C 0.38882 0.89916 0.67337 0.0
C304 C 0.44318 0.86858 0.6879 0.0
C305 C 0.40473 0.94618 0.65416 0.0
C306 C 0.47556 0.96258 0.64829 0.0
H307 H 0.33344 0.89138 0.67824 0.0
H308 H 0.36133 0.97331 0.64486 0.0
S309 S 0.63754 0.8878 0.67774 0.0
N310 N 0.57089 0.85204 0.69318 0.0
N311 N 0.60061 0.938 0.65621 0.0
C312 C 0.53044 0.92625 0.66072 0.0
C313 C 0.51429 0.87951 0.68071 0.0
C314 C 0.49279 0.04106 0.93789 0.0
C315 C 0.46499 0.0452 0.96195 0.0
C316 C 0.44829 0.04707 0.91713 0.0
C317 C 0.37438 0.05559 0.91975 0.0
H318 H 0.5495 0.03444 0.9351 0.0
H319 H 0.47187 0.04609 0.89895 0.0
S320 S 0.27526 0.07514 0.97832 0.0
N321 N 0.35888 0.06349 -0.01316 0.0
N322 N 0.27548 0.07071 0.94799 0.0
C323 C 0.34576 0.05868 0.9436 0.0
C324 C 0.39096 0.05442 0.96465 0.0
C325 C 0.2074 0.11548 0.19529 0.0
C326 C 0.19457 0.09153 0.21937 0.0
C327 C 0.20131 0.06932 0.17528 0.0
C328 C 0.18342 0.99732 0.17866 0.0
H329 H 0.22537 0.16933 0.19195 0.0
H330 H 0.21366 0.08953 0.15708 0.0
S331 S 0.13332 0.91083 0.23731 0.0
N332 N 0.15308 0.99336 0.24502 0.0
N333 N 0.14611 0.90568 0.20729 0.0
C334 C 0.16738 0.97323 0.20237 0.0
C335 C 0.17163 0.02067 0.22275 0.0
C336 C 0.36446 0.10478 0.50818 0.0
C337 C 0.29229 0.09307 0.51426 0.0
C338 C 0.41372 0.12824 0.5258 0.0
C339 C 0.39224 0.14287 0.54995 0.0
H340 H 0.38385 0.09209 0.48995 0.0
H341 H 0.46927 0.13265 0.52069 0.0
S342 S 0.20765 0.1295 0.57439 0.0
N343 N 0.20092 0.10353 0.54549 0.0
N344 N 0.29223 0.15021 0.57847 0.0
C345 C 0.319 0.1372 0.55568 0.0
C346 C 0.26924 0.11203 0.53783 0.0
C347 C 0.37013 0.98191 0.77424 0.0
C348 C 0.33497 0.9182 0.76852 0.0
C349 C 0.33978 0.03133 0.79034 0.0
C350 C 0.27299 0.0188 0.80123 0.0
H351 H 0.42254 0.99251 0.7668 0.0
H352 H 0.37061 0.07792 0.79515 0.0
S353 S 0.15471 0.86464 0.78854 0.0
N354 N 0.22737 0.84821 0.77245 0.0
N355 N 0.16888 0.9413 0.80245 0.0
C356 C 0.23528 0.95712 0.7942 0.0
C357 C 0.26674 0.9066 0.77797 0.0
C358 C 0.48789 0.92092 0.05419 0.0
C359 C 0.50128 0.99363 0.05048 0.0
C360 C 0.4399 0.89829 0.07232 0.0
C361 C 0.40285 0.948 0.08671 0.0
H362 H 0.51071 0.88191 0.04187 0.0
H363 H 0.4266 0.84233 0.07337 0.0
S364 S 0.42577 0.1434 0.08603 0.0
N365 N 0.4801 0.11435 0.06441 0.0
N366 N 0.38821 0.07187 0.09797 0.0
C367 C 0.42021 0.02019 0.0845 0.0
C368 C 0.46999 0.04305 0.06645 0.0
C369 C 0.37876 0.1177 0.30413 0.0
C370 C 0.30461 0.1129 0.30129 0.0
C371 C 0.41635 0.06594 0.31757 0.0
C372 C 0.38078 0.00745 0.32812 0.0
H373 H 0.40826 0.1584 0.29438 0.0
H374 H 0.47393 0.06912 0.31821 0.0
S375 S 0.18556 0.97795 0.32895 0.0
N376 N 0.19608 0.05099 0.31242 0.0
N377 N 0.26639 0.9534 0.33755 0.0
C378 C 0.30605 0.00559 0.327 0.0
C379 C 0.26801 0.05854 0.31362 0.0
C380 C 0.80115 0.04631 0.52952 0.0
C381 C 0.85742 0.0789 0.51643 0.0
C382 C 0.76074 0.0844 0.54684 0.0
C383 C 0.77564 0.15608 0.55158 0.0
H384 H 0.78886 0.99076 0.52655 0.0
H385 H 0.71989 0.05703 0.55723 0.0
S386 S 0.91425 0.26702 0.52154 0.0
N387 N 0.92209 0.18847 0.50855 0.0
N388 N 0.84859 0.25884 0.54143 0.0
C389 C 0.83052 0.18945 0.53824 0.0
C390 C 0.87094 0.15118 0.52065 0.0
C391 C 0.76302 0.0154 0.2842 0.0
C392 C 0.76268 0.98881 0.26015 0.0
C393 C 0.7439 0.97218 0.30409 0.0
C394 C 0.72258 0.90094 0.30066 0.0
H395 H 0.77622 0.07057 0.28758 0.0
H396 H 0.74206 0.99608 0.3222 0.0
S397 S 0.71792 0.80467 0.2413 0.0
N398 N 0.74437 0.88568 0.23396 0.0
N399 N 0.70724 0.80455 0.27149 0.0
C400 C 0.72625 0.8724 0.27687 0.0
C401 C 0.74626 0.91647 0.25655 0.0
C402 C 0.8686 0.92346 0.03423 0.0
C403 C 0.88883 0.9718 0.01576 0.0
C404 C 0.91941 0.89473 0.0505 0.0
C405 C 0.99157 0.91419 0.04885 0.0
H406 H 0.81319 0.90874 0.03632 0.0
H407 H 0.90163 0.85987 0.06513 0.0
S408 S 0.07146 0.03931 0.00391 0.0
N409 N 0.98581 0.03856 -0.00295 0.0
N410 N 0.08085 0.98344 0.02718 0.0
C411 C 0.0124 0.96158 0.03024 0.0
C412 C 0.96111 0.99073 0.0138 0.0
C413 C 0.02107 0.03618 0.76973 0.0
C414 C 0.95378 0.00482 0.77342 0.0
C415 C 0.04836 0.08563 0.78656 0.0
C416 C 0.00843 0.10526 0.80724 0.0
H417 H 0.05048 0.02584 0.75299 0.0
H418 H 0.09808 0.11226 0.78246 0.0
S419 S 0.83607 0.0301 0.82755 0.0
N420 N 0.85257 0.99093 0.80102 0.0
N421 N 0.90472 0.08272 0.83264 0.0
C422 C 0.9448 0.06936 0.81234 0.0
C423 C 0.91717 0.0192 0.79541 0.0
C424 C 0.79171 0.89497 0.44432 0.0
C425 C 0.8409 0.94856 0.43809 0.0
C426 C 0.74778 0.86416 0.4264 0.0
C427 C 0.75192 0.88596 0.40173 0.0
H428 H 0.78899 0.87494 0.46302 0.0
H429 H 0.71419 0.81977 0.43155 0.0
S430 S 0.86435 0.02996 0.37634 0.0
N431 N 0.88476 0.02745 0.40594 0.0
N432 N 0.8041 0.96726 0.37214 0.0
C433 C 0.79793 0.94175 0.39548 0.0
C434 C 0.84212 0.97356 0.41368 0.0
C435 C 0.94648 1.00247 0.18514 0.0
C436 C 0.87811 0.02985 0.18005 0.0
C437 C 0.9786 0.95348 0.16928 0.0
C438 C 0.94308 0.93038 0.14798 0.0
H439 H 0.97283 0.01483 0.20239 0.0
H440 H 0.02862 0.92943 0.17474 0.0
S441 S 0.7703 0.99667 0.12386 0.0
N442 N 0.7808 0.03774 0.15043 0.0
N443 N 0.84215 0.94716 0.1204 0.0
C444 C 0.87849 0.96313 0.14137 0.0
C445 C 0.84577 0.01279 0.15746 0.0
C446 C 0.88277 0.14835 0.93658 0.0
C447 C 0.84993 0.08135 0.93661 0.0
C448 C 0.9389 0.16307 0.9206 0.0
C449 C 0.96313 0.11209 0.90377 0.0
H450 H 0.87001 0.18704 0.95064 0.0
H451 H 0.96737 0.21245 0.92288 0.0
S452 S 0.88643 0.93294 0.89384 0.0
N453 N 0.83966 0.96635 0.91679 0.0
N454 N 0.94417 0.99511 0.88594 0.0
C455 C 0.92661 0.0471 0.90214 0.0
C456 C 0.86988 0.03168 0.91868 0.0
C457 C 0.8149 0.10439 0.69634 0.0
C458 C 0.84153 0.0355 0.69203 0.0
C459 C 0.7863 0.14547 0.67705 0.0
C460 C 0.78388 0.11871 0.65294 0.0
H461 H 0.81172 0.12462 0.71496 0.0
H462 H 0.76074 0.1955 0.68141 0.0
S463 S 0.86005 0.94736 0.63163 0.0
N464 N 0.87276 0.94664 0.66173 0.0
N465 N 0.82099 0.02399 0.6253 0.0
C466 C 0.8171 0.05291 0.64817 0.0
C467 C 0.84512 0.01101 0.6678 0.0
C468 C 0.75973 0.37756 0.92663 0.0
C469 C 0.77405 0.38191 0.95187 0.0
C470 C 0.81383 0.35933 0.91006 0.0
C471 C 0.88437 0.34698 0.91817 0.0
H472 H 0.7083 0.39389 0.91947 0.0
H473 H 0.80138 0.35997 0.89056 0.0
S474 S 0.94563 0.34018 0.9829 0.0
N475 N 0.86037 0.3614 -0.01536 0.0
N476 N 0.96318 0.33195 0.95325 0.0
C477 C 0.898 0.34618 0.94348 0.0
C478 C 0.84232 0.36192 0.9604 0.0
C479 C 0.76278 0.45767 0.15133 0.0
C480 C 0.79855 0.3994 0.16185 0.0
C481 C 0.7994 0.50784 0.13721 0.0
C482 C 0.87312 0.5015 0.13315 0.0
H483 H 0.70751 0.46772 0.15584 0.0
H484 H 0.77039 0.55402 0.13064 0.0
S485 S 0.98835 0.35218 0.15407 0.0
N486 N 0.90895 0.33336 0.16532 0.0
N487 N 0.97859 0.42704 0.13844 0.0
C488 C 0.90795 0.43957 0.14167 0.0
C489 C 0.87035 0.38858 0.15612 0.0
C490 C 0.97339 0.54496 0.42963 0.0
C491 C 1.0012 0.60759 0.43992 0.0
C492 C 0.93131 0.54699 0.40834 0.0
C493 C 0.91587 0.61173 0.39652 0.0
H494 H 0.98068 0.49449 0.43899 0.0
H495 H 0.90708 0.49811 0.40198 0.0
S496 S 0.98023 0.79018 0.4154 0.0
N497 N 0.01445 0.73535 0.43612 0.0
N498 N 0.93552 0.73976 0.39588 0.0
C499 C 0.94783 0.67424 0.40563 0.0
C500 C 0.99049 0.67204 0.42745 0.0
C501 C 0.72015 0.5861 0.70219 0.0
C502 C 0.78814 0.58577 0.71303 0.0
C503 C 0.70152 0.53622 0.68429 0.0
C504 C 0.74953 0.4829 0.67681 0.0
H505 H 0.68091 0.62543 0.70749 0.0
H506 H 0.64942 0.5407 0.67583 0.0
S507 S 0.93479 0.45926 0.69956 0.0
N508 N 0.90444 0.52872 0.71477 0.0
N509 N 0.86831 0.4328 0.68188 0.0
C510 C 0.81717 0.48074 0.68802 0.0
C511 C 0.83673 0.53263 0.70592 0.0
C512 C 0.85809 0.54495 0.01244 0.0
C513 C 0.78956 0.57341 0.0082 0.0
C514 C 0.90983 0.5822 0.02554 0.0
C515 C 0.89503 0.64915 0.03561 0.0
H516 H 0.87126 0.49181 0.00641 0.0
H517 H 0.9599 0.55554 0.02933 0.0
S518 S 0.72759 0.75234 0.02633 0.0
N519 N 0.71241 0.67596 0.01235 0.0
N520 N 0.80934 0.74683 0.03752 0.0
C521 C 0.82834 0.68074 0.02995 0.0
C522 C 0.77548 0.64238 0.01639 0.0
C523 C 0.75348 0.40751 0.27128 0.0
C524 C 0.72877 0.431 0.24824 0.0
C525 C 0.75563 0.4536 0.29141 0.0
C526 C 0.73418 0.52503 0.28913 0.0
H527 H 0.7726 0.35357 0.27367 0.0
H528 H 0.77477 0.43327 0.30891 0.0
S529 S 0.65891 0.61112 0.23351 0.0
N530 N 0.67683 0.529 0.22481 0.0
N531 N 0.68396 0.61629 0.26263 0.0
C532 C 0.7087 0.54922 0.26636 0.0
C533 C 0.70507 0.50195 0.24593 0.0
C534 C 0.97545 0.54928 0.55204 0.0
C535 C 0.96517 0.53236 0.5269 0.0
C536 C 0.93141 0.52096 0.57043 0.0
C537 C 0.87437 0.47669 0.56422 0.0
H538 H 0.01684 0.58583 0.55765 0.0
H539 H 0.94088 0.53515 0.58949 0.0
S540 S 0.82173 0.41592 0.50203 0.0
N541 N 0.89419 0.46366 0.49757 0.0
N542 N 0.80717 0.41848 0.53196 0.0
C543 C 0.86235 0.45997 0.53948 0.0
C544 C 0.90874 0.48581 0.52086 0.0
C545 C 0.95758 0.63209 0.79778 0.0
C546 C 0.88309 0.63754 0.79588 0.0
C547 C 0.98907 0.58263 0.81388 0.0
C548 C 0.94651 0.53685 0.82803 0.0
H549 H 0.9913 0.66152 0.78522 0.0
H550 H 0.04635 0.57568 0.81352 0.0
S551 S 0.74967 0.5384 0.83228 0.0
N552 N 0.76832 0.60011 0.81158 0.0
N553 N 0.8272 0.5064 0.8416 0.0
C554 C 0.8724 0.54661 0.82791 0.0
C555 C 0.84065 0.59735 0.81184 0.0
C556 C 0.30468 0.61283 0.02822 0.0
C557 C 0.35067 0.55821 0.03641 0.0
C558 C 0.25946 0.64844 0.04452 0.0
C559 C 0.25925 0.63132 0.06964 0.0
H560 H 0.30394 0.62848 0.009 0.0
H561 H 0.22687 0.69175 0.03761 0.0
S562 S 0.36575 0.49088 0.10048 0.0
N563 N 0.38968 0.48644 0.07128 0.0
N564 N 0.30678 0.5559 0.10209 0.0
C565 C 0.30423 0.57679 0.07813 0.0
C566 C 0.3496 0.53973 0.0615 0.0
C567 C 0.37361 0.47756 0.80968 0.0
C568 C 0.35303 0.47894 0.78474 0.0
C569 C 0.33772 0.43457 0.82678 0.0
C570 C 0.28151 0.39018 0.81936 0.0
H571 H 0.41764 0.50988 0.81604 0.0
H572 H 0.35288 0.43723 0.84603 0.0
S573 S 0.20307 0.37798 0.75693 0.0
N574 N 0.26887 0.43548 0.75402 0.0
N575 N 0.20442 0.35239 0.78604 0.0
C576 C 0.26067 0.39057 0.7946 0.0
C577 C 0.29567 0.43554 0.77732 0.0
C578 C 0.45817 0.46692 0.52073 0.0
C579 C 0.38574 0.44812 0.52093 0.0
C580 C 0.50467 0.44289 0.5389 0.0
C581 C 0.48101 0.39909 0.55815 0.0
H582 H 0.47898 0.50245 0.50676 0.0
H583 H 0.55982 0.45972 0.53804 0.0
S584 S 0.29692 0.33408 0.56734 0.0
N585 N 0.29225 0.38244 0.5419 0.0
N586 N 0.3809 0.33711 0.57654 0.0
C587 C 0.40917 0.37852 0.55856 0.0
C588 C 0.36112 0.40351 0.53991 0.0
C589 C 0.45946 0.51998 0.27084 0.0
C590 C 0.39757 0.4853 0.27943 0.0
C591 C 0.497 0.56772 0.28586 0.0
C592 C 0.47393 0.58141 0.3099 0.0
H593 H 0.4753 0.51487 0.25176 0.0
H594 H 0.53983 0.59862 0.27794 0.0
S595 S 0.32658 0.49302 0.3432 0.0
N596 N 0.32272 0.46037 0.31506 0.0
N597 N 0.39517 0.5477 0.34326 0.0
C598 C 0.41838 0.54045 0.31969 0.0
C599 C 0.37973 0.49266 0.30447 0.0
C600 C 0.36688 0.43231 0.93545 0.0
C601 C 0.34595 0.41961 0.95979 0.0
C602 C 0.32637 0.4065 0.91576 0.0
C603 C 0.26375 0.36688 0.91974 0.0
H604 H 0.41538 0.46143 0.93162 0.0
H605 H 0.34638 0.41406 0.89723 0.0
S606 S 0.18528 0.3208 0.98009 0.0
N607 N 0.25738 0.36703 -0.01303 0.0
N608 N 0.18173 0.31793 0.94971 0.0
C609 C 0.24051 0.35652 0.94394 0.0
C610 C 0.28175 0.38276 0.96405 0.0
C611 C 0.54132 0.46055 0.70172 0.0
C612 C 0.47259 0.48861 0.70427 0.0
C613 C 0.55617 0.41077 0.68333 0.0
C614 C 0.50238 0.38716 0.66724 0.0
H615 H 0.58269 0.47426 0.71482 0.0
H616 H 0.60907 0.38794 0.68254 0.0
S617 S 0.31495 0.44931 0.66557 0.0
N618 N 0.3514 0.49306 0.68871 0.0
N619 N 0.37902 0.39939 0.65401 0.0
C620 C 0.43409 0.41718 0.66908 0.0
C621 C 0.41925 0.46804 0.68766 0.0
C622 C 0.40646 0.62448 0.43875 0.0
C623 C 0.381 0.55435 0.4399 0.0
C624 C 0.46036 0.64356 0.42243 0.0
C625 C 0.49052 0.59355 0.40648 0.0
H626 H 0.38751 0.66402 0.45159 0.0
H627 H 0.48105 0.69707 0.42312 0.0
S628 S 0.43724 0.40464 0.40028 0.0
N629 N 0.38612 0.43566 0.42251 0.0
N630 N 0.48741 0.47197 0.39134 0.0
C631 C 0.46357 0.52381 0.40661 0.0
C632 C 0.40865 0.50419 0.42339 0.0
C633 C 0.17138 0.55999 0.20698 0.0
C634 C 0.24242 0.53615 0.20757 0.0
C635 C 0.14729 0.60612 0.18846 0.0
C636 C 0.19343 0.63076 0.17002 0.0
H637 H 0.13367 0.54173 0.22067 0.0
H638 H 0.09118 0.61967 0.1878 0.0
S639 S 0.38469 0.5874 0.16366 0.0
N640 N 0.35929 0.54299 0.18841 0.0
N641 N 0.31339 0.63045 0.15372 0.0
C642 C 0.26505 0.61005 0.17089 0.0
C643 C 0.28976 0.5627 0.18968 0.0
loop_
_geom_bond_atom_site_label_1
_geom_bond_atom_site_label_2
_geom_bond_distance
_geom_bond_site_symmetry_2
_ccdc_geom_bond_type
H0 C8 0.930 . S
H1 C11 0.930 . S
H2 C13 0.930 1_565 S
H3 C14 0.970 . S
H4 C14 0.970 . S
H5 C16 0.930 1_565 S
H6 C18 0.932 . S
H7 C20 0.930 . S
C8 H0 0.930 . S
C8 C9 1.382 1_545 S
C8 C10 1.426 . S
C9 C8 1.382 1_565 S
C9 C13 1.389 1_565 S
C10 C8 1.426 . S
C10 C11 1.375 . S
C10 C14 1.532 1_655 S
C11 H1 0.930 . S
C11 C10 1.375 . S
C11 C12 1.416 . S
C12 C11 1.416 . S
C12 C13 1.371 . S
C13 H2 0.930 1_545 S
C13 C9 1.389 1_545 S
C13 C12 1.371 . S
C14 H3 0.970 . S
C14 H4 0.970 . S
C14 C10 1.532 1_455 S
C14 C15 1.499 . S
C15 C14 1.499 . S
C15 C16 1.370 . S
C15 C20 1.415 . S
C16 H5 0.930 1_545 S
C16 C15 1.370 . S
C16 C17 1.407 1_545 S
C17 C16 1.407 1_565 S
C17 C18 1.366 . S
C18 H6 0.932 . S
C18 C17 1.366 . S
C18 C19 1.390 1_565 S
C19 C18 1.390 1_545 S
C19 C20 1.387 . S
C20 H7 0.930 . S
C20 C15 1.415 . S
C20 C19 1.387 . S
H21 C29 0.930 . S
H22 C32 0.930 . S
H23 C34 0.930 . S
H24 C35 0.970 . S
H25 C35 0.970 . S
H26 C37 0.930 . S
H27 C39 0.930 . S
H28 C41 0.930 . S
C29 H21 0.930 . S
C29 C30 1.382 . S
C29 C31 1.426 . S
C30 C29 1.382 . S
C30 C34 1.389 . S
C31 C29 1.426 . S
C31 C32 1.375 . S
C31 C35 1.532 . S
C32 H22 0.930 . S
C32 C31 1.375 . S
C32 C33 1.416 . S
C33 C32 1.416 . S
C33 C34 1.371 . S
C34 H23 0.930 . S
C34 C30 1.389 . S
C34 C33 1.371 . S
C35 H24 0.970 . S
C35 H25 0.970 . S
C35 C31 1.532 . S
C35 C36 1.499 . S
C36 C35 1.499 . S
C36 C37 1.370 . S
C36 C41 1.415 . S
C37 H26 0.930 . S
C37 C36 1.370 . S
C37 C38 1.407 . S
C38 C37 1.407 . S
C38 C39 1.365 . S
C39 H27 0.930 . S
C39 C38 1.365 . S
C39 C40 1.393 . S
C40 C39 1.393 . S
C40 C41 1.387 . S
C41 H28 0.930 . S
C41 C36 1.415 . S
C41 C40 1.387 . S
H42 C50 0.930 1_565 S
H43 C53 0.930 . S
H44 C55 0.929 1_556 S
H45 C56 0.970 . S
H46 C56 0.970 . S
H47 C58 0.930 1_565 S
H48 C60 0.930 . S
H49 C62 0.930 . S
C50 H42 0.930 1_545 S
C50 C51 1.382 1_545 S
C50 C52 1.426 . S
C51 C50 1.382 1_565 S
C51 C55 1.392 . S
C52 C50 1.426 . S
C52 C53 1.375 1_554 S
C52 C56 1.532 . S
C53 H43 0.930 . S
C53 C52 1.375 1_556 S
C53 C54 1.416 . S
C54 C53 1.416 . S
C54 C55 1.369 1_546 S
C55 H44 0.929 1_554 S
C55 C51 1.392 . S
C55 C54 1.369 1_564 S
C56 H45 0.970 . S
C56 H46 0.970 . S
C56 C52 1.532 . S
C56 C57 1.499 . S
C57 C56 1.499 . S
C57 C58 1.370 . S
C57 C62 1.415 1_554 S
C58 H47 0.930 1_545 S
C58 C57 1.370 . S
C58 C59 1.407 1_545 S
C59 C58 1.407 1_565 S
C59 C60 1.365 1_554 S
C60 H48 0.930 . S
C60 C59 1.365 1_556 S
C60 C61 1.393 1_565 S
C61 C60 1.393 1_545 S
C61 C62 1.387 . S
C62 H49 0.930 . S
C62 C57 1.415 1_556 S
C62 C61 1.387 . S
H63 C71 0.930 . S
H64 C74 0.930 . S
H65 C76 0.930 . S
H66 C77 0.970 . S
H67 C77 0.970 . S
H68 C79 0.930 . S
H69 C81 0.930 . S
H70 C83 0.930 . S
C71 H63 0.930 . S
C71 C72 1.382 . S
C71 C73 1.426 . S
C72 C71 1.382 . S
C72 C76 1.389 . S
C73 C71 1.426 . S
C73 C74 1.375 . S
C73 C77 1.532 . S
C74 H64 0.930 . S
C74 C73 1.375 . S
C74 C75 1.416 . S
C75 C74 1.416 . S
C75 C76 1.371 . S
C76 H65 0.930 . S
C76 C72 1.389 . S
C76 C75 1.371 . S
C77 H66 0.970 . S
C77 H67 0.970 . S
C77 C73 1.532 . S
C77 C78 1.499 . S
C78 C77 1.499 . S
C78 C79 1.370 . S
C78 C83 1.415 . S
C79 H68 0.930 . S
C79 C78 1.370 . S
C79 C80 1.407 . S
C80 C79 1.407 . S
C80 C81 1.365 . S
C81 H69 0.930 . S
C81 C80 1.365 . S
C81 C82 1.393 . S
C82 C81 1.393 . S
C82 C83 1.387 . S
C83 H70 0.930 . S
C83 C78 1.415 . S
C83 C82 1.387 . S
H84 C92 0.930 . S
H85 C95 0.930 . S
H86 C97 0.930 . S
H87 C98 0.970 . S
H88 C98 0.970 . S
H89 C100 0.930 . S
H90 C102 0.930 . S
H91 C104 0.930 . S
C92 H84 0.930 . S
C92 C93 1.382 . S
C92 C94 1.426 . S
C93 C92 1.382 . S
C93 C97 1.389 . S
C94 C92 1.426 . S
C94 C95 1.375 . S
C94 C98 1.532 . S
C95 H85 0.930 . S
C95 C94 1.375 . S
C95 C96 1.416 . S
C96 C95 1.416 . S
C96 C97 1.371 . S
C97 H86 0.930 . S
C97 C93 1.389 . S
C97 C96 1.371 . S
C98 H87 0.970 . S
C98 H88 0.970 . S
C98 C94 1.532 . S
C98 C99 1.499 . S
C99 C98 1.499 . S
C99 C100 1.370 . S
C99 C104 1.415 . S
C100 H89 0.930 . S
C100 C99 1.370 . S
C100 C101 1.407 . S
C101 C100 1.407 . S
C101 C102 1.365 1_545 S
C102 H90 0.930 . S
C102 C101 1.365 1_565 S
C102 C103 1.393 1_565 S
C103 C102 1.393 1_545 S
C103 C104 1.387 . S
C104 H91 0.930 . S
C104 C99 1.415 . S
C104 C103 1.387 . S
H105 C113 0.930 . S
H106 C116 0.930 . S
H107 C118 0.930 . S
H108 C119 0.970 . S
H109 C119 0.970 . S
H110 C121 0.930 . S
H111 C123 0.930 . S
H112 C125 0.930 . S
C113 H105 0.930 . S
C113 C114 1.382 . S
C113 C115 1.426 . S
C114 C113 1.382 . S
C114 C118 1.389 . S
C115 C113 1.426 . S
C115 C116 1.375 . S
C115 C119 1.532 . S
C116 H106 0.930 . S
C116 C115 1.375 . S
C116 C117 1.416 . S
C117 C116 1.416 . S
C117 C118 1.371 . S
C118 H107 0.930 . S
C118 C114 1.389 . S
C118 C117 1.371 . S
C119 H108 0.970 . S
C119 H109 0.970 . S
C119 C115 1.532 . S
C119 C120 1.499 . S
C120 C119 1.499 . S
C120 C121 1.370 . S
C120 C125 1.415 . S
C121 H110 0.930 . S
C121 C120 1.370 . S
C121 C122 1.407 . S
C122 C121 1.407 . S
C122 C123 1.365 1_565 S
C123 H111 0.930 . S
C123 C122 1.365 1_545 S
C123 C124 1.393 1_545 S
C124 C123 1.393 1_565 S
C124 C125 1.387 . S
C125 H112 0.930 . S
C125 C120 1.415 . S
C125 C124 1.387 . S
H126 C134 0.930 . S
H127 C137 0.930 . S
H128 C139 0.918 1_556 S
H129 C140 0.970 . S
H130 C140 0.970 . S
H131 C142 0.930 . S
H132 C144 0.940 . S
H133 C146 0.930 . S
C134 H126 0.930 . S
C134 C135 1.382 . S
C134 C136 1.426 . S
C135 C134 1.382 . S
C135 C139 1.423 . S
C136 C134 1.426 . S
C136 C137 1.375 1_554 S
C136 C140 1.532 . S
C137 H127 0.930 . S
C137 C136 1.375 1_556 S
C137 C138 1.416 . S
C138 C137 1.416 . S
C138 C139 1.350 1_556 S
C139 H128 0.918 1_554 S
C139 C135 1.423 . S
C139 C138 1.350 1_554 S
C140 H129 0.970 . S
C140 H130 0.970 . S
C140 C136 1.532 . S
C140 C141 1.499 . S
C141 C140 1.499 . S
C141 C142 1.370 . S
C141 C146 1.415 1_554 S
C142 H131 0.930 . S
C142 C141 1.370 . S
C142 C143 1.407 . S
C143 C142 1.407 . S
C143 C144 1.341 1_554 S
C144 H132 0.940 . S
C144 C143 1.341 1_556 S
C144 C145 1.408 . S
C145 C144 1.408 . S
C145 C146 1.387 . S
C146 H133 0.930 . S
C146 C141 1.415 1_556 S
C146 C145 1.387 . S
H147 C155 0.930 . S
H148 C158 0.930 . S
H149 C160 0.930 . S
H150 C161 0.970 . S
H151 C161 0.970 . S
H152 C163 0.930 . S
H153 C165 0.930 1_655 S
H154 C167 0.930 . S
C155 H147 0.930 . S
C155 C156 1.382 . S
C155 C157 1.426 . S
C156 C155 1.382 . S
C156 C160 1.389 . S
C157 C155 1.426 . S
C157 C158 1.375 . S
C157 C161 1.532 . S
C158 H148 0.930 . S
C158 C157 1.375 . S
C158 C159 1.416 . S
C159 C158 1.416 . S
C159 C160 1.371 . S
C160 H149 0.930 . S
C160 C156 1.389 . S
C160 C159 1.371 . S
C161 H150 0.970 . S
C161 H151 0.970 . S
C161 C157 1.532 . S
C161 C162 1.499 . S
C162 C161 1.499 . S
C162 C163 1.370 . S
C162 C167 1.415 . S
C163 H152 0.930 . S
C163 C162 1.370 . S
C163 C164 1.407 . S
C164 C163 1.407 . S
C164 C165 1.365 . S
C165 H153 0.930 1_455 S
C165 C164 1.365 . S
C165 C166 1.393 . S
C166 C165 1.393 . S
C166 C167 1.387 . S
C167 H154 0.930 . S
C167 C162 1.415 . S
C167 C166 1.387 . S
C168 O195 1.312 . S
C168 O196 1.208 . S
C169 O190 1.331 1_655 S
C169 O193 1.244 . S
C170 O192 1.264 1_655 S
C170 O194 1.273 . S
Mg171 O173 1.936 . S
Mg171 O180 2.081 . S
Mg171 O182 2.023 . S
Mg171 O186 2.031 . S
Mg171 O195 2.291 . S
Mg172 O173 1.963 . S
Mg172 O183 1.942 . S
Mg172 O184 1.955 . S
Mg172 O191 1.986 . S
O173 Mg171 1.936 . S
O173 Mg172 1.963 . S
O173 Mg174 1.915 . S
Mg174 O173 1.915 . S
Mg174 O175 1.915 . S
Mg174 O179 2.013 . S
Mg174 O185 2.114 . S
Mg174 O189 2.013 . S
Mg174 O195 2.114 . S
O175 Mg174 1.915 . S
O175 Mg176 1.936 . S
O175 Mg177 1.963 1_455 S
Mg176 O175 1.936 . S
Mg176 O185 2.291 . S
Mg176 O190 2.081 . S
Mg176 O192 2.023 . S
Mg176 O196 2.031 . S
Mg177 O175 1.963 1_655 S
Mg177 O181 1.986 . S
Mg177 O193 1.942 . S
Mg177 O194 1.955 . S
C178 O189 1.191 . S
C178 O191 1.307 . S
O179 Mg174 2.013 . S
O179 C198 1.191 . S
O180 Mg171 2.081 . S
O180 C188 1.331 . S
O181 Mg177 1.986 . S
O181 C198 1.307 1_655 S
O182 Mg171 2.023 . S
O182 C197 1.264 . S
O183 Mg172 1.942 . S
O183 C188 1.244 . S
O184 Mg172 1.955 . S
O184 C197 1.273 . S
O185 Mg174 2.114 . S
O185 Mg176 2.291 . S
O185 C187 1.312 . S
O186 Mg171 2.031 . S
O186 C187 1.208 . S
C187 O185 1.312 . S
C187 O186 1.208 . S
C188 O180 1.331 . S
C188 O183 1.244 . S
O189 Mg174 2.013 . S
O189 C178 1.191 . S
O190 C169 1.331 1_455 S
O190 Mg176 2.081 . S
O191 Mg172 1.986 . S
O191 C178 1.307 . S
O192 C170 1.264 1_455 S
O192 Mg176 2.023 . S
O193 C169 1.244 . S
O193 Mg177 1.942 . S
O194 C170 1.273 . S
O194 Mg177 1.955 . S
O195 C168 1.312 . S
O195 Mg171 2.291 . S
O195 Mg174 2.114 . S
O196 C168 1.208 . S
O196 Mg176 2.031 . S
C197 O182 1.264 . S
C197 O184 1.273 . S
C198 O179 1.191 . S
C198 O181 1.307 1_455 S
C199 O226 1.312 . S
C199 O227 1.208 . S
C200 O221 1.331 . S
C200 O224 1.244 . S
C201 O223 1.264 . S
C201 O225 1.273 . S
Mg202 O204 1.936 . S
Mg202 O211 2.081 . S
Mg202 O213 2.023 . S
Mg202 O217 2.031 . S
Mg202 O226 2.291 . S
Mg203 O204 1.963 . S
Mg203 O214 1.942 . S
Mg203 O215 1.955 . S
Mg203 O222 1.986 . S
O204 Mg202 1.936 . S
O204 Mg203 1.963 . S
O204 Mg205 1.915 . S
Mg205 O204 1.915 . S
Mg205 O206 1.915 . S
Mg205 O210 2.013 . S
Mg205 O216 2.114 . S
Mg205 O220 2.013 . S
Mg205 O226 2.114 . S
O206 Mg205 1.915 . S
O206 Mg207 1.936 . S
O206 Mg208 1.963 . S
Mg207 O206 1.936 . S
Mg207 O216 2.291 . S
Mg207 O221 2.081 . S
Mg207 O223 2.023 . S
Mg207 O227 2.031 . S
Mg208 O206 1.963 . S
Mg208 O212 1.986 . S
Mg208 O224 1.942 . S
Mg208 O225 1.955 . S
C209 O220 1.191 . S
C209 O222 1.307 . S
O210 Mg205 2.013 . S
O210 C229 1.191 . S
O211 Mg202 2.081 . S
O211 C219 1.331 . S
O212 Mg208 1.986 . S
O212 C229 1.307 . S
O213 Mg202 2.023 . S
O213 C228 1.264 . S
O214 Mg203 1.942 . S
O214 C219 1.244 . S
O215 Mg203 1.955 . S
O215 C228 1.273 . S
O216 Mg205 2.114 . S
O216 Mg207 2.291 . S
O216 C218 1.312 . S
O217 Mg202 2.031 . S
O217 C218 1.208 . S
C218 O216 1.312 . S
C218 O217 1.208 . S
C219 O211 1.331 . S
C219 O214 1.244 . S
O220 Mg205 2.013 . S
O220 C209 1.191 . S
O221 C200 1.331 . S
O221 Mg207 2.081 . S
O222 Mg203 1.986 . S
O222 C209 1.307 . S
O223 C201 1.264 . S
O223 Mg207 2.023 . S
O224 C200 1.244 . S
O224 Mg208 1.942 . S
O225 C201 1.273 . S
O225 Mg208 1.955 . S
O226 C199 1.312 . S
O226 Mg202 2.291 . S
O226 Mg205 2.114 . S
O227 C199 1.208 . S
O227 Mg207 2.031 . S
C228 O213 1.264 . S
C228 O215 1.273 . S
C229 O210 1.191 . S
C229 O212 1.307 . S
C230 O257 1.312 . S
C230 O258 1.208 . S
C231 O252 1.331 . S
C231 O255 1.244 . S
C232 O254 1.264 . S
C232 O256 1.273 . S
Mg233 O235 1.936 . S
Mg233 O242 2.081 . S
Mg233 O244 2.023 . S
Mg233 O248 2.031 . S
Mg233 O257 2.291 . S
Mg234 O235 1.963 . S
Mg234 O245 1.942 . S
Mg234 O246 1.955 . S
Mg234 O253 1.986 . S
O235 Mg233 1.936 . S
O235 Mg234 1.963 . S
O235 Mg236 1.915 . S
Mg236 O235 1.915 . S
Mg236 O237 1.915 . S
Mg236 O241 2.013 . S
Mg236 O247 2.114 . S
Mg236 O251 2.013 . S
Mg236 O257 2.114 . S
O237 Mg236 1.915 . S
O237 Mg238 1.936 . S
O237 Mg239 1.963 . S
Mg238 O237 1.936 . S
Mg238 O247 2.291 . S
Mg238 O252 2.081 . S
Mg238 O254 2.023 . S
Mg238 O258 2.031 . S
Mg239 O237 1.963 . S
Mg239 O243 1.986 . S
Mg239 O255 1.942 . S
Mg239 O256 1.955 . S
C240 O251 1.191 . S
C240 O253 1.307 . S
O241 Mg236 2.013 . S
O241 C260 1.191 . S
O242 Mg233 2.081 . S
O242 C250 1.331 . S
O243 Mg239 1.986 . S
O243 C260 1.307 . S
O244 Mg233 2.023 . S
O244 C259 1.264 . S
O245 Mg234 1.942 . S
O245 C250 1.244 . S
O246 Mg234 1.955 . S
O246 C259 1.273 . S
O247 Mg236 2.114 . S
O247 Mg238 2.291 . S
O247 C249 1.312 . S
O248 Mg233 2.031 . S
O248 C249 1.208 . S
C249 O247 1.312 . S
C249 O248 1.208 . S
C250 O242 1.331 . S
C250 O245 1.244 . S
O251 Mg236 2.013 . S
O251 C240 1.191 . S
O252 C231 1.331 . S
O252 Mg238 2.081 . S
O253 Mg234 1.986 . S
O253 C240 1.307 . S
O254 C232 1.264 . S
O254 Mg238 2.023 . S
O255 C231 1.244 . S
O255 Mg239 1.942 . S
O256 C232 1.273 . S
O256 Mg239 1.955 . S
O257 C230 1.312 . S
O257 Mg233 2.291 . S
O257 Mg236 2.114 . S
O258 C230 1.208 . S
O258 Mg238 2.031 . S
C259 O244 1.264 . S
C259 O246 1.273 . S
C260 O241 1.191 . S
C260 O243 1.307 . S
C261 O288 1.312 . S
C261 O289 1.208 . S
C262 O283 1.331 . S
C262 O286 1.244 . S
C263 O285 1.264 . S
C263 O287 1.273 . S
Mg264 O266 1.936 . S
Mg264 O273 2.081 . S
Mg264 O275 2.023 . S
Mg264 O279 2.031 . S
Mg264 O288 2.291 . S
Mg265 O266 1.963 1_655 S
Mg265 O276 1.942 . S
Mg265 O277 1.955 . S
Mg265 O284 1.986 . S
O266 Mg264 1.936 . S
O266 Mg265 1.963 1_455 S
O266 Mg267 1.915 . S
Mg267 O266 1.915 . S
Mg267 O268 1.915 . S
Mg267 O272 2.013 . S
Mg267 O278 2.114 . S
Mg267 O282 2.013 . S
Mg267 O288 2.114 . S
O268 Mg267 1.915 . S
O268 Mg269 1.936 . S
O268 Mg270 1.963 . S
Mg269 O268 1.936 . S
Mg269 O278 2.291 . S
Mg269 O283 2.081 . S
Mg269 O285 2.023 . S
Mg269 O289 2.031 . S
Mg270 O268 1.963 . S
Mg270 O274 1.986 . S
Mg270 O286 1.942 . S
Mg270 O287 1.955 . S
C271 O282 1.191 . S
C271 O284 1.307 1_455 S
O272 Mg267 2.013 . S
O272 C291 1.191 . S
O273 Mg264 2.081 . S
O273 C281 1.331 1_455 S
O274 Mg270 1.986 . S
O274 C291 1.307 . S
O275 Mg264 2.023 . S
O275 C290 1.264 1_455 S
O276 Mg265 1.942 . S
O276 C281 1.244 . S
O277 Mg265 1.955 . S
O277 C290 1.273 . S
O278 Mg267 2.114 . S
O278 Mg269 2.291 . S
O278 C280 1.312 . S
O279 Mg264 2.031 . S
O279 C280 1.208 . S
C280 O278 1.312 . S
C280 O279 1.208 . S
C281 O273 1.331 1_655 S
C281 O276 1.244 . S
O282 Mg267 2.013 . S
O282 C271 1.191 . S
O283 C262 1.331 . S
O283 Mg269 2.081 . S
O284 Mg265 1.986 . S
O284 C271 1.307 1_655 S
O285 C263 1.264 . S
O285 Mg269 2.023 . S
O286 C262 1.244 . S
O286 Mg270 1.942 . S
O287 C263 1.273 . S
O287 Mg270 1.955 . S
O288 C261 1.312 . S
O288 Mg264 2.291 . S
O288 Mg267 2.114 . S
O289 C261 1.208 . S
O289 Mg269 2.031 . S
C290 O275 1.264 1_655 S
C290 O277 1.273 . S
C291 O272 1.191 . S
C291 O274 1.307 . S
C292 C293 1.369 . S
C292 C294 1.419 . S
C292 H296 0.930 1_565 S
C293 C292 1.369 . S
C293 C302 1.429 . S
C294 C292 1.419 . S
C294 C295 1.363 . S
C294 H297 0.929 1_565 S
C295 C294 1.363 . S
C295 C301 1.428 . S
H296 C292 0.930 1_545 S
H297 C294 0.929 1_545 S
S298 N299 1.613 . S
S298 N300 1.610 . S
N299 S298 1.613 . S
N299 C302 1.350 . S
N300 S298 1.610 . S
N300 C301 1.351 . S
C301 C295 1.428 . S
C301 N300 1.351 . S
C301 C302 1.434 . S
C302 C293 1.429 . S
C302 N299 1.350 . S
C302 C301 1.434 . S
C303 C304 1.369 . S
C303 C305 1.419 . S
C303 H307 0.930 . S
C304 C303 1.369 . S
C304 C313 1.429 . S
C305 C303 1.419 . S
C305 C306 1.363 1_565 S
C305 H308 0.929 . S
C306 C305 1.363 1_545 S
C306 C312 1.428 . S
H307 C303 0.930 . S
H308 C305 0.929 . S
S309 N310 1.613 1_545 S
S309 N311 1.610 . S
N310 S309 1.613 1_565 S
N310 C313 1.350 . S
N311 S309 1.610 . S
N311 C312 1.351 . S
C312 C306 1.428 . S
C312 N311 1.351 . S
C312 C313 1.434 1_545 S
C313 C304 1.429 . S
C313 N310 1.350 . S
C313 C312 1.434 1_565 S
C314 C315 1.369 . S
C314 C316 1.419 . S
C314 H318 0.930 . S
C315 C314 1.369 . S
C315 C324 1.429 . S
C316 C314 1.419 . S
C316 C317 1.363 . S
C316 H319 0.929 . S
C317 C316 1.363 . S
C317 C323 1.428 . S
H318 C314 0.930 . S
H319 C316 0.929 . S
S320 N321 1.613 . S
S320 N322 1.610 1_554 S
N321 S320 1.613 . S
N321 C324 1.350 1_554 S
N322 S320 1.610 1_556 S
N322 C323 1.351 . S
C323 C317 1.428 . S
C323 N322 1.351 . S
C323 C324 1.434 . S
C324 C315 1.429 . S
C324 N321 1.350 1_556 S
C324 C323 1.434 . S
C325 C326 1.369 . S
C325 C327 1.419 . S
C325 H329 0.930 . S
C326 C325 1.369 . S
C326 C335 1.429 . S
C327 C325 1.419 . S
C327 C328 1.363 1_545 S
C327 H330 0.929 . S
C328 C327 1.363 1_565 S
C328 C334 1.428 . S
H329 C325 0.930 . S
H330 C327 0.929 . S
S331 N332 1.613 1_565 S
S331 N333 1.610 . S
N332 S331 1.613 1_545 S
N332 C335 1.350 . S
N333 S331 1.610 . S
N333 C334 1.351 . S
C334 C328 1.428 . S
C334 N333 1.351 . S
C334 C335 1.434 1_565 S
C335 C326 1.429 . S
C335 N332 1.350 . S
C335 C334 1.434 1_545 S
C336 C337 1.369 . S
C336 C338 1.419 . S
C336 H340 0.930 . S
C337 C336 1.369 . S
C337 C346 1.429 . S
C338 C336 1.419 . S
C338 C339 1.363 . S
C338 H341 0.929 . S
C339 C338 1.363 . S
C339 C345 1.428 . S
H340 C336 0.930 . S
H341 C338 0.929 . S
S342 N343 1.613 . S
S342 N344 1.610 . S
N343 S342 1.613 . S
N343 C346 1.350 . S
N344 S342 1.610 . S
N344 C345 1.351 . S
C345 C339 1.428 . S
C345 N344 1.351 . S
C345 C346 1.434 . S
C346 C337 1.429 . S
C346 N343 1.350 . S
C346 C345 1.434 . S
C347 C348 1.369 . S
C347 C349 1.419 1_565 S
C347 H351 0.930 . S
C348 C347 1.369 . S
C348 C357 1.429 . S
C349 C347 1.419 1_545 S
C349 C350 1.363 . S
C349 H352 0.929 . S
C350 C349 1.363 . S
C350 C356 1.428 1_545 S
H351 C347 0.930 . S
H352 C349 0.929 . S
S353 N354 1.613 . S
S353 N355 1.610 . S
N354 S353 1.613 . S
N354 C357 1.350 . S
N355 S353 1.610 . S
N355 C356 1.351 . S
C356 C350 1.428 1_565 S
C356 N355 1.351 . S
C356 C357 1.434 . S
C357 C348 1.429 . S
C357 N354 1.350 . S
C357 C356 1.434 . S
C358 C359 1.369 . S
C358 C360 1.419 . S
C358 H362 0.930 . S
C359 C358 1.369 . S
C359 C368 1.429 . S
C360 C358 1.419 . S
C360 C361 1.363 . S
C360 H363 0.929 . S
C361 C360 1.363 . S
C361 C367 1.428 . S
H362 C358 0.930 . S
H363 C360 0.929 . S
S364 N365 1.613 . S
S364 N366 1.610 . S
N365 S364 1.613 . S
N365 C368 1.350 . S
N366 S364 1.610 . S
N366 C367 1.351 . S
C367 C361 1.428 . S
C367 N366 1.351 . S
C367 C368 1.434 . S
C368 C359 1.429 . S
C368 N365 1.350 . S
C368 C367 1.434 . S
C369 C370 1.369 . S
C369 C371 1.419 . S
C369 H373 0.930 . S
C370 C369 1.369 . S
C370 C379 1.429 . S
C371 C369 1.419 . S
C371 C372 1.363 1_545 S
C371 H374 0.929 1_545 S
C372 C371 1.363 1_565 S
C372 C378 1.428 1_565 S
H373 C369 0.930 . S
H374 C371 0.929 1_565 S
S375 N376 1.613 . S
S375 N377 1.610 . S
N376 S375 1.613 . S
N376 C379 1.350 . S
N377 S375 1.610 . S
N377 C378 1.351 . S
C378 C372 1.428 1_545 S
C378 N377 1.351 . S
C378 C379 1.434 . S
C379 C370 1.429 . S
C379 N376 1.350 . S
C379 C378 1.434 . S
C380 C381 1.369 . S
C380 C382 1.419 . S
C380 H384 0.930 . S
C381 C380 1.369 . S
C381 C390 1.429 . S
C382 C380 1.419 . S
C382 C383 1.363 . S
C382 H385 0.929 . S
C383 C382 1.363 . S
C383 C389 1.428 . S
H384 C380 0.930 . S
H385 C382 0.929 . S
S386 N387 1.613 . S
S386 N388 1.610 . S
N387 S386 1.613 . S
N387 C390 1.350 . S
N388 S386 1.610 . S
N388 C389 1.351 . S
C389 C383 1.428 . S
C389 N388 1.351 . S
C389 C390 1.434 . S
C390 C381 1.429 . S
C390 N387 1.350 . S
C390 C389 1.434 . S
C391 C392 1.369 . S
C391 C393 1.419 . S
C391 H395 0.930 1_565 S
C392 C391 1.369 . S
C392 C401 1.429 . S
C393 C391 1.419 . S
C393 C394 1.363 . S
C393 H396 0.929 . S
C394 C393 1.363 . S
C394 C400 1.428 . S
H395 C391 0.930 1_545 S
H396 C393 0.929 . S
S397 N398 1.613 . S
S397 N399 1.610 . S
N398 S397 1.613 . S
N398 C401 1.350 . S
N399 S397 1.610 . S
N399 C400 1.351 . S
C400 C394 1.428 . S
C400 N399 1.351 . S
C400 C401 1.434 . S
C401 C392 1.429 . S
C401 N398 1.350 . S
C401 C400 1.434 . S
C402 C403 1.369 . S
C402 C404 1.419 . S
C402 H406 0.930 . S
C403 C402 1.369 . S
C403 C412 1.429 . S
C404 C402 1.419 . S
C404 C405 1.363 . S
C404 H407 0.929 . S
C405 C404 1.363 . S
C405 C411 1.428 1_655 S
H406 C402 0.930 . S
H407 C404 0.929 . S
S408 N409 1.613 1_455 S
S408 N410 1.610 . S
N409 S408 1.613 1_655 S
N409 C412 1.350 . S
N410 S408 1.610 . S
N410 C411 1.351 . S
C411 C405 1.428 1_455 S
C411 N410 1.351 . S
C411 C412 1.434 1_455 S
C412 C403 1.429 . S
C412 N409 1.350 . S
C412 C411 1.434 1_655 S
C413 C414 1.369 . S
C413 C415 1.419 . S
C413 H417 0.930 . S
C414 C413 1.369 . S
C414 C423 1.429 . S
C415 C413 1.419 . S
C415 C416 1.363 . S
C415 H418 0.929 . S
C416 C415 1.363 . S
C416 C422 1.428 . S
H417 C413 0.930 . S
H418 C415 0.929 . S
S419 N420 1.613 . S
S419 N421 1.610 1_565 S
N420 S419 1.613 . S
N420 C423 1.350 1_565 S
N421 S419 1.610 1_545 S
N421 C422 1.351 . S
C422 C416 1.428 . S
C422 N421 1.351 . S
C422 C423 1.434 . S
C423 C414 1.429 . S
C423 N420 1.350 1_545 S
C423 C422 1.434 . S
C424 C425 1.369 . S
C424 C426 1.419 . S
C424 H428 0.930 . S
C425 C424 1.369 . S
C425 C434 1.429 . S
C426 C424 1.419 . S
C426 C427 1.363 . S
C426 H429 0.929 . S
C427 C426 1.363 . S
C427 C433 1.428 . S
H428 C424 0.930 . S
H429 C426 0.929 . S
S430 N431 1.613 . S
S430 N432 1.610 . S
N431 S430 1.613 . S
N431 C434 1.350 . S
N432 S430 1.610 . S
N432 C433 1.351 . S
C433 C427 1.428 . S
C433 N432 1.351 . S
C433 C434 1.434 . S
C434 C425 1.429 . S
C434 N431 1.350 . S
C434 C433 1.434 . S
C435 C436 1.369 . S
C435 C437 1.419 . S
C435 H439 0.930 1_565 S
C436 C435 1.369 . S
C436 C445 1.429 . S
C437 C435 1.419 . S
C437 C438 1.363 . S
C437 H440 0.929 1_655 S
C438 C437 1.363 . S
C438 C444 1.428 . S
H439 C435 0.930 1_545 S
H440 C437 0.929 1_455 S
S441 N442 1.613 . S
S441 N443 1.610 . S
N442 S441 1.613 . S
N442 C445 1.350 . S
N443 S441 1.610 . S
N443 C444 1.351 . S
C444 C438 1.428 . S
C444 N443 1.351 . S
C444 C445 1.434 . S
C445 C436 1.429 . S
C445 N442 1.350 . S
C445 C444 1.434 . S
C446 C447 1.369 . S
C446 C448 1.419 . S
C446 H450 0.930 . S
C447 C446 1.369 . S
C447 C456 1.429 . S
C448 C446 1.419 . S
C448 C449 1.363 . S
C448 H451 0.929 . S
C449 C448 1.363 . S
C449 C455 1.428 . S
H450 C446 0.930 . S
H451 C448 0.929 . S
S452 N453 1.613 1_455 S
S452 N454 1.610 1_565 S
N453 S452 1.613 1_655 S
N453 C456 1.350 1_565 S
N454 S452 1.610 1_545 S
N454 C455 1.351 1_455 S
C455 C449 1.428 . S
C455 N454 1.351 1_655 S
C455 C456 1.434 . S
C456 C447 1.429 . S
C456 N453 1.350 1_545 S
C456 C455 1.434 . S
C457 C458 1.369 . S
C457 C459 1.419 . S
C457 H461 0.930 . S
C458 C457 1.369 . S
C458 C467 1.429 . S
C459 C457 1.419 . S
C459 C460 1.363 . S
C459 H462 0.929 . S
C460 C459 1.363 . S
C460 C466 1.428 . S
H461 C457 0.930 . S
H462 C459 0.929 . S
S463 N464 1.613 . S
S463 N465 1.610 1_565 S
N464 S463 1.613 . S
N464 C467 1.350 1_565 S
N465 S463 1.610 1_545 S
N465 C466 1.351 . S
C466 C460 1.428 . S
C466 N465 1.351 . S
C466 C467 1.434 . S
C467 C458 1.429 . S
C467 N464 1.350 1_545 S
C467 C466 1.434 . S
C468 C469 1.369 . S
C468 C470 1.419 . S
C468 H472 0.930 . S
C469 C468 1.369 . S
C469 C478 1.429 . S
C470 C468 1.419 . S
C470 C471 1.363 . S
C470 H473 0.929 . S
C471 C470 1.363 . S
C471 C477 1.428 . S
H472 C468 0.930 . S
H473 C470 0.929 . S
S474 N475 1.613 . S
S474 N476 1.610 1_554 S
N475 S474 1.613 . S
N475 C478 1.350 1_554 S
N476 S474 1.610 1_556 S
N476 C477 1.351 . S
C477 C471 1.428 . S
C477 N476 1.351 . S
C477 C478 1.434 . S
C478 C469 1.429 . S
C478 N475 1.350 1_556 S
C478 C477 1.434 . S
C479 C480 1.369 . S
C479 C481 1.419 . S
C479 H483 0.930 . S
C480 C479 1.369 . S
C480 C489 1.429 . S
C481 C479 1.419 . S
C481 C482 1.363 . S
C481 H484 0.929 . S
C482 C481 1.363 . S
C482 C488 1.428 . S
H483 C479 0.930 . S
H484 C481 0.929 . S
S485 N486 1.613 . S
S485 N487 1.610 . S
N486 S485 1.613 . S
N486 C489 1.350 . S
N487 S485 1.610 . S
N487 C488 1.351 . S
C488 C482 1.428 . S
C488 N487 1.351 . S
C488 C489 1.434 . S
C489 C480 1.429 . S
C489 N486 1.350 . S
C489 C488 1.434 . S
C490 C491 1.369 . S
C490 C492 1.419 . S
C490 H494 0.930 1_655 S
C491 C490 1.369 . S
C491 C500 1.429 . S
C492 C490 1.419 . S
C492 C493 1.363 . S
C492 H495 0.929 . S
C493 C492 1.363 . S
C493 C499 1.428 . S
H494 C490 0.930 1_455 S
H495 C492 0.929 . S
S496 N497 1.613 . S
S496 N498 1.610 . S
N497 S496 1.613 . S
N497 C500 1.350 . S
N498 S496 1.610 . S
N498 C499 1.351 . S
C499 C493 1.428 . S
C499 N498 1.351 . S
C499 C500 1.434 . S
C500 C491 1.429 . S
C500 N497 1.350 . S
C500 C499 1.434 . S
C501 C502 1.369 . S
C501 C503 1.419 . S
C501 H505 0.930 . S
C502 C501 1.369 . S
C502 C511 1.429 . S
C503 C501 1.419 . S
C503 C504 1.363 . S
C503 H506 0.929 . S
C504 C503 1.363 . S
C504 C510 1.428 . S
H505 C501 0.930 . S
H506 C503 0.929 . S
S507 N508 1.613 . S
S507 N509 1.610 . S
N508 S507 1.613 . S
N508 C511 1.350 . S
N509 S507 1.610 . S
N509 C510 1.351 . S
C510 C504 1.428 . S
C510 N509 1.351 . S
C510 C511 1.434 . S
C511 C502 1.429 . S
C511 N508 1.350 . S
C511 C510 1.434 . S
C512 C513 1.369 . S
C512 C514 1.419 . S
C512 H516 0.930 . S
C513 C512 1.369 . S
C513 C522 1.429 . S
C514 C512 1.419 . S
C514 C515 1.363 . S
C514 H517 0.929 . S
C515 C514 1.363 . S
C515 C521 1.428 . S
H516 C512 0.930 . S
H517 C514 0.929 . S
S518 N519 1.613 . S
S518 N520 1.610 . S
N519 S518 1.613 . S
N519 C522 1.350 . S
N520 S518 1.610 . S
N520 C521 1.351 . S
C521 C515 1.428 . S
C521 N520 1.351 . S
C521 C522 1.434 . S
C522 C513 1.429 . S
C522 N519 1.350 . S
C522 C521 1.434 . S
C523 C524 1.369 . S
C523 C525 1.419 . S
C523 H527 0.930 . S
C524 C523 1.369 . S
C524 C533 1.429 . S
C525 C523 1.419 . S
C525 C526 1.363 . S
C525 H528 0.929 . S
C526 C525 1.363 . S
C526 C532 1.428 . S
H527 C523 0.930 . S
H528 C525 0.929 . S
S529 N530 1.613 . S
S529 N531 1.610 . S
N530 S529 1.613 . S
N530 C533 1.350 . S
N531 S529 1.610 . S
N531 C532 1.351 . S
C532 C526 1.428 . S
C532 N531 1.351 . S
C532 C533 1.434 . S
C533 C524 1.429 . S
C533 N530 1.350 . S
C533 C532 1.434 . S
C534 C535 1.369 . S
C534 C536 1.419 . S
C534 H538 0.930 1_655 S
C535 C534 1.369 . S
C535 C544 1.429 . S
C536 C534 1.419 . S
C536 C537 1.363 . S
C536 H539 0.929 . S
C537 C536 1.363 . S
C537 C543 1.428 . S
H538 C534 0.930 1_455 S
H539 C536 0.929 . S
S540 N541 1.613 . S
S540 N542 1.610 . S
N541 S540 1.613 . S
N541 C544 1.350 . S
N542 S540 1.610 . S
N542 C543 1.351 . S
C543 C537 1.428 . S
C543 N542 1.351 . S
C543 C544 1.434 . S
C544 C535 1.429 . S
C544 N541 1.350 . S
C544 C543 1.434 . S
C545 C546 1.369 . S
C545 C547 1.419 . S
C545 H549 0.930 . S
C546 C545 1.369 . S
C546 C555 1.429 . S
C547 C545 1.419 . S
C547 C548 1.363 . S
C547 H550 0.929 . S
C548 C547 1.363 . S
C548 C554 1.428 . S
H549 C545 0.930 . S
H550 C547 0.929 . S
S551 N552 1.613 . S
S551 N553 1.610 . S
N552 S551 1.613 . S
N552 C555 1.350 . S
N553 S551 1.610 . S
N553 C554 1.351 . S
C554 C548 1.428 . S
C554 N553 1.351 . S
C554 C555 1.434 . S
C555 C546 1.429 . S
C555 N552 1.350 . S
C555 C554 1.434 . S
C556 C557 1.369 . S
C556 C558 1.419 . S
C556 H560 0.930 . S
C557 C556 1.369 . S
C557 C566 1.429 . S
C558 C556 1.419 . S
C558 C559 1.363 . S
C558 H561 0.929 . S
C559 C558 1.363 . S
C559 C565 1.428 . S
H560 C556 0.930 . S
H561 C558 0.929 . S
S562 N563 1.613 . S
S562 N564 1.610 . S
N563 S562 1.613 . S
N563 C566 1.350 . S
N564 S562 1.610 . S
N564 C565 1.351 . S
C565 C559 1.428 . S
C565 N564 1.351 . S
C565 C566 1.434 . S
C566 C557 1.429 . S
C566 N563 1.350 . S
C566 C565 1.434 . S
C567 C568 1.369 . S
C567 C569 1.419 . S
C567 H571 0.930 . S
C568 C567 1.369 . S
C568 C577 1.429 . S
C569 C567 1.419 . S
C569 C570 1.363 . S
C569 H572 0.929 . S
C570 C569 1.363 . S
C570 C576 1.428 . S
H571 C567 0.930 . S
H572 C569 0.929 . S
S573 N574 1.613 . S
S573 N575 1.610 . S
N574 S573 1.613 . S
N574 C577 1.350 . S
N575 S573 1.610 . S
N575 C576 1.351 . S
C576 C570 1.428 . S
C576 N575 1.351 . S
C576 C577 1.434 . S
C577 C568 1.429 . S
C577 N574 1.350 . S
C577 C576 1.434 . S
C578 C579 1.369 . S
C578 C580 1.419 . S
C578 H582 0.930 . S
C579 C578 1.369 . S
C579 C588 1.429 . S
C580 C578 1.419 . S
C580 C581 1.363 . S
C580 H583 0.929 . S
C581 C580 1.363 . S
C581 C587 1.428 . S
H582 C578 0.930 . S
H583 C580 0.929 . S
S584 N585 1.613 . S
S584 N586 1.610 . S
N585 S584 1.613 . S
N585 C588 1.350 . S
N586 S584 1.610 . S
N586 C587 1.351 . S
C587 C581 1.428 . S
C587 N586 1.351 . S
C587 C588 1.434 . S
C588 C579 1.429 . S
C588 N585 1.350 . S
C588 C587 1.434 . S
C589 C590 1.369 . S
C589 C591 1.419 . S
C589 H593 0.930 . S
C590 C589 1.369 . S
C590 C599 1.429 . S
C591 C589 1.419 . S
C591 C592 1.363 . S
C591 H594 0.929 . S
C592 C591 1.363 . S
C592 C598 1.428 . S
H593 C589 0.930 . S
H594 C591 0.929 . S
S595 N596 1.613 . S
S595 N597 1.610 . S
N596 S595 1.613 . S
N596 C599 1.350 . S
N597 S595 1.610 . S
N597 C598 1.351 . S
C598 C592 1.428 . S
C598 N597 1.351 . S
C598 C599 1.434 . S
C599 C590 1.429 . S
C599 N596 1.350 . S
C599 C598 1.434 . S
C600 C601 1.369 . S
C600 C602 1.419 . S
C600 H604 0.930 . S
C601 C600 1.369 . S
C601 C610 1.429 . S
C602 C600 1.419 . S
C602 C603 1.363 . S
C602 H605 0.929 . S
C603 C602 1.363 . S
C603 C609 1.428 . S
H604 C600 0.930 . S
H605 C602 0.929 . S
S606 N607 1.613 . S
S606 N608 1.610 . S
N607 S606 1.613 . S
N607 C610 1.350 . S
N608 S606 1.610 . S
N608 C609 1.351 . S
C609 C603 1.428 . S
C609 N608 1.351 . S
C609 C610 1.434 . S
C610 C601 1.429 . S
C610 N607 1.350 . S
C610 C609 1.434 . S
C611 C612 1.369 . S
C611 C613 1.419 . S
C611 H615 0.930 . S
C612 C611 1.369 . S
C612 C621 1.429 . S
C613 C611 1.419 . S
C613 C614 1.363 . S
C613 H616 0.929 . S
C614 C613 1.363 . S
C614 C620 1.428 . S
H615 C611 0.930 . S
H616 C613 0.929 . S
S617 N618 1.613 . S
S617 N619 1.610 . S
N618 S617 1.613 . S
N618 C621 1.350 . S
N619 S617 1.610 . S
N619 C620 1.351 . S
C620 C614 1.428 . S
C620 N619 1.351 . S
C620 C621 1.434 . S
C621 C612 1.429 . S
C621 N618 1.350 . S
C621 C620 1.434 . S
C622 C623 1.369 . S
C622 C624 1.419 . S
C622 H626 0.930 . S
C623 C622 1.369 . S
C623 C632 1.429 . S
C624 C622 1.419 . S
C624 C625 1.363 . S
C624 H627 0.929 . S
C625 C624 1.363 . S
C625 C631 1.428 . S
H626 C622 0.930 . S
H627 C624 0.929 . S
S628 N629 1.613 . S
S628 N630 1.610 . S
N629 S628 1.613 . S
N629 C632 1.350 . S
N630 S628 1.610 . S
N630 C631 1.351 . S
C631 C625 1.428 . S
C631 N630 1.351 . S
C631 C632 1.434 . S
C632 C623 1.429 . S
C632 N629 1.350 . S
C632 C631 1.434 . S
C633 C634 1.369 . S
C633 C635 1.419 . S
C633 H637 0.930 . S
C634 C633 1.369 . S
C634 C643 1.429 . S
C635 C633 1.419 . S
C635 C636 1.363 . S
C635 H638 0.929 . S
C636 C635 1.363 . S
C636 C642 1.428 . S
H637 C633 0.930 . S
H638 C635 0.929 . S
S639 N640 1.613 . S
S639 N641 1.610 . S
N640 S639 1.613 . S
N640 C643 1.350 . S
N641 S639 1.610 . S
N641 C642 1.351 . S
C642 C636 1.428 . S
C642 N641 1.351 . S
C642 C643 1.434 . S
C643 C634 1.429 . S
C643 N640 1.350 . S
C643 C642 1.434 . S
C295 C228 1.749 . S
C293 C17 1.683 . S
C304 C30 1.637 . S
C306 C231 1.661 . S
C315 C61 1.615 . S
C317 C262 1.632 . S
C328 C197 1.728 . S
C326 C72 1.722 . S
C339 C232 1.732 . S
C337 C19 1.752 . S
C350 C263 1.749 . S
C348 C33 1.673 . S
C361 C188 1.701 . S
C359 C59 1.613 . S
C372 C219 1.687 . S
C370 C75 1.588 . S
C381 C12 1.438 . S
C383 C249 1.383 . S
C392 C101 1.421 1_565 S
C394 C218 1.371 . S
C403 C51 1.339 . S
C405 C178 1.340 1_655 S
C416 C271 1.352 1_655 S
C414 C124 1.364 1_545 S
C427 C199 1.387 . S
C425 C9 1.458 . S
C436 C103 1.393 1_565 S
C438 C198 1.386 1_655 S
C447 C54 1.378 . S
C449 C291 1.400 1_655 S
C460 C230 1.396 . S
C458 C122 1.465 1_545 S
C469 C145 1.715 . S
C471 C290 1.710 . S
C480 C96 1.586 . S
C482 C169 1.681 . S
C491 C166 1.648 1_655 S
C493 C200 1.665 . S
C502 C114 1.700 . S
C504 C259 1.693 . S
C515 C170 1.772 . S
C513 C143 1.714 . S
C524 C93 1.719 . S
C526 C201 1.723 . S
C535 C164 1.581 1_655 S
C537 C250 1.676 . S
C548 C281 1.724 . S
C546 C117 1.612 . S
C557 C135 1.427 . S
C559 C187 1.362 . S
C568 C40 1.410 . S
C570 C280 1.336 . S
C579 C156 1.373 . S
C581 C240 1.367 . S
C592 C209 1.388 . S
C590 C82 1.397 . S
C603 C261 1.418 . S
C601 C138 1.465 . S
C614 C260 1.415 . S
C612 C38 1.408 . S
C625 C229 1.363 . S
C623 C159 1.350 . S
C636 C168 1.370 . S
C634 C80 1.431 . S
