# Generated by pormake.
# Topology zzz, (3,6)-cn, num edge types: 1
# Building blocks:
#     Node 0, Type 0, BuildingBlock: CUQRIR_clean_linker_1, # of connection points: 3
#     Node 1, Type 0, BuildingBlock: CUQRIR_clean_linker_1, # of connection points: 3
#     Node 2, Type 0, BuildingBlock: CUQRIR_clean_linker_1, # of connection points: 3
#     Node 3, Type 0, BuildingBlock: CUQRIR_clean_linker_1, # of connection points: 3
#     Node 4, Type 0, BuildingBlock: CUQRIR_clean_linker_1, # of connection points: 3
#     Node 5, Type 0, BuildingBlock: CUQRIR_clean_linker_1, # of connection points: 3
#     Node 6, Type 0, BuildingBlock: CUQRIR_clean_linker_1, # of connection points: 3
#     Node 7, Type 0, BuildingBlock: CUQRIR_clean_linker_1, # of connection points: 3
#     Node 8, Type 1, BuildingBlock: HISSIN_clean_sbu_0, # of connection points: 6
#     Node 9, Type 1, BuildingBlock: HISSIN_clean_sbu_0, # of connection points: 6
#     Node 10, Type 1, BuildingBlock: HISSIN_clean_sbu_0, # of connection points: 6
#     Node 11, Type 1, BuildingBlock: HISSIN_clean_sbu_0, # of connection points: 6
#     Edge 12, Type (0, 1), BuildingBlock: OJICUG_clean_linker_0, # of connection points: 2
#     Edge 13, Type (0, 1), BuildingBlock: OJICUG_clean_linker_0, # of connection points: 2
#     Edge 14, Type (0, 1), BuildingBlock: OJICUG_clean_linker_0, # of connection points: 2
#     Edge 15, Type (0, 1), BuildingBlock: OJICUG_clean_linker_0, # of connection points: 2
#     Edge 16, Type (0, 1), BuildingBlock: OJICUG_clean_linker_0, # of connection points: 2
#     Edge 17, Type (0, 1), BuildingBlock: OJICUG_clean_linker_0, # of connection points: 2
#     Edge 18, Type (0, 1), BuildingBlock: OJICUG_clean_linker_0, # of connection points: 2
#     Edge 19, Type (0, 1), BuildingBlock: OJICUG_clean_linker_0, # of connection points: 2
#     Edge 20, Type (0, 1), BuildingBlock: OJICUG_clean_linker_0, # of connection points: 2
#     Edge 21, Type (0, 1), BuildingBlock: OJICUG_clean_linker_0, # of connection points: 2
#     Edge 22, Type (0, 1), BuildingBlock: OJICUG_clean_linker_0, # of connection points: 2
#     Edge 23, Type (0, 1), BuildingBlock: OJICUG_clean_linker_0, # of connection points: 2
#     Edge 24, Type (0, 1), BuildingBlock: OJICUG_clean_linker_0, # of connection points: 2
#     Edge 25, Type (0, 1), BuildingBlock: OJICUG_clean_linker_0, # of connection points: 2
#     Edge 26, Type (0, 1), BuildingBlock: OJICUG_clean_linker_0, # of connection points: 2
#     Edge 27, Type (0, 1), BuildingBlock: OJICUG_clean_linker_0, # of connection points: 2
#     Edge 28, Type (0, 1), BuildingBlock: OJICUG_clean_linker_0, # of connection points: 2
#     Edge 29, Type (0, 1), BuildingBlock: OJICUG_clean_linker_0, # of connection points: 2
#     Edge 30, Type (0, 1), BuildingBlock: OJICUG_clean_linker_0, # of connection points: 2
#     Edge 31, Type (0, 1), BuildingBlock: OJICUG_clean_linker_0, # of connection points: 2
#     Edge 32, Type (0, 1), BuildingBlock: OJICUG_clean_linker_0, # of connection points: 2
#     Edge 33, Type (0, 1), BuildingBlock: OJICUG_clean_linker_0, # of connection points: 2
#     Edge 34, Type (0, 1), BuildingBlock: OJICUG_clean_linker_0, # of connection points: 2
#     Edge 35, Type (0, 1), BuildingBlock: OJICUG_clean_linker_0, # of connection points: 2
# Relax obj value: 0.456
# Max RMSD: 0.227
# Mean RMSD: 0.116
data_MOF--net-zzz--node1-HISSIN_clean_sbu_0--node2-CUQRIR_clean_linker_1--edge1-OJICUG_clean_linker_0
_symmetry_space_group_name_H-M    P1
_symmetry_Int_Tables_number       1
_symmetry_cell_setting            triclinic
loop_
_symmetry_equiv_pos_as_xyz
'x, y, z'
_cell_length_a     33.01935
_cell_length_b     32.965178
_cell_length_c     10.774605
_cell_angle_alpha  89.712246
_cell_angle_beta   91.748003
_cell_angle_gamma 90.300759
loop_
_atom_site_label
_atom_site_type_symbol
_atom_site_fract_x
_atom_site_fract_y
_atom_site_fract_z
_atom_type_partial_charge
C0 C 0.77131 0.57012 0.38326 0.0
N1 N 0.801 0.54193 0.41017 0.0
N2 N 0.74144 0.55468 0.30456 0.0
C3 C 0.77269 0.613 0.42771 0.0
C4 C 0.75442 0.51677 0.28338 0.0
N5 N 0.7897 0.50898 0.34633 0.0
C6 C 0.73277 0.48778 0.19488 0.0
H7 H 0.78348 0.61391 0.52623 0.0
H8 H 0.74242 0.62732 0.41723 0.0
H9 H 0.7946 0.63037 0.37195 0.0
H10 H 0.73594 0.49882 0.09821 0.0
H11 H 0.69992 0.48695 0.21386 0.0
H12 H 0.74479 0.4565 0.20146 0.0
C13 C 1.02503 0.78207 0.3306 0.0
N14 N 0.04731 0.80736 0.40764 0.0
N15 N 0.04738 0.74951 0.29302 0.0
C16 C 0.98252 0.79052 0.28611 0.0
C17 C 0.08371 0.75631 0.35174 0.0
N18 N 0.08437 0.79151 0.41711 0.0
C19 C 0.11885 0.72757 0.34896 0.0
H20 H 0.96731 0.76234 0.25278 0.0
H21 H 0.98331 0.81262 0.20821 0.0
H22 H 0.96513 0.80426 0.36163 0.0
H23 H 0.12653 0.72072 0.25188 0.0
H24 H 0.10987 0.69904 0.39554 0.0
H25 H 0.146 0.73962 0.39973 0.0
C26 C 0.81026 0.02603 0.38841 0.0
N27 N 0.7693 0.03547 0.38466 0.0
N28 N 0.82638 0.02521 0.27048 0.0
C29 C 0.83428 1.01842 0.506 0.0
C30 C 0.79296 0.03279 0.19827 0.0
N31 N 0.76037 0.04194 0.26537 0.0
C32 C 0.79144 0.03122 0.05802 0.0
H33 H 0.8308 0.04437 0.56985 0.0
H34 H 0.86683 1.01399 0.4877 0.0
H35 H 0.82208 0.99108 0.55262 0.0
H36 H 0.81688 1.01343 1.02165 0.0
H37 H 0.79219 0.06248 1.01939 0.0
H38 H 0.76269 1.01683 0.02489 0.0
C39 C 0.56222 0.81361 0.40703 0.0
N40 N 0.5371 0.78284 0.44593 0.0
N41 N 0.54262 0.83966 0.32475 0.0
C42 C 0.60647 0.81606 0.44006 0.0
C43 C 0.50511 0.82293 0.3141 0.0
N44 N 0.50164 0.78958 0.38761 0.0
C45 C 0.47271 0.83699 0.22156 0.0
H46 H 0.61244 0.80405 0.53525 0.0
H47 H 0.61752 0.84782 0.43297 0.0
H48 H 0.62325 0.79718 0.37414 0.0
H49 H 0.47765 0.82261 0.13052 0.0
H50 H 0.47416 0.87014 0.20522 0.0
H51 H 0.44207 0.8284 0.25231 0.0
C52 C 0.31946 0.51207 0.15155 0.0
N53 N 0.27865 0.50509 0.13682 0.0
N54 N 0.33352 0.50324 0.27049 0.0
C55 C 0.3453 0.52522 0.04757 0.0
C56 C 0.29929 0.49001 0.32514 0.0
N57 N 0.26669 0.49081 0.24545 0.0
C58 C 0.29709 0.47795 0.45963 0.0
H59 H 0.34156 0.50328 0.97023 0.0
H60 H 0.37752 0.52637 0.07779 0.0
H61 H 0.33463 0.55495 1.01142 0.0
H62 H 0.29172 0.50532 0.51618 0.0
H63 H 0.32597 0.46396 0.49281 0.0
H64 H 0.27169 0.45635 0.4733 0.0
C65 C 0.06809 0.30107 0.24425 0.0
N66 N 0.04409 0.27179 0.18763 0.0
N67 N 0.04534 0.32969 0.30308 0.0
C68 C 0.11342 0.30047 0.24961 0.0
C69 C 1.00699 0.31634 0.27918 0.0
N70 N 1.0061 0.28192 0.21082 0.0
C71 C 0.96981 0.33649 0.32644 0.0
H72 H 0.12445 0.30335 0.34752 0.0
H73 H 0.12499 0.32709 0.19787 0.0
H74 H 0.12532 0.27226 0.20884 0.0
H75 H 0.97569 0.36909 0.33769 0.0
H76 H 0.9627 0.32459 0.41961 0.0
H77 H 0.94326 0.33118 0.26289 0.0
C78 C 0.27185 0.05541 0.22335 0.0
N79 N 0.31297 0.0472 0.23341 0.0
N80 N 0.25416 0.05688 0.3386 0.0
C81 C 0.249 0.06038 0.1024 0.0
C82 C 0.2866 0.05066 0.41581 0.0
N83 N 0.3203 0.04134 0.35407 0.0
C84 C 0.28519 0.0511 0.55585 0.0
H85 H 0.21722 0.06956 0.11698 0.0
H86 H 0.24918 0.03125 0.05137 0.0
H87 H 0.26444 0.08335 0.04464 0.0
H88 H 0.28321 1.01954 0.59168 0.0
H89 H 0.25897 0.0687 0.58797 0.0
H90 H 0.31335 0.06493 0.59568 0.0
C91 C 0.53175 0.27304 0.22205 0.0
N92 N 0.55443 0.30735 0.19686 0.0
N93 N 0.54873 0.25033 0.31842 0.0
C94 C 0.4944 0.26071 0.14945 0.0
C95 C 0.58153 0.27293 0.35216 0.0
N96 N 0.58612 0.30545 0.27627 0.0
C97 C 0.60514 0.26713 0.4736 0.0
H98 H 0.46746 0.27128 0.19893 0.0
H99 H 0.49263 0.22717 0.14226 0.0
H100 H 0.49396 0.27458 0.05536 0.0
H101 H 0.63326 0.24998 0.45711 0.0
H102 H 0.5871 0.25023 0.54221 0.0
H103 H 0.61375 0.29681 0.51509 0.0
Eu104 Eu 1.0111 0.05827 0.70543 0.0
Eu105 Eu 0.07065 1.01804 0.90083 0.0
C106 C 0.04992 0.11587 0.92588 0.0
C107 C 0.93534 0.09007 0.43859 0.0
C108 C 0.96277 0.09321 0.34252 0.0
C109 C 0.88704 0.13076 0.32073 0.0
C110 C 0.95373 0.1186 0.24175 0.0
C111 C 0.8961 0.1055 0.42178 0.0
C112 C 0.91794 0.14162 0.23992 0.0
C113 C 0.95002 0.08253 0.56547 0.0
O114 O 1.01294 1.01056 1.01526 0.0
O115 O 0.9731 0.04696 0.87901 0.0
C116 C 0.97762 0.02735 0.98593 0.0
O117 O 1.02442 0.99619 0.61804 0.0
O118 O 0.12775 0.02864 1.0057 0.0
O119 O 0.10069 0.96847 0.99815 0.0
O120 O 0.04638 0.96256 0.79197 0.0
C121 C 0.03391 0.96177 0.67436 0.0
O122 O 0.06881 0.0675 0.59368 0.0
O123 O 0.10849 0.02931 0.72607 0.0
O124 O 0.06048 0.08174 0.98273 0.0
O125 O 0.95445 0.04506 0.60206 0.0
O126 O 0.97923 0.10629 0.6062 0.0
O127 O 0.03508 0.11451 0.81069 0.0
C128 C 0.14673 0.98118 0.16404 0.0
C129 C 0.18623 0.96599 0.17589 0.0
C130 C 0.13104 0.95131 0.36173 0.0
C131 C 0.19683 0.94041 0.27507 0.0
C132 C 0.12037 0.97678 0.26244 0.0
C133 C 0.16755 0.92944 0.36126 0.0
C134 C 0.13095 0.99075 0.03926 0.0
C135 C 0.10391 0.05003 0.62093 0.0
H136 H 0.993 0.0808 0.35347 0.0
H137 H 0.85896 0.14763 0.3198 0.0
H138 H 0.97761 0.1256 0.17833 0.0
H139 H 0.87444 0.10287 0.49494 0.0
H140 H 0.20709 0.96953 0.10087 0.0
H141 H 0.10842 0.94449 0.42913 0.0
H142 H 0.22547 0.92456 0.27373 0.0
H143 H 0.08994 0.98891 0.2555 0.0
Eu144 Eu 0.55842 0.07487 0.90122 0.0
Eu145 Eu 0.5246 1.01215 0.7139 0.0
C146 C 0.55477 0.98091 0.99722 0.0
C147 C 0.60092 0.17556 0.99289 0.0
C148 C 0.61515 0.19786 0.09506 0.0
C149 C 0.66865 0.17351 0.91707 0.0
C150 C 0.65682 0.19914 0.12084 0.0
C151 C 0.62693 0.1704 0.89352 0.0
C152 C 0.68223 0.17813 0.0413 0.0
C153 C 0.57264 0.1424 1.01854 0.0
O154 O 0.46528 1.02008 0.82284 0.0
O155 O 0.49225 0.06489 0.96328 0.0
C156 C 0.46086 0.04301 0.9223 0.0
O157 O 0.55902 0.10524 0.71011 0.0
O158 O 0.53886 0.95166 0.64791 0.0
O159 O 0.4909 0.98662 0.5566 0.0
O160 O 0.50775 0.07172 0.61238 0.0
C161 C 0.53121 0.10402 0.62076 0.0
O162 O 0.61947 0.05882 0.80891 0.0
O163 O 0.58938 0.02541 0.64596 0.0
O164 O 0.5365 0.97414 0.88893 0.0
O165 O 0.54271 0.13776 0.93812 0.0
O166 O 0.59003 0.10793 0.0493 0.0
O167 O 0.56788 1.01792 0.02495 0.0
C168 C 0.4811 0.91706 0.57328 0.0
C169 C 0.46592 0.90207 0.46044 0.0
C170 C 0.41749 0.90157 0.66713 0.0
C171 C 0.42524 0.891 0.44933 0.0
C172 C 0.45868 0.91121 0.68073 0.0
C173 C 0.40007 0.90171 0.54634 0.0
C174 C 0.50877 0.95141 0.56717 0.0
C175 C 0.62261 0.04093 0.6993 0.0
H176 H 0.59454 0.20646 0.16535 0.0
H177 H 0.68861 0.16075 0.84961 0.0
H178 H 0.66713 0.20724 0.21393 0.0
H179 H 0.61629 0.15562 0.80905 0.0
H180 H 0.4828 0.90667 0.3774 0.0
H181 H 0.39854 0.90597 0.74623 0.0
H182 H 0.41255 0.88703 0.35626 0.0
H183 H 0.47039 0.92154 0.77022 0.0
Eu184 Eu 0.50489 0.55401 0.89345 0.0
Eu185 Eu 0.57139 0.52825 0.7068 0.0
C186 C 0.60002 0.56392 0.98175 0.0
C187 C 0.43373 0.58956 0.15602 0.0
C188 C 0.45947 0.59252 0.26153 0.0
C189 C 0.38646 0.63525 0.24949 0.0
C190 C 0.45021 0.61974 0.35517 0.0
C191 C 0.39609 0.60899 0.15432 0.0
C192 C 0.41626 0.64504 0.33991 0.0
C193 C 0.44598 0.56869 0.04387 0.0
O194 O 0.56868 0.47265 0.83751 0.0
O195 O 0.50706 0.48422 0.91684 0.0
C196 C 0.5383 0.45993 0.90443 0.0
O197 O 0.4671 0.54353 0.71508 0.0
O198 O 0.63349 0.53818 0.64795 0.0
O199 O 0.59585 0.49163 0.56054 0.0
O200 O 0.51324 0.51623 0.58599 0.0
C201 C 0.47566 0.52754 0.60725 0.0
O202 O 0.52638 0.61595 0.80894 0.0
O203 O 0.55463 0.59136 0.63381 0.0
O204 O 0.60827 0.55767 0.86483 0.0
O205 O 0.45341 0.59092 0.94677 0.0
O206 O 0.4711 0.53866 0.05757 0.0
O207 O 0.56227 0.56142 1.01791 0.0
C208 C 0.66459 0.47675 0.5949 0.0
C209 C 0.65709 0.44096 0.66183 0.0
C210 C 0.71547 0.44186 0.48145 0.0
C211 C 0.67528 0.40497 0.62508 0.0
C212 C 0.69777 0.47819 0.51767 0.0
C213 C 0.69703 0.40533 0.51492 0.0
C214 C 0.63233 0.50665 0.57599 0.0
C215 C 0.54135 0.62248 0.69696 0.0
H216 H 0.48817 0.57675 0.26657 0.0
H217 H 0.35985 0.65411 0.23717 0.0
H218 H 0.47317 0.62613 0.42651 0.0
H219 H 0.37585 0.60714 0.07377 0.0
H220 H 0.63287 0.43948 0.72713 0.0
H221 H 0.7367 0.44209 0.40758 0.0
H222 H 0.66323 0.37665 0.66022 0.0
H223 H 0.70594 0.50627 0.47332 0.0
Eu224 Eu 0.06028 0.5745 0.6622 0.0
Eu225 Eu 0.03363 0.51682 0.87592 0.0
C226 C 0.13064 0.53987 0.85048 0.0
C227 C 0.06972 0.60327 0.3383 0.0
C228 C 0.05408 0.56381 0.32311 0.0
C229 C 0.11725 0.59026 0.17889 0.0
C230 C 0.07584 0.53605 0.25495 0.0
C231 C 0.09737 0.6178 0.25276 0.0
C232 C 0.1119 0.54863 0.20228 0.0
C233 C 0.07322 0.61812 0.46555 0.0
O234 O 0.03181 0.57923 0.97144 0.0
O235 O 0.05036 0.62155 0.81468 0.0
C236 C 0.03944 0.61617 0.93033 0.0
O237 O 0.99338 0.5604 0.61055 0.0
O238 O 1.01508 0.50779 0.06464 0.0
O239 O 0.03753 0.45672 0.96286 0.0
O240 O 0.97025 0.52725 0.78118 0.0
C241 C 0.963 0.54402 0.67038 0.0
O242 O 0.07254 0.5096 0.58658 0.0
O243 O 0.02989 0.4745 0.71051 0.0
O244 O 0.10311 0.51265 0.87864 0.0
O245 O 0.03957 0.61963 0.52519 0.0
O246 O 0.1021 0.60041 0.53084 0.0
O247 O 0.11978 0.57121 0.78063 0.0
C248 C 0.99367 0.44414 0.1291 0.0
C249 C 0.96881 0.41661 0.06331 0.0
C250 C 0.9492 0.44162 0.30194 0.0
C251 C 0.93279 0.40344 0.11464 0.0
C252 C 0.98546 0.45376 0.25205 0.0
C253 C 0.92126 0.41877 0.22994 0.0
C254 C 1.02333 0.46923 0.06719 0.0
C255 C 0.05339 0.47536 0.61413 0.0
H256 H 0.03106 0.55227 0.38373 0.0
H257 H 0.14375 0.60096 0.13191 0.0
H258 H 0.06911 0.50425 0.26472 0.0
H259 H 0.10879 0.64841 0.25759 0.0
H260 H 0.97507 0.40845 0.96858 0.0
H261 H 0.94131 0.45408 0.39084 0.0
H262 H 0.9117 0.38565 0.05807 0.0
H263 H 1.00469 0.47459 0.30457 0.0
C264 C 0.20255 1.0198 0.46112 0.0
C265 C 0.212 0.05257 0.38153 0.0
H266 H 0.16407 0.9941 0.59833 0.0
C267 C 0.18304 0.08417 0.37418 0.0
H268 H 0.22363 0.9949 0.47162 0.0
C269 C 0.14706 0.08306 0.44592 0.0
C270 C 0.13951 0.05115 0.53165 0.0
H271 H 0.18903 0.11061 0.31754 0.0
H272 H 0.12623 0.10827 0.43878 0.0
C273 C 0.16813 1.01956 0.53592 0.0
C274 C 0.50219 0.19796 0.41666 0.0
C275 C 0.54025 0.20961 0.37067 0.0
H276 H 0.46875 0.15534 0.52965 0.0
C277 C 0.57286 0.18278 0.3968 0.0
H278 H 0.47634 0.21762 0.40151 0.0
C279 C 0.56878 0.148 0.47141 0.0
C280 C 0.53161 0.13722 0.52237 0.0
H281 H 0.60291 0.19 0.36616 0.0
H282 H 0.59555 0.13014 0.49328 0.0
C283 C 0.49789 0.16214 0.49089 0.0
C284 C 0.4083 0.49224 0.32155 0.0
C285 C 0.37178 0.51361 0.33797 0.0
H286 H 0.46949 0.4797 0.38993 0.0
C287 C 0.37139 0.54089 0.43839 0.0
H288 H 0.40993 0.47049 0.24697 0.0
C289 C 0.40489 0.54536 0.52214 0.0
C290 C 0.44112 0.52326 0.50928 0.0
H291 H 0.34415 0.55792 0.45498 0.0
H292 H 0.40208 0.5662 0.59871 0.0
C293 C 0.44248 0.49728 0.40492 0.0
C294 C 0.0771 0.39842 0.35072 0.0
C295 C 0.05621 0.36313 0.38878 0.0
H296 H 0.09581 0.45987 0.39517 0.0
C297 C 0.03906 0.36439 0.50716 0.0
H298 H 0.091 0.39906 0.26103 0.0
C299 C 0.03877 0.40021 0.5783 0.0
C300 C 0.05731 0.43645 0.53788 0.0
H301 H 1.02355 0.33788 0.54207 0.0
H302 H 1.02314 0.39947 0.6652 0.0
C303 C 0.0786 0.43402 0.4259 0.0
C304 C 0.89814 0.99736 0.23869 0.0
C305 C 0.86807 0.02767 0.22126 0.0
H306 H 0.95624 0.97334 0.18329 0.0
C307 C 0.87686 0.05799 0.1323 0.0
H308 H 0.89304 0.9728 0.30346 0.0
C309 C 0.91153 0.05706 0.05899 0.0
C310 C 0.94141 0.0269 0.07356 0.0
H311 H 0.85562 0.08245 0.11561 0.0
H312 H 0.91504 0.0809 0.99055 0.0
C313 C 0.93446 0.99741 0.16777 0.0
C314 C 0.56269 0.9132 0.29603 0.0
C315 C 0.55685 0.87367 0.24758 0.0
H316 H 0.56682 0.97782 0.25855 0.0
C317 C 0.55512 0.87029 0.11716 0.0
H318 H 0.56376 0.91737 0.39555 0.0
C319 C 0.55606 0.90476 0.03874 0.0
C320 C 0.55937 0.94463 0.0862 0.0
H321 H 0.55033 0.84076 0.07552 0.0
H322 H 0.55279 0.90001 0.93953 0.0
C323 C 0.56411 0.94807 0.21687 0.0
C324 C 0.66685 0.56585 0.28344 0.0
C325 C 0.70617 0.57211 0.23834 0.0
H326 H 0.60287 0.55852 0.24091 0.0
C327 C 0.70885 0.58124 0.11093 0.0
H328 H 0.66337 0.5578 0.37988 0.0
C329 C 0.67429 0.58081 0.03022 0.0
C330 C 0.63529 0.57155 0.07342 0.0
H331 H 0.73843 0.58485 0.07147 0.0
H332 H 0.67862 0.58566 0.93202 0.0
C333 C 0.63201 0.56578 0.20278 0.0
C334 C 0.06038 0.72105 0.08244 0.0
C335 C 0.03954 0.7191 0.19497 0.0
H336 H 0.07665 0.69153 0.913 0.0
C337 C 1.01625 0.6838 0.21557 0.0
H338 H 0.07906 0.74731 0.06344 0.0
C339 C 1.015 0.65126 0.12881 0.0
C340 C 0.03724 0.65254 1.01827 0.0
H341 H 1.00037 0.68057 0.30151 0.0
H342 H 0.99759 0.62437 0.15065 0.0
C343 C 0.05908 0.68872 0.99586 0.0
C344 C 0.95343 0.24316 0.31336 0.0
C345 C 0.97231 0.25418 0.20358 0.0
H346 H 0.91687 0.2007 0.40588 0.0
C347 C 0.96196 0.23341 0.09337 0.0
H348 H 0.9618 0.25725 0.40075 0.0
C349 C 0.9386 0.19788 0.09823 0.0
C350 C 0.92328 0.1849 0.21199 0.0
H351 H 0.97476 0.24252 1.00639 0.0
H352 H 0.93577 0.17875 1.01693 0.0
C353 C 0.92764 0.21012 0.3161 0.0
C354 C 0.33026 0.96809 0.35593 0.0
C355 C 0.34267 1.00675 0.39712 0.0
H356 H 0.33709 0.90377 0.37638 0.0
C357 C 0.37 1.01024 0.49765 0.0
H358 H 0.30787 0.96508 0.2809 0.0
C359 C 0.38512 0.97553 0.55586 0.0
C360 C 0.37375 0.93648 0.51284 0.0
H361 H 0.37906 0.03984 0.53202 0.0
H362 H 0.40747 0.97957 0.63039 0.0
C363 C 0.34569 0.93322 0.41311 0.0
C364 C 0.60982 0.37512 0.31107 0.0
C365 C 0.61866 0.33441 0.29015 0.0
H366 H 0.62999 0.43055 0.39172 0.0
C367 C 0.65858 0.32049 0.31265 0.0
H368 H 0.57945 0.38664 0.2961 0.0
C369 C 0.68676 0.34465 0.37814 0.0
C370 C 0.67592 0.38381 0.41236 0.0
H371 H 0.66617 0.28926 0.29366 0.0
H372 H 0.71537 0.3318 0.4101 0.0
C373 C 0.63876 0.40001 0.36804 0.0
C374 C 0.21436 0.52817 0.34478 0.0
C375 C 0.22537 0.49335 0.28132 0.0
H376 H 0.16938 0.573 0.36773 0.0
C377 C 0.19528 0.47048 0.21776 0.0
H378 H 0.23693 0.5459 0.3958 0.0
C379 C 0.15681 0.48718 0.1948 0.0
C380 C 0.1486 0.52598 0.2395 0.0
H381 H 0.20319 0.44259 0.17202 0.0
H382 H 0.13502 0.4715 0.13486 0.0
C383 C 0.17615 0.5443 0.32456 0.0
C384 C 0.12627 0.84206 0.53466 0.0
C385 C 0.12035 0.81639 0.43193 0.0
H386 H 0.14705 0.90089 0.59397 0.0
C387 C 0.14481 0.82206 0.3289 0.0
H388 H 0.11055 0.8365 0.61947 0.0
C389 C 0.16865 0.85661 0.31902 0.0
C390 C 0.16638 0.88729 0.40847 0.0
H391 H 0.14165 0.80262 0.2485 0.0
H392 H 0.18277 0.86212 0.23101 0.0
C393 C 0.14832 0.87818 0.52186 0.0
C394 C 0.74723 0.11478 0.26167 0.0
C395 C 0.7357 0.07533 0.22531 0.0
H396 H 0.74032 0.17873 0.22888 0.0
C397 C 0.70703 0.06998 0.12925 0.0
H398 H 0.77016 0.11918 0.33445 0.0
C399 C 0.69156 0.1035 0.06574 0.0
C400 C 0.70392 0.14326 0.09855 0.0
H401 H 0.69811 0.03978 0.09989 0.0
H402 H 0.66938 0.09803 0.99168 0.0
C403 C 0.73121 0.14859 0.19934 0.0
C404 C 0.45316 0.74226 0.48279 0.0
C405 C 0.46994 0.75983 0.37668 0.0
H406 H 0.42294 0.68972 0.55621 0.0
C407 C 0.46071 0.74349 0.25985 0.0
H408 H 0.45945 0.7551 0.57357 0.0
C409 C 0.43729 0.7089 0.24909 0.0
C410 C 0.42484 0.68828 0.35577 0.0
H411 H 0.47465 0.75514 0.17744 0.0
H412 H 0.43342 0.69551 0.15774 0.0
C413 C 0.43172 0.70563 0.47296 0.0
C414 C 0.83377 0.45177 0.40742 0.0
C415 C 0.81615 0.47672 0.31551 0.0
H416 H 0.88182 0.41008 0.4503 0.0
C417 C 0.82609 0.47177 0.19125 0.0
H418 H 0.82522 0.45443 0.50316 0.0
C419 C 0.85594 0.44493 0.15994 0.0
C420 C 0.87831 0.42475 0.25383 0.0
H421 H 0.81281 0.49096 0.11919 0.0
H422 H 0.86541 0.44509 0.06452 0.0
C423 C 0.86503 0.4257 0.37666 0.0
C424 C 0.05476 0.2318 0.99366 0.0
C425 C 0.05499 0.23384 0.12464 0.0
H426 H 0.05188 0.19442 0.8295 0.0
C427 C 0.05614 0.19644 0.18932 0.0
H428 H 0.05265 0.25961 0.94005 0.0
C429 C 0.05628 0.15869 0.12575 0.0
C430 C 0.05373 0.15655 0.99442 0.0
H431 H 0.05508 0.19639 0.28964 0.0
H432 H 0.05643 0.13099 0.18021 0.0
C433 C 0.05364 0.19409 0.93 0.0
C434 C 0.34735 0.02759 0.02921 0.0
C435 C 0.34691 0.04849 0.14431 0.0
H436 H 0.38201 1.00883 0.87042 0.0
C437 C 0.38403 0.06731 0.18102 0.0
H438 H 0.3204 1.01156 0.99691 0.0
C439 C 0.41936 0.06575 0.10889 0.0
C440 C 0.42059 0.04464 0.99487 0.0
H441 H 0.386 0.08322 0.26869 0.0
H442 H 0.44639 0.08088 0.14496 0.0
C443 C 0.38334 0.02566 0.9565 0.0
C444 C 0.51216 0.36635 0.1146 0.0
C445 C 0.54685 0.34147 0.10853 0.0
H446 H 0.4821 0.42202 0.05854 0.0
C447 C 0.57736 0.35517 0.02857 0.0
H448 H 0.48827 0.35786 0.17639 0.0
C449 C 0.57406 0.39234 0.96119 0.0
C450 C 0.54005 0.41808 0.97006 0.0
H451 H 0.60479 0.33759 1.02137 0.0
H452 H 0.599 0.4014 0.90416 0.0
C453 C 0.50886 0.40373 0.04722 0.0
C454 C 0.2292 0.48667 0.96504 0.0
C455 C 0.24997 0.51683 0.03487 0.0
H456 H 0.17556 0.46964 0.85792 0.0
C457 C 0.23382 0.55648 0.027 0.0
H458 H 0.23997 0.45572 0.9697 0.0
C459 C 0.1972 0.56495 0.95829 0.0
C460 C 0.1742 0.53372 0.89988 0.0
H461 H 0.24814 0.58051 0.08085 0.0
H462 H 0.18544 0.59552 0.95844 0.0
C463 C 0.19175 0.49468 0.90164 0.0
C464 C 0.03263 0.84652 0.59984 0.0
C465 C 0.03546 0.84523 0.46933 0.0
H466 H 0.03152 0.88284 0.76574 0.0
C467 C 0.03399 0.88282 0.40596 0.0
H468 H 0.0341 0.81844 0.65234 0.0
C469 C 0.03133 0.92016 0.47128 0.0
C470 C 0.03182 0.92158 0.6029 0.0
H471 H 0.03665 0.88345 0.30608 0.0
H472 H 0.0311 0.94817 0.41836 0.0
C473 C 0.03164 0.88376 0.66529 0.0
C474 C 0.73624 0.05496 0.59122 0.0
C475 C 0.73634 0.03347 0.47701 0.0
H476 H 0.70204 0.07449 0.75029 0.0
C477 C 0.69917 1.01435 0.44261 0.0
H478 H 0.76317 0.07141 0.6215 0.0
C479 C 0.66403 1.01653 0.51516 0.0
C480 C 0.66308 0.03825 0.62817 0.0
H481 H 0.6969 0.99805 0.35564 0.0
H482 H 0.63691 1.00129 0.48019 0.0
C483 C 0.70051 0.05713 0.66523 0.0
C484 C 0.55344 0.70839 0.44992 0.0
C485 C 0.54643 0.7447 0.5146 0.0
H486 H 0.55755 0.64321 0.45357 0.0
C487 C 0.53875 0.74042 0.6428 0.0
H488 H 0.55795 0.70974 0.35088 0.0
C489 C 0.5372 0.7016 0.70248 0.0
C490 C 0.54363 0.66513 0.63694 0.0
H491 H 0.53173 0.76716 0.69578 0.0
H492 H 0.53029 0.70019 0.79998 0.0
C493 C 0.55252 0.6698 0.50953 0.0
C494 C 0.84579 0.53176 0.60335 0.0
C495 C 0.84026 0.54638 0.48004 0.0
H496 H 0.88704 0.5191 0.75913 0.0
C497 C 0.87551 0.56013 0.42167 0.0
H498 H 0.81987 0.51994 0.65125 0.0
C499 C 0.91431 0.55955 0.48347 0.0
C500 C 0.92021 0.54473 0.60686 0.0
H501 H 0.87319 0.57063 0.32637 0.0
H502 H 0.94008 0.57033 0.43274 0.0
C503 C 0.88474 0.53094 0.66528 0.0
loop_
_geom_bond_atom_site_label_1
_geom_bond_atom_site_label_2
_geom_bond_distance
_geom_bond_site_symmetry_2
_ccdc_geom_bond_type
C0 N1 1.317 . S
C0 N2 1.348 . S
C0 C3 1.485 . S
N1 C0 1.317 . S
N1 N5 1.370 . S
N2 C0 1.348 . S
N2 C4 1.346 . S
C3 C0 1.485 . S
C3 H7 0.960 . S
C3 H8 0.961 . S
C3 H9 0.960 . S
C4 N2 1.346 . S
C4 N5 1.307 . S
C4 C6 1.486 . S
N5 N1 1.370 . S
N5 C4 1.307 . S
C6 C4 1.486 . S
C6 H10 0.960 . S
C6 H11 0.960 . S
C6 H12 0.959 . S
H7 C3 0.960 . S
H8 C3 0.961 . S
H9 C3 0.960 . S
H10 C6 0.960 . S
H11 C6 0.960 . S
H12 C6 0.959 . S
C13 N14 1.317 . S
C13 N15 1.348 . S
C13 C16 1.485 . S
N14 C13 1.317 . S
N14 N18 1.370 . S
N15 C13 1.348 . S
N15 C17 1.346 . S
C16 C13 1.485 . S
C16 H20 0.960 1_655 S
C16 H21 0.961 . S
C16 H22 0.960 . S
C17 N15 1.346 . S
C17 N18 1.307 . S
C17 C19 1.486 . S
N18 N14 1.370 . S
N18 C17 1.307 . S
C19 C17 1.486 . S
C19 H23 0.960 . S
C19 H24 0.960 1_655 S
C19 H25 0.959 . S
H20 C16 0.960 1_455 S
H21 C16 0.961 . S
H22 C16 0.960 . S
H23 C19 0.960 . S
H24 C19 0.960 1_455 S
H25 C19 0.959 . S
C26 N27 1.317 . S
C26 N28 1.348 . S
C26 C29 1.485 . S
N27 C26 1.317 . S
N27 N31 1.370 . S
N28 C26 1.348 . S
N28 C30 1.346 . S
C29 C26 1.485 . S
C29 H33 0.960 1_565 S
C29 H34 0.961 . S
C29 H35 0.960 . S
C30 N28 1.346 . S
C30 N31 1.307 . S
C30 C32 1.486 . S
N31 N27 1.370 . S
N31 C30 1.307 . S
C32 C30 1.486 . S
C32 H36 0.960 . S
C32 H37 0.960 1_565 S
C32 H38 0.959 . S
H33 C29 0.960 1_545 S
H34 C29 0.961 . S
H35 C29 0.960 . S
H36 C32 0.960 . S
H37 C32 0.960 1_545 S
H38 C32 0.959 . S
C39 N40 1.317 . S
C39 N41 1.348 . S
C39 C42 1.485 . S
N40 C39 1.317 . S
N40 N44 1.370 . S
N41 C39 1.348 . S
N41 C43 1.346 . S
C42 C39 1.485 . S
C42 H46 0.960 . S
C42 H47 0.961 . S
C42 H48 0.960 . S
C43 N41 1.346 . S
C43 N44 1.307 . S
C43 C45 1.486 . S
N44 N40 1.370 . S
N44 C43 1.307 . S
C45 C43 1.486 . S
C45 H49 0.960 . S
C45 H50 0.960 . S
C45 H51 0.959 . S
H46 C42 0.960 . S
H47 C42 0.961 . S
H48 C42 0.960 . S
H49 C45 0.960 . S
H50 C45 0.960 . S
H51 C45 0.959 . S
C52 N53 1.317 . S
C52 N54 1.348 . S
C52 C55 1.485 1_554 S
N53 C52 1.317 . S
N53 N57 1.370 . S
N54 C52 1.348 . S
N54 C56 1.346 . S
C55 C52 1.485 1_556 S
C55 H59 0.960 . S
C55 H60 0.961 . S
C55 H61 0.960 . S
C56 N54 1.346 . S
C56 N57 1.307 . S
C56 C58 1.486 . S
N57 N53 1.370 . S
N57 C56 1.307 . S
C58 C56 1.486 . S
C58 H62 0.960 . S
C58 H63 0.960 . S
C58 H64 0.959 . S
H59 C55 0.960 . S
H60 C55 0.961 . S
H61 C55 0.960 . S
H62 C58 0.960 . S
H63 C58 0.960 . S
H64 C58 0.959 . S
C65 N66 1.317 . S
C65 N67 1.348 1_556 S
C65 C68 1.485 . S
N66 C65 1.317 . S
N66 N70 1.370 1_556 S
N67 C65 1.348 1_554 S
N67 C69 1.346 . S
C68 C65 1.485 . S
C68 H72 0.960 . S
C68 H73 0.961 . S
C68 H74 0.960 . S
C69 N67 1.346 . S
C69 N70 1.307 . S
C69 C71 1.486 . S
N70 N66 1.370 1_554 S
N70 C69 1.307 . S
C71 C69 1.486 . S
C71 H75 0.960 . S
C71 H76 0.960 . S
C71 H77 0.959 . S
H72 C68 0.960 . S
H73 C68 0.961 . S
H74 C68 0.960 . S
H75 C71 0.960 . S
H76 C71 0.960 . S
H77 C71 0.959 . S
C78 N79 1.317 . S
C78 N80 1.348 1_556 S
C78 C81 1.485 . S
N79 C78 1.317 . S
N79 N83 1.370 1_556 S
N80 C78 1.348 1_554 S
N80 C82 1.346 . S
C81 C78 1.485 . S
C81 H85 0.960 . S
C81 H86 0.961 . S
C81 H87 0.960 . S
C82 N80 1.346 . S
C82 N83 1.307 . S
C82 C84 1.486 . S
N83 N79 1.370 1_554 S
N83 C82 1.307 . S
C84 C82 1.486 . S
C84 H88 0.960 . S
C84 H89 0.960 . S
C84 H90 0.959 . S
H85 C81 0.960 . S
H86 C81 0.961 . S
H87 C81 0.960 . S
H88 C84 0.960 . S
H89 C84 0.960 . S
H90 C84 0.959 . S
C91 N92 1.317 . S
C91 N93 1.348 . S
C91 C94 1.485 1_554 S
N92 C91 1.317 . S
N92 N96 1.370 . S
N93 C91 1.348 . S
N93 C95 1.346 . S
C94 C91 1.485 1_556 S
C94 H98 0.960 . S
C94 H99 0.961 . S
C94 H100 0.960 . S
C95 N93 1.346 . S
C95 N96 1.307 . S
C95 C97 1.486 . S
N96 N92 1.370 . S
N96 C95 1.307 . S
C97 C95 1.486 . S
C97 H101 0.960 . S
C97 H102 0.960 . S
C97 H103 0.959 . S
H98 C94 0.960 . S
H99 C94 0.961 . S
H100 C94 0.960 . S
H101 C97 0.960 . S
H102 C97 0.960 . S
H103 C97 0.959 . S
Eu104 C113 2.828 . S
Eu104 O115 2.392 . S
Eu104 O117 2.418 1_545 S
Eu104 O122 2.373 1_655 S
Eu104 O125 2.488 . S
Eu104 O126 2.471 . S
Eu104 O127 2.349 1_655 S
Eu105 O114 2.373 1_455 S
Eu105 O118 2.488 1_556 S
Eu105 O119 2.471 . S
Eu105 O120 2.349 . S
Eu105 O123 2.392 1_565 S
Eu105 O124 2.418 1_565 S
Eu105 C134 2.828 1_556 S
C106 O124 1.244 . S
C106 O127 1.265 . S
C107 C108 1.379 1_655 S
C107 C111 1.373 . S
C107 C113 1.505 . S
C108 C107 1.379 1_455 S
C108 C110 1.369 . S
C108 H136 0.930 . S
C109 C111 1.383 . S
C109 C112 1.382 . S
C109 H137 0.930 . S
C110 C108 1.369 . S
C110 C112 1.392 1_455 S
C110 H138 0.930 . S
C111 C107 1.373 . S
C111 C109 1.383 . S
C111 H139 0.931 . S
C112 C109 1.382 . S
C112 C110 1.392 1_655 S
C113 Eu104 2.828 . S
C113 C107 1.505 . S
C113 O125 1.249 . S
C113 O126 1.244 . S
O114 Eu105 2.373 1_655 S
O114 C116 1.255 1_565 S
O115 Eu104 2.392 . S
O115 C116 1.247 . S
C116 O114 1.255 1_545 S
C116 O115 1.247 . S
O117 Eu104 2.418 1_565 S
O117 C121 1.244 . S
O118 Eu105 2.488 1_554 S
O118 C134 1.249 . S
O119 Eu105 2.471 . S
O119 C134 1.244 1_556 S
O120 Eu105 2.349 . S
O120 C121 1.265 1_455 S
C121 O117 1.244 . S
C121 O120 1.265 1_655 S
O122 Eu104 2.373 1_455 S
O122 C135 1.258 . S
O123 Eu105 2.392 1_545 S
O123 C135 1.242 . S
O124 Eu105 2.418 1_545 S
O124 C106 1.244 . S
O125 Eu104 2.488 . S
O125 C113 1.249 . S
O126 Eu104 2.471 . S
O126 C113 1.244 . S
O127 Eu104 2.349 1_455 S
O127 C106 1.265 . S
C128 C129 1.379 . S
C128 C132 1.373 . S
C128 C134 1.505 . S
C129 C128 1.379 . S
C129 C131 1.369 . S
C129 H140 0.930 . S
C130 C132 1.383 . S
C130 C133 1.382 . S
C130 H141 0.930 . S
C131 C129 1.369 . S
C131 C133 1.392 . S
C131 H142 0.913 1_455 S
C132 C128 1.373 . S
C132 C130 1.383 . S
C132 H143 0.931 . S
C133 C130 1.382 . S
C133 C131 1.392 . S
C134 Eu105 2.828 1_554 S
C134 O118 1.249 . S
C134 O119 1.244 1_554 S
C134 C128 1.505 . S
C135 O122 1.258 . S
C135 O123 1.242 . S
H136 C108 0.930 . S
H137 C109 0.930 . S
H138 C110 0.930 . S
H139 C111 0.931 . S
H140 C129 0.930 . S
H141 C130 0.930 . S
H142 C131 0.913 1_655 S
H143 C132 0.931 . S
Eu144 C153 2.828 1_556 S
Eu144 O155 2.392 . S
Eu144 O157 2.418 . S
Eu144 O162 2.373 . S
Eu144 O165 2.488 . S
Eu144 O166 2.471 1_556 S
Eu144 O167 2.349 1_545 S
Eu145 O154 2.373 1_565 S
Eu145 O158 2.488 . S
Eu145 O159 2.468 1_565 S
Eu145 O160 2.349 1_565 S
Eu145 O163 2.392 . S
Eu145 O164 2.418 . S
Eu145 C174 2.828 . S
C146 O164 1.244 . S
C146 O167 1.265 . S
C147 C148 1.379 . S
C147 C151 1.373 . S
C147 C153 1.505 . S
C148 C147 1.379 . S
C148 C150 1.369 . S
C148 H176 0.930 1_545 S
C149 C151 1.383 . S
C149 C152 1.382 . S
C149 H177 0.930 . S
C150 C148 1.369 . S
C150 C152 1.392 . S
C150 H178 0.930 1_545 S
C151 C147 1.373 . S
C151 C149 1.383 . S
C151 H179 0.931 . S
C152 C149 1.382 . S
C152 C150 1.392 . S
C153 Eu144 2.828 1_554 S
C153 C147 1.505 . S
C153 O165 1.249 1_554 S
C153 O166 1.244 . S
O154 Eu145 2.373 1_545 S
O154 C156 1.258 . S
O155 Eu144 2.392 . S
O155 C156 1.242 . S
C156 O154 1.258 . S
C156 O155 1.242 . S
O157 Eu144 2.418 . S
O157 C161 1.244 . S
O158 Eu145 2.488 . S
O158 C174 1.249 . S
O159 Eu145 2.468 1_545 S
O159 C174 1.237 1_545 S
O160 Eu145 2.349 1_545 S
O160 C161 1.265 . S
C161 O157 1.244 . S
C161 O160 1.265 . S
O162 Eu144 2.373 . S
O162 C175 1.258 1_545 S
O163 Eu145 2.392 . S
O163 C175 1.242 . S
O164 Eu145 2.418 . S
O164 C146 1.244 . S
O165 Eu144 2.488 . S
O165 C153 1.249 1_556 S
O166 Eu144 2.471 1_554 S
O166 C153 1.244 . S
O167 Eu144 2.349 1_565 S
O167 C146 1.265 . S
C168 C169 1.379 1_565 S
C168 C172 1.373 . S
C168 C174 1.505 . S
C169 C168 1.379 1_545 S
C169 C171 1.369 . S
C169 H180 0.930 . S
C170 C172 1.383 . S
C170 C173 1.382 . S
C170 H181 0.930 . S
C171 C169 1.369 . S
C171 C173 1.392 1_545 S
C171 H182 0.930 . S
C172 C168 1.373 . S
C172 C170 1.383 . S
C172 H183 0.931 . S
C173 C170 1.382 . S
C173 C171 1.392 1_565 S
C174 Eu145 2.828 . S
C174 O158 1.249 . S
C174 O159 1.237 1_565 S
C174 C168 1.505 . S
C175 O162 1.258 1_565 S
C175 O163 1.242 . S
H176 C148 0.930 1_565 S
H177 C149 0.930 . S
H178 C150 0.930 1_565 S
H179 C151 0.931 . S
H180 C169 0.930 . S
H181 C170 0.930 . S
H182 C171 0.930 . S
H183 C172 0.931 . S
Eu184 C193 2.828 1_556 S
Eu184 O195 2.392 . S
Eu184 O197 2.418 . S
Eu184 O202 2.373 . S
Eu184 O205 2.488 . S
Eu184 O206 2.471 1_556 S
Eu184 O207 2.349 . S
Eu185 O194 2.373 . S
Eu185 O198 2.488 . S
Eu185 O199 2.471 . S
Eu185 O200 2.349 . S
Eu185 O203 2.392 . S
Eu185 O204 2.418 . S
Eu185 C214 2.828 . S
C186 O204 1.244 . S
C186 O207 1.265 . S
C187 C188 1.379 . S
C187 C191 1.373 . S
C187 C193 1.505 . S
C188 C187 1.379 . S
C188 C190 1.369 . S
C188 H216 0.930 . S
C189 C191 1.383 . S
C189 C192 1.382 . S
C189 H217 0.930 . S
C190 C188 1.369 . S
C190 C192 1.392 . S
C190 H218 0.930 . S
C191 C187 1.373 . S
C191 C189 1.383 . S
C191 H219 0.931 . S
C192 C189 1.382 . S
C192 C190 1.392 . S
C193 Eu184 2.828 1_554 S
C193 C187 1.505 . S
C193 O205 1.249 1_554 S
C193 O206 1.244 . S
O194 Eu185 2.373 . S
O194 C196 1.258 . S
O195 Eu184 2.392 . S
O195 C196 1.242 . S
C196 O194 1.258 . S
C196 O195 1.242 . S
O197 Eu184 2.418 . S
O197 C201 1.244 . S
O198 Eu185 2.488 . S
O198 C214 1.249 . S
O199 Eu185 2.471 . S
O199 C214 1.244 . S
O200 Eu185 2.349 . S
O200 C201 1.265 . S
C201 O197 1.244 . S
C201 O200 1.265 . S
O202 Eu184 2.373 . S
O202 C215 1.258 . S
O203 Eu185 2.392 . S
O203 C215 1.242 . S
O204 Eu185 2.418 . S
O204 C186 1.244 . S
O205 Eu184 2.488 . S
O205 C193 1.249 1_556 S
O206 Eu184 2.471 1_554 S
O206 C193 1.244 . S
O207 Eu184 2.349 . S
O207 C186 1.265 . S
C208 C209 1.379 . S
C208 C212 1.373 . S
C208 C214 1.505 . S
C209 C208 1.379 . S
C209 C211 1.369 . S
C209 H220 0.930 . S
C210 C212 1.383 . S
C210 C213 1.382 . S
C210 H221 0.930 . S
C211 C209 1.369 . S
C211 C213 1.392 . S
C211 H222 0.930 . S
C212 C208 1.373 . S
C212 C210 1.383 . S
C212 H223 0.931 . S
C213 C210 1.382 . S
C213 C211 1.392 . S
C214 Eu185 2.828 . S
C214 O198 1.249 . S
C214 O199 1.244 . S
C214 C208 1.505 . S
C215 O202 1.258 . S
C215 O203 1.242 . S
H216 C188 0.930 . S
H217 C189 0.930 . S
H218 C190 0.930 . S
H219 C191 0.931 . S
H220 C209 0.930 . S
H221 C210 0.930 . S
H222 C211 0.930 . S
H223 C212 0.931 . S
Eu224 C233 2.828 . S
Eu224 O235 2.392 . S
Eu224 O237 2.418 1_455 S
Eu224 O242 2.373 . S
Eu224 O245 2.488 . S
Eu224 O246 2.471 . S
Eu224 O247 2.349 . S
Eu225 O234 2.373 . S
Eu225 O238 2.488 1_556 S
Eu225 O239 2.471 . S
Eu225 O240 2.349 . S
Eu225 O243 2.392 1_655 S
Eu225 O244 2.418 1_655 S
Eu225 C254 2.828 1_556 S
C226 O244 1.244 . S
C226 O247 1.265 . S
C227 C228 1.379 . S
C227 C231 1.373 . S
C227 C233 1.505 . S
C228 C227 1.379 . S
C228 C230 1.369 . S
C228 H256 0.930 . S
C229 C231 1.383 . S
C229 C232 1.382 . S
C229 H257 0.930 . S
C230 C228 1.369 . S
C230 C232 1.392 . S
C230 H258 0.930 . S
C231 C227 1.373 . S
C231 C229 1.383 . S
C231 H259 0.931 . S
C232 C229 1.382 . S
C232 C230 1.392 . S
C233 Eu224 2.828 . S
C233 C227 1.505 . S
C233 O245 1.249 . S
C233 O246 1.244 . S
O234 Eu225 2.373 . S
O234 C236 1.255 1_655 S
O235 Eu224 2.392 . S
O235 C236 1.252 . S
C236 O234 1.255 1_455 S
C236 O235 1.252 . S
O237 Eu224 2.418 1_655 S
O237 C241 1.244 . S
O238 Eu225 2.488 1_554 S
O238 C254 1.249 . S
O239 Eu225 2.471 . S
O239 C254 1.244 1_556 S
O240 Eu225 2.349 . S
O240 C241 1.265 . S
C241 O237 1.244 . S
C241 O240 1.265 . S
O242 Eu224 2.373 . S
O242 C255 1.258 . S
O243 Eu225 2.392 1_455 S
O243 C255 1.242 . S
O244 Eu225 2.418 1_455 S
O244 C226 1.244 . S
O245 Eu224 2.488 . S
O245 C233 1.249 . S
O246 Eu224 2.471 . S
O246 C233 1.244 . S
O247 Eu224 2.349 . S
O247 C226 1.265 . S
C248 C249 1.379 . S
C248 C252 1.373 . S
C248 C254 1.505 . S
C249 C248 1.379 . S
C249 C251 1.369 . S
C249 H260 0.930 . S
C250 C252 1.383 . S
C250 C253 1.382 . S
C250 H261 0.930 . S
C251 C249 1.369 . S
C251 C253 1.392 . S
C251 H262 0.930 . S
C252 C248 1.373 . S
C252 C250 1.383 . S
C252 H263 0.931 . S
C253 C250 1.382 . S
C253 C251 1.392 . S
C254 Eu225 2.828 1_554 S
C254 O238 1.249 . S
C254 O239 1.244 1_554 S
C254 C248 1.505 . S
C255 O242 1.258 . S
C255 O243 1.242 . S
H256 C228 0.930 . S
H257 C229 0.930 . S
H258 C230 0.930 . S
H259 C231 0.931 . S
H260 C249 0.930 . S
H261 C250 0.930 . S
H262 C251 0.930 . S
H263 C252 0.931 . S
C264 C265 1.387 1_565 S
C264 H268 0.950 . S
C264 C273 1.390 . S
C265 C264 1.387 1_545 S
C265 C267 1.387 . S
H266 C273 0.950 . S
C267 C265 1.387 . S
C267 C269 1.390 . S
C267 H271 0.950 . S
H268 C264 0.950 . S
C269 C267 1.390 . S
C269 C270 1.387 . S
C269 H272 0.950 . S
C270 C269 1.387 . S
C270 C273 1.387 1_545 S
H271 C267 0.950 . S
H272 C269 0.950 . S
C273 C264 1.390 . S
C273 H266 0.950 . S
C273 C270 1.387 1_565 S
C274 C275 1.387 . S
C274 H278 0.950 . S
C274 C283 1.390 . S
C275 C274 1.387 . S
C275 C277 1.387 . S
H276 C283 0.950 . S
C277 C275 1.387 . S
C277 C279 1.390 . S
C277 H281 0.950 . S
H278 C274 0.950 . S
C279 C277 1.390 . S
C279 C280 1.387 . S
C279 H282 0.950 . S
C280 C279 1.387 . S
C280 C283 1.387 . S
H281 C277 0.950 . S
H282 C279 0.950 . S
C283 C274 1.390 . S
C283 H276 0.950 . S
C283 C280 1.387 . S
C284 C285 1.387 . S
C284 H288 0.950 . S
C284 C293 1.390 . S
C285 C284 1.387 . S
C285 C287 1.387 . S
H286 C293 0.950 . S
C287 C285 1.387 . S
C287 C289 1.390 . S
C287 H291 0.950 . S
H288 C284 0.950 . S
C289 C287 1.390 . S
C289 C290 1.387 . S
C289 H292 0.950 . S
C290 C289 1.387 . S
C290 C293 1.387 . S
H291 C287 0.950 . S
H292 C289 0.950 . S
C293 C284 1.390 . S
C293 H286 0.950 . S
C293 C290 1.387 . S
C294 C295 1.387 . S
C294 H298 0.950 1_455 S
C294 C303 1.390 . S
C295 C294 1.387 . S
C295 C297 1.387 . S
H296 C303 0.950 1_655 S
C297 C295 1.387 . S
C297 C299 1.390 . S
C297 H301 0.950 . S
H298 C294 0.950 1_655 S
C299 C297 1.390 . S
C299 C300 1.387 . S
C299 H302 0.950 . S
C300 C299 1.387 . S
C300 C303 1.387 . S
H301 C297 0.950 . S
H302 C299 0.950 . S
C303 C294 1.390 . S
C303 H296 0.950 1_455 S
C303 C300 1.387 . S
C304 C305 1.387 . S
C304 H308 0.950 . S
C304 C313 1.390 . S
C305 C304 1.387 . S
C305 C307 1.387 1_565 S
H306 C313 0.950 . S
C307 C305 1.387 1_545 S
C307 C309 1.390 . S
C307 H311 0.950 . S
H308 C304 0.950 . S
C309 C307 1.390 . S
C309 C310 1.387 1_545 S
C309 H312 0.950 . S
C310 C309 1.387 1_565 S
C310 C313 1.387 . S
H311 C307 0.950 . S
H312 C309 0.950 . S
C313 C304 1.390 . S
C313 H306 0.950 . S
C313 C310 1.387 . S
C314 C315 1.387 . S
C314 H318 0.950 . S
C314 C323 1.390 . S
C315 C314 1.387 . S
C315 C317 1.387 . S
H316 C323 0.950 . S
C317 C315 1.387 . S
C317 C319 1.390 . S
C317 H321 0.950 . S
H318 C314 0.950 . S
C319 C317 1.390 . S
C319 C320 1.387 . S
C319 H322 0.950 . S
C320 C319 1.387 . S
C320 C323 1.387 . S
H321 C317 0.950 . S
H322 C319 0.950 . S
C323 C314 1.390 . S
C323 H316 0.950 . S
C323 C320 1.387 . S
C324 C325 1.387 . S
C324 H328 0.950 . S
C324 C333 1.390 . S
C325 C324 1.387 . S
C325 C327 1.387 . S
H326 C333 0.950 . S
C327 C325 1.387 . S
C327 C329 1.390 . S
C327 H331 0.950 . S
H328 C324 0.950 . S
C329 C327 1.390 . S
C329 C330 1.387 . S
C329 H332 0.950 . S
C330 C329 1.387 . S
C330 C333 1.387 . S
H331 C327 0.950 . S
H332 C329 0.950 . S
C333 C324 1.390 . S
C333 H326 0.950 . S
C333 C330 1.387 . S
C334 C335 1.387 . S
C334 H338 0.950 . S
C334 C343 1.390 . S
C335 C334 1.387 . S
C335 C337 1.387 1_655 S
H336 C343 0.950 . S
C337 C335 1.387 1_455 S
C337 C339 1.390 . S
C337 H341 0.950 . S
H338 C334 0.950 . S
C339 C337 1.390 . S
C339 C340 1.387 1_455 S
C339 H342 0.950 . S
C340 C339 1.387 1_655 S
C340 C343 1.387 . S
H341 C337 0.950 . S
H342 C339 0.950 . S
C343 C334 1.390 . S
C343 H336 0.950 . S
C343 C340 1.387 . S
C344 C345 1.387 . S
C344 H348 0.950 . S
C344 C353 1.390 . S
C345 C344 1.387 . S
C345 C347 1.387 . S
H346 C353 0.950 . S
C347 C345 1.387 . S
C347 C349 1.390 . S
C347 H351 0.950 1_554 S
H348 C344 0.950 . S
C349 C347 1.390 . S
C349 C350 1.387 1_455 S
C349 H352 0.950 1_454 S
C350 C349 1.387 1_655 S
C350 C353 1.387 1_655 S
H351 C347 0.950 1_556 S
H352 C349 0.950 1_656 S
C353 C344 1.390 . S
C353 H346 0.950 . S
C353 C350 1.387 1_455 S
C354 C355 1.387 1_565 S
C354 H358 0.950 . S
C354 C363 1.390 . S
C355 C354 1.387 1_545 S
C355 C357 1.387 . S
H356 C363 0.950 . S
C357 C355 1.387 . S
C357 C359 1.390 . S
C357 H361 0.950 . S
H358 C354 0.950 . S
C359 C357 1.390 . S
C359 C360 1.387 1_545 S
C359 H362 0.950 . S
C360 C359 1.387 1_565 S
C360 C363 1.387 . S
H361 C357 0.950 . S
H362 C359 0.950 . S
C363 C354 1.390 . S
C363 H356 0.950 . S
C363 C360 1.387 . S
C364 C365 1.387 . S
C364 H368 0.950 . S
C364 C373 1.390 . S
C365 C364 1.387 . S
C365 C367 1.387 . S
H366 C373 0.950 . S
C367 C365 1.387 . S
C367 C369 1.390 . S
C367 H371 0.950 . S
H368 C364 0.950 . S
C369 C367 1.390 . S
C369 C370 1.387 . S
C369 H372 0.950 . S
C370 C369 1.387 . S
C370 C373 1.387 . S
H371 C367 0.950 . S
H372 C369 0.950 . S
C373 C364 1.390 . S
C373 H366 0.950 . S
C373 C370 1.387 . S
C374 C375 1.387 . S
C374 H378 0.950 . S
C374 C383 1.390 . S
C375 C374 1.387 . S
C375 C377 1.387 . S
H376 C383 0.950 . S
C377 C375 1.387 . S
C377 C379 1.390 . S
C377 H381 0.950 1_554 S
H378 C374 0.950 . S
C379 C377 1.390 . S
C379 C380 1.387 . S
C379 H382 0.950 1_554 S
C380 C379 1.387 . S
C380 C383 1.387 . S
H381 C377 0.950 1_556 S
H382 C379 0.950 1_556 S
C383 C374 1.390 . S
C383 H376 0.950 . S
C383 C380 1.387 . S
C384 C385 1.387 1_455 S
C384 H388 0.950 . S
C384 C393 1.390 . S
C385 C384 1.387 1_655 S
C385 C387 1.387 . S
H386 C393 0.950 . S
C387 C385 1.387 . S
C387 C389 1.390 1_655 S
C387 H391 0.950 . S
H388 C384 0.950 . S
C389 C387 1.390 1_455 S
C389 C390 1.387 . S
C389 H392 0.950 . S
C390 C389 1.387 . S
C390 C393 1.387 . S
H391 C387 0.950 . S
H392 C389 0.950 . S
C393 C384 1.390 . S
C393 H386 0.950 . S
C393 C390 1.387 . S
C394 C395 1.387 1_545 S
C394 H398 0.950 . S
C394 C403 1.390 . S
C395 C394 1.387 1_565 S
C395 C397 1.387 1_565 S
H396 C403 0.950 . S
C397 C395 1.387 1_545 S
C397 C399 1.390 . S
C397 H401 0.950 1_545 S
H398 C394 0.950 . S
C399 C397 1.390 . S
C399 C400 1.387 . S
C399 H402 0.950 . S
C400 C399 1.387 . S
C400 C403 1.387 . S
H401 C397 0.950 1_565 S
H402 C399 0.950 . S
C403 C394 1.390 . S
C403 H396 0.950 . S
C403 C400 1.387 . S
C404 C405 1.387 . S
C404 H408 0.950 . S
C404 C413 1.390 . S
C405 C404 1.387 . S
C405 C407 1.387 . S
H406 C413 0.950 . S
C407 C405 1.387 . S
C407 C409 1.390 . S
C407 H411 0.950 . S
H408 C404 0.950 . S
C409 C407 1.390 . S
C409 C410 1.387 . S
C409 H412 0.950 . S
C410 C409 1.387 . S
C410 C413 1.387 . S
H411 C407 0.950 . S
H412 C409 0.950 . S
C413 C404 1.390 . S
C413 H406 0.950 . S
C413 C410 1.387 . S
C414 C415 1.387 . S
C414 H418 0.950 . S
C414 C423 1.390 . S
C415 C414 1.387 . S
C415 C417 1.387 . S
H416 C423 0.950 . S
C417 C415 1.387 . S
C417 C419 1.390 . S
C417 H421 0.950 . S
H418 C414 0.950 . S
C419 C417 1.390 . S
C419 C420 1.387 . S
C419 H422 0.950 . S
C420 C419 1.387 . S
C420 C423 1.387 . S
H421 C417 0.950 . S
H422 C419 0.950 . S
C423 C414 1.390 . S
C423 H416 0.950 . S
C423 C420 1.387 . S
C424 C425 1.387 . S
C424 H428 0.950 . S
C424 C433 1.390 . S
C425 C424 1.387 . S
C425 C427 1.387 1_556 S
H426 C433 0.950 . S
C427 C425 1.387 1_554 S
C427 C429 1.390 . S
C427 H431 0.950 . S
H428 C424 0.950 . S
C429 C427 1.390 . S
C429 C430 1.387 1_554 S
C429 H432 0.950 . S
C430 C429 1.387 1_556 S
C430 C433 1.387 . S
H431 C427 0.950 . S
H432 C429 0.950 . S
C433 C424 1.390 . S
C433 H426 0.950 . S
C433 C430 1.387 . S
C434 C435 1.387 . S
C434 H438 0.950 1_545 S
C434 C443 1.390 . S
C435 C434 1.387 . S
C435 C437 1.387 . S
H436 C443 0.946 1_565 S
C437 C435 1.387 . S
C437 C439 1.390 . S
C437 H441 0.950 1_556 S
H438 C434 0.950 1_565 S
C439 C437 1.390 . S
C439 C440 1.387 . S
C439 H442 0.950 1_556 S
C440 C439 1.387 . S
C440 C443 1.387 . S
H441 C437 0.950 1_554 S
H442 C439 0.950 1_554 S
C443 C434 1.390 . S
C443 H436 0.946 1_545 S
C443 C440 1.387 . S
C444 C445 1.387 1_554 S
C444 H448 0.950 . S
C444 C453 1.390 . S
C445 C444 1.387 1_556 S
C445 C447 1.387 . S
H446 C453 0.950 . S
C447 C445 1.387 . S
C447 C449 1.390 . S
C447 H451 0.950 . S
H448 C444 0.950 . S
C449 C447 1.390 . S
C449 C450 1.387 . S
C449 H452 0.950 . S
C450 C449 1.387 . S
C450 C453 1.387 1_556 S
H451 C447 0.950 . S
H452 C449 0.950 . S
C453 C444 1.390 . S
C453 H446 0.950 . S
C453 C450 1.387 1_554 S
C454 C455 1.387 . S
C454 H458 0.950 1_556 S
C454 C463 1.390 . S
C455 C454 1.387 . S
C455 C457 1.387 . S
H456 C463 0.950 1_554 S
C457 C455 1.387 . S
C457 C459 1.390 . S
C457 H461 0.950 . S
H458 C454 0.950 1_554 S
C459 C457 1.390 . S
C459 C460 1.387 . S
C459 H462 0.950 . S
C460 C459 1.387 . S
C460 C463 1.387 . S
H461 C457 0.950 . S
H462 C459 0.950 . S
C463 C454 1.390 . S
C463 H456 0.950 1_556 S
C463 C460 1.387 . S
C464 C465 1.387 . S
C464 H468 0.950 . S
C464 C473 1.390 . S
C465 C464 1.387 . S
C465 C467 1.387 . S
H466 C473 0.950 . S
C467 C465 1.387 . S
C467 C469 1.390 . S
C467 H471 0.950 . S
H468 C464 0.950 . S
C469 C467 1.390 . S
C469 C470 1.387 . S
C469 H472 0.950 . S
C470 C469 1.387 . S
C470 C473 1.387 . S
H471 C467 0.950 . S
H472 C469 0.950 . S
C473 C464 1.390 . S
C473 H466 0.950 . S
C473 C470 1.387 . S
C474 C475 1.387 1_545 S
C474 H478 0.950 . S
C474 C483 1.390 . S
C475 C474 1.387 1_565 S
C475 C477 1.387 . S
H476 C483 0.950 . S
C477 C475 1.387 . S
C477 C479 1.390 . S
C477 H481 0.950 . S
H478 C474 0.950 . S
C479 C477 1.390 . S
C479 C480 1.387 . S
C479 H482 0.950 . S
C480 C479 1.387 . S
C480 C483 1.387 1_565 S
H481 C477 0.950 . S
H482 C479 0.950 . S
C483 C474 1.390 . S
C483 H476 0.950 . S
C483 C480 1.387 1_545 S
C484 C485 1.387 . S
C484 H488 0.950 . S
C484 C493 1.390 . S
C485 C484 1.387 . S
C485 C487 1.387 . S
H486 C493 0.950 . S
C487 C485 1.387 . S
C487 C489 1.390 . S
C487 H491 0.950 . S
H488 C484 0.950 . S
C489 C487 1.390 . S
C489 C490 1.387 . S
C489 H492 0.950 . S
C490 C489 1.387 . S
C490 C493 1.387 . S
H491 C487 0.950 . S
H492 C489 0.950 . S
C493 C484 1.390 . S
C493 H486 0.950 . S
C493 C490 1.387 . S
C494 C495 1.387 . S
C494 H498 0.950 . S
C494 C503 1.390 . S
C495 C494 1.387 . S
C495 C497 1.387 . S
H496 C503 0.950 . S
C497 C495 1.387 . S
C497 C499 1.390 . S
C497 H501 0.950 . S
H498 C494 0.950 . S
C499 C497 1.390 . S
C499 C500 1.387 . S
C499 H502 0.950 . S
C500 C499 1.387 . S
C500 C503 1.387 . S
H501 C497 0.950 . S
H502 C499 0.950 . S
C503 C494 1.390 . S
C503 H496 0.950 . S
C503 C500 1.387 . S
C265 N80 2.249 . S
C270 C135 2.420 . S
C280 C161 2.180 . S
C275 N93 1.979 . S
C290 C201 2.189 . S
C285 N54 2.016 . S
C300 C255 2.422 . S
C295 N67 2.268 . S
C310 C116 2.419 1_564 S
C305 N28 2.251 . S
C315 N41 1.973 . S
C320 C146 2.180 1_554 S
C325 N2 2.017 . S
C330 C186 2.189 1_554 S
C335 N15 2.274 . S
C340 C236 2.417 1_654 S
C350 C112 0.907 . S
C345 N70 0.951 . S
C360 C173 0.887 . S
C355 N83 0.881 . S
C370 C213 0.767 . S
C365 N96 0.769 . S
C375 N57 0.866 . S
C380 C232 0.835 . S
C385 N18 0.954 . S
C390 C133 0.906 . S
C400 C152 0.893 . S
C395 N31 0.892 . S
C410 C192 0.773 . S
C405 N44 0.774 . S
C415 N5 0.865 . S
C420 C253 0.831 . S
C425 N66 2.211 . S
C430 C106 2.377 . S
C435 N79 2.559 . S
C440 C156 2.669 . S
C450 C196 2.522 . S
C445 N92 2.426 1_556 S
C460 C226 2.216 . S
C455 N53 2.071 1_556 S
C465 N14 2.217 . S
C470 C121 2.378 . S
C480 C175 2.669 . S
C475 N27 2.557 . S
C490 C215 2.523 . S
C485 N40 2.405 . S
C495 N1 2.067 . S
C500 C241 2.215 . S
