# Generated by pormake.
# Topology ctn, (3,4)-cn, num edge types: 1
# Building blocks:
#     Node 0, Type 0, BuildingBlock: KAKCAD_clean_linker_0, # of connection points: 3
#     Node 1, Type 0, BuildingBlock: KAKCAD_clean_linker_0, # of connection points: 3
#     Node 2, Type 0, BuildingBlock: KAKCAD_clean_linker_0, # of connection points: 3
#     Node 3, Type 0, BuildingBlock: KAKCAD_clean_linker_0, # of connection points: 3
#     Node 4, Type 0, BuildingBlock: KAKCAD_clean_linker_0, # of connection points: 3
#     Node 5, Type 0, BuildingBlock: KAKCAD_clean_linker_0, # of connection points: 3
#     Node 6, Type 0, BuildingBlock: KAKCAD_clean_linker_0, # of connection points: 3
#     Node 7, Type 0, BuildingBlock: KAKCAD_clean_linker_0, # of connection points: 3
#     Node 8, Type 0, BuildingBlock: KAKCAD_clean_linker_0, # of connection points: 3
#     Node 9, Type 0, BuildingBlock: KAKCAD_clean_linker_0, # of connection points: 3
#     Node 10, Type 0, BuildingBlock: KAKCAD_clean_linker_0, # of connection points: 3
#     Node 11, Type 0, BuildingBlock: KAKCAD_clean_linker_0, # of connection points: 3
#     Node 12, Type 0, BuildingBlock: KAKCAD_clean_linker_0, # of connection points: 3
#     Node 13, Type 0, BuildingBlock: KAKCAD_clean_linker_0, # of connection points: 3
#     Node 14, Type 0, BuildingBlock: KAKCAD_clean_linker_0, # of connection points: 3
#     Node 15, Type 0, BuildingBlock: KAKCAD_clean_linker_0, # of connection points: 3
#     Node 16, Type 1, BuildingBlock: UXUYUI_clean_sbu_0, # of connection points: 4
#     Node 17, Type 1, BuildingBlock: UXUYUI_clean_sbu_0, # of connection points: 4
#     Node 18, Type 1, BuildingBlock: UXUYUI_clean_sbu_0, # of connection points: 4
#     Node 19, Type 1, BuildingBlock: UXUYUI_clean_sbu_0, # of connection points: 4
#     Node 20, Type 1, BuildingBlock: UXUYUI_clean_sbu_0, # of connection points: 4
#     Node 21, Type 1, BuildingBlock: UXUYUI_clean_sbu_0, # of connection points: 4
#     Node 22, Type 1, BuildingBlock: UXUYUI_clean_sbu_0, # of connection points: 4
#     Node 23, Type 1, BuildingBlock: UXUYUI_clean_sbu_0, # of connection points: 4
#     Node 24, Type 1, BuildingBlock: UXUYUI_clean_sbu_0, # of connection points: 4
#     Node 25, Type 1, BuildingBlock: UXUYUI_clean_sbu_0, # of connection points: 4
#     Node 26, Type 1, BuildingBlock: UXUYUI_clean_sbu_0, # of connection points: 4
#     Node 27, Type 1, BuildingBlock: UXUYUI_clean_sbu_0, # of connection points: 4
#     Edge 28, Type (0, 1), BuildingBlock: XUDNAN_clean_linker_2, # of connection points: 2
#     Edge 29, Type (0, 1), BuildingBlock: XUDNAN_clean_linker_2, # of connection points: 2
#     Edge 30, Type (0, 1), BuildingBlock: XUDNAN_clean_linker_2, # of connection points: 2
#     Edge 31, Type (0, 1), BuildingBlock: XUDNAN_clean_linker_2, # of connection points: 2
#     Edge 32, Type (0, 1), BuildingBlock: XUDNAN_clean_linker_2, # of connection points: 2
#     Edge 33, Type (0, 1), BuildingBlock: XUDNAN_clean_linker_2, # of connection points: 2
#     Edge 34, Type (0, 1), BuildingBlock: XUDNAN_clean_linker_2, # of connection points: 2
#     Edge 35, Type (0, 1), BuildingBlock: XUDNAN_clean_linker_2, # of connection points: 2
#     Edge 36, Type (0, 1), BuildingBlock: XUDNAN_clean_linker_2, # of connection points: 2
#     Edge 37, Type (0, 1), BuildingBlock: XUDNAN_clean_linker_2, # of connection points: 2
#     Edge 38, Type (0, 1), BuildingBlock: XUDNAN_clean_linker_2, # of connection points: 2
#     Edge 39, Type (0, 1), BuildingBlock: XUDNAN_clean_linker_2, # of connection points: 2
#     Edge 40, Type (0, 1), BuildingBlock: XUDNAN_clean_linker_2, # of connection points: 2
#     Edge 41, Type (0, 1), BuildingBlock: XUDNAN_clean_linker_2, # of connection points: 2
#     Edge 42, Type (0, 1), BuildingBlock: XUDNAN_clean_linker_2, # of connection points: 2
#     Edge 43, Type (0, 1), BuildingBlock: XUDNAN_clean_linker_2, # of connection points: 2
#     Edge 44, Type (0, 1), BuildingBlock: XUDNAN_clean_linker_2, # of connection points: 2
#     Edge 45, Type (0, 1), BuildingBlock: XUDNAN_clean_linker_2, # of connection points: 2
#     Edge 46, Type (0, 1), BuildingBlock: XUDNAN_clean_linker_2, # of connection points: 2
#     Edge 47, Type (0, 1), BuildingBlock: XUDNAN_clean_linker_2, # of connection points: 2
#     Edge 48, Type (0, 1), BuildingBlock: XUDNAN_clean_linker_2, # of connection points: 2
#     Edge 49, Type (0, 1), BuildingBlock: XUDNAN_clean_linker_2, # of connection points: 2
#     Edge 50, Type (0, 1), BuildingBlock: XUDNAN_clean_linker_2, # of connection points: 2
#     Edge 51, Type (0, 1), BuildingBlock: XUDNAN_clean_linker_2, # of connection points: 2
#     Edge 52, Type (0, 1), BuildingBlock: XUDNAN_clean_linker_2, # of connection points: 2
#     Edge 53, Type (0, 1), BuildingBlock: XUDNAN_clean_linker_2, # of connection points: 2
#     Edge 54, Type (0, 1), BuildingBlock: XUDNAN_clean_linker_2, # of connection points: 2
#     Edge 55, Type (0, 1), BuildingBlock: XUDNAN_clean_linker_2, # of connection points: 2
#     Edge 56, Type (0, 1), BuildingBlock: XUDNAN_clean_linker_2, # of connection points: 2
#     Edge 57, Type (0, 1), BuildingBlock: XUDNAN_clean_linker_2, # of connection points: 2
#     Edge 58, Type (0, 1), BuildingBlock: XUDNAN_clean_linker_2, # of connection points: 2
#     Edge 59, Type (0, 1), BuildingBlock: XUDNAN_clean_linker_2, # of connection points: 2
#     Edge 60, Type (0, 1), BuildingBlock: XUDNAN_clean_linker_2, # of connection points: 2
#     Edge 61, Type (0, 1), BuildingBlock: XUDNAN_clean_linker_2, # of connection points: 2
#     Edge 62, Type (0, 1), BuildingBlock: XUDNAN_clean_linker_2, # of connection points: 2
#     Edge 63, Type (0, 1), BuildingBlock: XUDNAN_clean_linker_2, # of connection points: 2
#     Edge 64, Type (0, 1), BuildingBlock: XUDNAN_clean_linker_2, # of connection points: 2
#     Edge 65, Type (0, 1), BuildingBlock: XUDNAN_clean_linker_2, # of connection points: 2
#     Edge 66, Type (0, 1), BuildingBlock: XUDNAN_clean_linker_2, # of connection points: 2
#     Edge 67, Type (0, 1), BuildingBlock: XUDNAN_clean_linker_2, # of connection points: 2
#     Edge 68, Type (0, 1), BuildingBlock: XUDNAN_clean_linker_2, # of connection points: 2
#     Edge 69, Type (0, 1), BuildingBlock: XUDNAN_clean_linker_2, # of connection points: 2
#     Edge 70, Type (0, 1), BuildingBlock: XUDNAN_clean_linker_2, # of connection points: 2
#     Edge 71, Type (0, 1), BuildingBlock: XUDNAN_clean_linker_2, # of connection points: 2
#     Edge 72, Type (0, 1), BuildingBlock: XUDNAN_clean_linker_2, # of connection points: 2
#     Edge 73, Type (0, 1), BuildingBlock: XUDNAN_clean_linker_2, # of connection points: 2
#     Edge 74, Type (0, 1), BuildingBlock: XUDNAN_clean_linker_2, # of connection points: 2
#     Edge 75, Type (0, 1), BuildingBlock: XUDNAN_clean_linker_2, # of connection points: 2
# Relax obj value: 0.000
# Max RMSD: 0.005
# Mean RMSD: 0.004
data_MOF--net-ctn--node1-UXUYUI_clean_sbu_0--node2-KAKCAD_clean_linker_0--edge1-XUDNAN_clean_linker_2
_symmetry_space_group_name_H-M    P1
_symmetry_Int_Tables_number       1
_symmetry_cell_setting            triclinic
loop_
_symmetry_equiv_pos_as_xyz
'x, y, z'
_cell_length_a     80.758726
_cell_length_b     80.727903
_cell_length_c     80.698909
_cell_angle_alpha  90.093558
_cell_angle_beta   90.28578
_cell_angle_gamma 90.224995
loop_
_atom_site_label
_atom_site_type_symbol
_atom_site_fract_x
_atom_site_fract_y
_atom_site_fract_z
_atom_type_partial_charge
C0 C 0.03384 0.08026 0.98994 0.0
C1 C 0.02868 0.09608 0.99504 0.0
C2 C 0.03809 0.06817 1.00157 0.0
C3 C 0.03727 0.07153 0.01865 0.0
C4 C 0.03221 0.08738 0.0238 0.0
C5 C 0.02804 0.09955 0.01212 0.0
C6 C 0.04152 0.0584 0.03095 0.0
C7 C 0.05517 0.04798 0.02825 0.0
C8 C 0.05882 0.03494 0.03917 0.0
C9 C 0.04873 0.0325 0.0531 0.0
C10 C 0.03479 0.04255 0.05594 0.0
C11 C 0.03144 0.05563 0.04487 0.0
C12 C 0.02306 0.03855 0.06968 0.0
C13 C 0.01927 0.02196 0.07343 0.0
C14 C 0.01512 0.05112 0.07875 0.0
C15 C 1.0035 0.04717 0.09102 0.0
C16 C 0.99951 0.03055 0.09449 0.0
C17 C 0.07238 0.02309 0.03535 0.0
C18 C 0.07389 0.01649 0.0193 0.0
C19 C 0.08339 0.01768 0.04777 0.0
C20 C 0.09546 0.00576 0.04425 0.0
C21 C 0.0966 0.99881 0.02831 0.0
C22 C 0.08579 0.00445 0.01585 0.0
C23 C 0.00776 0.01803 0.08568 0.0
H24 H 0.03466 0.07721 0.9769 0.0
H25 H 0.04176 0.05606 0.99715 0.0
H26 H 0.03155 0.0904 0.03686 0.0
H27 H 0.02401 0.11157 0.01647 0.0
H28 H 0.06303 0.05001 0.01758 0.0
H29 H 0.02049 0.06313 0.04659 0.0
H30 H 0.05145 0.02237 0.06145 0.0
H31 H 0.02489 0.0119 0.0666 0.0
H32 H 0.01784 0.06404 0.07634 0.0
H33 H 0.99734 0.05716 0.09747 0.0
H34 H 0.06552 0.02026 0.00949 0.0
H35 H 0.08259 0.02261 0.06023 0.0
H36 H 0.00525 0.00508 0.08818 0.0
H37 H 0.08646 0.99944 1.00341 0.0
H38 H 0.10357 1.00159 0.05413 0.0
C39 C 0.34285 0.74447 0.24861 0.0
C40 C 0.3517 0.73156 0.25617 0.0
C41 C 0.32868 0.74116 0.23913 0.0
C42 C 0.32306 0.72479 0.23673 0.0
C43 C 0.33159 0.7119 0.24481 0.0
C44 C 0.34571 0.71526 0.25449 0.0
C45 C 0.30888 0.72127 0.22522 0.0
C46 C 0.30711 0.73053 0.21052 0.0
C47 C 0.29403 0.72744 0.19938 0.0
C48 C 0.28259 0.71486 0.20306 0.0
C49 C 0.28398 0.7054 0.21765 0.0
C50 C 0.29724 0.70865 0.22863 0.0
C51 C 0.27155 0.69211 0.22108 0.0
C52 C 0.25469 0.69479 0.21757 0.0
C53 C 0.27641 0.67642 0.22689 0.0
C54 C 0.26479 0.66351 0.22835 0.0
C55 C 0.2481 0.66602 0.22398 0.0
C56 C 0.2925 0.73714 0.18373 0.0
C57 C 0.29482 0.75443 0.18366 0.0
C58 C 0.28876 0.72913 0.16868 0.0
C59 C 0.28752 0.73812 0.15393 0.0
C60 C 0.28994 0.75539 0.15382 0.0
C61 C 0.29348 0.76346 0.1689 0.0
C62 C 0.24316 0.68193 0.21897 0.0
H63 H 0.34697 0.75719 0.24993 0.0
H64 H 0.32223 0.75147 0.23353 0.0
H65 H 0.32775 0.69913 0.24319 0.0
H66 H 0.35232 0.70504 0.26011 0.0
H67 H 0.31626 0.73985 0.20741 0.0
H68 H 0.29825 0.70161 0.24001 0.0
H69 H 0.27254 0.71237 0.19445 0.0
H70 H 0.25041 0.70681 0.21348 0.0
H71 H 0.28929 0.67391 0.22964 0.0
H72 H 0.26901 0.65139 0.23221 0.0
H73 H 0.29757 0.761 0.19507 0.0
H74 H 0.28703 0.71582 0.16824 0.0
H75 H 0.23033 0.6844 0.21587 0.0
H76 H 0.29552 0.77673 0.16923 0.0
H77 H 0.2846 0.73153 0.14258 0.0
C78 C 0.98526 0.47905 0.1076 0.0
C79 C 1.00233 0.47566 0.10853 0.0
C80 C 0.97647 0.47689 0.09276 0.0
C81 C 0.98449 0.47136 0.07835 0.0
C82 C 1.00164 0.46832 0.07917 0.0
C83 C 0.01043 0.47042 0.09405 0.0
C84 C 0.97491 0.4684 0.0627 0.0
C85 C 0.96194 0.47907 0.058 0.0
C86 C 0.95246 0.47609 0.04357 0.0
C87 C 0.95625 0.46217 0.03372 0.0
C88 C 0.96941 0.4516 0.03794 0.0
C89 C 0.97855 0.45476 0.0525 0.0
C90 C 0.97388 0.43736 0.02706 0.0
C91 C 0.96166 0.42674 0.02044 0.0
C92 C 0.99055 0.43424 0.02331 0.0
C93 C 0.99495 0.42071 0.01346 0.0
C94 C 0.98282 0.40978 0.00718 0.0
C95 C 0.93895 0.48776 0.03857 0.0
C96 C 0.92905 0.49564 0.05053 0.0
C97 C 0.93605 0.4914 0.02176 0.0
C98 C 0.92379 0.50266 0.01706 0.0
C99 C 0.91417 0.51088 0.02902 0.0
C100 C 0.91688 0.50708 0.04583 0.0
C101 C 0.96608 0.41308 0.01065 0.0
H102 H 0.97862 0.48338 0.11838 0.0
H103 H 0.96328 0.47923 0.0927 0.0
H104 H 0.00832 0.46428 0.06829 0.0
H105 H 0.02352 0.46757 0.09427 0.0
H106 H 0.95953 0.48999 0.0654 0.0
H107 H 0.9883 0.44628 0.05608 0.0
H108 H 0.94909 0.45962 0.02262 0.0
H109 H 0.9487 0.42874 0.02317 0.0
H110 H 1.00024 0.44237 0.02792 0.0
H111 H 0.00793 0.41887 0.01074 0.0
H112 H 0.93067 0.49301 0.06359 0.0
H113 H 0.94349 0.4858 0.01215 0.0
H114 H 0.9564 0.40488 0.00618 0.0
H115 H 0.90987 0.5132 0.05544 0.0
H116 H 0.9219 0.50493 0.00397 0.0
C117 C 0.70415 0.74971 0.17012 0.0
C118 C 0.71961 0.74616 0.16308 0.0
C119 C 0.70267 0.76182 0.18246 0.0
C120 C 0.71669 0.7705 0.18836 0.0
C121 C 0.73215 0.76701 0.18111 0.0
C122 C 0.73356 0.75511 0.16852 0.0
C123 C 0.71524 0.78284 0.20222 0.0
C124 C 0.70365 0.78045 0.21501 0.0
C125 C 0.70223 0.79186 0.22812 0.0
C126 C 0.71305 0.80558 0.22866 0.0
C127 C 0.72482 0.80831 0.21611 0.0
C128 C 0.72554 0.79697 0.20281 0.0
C129 C 0.73632 0.82298 0.21683 0.0
C130 C 0.73132 0.83814 0.22393 0.0
C131 C 0.75248 0.82197 0.21037 0.0
C132 C 0.76307 0.83574 0.21058 0.0
C133 C 0.75798 0.85077 0.21761 0.0
C134 C 0.68926 0.78961 0.24113 0.0
C135 C 0.67321 0.78411 0.23688 0.0
C136 C 0.69263 0.79346 0.25783 0.0
C137 C 0.68021 0.79234 0.26981 0.0
C138 C 0.66408 0.78724 0.26548 0.0
C139 C 0.6608 0.78289 0.2489 0.0
C140 C 0.74209 0.8518 0.22447 0.0
H141 H 0.69315 0.74313 0.16602 0.0
H142 H 0.69048 0.76435 0.18734 0.0
H143 H 0.74331 0.77316 0.18541 0.0
H144 H 0.74566 0.75251 0.16343 0.0
H145 H 0.69591 0.76947 0.21501 0.0
H146 H 0.73394 0.79933 0.19267 0.0
H147 H 0.71221 0.8142 0.2389 0.0
H148 H 0.71894 0.83967 0.22876 0.0
H149 H 0.75707 0.8105 0.20519 0.0
H150 H 0.77532 0.83463 0.20528 0.0
H151 H 0.67007 0.78121 0.22413 0.0
H152 H 0.7049 0.79738 0.26168 0.0
H153 H 0.73782 0.86334 0.22979 0.0
H154 H 0.64848 0.77908 0.2451 0.0
H155 H 0.68325 0.79549 0.28252 0.0
C156 C 0.99235 0.9687 0.42585 0.0
C157 C 0.9978 0.97278 0.40987 0.0
C158 C 1.00354 0.96755 0.43904 0.0
C159 C 0.02059 0.97025 0.43661 0.0
C160 C 0.02599 0.97508 0.42076 0.0
C161 C 0.01469 0.97638 0.40752 0.0
C162 C 0.03255 0.96725 0.45049 0.0
C163 C 0.02998 0.9538 0.46126 0.0
C164 C 0.04046 0.95096 0.47489 0.0
C165 C 0.05399 0.96164 0.47758 0.0
C166 C 0.05693 0.97519 0.46697 0.0
C167 C 0.04621 0.9778 0.45336 0.0
C168 C 0.07059 0.98714 0.47072 0.0
C169 C 0.07307 0.99289 0.48701 0.0
C170 C 0.08099 0.99317 0.45813 0.0
C171 C 0.09349 0.00478 0.46175 0.0
C172 C 0.09568 0.01078 0.47799 0.0
C173 C 0.03676 0.93709 0.48647 0.0
C174 C 0.02046 0.93449 0.49192 0.0
C175 C 0.04916 0.92606 0.4917 0.0
C176 C 0.04518 0.91232 0.50159 0.0
C177 C 0.02871 0.9094 0.50653 0.0
C178 C 0.01651 0.9209 0.50185 0.0
C179 C 0.0854 0.00459 0.49058 0.0
H180 H 0.97937 0.96619 0.42813 0.0
H181 H 0.99882 0.9643 0.45115 0.0
H182 H 0.03901 0.97724 0.41842 0.0
H183 H 0.01926 0.97952 0.39532 0.0
H184 H 0.01979 0.94531 0.45894 0.0
H185 H 0.04811 0.98845 0.44542 0.0
H186 H 0.06207 0.95956 0.48813 0.0
H187 H 0.06519 0.98864 0.49697 0.0
H188 H 0.07946 0.9889 0.44548 0.0
H189 H 0.10115 0.00938 0.45178 0.0
H190 H 0.01069 0.94296 0.48841 0.0
H191 H 0.06183 0.92772 0.48767 0.0
H192 H 0.08685 0.00886 0.50324 0.0
H193 H 1.0038 0.91937 0.50578 0.0
H194 H 0.05489 0.9037 0.50489 0.0
C195 C 0.1644 0.70165 0.75807 0.0
C196 C 0.16004 0.71696 0.75096 0.0
C197 C 0.17769 0.70049 0.76916 0.0
C198 C 0.18691 0.71461 0.77362 0.0
C199 C 0.18222 0.73004 0.76705 0.0
C200 C 0.16897 0.7312 0.7558 0.0
C201 C 0.20165 0.71304 0.78469 0.0
C202 C 0.21316 0.70027 0.78198 0.0
C203 C 0.22708 0.69839 0.79233 0.0
C204 C 0.2293 0.70954 0.80558 0.0
C205 C 0.21796 0.7224 0.80863 0.0
C206 C 0.20419 0.7241 0.79799 0.0
C207 C 0.22072 0.73392 0.82296 0.0
C208 C 0.22771 0.72801 0.83785 0.0
C209 C 0.21718 0.75096 0.82172 0.0
C210 C 0.22117 0.76184 0.83474 0.0
C211 C 0.22898 0.75594 0.84915 0.0
C212 C 0.2392 0.68467 0.78961 0.0
C213 C 0.23388 0.66878 0.78456 0.0
C214 C 0.25619 0.68717 0.79276 0.0
C215 C 0.26737 0.67404 0.79174 0.0
C216 C 0.26194 0.6581 0.78725 0.0
C217 C 0.24515 0.65567 0.78328 0.0
C218 C 0.23195 0.7389 0.85067 0.0
H219 H 0.15758 0.69048 0.75502 0.0
H220 H 0.18078 0.68848 0.77425 0.0
H221 H 0.18914 0.74114 0.7702 0.0
H222 H 0.16609 0.74317 0.75052 0.0
H223 H 0.21144 0.692 0.77152 0.0
H224 H 0.19517 0.73371 0.80031 0.0
H225 H 0.23996 0.70817 0.81363 0.0
H226 H 0.23015 0.71495 0.83956 0.0
H227 H 0.21191 0.75602 0.81047 0.0
H228 H 0.21882 0.77496 0.83327 0.0
H229 H 0.2209 0.66629 0.78216 0.0
H230 H 0.2609 0.69928 0.79621 0.0
H231 H 0.23777 0.73402 0.86175 0.0
H232 H 0.24063 0.64347 0.77988 0.0
H233 H 0.2803 0.67631 0.79463 0.0
C234 C 0.97736 0.60004 0.49727 0.0
C235 C 0.97298 0.59726 0.5139 0.0
C236 C 0.97635 0.58718 0.48556 0.0
C237 C 0.97093 0.57128 0.49024 0.0
C238 C 0.96721 0.56839 0.50699 0.0
C239 C 0.96824 0.58118 0.51864 0.0
C240 C 0.96835 0.5579 0.4777 0.0
C241 C 0.98002 0.55498 0.46512 0.0
C242 C 0.97756 0.54215 0.45345 0.0
C243 C 0.96298 0.53255 0.4543 0.0
C244 C 0.95125 0.53524 0.46679 0.0
C245 C 0.95406 0.5479 0.47842 0.0
C246 C 0.93602 0.52484 0.46772 0.0
C247 C 0.92636 0.52182 0.45349 0.0
C248 C 0.93091 0.51803 0.4829 0.0
C249 C 0.91642 0.50851 0.48385 0.0
C250 C 0.90658 0.50579 0.46969 0.0
C251 C 0.99043 0.53826 0.4408 0.0
C252 C 0.9991 0.55089 0.43248 0.0
C253 C 0.99418 0.52168 0.437 0.0
C254 C 0.00625 0.51782 0.42529 0.0
C255 C 0.01504 0.53041 0.41705 0.0
C256 C 0.01123 0.54701 0.42071 0.0
C257 C 0.91175 0.51249 0.45448 0.0
H258 H 0.98098 0.61229 0.49316 0.0
H259 H 0.97924 0.58984 0.47275 0.0
H260 H 0.96335 0.55621 0.5111 0.0
H261 H 0.96517 0.57846 0.53141 0.0
H262 H 0.99129 0.5623 0.46479 0.0
H263 H 0.94483 0.55023 0.48784 0.0
H264 H 0.96081 0.52278 0.44531 0.0
H265 H 0.92993 0.52696 0.44164 0.0
H266 H 0.93818 0.52003 0.49405 0.0
H267 H 0.9127 0.5036 0.49576 0.0
H268 H 0.99644 0.56379 0.43498 0.0
H269 H 0.98795 0.5116 0.44328 0.0
H270 H 0.90448 0.51051 0.44333 0.0
H271 H 0.01783 0.55702 0.4147 0.0
H272 H 0.00864 0.5049 0.42264 0.0
C273 C 0.80108 0.75846 0.84491 0.0
C274 C 0.78625 0.74931 0.84515 0.0
C275 C 0.8038 0.77043 0.83263 0.0
C276 C 0.79156 0.77373 0.82065 0.0
C277 C 0.77662 0.76477 0.82111 0.0
C278 C 0.77407 0.75255 0.83311 0.0
C279 C 0.79421 0.78653 0.80771 0.0
C280 C 0.80788 0.78566 0.79704 0.0
C281 C 0.80997 0.79733 0.78423 0.0
C282 C 0.79831 0.8102 0.78258 0.0
C283 C 0.78459 0.81134 0.79321 0.0
C284 C 0.78267 0.79935 0.80571 0.0
C285 C 0.77218 0.82493 0.79127 0.0
C286 C 0.77714 0.84118 0.78722 0.0
C287 C 0.75522 0.82179 0.79374 0.0
C288 C 0.74362 0.83458 0.79267 0.0
C289 C 0.74862 0.85086 0.78899 0.0
C290 C 0.82402 0.79588 0.77229 0.0
C291 C 0.83991 0.79096 0.77757 0.0
C292 C 0.82161 0.79953 0.7554 0.0
C293 C 0.83477 0.79875 0.74423 0.0
C294 C 0.8507 0.79418 0.74956 0.0
C295 C 0.85308 0.79006 0.76633 0.0
C296 C 0.76548 0.85397 0.78602 0.0
H297 H 0.81069 0.7561 0.85401 0.0
H298 H 0.81539 0.77723 0.83258 0.0
H299 H 0.76701 0.76705 0.81198 0.0
H300 H 0.76253 0.74566 0.83305 0.0
H301 H 0.81652 0.7755 0.79834 0.0
H302 H 0.77232 0.8001 0.81417 0.0
H303 H 0.79984 0.81931 0.77287 0.0
H304 H 0.79009 0.84415 0.7854 0.0
H305 H 0.75083 0.80941 0.79647 0.0
H306 H 0.73069 0.83169 0.79473 0.0
H307 H 0.84229 0.78817 0.79048 0.0
H308 H 0.8095 0.80292 0.75073 0.0
H309 H 0.76974 0.86641 0.78329 0.0
H310 H 0.86523 0.78661 0.77085 0.0
H311 H 0.83242 0.80169 0.73134 0.0
C312 C 0.29815 0.2553 0.34033 0.0
C313 C 0.28167 0.25002 0.34239 0.0
C314 C 0.30216 0.26716 0.3283 0.0
C315 C 0.28975 0.27417 0.31825 0.0
C316 C 0.27324 0.26914 0.3206 0.0
C317 C 0.26927 0.25716 0.33245 0.0
C318 C 0.29392 0.2864 0.30506 0.0
C319 C 0.3072 0.28348 0.29417 0.0
C320 C 0.31043 0.29437 0.28098 0.0
C321 C 0.30051 0.30853 0.27907 0.0
C322 C 0.28743 0.31194 0.28999 0.0
C323 C 0.28416 0.30069 0.30289 0.0
C324 C 0.27711 0.32709 0.28752 0.0
C325 C 0.28449 0.342 0.28226 0.0
C326 C 0.2598 0.32668 0.28961 0.0
C327 C 0.25011 0.3406 0.28589 0.0
C328 C 0.25751 0.35518 0.27988 0.0
C329 C 0.32383 0.291 0.26879 0.0
C330 C 0.33987 0.28656 0.27397 0.0
C331 C 0.32077 0.29306 0.25176 0.0
C332 C 0.33353 0.2915 0.24027 0.0
C333 C 0.34978 0.28788 0.24544 0.0
C334 C 0.35273 0.28503 0.26241 0.0
C335 C 0.27483 0.35579 0.2784 0.0
H336 H 0.30799 0.24996 0.34774 0.0
H337 H 0.31498 0.27087 0.32686 0.0
H338 H 0.2634 0.27419 0.31299 0.0
H339 H 0.25645 0.25346 0.33383 0.0
H340 H 0.31457 0.27237 0.29552 0.0
H341 H 0.27417 0.30318 0.31144 0.0
H342 H 0.30295 0.31689 0.26888 0.0
H343 H 0.2978 0.34298 0.28093 0.0
H344 H 0.25364 0.31541 0.29351 0.0
H345 H 0.23678 0.33974 0.28709 0.0
H346 H 0.34262 0.2849 0.28702 0.0
H347 H 0.30847 0.2961 0.24731 0.0
H348 H 0.28092 0.36695 0.2741 0.0
H349 H 0.36509 0.28227 0.26684 0.0
H350 H 0.33068 0.29332 0.22727 0.0
C351 C 0.48188 0.97803 0.60539 0.0
C352 C 0.49882 0.97406 0.60646 0.0
C353 C 0.47304 0.97577 0.59059 0.0
C354 C 0.4809 0.96959 0.57635 0.0
C355 C 0.49793 0.96597 0.57731 0.0
C356 C 0.50675 0.96814 0.59215 0.0
C357 C 0.47129 0.96661 0.56071 0.0
C358 C 0.45866 0.97753 0.55572 0.0
C359 C 0.44932 0.97462 0.5412 0.0
C360 C 0.45302 0.96062 0.53144 0.0
C361 C 0.46577 0.94965 0.53601 0.0
C362 C 0.47464 0.95269 0.55077 0.0
C363 C 0.46995 0.93502 0.52543 0.0
C364 C 0.45751 0.92564 0.51742 0.0
C365 C 0.48655 0.93016 0.52347 0.0
C366 C 0.49056 0.91608 0.51424 0.0
C367 C 0.47813 0.90651 0.50656 0.0
C368 C 0.43591 0.98637 0.53612 0.0
C369 C 0.42578 0.99404 0.54802 0.0
C370 C 0.43322 0.99017 0.51931 0.0
C371 C 0.42091 1.00137 0.51456 0.0
C372 C 0.411 0.00931 0.52646 0.0
C373 C 0.41354 0.00538 0.54327 0.0
C374 C 0.46157 0.91159 0.50804 0.0
H375 H 0.47538 0.9829 0.61603 0.0
H376 H 0.45994 0.97857 0.59044 0.0
H377 H 0.50449 0.96144 0.56656 0.0
H378 H 0.51972 0.96482 0.59248 0.0
H379 H 0.45637 0.98857 0.56298 0.0
H380 H 0.48395 0.94392 0.55477 0.0
H381 H 0.44602 0.95827 0.5202 0.0
H382 H 0.44459 0.92887 0.51875 0.0
H383 H 0.49651 0.93726 0.52907 0.0
H384 H 0.50347 0.91268 0.51311 0.0
H385 H 0.42725 0.99127 0.56106 0.0
H386 H 0.44083 0.98472 0.50975 0.0
H387 H 0.45169 0.9044 0.50238 0.0
H388 H 0.40631 0.01131 0.55284 0.0
H389 H 0.41918 1.00379 0.50147 0.0
C390 C 0.20249 0.25636 0.65916 0.0
C391 C 0.21811 0.25148 0.65329 0.0
C392 C 0.20103 0.26574 0.67366 0.0
C393 C 0.21516 0.27046 0.68282 0.0
C394 C 0.23078 0.26527 0.67718 0.0
C395 C 0.23224 0.25588 0.66261 0.0
C396 C 0.2135 0.28114 0.69788 0.0
C397 C 0.20023 0.27883 0.70887 0.0
C398 C 0.19777 0.2895 0.72249 0.0
C399 C 0.20924 0.30245 0.72527 0.0
C400 C 0.22293 0.30466 0.71473 0.0
C401 C 0.22483 0.29403 0.70103 0.0
C402 C 0.23534 0.31808 0.71778 0.0
C403 C 0.23041 0.33435 0.72156 0.0
C404 C 0.25233 0.31474 0.71628 0.0
C405 C 0.26407 0.3274 0.71792 0.0
C406 C 0.25918 0.34383 0.72101 0.0
C407 C 0.18327 0.28685 0.73374 0.0
C408 C 0.16813 0.28082 0.72736 0.0
C409 C 0.18452 0.28968 0.75096 0.0
C410 C 0.1712 0.28604 0.76148 0.0
C411 C 0.15646 0.27927 0.75506 0.0
C412 C 0.155 0.2769 0.73789 0.0
C413 C 0.2422 0.3471 0.72313 0.0
H414 H 0.1913 0.253 0.65249 0.0
H415 H 0.18881 0.26961 0.67748 0.0
H416 H 0.24192 0.26848 0.684 0.0
H417 H 0.24448 0.25243 0.65844 0.0
H418 H 0.19191 0.26845 0.7069 0.0
H419 H 0.23494 0.29614 0.6925 0.0
H420 H 0.2076 0.3108 0.73564 0.0
H421 H 0.21741 0.33735 0.72272 0.0
H422 H 0.25657 0.30228 0.71372 0.0
H423 H 0.27703 0.32429 0.71665 0.0
H424 H 0.1664 0.27894 0.71417 0.0
H425 H 0.19596 0.29415 0.75643 0.0
H426 H 0.23797 0.3596 0.72543 0.0
H427 H 0.14368 0.27187 0.73261 0.0
H428 H 0.17265 0.28788 0.77471 0.0
C429 C 0.83951 0.23395 0.75595 0.0
C430 C 0.8476 0.21958 0.76151 0.0
C431 C 0.82664 0.23292 0.74427 0.0
C432 C 0.82154 0.2175 0.73781 0.0
C433 C 0.82986 0.20317 0.74315 0.0
C434 C 0.8427 0.2042 0.75482 0.0
C435 C 0.80744 0.2163 0.72579 0.0
C436 C 0.80554 0.22815 0.71315 0.0
C437 C 0.79208 0.22741 0.702 0.0
C438 C 0.78056 0.21437 0.70354 0.0
C439 C 0.7822 0.2023 0.71603 0.0
C440 C 0.79569 0.20343 0.7271 0.0
C441 C 0.76969 0.18866 0.71758 0.0
C442 C 0.75279 0.19172 0.71462 0.0
C443 C 0.77453 0.17243 0.72172 0.0
C444 C 0.76283 0.15957 0.72252 0.0
C445 C 0.74603 0.1626 0.71905 0.0
C446 C 0.78976 0.24049 0.68906 0.0
C447 C 0.79344 0.25717 0.69261 0.0
C448 C 0.78339 0.23654 0.67325 0.0
C449 C 0.78041 0.24897 0.6615 0.0
C450 C 0.78379 0.26569 0.66519 0.0
C451 C 0.79059 0.26955 0.68084 0.0
C452 C 0.74115 0.17886 0.71528 0.0
H453 H 0.8428 0.24598 0.76097 0.0
H454 H 0.8204 0.2442 0.74062 0.0
H455 H 0.82651 0.19112 0.73822 0.0
H456 H 0.84885 0.1929 0.75857 0.0
H457 H 0.81476 0.23784 0.71182 0.0
H458 H 0.79677 0.19455 0.73709 0.0
H459 H 0.77017 0.21367 0.69504 0.0
H460 H 0.74848 0.20409 0.71183 0.0
H461 H 0.78743 0.16953 0.72392 0.0
H462 H 0.767 0.14715 0.72534 0.0
H463 H 0.7982 0.26079 0.70466 0.0
H464 H 0.78065 0.22382 0.66991 0.0
H465 H 0.72826 0.18168 0.71284 0.0
H466 H 0.79369 0.28221 0.68408 0.0
H467 H 0.77507 0.24546 0.64967 0.0
C468 C 0.53643 0.58531 0.49849 0.0
C469 C 0.52813 0.59919 0.50488 0.0
C470 C 0.5407 0.57203 0.50886 0.0
C471 C 0.53687 0.57239 0.52588 0.0
C472 C 0.52905 0.58656 0.53228 0.0
C473 C 0.5247 0.59972 0.52193 0.0
C474 C 0.54071 0.55804 0.53694 0.0
C475 C 0.5555 0.54903 0.53515 0.0
C476 C 0.5593 0.53584 0.54588 0.0
C477 C 0.54808 0.53165 0.55849 0.0
C478 C 0.53309 0.54025 0.56037 0.0
C479 C 0.52954 0.55339 0.54949 0.0
C480 C 0.52105 0.53537 0.57354 0.0
C481 C 0.51837 0.51858 0.57736 0.0
C482 C 0.51204 0.5474 0.58233 0.0
C483 C 0.50054 0.54274 0.59444 0.0
C484 C 0.49776 0.52593 0.59811 0.0
C485 C 0.57511 0.52654 0.54418 0.0
C486 C 0.58052 0.52098 0.52859 0.0
C487 C 0.58481 0.52298 0.55823 0.0
C488 C 0.5996 0.51416 0.55674 0.0
C489 C 0.60501 0.50854 0.54119 0.0
C490 C 0.59526 0.51197 0.52713 0.0
C491 C 0.50696 0.51394 0.58949 0.0
H492 H 0.53915 0.58448 0.48539 0.0
H493 H 0.54659 0.5613 0.50343 0.0
H494 H 0.52628 0.58752 0.54536 0.0
H495 H 0.51861 0.61037 0.52731 0.0
H496 H 0.56434 0.5526 0.52574 0.0
H497 H 0.51782 0.55978 0.55054 0.0
H498 H 0.55105 0.52159 0.56684 0.0
H499 H 0.52491 0.50893 0.57077 0.0
H500 H 0.5139 0.56046 0.57992 0.0
H501 H 0.49362 0.55233 0.6007 0.0
H502 H 0.57325 0.52342 0.51755 0.0
H503 H 0.58106 0.52719 0.57039 0.0
H504 H 0.5054 0.50088 0.59213 0.0
H505 H 0.59915 0.50791 0.51496 0.0
H506 H 0.60675 0.51161 0.56783 0.0
C507 C 0.49568 0.46657 0.92896 0.0
C508 C 0.49971 0.47203 0.91292 0.0
C509 C 0.50805 0.4638 0.94082 0.0
C510 C 0.52483 0.46636 0.93698 0.0
C511 C 0.52892 0.47136 0.92079 0.0
C512 C 0.51651 0.47414 0.9089 0.0
C513 C 0.53788 0.46449 0.95005 0.0
C514 C 0.53696 0.45161 0.96178 0.0
C515 C 0.5486 0.45037 0.9748 0.0
C516 C 0.5614 0.46229 0.97584 0.0
C517 C 0.56282 0.47496 0.96399 0.0
C518 C 0.55099 0.47596 0.95119 0.0
C519 C 0.57664 0.48722 0.96489 0.0
C520 C 0.58077 0.4952 0.97987 0.0
C521 C 0.5857 0.49117 0.95061 0.0
C522 C 0.59845 0.50293 0.95121 0.0
C523 C 0.60238 0.51129 0.96607 0.0
C524 C 0.54741 0.43669 0.9873 0.0
C525 C 0.5319 0.43062 0.99256 0.0
C526 C 0.5618 0.42966 0.99423 0.0
C527 C 0.56072 0.41728 0.00631 0.0
C528 C 0.54524 0.41137 0.0116 0.0
C529 C 0.53084 0.41803 0.00445 0.0
C530 C 0.59343 0.50715 0.98044 0.0
H531 H 0.48289 0.46456 0.93244 0.0
H532 H 0.50439 0.46009 0.95316 0.0
H533 H 0.54172 0.47325 0.91731 0.0
H534 H 0.52008 0.4784 0.89671 0.0
H535 H 0.52727 0.44238 0.96056 0.0
H536 H 0.55172 0.48609 0.94242 0.0
H537 H 0.57035 0.46174 0.98585 0.0
H538 H 0.57393 0.4925 0.99106 0.0
H539 H 0.58301 0.48504 0.93895 0.0
H540 H 0.60529 0.50539 0.93997 0.0
H541 H 0.52051 0.43584 0.98778 0.0
H542 H 0.57397 0.43362 0.99029 0.0
H543 H 0.59591 0.5134 0.99207 0.0
H544 H 0.51874 0.41383 0.00842 0.0
H545 H 0.57203 0.41223 0.01146 0.0
C546 C 0.66847 0.21488 0.25568 0.0
C547 C 0.66513 0.2314 0.25124 0.0
C548 C 0.68221 0.21106 0.26571 0.0
C549 C 0.69284 0.22369 0.27147 0.0
C550 C 0.68998 0.24003 0.2662 0.0
C551 C 0.67634 0.24382 0.25624 0.0
C552 C 0.70616 0.22031 0.28386 0.0
C553 C 0.71709 0.20688 0.2821 0.0
C554 C 0.72993 0.20425 0.29374 0.0
C555 C 0.73148 0.21518 0.30736 0.0
C556 C 0.72067 0.22863 0.30933 0.0
C557 C 0.70799 0.23092 0.29758 0.0
C558 C 0.72253 0.24049 0.32348 0.0
C559 C 0.72657 0.23497 0.33955 0.0
C560 C 0.71977 0.25751 0.32104 0.0
C561 C 0.72033 0.2686 0.33434 0.0
C562 C 0.72382 0.26303 0.35046 0.0
C563 C 0.74195 0.19034 0.29168 0.0
C564 C 0.73677 0.17462 0.28601 0.0
C565 C 0.75877 0.19261 0.2958 0.0
C566 C 0.76991 0.17944 0.29495 0.0
C567 C 0.76465 0.16363 0.2898 0.0
C568 C 0.74801 0.16143 0.28502 0.0
C569 C 0.72727 0.24615 0.35289 0.0
H570 H 0.66006 0.20503 0.25205 0.0
H571 H 0.68407 0.19836 0.26957 0.0
H572 H 0.69815 0.25 0.27009 0.0
H573 H 0.67439 0.25661 0.2527 0.0
H574 H 0.71592 0.19884 0.27139 0.0
H575 H 0.69925 0.24093 0.29925 0.0
H576 H 0.74122 0.21328 0.31642 0.0
H577 H 0.72867 0.22196 0.34195 0.0
H578 H 0.71708 0.26232 0.3088 0.0
H579 H 0.71793 0.28158 0.33201 0.0
H580 H 0.72392 0.17236 0.28282 0.0
H581 H 0.76337 0.2046 0.29975 0.0
H582 H 0.72993 0.24149 0.3652 0.0
H583 H 0.74356 0.14938 0.28107 0.0
H584 H 0.78272 0.18163 0.2984 0.0
C585 C 0.4837 0.09922 0.9953 0.0
C586 C 0.48301 0.09601 0.01242 0.0
C587 C 0.47923 0.08693 0.98377 0.0
C588 C 0.47379 0.07125 0.98913 0.0
C589 C 0.47298 0.06815 0.00625 0.0
C590 C 0.47753 0.08035 0.01772 0.0
C591 C 0.46897 0.05805 0.97706 0.0
C592 C 0.47878 0.05469 0.96311 0.0
C593 C 0.47481 0.0415 0.95228 0.0
C594 C 0.4606 0.03182 0.95552 0.0
C595 C 0.45072 0.03492 0.96949 0.0
C596 C 0.45493 0.04818 0.98002 0.0
C597 C 0.43636 0.024 0.97361 0.0
C598 C 0.42509 0.01865 0.96135 0.0
C599 C 0.43374 0.01904 0.99009 0.0
C600 C 0.41999 0.00943 0.99431 0.0
C601 C 0.40841 0.00448 0.98219 0.0
C602 C 0.4861 0.0372 0.93829 0.0
C603 C 0.49415 0.04962 0.92906 0.0
C604 C 0.48943 0.02054 0.93447 0.0
C605 C 0.5007 0.01641 0.92204 0.0
C606 C 0.50911 0.0288 0.91313 0.0
C607 C 0.50551 0.04548 0.91665 0.0
C608 C 0.41125 0.00899 0.96559 0.0
H609 H 0.48796 0.11112 0.99082 0.0
H610 H 0.47989 0.08974 0.97068 0.0
H611 H 0.46903 0.05617 0.01082 0.0
H612 H 0.47667 0.07751 0.0308 0.0
H613 H 0.48996 0.06186 0.96115 0.0
H614 H 0.44718 0.05087 0.99061 0.0
H615 H 0.45741 0.0216 0.94738 0.0
H616 H 0.42671 0.02229 0.94855 0.0
H617 H 0.44238 0.02258 0.99979 0.0
H618 H 0.41844 0.00585 0.00714 0.0
H619 H 0.49176 0.06259 0.9315 0.0
H620 H 0.48367 0.0106 0.94138 0.0
H621 H 0.40254 0.00548 0.95596 0.0
H622 H 0.5118 0.05536 0.91013 0.0
H623 H 0.5029 1.00343 0.91951 0.0
Li624 Li 0.26833 0.89178 1.00066 0.0
Li625 Li 0.25719 0.86876 0.0172 0.0
Li626 Li 0.25239 0.87079 0.98697 0.0
Li627 Li 0.2378 0.89005 0.00483 0.0
C628 C 0.29022 0.86852 0.99833 0.0
N629 N 0.32427 0.87135 0.99697 0.0
C630 C 0.29963 0.86814 0.01291 0.0
C631 C 0.29811 0.87021 0.98306 0.0
C632 C 0.31684 0.86962 0.01196 0.0
C633 C 0.31535 0.87166 0.98263 0.0
C634 C 0.24892 0.89645 0.03698 0.0
C635 C 0.2288 0.89037 0.05812 0.0
N636 N 0.23446 0.90352 0.06711 0.0
C637 C 0.25451 0.90991 0.04639 0.0
C638 C 0.23595 0.8866 0.04286 0.0
C639 C 0.24704 0.91327 0.0616 0.0
C640 C 0.29128 0.91415 0.98506 0.0
N641 N 0.28678 0.9069 0.99958 0.0
C642 C 0.30824 0.92153 0.01407 0.0
C643 C 0.29501 0.91031 0.01392 0.0
C644 C 0.31307 0.9294 0.99931 0.0
C645 C 0.30448 0.92542 0.98463 0.0
H646 H 0.2845 0.91137 0.97384 0.0
H647 H 0.29123 0.90435 0.02529 0.0
C648 C 0.26157 0.83727 0.03089 0.0
N649 N 0.26189 0.85359 0.035 0.0
C650 C 0.26555 0.8252 0.04262 0.0
C651 C 0.27041 0.8469 0.0627 0.0
C652 C 0.26631 0.85859 0.05054 0.0
C653 C 0.27018 0.82991 0.05878 0.0
H654 H 0.25853 0.83363 0.01835 0.0
H655 H 0.26704 0.87164 0.05345 0.0
C656 C 0.24669 0.8977 0.96802 0.0
N657 N 0.23946 0.90251 0.93488 0.0
C658 C 0.23109 0.90346 0.96321 0.0
C659 C 0.25863 0.89446 0.95598 0.0
C660 C 0.22767 0.9058 0.94639 0.0
C661 C 0.25473 0.89694 0.93928 0.0
C662 C 0.22421 0.85646 0.9963 0.0
C663 C 0.21288 0.86436 0.98585 0.0
C664 C 0.22388 0.83921 0.99769 0.0
C665 C 0.20139 0.85485 0.97695 0.0
C666 C 0.21223 0.83014 0.98855 0.0
N667 N 0.20132 0.83808 0.97845 0.0
C668 C 0.26104 0.84332 0.96767 0.0
C669 C 0.23955 0.85873 0.9551 0.0
C670 C 0.26082 0.83195 0.9546 0.0
N671 N 0.25065 0.85651 0.96766 0.0
C672 C 0.23905 0.84776 0.94163 0.0
C673 C 0.24987 0.83416 0.94117 0.0
H674 H 0.26948 0.84153 0.97796 0.0
H675 H 0.23104 0.86899 0.95544 0.0
C676 C 0.21834 0.91929 0.00597 0.0
N677 N 0.21813 0.90269 0.00883 0.0
C678 C 0.20398 0.92871 0.00811 0.0
C679 C 0.18957 0.90383 0.01647 0.0
C680 C 0.20422 0.89494 0.01432 0.0
C681 C 0.18925 0.92092 0.01317 0.0
H682 H 0.22961 0.92516 1.00172 0.0
H683 H 0.20443 0.88179 0.01681 0.0
O684 O 0.27335 0.8676 0.99904 0.0
O685 O 0.25599 0.89315 0.02198 0.0
O686 O 0.25028 0.89549 0.98444 0.0
O687 O 0.23576 0.86557 0.00487 0.0
H688 H 0.29368 0.86693 0.02484 0.0
H689 H 0.29099 0.87049 0.97167 0.0
H690 H 0.32428 0.86945 0.02314 0.0
H691 H 0.32163 0.87306 0.9709 0.0
H692 H 0.21877 0.88285 0.06283 0.0
H693 H 0.2645 0.91769 0.04196 0.0
H694 H 0.23146 0.87612 0.03575 0.0
H695 H 0.25125 0.92365 0.06903 0.0
H696 H 0.31463 0.92401 0.02565 0.0
H697 H 0.30762 0.93131 0.97301 0.0
H698 H 0.26505 0.81228 0.039 0.0
H699 H 0.27419 0.85115 0.07488 0.0
H700 H 0.2217 0.90607 0.97236 0.0
H701 H 0.27069 0.8898 0.95945 0.0
H702 H 0.21564 0.91021 0.94249 0.0
H703 H 0.26381 0.89437 0.92983 0.0
H704 H 0.21311 0.87766 0.98441 0.0
H705 H 0.23252 0.83287 0.0057 0.0
H706 H 0.19261 0.86081 0.96876 0.0
H707 H 0.21186 0.81677 0.98948 0.0
H708 H 0.26908 0.82144 0.95516 0.0
H709 H 0.23042 0.85011 0.93161 0.0
H710 H 0.20426 0.94183 0.00535 0.0
H711 H 0.17857 0.89738 0.02064 0.0
Li712 Li 0.12244 0.50962 0.27392 0.0
Li713 Li 0.14332 0.493 0.25871 0.0
Li714 Li 0.14085 0.52354 0.25393 0.0
Li715 Li 0.11933 0.50447 0.24375 0.0
C716 C 0.15584 0.51409 0.28844 0.0
N717 N 0.17394 0.51906 0.31718 0.0
C718 C 0.16194 0.50054 0.29732 0.0
C719 C 0.15913 0.53016 0.29406 0.0
C720 C 0.17101 0.50332 0.31185 0.0
C721 C 0.16825 0.53241 0.30865 0.0
C722 C 0.11489 0.47277 0.25611 0.0
C723 C 0.11785 0.45107 0.23579 0.0
N724 N 0.10569 0.44228 0.24342 0.0
C725 C 0.1024 0.46356 0.26374 0.0
C726 C 0.12267 0.46652 0.242 0.0
C727 C 0.09793 0.44816 0.25715 0.0
C728 C 0.09415 0.51629 0.29362 0.0
N729 N 0.11036 0.5118 0.29439 0.0
C730 C 0.10883 0.50955 0.32391 0.0
C731 C 0.11776 0.50844 0.30917 0.0
C732 C 0.09199 0.51393 0.32355 0.0
C733 C 0.08471 0.51747 0.30809 0.0
H734 H 0.08848 0.51875 0.2817 0.0
H735 H 0.13054 0.50469 0.30957 0.0
C736 C 0.17405 0.47757 0.25362 0.0
N737 N 0.15888 0.47514 0.26041 0.0
C738 C 0.18591 0.46501 0.25404 0.0
C739 C 0.16642 0.44764 0.26858 0.0
C740 C 0.15497 0.46062 0.26803 0.0
C741 C 0.18214 0.44965 0.26139 0.0
H742 H 0.17691 0.48931 0.24783 0.0
H743 H 0.14289 0.45902 0.27353 0.0
C744 C 0.11115 0.54089 0.26068 0.0
N745 N 0.10094 0.57217 0.26989 0.0
C746 C 0.09995 0.54958 0.25075 0.0
C747 C 0.11711 0.54804 0.27532 0.0
C748 C 0.09496 0.5654 0.25561 0.0
C749 C 0.1118 0.56388 0.27976 0.0
C750 C 0.14534 0.51214 0.22185 0.0
C751 C 0.13466 0.52454 0.21625 0.0
C752 C 0.15838 0.50694 0.21182 0.0
C753 C 0.13722 0.53154 0.20065 0.0
C754 C 0.16052 0.51425 0.19629 0.0
N755 N 0.14999 0.5263 0.19108 0.0
C756 C 0.17003 0.54337 0.25284 0.0
C757 C 0.14626 0.55637 0.24166 0.0
C758 C 0.17986 0.55711 0.24878 0.0
N759 N 0.15356 0.54322 0.2492 0.0
C760 C 0.15558 0.57033 0.2374 0.0
C761 C 0.17269 0.57079 0.24076 0.0
H762 H 0.17561 0.53268 0.25866 0.0
H763 H 0.13322 0.55595 0.23865 0.0
C764 C 0.08725 0.50469 0.23005 0.0
N765 N 0.1031 0.50024 0.22671 0.0
C766 C 0.07462 0.50158 0.21854 0.0
C767 C 0.09484 0.48957 0.20019 0.0
C768 C 0.1071 0.49282 0.21211 0.0
C769 C 0.0783 0.49383 0.20338 0.0
H770 H 0.08441 0.51056 0.24176 0.0
H771 H 0.11977 0.48926 0.20978 0.0
O772 O 0.14705 0.5116 0.27411 0.0
O773 O 0.11926 0.48795 0.26233 0.0
O774 O 0.11623 0.52545 0.25599 0.0
O775 O 0.1432 0.50519 0.23713 0.0
H776 H 0.15956 0.48802 0.29312 0.0
H777 H 0.15478 0.5408 0.28719 0.0
H778 H 0.17571 0.49295 0.31891 0.0
H779 H 0.17084 0.54478 0.31316 0.0
H780 H 0.12377 0.44608 0.22488 0.0
H781 H 0.09622 0.46828 0.27464 0.0
H782 H 0.13233 0.4735 0.2359 0.0
H783 H 0.08829 0.44088 0.26292 0.0
H784 H 0.11511 0.50693 0.3355 0.0
H785 H 0.07174 0.52069 0.3071 0.0
H786 H 0.19795 0.46739 0.24867 0.0
H787 H 0.16283 0.43604 0.27428 0.0
H788 H 0.09525 0.54418 0.23937 0.0
H789 H 0.12565 0.5414 0.28319 0.0
H790 H 0.08634 0.57231 0.24802 0.0
H791 H 0.11631 0.56958 0.29107 0.0
H792 H 0.1245 0.52872 0.22384 0.0
H793 H 0.16676 0.49737 0.216 0.0
H794 H 0.12906 0.54115 0.19617 0.0
H795 H 0.17056 0.51035 0.18838 0.0
H796 H 0.19301 0.55679 0.25145 0.0
H797 H 0.14942 0.58063 0.23145 0.0
H798 H 0.06209 0.50527 0.22147 0.0
H799 H 0.09822 0.48342 0.18877 0.0
Li800 Li 0.7425 0.62113 0.99958 0.0
Li801 Li 0.75323 0.64146 0.01956 0.0
Li802 Li 0.76041 0.64336 0.98874 0.0
Li803 Li 0.77325 0.62172 0.00684 0.0
C804 C 0.72229 0.6464 0.99484 0.0
N805 N 0.68959 0.64693 0.98456 0.0
C806 C 0.70959 0.64782 0.00646 0.0
C807 C 0.71835 0.64553 0.97798 0.0
C808 C 0.69314 0.648 1.00102 0.0
C809 C 0.70176 0.64573 0.97303 0.0
C810 C 0.75409 0.61251 0.0377 0.0
C811 C 0.7691 0.60904 0.06338 0.0
N812 N 0.75483 0.60432 0.07095 0.0
C813 C 0.73963 0.6074 0.04568 0.0
C814 C 0.76898 0.61315 0.04657 0.0
C815 C 0.74023 0.60341 0.06251 0.0
C816 C 0.72397 0.59848 0.97968 0.0
N817 N 0.72382 0.60698 0.99424 0.0
C818 C 0.69684 0.59616 1.00044 0.0
C819 C 0.71065 0.60589 0.00466 0.0
C820 C 0.69651 0.58767 0.98524 0.0
C821 C 0.71036 0.58885 0.97485 0.0
H822 H 0.73462 0.59923 0.97171 0.0
H823 H 0.71071 0.61281 0.01613 0.0
C824 C 0.75777 0.66664 0.04462 0.0
N825 N 0.74802 0.65383 0.03944 0.0
C826 C 0.75409 0.67523 0.05925 0.0
C827 C 0.72996 0.65787 0.06254 0.0
C828 C 0.73426 0.64947 0.04804 0.0
C829 C 0.74003 0.67087 0.06855 0.0
H830 H 0.76844 0.67022 0.03745 0.0
H831 H 0.72651 0.63945 0.04359 0.0
C832 C 0.76721 0.61619 0.96893 0.0
N833 N 0.77773 0.61117 0.93675 0.0
C834 C 0.78297 0.60979 0.96588 0.0
C835 C 0.75674 0.61984 0.95559 0.0
C836 C 0.78807 0.60738 0.94953 0.0
C837 C 0.7623 0.61728 0.93942 0.0
C838 C 0.78991 0.65251 0.01356 0.0
C839 C 0.79988 0.66107 1.00231 0.0
C840 C 0.79543 0.65029 0.02985 0.0
C841 C 0.81533 0.66704 0.00748 0.0
C842 C 0.81095 0.65645 0.03455 0.0
N843 N 0.8205 0.66461 0.02335 0.0
C844 C 0.75449 0.67041 0.96633 0.0
C845 C 0.7783 0.65443 0.96048 0.0
C846 C 0.75699 0.6799 0.952 0.0
N847 N 0.7649 0.65772 0.97009 0.0
C848 C 0.78102 0.66331 0.94589 0.0
C849 C 0.77018 0.67608 0.94142 0.0
H850 H 0.74404 0.67296 0.97425 0.0
H851 H 0.78672 0.64466 0.96394 0.0
C852 C 0.79171 0.5926 0.01506 0.0
N853 N 0.79301 0.60857 0.00983 0.0
C854 C 0.80579 0.58253 0.01613 0.0
C855 C 0.82232 0.60561 0.00672 0.0
C856 C 0.80796 0.61513 0.00568 0.0
C857 C 0.8214 0.58895 0.01174 0.0
H858 H 0.77967 0.58756 0.01806 0.0
H859 H 0.80875 0.62762 1.00106 0.0
O860 O 0.73847 0.64576 0.99994 0.0
O861 O 0.7537 0.61662 0.02125 0.0
O862 O 0.76211 0.61883 0.98489 0.0
O863 O 0.77482 0.64643 0.00861 0.0
H864 H 0.71238 0.64866 0.01953 0.0
H865 H 0.728 0.64471 0.96881 0.0
H866 H 0.68319 0.64897 0.00989 0.0
H867 H 0.69855 0.64495 0.96002 0.0
H868 H 0.78054 0.60955 0.0704 0.0
H869 H 0.72802 0.60665 0.039 0.0
H870 H 0.78037 0.61666 0.04054 0.0
H871 H 0.7291 0.59958 0.06887 0.0
H872 H 0.68635 0.59566 0.00874 0.0
H873 H 0.71067 0.58234 0.96311 0.0
H874 H 0.76237 0.68502 0.0633 0.0
H875 H 0.71873 0.65424 0.06885 0.0
H876 H 0.7912 0.60671 0.97598 0.0
H877 H 0.74448 0.62467 0.95765 0.0
H878 H 0.80025 0.60249 0.94701 0.0
H879 H 0.75435 0.62017 0.929 0.0
H880 H 0.79577 0.66304 0.98971 0.0
H881 H 0.78776 0.64406 0.03883 0.0
H882 H 0.8232 0.67361 0.99888 0.0
H883 H 0.81537 0.6548 0.04711 0.0
H884 H 0.74837 0.68967 0.9489 0.0
H885 H 0.79141 0.66013 0.93808 0.0
H886 H 0.80436 0.56973 0.01986 0.0
H887 H 0.83402 0.61127 1.00344 0.0
Li888 Li 0.87051 0.02153 0.25678 0.0
Li889 Li 0.89091 1.00126 0.26659 0.0
Li890 Li 0.89024 0.00921 0.23636 0.0
Li891 Li 0.86857 0.99092 0.24871 0.0
C892 C 0.90122 0.03902 0.25368 0.0
N893 N 0.91325 0.07066 0.24836 0.0
C894 C 0.91102 0.04683 0.26572 0.0
C895 C 0.89776 0.04722 0.23884 0.0
C896 C 0.91692 0.06285 0.26283 0.0
C897 C 0.9039 0.06322 0.2364 0.0
C898 C 0.86653 0.9984 0.28751 0.0
C899 C 0.86777 0.97911 0.31025 0.0
N900 N 0.86801 0.99203 0.3211 0.0
C901 C 0.86667 0.01148 0.29887 0.0
C902 C 0.86697 0.98207 0.29322 0.0
C903 C 0.86745 0.008 0.3158 0.0
C904 C 0.8414 0.04141 0.25824 0.0
N905 N 0.85769 0.04078 0.26261 0.0
C906 C 0.85561 0.06705 0.27623 0.0
C907 C 0.86484 0.05323 0.2715 0.0
C908 C 0.83871 0.06805 0.27202 0.0
C909 C 0.83166 0.055 0.26277 0.0
H910 H 0.83592 0.03125 0.25136 0.0
H911 H 0.87767 0.05236 0.27517 0.0
C912 C 0.9117 0.98044 0.28621 0.0
N913 N 0.9052 0.99591 0.28511 0.0
C914 C 0.92144 0.97598 0.29984 0.0
C915 C 0.91819 1.00361 0.31081 0.0
C916 C 0.90837 0.00751 0.297 0.0
C917 C 0.92471 0.98758 0.31246 0.0
H918 H 0.90924 0.97149 0.27658 0.0
H919 H 0.90299 0.0197 0.29592 0.0
C920 C 0.85773 0.01756 0.22139 0.0
N921 N 0.84126 0.03053 0.19425 0.0
C922 C 0.85003 0.00703 0.2099 0.0
C923 C 0.8568 0.03471 0.21918 0.0
C924 C 0.84185 0.01382 0.19623 0.0
C925 C 0.84848 0.04102 0.20536 0.0
C926 C 0.89489 0.97102 0.24139 0.0
C927 C 0.90178 0.9678 0.22586 0.0
C928 C 0.88985 0.95783 0.25139 0.0
C929 C 0.9034 0.95141 0.22054 0.0
C930 C 0.89166 0.94161 0.24562 0.0
N931 N 0.89833 0.93877 0.23044 0.0
C932 C 0.91936 0.01698 0.2177 0.0
C933 C 0.8959 0.00946 0.20164 0.0
C934 C 0.92906 0.01825 0.20339 0.0
N935 N 0.90311 0.01256 0.21658 0.0
C936 C 0.90506 0.01068 0.18706 0.0
C937 C 0.92198 0.01487 0.18777 0.0
H938 H 0.92488 0.01917 0.22975 0.0
H939 H 0.88311 0.00563 0.20101 0.0
C940 C 0.84081 0.96872 0.25317 0.0
N941 N 0.85372 0.97285 0.2432 0.0
C942 C 0.82996 0.95582 0.24868 0.0
C943 C 0.84614 0.95144 0.22402 0.0
C944 C 0.85642 0.96456 0.2288 0.0
C945 C 0.83248 0.94697 0.23385 0.0
H946 H 0.8388 0.97558 0.2645 0.0
H947 H 0.86657 0.96818 0.22091 0.0
O948 O 0.89534 0.02333 0.25635 0.0
O949 O 0.86628 1.00157 0.27088 0.0
O950 O 0.86569 0.01109 0.23492 0.0
O951 O 0.89306 0.98701 0.2467 0.0
H952 H 0.91398 0.04061 0.27722 0.0
H953 H 0.8906 0.04123 0.22921 0.0
H954 H 0.92443 0.06908 0.27209 0.0
H955 H 0.90129 0.06971 0.22496 0.0
H956 H 0.86823 0.96654 0.31485 0.0
H957 H 0.86638 0.02419 0.29463 0.0
H958 H 0.8668 0.97181 0.28458 0.0
H959 H 0.86768 0.01801 0.32474 0.0
H960 H 0.86171 0.07684 0.28315 0.0
H961 H 0.81867 0.05506 0.25943 0.0
H962 H 0.92639 0.96355 0.30049 0.0
H963 H 0.92027 0.01289 0.32031 0.0
H964 H 0.85047 0.99376 0.21144 0.0
H965 H 0.86225 0.04312 0.22811 0.0
H966 H 0.83595 0.00579 0.1872 0.0
H967 H 0.8477 0.05426 0.20351 0.0
H968 H 0.90582 0.97784 0.21797 0.0
H969 H 0.88438 0.96009 0.26338 0.0
H970 H 0.90867 0.94874 0.20854 0.0
H971 H 0.8877 0.93129 0.25319 0.0
H972 H 0.94207 0.02132 0.20463 0.0
H973 H 0.89894 0.00819 0.17535 0.0
H974 H 0.81954 0.95309 0.25662 0.0
H975 H 0.84899 0.94488 0.21269 0.0
Li976 Li 0.25195 0.14101 0.51424 0.0
Li977 Li 0.23913 0.12003 0.49706 0.0
Li978 Li 0.269 0.11836 0.50311 0.0
Li979 Li 0.25695 0.141 0.48382 0.0
C980 C 0.23907 0.11328 0.53103 0.0
N981 N 0.21605 0.10626 0.55525 0.0
C982 C 0.22399 0.1217 0.53134 0.0
C983 C 0.24243 0.10125 0.543 0.0
C984 C 0.21251 0.11798 0.54369 0.0
C985 C 0.23064 0.09789 0.55516 0.0
C986 C 0.22309 0.15321 0.4904 0.0
C987 C 0.20622 0.16365 0.46801 0.0
N988 N 0.19622 0.17119 0.47921 0.0
C989 C 0.21263 0.16106 0.5017 0.0
C990 C 0.21985 0.15449 0.47342 0.0
C991 C 0.19912 0.17009 0.49579 0.0
C992 C 0.24585 0.17231 0.5279 0.0
N993 N 0.24877 0.15635 0.53232 0.0
C994 C 0.24509 0.16324 0.56098 0.0
C995 C 0.24883 0.15172 0.54854 0.0
C996 C 0.24134 0.1797 0.5567 0.0
C997 C 0.24215 0.18421 0.53989 0.0
H998 H 0.2461 0.17574 0.51495 0.0
H999 H 0.25144 0.13902 0.55183 0.0
C1000 C 0.21995 0.09004 0.49764 0.0
N1001 N 0.21925 0.10654 0.49419 0.0
C1002 C 0.2057 0.0801 0.49644 0.0
C1003 C 0.19021 0.1043 0.48835 0.0
C1004 C 0.20475 0.11367 0.48946 0.0
C1005 C 0.19051 0.08732 0.492 0.0
H1006 H 0.23154 0.08462 0.50159 0.0
H1007 H 0.20426 0.1267 0.48678 0.0
C1008 C 0.28202 0.15293 0.51299 0.0
N1009 N 0.29779 0.17362 0.53537 0.0
C1010 C 0.28401 0.16974 0.50938 0.0
C1011 C 0.2881 0.14661 0.52793 0.0
C1012 C 0.29201 0.18 0.52087 0.0
C1013 C 0.29603 0.15728 0.5391 0.0
C1014 C 0.2508 0.104 0.47148 0.0
C1015 C 0.25542 0.08752 0.47395 0.0
C1016 C 0.23883 0.10781 0.45953 0.0
C1017 C 0.24784 0.07508 0.46452 0.0
C1018 C 0.23151 0.09501 0.45037 0.0
N1019 N 0.23612 0.07905 0.45303 0.0
C1020 C 0.28704 0.08863 0.51124 0.0
C1021 C 0.30308 0.11177 0.50297 0.0
C1022 C 0.30131 0.07883 0.51243 0.0
N1023 N 0.28817 0.10472 0.50635 0.0
C1024 C 0.31761 0.10252 0.50415 0.0
C1025 C 0.3169 0.08569 0.50863 0.0
H1026 H 0.27502 0.08331 0.51387 0.0
H1027 H 0.30367 0.12459 0.49915 0.0
C1028 C 0.25935 0.171 0.46512 0.0
N1029 N 0.26073 0.15421 0.46444 0.0
C1030 C 0.26121 0.18054 0.45075 0.0
C1031 C 0.26587 0.15535 0.43529 0.0
C1032 C 0.2641 0.14633 0.44995 0.0
C1033 C 0.26429 0.17268 0.43552 0.0
H1034 H 0.25646 0.17695 0.47677 0.0
H1035 H 0.26518 0.13299 0.44974 0.0
O1036 O 0.25047 0.11659 0.51899 0.0
O1037 O 0.23643 0.14438 0.49597 0.0
O1038 O 0.27375 0.14276 0.50218 0.0
O1039 O 0.25778 0.11631 0.48088 0.0
H1040 H 0.22115 0.13097 0.52213 0.0
H1041 H 0.25404 0.09459 0.54287 0.0
H1042 H 0.20079 0.12441 0.54408 0.0
H1043 H 0.23308 0.08863 0.56452 0.0
H1044 H 0.20358 0.16473 0.4549 0.0
H1045 H 0.21487 0.16015 0.51489 0.0
H1046 H 0.2277 0.14843 0.46449 0.0
H1047 H 0.19093 0.17622 0.50439 0.0
H1048 H 0.24459 0.15914 0.57374 0.0
H1049 H 0.23978 0.1968 0.53597 0.0
H1050 H 0.20642 0.06707 0.4995 0.0
H1051 H 0.17879 0.11033 0.48476 0.0
H1052 H 0.27932 0.17481 0.49789 0.0
H1053 H 0.28651 0.13364 0.53095 0.0
H1054 H 0.29359 0.19306 0.51828 0.0
H1055 H 0.30072 0.15259 0.55075 0.0
H1056 H 0.26466 0.08436 0.48314 0.0
H1057 H 0.2351 0.12049 0.45748 0.0
H1058 H 0.25123 0.06226 0.46635 0.0
H1059 H 0.22215 0.09777 0.44116 0.0
H1060 H 0.30006 0.06592 0.51581 0.0
H1061 H 0.3293 0.10853 0.50147 0.0
H1062 H 0.25973 0.19385 0.45145 0.0
H1063 H 0.26841 0.1488 0.42386 0.0
Li1064 Li 0.3898 0.4958 0.77086 0.0
Li1065 Li 0.36829 0.51499 0.75952 0.0
Li1066 Li 0.36792 0.48501 0.75382 0.0
Li1067 Li 0.38982 0.50257 0.74071 0.0
C1068 C 0.35243 0.48821 0.782 0.0
N1069 N 0.32539 0.47098 0.79399 0.0
C1070 C 0.33687 0.4957 0.78246 0.0
C1071 C 0.35428 0.47202 0.78782 0.0
C1072 C 0.32335 0.48677 0.78853 0.0
C1073 C 0.34045 0.46349 0.79377 0.0
C1074 C 0.40188 0.53078 0.7654 0.0
C1075 C 0.41801 0.55549 0.76049 0.0
N1076 N 0.42005 0.55746 0.77712 0.0
C1077 C 0.40411 0.53308 0.78245 0.0
C1078 C 0.40887 0.54208 0.75433 0.0
C1079 C 0.41334 0.54664 0.78812 0.0
C1080 C 0.42052 0.49457 0.78936 0.0
N1081 N 0.40384 0.49211 0.78995 0.0
C1082 C 0.40548 0.48595 0.8189 0.0
C1083 C 0.39629 0.48776 0.80432 0.0
C1084 C 0.42267 0.48874 0.81882 0.0
C1085 C 0.43023 0.49286 0.8037 0.0
H1086 H 0.42623 0.49826 0.77784 0.0
H1087 H 0.38303 0.48603 0.80456 0.0
C1088 C 0.33949 0.53581 0.75738 0.0
N1089 N 0.35512 0.53455 0.76366 0.0
C1090 C 0.32956 0.54948 0.76128 0.0
C1091 C 0.3522 0.56062 0.77748 0.0
C1092 C 0.36154 0.5467 0.77346 0.0
C1093 C 0.33581 0.56207 0.77168 0.0
H1094 H 0.33454 0.52595 0.7497 0.0
H1095 H 0.37385 0.54553 0.77845 0.0
C1096 C 0.40499 0.4711 0.75686 0.0
N1097 N 0.43158 0.45296 0.76846 0.0
C1098 C 0.42082 0.47384 0.75049 0.0
C1099 C 0.40266 0.45901 0.76903 0.0
C1100 C 0.43411 0.46457 0.75653 0.0
C1101 C 0.41627 0.45001 0.77477 0.0
C1102 C 0.36055 0.51478 0.72581 0.0
C1103 C 0.34788 0.51098 0.71457 0.0
C1104 C 0.36871 0.53003 0.72481 0.0
C1105 C 0.34361 0.52254 0.70243 0.0
C1106 C 0.36408 0.54126 0.71249 0.0
N1107 N 0.35173 0.53731 0.70165 0.0
C1108 C 0.33707 0.46775 0.7479 0.0
C1109 C 0.36129 0.45135 0.74676 0.0
C1110 C 0.32719 0.45398 0.74384 0.0
N1111 N 0.35381 0.46619 0.74928 0.0
C1112 C 0.35195 0.43736 0.74255 0.0
C1113 C 0.33467 0.43857 0.74086 0.0
H1114 H 0.33141 0.47973 0.7497 0.0
H1115 H 0.3746 0.45042 0.7477 0.0
C1116 C 0.41863 0.51167 0.7218 0.0
N1117 N 0.40284 0.50577 0.72103 0.0
C1118 C 0.42819 0.5129 0.7074 0.0
C1119 C 0.40493 0.50236 0.69166 0.0
C1120 C 0.39591 0.50119 0.70633 0.0
C1121 C 0.42143 0.50803 0.69203 0.0
H1122 H 0.42398 0.51498 0.73367 0.0
H1123 H 0.3834 0.49638 0.70602 0.0
O1124 O 0.36577 0.49667 0.77586 0.0
O1125 O 0.39309 0.51744 0.75955 0.0
O1126 O 0.39188 0.48031 0.75136 0.0
O1127 O 0.36482 0.5036 0.7378 0.0
H1128 H 0.33522 0.50824 0.77814 0.0
H1129 H 0.36622 0.46603 0.78759 0.0
H1130 H 0.31122 0.4924 0.78888 0.0
H1131 H 0.34168 0.45091 0.79819 0.0
H1132 H 0.42349 0.56433 0.75205 0.0
H1133 H 0.39854 0.52467 0.79124 0.0
H1134 H 0.40723 0.54057 0.7411 0.0
H1135 H 0.41512 0.54858 0.80128 0.0
H1136 H 0.39912 0.48252 0.83017 0.0
H1137 H 0.44341 0.49529 0.80307 0.0
H1138 H 0.31699 0.5499 0.7566 0.0
H1139 H 0.35779 0.57011 0.7852 0.0
H1140 H 0.42286 0.48308 0.74104 0.0
H1141 H 0.39051 0.45671 0.7741 0.0
H1142 H 0.44644 0.46662 0.75175 0.0
H1143 H 0.41465 0.44071 0.78426 0.0
H1144 H 0.34142 0.49922 0.71524 0.0
H1145 H 0.37847 0.5332 0.73347 0.0
H1146 H 0.33383 0.51977 0.69363 0.0
H1147 H 0.37029 0.55312 0.71157 0.0
H1148 H 0.31393 0.4555 0.74251 0.0
H1149 H 0.35823 0.42571 0.7405 0.0
H1150 H 0.4409 0.51713 0.70841 0.0
H1151 H 0.39902 0.49873 0.68013 0.0
Li1152 Li 0.76981 0.39322 0.50393 0.0
Li1153 Li 0.75804 0.37285 0.52208 0.0
Li1154 Li 0.75249 0.37168 0.4921 0.0
Li1155 Li 0.74039 0.39412 0.50954 0.0
C1156 C 0.78921 0.36516 0.5104 0.0
N1157 N 0.81956 0.35739 0.52423 0.0
C1158 C 0.79602 0.37517 0.52286 0.0
C1159 C 0.79782 0.35121 0.50498 0.0
C1160 C 0.81138 0.37103 0.5297 0.0
C1161 C 0.81316 0.34749 0.51213 0.0
C1162 C 0.75256 0.40167 0.5404 0.0
C1163 C 0.73241 0.39796 0.56207 0.0
N1164 N 0.7395 0.41066 0.57067 0.0
C1165 C 0.75961 0.4147 0.54943 0.0
C1166 C 0.73882 0.39323 0.54673 0.0
C1167 C 0.75284 0.41905 0.56472 0.0
C1168 C 0.78529 0.42423 0.50322 0.0
N1169 N 0.78805 0.40801 0.49965 0.0
C1170 C 0.8147 0.41468 0.48851 0.0
C1171 C 0.80244 0.40304 0.49248 0.0
C1172 C 0.81194 0.43156 0.49164 0.0
C1173 C 0.79705 0.43627 0.49919 0.0
H1174 H 0.77369 0.42784 0.50879 0.0
H1175 H 0.80423 0.39012 0.48946 0.0
C1176 C 0.75566 0.34393 0.54243 0.0
N1177 N 0.76166 0.35969 0.54171 0.0
C1178 C 0.75763 0.33448 0.55687 0.0
C1179 C 0.77203 0.3576 0.56946 0.0
C1180 C 0.76997 0.36649 0.55477 0.0
C1181 C 0.76568 0.34143 0.57073 0.0
H1182 H 0.74917 0.33876 0.53185 0.0
H1183 H 0.77487 0.37893 0.5539 0.0
C1184 C 0.75887 0.40432 0.47532 0.0
N1185 N 0.77548 0.42194 0.45119 0.0
C1186 C 0.75552 0.42112 0.47293 0.0
C1187 C 0.77058 0.39645 0.46536 0.0
C1188 C 0.76407 0.42982 0.46069 0.0
C1189 C 0.77885 0.40557 0.45324 0.0
C1190 C 0.72118 0.3649 0.50466 0.0
C1191 C 0.71432 0.37333 0.49117 0.0
C1192 C 0.71268 0.3515 0.51156 0.0
C1193 C 0.69901 0.36821 0.48482 0.0
C1194 C 0.69738 0.34678 0.50486 0.0
N1195 N 0.69093 0.35515 0.49174 0.0
C1196 C 0.75115 0.34108 0.47389 0.0
C1197 C 0.74107 0.36469 0.45973 0.0
C1198 C 0.74696 0.3309 0.4604 0.0
N1199 N 0.74804 0.35763 0.47335 0.0
C1200 C 0.73673 0.35502 0.44602 0.0
C1201 C 0.73944 0.33783 0.44626 0.0
H1202 H 0.75661 0.33576 0.48492 0.0
H1203 H 0.73864 0.37784 0.45959 0.0
C1204 C 0.72682 0.42559 0.5127 0.0
N1205 N 0.72247 0.40933 0.51344 0.0
C1206 C 0.71531 0.43792 0.51634 0.0
C1207 C 0.69489 0.41663 0.52142 0.0
C1208 C 0.70687 0.40466 0.51782 0.0
C1209 C 0.6991 0.43353 0.52086 0.0
H1210 H 0.7394 0.42897 0.50964 0.0
H1211 H 0.70378 0.39168 0.51895 0.0
O1212 O 0.77412 0.36882 0.50358 0.0
O1213 O 0.759 0.39743 0.52534 0.0
O1214 O 0.7511 0.39571 0.48764 0.0
O1215 O 0.73632 0.36943 0.5109 0.0
H1216 H 0.78957 0.38603 0.5272 0.0
H1217 H 0.79269 0.34332 0.49537 0.0
H1218 H 0.81679 0.37867 0.53934 0.0
H1219 H 0.81996 0.33672 0.50805 0.0
H1220 H 0.7218 0.39154 0.56712 0.0
H1221 H 0.77021 0.42138 0.54465 0.0
H1222 H 0.73314 0.38315 0.53992 0.0
H1223 H 0.75818 0.42911 0.57186 0.0
H1224 H 0.82595 0.41059 0.48254 0.0
H1225 H 0.7945 0.44916 0.50187 0.0
H1226 H 0.75249 0.32208 0.55736 0.0
H1227 H 0.77853 0.36334 0.57976 0.0
H1228 H 0.74649 0.4274 0.4805 0.0
H1229 H 0.77344 0.38348 0.46718 0.0
H1230 H 0.76167 0.44285 0.45876 0.0
H1231 H 0.78803 0.39967 0.44553 0.0
H1232 H 0.7207 0.38375 0.48569 0.0
H1233 H 0.71786 0.34481 0.52197 0.0
H1234 H 0.69356 0.37463 0.47439 0.0
H1235 H 0.69065 0.33643 0.51008 0.0
H1236 H 0.74917 0.3177 0.46121 0.0
H1237 H 0.73124 0.361 0.43533 0.0
H1238 H 0.7191 0.45079 0.5157 0.0
H1239 H 0.68262 0.41269 0.52515 0.0
Li1240 Li 0.63931 0.99059 0.75651 0.0
Li1241 Li 0.61799 0.00876 0.77085 0.0
Li1242 Li 0.61627 1.00289 0.74139 0.0
Li1243 Li 0.63784 0.02121 0.75079 0.0
C1244 C 0.60338 0.97634 0.7543 0.0
N1245 N 0.57897 0.95617 0.74103 0.0
C1246 C 0.58693 0.97821 0.75923 0.0
C1247 C 0.60745 0.96415 0.74271 0.0
C1248 C 0.57476 0.9679 0.75235 0.0
C1249 C 0.59492 0.95409 0.73612 0.0
C1250 C 0.65272 0.01052 0.78544 0.0
C1251 C 0.67036 0.0259 0.80418 0.0
N1252 N 0.67312 0.01183 0.81301 0.0
C1253 C 0.65575 0.99621 0.79469 0.0
C1254 C 0.66011 0.02549 0.79019 0.0
C1255 C 0.66609 0.99713 0.80859 0.0
C1256 C 0.67008 0.97256 0.75788 0.0
N1257 N 0.65342 0.97182 0.76023 0.0
C1258 C 0.65563 0.9443 0.77092 0.0
C1259 C 0.64612 0.95801 0.76649 0.0
C1260 C 0.67293 0.94477 0.76909 0.0
C1261 C 0.68013 0.95908 0.7622 0.0
H1262 H 0.67562 0.98378 0.75305 0.0
H1263 H 0.63289 0.95777 0.76847 0.0
C1264 C 0.58941 0.01619 0.78999 0.0
N1265 N 0.60564 0.0118 0.79105 0.0
C1266 C 0.57972 0.01735 0.80431 0.0
C1267 C 0.60374 0.00999 0.82057 0.0
C1268 C 0.6129 0.00889 0.80598 0.0
C1269 C 0.5868 0.01397 0.81989 0.0
H1270 H 0.58388 0.01842 0.77797 0.0
H1271 H 0.62575 0.00543 0.80663 0.0
C1272 C 0.6425 0.00868 0.71926 0.0
N1273 N 0.64777 0.02195 0.68819 0.0
C1274 C 0.63241 0.02145 0.7134 0.0
C1275 C 0.65527 1.00266 0.70933 0.0
C1276 C 0.63528 0.02799 0.69765 0.0
C1277 C 0.65773 0.00953 0.69365 0.0
C1278 C 0.60969 0.0398 0.75891 0.0
C1279 C 0.59742 0.04956 0.75161 0.0
C1280 C 0.61828 0.0457 0.7728 0.0
C1281 C 0.59399 0.06514 0.75829 0.0
C1282 C 0.61449 0.06134 0.77913 0.0
N1283 N 0.60253 0.07066 0.7718 0.0
C1284 C 0.58468 0.00477 0.72665 0.0
C1285 C 0.6039 0.99013 0.71012 0.0
C1286 C 0.57204 1.00166 0.71516 0.0
N1287 N 0.60019 0.99887 0.72406 0.0
C1288 C 0.59165 0.98689 0.69819 0.0
C1289 C 0.5754 0.99252 0.70073 0.0
H1290 H 0.58206 0.01166 0.73784 0.0
H1291 H 0.61629 0.98543 0.70841 0.0
C1292 C 0.6678 0.04014 0.74838 0.0
N1293 N 0.65118 0.04039 0.74555 0.0
C1294 C 0.67772 0.05372 0.74395 0.0
C1295 C 0.65323 0.06752 0.7338 0.0
C1296 C 0.64384 0.05372 0.73837 0.0
C1297 C 0.67047 0.06764 0.73641 0.0
H1298 H 0.67341 0.0293 0.75388 0.0
H1299 H 0.63069 0.05359 0.73591 0.0
O1300 O 0.61539 0.98666 0.76046 0.0
O1301 O 0.64282 0.00983 0.77164 0.0
O1302 O 0.64008 1.00215 0.7347 0.0
O1303 O 0.61314 0.02454 0.75244 0.0
H1304 H 0.58357 0.98761 0.76814 0.0
H1305 H 0.62011 0.96266 0.73864 0.0
H1306 H 0.56196 0.96927 0.75597 0.0
H1307 H 0.59787 0.94469 0.72705 0.0
H1308 H 0.67614 0.03741 0.80801 0.0
H1309 H 0.64999 0.98456 0.79132 0.0
H1310 H 0.65794 0.03669 0.78318 0.0
H1311 H 0.66849 0.98617 0.81589 0.0
H1312 H 0.64946 0.93348 0.77591 0.0
H1313 H 0.69341 0.96007 0.7607 0.0
H1314 H 0.56671 0.02033 0.8031 0.0
H1315 H 0.60987 0.00759 0.83228 0.0
H1316 H 0.62247 0.02627 0.7209 0.0
H1317 H 0.6632 0.9928 0.71372 0.0
H1318 H 0.62757 0.03788 0.69297 0.0
H1319 H 0.66757 0.005 0.68583 0.0
H1320 H 0.59065 0.04514 0.74085 0.0
H1321 H 0.62771 0.03828 0.77868 0.0
H1322 H 0.58455 0.07285 0.75274 0.0
H1323 H 0.62104 0.06606 0.78988 0.0
H1324 H 0.55975 0.00639 0.71754 0.0
H1325 H 0.59473 0.97966 0.68732 0.0
H1326 H 0.69096 0.05312 0.74602 0.0
H1327 H 0.647 0.078 0.72825 0.0
Li1328 Li 0.01886 0.25901 0.87022 0.0
Li1329 Li 1.00335 0.27202 0.89182 0.0
Li1330 Li 0.00668 0.24157 0.89093 0.0
Li1331 Li 0.98838 0.25548 0.86959 0.0
C1332 C 0.04012 0.26219 0.89602 0.0
N1333 N 0.07353 0.26914 0.89906 0.0
C1334 C 0.04539 0.27779 0.9015 0.0
C1335 C 0.05184 0.2501 0.89216 0.0
C1336 C 0.06234 0.28106 0.90295 0.0
C1337 C 0.06867 0.25387 0.89374 0.0
C1338 C 0.00985 0.28757 0.85808 0.0
C1339 C 0.01845 0.29696 0.83109 0.0
N1340 N 0.02819 0.30868 0.83839 0.0
C1341 C 0.01995 0.29971 0.86532 0.0
C1342 C 0.00906 0.28618 0.84083 0.0
C1343 C 0.0291 0.31028 0.85515 0.0
C1344 C 0.03682 0.25076 0.84157 0.0
N1345 N 0.03744 0.2609 0.85503 0.0
C1346 C 0.06347 0.27203 0.84597 0.0
C1347 C 0.05028 0.27171 0.85717 0.0
C1348 C 0.06337 0.26137 0.83215 0.0
C1349 C 0.04958 0.25086 0.82994 0.0
H1350 H 0.02633 0.24258 0.83982 0.0
H1351 H 0.0504 0.28007 0.8676 0.0
C1352 C 0.00607 0.28673 0.92315 0.0
N1353 N 1.0012 0.28999 0.90735 0.0
C1354 C 0.00528 0.29899 0.93533 0.0
C1355 C 0.99425 0.31783 0.91489 0.0
C1356 C 0.99514 0.3051 0.90308 0.0
C1357 C 0.99956 0.31493 0.93127 0.0
H1358 H 0.01067 0.27455 0.92626 0.0
H1359 H 0.99118 0.30734 0.89045 0.0
C1360 C 0.00646 0.22187 0.86505 0.0
N1361 N 0.00748 0.1877 0.86398 0.0
C1362 C 0.99184 0.21274 0.86308 0.0
C1363 C 0.0216 0.21366 0.86633 0.0
C1364 C 0.99262 0.19546 0.86259 0.0
C1365 C 0.02186 0.19636 0.86581 0.0
C1366 C 0.97606 0.26045 0.90608 0.0
C1367 C 0.97778 0.25513 0.92246 0.0
C1368 C 0.96466 0.27284 0.90219 0.0
C1369 C 0.96805 0.26238 0.93475 0.0
C1370 C 0.95517 0.27978 0.91483 0.0
N1371 N 0.95706 0.27446 0.93071 0.0
C1372 C 0.02254 0.2175 0.91181 0.0
C1373 C 0.99437 0.21221 0.90536 0.0
C1374 C 0.02351 0.20278 0.92092 0.0
N1375 N 0.00817 0.22181 0.9041 0.0
C1376 C 0.99479 0.19738 0.91427 0.0
C1377 C 0.00954 0.19239 0.92212 0.0
H1378 H 0.0333 0.2254 0.9108 0.0
H1379 H 0.98304 0.21602 0.89929 0.0
C1380 C 0.96904 0.25271 0.8398 0.0
N1381 N 0.96861 0.25204 0.85665 0.0
C1382 C 0.95501 0.24847 0.8304 0.0
C1383 C 0.94036 0.24299 0.85583 0.0
C1384 C 0.95461 0.24739 0.86472 0.0
C1385 C 0.94047 0.24326 0.8384 0.0
H1386 H 0.98043 0.25602 0.83364 0.0
H1387 H 0.95464 0.24662 0.87809 0.0
O1388 O 0.02358 0.25872 0.89469 0.0
O1389 O 1.0011 0.27687 0.86785 0.0
O1390 O 0.00592 0.23876 0.86608 0.0
O1391 O 0.98581 0.25387 0.89397 0.0
H1392 H 0.03651 0.28732 0.90451 0.0
H1393 H 0.04798 0.238 0.88782 0.0
H1394 H 0.06659 0.29309 0.90713 0.0
H1395 H 0.07787 0.24467 0.89071 0.0
H1396 H 0.01803 0.29596 0.81772 0.0
H1397 H 0.02092 0.30079 0.87865 0.0
H1398 H 1.00143 0.27677 0.83503 0.0
H1399 H 0.03703 0.31968 0.86059 0.0
H1400 H 0.07376 0.28034 0.84835 0.0
H1401 H 0.04852 0.24278 0.81927 0.0
H1402 H 0.00912 0.29596 0.94783 0.0
H1403 H 0.98984 0.3299 0.91111 0.0
H1404 H 0.98001 0.21892 0.86213 0.0
H1405 H 0.03302 0.22057 0.86782 0.0
H1406 H 0.9814 0.18822 0.86118 0.0
H1407 H 0.03348 0.18983 0.86688 0.0
H1408 H 0.98664 0.24561 0.92566 0.0
H1409 H 0.96331 0.27717 0.88957 0.0
H1410 H 0.96928 0.25844 0.9475 0.0
H1411 H 0.94636 0.28945 0.91203 0.0
H1412 H 0.03516 0.19941 0.92665 0.0
H1413 H 0.98364 0.18995 0.91507 0.0
H1414 H 0.95575 0.24864 0.81701 0.0
H1415 H 0.92941 0.23921 0.86255 0.0
Li1416 Li 0.52106 0.75595 0.37072 0.0
Li1417 Li 0.5017 0.76794 0.3934 0.0
Li1418 Li 0.50747 0.7378 0.3912 0.0
Li1419 Li 0.49115 0.75102 0.37028 0.0
C1420 C 0.53467 0.74822 0.40537 0.0
N1421 N 0.55607 0.73069 0.42551 0.0
C1422 C 0.53416 0.75029 0.42256 0.0
C1423 C 0.54608 0.73729 0.39841 0.0
C1424 C 0.54508 0.74129 0.43253 0.0
C1425 C 0.55679 0.72853 0.40881 0.0
C1426 C 0.4937 0.7806 0.35725 0.0
C1427 C 0.46914 0.79542 0.34904 0.0
N1428 N 0.47414 0.79477 0.33298 0.0
C1429 C 0.49867 0.78018 0.34069 0.0
C1430 C 0.47889 0.78838 0.3615 0.0
C1431 C 0.48858 0.78738 0.3286 0.0
C1432 C 0.54154 0.75635 0.34182 0.0
N1433 N 0.54068 0.76046 0.35815 0.0
C1434 C 0.56773 0.7726 0.35715 0.0
C1435 C 0.55345 0.76832 0.36591 0.0
C1436 C 0.56888 0.76898 0.34012 0.0
C1437 C 0.55556 0.76055 0.33252 0.0
H1438 H 0.5312 0.75009 0.33593 0.0
H1439 H 0.55249 0.77139 0.37892 0.0
C1440 C 0.49612 0.78131 0.42496 0.0
N1441 N 0.49831 0.78563 0.40885 0.0
C1442 C 0.49447 0.79349 0.43716 0.0
C1443 C 0.49671 0.81442 0.41591 0.0
C1444 C 0.49847 0.80179 0.4041 0.0
C1445 C 0.49495 0.81032 0.43274 0.0
H1446 H 0.49585 0.76835 0.42836 0.0
H1447 H 0.50023 0.80489 0.39119 0.0
C1448 C 0.50404 0.71933 0.36213 0.0
N1449 N 0.49329 0.68809 0.35297 0.0
C1450 C 0.48879 0.71336 0.36767 0.0
C1451 C 0.51381 0.70945 0.35189 0.0
C1452 C 0.48357 0.69753 0.36291 0.0
C1453 C 0.50817 0.69368 0.3474 0.0
C1454 C 0.47054 0.74878 0.4001 0.0
C1455 C 0.46316 0.73366 0.40427 0.0
C1456 C 0.46178 0.7635 0.40244 0.0
C1457 C 0.44702 0.7335 0.41039 0.0
C1458 C 0.44566 0.76282 0.4086 0.0
N1459 N 0.43867 0.74796 0.4124 0.0
C1460 C 0.50302 0.7207 0.42073 0.0
C1461 C 0.51727 0.70445 0.40099 0.0
C1462 C 0.50333 0.70772 0.43212 0.0
N1463 N 0.50972 0.71882 0.40544 0.0
C1464 C 0.51787 0.69107 0.41205 0.0
C1465 C 0.5106 0.69253 0.42779 0.0
H1466 H 0.49732 0.73234 0.42406 0.0
H1467 H 0.52271 0.7033 0.38882 0.0
C1468 C 0.47744 0.7448 0.33871 0.0
N1469 N 0.47299 0.7483 0.35457 0.0
C1470 C 0.46546 0.7434 0.32622 0.0
C1471 C 0.44434 0.7486 0.34661 0.0
C1472 C 0.45677 0.75011 0.35869 0.0
C1473 C 0.44864 0.7454 0.33008 0.0
H1474 H 0.4904 0.74338 0.33571 0.0
H1475 H 0.45337 0.75301 0.37124 0.0
O1476 O 0.52371 0.75643 0.39541 0.0
O1477 O 0.50312 0.77312 0.36919 0.0
O1478 O 0.50948 0.73474 0.3667 0.0
O1479 O 0.48643 0.74919 0.39433 0.0
H1480 H 0.52536 0.75864 0.42814 0.0
H1481 H 0.54649 0.73543 0.38513 0.0
H1482 H 0.54479 0.74271 0.44586 0.0
H1483 H 0.56563 0.71996 0.4036 0.0
H1484 H 0.45759 0.80138 0.35214 0.0
H1485 H 0.51009 0.77419 0.3372 0.0
H1486 H 0.4749 0.78884 0.37426 0.0
H1487 H 0.4922 0.78704 0.31571 0.0
H1488 H 0.57775 0.77874 0.36371 0.0
H1489 H 0.55574 0.75761 0.31943 0.0
H1490 H 0.49289 0.78976 0.44994 0.0
H1491 H 0.49725 0.82723 0.41199 0.0
H1492 H 0.48105 0.72089 0.37549 0.0
H1493 H 0.52566 0.71392 0.34749 0.0
H1494 H 0.47178 0.69276 0.36712 0.0
H1495 H 0.51562 0.68588 0.3395 0.0
H1496 H 0.46984 0.72215 0.40286 0.0
H1497 H 0.46732 0.77532 0.39945 0.0
H1498 H 0.44114 0.72189 0.41361 0.0
H1499 H 0.43872 0.77411 0.41038 0.0
H1500 H 0.4979 0.70959 0.44422 0.0
H1501 H 0.52357 0.6796 0.40816 0.0
H1502 H 0.46933 0.74078 0.31366 0.0
H1503 H 0.43154 0.75041 0.35009 0.0
Li1504 Li 0.00839 0.77004 0.61974 0.0
Li1505 Li 0.99126 0.75958 0.64198 0.0
Li1506 Li 0.02088 0.75397 0.6413 0.0
Li1507 Li 1.00278 0.74036 0.62044 0.0
C1508 C 1.00355 0.79106 0.64696 0.0
N1509 N 0.99032 0.82186 0.65363 0.0
C1510 C 0.9904 0.79709 0.63741 0.0
C1511 C 0.00995 0.8007 0.6599 0.0
C1512 C 0.98389 0.81269 0.64097 0.0
C1513 C 1.0031 0.81624 0.66307 0.0
C1514 C 0.9717 0.75214 0.61345 0.0
C1515 C 0.9495 0.73284 0.6188 0.0
N1516 N 0.94138 0.73843 0.60511 0.0
C1517 C 0.96316 0.75768 0.59943 0.0
C1518 C 0.96484 0.73961 0.62322 0.0
C1519 C 0.94784 0.7506 0.59542 0.0
C1520 C 0.00529 0.78494 0.58855 0.0
N1521 N 0.01125 0.78784 0.60406 0.0
C1522 C 0.01956 0.81527 0.59628 0.0
C1523 C 0.01858 0.80254 0.60803 0.0
C1524 C 0.01306 0.8128 0.58025 0.0
C1525 C 0.00614 0.79722 0.57642 0.0
H1526 H 0.99978 0.77304 0.58564 0.0
H1527 H 0.02346 0.8045 0.62038 0.0
C1528 C 0.97275 0.76213 0.67236 0.0
N1529 N 0.97234 0.76484 0.65572 0.0
C1530 C 0.95938 0.7668 0.68235 0.0
C1531 C 0.94544 0.77702 0.65793 0.0
C1532 C 0.95901 0.77217 0.64846 0.0
C1533 C 0.94551 0.77453 0.67517 0.0
H1534 H 0.98361 0.7567 0.67796 0.0
H1535 H 0.95898 0.7746 0.63531 0.0
C1536 C 0.03622 0.75927 0.60795 0.0
N1537 N 0.05913 0.77628 0.58913 0.0
C1538 C 0.03767 0.75593 0.59103 0.0
C1539 C 0.04645 0.77123 0.61532 0.0
C1540 C 0.04933 0.76468 0.58172 0.0
C1541 C 0.05795 0.77969 0.60559 0.0
C1542 C 0.01035 0.72586 0.6539 0.0
C1543 C 0.02148 0.71537 0.64586 0.0
C1544 C 0.00827 0.72457 0.67103 0.0
C1545 C 0.03037 0.70378 0.65512 0.0
C1546 C 0.01739 0.71282 0.67985 0.0
N1547 N 0.02817 0.70276 0.67178 0.0
C1548 C 0.04036 0.75337 0.67127 0.0
C1549 C 0.05328 0.74244 0.64737 0.0
C1550 C 0.0539 0.74872 0.68114 0.0
N1551 N 0.04022 0.74998 0.65474 0.0
C1552 C 0.06705 0.73769 0.6567 0.0
C1553 C 0.06741 0.74051 0.6739 0.0
H1554 H 0.02972 0.7592 0.67687 0.0
H1555 H 0.05281 0.73967 0.63426 0.0
C1556 C 0.99976 0.72125 0.59072 0.0
N1557 N 0.99796 0.72089 0.60746 0.0
C1558 C 0.9956 0.70738 0.58108 0.0
C1559 C 0.98761 0.6931 0.60609 0.0
C1560 C 0.99197 0.7072 0.61522 0.0
C1561 C 0.98931 0.69307 0.58875 0.0
H1562 H 0.00411 0.73244 0.58479 0.0
H1563 H 0.99034 0.70729 0.6285 0.0
O1564 O 0.01007 0.77575 0.64389 0.0
O1565 O 0.98683 0.7588 0.61735 0.0
O1566 O 0.02453 0.75126 0.61721 0.0
O1567 O 1.00204 0.73771 0.6451 0.0
H1568 H 0.98528 0.78985 0.62733 0.0
H1569 H 0.0201 0.79618 0.66744 0.0
H1570 H 0.97372 0.81749 0.63368 0.0
H1571 H 0.00793 0.82383 0.67306 0.0
H1572 H 0.94404 0.72313 0.62624 0.0
H1573 H 0.96833 0.76734 0.59172 0.0
H1574 H 0.97126 0.73513 0.6341 0.0
H1575 H 0.94109 0.75477 0.58461 0.0
H1576 H 0.02494 0.82705 0.59989 0.0
H1577 H 1.00136 0.7945 0.56415 0.0
H1578 H 0.96011 0.76484 0.69561 0.0
H1579 H 0.93499 0.78275 0.65177 0.0
H1580 H 0.02985 0.74676 0.58512 0.0
H1581 H 0.04533 0.77412 0.62837 0.0
H1582 H 0.05055 0.76226 0.5686 0.0
H1583 H 0.06588 0.78905 0.61111 0.0
H1584 H 0.02346 0.71638 0.63265 0.0
H1585 H 0.9998 0.73262 0.67748 0.0
H1586 H 0.0391 0.69567 0.64907 0.0
H1587 H 0.01594 0.71173 0.69312 0.0
H1588 H 0.05352 0.75101 0.69435 0.0
H1589 H 0.07725 0.73168 0.65048 0.0
H1590 H 0.99686 0.70802 0.56774 0.0
H1591 H 0.98294 0.68233 0.61257 0.0
Li1592 Li 0.51215 0.26944 0.11782 0.0
Li1593 Li 0.49255 0.2573 0.1399 0.0
Li1594 Li 0.52239 0.25154 0.14173 0.0
Li1595 Li 0.50503 0.24022 0.11943 0.0
C1596 C 0.52092 0.28334 0.15197 0.0
N1597 N 0.54157 0.30253 0.17157 0.0
C1598 C 0.51569 0.28861 0.16759 0.0
C1599 C 0.5366 0.28789 0.14627 0.0
C1600 C 0.52633 0.29829 0.17732 0.0
C1601 C 0.54687 0.29758 0.15638 0.0
C1602 C 0.48051 0.25382 0.10204 0.0
C1603 C 0.45814 0.23746 0.09059 0.0
N1604 N 0.46221 0.24275 0.07514 0.0
C1605 C 0.48432 0.25926 0.08607 0.0
C1606 C 0.46717 0.243 0.10434 0.0
C1607 C 0.47498 0.25347 0.07262 0.0
C1608 C 0.52246 0.2876 0.0889 0.0
N1609 N 0.5171 0.28887 0.10482 0.0
C1610 C 0.51923 0.31845 0.10359 0.0
C1611 C 0.51525 0.30394 0.11215 0.0
C1612 C 0.52489 0.31752 0.08718 0.0
C1613 C 0.52629 0.30184 0.07976 0.0
H1614 H 0.52377 0.27554 0.08327 0.0
H1615 H 0.51078 0.3047 0.12473 0.0
C1616 C 0.47401 0.26169 0.16985 0.0
N1617 N 0.4733 0.26219 0.153 0.0
C1618 C 0.46006 0.26563 0.17931 0.0
C1619 C 0.44493 0.27056 0.15391 0.0
C1620 C 0.45912 0.26646 0.14497 0.0
C1621 C 0.44529 0.27033 0.17134 0.0
H1622 H 0.48548 0.2584 0.17597 0.0
H1623 H 0.45887 0.26687 0.13158 0.0
C1624 C 0.53616 0.23813 0.10984 0.0
N1625 N 0.5518 0.21229 0.09388 0.0
C1626 C 0.53869 0.22309 0.11803 0.0
C1627 C 0.54171 0.24007 0.09358 0.0
C1628 C 0.54658 0.21016 0.10973 0.0
C1629 C 0.54957 0.22685 0.08572 0.0
C1630 C 0.49421 0.228 0.15515 0.0
C1631 C 0.50045 0.2249 0.17102 0.0
C1632 C 0.47803 0.22313 0.15121 0.0
C1633 C 0.49025 0.21746 0.18283 0.0
C1634 C 0.4682 0.21574 0.16334 0.0
N1635 N 0.47446 0.21311 0.17879 0.0
C1636 C 0.5375 0.25204 0.1735 0.0
C1637 C 0.55616 0.24567 0.15189 0.0
C1638 C 0.55028 0.25132 0.1852 0.0
N1639 N 0.54059 0.24922 0.15719 0.0
C1640 C 0.56933 0.24472 0.16321 0.0
C1641 C 0.5665 0.2477 0.18013 0.0
H1642 H 0.52509 0.25507 0.17742 0.0
H1643 H 0.55845 0.24387 0.13884 0.0
C1644 C 0.50381 0.22133 0.08896 0.0
N1645 N 0.50184 0.22073 0.1057 0.0
C1646 C 0.50269 0.20687 0.0794 0.0
C1647 C 0.49748 0.19141 0.10444 0.0
C1648 C 0.49863 0.20614 0.11347 0.0
C1649 C 0.49971 0.19159 0.08718 0.0
H1650 H 0.50675 0.23297 0.08304 0.0
H1651 H 0.49737 0.20585 0.12678 0.0
O1652 O 0.51088 0.2735 0.14243 0.0
O1653 O 0.48965 0.25926 0.11533 0.0
O1654 O 0.52797 0.25072 0.11763 0.0
O1655 O 0.50394 0.23549 0.14348 0.0
H1656 H 0.50359 0.28516 0.17217 0.0
H1657 H 0.54085 0.28381 0.13424 0.0
H1658 H 0.52248 0.30241 0.18946 0.0
H1659 H 0.55908 0.30112 0.15217 0.0
H1660 H 0.44785 0.229 0.0922 0.0
H1661 H 0.49443 0.26778 0.08405 0.0
H1662 H 0.46375 0.23896 0.11659 0.0
H1663 H 0.47789 0.25748 0.06019 0.0
H1664 H 0.51783 0.33031 0.10971 0.0
H1665 H 0.53069 0.30059 0.06716 0.0
H1666 H 0.46096 0.26544 0.1927 0.0
H1667 H 0.43379 0.27392 0.14721 0.0
H1668 H 0.53437 0.22135 0.13059 0.0
H1669 H 0.53989 0.2516 0.08706 0.0
H1670 H 0.54849 0.19842 0.11587 0.0
H1671 H 0.55387 0.22815 0.07311 0.0
H1672 H 0.51307 0.22806 0.17419 0.0
H1673 H 0.47311 0.22509 0.13893 0.0
H1674 H 0.49492 0.21508 0.19518 0.0
H1675 H 0.45561 0.21208 0.16047 0.0
H1676 H 0.54747 0.25359 0.19811 0.0
H1677 H 0.58167 0.24216 0.15871 0.0
H1678 H 0.50471 0.20756 0.06617 0.0
H1679 H 0.495 0.17996 0.11095 0.0
H1680 H 0.21128 0.77875 0.8673 0.0
H1681 H 0.26055 0.75888 0.86035 0.0
H1682 H 0.27133 0.77739 0.88234 0.0
H1683 H 0.22353 0.82131 0.8765 0.0
H1684 H 0.20804 0.82411 0.89226 0.0
H1685 H 0.20427 0.80998 0.87533 0.0
H1686 H 0.19865 0.7863 0.89621 0.0
H1687 H 0.20238 0.80036 0.91318 0.0
H1688 H 0.21407 0.78144 0.91167 0.0
H1689 H 0.27682 0.79796 0.90484 0.0
H1690 H 0.27659 0.81818 0.92764 0.0
H1691 H 0.22334 0.82352 0.92178 0.0
C1692 C 0.22435 0.77848 0.87035 0.0
C1693 C 0.23515 0.76748 0.86212 0.0
C1694 C 0.25212 0.76721 0.86656 0.0
C1695 C 0.25835 0.77771 0.87898 0.0
C1696 C 0.2474 0.78832 0.88697 0.0
C1697 C 0.23074 0.78872 0.88296 0.0
C1698 C 0.22158 0.80073 0.89411 0.0
C1699 C 0.2139 0.81487 0.88394 0.0
C1700 C 0.20839 0.79166 0.9044 0.0
C1701 C 0.2357 0.80699 0.90497 0.0
C1702 C 0.25049 0.79976 0.9005 0.0
C1703 C 0.26529 0.8036 0.90856 0.0
C1704 C 0.26498 0.81503 0.92165 0.0
C1705 C 0.24993 0.8224 0.92681 0.0
C1706 C 0.23511 0.81831 0.91818 0.0
H1707 H 0.02217 0.54519 0.38694 0.0
H1708 H 0.03807 0.50576 0.41985 0.0
H1709 H 0.05924 0.49748 0.39963 0.0
H1710 H 0.02736 0.52304 0.34896 0.0
H1711 H 0.03511 0.54057 0.33752 0.0
H1712 H 0.02126 0.54373 0.35465 0.0
H1713 H 0.04267 0.56333 0.36859 0.0
H1714 H 0.05655 0.56029 0.35144 0.0
H1715 H 0.06345 0.55609 0.37229 0.0
H1716 H 0.07813 0.49283 0.3757 0.0
H1717 H 0.09412 0.49255 0.34983 0.0
H1718 H 0.06706 0.53566 0.33255 0.0
C1719 C 0.03022 0.53494 0.38998 0.0
C1720 C 0.0283 0.52605 0.40499 0.0
C1721 C 0.03903 0.51259 0.40835 0.0
C1722 C 0.05119 0.50784 0.39698 0.0
C1723 C 0.0526 0.5167 0.38227 0.0
C1724 C 0.0425 0.53002 0.37874 0.0
C1725 C 0.04662 0.53733 0.36192 0.0
C1726 C 0.0317 0.53609 0.35006 0.0
C1727 C 0.05269 0.55533 0.36367 0.0
C1728 C 0.06053 0.52595 0.35653 0.0
C1729 C 0.06375 0.51416 0.36849 0.0
C1730 C 0.07584 0.50211 0.36632 0.0
C1731 C 0.08496 0.50214 0.35158 0.0
C1732 C 0.08206 0.51419 0.33913 0.0
C1733 C 0.06958 0.52621 0.34172 0.0
H1734 H 0.78681 0.75178 0.87917 0.0
H1735 H 0.77954 0.71687 0.8389 0.0
H1736 H 0.77494 0.69436 0.85917 0.0
H1737 H 0.80769 0.72411 0.90754 0.0
H1738 H 0.7975 0.73208 0.92569 0.0
H1739 H 0.80082 0.74533 0.90806 0.0
H1740 H 0.76942 0.75165 0.90677 0.0
H1741 H 0.766 0.73841 0.92438 0.0
H1742 H 0.75481 0.73476 0.90533 0.0
H1743 H 0.77202 0.67554 0.88369 0.0
H1744 H 0.7689 0.66192 0.91096 0.0
H1745 H 0.77593 0.70921 0.93555 0.0
C1746 C 0.78434 0.73936 0.87469 0.0
C1747 C 0.78363 0.73596 0.8575 0.0
C1748 C 0.78013 0.71966 0.85203 0.0
C1749 C 0.77754 0.70682 0.86344 0.0
C1750 C 0.77826 0.71054 0.8803 0.0
C1751 C 0.78139 0.72643 0.88594 0.0
C1752 C 0.78084 0.72716 0.90474 0.0
C1753 C 0.79772 0.73249 0.91193 0.0
C1754 C 0.76694 0.73868 0.91065 0.0
C1755 C 0.77702 0.7092 0.90877 0.0
C1756 C 0.77576 0.69981 0.89447 0.0
C1757 C 0.77285 0.68278 0.89496 0.0
C1758 C 0.77113 0.67515 0.91047 0.0
C1759 C 0.77208 0.68455 0.92525 0.0
C1760 C 0.77499 0.70181 0.92438 0.0
H1761 H 0.99312 0.99589 0.38494 0.0
H1762 H 0.97568 0.94826 0.40274 0.0
H1763 H 0.95538 0.94696 0.37985 0.0
H1764 H 0.95302 0.01131 0.37284 0.0
H1765 H 0.9604 0.02187 0.35464 0.0
H1766 H 0.974 0.019 0.37215 0.0
H1767 H 0.99534 0.00445 0.35327 0.0
H1768 H 0.98183 0.00733 0.33569 0.0
H1769 H 0.98894 0.98687 0.34098 0.0
H1770 H 0.93705 0.95058 0.35521 0.0
H1771 H 0.92125 0.95923 0.33049 0.0
H1772 H 0.9498 0.00484 0.32847 0.0
C1773 C 0.98509 0.98516 0.38391 0.0
C1774 C 0.98595 0.97219 0.39567 0.0
C1775 C 0.97513 0.95841 0.394 0.0
C1776 C 0.9636 0.95753 0.381 0.0
C1777 C 0.96293 0.97055 0.36973 0.0
C1778 C 0.97333 0.98414 0.37103 0.0
C1779 C 0.9697 0.99658 0.35738 0.0
C1780 C 0.96394 0.01317 0.36469 0.0
C1781 C 0.98486 0.99894 0.34616 0.0
C1782 C 0.95569 0.98781 0.34824 0.0
C1783 C 0.95208 0.97278 0.35556 0.0
C1784 C 0.93977 0.96232 0.34935 0.0
C1785 C 0.93091 0.96731 0.33524 0.0
C1786 C 0.93431 0.98267 0.32748 0.0
C1787 C 0.94683 0.99308 0.33418 0.0
H1788 H 0.2391 0.22559 0.64527 0.0
H1789 H 0.20057 0.25695 0.62472 0.0
H1790 H 0.20231 0.24192 0.59822 0.0
H1791 H 0.26363 0.22319 0.60779 0.0
H1792 H 0.26941 0.20188 0.61098 0.0
H1793 H 0.26513 0.215 0.62851 0.0
H1794 H 0.2431 0.194 0.6387 0.0
H1795 H 0.24727 0.18085 0.62116 0.0
H1796 H 0.22648 0.1879 0.62497 0.0
H1797 H 0.20785 0.22353 0.57405 0.0
H1798 H 0.21708 0.20308 0.55348 0.0
H1799 H 0.25284 0.18394 0.58893 0.0
C1800 C 0.23111 0.22938 0.63517 0.0
C1801 C 0.21957 0.2424 0.63722 0.0
C1802 C 0.20927 0.24684 0.62365 0.0
C1803 C 0.21024 0.23844 0.60848 0.0
C1804 C 0.22163 0.22563 0.60693 0.0
C1805 C 0.23193 0.22112 0.61985 0.0
C1806 C 0.24306 0.20686 0.6148 0.0
C1807 C 0.26139 0.21205 0.61557 0.0
C1808 C 0.23977 0.19149 0.62555 0.0
C1809 C 0.23737 0.20409 0.59704 0.0
C1810 C 0.22499 0.21508 0.5928 0.0
C1811 C 0.21763 0.21495 0.57717 0.0
C1812 C 0.22307 0.20332 0.56551 0.0
C1813 C 0.23585 0.19195 0.56943 0.0
C1814 C 0.24301 0.19237 0.5855 0.0
H1815 H 0.49004 0.54093 0.62802 0.0
H1816 H 0.47649 0.49939 0.59639 0.0
H1817 H 0.45598 0.49035 0.61698 0.0
H1818 H 0.48592 0.51992 0.6669 0.0
H1819 H 0.47712 0.53741 0.67757 0.0
H1820 H 0.49094 0.5407 0.66043 0.0
H1821 H 0.46864 0.55833 0.64558 0.0
H1822 H 0.45477 0.55515 0.66271 0.0
H1823 H 0.44833 0.54965 0.64199 0.0
H1824 H 0.43724 0.48543 0.64103 0.0
H1825 H 0.42093 0.48532 0.66669 0.0
H1826 H 0.44531 0.53084 0.68238 0.0
C1827 C 0.48267 0.53001 0.62532 0.0
C1828 C 0.48509 0.5208 0.61056 0.0
C1829 C 0.47522 0.50649 0.6077 0.0
C1830 C 0.46341 0.5013 0.61928 0.0
C1831 C 0.46146 0.51058 0.6337 0.0
C1832 C 0.47073 0.52468 0.63675 0.0
C1833 C 0.46605 0.53242 0.65323 0.0
C1834 C 0.48089 0.53262 0.66524 0.0
C1835 C 0.45902 0.54992 0.65072 0.0
C1836 C 0.45273 0.52043 0.65896 0.0
C1837 C 0.45033 0.50792 0.64749 0.0
C1838 C 0.43889 0.49526 0.65004 0.0
C1839 C 0.42957 0.49539 0.66465 0.0
C1840 C 0.4316 0.50817 0.67659 0.0
C1841 C 0.44345 0.52082 0.67363 0.0
H1842 H 0.78656 0.26515 0.63092 0.0
H1843 H 0.7717 0.29672 0.67186 0.0
H1844 H 0.76557 0.31917 0.65222 0.0
H1845 H 0.80557 0.29668 0.60627 0.0
H1846 H 0.79816 0.28852 0.58679 0.0
H1847 H 0.80158 0.2748 0.60404 0.0
H1848 H 0.77129 0.26433 0.60176 0.0
H1849 H 0.76778 0.27801 0.58448 0.0
H1850 H 0.75457 0.27905 0.60239 0.0
H1851 H 0.76151 0.3385 0.62839 0.0
H1852 H 0.75902 0.35316 0.60169 0.0
H1853 H 0.77524 0.30899 0.57582 0.0
C1854 C 0.78187 0.27671 0.63579 0.0
C1855 C 0.77983 0.27912 0.65307 0.0
C1856 C 0.77379 0.29458 0.65879 0.0
C1857 C 0.77012 0.30742 0.6477 0.0
C1858 C 0.77237 0.30465 0.63083 0.0
C1859 C 0.778 0.28967 0.62485 0.0
C1860 C 0.77923 0.28997 0.60607 0.0
C1861 C 0.7972 0.28734 0.60047 0.0
C1862 C 0.76752 0.27707 0.59821 0.0
C1863 C 0.77348 0.30748 0.60248 0.0
C1864 C 0.76965 0.31573 0.61697 0.0
C1865 C 0.76443 0.33216 0.61695 0.0
C1866 C 0.76314 0.34041 0.60173 0.0
C1867 C 0.76695 0.33225 0.58667 0.0
C1868 C 0.77209 0.31551 0.5871 0.0
H1869 H 0.53127 0.98421 0.61177 0.0
H1870 H 0.48731 0.9674 0.63773 0.0
H1871 H 0.50208 0.97034 0.66434 0.0
H1872 H 0.5607 0.96277 0.63811 0.0
H1873 H 0.57592 0.97913 0.63727 0.0
H1874 H 0.56186 0.97596 0.62014 0.0
H1875 H 0.55233 0.00648 0.62236 0.0
H1876 H 0.56635 0.00974 0.63949 0.0
H1877 H 0.54462 0.01415 0.64183 0.0
H1878 H 0.52137 0.97536 0.68826 0.0
H1879 H 0.54416 0.98163 0.70781 0.0
H1880 H 0.57604 0.9943 0.66656 0.0
C1881 C 0.52476 0.98099 0.62301 0.0
C1882 C 0.50799 0.9757 0.62254 0.0
C1883 C 0.49999 0.97182 0.63766 0.0
C1884 C 0.50832 0.97332 0.65289 0.0
C1885 C 0.52476 0.97861 0.65288 0.0
C1886 C 0.53294 0.98232 0.63835 0.0
C1887 C 0.55066 0.98769 0.64185 0.0
C1888 C 0.56302 0.97567 0.63387 0.0
C1889 C 0.55366 0.00558 0.63604 0.0
C1890 C 0.55112 0.98647 0.66061 0.0
C1891 C 0.53601 0.98124 0.6667 0.0
C1892 C 0.53326 0.97945 0.68363 0.0
C1893 C 0.54626 0.98313 0.69465 0.0
C1894 C 0.56188 0.9885 0.68875 0.0
C1895 C 0.5643 0.99008 0.67145 0.0
H1896 H 0.87279 0.24268 0.76505 0.0
H1897 H 0.85197 0.19864 0.78783 0.0
H1898 H 0.87343 0.1999 0.80964 0.0
H1899 H 0.91561 0.23312 0.77317 0.0
H1900 H 0.92147 0.25425 0.77754 0.0
H1901 H 0.90451 0.24993 0.76359 0.0
H1902 H 0.88519 0.26816 0.78145 0.0
H1903 H 0.9021 0.27255 0.79544 0.0
H1904 H 0.88311 0.26384 0.80325 0.0
H1905 H 0.89686 0.20598 0.82916 0.0
H1906 H 0.92107 0.21621 0.84491 0.0
H1907 H 0.92679 0.25657 0.80988 0.0
C1908 C 0.87268 0.23336 0.77467 0.0
C1909 C 0.86069 0.22049 0.77462 0.0
C1910 C 0.86114 0.20845 0.78739 0.0
C1911 C 0.87323 0.20912 0.79992 0.0
C1912 C 0.88485 0.22191 0.79957 0.0
C1913 C 0.88472 0.23381 0.78728 0.0
C1914 C 0.89871 0.24621 0.78982 0.0
C1915 C 0.91079 0.24585 0.77516 0.0
C1916 C 0.89186 0.26373 0.79266 0.0
C1917 C 0.90669 0.23941 0.80545 0.0
C1918 C 0.89845 0.22542 0.81087 0.0
C1919 C 0.90339 0.21696 0.82507 0.0
C1920 C 0.9171 0.22295 0.834 0.0
C1921 C 0.92581 0.23728 0.82874 0.0
C1922 C 0.92049 0.24554 0.8142 0.0
H1923 H 0.4668 0.89537 0.4761 0.0
H1924 H 0.4993 0.88239 0.51702 0.0
H1925 H 0.507 0.85661 0.50258 0.0
H1926 H 0.45228 0.8538 0.46717 0.0
H1927 H 0.45203 0.8567 0.44503 0.0
H1928 H 0.44887 0.87413 0.45861 0.0
H1929 H 0.47319 0.88966 0.44463 0.0
H1930 H 0.47644 0.87227 0.43103 0.0
H1931 H 0.49324 0.87999 0.44367 0.0
H1932 H 0.51102 0.83215 0.48407 0.0
H1933 H 0.51172 0.81081 0.46218 0.0
H1934 H 0.47702 0.83946 0.43277 0.0
C1935 C 0.47546 0.88704 0.48204 0.0
C1936 C 0.48249 0.89094 0.49769 0.0
C1937 C 0.49391 0.87978 0.50497 0.0
C1938 C 0.4983 0.86506 0.4969 0.0
C1939 C 0.49124 0.86164 0.48149 0.0
C1940 C 0.48011 0.8723 0.47407 0.0
C1941 C 0.47459 0.86571 0.45728 0.0
C1942 C 0.45583 0.86239 0.45701 0.0
C1943 C 0.47967 0.87762 0.44333 0.0
C1944 C 0.48432 0.84967 0.45647 0.0
C1945 C 0.49377 0.84756 0.47063 0.0
C1946 C 0.50366 0.83366 0.47293 0.0
C1947 C 0.50391 0.82155 0.46046 0.0
C1948 C 0.49439 0.8234 0.44578 0.0
C1949 C 0.48453 0.83774 0.44378 0.0
H1950 H 0.13913 0.29737 0.77822 0.0
H1951 H 0.14339 0.24833 0.75673 0.0
H1952 H 0.12072 0.23833 0.77465 0.0
H1953 H 0.12909 0.28453 0.82019 0.0
H1954 H 0.11422 0.30081 0.8234 0.0
H1955 H 0.13134 0.30401 0.80952 0.0
H1956 H 0.11087 0.31144 0.78588 0.0
H1957 H 0.09371 0.30828 0.7997 0.0
H1958 H 0.09461 0.29704 0.78041 0.0
H1959 H 0.09801 0.23353 0.79499 0.0
H1960 H 0.07542 0.23441 0.81522 0.0
H1961 H 0.08399 0.28718 0.8222 0.0
C1962 C 0.13533 0.28451 0.77744 0.0
C1963 C 0.14302 0.27356 0.76618 0.0
C1964 C 0.13761 0.25688 0.76527 0.0
C1965 C 0.1248 0.2511 0.77543 0.0
C1966 C 0.11738 0.26219 0.78632 0.0
C1967 C 0.12231 0.27858 0.78732 0.0
C1968 C 0.11167 0.28803 0.79957 0.0
C1969 C 0.12221 0.29474 0.81403 0.0
C1970 C 0.10215 0.30202 0.79087 0.0
C1971 C 0.10005 0.27437 0.80529 0.0
C1972 C 0.1037 0.25956 0.79758 0.0
C1973 C 0.0949 0.24511 0.80096 0.0
C1974 C 0.08192 0.2458 0.81241 0.0
C1975 C 0.07757 0.26091 0.82026 0.0
C1976 C 0.08693 0.27536 0.81661 0.0
H1977 H 0.54533 0.61502 0.47984 0.0
H1978 H 0.49792 0.61417 0.50494 0.0
H1979 H 0.48824 0.63721 0.48743 0.0
H1980 H 0.54819 0.65913 0.47604 0.0
H1981 H 0.55754 0.65878 0.4558 0.0
H1982 H 0.56067 0.64174 0.46983 0.0
H1983 H 0.54939 0.62134 0.44765 0.0
H1984 H 0.54622 0.63833 0.43354 0.0
H1985 H 0.52921 0.62478 0.43866 0.0
H1986 H 0.48369 0.66047 0.46773 0.0
H1987 H 0.48468 0.68306 0.44731 0.0
H1988 H 0.53515 0.66964 0.43491 0.0
C1989 C 0.53286 0.61959 0.48151 0.0
C1990 C 0.5224 0.61281 0.49383 0.0
C1991 C 0.50623 0.61928 0.49576 0.0
C1992 C 0.50057 0.6323 0.48579 0.0
C1993 C 0.51121 0.6388 0.47391 0.0
C1994 C 0.52701 0.63272 0.4717 0.0
C1995 C 0.53605 0.64235 0.45831 0.0
C1996 C 0.55153 0.65101 0.46543 0.0
C1997 C 0.54047 0.63102 0.44367 0.0
C1998 C 0.52286 0.65483 0.45344 0.0
C1999 C 0.50862 0.65246 0.46257 0.0
C2000 C 0.49478 0.66248 0.46053 0.0
C2001 C 0.49552 0.67538 0.44896 0.0
C2002 C 0.51003 0.67829 0.43956 0.0
C2003 C 0.52383 0.6677 0.44178 0.0
H2004 H 0.87533 0.77078 0.74553 0.0
H2005 H 0.85794 0.81797 0.7267 0.0
H2006 H 0.88062 0.81829 0.70636 0.0
H2007 H 0.91948 0.77933 0.74104 0.0
H2008 H 0.92439 0.75854 0.73461 0.0
H2009 H 0.90708 0.76215 0.74814 0.0
H2010 H 0.88764 0.74696 0.72745 0.0
H2011 H 0.90488 0.7433 0.71387 0.0
H2012 H 0.88672 0.75376 0.7062 0.0
H2013 H 0.90474 0.8135 0.68783 0.0
H2014 H 0.92865 0.80367 0.67181 0.0
H2015 H 0.93057 0.75922 0.70199 0.0
C2016 C 0.87642 0.78125 0.73723 0.0
C2017 C 0.86479 0.79434 0.73769 0.0
C2018 C 0.86654 0.80771 0.72646 0.0
C2019 C 0.87945 0.80806 0.71492 0.0
C2020 C 0.89058 0.79493 0.71469 0.0
C2021 C 0.88923 0.78175 0.72551 0.0
C2022 C 0.90264 0.76901 0.72225 0.0
C2023 C 0.91408 0.76716 0.73741 0.0
C2024 C 0.89501 0.75227 0.71714 0.0
C2025 C 0.91166 0.77709 0.70787 0.0
C2026 C 0.9045 0.79206 0.7038 0.0
C2027 C 0.91043 0.80177 0.69087 0.0
C2028 C 0.92397 0.796 0.68175 0.0
C2029 C 0.93146 0.78058 0.68548 0.0
C2030 C 0.92524 0.7711 0.69887 0.0
H2031 H 0.04578 0.89364 0.53194 0.0
H2032 H 1.00096 0.89033 0.50211 0.0
H2033 H 0.9923 0.86569 0.51775 0.0
H2034 H 0.05264 0.84917 0.53458 0.0
H2035 H 0.06018 0.84998 0.55563 0.0
H2036 H 0.06299 0.86753 0.54215 0.0
H2037 H 0.04824 0.88632 0.56348 0.0
H2038 H 0.04532 0.86881 0.57699 0.0
H2039 H 0.02774 0.88087 0.57042 0.0
H2040 H 0.98796 0.84191 0.53682 0.0
H2041 H 0.98859 0.81978 0.5577 0.0
H2042 H 0.03682 0.83712 0.57461 0.0
C2043 C 0.03422 0.88766 0.5286 0.0
C2044 C 0.02397 0.89415 0.51588 0.0
C2045 C 0.00888 0.88593 0.51202 0.0
C2046 C 1.00388 0.87181 0.52077 0.0
C2047 C 0.01413 0.86589 0.53332 0.0
C2048 C 0.02902 0.87344 0.5372 0.0
C2049 C 0.03767 0.8644 0.55128 0.0
C2050 C 0.05436 0.85735 0.54556 0.0
C2051 C 0.03987 0.87578 0.56644 0.0
C2052 C 0.02525 0.85066 0.55469 0.0
C2053 C 0.01177 0.85181 0.54417 0.0
C2054 C 0.99853 0.84076 0.54502 0.0
C2055 C 0.99908 0.82812 0.55688 0.0
C2056 C 0.01284 0.82645 0.56775 0.0
C2057 C 0.02607 0.83801 0.5666 0.0
H2058 H 0.13653 0.74152 0.74605 0.0
H2059 H 0.15343 0.69443 0.72635 0.0
H2060 H 0.13134 0.6952 0.70528 0.0
H2061 H 0.09287 0.73456 0.73972 0.0
H2062 H 0.08858 0.75556 0.73354 0.0
H2063 H 0.10554 0.75133 0.74746 0.0
H2064 H 0.12576 0.76628 0.7276 0.0
H2065 H 0.10885 0.77062 0.71365 0.0
H2066 H 0.12685 0.7598 0.70625 0.0
H2067 H 0.1075 0.70072 0.68644 0.0
H2068 H 0.08381 0.71112 0.67033 0.0
H2069 H 0.08278 0.7554 0.70096 0.0
C2070 C 0.13567 0.73141 0.73726 0.0
C2071 C 0.14668 0.71779 0.73809 0.0
C2072 C 0.14497 0.70481 0.72633 0.0
C2073 C 0.13251 0.70517 0.71419 0.0
C2074 C 0.12184 0.71866 0.71381 0.0
C2075 C 0.1233 0.7316 0.72495 0.0
C2076 C 0.11028 0.74473 0.72158 0.0
C2077 C 0.09863 0.74665 0.73646 0.0
C2078 C 0.11843 0.76134 0.71699 0.0
C2079 C 0.10132 0.73711 0.70681 0.0
C2080 C 0.1082 0.72205 0.70261 0.0
C2081 C 0.10209 0.71257 0.68951 0.0
C2082 C 0.08867 0.71867 0.68034 0.0
C2083 C 0.08148 0.73421 0.68416 0.0
C2084 C 0.0879 0.74346 0.69772 0.0
H2085 H 0.99542 0.62303 0.51812 0.0
H2086 H 0.94942 0.603 0.53741 0.0
H2087 H 0.94861 0.6253 0.55823 0.0
H2088 H 0.0128 0.63533 0.55725 0.0
H2089 H 0.02202 0.65414 0.54952 0.0
H2090 H 0.019 0.63671 0.53586 0.0
H2091 H 1.00222 0.65517 0.51568 0.0
H2092 H 0.00521 0.67267 0.52928 0.0
H2093 H 0.98458 0.66644 0.52327 0.0
H2094 H 0.95275 0.64941 0.5772 0.0
H2095 H 0.96158 0.67402 0.5931 0.0
H2096 H 0.00487 0.6789 0.56176 0.0
C2097 C 0.98511 0.62342 0.52663 0.0
C2098 C 0.97255 0.61111 0.52617 0.0
C2099 C 0.95935 0.61204 0.53767 0.0
C2100 C 0.95871 0.62475 0.54949 0.0
C2101 C 0.97132 0.63655 0.5497 0.0
C2102 C 0.98426 0.63607 0.53858 0.0
C2103 C 0.99629 0.65026 0.54168 0.0
C2104 C 0.01355 0.64371 0.54636 0.0
C2105 C 0.99712 0.66182 0.52658 0.0
C2106 C 0.98809 0.65873 0.5563 0.0
C2107 C 0.9737 0.65059 0.56069 0.0
C2108 C 0.96402 0.65588 0.5739 0.0
C2109 C 0.96921 0.66982 0.58294 0.0
C2110 C 0.98397 0.67839 0.57879 0.0
C2111 C 0.99346 0.67275 0.56518 0.0
H2112 H 0.77035 0.86921 0.24366 0.0
H2113 H 0.77039 0.86543 0.19008 0.0
H2114 H 0.78857 0.89012 0.18845 0.0
H2115 H 0.77099 0.91403 0.24664 0.0
H2116 H 0.785 0.91454 0.26409 0.0
H2117 H 0.77139 0.89704 0.26111 0.0
H2118 H 0.79658 0.87728 0.26154 0.0
H2119 H 0.81025 0.89471 0.26458 0.0
H2120 H 0.81345 0.8808 0.2474 0.0
H2121 H 0.80597 0.9155 0.19256 0.0
H2122 H 0.82357 0.93856 0.20193 0.0
H2123 H 0.81464 0.92465 0.25316 0.0
C2124 C 0.77415 0.8737 0.23162 0.0
C2125 C 0.76893 0.86555 0.21695 0.0
C2126 C 0.77429 0.87155 0.20141 0.0
C2127 C 0.78455 0.88557 0.20038 0.0
C2128 C 0.78952 0.89333 0.21504 0.0
C2129 C 0.78469 0.88752 0.23038 0.0
C2130 C 0.79251 0.89774 0.2442 0.0
C2131 C 0.77918 0.90635 0.25463 0.0
C2132 C 0.80387 0.88699 0.25507 0.0
C2133 C 0.80243 0.91022 0.23421 0.0
C2134 C 0.80034 0.90752 0.21743 0.0
C2135 C 0.8079 0.91758 0.20568 0.0
C2136 C 0.81806 0.93061 0.21119 0.0
C2137 C 0.82093 0.93341 0.22835 0.0
C2138 C 0.81278 0.92304 0.23997 0.0
H2139 H 0.76984 0.13965 0.26584 0.0
H2140 H 0.78606 0.15557 0.3147 0.0
H2141 H 0.80616 0.13267 0.31558 0.0
H2142 H 0.77351 0.0953 0.2731 0.0
H2143 H 0.78113 0.0909 0.25261 0.0
H2144 H 0.76758 0.10826 0.25591 0.0
H2145 H 0.7893 0.12788 0.2428 0.0
H2146 H 0.80291 0.11059 0.23945 0.0
H2147 H 0.81009 0.12835 0.25103 0.0
H2148 H 0.82455 0.10829 0.31129 0.0
H2149 H 0.84064 0.08425 0.30187 0.0
H2150 H 0.81344 0.08427 0.25528 0.0
C2151 C 0.77753 0.1382 0.27677 0.0
C2152 C 0.7764 0.14945 0.29019 0.0
C2153 C 0.78682 0.14724 0.30419 0.0
C2154 C 0.79822 0.13421 0.30485 0.0
C2155 C 0.79914 0.12345 0.29139 0.0
C2156 C 0.78913 0.12528 0.27758 0.0
C2157 C 0.79303 0.1122 0.26463 0.0
C2158 C 0.77791 0.101 0.26138 0.0
C2159 C 0.7992 0.12024 0.24852 0.0
C2160 C 0.80679 0.10278 0.27333 0.0
C2161 C 0.81003 0.10947 0.28878 0.0
C2162 C 0.82219 0.103 0.29917 0.0
C2163 C 0.83138 0.08939 0.29363 0.0
C2164 C 0.82851 0.08237 0.27773 0.0
C2165 C 0.81592 0.08919 0.26753 0.0
H2166 H 0.39328 0.97807 0.9661 0.0
H2167 H 0.38902 0.0098 0.00936 0.0
H2168 H 0.36446 0.99405 0.01829 0.0
H2169 H 0.34907 0.97385 0.9584 0.0
H2170 H 0.35044 0.95248 0.95204 0.0
H2171 H 0.36773 0.96628 0.94889 0.0
H2172 H 0.38675 0.9463 0.96525 0.0
H2173 H 0.36951 0.93247 0.96849 0.0
H2174 H 0.38113 0.94026 0.98598 0.0
H2175 H 0.34063 0.97483 0.02287 0.0
H2176 H 0.31861 0.9536 0.02249 0.0
H2177 H 0.33787 0.93418 0.97625 0.0
C2178 C 0.38709 0.9818 0.97736 0.0
C2179 C 0.39323 0.99512 0.98709 0.0
C2180 C 0.3848 0.99948 1.00184 0.0
C2181 C 0.37075 0.99067 0.00698 0.0
C2182 C 0.36516 0.97753 0.99723 0.0
C2183 C 0.37299 0.97311 0.98271 0.0
C2184 C 0.36441 0.95838 0.97462 0.0
C2185 C 0.3575 0.96303 0.95747 0.0
C2186 C 0.37615 0.94347 0.97353 0.0
C2187 C 0.35057 0.95523 0.9869 0.0
C2188 C 0.35128 0.96642 0.99985 0.0
C2189 C 0.33996 0.96597 0.0128 0.0
C2190 C 0.32755 0.95377 0.01253 0.0
C2191 C 0.32651 0.94213 0.9994 0.0
C2192 C 0.33822 0.94296 0.9864 0.0
H2193 H 0.2315 0.37035 0.29602 0.0
H2194 H 0.26047 0.37217 0.25092 0.0
H2195 H 0.24409 0.39604 0.24123 0.0
H2196 H 0.19205 0.38165 0.27745 0.0
H2197 H 0.18573 0.39425 0.29474 0.0
H2198 H 0.1994 0.37696 0.29805 0.0
H2199 H 0.2208 0.39646 0.31213 0.0
H2200 H 0.20719 0.41379 0.30888 0.0
H2201 H 0.22809 0.41449 0.30117 0.0
H2202 H 0.22463 0.41947 0.23625 0.0
H2203 H 0.20391 0.44171 0.23662 0.0
H2204 H 0.18811 0.4259 0.28553 0.0
C2205 C 0.23428 0.37572 0.28406 0.0
C2206 C 0.24729 0.36942 0.27423 0.0
C2207 C 0.25069 0.3769 0.25873 0.0
C2208 C 0.24139 0.3904 0.25308 0.0
C2209 C 0.22876 0.3964 0.26309 0.0
C2210 C 0.22521 0.38938 0.27828 0.0
C2211 C 0.21125 0.39861 0.28676 0.0
C2212 C 0.19622 0.38718 0.2894 0.0
C2213 C 0.21719 0.40629 0.30321 0.0
C2214 C 0.20754 0.41187 0.27395 0.0
C2215 C 0.21774 0.41027 0.26037 0.0
C2216 C 0.21665 0.42094 0.24688 0.0
C2217 C 0.2049 0.43366 0.24729 0.0
C2218 C 0.1944 0.43581 0.26117 0.0
C2219 C 0.19578 0.42462 0.27464 0.0
H2220 H 0.12843 0.01274 0.46822 0.0
H2221 H 0.09093 0.03874 0.49635 0.0
H2222 H 0.11116 0.06073 0.50312 0.0
H2223 H 0.16255 0.02214 0.49591 0.0
H2224 H 0.17746 0.02474 0.47956 0.0
H2225 H 0.16004 0.01102 0.47666 0.0
H2226 H 0.1516 0.02699 0.45014 0.0
H2227 H 0.16903 0.04073 0.45293 0.0
H2228 H 0.14841 0.04906 0.45123 0.0
H2229 H 0.13502 0.0802 0.50641 0.0
H2230 H 0.16145 0.09565 0.50669 0.0
H2231 H 0.18416 0.05702 0.4772 0.0
C2232 C 0.12448 0.02312 0.47573 0.0
C2233 C 0.10808 0.02399 0.4818 0.0
C2234 C 0.10345 0.03769 0.49173 0.0
C2235 C 0.11484 0.05029 0.49558 0.0
C2236 C 0.1309 0.04901 0.48952 0.0
C2237 C 0.13579 0.03577 0.47986 0.0
C2238 C 0.15392 0.03739 0.47515 0.0
C2239 C 0.16409 0.02296 0.48225 0.0
C2240 C 0.15585 0.03862 0.45624 0.0
C2241 C 0.15839 0.05364 0.48359 0.0
C2242 C 0.14486 0.06014 0.49173 0.0
C2243 C 0.14572 0.07522 0.50012 0.0
C2244 C 0.16076 0.08393 0.50016 0.0
C2245 C 0.17484 0.07755 0.49197 0.0
C2246 C 0.17363 0.06212 0.48369 0.0
H2247 H 0.74188 0.13726 0.7417 0.0
H2248 H 0.72226 0.15681 0.69557 0.0
H2249 H 0.7014 0.13441 0.6948 0.0
H2250 H 0.73629 0.09367 0.73167 0.0
H2251 H 0.73025 0.08797 0.75237 0.0
H2252 H 0.74398 0.10531 0.74919 0.0
H2253 H 0.72399 0.12432 0.76543 0.0
H2254 H 0.71021 0.10704 0.76867 0.0
H2255 H 0.70262 0.12566 0.75901 0.0
H2256 H 0.68269 0.11008 0.69889 0.0
H2257 H 0.66668 0.08575 0.70796 0.0
H2258 H 0.69764 0.08206 0.75196 0.0
C2259 C 0.73327 0.13672 0.73137 0.0
C2260 C 0.73368 0.14883 0.7187 0.0
C2261 C 0.72207 0.14781 0.70551 0.0
C2262 C 0.71023 0.13507 0.70491 0.0
C2263 C 0.71009 0.12342 0.71762 0.0
C2264 C 0.72124 0.12412 0.73064 0.0
C2265 C 0.71804 0.11024 0.74292 0.0
C2266 C 0.73303 0.09861 0.7441 0.0
C2267 C 0.71344 0.11724 0.76002 0.0
C2268 C 0.70335 0.10166 0.73475 0.0
C2269 C 0.69904 0.10946 0.72013 0.0
C2270 C 0.68588 0.10392 0.71036 0.0
C2271 C 0.67677 0.09013 0.71571 0.0
C2272 C 0.68071 0.08201 0.73079 0.0
C2273 C 0.69432 0.08786 0.74033 0.0
H2274 H 0.38007 0.01545 0.54004 0.0
H2275 H 0.41348 0.03215 0.5014 0.0
H2276 H 0.3929 0.0527 0.49246 0.0
H2277 H 0.34208 0.02035 0.5172 0.0
H2278 H 0.33051 0.02795 0.53465 0.0
H2279 H 0.34767 0.01413 0.53793 0.0
H2280 H 0.36135 0.03545 0.55777 0.0
H2281 H 0.3442 0.04931 0.55462 0.0
H2282 H 0.36503 0.0563 0.55066 0.0
H2283 H 0.36876 0.07129 0.48739 0.0
H2284 H 0.34304 0.08747 0.48712 0.0
H2285 H 0.32563 0.06025 0.5301 0.0
C2286 C 0.38315 0.02349 0.52977 0.0
C2287 C 0.39844 0.02193 0.52133 0.0
C2288 C 0.40178 0.0327 0.50786 0.0
C2289 C 0.39019 0.04455 0.50275 0.0
C2290 C 0.37529 0.04566 0.51126 0.0
C2291 C 0.37175 0.03552 0.52455 0.0
C2292 C 0.35486 0.03956 0.53171 0.0
C2293 C 0.34309 0.02461 0.53028 0.0
C2294 C 0.35646 0.04551 0.54976 0.0
C2295 C 0.34949 0.05353 0.52033 0.0
C2296 C 0.36147 0.05678 0.5086 0.0
C2297 C 0.35936 0.06897 0.49662 0.0
C2298 C 0.34471 0.07821 0.49667 0.0
C2299 C 0.33227 0.07539 0.50872 0.0
C2300 C 0.33476 0.06274 0.52065 0.0
H2301 H 0.61141 0.4801 0.52332 0.0
H2302 H 0.63463 0.51636 0.55578 0.0
H2303 H 0.66103 0.50117 0.55402 0.0
H2304 H 0.63235 0.44456 0.53998 0.0
H2305 H 0.63449 0.4343 0.52026 0.0
H2306 H 0.61744 0.44818 0.5237 0.0
H2307 H 0.62602 0.46537 0.49804 0.0
H2308 H 0.64307 0.4515 0.49448 0.0
H2309 H 0.64682 0.47342 0.49672 0.0
H2310 H 0.68491 0.48223 0.54875 0.0
H2311 H 0.70464 0.46042 0.54076 0.0
H2312 H 0.66613 0.43601 0.51193 0.0
C2313 C 0.6221 0.4849 0.52994 0.0
C2314 C 0.62094 0.49943 0.53972 0.0
C2315 C 0.63516 0.50518 0.54836 0.0
C2316 C 0.65024 0.49668 0.54738 0.0
C2317 C 0.65093 0.48236 0.53775 0.0
C2318 C 0.63725 0.47646 0.5292 0.0
C2319 C 0.64132 0.46058 0.52 0.0
C2320 C 0.63077 0.44605 0.52637 0.0
C2321 C 0.63918 0.46286 0.50119 0.0
C2322 C 0.65941 0.45851 0.5247 0.0
C2323 C 0.6647 0.47127 0.53488 0.0
C2324 C 0.68092 0.47219 0.54075 0.0
C2325 C 0.69207 0.45978 0.53608 0.0
C2326 C 0.68698 0.44653 0.52567 0.0
C2327 C 0.67037 0.4459 0.51999 0.0
H2328 H 0.74618 0.26711 0.37626 0.0
H2329 H 0.69963 0.28556 0.35671 0.0
H2330 H 0.69823 0.30583 0.37955 0.0
H2331 H 0.73599 0.27166 0.42011 0.0
H2332 H 0.75653 0.27832 0.42595 0.0
H2333 H 0.75364 0.26468 0.40847 0.0
H2334 H 0.76935 0.28541 0.38973 0.0
H2335 H 0.77229 0.2991 0.40714 0.0
H2336 H 0.76243 0.30658 0.38854 0.0
H2337 H 0.70193 0.32437 0.40397 0.0
H2338 H 0.71081 0.34066 0.42826 0.0
H2339 H 0.75546 0.31105 0.43204 0.0
C2340 C 0.73562 0.27531 0.37692 0.0
C2341 C 0.72302 0.27478 0.36467 0.0
C2342 C 0.7095 0.28586 0.36584 0.0
C2343 C 0.70855 0.29736 0.37882 0.0
C2344 C 0.72122 0.29769 0.39058 0.0
C2345 C 0.73453 0.28701 0.38978 0.0
C2346 C 0.74675 0.29047 0.40375 0.0
C2347 C 0.74831 0.27538 0.41525 0.0
C2348 C 0.76371 0.2957 0.39688 0.0
C2349 C 0.73825 0.30479 0.41243 0.0
C2350 C 0.7235 0.30865 0.40464 0.0
C2351 C 0.71348 0.3215 0.41015 0.0
C2352 C 0.71872 0.33078 0.42391 0.0
C2353 C 0.73393 0.3273 0.43203 0.0
C2354 C 0.74372 0.31398 0.42623 0.0
H2355 H 0.51579 0.04347 0.88281 0.0
H2356 H 0.53197 0.00392 0.91546 0.0
H2357 H 0.55311 0.99587 0.89515 0.0
H2358 H 0.52146 0.02163 0.84442 0.0
H2359 H 0.52909 0.03942 0.83332 0.0
H2360 H 0.515 0.04215 0.85033 0.0
H2361 H 0.53598 0.06187 0.86475 0.0
H2362 H 0.55011 0.05924 0.84775 0.0
H2363 H 0.55681 0.05486 0.86862 0.0
H2364 H 0.57236 0.99182 0.87142 0.0
H2365 H 0.58885 0.99226 0.84587 0.0
H2366 H 0.5613 0.03511 0.82873 0.0
C2367 C 0.52385 0.03319 0.88576 0.0
C2368 C 0.52202 0.02424 0.90074 0.0
C2369 C 0.5328 0.01077 0.90397 0.0
C2370 C 0.54496 0.00616 0.89255 0.0
C2371 C 0.54634 0.01515 0.87792 0.0
C2372 C 0.53614 0.02842 0.87448 0.0
C2373 C 0.54036 0.03601 0.8578 0.0
C2374 C 0.5256 0.03472 0.84576 0.0
C2375 C 0.54616 0.05407 0.85986 0.0
C2376 C 0.55449 0.0249 0.85243 0.0
C2377 C 0.5577 0.01296 0.86425 0.0
C2378 C 0.57006 1.00119 0.86213 0.0
C2379 C 0.57946 1.00164 0.84759 0.0
C2380 C 0.57657 0.01383 0.83527 0.0
C2381 C 0.56382 0.02557 0.8378 0.0
H2382 H 0.29175 0.24676 0.375 0.0
H2383 H 0.26195 0.22304 0.3368 0.0
H2384 H 0.25446 0.20081 0.35639 0.0
H2385 H 0.30725 0.20921 0.39391 0.0
H2386 H 0.30616 0.21716 0.41476 0.0
H2387 H 0.30944 0.23113 0.39769 0.0
H2388 H 0.28384 0.24813 0.40657 0.0
H2389 H 0.28046 0.2342 0.42365 0.0
H2390 H 0.26412 0.23785 0.40882 0.0
H2391 H 0.25043 0.18098 0.37984 0.0
H2392 H 0.24929 0.16528 0.40602 0.0
H2393 H 0.28111 0.20194 0.42953 0.0
C2394 C 0.28373 0.23682 0.37076 0.0
C2395 C 0.27741 0.23665 0.35436 0.0
C2396 C 0.2668 0.22353 0.34933 0.0
C2397 C 0.26254 0.2108 0.36035 0.0
C2398 C 0.26889 0.21138 0.37642 0.0
C2399 C 0.2792 0.22407 0.38167 0.0
C2400 C 0.28401 0.22185 0.39975 0.0
C2401 C 0.30283 0.21971 0.40163 0.0
C2402 C 0.27773 0.23637 0.41032 0.0
C2403 C 0.27484 0.20592 0.4038 0.0
C2404 C 0.26629 0.20006 0.39011 0.0
C2405 C 0.25707 0.18545 0.39064 0.0
C2406 C 0.25657 0.17657 0.40556 0.0
C2407 C 0.26513 0.18234 0.41982 0.0
C2408 C 0.27433 0.19728 0.41888 0.0
H2409 H 0.49862 0.46553 0.87918 0.0
H2410 H 0.47059 0.48809 0.91901 0.0
H2411 H 0.44825 0.49486 0.8993 0.0
H2412 H 0.48721 0.49536 0.84754 0.0
H2413 H 0.48585 0.48013 0.83123 0.0
H2414 H 0.49979 0.47698 0.84843 0.0
H2415 H 0.48595 0.44863 0.8544 0.0
H2416 H 0.47197 0.45169 0.83722 0.0
H2417 H 0.46388 0.44762 0.8576 0.0
H2418 H 0.42889 0.4992 0.87553 0.0
H2419 H 0.41355 0.50069 0.84913 0.0
H2420 H 0.45382 0.47545 0.82428 0.0
C2421 C 0.48784 0.472 0.88374 0.0
C2422 C 0.48636 0.47615 0.90075 0.0
C2423 C 0.47194 0.48449 0.90616 0.0
C2424 C 0.45921 0.48851 0.89502 0.0
C2425 C 0.46102 0.48418 0.87843 0.0
C2426 C 0.47495 0.47612 0.87275 0.0
C2427 C 0.47365 0.47278 0.85426 0.0
C2428 C 0.48745 0.48186 0.84481 0.0
C2429 C 0.47387 0.45407 0.85066 0.0
C2430 C 0.45679 0.48018 0.85047 0.0
C2431 C 0.44977 0.48669 0.86462 0.0
C2432 C 0.43423 0.49409 0.86438 0.0
C2433 C 0.42556 0.49477 0.84931 0.0
C2434 C 0.43237 0.48807 0.8346 0.0
C2435 C 0.44829 0.48078 0.83524 0.0
H2436 H 0.73473 0.74734 0.13252 0.0
H2437 H 0.70813 0.71449 0.1656 0.0
H2438 H 0.71092 0.69168 0.14534 0.0
H2439 H 0.71616 0.73155 0.09479 0.0
H2440 H 0.73476 0.73374 0.08273 0.0
H2441 H 0.73114 0.74735 0.10003 0.0
H2442 H 0.7593 0.73885 0.11289 0.0
H2443 H 0.76298 0.72516 0.09565 0.0
H2444 H 0.76354 0.71724 0.11652 0.0
H2445 H 0.71736 0.67223 0.12198 0.0
H2446 H 0.72516 0.65786 0.09634 0.0
H2447 H 0.7457 0.70381 0.07716 0.0
C2448 C 0.72957 0.73531 0.13549 0.0
C2449 C 0.72124 0.73264 0.15065 0.0
C2450 C 0.71447 0.71681 0.15402 0.0
C2451 C 0.71606 0.70376 0.14263 0.0
C2452 C 0.72431 0.70678 0.12781 0.0
C2453 C 0.73081 0.72219 0.12411 0.0
C2454 C 0.73857 0.72222 0.10701 0.0
C2455 C 0.72962 0.73444 0.09546 0.0
C2456 C 0.7572 0.7261 0.10809 0.0
C2457 C 0.7355 0.70441 0.10173 0.0
C2458 C 0.72739 0.69571 0.11399 0.0
C2459 C 0.72351 0.67898 0.11219 0.0
C2460 C 0.72789 0.67095 0.09743 0.0
C2461 C 0.73587 0.67963 0.0844 0.0
C2462 C 0.73975 0.69664 0.08677 0.0
H2463 H 0.99294 0.04516 0.12491 0.0
H2464 H 0.97614 0.00604 0.09176 0.0
H2465 H 0.95499 0.99785 0.11202 0.0
H2466 H 0.98726 0.02293 0.16293 0.0
H2467 H 0.97984 0.04056 0.1744 0.0
H2468 H 0.99382 0.04353 0.15733 0.0
H2469 H 0.97289 0.06342 0.14338 0.0
H2470 H 0.95888 0.06057 0.16045 0.0
H2471 H 0.95198 0.05646 0.13956 0.0
H2472 H 0.93605 0.99336 0.13585 0.0
H2473 H 0.91981 0.99338 0.16153 0.0
H2474 H 0.9476 0.03617 0.17914 0.0
C2475 C 0.98472 0.03496 0.12184 0.0
C2476 C 0.98641 0.02613 0.10674 0.0
C2477 C 0.97542 0.01279 0.10334 0.0
C2478 C 0.96326 0.00809 0.11474 0.0
C2479 C 0.96207 0.0169 0.12952 0.0
C2480 C 0.97241 0.03011 0.1331 0.0
C2481 C 0.96836 0.03748 0.14993 0.0
C2482 C 0.98321 0.03603 0.16185 0.0
C2483 C 0.96269 0.05556 0.14822 0.0
C2484 C 0.95419 0.02628 0.15523 0.0
C2485 C 0.95082 0.01451 0.14323 0.0
C2486 C 0.93846 1.00263 0.14527 0.0
C2487 C 0.92919 1.00284 0.1599 0.0
C2488 C 0.93219 0.0149 0.17238 0.0
C2489 C 0.94498 0.02673 0.16995 0.0
H2490 H 0.27497 0.78552 0.14774 0.0
H2491 H 0.30313 0.74654 0.12395 0.0
H2492 H 0.30147 0.76155 0.0974 0.0
H2493 H 0.24744 0.79324 0.11368 0.0
H2494 H 0.24683 0.81534 0.11682 0.0
H2495 H 0.25054 0.80178 0.13413 0.0
H2496 H 0.27774 0.81756 0.14087 0.0
H2497 H 0.27412 0.83118 0.12358 0.0
H2498 H 0.29325 0.81984 0.12503 0.0
H2499 H 0.29669 0.78054 0.07341 0.0
H2500 H 0.28878 0.80212 0.05337 0.0
H2501 H 0.26329 0.82884 0.09235 0.0
C2502 C 0.28092 0.78023 0.13698 0.0
C2503 C 0.28914 0.76479 0.13795 0.0
C2504 C 0.29658 0.75821 0.1235 0.0
C2505 C 0.29579 0.7667 0.10837 0.0
C2506 C 0.28752 0.78179 0.10782 0.0
C2507 C 0.2802 0.78853 0.12171 0.0
C2508 C 0.27178 0.80481 0.1176 0.0
C2509 C 0.25303 0.80372 0.12075 0.0
C2510 C 0.2797 0.8192 0.12735 0.0
C2511 C 0.27548 0.80613 0.09922 0.0
C2512 C 0.28462 0.79273 0.09388 0.0
C2513 C 0.28947 0.79106 0.07744 0.0
C2514 C 0.2848 0.80335 0.0661 0.0
C2515 C 0.27527 0.81717 0.07118 0.0
C2516 C 0.27067 0.81855 0.08805 0.0
H2517 H 0.03426 0.48715 0.11417 0.0
H2518 H 0.9912 0.46729 0.13949 0.0
H2519 H 0.00587 0.46991 0.1662 0.0
H2520 H 0.06478 0.46629 0.13966 0.0
H2521 H 0.07916 0.48342 0.13946 0.0
H2522 H 0.06524 0.48023 0.12223 0.0
H2523 H 0.05417 0.51011 0.12565 0.0
H2524 H 0.06805 0.51339 0.1429 0.0
H2525 H 0.04613 0.5166 0.14542 0.0
H2526 H 0.02501 0.47477 0.19026 0.0
H2527 H 0.04756 0.48119 0.21002 0.0
H2528 H 0.07859 0.49734 0.16931 0.0
C2529 C 0.02794 0.48321 0.1253 0.0
C2530 C 0.01145 0.47714 0.12464 0.0
C2531 C 1.00366 0.47231 0.1396 0.0
C2532 C 0.01194 0.47362 0.15487 0.0
C2533 C 0.0281 0.47971 0.15506 0.0
C2534 C 0.03606 0.48438 0.14068 0.0
C2535 C 0.0535 0.4905 0.14439 0.0
C2536 C 0.06643 0.47945 0.13593 0.0
C2537 C 0.05558 0.50873 0.13929 0.0
C2538 C 0.05406 0.48856 0.16309 0.0
C2539 C 0.03925 0.48235 0.16897 0.0
C2540 C 0.03666 0.47966 0.18581 0.0
C2541 C 0.04952 0.48344 0.19695 0.0
C2542 C 0.06485 0.48983 0.19127 0.0
C2543 C 0.0671 0.49233 0.17405 0.0
H2544 H 0.36206 0.72058 0.28695 0.0
H2545 H 0.37725 0.75061 0.24512 0.0
H2546 H 0.40365 0.75704 0.25931 0.0
H2547 H 0.37936 0.7473 0.31845 0.0
H2548 H 0.38583 0.7306 0.33175 0.0
H2549 H 0.36826 0.72788 0.31817 0.0
H2550 H 0.38201 0.70201 0.3052 0.0
H2551 H 0.39961 0.70464 0.31877 0.0
H2552 H 0.40252 0.70373 0.29666 0.0
H2553 H 0.42847 0.76007 0.27774 0.0
H2554 H 0.44971 0.76048 0.29985 0.0
H2555 H 0.41846 0.72919 0.33032 0.0
C2556 C 0.37101 0.72842 0.28077 0.0
C2557 C 0.36759 0.73513 0.26493 0.0
C2558 C 0.37953 0.74548 0.25731 0.0
C2559 C 0.3946 0.74913 0.26523 0.0
C2560 C 0.39756 0.74244 0.28086 0.0
C2561 C 0.38609 0.73237 0.28862 0.0
C2562 C 0.39226 0.72718 0.30564 0.0
C2563 C 0.38074 0.73363 0.31931 0.0
C2564 C 0.39422 0.70827 0.30662 0.0
C2565 C 0.40896 0.73588 0.30619 0.0
C2566 C 0.41179 0.7445 0.2917 0.0
C2567 C 0.4264 0.75336 0.28915 0.0
C2568 C 0.43843 0.75346 0.30174 0.0
C2569 C 0.43578 0.74485 0.31679 0.0
C2570 C 0.42079 0.73598 0.319 0.0
H2571 H 0.9672 0.39558 0.97988 0.0
H2572 H 0.0096 0.38974 0.01267 0.0
H2573 H 0.01849 0.36548 0.99658 0.0
H2574 H 0.95883 0.35163 0.97503 0.0
H2575 H 0.95279 0.35337 0.95358 0.0
H2576 H 0.94977 0.37057 0.96748 0.0
H2577 H 0.96673 0.38948 0.94794 0.0
H2578 H 0.96987 0.37233 0.93401 0.0
H2579 H 0.98743 0.38354 0.94221 0.0
H2580 H 0.0232 0.34217 0.9769 0.0
H2581 H 0.02294 0.32058 0.95538 0.0
H2582 H 0.97675 0.34016 0.9359 0.0
C2583 C 0.97828 0.38914 0.98378 0.0
C2584 C 0.98778 0.3948 0.9975 0.0
C2585 C 1.00228 0.38599 1.00202 0.0
C2586 C 0.00739 0.37208 0.99302 0.0
C2587 C 0.99785 0.36695 0.97953 0.0
C2588 C 0.98355 0.37511 0.97495 0.0
C2589 C 0.97553 0.36684 0.95999 0.0
C2590 C 0.9582 0.36021 0.96428 0.0
C2591 C 0.97486 0.37876 0.94516 0.0
C2592 C 0.98759 0.35279 0.95691 0.0
C2593 C 1.00039 0.35316 0.96832 0.0
C2594 C 0.01316 0.34164 0.96799 0.0
C2595 C 0.01281 0.32932 0.95574 0.0
C2596 C 0.99972 0.32843 0.94398 0.0
C2597 C 0.98699 0.34047 0.9446 0.0
H2598 H 0.63967 0.76363 0.27047 0.0
H2599 H 0.65789 0.81087 0.28893 0.0
H2600 H 0.63566 0.81126 0.30976 0.0
H2601 H 0.5961 0.77238 0.27532 0.0
H2602 H 0.59082 0.75169 0.28184 0.0
H2603 H 0.60819 0.75502 0.2683 0.0
H2604 H 0.62739 0.73983 0.28906 0.0
H2605 H 0.61008 0.73643 0.30265 0.0
H2606 H 0.62841 0.74678 0.31028 0.0
H2607 H 0.61123 0.80693 0.32822 0.0
H2608 H 0.58668 0.79782 0.34372 0.0
H2609 H 0.58447 0.75285 0.31411 0.0
C2610 C 0.63892 0.77409 0.27885 0.0
C2611 C 0.65061 0.7872 0.27808 0.0
C2612 C 0.64927 0.80057 0.2894 0.0
C2613 C 0.63661 0.80096 0.30122 0.0
C2614 C 0.62534 0.78786 0.30167 0.0
C2615 C 0.62639 0.77463 0.29084 0.0
C2616 C 0.61276 0.76205 0.29416 0.0
C2617 C 0.60129 0.76018 0.279 0.0
C2618 C 0.6201 0.74528 0.29935 0.0
C2619 C 0.60389 0.77032 0.3085 0.0
C2620 C 0.61135 0.78521 0.31256 0.0
C2621 C 0.60537 0.79521 0.32525 0.0
C2622 C 0.59145 0.78983 0.33409 0.0
C2623 C 0.58363 0.77448 0.33037 0.0
C2624 C 0.59 0.76468 0.31728 0.0
H2625 H 0.03634 0.12947 0.99436 0.0
H2626 H 0.00962 0.09119 0.96734 0.0
H2627 H 1.0018 0.11161 0.94602 0.0
H2628 H 0.00736 0.16276 0.98589 0.0
H2629 H 0.02332 0.17826 0.9837 0.0
H2630 H 0.02665 0.16069 0.99703 0.0
H2631 H 0.05336 0.15353 0.98094 0.0
H2632 H 0.05009 0.17103 0.96752 0.0
H2633 H 0.05232 0.15059 0.9588 0.0
H2634 H 0.99707 0.13598 0.92744 0.0
H2635 H 0.99585 0.16271 0.91275 0.0
H2636 H 0.02532 0.18551 0.9518 0.0
C2637 C 0.02871 0.12543 0.98404 0.0
C2638 C 0.02365 0.10867 0.98251 0.0
C2639 C 0.01384 0.10387 0.96869 0.0
C2640 C 0.00925 0.11541 0.95655 0.0
C2641 C 0.01455 0.13175 0.95835 0.0
C2642 C 0.02406 0.13679 0.97174 0.0
C2643 C 0.0283 0.15509 0.97052 0.0
C2644 C 0.02097 0.16477 0.98516 0.0
C2645 C 0.04714 0.15771 0.96937 0.0
C2646 C 0.01973 0.1595 0.95435 0.0
C2647 C 0.01184 0.14585 0.94758 0.0
C2648 C 1.00313 0.14678 0.93267 0.0
C2649 C 1.00243 0.16207 0.92446 0.0
C2650 C 0.0104 0.17629 0.93112 0.0
C2651 C 0.0192 0.17488 0.94629 0.0
H2652 H 0.37645 0.26642 0.24299 0.0
H2653 H 0.35447 0.30982 0.22016 0.0
H2654 H 0.37647 0.31003 0.19918 0.0
H2655 H 0.41939 0.27885 0.23658 0.0
H2656 H 0.42635 0.25811 0.23221 0.0
H2657 H 0.40894 0.26134 0.24569 0.0
H2658 H 0.39092 0.24218 0.22712 0.0
H2659 H 0.40827 0.23892 0.21357 0.0
H2660 H 0.38901 0.24662 0.20531 0.0
H2661 H 0.40034 0.30548 0.18036 0.0
H2662 H 0.42503 0.2966 0.16494 0.0
H2663 H 0.4322 0.25623 0.1997 0.0
C2664 C 0.37635 0.27604 0.23367 0.0
C2665 C 0.36356 0.288 0.23317 0.0
C2666 C 0.36388 0.30031 0.22065 0.0
C2667 C 0.37642 0.30062 0.20872 0.0
C2668 C 0.38868 0.28858 0.20944 0.0
C2669 C 0.38884 0.27654 0.22159 0.0
C2670 C 0.40346 0.26498 0.21934 0.0
C2671 C 0.41523 0.26588 0.23435 0.0
C2672 C 0.39755 0.24712 0.21614 0.0
C2673 C 0.41141 0.27239 0.204 0.0
C2674 C 0.40264 0.286 0.19854 0.0
C2675 C 0.40731 0.29483 0.1845 0.0
C2676 C 0.42131 0.28961 0.17575 0.0
C2677 C 0.43054 0.27565 0.18101 0.0
C2678 C 0.42551 0.26702 0.19542 0.0
H2679 H 0.52692 0.38247 0.01192 0.0
H2680 H 0.56119 0.41179 0.04146 0.0
H2681 H 0.55955 0.39112 0.06395 0.0
H2682 H 0.50109 0.3684 0.04551 0.0
H2683 H 0.4982 0.34788 0.0371 0.0
H2684 H 0.5018 0.36512 0.02342 0.0
H2685 H 0.52684 0.34982 0.01066 0.0
H2686 H 0.52332 0.33254 0.02431 0.0
H2687 H 0.54326 0.34265 0.02402 0.0
H2688 H 0.55362 0.36774 0.08354 0.0
H2689 H 0.54514 0.3423 0.09829 0.0
H2690 H 0.5157 0.32725 0.05572 0.0
C2691 C 0.53401 0.38453 0.02317 0.0
C2692 C 0.54418 0.39875 0.02498 0.0
C2693 C 0.55343 0.40094 0.03978 0.0
C2694 C 0.55251 0.3893 0.05265 0.0
C2695 C 0.54242 0.37542 0.05047 0.0
C2696 C 0.53343 0.37289 0.03606 0.0
C2697 C 0.52389 0.35666 0.03676 0.0
C2698 C 0.50513 0.3597 0.03563 0.0
C2699 C 0.52968 0.34471 0.02313 0.0
C2700 C 0.52886 0.35052 0.05384 0.0
C2701 C 0.53944 0.36162 0.06158 0.0
C2702 C 0.5454 0.35892 0.07758 0.0
C2703 C 0.54047 0.34448 0.08588 0.0
C2704 C 0.52981 0.3328 0.07815 0.0
C2705 C 0.524 0.33588 0.06187 0.0
H2706 H 0.65015 0.21601 0.22425 0.0
H2707 H 0.64471 0.2572 0.25842 0.0
H2708 H 0.61922 0.26568 0.24393 0.0
H2709 H 0.6358 0.23753 0.18788 0.0
H2710 H 0.62485 0.21995 0.17936 0.0
H2711 H 0.64267 0.21681 0.19248 0.0
H2712 H 0.62518 0.19831 0.21195 0.0
H2713 H 0.60732 0.20135 0.19886 0.0
H2714 H 0.6063 0.20634 0.22061 0.0
H2715 H 0.59449 0.26995 0.22595 0.0
H2716 H 0.57187 0.26976 0.20533 0.0
H2717 H 0.5927 0.2258 0.18258 0.0
C2718 C 0.64352 0.22674 0.22873 0.0
C2719 C 0.64955 0.23602 0.24241 0.0
C2720 C 0.64054 0.25006 0.2478 0.0
C2721 C 0.62598 0.25493 0.23972 0.0
C2722 C 0.62048 0.24567 0.2262 0.0
C2723 C 0.62892 0.23186 0.22071 0.0
C2724 C 0.62028 0.22425 0.20574 0.0
C2725 C 0.63158 0.22467 0.19046 0.0
C2726 C 0.61443 0.20651 0.20952 0.0
C2727 C 0.60572 0.23594 0.20373 0.0
C2728 C 0.60609 0.24816 0.21572 0.0
C2729 C 0.59401 0.26039 0.21653 0.0
C2730 C 0.58115 0.26013 0.20481 0.0
C2731 C 0.5804 0.24771 0.19238 0.0
C2732 C 0.59296 0.23551 0.19184 0.0
H2733 H 0.47573 0.12945 0.01291 0.0
H2734 H 0.50204 0.09129 0.04009 0.0
H2735 H 0.50962 0.11171 0.0616 0.0
H2736 H 0.5047 0.1632 0.02232 0.0
H2737 H 0.4886 0.17846 0.02436 0.0
H2738 H 0.4857 0.161 0.01069 0.0
H2739 H 0.45864 0.15329 0.02601 0.0
H2740 H 0.46148 0.17068 0.03975 0.0
H2741 H 0.45916 0.15011 0.04812 0.0
H2742 H 0.51364 0.13581 0.08061 0.0
H2743 H 0.51411 0.16227 0.0959 0.0
H2744 H 0.48524 0.18517 0.05668 0.0
C2745 C 0.48328 0.12546 0.02327 0.0
C2746 C 0.48822 0.10872 0.02483 0.0
C2747 C 0.49791 0.10396 0.03872 0.0
C2748 C 0.50237 0.1155 0.05096 0.0
C2749 C 0.49711 0.13181 0.04918 0.0
C2750 C 0.48783 0.13684 0.03568 0.0
C2751 C 0.48343 0.15507 0.03706 0.0
C2752 C 0.49107 0.16502 0.02276 0.0
C2753 C 0.46456 0.15742 0.03778 0.0
C2754 C 0.49159 0.15942 0.0535 0.0
C2755 C 0.49943 0.1458 0.06023 0.0
C2756 C 0.50756 0.14657 0.07547 0.0
C2757 C 0.50765 0.16164 0.08412 0.0
C2758 C 0.49963 0.1758 0.07757 0.0
C2759 C 0.4916 0.17463 0.06196 0.0
H2760 H 0.26099 0.37126 0.74178 0.0
H2761 H 0.28586 0.34741 0.70058 0.0
H2762 H 0.30732 0.36911 0.70111 0.0
H2763 H 0.26916 0.41367 0.72838 0.0
H2764 H 0.27237 0.42137 0.74913 0.0
H2765 H 0.2587 0.40402 0.74554 0.0
H2766 H 0.27554 0.3865 0.76648 0.0
H2767 H 0.28927 0.40378 0.77011 0.0
H2768 H 0.29753 0.38412 0.76361 0.0
H2769 H 0.32652 0.39274 0.70633 0.0
H2770 H 0.34211 0.41737 0.71567 0.0
H2771 H 0.3049 0.42681 0.75311 0.0
C2772 C 0.27086 0.37069 0.73276 0.0
C2773 C 0.27177 0.35744 0.72125 0.0
C2774 C 0.28501 0.35716 0.70976 0.0
C2775 C 0.29723 0.36953 0.70987 0.0
C2776 C 0.29606 0.38225 0.72145 0.0
C2777 C 0.28321 0.38302 0.73265 0.0
C2778 C 0.28507 0.39805 0.74388 0.0
C2779 C 0.27046 0.40999 0.74159 0.0
C2780 C 0.28697 0.39279 0.7621 0.0
C2781 C 0.30104 0.4055 0.73729 0.0
C2782 C 0.30712 0.39613 0.72435 0.0
C2783 C 0.32187 0.4002 0.71643 0.0
C2784 C 0.33069 0.41417 0.7219 0.0
C2785 C 0.32479 0.424 0.73516 0.0
C2786 C 0.30966 0.41963 0.74285 0.0
H2787 H 0.26804 0.63461 0.7631 0.0
H2788 H 0.28222 0.64971 0.8128 0.0
H2789 H 0.30189 0.62643 0.81437 0.0
H2790 H 0.27088 0.59017 0.76954 0.0
H2791 H 0.27958 0.58605 0.74944 0.0
H2792 H 0.2661 0.60354 0.75231 0.0
H2793 H 0.28879 0.62312 0.74084 0.0
H2794 H 0.30232 0.60568 0.7379 0.0
H2795 H 0.30911 0.6231 0.75021 0.0
H2796 H 0.31961 0.60154 0.81088 0.0
H2797 H 0.33574 0.5774 0.80204 0.0
H2798 H 0.31172 0.57897 0.75375 0.0
C2799 C 0.27523 0.6329 0.77432 0.0
C2800 C 0.27363 0.64394 0.78786 0.0
C2801 C 0.28337 0.64146 0.80227 0.0
C2802 C 0.2945 0.62823 0.80331 0.0
C2803 C 0.29588 0.61762 0.78976 0.0
C2804 C 0.28664 0.61984 0.77548 0.0
C2805 C 0.29108 0.60695 0.76251 0.0
C2806 C 0.27601 0.59603 0.7582 0.0
C2807 C 0.29825 0.61521 0.74695 0.0
C2808 C 0.30421 0.59716 0.77178 0.0
C2809 C 0.30664 0.6035 0.78751 0.0
C2810 C 0.31795 0.59657 0.79852 0.0
C2811 C 0.3272 0.5829 0.79328 0.0
C2812 C 0.32532 0.57632 0.77705 0.0
C2813 C 0.31349 0.58356 0.76624 0.0
H2814 H 0.90065 0.47606 0.48537 0.0
H2815 H 0.87658 0.51458 0.45672 0.0
H2816 H 0.84993 0.49965 0.45899 0.0
H2817 H 0.87751 0.44176 0.46757 0.0
H2818 H 0.87645 0.43041 0.48676 0.0
H2819 H 0.89367 0.44411 0.4829 0.0
H2820 H 0.88753 0.45987 0.51017 0.0
H2821 H 0.87031 0.44622 0.5141 0.0
H2822 H 0.86718 0.4683 0.51348 0.0
H2823 H 0.82572 0.48117 0.46527 0.0
H2824 H 0.80577 0.45958 0.4739 0.0
H2825 H 0.84554 0.4324 0.49766 0.0
C2826 C 0.88975 0.48134 0.47961 0.0
C2827 C 0.89068 0.49649 0.47085 0.0
C2828 C 0.87618 0.50293 0.46334 0.0
C2829 C 0.86098 0.49457 0.46463 0.0
C2830 C 0.86048 0.4797 0.47335 0.0
C2831 C 0.87449 0.47305 0.48061 0.0
C2832 C 0.87056 0.45676 0.48911 0.0
C2833 C 0.88012 0.44241 0.4811 0.0
C2834 C 0.8741 0.45786 0.50783 0.0
C2835 C 0.85213 0.45536 0.48562 0.0
C2836 C 0.84657 0.46879 0.4766 0.0
C2837 C 0.82994 0.47056 0.47226 0.0
C2838 C 0.8187 0.45829 0.47728 0.0
C2839 C 0.82412 0.44434 0.48642 0.0
C2840 C 0.84109 0.44285 0.49054 0.0
H2841 H 0.74499 0.87623 0.76624 0.0
H2842 H 0.72436 0.85647 0.8117 0.0
H2843 H 0.70346 0.87866 0.81179 0.0
H2844 H 0.73901 0.91983 0.77614 0.0
H2845 H 0.73345 0.92547 0.75524 0.0
H2846 H 0.74719 0.9083 0.75889 0.0
H2847 H 0.7277 0.88906 0.74195 0.0
H2848 H 0.71392 0.90616 0.73825 0.0
H2849 H 0.70619 0.88743 0.74762 0.0
H2850 H 0.68472 0.90264 0.80704 0.0
H2851 H 0.66868 0.92665 0.79737 0.0
H2852 H 0.70072 0.93096 0.75451 0.0
C2853 C 0.73616 0.87668 0.77628 0.0
C2854 C 0.73629 0.86455 0.78895 0.0
C2855 C 0.72439 0.86547 0.80176 0.0
C2856 C 0.71252 0.87809 0.80198 0.0
C2857 C 0.71265 0.88975 0.78927 0.0
C2858 C 0.7241 0.88918 0.77663 0.0
C2859 C 0.72113 0.90304 0.76425 0.0
C2860 C 0.73609 0.91486 0.7636 0.0
C2861 C 0.71699 0.896 0.747 0.0
C2862 C 0.7062 0.91143 0.77192 0.0
C2863 C 0.7016 0.90356 0.78638 0.0
C2864 C 0.68815 0.90886 0.79568 0.0
C2865 C 0.67903 0.92246 0.79 0.0
C2866 C 0.68326 0.93065 0.77506 0.0
C2867 C 0.69718 0.92508 0.76602 0.0
H2868 H 0.62486 0.51883 0.99116 0.0
H2869 H 0.6096 0.53392 0.94174 0.0
H2870 H 0.63173 0.55492 0.9415 0.0
H2871 H 0.63425 0.56058 0.00598 0.0
H2872 H 0.65174 0.55404 0.01825 0.0
H2873 H 0.63469 0.54001 0.01462 0.0
H2874 H 0.65496 0.51833 1.00264 0.0
H2875 H 0.67205 0.53231 0.00619 0.0
H2876 H 0.66832 0.52405 0.98574 0.0
H2877 H 0.65612 0.57362 0.94598 0.0
H2878 H 0.68045 0.58971 0.95556 0.0
H2879 H 0.67914 0.56397 1.00268 0.0
C2880 C 0.626 0.52666 0.98035 0.0
C2881 C 0.61549 0.52445 0.96637 0.0
C2882 C 0.61765 0.53496 0.95246 0.0
C2883 C 0.63014 0.54708 0.95224 0.0
C2884 C 0.64032 0.54878 0.96611 0.0
C2885 C 0.63832 0.53899 0.97998 0.0
C2886 C 0.65097 0.54347 0.99326 0.0
C2887 C 0.6424 0.54991 0.00896 0.0
C2888 C 0.66224 0.52866 0.99718 0.0
C2889 C 0.66046 0.5572 0.9846 0.0
C2890 C 0.65413 0.55999 0.96892 0.0
C2891 C 0.66112 0.57163 0.95828 0.0
C2892 C 0.67497 0.58065 0.96379 0.0
C2893 C 0.68164 0.57811 0.97985 0.0
C2894 C 0.67418 0.5663 0.99041 0.0
H2895 H 0.24309 0.64144 0.2474 0.0
H2896 H 0.22578 0.6589 0.19953 0.0
H2897 H 0.20517 0.63633 0.19857 0.0
H2898 H 0.23835 0.59738 0.2387 0.0
H2899 H 0.23129 0.59238 0.25925 0.0
H2900 H 0.24504 0.60971 0.25615 0.0
H2901 H 0.2241 0.62909 0.27064 0.0
H2902 H 0.21029 0.61182 0.27378 0.0
H2903 H 0.20308 0.63003 0.26308 0.0
H2904 H 0.18633 0.61222 0.20266 0.0
H2905 H 0.17004 0.58808 0.21172 0.0
H2906 H 0.19881 0.58607 0.25729 0.0
C2907 C 0.23504 0.64041 0.23667 0.0
C2908 C 0.23599 0.65204 0.22358 0.0
C2909 C 0.22513 0.65033 0.20982 0.0
C2910 C 0.21344 0.63748 0.20911 0.0
C2911 C 0.21269 0.62636 0.22225 0.0
C2912 C 0.22316 0.62765 0.23579 0.0
C2913 C 0.21942 0.61418 0.24838 0.0
C2914 C 0.23442 0.60274 0.25075 0.0
C2915 C 0.21389 0.62173 0.26495 0.0
C2916 C 0.20522 0.60518 0.23978 0.0
C2917 C 0.20161 0.61243 0.2247 0.0
C2918 C 0.18898 0.60648 0.21448 0.0
C2919 C 0.1797 0.59281 0.21982 0.0
C2920 C 0.18297 0.58519 0.23531 0.0
C2921 C 0.19603 0.59148 0.24534 0.0
H2922 H 0.88366 0.51793 0.04311 0.0
H2923 H 0.9166 0.53323 0.00349 0.0
H2924 H 0.89625 0.554 0.99458 0.0
H2925 H 0.84529 0.52327 0.02106 0.0
H2926 H 0.8343 0.53148 0.03862 0.0
H2927 H 0.85121 0.51732 0.04178 0.0
H2928 H 0.86584 0.53871 0.06088 0.0
H2929 H 0.84894 0.5529 0.05785 0.0
H2930 H 0.86982 0.55932 0.05327 0.0
H2931 H 0.87239 0.5729 0.98958 0.0
H2932 H 0.84703 0.58964 0.98954 0.0
H2933 H 0.83009 0.5638 0.03356 0.0
C2934 C 0.8867 0.5257 0.03264 0.0
C2935 C 0.90177 0.52366 0.02391 0.0
C2936 C 0.90505 0.53412 0.01018 0.0
C2937 C 0.8936 0.5461 0.00507 0.0
C2938 C 0.87891 0.54768 0.01386 0.0
C2939 C 0.87545 0.53788 0.02743 0.0
C2940 C 0.85884 0.54245 0.03489 0.0
C2941 C 0.84669 0.52775 0.03403 0.0
C2942 C 0.86099 0.54872 0.05278 0.0
C2943 C 0.85353 0.55632 0.02336 0.0
C2944 C 0.86529 0.55904 0.01129 0.0
C2945 C 0.86317 0.57102 0.99909 0.0
C2946 C 0.84872 0.58058 0.99927 0.0
C2947 C 0.83654 0.57831 0.01169 0.0
C2948 C 0.83904 0.56587 0.02383 0.0
H2949 H 0.12979 0.99696 0.03646 0.0
H2950 H 0.09002 0.96977 0.01223 0.0
H2951 H 0.10929 0.94694 0.00607 0.0
H2952 H 0.16172 0.98517 0.00778 0.0
H2953 H 0.17765 0.98351 0.0234 0.0
H2954 H 0.16068 0.99762 0.02631 0.0
H2955 H 0.1538 0.9836 0.05431 0.0
H2956 H 0.17076 0.96946 0.05149 0.0
H2957 H 0.15016 0.96156 0.05493 0.0
H2958 H 0.13261 0.92695 1.00277 0.0
H2959 H 0.15888 0.91149 1.00146 0.0
H2960 H 0.18398 0.95167 0.02723 0.0
C2961 C 0.12515 0.98615 0.02995 0.0
C2962 C 0.1084 0.98515 0.02479 0.0
C2963 C 0.10283 0.97088 0.01614 0.0
C2964 C 0.11366 0.95781 0.01266 0.0
C2965 C 0.13009 0.9592 0.01783 0.0
C2966 C 0.13587 0.97302 0.02621 0.0
C2967 C 0.15424 0.97149 0.02999 0.0
C2968 C 0.16416 0.98527 0.02135 0.0
C2969 C 0.15742 0.97152 0.0488 0.0
C2970 C 0.15784 0.95466 0.02246 0.0
C2971 C 0.14368 0.94776 0.01561 0.0
C2972 C 0.14378 0.93222 0.00809 0.0
C2973 C 0.15875 0.92349 0.00749 0.0
C2974 C 0.17348 0.93033 0.01428 0.0
C2975 C 0.17296 0.94616 0.02183 0.0
loop_
_geom_bond_atom_site_label_1
_geom_bond_atom_site_label_2
_geom_bond_distance
_geom_bond_site_symmetry_2
_ccdc_geom_bond_type
C0 C1 1.386 . S
C0 C2 1.397 . S
C0 H24 0.931 . S
C1 C0 1.386 . S
C1 C5 1.397 1_556 S
C2 C0 1.397 . S
C2 C3 1.384 1_556 S
C2 H25 0.930 . S
C3 C2 1.384 1_554 S
C3 C4 1.377 . S
C3 C6 1.481 . S
C4 C3 1.377 . S
C4 C5 1.389 . S
C4 H26 0.929 . S
C5 C1 1.397 1_554 S
C5 C4 1.389 . S
C5 H27 0.931 . S
C6 C3 1.481 . S
C6 C7 1.387 . S
C6 C11 1.390 . S
C7 C6 1.387 . S
C7 C8 1.401 . S
C7 H28 0.930 . S
C8 C7 1.401 . S
C8 C9 1.376 . S
C8 C17 1.511 . S
C9 C8 1.376 . S
C9 C10 1.392 . S
C9 H30 0.931 . S
C10 C9 1.392 . S
C10 C11 1.361 . S
C10 C12 1.500 . S
C11 C6 1.390 . S
C11 C10 1.361 . S
C11 H29 0.931 . S
C12 C10 1.500 . S
C12 C13 1.371 . S
C12 C14 1.365 . S
C13 C12 1.371 . S
C13 C23 1.386 1_455 S
C13 H31 0.931 . S
C14 C12 1.365 . S
C14 C15 1.409 1_455 S
C14 H32 0.929 . S
C15 C14 1.409 1_655 S
C15 C16 1.380 . S
C15 H33 0.930 . S
C16 C15 1.380 . S
C16 C23 1.357 . S
C17 C8 1.511 . S
C17 C18 1.341 . S
C17 C19 1.348 1_545 S
C18 C17 1.341 . S
C18 C22 1.394 1_545 S
C18 H34 0.930 . S
C19 C17 1.348 1_565 S
C19 C20 1.416 . S
C19 H35 0.931 . S
C20 C19 1.416 . S
C20 C21 1.331 . S
C20 H38 0.932 . S
C21 C20 1.331 . S
C21 C22 1.336 . S
C22 C18 1.394 1_565 S
C22 C21 1.336 . S
C22 H37 0.876 1_554 S
C23 C13 1.386 1_655 S
C23 C16 1.357 . S
C23 H36 0.928 1_545 S
H24 C0 0.931 . S
H25 C2 0.930 . S
H26 C4 0.929 . S
H27 C5 0.931 . S
H28 C7 0.930 . S
H29 C11 0.931 . S
H30 C9 0.931 . S
H31 C13 0.931 . S
H32 C14 0.929 . S
H33 C15 0.930 . S
H34 C18 0.930 . S
H35 C19 0.931 . S
H36 C23 0.928 1_565 S
H37 C22 0.876 1_556 S
H38 C20 0.932 . S
C39 C40 1.386 . S
C39 C41 1.397 . S
C39 H63 0.931 . S
C40 C39 1.386 . S
C40 C44 1.397 . S
C41 C39 1.397 . S
C41 C42 1.384 . S
C41 H64 0.930 . S
C42 C41 1.384 . S
C42 C43 1.377 . S
C42 C45 1.481 . S
C43 C42 1.377 . S
C43 C44 1.389 . S
C43 H65 0.929 . S
C44 C40 1.397 . S
C44 C43 1.389 . S
C44 H66 0.931 . S
C45 C42 1.481 . S
C45 C46 1.387 . S
C45 C50 1.390 . S
C46 C45 1.387 . S
C46 C47 1.401 . S
C46 H67 0.930 . S
C47 C46 1.401 . S
C47 C48 1.376 . S
C47 C56 1.511 . S
C48 C47 1.376 . S
C48 C49 1.392 . S
C48 H69 0.931 . S
C49 C48 1.392 . S
C49 C50 1.361 . S
C49 C51 1.500 . S
C50 C45 1.390 . S
C50 C49 1.361 . S
C50 H68 0.931 . S
C51 C49 1.500 . S
C51 C52 1.371 . S
C51 C53 1.365 . S
C52 C51 1.371 . S
C52 C62 1.386 . S
C52 H70 0.931 . S
C53 C51 1.365 . S
C53 C54 1.409 . S
C53 H71 0.929 . S
C54 C53 1.409 . S
C54 C55 1.380 . S
C54 H72 0.930 . S
C55 C54 1.380 . S
C55 C62 1.357 . S
C56 C47 1.511 . S
C56 C57 1.341 . S
C56 C58 1.371 . S
C57 C56 1.341 . S
C57 C61 1.394 . S
C57 H73 0.930 . S
C58 C56 1.371 . S
C58 C59 1.392 . S
C58 H74 0.931 . S
C59 C58 1.392 . S
C59 C60 1.331 . S
C59 H77 0.932 . S
C60 C59 1.331 . S
C60 C61 1.336 . S
C61 C57 1.394 . S
C61 C60 1.336 . S
C61 H76 0.929 . S
C62 C52 1.386 . S
C62 C55 1.357 . S
C62 H75 0.928 . S
H63 C39 0.931 . S
H64 C41 0.930 . S
H65 C43 0.929 . S
H66 C44 0.931 . S
H67 C46 0.930 . S
H68 C50 0.931 . S
H69 C48 0.931 . S
H70 C52 0.931 . S
H71 C53 0.929 . S
H72 C54 0.930 . S
H73 C57 0.930 . S
H74 C58 0.931 . S
H75 C62 0.928 . S
H76 C61 0.929 . S
H77 C59 0.932 . S
C78 C79 1.386 1_655 S
C78 C80 1.397 . S
C78 H102 0.931 . S
C79 C78 1.386 1_455 S
C79 C83 1.397 . S
C80 C78 1.397 . S
C80 C81 1.384 . S
C80 H103 0.930 . S
C81 C80 1.384 . S
C81 C82 1.377 1_655 S
C81 C84 1.481 . S
C82 C81 1.377 1_455 S
C82 C83 1.389 . S
C82 H104 0.929 . S
C83 C79 1.397 . S
C83 C82 1.389 . S
C83 H105 0.931 . S
C84 C81 1.481 . S
C84 C85 1.387 . S
C84 C89 1.390 . S
C85 C84 1.387 . S
C85 C86 1.401 . S
C85 H106 0.930 . S
C86 C85 1.401 . S
C86 C87 1.376 . S
C86 C95 1.511 . S
C87 C86 1.376 . S
C87 C88 1.392 . S
C87 H108 0.931 . S
C88 C87 1.392 . S
C88 C89 1.361 . S
C88 C90 1.500 . S
C89 C84 1.390 . S
C89 C88 1.361 . S
C89 H107 0.931 . S
C90 C88 1.500 . S
C90 C91 1.371 . S
C90 C92 1.365 . S
C91 C90 1.371 . S
C91 C101 1.386 1_554 S
C91 H109 0.931 . S
C92 C90 1.365 . S
C92 C93 1.409 1_554 S
C92 H110 0.929 . S
C93 C92 1.409 1_556 S
C93 C94 1.380 . S
C93 H111 0.930 1_655 S
C94 C93 1.380 . S
C94 C101 1.357 . S
C95 C86 1.511 . S
C95 C96 1.341 . S
C95 C97 1.371 . S
C96 C95 1.341 . S
C96 C100 1.394 . S
C96 H112 0.930 . S
C97 C95 1.371 . S
C97 C98 1.392 . S
C97 H113 0.931 . S
C98 C97 1.392 . S
C98 C99 1.331 . S
C98 H116 0.927 1_554 S
C99 C98 1.331 . S
C99 C100 1.336 . S
C100 C96 1.394 . S
C100 C99 1.336 . S
C100 H115 0.929 . S
C101 C91 1.386 1_556 S
C101 C94 1.357 . S
C101 H114 0.928 . S
H102 C78 0.931 . S
H103 C80 0.930 . S
H104 C82 0.929 . S
H105 C83 0.931 . S
H106 C85 0.930 . S
H107 C89 0.931 . S
H108 C87 0.931 . S
H109 C91 0.931 . S
H110 C92 0.929 . S
H111 C93 0.930 1_455 S
H112 C96 0.930 . S
H113 C97 0.931 . S
H114 C101 0.928 . S
H115 C100 0.929 . S
H116 C98 0.927 1_556 S
C117 C118 1.386 . S
C117 C119 1.397 . S
C117 H141 0.931 . S
C118 C117 1.386 . S
C118 C122 1.397 . S
C119 C117 1.397 . S
C119 C120 1.384 . S
C119 H142 0.930 . S
C120 C119 1.384 . S
C120 C121 1.377 . S
C120 C123 1.481 . S
C121 C120 1.377 . S
C121 C122 1.389 . S
C121 H143 0.929 . S
C122 C118 1.397 . S
C122 C121 1.389 . S
C122 H144 0.931 . S
C123 C120 1.481 . S
C123 C124 1.387 . S
C123 C128 1.390 . S
C124 C123 1.387 . S
C124 C125 1.401 . S
C124 H145 0.930 . S
C125 C124 1.401 . S
C125 C126 1.376 . S
C125 C134 1.511 . S
C126 C125 1.376 . S
C126 C127 1.392 . S
C126 H147 0.931 . S
C127 C126 1.392 . S
C127 C128 1.361 . S
C127 C129 1.500 . S
C128 C123 1.390 . S
C128 C127 1.361 . S
C128 H146 0.931 . S
C129 C127 1.500 . S
C129 C130 1.371 . S
C129 C131 1.365 . S
C130 C129 1.371 . S
C130 C140 1.386 . S
C130 H148 0.931 . S
C131 C129 1.365 . S
C131 C132 1.409 . S
C131 H149 0.929 . S
C132 C131 1.409 . S
C132 C133 1.380 . S
C132 H150 0.930 . S
C133 C132 1.380 . S
C133 C140 1.357 . S
C134 C125 1.511 . S
C134 C135 1.341 . S
C134 C136 1.371 . S
C135 C134 1.341 . S
C135 C139 1.394 . S
C135 H151 0.930 . S
C136 C134 1.371 . S
C136 C137 1.392 . S
C136 H152 0.931 . S
C137 C136 1.392 . S
C137 C138 1.331 . S
C137 H155 0.932 . S
C138 C137 1.331 . S
C138 C139 1.336 . S
C139 C135 1.394 . S
C139 C138 1.336 . S
C139 H154 0.929 . S
C140 C130 1.386 . S
C140 C133 1.357 . S
C140 H153 0.928 . S
H141 C117 0.931 . S
H142 C119 0.930 . S
H143 C121 0.929 . S
H144 C122 0.931 . S
H145 C124 0.930 . S
H146 C128 0.931 . S
H147 C126 0.931 . S
H148 C130 0.931 . S
H149 C131 0.929 . S
H150 C132 0.930 . S
H151 C135 0.930 . S
H152 C136 0.931 . S
H153 C140 0.928 . S
H154 C139 0.929 . S
H155 C137 0.932 . S
C156 C157 1.386 . S
C156 C158 1.397 . S
C156 H180 0.931 . S
C157 C156 1.386 . S
C157 C161 1.397 1_655 S
C158 C156 1.397 . S
C158 C159 1.384 1_655 S
C158 H181 0.930 . S
C159 C158 1.384 1_455 S
C159 C160 1.377 . S
C159 C162 1.481 . S
C160 C159 1.377 . S
C160 C161 1.389 . S
C160 H182 0.929 . S
C161 C157 1.397 1_455 S
C161 C160 1.389 . S
C161 H183 0.931 . S
C162 C159 1.481 . S
C162 C163 1.387 . S
C162 C167 1.390 . S
C163 C162 1.387 . S
C163 C164 1.401 . S
C163 H184 0.930 . S
C164 C163 1.401 . S
C164 C165 1.376 . S
C164 C173 1.511 . S
C165 C164 1.376 . S
C165 C166 1.392 . S
C165 H186 0.931 . S
C166 C165 1.392 . S
C166 C167 1.361 . S
C166 C168 1.500 . S
C167 C162 1.390 . S
C167 C166 1.361 . S
C167 H185 0.931 . S
C168 C166 1.500 . S
C168 C169 1.371 . S
C168 C170 1.365 . S
C169 C168 1.371 . S
C169 C179 1.386 1_565 S
C169 H187 0.931 . S
C170 C168 1.365 . S
C170 C171 1.409 1_565 S
C170 H188 0.929 . S
C171 C170 1.409 1_545 S
C171 C172 1.380 . S
C171 H189 0.930 . S
C172 C171 1.380 . S
C172 C179 1.357 . S
C173 C164 1.511 . S
C173 C174 1.341 . S
C173 C175 1.371 . S
C174 C173 1.341 . S
C174 C178 1.394 . S
C174 H190 0.930 . S
C175 C173 1.371 . S
C175 C176 1.392 . S
C175 H191 0.931 . S
C176 C175 1.392 . S
C176 C177 1.331 . S
C176 H194 0.932 . S
C177 C176 1.331 . S
C177 C178 1.336 . S
C178 C174 1.394 . S
C178 C177 1.336 . S
C178 H193 0.875 1_455 S
C179 C169 1.386 1_545 S
C179 C172 1.357 . S
C179 H192 0.928 . S
H180 C156 0.931 . S
H181 C158 0.930 . S
H182 C160 0.929 . S
H183 C161 0.931 . S
H184 C163 0.930 . S
H185 C167 0.931 . S
H186 C165 0.931 . S
H187 C169 0.931 . S
H188 C170 0.929 . S
H189 C171 0.930 . S
H190 C174 0.930 . S
H191 C175 0.931 . S
H192 C179 0.928 . S
H193 C178 0.875 1_655 S
H194 C176 0.932 . S
C195 C196 1.386 . S
C195 C197 1.397 . S
C195 H219 0.931 . S
C196 C195 1.386 . S
C196 C200 1.397 . S
C197 C195 1.397 . S
C197 C198 1.384 . S
C197 H220 0.930 . S
C198 C197 1.384 . S
C198 C199 1.377 . S
C198 C201 1.481 . S
C199 C198 1.377 . S
C199 C200 1.389 . S
C199 H221 0.929 . S
C200 C196 1.397 . S
C200 C199 1.389 . S
C200 H222 0.931 . S
C201 C198 1.481 . S
C201 C202 1.387 . S
C201 C206 1.390 . S
C202 C201 1.387 . S
C202 C203 1.401 . S
C202 H223 0.930 . S
C203 C202 1.401 . S
C203 C204 1.376 . S
C203 C212 1.511 . S
C204 C203 1.376 . S
C204 C205 1.392 . S
C204 H225 0.931 . S
C205 C204 1.392 . S
C205 C206 1.361 . S
C205 C207 1.500 . S
C206 C201 1.390 . S
C206 C205 1.361 . S
C206 H224 0.931 . S
C207 C205 1.500 . S
C207 C208 1.371 . S
C207 C209 1.365 . S
C208 C207 1.371 . S
C208 C218 1.386 . S
C208 H226 0.931 . S
C209 C207 1.365 . S
C209 C210 1.409 . S
C209 H227 0.929 . S
C210 C209 1.409 . S
C210 C211 1.380 . S
C210 H228 0.930 . S
C211 C210 1.380 . S
C211 C218 1.357 . S
C212 C203 1.511 . S
C212 C213 1.341 . S
C212 C214 1.371 . S
C213 C212 1.341 . S
C213 C217 1.394 . S
C213 H229 0.930 . S
C214 C212 1.371 . S
C214 C215 1.392 . S
C214 H230 0.931 . S
C215 C214 1.392 . S
C215 C216 1.331 . S
C215 H233 0.932 . S
C216 C215 1.331 . S
C216 C217 1.336 . S
C217 C213 1.394 . S
C217 C216 1.336 . S
C217 H232 0.929 . S
C218 C208 1.386 . S
C218 C211 1.357 . S
C218 H231 0.928 . S
H219 C195 0.931 . S
H220 C197 0.930 . S
H221 C199 0.929 . S
H222 C200 0.931 . S
H223 C202 0.930 . S
H224 C206 0.931 . S
H225 C204 0.931 . S
H226 C208 0.931 . S
H227 C209 0.929 . S
H228 C210 0.930 . S
H229 C213 0.930 . S
H230 C214 0.931 . S
H231 C218 0.928 . S
H232 C217 0.929 . S
H233 C215 0.932 . S
C234 C235 1.386 . S
C234 C236 1.397 . S
C234 H258 0.931 . S
C235 C234 1.386 . S
C235 C239 1.397 . S
C236 C234 1.397 . S
C236 C237 1.384 . S
C236 H259 0.930 . S
C237 C236 1.384 . S
C237 C238 1.377 . S
C237 C240 1.481 . S
C238 C237 1.377 . S
C238 C239 1.389 . S
C238 H260 0.929 . S
C239 C235 1.397 . S
C239 C238 1.389 . S
C239 H261 0.931 . S
C240 C237 1.481 . S
C240 C241 1.387 . S
C240 C245 1.390 . S
C241 C240 1.387 . S
C241 C242 1.401 . S
C241 H262 0.930 . S
C242 C241 1.401 . S
C242 C243 1.376 . S
C242 C251 1.511 . S
C243 C242 1.376 . S
C243 C244 1.392 . S
C243 H264 0.931 . S
C244 C243 1.392 . S
C244 C245 1.361 . S
C244 C246 1.500 . S
C245 C240 1.390 . S
C245 C244 1.361 . S
C245 H263 0.931 . S
C246 C244 1.500 . S
C246 C247 1.371 . S
C246 C248 1.365 . S
C247 C246 1.371 . S
C247 C257 1.386 . S
C247 H265 0.931 . S
C248 C246 1.365 . S
C248 C249 1.409 . S
C248 H266 0.929 . S
C249 C248 1.409 . S
C249 C250 1.380 . S
C249 H267 0.930 . S
C250 C249 1.380 . S
C250 C257 1.357 . S
C251 C242 1.511 . S
C251 C252 1.341 1_655 S
C251 C253 1.371 . S
C252 C251 1.341 1_455 S
C252 C256 1.394 . S
C252 H268 0.935 . S
C253 C251 1.371 . S
C253 C254 1.392 1_655 S
C253 H269 0.931 . S
C254 C253 1.392 1_455 S
C254 C255 1.331 . S
C254 H272 0.932 . S
C255 C254 1.331 . S
C255 C256 1.336 . S
C256 C252 1.394 . S
C256 C255 1.336 . S
C256 H271 0.929 . S
C257 C247 1.386 . S
C257 C250 1.357 . S
C257 H270 0.928 . S
H258 C234 0.931 . S
H259 C236 0.930 . S
H260 C238 0.929 . S
H261 C239 0.931 . S
H262 C241 0.930 . S
H263 C245 0.931 . S
H264 C243 0.931 . S
H265 C247 0.931 . S
H266 C248 0.929 . S
H267 C249 0.930 . S
H268 C252 0.935 . S
H269 C253 0.931 . S
H270 C257 0.928 . S
H271 C256 0.929 . S
H272 C254 0.932 . S
C273 C274 1.386 . S
C273 C275 1.397 . S
C273 H297 0.931 . S
C274 C273 1.386 . S
C274 C278 1.397 . S
C275 C273 1.397 . S
C275 C276 1.384 . S
C275 H298 0.930 . S
C276 C275 1.384 . S
C276 C277 1.377 . S
C276 C279 1.481 . S
C277 C276 1.377 . S
C277 C278 1.389 . S
C277 H299 0.929 . S
C278 C274 1.397 . S
C278 C277 1.389 . S
C278 H300 0.931 . S
C279 C276 1.481 . S
C279 C280 1.387 . S
C279 C284 1.390 . S
C280 C279 1.387 . S
C280 C281 1.401 . S
C280 H301 0.930 . S
C281 C280 1.401 . S
C281 C282 1.376 . S
C281 C290 1.511 . S
C282 C281 1.376 . S
C282 C283 1.392 . S
C282 H303 0.931 . S
C283 C282 1.392 . S
C283 C284 1.361 . S
C283 C285 1.500 . S
C284 C279 1.390 . S
C284 C283 1.361 . S
C284 H302 0.931 . S
C285 C283 1.500 . S
C285 C286 1.371 . S
C285 C287 1.365 . S
C286 C285 1.371 . S
C286 C296 1.386 . S
C286 H304 0.931 . S
C287 C285 1.365 . S
C287 C288 1.409 . S
C287 H305 0.929 . S
C288 C287 1.409 . S
C288 C289 1.380 . S
C288 H306 0.930 . S
C289 C288 1.380 . S
C289 C296 1.357 . S
C290 C281 1.511 . S
C290 C291 1.341 . S
C290 C292 1.371 . S
C291 C290 1.341 . S
C291 C295 1.394 . S
C291 H307 0.930 . S
C292 C290 1.371 . S
C292 C293 1.392 . S
C292 H308 0.931 . S
C293 C292 1.392 . S
C293 C294 1.331 . S
C293 H311 0.932 . S
C294 C293 1.331 . S
C294 C295 1.336 . S
C295 C291 1.394 . S
C295 C294 1.336 . S
C295 H310 0.929 . S
C296 C286 1.386 . S
C296 C289 1.357 . S
C296 H309 0.928 . S
H297 C273 0.931 . S
H298 C275 0.930 . S
H299 C277 0.929 . S
H300 C278 0.931 . S
H301 C280 0.930 . S
H302 C284 0.931 . S
H303 C282 0.931 . S
H304 C286 0.931 . S
H305 C287 0.929 . S
H306 C288 0.930 . S
H307 C291 0.930 . S
H308 C292 0.931 . S
H309 C296 0.928 . S
H310 C295 0.929 . S
H311 C293 0.932 . S
C312 C313 1.386 . S
C312 C314 1.397 . S
C312 H336 0.931 . S
C313 C312 1.386 . S
C313 C317 1.397 . S
C314 C312 1.397 . S
C314 C315 1.384 . S
C314 H337 0.930 . S
C315 C314 1.384 . S
C315 C316 1.377 . S
C315 C318 1.481 . S
C316 C315 1.377 . S
C316 C317 1.389 . S
C316 H338 0.929 . S
C317 C313 1.397 . S
C317 C316 1.389 . S
C317 H339 0.931 . S
C318 C315 1.481 . S
C318 C319 1.387 . S
C318 C323 1.390 . S
C319 C318 1.387 . S
C319 C320 1.401 . S
C319 H340 0.930 . S
C320 C319 1.401 . S
C320 C321 1.376 . S
C320 C329 1.511 . S
C321 C320 1.376 . S
C321 C322 1.392 . S
C321 H342 0.931 . S
C322 C321 1.392 . S
C322 C323 1.361 . S
C322 C324 1.500 . S
C323 C318 1.390 . S
C323 C322 1.361 . S
C323 H341 0.931 . S
C324 C322 1.500 . S
C324 C325 1.371 . S
C324 C326 1.365 . S
C325 C324 1.371 . S
C325 C335 1.386 . S
C325 H343 0.931 . S
C326 C324 1.365 . S
C326 C327 1.409 . S
C326 H344 0.929 . S
C327 C326 1.409 . S
C327 C328 1.380 . S
C327 H345 0.930 . S
C328 C327 1.380 . S
C328 C335 1.357 . S
C329 C320 1.511 . S
C329 C330 1.341 . S
C329 C331 1.371 . S
C330 C329 1.341 . S
C330 C334 1.394 . S
C330 H346 0.930 . S
C331 C329 1.371 . S
C331 C332 1.392 . S
C331 H347 0.931 . S
C332 C331 1.392 . S
C332 C333 1.331 . S
C332 H350 0.932 . S
C333 C332 1.331 . S
C333 C334 1.336 . S
C334 C330 1.394 . S
C334 C333 1.336 . S
C334 H349 0.929 . S
C335 C325 1.386 . S
C335 C328 1.357 . S
C335 H348 0.928 . S
H336 C312 0.931 . S
H337 C314 0.930 . S
H338 C316 0.929 . S
H339 C317 0.931 . S
H340 C319 0.930 . S
H341 C323 0.931 . S
H342 C321 0.931 . S
H343 C325 0.931 . S
H344 C326 0.929 . S
H345 C327 0.930 . S
H346 C330 0.930 . S
H347 C331 0.931 . S
H348 C335 0.928 . S
H349 C334 0.929 . S
H350 C332 0.932 . S
C351 C352 1.386 . S
C351 C353 1.397 . S
C351 H375 0.931 . S
C352 C351 1.386 . S
C352 C356 1.397 . S
C353 C351 1.397 . S
C353 C354 1.384 . S
C353 H376 0.930 . S
C354 C353 1.384 . S
C354 C355 1.377 . S
C354 C357 1.481 . S
C355 C354 1.377 . S
C355 C356 1.389 . S
C355 H377 0.929 . S
C356 C352 1.397 . S
C356 C355 1.389 . S
C356 H378 0.931 . S
C357 C354 1.481 . S
C357 C358 1.387 . S
C357 C362 1.390 . S
C358 C357 1.387 . S
C358 C359 1.401 . S
C358 H379 0.930 . S
C359 C358 1.401 . S
C359 C360 1.376 . S
C359 C368 1.511 . S
C360 C359 1.376 . S
C360 C361 1.392 . S
C360 H381 0.931 . S
C361 C360 1.392 . S
C361 C362 1.361 . S
C361 C363 1.500 . S
C362 C357 1.390 . S
C362 C361 1.361 . S
C362 H380 0.931 . S
C363 C361 1.500 . S
C363 C364 1.371 . S
C363 C365 1.365 . S
C364 C363 1.371 . S
C364 C374 1.386 . S
C364 H382 0.931 . S
C365 C363 1.365 . S
C365 C366 1.409 . S
C365 H383 0.929 . S
C366 C365 1.409 . S
C366 C367 1.380 . S
C366 H384 0.930 . S
C367 C366 1.380 . S
C367 C374 1.357 . S
C368 C359 1.511 . S
C368 C369 1.341 1_565 S
C368 C370 1.371 . S
C369 C368 1.341 1_545 S
C369 C373 1.394 . S
C369 H385 0.933 . S
C370 C368 1.371 . S
C370 C371 1.392 1_565 S
C370 H386 0.931 . S
C371 C370 1.392 1_545 S
C371 C372 1.331 . S
C371 H389 0.932 . S
C372 C371 1.331 . S
C372 C373 1.336 . S
C373 C369 1.394 . S
C373 C372 1.336 . S
C373 H388 0.929 . S
C374 C364 1.386 . S
C374 C367 1.357 . S
C374 H387 0.928 . S
H375 C351 0.931 . S
H376 C353 0.930 . S
H377 C355 0.929 . S
H378 C356 0.931 . S
H379 C358 0.930 . S
H380 C362 0.931 . S
H381 C360 0.931 . S
H382 C364 0.931 . S
H383 C365 0.929 . S
H384 C366 0.930 . S
H385 C369 0.933 . S
H386 C370 0.931 . S
H387 C374 0.928 . S
H388 C373 0.929 . S
H389 C371 0.932 . S
C390 C391 1.386 . S
C390 C392 1.397 . S
C390 H414 0.931 . S
C391 C390 1.386 . S
C391 C395 1.397 . S
C392 C390 1.397 . S
C392 C393 1.384 . S
C392 H415 0.930 . S
C393 C392 1.384 . S
C393 C394 1.377 . S
C393 C396 1.481 . S
C394 C393 1.377 . S
C394 C395 1.389 . S
C394 H416 0.929 . S
C395 C391 1.397 . S
C395 C394 1.389 . S
C395 H417 0.931 . S
C396 C393 1.481 . S
C396 C397 1.387 . S
C396 C401 1.390 . S
C397 C396 1.387 . S
C397 C398 1.401 . S
C397 H418 0.930 . S
C398 C397 1.401 . S
C398 C399 1.376 . S
C398 C407 1.511 . S
C399 C398 1.376 . S
C399 C400 1.392 . S
C399 H420 0.931 . S
C400 C399 1.392 . S
C400 C401 1.361 . S
C400 C402 1.500 . S
C401 C396 1.390 . S
C401 C400 1.361 . S
C401 H419 0.931 . S
C402 C400 1.500 . S
C402 C403 1.371 . S
C402 C404 1.365 . S
C403 C402 1.371 . S
C403 C413 1.386 . S
C403 H421 0.931 . S
C404 C402 1.365 . S
C404 C405 1.409 . S
C404 H422 0.929 . S
C405 C404 1.409 . S
C405 C406 1.380 . S
C405 H423 0.930 . S
C406 C405 1.380 . S
C406 C413 1.357 . S
C407 C398 1.511 . S
C407 C408 1.341 . S
C407 C409 1.371 . S
C408 C407 1.341 . S
C408 C412 1.394 . S
C408 H424 0.930 . S
C409 C407 1.371 . S
C409 C410 1.392 . S
C409 H425 0.931 . S
C410 C409 1.392 . S
C410 C411 1.331 . S
C410 H428 0.932 . S
C411 C410 1.331 . S
C411 C412 1.336 . S
C412 C408 1.394 . S
C412 C411 1.336 . S
C412 H427 0.929 . S
C413 C403 1.386 . S
C413 C406 1.357 . S
C413 H426 0.928 . S
H414 C390 0.931 . S
H415 C392 0.930 . S
H416 C394 0.929 . S
H417 C395 0.931 . S
H418 C397 0.930 . S
H419 C401 0.931 . S
H420 C399 0.931 . S
H421 C403 0.931 . S
H422 C404 0.929 . S
H423 C405 0.930 . S
H424 C408 0.930 . S
H425 C409 0.931 . S
H426 C413 0.928 . S
H427 C412 0.929 . S
H428 C410 0.932 . S
C429 C430 1.386 . S
C429 C431 1.397 . S
C429 H453 0.931 . S
C430 C429 1.386 . S
C430 C434 1.397 . S
C431 C429 1.397 . S
C431 C432 1.384 . S
C431 H454 0.930 . S
C432 C431 1.384 . S
C432 C433 1.377 . S
C432 C435 1.481 . S
C433 C432 1.377 . S
C433 C434 1.389 . S
C433 H455 0.929 . S
C434 C430 1.397 . S
C434 C433 1.389 . S
C434 H456 0.931 . S
C435 C432 1.481 . S
C435 C436 1.387 . S
C435 C440 1.390 . S
C436 C435 1.387 . S
C436 C437 1.401 . S
C436 H457 0.930 . S
C437 C436 1.401 . S
C437 C438 1.376 . S
C437 C446 1.511 . S
C438 C437 1.376 . S
C438 C439 1.392 . S
C438 H459 0.931 . S
C439 C438 1.392 . S
C439 C440 1.361 . S
C439 C441 1.500 . S
C440 C435 1.390 . S
C440 C439 1.361 . S
C440 H458 0.931 . S
C441 C439 1.500 . S
C441 C442 1.371 . S
C441 C443 1.365 . S
C442 C441 1.371 . S
C442 C452 1.386 . S
C442 H460 0.931 . S
C443 C441 1.365 . S
C443 C444 1.409 . S
C443 H461 0.929 . S
C444 C443 1.409 . S
C444 C445 1.380 . S
C444 H462 0.930 . S
C445 C444 1.380 . S
C445 C452 1.357 . S
C446 C437 1.511 . S
C446 C447 1.341 . S
C446 C448 1.371 . S
C447 C446 1.341 . S
C447 C451 1.394 . S
C447 H463 0.930 . S
C448 C446 1.371 . S
C448 C449 1.392 . S
C448 H464 0.931 . S
C449 C448 1.392 . S
C449 C450 1.331 . S
C449 H467 0.932 . S
C450 C449 1.331 . S
C450 C451 1.336 . S
C451 C447 1.394 . S
C451 C450 1.336 . S
C451 H466 0.929 . S
C452 C442 1.386 . S
C452 C445 1.357 . S
C452 H465 0.928 . S
H453 C429 0.931 . S
H454 C431 0.930 . S
H455 C433 0.929 . S
H456 C434 0.931 . S
H457 C436 0.930 . S
H458 C440 0.931 . S
H459 C438 0.931 . S
H460 C442 0.931 . S
H461 C443 0.929 . S
H462 C444 0.930 . S
H463 C447 0.930 . S
H464 C448 0.931 . S
H465 C452 0.928 . S
H466 C451 0.929 . S
H467 C449 0.932 . S
C468 C469 1.386 . S
C468 C470 1.397 . S
C468 H492 0.931 . S
C469 C468 1.386 . S
C469 C473 1.397 . S
C470 C468 1.397 . S
C470 C471 1.384 . S
C470 H493 0.930 . S
C471 C470 1.384 . S
C471 C472 1.377 . S
C471 C474 1.481 . S
C472 C471 1.377 . S
C472 C473 1.389 . S
C472 H494 0.929 . S
C473 C469 1.397 . S
C473 C472 1.389 . S
C473 H495 0.931 . S
C474 C471 1.481 . S
C474 C475 1.387 . S
C474 C479 1.390 . S
C475 C474 1.387 . S
C475 C476 1.401 . S
C475 H496 0.930 . S
C476 C475 1.401 . S
C476 C477 1.376 . S
C476 C485 1.511 . S
C477 C476 1.376 . S
C477 C478 1.392 . S
C477 H498 0.931 . S
C478 C477 1.392 . S
C478 C479 1.361 . S
C478 C480 1.500 . S
C479 C474 1.390 . S
C479 C478 1.361 . S
C479 H497 0.931 . S
C480 C478 1.500 . S
C480 C481 1.371 . S
C480 C482 1.365 . S
C481 C480 1.371 . S
C481 C491 1.386 . S
C481 H499 0.931 . S
C482 C480 1.365 . S
C482 C483 1.409 . S
C482 H500 0.929 . S
C483 C482 1.409 . S
C483 C484 1.380 . S
C483 H501 0.930 . S
C484 C483 1.380 . S
C484 C491 1.357 . S
C485 C476 1.511 . S
C485 C486 1.341 . S
C485 C487 1.371 . S
C486 C485 1.341 . S
C486 C490 1.394 . S
C486 H502 0.930 . S
C487 C485 1.371 . S
C487 C488 1.392 . S
C487 H503 0.931 . S
C488 C487 1.392 . S
C488 C489 1.331 . S
C488 H506 0.932 . S
C489 C488 1.331 . S
C489 C490 1.336 . S
C490 C486 1.394 . S
C490 C489 1.336 . S
C490 H505 0.929 . S
C491 C481 1.386 . S
C491 C484 1.357 . S
C491 H504 0.928 . S
H492 C468 0.931 . S
H493 C470 0.930 . S
H494 C472 0.929 . S
H495 C473 0.931 . S
H496 C475 0.930 . S
H497 C479 0.931 . S
H498 C477 0.931 . S
H499 C481 0.931 . S
H500 C482 0.929 . S
H501 C483 0.930 . S
H502 C486 0.930 . S
H503 C487 0.931 . S
H504 C491 0.928 . S
H505 C490 0.929 . S
H506 C488 0.932 . S
C507 C508 1.386 . S
C507 C509 1.397 . S
C507 H531 0.931 . S
C508 C507 1.386 . S
C508 C512 1.397 . S
C509 C507 1.397 . S
C509 C510 1.384 . S
C509 H532 0.930 . S
C510 C509 1.384 . S
C510 C511 1.377 . S
C510 C513 1.481 . S
C511 C510 1.377 . S
C511 C512 1.389 . S
C511 H533 0.929 . S
C512 C508 1.397 . S
C512 C511 1.389 . S
C512 H534 0.931 . S
C513 C510 1.481 . S
C513 C514 1.387 . S
C513 C518 1.390 . S
C514 C513 1.387 . S
C514 C515 1.401 . S
C514 H535 0.930 . S
C515 C514 1.401 . S
C515 C516 1.376 . S
C515 C524 1.511 . S
C516 C515 1.376 . S
C516 C517 1.392 . S
C516 H537 0.931 . S
C517 C516 1.392 . S
C517 C518 1.361 . S
C517 C519 1.500 . S
C518 C513 1.390 . S
C518 C517 1.361 . S
C518 H536 0.931 . S
C519 C517 1.500 . S
C519 C520 1.371 . S
C519 C521 1.365 . S
C520 C519 1.371 . S
C520 C530 1.386 . S
C520 H538 0.967 . S
C521 C519 1.365 . S
C521 C522 1.409 . S
C521 H539 0.929 . S
C522 C521 1.409 . S
C522 C523 1.380 . S
C522 H540 0.930 . S
C523 C522 1.380 . S
C523 C530 1.357 . S
C524 C515 1.511 . S
C524 C525 1.341 . S
C524 C526 1.371 1_556 S
C525 C524 1.341 . S
C525 C529 1.394 1_556 S
C525 H541 0.930 . S
C526 C524 1.371 1_554 S
C526 C527 1.392 . S
C526 H542 0.931 . S
C527 C526 1.392 . S
C527 C528 1.331 . S
C527 H545 0.932 . S
C528 C527 1.331 . S
C528 C529 1.336 . S
C529 C525 1.394 1_554 S
C529 C528 1.336 . S
C529 H544 0.929 . S
C530 C520 1.386 . S
C530 C523 1.357 . S
C530 H543 0.928 1_556 S
H531 C507 0.931 . S
H532 C509 0.930 . S
H533 C511 0.929 . S
H534 C512 0.931 . S
H535 C514 0.930 . S
H536 C518 0.931 . S
H537 C516 0.931 . S
H538 C520 0.967 . S
H539 C521 0.929 . S
H540 C522 0.930 . S
H541 C525 0.930 . S
H542 C526 0.931 . S
H543 C530 0.928 1_554 S
H544 C529 0.929 . S
H545 C527 0.932 . S
C546 C547 1.386 . S
C546 C548 1.397 . S
C546 H570 0.931 . S
C547 C546 1.386 . S
C547 C551 1.397 . S
C548 C546 1.397 . S
C548 C549 1.384 . S
C548 H571 0.930 . S
C549 C548 1.384 . S
C549 C550 1.377 . S
C549 C552 1.481 . S
C550 C549 1.377 . S
C550 C551 1.389 . S
C550 H572 0.929 . S
C551 C547 1.397 . S
C551 C550 1.389 . S
C551 H573 0.931 . S
C552 C549 1.481 . S
C552 C553 1.387 . S
C552 C557 1.390 . S
C553 C552 1.387 . S
C553 C554 1.401 . S
C553 H574 0.930 . S
C554 C553 1.401 . S
C554 C555 1.376 . S
C554 C563 1.511 . S
C555 C554 1.376 . S
C555 C556 1.392 . S
C555 H576 0.931 . S
C556 C555 1.392 . S
C556 C557 1.361 . S
C556 C558 1.500 . S
C557 C552 1.390 . S
C557 C556 1.361 . S
C557 H575 0.931 . S
C558 C556 1.500 . S
C558 C559 1.371 . S
C558 C560 1.365 . S
C559 C558 1.371 . S
C559 C569 1.386 . S
C559 H577 0.931 . S
C560 C558 1.365 . S
C560 C561 1.409 . S
C560 H578 0.929 . S
C561 C560 1.409 . S
C561 C562 1.380 . S
C561 H579 0.930 . S
C562 C561 1.380 . S
C562 C569 1.357 . S
C563 C554 1.511 . S
C563 C564 1.341 . S
C563 C565 1.371 . S
C564 C563 1.341 . S
C564 C568 1.394 . S
C564 H580 0.930 . S
C565 C563 1.371 . S
C565 C566 1.392 . S
C565 H581 0.931 . S
C566 C565 1.392 . S
C566 C567 1.331 . S
C566 H584 0.932 . S
C567 C566 1.331 . S
C567 C568 1.336 . S
C568 C564 1.394 . S
C568 C567 1.336 . S
C568 H583 0.929 . S
C569 C559 1.386 . S
C569 C562 1.357 . S
C569 H582 0.928 . S
H570 C546 0.931 . S
H571 C548 0.930 . S
H572 C550 0.929 . S
H573 C551 0.931 . S
H574 C553 0.930 . S
H575 C557 0.931 . S
H576 C555 0.931 . S
H577 C559 0.931 . S
H578 C560 0.929 . S
H579 C561 0.930 . S
H580 C564 0.930 . S
H581 C565 0.931 . S
H582 C569 0.928 . S
H583 C568 0.929 . S
H584 C566 0.932 . S
C585 C586 1.386 1_556 S
C585 C587 1.397 . S
C585 H609 0.931 . S
C586 C585 1.386 1_554 S
C586 C590 1.397 . S
C587 C585 1.397 . S
C587 C588 1.384 . S
C587 H610 0.930 . S
C588 C587 1.384 . S
C588 C589 1.377 1_556 S
C588 C591 1.481 . S
C589 C588 1.377 1_554 S
C589 C590 1.389 . S
C589 H611 0.929 . S
C590 C586 1.397 . S
C590 C589 1.389 . S
C590 H612 0.931 . S
C591 C588 1.481 . S
C591 C592 1.387 . S
C591 C596 1.390 . S
C592 C591 1.387 . S
C592 C593 1.401 . S
C592 H613 0.930 . S
C593 C592 1.401 . S
C593 C594 1.376 . S
C593 C602 1.511 . S
C594 C593 1.376 . S
C594 C595 1.392 . S
C594 H615 0.931 . S
C595 C594 1.392 . S
C595 C596 1.361 . S
C595 C597 1.500 . S
C596 C591 1.390 . S
C596 C595 1.361 . S
C596 H614 0.931 . S
C597 C595 1.500 . S
C597 C598 1.371 . S
C597 C599 1.365 . S
C598 C597 1.371 . S
C598 C608 1.386 1_545 S
C598 H616 0.931 . S
C599 C597 1.365 . S
C599 C600 1.409 1_545 S
C599 H617 0.936 . S
C600 C599 1.409 1_565 S
C600 C601 1.380 . S
C600 H618 0.930 1_556 S
C601 C600 1.380 . S
C601 C608 1.357 . S
C602 C593 1.511 . S
C602 C603 1.341 . S
C602 C604 1.371 . S
C603 C602 1.341 . S
C603 C607 1.394 . S
C603 H619 0.930 . S
C604 C602 1.371 . S
C604 C605 1.392 . S
C604 H620 0.931 . S
C605 C604 1.392 . S
C605 C606 1.331 . S
C605 H623 0.932 1_545 S
C606 C605 1.331 . S
C606 C607 1.336 . S
C607 C603 1.394 . S
C607 C606 1.336 . S
C607 H622 0.929 . S
C608 C598 1.386 1_565 S
C608 C601 1.357 . S
C608 H621 0.928 . S
H609 C585 0.931 . S
H610 C587 0.930 . S
H611 C589 0.929 . S
H612 C590 0.931 . S
H613 C592 0.930 . S
H614 C596 0.931 . S
H615 C594 0.931 . S
H616 C598 0.931 . S
H617 C599 0.936 . S
H618 C600 0.930 1_554 S
H619 C603 0.930 . S
H620 C604 0.931 . S
H621 C608 0.928 . S
H622 C607 0.929 . S
H623 C605 0.932 1_565 S
Li624 N641 1.990 . S
Li624 O684 1.956 . S
Li624 O685 1.970 1_556 S
Li624 O686 1.961 . S
Li625 N649 1.990 . S
Li625 O684 1.970 1_554 S
Li625 O685 1.956 . S
Li625 O687 1.961 . S
Li626 N671 1.990 . S
Li626 O684 1.961 . S
Li626 O686 1.956 . S
Li626 O687 1.970 1_556 S
Li627 N677 1.990 . S
Li627 O685 1.961 . S
Li627 O686 1.970 1_554 S
Li627 O687 1.956 . S
C628 C630 1.348 1_556 S
C628 C631 1.356 . S
C628 O684 1.325 . S
N629 C632 1.314 1_556 S
N629 C633 1.279 . S
C630 C628 1.348 1_554 S
C630 C632 1.353 . S
C630 H688 0.929 . S
C631 C628 1.356 . S
C631 C633 1.358 . S
C631 H689 0.930 . S
C632 N629 1.314 1_554 S
C632 C630 1.353 . S
C632 H690 0.930 . S
C633 N629 1.279 . S
C633 C631 1.358 . S
C633 H691 0.930 . S
C634 C637 1.348 . S
C634 C638 1.356 . S
C634 O685 1.325 . S
C635 N636 1.279 . S
C635 C638 1.358 . S
C635 H692 0.930 . S
N636 C635 1.279 . S
N636 C639 1.314 . S
C637 C634 1.348 . S
C637 C639 1.353 . S
C637 H693 0.929 . S
C638 C634 1.356 . S
C638 C635 1.358 . S
C638 H694 0.930 . S
C639 N636 1.314 . S
C639 C637 1.353 . S
C639 H695 0.930 . S
C640 N641 1.314 . S
C640 C645 1.353 . S
C640 H646 0.930 . S
N641 Li624 1.990 . S
N641 C640 1.314 . S
N641 C643 1.279 . S
C642 C643 1.358 . S
C642 C644 1.356 . S
C642 H696 0.930 . S
C643 N641 1.279 . S
C643 C642 1.358 . S
C643 H647 0.930 . S
C644 C642 1.356 . S
C644 C645 1.348 . S
C645 C640 1.353 . S
C645 C644 1.348 . S
C645 H697 0.929 . S
H646 C640 0.930 . S
H647 C643 0.930 . S
C648 N649 1.314 . S
C648 C650 1.353 . S
C648 H654 0.930 . S
N649 Li625 1.990 . S
N649 C648 1.314 . S
N649 C652 1.279 . S
C650 C648 1.353 . S
C650 C653 1.348 . S
C650 H698 0.929 . S
C651 C652 1.358 . S
C651 C653 1.356 . S
C651 H699 0.930 . S
C652 N649 1.279 . S
C652 C651 1.358 . S
C652 H655 0.930 . S
C653 C650 1.348 . S
C653 C651 1.356 . S
H654 C648 0.930 . S
H655 C652 0.930 . S
C656 C658 1.348 . S
C656 C659 1.356 . S
C656 O686 1.325 . S
N657 C660 1.314 . S
N657 C661 1.279 . S
C658 C656 1.348 . S
C658 C660 1.353 . S
C658 H700 0.929 . S
C659 C656 1.356 . S
C659 C661 1.358 . S
C659 H701 0.930 . S
C660 N657 1.314 . S
C660 C658 1.353 . S
C660 H702 0.930 . S
C661 N657 1.279 . S
C661 C659 1.358 . S
C661 H703 0.930 . S
C662 C663 1.348 1_554 S
C662 C664 1.356 . S
C662 O687 1.325 . S
C663 C662 1.348 1_556 S
C663 C665 1.353 . S
C663 H704 0.929 . S
C664 C662 1.356 . S
C664 C666 1.358 . S
C664 H705 0.930 . S
C665 C663 1.353 . S
C665 N667 1.314 1_556 S
C665 H706 0.930 . S
C666 C664 1.358 . S
C666 N667 1.279 . S
C666 H707 0.930 . S
N667 C665 1.314 1_554 S
N667 C666 1.279 . S
C668 C670 1.353 . S
C668 N671 1.314 . S
C668 H674 0.930 . S
C669 N671 1.279 . S
C669 C672 1.358 . S
C669 H675 0.930 . S
C670 C668 1.353 . S
C670 C673 1.348 . S
C670 H708 0.929 . S
N671 Li626 1.990 . S
N671 C668 1.314 . S
N671 C669 1.279 . S
C672 C669 1.358 . S
C672 C673 1.356 . S
C672 H709 0.930 . S
C673 C670 1.348 . S
C673 C672 1.356 . S
H674 C668 0.930 . S
H675 C669 0.930 . S
C676 N677 1.314 . S
C676 C678 1.353 . S
C676 H682 0.930 . S
N677 Li627 1.990 . S
N677 C676 1.314 . S
N677 C680 1.279 . S
C678 C676 1.353 . S
C678 C681 1.348 . S
C678 H710 0.929 . S
C679 C680 1.358 . S
C679 C681 1.356 . S
C679 H711 0.930 . S
C680 N677 1.279 . S
C680 C679 1.358 . S
C680 H683 0.930 . S
C681 C678 1.348 . S
C681 C679 1.356 . S
H682 C676 0.930 . S
H683 C680 0.930 . S
O684 Li624 1.956 . S
O684 Li625 1.970 1_556 S
O684 Li626 1.961 . S
O684 C628 1.325 . S
O685 Li624 1.970 1_554 S
O685 Li625 1.956 . S
O685 Li627 1.961 . S
O685 C634 1.325 . S
O686 Li624 1.961 . S
O686 Li626 1.956 . S
O686 Li627 1.970 1_556 S
O686 C656 1.325 . S
O687 Li625 1.961 . S
O687 Li626 1.970 1_554 S
O687 Li627 1.956 . S
O687 C662 1.325 . S
H688 C630 0.929 . S
H689 C631 0.930 . S
H690 C632 0.930 . S
H691 C633 0.930 . S
H692 C635 0.930 . S
H693 C637 0.929 . S
H694 C638 0.930 . S
H695 C639 0.930 . S
H696 C642 0.930 . S
H697 C645 0.929 . S
H698 C650 0.929 . S
H699 C651 0.930 . S
H700 C658 0.929 . S
H701 C659 0.930 . S
H702 C660 0.930 . S
H703 C661 0.930 . S
H704 C663 0.929 . S
H705 C664 0.930 . S
H706 C665 0.930 . S
H707 C666 0.930 . S
H708 C670 0.929 . S
H709 C672 0.930 . S
H710 C678 0.929 . S
H711 C679 0.930 . S
Li712 N729 1.990 . S
Li712 O772 1.956 . S
Li712 O773 1.970 . S
Li712 O774 1.961 . S
Li713 N737 1.990 . S
Li713 O772 1.970 . S
Li713 O773 1.956 . S
Li713 O775 1.961 . S
Li714 N759 1.990 . S
Li714 O772 1.961 . S
Li714 O774 1.956 . S
Li714 O775 1.970 . S
Li715 N765 1.990 . S
Li715 O773 1.961 . S
Li715 O774 1.970 . S
Li715 O775 1.956 . S
C716 C718 1.348 . S
C716 C719 1.356 . S
C716 O772 1.325 . S
N717 C720 1.314 . S
N717 C721 1.279 . S
C718 C716 1.348 . S
C718 C720 1.353 . S
C718 H776 0.929 . S
C719 C716 1.356 . S
C719 C721 1.358 . S
C719 H777 0.930 . S
C720 N717 1.314 . S
C720 C718 1.353 . S
C720 H778 0.930 . S
C721 N717 1.279 . S
C721 C719 1.358 . S
C721 H779 0.930 . S
C722 C725 1.348 . S
C722 C726 1.356 . S
C722 O773 1.325 . S
C723 N724 1.279 . S
C723 C726 1.358 . S
C723 H780 0.930 . S
N724 C723 1.279 . S
N724 C727 1.314 . S
C725 C722 1.348 . S
C725 C727 1.353 . S
C725 H781 0.929 . S
C726 C722 1.356 . S
C726 C723 1.358 . S
C726 H782 0.930 . S
C727 N724 1.314 . S
C727 C725 1.353 . S
C727 H783 0.930 . S
C728 N729 1.314 . S
C728 C733 1.353 . S
C728 H734 0.930 . S
N729 Li712 1.990 . S
N729 C728 1.314 . S
N729 C731 1.279 . S
C730 C731 1.358 . S
C730 C732 1.356 . S
C730 H784 0.930 . S
C731 N729 1.279 . S
C731 C730 1.358 . S
C731 H735 0.930 . S
C732 C730 1.356 . S
C732 C733 1.348 . S
C733 C728 1.353 . S
C733 C732 1.348 . S
C733 H785 0.929 . S
H734 C728 0.930 . S
H735 C731 0.930 . S
C736 N737 1.314 . S
C736 C738 1.353 . S
C736 H742 0.930 . S
N737 Li713 1.990 . S
N737 C736 1.314 . S
N737 C740 1.279 . S
C738 C736 1.353 . S
C738 C741 1.348 . S
C738 H786 0.929 . S
C739 C740 1.358 . S
C739 C741 1.356 . S
C739 H787 0.930 . S
C740 N737 1.279 . S
C740 C739 1.358 . S
C740 H743 0.930 . S
C741 C738 1.348 . S
C741 C739 1.356 . S
H742 C736 0.930 . S
H743 C740 0.930 . S
C744 C746 1.348 . S
C744 C747 1.356 . S
C744 O774 1.325 . S
N745 C748 1.314 . S
N745 C749 1.279 . S
C746 C744 1.348 . S
C746 C748 1.353 . S
C746 H788 0.929 . S
C747 C744 1.356 . S
C747 C749 1.358 . S
C747 H789 0.930 . S
C748 N745 1.314 . S
C748 C746 1.353 . S
C748 H790 0.930 . S
C749 N745 1.279 . S
C749 C747 1.358 . S
C749 H791 0.930 . S
C750 C751 1.348 . S
C750 C752 1.356 . S
C750 O775 1.325 . S
C751 C750 1.348 . S
C751 C753 1.353 . S
C751 H792 0.929 . S
C752 C750 1.356 . S
C752 C754 1.358 . S
C752 H793 0.930 . S
C753 C751 1.353 . S
C753 N755 1.314 . S
C753 H794 0.930 . S
C754 C752 1.358 . S
C754 N755 1.279 . S
C754 H795 0.930 . S
N755 C753 1.314 . S
N755 C754 1.279 . S
C756 C758 1.353 . S
C756 N759 1.314 . S
C756 H762 0.930 . S
C757 N759 1.279 . S
C757 C760 1.358 . S
C757 H763 0.930 . S
C758 C756 1.353 . S
C758 C761 1.348 . S
C758 H796 0.929 . S
N759 Li714 1.990 . S
N759 C756 1.314 . S
N759 C757 1.279 . S
C760 C757 1.358 . S
C760 C761 1.356 . S
C760 H797 0.930 . S
C761 C758 1.348 . S
C761 C760 1.356 . S
H762 C756 0.930 . S
H763 C757 0.930 . S
C764 N765 1.314 . S
C764 C766 1.353 . S
C764 H770 0.930 . S
N765 Li715 1.990 . S
N765 C764 1.314 . S
N765 C768 1.279 . S
C766 C764 1.353 . S
C766 C769 1.348 . S
C766 H798 0.929 . S
C767 C768 1.358 . S
C767 C769 1.356 . S
C767 H799 0.930 . S
C768 N765 1.279 . S
C768 C767 1.358 . S
C768 H771 0.930 . S
C769 C766 1.348 . S
C769 C767 1.356 . S
H770 C764 0.930 . S
H771 C768 0.930 . S
O772 Li712 1.956 . S
O772 Li713 1.970 . S
O772 Li714 1.961 . S
O772 C716 1.325 . S
O773 Li712 1.970 . S
O773 Li713 1.956 . S
O773 Li715 1.961 . S
O773 C722 1.325 . S
O774 Li712 1.961 . S
O774 Li714 1.956 . S
O774 Li715 1.970 . S
O774 C744 1.325 . S
O775 Li713 1.961 . S
O775 Li714 1.970 . S
O775 Li715 1.956 . S
O775 C750 1.325 . S
H776 C718 0.929 . S
H777 C719 0.930 . S
H778 C720 0.930 . S
H779 C721 0.930 . S
H780 C723 0.930 . S
H781 C725 0.929 . S
H782 C726 0.930 . S
H783 C727 0.930 . S
H784 C730 0.930 . S
H785 C733 0.929 . S
H786 C738 0.929 . S
H787 C739 0.930 . S
H788 C746 0.929 . S
H789 C747 0.930 . S
H790 C748 0.930 . S
H791 C749 0.930 . S
H792 C751 0.929 . S
H793 C752 0.930 . S
H794 C753 0.930 . S
H795 C754 0.930 . S
H796 C758 0.929 . S
H797 C760 0.930 . S
H798 C766 0.929 . S
H799 C767 0.930 . S
Li800 N817 1.990 . S
Li800 O860 1.956 . S
Li800 O861 1.970 1_556 S
Li800 O862 1.961 . S
Li801 N825 1.990 . S
Li801 O860 1.970 1_554 S
Li801 O861 1.956 . S
Li801 O863 1.961 . S
Li802 N847 1.990 . S
Li802 O860 1.961 . S
Li802 O862 1.956 . S
Li802 O863 1.970 1_556 S
Li803 N853 1.990 . S
Li803 O861 1.961 . S
Li803 O862 1.970 1_554 S
Li803 O863 1.956 . S
C804 C806 1.348 1_556 S
C804 C807 1.356 . S
C804 O860 1.325 . S
N805 C808 1.314 1_556 S
N805 C809 1.279 . S
C806 C804 1.348 1_554 S
C806 C808 1.353 . S
C806 H864 0.929 . S
C807 C804 1.356 . S
C807 C809 1.358 . S
C807 H865 0.930 . S
C808 N805 1.314 1_554 S
C808 C806 1.353 . S
C808 H866 0.930 . S
C809 N805 1.279 . S
C809 C807 1.358 . S
C809 H867 0.930 . S
C810 C813 1.348 . S
C810 C814 1.356 . S
C810 O861 1.325 . S
C811 N812 1.279 . S
C811 C814 1.358 . S
C811 H868 0.930 . S
N812 C811 1.279 . S
N812 C815 1.314 . S
C813 C810 1.348 . S
C813 C815 1.353 . S
C813 H869 0.929 . S
C814 C810 1.356 . S
C814 C811 1.358 . S
C814 H870 0.930 . S
C815 N812 1.314 . S
C815 C813 1.353 . S
C815 H871 0.930 . S
C816 N817 1.314 . S
C816 C821 1.353 . S
C816 H822 0.930 . S
N817 Li800 1.990 . S
N817 C816 1.314 . S
N817 C819 1.279 . S
C818 C819 1.358 . S
C818 C820 1.356 . S
C818 H872 0.930 . S
C819 N817 1.279 . S
C819 C818 1.358 . S
C819 H823 0.930 . S
C820 C818 1.356 . S
C820 C821 1.348 . S
C821 C816 1.353 . S
C821 C820 1.348 . S
C821 H873 0.929 . S
H822 C816 0.930 . S
H823 C819 0.930 . S
C824 N825 1.314 . S
C824 C826 1.353 . S
C824 H830 0.930 . S
N825 Li801 1.990 . S
N825 C824 1.314 . S
N825 C828 1.279 . S
C826 C824 1.353 . S
C826 C829 1.348 . S
C826 H874 0.929 . S
C827 C828 1.358 . S
C827 C829 1.356 . S
C827 H875 0.930 . S
C828 N825 1.279 . S
C828 C827 1.358 . S
C828 H831 0.930 . S
C829 C826 1.348 . S
C829 C827 1.356 . S
H830 C824 0.930 . S
H831 C828 0.930 . S
C832 C834 1.348 . S
C832 C835 1.356 . S
C832 O862 1.325 . S
N833 C836 1.314 . S
N833 C837 1.279 . S
C834 C832 1.348 . S
C834 C836 1.353 . S
C834 H876 0.929 . S
C835 C832 1.356 . S
C835 C837 1.358 . S
C835 H877 0.930 . S
C836 N833 1.314 . S
C836 C834 1.353 . S
C836 H878 0.930 . S
C837 N833 1.279 . S
C837 C835 1.358 . S
C837 H879 0.930 . S
C838 C839 1.348 1_554 S
C838 C840 1.356 . S
C838 O863 1.325 . S
C839 C838 1.348 1_556 S
C839 C841 1.353 . S
C839 H880 0.929 . S
C840 C838 1.356 . S
C840 C842 1.358 . S
C840 H881 0.930 . S
C841 C839 1.353 . S
C841 N843 1.314 1_556 S
C841 H882 0.930 . S
C842 C840 1.358 . S
C842 N843 1.279 . S
C842 H883 0.930 . S
N843 C841 1.314 1_554 S
N843 C842 1.279 . S
C844 C846 1.353 . S
C844 N847 1.314 . S
C844 H850 0.930 . S
C845 N847 1.279 . S
C845 C848 1.358 . S
C845 H851 0.930 . S
C846 C844 1.353 . S
C846 C849 1.348 . S
C846 H884 0.929 . S
N847 Li802 1.990 . S
N847 C844 1.314 . S
N847 C845 1.279 . S
C848 C845 1.358 . S
C848 C849 1.356 . S
C848 H885 0.930 . S
C849 C846 1.348 . S
C849 C848 1.356 . S
H850 C844 0.930 . S
H851 C845 0.930 . S
C852 N853 1.314 . S
C852 C854 1.353 . S
C852 H858 0.930 . S
N853 Li803 1.990 . S
N853 C852 1.314 . S
N853 C856 1.279 . S
C854 C852 1.353 . S
C854 C857 1.348 . S
C854 H886 0.929 . S
C855 C856 1.358 . S
C855 C857 1.356 . S
C855 H887 0.930 . S
C856 N853 1.279 . S
C856 C855 1.358 . S
C856 H859 0.930 . S
C857 C854 1.348 . S
C857 C855 1.356 . S
H858 C852 0.930 . S
H859 C856 0.930 . S
O860 Li800 1.956 . S
O860 Li801 1.970 1_556 S
O860 Li802 1.961 . S
O860 C804 1.325 . S
O861 Li800 1.970 1_554 S
O861 Li801 1.956 . S
O861 Li803 1.961 . S
O861 C810 1.325 . S
O862 Li800 1.961 . S
O862 Li802 1.956 . S
O862 Li803 1.970 1_556 S
O862 C832 1.325 . S
O863 Li801 1.961 . S
O863 Li802 1.970 1_554 S
O863 Li803 1.956 . S
O863 C838 1.325 . S
H864 C806 0.929 . S
H865 C807 0.930 . S
H866 C808 0.930 . S
H867 C809 0.930 . S
H868 C811 0.930 . S
H869 C813 0.929 . S
H870 C814 0.930 . S
H871 C815 0.930 . S
H872 C818 0.930 . S
H873 C821 0.929 . S
H874 C826 0.929 . S
H875 C827 0.930 . S
H876 C834 0.929 . S
H877 C835 0.930 . S
H878 C836 0.930 . S
H879 C837 0.930 . S
H880 C839 0.929 . S
H881 C840 0.930 . S
H882 C841 0.930 . S
H883 C842 0.930 . S
H884 C846 0.929 . S
H885 C848 0.930 . S
H886 C854 0.929 . S
H887 C855 0.930 . S
Li888 N905 1.990 . S
Li888 O948 1.956 . S
Li888 O949 1.923 1_545 S
Li888 O950 1.961 . S
Li889 N913 1.990 . S
Li889 O948 1.970 1_565 S
Li889 O949 1.958 . S
Li889 O951 1.961 . S
Li890 N935 1.990 . S
Li890 O948 1.961 . S
Li890 O950 1.956 . S
Li890 O951 1.970 1_545 S
Li891 N941 1.990 . S
Li891 O949 1.998 . S
Li891 O950 1.970 1_565 S
Li891 O951 1.956 . S
C892 C894 1.348 . S
C892 C895 1.356 . S
C892 O948 1.325 . S
N893 C896 1.314 . S
N893 C897 1.279 . S
C894 C892 1.348 . S
C894 C896 1.353 . S
C894 H952 0.929 . S
C895 C892 1.356 . S
C895 C897 1.358 . S
C895 H953 0.930 . S
C896 N893 1.314 . S
C896 C894 1.353 . S
C896 H954 0.930 . S
C897 N893 1.279 . S
C897 C895 1.358 . S
C897 H955 0.930 . S
C898 C901 1.348 1_565 S
C898 C902 1.356 . S
C898 O949 1.334 . S
C899 N900 1.279 . S
C899 C902 1.358 . S
C899 H956 0.930 . S
N900 C899 1.279 . S
N900 C903 1.314 1_565 S
C901 C898 1.348 1_545 S
C901 C903 1.353 . S
C901 H957 0.929 . S
C902 C898 1.356 . S
C902 C899 1.358 . S
C902 H958 0.930 . S
C903 N900 1.314 1_545 S
C903 C901 1.353 . S
C903 H959 0.930 . S
C904 N905 1.314 . S
C904 C909 1.353 . S
C904 H910 0.930 . S
N905 Li888 1.990 . S
N905 C904 1.314 . S
N905 C907 1.279 . S
C906 C907 1.358 . S
C906 C908 1.356 . S
C906 H960 0.930 . S
C907 N905 1.279 . S
C907 C906 1.358 . S
C907 H911 0.930 . S
C908 C906 1.356 . S
C908 C909 1.348 . S
C909 C904 1.353 . S
C909 C908 1.348 . S
C909 H961 0.929 . S
H910 C904 0.930 . S
H911 C907 0.930 . S
C912 N913 1.314 . S
C912 C914 1.353 . S
C912 H918 0.930 . S
N913 Li889 1.990 . S
N913 C912 1.314 . S
N913 C916 1.279 . S
C914 C912 1.353 . S
C914 C917 1.348 . S
C914 H962 0.929 . S
C915 C916 1.358 . S
C915 C917 1.356 . S
C915 H963 0.930 . S
C916 N913 1.279 . S
C916 C915 1.358 . S
C916 H919 0.930 . S
C917 C914 1.348 . S
C917 C915 1.356 . S
H918 C912 0.930 . S
H919 C916 0.930 . S
C920 C922 1.348 1_545 S
C920 C923 1.356 . S
C920 O950 1.325 . S
N921 C924 1.314 1_545 S
N921 C925 1.279 . S
C922 C920 1.348 1_565 S
C922 C924 1.353 . S
C922 H964 0.929 . S
C923 C920 1.356 . S
C923 C925 1.358 . S
C923 H965 0.930 . S
C924 N921 1.314 1_565 S
C924 C922 1.353 . S
C924 H966 0.930 . S
C925 N921 1.279 . S
C925 C923 1.358 . S
C925 H967 0.930 . S
C926 C927 1.348 . S
C926 C928 1.356 . S
C926 O951 1.325 . S
C927 C926 1.348 . S
C927 C929 1.353 . S
C927 H968 0.929 . S
C928 C926 1.356 . S
C928 C930 1.358 . S
C928 H969 0.930 . S
C929 C927 1.353 . S
C929 N931 1.314 . S
C929 H970 0.930 . S
C930 C928 1.358 . S
C930 N931 1.279 . S
C930 H971 0.930 . S
N931 C929 1.314 . S
N931 C930 1.279 . S
C932 C934 1.353 . S
C932 N935 1.314 . S
C932 H938 0.930 . S
C933 N935 1.279 . S
C933 C936 1.358 . S
C933 H939 0.930 . S
C934 C932 1.353 . S
C934 C937 1.348 . S
C934 H972 0.929 . S
N935 Li890 1.990 . S
N935 C932 1.314 . S
N935 C933 1.279 . S
C936 C933 1.358 . S
C936 C937 1.356 . S
C936 H973 0.930 . S
C937 C934 1.348 . S
C937 C936 1.356 . S
H938 C932 0.930 . S
H939 C933 0.930 . S
C940 N941 1.314 . S
C940 C942 1.353 . S
C940 H946 0.930 . S
N941 Li891 1.990 . S
N941 C940 1.314 . S
N941 C944 1.279 . S
C942 C940 1.353 . S
C942 C945 1.348 . S
C942 H974 0.929 . S
C943 C944 1.358 . S
C943 C945 1.356 . S
C943 H975 0.930 . S
C944 N941 1.279 . S
C944 C943 1.358 . S
C944 H947 0.930 . S
C945 C942 1.348 . S
C945 C943 1.356 . S
H946 C940 0.930 . S
H947 C944 0.930 . S
O948 Li888 1.956 . S
O948 Li889 1.970 1_545 S
O948 Li890 1.961 . S
O948 C892 1.325 . S
O949 Li888 1.923 1_565 S
O949 Li889 1.958 . S
O949 Li891 1.998 . S
O949 C898 1.334 . S
O950 Li888 1.961 . S
O950 Li890 1.956 . S
O950 Li891 1.970 1_545 S
O950 C920 1.325 . S
O951 Li889 1.961 . S
O951 Li890 1.970 1_565 S
O951 Li891 1.956 . S
O951 C926 1.325 . S
H952 C894 0.929 . S
H953 C895 0.930 . S
H954 C896 0.930 . S
H955 C897 0.930 . S
H956 C899 0.930 . S
H957 C901 0.929 . S
H958 C902 0.930 . S
H959 C903 0.930 . S
H960 C906 0.930 . S
H961 C909 0.929 . S
H962 C914 0.929 . S
H963 C915 0.930 . S
H964 C922 0.929 . S
H965 C923 0.930 . S
H966 C924 0.930 . S
H967 C925 0.930 . S
H968 C927 0.929 . S
H969 C928 0.930 . S
H970 C929 0.930 . S
H971 C930 0.930 . S
H972 C934 0.929 . S
H973 C936 0.930 . S
H974 C942 0.929 . S
H975 C943 0.930 . S
Li976 N993 1.990 . S
Li976 O1036 1.956 . S
Li976 O1037 1.970 . S
Li976 O1038 1.961 . S
Li977 N1001 1.990 . S
Li977 O1036 1.970 . S
Li977 O1037 1.956 . S
Li977 O1039 1.961 . S
Li978 N1023 1.990 . S
Li978 O1036 1.961 . S
Li978 O1038 1.956 . S
Li978 O1039 1.970 . S
Li979 N1029 1.990 . S
Li979 O1037 1.961 . S
Li979 O1038 1.970 . S
Li979 O1039 1.956 . S
C980 C982 1.348 . S
C980 C983 1.356 . S
C980 O1036 1.325 . S
N981 C984 1.314 . S
N981 C985 1.279 . S
C982 C980 1.348 . S
C982 C984 1.353 . S
C982 H1040 0.929 . S
C983 C980 1.356 . S
C983 C985 1.358 . S
C983 H1041 0.930 . S
C984 N981 1.314 . S
C984 C982 1.353 . S
C984 H1042 0.930 . S
C985 N981 1.279 . S
C985 C983 1.358 . S
C985 H1043 0.930 . S
C986 C989 1.348 . S
C986 C990 1.356 . S
C986 O1037 1.325 . S
C987 N988 1.279 . S
C987 C990 1.358 . S
C987 H1044 0.930 . S
N988 C987 1.279 . S
N988 C991 1.314 . S
C989 C986 1.348 . S
C989 C991 1.353 . S
C989 H1045 0.929 . S
C990 C986 1.356 . S
C990 C987 1.358 . S
C990 H1046 0.930 . S
C991 N988 1.314 . S
C991 C989 1.353 . S
C991 H1047 0.930 . S
C992 N993 1.314 . S
C992 C997 1.353 . S
C992 H998 0.930 . S
N993 Li976 1.990 . S
N993 C992 1.314 . S
N993 C995 1.279 . S
C994 C995 1.358 . S
C994 C996 1.356 . S
C994 H1048 0.930 . S
C995 N993 1.279 . S
C995 C994 1.358 . S
C995 H999 0.930 . S
C996 C994 1.356 . S
C996 C997 1.348 . S
C997 C992 1.353 . S
C997 C996 1.348 . S
C997 H1049 0.929 . S
H998 C992 0.930 . S
H999 C995 0.930 . S
C1000 N1001 1.314 . S
C1000 C1002 1.353 . S
C1000 H1006 0.930 . S
N1001 Li977 1.990 . S
N1001 C1000 1.314 . S
N1001 C1004 1.279 . S
C1002 C1000 1.353 . S
C1002 C1005 1.348 . S
C1002 H1050 0.929 . S
C1003 C1004 1.358 . S
C1003 C1005 1.356 . S
C1003 H1051 0.930 . S
C1004 N1001 1.279 . S
C1004 C1003 1.358 . S
C1004 H1007 0.930 . S
C1005 C1002 1.348 . S
C1005 C1003 1.356 . S
H1006 C1000 0.930 . S
H1007 C1004 0.930 . S
C1008 C1010 1.348 . S
C1008 C1011 1.356 . S
C1008 O1038 1.325 . S
N1009 C1012 1.314 . S
N1009 C1013 1.279 . S
C1010 C1008 1.348 . S
C1010 C1012 1.353 . S
C1010 H1052 0.929 . S
C1011 C1008 1.356 . S
C1011 C1013 1.358 . S
C1011 H1053 0.930 . S
C1012 N1009 1.314 . S
C1012 C1010 1.353 . S
C1012 H1054 0.930 . S
C1013 N1009 1.279 . S
C1013 C1011 1.358 . S
C1013 H1055 0.930 . S
C1014 C1015 1.348 . S
C1014 C1016 1.356 . S
C1014 O1039 1.325 . S
C1015 C1014 1.348 . S
C1015 C1017 1.353 . S
C1015 H1056 0.929 . S
C1016 C1014 1.356 . S
C1016 C1018 1.358 . S
C1016 H1057 0.930 . S
C1017 C1015 1.353 . S
C1017 N1019 1.314 . S
C1017 H1058 0.930 . S
C1018 C1016 1.358 . S
C1018 N1019 1.279 . S
C1018 H1059 0.930 . S
N1019 C1017 1.314 . S
N1019 C1018 1.279 . S
C1020 C1022 1.353 . S
C1020 N1023 1.314 . S
C1020 H1026 0.930 . S
C1021 N1023 1.279 . S
C1021 C1024 1.358 . S
C1021 H1027 0.930 . S
C1022 C1020 1.353 . S
C1022 C1025 1.348 . S
C1022 H1060 0.929 . S
N1023 Li978 1.990 . S
N1023 C1020 1.314 . S
N1023 C1021 1.279 . S
C1024 C1021 1.358 . S
C1024 C1025 1.356 . S
C1024 H1061 0.930 . S
C1025 C1022 1.348 . S
C1025 C1024 1.356 . S
H1026 C1020 0.930 . S
H1027 C1021 0.930 . S
C1028 N1029 1.314 . S
C1028 C1030 1.353 . S
C1028 H1034 0.930 . S
N1029 Li979 1.990 . S
N1029 C1028 1.314 . S
N1029 C1032 1.279 . S
C1030 C1028 1.353 . S
C1030 C1033 1.348 . S
C1030 H1062 0.929 . S
C1031 C1032 1.358 . S
C1031 C1033 1.356 . S
C1031 H1063 0.930 . S
C1032 N1029 1.279 . S
C1032 C1031 1.358 . S
C1032 H1035 0.930 . S
C1033 C1030 1.348 . S
C1033 C1031 1.356 . S
H1034 C1028 0.930 . S
H1035 C1032 0.930 . S
O1036 Li976 1.956 . S
O1036 Li977 1.970 . S
O1036 Li978 1.961 . S
O1036 C980 1.325 . S
O1037 Li976 1.970 . S
O1037 Li977 1.956 . S
O1037 Li979 1.961 . S
O1037 C986 1.325 . S
O1038 Li976 1.961 . S
O1038 Li978 1.956 . S
O1038 Li979 1.970 . S
O1038 C1008 1.325 . S
O1039 Li977 1.961 . S
O1039 Li978 1.970 . S
O1039 Li979 1.956 . S
O1039 C1014 1.325 . S
H1040 C982 0.929 . S
H1041 C983 0.930 . S
H1042 C984 0.930 . S
H1043 C985 0.930 . S
H1044 C987 0.930 . S
H1045 C989 0.929 . S
H1046 C990 0.930 . S
H1047 C991 0.930 . S
H1048 C994 0.930 . S
H1049 C997 0.929 . S
H1050 C1002 0.929 . S
H1051 C1003 0.930 . S
H1052 C1010 0.929 . S
H1053 C1011 0.930 . S
H1054 C1012 0.930 . S
H1055 C1013 0.930 . S
H1056 C1015 0.929 . S
H1057 C1016 0.930 . S
H1058 C1017 0.930 . S
H1059 C1018 0.930 . S
H1060 C1022 0.929 . S
H1061 C1024 0.930 . S
H1062 C1030 0.929 . S
H1063 C1031 0.930 . S
Li1064 N1081 1.990 . S
Li1064 O1124 1.956 . S
Li1064 O1125 1.970 . S
Li1064 O1126 1.961 . S
Li1065 N1089 1.990 . S
Li1065 O1124 1.970 . S
Li1065 O1125 1.956 . S
Li1065 O1127 1.961 . S
Li1066 N1111 1.990 . S
Li1066 O1124 1.961 . S
Li1066 O1126 1.956 . S
Li1066 O1127 1.970 . S
Li1067 N1117 1.990 . S
Li1067 O1125 1.961 . S
Li1067 O1126 1.970 . S
Li1067 O1127 1.956 . S
C1068 C1070 1.348 . S
C1068 C1071 1.356 . S
C1068 O1124 1.325 . S
N1069 C1072 1.314 . S
N1069 C1073 1.279 . S
C1070 C1068 1.348 . S
C1070 C1072 1.353 . S
C1070 H1128 0.929 . S
C1071 C1068 1.356 . S
C1071 C1073 1.358 . S
C1071 H1129 0.930 . S
C1072 N1069 1.314 . S
C1072 C1070 1.353 . S
C1072 H1130 0.930 . S
C1073 N1069 1.279 . S
C1073 C1071 1.358 . S
C1073 H1131 0.930 . S
C1074 C1077 1.348 . S
C1074 C1078 1.356 . S
C1074 O1125 1.325 . S
C1075 N1076 1.279 . S
C1075 C1078 1.358 . S
C1075 H1132 0.930 . S
N1076 C1075 1.279 . S
N1076 C1079 1.314 . S
C1077 C1074 1.348 . S
C1077 C1079 1.353 . S
C1077 H1133 0.929 . S
C1078 C1074 1.356 . S
C1078 C1075 1.358 . S
C1078 H1134 0.930 . S
C1079 N1076 1.314 . S
C1079 C1077 1.353 . S
C1079 H1135 0.930 . S
C1080 N1081 1.314 . S
C1080 C1085 1.353 . S
C1080 H1086 0.930 . S
N1081 Li1064 1.990 . S
N1081 C1080 1.314 . S
N1081 C1083 1.279 . S
C1082 C1083 1.358 . S
C1082 C1084 1.356 . S
C1082 H1136 0.930 . S
C1083 N1081 1.279 . S
C1083 C1082 1.358 . S
C1083 H1087 0.930 . S
C1084 C1082 1.356 . S
C1084 C1085 1.348 . S
C1085 C1080 1.353 . S
C1085 C1084 1.348 . S
C1085 H1137 0.929 . S
H1086 C1080 0.930 . S
H1087 C1083 0.930 . S
C1088 N1089 1.314 . S
C1088 C1090 1.353 . S
C1088 H1094 0.930 . S
N1089 Li1065 1.990 . S
N1089 C1088 1.314 . S
N1089 C1092 1.279 . S
C1090 C1088 1.353 . S
C1090 C1093 1.348 . S
C1090 H1138 0.929 . S
C1091 C1092 1.358 . S
C1091 C1093 1.356 . S
C1091 H1139 0.930 . S
C1092 N1089 1.279 . S
C1092 C1091 1.358 . S
C1092 H1095 0.930 . S
C1093 C1090 1.348 . S
C1093 C1091 1.356 . S
H1094 C1088 0.930 . S
H1095 C1092 0.930 . S
C1096 C1098 1.348 . S
C1096 C1099 1.356 . S
C1096 O1126 1.325 . S
N1097 C1100 1.314 . S
N1097 C1101 1.279 . S
C1098 C1096 1.348 . S
C1098 C1100 1.353 . S
C1098 H1140 0.929 . S
C1099 C1096 1.356 . S
C1099 C1101 1.358 . S
C1099 H1141 0.930 . S
C1100 N1097 1.314 . S
C1100 C1098 1.353 . S
C1100 H1142 0.930 . S
C1101 N1097 1.279 . S
C1101 C1099 1.358 . S
C1101 H1143 0.930 . S
C1102 C1103 1.348 . S
C1102 C1104 1.356 . S
C1102 O1127 1.325 . S
C1103 C1102 1.348 . S
C1103 C1105 1.353 . S
C1103 H1144 0.929 . S
C1104 C1102 1.356 . S
C1104 C1106 1.358 . S
C1104 H1145 0.930 . S
C1105 C1103 1.353 . S
C1105 N1107 1.314 . S
C1105 H1146 0.930 . S
C1106 C1104 1.358 . S
C1106 N1107 1.279 . S
C1106 H1147 0.930 . S
N1107 C1105 1.314 . S
N1107 C1106 1.279 . S
C1108 C1110 1.353 . S
C1108 N1111 1.314 . S
C1108 H1114 0.930 . S
C1109 N1111 1.279 . S
C1109 C1112 1.358 . S
C1109 H1115 0.930 . S
C1110 C1108 1.353 . S
C1110 C1113 1.348 . S
C1110 H1148 0.929 . S
N1111 Li1066 1.990 . S
N1111 C1108 1.314 . S
N1111 C1109 1.279 . S
C1112 C1109 1.358 . S
C1112 C1113 1.356 . S
C1112 H1149 0.930 . S
C1113 C1110 1.348 . S
C1113 C1112 1.356 . S
H1114 C1108 0.930 . S
H1115 C1109 0.930 . S
C1116 N1117 1.314 . S
C1116 C1118 1.353 . S
C1116 H1122 0.930 . S
N1117 Li1067 1.990 . S
N1117 C1116 1.314 . S
N1117 C1120 1.279 . S
C1118 C1116 1.353 . S
C1118 C1121 1.348 . S
C1118 H1150 0.929 . S
C1119 C1120 1.358 . S
C1119 C1121 1.356 . S
C1119 H1151 0.930 . S
C1120 N1117 1.279 . S
C1120 C1119 1.358 . S
C1120 H1123 0.930 . S
C1121 C1118 1.348 . S
C1121 C1119 1.356 . S
H1122 C1116 0.930 . S
H1123 C1120 0.930 . S
O1124 Li1064 1.956 . S
O1124 Li1065 1.970 . S
O1124 Li1066 1.961 . S
O1124 C1068 1.325 . S
O1125 Li1064 1.970 . S
O1125 Li1065 1.956 . S
O1125 Li1067 1.961 . S
O1125 C1074 1.325 . S
O1126 Li1064 1.961 . S
O1126 Li1066 1.956 . S
O1126 Li1067 1.970 . S
O1126 C1096 1.325 . S
O1127 Li1065 1.961 . S
O1127 Li1066 1.970 . S
O1127 Li1067 1.956 . S
O1127 C1102 1.325 . S
H1128 C1070 0.929 . S
H1129 C1071 0.930 . S
H1130 C1072 0.930 . S
H1131 C1073 0.930 . S
H1132 C1075 0.930 . S
H1133 C1077 0.929 . S
H1134 C1078 0.930 . S
H1135 C1079 0.930 . S
H1136 C1082 0.930 . S
H1137 C1085 0.929 . S
H1138 C1090 0.929 . S
H1139 C1091 0.930 . S
H1140 C1098 0.929 . S
H1141 C1099 0.930 . S
H1142 C1100 0.930 . S
H1143 C1101 0.930 . S
H1144 C1103 0.929 . S
H1145 C1104 0.930 . S
H1146 C1105 0.930 . S
H1147 C1106 0.930 . S
H1148 C1110 0.929 . S
H1149 C1112 0.930 . S
H1150 C1118 0.929 . S
H1151 C1119 0.930 . S
Li1152 N1169 1.990 . S
Li1152 O1212 1.956 . S
Li1152 O1213 1.970 . S
Li1152 O1214 1.961 . S
Li1153 N1177 1.990 . S
Li1153 O1212 1.970 . S
Li1153 O1213 1.956 . S
Li1153 O1215 1.961 . S
Li1154 N1199 1.990 . S
Li1154 O1212 1.961 . S
Li1154 O1214 1.956 . S
Li1154 O1215 1.970 . S
Li1155 N1205 1.990 . S
Li1155 O1213 1.961 . S
Li1155 O1214 1.970 . S
Li1155 O1215 1.956 . S
C1156 C1158 1.348 . S
C1156 C1159 1.356 . S
C1156 O1212 1.325 . S
N1157 C1160 1.314 . S
N1157 C1161 1.279 . S
C1158 C1156 1.348 . S
C1158 C1160 1.353 . S
C1158 H1216 0.929 . S
C1159 C1156 1.356 . S
C1159 C1161 1.358 . S
C1159 H1217 0.930 . S
C1160 N1157 1.314 . S
C1160 C1158 1.353 . S
C1160 H1218 0.930 . S
C1161 N1157 1.279 . S
C1161 C1159 1.358 . S
C1161 H1219 0.930 . S
C1162 C1165 1.348 . S
C1162 C1166 1.356 . S
C1162 O1213 1.325 . S
C1163 N1164 1.279 . S
C1163 C1166 1.358 . S
C1163 H1220 0.930 . S
N1164 C1163 1.279 . S
N1164 C1167 1.314 . S
C1165 C1162 1.348 . S
C1165 C1167 1.353 . S
C1165 H1221 0.929 . S
C1166 C1162 1.356 . S
C1166 C1163 1.358 . S
C1166 H1222 0.930 . S
C1167 N1164 1.314 . S
C1167 C1165 1.353 . S
C1167 H1223 0.930 . S
C1168 N1169 1.314 . S
C1168 C1173 1.353 . S
C1168 H1174 0.930 . S
N1169 Li1152 1.990 . S
N1169 C1168 1.314 . S
N1169 C1171 1.279 . S
C1170 C1171 1.358 . S
C1170 C1172 1.356 . S
C1170 H1224 0.930 . S
C1171 N1169 1.279 . S
C1171 C1170 1.358 . S
C1171 H1175 0.930 . S
C1172 C1170 1.356 . S
C1172 C1173 1.348 . S
C1173 C1168 1.353 . S
C1173 C1172 1.348 . S
C1173 H1225 0.929 . S
H1174 C1168 0.930 . S
H1175 C1171 0.930 . S
C1176 N1177 1.314 . S
C1176 C1178 1.353 . S
C1176 H1182 0.930 . S
N1177 Li1153 1.990 . S
N1177 C1176 1.314 . S
N1177 C1180 1.279 . S
C1178 C1176 1.353 . S
C1178 C1181 1.348 . S
C1178 H1226 0.929 . S
C1179 C1180 1.358 . S
C1179 C1181 1.356 . S
C1179 H1227 0.930 . S
C1180 N1177 1.279 . S
C1180 C1179 1.358 . S
C1180 H1183 0.930 . S
C1181 C1178 1.348 . S
C1181 C1179 1.356 . S
H1182 C1176 0.930 . S
H1183 C1180 0.930 . S
C1184 C1186 1.348 . S
C1184 C1187 1.356 . S
C1184 O1214 1.325 . S
N1185 C1188 1.314 . S
N1185 C1189 1.279 . S
C1186 C1184 1.348 . S
C1186 C1188 1.353 . S
C1186 H1228 0.929 . S
C1187 C1184 1.356 . S
C1187 C1189 1.358 . S
C1187 H1229 0.930 . S
C1188 N1185 1.314 . S
C1188 C1186 1.353 . S
C1188 H1230 0.930 . S
C1189 N1185 1.279 . S
C1189 C1187 1.358 . S
C1189 H1231 0.930 . S
C1190 C1191 1.348 . S
C1190 C1192 1.356 . S
C1190 O1215 1.325 . S
C1191 C1190 1.348 . S
C1191 C1193 1.353 . S
C1191 H1232 0.929 . S
C1192 C1190 1.356 . S
C1192 C1194 1.358 . S
C1192 H1233 0.930 . S
C1193 C1191 1.353 . S
C1193 N1195 1.314 . S
C1193 H1234 0.930 . S
C1194 C1192 1.358 . S
C1194 N1195 1.279 . S
C1194 H1235 0.930 . S
N1195 C1193 1.314 . S
N1195 C1194 1.279 . S
C1196 C1198 1.353 . S
C1196 N1199 1.314 . S
C1196 H1202 0.930 . S
C1197 N1199 1.279 . S
C1197 C1200 1.358 . S
C1197 H1203 0.930 . S
C1198 C1196 1.353 . S
C1198 C1201 1.348 . S
C1198 H1236 0.929 . S
N1199 Li1154 1.990 . S
N1199 C1196 1.314 . S
N1199 C1197 1.279 . S
C1200 C1197 1.358 . S
C1200 C1201 1.356 . S
C1200 H1237 0.930 . S
C1201 C1198 1.348 . S
C1201 C1200 1.356 . S
H1202 C1196 0.930 . S
H1203 C1197 0.930 . S
C1204 N1205 1.314 . S
C1204 C1206 1.353 . S
C1204 H1210 0.930 . S
N1205 Li1155 1.990 . S
N1205 C1204 1.314 . S
N1205 C1208 1.279 . S
C1206 C1204 1.353 . S
C1206 C1209 1.348 . S
C1206 H1238 0.929 . S
C1207 C1208 1.358 . S
C1207 C1209 1.356 . S
C1207 H1239 0.930 . S
C1208 N1205 1.279 . S
C1208 C1207 1.358 . S
C1208 H1211 0.930 . S
C1209 C1206 1.348 . S
C1209 C1207 1.356 . S
H1210 C1204 0.930 . S
H1211 C1208 0.930 . S
O1212 Li1152 1.956 . S
O1212 Li1153 1.970 . S
O1212 Li1154 1.961 . S
O1212 C1156 1.325 . S
O1213 Li1152 1.970 . S
O1213 Li1153 1.956 . S
O1213 Li1155 1.961 . S
O1213 C1162 1.325 . S
O1214 Li1152 1.961 . S
O1214 Li1154 1.956 . S
O1214 Li1155 1.970 . S
O1214 C1184 1.325 . S
O1215 Li1153 1.961 . S
O1215 Li1154 1.970 . S
O1215 Li1155 1.956 . S
O1215 C1190 1.325 . S
H1216 C1158 0.929 . S
H1217 C1159 0.930 . S
H1218 C1160 0.930 . S
H1219 C1161 0.930 . S
H1220 C1163 0.930 . S
H1221 C1165 0.929 . S
H1222 C1166 0.930 . S
H1223 C1167 0.930 . S
H1224 C1170 0.930 . S
H1225 C1173 0.929 . S
H1226 C1178 0.929 . S
H1227 C1179 0.930 . S
H1228 C1186 0.929 . S
H1229 C1187 0.930 . S
H1230 C1188 0.930 . S
H1231 C1189 0.930 . S
H1232 C1191 0.929 . S
H1233 C1192 0.930 . S
H1234 C1193 0.930 . S
H1235 C1194 0.930 . S
H1236 C1198 0.929 . S
H1237 C1200 0.930 . S
H1238 C1206 0.929 . S
H1239 C1207 0.930 . S
Li1240 N1257 1.990 . S
Li1240 O1300 1.956 . S
Li1240 O1301 1.970 1_565 S
Li1240 O1302 1.961 . S
Li1241 N1265 1.990 . S
Li1241 O1300 1.970 1_545 S
Li1241 O1301 1.956 . S
Li1241 O1303 1.961 . S
Li1242 N1287 1.990 . S
Li1242 O1300 1.961 . S
Li1242 O1302 1.956 . S
Li1242 O1303 1.970 1_565 S
Li1243 N1293 1.990 . S
Li1243 O1301 1.961 . S
Li1243 O1302 1.970 1_545 S
Li1243 O1303 1.956 . S
C1244 C1246 1.348 . S
C1244 C1247 1.356 . S
C1244 O1300 1.325 . S
N1245 C1248 1.314 . S
N1245 C1249 1.279 . S
C1246 C1244 1.348 . S
C1246 C1248 1.353 . S
C1246 H1304 0.929 . S
C1247 C1244 1.356 . S
C1247 C1249 1.358 . S
C1247 H1305 0.930 . S
C1248 N1245 1.314 . S
C1248 C1246 1.353 . S
C1248 H1306 0.930 . S
C1249 N1245 1.279 . S
C1249 C1247 1.358 . S
C1249 H1307 0.930 . S
C1250 C1253 1.348 1_545 S
C1250 C1254 1.356 . S
C1250 O1301 1.325 . S
C1251 N1252 1.279 . S
C1251 C1254 1.358 . S
C1251 H1308 0.930 . S
N1252 C1251 1.279 . S
N1252 C1255 1.314 1_545 S
C1253 C1250 1.348 1_565 S
C1253 C1255 1.353 . S
C1253 H1309 0.929 . S
C1254 C1250 1.356 . S
C1254 C1251 1.358 . S
C1254 H1310 0.930 . S
C1255 N1252 1.314 1_565 S
C1255 C1253 1.353 . S
C1255 H1311 0.930 . S
C1256 N1257 1.314 . S
C1256 C1261 1.353 . S
C1256 H1262 0.930 . S
N1257 Li1240 1.990 . S
N1257 C1256 1.314 . S
N1257 C1259 1.279 . S
C1258 C1259 1.358 . S
C1258 C1260 1.356 . S
C1258 H1312 0.930 . S
C1259 N1257 1.279 . S
C1259 C1258 1.358 . S
C1259 H1263 0.930 . S
C1260 C1258 1.356 . S
C1260 C1261 1.348 . S
C1261 C1256 1.353 . S
C1261 C1260 1.348 . S
C1261 H1313 0.929 . S
H1262 C1256 0.930 . S
H1263 C1259 0.930 . S
C1264 N1265 1.314 . S
C1264 C1266 1.353 . S
C1264 H1270 0.930 . S
N1265 Li1241 1.990 . S
N1265 C1264 1.314 . S
N1265 C1268 1.279 . S
C1266 C1264 1.353 . S
C1266 C1269 1.348 . S
C1266 H1314 0.929 . S
C1267 C1268 1.358 . S
C1267 C1269 1.356 . S
C1267 H1315 0.930 . S
C1268 N1265 1.279 . S
C1268 C1267 1.358 . S
C1268 H1271 0.930 . S
C1269 C1266 1.348 . S
C1269 C1267 1.356 . S
H1270 C1264 0.930 . S
H1271 C1268 0.930 . S
C1272 C1274 1.348 1_565 S
C1272 C1275 1.356 . S
C1272 O1302 1.325 . S
N1273 C1276 1.314 1_565 S
N1273 C1277 1.279 . S
C1274 C1272 1.348 1_545 S
C1274 C1276 1.353 . S
C1274 H1316 0.929 . S
C1275 C1272 1.356 . S
C1275 C1277 1.358 . S
C1275 H1317 0.930 . S
C1276 N1273 1.314 1_545 S
C1276 C1274 1.353 . S
C1276 H1318 0.930 . S
C1277 N1273 1.279 . S
C1277 C1275 1.358 . S
C1277 H1319 0.930 . S
C1278 C1279 1.348 . S
C1278 C1280 1.356 . S
C1278 O1303 1.325 . S
C1279 C1278 1.348 . S
C1279 C1281 1.353 . S
C1279 H1320 0.929 . S
C1280 C1278 1.356 . S
C1280 C1282 1.358 . S
C1280 H1321 0.930 . S
C1281 C1279 1.353 . S
C1281 N1283 1.314 . S
C1281 H1322 0.930 . S
C1282 C1280 1.358 . S
C1282 N1283 1.279 . S
C1282 H1323 0.930 . S
N1283 C1281 1.314 . S
N1283 C1282 1.279 . S
C1284 C1286 1.353 . S
C1284 N1287 1.314 . S
C1284 H1290 0.930 . S
C1285 N1287 1.279 . S
C1285 C1288 1.358 . S
C1285 H1291 0.930 . S
C1286 C1284 1.353 . S
C1286 C1289 1.348 . S
C1286 H1324 0.929 . S
N1287 Li1242 1.990 . S
N1287 C1284 1.314 . S
N1287 C1285 1.279 . S
C1288 C1285 1.358 . S
C1288 C1289 1.356 . S
C1288 H1325 0.930 . S
C1289 C1286 1.348 . S
C1289 C1288 1.356 . S
H1290 C1284 0.930 . S
H1291 C1285 0.930 . S
C1292 N1293 1.314 . S
C1292 C1294 1.353 . S
C1292 H1298 0.930 . S
N1293 Li1243 1.990 . S
N1293 C1292 1.314 . S
N1293 C1296 1.279 . S
C1294 C1292 1.353 . S
C1294 C1297 1.348 . S
C1294 H1326 0.929 . S
C1295 C1296 1.358 . S
C1295 C1297 1.356 . S
C1295 H1327 0.930 . S
C1296 N1293 1.279 . S
C1296 C1295 1.358 . S
C1296 H1299 0.930 . S
C1297 C1294 1.348 . S
C1297 C1295 1.356 . S
H1298 C1292 0.930 . S
H1299 C1296 0.930 . S
O1300 Li1240 1.956 . S
O1300 Li1241 1.970 1_565 S
O1300 Li1242 1.961 . S
O1300 C1244 1.325 . S
O1301 Li1240 1.970 1_545 S
O1301 Li1241 1.956 . S
O1301 Li1243 1.961 . S
O1301 C1250 1.325 . S
O1302 Li1240 1.961 . S
O1302 Li1242 1.956 . S
O1302 Li1243 1.970 1_565 S
O1302 C1272 1.325 . S
O1303 Li1241 1.961 . S
O1303 Li1242 1.970 1_545 S
O1303 Li1243 1.956 . S
O1303 C1278 1.325 . S
H1304 C1246 0.929 . S
H1305 C1247 0.930 . S
H1306 C1248 0.930 . S
H1307 C1249 0.930 . S
H1308 C1251 0.930 . S
H1309 C1253 0.929 . S
H1310 C1254 0.930 . S
H1311 C1255 0.930 . S
H1312 C1258 0.930 . S
H1313 C1261 0.929 . S
H1314 C1266 0.929 . S
H1315 C1267 0.930 . S
H1316 C1274 0.929 . S
H1317 C1275 0.930 . S
H1318 C1276 0.930 . S
H1319 C1277 0.930 . S
H1320 C1279 0.929 . S
H1321 C1280 0.930 . S
H1322 C1281 0.930 . S
H1323 C1282 0.930 . S
H1324 C1286 0.929 . S
H1325 C1288 0.930 . S
H1326 C1294 0.929 . S
H1327 C1295 0.930 . S
Li1328 N1345 1.990 . S
Li1328 O1388 1.956 . S
Li1328 O1389 1.970 1_455 S
Li1328 O1390 1.961 . S
Li1329 N1353 1.990 . S
Li1329 O1388 1.970 1_655 S
Li1329 O1389 1.956 . S
Li1329 O1391 1.961 . S
Li1330 N1375 1.990 . S
Li1330 O1388 1.961 . S
Li1330 O1390 1.956 . S
Li1330 O1391 1.970 1_455 S
Li1331 N1381 1.990 . S
Li1331 O1389 1.961 . S
Li1331 O1390 1.970 1_655 S
Li1331 O1391 1.956 . S
C1332 C1334 1.348 . S
C1332 C1335 1.356 . S
C1332 O1388 1.325 . S
N1333 C1336 1.314 . S
N1333 C1337 1.279 . S
C1334 C1332 1.348 . S
C1334 C1336 1.353 . S
C1334 H1392 0.929 . S
C1335 C1332 1.356 . S
C1335 C1337 1.358 . S
C1335 H1393 0.930 . S
C1336 N1333 1.314 . S
C1336 C1334 1.353 . S
C1336 H1394 0.930 . S
C1337 N1333 1.279 . S
C1337 C1335 1.358 . S
C1337 H1395 0.930 . S
C1338 C1341 1.348 1_655 S
C1338 C1342 1.356 . S
C1338 O1389 1.325 . S
C1339 N1340 1.279 . S
C1339 C1342 1.358 . S
C1339 H1396 0.930 . S
N1340 C1339 1.279 . S
N1340 C1343 1.314 1_655 S
C1341 C1338 1.348 1_455 S
C1341 C1343 1.353 . S
C1341 H1397 0.929 . S
C1342 C1338 1.356 . S
C1342 C1339 1.358 . S
C1342 H1398 0.930 . S
C1343 N1340 1.314 1_455 S
C1343 C1341 1.353 . S
C1343 H1399 0.930 . S
C1344 N1345 1.314 . S
C1344 C1349 1.353 . S
C1344 H1350 0.930 . S
N1345 Li1328 1.990 . S
N1345 C1344 1.314 . S
N1345 C1347 1.279 . S
C1346 C1347 1.358 . S
C1346 C1348 1.356 . S
C1346 H1400 0.930 . S
C1347 N1345 1.279 . S
C1347 C1346 1.358 . S
C1347 H1351 0.930 . S
C1348 C1346 1.356 . S
C1348 C1349 1.348 . S
C1349 C1344 1.353 . S
C1349 C1348 1.348 . S
C1349 H1401 0.929 . S
H1350 C1344 0.930 . S
H1351 C1347 0.930 . S
C1352 N1353 1.314 . S
C1352 C1354 1.353 . S
C1352 H1358 0.930 . S
N1353 Li1329 1.990 . S
N1353 C1352 1.314 . S
N1353 C1356 1.279 . S
C1354 C1352 1.353 . S
C1354 C1357 1.348 . S
C1354 H1402 0.929 . S
C1355 C1356 1.358 . S
C1355 C1357 1.356 . S
C1355 H1403 0.930 . S
C1356 N1353 1.279 . S
C1356 C1355 1.358 . S
C1356 H1359 0.930 . S
C1357 C1354 1.348 . S
C1357 C1355 1.356 . S
H1358 C1352 0.930 . S
H1359 C1356 0.930 . S
C1360 C1362 1.348 1_455 S
C1360 C1363 1.356 . S
C1360 O1390 1.325 . S
N1361 C1364 1.314 1_455 S
N1361 C1365 1.279 . S
C1362 C1360 1.348 1_655 S
C1362 C1364 1.353 . S
C1362 H1404 0.929 . S
C1363 C1360 1.356 . S
C1363 C1365 1.358 . S
C1363 H1405 0.930 . S
C1364 N1361 1.314 1_655 S
C1364 C1362 1.353 . S
C1364 H1406 0.930 . S
C1365 N1361 1.279 . S
C1365 C1363 1.358 . S
C1365 H1407 0.930 . S
C1366 C1367 1.348 . S
C1366 C1368 1.356 . S
C1366 O1391 1.325 . S
C1367 C1366 1.348 . S
C1367 C1369 1.353 . S
C1367 H1408 0.929 . S
C1368 C1366 1.356 . S
C1368 C1370 1.358 . S
C1368 H1409 0.930 . S
C1369 C1367 1.353 . S
C1369 N1371 1.314 . S
C1369 H1410 0.930 . S
C1370 C1368 1.358 . S
C1370 N1371 1.279 . S
C1370 H1411 0.930 . S
N1371 C1369 1.314 . S
N1371 C1370 1.279 . S
C1372 C1374 1.353 . S
C1372 N1375 1.314 . S
C1372 H1378 0.930 . S
C1373 N1375 1.279 . S
C1373 C1376 1.358 . S
C1373 H1379 0.930 . S
C1374 C1372 1.353 . S
C1374 C1377 1.348 . S
C1374 H1412 0.929 . S
N1375 Li1330 1.990 . S
N1375 C1372 1.314 . S
N1375 C1373 1.279 . S
C1376 C1373 1.358 . S
C1376 C1377 1.356 . S
C1376 H1413 0.930 . S
C1377 C1374 1.348 . S
C1377 C1376 1.356 . S
H1378 C1372 0.930 . S
H1379 C1373 0.930 . S
C1380 N1381 1.314 . S
C1380 C1382 1.353 . S
C1380 H1386 0.930 . S
N1381 Li1331 1.990 . S
N1381 C1380 1.314 . S
N1381 C1384 1.279 . S
C1382 C1380 1.353 . S
C1382 C1385 1.348 . S
C1382 H1414 0.929 . S
C1383 C1384 1.358 . S
C1383 C1385 1.356 . S
C1383 H1415 0.930 . S
C1384 N1381 1.279 . S
C1384 C1383 1.358 . S
C1384 H1387 0.930 . S
C1385 C1382 1.348 . S
C1385 C1383 1.356 . S
H1386 C1380 0.930 . S
H1387 C1384 0.930 . S
O1388 Li1328 1.956 . S
O1388 Li1329 1.970 1_455 S
O1388 Li1330 1.961 . S
O1388 C1332 1.325 . S
O1389 Li1328 1.970 1_655 S
O1389 Li1329 1.956 . S
O1389 Li1331 1.961 . S
O1389 C1338 1.325 . S
O1390 Li1328 1.961 . S
O1390 Li1330 1.956 . S
O1390 Li1331 1.970 1_455 S
O1390 C1360 1.325 . S
O1391 Li1329 1.961 . S
O1391 Li1330 1.970 1_655 S
O1391 Li1331 1.956 . S
O1391 C1366 1.325 . S
H1392 C1334 0.929 . S
H1393 C1335 0.930 . S
H1394 C1336 0.930 . S
H1395 C1337 0.930 . S
H1396 C1339 0.930 . S
H1397 C1341 0.929 . S
H1398 C1342 0.930 . S
H1399 C1343 0.930 . S
H1400 C1346 0.930 . S
H1401 C1349 0.929 . S
H1402 C1354 0.929 . S
H1403 C1355 0.930 . S
H1404 C1362 0.929 . S
H1405 C1363 0.930 . S
H1406 C1364 0.930 . S
H1407 C1365 0.930 . S
H1408 C1367 0.929 . S
H1409 C1368 0.930 . S
H1410 C1369 0.930 . S
H1411 C1370 0.930 . S
H1412 C1374 0.929 . S
H1413 C1376 0.930 . S
H1414 C1382 0.929 . S
H1415 C1383 0.930 . S
Li1416 N1433 1.990 . S
Li1416 O1476 1.956 . S
Li1416 O1477 1.970 . S
Li1416 O1478 1.961 . S
Li1417 N1441 1.990 . S
Li1417 O1476 1.970 . S
Li1417 O1477 1.956 . S
Li1417 O1479 1.961 . S
Li1418 N1463 1.990 . S
Li1418 O1476 1.961 . S
Li1418 O1478 1.956 . S
Li1418 O1479 1.970 . S
Li1419 N1469 1.990 . S
Li1419 O1477 1.961 . S
Li1419 O1478 1.970 . S
Li1419 O1479 1.956 . S
C1420 C1422 1.348 . S
C1420 C1423 1.356 . S
C1420 O1476 1.325 . S
N1421 C1424 1.314 . S
N1421 C1425 1.279 . S
C1422 C1420 1.348 . S
C1422 C1424 1.353 . S
C1422 H1480 0.929 . S
C1423 C1420 1.356 . S
C1423 C1425 1.358 . S
C1423 H1481 0.930 . S
C1424 N1421 1.314 . S
C1424 C1422 1.353 . S
C1424 H1482 0.930 . S
C1425 N1421 1.279 . S
C1425 C1423 1.358 . S
C1425 H1483 0.930 . S
C1426 C1429 1.348 . S
C1426 C1430 1.356 . S
C1426 O1477 1.325 . S
C1427 N1428 1.279 . S
C1427 C1430 1.358 . S
C1427 H1484 0.930 . S
N1428 C1427 1.279 . S
N1428 C1431 1.314 . S
C1429 C1426 1.348 . S
C1429 C1431 1.353 . S
C1429 H1485 0.929 . S
C1430 C1426 1.356 . S
C1430 C1427 1.358 . S
C1430 H1486 0.930 . S
C1431 N1428 1.314 . S
C1431 C1429 1.353 . S
C1431 H1487 0.930 . S
C1432 N1433 1.314 . S
C1432 C1437 1.353 . S
C1432 H1438 0.930 . S
N1433 Li1416 1.990 . S
N1433 C1432 1.314 . S
N1433 C1435 1.279 . S
C1434 C1435 1.358 . S
C1434 C1436 1.356 . S
C1434 H1488 0.930 . S
C1435 N1433 1.279 . S
C1435 C1434 1.358 . S
C1435 H1439 0.930 . S
C1436 C1434 1.356 . S
C1436 C1437 1.348 . S
C1437 C1432 1.353 . S
C1437 C1436 1.348 . S
C1437 H1489 0.929 . S
H1438 C1432 0.930 . S
H1439 C1435 0.930 . S
C1440 N1441 1.314 . S
C1440 C1442 1.353 . S
C1440 H1446 0.930 . S
N1441 Li1417 1.990 . S
N1441 C1440 1.314 . S
N1441 C1444 1.279 . S
C1442 C1440 1.353 . S
C1442 C1445 1.348 . S
C1442 H1490 0.929 . S
C1443 C1444 1.358 . S
C1443 C1445 1.356 . S
C1443 H1491 0.930 . S
C1444 N1441 1.279 . S
C1444 C1443 1.358 . S
C1444 H1447 0.930 . S
C1445 C1442 1.348 . S
C1445 C1443 1.356 . S
H1446 C1440 0.930 . S
H1447 C1444 0.930 . S
C1448 C1450 1.348 . S
C1448 C1451 1.356 . S
C1448 O1478 1.325 . S
N1449 C1452 1.314 . S
N1449 C1453 1.279 . S
C1450 C1448 1.348 . S
C1450 C1452 1.353 . S
C1450 H1492 0.929 . S
C1451 C1448 1.356 . S
C1451 C1453 1.358 . S
C1451 H1493 0.930 . S
C1452 N1449 1.314 . S
C1452 C1450 1.353 . S
C1452 H1494 0.930 . S
C1453 N1449 1.279 . S
C1453 C1451 1.358 . S
C1453 H1495 0.930 . S
C1454 C1455 1.348 . S
C1454 C1456 1.356 . S
C1454 O1479 1.325 . S
C1455 C1454 1.348 . S
C1455 C1457 1.353 . S
C1455 H1496 0.929 . S
C1456 C1454 1.356 . S
C1456 C1458 1.358 . S
C1456 H1497 0.930 . S
C1457 C1455 1.353 . S
C1457 N1459 1.314 . S
C1457 H1498 0.930 . S
C1458 C1456 1.358 . S
C1458 N1459 1.279 . S
C1458 H1499 0.930 . S
N1459 C1457 1.314 . S
N1459 C1458 1.279 . S
C1460 C1462 1.353 . S
C1460 N1463 1.314 . S
C1460 H1466 0.930 . S
C1461 N1463 1.279 . S
C1461 C1464 1.358 . S
C1461 H1467 0.930 . S
C1462 C1460 1.353 . S
C1462 C1465 1.348 . S
C1462 H1500 0.929 . S
N1463 Li1418 1.990 . S
N1463 C1460 1.314 . S
N1463 C1461 1.279 . S
C1464 C1461 1.358 . S
C1464 C1465 1.356 . S
C1464 H1501 0.930 . S
C1465 C1462 1.348 . S
C1465 C1464 1.356 . S
H1466 C1460 0.930 . S
H1467 C1461 0.930 . S
C1468 N1469 1.314 . S
C1468 C1470 1.353 . S
C1468 H1474 0.930 . S
N1469 Li1419 1.990 . S
N1469 C1468 1.314 . S
N1469 C1472 1.279 . S
C1470 C1468 1.353 . S
C1470 C1473 1.348 . S
C1470 H1502 0.929 . S
C1471 C1472 1.358 . S
C1471 C1473 1.356 . S
C1471 H1503 0.930 . S
C1472 N1469 1.279 . S
C1472 C1471 1.358 . S
C1472 H1475 0.930 . S
C1473 C1470 1.348 . S
C1473 C1471 1.356 . S
H1474 C1468 0.930 . S
H1475 C1472 0.930 . S
O1476 Li1416 1.956 . S
O1476 Li1417 1.970 . S
O1476 Li1418 1.961 . S
O1476 C1420 1.325 . S
O1477 Li1416 1.970 . S
O1477 Li1417 1.956 . S
O1477 Li1419 1.961 . S
O1477 C1426 1.325 . S
O1478 Li1416 1.961 . S
O1478 Li1418 1.956 . S
O1478 Li1419 1.970 . S
O1478 C1448 1.325 . S
O1479 Li1417 1.961 . S
O1479 Li1418 1.970 . S
O1479 Li1419 1.956 . S
O1479 C1454 1.325 . S
H1480 C1422 0.929 . S
H1481 C1423 0.930 . S
H1482 C1424 0.930 . S
H1483 C1425 0.930 . S
H1484 C1427 0.930 . S
H1485 C1429 0.929 . S
H1486 C1430 0.930 . S
H1487 C1431 0.930 . S
H1488 C1434 0.930 . S
H1489 C1437 0.929 . S
H1490 C1442 0.929 . S
H1491 C1443 0.930 . S
H1492 C1450 0.929 . S
H1493 C1451 0.930 . S
H1494 C1452 0.930 . S
H1495 C1453 0.930 . S
H1496 C1455 0.929 . S
H1497 C1456 0.930 . S
H1498 C1457 0.930 . S
H1499 C1458 0.930 . S
H1500 C1462 0.929 . S
H1501 C1464 0.930 . S
H1502 C1470 0.929 . S
H1503 C1471 0.930 . S
Li1504 N1521 1.990 . S
Li1504 O1564 1.956 . S
Li1504 O1565 1.970 1_455 S
Li1504 O1566 1.961 . S
Li1505 N1529 1.990 . S
Li1505 O1564 1.970 1_655 S
Li1505 O1565 1.956 . S
Li1505 O1567 1.961 . S
Li1506 N1551 1.990 . S
Li1506 O1564 1.961 . S
Li1506 O1566 1.956 . S
Li1506 O1567 1.970 1_455 S
Li1507 N1557 1.990 . S
Li1507 O1565 1.961 . S
Li1507 O1566 1.970 1_655 S
Li1507 O1567 1.956 . S
C1508 C1510 1.348 1_455 S
C1508 C1511 1.356 . S
C1508 O1564 1.325 . S
N1509 C1512 1.314 1_455 S
N1509 C1513 1.279 . S
C1510 C1508 1.348 1_655 S
C1510 C1512 1.353 . S
C1510 H1568 0.929 . S
C1511 C1508 1.356 . S
C1511 C1513 1.358 . S
C1511 H1569 0.930 . S
C1512 N1509 1.314 1_655 S
C1512 C1510 1.353 . S
C1512 H1570 0.930 . S
C1513 N1509 1.279 . S
C1513 C1511 1.358 . S
C1513 H1571 0.930 . S
C1514 C1517 1.348 . S
C1514 C1518 1.356 . S
C1514 O1565 1.325 . S
C1515 N1516 1.279 . S
C1515 C1518 1.358 . S
C1515 H1572 0.930 . S
N1516 C1515 1.279 . S
N1516 C1519 1.314 . S
C1517 C1514 1.348 . S
C1517 C1519 1.353 . S
C1517 H1573 0.929 . S
C1518 C1514 1.356 . S
C1518 C1515 1.358 . S
C1518 H1574 0.930 . S
C1519 N1516 1.314 . S
C1519 C1517 1.353 . S
C1519 H1575 0.930 . S
C1520 N1521 1.314 . S
C1520 C1525 1.353 . S
C1520 H1526 0.930 . S
N1521 Li1504 1.990 . S
N1521 C1520 1.314 . S
N1521 C1523 1.279 . S
C1522 C1523 1.358 . S
C1522 C1524 1.356 . S
C1522 H1576 0.930 . S
C1523 N1521 1.279 . S
C1523 C1522 1.358 . S
C1523 H1527 0.930 . S
C1524 C1522 1.356 . S
C1524 C1525 1.348 . S
C1525 C1520 1.353 . S
C1525 C1524 1.348 . S
C1525 H1577 0.929 . S
H1526 C1520 0.930 . S
H1527 C1523 0.930 . S
C1528 N1529 1.314 . S
C1528 C1530 1.353 . S
C1528 H1534 0.930 . S
N1529 Li1505 1.990 . S
N1529 C1528 1.314 . S
N1529 C1532 1.279 . S
C1530 C1528 1.353 . S
C1530 C1533 1.348 . S
C1530 H1578 0.929 . S
C1531 C1532 1.358 . S
C1531 C1533 1.356 . S
C1531 H1579 0.930 . S
C1532 N1529 1.279 . S
C1532 C1531 1.358 . S
C1532 H1535 0.930 . S
C1533 C1530 1.348 . S
C1533 C1531 1.356 . S
H1534 C1528 0.930 . S
H1535 C1532 0.930 . S
C1536 C1538 1.348 . S
C1536 C1539 1.356 . S
C1536 O1566 1.325 . S
N1537 C1540 1.314 . S
N1537 C1541 1.279 . S
C1538 C1536 1.348 . S
C1538 C1540 1.353 . S
C1538 H1580 0.929 . S
C1539 C1536 1.356 . S
C1539 C1541 1.358 . S
C1539 H1581 0.930 . S
C1540 N1537 1.314 . S
C1540 C1538 1.353 . S
C1540 H1582 0.930 . S
C1541 N1537 1.279 . S
C1541 C1539 1.358 . S
C1541 H1583 0.930 . S
C1542 C1543 1.348 1_655 S
C1542 C1544 1.356 . S
C1542 O1567 1.325 . S
C1543 C1542 1.348 1_455 S
C1543 C1545 1.353 . S
C1543 H1584 0.929 . S
C1544 C1542 1.356 . S
C1544 C1546 1.358 . S
C1544 H1585 0.930 . S
C1545 C1543 1.353 . S
C1545 N1547 1.314 1_455 S
C1545 H1586 0.930 . S
C1546 C1544 1.358 . S
C1546 N1547 1.279 . S
C1546 H1587 0.930 . S
N1547 C1545 1.314 1_655 S
N1547 C1546 1.279 . S
C1548 C1550 1.353 . S
C1548 N1551 1.314 . S
C1548 H1554 0.930 . S
C1549 N1551 1.279 . S
C1549 C1552 1.358 . S
C1549 H1555 0.930 . S
C1550 C1548 1.353 . S
C1550 C1553 1.348 . S
C1550 H1588 0.929 . S
N1551 Li1506 1.990 . S
N1551 C1548 1.314 . S
N1551 C1549 1.279 . S
C1552 C1549 1.358 . S
C1552 C1553 1.356 . S
C1552 H1589 0.930 . S
C1553 C1550 1.348 . S
C1553 C1552 1.356 . S
H1554 C1548 0.930 . S
H1555 C1549 0.930 . S
C1556 N1557 1.314 . S
C1556 C1558 1.353 . S
C1556 H1562 0.930 . S
N1557 Li1507 1.990 . S
N1557 C1556 1.314 . S
N1557 C1560 1.279 . S
C1558 C1556 1.353 . S
C1558 C1561 1.348 . S
C1558 H1590 0.929 . S
C1559 C1560 1.358 . S
C1559 C1561 1.356 . S
C1559 H1591 0.930 . S
C1560 N1557 1.279 . S
C1560 C1559 1.358 . S
C1560 H1563 0.930 . S
C1561 C1558 1.348 . S
C1561 C1559 1.356 . S
H1562 C1556 0.930 . S
H1563 C1560 0.930 . S
O1564 Li1504 1.956 . S
O1564 Li1505 1.970 1_455 S
O1564 Li1506 1.961 . S
O1564 C1508 1.325 . S
O1565 Li1504 1.970 1_655 S
O1565 Li1505 1.956 . S
O1565 Li1507 1.961 . S
O1565 C1514 1.325 . S
O1566 Li1504 1.961 . S
O1566 Li1506 1.956 . S
O1566 Li1507 1.970 1_455 S
O1566 C1536 1.325 . S
O1567 Li1505 1.961 . S
O1567 Li1506 1.970 1_655 S
O1567 Li1507 1.956 . S
O1567 C1542 1.325 . S
H1568 C1510 0.929 . S
H1569 C1511 0.930 . S
H1570 C1512 0.930 . S
H1571 C1513 0.930 . S
H1572 C1515 0.930 . S
H1573 C1517 0.929 . S
H1574 C1518 0.930 . S
H1575 C1519 0.930 . S
H1576 C1522 0.930 . S
H1577 C1525 0.929 . S
H1578 C1530 0.929 . S
H1579 C1531 0.930 . S
H1580 C1538 0.929 . S
H1581 C1539 0.930 . S
H1582 C1540 0.930 . S
H1583 C1541 0.930 . S
H1584 C1543 0.929 . S
H1585 C1544 0.930 . S
H1586 C1545 0.930 . S
H1587 C1546 0.930 . S
H1588 C1550 0.929 . S
H1589 C1552 0.930 . S
H1590 C1558 0.929 . S
H1591 C1559 0.930 . S
Li1592 N1609 1.990 . S
Li1592 O1652 1.956 . S
Li1592 O1653 1.970 . S
Li1592 O1654 1.961 . S
Li1593 N1617 1.990 . S
Li1593 O1652 1.970 . S
Li1593 O1653 1.956 . S
Li1593 O1655 1.961 . S
Li1594 N1639 1.990 . S
Li1594 O1652 1.961 . S
Li1594 O1654 1.956 . S
Li1594 O1655 1.970 . S
Li1595 N1645 1.990 . S
Li1595 O1653 1.961 . S
Li1595 O1654 1.970 . S
Li1595 O1655 1.956 . S
C1596 C1598 1.348 . S
C1596 C1599 1.356 . S
C1596 O1652 1.325 . S
N1597 C1600 1.314 . S
N1597 C1601 1.279 . S
C1598 C1596 1.348 . S
C1598 C1600 1.353 . S
C1598 H1656 0.929 . S
C1599 C1596 1.356 . S
C1599 C1601 1.358 . S
C1599 H1657 0.930 . S
C1600 N1597 1.314 . S
C1600 C1598 1.353 . S
C1600 H1658 0.930 . S
C1601 N1597 1.279 . S
C1601 C1599 1.358 . S
C1601 H1659 0.930 . S
C1602 C1605 1.348 . S
C1602 C1606 1.356 . S
C1602 O1653 1.325 . S
C1603 N1604 1.279 . S
C1603 C1606 1.358 . S
C1603 H1660 0.930 . S
N1604 C1603 1.279 . S
N1604 C1607 1.314 . S
C1605 C1602 1.348 . S
C1605 C1607 1.353 . S
C1605 H1661 0.929 . S
C1606 C1602 1.356 . S
C1606 C1603 1.358 . S
C1606 H1662 0.930 . S
C1607 N1604 1.314 . S
C1607 C1605 1.353 . S
C1607 H1663 0.930 . S
C1608 N1609 1.314 . S
C1608 C1613 1.353 . S
C1608 H1614 0.930 . S
N1609 Li1592 1.990 . S
N1609 C1608 1.314 . S
N1609 C1611 1.279 . S
C1610 C1611 1.358 . S
C1610 C1612 1.356 . S
C1610 H1664 0.930 . S
C1611 N1609 1.279 . S
C1611 C1610 1.358 . S
C1611 H1615 0.930 . S
C1612 C1610 1.356 . S
C1612 C1613 1.348 . S
C1613 C1608 1.353 . S
C1613 C1612 1.348 . S
C1613 H1665 0.929 . S
H1614 C1608 0.930 . S
H1615 C1611 0.930 . S
C1616 N1617 1.314 . S
C1616 C1618 1.353 . S
C1616 H1622 0.930 . S
N1617 Li1593 1.990 . S
N1617 C1616 1.314 . S
N1617 C1620 1.279 . S
C1618 C1616 1.353 . S
C1618 C1621 1.348 . S
C1618 H1666 0.929 . S
C1619 C1620 1.358 . S
C1619 C1621 1.356 . S
C1619 H1667 0.930 . S
C1620 N1617 1.279 . S
C1620 C1619 1.358 . S
C1620 H1623 0.930 . S
C1621 C1618 1.348 . S
C1621 C1619 1.356 . S
H1622 C1616 0.930 . S
H1623 C1620 0.930 . S
C1624 C1626 1.348 . S
C1624 C1627 1.356 . S
C1624 O1654 1.325 . S
N1625 C1628 1.314 . S
N1625 C1629 1.279 . S
C1626 C1624 1.348 . S
C1626 C1628 1.353 . S
C1626 H1668 0.929 . S
C1627 C1624 1.356 . S
C1627 C1629 1.358 . S
C1627 H1669 0.930 . S
C1628 N1625 1.314 . S
C1628 C1626 1.353 . S
C1628 H1670 0.930 . S
C1629 N1625 1.279 . S
C1629 C1627 1.358 . S
C1629 H1671 0.930 . S
C1630 C1631 1.348 . S
C1630 C1632 1.356 . S
C1630 O1655 1.325 . S
C1631 C1630 1.348 . S
C1631 C1633 1.353 . S
C1631 H1672 0.929 . S
C1632 C1630 1.356 . S
C1632 C1634 1.358 . S
C1632 H1673 0.930 . S
C1633 C1631 1.353 . S
C1633 N1635 1.314 . S
C1633 H1674 0.930 . S
C1634 C1632 1.358 . S
C1634 N1635 1.279 . S
C1634 H1675 0.930 . S
N1635 C1633 1.314 . S
N1635 C1634 1.279 . S
C1636 C1638 1.353 . S
C1636 N1639 1.314 . S
C1636 H1642 0.930 . S
C1637 N1639 1.279 . S
C1637 C1640 1.358 . S
C1637 H1643 0.930 . S
C1638 C1636 1.353 . S
C1638 C1641 1.348 . S
C1638 H1676 0.929 . S
N1639 Li1594 1.990 . S
N1639 C1636 1.314 . S
N1639 C1637 1.279 . S
C1640 C1637 1.358 . S
C1640 C1641 1.356 . S
C1640 H1677 0.930 . S
C1641 C1638 1.348 . S
C1641 C1640 1.356 . S
H1642 C1636 0.930 . S
H1643 C1637 0.930 . S
C1644 N1645 1.314 . S
C1644 C1646 1.353 . S
C1644 H1650 0.930 . S
N1645 Li1595 1.990 . S
N1645 C1644 1.314 . S
N1645 C1648 1.279 . S
C1646 C1644 1.353 . S
C1646 C1649 1.348 . S
C1646 H1678 0.929 . S
C1647 C1648 1.358 . S
C1647 C1649 1.356 . S
C1647 H1679 0.930 . S
C1648 N1645 1.279 . S
C1648 C1647 1.358 . S
C1648 H1651 0.930 . S
C1649 C1646 1.348 . S
C1649 C1647 1.356 . S
H1650 C1644 0.930 . S
H1651 C1648 0.930 . S
O1652 Li1592 1.956 . S
O1652 Li1593 1.970 . S
O1652 Li1594 1.961 . S
O1652 C1596 1.325 . S
O1653 Li1592 1.970 . S
O1653 Li1593 1.956 . S
O1653 Li1595 1.961 . S
O1653 C1602 1.325 . S
O1654 Li1592 1.961 . S
O1654 Li1594 1.956 . S
O1654 Li1595 1.970 . S
O1654 C1624 1.325 . S
O1655 Li1593 1.961 . S
O1655 Li1594 1.970 . S
O1655 Li1595 1.956 . S
O1655 C1630 1.325 . S
H1656 C1598 0.929 . S
H1657 C1599 0.930 . S
H1658 C1600 0.930 . S
H1659 C1601 0.930 . S
H1660 C1603 0.930 . S
H1661 C1605 0.929 . S
H1662 C1606 0.930 . S
H1663 C1607 0.930 . S
H1664 C1610 0.930 . S
H1665 C1613 0.929 . S
H1666 C1618 0.929 . S
H1667 C1619 0.930 . S
H1668 C1626 0.929 . S
H1669 C1627 0.930 . S
H1670 C1628 0.930 . S
H1671 C1629 0.930 . S
H1672 C1631 0.929 . S
H1673 C1632 0.930 . S
H1674 C1633 0.930 . S
H1675 C1634 0.930 . S
H1676 C1638 0.929 . S
H1677 C1640 0.930 . S
H1678 C1646 0.929 . S
H1679 C1647 0.930 . S
H1680 C1692 0.930 . S
H1681 C1694 0.930 . S
H1682 C1695 0.930 . S
H1683 C1699 0.959 . S
H1684 C1699 0.959 . S
H1685 C1699 0.961 . S
H1686 C1700 0.960 . S
H1687 C1700 0.961 . S
H1688 C1700 0.959 . S
H1689 C1703 0.929 . S
H1690 C1704 0.931 . S
H1691 C1706 0.930 . S
C1692 H1680 0.930 . S
C1692 C1693 1.399 . S
C1692 C1697 1.399 . S
C1693 C1692 1.399 . S
C1693 C1694 1.376 . S
C1694 H1681 0.930 . S
C1694 C1693 1.376 . S
C1694 C1695 1.388 . S
C1695 H1682 0.930 . S
C1695 C1694 1.388 . S
C1695 C1696 1.390 . S
C1696 C1695 1.390 . S
C1696 C1697 1.394 . S
C1696 C1702 1.465 . S
C1697 C1692 1.399 . S
C1697 C1696 1.394 . S
C1697 C1698 1.516 . S
C1698 C1697 1.516 . S
C1698 C1699 1.502 . S
C1698 C1700 1.561 . S
C1698 C1701 1.526 . S
C1699 H1683 0.959 . S
C1699 H1684 0.959 . S
C1699 H1685 0.961 . S
C1699 C1698 1.502 . S
C1700 H1686 0.960 . S
C1700 H1687 0.961 . S
C1700 H1688 0.959 . S
C1700 C1698 1.561 . S
C1701 C1698 1.526 . S
C1701 C1702 1.396 . S
C1701 C1706 1.390 . S
C1702 C1696 1.465 . S
C1702 C1701 1.396 . S
C1702 C1703 1.399 . S
C1703 H1689 0.929 . S
C1703 C1702 1.399 . S
C1703 C1704 1.385 . S
C1704 H1690 0.931 . S
C1704 C1703 1.385 . S
C1704 C1705 1.389 . S
C1705 C1704 1.389 . S
C1705 C1706 1.387 . S
C1706 H1691 0.930 . S
C1706 C1701 1.390 . S
C1706 C1705 1.387 . S
H1707 C1719 0.930 . S
H1708 C1721 0.930 . S
H1709 C1722 0.930 . S
H1710 C1726 0.959 . S
H1711 C1726 0.959 . S
H1712 C1726 0.961 . S
H1713 C1727 0.960 . S
H1714 C1727 0.961 . S
H1715 C1727 0.959 . S
H1716 C1730 0.929 . S
H1717 C1731 0.931 . S
H1718 C1733 0.930 . S
C1719 H1707 0.930 . S
C1719 C1720 1.399 . S
C1719 C1724 1.399 . S
C1720 C1719 1.399 . S
C1720 C1721 1.376 . S
C1721 H1708 0.930 . S
C1721 C1720 1.376 . S
C1721 C1722 1.388 . S
C1722 H1709 0.930 . S
C1722 C1721 1.388 . S
C1722 C1723 1.390 . S
C1723 C1722 1.390 . S
C1723 C1724 1.394 . S
C1723 C1729 1.465 . S
C1724 C1719 1.399 . S
C1724 C1723 1.394 . S
C1724 C1725 1.516 . S
C1725 C1724 1.516 . S
C1725 C1726 1.502 . S
C1725 C1727 1.561 . S
C1725 C1728 1.526 . S
C1726 H1710 0.959 . S
C1726 H1711 0.959 . S
C1726 H1712 0.961 . S
C1726 C1725 1.502 . S
C1727 H1713 0.960 . S
C1727 H1714 0.961 . S
C1727 H1715 0.959 . S
C1727 C1725 1.561 . S
C1728 C1725 1.526 . S
C1728 C1729 1.396 . S
C1728 C1733 1.390 . S
C1729 C1723 1.465 . S
C1729 C1728 1.396 . S
C1729 C1730 1.399 . S
C1730 H1716 0.929 . S
C1730 C1729 1.399 . S
C1730 C1731 1.385 . S
C1731 H1717 0.931 . S
C1731 C1730 1.385 . S
C1731 C1732 1.389 . S
C1732 C1731 1.389 . S
C1732 C1733 1.387 . S
C1733 H1718 0.930 . S
C1733 C1728 1.390 . S
C1733 C1732 1.387 . S
H1734 C1746 0.930 . S
H1735 C1748 0.930 . S
H1736 C1749 0.930 . S
H1737 C1753 0.959 . S
H1738 C1753 0.959 . S
H1739 C1753 0.961 . S
H1740 C1754 0.960 . S
H1741 C1754 0.961 . S
H1742 C1754 0.959 . S
H1743 C1757 0.929 . S
H1744 C1758 0.931 . S
H1745 C1760 0.930 . S
C1746 H1734 0.930 . S
C1746 C1747 1.399 . S
C1746 C1751 1.399 . S
C1747 C1746 1.399 . S
C1747 C1748 1.376 . S
C1748 H1735 0.930 . S
C1748 C1747 1.376 . S
C1748 C1749 1.388 . S
C1749 H1736 0.930 . S
C1749 C1748 1.388 . S
C1749 C1750 1.390 . S
C1750 C1749 1.390 . S
C1750 C1751 1.394 . S
C1750 C1756 1.465 . S
C1751 C1746 1.399 . S
C1751 C1750 1.394 . S
C1751 C1752 1.516 . S
C1752 C1751 1.516 . S
C1752 C1753 1.502 . S
C1752 C1754 1.561 . S
C1752 C1755 1.526 . S
C1753 H1737 0.959 . S
C1753 H1738 0.959 . S
C1753 H1739 0.961 . S
C1753 C1752 1.502 . S
C1754 H1740 0.960 . S
C1754 H1741 0.961 . S
C1754 H1742 0.959 . S
C1754 C1752 1.561 . S
C1755 C1752 1.526 . S
C1755 C1756 1.396 . S
C1755 C1760 1.390 . S
C1756 C1750 1.465 . S
C1756 C1755 1.396 . S
C1756 C1757 1.399 . S
C1757 H1743 0.929 . S
C1757 C1756 1.399 . S
C1757 C1758 1.385 . S
C1758 H1744 0.931 . S
C1758 C1757 1.385 . S
C1758 C1759 1.389 . S
C1759 C1758 1.389 . S
C1759 C1760 1.387 . S
C1760 H1745 0.930 . S
C1760 C1755 1.390 . S
C1760 C1759 1.387 . S
H1761 C1773 0.930 1_545 S
H1762 C1775 0.930 . S
H1763 C1776 0.930 . S
H1764 C1780 0.959 . S
H1765 C1780 0.959 . S
H1766 C1780 0.961 . S
H1767 C1781 0.960 . S
H1768 C1781 0.961 . S
H1769 C1781 0.959 . S
H1770 C1784 0.929 . S
H1771 C1785 0.931 . S
H1772 C1787 0.967 . S
C1773 H1761 0.930 1_565 S
C1773 C1774 1.399 . S
C1773 C1778 1.399 . S
C1774 C1773 1.399 . S
C1774 C1775 1.376 . S
C1775 H1762 0.930 . S
C1775 C1774 1.376 . S
C1775 C1776 1.388 . S
C1776 H1763 0.930 . S
C1776 C1775 1.388 . S
C1776 C1777 1.390 . S
C1777 C1776 1.390 . S
C1777 C1778 1.394 . S
C1777 C1783 1.465 . S
C1778 C1773 1.399 . S
C1778 C1777 1.394 . S
C1778 C1779 1.516 1_565 S
C1779 C1778 1.516 1_545 S
C1779 C1780 1.502 . S
C1779 C1781 1.561 . S
C1779 C1782 1.526 1_545 S
C1780 H1764 0.959 . S
C1780 H1765 0.959 . S
C1780 H1766 0.961 . S
C1780 C1779 1.502 . S
C1781 H1767 0.960 . S
C1781 H1768 0.961 . S
C1781 H1769 0.959 . S
C1781 C1779 1.561 . S
C1782 C1779 1.526 1_565 S
C1782 C1783 1.396 . S
C1782 C1787 1.379 1_565 S
C1783 C1777 1.465 . S
C1783 C1782 1.396 . S
C1783 C1784 1.399 . S
C1784 H1770 0.929 . S
C1784 C1783 1.399 . S
C1784 C1785 1.385 . S
C1785 H1771 0.931 . S
C1785 C1784 1.385 . S
C1785 C1786 1.389 . S
C1786 C1785 1.389 . S
C1786 C1787 1.361 1_565 S
C1787 H1772 0.967 . S
C1787 C1782 1.379 1_545 S
C1787 C1786 1.361 1_545 S
H1788 C1800 0.930 . S
H1789 C1802 0.930 . S
H1790 C1803 0.930 . S
H1791 C1807 0.959 . S
H1792 C1807 0.959 . S
H1793 C1807 0.961 . S
H1794 C1808 0.960 . S
H1795 C1808 0.961 . S
H1796 C1808 0.959 . S
H1797 C1811 0.929 . S
H1798 C1812 0.931 . S
H1799 C1814 0.930 . S
C1800 H1788 0.930 . S
C1800 C1801 1.399 . S
C1800 C1805 1.399 . S
C1801 C1800 1.399 . S
C1801 C1802 1.376 . S
C1802 H1789 0.930 . S
C1802 C1801 1.376 . S
C1802 C1803 1.388 . S
C1803 H1790 0.930 . S
C1803 C1802 1.388 . S
C1803 C1804 1.390 . S
C1804 C1803 1.390 . S
C1804 C1805 1.394 . S
C1804 C1810 1.465 . S
C1805 C1800 1.399 . S
C1805 C1804 1.394 . S
C1805 C1806 1.516 . S
C1806 C1805 1.516 . S
C1806 C1807 1.502 . S
C1806 C1808 1.561 . S
C1806 C1809 1.526 . S
C1807 H1791 0.959 . S
C1807 H1792 0.959 . S
C1807 H1793 0.961 . S
C1807 C1806 1.502 . S
C1808 H1794 0.960 . S
C1808 H1795 0.961 . S
C1808 H1796 0.959 . S
C1808 C1806 1.561 . S
C1809 C1806 1.526 . S
C1809 C1810 1.396 . S
C1809 C1814 1.390 . S
C1810 C1804 1.465 . S
C1810 C1809 1.396 . S
C1810 C1811 1.399 . S
C1811 H1797 0.929 . S
C1811 C1810 1.399 . S
C1811 C1812 1.385 . S
C1812 H1798 0.931 . S
C1812 C1811 1.385 . S
C1812 C1813 1.389 . S
C1813 C1812 1.389 . S
C1813 C1814 1.387 . S
C1814 H1799 0.930 . S
C1814 C1809 1.390 . S
C1814 C1813 1.387 . S
H1815 C1827 0.930 . S
H1816 C1829 0.930 . S
H1817 C1830 0.930 . S
H1818 C1834 0.959 . S
H1819 C1834 0.959 . S
H1820 C1834 0.961 . S
H1821 C1835 0.960 . S
H1822 C1835 0.961 . S
H1823 C1835 0.959 . S
H1824 C1838 0.929 . S
H1825 C1839 0.931 . S
H1826 C1841 0.930 . S
C1827 H1815 0.930 . S
C1827 C1828 1.399 . S
C1827 C1832 1.399 . S
C1828 C1827 1.399 . S
C1828 C1829 1.376 . S
C1829 H1816 0.930 . S
C1829 C1828 1.376 . S
C1829 C1830 1.388 . S
C1830 H1817 0.930 . S
C1830 C1829 1.388 . S
C1830 C1831 1.390 . S
C1831 C1830 1.390 . S
C1831 C1832 1.394 . S
C1831 C1837 1.465 . S
C1832 C1827 1.399 . S
C1832 C1831 1.394 . S
C1832 C1833 1.516 . S
C1833 C1832 1.516 . S
C1833 C1834 1.502 . S
C1833 C1835 1.561 . S
C1833 C1836 1.526 . S
C1834 H1818 0.959 . S
C1834 H1819 0.959 . S
C1834 H1820 0.961 . S
C1834 C1833 1.502 . S
C1835 H1821 0.960 . S
C1835 H1822 0.961 . S
C1835 H1823 0.959 . S
C1835 C1833 1.561 . S
C1836 C1833 1.526 . S
C1836 C1837 1.396 . S
C1836 C1841 1.390 . S
C1837 C1831 1.465 . S
C1837 C1836 1.396 . S
C1837 C1838 1.399 . S
C1838 H1824 0.929 . S
C1838 C1837 1.399 . S
C1838 C1839 1.385 . S
C1839 H1825 0.931 . S
C1839 C1838 1.385 . S
C1839 C1840 1.389 . S
C1840 C1839 1.389 . S
C1840 C1841 1.387 . S
C1841 H1826 0.930 . S
C1841 C1836 1.390 . S
C1841 C1840 1.387 . S
H1842 C1854 0.930 . S
H1843 C1856 0.930 . S
H1844 C1857 0.930 . S
H1845 C1861 0.959 . S
H1846 C1861 0.959 . S
H1847 C1861 0.961 . S
H1848 C1862 0.960 . S
H1849 C1862 0.961 . S
H1850 C1862 0.959 . S
H1851 C1865 0.929 . S
H1852 C1866 0.931 . S
H1853 C1868 0.930 . S
C1854 H1842 0.930 . S
C1854 C1855 1.399 . S
C1854 C1859 1.399 . S
C1855 C1854 1.399 . S
C1855 C1856 1.376 . S
C1856 H1843 0.930 . S
C1856 C1855 1.376 . S
C1856 C1857 1.388 . S
C1857 H1844 0.930 . S
C1857 C1856 1.388 . S
C1857 C1858 1.390 . S
C1858 C1857 1.390 . S
C1858 C1859 1.394 . S
C1858 C1864 1.465 . S
C1859 C1854 1.399 . S
C1859 C1858 1.394 . S
C1859 C1860 1.516 . S
C1860 C1859 1.516 . S
C1860 C1861 1.502 . S
C1860 C1862 1.561 . S
C1860 C1863 1.526 . S
C1861 H1845 0.959 . S
C1861 H1846 0.959 . S
C1861 H1847 0.961 . S
C1861 C1860 1.502 . S
C1862 H1848 0.960 . S
C1862 H1849 0.961 . S
C1862 H1850 0.959 . S
C1862 C1860 1.561 . S
C1863 C1860 1.526 . S
C1863 C1864 1.396 . S
C1863 C1868 1.390 . S
C1864 C1858 1.465 . S
C1864 C1863 1.396 . S
C1864 C1865 1.399 . S
C1865 H1851 0.929 . S
C1865 C1864 1.399 . S
C1865 C1866 1.385 . S
C1866 H1852 0.931 . S
C1866 C1865 1.385 . S
C1866 C1867 1.389 . S
C1867 C1866 1.389 . S
C1867 C1868 1.387 . S
C1868 H1853 0.930 . S
C1868 C1863 1.390 . S
C1868 C1867 1.387 . S
H1869 C1881 0.898 1_545 S
H1870 C1883 0.930 . S
H1871 C1884 0.930 . S
H1872 C1888 0.959 1_565 S
H1873 C1888 0.959 . S
H1874 C1888 0.961 . S
H1875 C1889 0.960 . S
H1876 C1889 0.961 . S
H1877 C1889 0.959 . S
H1878 C1892 0.929 . S
H1879 C1893 0.931 . S
H1880 C1895 0.930 1_545 S
C1881 H1869 0.898 1_565 S
C1881 C1882 1.399 . S
C1881 C1886 1.399 . S
C1882 C1881 1.399 . S
C1882 C1883 1.376 . S
C1883 H1870 0.930 . S
C1883 C1882 1.376 . S
C1883 C1884 1.388 . S
C1884 H1871 0.930 . S
C1884 C1883 1.388 . S
C1884 C1885 1.390 . S
C1885 C1884 1.390 . S
C1885 C1886 1.394 . S
C1885 C1891 1.465 . S
C1886 C1881 1.399 . S
C1886 C1885 1.394 . S
C1886 C1887 1.516 1_565 S
C1887 C1886 1.516 1_545 S
C1887 C1888 1.502 . S
C1887 C1889 1.561 . S
C1887 C1890 1.526 1_545 S
C1888 H1872 0.959 1_545 S
C1888 H1873 0.959 . S
C1888 H1874 0.961 . S
C1888 C1887 1.502 . S
C1889 H1875 0.960 . S
C1889 H1876 0.961 . S
C1889 H1877 0.959 . S
C1889 C1887 1.561 . S
C1890 C1887 1.526 1_565 S
C1890 C1891 1.396 . S
C1890 C1895 1.390 . S
C1891 C1885 1.465 . S
C1891 C1890 1.396 . S
C1891 C1892 1.399 . S
C1892 H1878 0.929 . S
C1892 C1891 1.399 . S
C1892 C1893 1.385 . S
C1893 H1879 0.931 . S
C1893 C1892 1.385 . S
C1893 C1894 1.389 . S
C1894 C1893 1.389 . S
C1894 C1895 1.387 . S
C1895 H1880 0.930 1_565 S
C1895 C1890 1.390 . S
C1895 C1894 1.387 . S
H1896 C1908 0.930 . S
H1897 C1910 0.930 . S
H1898 C1911 0.930 . S
H1899 C1915 0.959 . S
H1900 C1915 0.959 . S
H1901 C1915 0.961 . S
H1902 C1916 0.960 . S
H1903 C1916 0.961 . S
H1904 C1916 0.959 . S
H1905 C1919 0.929 . S
H1906 C1920 0.931 . S
H1907 C1922 0.930 . S
C1908 H1896 0.930 . S
C1908 C1909 1.399 . S
C1908 C1913 1.399 . S
C1909 C1908 1.399 . S
C1909 C1910 1.376 . S
C1910 H1897 0.930 . S
C1910 C1909 1.376 . S
C1910 C1911 1.388 . S
C1911 H1898 0.930 . S
C1911 C1910 1.388 . S
C1911 C1912 1.390 . S
C1912 C1911 1.390 . S
C1912 C1913 1.394 . S
C1912 C1918 1.465 . S
C1913 C1908 1.399 . S
C1913 C1912 1.394 . S
C1913 C1914 1.516 . S
C1914 C1913 1.516 . S
C1914 C1915 1.502 . S
C1914 C1916 1.561 . S
C1914 C1917 1.526 . S
C1915 H1899 0.959 . S
C1915 H1900 0.959 . S
C1915 H1901 0.961 . S
C1915 C1914 1.502 . S
C1916 H1902 0.960 . S
C1916 H1903 0.961 . S
C1916 H1904 0.959 . S
C1916 C1914 1.561 . S
C1917 C1914 1.526 . S
C1917 C1918 1.396 . S
C1917 C1922 1.390 . S
C1918 C1912 1.465 . S
C1918 C1917 1.396 . S
C1918 C1919 1.399 . S
C1919 H1905 0.929 . S
C1919 C1918 1.399 . S
C1919 C1920 1.385 . S
C1920 H1906 0.931 . S
C1920 C1919 1.385 . S
C1920 C1921 1.389 . S
C1921 C1920 1.389 . S
C1921 C1922 1.387 . S
C1922 H1907 0.930 . S
C1922 C1917 1.390 . S
C1922 C1921 1.387 . S
H1923 C1935 0.930 . S
H1924 C1937 0.930 . S
H1925 C1938 0.930 . S
H1926 C1942 0.959 . S
H1927 C1942 0.959 . S
H1928 C1942 0.961 . S
H1929 C1943 0.960 . S
H1930 C1943 0.961 . S
H1931 C1943 0.959 . S
H1932 C1946 0.929 . S
H1933 C1947 0.931 . S
H1934 C1949 0.930 . S
C1935 H1923 0.930 . S
C1935 C1936 1.399 . S
C1935 C1940 1.399 . S
C1936 C1935 1.399 . S
C1936 C1937 1.376 . S
C1937 H1924 0.930 . S
C1937 C1936 1.376 . S
C1937 C1938 1.388 . S
C1938 H1925 0.930 . S
C1938 C1937 1.388 . S
C1938 C1939 1.390 . S
C1939 C1938 1.390 . S
C1939 C1940 1.394 . S
C1939 C1945 1.465 . S
C1940 C1935 1.399 . S
C1940 C1939 1.394 . S
C1940 C1941 1.516 . S
C1941 C1940 1.516 . S
C1941 C1942 1.502 . S
C1941 C1943 1.561 . S
C1941 C1944 1.526 . S
C1942 H1926 0.959 . S
C1942 H1927 0.959 . S
C1942 H1928 0.961 . S
C1942 C1941 1.502 . S
C1943 H1929 0.960 . S
C1943 H1930 0.961 . S
C1943 H1931 0.959 . S
C1943 C1941 1.561 . S
C1944 C1941 1.526 . S
C1944 C1945 1.396 . S
C1944 C1949 1.390 . S
C1945 C1939 1.465 . S
C1945 C1944 1.396 . S
C1945 C1946 1.399 . S
C1946 H1932 0.929 . S
C1946 C1945 1.399 . S
C1946 C1947 1.385 . S
C1947 H1933 0.931 . S
C1947 C1946 1.385 . S
C1947 C1948 1.389 . S
C1948 C1947 1.389 . S
C1948 C1949 1.387 . S
C1949 H1934 0.930 . S
C1949 C1944 1.390 . S
C1949 C1948 1.387 . S
H1950 C1962 0.930 . S
H1951 C1964 0.930 . S
H1952 C1965 0.930 . S
H1953 C1969 0.959 . S
H1954 C1969 0.959 . S
H1955 C1969 0.961 . S
H1956 C1970 0.960 . S
H1957 C1970 0.961 . S
H1958 C1970 0.959 . S
H1959 C1973 0.929 . S
H1960 C1974 0.931 . S
H1961 C1976 0.930 . S
C1962 H1950 0.930 . S
C1962 C1963 1.399 . S
C1962 C1967 1.399 . S
C1963 C1962 1.399 . S
C1963 C1964 1.376 . S
C1964 H1951 0.930 . S
C1964 C1963 1.376 . S
C1964 C1965 1.388 . S
C1965 H1952 0.930 . S
C1965 C1964 1.388 . S
C1965 C1966 1.390 . S
C1966 C1965 1.390 . S
C1966 C1967 1.394 . S
C1966 C1972 1.465 . S
C1967 C1962 1.399 . S
C1967 C1966 1.394 . S
C1967 C1968 1.516 . S
C1968 C1967 1.516 . S
C1968 C1969 1.502 . S
C1968 C1970 1.561 . S
C1968 C1971 1.526 . S
C1969 H1953 0.959 . S
C1969 H1954 0.959 . S
C1969 H1955 0.961 . S
C1969 C1968 1.502 . S
C1970 H1956 0.960 . S
C1970 H1957 0.961 . S
C1970 H1958 0.959 . S
C1970 C1968 1.561 . S
C1971 C1968 1.526 . S
C1971 C1972 1.396 . S
C1971 C1976 1.390 . S
C1972 C1966 1.465 . S
C1972 C1971 1.396 . S
C1972 C1973 1.399 . S
C1973 H1959 0.929 . S
C1973 C1972 1.399 . S
C1973 C1974 1.385 . S
C1974 H1960 0.931 . S
C1974 C1973 1.385 . S
C1974 C1975 1.389 . S
C1975 C1974 1.389 . S
C1975 C1976 1.387 . S
C1976 H1961 0.930 . S
C1976 C1971 1.390 . S
C1976 C1975 1.387 . S
H1977 C1989 0.930 . S
H1978 C1991 0.930 . S
H1979 C1992 0.930 . S
H1980 C1996 0.959 . S
H1981 C1996 0.959 . S
H1982 C1996 0.961 . S
H1983 C1997 0.960 . S
H1984 C1997 0.961 . S
H1985 C1997 0.959 . S
H1986 C2000 0.929 . S
H1987 C2001 0.931 . S
H1988 C2003 0.930 . S
C1989 H1977 0.930 . S
C1989 C1990 1.399 . S
C1989 C1994 1.399 . S
C1990 C1989 1.399 . S
C1990 C1991 1.376 . S
C1991 H1978 0.930 . S
C1991 C1990 1.376 . S
C1991 C1992 1.388 . S
C1992 H1979 0.930 . S
C1992 C1991 1.388 . S
C1992 C1993 1.390 . S
C1993 C1992 1.390 . S
C1993 C1994 1.394 . S
C1993 C1999 1.465 . S
C1994 C1989 1.399 . S
C1994 C1993 1.394 . S
C1994 C1995 1.516 . S
C1995 C1994 1.516 . S
C1995 C1996 1.502 . S
C1995 C1997 1.561 . S
C1995 C1998 1.526 . S
C1996 H1980 0.959 . S
C1996 H1981 0.959 . S
C1996 H1982 0.961 . S
C1996 C1995 1.502 . S
C1997 H1983 0.960 . S
C1997 H1984 0.961 . S
C1997 H1985 0.959 . S
C1997 C1995 1.561 . S
C1998 C1995 1.526 . S
C1998 C1999 1.396 . S
C1998 C2003 1.390 . S
C1999 C1993 1.465 . S
C1999 C1998 1.396 . S
C1999 C2000 1.399 . S
C2000 H1986 0.929 . S
C2000 C1999 1.399 . S
C2000 C2001 1.385 . S
C2001 H1987 0.931 . S
C2001 C2000 1.385 . S
C2001 C2002 1.389 . S
C2002 C2001 1.389 . S
C2002 C2003 1.387 . S
C2003 H1988 0.930 . S
C2003 C1998 1.390 . S
C2003 C2002 1.387 . S
H2004 C2016 0.930 . S
H2005 C2018 0.930 . S
H2006 C2019 0.930 . S
H2007 C2023 0.959 . S
H2008 C2023 0.959 . S
H2009 C2023 0.961 . S
H2010 C2024 0.960 . S
H2011 C2024 0.961 . S
H2012 C2024 0.959 . S
H2013 C2027 0.929 . S
H2014 C2028 0.931 . S
H2015 C2030 0.930 . S
C2016 H2004 0.930 . S
C2016 C2017 1.399 . S
C2016 C2021 1.399 . S
C2017 C2016 1.399 . S
C2017 C2018 1.376 . S
C2018 H2005 0.930 . S
C2018 C2017 1.376 . S
C2018 C2019 1.388 . S
C2019 H2006 0.930 . S
C2019 C2018 1.388 . S
C2019 C2020 1.390 . S
C2020 C2019 1.390 . S
C2020 C2021 1.394 . S
C2020 C2026 1.465 . S
C2021 C2016 1.399 . S
C2021 C2020 1.394 . S
C2021 C2022 1.516 . S
C2022 C2021 1.516 . S
C2022 C2023 1.502 . S
C2022 C2024 1.561 . S
C2022 C2025 1.526 . S
C2023 H2007 0.959 . S
C2023 H2008 0.959 . S
C2023 H2009 0.961 . S
C2023 C2022 1.502 . S
C2024 H2010 0.960 . S
C2024 H2011 0.961 . S
C2024 H2012 0.959 . S
C2024 C2022 1.561 . S
C2025 C2022 1.526 . S
C2025 C2026 1.396 . S
C2025 C2030 1.390 . S
C2026 C2020 1.465 . S
C2026 C2025 1.396 . S
C2026 C2027 1.399 . S
C2027 H2013 0.929 . S
C2027 C2026 1.399 . S
C2027 C2028 1.385 . S
C2028 H2014 0.931 . S
C2028 C2027 1.385 . S
C2028 C2029 1.389 . S
C2029 C2028 1.389 . S
C2029 C2030 1.387 . S
C2030 H2015 0.930 . S
C2030 C2025 1.390 . S
C2030 C2029 1.387 . S
H2031 C2043 0.930 . S
H2032 C2045 0.930 . S
H2033 C2046 0.930 . S
H2034 C2050 0.959 . S
H2035 C2050 0.959 . S
H2036 C2050 0.961 . S
H2037 C2051 0.960 . S
H2038 C2051 0.964 . S
H2039 C2051 0.959 1_655 S
H2040 C2054 0.929 . S
H2041 C2055 0.931 . S
H2042 C2057 0.930 . S
C2043 H2031 0.930 . S
C2043 C2044 1.399 . S
C2043 C2048 1.399 . S
C2044 C2043 1.399 . S
C2044 C2045 1.376 . S
C2045 H2032 0.930 . S
C2045 C2044 1.376 . S
C2045 C2046 1.388 . S
C2046 H2033 0.930 . S
C2046 C2045 1.388 . S
C2046 C2047 1.390 . S
C2047 C2046 1.390 . S
C2047 C2048 1.394 . S
C2047 C2053 1.465 . S
C2048 C2043 1.399 . S
C2048 C2047 1.394 . S
C2048 C2049 1.516 . S
C2049 C2048 1.516 . S
C2049 C2050 1.502 . S
C2049 C2051 1.561 . S
C2049 C2052 1.526 . S
C2050 H2034 0.959 . S
C2050 H2035 0.959 . S
C2050 H2036 0.961 . S
C2050 C2049 1.502 . S
C2051 H2037 0.960 . S
C2051 H2038 0.964 . S
C2051 H2039 0.959 1_455 S
C2051 C2049 1.561 . S
C2052 C2049 1.526 . S
C2052 C2053 1.396 . S
C2052 C2057 1.390 . S
C2053 C2047 1.465 . S
C2053 C2052 1.396 . S
C2053 C2054 1.399 . S
C2054 H2040 0.929 . S
C2054 C2053 1.399 . S
C2054 C2055 1.385 . S
C2055 H2041 0.931 . S
C2055 C2054 1.385 . S
C2055 C2056 1.389 . S
C2056 C2055 1.389 . S
C2056 C2057 1.387 . S
C2057 H2042 0.930 . S
C2057 C2052 1.390 . S
C2057 C2056 1.387 . S
H2058 C2070 0.930 . S
H2059 C2072 0.930 . S
H2060 C2073 0.930 . S
H2061 C2077 0.959 . S
H2062 C2077 0.959 . S
H2063 C2077 0.961 . S
H2064 C2078 0.960 . S
H2065 C2078 0.961 . S
H2066 C2078 0.959 . S
H2067 C2081 0.929 . S
H2068 C2082 0.931 . S
H2069 C2084 0.930 . S
C2070 H2058 0.930 . S
C2070 C2071 1.399 . S
C2070 C2075 1.399 . S
C2071 C2070 1.399 . S
C2071 C2072 1.376 . S
C2072 H2059 0.930 . S
C2072 C2071 1.376 . S
C2072 C2073 1.388 . S
C2073 H2060 0.930 . S
C2073 C2072 1.388 . S
C2073 C2074 1.390 . S
C2074 C2073 1.390 . S
C2074 C2075 1.394 . S
C2074 C2080 1.465 . S
C2075 C2070 1.399 . S
C2075 C2074 1.394 . S
C2075 C2076 1.516 . S
C2076 C2075 1.516 . S
C2076 C2077 1.502 . S
C2076 C2078 1.561 . S
C2076 C2079 1.526 . S
C2077 H2061 0.959 . S
C2077 H2062 0.959 . S
C2077 H2063 0.961 . S
C2077 C2076 1.502 . S
C2078 H2064 0.960 . S
C2078 H2065 0.961 . S
C2078 H2066 0.959 . S
C2078 C2076 1.561 . S
C2079 C2076 1.526 . S
C2079 C2080 1.396 . S
C2079 C2084 1.390 . S
C2080 C2074 1.465 . S
C2080 C2079 1.396 . S
C2080 C2081 1.399 . S
C2081 H2067 0.929 . S
C2081 C2080 1.399 . S
C2081 C2082 1.385 . S
C2082 H2068 0.931 . S
C2082 C2081 1.385 . S
C2082 C2083 1.389 . S
C2083 C2082 1.389 . S
C2083 C2084 1.387 . S
C2084 H2069 0.930 . S
C2084 C2079 1.390 . S
C2084 C2083 1.387 . S
H2085 C2097 0.930 . S
H2086 C2099 0.930 . S
H2087 C2100 0.930 . S
H2088 C2104 0.959 . S
H2089 C2104 0.959 . S
H2090 C2104 0.961 . S
H2091 C2105 0.960 . S
H2092 C2105 0.961 . S
H2093 C2105 0.959 . S
H2094 C2108 0.929 . S
H2095 C2109 0.931 . S
H2096 C2111 0.954 . S
C2097 H2085 0.930 . S
C2097 C2098 1.399 . S
C2097 C2102 1.399 . S
C2098 C2097 1.399 . S
C2098 C2099 1.376 . S
C2099 H2086 0.930 . S
C2099 C2098 1.376 . S
C2099 C2100 1.388 . S
C2100 H2087 0.930 . S
C2100 C2099 1.388 . S
C2100 C2101 1.390 . S
C2101 C2100 1.390 . S
C2101 C2102 1.394 . S
C2101 C2107 1.465 . S
C2102 C2097 1.399 . S
C2102 C2101 1.394 . S
C2102 C2103 1.516 . S
C2103 C2102 1.516 . S
C2103 C2104 1.502 1_655 S
C2103 C2105 1.561 . S
C2103 C2106 1.526 . S
C2104 H2088 0.959 . S
C2104 H2089 0.959 . S
C2104 H2090 0.961 . S
C2104 C2103 1.502 1_455 S
C2105 H2091 0.960 . S
C2105 H2092 0.961 . S
C2105 H2093 0.959 . S
C2105 C2103 1.561 . S
C2106 C2103 1.526 . S
C2106 C2107 1.396 . S
C2106 C2111 1.390 . S
C2107 C2101 1.465 . S
C2107 C2106 1.396 . S
C2107 C2108 1.399 . S
C2108 H2094 0.929 . S
C2108 C2107 1.399 . S
C2108 C2109 1.385 . S
C2109 H2095 0.931 . S
C2109 C2108 1.385 . S
C2109 C2110 1.389 . S
C2110 C2109 1.389 . S
C2110 C2111 1.387 . S
C2111 H2096 0.954 . S
C2111 C2106 1.390 . S
C2111 C2110 1.387 . S
H2112 C2124 0.930 . S
H2113 C2126 0.930 . S
H2114 C2127 0.930 . S
H2115 C2131 0.959 . S
H2116 C2131 0.959 . S
H2117 C2131 0.961 . S
H2118 C2132 0.960 . S
H2119 C2132 0.961 . S
H2120 C2132 0.959 . S
H2121 C2135 0.929 . S
H2122 C2136 0.931 . S
H2123 C2138 0.930 . S
C2124 H2112 0.930 . S
C2124 C2125 1.399 . S
C2124 C2129 1.399 . S
C2125 C2124 1.399 . S
C2125 C2126 1.376 . S
C2126 H2113 0.930 . S
C2126 C2125 1.376 . S
C2126 C2127 1.388 . S
C2127 H2114 0.930 . S
C2127 C2126 1.388 . S
C2127 C2128 1.390 . S
C2128 C2127 1.390 . S
C2128 C2129 1.394 . S
C2128 C2134 1.465 . S
C2129 C2124 1.399 . S
C2129 C2128 1.394 . S
C2129 C2130 1.516 . S
C2130 C2129 1.516 . S
C2130 C2131 1.502 . S
C2130 C2132 1.561 . S
C2130 C2133 1.526 . S
C2131 H2115 0.959 . S
C2131 H2116 0.959 . S
C2131 H2117 0.961 . S
C2131 C2130 1.502 . S
C2132 H2118 0.960 . S
C2132 H2119 0.961 . S
C2132 H2120 0.959 . S
C2132 C2130 1.561 . S
C2133 C2130 1.526 . S
C2133 C2134 1.396 . S
C2133 C2138 1.390 . S
C2134 C2128 1.465 . S
C2134 C2133 1.396 . S
C2134 C2135 1.399 . S
C2135 H2121 0.929 . S
C2135 C2134 1.399 . S
C2135 C2136 1.385 . S
C2136 H2122 0.931 . S
C2136 C2135 1.385 . S
C2136 C2137 1.389 . S
C2137 C2136 1.389 . S
C2137 C2138 1.387 . S
C2138 H2123 0.930 . S
C2138 C2133 1.390 . S
C2138 C2137 1.387 . S
H2139 C2151 0.930 . S
H2140 C2153 0.930 . S
H2141 C2154 0.930 . S
H2142 C2158 0.959 . S
H2143 C2158 0.959 . S
H2144 C2158 0.961 . S
H2145 C2159 0.960 . S
H2146 C2159 0.961 . S
H2147 C2159 0.959 . S
H2148 C2162 0.929 . S
H2149 C2163 0.931 . S
H2150 C2165 0.930 . S
C2151 H2139 0.930 . S
C2151 C2152 1.399 . S
C2151 C2156 1.399 . S
C2152 C2151 1.399 . S
C2152 C2153 1.376 . S
C2153 H2140 0.930 . S
C2153 C2152 1.376 . S
C2153 C2154 1.388 . S
C2154 H2141 0.930 . S
C2154 C2153 1.388 . S
C2154 C2155 1.390 . S
C2155 C2154 1.390 . S
C2155 C2156 1.394 . S
C2155 C2161 1.465 . S
C2156 C2151 1.399 . S
C2156 C2155 1.394 . S
C2156 C2157 1.516 . S
C2157 C2156 1.516 . S
C2157 C2158 1.502 . S
C2157 C2159 1.561 . S
C2157 C2160 1.526 . S
C2158 H2142 0.959 . S
C2158 H2143 0.959 . S
C2158 H2144 0.961 . S
C2158 C2157 1.502 . S
C2159 H2145 0.960 . S
C2159 H2146 0.961 . S
C2159 H2147 0.959 . S
C2159 C2157 1.561 . S
C2160 C2157 1.526 . S
C2160 C2161 1.396 . S
C2160 C2165 1.390 . S
C2161 C2155 1.465 . S
C2161 C2160 1.396 . S
C2161 C2162 1.399 . S
C2162 H2148 0.929 . S
C2162 C2161 1.399 . S
C2162 C2163 1.385 . S
C2163 H2149 0.931 . S
C2163 C2162 1.385 . S
C2163 C2164 1.389 . S
C2164 C2163 1.389 . S
C2164 C2165 1.387 . S
C2165 H2150 0.930 . S
C2165 C2160 1.390 . S
C2165 C2164 1.387 . S
H2166 C2178 0.930 . S
H2167 C2180 0.930 . S
H2168 C2181 0.930 . S
H2169 C2185 0.959 . S
H2170 C2185 0.959 . S
H2171 C2185 0.961 . S
H2172 C2186 0.960 . S
H2173 C2186 0.961 . S
H2174 C2186 0.959 . S
H2175 C2189 0.929 . S
H2176 C2190 0.931 . S
H2177 C2192 0.930 . S
C2178 H2166 0.930 . S
C2178 C2179 1.399 . S
C2178 C2183 1.399 . S
C2179 C2178 1.399 . S
C2179 C2180 1.376 1_556 S
C2180 H2167 0.930 . S
C2180 C2179 1.376 1_554 S
C2180 C2181 1.388 . S
C2181 H2168 0.930 . S
C2181 C2180 1.388 . S
C2181 C2182 1.390 1_554 S
C2182 C2181 1.390 1_556 S
C2182 C2183 1.394 . S
C2182 C2188 1.465 . S
C2183 C2178 1.399 . S
C2183 C2182 1.394 . S
C2183 C2184 1.516 . S
C2184 C2183 1.516 . S
C2184 C2185 1.502 . S
C2184 C2186 1.561 . S
C2184 C2187 1.526 . S
C2185 H2169 0.959 . S
C2185 H2170 0.959 . S
C2185 H2171 0.961 . S
C2185 C2184 1.502 . S
C2186 H2172 0.960 . S
C2186 H2173 0.961 . S
C2186 H2174 0.959 . S
C2186 C2184 1.561 . S
C2187 C2184 1.526 . S
C2187 C2188 1.396 . S
C2187 C2192 1.390 . S
C2188 C2182 1.465 . S
C2188 C2187 1.396 . S
C2188 C2189 1.399 1_556 S
C2189 H2175 0.929 . S
C2189 C2188 1.399 1_554 S
C2189 C2190 1.385 . S
C2190 H2176 0.931 . S
C2190 C2189 1.385 . S
C2190 C2191 1.389 1_554 S
C2191 C2190 1.389 1_556 S
C2191 C2192 1.387 . S
C2192 H2177 0.930 . S
C2192 C2187 1.390 . S
C2192 C2191 1.387 . S
H2193 C2205 0.930 . S
H2194 C2207 0.930 . S
H2195 C2208 0.930 . S
H2196 C2212 0.959 . S
H2197 C2212 0.959 . S
H2198 C2212 0.961 . S
H2199 C2213 0.960 . S
H2200 C2213 0.961 . S
H2201 C2213 0.959 . S
H2202 C2216 0.929 . S
H2203 C2217 0.931 . S
H2204 C2219 0.930 . S
C2205 H2193 0.930 . S
C2205 C2206 1.399 . S
C2205 C2210 1.399 . S
C2206 C2205 1.399 . S
C2206 C2207 1.376 . S
C2207 H2194 0.930 . S
C2207 C2206 1.376 . S
C2207 C2208 1.388 . S
C2208 H2195 0.930 . S
C2208 C2207 1.388 . S
C2208 C2209 1.390 . S
C2209 C2208 1.390 . S
C2209 C2210 1.394 . S
C2209 C2215 1.465 . S
C2210 C2205 1.399 . S
C2210 C2209 1.394 . S
C2210 C2211 1.516 . S
C2211 C2210 1.516 . S
C2211 C2212 1.502 . S
C2211 C2213 1.561 . S
C2211 C2214 1.526 . S
C2212 H2196 0.959 . S
C2212 H2197 0.959 . S
C2212 H2198 0.961 . S
C2212 C2211 1.502 . S
C2213 H2199 0.960 . S
C2213 H2200 0.961 . S
C2213 H2201 0.959 . S
C2213 C2211 1.561 . S
C2214 C2211 1.526 . S
C2214 C2215 1.396 . S
C2214 C2219 1.390 . S
C2215 C2209 1.465 . S
C2215 C2214 1.396 . S
C2215 C2216 1.399 . S
C2216 H2202 0.929 . S
C2216 C2215 1.399 . S
C2216 C2217 1.385 . S
C2217 H2203 0.931 . S
C2217 C2216 1.385 . S
C2217 C2218 1.389 . S
C2218 C2217 1.389 . S
C2218 C2219 1.387 . S
C2219 H2204 0.930 . S
C2219 C2214 1.390 . S
C2219 C2218 1.387 . S
H2220 C2232 0.930 . S
H2221 C2234 0.930 . S
H2222 C2235 0.930 . S
H2223 C2239 0.959 . S
H2224 C2239 0.959 . S
H2225 C2239 0.961 . S
H2226 C2240 0.960 . S
H2227 C2240 0.961 . S
H2228 C2240 0.959 . S
H2229 C2243 0.929 . S
H2230 C2244 0.931 . S
H2231 C2246 0.930 . S
C2232 H2220 0.930 . S
C2232 C2233 1.399 . S
C2232 C2237 1.399 . S
C2233 C2232 1.399 . S
C2233 C2234 1.376 . S
C2234 H2221 0.930 . S
C2234 C2233 1.376 . S
C2234 C2235 1.388 . S
C2235 H2222 0.930 . S
C2235 C2234 1.388 . S
C2235 C2236 1.390 . S
C2236 C2235 1.390 . S
C2236 C2237 1.394 . S
C2236 C2242 1.465 . S
C2237 C2232 1.399 . S
C2237 C2236 1.394 . S
C2237 C2238 1.516 . S
C2238 C2237 1.516 . S
C2238 C2239 1.502 . S
C2238 C2240 1.561 . S
C2238 C2241 1.526 . S
C2239 H2223 0.959 . S
C2239 H2224 0.959 . S
C2239 H2225 0.961 . S
C2239 C2238 1.502 . S
C2240 H2226 0.960 . S
C2240 H2227 0.961 . S
C2240 H2228 0.959 . S
C2240 C2238 1.561 . S
C2241 C2238 1.526 . S
C2241 C2242 1.396 . S
C2241 C2246 1.390 . S
C2242 C2236 1.465 . S
C2242 C2241 1.396 . S
C2242 C2243 1.399 . S
C2243 H2229 0.929 . S
C2243 C2242 1.399 . S
C2243 C2244 1.385 . S
C2244 H2230 0.931 . S
C2244 C2243 1.385 . S
C2244 C2245 1.389 . S
C2245 C2244 1.389 . S
C2245 C2246 1.387 . S
C2246 H2231 0.930 . S
C2246 C2241 1.390 . S
C2246 C2245 1.387 . S
H2247 C2259 0.930 . S
H2248 C2261 0.930 . S
H2249 C2262 0.930 . S
H2250 C2266 0.959 . S
H2251 C2266 0.959 . S
H2252 C2266 0.961 . S
H2253 C2267 0.960 . S
H2254 C2267 0.961 . S
H2255 C2267 0.959 . S
H2256 C2270 0.929 . S
H2257 C2271 0.931 . S
H2258 C2273 0.930 . S
C2259 H2247 0.930 . S
C2259 C2260 1.399 . S
C2259 C2264 1.399 . S
C2260 C2259 1.399 . S
C2260 C2261 1.376 . S
C2261 H2248 0.930 . S
C2261 C2260 1.376 . S
C2261 C2262 1.388 . S
C2262 H2249 0.930 . S
C2262 C2261 1.388 . S
C2262 C2263 1.390 . S
C2263 C2262 1.390 . S
C2263 C2264 1.394 . S
C2263 C2269 1.465 . S
C2264 C2259 1.399 . S
C2264 C2263 1.394 . S
C2264 C2265 1.516 . S
C2265 C2264 1.516 . S
C2265 C2266 1.502 . S
C2265 C2267 1.561 . S
C2265 C2268 1.526 . S
C2266 H2250 0.959 . S
C2266 H2251 0.959 . S
C2266 H2252 0.961 . S
C2266 C2265 1.502 . S
C2267 H2253 0.960 . S
C2267 H2254 0.961 . S
C2267 H2255 0.959 . S
C2267 C2265 1.561 . S
C2268 C2265 1.526 . S
C2268 C2269 1.396 . S
C2268 C2273 1.390 . S
C2269 C2263 1.465 . S
C2269 C2268 1.396 . S
C2269 C2270 1.399 . S
C2270 H2256 0.929 . S
C2270 C2269 1.399 . S
C2270 C2271 1.385 . S
C2271 H2257 0.931 . S
C2271 C2270 1.385 . S
C2271 C2272 1.389 . S
C2272 C2271 1.389 . S
C2272 C2273 1.387 . S
C2273 H2258 0.930 . S
C2273 C2268 1.390 . S
C2273 C2272 1.387 . S
H2274 C2286 0.930 . S
H2275 C2288 0.930 . S
H2276 C2289 0.930 . S
H2277 C2293 0.959 . S
H2278 C2293 0.959 . S
H2279 C2293 0.961 . S
H2280 C2294 0.960 . S
H2281 C2294 0.961 . S
H2282 C2294 0.959 . S
H2283 C2297 0.929 . S
H2284 C2298 0.931 . S
H2285 C2300 0.930 . S
C2286 H2274 0.930 . S
C2286 C2287 1.399 . S
C2286 C2291 1.399 . S
C2287 C2286 1.399 . S
C2287 C2288 1.376 . S
C2288 H2275 0.930 . S
C2288 C2287 1.376 . S
C2288 C2289 1.388 . S
C2289 H2276 0.930 . S
C2289 C2288 1.388 . S
C2289 C2290 1.390 . S
C2290 C2289 1.390 . S
C2290 C2291 1.394 . S
C2290 C2296 1.465 . S
C2291 C2286 1.399 . S
C2291 C2290 1.394 . S
C2291 C2292 1.516 . S
C2292 C2291 1.516 . S
C2292 C2293 1.502 . S
C2292 C2294 1.561 . S
C2292 C2295 1.526 . S
C2293 H2277 0.959 . S
C2293 H2278 0.959 . S
C2293 H2279 0.961 . S
C2293 C2292 1.502 . S
C2294 H2280 0.960 . S
C2294 H2281 0.961 . S
C2294 H2282 0.959 . S
C2294 C2292 1.561 . S
C2295 C2292 1.526 . S
C2295 C2296 1.396 . S
C2295 C2300 1.390 . S
C2296 C2290 1.465 . S
C2296 C2295 1.396 . S
C2296 C2297 1.399 . S
C2297 H2283 0.929 . S
C2297 C2296 1.399 . S
C2297 C2298 1.385 . S
C2298 H2284 0.931 . S
C2298 C2297 1.385 . S
C2298 C2299 1.389 . S
C2299 C2298 1.389 . S
C2299 C2300 1.387 . S
C2300 H2285 0.930 . S
C2300 C2295 1.390 . S
C2300 C2299 1.387 . S
H2301 C2313 0.930 . S
H2302 C2315 0.930 . S
H2303 C2316 0.930 . S
H2304 C2320 0.959 . S
H2305 C2320 0.959 . S
H2306 C2320 0.961 . S
H2307 C2321 0.960 . S
H2308 C2321 0.961 . S
H2309 C2321 0.959 . S
H2310 C2324 0.929 . S
H2311 C2325 0.931 . S
H2312 C2327 0.930 . S
C2313 H2301 0.930 . S
C2313 C2314 1.399 . S
C2313 C2318 1.399 . S
C2314 C2313 1.399 . S
C2314 C2315 1.376 . S
C2315 H2302 0.930 . S
C2315 C2314 1.376 . S
C2315 C2316 1.388 . S
C2316 H2303 0.930 . S
C2316 C2315 1.388 . S
C2316 C2317 1.390 . S
C2317 C2316 1.390 . S
C2317 C2318 1.394 . S
C2317 C2323 1.465 . S
C2318 C2313 1.399 . S
C2318 C2317 1.394 . S
C2318 C2319 1.516 . S
C2319 C2318 1.516 . S
C2319 C2320 1.502 . S
C2319 C2321 1.561 . S
C2319 C2322 1.526 . S
C2320 H2304 0.959 . S
C2320 H2305 0.959 . S
C2320 H2306 0.961 . S
C2320 C2319 1.502 . S
C2321 H2307 0.960 . S
C2321 H2308 0.961 . S
C2321 H2309 0.959 . S
C2321 C2319 1.561 . S
C2322 C2319 1.526 . S
C2322 C2323 1.396 . S
C2322 C2327 1.390 . S
C2323 C2317 1.465 . S
C2323 C2322 1.396 . S
C2323 C2324 1.399 . S
C2324 H2310 0.929 . S
C2324 C2323 1.399 . S
C2324 C2325 1.385 . S
C2325 H2311 0.931 . S
C2325 C2324 1.385 . S
C2325 C2326 1.389 . S
C2326 C2325 1.389 . S
C2326 C2327 1.387 . S
C2327 H2312 0.930 . S
C2327 C2322 1.390 . S
C2327 C2326 1.387 . S
H2328 C2340 0.930 . S
H2329 C2342 0.930 . S
H2330 C2343 0.930 . S
H2331 C2347 0.959 . S
H2332 C2347 0.959 . S
H2333 C2347 0.961 . S
H2334 C2348 0.960 . S
H2335 C2348 0.961 . S
H2336 C2348 0.959 . S
H2337 C2351 0.929 . S
H2338 C2352 0.931 . S
H2339 C2354 0.930 . S
C2340 H2328 0.930 . S
C2340 C2341 1.399 . S
C2340 C2345 1.399 . S
C2341 C2340 1.399 . S
C2341 C2342 1.376 . S
C2342 H2329 0.930 . S
C2342 C2341 1.376 . S
C2342 C2343 1.388 . S
C2343 H2330 0.930 . S
C2343 C2342 1.388 . S
C2343 C2344 1.390 . S
C2344 C2343 1.390 . S
C2344 C2345 1.394 . S
C2344 C2350 1.465 . S
C2345 C2340 1.399 . S
C2345 C2344 1.394 . S
C2345 C2346 1.516 . S
C2346 C2345 1.516 . S
C2346 C2347 1.502 . S
C2346 C2348 1.561 . S
C2346 C2349 1.526 . S
C2347 H2331 0.959 . S
C2347 H2332 0.959 . S
C2347 H2333 0.961 . S
C2347 C2346 1.502 . S
C2348 H2334 0.960 . S
C2348 H2335 0.961 . S
C2348 H2336 0.959 . S
C2348 C2346 1.561 . S
C2349 C2346 1.526 . S
C2349 C2350 1.396 . S
C2349 C2354 1.390 . S
C2350 C2344 1.465 . S
C2350 C2349 1.396 . S
C2350 C2351 1.399 . S
C2351 H2337 0.929 . S
C2351 C2350 1.399 . S
C2351 C2352 1.385 . S
C2352 H2338 0.931 . S
C2352 C2351 1.385 . S
C2352 C2353 1.389 . S
C2353 C2352 1.389 . S
C2353 C2354 1.387 . S
C2354 H2339 0.930 . S
C2354 C2349 1.390 . S
C2354 C2353 1.387 . S
H2355 C2367 0.930 . S
H2356 C2369 0.930 1_565 S
H2357 C2370 0.930 . S
H2358 C2374 0.959 . S
H2359 C2374 0.959 . S
H2360 C2374 0.961 . S
H2361 C2375 0.960 . S
H2362 C2375 0.961 . S
H2363 C2375 0.959 . S
H2364 C2378 0.929 . S
H2365 C2379 0.931 . S
H2366 C2381 0.930 . S
C2367 H2355 0.930 . S
C2367 C2368 1.399 . S
C2367 C2372 1.399 . S
C2368 C2367 1.399 . S
C2368 C2369 1.376 . S
C2369 H2356 0.930 1_545 S
C2369 C2368 1.376 . S
C2369 C2370 1.388 1_545 S
C2370 H2357 0.930 . S
C2370 C2369 1.388 1_565 S
C2370 C2371 1.390 1_565 S
C2371 C2370 1.390 1_545 S
C2371 C2372 1.394 . S
C2371 C2377 1.465 . S
C2372 C2367 1.399 . S
C2372 C2371 1.394 . S
C2372 C2373 1.516 . S
C2373 C2372 1.516 . S
C2373 C2374 1.502 . S
C2373 C2375 1.561 . S
C2373 C2376 1.526 . S
C2374 H2358 0.959 . S
C2374 H2359 0.959 . S
C2374 H2360 0.961 . S
C2374 C2373 1.502 . S
C2375 H2361 0.960 . S
C2375 H2362 0.961 . S
C2375 H2363 0.959 . S
C2375 C2373 1.561 . S
C2376 C2373 1.526 . S
C2376 C2377 1.396 . S
C2376 C2381 1.390 . S
C2377 C2371 1.465 . S
C2377 C2376 1.396 . S
C2377 C2378 1.399 1_545 S
C2378 H2364 0.929 . S
C2378 C2377 1.399 1_565 S
C2378 C2379 1.385 . S
C2379 H2365 0.931 . S
C2379 C2378 1.385 . S
C2379 C2380 1.389 1_565 S
C2380 C2379 1.389 1_545 S
C2380 C2381 1.387 . S
C2381 H2366 0.930 . S
C2381 C2376 1.390 . S
C2381 C2380 1.387 . S
H2382 C2394 0.930 . S
H2383 C2396 0.930 . S
H2384 C2397 0.930 . S
H2385 C2401 0.959 . S
H2386 C2401 0.959 . S
H2387 C2401 0.961 . S
H2388 C2402 0.960 . S
H2389 C2402 0.961 . S
H2390 C2402 0.959 . S
H2391 C2405 0.929 . S
H2392 C2406 0.931 . S
H2393 C2408 0.930 . S
C2394 H2382 0.930 . S
C2394 C2395 1.399 . S
C2394 C2399 1.399 . S
C2395 C2394 1.399 . S
C2395 C2396 1.376 . S
C2396 H2383 0.930 . S
C2396 C2395 1.376 . S
C2396 C2397 1.388 . S
C2397 H2384 0.930 . S
C2397 C2396 1.388 . S
C2397 C2398 1.390 . S
C2398 C2397 1.390 . S
C2398 C2399 1.394 . S
C2398 C2404 1.465 . S
C2399 C2394 1.399 . S
C2399 C2398 1.394 . S
C2399 C2400 1.516 . S
C2400 C2399 1.516 . S
C2400 C2401 1.502 . S
C2400 C2402 1.561 . S
C2400 C2403 1.526 . S
C2401 H2385 0.959 . S
C2401 H2386 0.959 . S
C2401 H2387 0.961 . S
C2401 C2400 1.502 . S
C2402 H2388 0.960 . S
C2402 H2389 0.961 . S
C2402 H2390 0.959 . S
C2402 C2400 1.561 . S
C2403 C2400 1.526 . S
C2403 C2404 1.396 . S
C2403 C2408 1.390 . S
C2404 C2398 1.465 . S
C2404 C2403 1.396 . S
C2404 C2405 1.399 . S
C2405 H2391 0.929 . S
C2405 C2404 1.399 . S
C2405 C2406 1.385 . S
C2406 H2392 0.931 . S
C2406 C2405 1.385 . S
C2406 C2407 1.389 . S
C2407 C2406 1.389 . S
C2407 C2408 1.387 . S
C2408 H2393 0.930 . S
C2408 C2403 1.390 . S
C2408 C2407 1.387 . S
H2409 C2421 0.930 . S
H2410 C2423 0.930 . S
H2411 C2424 0.930 . S
H2412 C2428 0.959 . S
H2413 C2428 0.959 . S
H2414 C2428 0.961 . S
H2415 C2429 0.960 . S
H2416 C2429 0.961 . S
H2417 C2429 0.959 . S
H2418 C2432 0.929 . S
H2419 C2433 0.931 . S
H2420 C2435 0.930 . S
C2421 H2409 0.930 . S
C2421 C2422 1.399 . S
C2421 C2426 1.399 . S
C2422 C2421 1.399 . S
C2422 C2423 1.376 . S
C2423 H2410 0.930 . S
C2423 C2422 1.376 . S
C2423 C2424 1.388 . S
C2424 H2411 0.930 . S
C2424 C2423 1.388 . S
C2424 C2425 1.390 . S
C2425 C2424 1.390 . S
C2425 C2426 1.394 . S
C2425 C2431 1.465 . S
C2426 C2421 1.399 . S
C2426 C2425 1.394 . S
C2426 C2427 1.516 . S
C2427 C2426 1.516 . S
C2427 C2428 1.502 . S
C2427 C2429 1.561 . S
C2427 C2430 1.526 . S
C2428 H2412 0.959 . S
C2428 H2413 0.959 . S
C2428 H2414 0.961 . S
C2428 C2427 1.502 . S
C2429 H2415 0.960 . S
C2429 H2416 0.961 . S
C2429 H2417 0.959 . S
C2429 C2427 1.561 . S
C2430 C2427 1.526 . S
C2430 C2431 1.396 . S
C2430 C2435 1.390 . S
C2431 C2425 1.465 . S
C2431 C2430 1.396 . S
C2431 C2432 1.399 . S
C2432 H2418 0.929 . S
C2432 C2431 1.399 . S
C2432 C2433 1.385 . S
C2433 H2419 0.931 . S
C2433 C2432 1.385 . S
C2433 C2434 1.389 . S
C2434 C2433 1.389 . S
C2434 C2435 1.387 . S
C2435 H2420 0.930 . S
C2435 C2430 1.390 . S
C2435 C2434 1.387 . S
H2436 C2448 0.930 . S
H2437 C2450 0.930 . S
H2438 C2451 0.930 . S
H2439 C2455 0.959 . S
H2440 C2455 0.959 . S
H2441 C2455 0.961 . S
H2442 C2456 0.960 . S
H2443 C2456 0.961 . S
H2444 C2456 0.959 . S
H2445 C2459 0.929 . S
H2446 C2460 0.931 . S
H2447 C2462 0.930 . S
C2448 H2436 0.930 . S
C2448 C2449 1.399 . S
C2448 C2453 1.399 . S
C2449 C2448 1.399 . S
C2449 C2450 1.376 . S
C2450 H2437 0.930 . S
C2450 C2449 1.376 . S
C2450 C2451 1.388 . S
C2451 H2438 0.930 . S
C2451 C2450 1.388 . S
C2451 C2452 1.390 . S
C2452 C2451 1.390 . S
C2452 C2453 1.394 . S
C2452 C2458 1.465 . S
C2453 C2448 1.399 . S
C2453 C2452 1.394 . S
C2453 C2454 1.516 . S
C2454 C2453 1.516 . S
C2454 C2455 1.502 . S
C2454 C2456 1.561 . S
C2454 C2457 1.526 . S
C2455 H2439 0.959 . S
C2455 H2440 0.959 . S
C2455 H2441 0.961 . S
C2455 C2454 1.502 . S
C2456 H2442 0.960 . S
C2456 H2443 0.961 . S
C2456 H2444 0.959 . S
C2456 C2454 1.561 . S
C2457 C2454 1.526 . S
C2457 C2458 1.396 . S
C2457 C2462 1.390 . S
C2458 C2452 1.465 . S
C2458 C2457 1.396 . S
C2458 C2459 1.399 . S
C2459 H2445 0.929 . S
C2459 C2458 1.399 . S
C2459 C2460 1.385 . S
C2460 H2446 0.931 . S
C2460 C2459 1.385 . S
C2460 C2461 1.389 . S
C2461 C2460 1.389 . S
C2461 C2462 1.387 . S
C2462 H2447 0.930 . S
C2462 C2457 1.390 . S
C2462 C2461 1.387 . S
H2463 C2475 0.930 . S
H2464 C2477 0.930 1_565 S
H2465 C2478 0.930 . S
H2466 C2482 0.959 . S
H2467 C2482 0.959 . S
H2468 C2482 0.961 . S
H2469 C2483 0.960 . S
H2470 C2483 0.961 . S
H2471 C2483 0.959 . S
H2472 C2486 0.929 . S
H2473 C2487 0.931 . S
H2474 C2489 0.930 . S
C2475 H2463 0.930 . S
C2475 C2476 1.399 . S
C2475 C2480 1.399 . S
C2476 C2475 1.399 . S
C2476 C2477 1.376 . S
C2477 H2464 0.930 1_545 S
C2477 C2476 1.376 . S
C2477 C2478 1.388 1_545 S
C2478 H2465 0.930 . S
C2478 C2477 1.388 1_565 S
C2478 C2479 1.390 1_565 S
C2479 C2478 1.390 1_545 S
C2479 C2480 1.394 . S
C2479 C2485 1.465 . S
C2480 C2475 1.399 . S
C2480 C2479 1.394 . S
C2480 C2481 1.516 . S
C2481 C2480 1.516 . S
C2481 C2482 1.502 . S
C2481 C2483 1.561 . S
C2481 C2484 1.526 . S
C2482 H2466 0.959 . S
C2482 H2467 0.959 . S
C2482 H2468 0.961 . S
C2482 C2481 1.502 . S
C2483 H2469 0.960 . S
C2483 H2470 0.961 . S
C2483 H2471 0.959 . S
C2483 C2481 1.561 . S
C2484 C2481 1.526 . S
C2484 C2485 1.396 . S
C2484 C2489 1.390 . S
C2485 C2479 1.465 . S
C2485 C2484 1.396 . S
C2485 C2486 1.399 1_545 S
C2486 H2472 0.929 . S
C2486 C2485 1.399 1_565 S
C2486 C2487 1.385 . S
C2487 H2473 0.931 . S
C2487 C2486 1.385 . S
C2487 C2488 1.389 1_565 S
C2488 C2487 1.389 1_545 S
C2488 C2489 1.387 . S
C2489 H2474 0.930 . S
C2489 C2484 1.390 . S
C2489 C2488 1.387 . S
H2490 C2502 0.930 . S
H2491 C2504 0.930 . S
H2492 C2505 0.930 . S
H2493 C2509 0.959 . S
H2494 C2509 0.959 . S
H2495 C2509 0.961 . S
H2496 C2510 0.960 . S
H2497 C2510 0.961 . S
H2498 C2510 0.959 . S
H2499 C2513 0.929 . S
H2500 C2514 0.931 . S
H2501 C2516 0.930 . S
C2502 H2490 0.930 . S
C2502 C2503 1.399 . S
C2502 C2507 1.399 . S
C2503 C2502 1.399 . S
C2503 C2504 1.376 . S
C2504 H2491 0.930 . S
C2504 C2503 1.376 . S
C2504 C2505 1.388 . S
C2505 H2492 0.930 . S
C2505 C2504 1.388 . S
C2505 C2506 1.390 . S
C2506 C2505 1.390 . S
C2506 C2507 1.394 . S
C2506 C2512 1.465 . S
C2507 C2502 1.399 . S
C2507 C2506 1.394 . S
C2507 C2508 1.516 . S
C2508 C2507 1.516 . S
C2508 C2509 1.502 . S
C2508 C2510 1.561 . S
C2508 C2511 1.526 . S
C2509 H2493 0.959 . S
C2509 H2494 0.959 . S
C2509 H2495 0.961 . S
C2509 C2508 1.502 . S
C2510 H2496 0.960 . S
C2510 H2497 0.961 . S
C2510 H2498 0.959 . S
C2510 C2508 1.561 . S
C2511 C2508 1.526 . S
C2511 C2512 1.396 . S
C2511 C2516 1.390 . S
C2512 C2506 1.465 . S
C2512 C2511 1.396 . S
C2512 C2513 1.399 . S
C2513 H2499 0.929 . S
C2513 C2512 1.399 . S
C2513 C2514 1.385 . S
C2514 H2500 0.931 . S
C2514 C2513 1.385 . S
C2514 C2515 1.389 . S
C2515 C2514 1.389 . S
C2515 C2516 1.387 . S
C2516 H2501 0.930 . S
C2516 C2511 1.390 . S
C2516 C2515 1.387 . S
H2517 C2529 0.930 . S
H2518 C2531 0.930 . S
H2519 C2532 0.930 . S
H2520 C2536 0.959 . S
H2521 C2536 0.959 . S
H2522 C2536 0.961 . S
H2523 C2537 0.960 . S
H2524 C2537 0.961 . S
H2525 C2537 0.959 . S
H2526 C2540 0.929 . S
H2527 C2541 0.931 . S
H2528 C2543 0.930 . S
C2529 H2517 0.930 . S
C2529 C2530 1.399 . S
C2529 C2534 1.399 . S
C2530 C2529 1.399 . S
C2530 C2531 1.376 . S
C2531 H2518 0.930 . S
C2531 C2530 1.376 . S
C2531 C2532 1.388 . S
C2532 H2519 0.930 . S
C2532 C2531 1.388 . S
C2532 C2533 1.390 . S
C2533 C2532 1.390 . S
C2533 C2534 1.394 . S
C2533 C2539 1.465 . S
C2534 C2529 1.399 . S
C2534 C2533 1.394 . S
C2534 C2535 1.516 . S
C2535 C2534 1.516 . S
C2535 C2536 1.502 . S
C2535 C2537 1.561 . S
C2535 C2538 1.526 . S
C2536 H2520 0.959 . S
C2536 H2521 0.959 . S
C2536 H2522 0.961 . S
C2536 C2535 1.502 . S
C2537 H2523 0.960 . S
C2537 H2524 0.961 . S
C2537 H2525 0.959 . S
C2537 C2535 1.561 . S
C2538 C2535 1.526 . S
C2538 C2539 1.396 . S
C2538 C2543 1.390 . S
C2539 C2533 1.465 . S
C2539 C2538 1.396 . S
C2539 C2540 1.399 . S
C2540 H2526 0.929 . S
C2540 C2539 1.399 . S
C2540 C2541 1.385 . S
C2541 H2527 0.931 . S
C2541 C2540 1.385 . S
C2541 C2542 1.389 . S
C2542 C2541 1.389 . S
C2542 C2543 1.387 . S
C2543 H2528 0.930 . S
C2543 C2538 1.390 . S
C2543 C2542 1.387 . S
H2544 C2556 0.930 . S
H2545 C2558 0.930 . S
H2546 C2559 0.930 . S
H2547 C2563 0.959 . S
H2548 C2563 0.959 . S
H2549 C2563 0.961 . S
H2550 C2564 0.960 . S
H2551 C2564 0.961 . S
H2552 C2564 0.959 . S
H2553 C2567 0.929 . S
H2554 C2568 0.931 . S
H2555 C2570 0.930 . S
C2556 H2544 0.930 . S
C2556 C2557 1.399 . S
C2556 C2561 1.399 . S
C2557 C2556 1.399 . S
C2557 C2558 1.376 . S
C2558 H2545 0.930 . S
C2558 C2557 1.376 . S
C2558 C2559 1.388 . S
C2559 H2546 0.930 . S
C2559 C2558 1.388 . S
C2559 C2560 1.390 . S
C2560 C2559 1.390 . S
C2560 C2561 1.394 . S
C2560 C2566 1.465 . S
C2561 C2556 1.399 . S
C2561 C2560 1.394 . S
C2561 C2562 1.516 . S
C2562 C2561 1.516 . S
C2562 C2563 1.502 . S
C2562 C2564 1.561 . S
C2562 C2565 1.526 . S
C2563 H2547 0.959 . S
C2563 H2548 0.959 . S
C2563 H2549 0.961 . S
C2563 C2562 1.502 . S
C2564 H2550 0.960 . S
C2564 H2551 0.961 . S
C2564 H2552 0.959 . S
C2564 C2562 1.561 . S
C2565 C2562 1.526 . S
C2565 C2566 1.396 . S
C2565 C2570 1.390 . S
C2566 C2560 1.465 . S
C2566 C2565 1.396 . S
C2566 C2567 1.399 . S
C2567 H2553 0.929 . S
C2567 C2566 1.399 . S
C2567 C2568 1.385 . S
C2568 H2554 0.931 . S
C2568 C2567 1.385 . S
C2568 C2569 1.389 . S
C2569 C2568 1.389 . S
C2569 C2570 1.387 . S
C2570 H2555 0.930 . S
C2570 C2565 1.390 . S
C2570 C2569 1.387 . S
H2571 C2583 0.930 . S
H2572 C2585 0.930 1_554 S
H2573 C2586 0.930 . S
H2574 C2590 0.959 . S
H2575 C2590 0.959 . S
H2576 C2590 0.961 . S
H2577 C2591 0.960 . S
H2578 C2591 0.961 . S
H2579 C2591 0.959 . S
H2580 C2594 0.929 . S
H2581 C2595 0.931 . S
H2582 C2597 0.930 . S
C2583 H2571 0.930 . S
C2583 C2584 1.399 . S
C2583 C2588 1.399 . S
C2584 C2583 1.399 . S
C2584 C2585 1.376 . S
C2585 H2572 0.930 1_556 S
C2585 C2584 1.376 . S
C2585 C2586 1.388 . S
C2586 H2573 0.930 . S
C2586 C2585 1.388 . S
C2586 C2587 1.390 . S
C2587 C2586 1.390 . S
C2587 C2588 1.394 . S
C2587 C2593 1.465 . S
C2588 C2583 1.399 . S
C2588 C2587 1.394 . S
C2588 C2589 1.516 . S
C2589 C2588 1.516 . S
C2589 C2590 1.502 . S
C2589 C2591 1.561 1_655 S
C2589 C2592 1.526 . S
C2590 H2574 0.959 . S
C2590 H2575 0.959 . S
C2590 H2576 0.961 . S
C2590 C2589 1.502 . S
C2591 H2577 0.960 . S
C2591 H2578 0.961 . S
C2591 H2579 0.959 . S
C2591 C2589 1.561 1_455 S
C2592 C2589 1.526 . S
C2592 C2593 1.396 . S
C2592 C2597 1.390 . S
C2593 C2587 1.465 . S
C2593 C2592 1.396 . S
C2593 C2594 1.399 . S
C2594 H2580 0.929 . S
C2594 C2593 1.399 . S
C2594 C2595 1.385 . S
C2595 H2581 0.931 . S
C2595 C2594 1.385 . S
C2595 C2596 1.389 . S
C2596 C2595 1.389 . S
C2596 C2597 1.387 . S
C2597 H2582 0.930 . S
C2597 C2592 1.390 . S
C2597 C2596 1.387 . S
H2598 C2610 0.930 . S
H2599 C2612 0.930 . S
H2600 C2613 0.930 . S
H2601 C2617 0.959 . S
H2602 C2617 0.959 . S
H2603 C2617 0.961 . S
H2604 C2618 0.960 . S
H2605 C2618 0.961 . S
H2606 C2618 0.959 . S
H2607 C2621 0.929 . S
H2608 C2622 0.931 . S
H2609 C2624 0.930 . S
C2610 H2598 0.930 . S
C2610 C2611 1.399 . S
C2610 C2615 1.399 . S
C2611 C2610 1.399 . S
C2611 C2612 1.376 . S
C2612 H2599 0.930 . S
C2612 C2611 1.376 . S
C2612 C2613 1.388 . S
C2613 H2600 0.930 . S
C2613 C2612 1.388 . S
C2613 C2614 1.390 . S
C2614 C2613 1.390 . S
C2614 C2615 1.394 . S
C2614 C2620 1.465 . S
C2615 C2610 1.399 . S
C2615 C2614 1.394 . S
C2615 C2616 1.516 . S
C2616 C2615 1.516 . S
C2616 C2617 1.502 . S
C2616 C2618 1.561 . S
C2616 C2619 1.526 . S
C2617 H2601 0.959 . S
C2617 H2602 0.959 . S
C2617 H2603 0.961 . S
C2617 C2616 1.502 . S
C2618 H2604 0.960 . S
C2618 H2605 0.961 . S
C2618 H2606 0.959 . S
C2618 C2616 1.561 . S
C2619 C2616 1.526 . S
C2619 C2620 1.396 . S
C2619 C2624 1.390 . S
C2620 C2614 1.465 . S
C2620 C2619 1.396 . S
C2620 C2621 1.399 . S
C2621 H2607 0.929 . S
C2621 C2620 1.399 . S
C2621 C2622 1.385 . S
C2622 H2608 0.931 . S
C2622 C2621 1.385 . S
C2622 C2623 1.389 . S
C2623 C2622 1.389 . S
C2623 C2624 1.387 . S
C2624 H2609 0.930 . S
C2624 C2619 1.390 . S
C2624 C2623 1.387 . S
H2625 C2637 0.930 . S
H2626 C2639 0.930 . S
H2627 C2640 0.930 . S
H2628 C2644 0.912 1_655 S
H2629 C2644 0.959 . S
H2630 C2644 0.964 . S
H2631 C2645 0.960 . S
H2632 C2645 0.961 . S
H2633 C2645 0.959 . S
H2634 C2648 0.929 . S
H2635 C2649 0.931 . S
H2636 C2651 0.930 . S
C2637 H2625 0.930 . S
C2637 C2638 1.399 . S
C2637 C2642 1.399 . S
C2638 C2637 1.399 . S
C2638 C2639 1.376 . S
C2639 H2626 0.930 . S
C2639 C2638 1.376 . S
C2639 C2640 1.388 . S
C2640 H2627 0.930 . S
C2640 C2639 1.388 . S
C2640 C2641 1.390 . S
C2641 C2640 1.390 . S
C2641 C2642 1.394 . S
C2641 C2647 1.465 . S
C2642 C2637 1.399 . S
C2642 C2641 1.394 . S
C2642 C2643 1.516 . S
C2643 C2642 1.516 . S
C2643 C2644 1.549 . S
C2643 C2645 1.561 . S
C2643 C2646 1.526 . S
C2644 H2628 0.912 1_455 S
C2644 H2629 0.959 . S
C2644 H2630 0.964 . S
C2644 C2643 1.549 . S
C2645 H2631 0.960 . S
C2645 H2632 0.961 . S
C2645 H2633 0.959 . S
C2645 C2643 1.561 . S
C2646 C2643 1.526 . S
C2646 C2647 1.396 . S
C2646 C2651 1.390 . S
C2647 C2641 1.465 . S
C2647 C2646 1.396 . S
C2647 C2648 1.399 . S
C2648 H2634 0.929 . S
C2648 C2647 1.399 . S
C2648 C2649 1.385 . S
C2649 H2635 0.931 . S
C2649 C2648 1.385 . S
C2649 C2650 1.389 . S
C2650 C2649 1.389 . S
C2650 C2651 1.387 . S
C2651 H2636 0.930 . S
C2651 C2646 1.390 . S
C2651 C2650 1.387 . S
H2652 C2664 0.930 . S
H2653 C2666 0.930 . S
H2654 C2667 0.930 . S
H2655 C2671 0.959 . S
H2656 C2671 0.959 . S
H2657 C2671 0.961 . S
H2658 C2672 0.960 . S
H2659 C2672 0.961 . S
H2660 C2672 0.959 . S
H2661 C2675 0.929 . S
H2662 C2676 0.931 . S
H2663 C2678 0.930 . S
C2664 H2652 0.930 . S
C2664 C2665 1.399 . S
C2664 C2669 1.399 . S
C2665 C2664 1.399 . S
C2665 C2666 1.376 . S
C2666 H2653 0.930 . S
C2666 C2665 1.376 . S
C2666 C2667 1.388 . S
C2667 H2654 0.930 . S
C2667 C2666 1.388 . S
C2667 C2668 1.390 . S
C2668 C2667 1.390 . S
C2668 C2669 1.394 . S
C2668 C2674 1.465 . S
C2669 C2664 1.399 . S
C2669 C2668 1.394 . S
C2669 C2670 1.516 . S
C2670 C2669 1.516 . S
C2670 C2671 1.502 . S
C2670 C2672 1.561 . S
C2670 C2673 1.526 . S
C2671 H2655 0.959 . S
C2671 H2656 0.959 . S
C2671 H2657 0.961 . S
C2671 C2670 1.502 . S
C2672 H2658 0.960 . S
C2672 H2659 0.961 . S
C2672 H2660 0.959 . S
C2672 C2670 1.561 . S
C2673 C2670 1.526 . S
C2673 C2674 1.396 . S
C2673 C2678 1.390 . S
C2674 C2668 1.465 . S
C2674 C2673 1.396 . S
C2674 C2675 1.399 . S
C2675 H2661 0.929 . S
C2675 C2674 1.399 . S
C2675 C2676 1.385 . S
C2676 H2662 0.931 . S
C2676 C2675 1.385 . S
C2676 C2677 1.389 . S
C2677 C2676 1.389 . S
C2677 C2678 1.387 . S
C2678 H2663 0.930 . S
C2678 C2673 1.390 . S
C2678 C2677 1.387 . S
H2679 C2691 0.930 . S
H2680 C2693 0.930 . S
H2681 C2694 0.930 . S
H2682 C2698 0.959 . S
H2683 C2698 0.959 . S
H2684 C2698 0.961 . S
H2685 C2699 0.960 . S
H2686 C2699 0.961 . S
H2687 C2699 0.959 . S
H2688 C2702 0.929 . S
H2689 C2703 0.931 . S
H2690 C2705 0.930 . S
C2691 H2679 0.930 . S
C2691 C2692 1.399 . S
C2691 C2696 1.399 . S
C2692 C2691 1.399 . S
C2692 C2693 1.376 . S
C2693 H2680 0.930 . S
C2693 C2692 1.376 . S
C2693 C2694 1.388 . S
C2694 H2681 0.930 . S
C2694 C2693 1.388 . S
C2694 C2695 1.390 . S
C2695 C2694 1.390 . S
C2695 C2696 1.394 . S
C2695 C2701 1.465 . S
C2696 C2691 1.399 . S
C2696 C2695 1.394 . S
C2696 C2697 1.516 . S
C2697 C2696 1.516 . S
C2697 C2698 1.502 . S
C2697 C2699 1.561 . S
C2697 C2700 1.526 . S
C2698 H2682 0.959 . S
C2698 H2683 0.959 . S
C2698 H2684 0.961 . S
C2698 C2697 1.502 . S
C2699 H2685 0.960 . S
C2699 H2686 0.961 . S
C2699 H2687 0.959 . S
C2699 C2697 1.561 . S
C2700 C2697 1.526 . S
C2700 C2701 1.396 . S
C2700 C2705 1.390 . S
C2701 C2695 1.465 . S
C2701 C2700 1.396 . S
C2701 C2702 1.399 . S
C2702 H2688 0.929 . S
C2702 C2701 1.399 . S
C2702 C2703 1.385 . S
C2703 H2689 0.931 . S
C2703 C2702 1.385 . S
C2703 C2704 1.389 . S
C2704 C2703 1.389 . S
C2704 C2705 1.387 . S
C2705 H2690 0.930 . S
C2705 C2700 1.390 . S
C2705 C2704 1.387 . S
H2706 C2718 0.930 . S
H2707 C2720 0.930 . S
H2708 C2721 0.930 . S
H2709 C2725 0.959 . S
H2710 C2725 0.959 . S
H2711 C2725 0.961 . S
H2712 C2726 0.960 . S
H2713 C2726 0.961 . S
H2714 C2726 0.959 . S
H2715 C2729 0.929 . S
H2716 C2730 0.931 . S
H2717 C2732 0.930 . S
C2718 H2706 0.930 . S
C2718 C2719 1.399 . S
C2718 C2723 1.399 . S
C2719 C2718 1.399 . S
C2719 C2720 1.376 . S
C2720 H2707 0.930 . S
C2720 C2719 1.376 . S
C2720 C2721 1.388 . S
C2721 H2708 0.930 . S
C2721 C2720 1.388 . S
C2721 C2722 1.390 . S
C2722 C2721 1.390 . S
C2722 C2723 1.394 . S
C2722 C2728 1.465 . S
C2723 C2718 1.399 . S
C2723 C2722 1.394 . S
C2723 C2724 1.516 . S
C2724 C2723 1.516 . S
C2724 C2725 1.502 . S
C2724 C2726 1.561 . S
C2724 C2727 1.526 . S
C2725 H2709 0.959 . S
C2725 H2710 0.959 . S
C2725 H2711 0.961 . S
C2725 C2724 1.502 . S
C2726 H2712 0.960 . S
C2726 H2713 0.961 . S
C2726 H2714 0.959 . S
C2726 C2724 1.561 . S
C2727 C2724 1.526 . S
C2727 C2728 1.396 . S
C2727 C2732 1.390 . S
C2728 C2722 1.465 . S
C2728 C2727 1.396 . S
C2728 C2729 1.399 . S
C2729 H2715 0.929 . S
C2729 C2728 1.399 . S
C2729 C2730 1.385 . S
C2730 H2716 0.931 . S
C2730 C2729 1.385 . S
C2730 C2731 1.389 . S
C2731 C2730 1.389 . S
C2731 C2732 1.387 . S
C2732 H2717 0.930 . S
C2732 C2727 1.390 . S
C2732 C2731 1.387 . S
H2733 C2745 0.930 . S
H2734 C2747 0.930 . S
H2735 C2748 0.930 . S
H2736 C2752 0.959 . S
H2737 C2752 0.959 . S
H2738 C2752 0.961 . S
H2739 C2753 0.960 . S
H2740 C2753 0.961 . S
H2741 C2753 0.959 . S
H2742 C2756 0.929 . S
H2743 C2757 0.931 . S
H2744 C2759 0.930 . S
C2745 H2733 0.930 . S
C2745 C2746 1.399 . S
C2745 C2750 1.399 . S
C2746 C2745 1.399 . S
C2746 C2747 1.376 . S
C2747 H2734 0.930 . S
C2747 C2746 1.376 . S
C2747 C2748 1.388 . S
C2748 H2735 0.930 . S
C2748 C2747 1.388 . S
C2748 C2749 1.390 . S
C2749 C2748 1.390 . S
C2749 C2750 1.394 . S
C2749 C2755 1.465 . S
C2750 C2745 1.399 . S
C2750 C2749 1.394 . S
C2750 C2751 1.516 . S
C2751 C2750 1.516 . S
C2751 C2752 1.502 . S
C2751 C2753 1.561 . S
C2751 C2754 1.526 . S
C2752 H2736 0.959 . S
C2752 H2737 0.959 . S
C2752 H2738 0.961 . S
C2752 C2751 1.502 . S
C2753 H2739 0.960 . S
C2753 H2740 0.961 . S
C2753 H2741 0.959 . S
C2753 C2751 1.561 . S
C2754 C2751 1.526 . S
C2754 C2755 1.396 . S
C2754 C2759 1.390 . S
C2755 C2749 1.465 . S
C2755 C2754 1.396 . S
C2755 C2756 1.399 . S
C2756 H2742 0.929 . S
C2756 C2755 1.399 . S
C2756 C2757 1.385 . S
C2757 H2743 0.931 . S
C2757 C2756 1.385 . S
C2757 C2758 1.389 . S
C2758 C2757 1.389 . S
C2758 C2759 1.387 . S
C2759 H2744 0.930 . S
C2759 C2754 1.390 . S
C2759 C2758 1.387 . S
H2760 C2772 0.930 . S
H2761 C2774 0.930 . S
H2762 C2775 0.930 . S
H2763 C2779 0.959 . S
H2764 C2779 0.959 . S
H2765 C2779 0.961 . S
H2766 C2780 0.960 . S
H2767 C2780 0.961 . S
H2768 C2780 0.959 . S
H2769 C2783 0.929 . S
H2770 C2784 0.931 . S
H2771 C2786 0.930 . S
C2772 H2760 0.930 . S
C2772 C2773 1.399 . S
C2772 C2777 1.399 . S
C2773 C2772 1.399 . S
C2773 C2774 1.376 . S
C2774 H2761 0.930 . S
C2774 C2773 1.376 . S
C2774 C2775 1.388 . S
C2775 H2762 0.930 . S
C2775 C2774 1.388 . S
C2775 C2776 1.390 . S
C2776 C2775 1.390 . S
C2776 C2777 1.394 . S
C2776 C2782 1.465 . S
C2777 C2772 1.399 . S
C2777 C2776 1.394 . S
C2777 C2778 1.516 . S
C2778 C2777 1.516 . S
C2778 C2779 1.502 . S
C2778 C2780 1.561 . S
C2778 C2781 1.526 . S
C2779 H2763 0.959 . S
C2779 H2764 0.959 . S
C2779 H2765 0.961 . S
C2779 C2778 1.502 . S
C2780 H2766 0.960 . S
C2780 H2767 0.961 . S
C2780 H2768 0.959 . S
C2780 C2778 1.561 . S
C2781 C2778 1.526 . S
C2781 C2782 1.396 . S
C2781 C2786 1.390 . S
C2782 C2776 1.465 . S
C2782 C2781 1.396 . S
C2782 C2783 1.399 . S
C2783 H2769 0.929 . S
C2783 C2782 1.399 . S
C2783 C2784 1.385 . S
C2784 H2770 0.931 . S
C2784 C2783 1.385 . S
C2784 C2785 1.389 . S
C2785 C2784 1.389 . S
C2785 C2786 1.387 . S
C2786 H2771 0.930 . S
C2786 C2781 1.390 . S
C2786 C2785 1.387 . S
H2787 C2799 0.930 . S
H2788 C2801 0.930 . S
H2789 C2802 0.930 . S
H2790 C2806 0.959 . S
H2791 C2806 0.959 . S
H2792 C2806 0.961 . S
H2793 C2807 0.960 . S
H2794 C2807 0.961 . S
H2795 C2807 0.959 . S
H2796 C2810 0.929 . S
H2797 C2811 0.931 . S
H2798 C2813 0.930 . S
C2799 H2787 0.930 . S
C2799 C2800 1.399 . S
C2799 C2804 1.399 . S
C2800 C2799 1.399 . S
C2800 C2801 1.376 . S
C2801 H2788 0.930 . S
C2801 C2800 1.376 . S
C2801 C2802 1.388 . S
C2802 H2789 0.930 . S
C2802 C2801 1.388 . S
C2802 C2803 1.390 . S
C2803 C2802 1.390 . S
C2803 C2804 1.394 . S
C2803 C2809 1.465 . S
C2804 C2799 1.399 . S
C2804 C2803 1.394 . S
C2804 C2805 1.516 . S
C2805 C2804 1.516 . S
C2805 C2806 1.502 . S
C2805 C2807 1.561 . S
C2805 C2808 1.526 . S
C2806 H2790 0.959 . S
C2806 H2791 0.959 . S
C2806 H2792 0.961 . S
C2806 C2805 1.502 . S
C2807 H2793 0.960 . S
C2807 H2794 0.961 . S
C2807 H2795 0.959 . S
C2807 C2805 1.561 . S
C2808 C2805 1.526 . S
C2808 C2809 1.396 . S
C2808 C2813 1.390 . S
C2809 C2803 1.465 . S
C2809 C2808 1.396 . S
C2809 C2810 1.399 . S
C2810 H2796 0.929 . S
C2810 C2809 1.399 . S
C2810 C2811 1.385 . S
C2811 H2797 0.931 . S
C2811 C2810 1.385 . S
C2811 C2812 1.389 . S
C2812 C2811 1.389 . S
C2812 C2813 1.387 . S
C2813 H2798 0.930 . S
C2813 C2808 1.390 . S
C2813 C2812 1.387 . S
H2814 C2826 0.930 . S
H2815 C2828 0.930 . S
H2816 C2829 0.930 . S
H2817 C2833 0.959 . S
H2818 C2833 0.959 . S
H2819 C2833 0.961 . S
H2820 C2834 0.960 . S
H2821 C2834 0.961 . S
H2822 C2834 0.959 . S
H2823 C2837 0.929 . S
H2824 C2838 0.931 . S
H2825 C2840 0.930 . S
C2826 H2814 0.930 . S
C2826 C2827 1.399 . S
C2826 C2831 1.399 . S
C2827 C2826 1.399 . S
C2827 C2828 1.376 . S
C2828 H2815 0.930 . S
C2828 C2827 1.376 . S
C2828 C2829 1.388 . S
C2829 H2816 0.930 . S
C2829 C2828 1.388 . S
C2829 C2830 1.390 . S
C2830 C2829 1.390 . S
C2830 C2831 1.394 . S
C2830 C2836 1.465 . S
C2831 C2826 1.399 . S
C2831 C2830 1.394 . S
C2831 C2832 1.516 . S
C2832 C2831 1.516 . S
C2832 C2833 1.502 . S
C2832 C2834 1.561 . S
C2832 C2835 1.526 . S
C2833 H2817 0.959 . S
C2833 H2818 0.959 . S
C2833 H2819 0.961 . S
C2833 C2832 1.502 . S
C2834 H2820 0.960 . S
C2834 H2821 0.961 . S
C2834 H2822 0.959 . S
C2834 C2832 1.561 . S
C2835 C2832 1.526 . S
C2835 C2836 1.396 . S
C2835 C2840 1.390 . S
C2836 C2830 1.465 . S
C2836 C2835 1.396 . S
C2836 C2837 1.399 . S
C2837 H2823 0.929 . S
C2837 C2836 1.399 . S
C2837 C2838 1.385 . S
C2838 H2824 0.931 . S
C2838 C2837 1.385 . S
C2838 C2839 1.389 . S
C2839 C2838 1.389 . S
C2839 C2840 1.387 . S
C2840 H2825 0.930 . S
C2840 C2835 1.390 . S
C2840 C2839 1.387 . S
H2841 C2853 0.930 . S
H2842 C2855 0.930 . S
H2843 C2856 0.930 . S
H2844 C2860 0.959 . S
H2845 C2860 0.959 . S
H2846 C2860 0.961 . S
H2847 C2861 0.960 . S
H2848 C2861 0.961 . S
H2849 C2861 0.959 . S
H2850 C2864 0.929 . S
H2851 C2865 0.931 . S
H2852 C2867 0.930 . S
C2853 H2841 0.930 . S
C2853 C2854 1.399 . S
C2853 C2858 1.399 . S
C2854 C2853 1.399 . S
C2854 C2855 1.376 . S
C2855 H2842 0.930 . S
C2855 C2854 1.376 . S
C2855 C2856 1.388 . S
C2856 H2843 0.930 . S
C2856 C2855 1.388 . S
C2856 C2857 1.390 . S
C2857 C2856 1.390 . S
C2857 C2858 1.394 . S
C2857 C2863 1.465 . S
C2858 C2853 1.399 . S
C2858 C2857 1.394 . S
C2858 C2859 1.516 . S
C2859 C2858 1.516 . S
C2859 C2860 1.502 . S
C2859 C2861 1.561 . S
C2859 C2862 1.526 . S
C2860 H2844 0.959 . S
C2860 H2845 0.959 . S
C2860 H2846 0.961 . S
C2860 C2859 1.502 . S
C2861 H2847 0.960 . S
C2861 H2848 0.961 . S
C2861 H2849 0.959 . S
C2861 C2859 1.561 . S
C2862 C2859 1.526 . S
C2862 C2863 1.396 . S
C2862 C2867 1.390 . S
C2863 C2857 1.465 . S
C2863 C2862 1.396 . S
C2863 C2864 1.399 . S
C2864 H2850 0.929 . S
C2864 C2863 1.399 . S
C2864 C2865 1.385 . S
C2865 H2851 0.931 . S
C2865 C2864 1.385 . S
C2865 C2866 1.389 . S
C2866 C2865 1.389 . S
C2866 C2867 1.387 . S
C2867 H2852 0.930 . S
C2867 C2862 1.390 . S
C2867 C2866 1.387 . S
H2868 C2880 0.930 1_554 S
H2869 C2882 0.930 . S
H2870 C2883 0.930 . S
H2871 C2887 0.959 . S
H2872 C2887 0.959 . S
H2873 C2887 0.961 . S
H2874 C2888 0.960 . S
H2875 C2888 0.961 . S
H2876 C2888 0.959 . S
H2877 C2891 0.929 . S
H2878 C2892 0.931 . S
H2879 C2894 0.911 1_554 S
C2880 H2868 0.930 1_556 S
C2880 C2881 1.399 . S
C2880 C2885 1.399 . S
C2881 C2880 1.399 . S
C2881 C2882 1.376 . S
C2882 H2869 0.930 . S
C2882 C2881 1.376 . S
C2882 C2883 1.388 . S
C2883 H2870 0.930 . S
C2883 C2882 1.388 . S
C2883 C2884 1.390 . S
C2884 C2883 1.390 . S
C2884 C2885 1.394 . S
C2884 C2890 1.465 . S
C2885 C2880 1.399 . S
C2885 C2884 1.394 . S
C2885 C2886 1.516 1_556 S
C2886 C2885 1.516 1_554 S
C2886 C2887 1.502 . S
C2886 C2888 1.561 . S
C2886 C2889 1.526 1_554 S
C2887 H2871 0.959 . S
C2887 H2872 0.959 . S
C2887 H2873 0.961 . S
C2887 C2886 1.502 . S
C2888 H2874 0.960 . S
C2888 H2875 0.961 . S
C2888 H2876 0.959 . S
C2888 C2886 1.561 . S
C2889 C2886 1.526 1_556 S
C2889 C2890 1.396 . S
C2889 C2894 1.395 . S
C2890 C2884 1.465 . S
C2890 C2889 1.396 . S
C2890 C2891 1.399 . S
C2891 H2877 0.929 . S
C2891 C2890 1.399 . S
C2891 C2892 1.385 . S
C2892 H2878 0.931 . S
C2892 C2891 1.385 . S
C2892 C2893 1.389 . S
C2893 C2892 1.389 . S
C2893 C2894 1.400 . S
C2894 H2879 0.911 1_556 S
C2894 C2889 1.395 . S
C2894 C2893 1.400 . S
H2895 C2907 0.930 . S
H2896 C2909 0.930 . S
H2897 C2910 0.930 . S
H2898 C2914 0.959 . S
H2899 C2914 0.959 . S
H2900 C2914 0.961 . S
H2901 C2915 0.960 . S
H2902 C2915 0.961 . S
H2903 C2915 0.959 . S
H2904 C2918 0.929 . S
H2905 C2919 0.931 . S
H2906 C2921 0.930 . S
C2907 H2895 0.930 . S
C2907 C2908 1.399 . S
C2907 C2912 1.399 . S
C2908 C2907 1.399 . S
C2908 C2909 1.376 . S
C2909 H2896 0.930 . S
C2909 C2908 1.376 . S
C2909 C2910 1.388 . S
C2910 H2897 0.930 . S
C2910 C2909 1.388 . S
C2910 C2911 1.390 . S
C2911 C2910 1.390 . S
C2911 C2912 1.394 . S
C2911 C2917 1.465 . S
C2912 C2907 1.399 . S
C2912 C2911 1.394 . S
C2912 C2913 1.516 . S
C2913 C2912 1.516 . S
C2913 C2914 1.502 . S
C2913 C2915 1.561 . S
C2913 C2916 1.526 . S
C2914 H2898 0.959 . S
C2914 H2899 0.959 . S
C2914 H2900 0.961 . S
C2914 C2913 1.502 . S
C2915 H2901 0.960 . S
C2915 H2902 0.961 . S
C2915 H2903 0.959 . S
C2915 C2913 1.561 . S
C2916 C2913 1.526 . S
C2916 C2917 1.396 . S
C2916 C2921 1.390 . S
C2917 C2911 1.465 . S
C2917 C2916 1.396 . S
C2917 C2918 1.399 . S
C2918 H2904 0.929 . S
C2918 C2917 1.399 . S
C2918 C2919 1.385 . S
C2919 H2905 0.931 . S
C2919 C2918 1.385 . S
C2919 C2920 1.389 . S
C2920 C2919 1.389 . S
C2920 C2921 1.387 . S
C2921 H2906 0.930 . S
C2921 C2916 1.390 . S
C2921 C2920 1.387 . S
H2922 C2934 0.930 . S
H2923 C2936 0.930 . S
H2924 C2937 0.930 1_556 S
H2925 C2941 0.959 . S
H2926 C2941 0.959 . S
H2927 C2941 0.961 . S
H2928 C2942 0.960 . S
H2929 C2942 0.961 . S
H2930 C2942 0.959 . S
H2931 C2945 0.929 1_556 S
H2932 C2946 0.931 1_556 S
H2933 C2948 0.930 . S
C2934 H2922 0.930 . S
C2934 C2935 1.399 . S
C2934 C2939 1.399 . S
C2935 C2934 1.399 . S
C2935 C2936 1.376 . S
C2936 H2923 0.930 . S
C2936 C2935 1.376 . S
C2936 C2937 1.388 . S
C2937 H2924 0.930 1_554 S
C2937 C2936 1.388 . S
C2937 C2938 1.390 . S
C2938 C2937 1.390 . S
C2938 C2939 1.394 . S
C2938 C2944 1.465 . S
C2939 C2934 1.399 . S
C2939 C2938 1.394 . S
C2939 C2940 1.516 . S
C2940 C2939 1.516 . S
C2940 C2941 1.502 . S
C2940 C2942 1.561 . S
C2940 C2943 1.526 . S
C2941 H2925 0.959 . S
C2941 H2926 0.959 . S
C2941 H2927 0.961 . S
C2941 C2940 1.502 . S
C2942 H2928 0.960 . S
C2942 H2929 0.961 . S
C2942 H2930 0.959 . S
C2942 C2940 1.561 . S
C2943 C2940 1.526 . S
C2943 C2944 1.396 . S
C2943 C2948 1.390 . S
C2944 C2938 1.465 . S
C2944 C2943 1.396 . S
C2944 C2945 1.399 . S
C2945 H2931 0.929 1_554 S
C2945 C2944 1.399 . S
C2945 C2946 1.385 . S
C2946 H2932 0.931 1_554 S
C2946 C2945 1.385 . S
C2946 C2947 1.389 . S
C2947 C2946 1.389 . S
C2947 C2948 1.387 . S
C2948 H2933 0.930 . S
C2948 C2943 1.390 . S
C2948 C2947 1.387 . S
H2949 C2961 0.930 . S
H2950 C2963 0.930 1_556 S
H2951 C2964 0.930 . S
H2952 C2968 0.959 . S
H2953 C2968 0.959 . S
H2954 C2968 0.961 . S
H2955 C2969 0.960 . S
H2956 C2969 0.961 . S
H2957 C2969 0.959 . S
H2958 C2972 0.929 . S
H2959 C2973 0.931 . S
H2960 C2975 0.930 . S
C2961 H2949 0.930 . S
C2961 C2962 1.399 . S
C2961 C2966 1.399 . S
C2962 C2961 1.399 . S
C2962 C2963 1.376 . S
C2963 H2950 0.930 1_554 S
C2963 C2962 1.376 . S
C2963 C2964 1.388 1_554 S
C2964 H2951 0.930 . S
C2964 C2963 1.388 1_556 S
C2964 C2965 1.390 1_556 S
C2965 C2964 1.390 1_554 S
C2965 C2966 1.394 . S
C2965 C2971 1.465 . S
C2966 C2961 1.399 . S
C2966 C2965 1.394 . S
C2966 C2967 1.516 . S
C2967 C2966 1.516 . S
C2967 C2968 1.502 . S
C2967 C2969 1.561 . S
C2967 C2970 1.526 . S
C2968 H2952 0.959 . S
C2968 H2953 0.959 . S
C2968 H2954 0.961 . S
C2968 C2967 1.502 . S
C2969 H2955 0.960 . S
C2969 H2956 0.961 . S
C2969 H2957 0.959 . S
C2969 C2967 1.561 . S
C2970 C2967 1.526 . S
C2970 C2971 1.396 . S
C2970 C2975 1.390 . S
C2971 C2965 1.465 . S
C2971 C2970 1.396 . S
C2971 C2972 1.399 1_554 S
C2972 H2958 0.929 . S
C2972 C2971 1.399 1_556 S
C2972 C2973 1.385 . S
C2973 H2959 0.931 . S
C2973 C2972 1.385 . S
C2973 C2974 1.389 1_556 S
C2974 C2973 1.389 1_554 S
C2974 C2975 1.387 . S
C2975 H2960 0.930 . S
C2975 C2970 1.390 . S
C2975 C2974 1.387 . S
C1705 C673 1.495 . S
C1693 C211 1.495 . S
C1732 C732 1.506 . S
C1720 C255 1.516 . S
C1747 C274 1.510 . S
C1759 C849 1.498 . S
C1786 C917 1.517 . S
C1774 C157 1.509 . S
C1813 C996 1.517 . S
C1801 C391 1.501 . S
C1840 C1121 1.511 . S
C1828 C484 1.521 . S
C1855 C450 1.502 . S
C1867 C1181 1.493 . S
C1894 C1289 1.521 . S
C1882 C352 1.505 . S
C1909 C430 1.502 . S
C1921 C1385 1.500 . S
C1948 C1445 1.529 . S
C1936 C367 1.520 . S
C1963 C411 1.519 . S
C1975 C1348 1.521 . S
C2002 C1465 1.516 . S
C1990 C469 1.511 . S
C2017 C294 1.496 . S
C2029 C1533 1.500 . S
C2044 C177 1.517 . S
C2056 C1524 1.522 . S
C2071 C196 1.500 . S
C2083 C1553 1.504 . S
C2098 C235 1.510 . S
C2110 C1561 1.507 . S
C2125 C133 1.507 . S
C2137 C945 1.504 . S
C2152 C567 1.493 . S
C2164 C908 1.501 . S
C2191 C644 1.511 . S
C2179 C601 1.516 . S
C2218 C741 1.504 . S
C2206 C328 1.501 . S
C2233 C172 1.518 . S
C2245 C1005 1.511 . S
C2272 C1297 1.505 . S
C2260 C445 1.499 . S
C2299 C1025 1.531 . S
C2287 C372 1.535 . S
C2326 C1209 1.504 . S
C2314 C489 1.496 . S
C2353 C1201 1.498 . S
C2341 C562 1.499 . S
C2368 C606 1.516 . S
C2380 C1269 1.506 . S
C2395 C313 1.511 . S
C2407 C1033 1.498 . S
C2434 C1084 1.514 . S
C2422 C508 1.522 . S
C2449 C118 1.516 . S
C2461 C829 1.507 . S
C2488 C937 1.512 . S
C2476 C16 1.521 . S
C2515 C653 1.503 . S
C2503 C60 1.497 . S
C2542 C769 1.520 . S
C2530 C79 1.506 . S
C2557 C40 1.492 . S
C2569 C1473 1.502 . S
C2584 C94 1.520 . S
C2596 C1357 1.529 . S
C2611 C138 1.521 . S
C2623 C1436 1.522 . S
C2638 C1 1.511 . S
C2650 C1377 1.507 . S
C2677 C1621 1.500 . S
C2665 C333 1.496 . S
C2704 C1612 1.513 . S
C2692 C528 1.515 . S
C2731 C1641 1.503 . S
C2719 C547 1.501 . S
C2746 C586 1.516 . S
C2758 C1649 1.506 . S
C2773 C406 1.509 . S
C2785 C1113 1.501 . S
C2812 C1093 1.500 . S
C2800 C216 1.495 . S
C2839 C1172 1.514 . S
C2827 C250 1.502 . S
C2866 C1260 1.508 . S
C2854 C289 1.502 . S
C2881 C523 1.504 . S
C2893 C820 1.513 . S
C2920 C761 1.501 . S
C2908 C55 1.506 . S
C2935 C99 1.538 . S
C2947 C857 1.528 . S
C2974 C681 1.501 . S
C2962 C21 1.508 . S
