# Generated by pormake.
# Topology ptr, (4,4)-cn, num edge types: 1
# Building blocks:
#     Node 0, Type 0, BuildingBlock: CEKHIL_clean_sbu_0, # of connection points: 4
#     Node 1, Type 0, BuildingBlock: CEKHIL_clean_sbu_0, # of connection points: 4
#     Node 2, Type 0, BuildingBlock: CEKHIL_clean_sbu_0, # of connection points: 4
#     Node 3, Type 0, BuildingBlock: CEKHIL_clean_sbu_0, # of connection points: 4
#     Node 4, Type 0, BuildingBlock: CEKHIL_clean_sbu_0, # of connection points: 4
#     Node 5, Type 0, BuildingBlock: CEKHIL_clean_sbu_0, # of connection points: 4
#     Node 6, Type 0, BuildingBlock: CEKHIL_clean_sbu_0, # of connection points: 4
#     Node 7, Type 0, BuildingBlock: CEKHIL_clean_sbu_0, # of connection points: 4
#     Node 8, Type 0, BuildingBlock: CEKHIL_clean_sbu_0, # of connection points: 4
#     Node 9, Type 0, BuildingBlock: CEKHIL_clean_sbu_0, # of connection points: 4
#     Node 10, Type 0, BuildingBlock: CEKHIL_clean_sbu_0, # of connection points: 4
#     Node 11, Type 0, BuildingBlock: CEKHIL_clean_sbu_0, # of connection points: 4
#     Node 12, Type 0, BuildingBlock: CEKHIL_clean_sbu_0, # of connection points: 4
#     Node 13, Type 0, BuildingBlock: CEKHIL_clean_sbu_0, # of connection points: 4
#     Node 14, Type 0, BuildingBlock: CEKHIL_clean_sbu_0, # of connection points: 4
#     Node 15, Type 0, BuildingBlock: CEKHIL_clean_sbu_0, # of connection points: 4
#     Node 16, Type 0, BuildingBlock: CEKHIL_clean_sbu_0, # of connection points: 4
#     Node 17, Type 0, BuildingBlock: CEKHIL_clean_sbu_0, # of connection points: 4
#     Node 18, Type 1, BuildingBlock: MUDLON_clean_linker_0, # of connection points: 4
#     Node 19, Type 1, BuildingBlock: MUDLON_clean_linker_0, # of connection points: 4
#     Node 20, Type 1, BuildingBlock: MUDLON_clean_linker_0, # of connection points: 4
#     Node 21, Type 1, BuildingBlock: MUDLON_clean_linker_0, # of connection points: 4
#     Node 22, Type 1, BuildingBlock: MUDLON_clean_linker_0, # of connection points: 4
#     Node 23, Type 1, BuildingBlock: MUDLON_clean_linker_0, # of connection points: 4
#     Node 24, Type 1, BuildingBlock: MUDLON_clean_linker_0, # of connection points: 4
#     Node 25, Type 1, BuildingBlock: MUDLON_clean_linker_0, # of connection points: 4
#     Node 26, Type 1, BuildingBlock: MUDLON_clean_linker_0, # of connection points: 4
#     Node 27, Type 1, BuildingBlock: MUDLON_clean_linker_0, # of connection points: 4
#     Node 28, Type 1, BuildingBlock: MUDLON_clean_linker_0, # of connection points: 4
#     Node 29, Type 1, BuildingBlock: MUDLON_clean_linker_0, # of connection points: 4
#     Node 30, Type 1, BuildingBlock: MUDLON_clean_linker_0, # of connection points: 4
#     Node 31, Type 1, BuildingBlock: MUDLON_clean_linker_0, # of connection points: 4
#     Node 32, Type 1, BuildingBlock: MUDLON_clean_linker_0, # of connection points: 4
#     Node 33, Type 1, BuildingBlock: MUDLON_clean_linker_0, # of connection points: 4
#     Node 34, Type 1, BuildingBlock: MUDLON_clean_linker_0, # of connection points: 4
#     Node 35, Type 1, BuildingBlock: MUDLON_clean_linker_0, # of connection points: 4
#     Edge 36, Type (0, 1), BuildingBlock: EZIPEK_clean_linker_0, # of connection points: 2
#     Edge 37, Type (0, 1), BuildingBlock: EZIPEK_clean_linker_0, # of connection points: 2
#     Edge 38, Type (0, 1), BuildingBlock: EZIPEK_clean_linker_0, # of connection points: 2
#     Edge 39, Type (0, 1), BuildingBlock: EZIPEK_clean_linker_0, # of connection points: 2
#     Edge 40, Type (0, 1), BuildingBlock: EZIPEK_clean_linker_0, # of connection points: 2
#     Edge 41, Type (0, 1), BuildingBlock: EZIPEK_clean_linker_0, # of connection points: 2
#     Edge 42, Type (0, 1), BuildingBlock: EZIPEK_clean_linker_0, # of connection points: 2
#     Edge 43, Type (0, 1), BuildingBlock: EZIPEK_clean_linker_0, # of connection points: 2
#     Edge 44, Type (0, 1), BuildingBlock: EZIPEK_clean_linker_0, # of connection points: 2
#     Edge 45, Type (0, 1), BuildingBlock: EZIPEK_clean_linker_0, # of connection points: 2
#     Edge 46, Type (0, 1), BuildingBlock: EZIPEK_clean_linker_0, # of connection points: 2
#     Edge 47, Type (0, 1), BuildingBlock: EZIPEK_clean_linker_0, # of connection points: 2
#     Edge 48, Type (0, 1), BuildingBlock: EZIPEK_clean_linker_0, # of connection points: 2
#     Edge 49, Type (0, 1), BuildingBlock: EZIPEK_clean_linker_0, # of connection points: 2
#     Edge 50, Type (0, 1), BuildingBlock: EZIPEK_clean_linker_0, # of connection points: 2
#     Edge 51, Type (0, 1), BuildingBlock: EZIPEK_clean_linker_0, # of connection points: 2
#     Edge 52, Type (0, 1), BuildingBlock: EZIPEK_clean_linker_0, # of connection points: 2
#     Edge 53, Type (0, 1), BuildingBlock: EZIPEK_clean_linker_0, # of connection points: 2
#     Edge 54, Type (0, 1), BuildingBlock: EZIPEK_clean_linker_0, # of connection points: 2
#     Edge 55, Type (0, 1), BuildingBlock: EZIPEK_clean_linker_0, # of connection points: 2
#     Edge 56, Type (0, 1), BuildingBlock: EZIPEK_clean_linker_0, # of connection points: 2
#     Edge 57, Type (0, 1), BuildingBlock: EZIPEK_clean_linker_0, # of connection points: 2
#     Edge 58, Type (0, 1), BuildingBlock: EZIPEK_clean_linker_0, # of connection points: 2
#     Edge 59, Type (0, 1), BuildingBlock: EZIPEK_clean_linker_0, # of connection points: 2
#     Edge 60, Type (0, 1), BuildingBlock: EZIPEK_clean_linker_0, # of connection points: 2
#     Edge 61, Type (0, 1), BuildingBlock: EZIPEK_clean_linker_0, # of connection points: 2
#     Edge 62, Type (0, 1), BuildingBlock: EZIPEK_clean_linker_0, # of connection points: 2
#     Edge 63, Type (0, 1), BuildingBlock: EZIPEK_clean_linker_0, # of connection points: 2
#     Edge 64, Type (0, 1), BuildingBlock: EZIPEK_clean_linker_0, # of connection points: 2
#     Edge 65, Type (0, 1), BuildingBlock: EZIPEK_clean_linker_0, # of connection points: 2
#     Edge 66, Type (0, 1), BuildingBlock: EZIPEK_clean_linker_0, # of connection points: 2
#     Edge 67, Type (0, 1), BuildingBlock: EZIPEK_clean_linker_0, # of connection points: 2
#     Edge 68, Type (0, 1), BuildingBlock: EZIPEK_clean_linker_0, # of connection points: 2
#     Edge 69, Type (0, 1), BuildingBlock: EZIPEK_clean_linker_0, # of connection points: 2
#     Edge 70, Type (0, 1), BuildingBlock: EZIPEK_clean_linker_0, # of connection points: 2
#     Edge 71, Type (0, 1), BuildingBlock: EZIPEK_clean_linker_0, # of connection points: 2
#     Edge 72, Type (0, 1), BuildingBlock: EZIPEK_clean_linker_0, # of connection points: 2
#     Edge 73, Type (0, 1), BuildingBlock: EZIPEK_clean_linker_0, # of connection points: 2
#     Edge 74, Type (0, 1), BuildingBlock: EZIPEK_clean_linker_0, # of connection points: 2
#     Edge 75, Type (0, 1), BuildingBlock: EZIPEK_clean_linker_0, # of connection points: 2
#     Edge 76, Type (0, 1), BuildingBlock: EZIPEK_clean_linker_0, # of connection points: 2
#     Edge 77, Type (0, 1), BuildingBlock: EZIPEK_clean_linker_0, # of connection points: 2
#     Edge 78, Type (0, 1), BuildingBlock: EZIPEK_clean_linker_0, # of connection points: 2
#     Edge 79, Type (0, 1), BuildingBlock: EZIPEK_clean_linker_0, # of connection points: 2
#     Edge 80, Type (0, 1), BuildingBlock: EZIPEK_clean_linker_0, # of connection points: 2
#     Edge 81, Type (0, 1), BuildingBlock: EZIPEK_clean_linker_0, # of connection points: 2
#     Edge 82, Type (0, 1), BuildingBlock: EZIPEK_clean_linker_0, # of connection points: 2
#     Edge 83, Type (0, 1), BuildingBlock: EZIPEK_clean_linker_0, # of connection points: 2
#     Edge 84, Type (0, 1), BuildingBlock: EZIPEK_clean_linker_0, # of connection points: 2
#     Edge 85, Type (0, 1), BuildingBlock: EZIPEK_clean_linker_0, # of connection points: 2
#     Edge 86, Type (0, 1), BuildingBlock: EZIPEK_clean_linker_0, # of connection points: 2
#     Edge 87, Type (0, 1), BuildingBlock: EZIPEK_clean_linker_0, # of connection points: 2
#     Edge 88, Type (0, 1), BuildingBlock: EZIPEK_clean_linker_0, # of connection points: 2
#     Edge 89, Type (0, 1), BuildingBlock: EZIPEK_clean_linker_0, # of connection points: 2
#     Edge 90, Type (0, 1), BuildingBlock: EZIPEK_clean_linker_0, # of connection points: 2
#     Edge 91, Type (0, 1), BuildingBlock: EZIPEK_clean_linker_0, # of connection points: 2
#     Edge 92, Type (0, 1), BuildingBlock: EZIPEK_clean_linker_0, # of connection points: 2
#     Edge 93, Type (0, 1), BuildingBlock: EZIPEK_clean_linker_0, # of connection points: 2
#     Edge 94, Type (0, 1), BuildingBlock: EZIPEK_clean_linker_0, # of connection points: 2
#     Edge 95, Type (0, 1), BuildingBlock: EZIPEK_clean_linker_0, # of connection points: 2
#     Edge 96, Type (0, 1), BuildingBlock: EZIPEK_clean_linker_0, # of connection points: 2
#     Edge 97, Type (0, 1), BuildingBlock: EZIPEK_clean_linker_0, # of connection points: 2
#     Edge 98, Type (0, 1), BuildingBlock: EZIPEK_clean_linker_0, # of connection points: 2
#     Edge 99, Type (0, 1), BuildingBlock: EZIPEK_clean_linker_0, # of connection points: 2
#     Edge 100, Type (0, 1), BuildingBlock: EZIPEK_clean_linker_0, # of connection points: 2
#     Edge 101, Type (0, 1), BuildingBlock: EZIPEK_clean_linker_0, # of connection points: 2
#     Edge 102, Type (0, 1), BuildingBlock: EZIPEK_clean_linker_0, # of connection points: 2
#     Edge 103, Type (0, 1), BuildingBlock: EZIPEK_clean_linker_0, # of connection points: 2
#     Edge 104, Type (0, 1), BuildingBlock: EZIPEK_clean_linker_0, # of connection points: 2
#     Edge 105, Type (0, 1), BuildingBlock: EZIPEK_clean_linker_0, # of connection points: 2
#     Edge 106, Type (0, 1), BuildingBlock: EZIPEK_clean_linker_0, # of connection points: 2
#     Edge 107, Type (0, 1), BuildingBlock: EZIPEK_clean_linker_0, # of connection points: 2
# Relax obj value: 0.032
# Max RMSD: 0.101
# Mean RMSD: 0.066
data_MOF--net-ptr--node1-CEKHIL_clean_sbu_0--node2-MUDLON_clean_linker_0--edge1-EZIPEK_clean_linker_0
_symmetry_space_group_name_H-M    P1
_symmetry_Int_Tables_number       1
_symmetry_cell_setting            triclinic
loop_
_symmetry_equiv_pos_as_xyz
'x, y, z'
_cell_length_a     84.557309
_cell_length_b     83.670496
_cell_length_c     51.227626
_cell_angle_alpha  91.103688
_cell_angle_beta   89.468123
_cell_angle_gamma 120.98413
loop_
_atom_site_label
_atom_site_type_symbol
_atom_site_fract_x
_atom_site_fract_y
_atom_site_fract_z
_atom_type_partial_charge
Co0 Co 0.0041 0.35907 0.00855 0.0
O1 O 0.01074 0.34616 0.03283 0.0
O2 O 0.03067 0.37086 0.01023 0.0
C3 C 0.98182 0.33306 0.98806 0.0
O4 O 0.00292 0.37589 0.98125 0.0
Co5 Co 0.9655 0.35438 0.00827 0.0
O6 O 0.97364 0.36862 0.97541 0.0
C7 C 0.99168 0.37668 0.05006 0.0
C8 C 0.02776 0.3582 0.02707 0.0
C9 C 0.99063 0.37761 0.96913 0.0
O10 O 0.0045 0.37569 0.03784 0.0
O11 O 0.97483 0.36807 0.04263 0.0
O12 O 0.99902 0.34027 0.98152 0.0
O13 O 0.97864 0.34095 0.0077 0.0
Co14 Co 0.64456 0.65166 0.01089 0.0
O15 O 0.66442 0.66452 0.98633 0.0
O16 O 0.65853 0.63925 0.00773 0.0
C17 C 0.65001 0.67793 0.03277 0.0
O18 O 0.62635 0.63494 0.03854 0.0
Co19 Co 0.61163 0.6569 0.0131 0.0
O20 O 0.60406 0.64159 0.04494 0.0
C21 C 0.61402 0.63494 0.97014 0.0
C22 C 0.66879 0.65212 0.99119 0.0
C23 C 0.61215 0.63291 0.05089 0.0
O24 O 0.62779 0.63558 0.98158 0.0
O25 O 0.60629 0.64374 0.97843 0.0
O26 O 0.65886 0.66952 0.03823 0.0
O27 O 0.63859 0.67076 0.0133 0.0
Co28 Co 0.3618 0.00253 0.01845 0.0
O29 O 0.3483 0.00828 0.99398 0.0
O30 O 0.37297 0.02926 0.0162 0.0
C31 C 0.33663 0.98019 0.0394 0.0
O32 O 0.37914 0.0026 0.04597 0.0
Co33 Co 0.35812 0.96397 0.02031 0.0
O34 O 0.37313 0.97355 0.05264 0.0
C35 C 0.37901 0.98925 0.97759 0.0
C36 C 0.36004 0.02567 0.9995 0.0
C37 C 0.38159 0.99087 0.05848 0.0
O38 O 0.37789 0.00242 0.9892 0.0
O39 O 0.37087 0.97248 0.98568 0.0
O40 O 0.34349 0.99768 0.04552 0.0
O41 O 0.34433 0.97673 0.01995 0.0
Co42 Co 0.99374 0.64458 0.01766 0.0
O43 O 0.98698 0.65631 0.99179 0.0
O44 O 0.96712 0.6323 0.01539 0.0
C45 C 0.01522 0.67116 0.03782 0.0
O46 O 0.9957 0.62921 0.0466 0.0
Co47 Co 0.03342 0.65116 0.01833 0.0
O48 O 0.02506 0.63588 0.05017 0.0
C49 C 0.00717 0.6268 0.97792 0.0
C50 C 0.96994 0.64447 0.99774 0.0
C51 C 0.00831 0.62737 0.05763 0.0
O52 O 0.99407 0.62733 0.99001 0.0
O53 O 0.02414 0.63653 0.98467 0.0
O54 O 0.99782 0.66393 0.04307 0.0
O55 O 0.01891 0.66311 0.01889 0.0
Co56 Co 0.35867 0.35204 0.01937 0.0
O57 O 0.33984 0.34086 0.0458 0.0
O58 O 0.347 0.36655 0.02441 0.0
C59 C 0.35021 0.32524 0.99708 0.0
O60 O 0.37622 0.3673 0.98993 0.0
Co61 Co 0.38901 0.34211 0.0112 0.0
O62 O 0.39578 0.35745 0.97961 0.0
C63 C 0.39242 0.36756 0.05472 0.0
C64 C 0.33651 0.35407 0.04125 0.0
C65 C 0.389 0.36767 0.97554 0.0
O66 O 0.3778 0.36724 0.04705 0.0
O67 O 0.39851 0.35791 0.04372 0.0
O68 O 0.34155 0.33412 0.99371 0.0
O69 O 0.36269 0.33197 0.01514 0.0
Co70 Co 0.64484 0.99645 0.01001 0.0
O71 O 0.65915 0.99216 0.03486 0.0
O72 O 0.63515 0.96994 0.01289 0.0
C73 C 0.66926 0.01966 0.98888 0.0
O74 O 0.62699 0.9953 0.98236 0.0
Co75 Co 0.64641 0.03423 0.00865 0.0
O76 O 0.63241 0.02417 0.97556 0.0
C77 C 0.626 0.00792 0.05067 0.0
C78 C 0.64818 0.97452 0.02991 0.0
C79 C 0.62432 0.00685 0.96969 0.0
O80 O 0.62801 0.99538 0.03889 0.0
O81 O 0.63342 0.02475 0.04299 0.0
O82 O 0.66354 0.00232 0.98313 0.0
O83 O 0.66102 0.02241 0.00828 0.0
Co84 Co 0.67364 0.69238 0.34696 0.0
O85 O 0.67826 0.67852 0.37221 0.0
O86 O 0.6999 0.7035 0.35203 0.0
C87 C 0.65264 0.66711 0.32382 0.0
O88 O 0.67464 0.71026 0.31961 0.0
Co89 Co 0.63533 0.68807 0.34002 0.0
O90 O 0.64597 0.70177 0.30717 0.0
C91 C 0.65855 0.70905 0.3855 0.0
C92 C 0.69571 0.69019 0.36838 0.0
C93 C 0.66341 0.7117 0.30444 0.0
O94 O 0.67222 0.70827 0.37579 0.0
O95 O 0.64242 0.70086 0.37527 0.0
O96 O 0.67017 0.67422 0.31969 0.0
O97 O 0.64834 0.67471 0.34259 0.0
Co98 Co 0.31671 0.98005 0.34451 0.0
O99 O 0.33645 0.9943 0.32033 0.0
O100 O 0.33321 0.97046 0.34295 0.0
C101 C 0.31842 0.00519 0.36514 0.0
O102 O 0.29917 0.96256 0.37215 0.0
Co103 Co 0.28088 0.98022 0.34355 0.0
O104 O 0.27365 0.96443 0.37492 0.0
C105 C 0.28746 0.95992 0.30242 0.0
C106 C 0.34259 0.98342 0.32606 0.0
C107 C 0.28364 0.9582 0.38273 0.0
O108 O 0.30155 0.96239 0.31523 0.0
O109 O 0.27803 0.9673 0.30912 0.0
O110 O 0.32907 0.99895 0.37156 0.0
O111 O 0.30767 0.99677 0.3453 0.0
Co112 Co 0.03139 0.33901 0.34579 0.0
O113 O 0.01847 0.34542 0.32118 0.0
O114 O 0.04344 0.3658 0.34342 0.0
C115 C 0.0059 0.31714 0.36679 0.0
O116 O 0.04836 0.33831 0.37325 0.0
Co117 Co 0.02619 0.2997 0.34766 0.0
O118 O 0.04013 0.30871 0.38097 0.0
C119 C 0.04765 0.32481 0.30491 0.0
C120 C 0.03077 0.36268 0.32651 0.0
C121 C 0.04955 0.32608 0.38651 0.0
O122 O 0.04725 0.33832 0.31666 0.0
O123 O 0.03904 0.30803 0.31302 0.0
O124 O 0.01317 0.33472 0.37281 0.0
O125 O 0.0134 0.31343 0.34735 0.0
Co126 Co 0.67095 0.98147 0.35259 0.0
O127 O 0.66469 0.99426 0.32748 0.0
O128 O 0.64454 0.96845 0.3479 0.0
C129 C 0.69124 0.00738 0.37536 0.0
O130 O 0.67142 0.96442 0.38009 0.0
Co131 Co 0.71011 0.988 0.35806 0.0
O132 O 0.70053 0.97278 0.38993 0.0
C133 C 0.68709 0.96622 0.31313 0.0
C134 C 0.64765 0.98129 0.33129 0.0
C135 C 0.68323 0.96298 0.39392 0.0
O136 O 0.67317 0.96615 0.32353 0.0
O137 O 0.70336 0.97518 0.32284 0.0
O138 O 0.67365 0.9993 0.37995 0.0
O139 O 0.69599 1.00037 0.35632 0.0
Co140 Co 0.02117 0.68604 0.34833 0.0
O141 O 0.00357 0.67421 0.37613 0.0
O142 O 0.00861 0.69948 0.35547 0.0
C143 C 0.01299 0.6594 0.3257 0.0
O144 O 0.0372 0.70181 0.31793 0.0
Co145 Co 0.05242 0.67791 0.33655 0.0
O146 O 0.05735 0.6932 0.30527 0.0
C147 C 0.05602 0.70245 0.38143 0.0
C148 C 0.99932 0.68689 0.37281 0.0
C149 C 0.04983 0.70289 0.30246 0.0
O150 O 0.04104 0.70181 0.37485 0.0
O151 O 0.06223 0.69326 0.36937 0.0
O152 O 0.00352 0.66757 0.32358 0.0
O153 O 0.02618 0.66677 0.3427 0.0
Co154 Co 0.31107 0.33536 0.34615 0.0
O155 O 0.32525 0.33088 0.371 0.0
O156 O 0.30159 0.30889 0.34845 0.0
C157 C 0.33575 0.35853 0.32535 0.0
O158 O 0.29331 0.33412 0.3184 0.0
Co159 Co 0.31258 0.37296 0.34392 0.0
O160 O 0.29842 0.36277 0.31101 0.0
C161 C 0.29279 0.3472 0.38691 0.0
C162 C 0.31459 0.31326 0.36543 0.0
C163 C 0.29055 0.34545 0.30536 0.0
O164 O 0.29426 0.33433 0.37509 0.0
O165 O 0.30032 0.36394 0.37879 0.0
O166 O 0.32974 0.34117 0.31939 0.0
O167 O 0.32742 0.36141 0.34454 0.0
Co168 Co 0.34043 0.0278 0.67602 0.0
O169 O 0.34787 0.01565 0.70057 0.0
O170 O 0.367 0.04014 0.67717 0.0
C171 C 0.31823 0.00129 0.6557 0.0
O172 O 0.33873 0.04391 0.64813 0.0
Co173 Co 0.30242 0.02333 0.67704 0.0
O174 O 0.31033 0.03972 0.64624 0.0
C175 C 0.3281 0.04458 0.71889 0.0
C176 C 0.36476 0.02819 0.69481 0.0
C177 C 0.32679 0.04708 0.63798 0.0
O178 O 0.34098 0.04462 0.70535 0.0
O179 O 0.31115 0.03543 0.71219 0.0
O180 O 0.33551 0.00906 0.64923 0.0
O181 O 0.31486 0.00903 0.67548 0.0
Co182 Co 0.98264 0.31384 0.68074 0.0
O183 O 0.00209 0.32776 0.65598 0.0
O184 O 0.99827 0.30332 0.67775 0.0
C185 C 0.98562 0.33914 0.70214 0.0
O186 O 0.965 0.29619 0.70824 0.0
Co187 Co 0.94754 0.31637 0.68378 0.0
O188 O 0.94284 0.30271 0.71692 0.0
C189 C 0.95195 0.29522 0.64057 0.0
C190 C 0.00774 0.31636 0.66103 0.0
C191 C 0.95121 0.29408 0.72184 0.0
O192 O 0.96636 0.29701 0.65168 0.0
O193 O 0.94315 0.30292 0.64916 0.0
O194 O 0.99624 0.3327 0.70779 0.0
O195 O 0.9743 0.33085 0.68293 0.0
Co196 Co 0.68831 0.66467 0.67876 0.0
O197 O 0.67853 0.67325 0.65226 0.0
O198 O 0.70289 0.69157 0.67704 0.0
C199 C 0.661 0.64483 0.69756 0.0
O200 O 0.70194 0.66115 0.70873 0.0
Co201 Co 0.67803 0.6233 0.68061 0.0
O202 O 0.69261 0.63081 0.7133 0.0
C203 C 0.70394 0.64794 0.64075 0.0
C204 C 0.69144 0.68997 0.65897 0.0
C205 C 0.70213 0.64782 0.72067 0.0
O206 O 0.70456 0.66213 0.65198 0.0
O207 O 0.69323 0.63112 0.64787 0.0
O208 O 0.66952 0.66256 0.70305 0.0
O209 O 0.66838 0.63991 0.67928 0.0
Co210 Co 0.33365 0.31015 0.6847 0.0
O211 O 0.32508 0.32066 0.65933 0.0
O212 O 0.30711 0.29487 0.68139 0.0
C213 C 0.35248 0.3371 0.7063 0.0
O214 O 0.33725 0.29549 0.71307 0.0
Co215 Co 0.37484 0.32155 0.68747 0.0
O216 O 0.36739 0.30556 0.71857 0.0
C217 C 0.35146 0.29701 0.64475 0.0
C218 C 0.30861 0.30694 0.66444 0.0
C219 C 0.35051 0.29525 0.72493 0.0
O220 O 0.33706 0.29526 0.65618 0.0
O221 O 0.36794 0.30793 0.65291 0.0
O222 O 0.33487 0.32786 0.71104 0.0
O223 O 0.35785 0.33068 0.68722 0.0
Co224 Co 0.68216 0.02221 0.67586 0.0
O225 O 0.66179 0.01185 0.70007 0.0
O226 O 0.67003 0.03641 0.67528 0.0
C227 C 0.67585 0.99488 0.65732 0.0
O228 O 0.70153 0.03638 0.64794 0.0
Co229 Co 0.71337 0.01323 0.67922 0.0
O230 O 0.72301 0.0281 0.64706 0.0
C231 C 0.71206 0.03912 0.71754 0.0
C232 C 0.65888 0.02484 0.69256 0.0
C233 C 0.71603 0.03722 0.63817 0.0
O234 O 0.69934 0.0392 0.70414 0.0
O235 O 0.71844 0.02847 0.71226 0.0
O236 O 0.66703 0.00299 0.65014 0.0
O237 O 0.68686 0.00258 0.67702 0.0
Co238 Co 0.98231 0.67577 0.68902 0.0
O239 O 0.99641 0.67078 0.71364 0.0
O240 O 0.97026 0.64937 0.69483 0.0
C241 C 0.00683 0.69582 0.66469 0.0
O242 O 0.96396 0.67434 0.66215 0.0
Co243 Co 0.98692 0.71424 0.68073 0.0
O244 O 0.97155 0.70286 0.64919 0.0
C245 C 0.96595 0.69224 0.72644 0.0
C246 C 0.98377 0.6533 0.71056 0.0
C247 C 0.96199 0.6852 0.64687 0.0
O248 O 0.96809 0.67875 0.71865 0.0
O249 O 0.97277 0.70768 0.7144 0.0
O250 O 0.99903 0.67791 0.66098 0.0
O251 O 1.00026 0.70112 0.68361 0.0
H252 H 0.25049 0.35804 0.16328 0.0
N253 N 0.22351 0.32648 0.13847 0.0
H254 H 0.26422 0.35947 0.20563 0.0
H255 H 0.21127 0.29948 0.17349 0.0
H256 H 0.22465 0.30116 0.21675 0.0
H257 H 0.23396 0.30442 0.11673 0.0
H258 H 0.26187 0.31391 0.09072 0.0
H259 H 0.24555 0.36097 0.11749 0.0
H260 H 0.27384 0.37062 0.09198 0.0
H261 H 0.21942 0.35494 0.15855 0.0
H262 H 0.19494 0.30686 0.10699 0.0
H263 H 0.19208 0.35743 0.15469 0.0
H264 H 0.16801 0.30995 0.1015 0.0
H265 H 0.11964 0.36227 0.16584 0.0
H266 H 0.1062 0.36271 0.20852 0.0
H267 H 0.07047 0.30297 0.20367 0.0
H268 H 0.08365 0.30262 0.16078 0.0
H269 H 0.08063 0.30904 0.10332 0.0
H270 H 0.06322 0.31757 0.07434 0.0
H271 H 0.10164 0.37575 0.09098 0.0
H272 H 0.11899 0.36719 0.11996 0.0
H273 H 0.14307 0.363 0.13383 0.0
H274 H 0.17236 0.36375 0.13065 0.0
H275 H 0.14232 0.30346 0.12633 0.0
N276 N 0.1086 0.33179 0.13415 0.0
H277 H 0.11334 0.30309 0.12814 0.0
C278 C 0.22997 0.32849 0.16499 0.0
C279 C 0.24466 0.34553 0.17469 0.0
C280 C 0.25251 0.34638 0.19889 0.0
C281 C 0.24561 0.33036 0.214 0.0
C282 C 0.23023 0.31361 0.20515 0.0
C283 C 0.22258 0.31268 0.18066 0.0
C284 C 0.23773 0.33194 0.11904 0.0
C285 C 0.2423 0.31878 0.11071 0.0
C286 C 0.25822 0.3242 0.09608 0.0
C287 C 0.26991 0.34295 0.08969 0.0
C288 C 0.26495 0.35608 0.09683 0.0
C289 C 0.24883 0.35058 0.11126 0.0
C290 C 0.20904 0.33034 0.13352 0.0
C291 C 0.20831 0.34508 0.14602 0.0
C292 C 0.19264 0.3466 0.14356 0.0
C293 C 0.17754 0.33366 0.12817 0.0
C294 C 0.17902 0.31982 0.11421 0.0
C295 C 0.19451 0.31813 0.11705 0.0
C296 C 0.10251 0.33236 0.16023 0.0
C297 C 0.10902 0.34929 0.17404 0.0
C298 C 0.10139 0.34954 0.19831 0.0
C299 C 0.08736 0.33287 0.20907 0.0
C300 C 0.0813 0.31594 0.19562 0.0
C301 C 0.08881 0.31572 0.17132 0.0
C302 C 0.10109 0.33742 0.11367 0.0
C303 C 0.08557 0.32363 0.10011 0.0
C304 C 0.07565 0.32848 0.08372 0.0
C305 C 0.08113 0.34726 0.08069 0.0
C306 C 0.09726 0.36118 0.0931 0.0
C307 C 0.10718 0.35629 0.10956 0.0
C308 C 0.12604 0.33294 0.13082 0.0
C309 C 0.14285 0.35002 0.13164 0.0
C310 C 0.15962 0.35038 0.13011 0.0
C311 C 0.15985 0.33367 0.12808 0.0
C312 C 0.14286 0.31666 0.12718 0.0
C313 C 0.12621 0.31636 0.1284 0.0
H314 H 0.69494 0.75852 0.15316 0.0
N315 N 0.69545 0.79076 0.145 0.0
H316 H 0.68822 0.74139 0.19335 0.0
H317 H 0.69444 0.80367 0.19516 0.0
H318 H 0.68929 0.78691 0.23576 0.0
H319 H 0.65988 0.76128 0.14326 0.0
H320 H 0.64831 0.735 0.11234 0.0
H321 H 0.70977 0.79133 0.09817 0.0
H322 H 0.69737 0.7658 0.06561 0.0
H323 H 0.72059 0.82467 0.13007 0.0
H324 H 0.66473 0.79235 0.15787 0.0
H325 H 0.71773 0.85214 0.12764 0.0
H326 H 0.6619 0.82006 0.157 0.0
H327 H 0.71059 0.93924 0.16269 0.0
H328 H 0.70851 0.9525 0.20493 0.0
H329 H 0.65765 0.90149 0.22146 0.0
H330 H 0.65975 0.88825 0.17906 0.0
H331 H 0.65041 0.89442 0.13589 0.0
H332 H 0.63835 0.90804 0.10563 0.0
H333 H 0.69272 0.9419 0.07298 0.0
H334 H 0.70472 0.92814 0.10311 0.0
H335 H 0.71555 0.90268 0.15301 0.0
H336 H 0.71695 0.87436 0.15431 0.0
H337 H 0.65959 0.84193 0.13126 0.0
N338 N 0.68682 0.90593 0.1426 0.0
H339 H 0.65815 0.87039 0.13157 0.0
C340 C 0.69343 0.78179 0.17007 0.0
C341 C 0.69315 0.76476 0.17079 0.0
C342 C 0.68957 0.75499 0.19391 0.0
C343 C 0.68761 0.76256 0.21748 0.0
C344 C 0.69011 0.78052 0.21761 0.0
C345 C 0.69291 0.79002 0.19418 0.0
C346 C 0.68604 0.77794 0.12347 0.0
C347 C 0.66801 0.76254 0.12613 0.0
C348 C 0.66142 0.74752 0.10848 0.0
C349 C 0.67224 0.7482 0.08705 0.0
C350 C 0.68901 0.7648 0.08235 0.0
C351 C 0.69603 0.7794 0.10076 0.0
C352 C 0.69307 0.80664 0.14454 0.0
C353 C 0.70777 0.82364 0.13598 0.0
C354 C 0.7061 0.83935 0.1348 0.0
C355 C 0.68966 0.83853 0.14253 0.0
C356 C 0.67473 0.82127 0.15069 0.0
C357 C 0.67634 0.80542 0.15142 0.0
C358 C 0.68544 0.91282 0.16793 0.0
C359 C 0.69907 0.93092 0.17551 0.0
C360 C 0.69784 0.93846 0.19943 0.0
C361 C 0.68293 0.92794 0.21615 0.0
C362 C 0.66924 0.90976 0.2087 0.0
C363 C 0.67046 0.90223 0.18465 0.0
C364 C 0.67851 0.91026 0.12161 0.0
C365 C 0.6596 0.90426 0.12163 0.0
C366 C 0.65274 0.91208 0.10447 0.0
C367 C 0.6647 0.92605 0.08726 0.0
C368 C 0.68329 0.93112 0.0861 0.0
C369 C 0.69011 0.92325 0.10315 0.0
C370 C 0.68692 0.88876 0.14181 0.0
C371 C 0.70332 0.88944 0.14814 0.0
C372 C 0.70408 0.87319 0.14869 0.0
C373 C 0.68845 0.85574 0.1425 0.0
C374 C 0.67189 0.85504 0.13631 0.0
C375 C 0.67108 0.87138 0.13617 0.0
H376 H 0.06893 0.77465 0.16869 0.0
N377 N 0.10068 0.7831 0.14609 0.0
H378 H 0.05569 0.75657 0.20856 0.0
H379 H 0.11922 0.77453 0.18182 0.0
H380 H 0.10616 0.75701 0.22183 0.0
H381 H 0.08036 0.78208 0.106 0.0
H382 H 0.06102 0.75517 0.07709 0.0
H383 H 0.10135 0.75067 0.14253 0.0
H384 H 0.0822 0.72401 0.11371 0.0
H385 H 0.12917 0.77805 0.13019 0.0
H386 H 0.11612 0.8195 0.15497 0.0
H387 H 0.16145 0.80199 0.1264 0.0
H388 H 0.1488 0.84365 0.1522 0.0
H389 H 0.26477 0.88577 0.167 0.0
H390 H 0.27849 0.90475 0.20682 0.0
H391 H 0.23385 0.91549 0.21166 0.0
H392 H 0.22038 0.89693 0.1716 0.0
H393 H 0.23604 0.91252 0.1283 0.0
H394 H 0.25878 0.93649 0.09943 0.0
H395 H 0.27955 0.90053 0.07846 0.0
H396 H 0.25659 0.87637 0.10716 0.0
H397 H 0.21965 0.84509 0.15411 0.0
H398 H 0.18689 0.82129 0.15397 0.0
H399 H 0.17427 0.86125 0.12329 0.0
N400 N 0.23526 0.88052 0.14145 0.0
H401 H 0.20701 0.88507 0.12437 0.0
C402 C 0.09507 0.77609 0.17222 0.0
C403 C 0.07733 0.77131 0.18061 0.0
C404 C 0.06977 0.76099 0.20322 0.0
C405 C 0.08 0.75554 0.21804 0.0
C406 C 0.09816 0.76125 0.21068 0.0
C407 C 0.10562 0.77133 0.18784 0.0
C408 C 0.09234 0.76851 0.12635 0.0
C409 C 0.08121 0.76963 0.10726 0.0
C410 C 0.07019 0.75432 0.09088 0.0
C411 C 0.07021 0.73767 0.09341 0.0
C412 C 0.08209 0.7368 0.11147 0.0
C413 C 0.09305 0.75207 0.12785 0.0
C414 C 0.12 0.79695 0.14273 0.0
C415 C 0.13313 0.79228 0.13474 0.0
C416 C 0.15177 0.80607 0.1328 0.0
C417 C 0.15783 0.82481 0.13908 0.0
C418 C 0.14465 0.82944 0.14683 0.0
C419 C 0.12598 0.81565 0.14859 0.0
C420 C 0.24147 0.88971 0.16653 0.0
C421 C 0.25781 0.89197 0.17692 0.0
C422 C 0.26564 0.90281 0.19944 0.0
C423 C 0.25711 0.91141 0.21205 0.0
C424 C 0.24052 0.90883 0.20215 0.0
C425 C 0.2328 0.89816 0.17941 0.0
C426 C 0.24455 0.89252 0.11975 0.0
C427 C 0.24485 0.90938 0.11662 0.0
C428 C 0.2579 0.92313 0.10026 0.0
C429 C 0.27082 0.92023 0.08698 0.0
C430 C 0.2696 0.90292 0.0885 0.0
C431 C 0.25649 0.88915 0.10472 0.0
C432 C 0.21587 0.86678 0.13909 0.0
C433 C 0.20979 0.84862 0.14714 0.0
C434 C 0.19105 0.83503 0.14691 0.0
C435 C 0.17786 0.83928 0.13849 0.0
C436 C 0.184 0.85751 0.13015 0.0
C437 C 0.20281 0.87116 0.13052 0.0
H438 H 0.29805 0.22568 0.85799 0.0
N439 N 0.3188 0.21514 0.8819 0.0
H440 H 0.30551 0.24401 0.81805 0.0
H441 H 0.34749 0.22321 0.84847 0.0
H442 H 0.35459 0.241 0.80816 0.0
H443 H 0.29789 0.21642 0.91994 0.0
H444 H 0.30597 0.24261 0.95044 0.0
H445 H 0.35343 0.24539 0.88988 0.0
H446 H 0.36143 0.27153 0.92015 0.0
H447 H 0.35004 0.21521 0.8969 0.0
H448 H 0.29319 0.17973 0.87414 0.0
H449 H 0.35285 0.18783 0.90253 0.0
H450 H 0.29597 0.15231 0.87884 0.0
H451 H 0.35853 0.10797 0.86845 0.0
H452 H 0.36228 0.0964 0.82582 0.0
H453 H 0.30364 0.06898 0.81276 0.0
H454 H 0.29984 0.0804 0.8556 0.0
H455 H 0.30558 0.06699 0.91285 0.0
H456 H 0.31622 0.05169 0.94242 0.0
H457 H 0.37014 0.10147 0.94508 0.0
H458 H 0.35943 0.11679 0.91537 0.0
H459 H 0.35462 0.13455 0.87862 0.0
H460 H 0.35375 0.16331 0.87815 0.0
H461 H 0.29889 0.13394 0.91116 0.0
N462 N 0.32579 0.09988 0.89102 0.0
H463 H 0.29968 0.10514 0.91048 0.0
C464 C 0.32206 0.22293 0.85615 0.0
C465 C 0.31019 0.22862 0.84688 0.0
C466 C 0.31446 0.23909 0.82424 0.0
C467 C 0.33058 0.24382 0.81029 0.0
C468 C 0.34204 0.23736 0.81869 0.0
C469 C 0.33793 0.22715 0.84164 0.0
C470 C 0.32498 0.2289 0.90272 0.0
C471 C 0.31192 0.22816 0.92045 0.0
C472 C 0.31649 0.24307 0.9377 0.0
C473 C 0.33425 0.25895 0.93735 0.0
C474 C 0.34768 0.25933 0.92065 0.0
C475 C 0.34311 0.24439 0.90348 0.0
C476 C 0.32125 0.19947 0.88534 0.0
C477 C 0.33814 0.20155 0.89314 0.0
C478 C 0.33977 0.18584 0.89618 0.0
C479 C 0.32459 0.16779 0.8914 0.0
C480 C 0.30784 0.1659 0.88333 0.0
C481 C 0.30622 0.18155 0.8804 0.0
C482 C 0.32881 0.09495 0.86516 0.0
C483 C 0.34649 0.09964 0.85637 0.0
C484 C 0.34866 0.09305 0.83211 0.0
C485 C 0.33322 0.08183 0.81636 0.0
C486 C 0.31568 0.07763 0.82476 0.0
C487 C 0.31352 0.08414 0.84903 0.0
C488 C 0.33166 0.09295 0.91199 0.0
C489 C 0.31955 0.07475 0.92036 0.0
C490 C 0.32562 0.06604 0.93706 0.0
C491 C 0.34396 0.07543 0.94568 0.0
C492 C 0.35593 0.09404 0.93853 0.0
C493 C 0.34982 0.10277 0.92169 0.0
C494 C 0.32704 0.11763 0.8943 0.0
C495 C 0.3425 0.13436 0.88599 0.0
C496 C 0.34201 0.15085 0.88586 0.0
C497 C 0.32611 0.15092 0.8942 0.0
C498 C 0.31117 0.13434 0.90396 0.0
C499 C 0.31164 0.1179 0.90388 0.0
H500 H 0.7499 0.12776 0.83697 0.0
N501 N 0.76427 0.12018 0.87745 0.0
H502 H 0.7375 0.10916 0.79642 0.0
H503 H 0.76665 0.0898 0.86241 0.0
H504 H 0.75466 0.0716 0.82195 0.0
H505 H 0.77158 0.09835 0.90849 0.0
H506 H 0.74957 0.07457 0.9385 0.0
H507 H 0.73275 0.11605 0.89444 0.0
H508 H 0.71085 0.09245 0.9247 0.0
H509 H 0.77752 0.15548 0.89148 0.0
H510 H 0.79443 0.11595 0.87344 0.0
H511 H 0.80984 0.18021 0.8965 0.0
H512 H 0.82661 0.14055 0.87719 0.0
H513 H 0.899 0.25121 0.86609 0.0
H514 H 0.91238 0.26704 0.82519 0.0
H515 H 0.92324 0.22376 0.80225 0.0
H516 H 0.91029 0.20801 0.84398 0.0
H517 H 0.93006 0.22889 0.90448 0.0
H518 H 0.94895 0.25548 0.93393 0.0
H519 H 0.90471 0.26673 0.93985 0.0
H520 H 0.88573 0.24006 0.91074 0.0
H521 H 0.86833 0.22291 0.86918 0.0
H522 H 0.83599 0.19843 0.87013 0.0
H523 H 0.85083 0.16142 0.90543 0.0
N524 N 0.89786 0.21972 0.88351 0.0
H525 H 0.88341 0.18592 0.90328 0.0
C526 C 0.7594 0.11039 0.85261 0.0
C527 C 0.75128 0.11572 0.83356 0.0
C528 C 0.74418 0.10512 0.81059 0.0
C529 C 0.74523 0.08908 0.80634 0.0
C530 C 0.75384 0.08402 0.82493 0.0
C531 C 0.7608 0.09452 0.84796 0.0
C532 C 0.75372 0.10895 0.89916 0.0
C533 C 0.75857 0.09749 0.91237 0.0
C534 C 0.74605 0.08393 0.92949 0.0
C535 C 0.72862 0.08178 0.93368 0.0
C536 C 0.72427 0.09398 0.92175 0.0
C537 C 0.73673 0.10743 0.90463 0.0
C538 C 0.78346 0.13392 0.88182 0.0
C539 C 0.78822 0.15215 0.88864 0.0
C540 C 0.80671 0.16629 0.89127 0.0
C541 C 0.82094 0.16249 0.88697 0.0
C542 C 0.81609 0.14402 0.88091 0.0
C543 C 0.79757 0.12987 0.87849 0.0
C544 C 0.90384 0.22841 0.85835 0.0
C545 C 0.90421 0.245 0.85246 0.0
C546 C 0.91184 0.25408 0.82907 0.0
C547 C 0.91896 0.24666 0.81096 0.0
C548 C 0.91791 0.22973 0.81617 0.0
C549 C 0.9105 0.22075 0.83981 0.0
C550 C 0.90654 0.23246 0.9053 0.0
C551 C 0.9242 0.23668 0.91287 0.0
C552 C 0.93496 0.25183 0.92955 0.0
C553 C 0.92819 0.26303 0.93887 0.0
C554 C 0.91008 0.25815 0.93285 0.0
C555 C 0.89926 0.2429 0.91627 0.0
C556 C 0.87841 0.20617 0.88588 0.0
C557 C 0.86471 0.20959 0.87716 0.0
C558 C 0.84609 0.19554 0.87795 0.0
C559 C 0.84069 0.17782 0.88773 0.0
C560 C 0.85443 0.17472 0.89729 0.0
C561 C 0.87305 0.18874 0.8963 0.0
H562 H 0.76635 0.70004 0.86022 0.0
N563 N 0.77776 0.67978 0.88374 0.0
H564 H 0.74884 0.69253 0.81923 0.0
H565 H 0.77038 0.65099 0.84987 0.0
H566 H 0.75342 0.64383 0.80848 0.0
H567 H 0.74956 0.64403 0.89202 0.0
H568 H 0.72315 0.63494 0.92112 0.0
H569 H 0.7749 0.70067 0.92094 0.0
H570 H 0.74837 0.6916 0.94994 0.0
H571 H 0.81186 0.70597 0.87215 0.0
H572 H 0.78008 0.64999 0.90093 0.0
H573 H 0.83989 0.70457 0.87468 0.0
H574 H 0.80817 0.64873 0.90479 0.0
H575 H 0.93104 0.69302 0.88619 0.0
H576 H 0.94799 0.69601 0.84583 0.0
H577 H 0.89743 0.67309 0.80186 0.0
H578 H 0.88021 0.66852 0.84228 0.0
H579 H 0.89759 0.6464 0.88215 0.0
H580 H 0.91322 0.6357 0.91073 0.0
H581 H 0.91246 0.67053 0.97332 0.0
H582 H 0.89838 0.68253 0.94394 0.0
H583 H 0.88969 0.70505 0.90456 0.0
H584 H 0.86082 0.70506 0.90464 0.0
H585 H 0.83148 0.64691 0.88079 0.0
N586 N 0.89468 0.67704 0.89234 0.0
H587 H 0.86057 0.64699 0.88213 0.0
C588 C 0.76981 0.67623 0.85797 0.0
C589 C 0.76384 0.68794 0.84877 0.0
C590 C 0.75386 0.68365 0.82554 0.0
C591 C 0.74991 0.66767 0.81094 0.0
C592 C 0.75646 0.65628 0.8195 0.0
C593 C 0.76618 0.6604 0.84303 0.0
C594 C 0.76429 0.67309 0.90445 0.0
C595 C 0.74976 0.65437 0.90524 0.0
C596 C 0.73465 0.64919 0.92172 0.0
C597 C 0.73381 0.66264 0.93748 0.0
C598 C 0.74881 0.68104 0.93792 0.0
C599 C 0.76394 0.68619 0.92153 0.0
C600 C 0.79392 0.6783 0.88665 0.0
C601 C 0.81101 0.69347 0.87939 0.0
C602 C 0.82704 0.69265 0.88104 0.0
C603 C 0.82643 0.6766 0.89029 0.0
C604 C 0.8092 0.66127 0.89743 0.0
C605 C 0.79308 0.66205 0.89549 0.0
C606 C 0.90431 0.68046 0.86761 0.0
C607 C 0.92357 0.68861 0.86787 0.0
C608 C 0.93324 0.6903 0.84487 0.0
C609 C 0.92398 0.68471 0.82081 0.0
C610 C 0.90483 0.67735 0.82024 0.0
C611 C 0.895 0.67487 0.84345 0.0
C612 C 0.89742 0.6658 0.91071 0.0
C613 C 0.90038 0.65143 0.90219 0.0
C614 C 0.90926 0.64526 0.91852 0.0
C615 C 0.91443 0.65268 0.94395 0.0
C616 C 0.90885 0.66485 0.95363 0.0
C617 C 0.90073 0.67162 0.93696 0.0
C618 C 0.87721 0.67613 0.89311 0.0
C619 C 0.87696 0.69231 0.89955 0.0
C620 C 0.86045 0.69228 0.89935 0.0
C621 C 0.84376 0.67606 0.89229 0.0
C622 C 0.84399 0.65963 0.88649 0.0
C623 C 0.86058 0.65964 0.88707 0.0
H624 H 0.73963 0.63153 0.49183 0.0
N625 N 0.77255 0.6585 0.47617 0.0
H626 H 0.72447 0.62981 0.53375 0.0
H627 H 0.78852 0.68168 0.51843 0.0
H628 H 0.77338 0.67996 0.56042 0.0
H629 H 0.76724 0.688 0.48502 0.0
H630 H 0.75033 0.69688 0.45641 0.0
H631 H 0.76627 0.65041 0.42528 0.0
H632 H 0.75076 0.66074 0.39559 0.0
H633 H 0.77906 0.63083 0.47571 0.0
H634 H 0.80623 0.69062 0.47275 0.0
H635 H 0.80876 0.63272 0.47475 0.0
H636 H 0.83636 0.69281 0.47063 0.0
H637 H 0.91856 0.69193 0.50449 0.0
H638 H 0.93306 0.6953 0.54688 0.0
H639 H 0.89278 0.63811 0.56396 0.0
H640 H 0.87872 0.6344 0.52064 0.0
H641 H 0.91113 0.69296 0.45869 0.0
H642 H 0.9381 0.70205 0.43035 0.0
H643 H 0.92824 0.64618 0.43372 0.0
H644 H 0.90165 0.63729 0.46249 0.0
H645 H 0.86155 0.63738 0.45356 0.0
H646 H 0.83374 0.6389 0.44799 0.0
H647 H 0.85769 0.689 0.49611 0.0
N648 N 0.89075 0.6594 0.48278 0.0
H649 H 0.88591 0.68793 0.50012 0.0
C650 C 0.76515 0.65659 0.50214 0.0
C651 C 0.74718 0.6419 0.50694 0.0
C652 C 0.73857 0.64097 0.5307 0.0
C653 C 0.74785 0.65477 0.55002 0.0
C654 C 0.76609 0.66917 0.54569 0.0
C655 C 0.77472 0.67008 0.52187 0.0
C656 C 0.76755 0.66797 0.45762 0.0
C657 C 0.76392 0.682 0.46554 0.0
C658 C 0.7543 0.68721 0.44911 0.0
C659 C 0.7489 0.67918 0.42404 0.0
C660 C 0.75453 0.6669 0.41501 0.0
C661 C 0.76348 0.6611 0.43184 0.0
C662 C 0.79047 0.66049 0.47408 0.0
C663 C 0.79154 0.64438 0.47441 0.0
C664 C 0.80858 0.64553 0.47364 0.0
C665 C 0.82509 0.66293 0.47225 0.0
C666 C 0.82399 0.67919 0.47182 0.0
C667 C 0.8068 0.67798 0.47283 0.0
C668 C 0.89776 0.6627 0.50912 0.0
C669 C 0.91277 0.68007 0.5172 0.0
C670 C 0.92103 0.68204 0.54144 0.0
C671 C 0.91415 0.66686 0.55825 0.0
C672 C 0.89835 0.6499 0.55106 0.0
C673 C 0.89035 0.64781 0.52651 0.0
C674 C 0.90447 0.66442 0.46269 0.0
C675 C 0.91462 0.68263 0.45296 0.0
C676 C 0.92997 0.68781 0.43692 0.0
C677 C 0.93512 0.67477 0.43013 0.0
C678 C 0.92443 0.6564 0.43878 0.0
C679 C 0.90928 0.65131 0.45501 0.0
C680 C 0.87563 0.66224 0.47763 0.0
C681 C 0.86088 0.64885 0.46249 0.0
C682 C 0.84492 0.64967 0.4596 0.0
C683 C 0.84319 0.66381 0.47219 0.0
C684 C 0.85847 0.6779 0.48614 0.0
C685 C 0.87461 0.67722 0.48865 0.0
H686 H 0.37237 0.11188 0.49554 0.0
N687 N 0.34697 0.11694 0.47339 0.0
H688 H 0.36976 0.09651 0.53722 0.0
H689 H 0.31991 0.10735 0.51023 0.0
H690 H 0.31733 0.09208 0.55147 0.0
H691 H 0.31578 0.0821 0.47522 0.0
H692 H 0.30877 0.05611 0.44569 0.0
H693 H 0.36131 0.1192 0.42603 0.0
H694 H 0.35311 0.09332 0.39499 0.0
H695 H 0.37502 0.15069 0.4637 0.0
H696 H 0.31608 0.11976 0.47334 0.0
H697 H 0.37466 0.17941 0.45963 0.0
H698 H 0.3156 0.14872 0.47243 0.0
H699 H 0.37252 0.27046 0.4921 0.0
H700 H 0.37209 0.28341 0.53543 0.0
H701 H 0.32306 0.23157 0.55514 0.0
H702 H 0.32348 0.21865 0.51168 0.0
H703 H 0.31727 0.2403 0.4786 0.0
H704 H 0.30838 0.25708 0.4497 0.0
H705 H 0.34786 0.26078 0.39254 0.0
H706 H 0.35814 0.24547 0.42276 0.0
H707 H 0.37408 0.23034 0.48565 0.0
H708 H 0.37291 0.20078 0.48478 0.0
H709 H 0.31795 0.17398 0.45174 0.0
N710 N 0.34798 0.23714 0.47253 0.0
H711 H 0.31879 0.20364 0.4551 0.0
C712 C 0.34647 0.11092 0.49975 0.0
C713 C 0.36057 0.10803 0.50801 0.0
C714 C 0.35904 0.09922 0.53161 0.0
C715 C 0.34329 0.09309 0.54721 0.0
C716 C 0.32958 0.09675 0.53964 0.0
C717 C 0.33115 0.10562 0.51612 0.0
C718 C 0.33952 0.10262 0.45327 0.0
C719 C 0.32403 0.08484 0.45779 0.0
C720 C 0.31993 0.06994 0.44082 0.0
C721 C 0.33069 0.07267 0.41843 0.0
C722 C 0.34484 0.09083 0.4124 0.0
C723 C 0.34942 0.1056 0.42996 0.0
C724 C 0.34575 0.13328 0.46973 0.0
C725 C 0.36201 0.15023 0.46535 0.0
C726 C 0.36174 0.16668 0.4634 0.0
C727 C 0.34518 0.16672 0.46664 0.0
C728 C 0.32867 0.14945 0.46992 0.0
C729 C 0.32893 0.13284 0.47098 0.0
C730 C 0.34816 0.24365 0.49885 0.0
C731 C 0.36185 0.26185 0.50592 0.0
C732 C 0.36157 0.2692 0.53048 0.0
C733 C 0.34756 0.2584 0.54833 0.0
C734 C 0.334 0.24003 0.54156 0.0
C735 C 0.33429 0.23267 0.51692 0.0
C736 C 0.33894 0.24216 0.45326 0.0
C737 C 0.32405 0.24454 0.45987 0.0
C738 C 0.31883 0.25407 0.44325 0.0
C739 C 0.32774 0.26059 0.41918 0.0
C740 C 0.34102 0.25617 0.41122 0.0
C741 C 0.3468 0.24734 0.42835 0.0
C742 C 0.3467 0.2193 0.47017 0.0
C743 C 0.3618 0.21805 0.47819 0.0
C744 C 0.36113 0.20107 0.47734 0.0
C745 C 0.34546 0.18479 0.46764 0.0
C746 C 0.33023 0.18606 0.45952 0.0
C747 C 0.33075 0.2031 0.46111 0.0
H748 H 0.78453 0.09778 0.50613 0.0
N749 N 0.77352 0.12004 0.48382 0.0
H750 H 0.77094 0.07841 0.54463 0.0
H751 H 0.74789 0.11902 0.51554 0.0
H752 H 0.734 0.09928 0.55393 0.0
H753 H 0.74245 0.11235 0.46017 0.0
H754 H 0.72344 0.0858 0.43066 0.0
H755 H 0.78442 0.09765 0.45988 0.0
H756 H 0.76527 0.07095 0.43076 0.0
H757 H 0.80057 0.13442 0.52221 0.0
H758 H 0.79163 0.13809 0.44 0.0
H759 H 0.83288 0.15724 0.51702 0.0
H760 H 0.8243 0.1616 0.43529 0.0
H761 H 0.9355 0.22401 0.5057 0.0
H762 H 0.94621 0.24263 0.54644 0.0
H763 H 0.90204 0.25396 0.5413 0.0
H764 H 0.8914 0.23545 0.50055 0.0
H765 H 0.90644 0.24854 0.45802 0.0
H766 H 0.92846 0.27189 0.4278 0.0
H767 H 0.95377 0.23898 0.41494 0.0
H768 H 0.93146 0.21535 0.44487 0.0
H769 H 0.89321 0.18405 0.4926 0.0
H770 H 0.86065 0.15931 0.4931 0.0
H771 H 0.84644 0.19516 0.4531 0.0
N772 N 0.90769 0.21841 0.4755 0.0
H773 H 0.87893 0.21989 0.4529 0.0
C774 C 0.76734 0.11006 0.5081 0.0
C775 C 0.77369 0.0984 0.51657 0.0
C776 C 0.76595 0.08736 0.53852 0.0
C777 C 0.75148 0.08743 0.55203 0.0
C778 C 0.74522 0.09913 0.54379 0.0
C779 C 0.75316 0.1104 0.52205 0.0
C780 C 0.76477 0.10696 0.46233 0.0
C781 C 0.74776 0.10372 0.45316 0.0
C782 C 0.73693 0.08859 0.43648 0.0
C783 C 0.74297 0.07644 0.42875 0.0
C784 C 0.76044 0.08023 0.43658 0.0
C785 C 0.77132 0.09542 0.4532 0.0
C786 C 0.79333 0.13308 0.48104 0.0
C787 C 0.80539 0.13945 0.50276 0.0
C788 C 0.82406 0.15282 0.49994 0.0
C789 C 0.83119 0.1609 0.47565 0.0
C790 C 0.81921 0.1554 0.45419 0.0
C791 C 0.80053 0.14175 0.45688 0.0
C792 C 0.91264 0.22824 0.50026 0.0
C793 C 0.92804 0.23036 0.51354 0.0
C794 C 0.93415 0.24097 0.53661 0.0
C795 C 0.92488 0.2496 0.5467 0.0
C796 C 0.90931 0.24733 0.5337 0.0
C797 C 0.90323 0.23676 0.51055 0.0
C798 C 0.91719 0.23001 0.45352 0.0
C799 C 0.91615 0.24587 0.44791 0.0
C800 C 0.92878 0.25927 0.43076 0.0
C801 C 0.9427 0.25711 0.41927 0.0
C802 C 0.94303 0.24079 0.42356 0.0
C803 C 0.9303 0.22732 0.44049 0.0
C804 C 0.88863 0.20379 0.47265 0.0
C805 C 0.88308 0.18647 0.48363 0.0
C806 C 0.86451 0.17242 0.48402 0.0
C807 C 0.85103 0.17535 0.4732 0.0
C808 C 0.85658 0.19248 0.46139 0.0
C809 C 0.87521 0.20667 0.4613 0.0
H810 H 0.96167 0.55621 0.19348 0.0
N811 N 0.98598 0.54883 0.21371 0.0
H812 H 0.9654 0.57406 0.15402 0.0
H813 H 0.01264 0.55813 0.17589 0.0
H814 H 0.01587 0.57521 0.13611 0.0
H815 H 0.96629 0.54812 0.25498 0.0
H816 H 0.97281 0.57442 0.28443 0.0
H817 H 0.01836 0.5826 0.21632 0.0
H818 H 0.02482 0.6087 0.24567 0.0
H819 H 0.02094 0.55628 0.22564 0.0
H820 H 0.96554 0.51209 0.20755 0.0
H821 H 0.03072 0.53366 0.22863 0.0
H822 H 0.97538 0.48928 0.20973 0.0
H823 H 0.04923 0.4514 0.1809 0.0
H824 H 0.04073 0.43215 0.14068 0.0
H825 H 0.98421 0.41768 0.15052 0.0
H826 H 0.99261 0.43672 0.19068 0.0
H827 H 0.99709 0.42377 0.2315 0.0
H828 H 0.99826 0.40243 0.26236 0.0
H829 H 0.05633 0.44111 0.27431 0.0
H830 H 0.0552 0.46257 0.24325 0.0
H831 H 0.04568 0.49092 0.1981 0.0
H832 H 0.03608 0.51392 0.19997 0.0
H833 H 0.98572 0.47405 0.23874 0.0
N834 N 0.02696 0.45584 0.21316 0.0
H835 H 0.99525 0.45105 0.23618 0.0
C836 C 0.98673 0.55567 0.18774 0.0
C837 C 0.97328 0.55988 0.18068 0.0
C838 C 0.97542 0.57008 0.1583 0.0
C839 C 0.9909 0.5759 0.14227 0.0
C840 C 0.00378 0.5707 0.14825 0.0
C841 C 1.00186 0.56086 0.17096 0.0
C842 C 0.9918 0.56327 0.23358 0.0
C843 C 0.9793 0.56114 0.25334 0.0
C844 C 0.98297 0.57611 0.26998 0.0
C845 C 0.99924 0.59344 0.26705 0.0
C846 C 0.01221 0.59539 0.24819 0.0
C847 C 0.00855 0.58044 0.23157 0.0
C848 C 0.99234 0.53588 0.2165 0.0
C849 C 0.01079 0.54172 0.22245 0.0
C850 C 0.01644 0.52871 0.22394 0.0
C851 C 0.00386 0.5096 0.21941 0.0
C852 C 0.9854 0.50382 0.21374 0.0
C853 C 0.97976 0.51683 0.21231 0.0
C854 C 0.02167 0.44567 0.18864 0.0
C855 C 0.03507 0.44424 0.17419 0.0
C856 C 0.03023 0.43326 0.15143 0.0
C857 C 0.01187 0.42356 0.14282 0.0
C858 C 0.99844 0.42513 0.15697 0.0
C859 C 0.00327 0.43606 0.1798 0.0
C860 C 0.02614 0.44488 0.23509 0.0
C861 C 0.00997 0.42801 0.24129 0.0
C862 C 0.01062 0.41577 0.25884 0.0
C863 C 0.02739 0.4202 0.27045 0.0
C864 C 0.04327 0.43751 0.26556 0.0
C865 C 0.04261 0.44974 0.24798 0.0
C866 C 0.02133 0.46933 0.21706 0.0
C867 C 0.03268 0.48726 0.20728 0.0
C868 C 0.02718 0.5004 0.20847 0.0
C869 C 0.0101 0.49587 0.21952 0.0
C870 C 0.99885 0.47795 0.22981 0.0
C871 C 0.00438 0.46478 0.22857 0.0
H872 H 0.58578 0.55086 0.17257 0.0
N873 N 0.56879 0.55666 0.21233 0.0
H874 H 0.59585 0.56812 0.13142 0.0
H875 H 0.55988 0.58188 0.19546 0.0
H876 H 0.56965 0.59882 0.15438 0.0
H877 H 0.60301 0.5689 0.22772 0.0
H878 H 0.62193 0.59544 0.25722 0.0
H879 H 0.55612 0.57495 0.24282 0.0
H880 H 0.57509 0.60158 0.27249 0.0
H881 H 0.56212 0.52696 0.23893 0.0
H882 H 0.53452 0.55051 0.19853 0.0
H883 H 0.53257 0.49832 0.24556 0.0
H884 H 0.50522 0.52161 0.20337 0.0
H885 H 0.4417 0.40203 0.20787 0.0
H886 H 0.43002 0.38657 0.16664 0.0
H887 H 0.42921 0.43471 0.13928 0.0
H888 H 0.44046 0.44969 0.18141 0.0
H889 H 0.4214 0.44318 0.22421 0.0
H890 H 0.39383 0.42766 0.25203 0.0
H891 H 0.41643 0.39848 0.29072 0.0
H892 H 0.44417 0.41443 0.26341 0.0
H893 H 0.48332 0.44239 0.22097 0.0
H894 H 0.51194 0.47251 0.22087 0.0
H895 H 0.48067 0.50011 0.22915 0.0
N896 N 0.44917 0.43563 0.22276 0.0
H897 H 0.45206 0.46976 0.22768 0.0
C898 C 0.57196 0.56492 0.18694 0.0
C899 C 0.58189 0.56102 0.16842 0.0
C900 C 0.58765 0.57086 0.14512 0.0
C901 C 0.58343 0.58466 0.14002 0.0
C902 C 0.57291 0.58812 0.15802 0.0
C903 C 0.5673 0.57841 0.1814 0.0
C904 C 0.57824 0.56995 0.23319 0.0
C905 C 0.59672 0.57568 0.23794 0.0
C906 C 0.60749 0.59082 0.25458 0.0
C907 C 0.59988 0.60044 0.26683 0.0
C908 C 0.58113 0.59425 0.26315 0.0
C909 C 0.57034 0.57908 0.24636 0.0
C910 C 0.55076 0.54081 0.21783 0.0
C911 C 0.54967 0.52595 0.23149 0.0
C912 C 0.53275 0.50949 0.23499 0.0
C913 C 0.51642 0.50735 0.22446 0.0
C914 C 0.5174 0.52265 0.21185 0.0
C915 C 0.53434 0.53927 0.2088 0.0
C916 C 0.44315 0.42746 0.19714 0.0
C917 C 0.43986 0.40955 0.19236 0.0
C918 C 0.43369 0.40094 0.16798 0.0
C919 C 0.43177 0.41043 0.14675 0.0
C920 C 0.43318 0.42774 0.15293 0.0
C921 C 0.43916 0.4363 0.17756 0.0
C922 C 0.43489 0.43004 0.24203 0.0
C923 C 0.42075 0.43404 0.23938 0.0
C924 C 0.40499 0.4251 0.25509 0.0
C925 C 0.40306 0.41181 0.27322 0.0
C926 C 0.41767 0.40868 0.27685 0.0
C927 C 0.43348 0.41779 0.26141 0.0
C928 C 0.46562 0.45379 0.22459 0.0
C929 C 0.48271 0.45498 0.22294 0.0
C930 C 0.49908 0.47227 0.22312 0.0
C931 C 0.49878 0.48892 0.22529 0.0
C932 C 0.48152 0.48767 0.22721 0.0
C933 C 0.46508 0.47027 0.22664 0.0
H934 H 0.55686 0.95273 0.18485 0.0
N935 N 0.55093 0.97538 0.21479 0.0
H936 H 0.57487 0.96038 0.1442 0.0
H937 H 0.56617 0.00848 0.18884 0.0
H938 H 0.58386 0.01597 0.14806 0.0
H939 H 0.58293 0.00722 0.22949 0.0
H940 H 0.60574 0.00903 0.26044 0.0
H941 H 0.54654 0.94931 0.2478 0.0
H942 H 0.56939 0.95119 0.27903 0.0
H943 H 0.51585 0.95471 0.20088 0.0
H944 H 0.55474 0.00739 0.23713 0.0
H945 H 0.49181 0.96259 0.20425 0.0
H946 H 0.53069 0.01514 0.24149 0.0
H947 H 0.45263 0.03652 0.19727 0.0
H948 H 0.43741 0.03471 0.15567 0.0
H949 H 0.42198 0.97713 0.14622 0.0
H950 H 0.43769 0.97913 0.18719 0.0
H951 H 0.45183 0.03038 0.25936 0.0
H952 H 0.42538 0.02331 0.2876 0.0
H953 H 0.39557 0.96738 0.25563 0.0
H954 H 0.42156 0.97445 0.2272 0.0
H955 H 0.44829 0.97448 0.23241 0.0
H956 H 0.47226 0.96672 0.23359 0.0
H957 H 0.51309 0.02369 0.21533 0.0
N958 N 0.45297 0.00889 0.22144 0.0
H959 H 0.48893 0.03151 0.21516 0.0
C960 C 0.55998 0.97989 0.18972 0.0
C961 C 0.56252 0.96647 0.17672 0.0
C962 C 0.5728 0.97083 0.15371 0.0
C963 C 0.58062 0.9887 0.14328 0.0
C964 C 0.57783 0.00209 0.15588 0.0
C965 C 0.56768 0.99777 0.17905 0.0
C966 C 0.56296 0.97804 0.23634 0.0
C967 C 0.5796 0.99504 0.24066 0.0
C968 C 0.59265 0.99609 0.25827 0.0
C969 C 0.58924 0.98022 0.27185 0.0
C970 C 0.57222 0.96357 0.26872 0.0
C971 C 0.5592 0.96252 0.25105 0.0
C972 C 0.53703 0.9803 0.21886 0.0
C973 C 0.5191 0.96786 0.20995 0.0
C974 C 0.50535 0.97236 0.21205 0.0
C975 C 0.50923 0.9895 0.22326 0.0
C976 C 0.52723 0.00192 0.2325 0.0
C977 C 0.54101 0.99742 0.23023 0.0
C978 C 0.44621 0.008 0.19541 0.0
C979 C 0.4463 0.02365 0.18591 0.0
C980 C 0.43759 0.02259 0.16235 0.0
C981 C 0.42839 0.00571 0.14814 0.0
C982 C 0.42891 0.99023 0.15704 0.0
C983 C 0.43786 0.99138 0.18042 0.0
C984 C 0.43892 0.00301 0.24133 0.0
C985 C 0.43981 0.01644 0.25903 0.0
C986 C 0.42474 0.01244 0.27501 0.0
C987 C 0.40856 0.99485 0.27359 0.0
C988 C 0.40799 0.98101 0.25705 0.0
C989 C 0.42297 0.98507 0.24091 0.0
C990 C 0.46678 0.00374 0.22387 0.0
C991 C 0.46234 0.98543 0.229 0.0
C992 C 0.47615 0.98093 0.22944 0.0
C993 C 0.49468 0.99454 0.22447 0.0
C994 C 0.49907 0.01288 0.21967 0.0
C995 C 0.48527 0.01738 0.21941 0.0
H996 H 0.42695 0.99791 0.82247 0.0
N997 N 0.45829 0.03209 0.81786 0.0
H998 H 0.4074 0.98609 0.86154 0.0
H999 H 0.46543 0.04774 0.86527 0.0
H1000 H 0.44587 0.03591 0.90437 0.0
H1001 H 0.43861 0.04864 0.81975 0.0
H1002 H 0.41709 0.04747 0.78727 0.0
H1003 H 0.45358 0.01764 0.76692 0.0
H1004 H 0.43269 0.01736 0.73416 0.0
H1005 H 0.45332 0.99809 0.80335 0.0
H1006 H 0.4944 0.05494 0.82246 0.0
H1007 H 0.47728 0.99026 0.79877 0.0
H1008 H 0.51846 0.04712 0.81983 0.0
H1009 H 0.55615 0.96885 0.82688 0.0
H1010 H 0.57012 0.96753 0.86811 0.0
H1011 H 0.5863 0.02463 0.88539 0.0
H1012 H 0.57139 0.02554 0.84504 0.0
H1013 H 0.58891 0.03156 0.80666 0.0
H1014 H 0.61261 0.04166 0.77483 0.0
H1015 H 0.57904 0.99053 0.73043 0.0
H1016 H 0.5555 0.9805 0.76341 0.0
H1017 H 0.52091 0.97666 0.82054 0.0
H1018 H 0.49704 0.98476 0.82212 0.0
H1019 H 0.53651 0.0399 0.79456 0.0
N1020 N 0.5561 0.99807 0.8074 0.0
H1021 H 0.56042 0.03212 0.79506 0.0
C1022 C 0.44767 0.02373 0.84111 0.0
C1023 C 0.43137 0.0061 0.8404 0.0
C1024 C 0.42018 0.99943 0.86255 0.0
C1025 C 0.42521 0.01023 0.88564 0.0
C1026 C 0.44181 0.02745 0.88664 0.0
C1027 C 0.45295 0.03414 0.8645 0.0
C1028 C 0.44747 0.03279 0.79652 0.0
C1029 C 0.43743 0.04173 0.80116 0.0
C1030 C 0.42515 0.04108 0.78262 0.0
C1031 C 0.42305 0.03206 0.75846 0.0
C1032 C 0.43388 0.02412 0.7529 0.0
C1033 C 0.44585 0.02428 0.77182 0.0
C1034 C 0.47215 0.02726 0.81271 0.0
C1035 C 0.46755 0.00893 0.80642 0.0
C1036 C 0.48133 0.00443 0.80418 0.0
C1037 C 0.49999 0.018 0.80902 0.0
C1038 C 0.50443 0.03632 0.81533 0.0
C1039 C 0.49067 0.04086 0.81697 0.0
C1040 C 0.56299 0.99732 0.83272 0.0
C1041 C 0.56247 0.98096 0.83979 0.0
C1042 C 0.57048 0.98024 0.86316 0.0
C1043 C 0.57956 0.9961 0.87951 0.0
C1044 C 0.57956 0.01232 0.87287 0.0
C1045 C 0.57113 0.01286 0.84983 0.0
C1046 C 0.56995 0.00542 0.78709 0.0
C1047 C 0.58632 0.02279 0.78957 0.0
C1048 C 0.59992 0.02895 0.7703 0.0
C1049 C 0.59736 0.01846 0.74703 0.0
C1050 C 0.58122 1.00048 0.74576 0.0
C1051 C 0.56766 0.9943 0.76515 0.0
C1052 C 0.54245 0.00357 0.80747 0.0
C1053 C 0.52436 0.99051 0.81493 0.0
C1054 C 0.51067 0.99515 0.81552 0.0
C1055 C 0.51464 0.013 0.80823 0.0
C1056 C 0.53285 0.02611 0.8007 0.0
C1057 C 0.54663 0.02156 0.80067 0.0
H1058 H 0.95275 0.55348 0.84496 0.0
N1059 N 0.97606 0.54984 0.8139 0.0
H1060 H 0.95991 0.57111 0.8865 0.0
H1061 H 0.00871 0.56524 0.84073 0.0
H1062 H 0.01587 0.58294 0.88203 0.0
H1063 H 0.00856 0.58184 0.80183 0.0
H1064 H 0.01153 0.60694 0.77459 0.0
H1065 H 0.95094 0.54824 0.78147 0.0
H1066 H 0.95403 0.57345 0.75389 0.0
H1067 H 0.95492 0.51416 0.82504 0.0
H1068 H 0.00782 0.55359 0.79242 0.0
H1069 H 0.9625 0.48972 0.82152 0.0
H1070 H 0.01529 0.52915 0.78787 0.0
H1071 H 0.03573 0.45052 0.83367 0.0
H1072 H 0.03332 0.4347 0.87479 0.0
H1073 H 0.97592 0.41795 0.88057 0.0
H1074 H 0.97851 0.43432 0.84011 0.0
H1075 H 0.03087 0.44958 0.77168 0.0
H1076 H 0.02465 0.42297 0.74313 0.0
H1077 H 0.96851 0.3927 0.77066 0.0
H1078 H 0.97473 0.41883 0.79943 0.0
H1079 H 0.97475 0.44574 0.79497 0.0
H1080 H 0.96715 0.46998 0.79294 0.0
H1081 H 0.02319 0.51126 0.81437 0.0
N1082 N 0.00862 0.45049 0.80783 0.0
H1083 H 0.03087 0.48683 0.81531 0.0
C1084 C 0.98011 0.55801 0.8398 0.0
C1085 C 0.96643 0.55954 0.85326 0.0
C1086 C 0.97051 0.56959 0.87679 0.0
C1087 C 0.98841 0.57831 0.88713 0.0
C1088 C 0.00198 0.57624 0.87427 0.0
C1089 C 0.99788 0.56613 0.85076 0.0
C1090 C 0.97943 0.56301 0.79366 0.0
C1091 C 0.99667 0.57956 0.79092 0.0
C1092 C 0.99839 0.59397 0.77547 0.0
C1093 C 0.98297 0.59202 0.76244 0.0
C1094 C 0.96607 0.57514 0.76382 0.0
C1095 C 0.96434 0.56076 0.77936 0.0
C1096 C 0.98064 0.53566 0.80891 0.0
C1097 C 0.96804 0.51743 0.81664 0.0
C1098 C 0.97239 0.50346 0.81447 0.0
C1099 C 0.98953 0.50738 0.80436 0.0
C1100 C 0.00206 0.52564 0.79607 0.0
C1101 C 0.99772 0.53967 0.79843 0.0
C1102 C 0.00734 0.44352 0.83375 0.0
C1103 C 0.02276 0.4438 0.84416 0.0
C1104 C 0.02136 0.43472 0.86744 0.0
C1105 C 0.00438 0.42496 0.88045 0.0
C1106 C 0.9891 0.4253 0.87067 0.0
C1107 C 0.99059 0.43463 0.84759 0.0
C1108 C 0.00333 0.43645 0.78751 0.0
C1109 C 0.01708 0.43743 0.77094 0.0
C1110 C 0.01357 0.42228 0.75479 0.0
C1111 C 0.99614 0.40591 0.75491 0.0
C1112 C 0.98202 0.40527 0.77026 0.0
C1113 C 0.98558 0.42033 0.78657 0.0
C1114 C 0.00355 0.46444 0.80513 0.0
C1115 C 0.98553 0.45994 0.79891 0.0
C1116 C 0.98112 0.47392 0.79796 0.0
C1117 C 0.99452 0.49266 0.80355 0.0
C1118 C 0.01256 0.49708 0.8095 0.0
C1119 C 0.01697 0.48312 0.81022 0.0
H1120 H 0.39923 0.43646 0.84549 0.0
N1121 N 0.43039 0.4489 0.81902 0.0
H1122 H 0.38999 0.4179 0.88538 0.0
H1123 H 0.45302 0.44259 0.84979 0.0
H1124 H 0.44391 0.42447 0.88994 0.0
H1125 H 0.40641 0.44549 0.78301 0.0
H1126 H 0.38879 0.41885 0.75292 0.0
H1127 H 0.43729 0.42076 0.80897 0.0
H1128 H 0.41964 0.39418 0.77911 0.0
H1129 H 0.46282 0.45187 0.80217 0.0
H1130 H 0.4379 0.48342 0.82694 0.0
H1131 H 0.49228 0.48081 0.79582 0.0
H1132 H 0.46736 0.51241 0.82133 0.0
H1133 H 0.57564 0.56468 0.82769 0.0
H1134 H 0.59227 0.57891 0.86855 0.0
H1135 H 0.5586 0.60318 0.8822 0.0
H1136 H 0.54209 0.58917 0.84098 0.0
H1137 H 0.56129 0.60241 0.78312 0.0
H1138 H 0.58785 0.61847 0.75374 0.0
H1139 H 0.59352 0.57012 0.75196 0.0
H1140 H 0.56689 0.55403 0.78144 0.0
H1141 H 0.54577 0.53678 0.81929 0.0
H1142 H 0.51696 0.50662 0.82058 0.0
H1143 H 0.48802 0.53164 0.78776 0.0
N1144 N 0.54931 0.57007 0.80582 0.0
H1145 H 0.51681 0.56184 0.78744 0.0
C1146 C 0.42679 0.44103 0.84472 0.0
C1147 C 0.40918 0.43426 0.85545 0.0
C1148 C 0.40391 0.42367 0.87806 0.0
C1149 C 0.41629 0.41988 0.89045 0.0
C1150 C 0.43425 0.4274 0.88061 0.0
C1151 C 0.43944 0.43779 0.85775 0.0
C1152 C 0.42312 0.43516 0.79817 0.0
C1153 C 0.40974 0.43461 0.78165 0.0
C1154 C 0.39969 0.41945 0.76464 0.0
C1155 C 0.40293 0.40461 0.764 0.0
C1156 C 0.41704 0.40558 0.77938 0.0
C1157 C 0.42713 0.42078 0.79632 0.0
C1158 C 0.44806 0.46553 0.81486 0.0
C1159 C 0.46364 0.465 0.8062 0.0
C1160 C 0.48055 0.48159 0.80273 0.0
C1161 C 0.48218 0.49898 0.80784 0.0
C1162 C 0.46655 0.49934 0.81664 0.0
C1163 C 0.44973 0.4828 0.82006 0.0
C1164 C 0.55763 0.57597 0.83128 0.0
C1165 C 0.57161 0.57281 0.83957 0.0
C1166 C 0.58113 0.58092 0.86284 0.0
C1167 C 0.57663 0.59207 0.87819 0.0
C1168 C 0.56218 0.59456 0.87053 0.0
C1169 C 0.55277 0.58657 0.84718 0.0
C1170 C 0.56212 0.5771 0.78441 0.0
C1171 C 0.56791 0.59508 0.77574 0.0
C1172 C 0.58305 0.60423 0.75915 0.0
C1173 C 0.5926 0.59546 0.7509 0.0
C1174 C 0.58621 0.57702 0.75817 0.0
C1175 C 0.57102 0.56786 0.77489 0.0
C1176 C 0.53333 0.55162 0.80352 0.0
C1177 C 0.53328 0.53574 0.81215 0.0
C1178 C 0.51678 0.51845 0.81275 0.0
C1179 C 0.5001 0.51675 0.80464 0.0
C1180 C 0.5005 0.53252 0.79473 0.0
C1181 C 0.51694 0.54974 0.79427 0.0
H1182 H 0.62902 0.88494 0.52138 0.0
N1183 N 0.65393 0.88423 0.55168 0.0
H1184 H 0.63472 0.90224 0.4807 0.0
H1185 H 0.68634 0.90121 0.52432 0.0
H1186 H 0.69221 0.91913 0.48438 0.0
H1187 H 0.62971 0.88585 0.58322 0.0
H1188 H 0.63536 0.91204 0.61225 0.0
H1189 H 0.68794 0.91332 0.56652 0.0
H1190 H 0.69348 0.93939 0.59518 0.0
H1191 H 0.68574 0.8846 0.56396 0.0
H1192 H 0.62785 0.84878 0.54728 0.0
H1193 H 0.68881 0.85731 0.56896 0.0
H1194 H 0.63081 0.82143 0.55137 0.0
H1195 H 0.69205 0.77746 0.52904 0.0
H1196 H 0.69294 0.76442 0.48614 0.0
H1197 H 0.63355 0.73493 0.48236 0.0
H1198 H 0.63264 0.74789 0.52553 0.0
H1199 H 0.6407 0.73771 0.5822 0.0
H1200 H 0.65175 0.72182 0.60988 0.0
H1201 H 0.70742 0.76829 0.60267 0.0
H1202 H 0.69624 0.78436 0.57525 0.0
H1203 H 0.68924 0.80363 0.54271 0.0
H1204 H 0.68846 0.83246 0.54385 0.0
H1205 H 0.63541 0.80349 0.58227 0.0
N1206 N 0.661 0.76912 0.55682 0.0
H1207 H 0.63601 0.77461 0.57986 0.0
C1208 C 0.65723 0.89192 0.52595 0.0
C1209 C 0.64274 0.892 0.51301 0.0
C1210 C 0.646 0.90191 0.48999 0.0
C1211 C 0.66393 0.91216 0.47983 0.0
C1212 C 0.67832 0.91141 0.49207 0.0
C1213 C 0.67496 0.90121 0.51488 0.0
C1214 C 0.65831 0.89752 0.57273 0.0
C1215 C 0.64373 0.89719 0.58647 0.0
C1216 C 0.64693 0.91211 0.60288 0.0
C1217 C 0.66482 0.92759 0.60566 0.0
C1218 C 0.67961 0.92748 0.59326 0.0
C1219 C 0.67641 0.91252 0.57695 0.0
C1220 C 0.65644 0.86868 0.55546 0.0
C1221 C 0.67367 0.87089 0.56144 0.0
C1222 C 0.67543 0.85523 0.56414 0.0
C1223 C 0.66004 0.8371 0.56079 0.0
C1224 C 0.64289 0.83509 0.55472 0.0
C1225 C 0.64116 0.85069 0.55217 0.0
C1226 C 0.66219 0.76358 0.53045 0.0
C1227 C 0.67922 0.76844 0.51891 0.0
C1228 C 0.67976 0.76101 0.49447 0.0
C1229 C 0.66331 0.74874 0.48128 0.0
C1230 C 0.64636 0.74443 0.49233 0.0
C1231 C 0.64583 0.7518 0.51679 0.0
C1232 C 0.66761 0.7621 0.57669 0.0
C1233 C 0.65521 0.74467 0.58719 0.0
C1234 C 0.66151 0.73562 0.6028 0.0
C1235 C 0.68038 0.74385 0.60806 0.0
C1236 C 0.6928 0.76175 0.59871 0.0
C1237 C 0.68643 0.77089 0.58314 0.0
C1238 C 0.66248 0.7869 0.56086 0.0
C1239 C 0.67754 0.80354 0.55156 0.0
C1240 C 0.67711 0.82007 0.55239 0.0
C1241 C 0.66171 0.82027 0.56274 0.0
C1242 C 0.64726 0.80379 0.57352 0.0
C1243 C 0.64764 0.7873 0.57244 0.0
H1244 H 0.26896 0.89444 0.52404 0.0
N1245 N 0.23794 0.88718 0.54797 0.0
H1246 H 0.28074 0.91008 0.48202 0.0
H1247 H 0.21885 0.89517 0.51255 0.0
H1248 H 0.23061 0.91074 0.47103 0.0
H1249 H 0.23962 0.92091 0.54705 0.0
H1250 H 0.25813 0.94738 0.57617 0.0
H1251 H 0.25148 0.8862 0.59432 0.0
H1252 H 0.2687 0.91248 0.62506 0.0
H1253 H 0.23136 0.85289 0.55277 0.0
H1254 H 0.20442 0.88469 0.55266 0.0
H1255 H 0.20161 0.82411 0.55608 0.0
H1256 H 0.17427 0.85584 0.55338 0.0
H1257 H 0.106 0.73305 0.53379 0.0
H1258 H 0.09317 0.71868 0.49225 0.0
H1259 H 0.09466 0.76878 0.46875 0.0
H1260 H 0.10718 0.78272 0.51105 0.0
H1261 H 0.08915 0.77565 0.55551 0.0
H1262 H 0.06277 0.7607 0.58568 0.0
H1263 H 0.08587 0.73049 0.61996 0.0
H1264 H 0.11226 0.74561 0.59001 0.0
H1265 H 0.14819 0.77482 0.53014 0.0
H1266 H 0.17722 0.80435 0.53046 0.0
H1267 H 0.15159 0.82965 0.57458 0.0
N1268 N 0.1161 0.76717 0.55023 0.0
H1269 H 0.12216 0.80026 0.57221 0.0
C1270 C 0.24303 0.89351 0.5215 0.0
C1271 C 0.26035 0.89754 0.51223 0.0
C1272 C 0.26707 0.90649 0.48841 0.0
C1273 C 0.25655 0.91163 0.47363 0.0
C1274 C 0.23888 0.90684 0.48222 0.0
C1275 C 0.23213 0.89783 0.50593 0.0
C1276 C 0.24463 0.90159 0.56801 0.0
C1277 C 0.24581 0.91877 0.56396 0.0
C1278 C 0.25635 0.93395 0.58071 0.0
C1279 C 0.26519 0.93205 0.60249 0.0
C1280 C 0.2623 0.91436 0.60811 0.0
C1281 C 0.25238 0.89936 0.59073 0.0
C1282 C 0.22007 0.8708 0.55177 0.0
C1283 C 0.2189 0.85357 0.5532 0.0
C1284 C 0.2018 0.8371 0.55474 0.0
C1285 C 0.18529 0.83741 0.55416 0.0
C1286 C 0.18655 0.85489 0.55382 0.0
C1287 C 0.2038 0.87145 0.55302 0.0
C1288 C 0.10872 0.75935 0.52484 0.0
C1289 C 0.10433 0.74118 0.51905 0.0
C1290 C 0.09752 0.73321 0.49452 0.0
C1291 C 0.09606 0.74359 0.47413 0.0
C1292 C 0.09833 0.76111 0.48151 0.0
C1293 C 0.10499 0.76906 0.5063 0.0
C1294 C 0.10265 0.76173 0.57074 0.0
C1295 C 0.08878 0.76624 0.57005 0.0
C1296 C 0.07375 0.75769 0.58714 0.0
C1297 C 0.07237 0.74441 0.60486 0.0
C1298 C 0.08673 0.74071 0.60644 0.0
C1299 C 0.10177 0.74935 0.58951 0.0
C1300 C 0.13296 0.78515 0.55118 0.0
C1301 C 0.14882 0.78678 0.53973 0.0
C1302 C 0.16553 0.80372 0.54029 0.0
C1303 C 0.16705 0.81952 0.55303 0.0
C1304 C 0.15105 0.81793 0.5644 0.0
C1305 C 0.13413 0.80098 0.56326 0.0
H1306 H 0.22548 0.30637 0.52923 0.0
N1307 N 0.23088 0.3366 0.55817 0.0
H1308 H 0.23938 0.30714 0.48663 0.0
H1309 H 0.25087 0.36617 0.5286 0.0
H1310 H 0.26464 0.36692 0.48574 0.0
H1311 H 0.2617 0.35716 0.58497 0.0
H1312 H 0.2772 0.3461 0.61338 0.0
H1313 H 0.21609 0.30088 0.57499 0.0
H1314 H 0.23175 0.28966 0.60329 0.0
H1315 H 0.19914 0.31274 0.53091 0.0
H1316 H 0.2213 0.35392 0.5931 0.0
H1317 H 0.1705 0.31294 0.53235 0.0
H1318 H 0.19213 0.35318 0.59617 0.0
H1319 H 0.08824 0.31219 0.5315 0.0
H1320 H 0.07392 0.30992 0.48921 0.0
H1321 H 0.1162 0.36655 0.47287 0.0
H1322 H 0.13007 0.36917 0.51598 0.0
H1323 H 0.10804 0.36709 0.57462 0.0
H1324 H 0.08184 0.35923 0.60377 0.0
H1325 H 0.0694 0.30244 0.6063 0.0
H1326 H 0.09566 0.31031 0.57752 0.0
H1327 H 0.11674 0.31105 0.54638 0.0
H1328 H 0.14288 0.30653 0.55196 0.0
H1329 H 0.17745 0.36502 0.57257 0.0
N1330 N 0.11719 0.34385 0.55333 0.0
H1331 H 0.15096 0.3689 0.56857 0.0
C1332 C 0.23723 0.33631 0.53207 0.0
C1333 C 0.23389 0.31963 0.51985 0.0
C1334 C 0.24179 0.32004 0.4956 0.0
C1335 C 0.25305 0.33709 0.48327 0.0
C1336 C 0.25598 0.35366 0.49508 0.0
C1337 C 0.24812 0.35324 0.51935 0.0
C1338 C 0.23787 0.32986 0.57793 0.0
C1339 C 0.25491 0.34248 0.5894 0.0
C1340 C 0.26373 0.33617 0.60545 0.0
C1341 C 0.25564 0.3171 0.61019 0.0
C1342 C 0.23816 0.30444 0.59973 0.0
C1343 C 0.22927 0.31081 0.58369 0.0
C1344 C 0.21263 0.33372 0.56155 0.0
C1345 C 0.19776 0.32157 0.54529 0.0
C1346 C 0.18119 0.32156 0.54633 0.0
C1347 C 0.17899 0.33338 0.56403 0.0
C1348 C 0.19344 0.34436 0.58165 0.0
C1349 C 0.21008 0.34465 0.5802 0.0
C1350 C 0.11006 0.34106 0.52713 0.0
C1351 C 0.09451 0.32413 0.51894 0.0
C1352 C 0.08633 0.3228 0.49478 0.0
C1353 C 0.09387 0.33816 0.4782 0.0
C1354 C 0.11012 0.35463 0.48557 0.0
C1355 C 0.11803 0.3561 0.51 0.0
C1356 C 0.10385 0.33938 0.57388 0.0
C1357 C 0.09996 0.35308 0.58205 0.0
C1358 C 0.08504 0.3486 0.59853 0.0
C1359 C 0.07374 0.33026 0.60701 0.0
C1360 C 0.07805 0.31667 0.59993 0.0
C1361 C 0.09307 0.3212 0.58354 0.0
C1362 C 0.13191 0.34031 0.55749 0.0
C1363 C 0.12985 0.32274 0.55273 0.0
C1364 C 0.14493 0.32026 0.55561 0.0
C1365 C 0.16241 0.33537 0.56285 0.0
C1366 C 0.16422 0.35288 0.56767 0.0
C1367 C 0.14913 0.35523 0.56518 0.0
C1368 C 0.99859 0.38167 0.09796 0.0
C1369 C 0.99676 0.38862 0.07383 0.0
C1370 C 0.0059 0.41882 0.09466 0.0
C1371 C 0.00665 0.41151 0.11905 0.0
N1372 N 1.00184 0.38568 0.14508 0.0
N1373 N 0.9966 0.41277 0.04916 0.0
C1374 C 0.00251 0.39284 0.12102 0.0
C1375 C 0.9998 0.40691 0.07218 0.0
N1376 N 0.99678 0.36447 0.09869 0.0
N1377 N 0.01153 0.4373 0.09291 0.0
H1378 H 0.99292 0.40471 0.03208 0.0
H1379 H 0.99644 0.42504 0.04725 0.0
H1380 H 0.0157 0.44634 0.10907 0.0
H1381 H 0.01332 0.44407 0.07534 0.0
H1382 H 1.00005 0.35941 0.11489 0.0
H1383 H 0.99314 0.35559 0.08239 0.0
H1384 H 0.997 0.37167 0.1483 0.0
H1385 H 0.00501 0.39358 0.16233 0.0
C1386 C 0.58765 0.60337 0.07154 0.0
C1387 C 0.60507 0.62017 0.07335 0.0
C1388 C 0.60822 0.61366 0.11892 0.0
C1389 C 0.59116 0.59653 0.11674 0.0
N1390 N 0.5657 0.57362 0.09071 0.0
N1391 N 0.63288 0.64079 0.09747 0.0
C1392 C 0.58118 0.59096 0.09293 0.0
C1393 C 0.61568 0.62511 0.09665 0.0
N1394 N 0.57718 0.59944 0.0495 0.0
N1395 N 0.61697 0.61923 0.14259 0.0
H1396 H 0.63829 0.65033 0.08237 0.0
H1397 H 0.64228 0.644 0.11252 0.0
H1398 H 0.61235 0.61091 0.15909 0.0
H1399 H 0.62821 0.63247 0.1465 0.0
H1400 H 0.56353 0.58861 0.04794 0.0
H1401 H 0.58178 0.60771 0.03297 0.0
H1402 H 0.55883 0.56777 0.07319 0.0
H1403 H 0.56032 0.5644 0.10621 0.0
C1404 C 0.41113 0.99613 0.07792 0.0
C1405 C 0.39517 0.99764 0.08021 0.0
C1406 C 0.40119 0.00477 0.12691 0.0
C1407 C 0.41749 0.00394 0.12448 0.0
N1408 N 0.44033 0.00328 0.09678 0.0
N1409 N 0.37843 0.00903 0.10506 0.0
C1410 C 0.42318 0.00095 0.09967 0.0
C1411 C 0.39133 0.00384 0.10408 0.0
N1412 N 0.4147 0.98998 0.05499 0.0
N1413 N 0.39451 0.00541 0.15108 0.0
H1414 H 0.3712 0.00902 0.08871 0.0
H1415 H 0.37635 0.01527 0.12147 0.0
H1416 H 0.40101 0.00565 0.16841 0.0
H1417 H 0.3816 0.0039 0.15401 0.0
H1418 H 0.42473 0.98636 0.05301 0.0
H1419 H 0.40696 0.98763 0.03813 0.0
H1420 H 0.44605 0.00315 0.07874 0.0
H1421 H 0.44959 0.00705 0.11226 0.0
C1422 C 0.40637 0.99227 0.95332 0.0
C1423 C 0.39037 0.99375 0.95362 0.0
C1424 C 0.39744 0.00641 0.90949 0.0
C1425 C 0.4128 0.00388 0.90863 0.0
N1426 N 0.43012 0.99142 0.92746 0.0
N1427 N 0.36836 0.99816 0.93011 0.0
C1428 C 0.41673 0.99589 0.92989 0.0
C1429 C 0.38524 0.99968 0.93115 0.0
N1430 N 0.41212 0.98817 0.97572 0.0
N1431 N 0.39483 0.01575 0.88998 0.0
H1432 H 0.35895 0.9931 0.9455 0.0
H1433 H 0.36304 1.00041 0.91325 0.0
H1434 H 0.40329 0.02065 0.87355 0.0
H1435 H 0.38517 0.01992 0.89103 0.0
H1436 H 0.42479 0.98903 0.97757 0.0
H1437 H 0.40484 0.98529 0.99319 0.0
H1438 H 0.4323 0.98372 0.94116 0.0
H1439 H 0.43811 0.99408 0.91066 0.0
C1440 C 0.99385 0.40655 0.94975 0.0
C1441 C 0.99634 0.39101 0.94739 0.0
C1442 C 0.00377 0.39757 0.90101 0.0
C1443 C 0.00234 0.4137 0.90374 0.0
N1444 N 1.0002 0.43592 0.93186 0.0
N1445 N 0.00841 0.37479 0.92242 0.0
C1446 C 0.99861 0.4189 0.92849 0.0
C1447 C 0.0029 0.38754 0.92359 0.0
N1448 N 0.98681 0.40948 0.97223 0.0
N1449 N 0.00496 0.3912 0.87672 0.0
H1450 H 0.00812 0.36716 0.9384 0.0
H1451 H 0.01501 0.37313 0.90623 0.0
H1452 H 0.00517 0.39781 0.85956 0.0
H1453 H 0.00393 0.37837 0.87341 0.0
H1454 H 0.98255 0.41912 0.97395 0.0
H1455 H 0.98418 0.40148 0.98882 0.0
H1456 H 0.99956 0.44136 0.95003 0.0
H1457 H 0.00391 0.44542 0.91679 0.0
C1458 C 0.61271 0.63093 0.92168 0.0
C1459 C 0.60627 0.62304 0.94656 0.0
C1460 C 0.58277 0.59355 0.92621 0.0
C1461 C 0.58777 0.6022 0.90153 0.0
N1462 N 0.60701 0.62892 0.87504 0.0
N1463 N 0.58558 0.59723 0.97341 0.0
C1464 C 0.60275 0.6208 0.89902 0.0
C1465 C 0.59152 0.60437 0.94908 0.0
N1466 N 0.62848 0.64803 0.91983 0.0
N1467 N 0.56977 0.57499 0.92763 0.0
H1468 H 0.59239 0.60442 0.99044 0.0
H1469 H 0.57358 0.58457 0.97695 0.0
H1470 H 0.56283 0.56681 0.91128 0.0
H1471 H 0.56667 0.5673 0.9446 0.0
H1472 H 0.63507 0.65384 0.9023 0.0
H1473 H 0.63587 0.65591 0.93615 0.0
H1474 H 0.61625 0.64304 0.87216 0.0
H1475 H 0.60055 0.62169 0.85784 0.0
C1476 C 1.0013 0.59693 0.95697 0.0
C1477 C 0.00235 0.61434 0.9548 0.0
C1478 C 0.99566 0.60867 0.90799 0.0
C1479 C 0.99324 0.59067 0.91053 0.0
N1480 N 0.99115 0.56643 0.9376 0.0
N1481 N 0.99819 0.63595 0.92955 0.0
C1482 C 0.99539 0.58446 0.93508 0.0
C1483 C 0.99878 0.61994 0.93069 0.0
N1484 N 0.00613 0.59243 0.97989 0.0
N1485 N 0.99571 0.61527 0.88374 0.0
H1486 H 1.00123 0.64503 0.94548 0.0
H1487 H 0.99347 0.63962 0.91337 0.0
H1488 H 0.99349 0.60746 0.8666 0.0
H1489 H 0.99942 0.629 0.88031 0.0
H1490 H 0.00764 0.58094 0.98193 0.0
H1491 H 0.00984 0.6009 0.99662 0.0
H1492 H 0.99049 0.56038 0.95545 0.0
H1493 H 0.9869 0.55697 0.92193 0.0
C1494 C 0.40445 0.40044 0.95917 0.0
C1495 C 0.39668 0.3811 0.95379 0.0
C1496 C 0.40384 0.38763 0.90721 0.0
C1497 C 0.40987 0.40665 0.91239 0.0
N1498 N 0.41426 0.43111 0.94245 0.0
N1499 N 0.38773 0.35587 0.9225 0.0
C1500 C 0.40965 0.41303 0.93814 0.0
C1501 C 0.39618 0.37459 0.92777 0.0
N1502 N 0.40786 0.40691 0.98444 0.0
N1503 N 0.40563 0.38206 0.88261 0.0
H1504 H 0.3827 0.34584 0.93692 0.0
H1505 H 0.38461 0.35007 0.90375 0.0
H1506 H 0.41016 0.3909 0.86665 0.0
H1507 H 0.40378 0.36901 0.87819 0.0
H1508 H 0.41514 0.421 0.98963 0.0
H1509 H 0.40506 0.39821 0.00027 0.0
H1510 H 0.41225 0.43605 0.96024 0.0
H1511 H 0.41895 0.44095 0.92771 0.0
C1512 C 0.61369 0.99312 0.92456 0.0
C1513 C 0.61044 0.99995 0.9483 0.0
C1514 C 0.58359 0.99884 0.92828 0.0
C1515 C 0.58936 0.99596 0.90345 0.0
N1516 N 0.61177 0.99294 0.87752 0.0
N1517 N 0.59194 0.00916 0.97319 0.0
C1518 C 0.60481 0.99359 0.90144 0.0
C1519 C 0.59521 0.00269 0.9503 0.0
N1520 N 0.62507 0.98604 0.92396 0.0
N1521 N 0.5668 0.99738 0.93091 0.0
H1522 H 0.59929 0.01088 0.99028 0.0
H1523 H 0.58256 0.01367 0.97489 0.0
H1524 H 0.55777 0.99412 0.91525 0.0
H1525 H 0.56104 0.99756 0.94889 0.0
H1526 H 0.62663 0.97948 0.90748 0.0
H1527 H 0.63122 0.98471 0.94063 0.0
H1528 H 0.62418 0.99326 0.87516 0.0
H1529 H 0.60621 0.99397 0.86 0.0
C1530 C 0.59499 0.99465 0.07172 0.0
C1531 C 0.61432 0.00256 0.0743 0.0
C1532 C 0.61164 0.00208 0.12202 0.0
C1533 C 0.59222 0.99353 0.11947 0.0
N1534 N 0.56491 0.97968 0.09263 0.0
N1535 N 0.64096 0.0114 0.10103 0.0
C1536 C 0.58374 0.98924 0.09449 0.0
C1537 C 0.62264 0.00562 0.09923 0.0
N1538 N 0.58749 0.99271 0.04749 0.0
N1539 N 0.61957 0.00712 0.14625 0.0
H1540 H 0.64948 0.01443 0.08473 0.0
H1541 H 0.6475 0.0119 0.11839 0.0
H1542 H 0.61193 0.00408 0.16345 0.0
H1543 H 0.63373 0.01529 0.14939 0.0
H1544 H 0.57392 0.98911 0.04421 0.0
H1545 H 0.5952 0.99566 0.03037 0.0
H1546 H 0.5577 0.97425 0.07523 0.0
H1547 H 0.55628 0.97616 0.10886 0.0
C1548 C 0.01166 0.6211 0.1044 0.0
C1549 C 0.00317 0.61428 0.0796 0.0
C1550 C 0.98533 0.58248 0.09661 0.0
C1551 C 0.99467 0.58912 0.12083 0.0
N1552 N 0.01718 0.61431 0.1481 0.0
N1553 N 0.9842 0.5883 0.05065 0.0
C1554 C 0.00795 0.60833 0.12481 0.0
C1555 C 0.99047 0.59493 0.07536 0.0
N1556 N 0.02289 0.63987 0.10864 0.0
N1557 N 0.97149 0.56426 0.09398 0.0
H1558 H 0.98779 0.59685 0.03447 0.0
H1559 H 0.97666 0.57419 0.04564 0.0
H1560 H 0.96802 0.5545 0.10861 0.0
H1561 H 0.9626 0.55903 0.07802 0.0
H1562 H 0.02762 0.64606 0.12693 0.0
H1563 H 0.02679 0.64962 0.09394 0.0
H1564 H 0.02871 0.62749 0.15126 0.0
H1565 H 0.01387 0.60578 0.16428 0.0
C1566 C 0.41028 0.39893 0.07839 0.0
C1567 C 0.403 0.37931 0.07769 0.0
C1568 C 0.4227 0.3831 0.11473 0.0
C1569 C 0.42612 0.40131 0.11962 0.0
N1570 N 0.43521 0.42863 0.09441 0.0
N1571 N 0.40084 0.35245 0.09844 0.0
C1572 C 0.42322 0.41009 0.09826 0.0
C1573 C 0.40881 0.37133 0.09679 0.0
N1574 N 0.40514 0.40709 0.06015 0.0
N1575 N 0.43475 0.37815 0.12343 0.0
H1576 H 0.38971 0.34306 0.08681 0.0
H1577 H 0.40409 0.34631 0.11337 0.0
H1578 H 0.44717 0.38787 0.13242 0.0
H1579 H 0.43364 0.36548 0.11834 0.0
H1580 H 0.4084 0.42089 0.06179 0.0
H1581 H 0.39666 0.39989 0.04433 0.0
H1582 H 0.43506 0.43563 0.07791 0.0
H1583 H 0.44704 0.43622 0.10586 0.0
C1584 C 0.66123 0.73693 0.40883 0.0
C1585 C 0.66152 0.72013 0.40976 0.0
C1586 C 0.66369 0.72249 0.45753 0.0
C1587 C 0.66368 0.73943 0.45656 0.0
N1588 N 0.66539 0.76449 0.43195 0.0
N1589 N 0.6658 0.69819 0.43402 0.0
C1590 C 0.66333 0.74717 0.43236 0.0
C1591 C 0.66371 0.71336 0.43383 0.0
N1592 N 0.65872 0.74295 0.38543 0.0
N1593 N 0.66292 0.71477 0.48117 0.0
H1594 H 0.66483 0.69046 0.41728 0.0
H1595 H 0.66965 0.69388 0.45046 0.0
H1596 H 0.66342 0.72128 0.49897 0.0
H1597 H 0.66065 0.70141 0.48335 0.0
H1598 H 0.65612 0.75375 0.38359 0.0
H1599 H 0.65843 0.73656 0.3676 0.0
H1600 H 0.66714 0.77187 0.41499 0.0
H1601 H 0.66666 0.7722 0.44889 0.0
C1602 C 0.26296 0.92709 0.40303 0.0
C1603 C 0.2774 0.94597 0.4057 0.0
C1604 C 0.27794 0.94246 0.45302 0.0
C1605 C 0.26444 0.92323 0.45009 0.0
N1606 N 0.24641 0.89639 0.42218 0.0
N1607 N 0.3005 0.97118 0.43234 0.0
C1608 C 0.25762 0.91528 0.42502 0.0
C1609 C 0.28555 0.95348 0.43042 0.0
N1610 N 0.25406 0.92055 0.37965 0.0
N1611 N 0.28277 0.95042 0.47744 0.0
H1612 H 0.30587 0.98009 0.41651 0.0
H1613 H 0.30839 0.97663 0.44923 0.0
H1614 H 0.27745 0.94292 0.49454 0.0
H1615 H 0.29089 0.96474 0.48085 0.0
H1616 H 0.24215 0.90754 0.37716 0.0
H1617 H 0.25774 0.92873 0.36305 0.0
H1618 H 0.2425 0.88951 0.40414 0.0
H1619 H 0.24228 0.88735 0.43791 0.0
C1620 C 0.07579 0.32586 0.40837 0.0
C1621 C 0.06312 0.33222 0.40832 0.0
C1622 C 0.07353 0.34579 0.45235 0.0
C1623 C 0.08422 0.33714 0.45355 0.0
N1624 N 0.09548 0.31865 0.43338 0.0
N1625 N 0.0504 0.34917 0.42973 0.0
C1626 C 0.0854 0.32716 0.43169 0.0
C1627 C 0.06237 0.34276 0.42997 0.0
N1628 N 0.07924 0.31933 0.38565 0.0
N1629 N 0.07406 0.3569 0.47269 0.0
H1630 H 0.04323 0.34892 0.41322 0.0
H1631 H 0.04698 0.35424 0.44617 0.0
H1632 H 0.08087 0.35835 0.49022 0.0
H1633 H 0.06866 0.36559 0.47188 0.0
H1634 H 0.08961 0.31619 0.38356 0.0
H1635 H 0.07296 0.31884 0.36801 0.0
H1636 H 0.09498 0.30914 0.41951 0.0
H1637 H 0.10367 0.32027 0.44949 0.0
C1638 C 0.0755 0.32861 0.28139 0.0
C1639 C 0.0588 0.32881 0.28081 0.0
C1640 C 0.06166 0.33322 0.23339 0.0
C1641 C 0.07833 0.33299 0.23401 0.0
N1642 N 0.10281 0.33343 0.25823 0.0
N1643 N 0.03701 0.33367 0.25752 0.0
C1644 C 0.08578 0.33161 0.25796 0.0
C1645 C 0.05226 0.33196 0.25717 0.0
N1646 N 0.08129 0.3252 0.30434 0.0
N1647 N 0.05455 0.33402 0.20989 0.0
H1648 H 0.02917 0.33179 0.27426 0.0
H1649 H 0.03266 0.33808 0.24173 0.0
H1650 H 0.06146 0.33581 0.19222 0.0
H1651 H 0.04145 0.33204 0.2075 0.0
H1652 H 0.09205 0.32264 0.30581 0.0
H1653 H 0.07475 0.32413 0.32212 0.0
H1654 H 0.10998 0.33445 0.27517 0.0
H1655 H 0.11048 0.33519 0.24134 0.0
C1656 C 0.66233 0.73658 0.27906 0.0
C1657 C 0.67091 0.72609 0.28373 0.0
C1658 C 0.69355 0.74387 0.24975 0.0
C1659 C 0.68263 0.75129 0.24168 0.0
N1660 N 0.65402 0.75116 0.24614 0.0
N1661 N 0.69326 0.71779 0.26947 0.0
C1662 C 0.6663 0.74673 0.25566 0.0
C1663 C 0.68624 0.72925 0.2681 0.0
N1664 N 0.65095 0.73754 0.29732 0.0
N1665 N 0.71101 0.75098 0.24023 0.0
H1666 H 0.68788 0.70623 0.28142 0.0
H1667 H 0.70324 0.71861 0.25654 0.0
H1668 H 0.71706 0.76217 0.22749 0.0
H1669 H 0.72009 0.74714 0.24727 0.0
H1670 H 0.64562 0.74626 0.29547 0.0
H1671 H 0.6488 0.73158 0.31568 0.0
H1672 H 0.64115 0.7465 0.25465 0.0
H1673 H 0.65573 0.75767 0.22833 0.0
C1674 C 0.28539 0.95516 0.254 0.0
C1675 C 0.28136 0.94738 0.27924 0.0
C1676 C 0.26347 0.91583 0.2602 0.0
C1677 C 0.26596 0.92375 0.23515 0.0
N1678 N 0.27856 0.95065 0.2076 0.0
N1679 N 0.26666 0.92075 0.30721 0.0
C1680 C 0.2768 0.94335 0.23186 0.0
C1681 C 0.27057 0.9278 0.28257 0.0
N1682 N 0.29787 0.97377 0.25128 0.0
N1683 N 0.25446 0.89687 0.26249 0.0
H1684 H 0.27251 0.92903 0.32388 0.0
H1685 H 0.25709 0.90693 0.31141 0.0
H1686 H 0.24836 0.88767 0.2467 0.0
H1687 H 0.25385 0.89013 0.27965 0.0
H1688 H 0.30295 0.98012 0.2334 0.0
H1689 H 0.30438 0.98275 0.26717 0.0
H1690 H 0.28439 0.96481 0.20419 0.0
H1691 H 0.27328 0.94243 0.19072 0.0
C1692 C 0.6787 0.95996 0.26552 0.0
C1693 C 0.68422 0.95519 0.28878 0.0
C1694 C 0.68822 0.93194 0.26455 0.0
C1695 C 0.68195 0.93615 0.24159 0.0
N1696 N 0.66759 0.95115 0.22101 0.0
N1697 N 0.69009 0.93389 0.31176 0.0
C1698 C 0.676 0.94921 0.24236 0.0
C1699 C 0.68776 0.94034 0.28868 0.0
N1700 N 0.67702 0.97536 0.26518 0.0
N1701 N 0.69522 0.92041 0.26316 0.0
H1702 H 0.6895 0.93952 0.3298 0.0
H1703 H 0.69083 0.92189 0.31321 0.0
H1704 H 0.69542 0.91365 0.24595 0.0
H1705 H 0.70202 0.91858 0.27861 0.0
H1706 H 0.67501 0.98071 0.24818 0.0
H1707 H 0.67908 0.98375 0.28163 0.0
H1708 H 0.66118 0.95896 0.22123 0.0
H1709 H 0.66556 0.94359 0.20366 0.0
C1710 C 0.06425 0.7357 0.28599 0.0
C1711 C 0.05643 0.71632 0.28065 0.0
C1712 C 0.06407 0.72279 0.23416 0.0
C1713 C 0.07105 0.74201 0.23942 0.0
N1714 N 0.07509 0.76654 0.269 0.0
N1715 N 0.04655 0.69102 0.24927 0.0
C1716 C 0.07021 0.74837 0.26493 0.0
C1717 C 0.05571 0.70976 0.2546 0.0
N1718 N 0.06715 0.74215 0.31126 0.0
N1719 N 0.06579 0.71705 0.20964 0.0
H1720 H 0.04086 0.681 0.26368 0.0
H1721 H 0.04341 0.68527 0.23049 0.0
H1722 H 0.07073 0.72589 0.1937 0.0
H1723 H 0.06333 0.70376 0.20526 0.0
H1724 H 0.07457 0.75624 0.31647 0.0
H1725 H 0.06363 0.73345 0.32724 0.0
H1726 H 0.07279 0.77157 0.28649 0.0
H1727 H 0.08016 0.77635 0.2542 0.0
C1728 C 0.27935 0.32918 0.26142 0.0
C1729 C 0.2769 0.33814 0.28365 0.0
C1730 C 0.25213 0.33959 0.26128 0.0
C1731 C 0.25499 0.33126 0.2388 0.0
N1732 N 0.26866 0.31502 0.21842 0.0
N1733 N 0.25771 0.34684 0.30751 0.0
C1734 C 0.2677 0.32497 0.23926 0.0
C1735 C 0.26229 0.34184 0.28437 0.0
N1736 N 0.29337 0.32553 0.2609 0.0
N1737 N 0.23998 0.34576 0.26031 0.0
H1738 H 0.26456 0.34808 0.32492 0.0
H1739 H 0.2461 0.34798 0.31011 0.0
H1740 H 0.23145 0.34331 0.24429 0.0
H1741 H 0.239 0.35413 0.27476 0.0
H1742 H 0.29768 0.32166 0.24411 0.0
H1743 H 0.30138 0.32706 0.2771 0.0
H1744 H 0.27593 0.30808 0.21859 0.0
H1745 H 0.26118 0.31259 0.20126 0.0
C1746 C 0.28861 0.33971 0.43455 0.0
C1747 C 0.28164 0.34254 0.41109 0.0
C1748 C 0.25437 0.33854 0.43446 0.0
C1749 C 0.26234 0.33779 0.45826 0.0
N1750 N 0.2874 0.33888 0.48191 0.0
N1751 N 0.2584 0.34535 0.38825 0.0
C1752 C 0.27949 0.33852 0.45856 0.0
C1753 C 0.26461 0.34209 0.41091 0.0
N1754 N 0.30399 0.33824 0.43388 0.0
N1755 N 0.23684 0.33547 0.43439 0.0
H1756 H 0.2649 0.34678 0.37034 0.0
H1757 H 0.24737 0.34753 0.38725 0.0
H1758 H 0.22906 0.33306 0.45137 0.0
H1759 H 0.2294 0.3339 0.4175 0.0
H1760 H 0.30855 0.33402 0.44965 0.0
H1761 H 0.31164 0.34004 0.41697 0.0
H1762 H 0.30083 0.34163 0.48379 0.0
H1763 H 0.28095 0.33758 0.49985 0.0
C1764 C 0.66807 0.95111 0.43753 0.0
C1765 C 0.67652 0.94887 0.4148 0.0
C1766 C 0.67363 0.92054 0.43309 0.0
C1767 C 0.66784 0.9245 0.45716 0.0
N1768 N 0.66283 0.94562 0.48384 0.0
N1769 N 0.68842 0.93196 0.39129 0.0
C1770 C 0.66587 0.94031 0.4598 0.0
C1771 C 0.67966 0.93374 0.41272 0.0
N1772 N 0.66193 0.96336 0.43792 0.0
N1773 N 0.67273 0.90386 0.42939 0.0
H1774 H 0.69196 0.94055 0.37518 0.0
H1775 H 0.69312 0.92265 0.39011 0.0
H1776 H 0.66813 0.89376 0.44377 0.0
H1777 H 0.67491 0.8993 0.41141 0.0
H1778 H 0.65406 0.96412 0.45313 0.0
H1779 H 0.66295 0.97138 0.42201 0.0
H1780 H 0.66333 0.95818 0.48732 0.0
H1781 H 0.66165 0.93844 0.50086 0.0
C1782 C 0.07308 0.70565 0.4226 0.0
C1783 C 0.06678 0.71383 0.40455 0.0
C1784 C 0.08674 0.74424 0.42623 0.0
C1785 C 0.09012 0.73514 0.44667 0.0
N1786 N 0.09934 0.71233 0.44843 0.0
N1787 N 0.06804 0.74168 0.38909 0.0
C1788 C 0.08705 0.71719 0.44056 0.0
C1789 C 0.07365 0.73335 0.40635 0.0
N1790 N 0.06545 0.68678 0.4233 0.0
N1791 N 0.09851 0.76287 0.42287 0.0
H1792 H 0.05947 0.7347 0.37326 0.0
H1793 H 0.07102 0.75534 0.3916 0.0
H1794 H 0.11065 0.77029 0.43374 0.0
H1795 H 0.09793 0.77015 0.40698 0.0
H1796 H 0.06904 0.68044 0.43753 0.0
H1797 H 0.05425 0.67749 0.4117 0.0
H1798 H 0.09849 0.69992 0.44242 0.0
H1799 H 0.11164 0.7219 0.45782 0.0
C1800 C 0.33443 0.07343 0.74357 0.0
C1801 C 0.33292 0.05574 0.74339 0.0
C1802 C 0.33393 0.05621 0.79118 0.0
C1803 C 0.3351 0.07376 0.79136 0.0
N1804 N 0.34039 0.10097 0.76855 0.0
N1805 N 0.33533 0.03209 0.76593 0.0
C1806 C 0.33665 0.083 0.76774 0.0
C1807 C 0.33407 0.04774 0.76691 0.0
N1808 N 0.3332 0.08077 0.72061 0.0
N1809 N 0.33188 0.04731 0.81419 0.0
H1810 H 0.33515 0.02541 0.74844 0.0
H1811 H 0.33802 0.02655 0.78213 0.0
H1812 H 0.33232 0.05334 0.83239 0.0
H1813 H 0.32872 0.03356 0.81535 0.0
H1814 H 0.332 0.0925 0.71938 0.0
H1815 H 0.33258 0.07452 0.70256 0.0
H1816 H 0.34343 0.10921 0.75215 0.0
H1817 H 0.34186 0.10824 0.78601 0.0
C1818 C 0.92468 0.26624 0.74277 0.0
C1819 C 0.94375 0.28012 0.74305 0.0
C1820 C 0.9471 0.26881 0.78542 0.0
C1821 C 0.92766 0.25692 0.78664 0.0
N1822 N 0.8976 0.24454 0.76734 0.0
N1823 N 0.97341 0.29482 0.76472 0.0
C1824 C 0.91636 0.25563 0.76548 0.0
C1825 C 0.95513 0.28127 0.76419 0.0
N1826 N 0.91467 0.26267 0.72034 0.0
N1827 N 0.9579 0.26815 0.80459 0.0
H1828 H 0.98025 0.30352 0.74915 0.0
H1829 H 0.98176 0.29817 0.78114 0.0
H1830 H 0.95251 0.25989 0.82105 0.0
H1831 H 0.9722 0.27471 0.80343 0.0
H1832 H 0.90125 0.25148 0.71796 0.0
H1833 H 0.9204 0.26978 0.70309 0.0
H1834 H 0.88847 0.24485 0.75416 0.0
H1835 H 0.89104 0.23571 0.78299 0.0
C1836 C 0.70688 0.64428 0.76821 0.0
C1837 C 0.71442 0.65248 0.74368 0.0
C1838 C 0.7452 0.67103 0.76345 0.0
C1839 C 0.73781 0.66224 0.78761 0.0
N1840 N 0.71227 0.63918 0.81291 0.0
N1841 N 0.74115 0.67062 0.7166 0.0
C1842 C 0.71884 0.64844 0.78993 0.0
C1843 C 0.73369 0.6651 0.74094 0.0
N1844 N 0.68821 0.63308 0.77107 0.0
N1845 N 0.76321 0.68519 0.76209 0.0
H1846 H 0.7333 0.66622 0.69954 0.0
H1847 H 0.75528 0.67815 0.71297 0.0
H1848 H 0.77234 0.68923 0.77777 0.0
H1849 H 0.76883 0.69374 0.74599 0.0
H1850 H 0.68162 0.62878 0.78902 0.0
H1851 H 0.67896 0.6289 0.75559 0.0
H1852 H 0.69927 0.62733 0.81496 0.0
H1853 H 0.72022 0.64263 0.82983 0.0
C1854 C 0.73067 0.64734 0.62034 0.0
C1855 C 0.71619 0.65112 0.61817 0.0
C1856 C 0.72492 0.66054 0.57285 0.0
C1857 C 0.73789 0.65462 0.57408 0.0
N1858 N 0.75211 0.64073 0.5979 0.0
N1859 N 0.69768 0.65879 0.59159 0.0
C1860 C 0.74058 0.64765 0.59758 0.0
C1861 C 0.71288 0.65718 0.59426 0.0
N1862 N 0.73523 0.64393 0.64428 0.0
N1863 N 0.72435 0.66967 0.55134 0.0
H1864 H 0.68846 0.65638 0.60679 0.0
H1865 H 0.69339 0.6611 0.5738 0.0
H1866 H 0.73291 0.6723 0.5352 0.0
H1867 H 0.7166 0.67609 0.55044 0.0
H1868 H 0.74686 0.64301 0.64763 0.0
H1869 H 0.72822 0.64356 0.66135 0.0
H1870 H 0.75307 0.6335 0.61354 0.0
H1871 H 0.75986 0.64105 0.58173 0.0
C1872 C 0.33265 0.05192 0.58999 0.0
C1873 C 0.33217 0.05926 0.61499 0.0
C1874 C 0.34178 0.08958 0.59585 0.0
C1875 C 0.34042 0.08171 0.57062 0.0
N1876 N 0.33203 0.05477 0.54306 0.0
N1877 N 0.33407 0.08419 0.64177 0.0
C1878 C 0.33529 0.06273 0.5675 0.0
C1879 C 0.33612 0.07786 0.61794 0.0
N1880 N 0.33053 0.03461 0.58774 0.0
N1881 N 0.34893 0.10836 0.59869 0.0
H1882 H 0.33037 0.07611 0.65844 0.0
H1883 H 0.3347 0.09685 0.64469 0.0
H1884 H 0.35322 0.11734 0.58288 0.0
H1885 H 0.35207 0.1153 0.6167 0.0
H1886 H 0.33288 0.02937 0.57049 0.0
H1887 H 0.32766 0.02588 0.60359 0.0
H1888 H 0.32622 0.04052 0.53963 0.0
H1889 H 0.33372 0.06214 0.52606 0.0
C1890 C 0.95364 0.29105 0.59229 0.0
C1891 C 0.94508 0.28351 0.61658 0.0
C1892 C 0.924 0.25341 0.59527 0.0
C1893 C 0.93175 0.26131 0.57078 0.0
N1894 N 0.95227 0.28795 0.54501 0.0
N1895 N 0.92117 0.25842 0.64147 0.0
C1896 C 0.94615 0.28023 0.56902 0.0
C1897 C 0.92996 0.26493 0.61814 0.0
N1898 N 0.96907 0.30848 0.59157 0.0
N1899 N 0.91135 0.23474 0.59669 0.0
H1900 H 0.92574 0.26616 0.65882 0.0
H1901 H 0.90878 0.24584 0.64351 0.0
H1902 H 0.90638 0.22596 0.58028 0.0
H1903 H 0.90664 0.22761 0.61414 0.0
H1904 H 0.97727 0.31397 0.57507 0.0
H1905 H 0.97449 0.31711 0.60806 0.0
H1906 H 0.96128 0.30212 0.54214 0.0
H1907 H 0.94734 0.28036 0.52756 0.0
C1908 C 0.35338 0.27176 0.62064 0.0
C1909 C 0.34895 0.28597 0.62063 0.0
C1910 C 0.34025 0.27934 0.57449 0.0
C1911 C 0.34684 0.2668 0.57372 0.0
N1912 N 0.3613 0.25216 0.59508 0.0
N1913 N 0.34056 0.30521 0.59702 0.0
C1914 C 0.35376 0.26321 0.59657 0.0
C1915 C 0.34288 0.2902 0.59746 0.0
N1916 N 0.35677 0.26614 0.64374 0.0
N1917 N 0.33122 0.28063 0.55336 0.0
H1918 H 0.34241 0.31358 0.61342 0.0
H1919 H 0.33817 0.31025 0.58 0.0
H1920 H 0.32915 0.27294 0.53612 0.0
H1921 H 0.32437 0.288 0.55372 0.0
H1922 H 0.35819 0.25456 0.64538 0.0
H1923 H 0.35661 0.27213 0.66173 0.0
H1924 H 0.3685 0.25073 0.61035 0.0
H1925 H 0.36149 0.24537 0.57789 0.0
C1926 C 0.72545 0.04286 0.591 0.0
C1927 C 0.72555 0.0501 0.61632 0.0
C1928 C 0.74442 0.08198 0.60003 0.0
C1929 C 0.74241 0.07465 0.57425 0.0
N1930 N 0.72794 0.04824 0.54448 0.0
N1931 N 0.73389 0.07656 0.64495 0.0
C1932 C 0.73208 0.05511 0.56952 0.0
C1933 C 0.73458 0.06969 0.6208 0.0
N1934 N 0.71936 0.02435 0.58742 0.0
N1935 N 0.75638 0.10055 0.60484 0.0
H1936 H 0.728 0.06816 0.66118 0.0
H1937 H 0.73821 0.09051 0.64861 0.0
H1938 H 0.764 0.10993 0.59019 0.0
H1939 H 0.75999 0.10642 0.62353 0.0
H1940 H 0.72076 0.01871 0.56987 0.0
H1941 H 0.71447 0.01487 0.60259 0.0
H1942 H 0.71878 0.03424 0.53995 0.0
H1943 H 0.73219 0.05676 0.52817 0.0
C1944 C 0.94808 0.66599 0.60572 0.0
C1945 C 0.94734 0.67704 0.62659 0.0
C1946 C 0.92277 0.67888 0.60432 0.0
C1947 C 0.92417 0.66872 0.58285 0.0
N1948 N 0.93564 0.64991 0.56425 0.0
N1949 N 0.93069 0.68921 0.64945 0.0
C1950 C 0.93596 0.66131 0.58402 0.0
C1951 C 0.93366 0.68205 0.62697 0.0
N1952 N 0.96092 0.6607 0.60606 0.0
N1953 N 0.91132 0.68586 0.60275 0.0
H1954 H 0.93805 0.6911 0.66661 0.0
H1955 H 0.91985 0.69162 0.652 0.0
H1956 H 0.90227 0.68281 0.58719 0.0
H1957 H 0.91135 0.69537 0.61617 0.0
H1958 H 0.96415 0.65509 0.59004 0.0
H1959 H 0.96895 0.66239 0.62232 0.0
H1960 H 0.94213 0.64222 0.5651 0.0
H1961 H 0.92798 0.64719 0.5472 0.0
C1962 C 0.96165 0.705 0.76913 0.0
C1963 C 0.95521 0.69 0.75072 0.0
C1964 C 0.92957 0.67067 0.78013 0.0
C1965 C 0.93444 0.68653 0.79632 0.0
N1966 N 0.95275 0.72004 0.80181 0.0
N1967 N 0.93 0.65989 0.73622 0.0
C1968 C 0.94977 0.7041 0.78949 0.0
C1969 C 0.9383 0.67316 0.75547 0.0
N1970 N 0.97939 0.71971 0.76812 0.0
N1971 N 0.91717 0.65316 0.78855 0.0
H1972 H 0.93513 0.6616 0.71726 0.0
H1973 H 0.91687 0.64816 0.73829 0.0
H1974 H 0.91111 0.65059 0.80699 0.0
H1975 H 0.91452 0.64114 0.77831 0.0
H1976 H 0.98502 0.73013 0.78254 0.0
H1977 H 0.9891 0.72032 0.75486 0.0
H1978 H 0.96287 0.73329 0.79582 0.0
H1979 H 0.94385 0.72012 0.81598 0.0
C1980 C 0.33402 0.26259 0.74188 0.0
C1981 C 0.34593 0.28203 0.74662 0.0
C1982 C 0.34934 0.27603 0.79241 0.0
C1983 C 0.33617 0.25684 0.78813 0.0
N1984 N 0.31453 0.23184 0.75992 0.0
N1985 N 0.36394 0.30763 0.77669 0.0
C1986 C 0.32807 0.25012 0.76318 0.0
C1987 C 0.35346 0.28885 0.77192 0.0
N1988 N 0.32921 0.25596 0.71682 0.0
N1989 N 0.358 0.28199 0.81609 0.0
H1990 H 0.36799 0.31754 0.76218 0.0
H1991 H 0.36773 0.31362 0.79528 0.0
H1992 H 0.35454 0.27337 0.83218 0.0
H1993 H 0.36942 0.29522 0.81951 0.0
H1994 H 0.32222 0.24185 0.71174 0.0
H1995 H 0.33365 0.26456 0.70061 0.0
H1996 H 0.30645 0.22656 0.74316 0.0
H1997 H 0.3105 0.22207 0.77468 0.0
C1998 C 0.73882 0.06747 0.73824 0.0
C1999 C 0.72024 0.05247 0.73979 0.0
C2000 C 0.71798 0.06172 0.78479 0.0
C2001 C 0.73642 0.07692 0.78304 0.0
N2002 N 0.76373 0.09606 0.75774 0.0
N2003 N 0.6912 0.03653 0.76272 0.0
C2004 C 0.74666 0.08032 0.75962 0.0
C2005 C 0.70951 0.05001 0.76251 0.0
N2006 N 0.74899 0.06933 0.71634 0.0
N2007 N 0.70881 0.05814 0.80809 0.0
H2008 H 0.68474 0.02687 0.74753 0.0
H2009 H 0.68204 0.03549 0.77723 0.0
H2010 H 0.71426 0.06678 0.82456 0.0
H2011 H 0.69624 0.04607 0.81175 0.0
H2012 H 0.76316 0.07848 0.71497 0.0
H2013 H 0.74342 0.06107 0.69956 0.0
H2014 H 0.77124 0.10055 0.7405 0.0
H2015 H 0.77004 0.10548 0.77326 0.0
C2016 C 0.0457 0.36128 0.06723 0.0
C2017 C 0.04308 0.35768 0.03999 0.0
C2018 C 0.06809 0.35091 0.03881 0.0
C2019 C 0.06894 0.35208 0.06648 0.0
N2020 N 0.05701 0.35613 0.10753 0.0
N2021 N 0.05054 0.34762 -0.00025 0.0
C2022 C 0.0574 0.35677 0.08086 0.0
C2023 C 0.05407 0.35227 0.02566 0.0
N2024 N 0.03737 0.36952 0.07994 0.0
N2025 N 0.08086 0.34877 0.02517 0.0
H2026 H 0.04056 0.34867 0.98941 0.0
H2027 H 0.05659 0.34151 0.98891 0.0
H2028 H 0.09122 0.34763 0.03429 0.0
H2029 H 0.08218 0.34967 0.00495 0.0
H2030 H 0.04013 0.37419 0.09928 0.0
H2031 H 0.02908 0.37343 0.07035 0.0
H2032 H 0.04734 0.35727 0.11887 0.0
H2033 H 0.06539 0.35296 0.11837 0.0
C2034 C 0.64273 0.70232 0.05009 0.0
C2035 C 0.65568 0.69662 0.04469 0.0
C2036 C 0.67908 0.72413 0.06881 0.0
C2037 C 0.66685 0.73097 0.07123 0.0
N2038 N 0.63847 0.72853 0.05734 0.0
N2039 N 0.68815 0.70684 0.04079 0.0
C2040 C 0.64914 0.72072 0.05959 0.0
C2041 C 0.67448 0.70894 0.05155 0.0
N2042 N 0.62427 0.68998 0.04803 0.0
N2043 N 0.69464 0.73136 0.08376 0.0
H2044 H 0.68578 0.69726 0.02579 0.0
H2045 H 0.7021 0.7164 0.04416 0.0
H2046 H 0.69795 0.74152 0.09825 0.0
H2047 H 0.70302 0.72559 0.08384 0.0
H2048 H 0.61436 0.69318 0.05387 0.0
H2049 H 0.61896 0.67597 0.04394 0.0
H2050 H 0.62608 0.7221 0.047 0.0
H2051 H 0.64299 0.74221 0.06333 0.0
C2052 C 0.31998 0.96041 0.07809 0.0
C2053 C 0.31958 0.96522 0.0518 0.0
C2054 C 0.28707 0.94019 0.0482 0.0
C2055 C 0.28729 0.93612 0.07487 0.0
N2056 N 0.30279 0.9441 0.11658 0.0
N2057 N 0.30211 0.96207 0.01309 0.0
C2058 C 0.30341 0.9468 0.09024 0.0
C2059 C 0.30293 0.95574 0.03716 0.0
N2060 N 0.33639 0.96824 0.0911 0.0
N2061 N 0.27181 0.92896 0.03335 0.0
H2062 H 0.31339 0.97347 0.00443 0.0
H2063 H 0.28993 0.95708 0.00258 0.0
H2064 H 0.25977 0.91786 0.04108 0.0
H2065 H 0.27144 0.92984 0.01314 0.0
H2066 H 0.33807 0.96378 0.10915 0.0
H2067 H 0.34872 0.97824 0.08278 0.0
H2068 H 0.31339 0.95289 0.12932 0.0
H2069 H 0.2911 0.93387 0.12619 0.0
C2070 C 0.36432 0.04536 0.96105 0.0
C2071 C 0.35854 0.04069 0.98722 0.0
C2072 C 0.34665 0.06202 0.98769 0.0
C2073 C 0.35068 0.06506 0.96065 0.0
N2074 N 0.36408 0.05978 0.92159 0.0
N2075 N 0.34359 0.04366 0.0257 0.0
C2076 C 0.35977 0.05696 0.94744 0.0
C2077 C 0.34973 0.04896 0.00076 0.0
N2078 N 0.37405 0.03848 0.94877 0.0
N2079 N 0.34019 0.07188 0.00083 0.0
H2080 H 0.34608 0.03456 0.03605 0.0
H2081 H 0.3352 0.04741 0.03573 0.0
H2082 H 0.33776 0.08146 0.9917 0.0
H2083 H 0.33856 0.07174 0.021 0.0
H2084 H 0.37832 0.04139 0.92936 0.0
H2085 H 0.37838 0.0305 0.95832 0.0
H2086 H 0.36117 0.06792 0.90966 0.0
H2087 H 0.36117 0.06792 0.90966 0.0
C2088 C 0.95815 0.29884 0.99097 0.0
C2089 C 0.96709 0.31535 0.976 0.0
C2090 C 0.95066 0.29738 0.93673 0.0
C2091 C 0.94094 0.28114 0.95201 0.0
N2092 N 0.933 0.26668 0.99406 0.0
N2093 N 0.96926 0.33104 0.93602 0.0
C2094 C 0.94392 0.28197 0.9793 0.0
C2095 C 0.96262 0.3148 0.94924 0.0
N2096 N 0.9639 0.29903 0.0159 0.0
N2097 N 0.94885 0.29607 0.91014 0.0
H2098 H 0.97776 0.34399 0.94478 0.0
H2099 H 0.96499 0.33182 0.91734 0.0
H2100 H 0.9398 0.28369 0.90019 0.0
H2101 H 0.95726 0.30692 0.89771 0.0
H2102 H 0.95939 0.28705 0.02676 0.0
H2103 H 0.97436 0.311 0.02513 0.0
H2104 H 0.9331 0.26693 0.01438 0.0
H2105 H 0.92274 0.25403 0.98598 0.0
C2106 C 0.70018 0.65556 0.99236 0.0
C2107 C 0.68466 0.65262 0.97782 0.0
C2108 C 0.70132 0.65615 0.93693 0.0
C2109 C 0.71649 0.65808 0.95136 0.0
N2110 N 0.72919 0.65613 0.99223 0.0
N2111 N 0.66875 0.64564 0.93659 0.0
C2112 C 0.71554 0.65666 0.97894 0.0
C2113 C 0.68473 0.65157 0.95017 0.0
N2114 N 0.70069 0.65827 0.01881 0.0
N2115 N 0.70302 0.65949 0.91072 0.0
H2116 H 0.65622 0.64171 0.94573 0.0
H2117 H 0.66747 0.6428 0.91659 0.0
H2118 H 0.71493 0.66294 0.90015 0.0
H2119 H 0.69318 0.66041 0.89981 0.0
H2120 H 0.71244 0.66257 0.03008 0.0
H2121 H 0.68979 0.65765 0.02936 0.0
H2122 H 0.72841 0.6532 0.01202 0.0
H2123 H 0.74066 0.65702 0.98295 0.0
C2124 C 0.95719 0.66383 0.9826 0.0
C2125 C 0.95473 0.64588 0.98584 0.0
C2126 C 0.92407 0.63204 0.96572 0.0
C2127 C 0.92801 0.65008 0.95884 0.0
N2128 N 0.95105 0.68285 0.95473 0.0
N2129 N 0.93687 0.61281 0.97583 0.0
C2130 C 0.94535 0.66592 0.96556 0.0
C2131 C 0.93839 0.62988 0.97627 0.0
N2132 N 0.9704 0.67886 0.99646 0.0
N2133 N 0.90664 0.61703 0.96267 0.0
H2134 H 0.94732 0.6107 0.98215 0.0
H2135 H 0.926 0.60112 0.96669 0.0
H2136 H 0.89578 0.61819 0.95546 0.0
H2137 H 0.90262 0.60386 0.96966 0.0
H2138 H 0.97159 0.6919 0.99619 0.0
H2139 H 0.97856 0.6778 0.01065 0.0
H2140 H 0.96432 0.69431 0.95742 0.0
H2141 H 0.94346 0.6849 0.94067 0.0
C2142 C 0.34306 0.30737 0.95419 0.0
C2143 C 0.34571 0.30812 0.9817 0.0
C2144 C 0.34225 0.27711 0.97966 0.0
C2145 C 0.33825 0.27585 0.95268 0.0
N2146 N 0.33123 0.28802 0.91509 0.0
N2147 N 0.34266 0.29142 0.02127 0.0
C2148 C 0.33754 0.29046 0.9402 0.0
C2149 C 0.34395 0.29239 0.99466 0.0
N2150 N 0.34659 0.32297 0.94112 0.0
N2151 N 0.34463 0.26382 0.99093 0.0
H2152 H 0.34245 0.30162 0.03304 0.0
H2153 H 0.33959 0.27952 0.03151 0.0
H2154 H 0.34314 0.25224 0.98062 0.0
H2155 H 0.34959 0.26511 0.00987 0.0
H2156 H 0.34677 0.32368 0.92084 0.0
H2157 H 0.35131 0.3359 0.95015 0.0
H2158 H 0.32828 0.29722 0.906 0.0
H2159 H 0.32739 0.27598 0.90398 0.0
C2160 C 0.70027 0.04943 0.98897 0.0
C2161 C 0.6848 0.03537 0.97478 0.0
C2162 C 0.69983 0.05033 0.93373 0.0
C2163 C 0.71409 0.06551 0.94806 0.0
N2164 N 0.72695 0.08084 0.98934 0.0
N2165 N 0.66848 0.02431 0.93385 0.0
C2166 C 0.71406 0.06545 0.97572 0.0
C2167 C 0.68425 0.03626 0.94718 0.0
N2168 N 0.70226 0.0471 0.01483 0.0
N2169 N 0.70133 0.04916 0.90724 0.0
H2170 H 0.65664 0.01424 0.94313 0.0
H2171 H 0.66654 0.0256 0.91413 0.0
H2172 H 0.71254 0.0592 0.89661 0.0
H2173 H 0.69234 0.03741 0.89613 0.0
H2174 H 0.71414 0.05595 0.0255 0.0
H2175 H 0.69284 0.0353 0.02508 0.0
H2176 H 0.72639 0.08246 0.00948 0.0
H2177 H 0.73744 0.09266 0.98026 0.0
C2178 C 0.64971 0.96069 0.07191 0.0
C2179 C 0.65013 0.96038 0.04423 0.0
C2180 C 0.65625 0.93472 0.04504 0.0
C2181 C 0.65842 0.93693 0.07254 0.0
N2182 N 0.65982 0.95392 0.11201 0.0
N2183 N 0.6557 0.94849 0.00409 0.0
C2184 C 0.65576 0.95037 0.08599 0.0
C2185 C 0.65372 0.94763 0.03062 0.0
N2186 N 0.643 0.97044 0.08477 0.0
N2187 N 0.65639 0.92014 0.0328 0.0
H2188 H 0.65409 0.95781 0.99283 0.0
H2189 H 0.66036 0.94101 0.9934 0.0
H2190 H 0.6583 0.91052 0.04284 0.0
H2191 H 0.65304 0.91663 0.01318 0.0
H2192 H 0.64064 0.96969 0.10483 0.0
H2193 H 0.63793 0.97773 0.07508 0.0
H2194 H 0.66019 0.96505 0.12206 0.0
H2195 H 0.6644 0.94679 0.12317 0.0
C2196 C 0.02845 0.68956 0.07964 0.0
C2197 C 0.02968 0.68802 0.05206 0.0
C2198 C 0.05873 0.71827 0.05216 0.0
C2199 C 0.05643 0.72054 0.07911 0.0
N2200 N 0.03727 0.71009 0.11759 0.0
N2201 N 0.0437 0.70336 0.01146 0.0
C2202 C 0.04074 0.70669 0.09259 0.0
C2203 C 0.04426 0.70299 0.03809 0.0
N2204 N 0.01604 0.6745 0.09374 0.0
N2205 N 0.07484 0.7306 0.04003 0.0
H2206 H 0.03276 0.69325 0.00029 0.0
H2207 H 0.05305 0.71481 0.0006 0.0
H2208 H 0.08563 0.7421 0.04967 0.0
H2209 H 0.07809 0.7285 0.02109 0.0
H2210 H 0.01597 0.67434 0.11407 0.0
H2211 H 0.00713 0.66144 0.08545 0.0
H2212 H 0.02494 0.70142 0.12729 0.0
H2213 H 0.04594 0.72242 0.12788 0.0
C2214 C 0.31996 0.35606 0.08081 0.0
C2215 C 0.32047 0.35395 0.05335 0.0
C2216 C 0.28935 0.3491 0.04961 0.0
C2217 C 0.28797 0.34878 0.07719 0.0
N2218 N 0.30136 0.35124 0.11953 0.0
N2219 N 0.30526 0.34685 0.01142 0.0
C2220 C 0.30318 0.35221 0.09295 0.0
C2221 C 0.30516 0.3503 0.03761 0.0
N2222 N 0.33569 0.3622 0.09512 0.0
N2223 N 0.2755 0.34826 0.03493 0.0
H2224 H 0.31652 0.34757 0.00178 0.0
H2225 H 0.29373 0.3419 0.99946 0.0
H2226 H 0.26354 0.3469 0.04313 0.0
H2227 H 0.27648 0.35043 0.01489 0.0
H2228 H 0.33681 0.36581 0.11486 0.0
H2229 H 0.34821 0.36525 0.08672 0.0
H2230 H 0.31103 0.35129 0.13201 0.0
H2231 H 0.28962 0.34938 0.12918 0.0
C2232 C 0.72637 0.7033 0.39176 0.0
C2233 C 0.71002 0.68776 0.38133 0.0
C2234 C 0.71843 0.66675 0.40103 0.0
C2235 C 0.73586 0.68221 0.40846 0.0
N2236 N 0.75795 0.71516 0.40518 0.0
N2237 N 0.69386 0.65495 0.3694 0.0
C2238 C 0.74033 0.7005 0.40202 0.0
C2239 C 0.70704 0.66955 0.38395 0.0
N2240 N 0.72825 0.72051 0.39334 0.0
N2241 N 0.71224 0.64953 0.41117 0.0
H2242 H 0.68611 0.65653 0.35508 0.0
H2243 H 0.69233 0.64176 0.36927 0.0
H2244 H 0.71952 0.64695 0.42512 0.0
H2245 H 0.69889 0.63833 0.40798 0.0
H2246 H 0.73921 0.73181 0.40301 0.0
H2247 H 0.71794 0.72304 0.38773 0.0
H2248 H 0.76226 0.72849 0.39855 0.0
H2249 H 0.76864 0.71355 0.41191 0.0
C2250 C 0.33971 0.03778 0.38241 0.0
C2251 C 0.32145 0.02319 0.37646 0.0
C2252 C 0.31023 0.04359 0.39179 0.0
C2253 C 0.32784 0.05629 0.40248 0.0
N2254 N 0.3585 0.06271 0.41278 0.0
N2255 N 0.28875 0.01144 0.38065 0.0
C2256 C 0.3424 0.05266 0.39914 0.0
C2257 C 0.3065 0.02591 0.38233 0.0
N2258 N 0.35457 0.03802 0.37126 0.0
N2259 N 0.29711 0.04844 0.39039 0.0
H2260 H 0.28549 0.99799 0.37603 0.0
H2261 H 0.27751 0.0124 0.38702 0.0
H2262 H 0.29956 0.0615 0.39647 0.0
H2263 H 0.2846 0.04026 0.38066 0.0
H2264 H 0.36803 0.0492 0.37369 0.0
H2265 H 0.3533 0.02842 0.35691 0.0
H2266 H 0.36875 0.05929 0.41251 0.0
H2267 H 0.36078 0.073 0.42656 0.0
C2268 C 0.98999 0.2998 0.40768 0.0
C2269 C 0.98939 0.30222 0.38042 0.0
C2270 C 0.95814 0.27457 0.37832 0.0
C2271 C 0.95841 0.27295 0.40578 0.0
N2272 N 0.97318 0.2856 0.44738 0.0
N2273 N 0.97163 0.29422 0.34064 0.0
C2274 C 0.97389 0.2861 0.42069 0.0
C2275 C 0.97311 0.2902 0.36592 0.0
N2276 N 0.00623 0.30987 0.42095 0.0
N2277 N 0.9437 0.26101 0.36408 0.0
H2278 H 0.98207 0.3058 0.33107 0.0
H2279 H 0.95946 0.28714 0.32987 0.0
H2280 H 0.93223 0.24975 0.37266 0.0
H2281 H 0.94364 0.2602 0.34377 0.0
H2282 H 0.00818 0.30725 0.44008 0.0
H2283 H 0.01829 0.31981 0.41201 0.0
H2284 H 0.98309 0.29615 0.45935 0.0
H2285 H 0.96196 0.27535 0.45775 0.0
C2286 C 0.02197 0.38707 0.32466 0.0
C2287 C 0.03072 0.37811 0.31299 0.0
C2288 C 0.03638 0.39603 0.27318 0.0
C2289 C 0.02873 0.40591 0.28542 0.0
N2290 N 0.01667 0.41298 0.32383 0.0
N2291 N 0.04944 0.37643 0.27855 0.0
C2292 C 0.02221 0.40204 0.3115 0.0
C2293 C 0.03888 0.3833 0.28794 0.0
N2294 N 0.01305 0.38095 0.34799 0.0
N2295 N 0.04062 0.39829 0.24716 0.0
H2296 H 0.05169 0.3672 0.28895 0.0
H2297 H 0.05732 0.38114 0.26161 0.0
H2298 H 0.03903 0.40749 0.23559 0.0
H2299 H 0.04423 0.38992 0.23649 0.0
H2300 H 0.00466 0.38544 0.35618 0.0
H2301 H 0.01305 0.37038 0.35847 0.0
H2302 H 0.01356 0.41218 0.34364 0.0
H2303 H 0.01652 0.42392 0.31463 0.0
C2304 C 0.63607 0.65096 0.28221 0.0
C2305 C 0.63846 0.65021 0.30949 0.0
C2306 C 0.61494 0.61676 0.30907 0.0
C2307 C 0.6121 0.61776 0.28207 0.0
N2308 N 0.61754 0.63594 0.24351 0.0
N2309 N 0.62937 0.63301 0.34965 0.0
C2310 C 0.62196 0.63493 0.26882 0.0
C2311 C 0.62754 0.6333 0.32318 0.0
N2312 N 0.64751 0.66691 0.26899 0.0
N2313 N 0.60608 0.5998 0.32092 0.0
H2314 H 0.63955 0.64423 0.36045 0.0
H2315 H 0.62032 0.62193 0.36127 0.0
H2316 H 0.59628 0.58756 0.3114 0.0
H2317 H 0.60906 0.59754 0.33967 0.0
H2318 H 0.64806 0.66776 0.24874 0.0
H2319 H 0.6574 0.67919 0.27821 0.0
H2320 H 0.62267 0.64836 0.23354 0.0
H2321 H 0.60757 0.62441 0.23289 0.0
C2322 C 0.3599 0.98515 0.28527 0.0
C2323 C 0.35921 0.98539 0.31296 0.0
C2324 C 0.39013 0.98957 0.31483 0.0
C2325 C 0.39156 0.99148 0.28732 0.0
N2326 N 0.37916 0.99462 0.24674 0.0
N2327 N 0.37477 0.99083 0.35434 0.0
C2328 C 0.37682 0.99025 0.27263 0.0
C2329 C 0.37459 0.98832 0.32787 0.0
N2330 N 0.34421 0.97932 0.271 0.0
N2331 N 0.4034 0.98855 0.32843 0.0
H2332 H 0.36384 0.99038 0.36459 0.0
H2333 H 0.38639 0.995 0.36586 0.0
H2334 H 0.415 0.98951 0.3195 0.0
H2335 H 0.40215 0.98517 0.3481 0.0
H2336 H 0.34351 0.97704 0.25087 0.0
H2337 H 0.33137 0.97485 0.27951 0.0
H2338 H 0.36957 0.99593 0.23581 0.0
H2339 H 0.39142 0.99867 0.2367 0.0
C2340 C 0.62668 0.97065 0.29254 0.0
C2341 C 0.63246 0.98078 0.31651 0.0
C2342 C 0.60888 0.98935 0.31236 0.0
C2343 C 0.60415 0.98051 0.28738 0.0
N2344 N 0.61066 0.96565 0.25149 0.0
N2345 N 0.63093 0.00165 0.34809 0.0
C2346 C 0.61363 0.97194 0.27685 0.0
C2347 C 0.6241 0.9907 0.3261 0.0
N2348 N 0.63341 0.95951 0.285 0.0
N2349 N 0.59846 0.99594 0.32324 0.0
H2350 H 0.64168 0.0025 0.35905 0.0
H2351 H 0.62683 0.01086 0.35452 0.0
H2352 H 0.58732 0.99529 0.31361 0.0
H2353 H 0.59992 1.00077 0.34246 0.0
H2354 H 0.62829 0.95024 0.26915 0.0
H2355 H 0.64312 0.95835 0.29587 0.0
H2356 H 0.61863 0.96119 0.2418 0.0
H2357 H 0.60127 0.96638 0.23926 0.0
C2358 C 0.0084 0.62722 0.32374 0.0
C2359 C 0.0084 0.6421 0.31073 0.0
C2360 C 0.99926 0.6234 0.2701 0.0
C2361 C 0.00206 0.60998 0.2823 0.0
N2362 N 0.01172 0.6002 0.3198 0.0
N2363 N 0.0058 0.65513 0.27026 0.0
C2364 C 0.00736 0.61221 0.30886 0.0
C2365 C 0.00423 0.64037 0.28358 0.0
N2366 N 0.00821 0.62677 0.35041 0.0
N2367 N 0.99146 0.61975 0.24579 0.0
H2368 H 0.00986 0.66804 0.27887 0.0
H2369 H 0.00494 0.65525 0.25001 0.0
H2370 H 0.98776 0.60755 0.23519 0.0
H2371 H 0.9871 0.628 0.23713 0.0
H2372 H 0.00649 0.6154 0.36081 0.0
H2373 H 0.00748 0.63667 0.3622 0.0
H2374 H 0.01764 0.6024 0.33825 0.0
H2375 H 0.01088 0.58887 0.30958 0.0
C2376 C 0.35269 0.37486 0.28477 0.0
C2377 C 0.35226 0.3739 0.31238 0.0
C2378 C 0.38391 0.40079 0.3141 0.0
C2379 C 0.38516 0.39972 0.28657 0.0
N2380 N 0.37151 0.38336 0.24591 0.0
N2381 N 0.36865 0.38436 0.35348 0.0
C2382 C 0.36974 0.38616 0.2719 0.0
C2383 C 0.36813 0.38656 0.32719 0.0
N2384 N 0.33669 0.36546 0.27084 0.0
N2385 N 0.39773 0.4155 0.3277 0.0
H2386 H 0.35769 0.37384 0.36385 0.0
H2387 H 0.38058 0.39193 0.36464 0.0
H2388 H 0.40943 0.42617 0.31865 0.0
H2389 H 0.39676 0.41801 0.34748 0.0
H2390 H 0.33592 0.36697 0.25082 0.0
H2391 H 0.32391 0.35794 0.27989 0.0
H2392 H 0.36119 0.37228 0.23508 0.0
H2393 H 0.38384 0.39097 0.23567 0.0
C2394 C 0.33598 0.30303 0.38128 0.0
C2395 C 0.31766 0.29901 0.37746 0.0
C2396 C 0.30616 0.26802 0.39572 0.0
C2397 C 0.32432 0.27345 0.40365 0.0
N2398 N 0.35599 0.29859 0.40948 0.0
N2399 N 0.28512 0.27866 0.38662 0.0
C2400 C 0.33913 0.29165 0.39797 0.0
C2401 C 0.30263 0.28172 0.38607 0.0
N2402 N 0.35038 0.31726 0.36828 0.0
N2403 N 0.29235 0.24978 0.39695 0.0
H2404 H 0.28196 0.2887 0.38156 0.0
H2405 H 0.27408 0.26691 0.39501 0.0
H2406 H 0.29456 0.23928 0.40315 0.0
H2407 H 0.27924 0.24488 0.38922 0.0
H2408 H 0.36375 0.31964 0.36899 0.0
H2409 H 0.34863 0.32511 0.35429 0.0
H2410 H 0.36659 0.31242 0.40757 0.0
H2411 H 0.35872 0.29132 0.42327 0.0
C2412 C 0.70811 0.02506 0.41605 0.0
C2413 C 0.70485 0.025 0.38892 0.0
C2414 C 0.72818 0.05841 0.38735 0.0
C2415 C 0.73015 0.05871 0.41483 0.0
N2416 N 0.72019 0.04314 0.45611 0.0
N2417 N 0.70954 0.04211 0.34934 0.0
C2418 C 0.71959 0.04226 0.42941 0.0
C2419 C 0.71434 0.0418 0.37466 0.0
N2420 N 0.70086 0.00859 0.42885 0.0
N2421 N 0.73975 0.07391 0.37337 0.0
H2422 H 0.69933 0.03034 0.33941 0.0
H2423 H 0.7145 0.0543 0.33882 0.0
H2424 H 0.74977 0.0864 0.38214 0.0
H2425 H 0.74041 0.074 0.35307 0.0
H2426 H 0.70431 0.00748 0.44792 0.0
H2427 H 0.69269 0.99579 0.41951 0.0
H2428 H 0.71121 0.03209 0.46787 0.0
H2429 H 0.72874 0.05537 0.4667 0.0
C2430 C 0.98483 0.68903 0.41455 0.0
C2431 C 0.98366 0.68616 0.38711 0.0
C2432 C 0.95184 0.6797 0.38757 0.0
C2433 C 0.95232 0.68038 0.41524 0.0
N2434 N 0.96868 0.68488 0.45559 0.0
N2435 N 0.96578 0.67713 0.34735 0.0
C2436 C 0.96871 0.68494 0.42889 0.0
C2437 C 0.96716 0.68129 0.3735 0.0
N2438 N 1.00151 0.69614 0.42675 0.0
N2439 N 0.93671 0.67753 0.3748 0.0
H2440 H 0.97667 0.67821 0.33625 0.0
H2441 H 0.95349 0.67133 0.3369 0.0
H2442 H 0.92503 0.67575 0.38453 0.0
H2443 H 0.93623 0.67894 0.35473 0.0
H2444 H 0.0038 0.70033 0.44629 0.0
H2445 H 0.01357 0.69934 0.41674 0.0
H2446 H 0.97935 0.68578 0.46673 0.0
H2447 H 0.95746 0.68291 0.46678 0.0
C2448 C 0.38092 0.01281 0.71375 0.0
C2449 C 0.38068 0.02933 0.70884 0.0
C2450 C 0.41071 0.04757 0.73054 0.0
C2451 C 0.40925 0.03091 0.73941 0.0
N2452 N 0.3908 0.99736 0.74309 0.0
N2453 N 0.39388 0.06233 0.71807 0.0
C2454 C 0.3938 0.0134 0.73194 0.0
C2455 C 0.39525 0.04676 0.71853 0.0
N2456 N 0.36929 0.99667 0.70046 0.0
N2457 N 0.42692 0.06418 0.73338 0.0
H2458 H 0.38227 0.06229 0.71139 0.0
H2459 H 0.40342 0.07486 0.72722 0.0
H2460 H 0.43869 0.06522 0.74152 0.0
H2461 H 0.4292 0.07648 0.72511 0.0
H2462 H 0.37006 0.98467 0.70169 0.0
H2463 H 0.3604 0.99595 0.68592 0.0
H2464 H 0.37871 0.98453 0.7402 0.0
H2465 H 0.39948 0.99712 0.75719 0.0
C2466 C 0.99134 0.37183 0.70061 0.0
C2467 C 0.98758 0.35603 0.71541 0.0
C2468 C 0.9914 0.37378 0.75589 0.0
C2469 C 0.99319 0.38879 0.74112 0.0
N2470 N 0.99172 0.40099 0.69958 0.0
N2471 N 0.97998 0.34074 0.75696 0.0
C2472 C 0.99221 0.38748 0.71349 0.0
C2473 C 0.9865 0.35667 0.74303 0.0
N2474 N 0.99508 0.37235 0.67451 0.0
N2475 N 0.99496 0.37601 0.78212 0.0
H2476 H 0.97545 0.32785 0.74803 0.0
H2477 H 0.97714 0.33998 0.77688 0.0
H2478 H 0.99885 0.3884 0.79232 0.0
H2479 H 0.99579 0.36618 0.79327 0.0
H2480 H 0.9998 0.38426 0.6634 0.0
H2481 H 0.99525 0.36151 0.6644 0.0
H2482 H 0.98901 0.39979 0.67961 0.0
H2483 H 0.99243 0.4127 0.70837 0.0
C2484 C 0.62754 0.61912 0.69614 0.0
C2485 C 0.64365 0.63126 0.71103 0.0
C2486 C 0.62667 0.61755 0.75161 0.0
C2487 C 0.61036 0.60649 0.73686 0.0
N2488 N 0.59439 0.5972 0.69573 0.0
N2489 N 0.65802 0.64363 0.75313 0.0
C2490 C 0.61059 0.60725 0.70926 0.0
C2491 C 0.64306 0.63093 0.73881 0.0
N2492 N 0.62827 0.61925 0.66945 0.0
N2493 N 0.62658 0.61489 0.77791 0.0
H2494 H 0.67097 0.65245 0.74514 0.0
H2495 H 0.65748 0.64598 0.77306 0.0
H2496 H 0.61477 0.60552 0.78815 0.0
H2497 H 0.63847 0.62078 0.78931 0.0
H2498 H 0.61795 0.60911 0.65754 0.0
H2499 H 0.63947 0.62927 0.65886 0.0
H2500 H 0.59295 0.59864 0.67592 0.0
H2501 H 0.58192 0.58789 0.70469 0.0
C2502 C 0.68705 0.71745 0.66193 0.0
C2503 C 0.69233 0.70642 0.64713 0.0
C2504 C 0.6923 0.72188 0.60703 0.0
C2505 C 0.68694 0.73286 0.62178 0.0
N2506 N 0.68329 0.74436 0.66343 0.0
N2507 N 0.70462 0.70131 0.60745 0.0
C2508 C 0.68571 0.73173 0.64936 0.0
C2509 C 0.69643 0.70966 0.62021 0.0
N2510 N 0.6823 0.71359 0.68762 0.0
N2511 N 0.69268 0.72255 0.58037 0.0
H2512 H 0.70822 0.6927 0.61693 0.0
H2513 H 0.70946 0.70427 0.58835 0.0
H2514 H 0.69027 0.73171 0.57002 0.0
H2515 H 0.69427 0.71327 0.5684 0.0
H2516 H 0.67622 0.71958 0.69864 0.0
H2517 H 0.68336 0.70345 0.69764 0.0
H2518 H 0.68404 0.74549 0.68371 0.0
H2519 H 0.6821 0.75484 0.65464 0.0
C2520 C 0.30881 0.96933 0.63745 0.0
C2521 C 0.30398 0.98287 0.644 0.0
C2522 C 0.27233 0.9605 0.62952 0.0
C2523 C 0.27828 0.94887 0.61829 0.0
N2524 N 0.304 0.94504 0.60672 0.0
N2525 N 0.28134 0.99217 0.64028 0.0
C2526 C 0.29704 0.95404 0.62088 0.0
C2527 C 0.28572 0.97865 0.63864 0.0
N2528 N 0.32413 0.97043 0.64795 0.0
N2529 N 0.25395 0.95425 0.6317 0.0
H2530 H 0.2912 0.00599 0.64395 0.0
H2531 H 0.26862 0.99008 0.63444 0.0
H2532 H 0.24374 0.94081 0.62593 0.0
H2533 H 0.24895 0.96169 0.6418 0.0
H2534 H 0.32732 0.96002 0.64511 0.0
H2535 H 0.33212 0.98026 0.66226 0.0
H2536 H 0.31803 0.94957 0.60645 0.0
H2537 H 0.29627 0.93448 0.59309 0.0
C2538 C 0.04088 0.32492 0.66205 0.0
C2539 C 0.02421 0.31815 0.64788 0.0
C2540 C 0.03991 0.31886 0.60709 0.0
C2541 C 0.05646 0.32507 0.62135 0.0
N2542 N 0.07225 0.33103 0.66248 0.0
N2543 N 0.00668 0.30495 0.60835 0.0
C2544 C 0.05678 0.32714 0.64891 0.0
C2545 C 0.02339 0.31403 0.62078 0.0
N2546 N 0.0417 0.33002 0.68775 0.0
N2547 N 0.04013 0.31811 0.5804 0.0
H2548 H 0.99429 0.30095 0.61795 0.0
H2549 H 0.00485 0.29987 0.58923 0.0
H2550 H 0.0518 0.32094 0.56964 0.0
H2551 H 0.02913 0.31591 0.56877 0.0
H2552 H 0.05391 0.33704 0.69843 0.0
H2553 H 0.03028 0.32836 0.6981 0.0
H2554 H 0.07281 0.33082 0.68275 0.0
H2555 H 0.08423 0.3331 0.65335 0.0
C2556 C 0.28935 0.30109 0.62481 0.0
C2557 C 0.29234 0.30564 0.65177 0.0
C2558 C 0.26724 0.31224 0.65236 0.0
C2559 C 0.26635 0.31061 0.62475 0.0
N2560 N 0.2769 0.30426 0.5841 0.0
N2561 N 0.28475 0.31599 0.69163 0.0
C2562 C 0.27733 0.305 0.61079 0.0
C2563 C 0.28125 0.31106 0.6658 0.0
N2564 N 0.2978 0.29273 0.6128 0.0
N2565 N 0.25464 0.31489 0.66561 0.0
H2566 H 0.29458 0.31485 0.70226 0.0
H2567 H 0.2787 0.3222 0.70223 0.0
H2568 H 0.24432 0.31591 0.65617 0.0
H2569 H 0.25338 0.31448 0.68585 0.0
H2570 H 0.29504 0.28756 0.59369 0.0
H2571 H 0.30633 0.28935 0.62286 0.0
H2572 H 0.28617 0.3025 0.57272 0.0
H2573 H 0.26793 0.30654 0.57314 0.0
C2574 C 0.67287 0.97635 0.61633 0.0
C2575 C 0.67305 0.97763 0.64408 0.0
C2576 C 0.66944 0.94661 0.64652 0.0
C2577 C 0.66773 0.9448 0.61901 0.0
N2578 N 0.66446 0.95632 0.57783 0.0
N2579 N 0.66683 0.96194 0.68541 0.0
C2580 C 0.66842 0.95919 0.60395 0.0
C2581 C 0.67015 0.96224 0.65919 0.0
N2582 N 0.67773 0.9917 0.60169 0.0
N2583 N 0.67055 0.93349 0.66054 0.0
H2584 H 0.666 0.97248 0.69531 0.0
H2585 H 0.66283 0.95031 0.69684 0.0
H2586 H 0.66965 0.92165 0.65192 0.0
H2587 H 0.67388 0.93513 0.68032 0.0
H2588 H 0.67972 0.99206 0.58157 0.0
H2589 H 0.68177 0.00478 0.60971 0.0
H2590 H 0.66252 0.96536 0.56646 0.0
H2591 H 0.66157 0.94412 0.56785 0.0
C2592 C 0.04002 0.72205 0.6625 0.0
C2593 C 0.02327 0.7093 0.64947 0.0
C2594 C 0.03896 0.71922 0.60723 0.0
C2595 C 0.0552 0.73305 0.62014 0.0
N2596 N 0.07018 0.75014 0.65957 0.0
N2597 N 0.00584 0.69919 0.60939 0.0
C2598 C 0.0554 0.73526 0.64766 0.0
C2599 C 0.02247 0.70888 0.6218 0.0
N2600 N 0.04164 0.7209 0.68882 0.0
N2601 N 0.03939 0.71539 0.58125 0.0
H2602 H 0.99348 0.69225 0.61957 0.0
H2603 H 0.0042 0.69983 0.58938 0.0
H2604 H 0.05121 0.72246 0.5698 0.0
H2605 H 0.02847 0.70405 0.57161 0.0
H2606 H 0.05411 0.72851 0.69881 0.0
H2607 H 0.031 0.71105 0.7004 0.0
H2608 H 0.07031 0.75357 0.67926 0.0
H2609 H 0.08166 0.76006 0.64925 0.0
C2610 C 0.98182 0.63638 0.75149 0.0
C2611 C 0.98471 0.63831 0.72411 0.0
C2612 C 0.98839 0.61101 0.72233 0.0
C2613 C 0.98408 0.60825 0.74928 0.0
N2614 N 0.97523 0.61699 0.78949 0.0
N2615 N 0.9898 0.6273 0.68284 0.0
C2616 C 0.9805 0.62065 0.76391 0.0
C2617 C 0.98773 0.62556 0.70934 0.0
N2618 N 0.98032 0.64959 0.7656 0.0
N2619 N 0.99354 0.59996 0.70936 0.0
H2620 H 0.9907 0.63848 0.67284 0.0
H2621 H 0.98979 0.61729 0.67046 0.0
H2622 H 0.99376 0.58894 0.71817 0.0
H2623 H 0.99877 0.60235 0.69045 0.0
H2624 H 0.98035 0.65029 0.7859 0.0
H2625 H 0.9801 0.66069 0.75708 0.0
H2626 H 0.97032 0.62409 0.80053 0.0
H2627 H 0.97468 0.60598 0.79951 0.0
C2628 C 0.37872 0.3705 0.70758 0.0
C2629 C 0.36544 0.35438 0.72117 0.0
C2630 C 0.37569 0.37202 0.7626 0.0
C2631 C 0.39027 0.38725 0.74925 0.0
N2632 N 0.40753 0.40016 0.70976 0.0
N2633 N 0.35315 0.339 0.76231 0.0
C2634 C 0.39238 0.38621 0.72195 0.0
C2635 C 0.36438 0.35492 0.74889 0.0
N2636 N 0.37757 0.37136 0.68109 0.0
N2637 N 0.37237 0.37402 0.78829 0.0
H2638 H 0.34501 0.326 0.75334 0.0
H2639 H 0.35332 0.33822 0.78255 0.0
H2640 H 0.38054 0.38619 0.79922 0.0
H2641 H 0.36063 0.36423 0.79822 0.0
H2642 H 0.38577 0.38344 0.67058 0.0
H2643 H 0.36706 0.36076 0.66986 0.0
H2644 H 0.41085 0.3992 0.69039 0.0
H2645 H 0.41765 0.41205 0.71964 0.0
C2646 C 0.64571 0.04026 0.72027 0.0
C2647 C 0.64297 0.02588 0.70245 0.0
C2648 C 0.60976 0.01382 0.70342 0.0
C2649 C 0.61232 0.0248 0.72615 0.0
N2650 N 0.63193 0.05724 0.73769 0.0
N2651 N 0.62229 0.99978 0.67469 0.0
C2652 C 0.63014 0.04077 0.72966 0.0
C2653 C 0.62496 0.01298 0.69307 0.0
N2654 N 0.66301 0.05311 0.72887 0.0
N2655 N 0.59361 0.00639 0.68987 0.0
H2656 H 0.63314 0.99921 0.66581 0.0
H2657 H 0.60922 0.98883 0.66941 0.0
H2658 H 0.58334 0.00917 0.69543 0.0
H2659 H 0.59147 0.99967 0.67178 0.0
H2660 H 0.66533 0.06267 0.74388 0.0
H2661 H 0.67484 0.05334 0.72226 0.0
H2662 H 0.64458 0.06974 0.73845 0.0
H2663 H 0.62042 0.05867 0.73976 0.0
loop_
_geom_bond_atom_site_label_1
_geom_bond_atom_site_label_2
_geom_bond_distance
_geom_bond_site_symmetry_2
_ccdc_geom_bond_type
Co0 O1 2.216 . S
Co0 O2 2.091 . S
Co0 O4 2.004 1_554 S
Co0 O10 2.021 . S
Co0 O12 2.137 1_454 S
Co0 O13 2.244 1_455 S
O1 Co0 2.216 . S
O1 C8 1.247 . S
O2 Co0 2.091 . S
O2 C8 1.261 . S
C3 O12 1.247 . S
C3 O13 1.272 1_556 S
O4 Co0 2.004 1_556 S
O4 C9 1.259 1_455 S
Co5 O6 2.061 1_554 S
Co5 O11 2.052 . S
Co5 O13 2.135 . S
O6 Co5 2.061 1_556 S
O6 C9 1.235 . S
C7 O10 1.238 1_655 S
C7 O11 1.241 . S
C8 O1 1.247 . S
C8 O2 1.261 . S
C9 O4 1.259 1_655 S
C9 O6 1.235 . S
O10 Co0 2.021 . S
O10 C7 1.238 1_455 S
O11 Co5 2.052 . S
O11 C7 1.241 . S
O12 Co0 2.137 1_656 S
O12 C3 1.247 . S
O13 Co0 2.244 1_655 S
O13 C3 1.272 1_554 S
O13 Co5 2.135 . S
Co14 O15 2.216 1_554 S
Co14 O16 2.091 . S
Co14 O18 2.004 . S
Co14 O24 2.021 1_554 S
Co14 O26 2.137 . S
Co14 O27 2.244 . S
O15 Co14 2.216 1_556 S
O15 C22 1.247 . S
O16 Co14 2.091 . S
O16 C22 1.261 1_554 S
C17 O26 1.247 . S
C17 O27 1.272 . S
O18 Co14 2.004 . S
O18 C23 1.259 . S
Co19 O20 2.061 . S
Co19 O25 2.052 1_554 S
Co19 O27 2.135 . S
O20 Co19 2.061 . S
O20 C23 1.235 . S
C21 O24 1.238 . S
C21 O25 1.241 . S
C22 O15 1.247 . S
C22 O16 1.261 1_556 S
C23 O18 1.259 . S
C23 O20 1.235 . S
O24 Co14 2.021 1_556 S
O24 C21 1.238 . S
O25 Co19 2.052 1_556 S
O25 C21 1.241 . S
O26 Co14 2.137 . S
O26 C17 1.247 . S
O27 Co14 2.244 . S
O27 C17 1.272 . S
O27 Co19 2.135 . S
Co28 O29 2.216 1_554 S
Co28 O30 2.091 . S
Co28 O32 2.004 . S
Co28 O38 2.021 1_554 S
Co28 O40 2.137 1_545 S
Co28 O41 2.244 1_545 S
O29 Co28 2.216 1_556 S
O29 C36 1.247 . S
O30 Co28 2.091 . S
O30 C36 1.261 1_554 S
C31 O40 1.247 . S
C31 O41 1.272 . S
O32 Co28 2.004 . S
O32 C37 1.259 . S
Co33 O34 2.061 . S
Co33 O39 2.052 1_554 S
Co33 O41 2.135 . S
O34 Co33 2.061 . S
O34 C37 1.235 1_565 S
C35 O38 1.238 1_565 S
C35 O39 1.241 . S
C36 O29 1.247 . S
C36 O30 1.261 1_556 S
C37 O32 1.259 . S
C37 O34 1.235 1_545 S
O38 Co28 2.021 1_556 S
O38 C35 1.238 1_545 S
O39 Co33 2.052 1_556 S
O39 C35 1.241 . S
O40 Co28 2.137 1_565 S
O40 C31 1.247 . S
O41 Co28 2.244 1_565 S
O41 C31 1.272 . S
O41 Co33 2.135 . S
Co42 O43 2.216 1_554 S
Co42 O44 2.091 . S
Co42 O46 2.004 . S
Co42 O52 2.021 1_554 S
Co42 O54 2.137 1_655 S
Co42 O55 2.244 1_655 S
O43 Co42 2.216 1_556 S
O43 C50 1.247 . S
O44 Co42 2.091 . S
O44 C50 1.261 1_554 S
C45 O54 1.247 . S
C45 O55 1.272 . S
O46 Co42 2.004 . S
O46 C51 1.259 1_655 S
Co47 O48 2.061 . S
Co47 O53 2.052 1_554 S
Co47 O55 2.135 . S
O48 Co47 2.061 . S
O48 C51 1.235 . S
C49 O52 1.238 1_455 S
C49 O53 1.241 . S
C50 O43 1.247 . S
C50 O44 1.261 1_556 S
C51 O46 1.259 1_455 S
C51 O48 1.235 . S
O52 Co42 2.021 1_556 S
O52 C49 1.238 1_655 S
O53 Co47 2.052 1_556 S
O53 C49 1.241 . S
O54 Co42 2.137 1_455 S
O54 C45 1.247 . S
O55 Co42 2.244 1_455 S
O55 C45 1.272 . S
O55 Co47 2.135 . S
Co56 O57 2.216 . S
Co56 O58 2.091 . S
Co56 O60 2.004 1_554 S
Co56 O66 2.021 . S
Co56 O68 2.137 1_554 S
Co56 O69 2.244 . S
O57 Co56 2.216 . S
O57 C64 1.247 . S
O58 Co56 2.091 . S
O58 C64 1.261 . S
C59 O68 1.247 . S
C59 O69 1.272 1_556 S
O60 Co56 2.004 1_556 S
O60 C65 1.259 . S
Co61 O62 2.061 1_554 S
Co61 O67 2.052 . S
Co61 O69 2.135 . S
O62 Co61 2.061 1_556 S
O62 C65 1.235 . S
C63 O66 1.238 . S
C63 O67 1.241 . S
C64 O57 1.247 . S
C64 O58 1.261 . S
C65 O60 1.259 . S
C65 O62 1.235 . S
O66 Co56 2.021 . S
O66 C63 1.238 . S
O67 Co61 2.052 . S
O67 C63 1.241 . S
O68 Co56 2.137 1_556 S
O68 C59 1.247 . S
O69 Co56 2.244 . S
O69 C59 1.272 1_554 S
O69 Co61 2.135 . S
Co70 O71 2.216 . S
Co70 O72 2.091 . S
Co70 O74 2.004 1_554 S
Co70 O80 2.021 . S
Co70 O82 2.137 1_564 S
Co70 O83 2.244 1_565 S
O71 Co70 2.216 . S
O71 C78 1.247 . S
O72 Co70 2.091 . S
O72 C78 1.261 . S
C73 O82 1.247 . S
C73 O83 1.272 1_556 S
O74 Co70 2.004 1_556 S
O74 C79 1.259 1_565 S
Co75 O76 2.061 1_554 S
Co75 O81 2.052 . S
Co75 O83 2.135 . S
O76 Co75 2.061 1_556 S
O76 C79 1.235 . S
C77 O80 1.238 1_545 S
C77 O81 1.241 . S
C78 O71 1.247 . S
C78 O72 1.261 . S
C79 O74 1.259 1_545 S
C79 O76 1.235 . S
O80 Co70 2.021 . S
O80 C77 1.238 1_565 S
O81 Co75 2.052 . S
O81 C77 1.241 . S
O82 Co70 2.137 1_546 S
O82 C73 1.247 . S
O83 Co70 2.244 1_545 S
O83 C73 1.272 1_554 S
O83 Co75 2.135 . S
Co84 O85 2.216 . S
Co84 O86 2.091 . S
Co84 O88 2.004 . S
Co84 O94 2.021 . S
Co84 O96 2.137 . S
Co84 O97 2.244 . S
O85 Co84 2.216 . S
O85 C92 1.247 . S
O86 Co84 2.091 . S
O86 C92 1.261 . S
C87 O96 1.247 . S
C87 O97 1.272 . S
O88 Co84 2.004 . S
O88 C93 1.259 . S
Co89 O90 2.061 . S
Co89 O95 2.052 . S
Co89 O97 2.135 . S
O90 Co89 2.061 . S
O90 C93 1.235 . S
C91 O94 1.238 . S
C91 O95 1.241 . S
C92 O85 1.247 . S
C92 O86 1.261 . S
C93 O88 1.259 . S
C93 O90 1.235 . S
O94 Co84 2.021 . S
O94 C91 1.238 . S
O95 Co89 2.052 . S
O95 C91 1.241 . S
O96 Co84 2.137 . S
O96 C87 1.247 . S
O97 Co84 2.244 . S
O97 C87 1.272 . S
O97 Co89 2.135 . S
Co98 O99 2.216 . S
Co98 O100 2.091 . S
Co98 O102 2.004 . S
Co98 O108 2.021 . S
Co98 O110 2.124 1_565 S
Co98 O111 2.244 . S
O99 Co98 2.216 . S
O99 C106 1.247 . S
O100 Co98 2.091 . S
O100 C106 1.261 . S
C101 O110 1.261 . S
C101 O111 1.272 1_545 S
O102 Co98 2.004 . S
O102 C107 1.259 . S
Co103 O104 2.061 . S
Co103 O109 2.052 . S
Co103 O111 2.135 . S
O104 Co103 2.061 . S
O104 C107 1.235 . S
C105 O108 1.238 . S
C105 O109 1.241 . S
C106 O99 1.247 . S
C106 O100 1.261 . S
C107 O102 1.259 . S
C107 O104 1.235 . S
O108 Co98 2.021 . S
O108 C105 1.238 . S
O109 Co103 2.052 . S
O109 C105 1.241 . S
O110 Co98 2.124 1_545 S
O110 C101 1.261 . S
O111 Co98 2.244 . S
O111 C101 1.272 1_565 S
O111 Co103 2.135 . S
Co112 O113 2.216 . S
Co112 O114 2.091 . S
Co112 O116 2.004 . S
Co112 O122 2.021 . S
Co112 O124 2.137 . S
Co112 O125 2.244 . S
O113 Co112 2.216 . S
O113 C120 1.247 . S
O114 Co112 2.091 . S
O114 C120 1.261 . S
C115 O124 1.247 1_655 S
C115 O125 1.272 1_655 S
O116 Co112 2.004 . S
O116 C121 1.259 . S
Co117 O118 2.061 . S
Co117 O123 2.052 . S
Co117 O125 2.135 . S
O118 Co117 2.061 . S
O118 C121 1.235 . S
C119 O122 1.238 . S
C119 O123 1.241 . S
C120 O113 1.247 . S
C120 O114 1.261 . S
C121 O116 1.259 . S
C121 O118 1.235 . S
O122 Co112 2.021 . S
O122 C119 1.238 . S
O123 Co117 2.052 . S
O123 C119 1.241 . S
O124 Co112 2.137 . S
O124 C115 1.247 1_455 S
O125 Co112 2.244 . S
O125 C115 1.272 1_455 S
O125 Co117 2.135 . S
Co126 O127 2.216 . S
Co126 O128 2.091 . S
Co126 O130 2.004 . S
Co126 O136 2.021 . S
Co126 O138 2.102 1_565 S
Co126 O139 2.244 . S
O127 Co126 2.216 . S
O127 C134 1.247 . S
O128 Co126 2.091 . S
O128 C134 1.261 . S
C129 O138 1.235 . S
C129 O139 1.272 1_545 S
O130 Co126 2.004 . S
O130 C135 1.259 . S
Co131 O132 2.061 . S
Co131 O137 2.052 . S
Co131 O139 2.135 . S
O132 Co131 2.061 . S
O132 C135 1.235 . S
C133 O136 1.238 . S
C133 O137 1.241 . S
C134 O127 1.247 . S
C134 O128 1.261 . S
C135 O130 1.259 . S
C135 O132 1.235 . S
O136 Co126 2.021 . S
O136 C133 1.238 . S
O137 Co131 2.052 . S
O137 C133 1.241 . S
O138 Co126 2.102 1_545 S
O138 C129 1.235 . S
O139 Co126 2.244 . S
O139 C129 1.272 1_565 S
O139 Co131 2.135 . S
Co140 O141 2.216 1_455 S
Co140 O142 2.091 1_455 S
Co140 O144 2.004 . S
Co140 O150 2.021 . S
Co140 O152 2.137 . S
Co140 O153 2.244 . S
O141 Co140 2.216 1_655 S
O141 C148 1.247 . S
O142 Co140 2.091 1_655 S
O142 C148 1.261 . S
C143 O152 1.247 . S
C143 O153 1.272 . S
O144 Co140 2.004 . S
O144 C149 1.259 . S
Co145 O146 2.061 . S
Co145 O151 2.052 . S
Co145 O153 2.135 . S
O146 Co145 2.061 . S
O146 C149 1.235 . S
C147 O150 1.238 . S
C147 O151 1.241 . S
C148 O141 1.247 . S
C148 O142 1.261 . S
C149 O144 1.259 . S
C149 O146 1.235 . S
O150 Co140 2.021 . S
O150 C147 1.238 . S
O151 Co145 2.052 . S
O151 C147 1.241 . S
O152 Co140 2.137 . S
O152 C143 1.247 . S
O153 Co140 2.244 . S
O153 C143 1.272 . S
O153 Co145 2.135 . S
Co154 O155 2.216 . S
Co154 O156 2.091 . S
Co154 O158 2.004 . S
Co154 O164 2.021 . S
Co154 O166 2.137 . S
Co154 O167 2.244 . S
O155 Co154 2.216 . S
O155 C162 1.247 . S
O156 Co154 2.091 . S
O156 C162 1.261 . S
C157 O166 1.247 . S
C157 O167 1.272 . S
O158 Co154 2.004 . S
O158 C163 1.259 . S
Co159 O160 2.061 . S
Co159 O165 2.052 . S
Co159 O167 2.135 . S
O160 Co159 2.061 . S
O160 C163 1.235 . S
C161 O164 1.238 . S
C161 O165 1.241 . S
C162 O155 1.247 . S
C162 O156 1.261 . S
C163 O158 1.259 . S
C163 O160 1.235 . S
O164 Co154 2.021 . S
O164 C161 1.238 . S
O165 Co159 2.052 . S
O165 C161 1.241 . S
O166 Co154 2.137 . S
O166 C157 1.247 . S
O167 Co154 2.244 . S
O167 C157 1.272 . S
O167 Co159 2.135 . S
Co168 O169 2.216 . S
Co168 O170 2.091 . S
Co168 O172 2.004 . S
Co168 O178 2.021 . S
Co168 O180 2.137 . S
Co168 O181 2.244 . S
O169 Co168 2.216 . S
O169 C176 1.247 . S
O170 Co168 2.091 . S
O170 C176 1.261 . S
C171 O180 1.247 1_565 S
C171 O181 1.272 1_565 S
O172 Co168 2.004 . S
O172 C177 1.259 . S
Co173 O174 2.061 . S
Co173 O179 2.052 . S
Co173 O181 2.135 . S
O174 Co173 2.061 . S
O174 C177 1.235 . S
C175 O178 1.238 . S
C175 O179 1.241 . S
C176 O169 1.247 . S
C176 O170 1.261 . S
C177 O172 1.259 . S
C177 O174 1.235 . S
O178 Co168 2.021 . S
O178 C175 1.238 . S
O179 Co173 2.052 . S
O179 C175 1.241 . S
O180 Co168 2.137 . S
O180 C171 1.247 1_545 S
O181 Co168 2.244 . S
O181 C171 1.272 1_545 S
O181 Co173 2.135 . S
Co182 O183 2.216 1_655 S
Co182 O184 2.091 1_655 S
Co182 O186 2.004 . S
Co182 O192 2.021 . S
Co182 O194 2.137 . S
Co182 O195 2.244 . S
O183 Co182 2.216 1_455 S
O183 C190 1.247 . S
O184 Co182 2.091 1_455 S
O184 C190 1.261 . S
C185 O194 1.247 . S
C185 O195 1.272 . S
O186 Co182 2.004 . S
O186 C191 1.259 . S
Co187 O188 2.061 . S
Co187 O193 2.052 . S
Co187 O195 2.135 . S
O188 Co187 2.061 . S
O188 C191 1.235 . S
C189 O192 1.238 . S
C189 O193 1.241 . S
C190 O183 1.247 . S
C190 O184 1.261 . S
C191 O186 1.259 . S
C191 O188 1.235 . S
O192 Co182 2.021 . S
O192 C189 1.238 . S
O193 Co187 2.052 . S
O193 C189 1.241 . S
O194 Co182 2.137 . S
O194 C185 1.247 . S
O195 Co182 2.244 . S
O195 C185 1.272 . S
O195 Co187 2.135 . S
Co196 O197 2.216 . S
Co196 O198 2.091 . S
Co196 O200 2.004 . S
Co196 O206 2.021 . S
Co196 O208 2.137 . S
Co196 O209 2.244 . S
O197 Co196 2.216 . S
O197 C204 1.247 . S
O198 Co196 2.091 . S
O198 C204 1.261 . S
C199 O208 1.247 . S
C199 O209 1.272 . S
O200 Co196 2.004 . S
O200 C205 1.259 . S
Co201 O202 2.061 . S
Co201 O207 2.052 . S
Co201 O209 2.135 . S
O202 Co201 2.061 . S
O202 C205 1.235 . S
C203 O206 1.238 . S
C203 O207 1.241 . S
C204 O197 1.247 . S
C204 O198 1.261 . S
C205 O200 1.259 . S
C205 O202 1.235 . S
O206 Co196 2.021 . S
O206 C203 1.238 . S
O207 Co201 2.052 . S
O207 C203 1.241 . S
O208 Co196 2.137 . S
O208 C199 1.247 . S
O209 Co196 2.244 . S
O209 C199 1.272 . S
O209 Co201 2.135 . S
Co210 O211 2.216 . S
Co210 O212 2.091 . S
Co210 O214 2.004 . S
Co210 O220 2.021 . S
Co210 O222 2.137 . S
Co210 O223 2.244 . S
O211 Co210 2.216 . S
O211 C218 1.247 . S
O212 Co210 2.091 . S
O212 C218 1.261 . S
C213 O222 1.247 . S
C213 O223 1.272 . S
O214 Co210 2.004 . S
O214 C219 1.259 . S
Co215 O216 2.061 . S
Co215 O221 2.052 . S
Co215 O223 2.135 . S
O216 Co215 2.061 . S
O216 C219 1.235 . S
C217 O220 1.238 . S
C217 O221 1.241 . S
C218 O211 1.247 . S
C218 O212 1.261 . S
C219 O214 1.259 . S
C219 O216 1.235 . S
O220 Co210 2.021 . S
O220 C217 1.238 . S
O221 Co215 2.052 . S
O221 C217 1.241 . S
O222 Co210 2.137 . S
O222 C213 1.247 . S
O223 Co210 2.244 . S
O223 C213 1.272 . S
O223 Co215 2.135 . S
Co224 O225 2.216 . S
Co224 O226 2.091 . S
Co224 O228 2.004 . S
Co224 O234 2.021 . S
Co224 O236 2.137 . S
Co224 O237 2.244 . S
O225 Co224 2.216 . S
O225 C232 1.247 . S
O226 Co224 2.091 . S
O226 C232 1.261 . S
C227 O236 1.247 1_565 S
C227 O237 1.272 1_565 S
O228 Co224 2.004 . S
O228 C233 1.259 . S
Co229 O230 2.061 . S
Co229 O235 2.052 . S
Co229 O237 2.135 . S
O230 Co229 2.061 . S
O230 C233 1.235 . S
C231 O234 1.238 . S
C231 O235 1.241 . S
C232 O225 1.247 . S
C232 O226 1.261 . S
C233 O228 1.259 . S
C233 O230 1.235 . S
O234 Co224 2.021 . S
O234 C231 1.238 . S
O235 Co229 2.052 . S
O235 C231 1.241 . S
O236 Co224 2.137 . S
O236 C227 1.247 1_545 S
O237 Co224 2.244 . S
O237 C227 1.272 1_545 S
O237 Co229 2.135 . S
Co238 O239 2.216 . S
Co238 O240 2.091 . S
Co238 O242 2.004 . S
Co238 O248 2.021 . S
Co238 O250 2.137 . S
Co238 O251 2.244 . S
O239 Co238 2.216 . S
O239 C246 1.247 . S
O240 Co238 2.091 . S
O240 C246 1.261 . S
C241 O250 1.269 1_455 S
C241 O251 1.212 1_455 S
O242 Co238 2.004 . S
O242 C247 1.259 . S
Co243 O244 2.061 . S
Co243 O249 2.052 . S
Co243 O251 2.135 . S
O244 Co243 2.061 . S
O244 C247 1.235 . S
C245 O248 1.238 . S
C245 O249 1.241 . S
C246 O239 1.247 . S
C246 O240 1.261 . S
C247 O242 1.259 . S
C247 O244 1.235 . S
O248 Co238 2.021 . S
O248 C245 1.238 . S
O249 Co243 2.052 . S
O249 C245 1.241 . S
O250 Co238 2.137 . S
O250 C241 1.269 1_655 S
O251 Co238 2.244 . S
O251 C241 1.212 1_655 S
O251 Co243 2.135 . S
H252 C279 0.929 . S
N253 C278 1.433 . S
N253 C284 1.435 . S
N253 C290 1.423 . S
H254 C280 0.930 . S
H255 C283 0.931 . S
H256 C282 0.929 . S
H257 C285 0.930 . S
H258 C286 0.932 . S
H259 C289 0.929 . S
H260 C288 0.931 . S
H261 C291 0.929 . S
H262 C295 0.932 . S
H263 C292 0.931 . S
H264 C294 0.929 . S
H265 C297 0.929 . S
H266 C298 0.930 . S
H267 C300 0.929 . S
H268 C301 0.931 . S
H269 C303 0.930 . S
H270 C304 0.932 . S
H271 C306 0.931 . S
H272 C307 0.929 . S
H273 C309 0.929 . S
H274 C310 0.931 . S
H275 C312 0.929 . S
N276 C296 1.433 . S
N276 C302 1.435 . S
N276 C308 1.423 . S
H277 C313 0.932 . S
C278 N253 1.433 . S
C278 C279 1.363 . S
C278 C283 1.370 . S
C279 H252 0.929 . S
C279 C278 1.363 . S
C279 C280 1.385 . S
C280 H254 0.930 . S
C280 C279 1.385 . S
C280 C281 1.357 . S
C281 C280 1.357 . S
C281 C282 1.406 . S
C282 H256 0.929 . S
C282 C281 1.406 . S
C282 C283 1.391 . S
C283 H255 0.931 . S
C283 C278 1.370 . S
C283 C282 1.391 . S
C284 N253 1.435 . S
C284 C285 1.358 . S
C284 C289 1.371 . S
C285 H257 0.930 . S
C285 C284 1.358 . S
C285 C286 1.405 . S
C286 H258 0.932 . S
C286 C285 1.405 . S
C286 C287 1.383 . S
C287 C286 1.383 . S
C287 C288 1.393 . S
C288 H260 0.931 . S
C288 C287 1.393 . S
C288 C289 1.382 . S
C289 H259 0.929 . S
C289 C284 1.371 . S
C289 C288 1.382 . S
C290 N253 1.423 . S
C290 C291 1.362 . S
C290 C295 1.388 . S
C291 H261 0.929 . S
C291 C290 1.362 . S
C291 C292 1.376 . S
C292 H263 0.931 . S
C292 C291 1.376 . S
C292 C293 1.396 . S
C293 C292 1.396 . S
C293 C294 1.348 . S
C293 C311 1.472 . S
C294 H264 0.929 . S
C294 C293 1.348 . S
C294 C295 1.443 . S
C295 H262 0.932 . S
C295 C290 1.388 . S
C295 C294 1.443 . S
C296 N276 1.433 . S
C296 C297 1.363 . S
C296 C301 1.370 . S
C297 H265 0.929 . S
C297 C296 1.363 . S
C297 C298 1.385 . S
C298 H266 0.930 . S
C298 C297 1.385 . S
C298 C299 1.357 . S
C299 C298 1.357 . S
C299 C300 1.406 . S
C300 H267 0.929 . S
C300 C299 1.406 . S
C300 C301 1.391 . S
C301 H268 0.931 . S
C301 C296 1.370 . S
C301 C300 1.391 . S
C302 N276 1.435 . S
C302 C303 1.358 . S
C302 C307 1.371 . S
C303 H269 0.930 . S
C303 C302 1.358 . S
C303 C304 1.405 . S
C304 H270 0.932 . S
C304 C303 1.405 . S
C304 C305 1.383 . S
C305 C304 1.383 . S
C305 C306 1.393 . S
C306 H271 0.931 . S
C306 C305 1.393 . S
C306 C307 1.382 . S
C307 H272 0.929 . S
C307 C302 1.371 . S
C307 C306 1.382 . S
C308 N276 1.423 . S
C308 C309 1.362 . S
C308 C313 1.388 . S
C309 H273 0.929 . S
C309 C308 1.362 . S
C309 C310 1.376 . S
C310 H274 0.931 . S
C310 C309 1.376 . S
C310 C311 1.396 . S
C311 C293 1.472 . S
C311 C310 1.396 . S
C311 C312 1.348 . S
C312 H275 0.929 . S
C312 C311 1.348 . S
C312 C313 1.443 . S
C313 H277 0.932 . S
C313 C308 1.388 . S
C313 C312 1.443 . S
H314 C341 0.929 . S
N315 C340 1.433 . S
N315 C346 1.435 . S
N315 C352 1.423 . S
H316 C342 0.930 . S
H317 C345 0.931 . S
H318 C344 0.929 . S
H319 C347 0.930 . S
H320 C348 0.932 . S
H321 C351 0.929 . S
H322 C350 0.931 . S
H323 C353 0.929 . S
H324 C357 0.932 . S
H325 C354 0.931 . S
H326 C356 0.929 . S
H327 C359 0.929 . S
H328 C360 0.930 . S
H329 C362 0.929 . S
H330 C363 0.931 . S
H331 C365 0.930 . S
H332 C366 0.932 . S
H333 C368 0.931 . S
H334 C369 0.929 . S
H335 C371 0.929 . S
H336 C372 0.931 . S
H337 C374 0.929 . S
N338 C358 1.433 . S
N338 C364 1.435 . S
N338 C370 1.423 . S
H339 C375 0.932 . S
C340 N315 1.433 . S
C340 C341 1.363 . S
C340 C345 1.370 . S
C341 H314 0.929 . S
C341 C340 1.363 . S
C341 C342 1.385 . S
C342 H316 0.930 . S
C342 C341 1.385 . S
C342 C343 1.357 . S
C343 C342 1.357 . S
C343 C344 1.406 . S
C344 H318 0.929 . S
C344 C343 1.406 . S
C344 C345 1.391 . S
C345 H317 0.931 . S
C345 C340 1.370 . S
C345 C344 1.391 . S
C346 N315 1.435 . S
C346 C347 1.358 . S
C346 C351 1.371 . S
C347 H319 0.930 . S
C347 C346 1.358 . S
C347 C348 1.405 . S
C348 H320 0.932 . S
C348 C347 1.405 . S
C348 C349 1.383 . S
C349 C348 1.383 . S
C349 C350 1.393 . S
C350 H322 0.931 . S
C350 C349 1.393 . S
C350 C351 1.382 . S
C351 H321 0.929 . S
C351 C346 1.371 . S
C351 C350 1.382 . S
C352 N315 1.423 . S
C352 C353 1.362 . S
C352 C357 1.388 . S
C353 H323 0.929 . S
C353 C352 1.362 . S
C353 C354 1.376 . S
C354 H325 0.931 . S
C354 C353 1.376 . S
C354 C355 1.396 . S
C355 C354 1.396 . S
C355 C356 1.348 . S
C355 C373 1.472 . S
C356 H326 0.929 . S
C356 C355 1.348 . S
C356 C357 1.443 . S
C357 H324 0.932 . S
C357 C352 1.388 . S
C357 C356 1.443 . S
C358 N338 1.433 . S
C358 C359 1.363 . S
C358 C363 1.370 . S
C359 H327 0.929 . S
C359 C358 1.363 . S
C359 C360 1.385 . S
C360 H328 0.930 . S
C360 C359 1.385 . S
C360 C361 1.357 . S
C361 C360 1.357 . S
C361 C362 1.406 . S
C362 H329 0.929 . S
C362 C361 1.406 . S
C362 C363 1.391 . S
C363 H330 0.931 . S
C363 C358 1.370 . S
C363 C362 1.391 . S
C364 N338 1.435 . S
C364 C365 1.358 . S
C364 C369 1.371 . S
C365 H331 0.930 . S
C365 C364 1.358 . S
C365 C366 1.405 . S
C366 H332 0.932 . S
C366 C365 1.405 . S
C366 C367 1.383 . S
C367 C366 1.383 . S
C367 C368 1.393 . S
C368 H333 0.931 . S
C368 C367 1.393 . S
C368 C369 1.382 . S
C369 H334 0.929 . S
C369 C364 1.371 . S
C369 C368 1.382 . S
C370 N338 1.423 . S
C370 C371 1.362 . S
C370 C375 1.388 . S
C371 H335 0.929 . S
C371 C370 1.362 . S
C371 C372 1.376 . S
C372 H336 0.931 . S
C372 C371 1.376 . S
C372 C373 1.396 . S
C373 C355 1.472 . S
C373 C372 1.396 . S
C373 C374 1.348 . S
C374 H337 0.929 . S
C374 C373 1.348 . S
C374 C375 1.443 . S
C375 H339 0.932 . S
C375 C370 1.388 . S
C375 C374 1.443 . S
H376 C403 0.929 . S
N377 C402 1.433 . S
N377 C408 1.435 . S
N377 C414 1.423 . S
H378 C404 0.930 . S
H379 C407 0.931 . S
H380 C406 0.929 . S
H381 C409 0.930 . S
H382 C410 0.932 . S
H383 C413 0.929 . S
H384 C412 0.931 . S
H385 C415 0.929 . S
H386 C419 0.932 . S
H387 C416 0.931 . S
H388 C418 0.929 . S
H389 C421 0.929 . S
H390 C422 0.930 . S
H391 C424 0.929 . S
H392 C425 0.931 . S
H393 C427 0.930 . S
H394 C428 0.932 . S
H395 C430 0.931 . S
H396 C431 0.929 . S
H397 C433 0.929 . S
H398 C434 0.931 . S
H399 C436 0.929 . S
N400 C420 1.433 . S
N400 C426 1.435 . S
N400 C432 1.423 . S
H401 C437 0.932 . S
C402 N377 1.433 . S
C402 C403 1.363 . S
C402 C407 1.370 . S
C403 H376 0.929 . S
C403 C402 1.363 . S
C403 C404 1.385 . S
C404 H378 0.930 . S
C404 C403 1.385 . S
C404 C405 1.357 . S
C405 C404 1.357 . S
C405 C406 1.406 . S
C406 H380 0.929 . S
C406 C405 1.406 . S
C406 C407 1.391 . S
C407 H379 0.931 . S
C407 C402 1.370 . S
C407 C406 1.391 . S
C408 N377 1.435 . S
C408 C409 1.358 . S
C408 C413 1.371 . S
C409 H381 0.930 . S
C409 C408 1.358 . S
C409 C410 1.405 . S
C410 H382 0.932 . S
C410 C409 1.405 . S
C410 C411 1.383 . S
C411 C410 1.383 . S
C411 C412 1.393 . S
C412 H384 0.931 . S
C412 C411 1.393 . S
C412 C413 1.382 . S
C413 H383 0.929 . S
C413 C408 1.371 . S
C413 C412 1.382 . S
C414 N377 1.423 . S
C414 C415 1.362 . S
C414 C419 1.388 . S
C415 H385 0.929 . S
C415 C414 1.362 . S
C415 C416 1.376 . S
C416 H387 0.931 . S
C416 C415 1.376 . S
C416 C417 1.396 . S
C417 C416 1.396 . S
C417 C418 1.348 . S
C417 C435 1.472 . S
C418 H388 0.929 . S
C418 C417 1.348 . S
C418 C419 1.443 . S
C419 H386 0.932 . S
C419 C414 1.388 . S
C419 C418 1.443 . S
C420 N400 1.433 . S
C420 C421 1.363 . S
C420 C425 1.370 . S
C421 H389 0.929 . S
C421 C420 1.363 . S
C421 C422 1.385 . S
C422 H390 0.930 . S
C422 C421 1.385 . S
C422 C423 1.357 . S
C423 C422 1.357 . S
C423 C424 1.406 . S
C424 H391 0.929 . S
C424 C423 1.406 . S
C424 C425 1.391 . S
C425 H392 0.931 . S
C425 C420 1.370 . S
C425 C424 1.391 . S
C426 N400 1.435 . S
C426 C427 1.358 . S
C426 C431 1.371 . S
C427 H393 0.930 . S
C427 C426 1.358 . S
C427 C428 1.405 . S
C428 H394 0.932 . S
C428 C427 1.405 . S
C428 C429 1.383 . S
C429 C428 1.383 . S
C429 C430 1.393 . S
C430 H395 0.931 . S
C430 C429 1.393 . S
C430 C431 1.382 . S
C431 H396 0.929 . S
C431 C426 1.371 . S
C431 C430 1.382 . S
C432 N400 1.423 . S
C432 C433 1.362 . S
C432 C437 1.388 . S
C433 H397 0.929 . S
C433 C432 1.362 . S
C433 C434 1.376 . S
C434 H398 0.931 . S
C434 C433 1.376 . S
C434 C435 1.396 . S
C435 C417 1.472 . S
C435 C434 1.396 . S
C435 C436 1.348 . S
C436 H399 0.929 . S
C436 C435 1.348 . S
C436 C437 1.443 . S
C437 H401 0.932 . S
C437 C432 1.388 . S
C437 C436 1.443 . S
H438 C465 0.929 . S
N439 C464 1.433 . S
N439 C470 1.435 . S
N439 C476 1.423 . S
H440 C466 0.930 . S
H441 C469 0.931 . S
H442 C468 0.929 . S
H443 C471 0.930 . S
H444 C472 0.932 . S
H445 C475 0.929 . S
H446 C474 0.931 . S
H447 C477 0.929 . S
H448 C481 0.932 . S
H449 C478 0.931 . S
H450 C480 0.929 . S
H451 C483 0.929 . S
H452 C484 0.930 . S
H453 C486 0.929 . S
H454 C487 0.931 . S
H455 C489 0.930 . S
H456 C490 0.932 . S
H457 C492 0.931 . S
H458 C493 0.929 . S
H459 C495 0.929 . S
H460 C496 0.931 . S
H461 C498 0.929 . S
N462 C482 1.433 . S
N462 C488 1.435 . S
N462 C494 1.423 . S
H463 C499 0.932 . S
C464 N439 1.433 . S
C464 C465 1.363 . S
C464 C469 1.370 . S
C465 H438 0.929 . S
C465 C464 1.363 . S
C465 C466 1.385 . S
C466 H440 0.930 . S
C466 C465 1.385 . S
C466 C467 1.357 . S
C467 C466 1.357 . S
C467 C468 1.406 . S
C468 H442 0.929 . S
C468 C467 1.406 . S
C468 C469 1.391 . S
C469 H441 0.931 . S
C469 C464 1.370 . S
C469 C468 1.391 . S
C470 N439 1.435 . S
C470 C471 1.358 . S
C470 C475 1.371 . S
C471 H443 0.930 . S
C471 C470 1.358 . S
C471 C472 1.405 . S
C472 H444 0.932 . S
C472 C471 1.405 . S
C472 C473 1.383 . S
C473 C472 1.383 . S
C473 C474 1.393 . S
C474 H446 0.931 . S
C474 C473 1.393 . S
C474 C475 1.382 . S
C475 H445 0.929 . S
C475 C470 1.371 . S
C475 C474 1.382 . S
C476 N439 1.423 . S
C476 C477 1.362 . S
C476 C481 1.388 . S
C477 H447 0.929 . S
C477 C476 1.362 . S
C477 C478 1.376 . S
C478 H449 0.931 . S
C478 C477 1.376 . S
C478 C479 1.396 . S
C479 C478 1.396 . S
C479 C480 1.348 . S
C479 C497 1.472 . S
C480 H450 0.929 . S
C480 C479 1.348 . S
C480 C481 1.443 . S
C481 H448 0.932 . S
C481 C476 1.388 . S
C481 C480 1.443 . S
C482 N462 1.433 . S
C482 C483 1.363 . S
C482 C487 1.370 . S
C483 H451 0.929 . S
C483 C482 1.363 . S
C483 C484 1.385 . S
C484 H452 0.930 . S
C484 C483 1.385 . S
C484 C485 1.357 . S
C485 C484 1.357 . S
C485 C486 1.406 . S
C486 H453 0.929 . S
C486 C485 1.406 . S
C486 C487 1.391 . S
C487 H454 0.931 . S
C487 C482 1.370 . S
C487 C486 1.391 . S
C488 N462 1.435 . S
C488 C489 1.358 . S
C488 C493 1.371 . S
C489 H455 0.930 . S
C489 C488 1.358 . S
C489 C490 1.405 . S
C490 H456 0.932 . S
C490 C489 1.405 . S
C490 C491 1.383 . S
C491 C490 1.383 . S
C491 C492 1.393 . S
C492 H457 0.931 . S
C492 C491 1.393 . S
C492 C493 1.382 . S
C493 H458 0.929 . S
C493 C488 1.371 . S
C493 C492 1.382 . S
C494 N462 1.423 . S
C494 C495 1.362 . S
C494 C499 1.388 . S
C495 H459 0.929 . S
C495 C494 1.362 . S
C495 C496 1.376 . S
C496 H460 0.931 . S
C496 C495 1.376 . S
C496 C497 1.396 . S
C497 C479 1.472 . S
C497 C496 1.396 . S
C497 C498 1.348 . S
C498 H461 0.929 . S
C498 C497 1.348 . S
C498 C499 1.443 . S
C499 H463 0.932 . S
C499 C494 1.388 . S
C499 C498 1.443 . S
H500 C527 0.929 . S
N501 C526 1.433 . S
N501 C532 1.435 . S
N501 C538 1.423 . S
H502 C528 0.930 . S
H503 C531 0.931 . S
H504 C530 0.929 . S
H505 C533 0.930 . S
H506 C534 0.932 . S
H507 C537 0.929 . S
H508 C536 0.931 . S
H509 C539 0.929 . S
H510 C543 0.932 . S
H511 C540 0.931 . S
H512 C542 0.929 . S
H513 C545 0.929 . S
H514 C546 0.930 . S
H515 C548 0.929 . S
H516 C549 0.931 . S
H517 C551 0.930 . S
H518 C552 0.932 . S
H519 C554 0.931 . S
H520 C555 0.929 . S
H521 C557 0.929 . S
H522 C558 0.931 . S
H523 C560 0.929 . S
N524 C544 1.433 . S
N524 C550 1.435 . S
N524 C556 1.423 . S
H525 C561 0.932 . S
C526 N501 1.433 . S
C526 C527 1.363 . S
C526 C531 1.370 . S
C527 H500 0.929 . S
C527 C526 1.363 . S
C527 C528 1.385 . S
C528 H502 0.930 . S
C528 C527 1.385 . S
C528 C529 1.357 . S
C529 C528 1.357 . S
C529 C530 1.406 . S
C530 H504 0.929 . S
C530 C529 1.406 . S
C530 C531 1.391 . S
C531 H503 0.931 . S
C531 C526 1.370 . S
C531 C530 1.391 . S
C532 N501 1.435 . S
C532 C533 1.358 . S
C532 C537 1.371 . S
C533 H505 0.930 . S
C533 C532 1.358 . S
C533 C534 1.405 . S
C534 H506 0.932 . S
C534 C533 1.405 . S
C534 C535 1.383 . S
C535 C534 1.383 . S
C535 C536 1.393 . S
C536 H508 0.931 . S
C536 C535 1.393 . S
C536 C537 1.382 . S
C537 H507 0.929 . S
C537 C532 1.371 . S
C537 C536 1.382 . S
C538 N501 1.423 . S
C538 C539 1.362 . S
C538 C543 1.388 . S
C539 H509 0.929 . S
C539 C538 1.362 . S
C539 C540 1.376 . S
C540 H511 0.931 . S
C540 C539 1.376 . S
C540 C541 1.396 . S
C541 C540 1.396 . S
C541 C542 1.348 . S
C541 C559 1.472 . S
C542 H512 0.929 . S
C542 C541 1.348 . S
C542 C543 1.443 . S
C543 H510 0.932 . S
C543 C538 1.388 . S
C543 C542 1.443 . S
C544 N524 1.433 . S
C544 C545 1.363 . S
C544 C549 1.370 . S
C545 H513 0.929 . S
C545 C544 1.363 . S
C545 C546 1.385 . S
C546 H514 0.930 . S
C546 C545 1.385 . S
C546 C547 1.357 . S
C547 C546 1.357 . S
C547 C548 1.406 . S
C548 H515 0.929 . S
C548 C547 1.406 . S
C548 C549 1.391 . S
C549 H516 0.931 . S
C549 C544 1.370 . S
C549 C548 1.391 . S
C550 N524 1.435 . S
C550 C551 1.358 . S
C550 C555 1.371 . S
C551 H517 0.930 . S
C551 C550 1.358 . S
C551 C552 1.405 . S
C552 H518 0.932 . S
C552 C551 1.405 . S
C552 C553 1.383 . S
C553 C552 1.383 . S
C553 C554 1.393 . S
C554 H519 0.931 . S
C554 C553 1.393 . S
C554 C555 1.382 . S
C555 H520 0.929 . S
C555 C550 1.371 . S
C555 C554 1.382 . S
C556 N524 1.423 . S
C556 C557 1.362 . S
C556 C561 1.388 . S
C557 H521 0.929 . S
C557 C556 1.362 . S
C557 C558 1.376 . S
C558 H522 0.931 . S
C558 C557 1.376 . S
C558 C559 1.396 . S
C559 C541 1.472 . S
C559 C558 1.396 . S
C559 C560 1.348 . S
C560 H523 0.929 . S
C560 C559 1.348 . S
C560 C561 1.443 . S
C561 H525 0.932 . S
C561 C556 1.388 . S
C561 C560 1.443 . S
H562 C589 0.929 . S
N563 C588 1.433 . S
N563 C594 1.435 . S
N563 C600 1.423 . S
H564 C590 0.930 . S
H565 C593 0.931 . S
H566 C592 0.929 . S
H567 C595 0.930 . S
H568 C596 0.932 . S
H569 C599 0.929 . S
H570 C598 0.931 . S
H571 C601 0.929 . S
H572 C605 0.932 . S
H573 C602 0.931 . S
H574 C604 0.929 . S
H575 C607 0.929 . S
H576 C608 0.930 . S
H577 C610 0.929 . S
H578 C611 0.931 . S
H579 C613 0.930 . S
H580 C614 0.932 . S
H581 C616 0.931 . S
H582 C617 0.929 . S
H583 C619 0.929 . S
H584 C620 0.931 . S
H585 C622 0.929 . S
N586 C606 1.433 . S
N586 C612 1.435 . S
N586 C618 1.423 . S
H587 C623 0.932 . S
C588 N563 1.433 . S
C588 C589 1.363 . S
C588 C593 1.370 . S
C589 H562 0.929 . S
C589 C588 1.363 . S
C589 C590 1.385 . S
C590 H564 0.930 . S
C590 C589 1.385 . S
C590 C591 1.357 . S
C591 C590 1.357 . S
C591 C592 1.406 . S
C592 H566 0.929 . S
C592 C591 1.406 . S
C592 C593 1.391 . S
C593 H565 0.931 . S
C593 C588 1.370 . S
C593 C592 1.391 . S
C594 N563 1.435 . S
C594 C595 1.358 . S
C594 C599 1.371 . S
C595 H567 0.930 . S
C595 C594 1.358 . S
C595 C596 1.405 . S
C596 H568 0.932 . S
C596 C595 1.405 . S
C596 C597 1.383 . S
C597 C596 1.383 . S
C597 C598 1.393 . S
C598 H570 0.931 . S
C598 C597 1.393 . S
C598 C599 1.382 . S
C599 H569 0.929 . S
C599 C594 1.371 . S
C599 C598 1.382 . S
C600 N563 1.423 . S
C600 C601 1.362 . S
C600 C605 1.388 . S
C601 H571 0.929 . S
C601 C600 1.362 . S
C601 C602 1.376 . S
C602 H573 0.931 . S
C602 C601 1.376 . S
C602 C603 1.396 . S
C603 C602 1.396 . S
C603 C604 1.348 . S
C603 C621 1.472 . S
C604 H574 0.929 . S
C604 C603 1.348 . S
C604 C605 1.443 . S
C605 H572 0.932 . S
C605 C600 1.388 . S
C605 C604 1.443 . S
C606 N586 1.433 . S
C606 C607 1.363 . S
C606 C611 1.370 . S
C607 H575 0.929 . S
C607 C606 1.363 . S
C607 C608 1.385 . S
C608 H576 0.930 . S
C608 C607 1.385 . S
C608 C609 1.357 . S
C609 C608 1.357 . S
C609 C610 1.406 . S
C610 H577 0.929 . S
C610 C609 1.406 . S
C610 C611 1.391 . S
C611 H578 0.931 . S
C611 C606 1.370 . S
C611 C610 1.391 . S
C612 N586 1.435 . S
C612 C613 1.358 . S
C612 C617 1.371 . S
C613 H579 0.930 . S
C613 C612 1.358 . S
C613 C614 1.405 . S
C614 H580 0.932 . S
C614 C613 1.405 . S
C614 C615 1.383 . S
C615 C614 1.383 . S
C615 C616 1.393 . S
C616 H581 0.931 . S
C616 C615 1.393 . S
C616 C617 1.382 . S
C617 H582 0.929 . S
C617 C612 1.371 . S
C617 C616 1.382 . S
C618 N586 1.423 . S
C618 C619 1.362 . S
C618 C623 1.388 . S
C619 H583 0.929 . S
C619 C618 1.362 . S
C619 C620 1.376 . S
C620 H584 0.931 . S
C620 C619 1.376 . S
C620 C621 1.396 . S
C621 C603 1.472 . S
C621 C620 1.396 . S
C621 C622 1.348 . S
C622 H585 0.929 . S
C622 C621 1.348 . S
C622 C623 1.443 . S
C623 H587 0.932 . S
C623 C618 1.388 . S
C623 C622 1.443 . S
H624 C651 0.929 . S
N625 C650 1.433 . S
N625 C656 1.435 . S
N625 C662 1.423 . S
H626 C652 0.930 . S
H627 C655 0.931 . S
H628 C654 0.929 . S
H629 C657 0.930 . S
H630 C658 0.932 . S
H631 C661 0.929 . S
H632 C660 0.931 . S
H633 C663 0.929 . S
H634 C667 0.932 . S
H635 C664 0.931 . S
H636 C666 0.929 . S
H637 C669 0.929 . S
H638 C670 0.930 . S
H639 C672 0.929 . S
H640 C673 0.931 . S
H641 C675 0.930 . S
H642 C676 0.932 . S
H643 C678 0.931 . S
H644 C679 0.929 . S
H645 C681 0.929 . S
H646 C682 0.931 . S
H647 C684 0.929 . S
N648 C668 1.433 . S
N648 C674 1.435 . S
N648 C680 1.423 . S
H649 C685 0.932 . S
C650 N625 1.433 . S
C650 C651 1.363 . S
C650 C655 1.370 . S
C651 H624 0.929 . S
C651 C650 1.363 . S
C651 C652 1.385 . S
C652 H626 0.930 . S
C652 C651 1.385 . S
C652 C653 1.357 . S
C653 C652 1.357 . S
C653 C654 1.406 . S
C654 H628 0.929 . S
C654 C653 1.406 . S
C654 C655 1.391 . S
C655 H627 0.931 . S
C655 C650 1.370 . S
C655 C654 1.391 . S
C656 N625 1.435 . S
C656 C657 1.358 . S
C656 C661 1.371 . S
C657 H629 0.930 . S
C657 C656 1.358 . S
C657 C658 1.405 . S
C658 H630 0.932 . S
C658 C657 1.405 . S
C658 C659 1.383 . S
C659 C658 1.383 . S
C659 C660 1.393 . S
C660 H632 0.931 . S
C660 C659 1.393 . S
C660 C661 1.382 . S
C661 H631 0.929 . S
C661 C656 1.371 . S
C661 C660 1.382 . S
C662 N625 1.423 . S
C662 C663 1.362 . S
C662 C667 1.388 . S
C663 H633 0.929 . S
C663 C662 1.362 . S
C663 C664 1.376 . S
C664 H635 0.931 . S
C664 C663 1.376 . S
C664 C665 1.396 . S
C665 C664 1.396 . S
C665 C666 1.348 . S
C665 C683 1.472 . S
C666 H636 0.929 . S
C666 C665 1.348 . S
C666 C667 1.443 . S
C667 H634 0.932 . S
C667 C662 1.388 . S
C667 C666 1.443 . S
C668 N648 1.433 . S
C668 C669 1.363 . S
C668 C673 1.370 . S
C669 H637 0.929 . S
C669 C668 1.363 . S
C669 C670 1.385 . S
C670 H638 0.930 . S
C670 C669 1.385 . S
C670 C671 1.357 . S
C671 C670 1.357 . S
C671 C672 1.406 . S
C672 H639 0.929 . S
C672 C671 1.406 . S
C672 C673 1.391 . S
C673 H640 0.931 . S
C673 C668 1.370 . S
C673 C672 1.391 . S
C674 N648 1.435 . S
C674 C675 1.358 . S
C674 C679 1.371 . S
C675 H641 0.930 . S
C675 C674 1.358 . S
C675 C676 1.405 . S
C676 H642 0.932 . S
C676 C675 1.405 . S
C676 C677 1.383 . S
C677 C676 1.383 . S
C677 C678 1.393 . S
C678 H643 0.931 . S
C678 C677 1.393 . S
C678 C679 1.382 . S
C679 H644 0.929 . S
C679 C674 1.371 . S
C679 C678 1.382 . S
C680 N648 1.423 . S
C680 C681 1.362 . S
C680 C685 1.388 . S
C681 H645 0.929 . S
C681 C680 1.362 . S
C681 C682 1.376 . S
C682 H646 0.931 . S
C682 C681 1.376 . S
C682 C683 1.396 . S
C683 C665 1.472 . S
C683 C682 1.396 . S
C683 C684 1.348 . S
C684 H647 0.929 . S
C684 C683 1.348 . S
C684 C685 1.443 . S
C685 H649 0.932 . S
C685 C680 1.388 . S
C685 C684 1.443 . S
H686 C713 0.929 . S
N687 C712 1.433 . S
N687 C718 1.435 . S
N687 C724 1.423 . S
H688 C714 0.930 . S
H689 C717 0.931 . S
H690 C716 0.929 . S
H691 C719 0.930 . S
H692 C720 0.932 . S
H693 C723 0.929 . S
H694 C722 0.931 . S
H695 C725 0.929 . S
H696 C729 0.932 . S
H697 C726 0.931 . S
H698 C728 0.929 . S
H699 C731 0.929 . S
H700 C732 0.930 . S
H701 C734 0.929 . S
H702 C735 0.931 . S
H703 C737 0.930 . S
H704 C738 0.932 . S
H705 C740 0.931 . S
H706 C741 0.929 . S
H707 C743 0.929 . S
H708 C744 0.931 . S
H709 C746 0.929 . S
N710 C730 1.433 . S
N710 C736 1.435 . S
N710 C742 1.423 . S
H711 C747 0.932 . S
C712 N687 1.433 . S
C712 C713 1.363 . S
C712 C717 1.370 . S
C713 H686 0.929 . S
C713 C712 1.363 . S
C713 C714 1.385 . S
C714 H688 0.930 . S
C714 C713 1.385 . S
C714 C715 1.357 . S
C715 C714 1.357 . S
C715 C716 1.406 . S
C716 H690 0.929 . S
C716 C715 1.406 . S
C716 C717 1.391 . S
C717 H689 0.931 . S
C717 C712 1.370 . S
C717 C716 1.391 . S
C718 N687 1.435 . S
C718 C719 1.358 . S
C718 C723 1.371 . S
C719 H691 0.930 . S
C719 C718 1.358 . S
C719 C720 1.405 . S
C720 H692 0.932 . S
C720 C719 1.405 . S
C720 C721 1.383 . S
C721 C720 1.383 . S
C721 C722 1.393 . S
C722 H694 0.931 . S
C722 C721 1.393 . S
C722 C723 1.382 . S
C723 H693 0.929 . S
C723 C718 1.371 . S
C723 C722 1.382 . S
C724 N687 1.423 . S
C724 C725 1.362 . S
C724 C729 1.388 . S
C725 H695 0.929 . S
C725 C724 1.362 . S
C725 C726 1.376 . S
C726 H697 0.931 . S
C726 C725 1.376 . S
C726 C727 1.396 . S
C727 C726 1.396 . S
C727 C728 1.348 . S
C727 C745 1.472 . S
C728 H698 0.929 . S
C728 C727 1.348 . S
C728 C729 1.443 . S
C729 H696 0.932 . S
C729 C724 1.388 . S
C729 C728 1.443 . S
C730 N710 1.433 . S
C730 C731 1.363 . S
C730 C735 1.370 . S
C731 H699 0.929 . S
C731 C730 1.363 . S
C731 C732 1.385 . S
C732 H700 0.930 . S
C732 C731 1.385 . S
C732 C733 1.357 . S
C733 C732 1.357 . S
C733 C734 1.406 . S
C734 H701 0.929 . S
C734 C733 1.406 . S
C734 C735 1.391 . S
C735 H702 0.931 . S
C735 C730 1.370 . S
C735 C734 1.391 . S
C736 N710 1.435 . S
C736 C737 1.358 . S
C736 C741 1.371 . S
C737 H703 0.930 . S
C737 C736 1.358 . S
C737 C738 1.405 . S
C738 H704 0.932 . S
C738 C737 1.405 . S
C738 C739 1.383 . S
C739 C738 1.383 . S
C739 C740 1.393 . S
C740 H705 0.931 . S
C740 C739 1.393 . S
C740 C741 1.382 . S
C741 H706 0.929 . S
C741 C736 1.371 . S
C741 C740 1.382 . S
C742 N710 1.423 . S
C742 C743 1.362 . S
C742 C747 1.388 . S
C743 H707 0.929 . S
C743 C742 1.362 . S
C743 C744 1.376 . S
C744 H708 0.931 . S
C744 C743 1.376 . S
C744 C745 1.396 . S
C745 C727 1.472 . S
C745 C744 1.396 . S
C745 C746 1.348 . S
C746 H709 0.929 . S
C746 C745 1.348 . S
C746 C747 1.443 . S
C747 H711 0.932 . S
C747 C742 1.388 . S
C747 C746 1.443 . S
H748 C775 0.929 . S
N749 C774 1.433 . S
N749 C780 1.435 . S
N749 C786 1.423 . S
H750 C776 0.930 . S
H751 C779 0.931 . S
H752 C778 0.929 . S
H753 C781 0.930 . S
H754 C782 0.932 . S
H755 C785 0.929 . S
H756 C784 0.931 . S
H757 C787 0.929 . S
H758 C791 0.932 . S
H759 C788 0.931 . S
H760 C790 0.929 . S
H761 C793 0.929 . S
H762 C794 0.930 . S
H763 C796 0.929 . S
H764 C797 0.931 . S
H765 C799 0.930 . S
H766 C800 0.932 . S
H767 C802 0.931 . S
H768 C803 0.929 . S
H769 C805 0.929 . S
H770 C806 0.931 . S
H771 C808 0.929 . S
N772 C792 1.433 . S
N772 C798 1.435 . S
N772 C804 1.423 . S
H773 C809 0.932 . S
C774 N749 1.433 . S
C774 C775 1.363 . S
C774 C779 1.370 . S
C775 H748 0.929 . S
C775 C774 1.363 . S
C775 C776 1.385 . S
C776 H750 0.930 . S
C776 C775 1.385 . S
C776 C777 1.357 . S
C777 C776 1.357 . S
C777 C778 1.406 . S
C778 H752 0.929 . S
C778 C777 1.406 . S
C778 C779 1.391 . S
C779 H751 0.931 . S
C779 C774 1.370 . S
C779 C778 1.391 . S
C780 N749 1.435 . S
C780 C781 1.358 . S
C780 C785 1.371 . S
C781 H753 0.930 . S
C781 C780 1.358 . S
C781 C782 1.405 . S
C782 H754 0.932 . S
C782 C781 1.405 . S
C782 C783 1.383 . S
C783 C782 1.383 . S
C783 C784 1.393 . S
C784 H756 0.931 . S
C784 C783 1.393 . S
C784 C785 1.382 . S
C785 H755 0.929 . S
C785 C780 1.371 . S
C785 C784 1.382 . S
C786 N749 1.423 . S
C786 C787 1.362 . S
C786 C791 1.388 . S
C787 H757 0.929 . S
C787 C786 1.362 . S
C787 C788 1.376 . S
C788 H759 0.931 . S
C788 C787 1.376 . S
C788 C789 1.396 . S
C789 C788 1.396 . S
C789 C790 1.348 . S
C789 C807 1.472 . S
C790 H760 0.929 . S
C790 C789 1.348 . S
C790 C791 1.443 . S
C791 H758 0.932 . S
C791 C786 1.388 . S
C791 C790 1.443 . S
C792 N772 1.433 . S
C792 C793 1.363 . S
C792 C797 1.370 . S
C793 H761 0.929 . S
C793 C792 1.363 . S
C793 C794 1.385 . S
C794 H762 0.930 . S
C794 C793 1.385 . S
C794 C795 1.357 . S
C795 C794 1.357 . S
C795 C796 1.406 . S
C796 H763 0.929 . S
C796 C795 1.406 . S
C796 C797 1.391 . S
C797 H764 0.931 . S
C797 C792 1.370 . S
C797 C796 1.391 . S
C798 N772 1.435 . S
C798 C799 1.358 . S
C798 C803 1.371 . S
C799 H765 0.930 . S
C799 C798 1.358 . S
C799 C800 1.405 . S
C800 H766 0.932 . S
C800 C799 1.405 . S
C800 C801 1.383 . S
C801 C800 1.383 . S
C801 C802 1.393 . S
C802 H767 0.931 . S
C802 C801 1.393 . S
C802 C803 1.382 . S
C803 H768 0.929 . S
C803 C798 1.371 . S
C803 C802 1.382 . S
C804 N772 1.423 . S
C804 C805 1.362 . S
C804 C809 1.388 . S
C805 H769 0.929 . S
C805 C804 1.362 . S
C805 C806 1.376 . S
C806 H770 0.931 . S
C806 C805 1.376 . S
C806 C807 1.396 . S
C807 C789 1.472 . S
C807 C806 1.396 . S
C807 C808 1.348 . S
C808 H771 0.929 . S
C808 C807 1.348 . S
C808 C809 1.443 . S
C809 H773 0.932 . S
C809 C804 1.388 . S
C809 C808 1.443 . S
H810 C837 0.929 . S
N811 C836 1.433 . S
N811 C842 1.435 . S
N811 C848 1.423 . S
H812 C838 0.930 . S
H813 C841 0.931 . S
H814 C840 0.929 . S
H815 C843 0.930 . S
H816 C844 0.932 . S
H817 C847 0.929 . S
H818 C846 0.931 . S
H819 C849 0.929 . S
H820 C853 0.932 1_655 S
H821 C850 0.931 . S
H822 C852 0.929 . S
H823 C855 0.929 . S
H824 C856 0.930 . S
H825 C858 0.929 . S
H826 C859 0.931 . S
H827 C861 0.930 . S
H828 C862 0.932 . S
H829 C864 0.931 . S
H830 C865 0.929 . S
H831 C867 0.929 . S
H832 C868 0.931 . S
H833 C870 0.929 . S
N834 C854 1.433 . S
N834 C860 1.435 . S
N834 C866 1.423 . S
H835 C871 0.932 1_655 S
C836 N811 1.433 . S
C836 C837 1.363 . S
C836 C841 1.370 1_455 S
C837 H810 0.929 . S
C837 C836 1.363 . S
C837 C838 1.385 . S
C838 H812 0.930 . S
C838 C837 1.385 . S
C838 C839 1.357 1_455 S
C839 C838 1.357 1_655 S
C839 C840 1.406 . S
C840 H814 0.929 . S
C840 C839 1.406 . S
C840 C841 1.391 . S
C841 H813 0.931 . S
C841 C836 1.370 1_655 S
C841 C840 1.391 . S
C842 N811 1.435 . S
C842 C843 1.358 1_455 S
C842 C847 1.371 . S
C843 H815 0.930 . S
C843 C842 1.358 1_655 S
C843 C844 1.405 . S
C844 H816 0.932 . S
C844 C843 1.405 . S
C844 C845 1.383 1_655 S
C845 C844 1.383 1_455 S
C845 C846 1.393 . S
C846 H818 0.931 . S
C846 C845 1.393 . S
C846 C847 1.382 . S
C847 H817 0.929 . S
C847 C842 1.371 . S
C847 C846 1.382 . S
C848 N811 1.423 . S
C848 C849 1.362 . S
C848 C853 1.388 . S
C849 H819 0.929 . S
C849 C848 1.362 . S
C849 C850 1.376 . S
C850 H821 0.931 . S
C850 C849 1.376 . S
C850 C851 1.396 . S
C851 C850 1.396 . S
C851 C852 1.348 . S
C851 C869 1.472 . S
C852 H822 0.929 . S
C852 C851 1.348 . S
C852 C853 1.443 . S
C853 H820 0.932 1_455 S
C853 C848 1.388 . S
C853 C852 1.443 . S
C854 N834 1.433 . S
C854 C855 1.363 . S
C854 C859 1.370 1_455 S
C855 H823 0.929 . S
C855 C854 1.363 . S
C855 C856 1.385 . S
C856 H824 0.930 . S
C856 C855 1.385 . S
C856 C857 1.357 1_455 S
C857 C856 1.357 1_655 S
C857 C858 1.406 . S
C858 H825 0.929 . S
C858 C857 1.406 . S
C858 C859 1.391 . S
C859 H826 0.931 . S
C859 C854 1.370 1_655 S
C859 C858 1.391 . S
C860 N834 1.435 . S
C860 C861 1.358 1_455 S
C860 C865 1.371 . S
C861 H827 0.930 . S
C861 C860 1.358 1_655 S
C861 C862 1.405 . S
C862 H828 0.932 . S
C862 C861 1.405 . S
C862 C863 1.383 1_655 S
C863 C862 1.383 1_455 S
C863 C864 1.393 . S
C864 H829 0.931 . S
C864 C863 1.393 . S
C864 C865 1.382 . S
C865 H830 0.929 . S
C865 C860 1.371 . S
C865 C864 1.382 . S
C866 N834 1.423 . S
C866 C867 1.362 . S
C866 C871 1.388 . S
C867 H831 0.929 . S
C867 C866 1.362 . S
C867 C868 1.376 . S
C868 H832 0.931 . S
C868 C867 1.376 . S
C868 C869 1.396 . S
C869 C851 1.472 . S
C869 C868 1.396 . S
C869 C870 1.348 . S
C870 H833 0.929 . S
C870 C869 1.348 . S
C870 C871 1.443 . S
C871 H835 0.932 1_455 S
C871 C866 1.388 . S
C871 C870 1.443 . S
H872 C899 0.929 . S
N873 C898 1.433 . S
N873 C904 1.435 . S
N873 C910 1.423 . S
H874 C900 0.930 . S
H875 C903 0.931 . S
H876 C902 0.929 . S
H877 C905 0.930 . S
H878 C906 0.932 . S
H879 C909 0.929 . S
H880 C908 0.931 . S
H881 C911 0.929 . S
H882 C915 0.932 . S
H883 C912 0.931 . S
H884 C914 0.929 . S
H885 C917 0.929 . S
H886 C918 0.930 . S
H887 C920 0.929 . S
H888 C921 0.931 . S
H889 C923 0.930 . S
H890 C924 0.932 . S
H891 C926 0.931 . S
H892 C927 0.929 . S
H893 C929 0.929 . S
H894 C930 0.931 . S
H895 C932 0.929 . S
N896 C916 1.433 . S
N896 C922 1.435 . S
N896 C928 1.423 . S
H897 C933 0.932 . S
C898 N873 1.433 . S
C898 C899 1.363 . S
C898 C903 1.370 . S
C899 H872 0.929 . S
C899 C898 1.363 . S
C899 C900 1.385 . S
C900 H874 0.930 . S
C900 C899 1.385 . S
C900 C901 1.357 . S
C901 C900 1.357 . S
C901 C902 1.406 . S
C902 H876 0.929 . S
C902 C901 1.406 . S
C902 C903 1.391 . S
C903 H875 0.931 . S
C903 C898 1.370 . S
C903 C902 1.391 . S
C904 N873 1.435 . S
C904 C905 1.358 . S
C904 C909 1.371 . S
C905 H877 0.930 . S
C905 C904 1.358 . S
C905 C906 1.405 . S
C906 H878 0.932 . S
C906 C905 1.405 . S
C906 C907 1.383 . S
C907 C906 1.383 . S
C907 C908 1.393 . S
C908 H880 0.931 . S
C908 C907 1.393 . S
C908 C909 1.382 . S
C909 H879 0.929 . S
C909 C904 1.371 . S
C909 C908 1.382 . S
C910 N873 1.423 . S
C910 C911 1.362 . S
C910 C915 1.388 . S
C911 H881 0.929 . S
C911 C910 1.362 . S
C911 C912 1.376 . S
C912 H883 0.931 . S
C912 C911 1.376 . S
C912 C913 1.396 . S
C913 C912 1.396 . S
C913 C914 1.348 . S
C913 C931 1.472 . S
C914 H884 0.929 . S
C914 C913 1.348 . S
C914 C915 1.443 . S
C915 H882 0.932 . S
C915 C910 1.388 . S
C915 C914 1.443 . S
C916 N896 1.433 . S
C916 C917 1.363 . S
C916 C921 1.370 . S
C917 H885 0.929 . S
C917 C916 1.363 . S
C917 C918 1.385 . S
C918 H886 0.930 . S
C918 C917 1.385 . S
C918 C919 1.357 . S
C919 C918 1.357 . S
C919 C920 1.406 . S
C920 H887 0.929 . S
C920 C919 1.406 . S
C920 C921 1.391 . S
C921 H888 0.931 . S
C921 C916 1.370 . S
C921 C920 1.391 . S
C922 N896 1.435 . S
C922 C923 1.358 . S
C922 C927 1.371 . S
C923 H889 0.930 . S
C923 C922 1.358 . S
C923 C924 1.405 . S
C924 H890 0.932 . S
C924 C923 1.405 . S
C924 C925 1.383 . S
C925 C924 1.383 . S
C925 C926 1.393 . S
C926 H891 0.931 . S
C926 C925 1.393 . S
C926 C927 1.382 . S
C927 H892 0.929 . S
C927 C922 1.371 . S
C927 C926 1.382 . S
C928 N896 1.423 . S
C928 C929 1.362 . S
C928 C933 1.388 . S
C929 H893 0.929 . S
C929 C928 1.362 . S
C929 C930 1.376 . S
C930 H894 0.931 . S
C930 C929 1.376 . S
C930 C931 1.396 . S
C931 C913 1.472 . S
C931 C930 1.396 . S
C931 C932 1.348 . S
C932 H895 0.929 . S
C932 C931 1.348 . S
C932 C933 1.443 . S
C933 H897 0.932 . S
C933 C928 1.388 . S
C933 C932 1.443 . S
H934 C961 0.929 . S
N935 C960 1.433 . S
N935 C966 1.435 . S
N935 C972 1.423 . S
H936 C962 0.930 . S
H937 C965 0.931 . S
H938 C964 0.929 . S
H939 C967 0.930 . S
H940 C968 0.932 . S
H941 C971 0.929 . S
H942 C970 0.931 . S
H943 C973 0.929 . S
H944 C977 0.932 1_545 S
H945 C974 0.931 . S
H946 C976 0.929 . S
H947 C979 0.929 . S
H948 C980 0.930 . S
H949 C982 0.929 . S
H950 C983 0.931 . S
H951 C985 0.930 . S
H952 C986 0.932 . S
H953 C988 0.931 . S
H954 C989 0.929 . S
H955 C991 0.929 . S
H956 C992 0.931 . S
H957 C994 0.929 . S
N958 C978 1.433 . S
N958 C984 1.435 . S
N958 C990 1.423 . S
H959 C995 0.932 1_545 S
C960 N935 1.433 . S
C960 C961 1.363 . S
C960 C965 1.370 1_565 S
C961 H934 0.929 . S
C961 C960 1.363 . S
C961 C962 1.385 . S
C962 H936 0.930 . S
C962 C961 1.385 . S
C962 C963 1.357 1_565 S
C963 C962 1.357 1_545 S
C963 C964 1.406 . S
C964 H938 0.929 . S
C964 C963 1.406 . S
C964 C965 1.391 . S
C965 H937 0.931 . S
C965 C960 1.370 1_545 S
C965 C964 1.391 . S
C966 N935 1.435 . S
C966 C967 1.358 1_565 S
C966 C971 1.371 . S
C967 H939 0.930 . S
C967 C966 1.358 1_545 S
C967 C968 1.405 . S
C968 H940 0.932 . S
C968 C967 1.405 . S
C968 C969 1.383 1_545 S
C969 C968 1.383 1_565 S
C969 C970 1.393 . S
C970 H942 0.931 . S
C970 C969 1.393 . S
C970 C971 1.382 . S
C971 H941 0.929 . S
C971 C966 1.371 . S
C971 C970 1.382 . S
C972 N935 1.423 . S
C972 C973 1.362 . S
C972 C977 1.388 . S
C973 H943 0.929 . S
C973 C972 1.362 . S
C973 C974 1.376 . S
C974 H945 0.931 . S
C974 C973 1.376 . S
C974 C975 1.396 . S
C975 C974 1.396 . S
C975 C976 1.348 . S
C975 C993 1.472 . S
C976 H946 0.929 . S
C976 C975 1.348 . S
C976 C977 1.443 . S
C977 H944 0.932 1_565 S
C977 C972 1.388 . S
C977 C976 1.443 . S
C978 N958 1.433 . S
C978 C979 1.363 . S
C978 C983 1.370 1_565 S
C979 H947 0.929 . S
C979 C978 1.363 . S
C979 C980 1.385 . S
C980 H948 0.930 . S
C980 C979 1.385 . S
C980 C981 1.357 1_565 S
C981 C980 1.357 1_545 S
C981 C982 1.406 . S
C982 H949 0.929 . S
C982 C981 1.406 . S
C982 C983 1.391 . S
C983 H950 0.931 . S
C983 C978 1.370 1_545 S
C983 C982 1.391 . S
C984 N958 1.435 . S
C984 C985 1.358 1_565 S
C984 C989 1.371 . S
C985 H951 0.930 . S
C985 C984 1.358 1_545 S
C985 C986 1.405 . S
C986 H952 0.932 . S
C986 C985 1.405 . S
C986 C987 1.383 1_545 S
C987 C986 1.383 1_565 S
C987 C988 1.393 . S
C988 H953 0.931 . S
C988 C987 1.393 . S
C988 C989 1.382 . S
C989 H954 0.929 . S
C989 C984 1.371 . S
C989 C988 1.382 . S
C990 N958 1.423 . S
C990 C991 1.362 . S
C990 C995 1.388 . S
C991 H955 0.929 . S
C991 C990 1.362 . S
C991 C992 1.376 . S
C992 H956 0.931 . S
C992 C991 1.376 . S
C992 C993 1.396 . S
C993 C975 1.472 . S
C993 C992 1.396 . S
C993 C994 1.348 . S
C994 H957 0.929 . S
C994 C993 1.348 . S
C994 C995 1.443 . S
C995 H959 0.932 1_565 S
C995 C990 1.388 . S
C995 C994 1.443 . S
H996 C1023 0.929 . S
N997 C1022 1.433 . S
N997 C1028 1.435 . S
N997 C1034 1.423 . S
H998 C1024 0.930 . S
H999 C1027 0.931 . S
H1000 C1026 0.929 . S
H1001 C1029 0.930 . S
H1002 C1030 0.932 . S
H1003 C1033 0.929 . S
H1004 C1032 0.931 . S
H1005 C1035 0.929 . S
H1006 C1039 0.932 . S
H1007 C1036 0.931 . S
H1008 C1038 0.918 1_545 S
H1009 C1041 0.929 . S
H1010 C1042 0.930 . S
H1011 C1044 0.929 . S
H1012 C1045 0.981 . S
H1013 C1047 0.930 . S
H1014 C1048 0.932 . S
H1015 C1050 0.931 . S
H1016 C1051 0.929 . S
H1017 C1053 0.929 . S
H1018 C1054 0.931 . S
H1019 C1056 0.880 1_545 S
N1020 C1040 1.433 . S
N1020 C1046 1.435 . S
N1020 C1052 1.423 . S
H1021 C1057 0.932 . S
C1022 N997 1.433 . S
C1022 C1023 1.363 . S
C1022 C1027 1.370 1_565 S
C1023 H996 0.929 . S
C1023 C1022 1.363 . S
C1023 C1024 1.385 . S
C1024 H998 0.930 . S
C1024 C1023 1.385 . S
C1024 C1025 1.357 . S
C1025 C1024 1.357 . S
C1025 C1026 1.406 1_565 S
C1026 H1000 0.929 . S
C1026 C1025 1.406 1_545 S
C1026 C1027 1.391 . S
C1027 H999 0.931 . S
C1027 C1022 1.370 1_545 S
C1027 C1026 1.391 . S
C1028 N997 1.435 . S
C1028 C1029 1.358 1_565 S
C1028 C1033 1.371 . S
C1029 H1001 0.930 . S
C1029 C1028 1.358 1_545 S
C1029 C1030 1.405 . S
C1030 H1002 0.932 . S
C1030 C1029 1.405 . S
C1030 C1031 1.383 . S
C1031 C1030 1.383 . S
C1031 C1032 1.393 1_545 S
C1032 H1004 0.931 . S
C1032 C1031 1.393 1_565 S
C1032 C1033 1.382 . S
C1033 H1003 0.929 . S
C1033 C1028 1.371 . S
C1033 C1032 1.382 . S
C1034 N997 1.423 . S
C1034 C1035 1.362 . S
C1034 C1039 1.388 1_565 S
C1035 H1005 0.929 . S
C1035 C1034 1.362 . S
C1035 C1036 1.376 . S
C1036 H1007 0.931 . S
C1036 C1035 1.376 . S
C1036 C1037 1.396 . S
C1037 C1036 1.396 . S
C1037 C1038 1.393 . S
C1037 C1055 1.472 . S
C1038 H1008 0.918 1_565 S
C1038 C1037 1.393 . S
C1038 C1039 1.410 1_565 S
C1039 H1006 0.932 . S
C1039 C1034 1.388 1_545 S
C1039 C1038 1.410 1_545 S
C1040 N1020 1.433 . S
C1040 C1041 1.363 . S
C1040 C1045 1.332 1_565 S
C1041 H1009 0.929 . S
C1041 C1040 1.363 . S
C1041 C1042 1.385 . S
C1042 H1010 0.930 . S
C1042 C1041 1.385 . S
C1042 C1043 1.357 . S
C1043 C1042 1.357 . S
C1043 C1044 1.406 1_565 S
C1044 H1011 0.929 . S
C1044 C1043 1.406 1_545 S
C1044 C1045 1.382 . S
C1045 H1012 0.981 . S
C1045 C1040 1.332 1_545 S
C1045 C1044 1.382 . S
C1046 N1020 1.435 . S
C1046 C1047 1.358 1_565 S
C1046 C1051 1.371 . S
C1047 H1013 0.930 . S
C1047 C1046 1.358 1_545 S
C1047 C1048 1.405 . S
C1048 H1014 0.932 . S
C1048 C1047 1.405 . S
C1048 C1049 1.383 . S
C1049 C1048 1.383 . S
C1049 C1050 1.393 1_545 S
C1050 H1015 0.931 . S
C1050 C1049 1.393 1_565 S
C1050 C1051 1.382 . S
C1051 H1016 0.929 . S
C1051 C1046 1.371 . S
C1051 C1050 1.382 . S
C1052 N1020 1.423 . S
C1052 C1053 1.362 . S
C1052 C1057 1.388 1_565 S
C1053 H1017 0.929 . S
C1053 C1052 1.362 . S
C1053 C1054 1.376 . S
C1054 H1018 0.931 . S
C1054 C1053 1.376 . S
C1054 C1055 1.396 . S
C1055 C1037 1.472 . S
C1055 C1054 1.396 . S
C1055 C1056 1.368 . S
C1056 H1019 0.880 1_565 S
C1056 C1055 1.368 . S
C1056 C1057 1.474 1_565 S
C1057 H1021 0.932 . S
C1057 C1052 1.388 1_545 S
C1057 C1056 1.474 1_545 S
H1058 C1085 0.929 . S
N1059 C1084 1.433 . S
N1059 C1090 1.435 . S
N1059 C1096 1.423 . S
H1060 C1086 0.930 . S
H1061 C1089 0.931 . S
H1062 C1088 0.929 . S
H1063 C1091 0.930 . S
H1064 C1092 0.932 . S
H1065 C1095 0.929 . S
H1066 C1094 0.931 . S
H1067 C1097 0.929 . S
H1068 C1101 0.932 1_455 S
H1069 C1098 0.931 . S
H1070 C1100 0.929 . S
H1071 C1103 0.929 . S
H1072 C1104 0.930 . S
H1073 C1106 0.929 . S
H1074 C1107 0.931 . S
H1075 C1109 0.930 . S
H1076 C1110 0.932 . S
H1077 C1112 0.931 . S
H1078 C1113 0.929 . S
H1079 C1115 0.929 . S
H1080 C1116 0.931 . S
H1081 C1118 0.929 . S
N1082 C1102 1.433 . S
N1082 C1108 1.435 . S
N1082 C1114 1.423 . S
H1083 C1119 0.932 1_455 S
C1084 N1059 1.433 . S
C1084 C1085 1.363 . S
C1084 C1089 1.370 1_655 S
C1085 H1058 0.929 . S
C1085 C1084 1.363 . S
C1085 C1086 1.385 . S
C1086 H1060 0.930 . S
C1086 C1085 1.385 . S
C1086 C1087 1.357 1_655 S
C1087 C1086 1.357 1_455 S
C1087 C1088 1.406 . S
C1088 H1062 0.929 . S
C1088 C1087 1.406 . S
C1088 C1089 1.391 . S
C1089 H1061 0.931 . S
C1089 C1084 1.370 1_455 S
C1089 C1088 1.391 . S
C1090 N1059 1.435 . S
C1090 C1091 1.358 1_655 S
C1090 C1095 1.371 . S
C1091 H1063 0.930 . S
C1091 C1090 1.358 1_455 S
C1091 C1092 1.405 . S
C1092 H1064 0.932 . S
C1092 C1091 1.405 . S
C1092 C1093 1.383 1_455 S
C1093 C1092 1.383 1_655 S
C1093 C1094 1.393 . S
C1094 H1066 0.931 . S
C1094 C1093 1.393 . S
C1094 C1095 1.382 . S
C1095 H1065 0.929 . S
C1095 C1090 1.371 . S
C1095 C1094 1.382 . S
C1096 N1059 1.423 . S
C1096 C1097 1.362 . S
C1096 C1101 1.388 . S
C1097 H1067 0.929 . S
C1097 C1096 1.362 . S
C1097 C1098 1.376 . S
C1098 H1069 0.931 . S
C1098 C1097 1.376 . S
C1098 C1099 1.396 . S
C1099 C1098 1.396 . S
C1099 C1100 1.348 . S
C1099 C1117 1.472 . S
C1100 H1070 0.929 . S
C1100 C1099 1.348 . S
C1100 C1101 1.443 . S
C1101 H1068 0.932 1_655 S
C1101 C1096 1.388 . S
C1101 C1100 1.443 . S
C1102 N1082 1.433 . S
C1102 C1103 1.363 . S
C1102 C1107 1.370 1_655 S
C1103 H1071 0.929 . S
C1103 C1102 1.363 . S
C1103 C1104 1.385 . S
C1104 H1072 0.930 . S
C1104 C1103 1.385 . S
C1104 C1105 1.357 1_655 S
C1105 C1104 1.357 1_455 S
C1105 C1106 1.406 . S
C1106 H1073 0.929 . S
C1106 C1105 1.406 . S
C1106 C1107 1.391 . S
C1107 H1074 0.931 . S
C1107 C1102 1.370 1_455 S
C1107 C1106 1.391 . S
C1108 N1082 1.435 . S
C1108 C1109 1.358 1_655 S
C1108 C1113 1.371 . S
C1109 H1075 0.930 . S
C1109 C1108 1.358 1_455 S
C1109 C1110 1.405 . S
C1110 H1076 0.932 . S
C1110 C1109 1.405 . S
C1110 C1111 1.383 1_455 S
C1111 C1110 1.383 1_655 S
C1111 C1112 1.393 . S
C1112 H1077 0.931 . S
C1112 C1111 1.393 . S
C1112 C1113 1.382 . S
C1113 H1078 0.929 . S
C1113 C1108 1.371 . S
C1113 C1112 1.382 . S
C1114 N1082 1.423 . S
C1114 C1115 1.362 . S
C1114 C1119 1.388 . S
C1115 H1079 0.929 . S
C1115 C1114 1.362 . S
C1115 C1116 1.376 . S
C1116 H1080 0.931 . S
C1116 C1115 1.376 . S
C1116 C1117 1.396 . S
C1117 C1099 1.472 . S
C1117 C1116 1.396 . S
C1117 C1118 1.348 . S
C1118 H1081 0.929 . S
C1118 C1117 1.348 . S
C1118 C1119 1.443 . S
C1119 H1083 0.932 1_655 S
C1119 C1114 1.388 . S
C1119 C1118 1.443 . S
H1120 C1147 0.929 . S
N1121 C1146 1.433 . S
N1121 C1152 1.435 . S
N1121 C1158 1.423 . S
H1122 C1148 0.930 . S
H1123 C1151 0.931 . S
H1124 C1150 0.929 . S
H1125 C1153 0.930 . S
H1126 C1154 0.932 . S
H1127 C1157 0.929 . S
H1128 C1156 0.931 . S
H1129 C1159 0.929 . S
H1130 C1163 0.932 . S
H1131 C1160 0.931 . S
H1132 C1162 0.929 . S
H1133 C1165 0.929 . S
H1134 C1166 0.930 . S
H1135 C1168 0.929 . S
H1136 C1169 0.931 . S
H1137 C1171 0.930 . S
H1138 C1172 0.932 . S
H1139 C1174 0.931 . S
H1140 C1175 0.929 . S
H1141 C1177 0.929 . S
H1142 C1178 0.931 . S
H1143 C1180 0.929 . S
N1144 C1164 1.433 . S
N1144 C1170 1.435 . S
N1144 C1176 1.423 . S
H1145 C1181 0.932 . S
C1146 N1121 1.433 . S
C1146 C1147 1.363 . S
C1146 C1151 1.370 . S
C1147 H1120 0.929 . S
C1147 C1146 1.363 . S
C1147 C1148 1.385 . S
C1148 H1122 0.930 . S
C1148 C1147 1.385 . S
C1148 C1149 1.357 . S
C1149 C1148 1.357 . S
C1149 C1150 1.406 . S
C1150 H1124 0.929 . S
C1150 C1149 1.406 . S
C1150 C1151 1.391 . S
C1151 H1123 0.931 . S
C1151 C1146 1.370 . S
C1151 C1150 1.391 . S
C1152 N1121 1.435 . S
C1152 C1153 1.358 . S
C1152 C1157 1.371 . S
C1153 H1125 0.930 . S
C1153 C1152 1.358 . S
C1153 C1154 1.405 . S
C1154 H1126 0.932 . S
C1154 C1153 1.405 . S
C1154 C1155 1.383 . S
C1155 C1154 1.383 . S
C1155 C1156 1.393 . S
C1156 H1128 0.931 . S
C1156 C1155 1.393 . S
C1156 C1157 1.382 . S
C1157 H1127 0.929 . S
C1157 C1152 1.371 . S
C1157 C1156 1.382 . S
C1158 N1121 1.423 . S
C1158 C1159 1.362 . S
C1158 C1163 1.388 . S
C1159 H1129 0.929 . S
C1159 C1158 1.362 . S
C1159 C1160 1.376 . S
C1160 H1131 0.931 . S
C1160 C1159 1.376 . S
C1160 C1161 1.396 . S
C1161 C1160 1.396 . S
C1161 C1162 1.348 . S
C1161 C1179 1.472 . S
C1162 H1132 0.929 . S
C1162 C1161 1.348 . S
C1162 C1163 1.443 . S
C1163 H1130 0.932 . S
C1163 C1158 1.388 . S
C1163 C1162 1.443 . S
C1164 N1144 1.433 . S
C1164 C1165 1.363 . S
C1164 C1169 1.370 . S
C1165 H1133 0.929 . S
C1165 C1164 1.363 . S
C1165 C1166 1.385 . S
C1166 H1134 0.930 . S
C1166 C1165 1.385 . S
C1166 C1167 1.357 . S
C1167 C1166 1.357 . S
C1167 C1168 1.406 . S
C1168 H1135 0.929 . S
C1168 C1167 1.406 . S
C1168 C1169 1.391 . S
C1169 H1136 0.931 . S
C1169 C1164 1.370 . S
C1169 C1168 1.391 . S
C1170 N1144 1.435 . S
C1170 C1171 1.358 . S
C1170 C1175 1.371 . S
C1171 H1137 0.930 . S
C1171 C1170 1.358 . S
C1171 C1172 1.405 . S
C1172 H1138 0.932 . S
C1172 C1171 1.405 . S
C1172 C1173 1.383 . S
C1173 C1172 1.383 . S
C1173 C1174 1.393 . S
C1174 H1139 0.931 . S
C1174 C1173 1.393 . S
C1174 C1175 1.382 . S
C1175 H1140 0.929 . S
C1175 C1170 1.371 . S
C1175 C1174 1.382 . S
C1176 N1144 1.423 . S
C1176 C1177 1.362 . S
C1176 C1181 1.388 . S
C1177 H1141 0.929 . S
C1177 C1176 1.362 . S
C1177 C1178 1.376 . S
C1178 H1142 0.931 . S
C1178 C1177 1.376 . S
C1178 C1179 1.396 . S
C1179 C1161 1.472 . S
C1179 C1178 1.396 . S
C1179 C1180 1.348 . S
C1180 H1143 0.929 . S
C1180 C1179 1.348 . S
C1180 C1181 1.443 . S
C1181 H1145 0.932 . S
C1181 C1176 1.388 . S
C1181 C1180 1.443 . S
H1182 C1209 0.929 . S
N1183 C1208 1.433 . S
N1183 C1214 1.435 . S
N1183 C1220 1.423 . S
H1184 C1210 0.930 . S
H1185 C1213 0.931 . S
H1186 C1212 0.929 . S
H1187 C1215 0.930 . S
H1188 C1216 0.932 . S
H1189 C1219 0.929 . S
H1190 C1218 0.931 . S
H1191 C1221 0.929 . S
H1192 C1225 0.932 . S
H1193 C1222 0.931 . S
H1194 C1224 0.929 . S
H1195 C1227 0.929 . S
H1196 C1228 0.930 . S
H1197 C1230 0.929 . S
H1198 C1231 0.931 . S
H1199 C1233 0.930 . S
H1200 C1234 0.932 . S
H1201 C1236 0.931 . S
H1202 C1237 0.929 . S
H1203 C1239 0.929 . S
H1204 C1240 0.931 . S
H1205 C1242 0.929 . S
N1206 C1226 1.433 . S
N1206 C1232 1.435 . S
N1206 C1238 1.423 . S
H1207 C1243 0.932 . S
C1208 N1183 1.433 . S
C1208 C1209 1.363 . S
C1208 C1213 1.370 . S
C1209 H1182 0.929 . S
C1209 C1208 1.363 . S
C1209 C1210 1.385 . S
C1210 H1184 0.930 . S
C1210 C1209 1.385 . S
C1210 C1211 1.357 . S
C1211 C1210 1.357 . S
C1211 C1212 1.406 . S
C1212 H1186 0.929 . S
C1212 C1211 1.406 . S
C1212 C1213 1.391 . S
C1213 H1185 0.931 . S
C1213 C1208 1.370 . S
C1213 C1212 1.391 . S
C1214 N1183 1.435 . S
C1214 C1215 1.358 . S
C1214 C1219 1.371 . S
C1215 H1187 0.930 . S
C1215 C1214 1.358 . S
C1215 C1216 1.405 . S
C1216 H1188 0.932 . S
C1216 C1215 1.405 . S
C1216 C1217 1.383 . S
C1217 C1216 1.383 . S
C1217 C1218 1.393 . S
C1218 H1190 0.931 . S
C1218 C1217 1.393 . S
C1218 C1219 1.382 . S
C1219 H1189 0.929 . S
C1219 C1214 1.371 . S
C1219 C1218 1.382 . S
C1220 N1183 1.423 . S
C1220 C1221 1.362 . S
C1220 C1225 1.388 . S
C1221 H1191 0.929 . S
C1221 C1220 1.362 . S
C1221 C1222 1.376 . S
C1222 H1193 0.931 . S
C1222 C1221 1.376 . S
C1222 C1223 1.396 . S
C1223 C1222 1.396 . S
C1223 C1224 1.348 . S
C1223 C1241 1.472 . S
C1224 H1194 0.929 . S
C1224 C1223 1.348 . S
C1224 C1225 1.443 . S
C1225 H1192 0.932 . S
C1225 C1220 1.388 . S
C1225 C1224 1.443 . S
C1226 N1206 1.433 . S
C1226 C1227 1.363 . S
C1226 C1231 1.370 . S
C1227 H1195 0.929 . S
C1227 C1226 1.363 . S
C1227 C1228 1.385 . S
C1228 H1196 0.930 . S
C1228 C1227 1.385 . S
C1228 C1229 1.357 . S
C1229 C1228 1.357 . S
C1229 C1230 1.406 . S
C1230 H1197 0.929 . S
C1230 C1229 1.406 . S
C1230 C1231 1.391 . S
C1231 H1198 0.931 . S
C1231 C1226 1.370 . S
C1231 C1230 1.391 . S
C1232 N1206 1.435 . S
C1232 C1233 1.358 . S
C1232 C1237 1.371 . S
C1233 H1199 0.930 . S
C1233 C1232 1.358 . S
C1233 C1234 1.405 . S
C1234 H1200 0.932 . S
C1234 C1233 1.405 . S
C1234 C1235 1.383 . S
C1235 C1234 1.383 . S
C1235 C1236 1.393 . S
C1236 H1201 0.931 . S
C1236 C1235 1.393 . S
C1236 C1237 1.382 . S
C1237 H1202 0.929 . S
C1237 C1232 1.371 . S
C1237 C1236 1.382 . S
C1238 N1206 1.423 . S
C1238 C1239 1.362 . S
C1238 C1243 1.388 . S
C1239 H1203 0.929 . S
C1239 C1238 1.362 . S
C1239 C1240 1.376 . S
C1240 H1204 0.931 . S
C1240 C1239 1.376 . S
C1240 C1241 1.396 . S
C1241 C1223 1.472 . S
C1241 C1240 1.396 . S
C1241 C1242 1.348 . S
C1242 H1205 0.929 . S
C1242 C1241 1.348 . S
C1242 C1243 1.443 . S
C1243 H1207 0.932 . S
C1243 C1238 1.388 . S
C1243 C1242 1.443 . S
H1244 C1271 0.929 . S
N1245 C1270 1.433 . S
N1245 C1276 1.435 . S
N1245 C1282 1.423 . S
H1246 C1272 0.930 . S
H1247 C1275 0.931 . S
H1248 C1274 0.929 . S
H1249 C1277 0.930 . S
H1250 C1278 0.932 . S
H1251 C1281 0.929 . S
H1252 C1280 0.931 . S
H1253 C1283 0.929 . S
H1254 C1287 0.932 . S
H1255 C1284 0.931 . S
H1256 C1286 0.929 . S
H1257 C1289 0.929 . S
H1258 C1290 0.930 . S
H1259 C1292 0.929 . S
H1260 C1293 0.931 . S
H1261 C1295 0.930 . S
H1262 C1296 0.932 . S
H1263 C1298 0.931 . S
H1264 C1299 0.929 . S
H1265 C1301 0.929 . S
H1266 C1302 0.931 . S
H1267 C1304 0.929 . S
N1268 C1288 1.433 . S
N1268 C1294 1.435 . S
N1268 C1300 1.423 . S
H1269 C1305 0.932 . S
C1270 N1245 1.433 . S
C1270 C1271 1.363 . S
C1270 C1275 1.370 . S
C1271 H1244 0.929 . S
C1271 C1270 1.363 . S
C1271 C1272 1.385 . S
C1272 H1246 0.930 . S
C1272 C1271 1.385 . S
C1272 C1273 1.357 . S
C1273 C1272 1.357 . S
C1273 C1274 1.406 . S
C1274 H1248 0.929 . S
C1274 C1273 1.406 . S
C1274 C1275 1.391 . S
C1275 H1247 0.931 . S
C1275 C1270 1.370 . S
C1275 C1274 1.391 . S
C1276 N1245 1.435 . S
C1276 C1277 1.358 . S
C1276 C1281 1.371 . S
C1277 H1249 0.930 . S
C1277 C1276 1.358 . S
C1277 C1278 1.405 . S
C1278 H1250 0.932 . S
C1278 C1277 1.405 . S
C1278 C1279 1.383 . S
C1279 C1278 1.383 . S
C1279 C1280 1.393 . S
C1280 H1252 0.931 . S
C1280 C1279 1.393 . S
C1280 C1281 1.382 . S
C1281 H1251 0.929 . S
C1281 C1276 1.371 . S
C1281 C1280 1.382 . S
C1282 N1245 1.423 . S
C1282 C1283 1.362 . S
C1282 C1287 1.388 . S
C1283 H1253 0.929 . S
C1283 C1282 1.362 . S
C1283 C1284 1.376 . S
C1284 H1255 0.931 . S
C1284 C1283 1.376 . S
C1284 C1285 1.396 . S
C1285 C1284 1.396 . S
C1285 C1286 1.348 . S
C1285 C1303 1.472 . S
C1286 H1256 0.929 . S
C1286 C1285 1.348 . S
C1286 C1287 1.443 . S
C1287 H1254 0.932 . S
C1287 C1282 1.388 . S
C1287 C1286 1.443 . S
C1288 N1268 1.433 . S
C1288 C1289 1.363 . S
C1288 C1293 1.370 . S
C1289 H1257 0.929 . S
C1289 C1288 1.363 . S
C1289 C1290 1.385 . S
C1290 H1258 0.930 . S
C1290 C1289 1.385 . S
C1290 C1291 1.357 . S
C1291 C1290 1.357 . S
C1291 C1292 1.406 . S
C1292 H1259 0.929 . S
C1292 C1291 1.406 . S
C1292 C1293 1.391 . S
C1293 H1260 0.931 . S
C1293 C1288 1.370 . S
C1293 C1292 1.391 . S
C1294 N1268 1.435 . S
C1294 C1295 1.358 . S
C1294 C1299 1.371 . S
C1295 H1261 0.930 . S
C1295 C1294 1.358 . S
C1295 C1296 1.405 . S
C1296 H1262 0.932 . S
C1296 C1295 1.405 . S
C1296 C1297 1.383 . S
C1297 C1296 1.383 . S
C1297 C1298 1.393 . S
C1298 H1263 0.931 . S
C1298 C1297 1.393 . S
C1298 C1299 1.382 . S
C1299 H1264 0.929 . S
C1299 C1294 1.371 . S
C1299 C1298 1.382 . S
C1300 N1268 1.423 . S
C1300 C1301 1.362 . S
C1300 C1305 1.388 . S
C1301 H1265 0.929 . S
C1301 C1300 1.362 . S
C1301 C1302 1.376 . S
C1302 H1266 0.931 . S
C1302 C1301 1.376 . S
C1302 C1303 1.396 . S
C1303 C1285 1.472 . S
C1303 C1302 1.396 . S
C1303 C1304 1.348 . S
C1304 H1267 0.929 . S
C1304 C1303 1.348 . S
C1304 C1305 1.443 . S
C1305 H1269 0.932 . S
C1305 C1300 1.388 . S
C1305 C1304 1.443 . S
H1306 C1333 0.929 . S
N1307 C1332 1.433 . S
N1307 C1338 1.435 . S
N1307 C1344 1.423 . S
H1308 C1334 0.930 . S
H1309 C1337 0.931 . S
H1310 C1336 0.929 . S
H1311 C1339 0.930 . S
H1312 C1340 0.932 . S
H1313 C1343 0.929 . S
H1314 C1342 0.931 . S
H1315 C1345 0.929 . S
H1316 C1349 0.932 . S
H1317 C1346 0.931 . S
H1318 C1348 0.929 . S
H1319 C1351 0.929 . S
H1320 C1352 0.930 . S
H1321 C1354 0.929 . S
H1322 C1355 0.931 . S
H1323 C1357 0.930 . S
H1324 C1358 0.932 . S
H1325 C1360 0.931 . S
H1326 C1361 0.929 . S
H1327 C1363 0.929 . S
H1328 C1364 0.931 . S
H1329 C1366 0.929 . S
N1330 C1350 1.433 . S
N1330 C1356 1.435 . S
N1330 C1362 1.423 . S
H1331 C1367 0.932 . S
C1332 N1307 1.433 . S
C1332 C1333 1.363 . S
C1332 C1337 1.370 . S
C1333 H1306 0.929 . S
C1333 C1332 1.363 . S
C1333 C1334 1.385 . S
C1334 H1308 0.930 . S
C1334 C1333 1.385 . S
C1334 C1335 1.357 . S
C1335 C1334 1.357 . S
C1335 C1336 1.406 . S
C1336 H1310 0.929 . S
C1336 C1335 1.406 . S
C1336 C1337 1.391 . S
C1337 H1309 0.931 . S
C1337 C1332 1.370 . S
C1337 C1336 1.391 . S
C1338 N1307 1.435 . S
C1338 C1339 1.358 . S
C1338 C1343 1.371 . S
C1339 H1311 0.930 . S
C1339 C1338 1.358 . S
C1339 C1340 1.405 . S
C1340 H1312 0.932 . S
C1340 C1339 1.405 . S
C1340 C1341 1.383 . S
C1341 C1340 1.383 . S
C1341 C1342 1.393 . S
C1342 H1314 0.931 . S
C1342 C1341 1.393 . S
C1342 C1343 1.382 . S
C1343 H1313 0.929 . S
C1343 C1338 1.371 . S
C1343 C1342 1.382 . S
C1344 N1307 1.423 . S
C1344 C1345 1.362 . S
C1344 C1349 1.388 . S
C1345 H1315 0.929 . S
C1345 C1344 1.362 . S
C1345 C1346 1.376 . S
C1346 H1317 0.931 . S
C1346 C1345 1.376 . S
C1346 C1347 1.396 . S
C1347 C1346 1.396 . S
C1347 C1348 1.348 . S
C1347 C1365 1.472 . S
C1348 H1318 0.929 . S
C1348 C1347 1.348 . S
C1348 C1349 1.443 . S
C1349 H1316 0.932 . S
C1349 C1344 1.388 . S
C1349 C1348 1.443 . S
C1350 N1330 1.433 . S
C1350 C1351 1.363 . S
C1350 C1355 1.370 . S
C1351 H1319 0.929 . S
C1351 C1350 1.363 . S
C1351 C1352 1.385 . S
C1352 H1320 0.930 . S
C1352 C1351 1.385 . S
C1352 C1353 1.357 . S
C1353 C1352 1.357 . S
C1353 C1354 1.406 . S
C1354 H1321 0.929 . S
C1354 C1353 1.406 . S
C1354 C1355 1.391 . S
C1355 H1322 0.931 . S
C1355 C1350 1.370 . S
C1355 C1354 1.391 . S
C1356 N1330 1.435 . S
C1356 C1357 1.358 . S
C1356 C1361 1.371 . S
C1357 H1323 0.930 . S
C1357 C1356 1.358 . S
C1357 C1358 1.405 . S
C1358 H1324 0.932 . S
C1358 C1357 1.405 . S
C1358 C1359 1.383 . S
C1359 C1358 1.383 . S
C1359 C1360 1.393 . S
C1360 H1325 0.931 . S
C1360 C1359 1.393 . S
C1360 C1361 1.382 . S
C1361 H1326 0.929 . S
C1361 C1356 1.371 . S
C1361 C1360 1.382 . S
C1362 N1330 1.423 . S
C1362 C1363 1.362 . S
C1362 C1367 1.388 . S
C1363 H1327 0.929 . S
C1363 C1362 1.362 . S
C1363 C1364 1.376 . S
C1364 H1328 0.931 . S
C1364 C1363 1.376 . S
C1364 C1365 1.396 . S
C1365 C1347 1.472 . S
C1365 C1364 1.396 . S
C1365 C1366 1.348 . S
C1366 H1329 0.929 . S
C1366 C1365 1.348 . S
C1366 C1367 1.443 . S
C1367 H1331 0.932 . S
C1367 C1362 1.388 . S
C1367 C1366 1.443 . S
C1368 C1369 1.363 . S
C1368 C1374 1.379 . S
C1368 N1376 1.356 . S
C1369 C1368 1.363 . S
C1369 C1375 1.363 1_655 S
C1370 C1371 1.363 1_455 S
C1370 C1375 1.379 . S
C1370 N1377 1.356 . S
C1371 C1370 1.363 1_655 S
C1371 C1374 1.363 . S
N1372 C1374 1.356 . S
N1372 H1384 0.984 . S
N1372 H1385 0.985 . S
N1373 C1375 1.356 . S
N1373 H1378 0.984 . S
N1373 H1379 0.985 . S
C1374 C1368 1.379 . S
C1374 C1371 1.363 . S
C1374 N1372 1.356 . S
C1375 C1369 1.363 1_455 S
C1375 C1370 1.379 . S
C1375 N1373 1.356 . S
N1376 C1368 1.356 . S
N1376 H1382 0.984 . S
N1376 H1383 0.984 . S
N1377 C1370 1.356 . S
N1377 H1380 0.984 . S
N1377 H1381 0.985 . S
H1378 N1373 0.984 . S
H1379 N1373 0.985 . S
H1380 N1377 0.984 . S
H1381 N1377 0.985 . S
H1382 N1376 0.984 . S
H1383 N1376 0.984 . S
H1384 N1372 0.984 . S
H1385 N1372 0.985 . S
C1386 C1387 1.363 . S
C1386 C1392 1.379 . S
C1386 N1394 1.356 . S
C1387 C1386 1.363 . S
C1387 C1393 1.363 . S
C1388 C1389 1.363 . S
C1388 C1393 1.379 . S
C1388 N1395 1.356 . S
C1389 C1388 1.363 . S
C1389 C1392 1.363 . S
N1390 C1392 1.356 . S
N1390 H1402 0.984 . S
N1390 H1403 0.985 . S
N1391 C1393 1.356 . S
N1391 H1396 0.984 . S
N1391 H1397 0.985 . S
C1392 C1386 1.379 . S
C1392 C1389 1.363 . S
C1392 N1390 1.356 . S
C1393 C1387 1.363 . S
C1393 C1388 1.379 . S
C1393 N1391 1.356 . S
N1394 C1386 1.356 . S
N1394 H1400 0.984 . S
N1394 H1401 0.984 . S
N1395 C1388 1.356 . S
N1395 H1398 0.984 . S
N1395 H1399 0.985 . S
H1396 N1391 0.984 . S
H1397 N1391 0.985 . S
H1398 N1395 0.984 . S
H1399 N1395 0.985 . S
H1400 N1394 0.984 . S
H1401 N1394 0.984 . S
H1402 N1390 0.984 . S
H1403 N1390 0.985 . S
C1404 C1405 1.363 . S
C1404 C1410 1.379 . S
C1404 N1412 1.356 . S
C1405 C1404 1.363 . S
C1405 C1411 1.363 1_545 S
C1406 C1407 1.363 1_565 S
C1406 C1411 1.379 . S
C1406 N1413 1.356 . S
C1407 C1406 1.363 1_545 S
C1407 C1410 1.363 . S
N1408 C1410 1.356 . S
N1408 H1420 0.984 . S
N1408 H1421 0.985 . S
N1409 C1411 1.356 . S
N1409 H1414 0.984 . S
N1409 H1415 0.985 . S
C1410 C1404 1.379 . S
C1410 C1407 1.363 . S
C1410 N1408 1.356 . S
C1411 C1405 1.363 1_565 S
C1411 C1406 1.379 . S
C1411 N1409 1.356 . S
N1412 C1404 1.356 . S
N1412 H1418 0.984 . S
N1412 H1419 0.984 . S
N1413 C1406 1.356 . S
N1413 H1416 0.984 . S
N1413 H1417 0.985 . S
H1414 N1409 0.984 . S
H1415 N1409 0.985 . S
H1416 N1413 0.984 . S
H1417 N1413 0.985 . S
H1418 N1412 0.984 . S
H1419 N1412 0.984 . S
H1420 N1408 0.984 . S
H1421 N1408 0.985 . S
C1422 C1423 1.408 . S
C1422 C1428 1.379 . S
C1422 N1430 1.356 . S
C1423 C1422 1.408 . S
C1423 C1429 1.341 1_565 S
C1424 C1425 1.363 1_545 S
C1424 C1429 1.379 . S
C1424 N1431 1.356 . S
C1425 C1424 1.363 1_565 S
C1425 C1428 1.363 . S
N1426 C1428 1.356 . S
N1426 H1438 0.984 . S
N1426 H1439 0.985 . S
N1427 C1429 1.356 . S
N1427 H1432 0.984 . S
N1427 H1433 0.985 . S
C1428 C1422 1.379 . S
C1428 C1425 1.363 . S
C1428 N1426 1.356 . S
C1429 C1423 1.341 1_545 S
C1429 C1424 1.379 . S
C1429 N1427 1.356 . S
N1430 C1422 1.356 . S
N1430 H1436 0.984 . S
N1430 H1437 0.984 . S
N1431 C1424 1.356 . S
N1431 H1434 0.984 . S
N1431 H1435 0.985 . S
H1432 N1427 0.984 . S
H1433 N1427 0.985 . S
H1434 N1431 0.984 . S
H1435 N1431 0.985 . S
H1436 N1430 0.984 . S
H1437 N1430 0.984 . S
H1438 N1426 0.984 . S
H1439 N1426 0.985 . S
C1440 C1441 1.363 . S
C1440 C1446 1.379 . S
C1440 N1448 1.356 . S
C1441 C1440 1.363 . S
C1441 C1447 1.363 1_455 S
C1442 C1443 1.363 1_655 S
C1442 C1447 1.379 . S
C1442 N1449 1.356 . S
C1443 C1442 1.363 1_455 S
C1443 C1446 1.363 . S
N1444 C1446 1.356 . S
N1444 H1456 0.984 . S
N1444 H1457 0.985 . S
N1445 C1447 1.356 . S
N1445 H1450 0.984 . S
N1445 H1451 0.985 . S
C1446 C1440 1.379 . S
C1446 C1443 1.363 . S
C1446 N1444 1.356 . S
C1447 C1441 1.363 1_655 S
C1447 C1442 1.379 . S
C1447 N1445 1.356 . S
N1448 C1440 1.356 . S
N1448 H1454 0.984 . S
N1448 H1455 0.984 . S
N1449 C1442 1.356 . S
N1449 H1452 0.984 . S
N1449 H1453 0.985 . S
H1450 N1445 0.984 . S
H1451 N1445 0.985 . S
H1452 N1449 0.984 . S
H1453 N1449 0.985 . S
H1454 N1448 0.984 . S
H1455 N1448 0.984 . S
H1456 N1444 0.984 . S
H1457 N1444 0.985 . S
C1458 C1459 1.363 . S
C1458 C1464 1.379 . S
C1458 N1466 1.356 . S
C1459 C1458 1.363 . S
C1459 C1465 1.363 . S
C1460 C1461 1.363 . S
C1460 C1465 1.379 . S
C1460 N1467 1.356 . S
C1461 C1460 1.363 . S
C1461 C1464 1.363 . S
N1462 C1464 1.356 . S
N1462 H1474 0.984 . S
N1462 H1475 0.985 . S
N1463 C1465 1.356 . S
N1463 H1468 0.984 . S
N1463 H1469 0.985 . S
C1464 C1458 1.379 . S
C1464 C1461 1.363 . S
C1464 N1462 1.356 . S
C1465 C1459 1.363 . S
C1465 C1460 1.379 . S
C1465 N1463 1.356 . S
N1466 C1458 1.356 . S
N1466 H1472 0.984 . S
N1466 H1473 0.984 . S
N1467 C1460 1.356 . S
N1467 H1470 0.984 . S
N1467 H1471 0.985 . S
H1468 N1463 0.984 . S
H1469 N1463 0.985 . S
H1470 N1467 0.984 . S
H1471 N1467 0.985 . S
H1472 N1466 0.984 . S
H1473 N1466 0.984 . S
H1474 N1462 0.984 . S
H1475 N1462 0.985 . S
C1476 C1477 1.372 1_655 S
C1476 C1482 1.343 1_655 S
C1476 N1484 1.361 . S
C1477 C1476 1.372 1_455 S
C1477 C1483 1.363 . S
C1478 C1479 1.363 . S
C1478 C1483 1.379 . S
C1478 N1485 1.356 . S
C1479 C1478 1.363 . S
C1479 C1482 1.369 . S
N1480 C1482 1.387 1_655 S
N1480 H1492 0.984 . S
N1480 H1493 0.969 1_655 S
N1481 C1483 1.356 . S
N1481 H1486 0.984 . S
N1481 H1487 0.985 . S
C1482 C1476 1.343 1_455 S
C1482 C1479 1.369 . S
C1482 N1480 1.387 1_455 S
C1483 C1477 1.363 . S
C1483 C1478 1.379 . S
C1483 N1481 1.356 . S
N1484 C1476 1.361 . S
N1484 H1490 0.984 . S
N1484 H1491 0.984 . S
N1485 C1478 1.356 . S
N1485 H1488 0.984 . S
N1485 H1489 0.985 . S
H1486 N1481 0.984 . S
H1487 N1481 0.985 . S
H1488 N1485 0.984 . S
H1489 N1485 0.985 . S
H1490 N1484 0.984 . S
H1491 N1484 0.984 . S
H1492 N1480 0.984 . S
H1493 N1480 0.969 1_455 S
C1494 C1495 1.363 . S
C1494 C1500 1.379 . S
C1494 N1502 1.356 . S
C1495 C1494 1.363 . S
C1495 C1501 1.363 . S
C1496 C1497 1.363 . S
C1496 C1501 1.379 . S
C1496 N1503 1.356 . S
C1497 C1496 1.363 . S
C1497 C1500 1.363 . S
N1498 C1500 1.356 . S
N1498 H1510 0.984 . S
N1498 H1511 0.985 . S
N1499 C1501 1.356 . S
N1499 H1504 0.984 . S
N1499 H1505 0.985 . S
C1500 C1494 1.379 . S
C1500 C1497 1.363 . S
C1500 N1498 1.356 . S
C1501 C1495 1.363 . S
C1501 C1496 1.379 . S
C1501 N1499 1.356 . S
N1502 C1494 1.356 . S
N1502 H1508 0.984 . S
N1502 H1509 0.984 . S
N1503 C1496 1.356 . S
N1503 H1506 0.984 . S
N1503 H1507 0.985 . S
H1504 N1499 0.984 . S
H1505 N1499 0.985 . S
H1506 N1503 0.984 . S
H1507 N1503 0.985 . S
H1508 N1502 0.984 . S
H1509 N1502 0.984 . S
H1510 N1498 0.984 . S
H1511 N1498 0.985 . S
C1512 C1513 1.363 . S
C1512 C1518 1.379 . S
C1512 N1520 1.356 . S
C1513 C1512 1.363 . S
C1513 C1519 1.363 1_565 S
C1514 C1515 1.363 1_545 S
C1514 C1519 1.379 . S
C1514 N1521 1.356 . S
C1515 C1514 1.363 1_565 S
C1515 C1518 1.363 . S
N1516 C1518 1.356 . S
N1516 H1528 0.984 . S
N1516 H1529 0.985 . S
N1517 C1519 1.356 . S
N1517 H1522 0.984 . S
N1517 H1523 0.985 . S
C1518 C1512 1.379 . S
C1518 C1515 1.363 . S
C1518 N1516 1.356 . S
C1519 C1513 1.363 1_545 S
C1519 C1514 1.379 . S
C1519 N1517 1.356 . S
N1520 C1512 1.356 . S
N1520 H1526 0.984 . S
N1520 H1527 0.984 . S
N1521 C1514 1.356 . S
N1521 H1524 0.984 . S
N1521 H1525 0.985 . S
H1522 N1517 0.984 . S
H1523 N1517 0.985 . S
H1524 N1521 0.984 . S
H1525 N1521 0.985 . S
H1526 N1520 0.984 . S
H1527 N1520 0.984 . S
H1528 N1516 0.984 . S
H1529 N1516 0.985 . S
C1530 C1531 1.363 1_565 S
C1530 C1536 1.379 . S
C1530 N1538 1.356 . S
C1531 C1530 1.363 1_545 S
C1531 C1537 1.363 . S
C1532 C1533 1.363 . S
C1532 C1537 1.379 . S
C1532 N1539 1.356 . S
C1533 C1532 1.363 . S
C1533 C1536 1.363 1_545 S
N1534 C1536 1.356 . S
N1534 H1546 0.984 . S
N1534 H1547 0.985 . S
N1535 C1537 1.356 . S
N1535 H1540 0.984 . S
N1535 H1541 0.985 . S
C1536 C1530 1.379 . S
C1536 C1533 1.363 1_565 S
C1536 N1534 1.356 . S
C1537 C1531 1.363 . S
C1537 C1532 1.379 . S
C1537 N1535 1.356 . S
N1538 C1530 1.356 . S
N1538 H1544 0.984 . S
N1538 H1545 0.984 . S
N1539 C1532 1.356 . S
N1539 H1542 0.984 . S
N1539 H1543 0.985 . S
H1540 N1535 0.984 . S
H1541 N1535 0.985 . S
H1542 N1539 0.984 . S
H1543 N1539 0.985 . S
H1544 N1538 0.984 . S
H1545 N1538 0.984 . S
H1546 N1534 0.984 . S
H1547 N1534 0.985 . S
C1548 C1549 1.363 1_455 S
C1548 C1554 1.379 . S
C1548 N1556 1.356 . S
C1549 C1548 1.363 1_655 S
C1549 C1555 1.363 . S
C1550 C1551 1.363 . S
C1550 C1555 1.379 . S
C1550 N1557 1.356 . S
C1551 C1550 1.363 . S
C1551 C1554 1.363 1_655 S
N1552 C1554 1.356 . S
N1552 H1564 0.984 . S
N1552 H1565 0.985 . S
N1553 C1555 1.356 . S
N1553 H1558 0.984 . S
N1553 H1559 0.985 . S
C1554 C1548 1.379 . S
C1554 C1551 1.363 1_455 S
C1554 N1552 1.356 . S
C1555 C1549 1.363 . S
C1555 C1550 1.379 . S
C1555 N1553 1.356 . S
N1556 C1548 1.356 . S
N1556 H1562 0.984 . S
N1556 H1563 0.984 . S
N1557 C1550 1.356 . S
N1557 H1560 0.984 . S
N1557 H1561 0.985 . S
H1558 N1553 0.984 . S
H1559 N1553 0.985 . S
H1560 N1557 0.984 . S
H1561 N1557 0.985 . S
H1562 N1556 0.984 . S
H1563 N1556 0.984 . S
H1564 N1552 0.984 . S
H1565 N1552 0.985 . S
C1566 C1567 1.363 . S
C1566 C1572 1.379 . S
C1566 N1574 1.356 . S
C1567 C1566 1.363 . S
C1567 C1573 1.363 . S
C1568 C1569 1.363 . S
C1568 C1573 1.379 . S
C1568 N1575 1.356 . S
C1569 C1568 1.363 . S
C1569 C1572 1.363 . S
N1570 C1572 1.356 . S
N1570 H1582 0.984 . S
N1570 H1583 0.985 . S
N1571 C1573 1.356 . S
N1571 H1576 0.984 . S
N1571 H1577 0.985 . S
C1572 C1566 1.379 . S
C1572 C1569 1.363 . S
C1572 N1570 1.356 . S
C1573 C1567 1.363 . S
C1573 C1568 1.379 . S
C1573 N1571 1.356 . S
N1574 C1566 1.356 . S
N1574 H1580 0.984 . S
N1574 H1581 0.984 . S
N1575 C1568 1.356 . S
N1575 H1578 0.984 . S
N1575 H1579 0.985 . S
H1576 N1571 0.984 . S
H1577 N1571 0.985 . S
H1578 N1575 0.984 . S
H1579 N1575 0.985 . S
H1580 N1574 0.984 . S
H1581 N1574 0.984 . S
H1582 N1570 0.984 . S
H1583 N1570 0.985 . S
C1584 C1585 1.363 . S
C1584 C1590 1.379 . S
C1584 N1592 1.356 . S
C1585 C1584 1.363 . S
C1585 C1591 1.363 . S
C1586 C1587 1.363 . S
C1586 C1591 1.379 . S
C1586 N1593 1.356 . S
C1587 C1586 1.363 . S
C1587 C1590 1.363 . S
N1588 C1590 1.356 . S
N1588 H1600 0.984 . S
N1588 H1601 0.985 . S
N1589 C1591 1.356 . S
N1589 H1594 0.984 . S
N1589 H1595 0.985 . S
C1590 C1584 1.379 . S
C1590 C1587 1.363 . S
C1590 N1588 1.356 . S
C1591 C1585 1.363 . S
C1591 C1586 1.379 . S
C1591 N1589 1.356 . S
N1592 C1584 1.356 . S
N1592 H1598 0.984 . S
N1592 H1599 0.984 . S
N1593 C1586 1.356 . S
N1593 H1596 0.984 . S
N1593 H1597 0.985 . S
H1594 N1589 0.984 . S
H1595 N1589 0.985 . S
H1596 N1593 0.984 . S
H1597 N1593 0.985 . S
H1598 N1592 0.984 . S
H1599 N1592 0.984 . S
H1600 N1588 0.984 . S
H1601 N1588 0.985 . S
C1602 C1603 1.363 . S
C1602 C1608 1.379 . S
C1602 N1610 1.356 . S
C1603 C1602 1.363 . S
C1603 C1609 1.363 . S
C1604 C1605 1.363 . S
C1604 C1609 1.379 . S
C1604 N1611 1.356 . S
C1605 C1604 1.363 . S
C1605 C1608 1.363 . S
N1606 C1608 1.356 . S
N1606 H1618 0.984 . S
N1606 H1619 0.985 . S
N1607 C1609 1.356 . S
N1607 H1612 0.984 . S
N1607 H1613 0.985 . S
C1608 C1602 1.379 . S
C1608 C1605 1.363 . S
C1608 N1606 1.356 . S
C1609 C1603 1.363 . S
C1609 C1604 1.379 . S
C1609 N1607 1.356 . S
N1610 C1602 1.356 . S
N1610 H1616 0.984 . S
N1610 H1617 0.984 . S
N1611 C1604 1.356 . S
N1611 H1614 0.984 . S
N1611 H1615 0.985 . S
H1612 N1607 0.984 . S
H1613 N1607 0.985 . S
H1614 N1611 0.984 . S
H1615 N1611 0.985 . S
H1616 N1610 0.984 . S
H1617 N1610 0.984 . S
H1618 N1606 0.984 . S
H1619 N1606 0.985 . S
C1620 C1621 1.363 . S
C1620 C1626 1.379 . S
C1620 N1628 1.356 . S
C1621 C1620 1.363 . S
C1621 C1627 1.363 . S
C1622 C1623 1.363 . S
C1622 C1627 1.379 . S
C1622 N1629 1.356 . S
C1623 C1622 1.363 . S
C1623 C1626 1.363 . S
N1624 C1626 1.356 . S
N1624 H1636 0.984 . S
N1624 H1637 0.985 . S
N1625 C1627 1.356 . S
N1625 H1630 0.984 . S
N1625 H1631 0.985 . S
C1626 C1620 1.379 . S
C1626 C1623 1.363 . S
C1626 N1624 1.356 . S
C1627 C1621 1.363 . S
C1627 C1622 1.379 . S
C1627 N1625 1.356 . S
N1628 C1620 1.356 . S
N1628 H1634 0.984 . S
N1628 H1635 0.984 . S
N1629 C1622 1.356 . S
N1629 H1632 0.984 . S
N1629 H1633 0.985 . S
H1630 N1625 0.984 . S
H1631 N1625 0.985 . S
H1632 N1629 0.984 . S
H1633 N1629 0.985 . S
H1634 N1628 0.984 . S
H1635 N1628 0.984 . S
H1636 N1624 0.984 . S
H1637 N1624 0.985 . S
C1638 C1639 1.363 . S
C1638 C1644 1.379 . S
C1638 N1646 1.356 . S
C1639 C1638 1.363 . S
C1639 C1645 1.363 . S
C1640 C1641 1.363 . S
C1640 C1645 1.379 . S
C1640 N1647 1.356 . S
C1641 C1640 1.363 . S
C1641 C1644 1.363 . S
N1642 C1644 1.356 . S
N1642 H1654 0.984 . S
N1642 H1655 0.985 . S
N1643 C1645 1.356 . S
N1643 H1648 0.984 . S
N1643 H1649 0.985 . S
C1644 C1638 1.379 . S
C1644 C1641 1.363 . S
C1644 N1642 1.356 . S
C1645 C1639 1.363 . S
C1645 C1640 1.379 . S
C1645 N1643 1.356 . S
N1646 C1638 1.356 . S
N1646 H1652 0.984 . S
N1646 H1653 0.984 . S
N1647 C1640 1.356 . S
N1647 H1650 0.984 . S
N1647 H1651 0.985 . S
H1648 N1643 0.984 . S
H1649 N1643 0.985 . S
H1650 N1647 0.984 . S
H1651 N1647 0.985 . S
H1652 N1646 0.984 . S
H1653 N1646 0.984 . S
H1654 N1642 0.984 . S
H1655 N1642 0.985 . S
C1656 C1657 1.363 . S
C1656 C1662 1.379 . S
C1656 N1664 1.356 . S
C1657 C1656 1.363 . S
C1657 C1663 1.363 . S
C1658 C1659 1.363 . S
C1658 C1663 1.379 . S
C1658 N1665 1.356 . S
C1659 C1658 1.363 . S
C1659 C1662 1.363 . S
N1660 C1662 1.356 . S
N1660 H1672 0.984 . S
N1660 H1673 0.985 . S
N1661 C1663 1.356 . S
N1661 H1666 0.984 . S
N1661 H1667 0.985 . S
C1662 C1656 1.379 . S
C1662 C1659 1.363 . S
C1662 N1660 1.356 . S
C1663 C1657 1.363 . S
C1663 C1658 1.379 . S
C1663 N1661 1.356 . S
N1664 C1656 1.356 . S
N1664 H1670 0.984 . S
N1664 H1671 0.984 . S
N1665 C1658 1.356 . S
N1665 H1668 0.984 . S
N1665 H1669 0.985 . S
H1666 N1661 0.984 . S
H1667 N1661 0.985 . S
H1668 N1665 0.984 . S
H1669 N1665 0.985 . S
H1670 N1664 0.984 . S
H1671 N1664 0.984 . S
H1672 N1660 0.984 . S
H1673 N1660 0.985 . S
C1674 C1675 1.363 . S
C1674 C1680 1.379 . S
C1674 N1682 1.356 . S
C1675 C1674 1.363 . S
C1675 C1681 1.363 . S
C1676 C1677 1.363 . S
C1676 C1681 1.379 . S
C1676 N1683 1.356 . S
C1677 C1676 1.363 . S
C1677 C1680 1.363 . S
N1678 C1680 1.356 . S
N1678 H1690 0.984 . S
N1678 H1691 0.985 . S
N1679 C1681 1.356 . S
N1679 H1684 0.984 . S
N1679 H1685 0.985 . S
C1680 C1674 1.379 . S
C1680 C1677 1.363 . S
C1680 N1678 1.356 . S
C1681 C1675 1.363 . S
C1681 C1676 1.379 . S
C1681 N1679 1.356 . S
N1682 C1674 1.356 . S
N1682 H1688 0.984 . S
N1682 H1689 0.984 . S
N1683 C1676 1.356 . S
N1683 H1686 0.984 . S
N1683 H1687 0.985 . S
H1684 N1679 0.984 . S
H1685 N1679 0.985 . S
H1686 N1683 0.984 . S
H1687 N1683 0.985 . S
H1688 N1682 0.984 . S
H1689 N1682 0.984 . S
H1690 N1678 0.984 . S
H1691 N1678 0.985 . S
C1692 C1693 1.363 . S
C1692 C1698 1.379 . S
C1692 N1700 1.356 . S
C1693 C1692 1.363 . S
C1693 C1699 1.363 . S
C1694 C1695 1.363 . S
C1694 C1699 1.379 . S
C1694 N1701 1.356 . S
C1695 C1694 1.363 . S
C1695 C1698 1.363 . S
N1696 C1698 1.356 . S
N1696 H1708 0.984 . S
N1696 H1709 0.985 . S
N1697 C1699 1.356 . S
N1697 H1702 0.984 . S
N1697 H1703 0.985 . S
C1698 C1692 1.379 . S
C1698 C1695 1.363 . S
C1698 N1696 1.356 . S
C1699 C1693 1.363 . S
C1699 C1694 1.379 . S
C1699 N1697 1.356 . S
N1700 C1692 1.356 . S
N1700 H1706 0.984 . S
N1700 H1707 0.984 . S
N1701 C1694 1.356 . S
N1701 H1704 0.984 . S
N1701 H1705 0.985 . S
H1702 N1697 0.984 . S
H1703 N1697 0.985 . S
H1704 N1701 0.984 . S
H1705 N1701 0.985 . S
H1706 N1700 0.984 . S
H1707 N1700 0.984 . S
H1708 N1696 0.984 . S
H1709 N1696 0.985 . S
C1710 C1711 1.363 . S
C1710 C1716 1.379 . S
C1710 N1718 1.356 . S
C1711 C1710 1.363 . S
C1711 C1717 1.363 . S
C1712 C1713 1.363 . S
C1712 C1717 1.379 . S
C1712 N1719 1.356 . S
C1713 C1712 1.363 . S
C1713 C1716 1.363 . S
N1714 C1716 1.356 . S
N1714 H1726 0.984 . S
N1714 H1727 0.985 . S
N1715 C1717 1.356 . S
N1715 H1720 0.984 . S
N1715 H1721 0.985 . S
C1716 C1710 1.379 . S
C1716 C1713 1.363 . S
C1716 N1714 1.356 . S
C1717 C1711 1.363 . S
C1717 C1712 1.379 . S
C1717 N1715 1.356 . S
N1718 C1710 1.356 . S
N1718 H1724 0.984 . S
N1718 H1725 0.984 . S
N1719 C1712 1.356 . S
N1719 H1722 0.984 . S
N1719 H1723 0.985 . S
H1720 N1715 0.984 . S
H1721 N1715 0.985 . S
H1722 N1719 0.984 . S
H1723 N1719 0.985 . S
H1724 N1718 0.984 . S
H1725 N1718 0.984 . S
H1726 N1714 0.984 . S
H1727 N1714 0.985 . S
C1728 C1729 1.363 . S
C1728 C1734 1.379 . S
C1728 N1736 1.356 . S
C1729 C1728 1.363 . S
C1729 C1735 1.363 . S
C1730 C1731 1.363 . S
C1730 C1735 1.379 . S
C1730 N1737 1.356 . S
C1731 C1730 1.363 . S
C1731 C1734 1.363 . S
N1732 C1734 1.356 . S
N1732 H1744 0.984 . S
N1732 H1745 0.985 . S
N1733 C1735 1.356 . S
N1733 H1738 0.984 . S
N1733 H1739 0.985 . S
C1734 C1728 1.379 . S
C1734 C1731 1.363 . S
C1734 N1732 1.356 . S
C1735 C1729 1.363 . S
C1735 C1730 1.379 . S
C1735 N1733 1.356 . S
N1736 C1728 1.356 . S
N1736 H1742 0.984 . S
N1736 H1743 0.984 . S
N1737 C1730 1.356 . S
N1737 H1740 0.984 . S
N1737 H1741 0.985 . S
H1738 N1733 0.984 . S
H1739 N1733 0.985 . S
H1740 N1737 0.984 . S
H1741 N1737 0.985 . S
H1742 N1736 0.984 . S
H1743 N1736 0.984 . S
H1744 N1732 0.984 . S
H1745 N1732 0.985 . S
C1746 C1747 1.363 . S
C1746 C1752 1.379 . S
C1746 N1754 1.356 . S
C1747 C1746 1.363 . S
C1747 C1753 1.363 . S
C1748 C1749 1.363 . S
C1748 C1753 1.379 . S
C1748 N1755 1.356 . S
C1749 C1748 1.363 . S
C1749 C1752 1.363 . S
N1750 C1752 1.356 . S
N1750 H1762 0.984 . S
N1750 H1763 0.985 . S
N1751 C1753 1.356 . S
N1751 H1756 0.984 . S
N1751 H1757 0.985 . S
C1752 C1746 1.379 . S
C1752 C1749 1.363 . S
C1752 N1750 1.356 . S
C1753 C1747 1.363 . S
C1753 C1748 1.379 . S
C1753 N1751 1.356 . S
N1754 C1746 1.356 . S
N1754 H1760 0.984 . S
N1754 H1761 0.984 . S
N1755 C1748 1.356 . S
N1755 H1758 0.984 . S
N1755 H1759 0.985 . S
H1756 N1751 0.984 . S
H1757 N1751 0.985 . S
H1758 N1755 0.984 . S
H1759 N1755 0.985 . S
H1760 N1754 0.984 . S
H1761 N1754 0.984 . S
H1762 N1750 0.984 . S
H1763 N1750 0.985 . S
C1764 C1765 1.363 . S
C1764 C1770 1.379 . S
C1764 N1772 1.356 . S
C1765 C1764 1.363 . S
C1765 C1771 1.363 . S
C1766 C1767 1.363 . S
C1766 C1771 1.379 . S
C1766 N1773 1.356 . S
C1767 C1766 1.363 . S
C1767 C1770 1.363 . S
N1768 C1770 1.356 . S
N1768 H1780 0.984 . S
N1768 H1781 0.985 . S
N1769 C1771 1.356 . S
N1769 H1774 0.984 . S
N1769 H1775 0.985 . S
C1770 C1764 1.379 . S
C1770 C1767 1.363 . S
C1770 N1768 1.356 . S
C1771 C1765 1.363 . S
C1771 C1766 1.379 . S
C1771 N1769 1.356 . S
N1772 C1764 1.356 . S
N1772 H1778 0.984 . S
N1772 H1779 0.984 . S
N1773 C1766 1.356 . S
N1773 H1776 0.984 . S
N1773 H1777 0.985 . S
H1774 N1769 0.984 . S
H1775 N1769 0.985 . S
H1776 N1773 0.984 . S
H1777 N1773 0.985 . S
H1778 N1772 0.984 . S
H1779 N1772 0.984 . S
H1780 N1768 0.984 . S
H1781 N1768 0.985 . S
C1782 C1783 1.363 . S
C1782 C1788 1.379 . S
C1782 N1790 1.356 . S
C1783 C1782 1.363 . S
C1783 C1789 1.363 . S
C1784 C1785 1.363 . S
C1784 C1789 1.379 . S
C1784 N1791 1.356 . S
C1785 C1784 1.363 . S
C1785 C1788 1.363 . S
N1786 C1788 1.356 . S
N1786 H1798 0.984 . S
N1786 H1799 0.985 . S
N1787 C1789 1.356 . S
N1787 H1792 0.984 . S
N1787 H1793 0.985 . S
C1788 C1782 1.379 . S
C1788 C1785 1.363 . S
C1788 N1786 1.356 . S
C1789 C1783 1.363 . S
C1789 C1784 1.379 . S
C1789 N1787 1.356 . S
N1790 C1782 1.356 . S
N1790 H1796 0.984 . S
N1790 H1797 0.984 . S
N1791 C1784 1.356 . S
N1791 H1794 0.984 . S
N1791 H1795 0.985 . S
H1792 N1787 0.984 . S
H1793 N1787 0.985 . S
H1794 N1791 0.984 . S
H1795 N1791 0.985 . S
H1796 N1790 0.984 . S
H1797 N1790 0.984 . S
H1798 N1786 0.984 . S
H1799 N1786 0.985 . S
C1800 C1801 1.363 . S
C1800 C1806 1.379 . S
C1800 N1808 1.356 . S
C1801 C1800 1.363 . S
C1801 C1807 1.363 . S
C1802 C1803 1.363 . S
C1802 C1807 1.379 . S
C1802 N1809 1.356 . S
C1803 C1802 1.363 . S
C1803 C1806 1.363 . S
N1804 C1806 1.356 . S
N1804 H1816 0.984 . S
N1804 H1817 0.985 . S
N1805 C1807 1.356 . S
N1805 H1810 0.984 . S
N1805 H1811 0.985 . S
C1806 C1800 1.379 . S
C1806 C1803 1.363 . S
C1806 N1804 1.356 . S
C1807 C1801 1.363 . S
C1807 C1802 1.379 . S
C1807 N1805 1.356 . S
N1808 C1800 1.356 . S
N1808 H1814 0.984 . S
N1808 H1815 0.984 . S
N1809 C1802 1.356 . S
N1809 H1812 0.984 . S
N1809 H1813 0.985 . S
H1810 N1805 0.984 . S
H1811 N1805 0.985 . S
H1812 N1809 0.984 . S
H1813 N1809 0.985 . S
H1814 N1808 0.984 . S
H1815 N1808 0.984 . S
H1816 N1804 0.984 . S
H1817 N1804 0.985 . S
C1818 C1819 1.363 . S
C1818 C1824 1.379 . S
C1818 N1826 1.356 . S
C1819 C1818 1.363 . S
C1819 C1825 1.363 . S
C1820 C1821 1.363 . S
C1820 C1825 1.379 . S
C1820 N1827 1.356 . S
C1821 C1820 1.363 . S
C1821 C1824 1.363 . S
N1822 C1824 1.356 . S
N1822 H1834 0.984 . S
N1822 H1835 0.985 . S
N1823 C1825 1.356 . S
N1823 H1828 0.984 . S
N1823 H1829 0.985 . S
C1824 C1818 1.379 . S
C1824 C1821 1.363 . S
C1824 N1822 1.356 . S
C1825 C1819 1.363 . S
C1825 C1820 1.379 . S
C1825 N1823 1.356 . S
N1826 C1818 1.356 . S
N1826 H1832 0.984 . S
N1826 H1833 0.984 . S
N1827 C1820 1.356 . S
N1827 H1830 0.984 . S
N1827 H1831 0.985 . S
H1828 N1823 0.984 . S
H1829 N1823 0.985 . S
H1830 N1827 0.984 . S
H1831 N1827 0.985 . S
H1832 N1826 0.984 . S
H1833 N1826 0.984 . S
H1834 N1822 0.984 . S
H1835 N1822 0.985 . S
C1836 C1837 1.363 . S
C1836 C1842 1.379 . S
C1836 N1844 1.356 . S
C1837 C1836 1.363 . S
C1837 C1843 1.363 . S
C1838 C1839 1.363 . S
C1838 C1843 1.379 . S
C1838 N1845 1.356 . S
C1839 C1838 1.363 . S
C1839 C1842 1.363 . S
N1840 C1842 1.356 . S
N1840 H1852 0.984 . S
N1840 H1853 0.985 . S
N1841 C1843 1.356 . S
N1841 H1846 0.984 . S
N1841 H1847 0.985 . S
C1842 C1836 1.379 . S
C1842 C1839 1.363 . S
C1842 N1840 1.356 . S
C1843 C1837 1.363 . S
C1843 C1838 1.379 . S
C1843 N1841 1.356 . S
N1844 C1836 1.356 . S
N1844 H1850 0.984 . S
N1844 H1851 0.984 . S
N1845 C1838 1.356 . S
N1845 H1848 0.984 . S
N1845 H1849 0.985 . S
H1846 N1841 0.984 . S
H1847 N1841 0.985 . S
H1848 N1845 0.984 . S
H1849 N1845 0.985 . S
H1850 N1844 0.984 . S
H1851 N1844 0.984 . S
H1852 N1840 0.984 . S
H1853 N1840 0.985 . S
C1854 C1855 1.363 . S
C1854 C1860 1.379 . S
C1854 N1862 1.356 . S
C1855 C1854 1.363 . S
C1855 C1861 1.363 . S
C1856 C1857 1.363 . S
C1856 C1861 1.379 . S
C1856 N1863 1.356 . S
C1857 C1856 1.363 . S
C1857 C1860 1.363 . S
N1858 C1860 1.356 . S
N1858 H1870 0.984 . S
N1858 H1871 0.985 . S
N1859 C1861 1.356 . S
N1859 H1864 0.984 . S
N1859 H1865 0.985 . S
C1860 C1854 1.379 . S
C1860 C1857 1.363 . S
C1860 N1858 1.356 . S
C1861 C1855 1.363 . S
C1861 C1856 1.379 . S
C1861 N1859 1.356 . S
N1862 C1854 1.356 . S
N1862 H1868 0.984 . S
N1862 H1869 0.984 . S
N1863 C1856 1.356 . S
N1863 H1866 0.984 . S
N1863 H1867 0.985 . S
H1864 N1859 0.984 . S
H1865 N1859 0.985 . S
H1866 N1863 0.984 . S
H1867 N1863 0.985 . S
H1868 N1862 0.984 . S
H1869 N1862 0.984 . S
H1870 N1858 0.984 . S
H1871 N1858 0.985 . S
C1872 C1873 1.363 . S
C1872 C1878 1.379 . S
C1872 N1880 1.356 . S
C1873 C1872 1.363 . S
C1873 C1879 1.363 . S
C1874 C1875 1.363 . S
C1874 C1879 1.379 . S
C1874 N1881 1.356 . S
C1875 C1874 1.363 . S
C1875 C1878 1.363 . S
N1876 C1878 1.356 . S
N1876 H1888 0.984 . S
N1876 H1889 0.985 . S
N1877 C1879 1.356 . S
N1877 H1882 0.984 . S
N1877 H1883 0.985 . S
C1878 C1872 1.379 . S
C1878 C1875 1.363 . S
C1878 N1876 1.356 . S
C1879 C1873 1.363 . S
C1879 C1874 1.379 . S
C1879 N1877 1.356 . S
N1880 C1872 1.356 . S
N1880 H1886 0.984 . S
N1880 H1887 0.984 . S
N1881 C1874 1.356 . S
N1881 H1884 0.984 . S
N1881 H1885 0.985 . S
H1882 N1877 0.984 . S
H1883 N1877 0.985 . S
H1884 N1881 0.984 . S
H1885 N1881 0.985 . S
H1886 N1880 0.984 . S
H1887 N1880 0.984 . S
H1888 N1876 0.984 . S
H1889 N1876 0.985 . S
C1890 C1891 1.363 . S
C1890 C1896 1.379 . S
C1890 N1898 1.356 . S
C1891 C1890 1.363 . S
C1891 C1897 1.363 . S
C1892 C1893 1.363 . S
C1892 C1897 1.379 . S
C1892 N1899 1.356 . S
C1893 C1892 1.363 . S
C1893 C1896 1.363 . S
N1894 C1896 1.356 . S
N1894 H1906 0.984 . S
N1894 H1907 0.985 . S
N1895 C1897 1.356 . S
N1895 H1900 0.984 . S
N1895 H1901 0.985 . S
C1896 C1890 1.379 . S
C1896 C1893 1.363 . S
C1896 N1894 1.356 . S
C1897 C1891 1.363 . S
C1897 C1892 1.379 . S
C1897 N1895 1.356 . S
N1898 C1890 1.356 . S
N1898 H1904 0.984 . S
N1898 H1905 0.984 . S
N1899 C1892 1.356 . S
N1899 H1902 0.984 . S
N1899 H1903 0.985 . S
H1900 N1895 0.984 . S
H1901 N1895 0.985 . S
H1902 N1899 0.984 . S
H1903 N1899 0.985 . S
H1904 N1898 0.984 . S
H1905 N1898 0.984 . S
H1906 N1894 0.984 . S
H1907 N1894 0.985 . S
C1908 C1909 1.363 . S
C1908 C1914 1.379 . S
C1908 N1916 1.356 . S
C1909 C1908 1.363 . S
C1909 C1915 1.363 . S
C1910 C1911 1.363 . S
C1910 C1915 1.379 . S
C1910 N1917 1.356 . S
C1911 C1910 1.363 . S
C1911 C1914 1.363 . S
N1912 C1914 1.356 . S
N1912 H1924 0.984 . S
N1912 H1925 0.985 . S
N1913 C1915 1.356 . S
N1913 H1918 0.984 . S
N1913 H1919 0.985 . S
C1914 C1908 1.379 . S
C1914 C1911 1.363 . S
C1914 N1912 1.356 . S
C1915 C1909 1.363 . S
C1915 C1910 1.379 . S
C1915 N1913 1.356 . S
N1916 C1908 1.356 . S
N1916 H1922 0.984 . S
N1916 H1923 0.984 . S
N1917 C1910 1.356 . S
N1917 H1920 0.984 . S
N1917 H1921 0.985 . S
H1918 N1913 0.984 . S
H1919 N1913 0.985 . S
H1920 N1917 0.984 . S
H1921 N1917 0.985 . S
H1922 N1916 0.984 . S
H1923 N1916 0.984 . S
H1924 N1912 0.984 . S
H1925 N1912 0.985 . S
C1926 C1927 1.363 . S
C1926 C1932 1.379 . S
C1926 N1934 1.356 . S
C1927 C1926 1.363 . S
C1927 C1933 1.363 . S
C1928 C1929 1.363 . S
C1928 C1933 1.379 . S
C1928 N1935 1.356 . S
C1929 C1928 1.363 . S
C1929 C1932 1.363 . S
N1930 C1932 1.356 . S
N1930 H1942 0.984 . S
N1930 H1943 0.985 . S
N1931 C1933 1.356 . S
N1931 H1936 0.984 . S
N1931 H1937 0.985 . S
C1932 C1926 1.379 . S
C1932 C1929 1.363 . S
C1932 N1930 1.356 . S
C1933 C1927 1.363 . S
C1933 C1928 1.379 . S
C1933 N1931 1.356 . S
N1934 C1926 1.356 . S
N1934 H1940 0.984 . S
N1934 H1941 0.984 . S
N1935 C1928 1.356 . S
N1935 H1938 0.984 . S
N1935 H1939 0.985 . S
H1936 N1931 0.984 . S
H1937 N1931 0.985 . S
H1938 N1935 0.984 . S
H1939 N1935 0.985 . S
H1940 N1934 0.984 . S
H1941 N1934 0.984 . S
H1942 N1930 0.984 . S
H1943 N1930 0.985 . S
C1944 C1945 1.363 . S
C1944 C1950 1.379 . S
C1944 N1952 1.356 . S
C1945 C1944 1.363 . S
C1945 C1951 1.363 . S
C1946 C1947 1.363 . S
C1946 C1951 1.379 . S
C1946 N1953 1.356 . S
C1947 C1946 1.363 . S
C1947 C1950 1.363 . S
N1948 C1950 1.356 . S
N1948 H1960 0.984 . S
N1948 H1961 0.985 . S
N1949 C1951 1.356 . S
N1949 H1954 0.984 . S
N1949 H1955 0.985 . S
C1950 C1944 1.379 . S
C1950 C1947 1.363 . S
C1950 N1948 1.356 . S
C1951 C1945 1.363 . S
C1951 C1946 1.379 . S
C1951 N1949 1.356 . S
N1952 C1944 1.356 . S
N1952 H1958 0.984 . S
N1952 H1959 0.984 . S
N1953 C1946 1.356 . S
N1953 H1956 0.984 . S
N1953 H1957 0.985 . S
H1954 N1949 0.984 . S
H1955 N1949 0.985 . S
H1956 N1953 0.984 . S
H1957 N1953 0.985 . S
H1958 N1952 0.984 . S
H1959 N1952 0.984 . S
H1960 N1948 0.984 . S
H1961 N1948 0.985 . S
C1962 C1963 1.363 . S
C1962 C1968 1.379 . S
C1962 N1970 1.356 . S
C1963 C1962 1.363 . S
C1963 C1969 1.363 . S
C1964 C1965 1.363 . S
C1964 C1969 1.379 . S
C1964 N1971 1.356 . S
C1965 C1964 1.363 . S
C1965 C1968 1.363 . S
N1966 C1968 1.356 . S
N1966 H1978 0.984 . S
N1966 H1979 0.985 . S
N1967 C1969 1.356 . S
N1967 H1972 0.984 . S
N1967 H1973 0.985 . S
C1968 C1962 1.379 . S
C1968 C1965 1.363 . S
C1968 N1966 1.356 . S
C1969 C1963 1.363 . S
C1969 C1964 1.379 . S
C1969 N1967 1.356 . S
N1970 C1962 1.356 . S
N1970 H1976 0.984 . S
N1970 H1977 0.984 . S
N1971 C1964 1.356 . S
N1971 H1974 0.984 . S
N1971 H1975 0.985 . S
H1972 N1967 0.984 . S
H1973 N1967 0.985 . S
H1974 N1971 0.984 . S
H1975 N1971 0.985 . S
H1976 N1970 0.984 . S
H1977 N1970 0.984 . S
H1978 N1966 0.984 . S
H1979 N1966 0.985 . S
C1980 C1981 1.363 . S
C1980 C1986 1.379 . S
C1980 N1988 1.356 . S
C1981 C1980 1.363 . S
C1981 C1987 1.363 . S
C1982 C1983 1.363 . S
C1982 C1987 1.379 . S
C1982 N1989 1.356 . S
C1983 C1982 1.363 . S
C1983 C1986 1.363 . S
N1984 C1986 1.356 . S
N1984 H1996 0.984 . S
N1984 H1997 0.985 . S
N1985 C1987 1.356 . S
N1985 H1990 0.984 . S
N1985 H1991 0.985 . S
C1986 C1980 1.379 . S
C1986 C1983 1.363 . S
C1986 N1984 1.356 . S
C1987 C1981 1.363 . S
C1987 C1982 1.379 . S
C1987 N1985 1.356 . S
N1988 C1980 1.356 . S
N1988 H1994 0.984 . S
N1988 H1995 0.984 . S
N1989 C1982 1.356 . S
N1989 H1992 0.984 . S
N1989 H1993 0.985 . S
H1990 N1985 0.984 . S
H1991 N1985 0.985 . S
H1992 N1989 0.984 . S
H1993 N1989 0.985 . S
H1994 N1988 0.984 . S
H1995 N1988 0.984 . S
H1996 N1984 0.984 . S
H1997 N1984 0.985 . S
C1998 C1999 1.363 . S
C1998 C2004 1.379 . S
C1998 N2006 1.356 . S
C1999 C1998 1.363 . S
C1999 C2005 1.363 . S
C2000 C2001 1.363 . S
C2000 C2005 1.379 . S
C2000 N2007 1.356 . S
C2001 C2000 1.363 . S
C2001 C2004 1.363 . S
N2002 C2004 1.356 . S
N2002 H2014 0.984 . S
N2002 H2015 0.985 . S
N2003 C2005 1.356 . S
N2003 H2008 0.984 . S
N2003 H2009 0.985 . S
C2004 C1998 1.379 . S
C2004 C2001 1.363 . S
C2004 N2002 1.356 . S
C2005 C1999 1.363 . S
C2005 C2000 1.379 . S
C2005 N2003 1.356 . S
N2006 C1998 1.356 . S
N2006 H2012 0.984 . S
N2006 H2013 0.984 . S
N2007 C2000 1.356 . S
N2007 H2010 0.984 . S
N2007 H2011 0.985 . S
H2008 N2003 0.984 . S
H2009 N2003 0.985 . S
H2010 N2007 0.984 . S
H2011 N2007 0.985 . S
H2012 N2006 0.984 . S
H2013 N2006 0.984 . S
H2014 N2002 0.984 . S
H2015 N2002 0.985 . S
C2016 C2017 1.363 . S
C2016 C2022 1.379 . S
C2016 N2024 1.356 . S
C2017 C2016 1.363 . S
C2017 C2023 1.363 . S
C2018 C2019 1.363 . S
C2018 C2023 1.379 . S
C2018 N2025 1.356 . S
C2019 C2018 1.363 . S
C2019 C2022 1.363 . S
N2020 C2022 1.356 . S
N2020 H2032 0.984 . S
N2020 H2033 0.985 . S
N2021 C2023 1.356 . S
N2021 H2026 0.984 . S
N2021 H2027 0.985 . S
C2022 C2016 1.379 . S
C2022 C2019 1.363 . S
C2022 N2020 1.356 . S
C2023 C2017 1.363 . S
C2023 C2018 1.379 . S
C2023 N2021 1.356 . S
N2024 C2016 1.356 . S
N2024 H2030 0.984 . S
N2024 H2031 0.984 . S
N2025 C2018 1.356 . S
N2025 H2028 0.984 . S
N2025 H2029 0.985 . S
H2026 N2021 0.984 . S
H2027 N2021 0.985 . S
H2028 N2025 0.984 . S
H2029 N2025 0.985 . S
H2030 N2024 0.984 . S
H2031 N2024 0.984 . S
H2032 N2020 0.984 . S
H2033 N2020 0.985 . S
C2034 C2035 1.363 . S
C2034 C2040 1.379 . S
C2034 N2042 1.356 . S
C2035 C2034 1.363 . S
C2035 C2041 1.363 . S
C2036 C2037 1.363 . S
C2036 C2041 1.379 . S
C2036 N2043 1.356 . S
C2037 C2036 1.363 . S
C2037 C2040 1.363 . S
N2038 C2040 1.356 . S
N2038 H2050 0.984 . S
N2038 H2051 0.985 . S
N2039 C2041 1.356 . S
N2039 H2044 0.984 . S
N2039 H2045 0.985 . S
C2040 C2034 1.379 . S
C2040 C2037 1.363 . S
C2040 N2038 1.356 . S
C2041 C2035 1.363 . S
C2041 C2036 1.379 . S
C2041 N2039 1.356 . S
N2042 C2034 1.356 . S
N2042 H2048 0.984 . S
N2042 H2049 0.984 . S
N2043 C2036 1.356 . S
N2043 H2046 0.984 . S
N2043 H2047 0.985 . S
H2044 N2039 0.984 . S
H2045 N2039 0.985 . S
H2046 N2043 0.984 . S
H2047 N2043 0.985 . S
H2048 N2042 0.984 . S
H2049 N2042 0.984 . S
H2050 N2038 0.984 . S
H2051 N2038 0.985 . S
C2052 C2053 1.363 . S
C2052 C2058 1.379 . S
C2052 N2060 1.356 . S
C2053 C2052 1.363 . S
C2053 C2059 1.363 . S
C2054 C2055 1.363 . S
C2054 C2059 1.379 . S
C2054 N2061 1.356 . S
C2055 C2054 1.363 . S
C2055 C2058 1.363 . S
N2056 C2058 1.356 . S
N2056 H2068 0.984 . S
N2056 H2069 0.985 . S
N2057 C2059 1.356 . S
N2057 H2062 0.984 . S
N2057 H2063 0.985 . S
C2058 C2052 1.379 . S
C2058 C2055 1.363 . S
C2058 N2056 1.356 . S
C2059 C2053 1.363 . S
C2059 C2054 1.379 . S
C2059 N2057 1.356 . S
N2060 C2052 1.356 . S
N2060 H2066 0.984 . S
N2060 H2067 0.984 . S
N2061 C2054 1.356 . S
N2061 H2064 0.984 . S
N2061 H2065 0.985 . S
H2062 N2057 0.984 . S
H2063 N2057 0.985 . S
H2064 N2061 0.984 . S
H2065 N2061 0.985 . S
H2066 N2060 0.984 . S
H2067 N2060 0.984 . S
H2068 N2056 0.984 . S
H2069 N2056 0.985 . S
C2070 C2071 1.363 . S
C2070 C2076 1.379 . S
C2070 N2078 1.356 . S
C2071 C2070 1.363 . S
C2071 C2077 1.363 . S
C2072 C2073 1.363 . S
C2072 C2077 1.379 . S
C2072 N2079 1.356 . S
C2073 C2072 1.363 . S
C2073 C2076 1.363 . S
N2074 C2076 1.356 . S
N2074 H2086 0.984 . S
N2074 H2087 0.985 . S
N2075 C2077 1.356 1_554 S
N2075 H2080 0.984 . S
N2075 H2081 0.985 . S
C2076 C2070 1.379 . S
C2076 C2073 1.363 . S
C2076 N2074 1.356 . S
C2077 C2071 1.363 . S
C2077 C2072 1.379 . S
C2077 N2075 1.356 1_556 S
N2078 C2070 1.356 . S
N2078 H2084 0.984 . S
N2078 H2085 0.984 . S
N2079 C2072 1.356 . S
N2079 H2082 0.984 . S
N2079 H2083 0.985 1_556 S
H2080 N2075 0.984 . S
H2081 N2075 0.985 . S
H2082 N2079 0.984 . S
H2083 N2079 0.985 1_554 S
H2084 N2078 0.984 . S
H2085 N2078 0.984 . S
H2086 N2074 0.984 . S
H2087 N2074 0.985 . S
C2088 C2089 1.367 . S
C2088 C2094 1.381 . S
C2088 N2096 1.351 1_556 S
C2089 C2088 1.367 . S
C2089 C2095 1.363 . S
C2090 C2091 1.363 . S
C2090 C2095 1.379 . S
C2090 N2097 1.356 . S
C2091 C2090 1.363 . S
C2091 C2094 1.363 . S
N2092 C2094 1.362 . S
N2092 H2104 0.971 1_556 S
N2092 H2105 0.993 . S
N2093 C2095 1.356 . S
N2093 H2098 0.984 . S
N2093 H2099 0.985 . S
C2094 C2088 1.381 . S
C2094 C2091 1.363 . S
C2094 N2092 1.362 . S
C2095 C2089 1.363 . S
C2095 C2090 1.379 . S
C2095 N2093 1.356 . S
N2096 C2088 1.351 1_554 S
N2096 H2102 0.984 . S
N2096 H2103 0.984 . S
N2097 C2090 1.356 . S
N2097 H2100 0.984 . S
N2097 H2101 0.985 . S
H2098 N2093 0.984 . S
H2099 N2093 0.985 . S
H2100 N2097 0.984 . S
H2101 N2097 0.985 . S
H2102 N2096 0.984 . S
H2103 N2096 0.984 . S
H2104 N2092 0.971 1_554 S
H2105 N2092 0.993 . S
C2106 C2107 1.363 1_554 S
C2106 C2112 1.379 1_554 S
C2106 N2114 1.356 . S
C2107 C2106 1.363 1_556 S
C2107 C2113 1.363 . S
C2108 C2109 1.363 . S
C2108 C2113 1.379 . S
C2108 N2115 1.356 . S
C2109 C2108 1.363 . S
C2109 C2112 1.363 . S
N2110 C2112 1.356 1_554 S
N2110 H2122 0.984 . S
N2110 H2123 0.985 1_554 S
N2111 C2113 1.356 . S
N2111 H2116 0.984 . S
N2111 H2117 0.985 . S
C2112 C2106 1.379 1_556 S
C2112 C2109 1.363 . S
C2112 N2110 1.356 1_556 S
C2113 C2107 1.363 . S
C2113 C2108 1.379 . S
C2113 N2111 1.356 . S
N2114 C2106 1.356 . S
N2114 H2120 0.984 . S
N2114 H2121 0.984 . S
N2115 C2108 1.356 . S
N2115 H2118 0.984 . S
N2115 H2119 0.985 . S
H2116 N2111 0.984 . S
H2117 N2111 0.985 . S
H2118 N2115 0.984 . S
H2119 N2115 0.985 . S
H2120 N2114 0.984 . S
H2121 N2114 0.984 . S
H2122 N2110 0.984 . S
H2123 N2110 0.985 1_556 S
C2124 C2125 1.363 . S
C2124 C2130 1.379 . S
C2124 N2132 1.356 1_556 S
C2125 C2124 1.363 . S
C2125 C2131 1.363 . S
C2126 C2127 1.363 . S
C2126 C2131 1.379 . S
C2126 N2133 1.356 . S
C2127 C2126 1.363 . S
C2127 C2130 1.363 . S
N2128 C2130 1.356 . S
N2128 H2140 0.984 1_556 S
N2128 H2141 0.985 . S
N2129 C2131 1.356 . S
N2129 H2134 0.984 . S
N2129 H2135 0.985 . S
C2130 C2124 1.379 . S
C2130 C2127 1.363 . S
C2130 N2128 1.356 . S
C2131 C2125 1.363 . S
C2131 C2126 1.379 . S
C2131 N2129 1.356 . S
N2132 C2124 1.356 1_554 S
N2132 H2138 0.984 . S
N2132 H2139 0.984 . S
N2133 C2126 1.356 . S
N2133 H2136 0.984 . S
N2133 H2137 0.985 . S
H2134 N2129 0.984 . S
H2135 N2129 0.985 . S
H2136 N2133 0.984 . S
H2137 N2133 0.985 . S
H2138 N2132 0.984 . S
H2139 N2132 0.984 . S
H2140 N2128 0.984 1_554 S
H2141 N2128 0.985 . S
C2142 C2143 1.363 . S
C2142 C2148 1.379 . S
C2142 N2150 1.356 . S
C2143 C2142 1.363 . S
C2143 C2149 1.387 . S
C2144 C2145 1.363 . S
C2144 C2149 1.389 . S
C2144 N2151 1.356 1_556 S
C2145 C2144 1.363 . S
C2145 C2148 1.363 . S
N2146 C2148 1.356 . S
N2146 H2158 0.984 . S
N2146 H2159 0.985 . S
N2147 C2149 1.326 1_554 S
N2147 H2152 0.984 . S
N2147 H2153 0.985 . S
C2148 C2142 1.379 . S
C2148 C2145 1.363 . S
C2148 N2146 1.356 . S
C2149 C2143 1.387 . S
C2149 C2144 1.389 . S
C2149 N2147 1.326 1_556 S
N2150 C2142 1.356 . S
N2150 H2156 0.984 . S
N2150 H2157 0.984 . S
N2151 C2144 1.356 1_554 S
N2151 H2154 0.984 1_554 S
N2151 H2155 0.985 . S
H2152 N2147 0.984 . S
H2153 N2147 0.985 . S
H2154 N2151 0.984 1_556 S
H2155 N2151 0.985 . S
H2156 N2150 0.984 . S
H2157 N2150 0.984 . S
H2158 N2146 0.984 . S
H2159 N2146 0.985 . S
C2160 C2161 1.363 . S
C2160 C2166 1.379 . S
C2160 N2168 1.356 1_556 S
C2161 C2160 1.363 . S
C2161 C2167 1.363 . S
C2162 C2163 1.363 . S
C2162 C2167 1.379 . S
C2162 N2169 1.356 . S
C2163 C2162 1.363 . S
C2163 C2166 1.363 . S
N2164 C2166 1.356 . S
N2164 H2176 0.984 1_556 S
N2164 H2177 0.985 . S
N2165 C2167 1.356 . S
N2165 H2170 0.984 . S
N2165 H2171 0.985 . S
C2166 C2160 1.379 . S
C2166 C2163 1.363 . S
C2166 N2164 1.356 . S
C2167 C2161 1.363 . S
C2167 C2162 1.379 . S
C2167 N2165 1.356 . S
N2168 C2160 1.356 1_554 S
N2168 H2174 0.984 . S
N2168 H2175 0.984 . S
N2169 C2162 1.356 . S
N2169 H2172 0.984 . S
N2169 H2173 0.985 . S
H2170 N2165 0.984 . S
H2171 N2165 0.985 . S
H2172 N2169 0.984 . S
H2173 N2169 0.985 . S
H2174 N2168 0.984 . S
H2175 N2168 0.984 . S
H2176 N2164 0.984 1_554 S
H2177 N2164 0.985 . S
C2178 C2179 1.363 . S
C2178 C2184 1.379 . S
C2178 N2186 1.356 . S
C2179 C2178 1.363 . S
C2179 C2185 1.363 . S
C2180 C2181 1.363 . S
C2180 C2185 1.379 . S
C2180 N2187 1.356 . S
C2181 C2180 1.363 . S
C2181 C2184 1.363 . S
N2182 C2184 1.356 . S
N2182 H2194 0.984 . S
N2182 H2195 0.985 . S
N2183 C2185 1.356 . S
N2183 H2188 0.984 . S
N2183 H2189 0.985 1_554 S
C2184 C2178 1.379 . S
C2184 C2181 1.363 . S
C2184 N2182 1.356 . S
C2185 C2179 1.363 . S
C2185 C2180 1.379 . S
C2185 N2183 1.356 . S
N2186 C2178 1.356 . S
N2186 H2192 0.984 . S
N2186 H2193 0.984 . S
N2187 C2180 1.356 . S
N2187 H2190 0.984 . S
N2187 H2191 0.985 . S
H2188 N2183 0.984 . S
H2189 N2183 0.985 1_556 S
H2190 N2187 0.984 . S
H2191 N2187 0.985 . S
H2192 N2186 0.984 . S
H2193 N2186 0.984 . S
H2194 N2182 0.984 . S
H2195 N2182 0.985 . S
C2196 C2197 1.363 . S
C2196 C2202 1.379 . S
C2196 N2204 1.356 . S
C2197 C2196 1.363 . S
C2197 C2203 1.363 . S
C2198 C2199 1.363 . S
C2198 C2203 1.379 . S
C2198 N2205 1.356 . S
C2199 C2198 1.363 . S
C2199 C2202 1.363 . S
N2200 C2202 1.356 . S
N2200 H2212 0.984 . S
N2200 H2213 0.985 . S
N2201 C2203 1.356 . S
N2201 H2206 0.984 . S
N2201 H2207 0.985 1_554 S
C2202 C2196 1.379 . S
C2202 C2199 1.363 . S
C2202 N2200 1.356 . S
C2203 C2197 1.363 . S
C2203 C2198 1.379 . S
C2203 N2201 1.356 . S
N2204 C2196 1.356 . S
N2204 H2210 0.984 . S
N2204 H2211 0.984 . S
N2205 C2198 1.356 . S
N2205 H2208 0.984 . S
N2205 H2209 0.985 . S
H2206 N2201 0.984 . S
H2207 N2201 0.985 1_556 S
H2208 N2205 0.984 . S
H2209 N2205 0.985 . S
H2210 N2204 0.984 . S
H2211 N2204 0.984 . S
H2212 N2200 0.984 . S
H2213 N2200 0.985 . S
C2214 C2215 1.363 . S
C2214 C2220 1.379 . S
C2214 N2222 1.356 . S
C2215 C2214 1.363 . S
C2215 C2221 1.363 . S
C2216 C2217 1.363 . S
C2216 C2221 1.379 . S
C2216 N2223 1.356 . S
C2217 C2216 1.363 . S
C2217 C2220 1.363 . S
N2218 C2220 1.356 . S
N2218 H2230 0.984 . S
N2218 H2231 0.985 . S
N2219 C2221 1.356 . S
N2219 H2224 0.984 . S
N2219 H2225 0.985 1_554 S
C2220 C2214 1.379 . S
C2220 C2217 1.363 . S
C2220 N2218 1.356 . S
C2221 C2215 1.363 . S
C2221 C2216 1.379 . S
C2221 N2219 1.356 . S
N2222 C2214 1.356 . S
N2222 H2228 0.984 . S
N2222 H2229 0.984 . S
N2223 C2216 1.356 . S
N2223 H2226 0.984 . S
N2223 H2227 0.985 . S
H2224 N2219 0.984 . S
H2225 N2219 0.985 1_556 S
H2226 N2223 0.984 . S
H2227 N2223 0.985 . S
H2228 N2222 0.984 . S
H2229 N2222 0.984 . S
H2230 N2218 0.984 . S
H2231 N2218 0.985 . S
C2232 C2233 1.363 . S
C2232 C2238 1.379 . S
C2232 N2240 1.356 . S
C2233 C2232 1.363 . S
C2233 C2239 1.363 . S
C2234 C2235 1.363 . S
C2234 C2239 1.379 . S
C2234 N2241 1.356 . S
C2235 C2234 1.363 . S
C2235 C2238 1.363 . S
N2236 C2238 1.356 . S
N2236 H2248 0.984 . S
N2236 H2249 0.985 . S
N2237 C2239 1.356 . S
N2237 H2242 0.984 . S
N2237 H2243 0.985 . S
C2238 C2232 1.379 . S
C2238 C2235 1.363 . S
C2238 N2236 1.356 . S
C2239 C2233 1.363 . S
C2239 C2234 1.379 . S
C2239 N2237 1.356 . S
N2240 C2232 1.356 . S
N2240 H2246 0.984 . S
N2240 H2247 0.984 . S
N2241 C2234 1.356 . S
N2241 H2244 0.984 . S
N2241 H2245 0.985 . S
H2242 N2237 0.984 . S
H2243 N2237 0.985 . S
H2244 N2241 0.984 . S
H2245 N2241 0.985 . S
H2246 N2240 0.984 . S
H2247 N2240 0.984 . S
H2248 N2236 0.984 . S
H2249 N2236 0.985 . S
C2250 C2251 1.363 . S
C2250 C2256 1.379 . S
C2250 N2258 1.356 . S
C2251 C2250 1.363 . S
C2251 C2257 1.363 . S
C2252 C2253 1.363 . S
C2252 C2257 1.379 . S
C2252 N2259 1.356 . S
C2253 C2252 1.363 . S
C2253 C2256 1.363 . S
N2254 C2256 1.356 . S
N2254 H2266 0.984 . S
N2254 H2267 0.985 . S
N2255 C2257 1.356 . S
N2255 H2260 0.984 . S
N2255 H2261 0.985 . S
C2256 C2250 1.379 . S
C2256 C2253 1.363 . S
C2256 N2254 1.356 . S
C2257 C2251 1.363 . S
C2257 C2252 1.379 . S
C2257 N2255 1.356 . S
N2258 C2250 1.356 . S
N2258 H2264 0.984 . S
N2258 H2265 0.984 . S
N2259 C2252 1.356 . S
N2259 H2262 0.984 . S
N2259 H2263 0.985 . S
H2260 N2255 0.984 . S
H2261 N2255 0.985 . S
H2262 N2259 0.984 . S
H2263 N2259 0.985 . S
H2264 N2258 0.984 . S
H2265 N2258 0.984 . S
H2266 N2254 0.984 . S
H2267 N2254 0.985 . S
C2268 C2269 1.363 . S
C2268 C2274 1.379 . S
C2268 N2276 1.356 . S
C2269 C2268 1.363 . S
C2269 C2275 1.363 . S
C2270 C2271 1.363 . S
C2270 C2275 1.379 . S
C2270 N2277 1.356 . S
C2271 C2270 1.363 . S
C2271 C2274 1.363 . S
N2272 C2274 1.356 . S
N2272 H2284 0.984 . S
N2272 H2285 0.985 . S
N2273 C2275 1.356 . S
N2273 H2278 0.984 . S
N2273 H2279 0.985 . S
C2274 C2268 1.379 . S
C2274 C2271 1.363 . S
C2274 N2272 1.356 . S
C2275 C2269 1.363 . S
C2275 C2270 1.379 . S
C2275 N2273 1.356 . S
N2276 C2268 1.356 . S
N2276 H2282 0.984 . S
N2276 H2283 0.984 . S
N2277 C2270 1.356 . S
N2277 H2280 0.984 . S
N2277 H2281 0.985 . S
H2278 N2273 0.984 . S
H2279 N2273 0.985 . S
H2280 N2277 0.984 . S
H2281 N2277 0.985 . S
H2282 N2276 0.984 . S
H2283 N2276 0.984 . S
H2284 N2272 0.984 . S
H2285 N2272 0.985 . S
C2286 C2287 1.363 . S
C2286 C2292 1.379 . S
C2286 N2294 1.356 . S
C2287 C2286 1.363 . S
C2287 C2293 1.363 . S
C2288 C2289 1.363 . S
C2288 C2293 1.379 . S
C2288 N2295 1.356 . S
C2289 C2288 1.363 . S
C2289 C2292 1.363 . S
N2290 C2292 1.356 1_655 S
N2290 H2302 0.984 . S
N2290 H2303 0.985 . S
N2291 C2293 1.356 . S
N2291 H2296 0.984 . S
N2291 H2297 0.985 . S
C2292 C2286 1.379 . S
C2292 C2289 1.363 . S
C2292 N2290 1.356 1_455 S
C2293 C2287 1.363 . S
C2293 C2288 1.379 . S
C2293 N2291 1.356 . S
N2294 C2286 1.356 . S
N2294 H2300 0.984 1_455 S
N2294 H2301 0.984 . S
N2295 C2288 1.356 . S
N2295 H2298 0.984 . S
N2295 H2299 0.985 . S
H2296 N2291 0.984 . S
H2297 N2291 0.985 . S
H2298 N2295 0.984 . S
H2299 N2295 0.985 . S
H2300 N2294 0.984 1_655 S
H2301 N2294 0.984 . S
H2302 N2290 0.984 . S
H2303 N2290 0.985 . S
C2304 C2305 1.363 . S
C2304 C2310 1.379 . S
C2304 N2312 1.356 . S
C2305 C2304 1.363 . S
C2305 C2311 1.363 . S
C2306 C2307 1.363 . S
C2306 C2311 1.379 . S
C2306 N2313 1.356 . S
C2307 C2306 1.363 . S
C2307 C2310 1.363 . S
N2308 C2310 1.356 . S
N2308 H2320 0.984 . S
N2308 H2321 0.985 . S
N2309 C2311 1.356 . S
N2309 H2314 0.984 . S
N2309 H2315 0.985 . S
C2310 C2304 1.379 . S
C2310 C2307 1.363 . S
C2310 N2308 1.356 . S
C2311 C2305 1.363 . S
C2311 C2306 1.379 . S
C2311 N2309 1.356 . S
N2312 C2304 1.356 . S
N2312 H2318 0.984 . S
N2312 H2319 0.984 . S
N2313 C2306 1.356 . S
N2313 H2316 0.984 . S
N2313 H2317 0.985 . S
H2314 N2309 0.984 . S
H2315 N2309 0.985 . S
H2316 N2313 0.984 . S
H2317 N2313 0.985 . S
H2318 N2312 0.984 . S
H2319 N2312 0.984 . S
H2320 N2308 0.984 . S
H2321 N2308 0.985 . S
C2322 C2323 1.363 . S
C2322 C2328 1.379 . S
C2322 N2330 1.356 . S
C2323 C2322 1.363 . S
C2323 C2329 1.363 1_565 S
C2324 C2325 1.363 1_545 S
C2324 C2329 1.379 . S
C2324 N2331 1.356 . S
C2325 C2324 1.363 1_565 S
C2325 C2328 1.363 . S
N2326 C2328 1.356 . S
N2326 H2338 0.984 . S
N2326 H2339 0.985 . S
N2327 C2329 1.356 . S
N2327 H2332 0.984 . S
N2327 H2333 0.985 . S
C2328 C2322 1.379 . S
C2328 C2325 1.363 . S
C2328 N2326 1.356 . S
C2329 C2323 1.363 1_545 S
C2329 C2324 1.379 . S
C2329 N2327 1.356 . S
N2330 C2322 1.356 . S
N2330 H2336 0.984 . S
N2330 H2337 0.984 . S
N2331 C2324 1.356 . S
N2331 H2334 0.984 . S
N2331 H2335 0.985 . S
H2332 N2327 0.984 . S
H2333 N2327 0.985 . S
H2334 N2331 0.984 . S
H2335 N2331 0.985 . S
H2336 N2330 0.984 . S
H2337 N2330 0.984 . S
H2338 N2326 0.984 . S
H2339 N2326 0.985 . S
C2340 C2341 1.363 . S
C2340 C2346 1.379 . S
C2340 N2348 1.356 . S
C2341 C2340 1.363 . S
C2341 C2347 1.297 1_565 S
C2342 C2343 1.363 1_545 S
C2342 C2347 1.422 . S
C2342 N2349 1.356 . S
C2343 C2342 1.363 1_565 S
C2343 C2346 1.363 . S
N2344 C2346 1.356 . S
N2344 H2356 0.984 . S
N2344 H2357 0.985 . S
N2345 C2347 1.362 . S
N2345 H2350 0.984 . S
N2345 H2351 0.985 . S
C2346 C2340 1.379 . S
C2346 C2343 1.363 . S
C2346 N2344 1.356 . S
C2347 C2341 1.297 1_545 S
C2347 C2342 1.422 . S
C2347 N2345 1.362 . S
N2348 C2340 1.356 . S
N2348 H2354 0.984 . S
N2348 H2355 0.984 . S
N2349 C2342 1.356 . S
N2349 H2352 0.984 . S
N2349 H2353 0.985 . S
H2350 N2345 0.984 . S
H2351 N2345 0.985 . S
H2352 N2349 0.984 . S
H2353 N2349 0.985 . S
H2354 N2348 0.984 . S
H2355 N2348 0.984 . S
H2356 N2344 0.984 . S
H2357 N2344 0.985 . S
C2358 C2359 1.363 . S
C2358 C2364 1.379 . S
C2358 N2366 1.356 . S
C2359 C2358 1.363 . S
C2359 C2365 1.363 . S
C2360 C2361 1.363 . S
C2360 C2365 1.379 . S
C2360 N2367 1.356 . S
C2361 C2360 1.363 . S
C2361 C2364 1.363 . S
N2362 C2364 1.356 . S
N2362 H2374 0.984 . S
N2362 H2375 0.985 . S
N2363 C2365 1.356 . S
N2363 H2368 0.984 . S
N2363 H2369 0.985 . S
C2364 C2358 1.379 . S
C2364 C2361 1.363 . S
C2364 N2362 1.356 . S
C2365 C2359 1.363 . S
C2365 C2360 1.379 . S
C2365 N2363 1.356 . S
N2366 C2358 1.356 . S
N2366 H2372 0.984 . S
N2366 H2373 0.984 . S
N2367 C2360 1.356 . S
N2367 H2370 0.986 1_455 S
N2367 H2371 0.983 1_455 S
H2368 N2363 0.984 . S
H2369 N2363 0.985 . S
H2370 N2367 0.986 1_655 S
H2371 N2367 0.983 1_655 S
H2372 N2366 0.984 . S
H2373 N2366 0.984 . S
H2374 N2362 0.984 . S
H2375 N2362 0.985 . S
C2376 C2377 1.363 . S
C2376 C2382 1.379 . S
C2376 N2384 1.356 . S
C2377 C2376 1.363 . S
C2377 C2383 1.363 . S
C2378 C2379 1.363 . S
C2378 C2383 1.379 . S
C2378 N2385 1.356 . S
C2379 C2378 1.363 . S
C2379 C2382 1.363 . S
N2380 C2382 1.356 . S
N2380 H2392 0.984 . S
N2380 H2393 0.985 . S
N2381 C2383 1.356 . S
N2381 H2386 0.984 . S
N2381 H2387 0.985 . S
C2382 C2376 1.379 . S
C2382 C2379 1.363 . S
C2382 N2380 1.356 . S
C2383 C2377 1.363 . S
C2383 C2378 1.379 . S
C2383 N2381 1.356 . S
N2384 C2376 1.356 . S
N2384 H2390 0.984 . S
N2384 H2391 0.984 . S
N2385 C2378 1.356 . S
N2385 H2388 0.984 . S
N2385 H2389 0.985 . S
H2386 N2381 0.984 . S
H2387 N2381 0.985 . S
H2388 N2385 0.984 . S
H2389 N2385 0.985 . S
H2390 N2384 0.984 . S
H2391 N2384 0.984 . S
H2392 N2380 0.984 . S
H2393 N2380 0.985 . S
C2394 C2395 1.363 . S
C2394 C2400 1.379 . S
C2394 N2402 1.356 . S
C2395 C2394 1.363 . S
C2395 C2401 1.363 . S
C2396 C2397 1.363 . S
C2396 C2401 1.379 . S
C2396 N2403 1.356 . S
C2397 C2396 1.363 . S
C2397 C2400 1.363 . S
N2398 C2400 1.356 . S
N2398 H2410 0.984 . S
N2398 H2411 0.985 . S
N2399 C2401 1.356 . S
N2399 H2404 0.984 . S
N2399 H2405 0.985 . S
C2400 C2394 1.379 . S
C2400 C2397 1.363 . S
C2400 N2398 1.356 . S
C2401 C2395 1.363 . S
C2401 C2396 1.379 . S
C2401 N2399 1.356 . S
N2402 C2394 1.356 . S
N2402 H2408 0.984 . S
N2402 H2409 0.984 . S
N2403 C2396 1.356 . S
N2403 H2406 0.984 . S
N2403 H2407 0.985 . S
H2404 N2399 0.984 . S
H2405 N2399 0.985 . S
H2406 N2403 0.984 . S
H2407 N2403 0.985 . S
H2408 N2402 0.984 . S
H2409 N2402 0.984 . S
H2410 N2398 0.984 . S
H2411 N2398 0.985 . S
C2412 C2413 1.363 . S
C2412 C2418 1.379 . S
C2412 N2420 1.356 . S
C2413 C2412 1.363 . S
C2413 C2419 1.363 . S
C2414 C2415 1.363 . S
C2414 C2419 1.379 . S
C2414 N2421 1.356 . S
C2415 C2414 1.363 . S
C2415 C2418 1.363 . S
N2416 C2418 1.356 . S
N2416 H2428 0.984 . S
N2416 H2429 0.985 . S
N2417 C2419 1.356 . S
N2417 H2422 0.984 . S
N2417 H2423 0.985 . S
C2418 C2412 1.379 . S
C2418 C2415 1.363 . S
C2418 N2416 1.356 . S
C2419 C2413 1.363 . S
C2419 C2414 1.379 . S
C2419 N2417 1.356 . S
N2420 C2412 1.356 . S
N2420 H2426 0.984 . S
N2420 H2427 0.984 . S
N2421 C2414 1.356 . S
N2421 H2424 0.984 . S
N2421 H2425 0.985 . S
H2422 N2417 0.984 . S
H2423 N2417 0.985 . S
H2424 N2421 0.984 . S
H2425 N2421 0.985 . S
H2426 N2420 0.984 . S
H2427 N2420 0.984 . S
H2428 N2416 0.984 . S
H2429 N2416 0.985 . S
C2430 C2431 1.363 . S
C2430 C2436 1.379 . S
C2430 N2438 1.356 . S
C2431 C2430 1.363 . S
C2431 C2437 1.363 . S
C2432 C2433 1.363 . S
C2432 C2437 1.379 . S
C2432 N2439 1.356 . S
C2433 C2432 1.363 . S
C2433 C2436 1.363 . S
N2434 C2436 1.356 . S
N2434 H2446 0.984 . S
N2434 H2447 0.985 . S
N2435 C2437 1.356 . S
N2435 H2440 0.984 . S
N2435 H2441 0.985 . S
C2436 C2430 1.379 . S
C2436 C2433 1.363 . S
C2436 N2434 1.356 . S
C2437 C2431 1.363 . S
C2437 C2432 1.379 . S
C2437 N2435 1.356 . S
N2438 C2430 1.356 . S
N2438 H2444 0.984 . S
N2438 H2445 0.984 . S
N2439 C2432 1.356 . S
N2439 H2442 0.984 . S
N2439 H2443 0.985 . S
H2440 N2435 0.984 . S
H2441 N2435 0.985 . S
H2442 N2439 0.984 . S
H2443 N2439 0.985 . S
H2444 N2438 0.984 . S
H2445 N2438 0.984 . S
H2446 N2434 0.984 . S
H2447 N2434 0.985 . S
C2448 C2449 1.363 . S
C2448 C2454 1.379 1_545 S
C2448 N2456 1.356 1_545 S
C2449 C2448 1.363 . S
C2449 C2455 1.363 . S
C2450 C2451 1.363 . S
C2450 C2455 1.379 . S
C2450 N2457 1.356 . S
C2451 C2450 1.363 . S
C2451 C2454 1.363 1_545 S
N2452 C2454 1.356 . S
N2452 H2464 0.984 . S
N2452 H2465 0.985 . S
N2453 C2455 1.356 . S
N2453 H2458 0.984 . S
N2453 H2459 0.985 . S
C2454 C2448 1.379 1_565 S
C2454 C2451 1.363 1_565 S
C2454 N2452 1.356 . S
C2455 C2449 1.363 . S
C2455 C2450 1.379 . S
C2455 N2453 1.356 . S
N2456 C2448 1.356 1_565 S
N2456 H2462 0.984 . S
N2456 H2463 1.006 . S
N2457 C2450 1.356 . S
N2457 H2460 0.984 . S
N2457 H2461 0.985 . S
H2458 N2453 0.984 . S
H2459 N2453 0.985 . S
H2460 N2457 0.984 . S
H2461 N2457 0.985 . S
H2462 N2456 0.984 . S
H2463 N2456 1.006 . S
H2464 N2452 0.984 . S
H2465 N2452 0.985 . S
C2466 C2467 1.363 . S
C2466 C2472 1.379 . S
C2466 N2474 1.356 . S
C2467 C2466 1.363 . S
C2467 C2473 1.363 . S
C2468 C2469 1.363 . S
C2468 C2473 1.379 . S
C2468 N2475 1.356 . S
C2469 C2468 1.363 . S
C2469 C2472 1.363 . S
N2470 C2472 1.356 1_455 S
N2470 H2482 0.984 . S
N2470 H2483 0.985 . S
N2471 C2473 1.356 . S
N2471 H2476 0.984 . S
N2471 H2477 0.985 . S
C2472 C2466 1.379 . S
C2472 C2469 1.363 . S
C2472 N2470 1.356 1_655 S
C2473 C2467 1.363 . S
C2473 C2468 1.379 . S
C2473 N2471 1.356 . S
N2474 C2466 1.356 . S
N2474 H2480 0.984 1_655 S
N2474 H2481 0.984 . S
N2475 C2468 1.356 . S
N2475 H2478 0.984 . S
N2475 H2479 0.985 . S
H2476 N2471 0.984 . S
H2477 N2471 0.985 . S
H2478 N2475 0.984 . S
H2479 N2475 0.985 . S
H2480 N2474 0.984 1_455 S
H2481 N2474 0.984 . S
H2482 N2470 0.984 . S
H2483 N2470 0.985 . S
C2484 C2485 1.363 . S
C2484 C2490 1.379 . S
C2484 N2492 1.356 . S
C2485 C2484 1.363 . S
C2485 C2491 1.363 . S
C2486 C2487 1.363 . S
C2486 C2491 1.379 . S
C2486 N2493 1.356 . S
C2487 C2486 1.363 . S
C2487 C2490 1.363 . S
N2488 C2490 1.356 . S
N2488 H2500 0.984 . S
N2488 H2501 0.985 . S
N2489 C2491 1.356 . S
N2489 H2494 0.984 . S
N2489 H2495 0.985 . S
C2490 C2484 1.379 . S
C2490 C2487 1.363 . S
C2490 N2488 1.356 . S
C2491 C2485 1.363 . S
C2491 C2486 1.379 . S
C2491 N2489 1.356 . S
N2492 C2484 1.356 . S
N2492 H2498 0.984 . S
N2492 H2499 0.984 . S
N2493 C2486 1.356 . S
N2493 H2496 0.984 . S
N2493 H2497 0.985 . S
H2494 N2489 0.984 . S
H2495 N2489 0.985 . S
H2496 N2493 0.984 . S
H2497 N2493 0.985 . S
H2498 N2492 0.984 . S
H2499 N2492 0.984 . S
H2500 N2488 0.984 . S
H2501 N2488 0.985 . S
C2502 C2503 1.363 . S
C2502 C2508 1.379 . S
C2502 N2510 1.356 . S
C2503 C2502 1.363 . S
C2503 C2509 1.363 . S
C2504 C2505 1.363 . S
C2504 C2509 1.379 . S
C2504 N2511 1.356 . S
C2505 C2504 1.363 . S
C2505 C2508 1.363 . S
N2506 C2508 1.356 . S
N2506 H2518 0.984 . S
N2506 H2519 0.985 . S
N2507 C2509 1.356 . S
N2507 H2512 0.984 . S
N2507 H2513 0.985 . S
C2508 C2502 1.379 . S
C2508 C2505 1.363 . S
C2508 N2506 1.356 . S
C2509 C2503 1.363 . S
C2509 C2504 1.379 . S
C2509 N2507 1.356 . S
N2510 C2502 1.356 . S
N2510 H2516 0.984 . S
N2510 H2517 0.984 . S
N2511 C2504 1.356 . S
N2511 H2514 0.984 . S
N2511 H2515 0.985 . S
H2512 N2507 0.984 . S
H2513 N2507 0.985 . S
H2514 N2511 0.984 . S
H2515 N2511 0.985 . S
H2516 N2510 0.984 . S
H2517 N2510 0.984 . S
H2518 N2506 0.984 . S
H2519 N2506 0.985 . S
C2520 C2521 1.363 . S
C2520 C2526 1.379 . S
C2520 N2528 1.356 . S
C2521 C2520 1.363 . S
C2521 C2527 1.363 . S
C2522 C2523 1.363 . S
C2522 C2527 1.379 . S
C2522 N2529 1.356 . S
C2523 C2522 1.363 . S
C2523 C2526 1.363 . S
N2524 C2526 1.356 . S
N2524 H2536 0.984 . S
N2524 H2537 0.985 . S
N2525 C2527 1.356 . S
N2525 H2530 1.021 . S
N2525 H2531 0.985 . S
C2526 C2520 1.379 . S
C2526 C2523 1.363 . S
C2526 N2524 1.356 . S
C2527 C2521 1.363 . S
C2527 C2522 1.379 . S
C2527 N2525 1.356 . S
N2528 C2520 1.356 . S
N2528 H2534 0.984 . S
N2528 H2535 0.984 . S
N2529 C2522 1.356 . S
N2529 H2532 0.984 . S
N2529 H2533 0.985 . S
H2530 N2525 1.021 . S
H2531 N2525 0.985 . S
H2532 N2529 0.984 . S
H2533 N2529 0.985 . S
H2534 N2528 0.984 . S
H2535 N2528 0.984 . S
H2536 N2524 0.984 . S
H2537 N2524 0.985 . S
C2538 C2539 1.363 . S
C2538 C2544 1.379 . S
C2538 N2546 1.356 . S
C2539 C2538 1.363 . S
C2539 C2545 1.363 . S
C2540 C2541 1.363 . S
C2540 C2545 1.379 . S
C2540 N2547 1.356 . S
C2541 C2540 1.363 . S
C2541 C2544 1.363 . S
N2542 C2544 1.356 . S
N2542 H2554 0.984 . S
N2542 H2555 0.985 . S
N2543 C2545 1.356 . S
N2543 H2548 0.984 . S
N2543 H2549 0.985 . S
C2544 C2538 1.379 . S
C2544 C2541 1.363 . S
C2544 N2542 1.356 . S
C2545 C2539 1.363 . S
C2545 C2540 1.379 . S
C2545 N2543 1.356 . S
N2546 C2538 1.356 . S
N2546 H2552 0.984 . S
N2546 H2553 0.984 . S
N2547 C2540 1.356 . S
N2547 H2550 0.984 . S
N2547 H2551 0.985 . S
H2548 N2543 0.984 . S
H2549 N2543 0.985 . S
H2550 N2547 0.984 . S
H2551 N2547 0.985 . S
H2552 N2546 0.984 . S
H2553 N2546 0.984 . S
H2554 N2542 0.984 . S
H2555 N2542 0.985 . S
C2556 C2557 1.363 . S
C2556 C2562 1.379 . S
C2556 N2564 1.356 . S
C2557 C2556 1.363 . S
C2557 C2563 1.363 . S
C2558 C2559 1.363 . S
C2558 C2563 1.379 . S
C2558 N2565 1.356 . S
C2559 C2558 1.363 . S
C2559 C2562 1.363 . S
N2560 C2562 1.356 . S
N2560 H2572 0.984 . S
N2560 H2573 0.985 . S
N2561 C2563 1.356 . S
N2561 H2566 0.984 . S
N2561 H2567 0.985 . S
C2562 C2556 1.379 . S
C2562 C2559 1.363 . S
C2562 N2560 1.356 . S
C2563 C2557 1.363 . S
C2563 C2558 1.379 . S
C2563 N2561 1.356 . S
N2564 C2556 1.356 . S
N2564 H2570 0.984 . S
N2564 H2571 0.984 . S
N2565 C2558 1.356 . S
N2565 H2568 0.984 . S
N2565 H2569 0.985 . S
H2566 N2561 0.984 . S
H2567 N2561 0.985 . S
H2568 N2565 0.984 . S
H2569 N2565 0.985 . S
H2570 N2564 0.984 . S
H2571 N2564 0.984 . S
H2572 N2560 0.984 . S
H2573 N2560 0.985 . S
C2574 C2575 1.363 . S
C2574 C2580 1.379 . S
C2574 N2582 1.356 . S
C2575 C2574 1.363 . S
C2575 C2581 1.363 . S
C2576 C2577 1.363 . S
C2576 C2581 1.379 . S
C2576 N2583 1.356 . S
C2577 C2576 1.363 . S
C2577 C2580 1.363 . S
N2578 C2580 1.356 . S
N2578 H2590 0.984 . S
N2578 H2591 0.985 . S
N2579 C2581 1.356 . S
N2579 H2584 0.984 . S
N2579 H2585 0.985 . S
C2580 C2574 1.379 . S
C2580 C2577 1.363 . S
C2580 N2578 1.356 . S
C2581 C2575 1.363 . S
C2581 C2576 1.379 . S
C2581 N2579 1.356 . S
N2582 C2574 1.356 . S
N2582 H2588 0.984 . S
N2582 H2589 0.984 . S
N2583 C2576 1.356 . S
N2583 H2586 0.984 . S
N2583 H2587 0.985 . S
H2584 N2579 0.984 . S
H2585 N2579 0.985 . S
H2586 N2583 0.984 . S
H2587 N2583 0.985 . S
H2588 N2582 0.984 . S
H2589 N2582 0.984 . S
H2590 N2578 0.984 . S
H2591 N2578 0.985 . S
C2592 C2593 1.363 . S
C2592 C2598 1.379 . S
C2592 N2600 1.356 . S
C2593 C2592 1.363 . S
C2593 C2599 1.363 . S
C2594 C2595 1.363 . S
C2594 C2599 1.379 . S
C2594 N2601 1.356 . S
C2595 C2594 1.363 . S
C2595 C2598 1.363 . S
N2596 C2598 1.356 . S
N2596 H2608 0.984 . S
N2596 H2609 0.985 . S
N2597 C2599 1.356 . S
N2597 H2602 0.944 1_455 S
N2597 H2603 0.985 . S
C2598 C2592 1.379 . S
C2598 C2595 1.363 . S
C2598 N2596 1.356 . S
C2599 C2593 1.363 . S
C2599 C2594 1.379 . S
C2599 N2597 1.356 . S
N2600 C2592 1.356 . S
N2600 H2606 0.984 . S
N2600 H2607 0.984 . S
N2601 C2594 1.356 . S
N2601 H2604 0.984 . S
N2601 H2605 0.985 . S
H2602 N2597 0.944 1_655 S
H2603 N2597 0.985 . S
H2604 N2601 0.984 . S
H2605 N2601 0.985 . S
H2606 N2600 0.984 . S
H2607 N2600 0.984 . S
H2608 N2596 0.984 . S
H2609 N2596 0.985 . S
C2610 C2611 1.363 . S
C2610 C2616 1.379 . S
C2610 N2618 1.356 . S
C2611 C2610 1.363 . S
C2611 C2617 1.356 . S
C2612 C2613 1.363 1_455 S
C2612 C2617 1.384 1_455 S
C2612 N2619 1.356 . S
C2613 C2612 1.363 1_655 S
C2613 C2616 1.363 . S
N2614 C2616 1.356 . S
N2614 H2626 0.984 . S
N2614 H2627 0.985 . S
N2615 C2617 1.356 1_455 S
N2615 H2620 0.984 . S
N2615 H2621 0.985 . S
C2616 C2610 1.379 . S
C2616 C2613 1.363 . S
C2616 N2614 1.356 . S
C2617 C2611 1.356 . S
C2617 C2612 1.384 1_655 S
C2617 N2615 1.356 1_655 S
N2618 C2610 1.356 . S
N2618 H2624 0.984 . S
N2618 H2625 0.984 . S
N2619 C2612 1.356 . S
N2619 H2622 0.984 . S
N2619 H2623 0.985 . S
H2620 N2615 0.984 . S
H2621 N2615 0.985 . S
H2622 N2619 0.984 . S
H2623 N2619 0.985 . S
H2624 N2618 0.984 . S
H2625 N2618 0.984 . S
H2626 N2614 0.984 . S
H2627 N2614 0.985 . S
C2628 C2629 1.363 . S
C2628 C2634 1.379 . S
C2628 N2636 1.356 . S
C2629 C2628 1.363 . S
C2629 C2635 1.363 . S
C2630 C2631 1.363 . S
C2630 C2635 1.379 . S
C2630 N2637 1.356 . S
C2631 C2630 1.363 . S
C2631 C2634 1.363 . S
N2632 C2634 1.356 . S
N2632 H2644 0.984 . S
N2632 H2645 0.985 . S
N2633 C2635 1.356 . S
N2633 H2638 0.984 . S
N2633 H2639 0.985 . S
C2634 C2628 1.379 . S
C2634 C2631 1.363 . S
C2634 N2632 1.356 . S
C2635 C2629 1.363 . S
C2635 C2630 1.379 . S
C2635 N2633 1.356 . S
N2636 C2628 1.356 . S
N2636 H2642 0.984 . S
N2636 H2643 0.984 . S
N2637 C2630 1.356 . S
N2637 H2640 0.984 . S
N2637 H2641 0.985 . S
H2638 N2633 0.984 . S
H2639 N2633 0.985 . S
H2640 N2637 0.984 . S
H2641 N2637 0.985 . S
H2642 N2636 0.984 . S
H2643 N2636 0.984 . S
H2644 N2632 0.984 . S
H2645 N2632 0.985 . S
C2646 C2647 1.363 . S
C2646 C2652 1.379 . S
C2646 N2654 1.356 . S
C2647 C2646 1.363 . S
C2647 C2653 1.363 . S
C2648 C2649 1.363 . S
C2648 C2653 1.379 . S
C2648 N2655 1.356 1_545 S
C2649 C2648 1.363 . S
C2649 C2652 1.363 . S
N2650 C2652 1.356 . S
N2650 H2662 0.984 . S
N2650 H2663 0.985 . S
N2651 C2653 1.356 . S
N2651 H2656 0.984 . S
N2651 H2657 0.985 1_545 S
C2652 C2646 1.379 . S
C2652 C2649 1.363 . S
C2652 N2650 1.356 . S
C2653 C2647 1.363 . S
C2653 C2648 1.379 . S
C2653 N2651 1.356 . S
N2654 C2646 1.356 . S
N2654 H2660 0.984 . S
N2654 H2661 0.984 . S
N2655 C2648 1.356 1_565 S
N2655 H2658 0.984 . S
N2655 H2659 0.985 . S
H2656 N2651 0.984 . S
H2657 N2651 0.985 1_565 S
H2658 N2655 0.984 . S
H2659 N2655 0.985 . S
H2660 N2654 0.984 . S
H2661 N2654 0.984 . S
H2662 N2650 0.984 . S
H2663 N2650 0.985 . S
C1369 C7 1.568 . S
C1371 C857 1.545 . S
C1387 C23 1.650 . S
C1389 C901 1.617 . S
C1407 C981 1.540 . S
C1405 C37 1.587 . S
C1423 C35 1.570 . S
C1425 C1025 1.580 . S
C1441 C9 1.607 1_455 S
C1443 C1105 1.557 . S
C1459 C21 1.624 . S
C1461 C1167 1.599 . S
C1477 C49 1.566 . S
C1479 C1087 1.541 . S
C1497 C1149 1.578 . S
C1495 C65 1.651 . S
C1515 C1043 1.578 . S
C1513 C79 1.608 1_565 S
C1531 C77 1.566 . S
C1533 C963 1.538 . S
C1551 C839 1.558 . S
C1549 C51 1.612 1_655 S
C1567 C63 1.621 . S
C1569 C919 1.641 . S
C1585 C91 1.658 . S
C1587 C1229 1.630 . S
C1603 C107 1.694 . S
C1605 C1273 1.660 . S
C1623 C1353 1.622 . S
C1621 C121 1.721 . S
C1639 C119 1.667 . S
C1641 C299 1.632 . S
C1657 C93 1.721 . S
C1659 C343 1.682 . S
C1675 C105 1.657 . S
C1677 C423 1.631 . S
C1693 C133 1.626 . S
C1695 C361 1.644 . S
C1711 C149 1.687 . S
C1713 C405 1.610 . S
C1731 C281 1.618 . S
C1729 C163 1.715 . S
C1749 C1335 1.661 . S
C1747 C161 1.696 . S
C1767 C1211 1.623 . S
C1765 C135 1.716 . S
C1785 C1291 1.695 . S
C1783 C147 1.669 . S
C1801 C175 1.626 . S
C1803 C485 1.598 . S
C1819 C191 1.680 . S
C1821 C547 1.605 . S
C1837 C205 1.712 . S
C1839 C591 1.669 . S
C1855 C203 1.696 . S
C1857 C653 1.720 . S
C1875 C715 1.683 . S
C1873 C177 1.724 . S
C1893 C795 1.650 . S
C1891 C189 1.673 . S
C1911 C733 1.684 . S
C1909 C217 1.663 . S
C1929 C777 1.621 . S
C1927 C233 1.700 . S
C1945 C247 1.721 . S
C1947 C671 1.676 . S
C1965 C609 1.684 . S
C1963 C245 1.663 . S
C1981 C219 1.715 . S
C1983 C467 1.626 . S
C2001 C529 1.634 . S
C1999 C231 1.659 . S
C2019 C305 1.509 . S
C2017 C8 1.599 . S
C2035 C17 1.567 . S
C2037 C349 1.496 . S
C2055 C429 1.508 . S
C2053 C31 1.594 . S
C2073 C491 1.517 . S
C2071 C36 1.608 . S
C2091 C553 1.490 . S
C2089 C3 1.584 . S
C2109 C597 1.510 . S
C2107 C22 1.581 . S
C2125 C50 1.599 . S
C2127 C615 1.541 . S
C2143 C59 1.561 . S
C2145 C473 1.466 . S
C2161 C73 1.578 . S
C2163 C535 1.493 . S
C2179 C78 1.623 . S
C2181 C367 1.561 . S
C2199 C411 1.492 . S
C2197 C45 1.584 . S
C2215 C64 1.583 . S
C2217 C287 1.484 . S
C2235 C659 1.532 . S
C2233 C92 1.599 . S
C2251 C101 1.620 . S
C2253 C721 1.545 . S
C2269 C115 1.625 . S
C2271 C801 1.529 . S
C2289 C863 1.439 . S
C2287 C120 1.509 . S
C2305 C87 1.578 . S
C2307 C907 1.507 . S
C2323 C106 1.474 . S
C2325 C987 1.405 . S
C2341 C134 1.486 . S
C2343 C969 1.414 . S
C2359 C143 1.500 . S
C2361 C845 1.423 . S
C2379 C925 1.514 . S
C2377 C157 1.581 . S
C2395 C162 1.608 . S
C2397 C739 1.538 . S
C2413 C129 1.629 . S
C2415 C783 1.526 . S
C2433 C677 1.553 . S
C2431 C148 1.626 . S
C2451 C1031 1.438 . S
C2449 C176 1.493 . S
C2467 C185 1.499 . S
C2469 C1111 1.422 . S
C2485 C199 1.580 . S
C2487 C1173 1.493 . S
C2505 C1235 1.503 . S
C2503 C204 1.598 . S
C2523 C1279 1.547 . S
C2521 C171 1.626 . S
C2539 C190 1.626 . S
C2541 C1359 1.525 . S
C2557 C218 1.600 . S
C2559 C1341 1.507 . S
C2575 C227 1.616 . S
C2577 C1217 1.518 . S
C2595 C1297 1.543 . S
C2593 C241 1.667 . S
C2613 C1093 1.435 . S
C2611 C246 1.505 . S
C2631 C1155 1.487 . S
C2629 C213 1.581 . S
C2647 C232 1.488 . S
C2649 C1049 1.427 . S
