# Generated by pormake.
# Topology ctn, (3,4)-cn, num edge types: 1
# Building blocks:
#     Node 0, Type 0, BuildingBlock: BETDIP_clean_linker_0, # of connection points: 3
#     Node 1, Type 0, BuildingBlock: BETDIP_clean_linker_0, # of connection points: 3
#     Node 2, Type 0, BuildingBlock: BETDIP_clean_linker_0, # of connection points: 3
#     Node 3, Type 0, BuildingBlock: BETDIP_clean_linker_0, # of connection points: 3
#     Node 4, Type 0, BuildingBlock: BETDIP_clean_linker_0, # of connection points: 3
#     Node 5, Type 0, BuildingBlock: BETDIP_clean_linker_0, # of connection points: 3
#     Node 6, Type 0, BuildingBlock: BETDIP_clean_linker_0, # of connection points: 3
#     Node 7, Type 0, BuildingBlock: BETDIP_clean_linker_0, # of connection points: 3
#     Node 8, Type 0, BuildingBlock: BETDIP_clean_linker_0, # of connection points: 3
#     Node 9, Type 0, BuildingBlock: BETDIP_clean_linker_0, # of connection points: 3
#     Node 10, Type 0, BuildingBlock: BETDIP_clean_linker_0, # of connection points: 3
#     Node 11, Type 0, BuildingBlock: BETDIP_clean_linker_0, # of connection points: 3
#     Node 12, Type 0, BuildingBlock: BETDIP_clean_linker_0, # of connection points: 3
#     Node 13, Type 0, BuildingBlock: BETDIP_clean_linker_0, # of connection points: 3
#     Node 14, Type 0, BuildingBlock: BETDIP_clean_linker_0, # of connection points: 3
#     Node 15, Type 0, BuildingBlock: BETDIP_clean_linker_0, # of connection points: 3
#     Node 16, Type 1, BuildingBlock: NAHDIM_clean_sbu_0, # of connection points: 4
#     Node 17, Type 1, BuildingBlock: NAHDIM_clean_sbu_0, # of connection points: 4
#     Node 18, Type 1, BuildingBlock: NAHDIM_clean_sbu_0, # of connection points: 4
#     Node 19, Type 1, BuildingBlock: NAHDIM_clean_sbu_0, # of connection points: 4
#     Node 20, Type 1, BuildingBlock: NAHDIM_clean_sbu_0, # of connection points: 4
#     Node 21, Type 1, BuildingBlock: NAHDIM_clean_sbu_0, # of connection points: 4
#     Node 22, Type 1, BuildingBlock: NAHDIM_clean_sbu_0, # of connection points: 4
#     Node 23, Type 1, BuildingBlock: NAHDIM_clean_sbu_0, # of connection points: 4
#     Node 24, Type 1, BuildingBlock: NAHDIM_clean_sbu_0, # of connection points: 4
#     Node 25, Type 1, BuildingBlock: NAHDIM_clean_sbu_0, # of connection points: 4
#     Node 26, Type 1, BuildingBlock: NAHDIM_clean_sbu_0, # of connection points: 4
#     Node 27, Type 1, BuildingBlock: NAHDIM_clean_sbu_0, # of connection points: 4
#     Edge 28, Type (0, 1), BuildingBlock: ZUJKAS_clean_linker_0, # of connection points: 2
#     Edge 29, Type (0, 1), BuildingBlock: ZUJKAS_clean_linker_0, # of connection points: 2
#     Edge 30, Type (0, 1), BuildingBlock: ZUJKAS_clean_linker_0, # of connection points: 2
#     Edge 31, Type (0, 1), BuildingBlock: ZUJKAS_clean_linker_0, # of connection points: 2
#     Edge 32, Type (0, 1), BuildingBlock: ZUJKAS_clean_linker_0, # of connection points: 2
#     Edge 33, Type (0, 1), BuildingBlock: ZUJKAS_clean_linker_0, # of connection points: 2
#     Edge 34, Type (0, 1), BuildingBlock: ZUJKAS_clean_linker_0, # of connection points: 2
#     Edge 35, Type (0, 1), BuildingBlock: ZUJKAS_clean_linker_0, # of connection points: 2
#     Edge 36, Type (0, 1), BuildingBlock: ZUJKAS_clean_linker_0, # of connection points: 2
#     Edge 37, Type (0, 1), BuildingBlock: ZUJKAS_clean_linker_0, # of connection points: 2
#     Edge 38, Type (0, 1), BuildingBlock: ZUJKAS_clean_linker_0, # of connection points: 2
#     Edge 39, Type (0, 1), BuildingBlock: ZUJKAS_clean_linker_0, # of connection points: 2
#     Edge 40, Type (0, 1), BuildingBlock: ZUJKAS_clean_linker_0, # of connection points: 2
#     Edge 41, Type (0, 1), BuildingBlock: ZUJKAS_clean_linker_0, # of connection points: 2
#     Edge 42, Type (0, 1), BuildingBlock: ZUJKAS_clean_linker_0, # of connection points: 2
#     Edge 43, Type (0, 1), BuildingBlock: ZUJKAS_clean_linker_0, # of connection points: 2
#     Edge 44, Type (0, 1), BuildingBlock: ZUJKAS_clean_linker_0, # of connection points: 2
#     Edge 45, Type (0, 1), BuildingBlock: ZUJKAS_clean_linker_0, # of connection points: 2
#     Edge 46, Type (0, 1), BuildingBlock: ZUJKAS_clean_linker_0, # of connection points: 2
#     Edge 47, Type (0, 1), BuildingBlock: ZUJKAS_clean_linker_0, # of connection points: 2
#     Edge 48, Type (0, 1), BuildingBlock: ZUJKAS_clean_linker_0, # of connection points: 2
#     Edge 49, Type (0, 1), BuildingBlock: ZUJKAS_clean_linker_0, # of connection points: 2
#     Edge 50, Type (0, 1), BuildingBlock: ZUJKAS_clean_linker_0, # of connection points: 2
#     Edge 51, Type (0, 1), BuildingBlock: ZUJKAS_clean_linker_0, # of connection points: 2
#     Edge 52, Type (0, 1), BuildingBlock: ZUJKAS_clean_linker_0, # of connection points: 2
#     Edge 53, Type (0, 1), BuildingBlock: ZUJKAS_clean_linker_0, # of connection points: 2
#     Edge 54, Type (0, 1), BuildingBlock: ZUJKAS_clean_linker_0, # of connection points: 2
#     Edge 55, Type (0, 1), BuildingBlock: ZUJKAS_clean_linker_0, # of connection points: 2
#     Edge 56, Type (0, 1), BuildingBlock: ZUJKAS_clean_linker_0, # of connection points: 2
#     Edge 57, Type (0, 1), BuildingBlock: ZUJKAS_clean_linker_0, # of connection points: 2
#     Edge 58, Type (0, 1), BuildingBlock: ZUJKAS_clean_linker_0, # of connection points: 2
#     Edge 59, Type (0, 1), BuildingBlock: ZUJKAS_clean_linker_0, # of connection points: 2
#     Edge 60, Type (0, 1), BuildingBlock: ZUJKAS_clean_linker_0, # of connection points: 2
#     Edge 61, Type (0, 1), BuildingBlock: ZUJKAS_clean_linker_0, # of connection points: 2
#     Edge 62, Type (0, 1), BuildingBlock: ZUJKAS_clean_linker_0, # of connection points: 2
#     Edge 63, Type (0, 1), BuildingBlock: ZUJKAS_clean_linker_0, # of connection points: 2
#     Edge 64, Type (0, 1), BuildingBlock: ZUJKAS_clean_linker_0, # of connection points: 2
#     Edge 65, Type (0, 1), BuildingBlock: ZUJKAS_clean_linker_0, # of connection points: 2
#     Edge 66, Type (0, 1), BuildingBlock: ZUJKAS_clean_linker_0, # of connection points: 2
#     Edge 67, Type (0, 1), BuildingBlock: ZUJKAS_clean_linker_0, # of connection points: 2
#     Edge 68, Type (0, 1), BuildingBlock: ZUJKAS_clean_linker_0, # of connection points: 2
#     Edge 69, Type (0, 1), BuildingBlock: ZUJKAS_clean_linker_0, # of connection points: 2
#     Edge 70, Type (0, 1), BuildingBlock: ZUJKAS_clean_linker_0, # of connection points: 2
#     Edge 71, Type (0, 1), BuildingBlock: ZUJKAS_clean_linker_0, # of connection points: 2
#     Edge 72, Type (0, 1), BuildingBlock: ZUJKAS_clean_linker_0, # of connection points: 2
#     Edge 73, Type (0, 1), BuildingBlock: ZUJKAS_clean_linker_0, # of connection points: 2
#     Edge 74, Type (0, 1), BuildingBlock: ZUJKAS_clean_linker_0, # of connection points: 2
#     Edge 75, Type (0, 1), BuildingBlock: ZUJKAS_clean_linker_0, # of connection points: 2
# Relax obj value: 0.068
# Max RMSD: 0.191
# Mean RMSD: 0.118
data_MOF--net-ctn--node1-NAHDIM_clean_sbu_0--node2-BETDIP_clean_linker_0--edge1-ZUJKAS_clean_linker_0
_symmetry_space_group_name_H-M    P1
_symmetry_Int_Tables_number       1
_symmetry_cell_setting            triclinic
loop_
_symmetry_equiv_pos_as_xyz
'x, y, z'
_cell_length_a     68.448099
_cell_length_b     69.113607
_cell_length_c     74.934885
_cell_angle_alpha  94.679165
_cell_angle_beta   93.736359
_cell_angle_gamma 95.054331
loop_
_atom_site_label
_atom_site_type_symbol
_atom_site_fract_x
_atom_site_fract_y
_atom_site_fract_z
_atom_type_partial_charge
H0 H 0.03224 0.0738 0.0612 0.0
H1 H 0.07381 0.05051 0.02675 0.0
H2 H 0.06194 0.02417 0.07533 0.0
H3 H 0.0766 0.08066 0.01807 0.0
C4 C 0.06182 0.0852 0.01818 0.0
C5 C 0.04272 0.06326 0.05842 0.0
C6 C 0.0459 0.04892 0.07028 0.0
C7 C 0.05291 0.06417 0.04287 0.0
C8 C 0.06611 0.05022 0.03889 0.0
C9 C 0.06949 0.03574 0.05054 0.0
C10 C 0.05935 0.03524 0.06624 0.0
N11 N 0.04914 0.07895 0.03131 0.0
H12 H 0.26642 0.69704 0.19436 0.0
H13 H 0.32058 0.73129 0.21257 0.0
H14 H 0.29872 0.68482 0.24275 0.0
H15 H 0.30653 0.75423 0.19796 0.0
C16 C 0.29849 0.74634 0.18623 0.0
C17 C 0.27901 0.70015 0.20405 0.0
C18 C 0.28083 0.68909 0.21887 0.0
C19 C 0.29293 0.71572 0.20192 0.0
C20 C 0.30938 0.7197 0.21434 0.0
C21 C 0.3115 0.70868 0.22917 0.0
C22 C 0.29704 0.69355 0.23146 0.0
N23 N 0.28998 0.72696 0.18708 0.0
H24 H 0.95889 0.48992 0.0096 0.0
H25 H 0.99516 0.46204 0.04665 0.0
H26 H 0.96539 0.51104 0.06563 0.0
H27 H 0.01151 0.45584 0.02144 0.0
C28 C 0.99925 0.45158 0.01155 0.0
C29 C 0.96523 0.48919 0.02314 0.0
C30 C 0.96064 0.50241 0.03718 0.0
C31 C 0.97795 0.4749 0.02635 0.0
C32 C 0.98568 0.47335 0.04394 0.0
C33 C 0.98118 0.4863 0.05819 0.0
C34 C 0.96877 0.50091 0.0547 0.0
N35 N 0.98218 0.46188 0.01174 0.0
H36 H 0.71774 0.79205 0.18884 0.0
H37 H 0.7368 0.84086 0.22725 0.0
H38 H 0.76764 0.83146 0.17975 0.0
H39 H 0.72093 0.8234 0.24613 0.0
C40 C 0.70883 0.81464 0.23843 0.0
C41 C 0.72773 0.80491 0.19299 0.0
C42 C 0.74294 0.8105 0.18224 0.0
C43 C 0.72563 0.81541 0.20945 0.0
C44 C 0.73862 0.8321 0.21496 0.0
C45 C 0.75381 0.83797 0.20427 0.0
C46 C 0.75586 0.82706 0.18798 0.0
N47 N 0.71016 0.80887 0.21993 0.0
H48 H 0.03759 0.97182 0.45086 0.0
H49 H 0.09073 0.9901 0.48387 0.0
H50 H 0.07474 0.02221 0.43936 0.0
H51 H 0.08831 0.95967 0.49111 0.0
C52 C 0.07271 0.95501 0.49062 0.0
C53 C 0.05081 0.98172 0.45376 0.0
C54 C 0.05458 0.99734 0.4432 0.0
C55 C 0.06386 0.97876 0.46824 0.0
C56 C 0.08072 0.99191 0.4725 0.0
C57 C 0.08475 0.00762 0.46212 0.0
C58 C 0.07166 0.01015 0.44744 0.0
N59 N 0.05923 0.96275 0.47849 0.0
H60 H 0.21341 0.74188 0.81308 0.0
H61 H 0.23867 0.69797 0.78058 0.0
H62 H 0.26689 0.71947 0.83222 0.0
H63 H 0.2223 0.71134 0.75795 0.0
C64 C 0.20885 0.7154 0.76356 0.0
C65 C 0.22487 0.73218 0.8113 0.0
C66 C 0.24016 0.7321 0.82471 0.0
C67 C 0.22449 0.72035 0.79522 0.0
C68 C 0.23933 0.70781 0.79264 0.0
C69 C 0.25469 0.70736 0.80597 0.0
C70 C 0.25504 0.71964 0.82193 0.0
N71 N 0.20869 0.72124 0.78216 0.0
H72 H 0.00116 0.56656 0.46445 0.0
H73 H 0.96706 0.51175 0.44921 0.0
H74 H 0.95242 0.54812 0.49453 0.0
H75 H 0.99161 0.50456 0.43368 0.0
C76 C -5e-05 0.51788 0.43081 0.0
C77 C 0.98925 0.55588 0.46682 0.0
C78 C 0.977 0.55966 0.48078 0.0
C79 C 0.98617 0.53849 0.4556 0.0
C80 C 0.97031 0.52484 0.45818 0.0
C81 C 0.95797 0.52833 0.47212 0.0
C82 C 0.96153 0.54567 0.48342 0.0
N83 N 0.999 0.53562 0.44162 0.0
H84 H 0.79656 0.81161 0.76426 0.0
H85 H 0.82146 0.77006 0.79647 0.0
H86 H 0.77238 0.79933 0.81416 0.0
H87 H 0.84883 0.77912 0.78247 0.0
C88 C 0.84335 0.78138 0.76894 0.0
C89 C 0.79649 0.80372 0.77618 0.0
C90 C 0.78264 0.80702 0.78884 0.0
C91 C 0.81083 0.79088 0.77903 0.0
C92 C 0.81098 0.78066 0.79451 0.0
C93 C 0.79706 0.78356 0.80723 0.0
C94 C 0.78303 0.79687 0.80433 0.0
N95 N 0.82464 0.78842 0.76586 0.0
H96 H 0.29535 0.31257 0.26302 0.0
H97 H 0.32132 0.27098 0.29445 0.0
H98 H 0.27361 0.30103 0.31411 0.0
H99 H 0.34784 0.27972 0.27952 0.0
C100 C 0.34186 0.28177 0.2661 0.0
C101 C 0.29578 0.30478 0.27499 0.0
C102 C 0.28276 0.3085 0.28833 0.0
C103 C 0.30996 0.29165 0.27723 0.0
C104 C 0.31071 0.28152 0.29275 0.0
C105 C 0.29771 0.28491 0.30619 0.0
C106 C 0.28387 0.29854 0.30393 0.0
N107 N 0.32313 0.28891 0.26354 0.0
H108 H 0.45439 0.98915 0.50665 0.0
H109 H 0.49597 0.96471 0.54157 0.0
H110 H 0.46554 0.01273 0.56175 0.0
H111 H 0.50917 0.95645 0.5156 0.0
C112 C 0.4964 0.95235 0.50625 0.0
C113 C 0.46197 0.98909 0.5198 0.0
C114 C 0.45808 0.00253 0.53394 0.0
C115 C 0.47597 0.97581 0.52226 0.0
C116 C 0.48588 0.97559 0.53925 0.0
C117 C 0.48231 0.98894 0.55357 0.0
C118 C 0.4684 0.00239 0.55079 0.0
N119 N 0.4793 0.96251 0.50752 0.0
H120 H 0.21491 0.29285 0.68805 0.0
H121 H 0.23151 0.34412 0.72416 0.0
H122 H 0.25996 0.33576 0.67508 0.0
H123 H 0.2191 0.32551 0.74464 0.0
C124 C 0.20689 0.31637 0.7375 0.0
C125 C 0.224 0.30647 0.69142 0.0
C126 C 0.23759 0.31308 0.67951 0.0
C127 C 0.22191 0.31733 0.70768 0.0
C128 C 0.23343 0.3352 0.71197 0.0
C129 C 0.24711 0.34202 0.70019 0.0
C130 C 0.24906 0.33087 0.684 0.0
N131 N 0.20762 0.31011 0.71903 0.0
H132 H 0.76411 0.19332 0.69619 0.0
H133 H 0.81745 0.22906 0.71385 0.0
H134 H 0.79855 0.18077 0.74326 0.0
H135 H 0.8011 0.25216 0.70099 0.0
C136 C 0.7937 0.24424 0.68897 0.0
C137 C 0.77691 0.1966 0.70561 0.0
C138 C 0.7798 0.18501 0.71992 0.0
C139 C 0.79 0.21288 0.70369 0.0
C140 C 0.80667 0.21714 0.7158 0.0
C141 C 0.80994 0.2056 0.73012 0.0
C142 C 0.7963 0.18965 0.73217 0.0
N143 N 0.78616 0.22445 0.68927 0.0
H144 H 0.53185 0.57135 0.5604 0.0
H145 H 0.57632 0.55105 0.52763 0.0
H146 H 0.56545 0.52511 0.57662 0.0
H147 H 0.57794 0.58148 0.51936 0.0
C148 C 0.56277 0.58499 0.51873 0.0
C149 C 0.54329 0.56174 0.55814 0.0
C150 C 0.54715 0.54783 0.57027 0.0
C151 C 0.55409 0.56339 0.54302 0.0
C152 C 0.56858 0.5506 0.53974 0.0
C153 C 0.5728 0.53673 0.55179 0.0
C154 C 0.56198 0.53543 0.56702 0.0
N155 N 0.54972 0.57774 0.53116 0.0
H156 H 0.54329 0.46732 0.94587 0.0
H157 H 0.5935 0.48895 0.98165 0.0
H158 H 0.57691 0.52107 0.93741 0.0
H159 H 0.59224 0.45891 0.98962 0.0
C160 C 0.57696 0.45296 0.98784 0.0
C161 C 0.5554 0.47835 0.94977 0.0
C162 C 0.55847 0.49451 0.93971 0.0
C163 C 0.56805 0.47598 0.96472 0.0
C164 C 0.58394 0.49011 0.9698 0.0
C165 C 0.58724 0.50633 0.95992 0.0
C166 C 0.57442 0.50847 0.94496 0.0
N167 N 0.56392 0.45955 0.97458 0.0
H168 H 0.71361 0.24529 0.31325 0.0
H169 H 0.73457 0.19753 0.28204 0.0
H170 H 0.7664 0.22097 0.33147 0.0
H171 H 0.71503 0.20577 0.26012 0.0
C172 C 0.70361 0.21383 0.26569 0.0
C173 C 0.72433 0.23476 0.31149 0.0
C174 C 0.74023 0.23475 0.3243 0.0
C175 C 0.72228 0.22171 0.29609 0.0
C176 C 0.7361 0.20802 0.29367 0.0
C177 C 0.75215 0.20778 0.30632 0.0
C178 C 0.75423 0.22131 0.32153 0.0
N179 N 0.70604 0.22285 0.28353 0.0
H180 H 0.5023 0.06538 0.96455 0.0
H181 H 0.46794 0.01059 0.94991 0.0
H182 H 0.45309 0.04797 0.99447 0.0
H183 H 0.49268 0.0029 0.9348 0.0
C184 C 0.50094 0.01613 0.93161 0.0
C185 C 0.49029 0.05485 0.96698 0.0
C186 C 0.47792 0.059 0.98076 0.0
C187 C 0.48719 0.03728 0.95603 0.0
C188 C 0.4712 0.02382 0.95871 0.0
C189 C 0.45875 0.02768 0.97248 0.0
C190 C 0.46232 0.04521 0.9835 0.0
N191 N 0.50006 0.03407 0.94214 0.0
C192 C 0.21809 0.90839 0.00751 0.0
O193 O 0.22057 0.90273 0.99072 0.0
O194 O 0.24632 0.86932 0.99233 0.0
Zn195 Zn 0.25254 0.88778 0.01466 0.0
O196 O 0.27636 0.90578 0.01113 0.0
C197 C 0.25398 0.85412 0.03503 0.0
O198 O 0.24446 0.84519 0.02045 0.0
O199 O 0.22984 0.90357 0.01987 0.0
C200 C 0.29252 0.89863 0.0085 0.0
O201 O 0.29323 0.87969 0.00851 0.0
C202 C 0.25098 0.87376 0.97693 0.0
O203 O 0.25938 0.89128 0.97522 0.0
O204 O 0.25878 0.87237 0.03568 0.0
C205 C 0.15663 0.4613 0.2638 0.0
O206 O 0.15692 0.47568 0.27643 0.0
O207 O 0.11495 0.48947 0.26811 0.0
Zn208 Zn 0.13079 0.4852 0.24654 0.0
O209 O 0.14966 0.50869 0.24423 0.0
C210 C 0.09454 0.47524 0.22399 0.0
O211 O 0.08727 0.47073 0.23908 0.0
O212 O 0.14615 0.46193 0.24926 0.0
C213 C 0.14321 0.52507 0.24195 0.0
O214 O 0.12416 0.52646 0.2415 0.0
C215 C 0.11998 0.50245 0.281 0.0
O216 O 0.13633 0.51382 0.28061 0.0
O217 O 0.11265 0.48118 0.22405 0.0
C218 C 0.82042 0.63757 0.99404 0.0
O219 O 0.80915 0.63379 0.97906 0.0
O220 O 0.79709 0.67996 0.97728 0.0
Zn221 Zn 0.79323 0.66591 -0.00033 0.0
O222 O 0.76958 0.646 0.99571 0.0
C223 C 0.78222 0.70084 0.01946 0.0
O224 O 0.77736 0.70601 0.0034 0.0
O225 O 0.81675 0.65138 0.00522 0.0
C226 C 0.75247 0.64987 -0.00037 0.0
O227 O 0.74981 0.66752 0.00632 0.0
C228 C 0.78274 0.6814 0.96595 0.0
O229 O 0.76513 0.6738 0.96898 0.0
O230 O 0.78954 0.68472 0.02094 0.0
C231 C 0.88168 0.05995 0.2679 0.0
O232 O 0.87481 0.04191 0.26967 0.0
O233 O 0.93234 0.03655 0.2777 0.0
Zn234 Zn 0.91444 0.04048 0.25612 0.0
O235 O 0.89574 0.01641 0.24947 0.0
C236 C 0.94535 0.03662 0.23225 0.0
O237 O 0.95083 0.02444 0.24376 0.0
O238 O 0.89867 0.06316 0.26221 0.0
C239 C 0.90047 0.99916 0.25061 0.0
O240 O 0.91859 0.99647 0.25604 0.0
C241 C 0.92544 0.02867 0.29099 0.0
O242 O 0.90652 0.02322 0.29049 0.0
O243 O 0.93023 0.0456 0.23493 0.0
C244 C 0.31172 0.13339 0.49617 0.0
O245 O 0.29612 0.12632 0.48576 0.0
O246 O 0.29594 0.18379 0.47715 0.0
Zn247 Zn 0.29068 0.16772 0.49786 0.0
O248 O 0.26549 0.15049 0.49184 0.0
C249 C 0.27853 0.20066 0.51876 0.0
O250 O 0.27237 0.20531 0.50283 0.0
O251 O 0.31287 0.15103 0.50279 0.0
C252 C 0.25669 0.14276 0.50428 0.0
O253 O 0.26415 0.1464 0.52094 0.0
C254 C 0.29582 0.17563 0.46132 0.0
O255 O 0.29287 0.15654 0.45875 0.0
O256 O 0.28725 0.18528 0.51996 0.0
C257 C 0.39302 0.56547 0.77628 0.0
O258 O 0.39658 0.55355 0.78863 0.0
O259 O 0.43318 0.53483 0.77634 0.0
Zn260 Zn 0.41445 0.53896 0.7553 0.0
O261 O 0.39481 0.51547 0.75018 0.0
C262 C 0.44266 0.53148 0.72958 0.0
O263 O 0.44651 0.51791 0.74025 0.0
O264 O 0.39958 0.56237 0.76092 0.0
C265 C 0.38333 0.51327 0.736 0.0
O266 O 0.38457 0.5265 0.72438 0.0
C267 C 0.42804 0.52308 0.78776 0.0
O268 O 0.41035 0.51377 0.78578 0.0
O269 O 0.42942 0.5426 0.73338 0.0
C270 C 0.7308 0.4186 0.51538 0.0
O271 O 0.74543 0.42596 0.50678 0.0
O272 O 0.74935 0.36836 0.49386 0.0
Zn273 Zn 0.75456 0.38622 0.51656 0.0
O274 O 0.77872 0.40421 0.51405 0.0
C275 C 0.75577 0.35209 0.53642 0.0
O276 O 0.74795 0.34305 0.52119 0.0
O277 O 0.7314 0.40166 0.52074 0.0
C278 C 0.79458 0.39702 0.51035 0.0
O279 O 0.79491 0.37797 0.50883 0.0
C280 C 0.75256 0.37432 0.47863 0.0
O281 O 0.75861 0.39275 0.47762 0.0
O282 O 0.75968 0.3705 0.53758 0.0
C283 C 0.65388 0.95712 0.76209 0.0
O284 O 0.65437 0.97158 0.77468 0.0
O285 O 0.61266 0.98537 0.76709 0.0
Zn286 Zn 0.62798 0.98111 0.74515 0.0
O287 O 0.64707 0.00443 0.74269 0.0
C288 C 0.59198 0.98171 0.7227 0.0
O289 O 0.58529 0.98839 0.73781 0.0
O290 O 0.64324 0.95773 0.74763 0.0
C291 C 0.64102 0.02106 0.74083 0.0
O292 O 0.62209 0.02297 0.74086 0.0
C293 C 0.61798 0.99837 0.7799 0.0
O294 O 0.63432 0.00969 0.7792 0.0
O295 O 0.60959 0.97717 0.72274 0.0
C296 C 0.01342 0.22372 0.89334 0.0
O297 O 0.99667 0.23168 0.89321 0.0
O298 O 0.9962 0.24324 0.85174 0.0
Zn299 Zn 0.02078 0.25129 0.86778 0.0
O300 O 0.01623 0.2749 0.8841 0.0
C301 C 0.04384 0.25202 0.83647 0.0
O302 O 0.02842 0.24143 0.82837 0.0
O303 O 0.0264 0.22966 0.88315 0.0
C304 C 0.02594 0.2914 0.88375 0.0
O305 O 0.03961 0.2934 0.87235 0.0
C306 C 0.98655 0.25614 0.84507 0.0
O307 O 0.993 0.27462 0.84863 0.0
O308 O 0.04382 0.25751 0.85307 0.0
C309 C 0.51419 0.72238 0.39298 0.0
O310 O 0.49804 0.7312 0.3941 0.0
O311 O 0.49721 0.74404 0.35093 0.0
Zn312 Zn 0.52165 0.75059 0.36767 0.0
O313 O 0.51811 0.77397 0.3845 0.0
C314 C 0.54542 0.75059 0.33707 0.0
O315 O 0.53065 0.7387 0.32944 0.0
O316 O 0.5267 0.72802 0.38222 0.0
C317 C 0.51493 0.79008 0.37835 0.0
O318 O 0.51406 0.79121 0.3609 0.0
C319 C 0.4803 0.74791 0.35544 0.0
O320 O 0.47849 0.75625 0.37156 0.0
O321 O 0.54485 0.75722 0.35334 0.0
C322 C 0.01465 0.79915 0.59727 0.0
O323 O 0.99708 0.78967 0.59458 0.0
O324 O 0.99851 0.77289 0.63684 0.0
Zn325 Zn 0.02061 0.769 0.62074 0.0
O326 O 0.01342 0.74635 0.60224 0.0
C327 C 0.04254 0.75573 0.65071 0.0
O328 O 0.02486 0.75229 0.65625 0.0
O329 O 0.02727 0.79311 0.60818 0.0
C330 C 0.00611 0.73002 0.60661 0.0
O331 O 0.00264 0.72816 0.62346 0.0
C332 C 0.98033 0.76898 0.63213 0.0
O333 O 0.97485 0.7625 0.61542 0.0
O334 O 0.04445 0.76306 0.63583 0.0
C335 C 0.51531 0.29767 0.09385 0.0
O336 O 0.49905 0.28642 0.08895 0.0
O337 O 0.4967 0.27327 0.13494 0.0
Zn338 Zn 0.51939 0.26945 0.11957 0.0
O339 O 0.51302 0.24656 0.10114 0.0
C340 C 0.54004 0.25483 0.14937 0.0
O341 O 0.52202 0.24929 0.15309 0.0
O342 O 0.5264 0.29344 0.10695 0.0
C343 C 0.50414 0.23066 0.10495 0.0
O344 O 0.49845 0.22926 0.12123 0.0
C345 C 0.47863 0.2706 0.12945 0.0
O346 O 0.47371 0.26553 0.11236 0.0
O347 O 0.5427 0.26398 0.13555 0.0
H348 H 0.27196 0.75424 0.84205 0.0
H349 H 0.27248 0.77715 0.86878 0.0
H350 H 0.21017 0.76317 0.87161 0.0
H351 H 0.20953 0.74009 0.84497 0.0
H352 H 0.22179 0.80333 0.87401 0.0
H353 H 0.26757 0.76531 0.92131 0.0
H354 H 0.27825 0.76906 0.90045 0.0
H355 H 0.25589 0.75335 0.90051 0.0
C356 C 0.25843 0.75579 0.84854 0.0
C357 C 0.2407 0.74533 0.84141 0.0
C358 C 0.25875 0.76889 0.86379 0.0
C359 C 0.2414 0.77168 0.87226 0.0
C360 C 0.22372 0.76119 0.86527 0.0
H361 H 0.23522 0.83592 0.9762 0.0
H362 H 0.23156 0.81117 0.95065 0.0
C363 C 0.22337 0.74808 0.85002 0.0
C364 C 0.24156 0.78614 0.88796 0.0
H365 H 0.26169 0.79787 0.93076 0.0
C366 C 0.23041 0.8021 0.88647 0.0
C367 C 0.25265 0.78434 0.90423 0.0
C368 C 0.26414 0.76701 0.90685 0.0
C369 C 0.23043 0.81661 0.9007 0.0
C370 C 0.24211 0.81519 0.91673 0.0
C371 C 0.25288 0.79898 0.91838 0.0
C372 C 0.24353 0.83045 0.93192 0.0
C373 C 0.21785 0.83324 0.89853 0.0
C374 C 0.2515 0.84947 0.92982 0.0
C375 C 0.2536 0.86365 0.94438 0.0
C376 C 0.24785 0.85903 0.96131 0.0
C377 C 0.23974 0.83998 0.96332 0.0
C378 C 0.23767 0.82581 0.94876 0.0
H379 H 0.20604 0.82957 0.88757 0.0
H380 H 0.21099 0.83726 0.91117 0.0
H381 H 0.22719 0.84618 0.89511 0.0
H382 H 0.25645 0.85324 0.917 0.0
H383 H 0.25999 0.87815 0.9424 0.0
H384 H 0.00221 0.48719 0.40645 0.0
H385 H 0.02297 0.4854 0.38099 0.0
H386 H 0.04711 0.54476 0.39555 0.0
H387 H 0.02635 0.54672 0.42094 0.0
H388 H 0.02404 0.51369 0.35206 0.0
H389 H 0.09533 0.50994 0.39135 0.0
H390 H 0.07194 0.503 0.40001 0.0
H391 H 0.07991 0.52828 0.39897 0.0
C392 C 0.01198 0.49983 0.40421 0.0
C393 C 0.01269 0.51706 0.41564 0.0
C394 C 0.02378 0.4988 0.3897 0.0
C395 C 0.03661 0.5149 0.38654 0.0
C396 C 0.03739 0.53214 0.39792 0.0
H397 H 0.12384 0.53131 0.30854 0.0
H398 H 0.10311 0.53494 0.33377 0.0
C399 C 0.02549 0.53324 0.41237 0.0
C400 C 0.04896 0.51375 0.37111 0.0
H401 H 0.09627 0.51108 0.36007 0.0
C402 C 0.03983 0.51311 0.35375 0.0
C403 C 0.06952 0.51315 0.37348 0.0
C404 C 0.07986 0.51351 0.39193 0.0
C405 C 0.05082 0.51202 0.33859 0.0
C406 C 0.07138 0.511 0.3409 0.0
C407 C 0.0805 0.51181 0.35833 0.0
C408 C 0.08371 0.50889 0.32544 0.0
C409 C 0.04032 0.51239 0.32029 0.0
C410 C 0.07981 0.49291 0.3125 0.0
C411 C 0.09152 0.49088 0.298 0.0
C412 C 0.10754 0.50464 0.29632 0.0
C413 C 0.1116 0.52047 0.30944 0.0
C414 C 0.09978 0.52257 0.32387 0.0
H415 H 0.02619 0.51905 0.32116 0.0
H416 H 0.04957 0.52063 0.3113 0.0
H417 H 0.03696 0.49722 0.3141 0.0
H418 H 0.06781 0.4819 0.3137 0.0
H419 H 0.08811 0.47842 0.28821 0.0
H420 H 0.76542 0.76574 0.82186 0.0
H421 H 0.76534 0.74821 0.84894 0.0
H422 H 0.82851 0.75859 0.85616 0.0
H423 H 0.82871 0.77654 0.82927 0.0
H424 H 0.78554 0.71462 0.85588 0.0
H425 H 0.80924 0.77833 0.90518 0.0
H426 H 0.79971 0.78099 0.88255 0.0
H427 H 0.82441 0.77477 0.8867 0.0
C428 C 0.77929 0.76447 0.82931 0.0
C429 C 0.79707 0.77263 0.8235 0.0
C430 C 0.77922 0.75435 0.8447 0.0
C431 C 0.79689 0.75232 0.85463 0.0
C432 C 0.8147 0.76025 0.8488 0.0
H433 H 0.81721 0.69825 0.95496 0.0
H434 H 0.82177 0.71473 0.92758 0.0
C435 C 0.81479 0.77033 0.83336 0.0
C436 C 0.79658 0.74165 0.87096 0.0
H437 H 0.80491 0.74754 0.91659 0.0
C438 C 0.78981 0.72178 0.86916 0.0
C439 C 0.80229 0.75104 0.88822 0.0
C440 C 0.8092 0.77249 0.89091 0.0
C441 C 0.78851 0.71103 0.8842 0.0
C442 C 0.79373 0.72054 0.90152 0.0
C443 C 0.8009 0.74031 0.90329 0.0
C444 C 0.79106 0.71041 0.91799 0.0
C445 C 0.7817 0.68957 0.8814 0.0
C446 C 0.77226 0.7028 0.92178 0.0
C447 C 0.7696 0.69338 0.93734 0.0
C448 C 0.7857 0.69151 0.94953 0.0
C449 C 0.80452 0.69939 0.94582 0.0
C450 C 0.80716 0.70881 0.9302 0.0
H451 H 0.78389 0.68344 0.86757 0.0
H452 H 0.78964 0.68121 0.89113 0.0
H453 H 0.76576 0.68746 0.88339 0.0
H454 H 0.75957 0.70428 0.91274 0.0
H455 H 0.75489 0.68761 0.93983 0.0
H456 H 0.03519 0.96963 0.41844 0.0
H457 H 0.0128 0.97475 0.39283 0.0
H458 H 0.02084 0.03683 0.40694 0.0
H459 H 0.04251 0.03181 0.43303 0.0
H460 H 0.98243 0.02391 0.39841 0.0
H461 H 0.02878 0.99525 0.34616 0.0
H462 H 0.02283 0.97828 0.36233 0.0
H463 H 0.03781 0.00064 0.36936 0.0
C464 C 0.03205 0.98437 0.41621 0.0
C465 C 0.04076 0.00033 0.42773 0.0
C466 C 0.01944 0.98728 0.40143 0.0
C467 C 0.01548 0.0062 0.39778 0.0
C468 C 0.02386 0.02212 0.40942 0.0
H469 H 0.96449 0.04108 0.29771 0.0
H470 H 0.98601 0.03592 0.32391 0.0
C471 C 0.03637 0.01923 0.42424 0.0
C472 C 0.00238 0.00946 0.38198 0.0
H473 H 0.99663 0.00207 0.33627 0.0
C474 C 0.98554 0.01918 0.38481 0.0
C475 C 0.00664 0.00352 0.36425 0.0
C476 C 0.02509 0.99401 0.36027 0.0
C477 C 0.97271 0.02295 0.3704 0.0
C478 C 0.97661 0.01641 0.35271 0.0
C479 C 0.99357 0.00689 0.34986 0.0
C480 C 0.96344 0.01956 0.33692 0.0
C481 C 0.95534 0.03425 0.37424 0.0
C482 C 0.94368 0.01187 0.33545 0.0
C483 C 0.93131 0.01491 0.32056 0.0
C484 C 0.93855 0.02549 0.30675 0.0
C485 C 0.95844 0.03291 0.30813 0.0
C486 C 0.97077 0.02996 0.32308 0.0
H487 H 0.95751 0.04277 0.38756 0.0
H488 H 0.95265 0.04441 0.3638 0.0
H489 H 0.942 0.0239 0.37431 0.0
H490 H 0.93784 0.0034 0.34576 0.0
H491 H 0.91611 0.00885 0.31983 0.0
H492 H 0.24003 0.32563 0.64604 0.0
H493 H 0.24575 0.30641 0.61827 0.0
H494 H 0.24742 0.25494 0.64707 0.0
H495 H 0.24138 0.27403 0.6748 0.0
H496 H 0.27708 0.28692 0.61087 0.0
H497 H 0.20991 0.2351 0.60449 0.0
H498 H 0.21261 0.25681 0.61987 0.0
H499 H 0.22368 0.23529 0.62572 0.0
C500 C 0.24151 0.31019 0.6464 0.0
C501 C 0.24018 0.30129 0.66255 0.0
C502 C 0.24473 0.29923 0.63055 0.0
C503 C 0.24671 0.27918 0.63054 0.0
C504 C 0.24541 0.27027 0.64665 0.0
H505 H 0.28358 0.19199 0.55362 0.0
H506 H 0.276 0.21152 0.58061 0.0
C507 C 0.24202 0.28119 0.66249 0.0
C508 C 0.25107 0.26784 0.61385 0.0
H509 H 0.23531 0.22751 0.58542 0.0
C510 C 0.26785 0.27403 0.60523 0.0
C511 C 0.239 0.25102 0.60649 0.0
C512 C 0.22019 0.24426 0.61451 0.0
C513 C 0.27308 0.26364 0.58966 0.0
C514 C 0.26121 0.24667 0.58256 0.0
C515 C 0.2444 0.2405 0.59105 0.0
C516 C 0.26605 0.23514 0.56625 0.0
C517 C 0.2914 0.2706 0.58101 0.0
C518 C 0.26289 0.24203 0.54932 0.0
C519 C 0.26709 0.23089 0.53387 0.0
C520 C 0.27461 0.21272 0.53514 0.0
C521 C 0.27789 0.20596 0.55219 0.0
C522 C 0.27353 0.21704 0.56761 0.0
H523 H 0.30035 0.28258 0.58945 0.0
H524 H 0.30059 0.25835 0.57843 0.0
H525 H 0.28719 0.276 0.56788 0.0
H526 H 0.25701 0.25595 0.54807 0.0
H527 H 0.26439 0.2365 0.52094 0.0
H528 H 0.53757 0.57764 0.59345 0.0
H529 H 0.51953 0.57515 0.62048 0.0
H530 H 0.51358 0.51247 0.61093 0.0
H531 H 0.53135 0.51482 0.58373 0.0
H532 H 0.47793 0.53025 0.61946 0.0
H533 H 0.54194 0.55486 0.66804 0.0
H534 H 0.53766 0.57029 0.65026 0.0
H535 H 0.54467 0.54617 0.64503 0.0
C536 C 0.53229 0.56333 0.59703 0.0
C537 C 0.53593 0.54641 0.5865 0.0
C538 C 0.52215 0.56194 0.61254 0.0
C539 C 0.51545 0.54363 0.61777 0.0
C540 C 0.51875 0.52673 0.60715 0.0
H541 H 0.47361 0.51201 0.719 0.0
H542 H 0.49095 0.51507 0.69168 0.0
C543 C 0.52898 0.5281 0.59169 0.0
C544 C 0.50492 0.54206 0.63429 0.0
H545 H 0.51087 0.55009 0.67997 0.0
C546 C 0.48509 0.53458 0.6327 0.0
C547 C 0.51442 0.54756 0.65151 0.0
C548 C 0.53589 0.55504 0.65394 0.0
C549 C 0.47441 0.53267 0.64793 0.0
C550 C 0.48381 0.53851 0.66513 0.0
C551 C 0.5037 0.54577 0.66673 0.0
C552 C 0.47332 0.53687 0.68167 0.0
C553 C 0.45324 0.52415 0.64556 0.0
C554 C 0.45783 0.54831 0.68515 0.0
C555 C 0.44793 0.54666 0.70077 0.0
C556 C 0.45335 0.53352 0.71318 0.0
C557 C 0.46901 0.52222 0.7097 0.0
C558 C 0.47896 0.52395 0.69412 0.0
H559 H 0.44944 0.5167 0.63191 0.0
H560 H 0.45017 0.51355 0.65563 0.0
H561 H 0.4435 0.53602 0.64761 0.0
H562 H 0.45345 0.55856 0.6758 0.0
H563 H 0.43596 0.55561 0.70307 0.0
H564 H 0.80215 0.28281 0.6862 0.0
H565 H 0.79559 0.30108 0.66009 0.0
H566 H 0.77078 0.24795 0.62961 0.0
H567 H 0.77693 0.22972 0.65572 0.0
H568 H 0.80913 0.29665 0.62628 0.0
H569 H 0.72769 0.28414 0.62261 0.0
H570 H 0.74297 0.27913 0.64193 0.0
H571 H 0.73985 0.26216 0.62222 0.0
C572 C 0.79522 0.27509 0.67393 0.0
C573 C 0.78989 0.25493 0.67301 0.0
C574 C 0.79151 0.28551 0.65905 0.0
C575 C 0.78239 0.27592 0.64303 0.0
C576 C 0.77739 0.2557 0.64199 0.0
H577 H 0.7496 0.31272 0.53827 0.0
H578 H 0.75677 0.29434 0.56408 0.0
C579 C 0.78101 0.24529 0.65689 0.0
C580 C 0.77846 0.28706 0.62733 0.0
H581 H 0.74173 0.29888 0.59832 0.0
C582 C 0.79439 0.29723 0.6202 0.0
C583 C 0.7592 0.28775 0.61945 0.0
C584 C 0.74142 0.27787 0.62702 0.0
C585 C 0.79162 0.30783 0.6052 0.0
C586 C 0.77238 0.30846 0.5973 0.0
C587 C 0.75646 0.2983 0.6044 0.0
C588 C 0.76842 0.31967 0.58167 0.0
C589 C 0.80933 0.31797 0.59771 0.0
C590 C 0.77243 0.34001 0.58311 0.0
C591 C 0.76836 0.35057 0.5684 0.0
C592 C 0.76009 0.34095 0.55202 0.0
C593 C 0.75598 0.32057 0.55068 0.0
C594 C 0.76006 0.31003 0.5654 0.0
H595 H 0.82321 0.3122 0.60248 0.0
H596 H 0.80799 0.31634 0.5828 0.0
H597 H 0.81037 0.33376 0.60215 0.0
H598 H 0.77854 0.34774 0.59567 0.0
H599 H 0.77162 0.36626 0.56991 0.0
H600 H 0.46787 0.99286 0.58686 0.0
H601 H 0.48587 0.99214 0.61611 0.0
H602 H 0.53885 0.98278 0.58979 0.0
H603 H 0.52124 0.98427 0.56062 0.0
H604 H 0.50536 0.96231 0.62917 0.0
H605 H 0.55716 0.0282 0.6266 0.0
H606 H 0.53552 0.02272 0.61132 0.0
H607 H 0.55742 0.01085 0.60746 0.0
C608 C 0.48343 0.99097 0.58732 0.0
C609 C 0.49314 0.98871 0.5714 0.0
C610 C 0.49365 0.99041 0.60403 0.0
C611 C 0.51375 0.98769 0.60512 0.0
C612 C 0.52344 0.98528 0.58927 0.0
H613 H 0.60271 0.97286 0.68867 0.0
H614 H 0.58286 0.97353 0.66042 0.0
C615 C 0.51328 0.9859 0.57259 0.0
C616 C 0.52453 0.9868 0.62279 0.0
H617 H 0.56445 0.00745 0.64956 0.0
C618 C 0.51818 0.97227 0.63372 0.0
C619 C 0.54124 -0.00016 0.62867 0.0
C620 C 0.54814 0.0164 0.61799 0.0
C621 C 0.52842 0.97011 0.65018 0.0
C622 C 0.54532 0.98292 0.65587 0.0
C623 C 0.55155 0.99757 0.64505 0.0
C624 C 0.55681 0.98142 0.67303 0.0
C625 C 0.52141 0.95388 0.66118 0.0
C626 C 0.54867 0.98561 0.68944 0.0
C627 C 0.55998 0.98531 0.70562 0.0
C628 C 0.57963 0.98082 0.70564 0.0
C629 C 0.58762 0.97632 0.68914 0.0
C630 C 0.57632 0.97673 0.67298 0.0
H631 H 0.51068 0.94292 0.65329 0.0
H632 H 0.53401 0.94639 0.66642 0.0
H633 H 0.51413 0.96011 0.67285 0.0
H634 H 0.53371 0.98953 0.68972 0.0
H635 H 0.5534 0.98888 0.71808 0.0
H636 H 0.82598 0.24145 0.7449 0.0
H637 H 0.85599 0.24902 0.7647 0.0
H638 H 0.86366 0.18772 0.76426 0.0
H639 H 0.83403 0.18004 0.74395 0.0
H640 H 0.86501 0.23705 0.7987 0.0
H641 H 0.91672 0.21119 0.74983 0.0
H642 H 0.89169 0.21527 0.74322 0.0
H643 H 0.89688 0.19347 0.75345 0.0
C644 C 0.83416 0.22958 0.74887 0.0
C645 C 0.82771 0.21015 0.74274 0.0
C646 C 0.85122 0.23393 0.76027 0.0
C647 C 0.86219 0.21895 0.7657 0.0
C648 C 0.85559 0.19951 0.75994 0.0
H649 H 0.97018 0.21928 0.8337 0.0
H650 H 0.93963 0.21003 0.81494 0.0
C651 C 0.83854 0.19514 0.74851 0.0
C652 C 0.88046 0.22374 0.77752 0.0
H653 H 0.93006 0.22068 0.77954 0.0
C654 C 0.87924 0.23351 0.79452 0.0
C655 C 0.89898 0.21908 0.77199 0.0
C656 C 0.90127 0.20933 0.75357 0.0
C657 C 0.89607 0.2386 0.80624 0.0
C658 C 0.91459 0.23402 0.80067 0.0
C659 C 0.9158 0.22412 0.78374 0.0
C660 C 0.93296 0.23969 0.81212 0.0
C661 C 0.89389 0.24859 0.82457 0.0
C662 C 0.9394 0.25943 0.81653 0.0
C663 C 0.95685 0.26478 0.82719 0.0
C664 C 0.96819 0.25046 0.83361 0.0
C665 C 0.96176 0.23067 0.82903 0.0
C666 C 0.94433 0.22535 0.81831 0.0
H667 H 0.87847 0.24676 0.82841 0.0
H668 H 0.90357 0.24282 0.83495 0.0
H669 H 0.89825 0.26443 0.82449 0.0
H670 H 0.931 0.27071 0.8116 0.0
H671 H 0.96142 0.28014 0.83042 0.0
H672 H 0.52709 0.93108 0.50067 0.0
H673 H 0.5292 0.90446 0.47742 0.0
H674 H 0.47044 0.91162 0.45615 0.0
H675 H 0.46813 0.93807 0.47951 0.0
H676 H 0.47657 0.87315 0.46049 0.0
H677 H 0.53604 0.90829 0.424 0.0
H678 H 0.54228 0.90821 0.44764 0.0
H679 H 0.52261 0.9218 0.43996 0.0
C680 C 0.51469 0.92703 0.49095 0.0
C681 C 0.49752 0.93666 0.49183 0.0
C682 C 0.51595 0.91193 0.47763 0.0
C683 C 0.5001 0.9063 0.46489 0.0
C684 C 0.48288 0.91585 0.46579 0.0
H685 H 0.50709 0.82643 0.36961 0.0
H686 H 0.50224 0.85474 0.39011 0.0
C687 C 0.4816 0.93096 0.47913 0.0
C688 C 0.50124 0.88993 0.45108 0.0
H689 H 0.52822 0.87405 0.41701 0.0
C690 C 0.48776 0.87339 0.45088 0.0
C691 C 0.51569 0.8904 0.43842 0.0
C692 C 0.52986 0.9082 0.43735 0.0
C693 C 0.4887 0.85703 0.43869 0.0
C694 C 0.50374 0.85715 0.4266 0.0
C695 C 0.51684 0.87392 0.42643 0.0
C696 C 0.50633 0.8399 0.41422 0.0
C697 C 0.47353 0.83983 0.43879 0.0
C698 C 0.51046 0.82226 0.42101 0.0
C699 C 0.51321 0.80607 0.40936 0.0
C700 C 0.51202 0.80726 0.39068 0.0
C701 C 0.50806 0.82501 0.38392 0.0
C702 C 0.50529 0.8412 0.3956 0.0
H703 H 0.46009 0.84408 0.44506 0.0
H704 H 0.46927 0.83311 0.42496 0.0
H705 H 0.47979 0.82866 0.4467 0.0
H706 H 0.51176 0.82108 0.43536 0.0
H707 H 0.51634 0.79264 0.41501 0.0
H708 H 0.17323 0.29349 0.72467 0.0
H709 H 0.14561 0.28268 0.74171 0.0
H710 H 0.17517 0.31263 0.79009 0.0
H711 H 0.20277 0.32376 0.77304 0.0
H712 H 0.14556 0.26016 0.77094 0.0
H713 H 0.12094 0.33314 0.7892 0.0
H714 H 0.13777 0.32899 0.77202 0.0
H715 H 0.14642 0.33111 0.79533 0.0
C716 C 0.17384 0.29783 0.73892 0.0
C717 C 0.19012 0.30954 0.74757 0.0
C718 C 0.15805 0.29162 0.74864 0.0
C719 C 0.15822 0.29709 0.7671 0.0
C720 C 0.17457 0.30859 0.77578 0.0
H721 H 0.07797 0.27374 0.84923 0.0
H722 H 0.10588 0.28394 0.83231 0.0
C723 C 0.19034 0.31483 0.76607 0.0
C724 C 0.14146 0.29041 0.77732 0.0
H725 H 0.10585 0.3066 0.80307 0.0
C726 C 0.13681 0.27029 0.7779 0.0
C727 C 0.13011 0.30369 0.7864 0.0
C728 C 0.1339 0.32543 0.78562 0.0
C729 C 0.1213 0.26308 0.7876 0.0
C730 C 0.10996 0.27635 0.79669 0.0
C731 C 0.11461 0.29647 0.7961 0.0
C732 C 0.09318 0.2697 0.80689 0.0
C733 C 0.11744 0.24133 0.78834 0.0
C734 C 0.07673 0.25844 0.79816 0.0
C735 C 0.06076 0.25253 0.80779 0.0
C736 C 0.06091 0.25791 0.82631 0.0
C737 C 0.0774 0.26928 0.83499 0.0
C738 C 0.09336 0.27516 0.82535 0.0
H739 H 0.13035 0.23358 0.78467 0.0
H740 H 0.11364 0.23777 0.80196 0.0
H741 H 0.10484 0.23573 0.77869 0.0
H742 H 0.07613 0.25442 0.78385 0.0
H743 H 0.04824 0.2439 0.80067 0.0
H744 H 0.58498 0.60139 0.49445 0.0
H745 H 0.57532 0.62384 0.47249 0.0
H746 H 0.51687 0.62092 0.49102 0.0
H747 H 0.52648 0.59861 0.51311 0.0
H748 H 0.54457 0.61784 0.44466 0.0
H749 H 0.53417 0.67989 0.49411 0.0
H750 H 0.54727 0.6595 0.50002 0.0
H751 H 0.52087 0.65708 0.4976 0.0
C752 C 0.57009 0.6056 0.49385 0.0
C753 C 0.55653 0.59839 0.50553 0.0
C754 C 0.56459 0.61836 0.4813 0.0
C755 C 0.54547 0.62421 0.4803 0.0
C756 C 0.5318 0.61683 0.49181 0.0
H757 H 0.48969 0.70592 0.41604 0.0
H758 H 0.49659 0.681 0.43632 0.0
C759 C 0.53729 0.60404 0.50436 0.0
C760 C 0.53989 0.63795 0.46712 0.0
H761 H 0.5257 0.68368 0.46362 0.0
C762 C 0.54044 0.63224 0.44877 0.0
C763 C 0.53448 0.65669 0.47257 0.0
C764 C 0.53428 0.66379 0.49214 0.0
C765 C 0.53556 0.64476 0.43566 0.0
C766 C 0.53038 0.6636 0.44112 0.0
C767 C 0.52967 0.66922 0.45948 0.0
C768 C 0.52593 0.67788 0.42806 0.0
C769 C 0.53569 0.63758 0.41611 0.0
C770 C 0.54017 0.68441 0.41671 0.0
C771 C 0.53625 0.6986 0.40504 0.0
C772 C 0.51808 0.70667 0.40466 0.0
C773 C 0.50383 0.70002 0.416 0.0
C774 C 0.50774 0.68578 0.4276 0.0
H775 H 0.53443 0.62139 0.41416 0.0
H776 H 0.52347 0.64294 0.40798 0.0
H777 H 0.54977 0.64308 0.41095 0.0
H778 H 0.55447 0.67883 0.41713 0.0
H779 H 0.54759 0.7035 0.39656 0.0
H780 H 0.88191 0.77516 0.77186 0.0
H781 H 0.90455 0.7733 0.74786 0.0
H782 H 0.85719 0.78097 0.70895 0.0
H783 H 0.83468 0.78336 0.73289 0.0
H784 H 0.90395 0.74789 0.71822 0.0
H785 H 0.89859 0.8228 0.69793 0.0
H786 H 0.88915 0.81492 0.71834 0.0
H787 H 0.87526 0.80859 0.69713 0.0
C788 C 0.87639 0.77651 0.75817 0.0
C789 C 0.85665 0.77961 0.75425 0.0
C790 C 0.8893 0.77543 0.7445 0.0
C791 C 0.88265 0.77739 0.72667 0.0
C792 C 0.86277 0.77997 0.72267 0.0
H793 H 0.94018 0.76547 0.62644 0.0
H794 H 0.91601 0.76734 0.64915 0.0
C795 C 0.8499 0.78121 0.73636 0.0
C796 C 0.89647 0.77642 0.71225 0.0
H797 H 0.91587 0.80181 0.67925 0.0
C798 C 0.90659 0.75971 0.70975 0.0
C799 C 0.89992 0.79188 0.70122 0.0
C800 C 0.89031 0.81064 0.70387 0.0
C801 C 0.91996 0.75799 0.69641 0.0
C802 C 0.92327 0.77337 0.68537 0.0
C803 C 0.91312 0.79002 0.68774 0.0
C804 C 0.93779 0.77265 0.67165 0.0
C805 C 0.93044 0.73974 0.69412 0.0
C806 C 0.95793 0.77528 0.67688 0.0
C807 C 0.97174 0.77438 0.664 0.0
C808 C 0.96562 0.77071 0.64565 0.0
C809 C 0.94537 0.76826 0.64046 0.0
C810 C 0.93155 0.76934 0.65338 0.0
H811 H 0.92413 0.72802 0.70193 0.0
H812 H 0.92968 0.73422 0.67972 0.0
H813 H 0.94619 0.74319 0.69873 0.0
H814 H 0.96296 0.77798 0.69095 0.0
H815 H 0.98722 0.7763 0.66846 0.0
H816 H 0.03519 0.93785 0.49256 0.0
H817 H 0.02474 0.91227 0.5116 0.0
H818 H 0.08462 0.91173 0.53326 0.0
H819 H 0.09516 0.93744 0.51433 0.0
H820 H 0.03822 0.87464 0.51202 0.0
H821 H 0.05328 0.91742 0.57826 0.0
H822 H 0.05155 0.92875 0.5574 0.0
H823 H 0.07356 0.91808 0.56419 0.0
C824 C 0.04612 0.93235 0.50142 0.0
C825 C 0.06601 0.93963 0.50203 0.0
C826 C 0.04013 0.91775 0.51229 0.0
C827 C 0.05387 0.91033 0.524 0.0
C828 C 0.07373 0.91753 0.52456 0.0
H829 H 0.05063 0.81985 0.59722 0.0
H830 H 0.05959 0.84691 0.57935 0.0
C831 C 0.07975 0.9321 0.51369 0.0
C832 C 0.04754 0.89458 0.53519 0.0
H833 H 0.04539 0.88331 0.57858 0.0
C834 C 0.03965 0.87654 0.52657 0.0
C835 C 0.04952 0.89714 0.55416 0.0
C836 C 0.05728 0.91643 0.5641 0.0
C837 C 0.03407 0.8608 0.53642 0.0
C838 C 0.03607 0.86334 0.55541 0.0
C839 C 0.04388 0.88142 0.56403 0.0
C840 C 0.03038 0.84731 0.56655 0.0
C841 C 0.02662 0.84145 0.52641 0.0
C842 C 0.0109 0.83884 0.56553 0.0
C843 C 0.00574 0.82331 0.57566 0.0
C844 C 0.01995 0.81611 0.58713 0.0
C845 C 0.03934 0.825 0.58848 0.0
C846 C 0.0445 0.84048 0.57829 0.0
H847 H 0.0308 0.84053 0.5123 0.0
H848 H 0.0324 0.82918 0.53313 0.0
H849 H 0.01033 0.83964 0.52611 0.0
H850 H -0.00031 0.8442 0.55686 0.0
H851 H 0.99064 0.81692 0.57442 0.0
H852 H 0.17171 0.72228 0.77233 0.0
H853 H 0.14376 0.72756 0.75193 0.0
H854 H 0.17916 0.71966 0.70677 0.0
H855 H 0.20712 0.71384 0.72717 0.0
H856 H 0.14131 0.75642 0.72997 0.0
H857 H 0.12986 0.68471 0.68981 0.0
H858 H 0.14522 0.68862 0.71052 0.0
H859 H 0.15441 0.69628 0.69002 0.0
C860 C 0.17351 0.7215 0.75805 0.0
C861 C 0.19159 0.71769 0.75128 0.0
C862 C 0.15752 0.72451 0.74641 0.0
C863 C 0.1593 0.72379 0.72782 0.0
C864 C 0.17731 0.71985 0.72103 0.0
H865 H 0.08064 0.75641 0.64145 0.0
H866 H 0.10937 0.74863 0.65984 0.0
C867 C 0.1933 0.71666 0.73267 0.0
C868 C 0.14256 0.72822 0.71575 0.0
H869 H 0.11156 0.70988 0.67956 0.0
C870 C 0.13478 0.74621 0.71899 0.0
C871 C 0.13407 0.71487 0.70142 0.0
C872 C 0.14118 0.69496 0.6978 0.0
C873 C 0.11878 0.75123 0.70825 0.0
C874 C 0.11038 0.73793 0.69395 0.0
C875 C 0.1182 0.72003 0.69054 0.0
C876 C 0.09305 0.74223 0.68273 0.0
C877 C 0.11093 0.77074 0.71218 0.0
C878 C 0.07445 0.74103 0.68957 0.0
C879 C 0.05803 0.74536 0.67912 0.0
C880 C 0.05997 0.75105 0.66167 0.0
C881 C 0.07867 0.75215 0.65485 0.0
C882 C 0.09508 0.74767 0.66529 0.0
H883 H 0.12077 0.78048 0.72212 0.0
H884 H 0.10902 0.77811 0.69964 0.0
H885 H 0.09628 0.76849 0.71761 0.0
H886 H 0.07267 0.73678 0.70301 0.0
H887 H 0.04384 0.74436 0.68477 0.0
H888 H 0.01211 0.57899 0.49479 0.0
H889 H 0.01713 0.60878 0.51516 0.0
H890 H 0.95437 0.61136 0.51469 0.0
H891 H 0.94924 0.5822 0.49366 0.0
H892 H 0.97357 0.64685 0.51201 0.0
H893 H 0.00829 0.61141 0.56821 0.0
H894 H 0.02068 0.60887 0.54788 0.0
H895 H 0.99602 0.59767 0.54852 0.0
C896 C 0.99938 0.58603 0.49883 0.0
C897 C 0.98025 0.57809 0.49271 0.0
C898 C 0.00227 0.60292 0.51067 0.0
C899 C 0.98611 0.61203 0.51675 0.0
C900 C 0.96705 0.60445 0.5103 0.0
H901 H 0.9871 0.69433 0.61055 0.0
H902 H 0.98156 0.66616 0.58826 0.0
C903 C 0.96414 0.58767 0.4984 0.0
C904 C 0.98894 0.62948 0.52985 0.0
H905 H 0.0084 0.64583 0.57204 0.0
C906 C 0.98116 0.64664 0.52515 0.0
C907 C 0.99857 0.62905 0.54709 0.0
C908 C 0.00621 0.61072 0.55333 0.0
C909 C 0.98288 0.66347 0.53717 0.0
C910 C 0.99308 0.66324 0.55418 0.0
C911 C 0.00072 0.64602 0.55893 0.0
C912 C 0.99585 0.6806 0.56738 0.0
C913 C 0.97336 0.68117 0.53168 0.0
C914 C 0.00578 0.69805 0.56305 0.0
C915 C 0.00881 0.71422 0.57569 0.0
C916 C 0.00222 0.71315 0.59301 0.0
C917 C 0.99235 0.69563 0.59733 0.0
C918 C 0.98919 0.67952 0.58462 0.0
H919 H 0.96156 0.67724 0.52076 0.0
H920 H 0.96698 0.68879 0.54323 0.0
H921 H 0.98462 0.69148 0.52661 0.0
H922 H 0.01147 0.69907 0.54997 0.0
H923 H 0.01662 0.72745 0.57199 0.0
H924 H 0.76706 0.86696 0.18416 0.0
H925 H 0.79201 0.89413 0.19324 0.0
H926 H 0.79727 0.87526 0.24665 0.0
H927 H 0.77228 0.84799 0.23765 0.0
H928 H 0.79601 0.91556 0.24608 0.0
H929 H 0.85088 0.88807 0.20141 0.0
H930 H 0.82749 0.89055 0.18993 0.0
H931 H 0.82927 0.87315 0.20641 0.0
C932 C 0.77358 0.86857 0.19782 0.0
C933 C 0.76787 0.85524 0.21015 0.0
C934 C 0.78784 0.88406 0.20297 0.0
C935 C 0.79676 0.88644 0.2205 0.0
C936 C 0.79063 0.87358 0.23303 0.0
H937 H 0.90492 0.96049 0.25323 0.0
H938 H 0.87974 0.93292 0.24697 0.0
C939 C 0.77631 0.85808 0.22789 0.0
C940 C 0.81256 0.90231 0.22569 0.0
H941 H 0.858 0.9204 0.2152 0.0
C942 C 0.80962 0.91659 0.23941 0.0
C943 C 0.83041 0.90341 0.21715 0.0
C944 C 0.83484 0.88788 0.20303 0.0
C945 C 0.82387 0.93228 0.2445 0.0
C946 C 0.84134 0.93384 0.2354 0.0
C947 C 0.8445 0.91927 0.22202 0.0
C948 C 0.85647 0.95057 0.23941 0.0
C949 C 0.82017 0.94693 0.25967 0.0
C950 C 0.85178 0.96958 0.23697 0.0
C951 C 0.8661 0.98534 0.24056 0.0
C952 C 0.88544 0.98237 0.24651 0.0
C953 C 0.89016 0.96328 0.2487 0.0
C954 C 0.8758 0.94751 0.24514 0.0
H955 H 0.80908 0.94082 0.26839 0.0
H956 H 0.83395 0.95186 0.26808 0.0
H957 H 0.81447 0.95985 0.25402 0.0
H958 H 0.83707 0.97221 0.23216 0.0
H959 H 0.86199 -0.00015 0.23864 0.0
H960 H 0.74471 0.16875 0.29692 0.0
H961 H 0.76854 0.145 0.29131 0.0
H962 H 0.81609 0.19039 0.30355 0.0
H963 H 0.79226 0.21419 0.30944 0.0
H964 H 0.79522 0.14472 0.26605 0.0
H965 H 0.83353 0.1484 0.33408 0.0
H966 H 0.81053 0.15874 0.32991 0.0
H967 H 0.83323 0.17152 0.32479 0.0
C968 C 0.76025 0.17364 0.29846 0.0
C969 C 0.76666 0.1933 0.30361 0.0
C970 C 0.77384 0.16007 0.2953 0.0
C971 C 0.79409 0.16587 0.29722 0.0
C972 C 0.80055 0.1855 0.3024 0.0
H973 H 0.89259 0.09924 0.26955 0.0
H974 H 0.87211 0.12588 0.27657 0.0
C975 C 0.78694 0.19908 0.3057 0.0
C976 C 0.80829 0.15145 0.29303 0.0
H977 H 0.84693 0.12942 0.31088 0.0
C978 C 0.80651 0.14139 0.27586 0.0
C979 C 0.82305 0.14715 0.30585 0.0
C980 C 0.82514 0.15688 0.32474 0.0
C981 C 0.81902 0.12708 0.2712 0.0
C982 C 0.83363 0.12273 0.28404 0.0
C983 C 0.83571 0.13295 0.30109 0.0
C984 C 0.84617 0.10681 0.2802 0.0
C985 C 0.81652 0.11657 0.25263 0.0
C986 C 0.8383 0.08739 0.28011 0.0
C987 C 0.84992 0.07219 0.27622 0.0
C988 C 0.8696 0.07617 0.27226 0.0
C989 C 0.87747 0.09571 0.27247 0.0
C990 C 0.86584 0.11092 0.27651 0.0
H991 H 0.80654 0.12364 0.24342 0.0
H992 H 0.831 0.11601 0.24682 0.0
H993 H 0.81026 0.10133 0.25348 0.0
H994 H 0.82314 0.084 0.28301 0.0
H995 H 0.84339 0.05733 0.27617 0.0
H996 H 0.42132 0.03536 0.97917 0.0
H997 H 0.39384 0.01218 0.98492 0.0
H998 H 0.43032 0.96479 0.9775 0.0
H999 H 0.45809 0.98796 0.9722 0.0
H1000 H 0.37603 0.97976 0.96225 0.0
H1001 H 0.40825 0.95775 0.02674 0.0
H1002 H 0.41774 0.97927 0.01683 0.0
H1003 H 0.42341 0.95559 0.00811 0.0
C1004 C 0.42355 0.02003 0.97893 0.0
C1005 C 0.44191 0.0135 0.97537 0.0
C1006 C 0.40782 0.0068 0.98211 0.0
C1007 C 0.41015 0.98684 0.98188 0.0
C1008 C 0.42833 0.98019 0.97802 0.0
H1009 H 0.32899 0.88788 0.00161 0.0
H1010 H 0.35762 0.90887 0.99452 0.0
C1011 C 0.4441 0.99342 0.97482 0.0
C1012 C 0.39343 0.97302 0.98551 0.0
H1013 H 0.37776 0.9412 0.01527 0.0
C1014 C 0.37638 0.97132 0.97383 0.0
C1015 C 0.39402 0.96202 0.00061 0.0
C1016 C 0.41175 0.96379 0.01391 0.0
C1017 C 0.35986 0.95881 0.97681 0.0
C1018 C 0.36033 0.94803 0.99206 0.0
C1019 C 0.37748 0.94952 0.00361 0.0
C1020 C 0.34302 0.9354 0.99644 0.0
C1021 C 0.34215 0.95707 0.96349 0.0
C1022 C 0.32547 0.94345 0.00016 0.0
C1023 C 0.30909 0.93153 0.00421 0.0
C1024 C 0.31003 0.91133 0.00472 0.0
C1025 C 0.32776 0.90337 0.00128 0.0
C1026 C 0.34414 0.91532 0.99724 0.0
H1027 H 0.346 0.96205 0.95033 0.0
H1028 H 0.33538 0.94178 0.96134 0.0
H1029 H 0.33101 0.96632 0.96878 0.0
H1030 H 0.32445 0.95899 -2e-05 0.0
H1031 H 0.29569 0.93814 0.00688 0.0
H1032 H 0.27362 0.33676 0.31327 0.0
H1033 H 0.25076 0.36164 0.30918 0.0
H1034 H 0.23697 0.33856 0.25415 0.0
H1035 H 0.25949 0.31339 0.25823 0.0
H1036 H 0.25335 0.38976 0.28325 0.0
H1037 H 0.18249 0.34294 0.27442 0.0
H1038 H 0.20476 0.33482 0.28435 0.0
H1039 H 0.20128 0.33536 0.26044 0.0
C1040 C 0.26547 0.33679 0.30039 0.0
C1041 C 0.26832 0.32309 0.28608 0.0
C1042 C 0.25252 0.35106 0.29805 0.0
C1043 C 0.24204 0.35178 0.28143 0.0
C1044 C 0.2447 0.33806 0.26716 0.0
H1045 H 0.16144 0.43037 0.23968 0.0
H1046 H 0.18231 0.40385 0.24391 0.0
C1047 C 0.25771 0.32382 0.26946 0.0
C1048 C 0.22908 0.3675 0.27878 0.0
H1049 H 0.18138 0.37617 0.26904 0.0
C1050 C 0.2376 0.38683 0.28022 0.0
C1051 C 0.20858 0.36355 0.27471 0.0
C1052 C 0.19864 0.34307 0.27352 0.0
C1053 C 0.22619 0.40236 0.27747 0.0
C1054 C 0.20565 0.39845 0.27357 0.0
C1055 C 0.19713 0.3791 0.27205 0.0
C1056 C 0.19274 0.4143 0.27116 0.0
C1057 C 0.23631 0.42276 0.27839 0.0
C1058 C 0.19144 0.42875 0.2852 0.0
C1059 C 0.17962 0.44394 0.28281 0.0
C1060 C 0.16872 0.44487 0.26639 0.0
C1061 C 0.1697 0.43012 0.25248 0.0
C1062 C 0.18159 0.41495 0.25487 0.0
H1063 H 0.25228 0.42267 0.27656 0.0
H1064 H 0.22965 0.43126 0.26801 0.0
H1065 H 0.2347 0.43035 0.29177 0.0
H1066 H 0.19958 0.42828 0.29802 0.0
H1067 H 0.17908 0.45497 0.29386 0.0
H1068 H 0.11006 0.02314 0.43906 0.0
H1069 H 0.13914 0.04632 0.44656 0.0
H1070 H 0.12898 0.04649 0.50275 0.0
H1071 H 0.09968 0.02358 0.49539 0.0
H1072 H 0.14068 0.08437 0.46603 0.0
H1073 H 0.18712 0.03414 0.49987 0.0
H1074 H 0.16562 0.02552 0.48517 0.0
H1075 H 0.16295 0.03544 0.50768 0.0
C1076 C 0.11393 0.0282 0.45301 0.0
C1077 C 0.10258 0.02147 0.46664 0.0
C1078 C 0.13059 0.04135 0.45726 0.0
C1079 C 0.13629 0.04789 0.4752 0.0
C1080 C 0.12499 0.04131 0.48884 0.0
H1081 H 0.2332 0.12556 0.52777 0.0
H1082 H 0.2035 0.10318 0.52061 0.0
C1083 C 0.10829 0.0282 0.48461 0.0
C1084 C 0.15383 0.06195 0.47962 0.0
H1085 H 0.19971 0.06725 0.50117 0.0
C1086 C 0.15363 0.08065 0.47366 0.0
C1087 C 0.17061 0.057 0.48963 0.0
C1088 C 0.17177 0.03689 0.49587 0.0
C1089 C 0.16972 0.09471 0.4777 0.0
C1090 C 0.18658 0.08974 0.48761 0.0
C1091 C 0.18675 0.07102 0.49359 0.0
C1092 C 0.2043 0.10368 0.49184 0.0
C1093 C 0.16834 0.11488 0.47165 0.0
C1094 C 0.21467 0.11124 0.47801 0.0
C1095 C 0.23159 0.12409 0.48205 0.0
C1096 C 0.23856 0.12946 0.49999 0.0
C1097 C 0.22821 0.12175 0.51381 0.0
C1098 C 0.21125 0.10895 0.50975 0.0
H1099 H 0.15282 0.11788 0.46875 0.0
H1100 H 0.17543 0.12622 0.48197 0.0
H1101 H 0.17601 0.11612 0.45914 0.0
H1102 H 0.20981 0.10701 0.46409 0.0
H1103 H 0.23931 0.12965 0.47109 0.0
H1104 H 0.7644 0.15622 0.69451 0.0
H1105 H 0.74055 0.12859 0.69833 0.0
H1106 H 0.73868 0.14863 0.75421 0.0
H1107 H 0.7629 0.176 0.75054 0.0
H1108 H 0.74112 0.11031 0.75018 0.0
H1109 H 0.68232 0.12924 0.70214 0.0
H1110 H 0.70508 0.12671 0.69199 0.0
H1111 H 0.70365 0.14588 0.7095 0.0
C1112 C 0.75879 0.15476 0.70757 0.0
C1113 C 0.76542 0.16825 0.72222 0.0
C1114 C 0.7451 0.13904 0.70972 0.0
C1115 C 0.73752 0.13676 0.72647 0.0
C1116 C 0.74427 0.15015 0.74115 0.0
H1117 H 0.63413 0.05949 0.74289 0.0
H1118 H 0.65769 0.08764 0.74014 0.0
C1119 C 0.75813 0.16573 0.73905 0.0
C1120 C 0.72293 0.12016 0.72884 0.0
H1121 H 0.67818 0.09759 0.71263 0.0
C1122 C 0.7273 0.10759 0.74204 0.0
C1123 C 0.70476 0.1168 0.7184 0.0
C1124 C 0.69856 0.13049 0.70485 0.0
C1125 C 0.71417 0.09157 0.74491 0.0
C1126 C 0.69642 0.08769 0.73391 0.0
C1127 C 0.69189 0.10045 0.72091 0.0
C1128 C 0.68226 0.07057 0.73573 0.0
C1129 C 0.71931 0.07922 0.75994 0.0
C1130 C 0.68818 0.05162 0.73396 0.0
C1131 C 0.67481 0.03553 0.73573 0.0
C1132 C 0.65516 0.03808 0.73898 0.0
C1133 C 0.64917 0.05705 0.7404 0.0
C1134 C 0.66261 0.07314 0.73882 0.0
H1135 H 0.72998 0.08739 0.77028 0.0
H1136 H 0.70601 0.07403 0.76654 0.0
H1137 H 0.72622 0.06631 0.7544 0.0
H1138 H 0.70312 0.04923 0.73106 0.0
H1139 H 0.67984 0.02109 0.73437 0.0
H1140 H 0.42195 0.9958 0.51557 0.0
H1141 H 0.39804 0.01931 0.51007 0.0
H1142 H 0.43647 0.06459 0.54079 0.0
H1143 H 0.46079 0.04132 0.54584 0.0
H1144 H 0.37897 0.04175 0.53499 0.0
H1145 H 0.42436 0.08859 0.49357 0.0
H1146 H 0.43043 0.0646 0.49847 0.0
H1147 H 0.43582 0.08492 0.51513 0.0
C1148 C 0.42542 0.01081 0.52098 0.0
C1149 C 0.44333 0.01671 0.53104 0.0
C1150 C 0.41169 0.02419 0.51793 0.0
C1151 C 0.41562 0.04374 0.5248 0.0
C1152 C 0.43332 0.04965 0.53509 0.0
H1153 H 0.34626 0.14327 0.51684 0.0
H1154 H 0.3716 0.12183 0.5246 0.0
C1155 C 0.44709 0.03627 0.53814 0.0
C1156 C 0.40099 0.05781 0.52137 0.0
H1157 H 0.39375 0.09928 0.50095 0.0
C1158 C 0.38219 0.05433 0.52755 0.0
C1159 C 0.40528 0.07423 0.5117 0.0
C1160 C 0.425 0.07829 0.50418 0.0
C1161 C 0.36754 0.06685 0.52435 0.0
C1162 C 0.37174 0.08311 0.51447 0.0
C1163 C 0.39062 0.08679 0.50853 0.0
C1164 C 0.35652 0.09611 0.50968 0.0
C1165 C 0.34774 0.06269 0.53169 0.0
C1166 C 0.33986 0.08878 0.49848 0.0
C1167 C 0.3254 0.10095 0.49399 0.0
C1168 C 0.32737 0.12072 0.50058 0.0
C1169 C 0.34426 0.1281 0.51159 0.0
C1170 C 0.35875 0.11589 0.51603 0.0
H1171 H 0.3485 0.05292 0.54273 0.0
H1172 H 0.34185 0.0764 0.53676 0.0
H1173 H 0.33723 0.05536 0.5208 0.0
H1174 H 0.33806 0.07363 0.49316 0.0
H1175 H 0.31264 0.09481 0.48542 0.0
H1176 H 0.60889 0.54651 0.53969 0.0
H1177 H 0.63479 0.52524 0.53366 0.0
H1178 H 0.59922 0.47679 0.55131 0.0
H1179 H 0.57284 0.49779 0.55668 0.0
H1180 H 0.65538 0.50453 0.55699 0.0
H1181 H 0.61439 0.45457 0.5027 0.0
H1182 H 0.60589 0.47752 0.51059 0.0
H1183 H 0.60234 0.45665 0.52326 0.0
C1184 C 0.60643 0.53126 0.54204 0.0
C1185 C 0.5887 0.52381 0.54851 0.0
C1186 C 0.62132 0.51916 0.53871 0.0
C1187 C 0.61881 0.49937 0.54177 0.0
C1188 C 0.6013 0.49193 0.54851 0.0
H1189 H 0.69712 0.40697 0.53097 0.0
H1190 H 0.66988 0.4264 0.53784 0.0
C1191 C 0.58634 0.50401 0.55178 0.0
C1192 C 0.63476 0.48673 0.53821 0.0
H1193 H 0.64581 0.44626 0.51295 0.0
C1194 C 0.6533 0.49181 0.54735 0.0
C1195 C 0.63198 0.47013 0.52563 0.0
C1196 C 0.61264 0.46444 0.51484 0.0
C1197 C 0.66913 0.48068 0.54429 0.0
C1198 C 0.66637 0.46418 0.53164 0.0
C1199 C 0.64781 0.45894 0.52266 0.0
C1200 C 0.68274 0.45242 0.52729 0.0
C1201 C 0.68864 0.48654 0.55474 0.0
C1202 C 0.6988 0.46058 0.51885 0.0
C1203 C 0.71434 0.44953 0.51484 0.0
C1204 C 0.71408 0.43011 0.51922 0.0
C1205 C 0.69781 0.42191 0.52748 0.0
C1206 C 0.68223 0.43296 0.53141 0.0
H1207 H 0.68713 0.4967 0.56675 0.0
H1208 H 0.6954 0.47352 0.55914 0.0
H1209 H 0.69881 0.494 0.546 0.0
H1210 H 0.69929 0.4755 0.51533 0.0
H1211 H 0.7266 0.45627 0.50843 0.0
H1212 H 0.71133 0.24462 0.34582 0.0
H1213 H 0.71406 0.26886 0.37172 0.0
H1214 H 0.776 0.28091 0.36536 0.0
H1215 H 0.77339 0.25663 0.33939 0.0
H1216 H 0.76752 0.27697 0.40072 0.0
H1217 H 0.7202 0.32798 0.36951 0.0
H1218 H 0.70866 0.30358 0.36906 0.0
H1219 H 0.72994 0.30827 0.35666 0.0
C1220 C 0.72551 0.25253 0.34986 0.0
C1221 C 0.74212 0.24885 0.34048 0.0
C1222 C 0.72703 0.26639 0.36463 0.0
C1223 C 0.74514 0.27694 0.37022 0.0
C1224 C 0.76186 0.27299 0.36118 0.0
H1225 H 0.76113 0.38157 0.44451 0.0
H1226 H 0.7599 0.35802 0.41816 0.0
C1227 C 0.76037 0.25907 0.34641 0.0
C1228 C 0.74663 0.29194 0.38564 0.0
H1229 H 0.7285 0.33418 0.40094 0.0
C1230 C 0.75908 0.28954 0.40076 0.0
C1231 C 0.7358 0.30846 0.38551 0.0
C1232 C 0.72304 0.31238 0.36925 0.0
C1233 C 0.76063 0.30298 0.41597 0.0
C1234 C 0.74916 0.31905 0.41614 0.0
C1235 C 0.73709 0.32171 0.40084 0.0
C1236 C 0.74952 0.33329 0.43204 0.0
C1237 C 0.77471 0.29999 0.43164 0.0
C1238 C 0.7437 0.32723 0.44847 0.0
C1239 C 0.74441 0.34062 0.46355 0.0
C1240 C 0.75081 0.36036 0.46244 0.0
C1241 C 0.75616 0.36647 0.44583 0.0
C1242 C 0.75548 0.35305 0.43076 0.0
H1243 H 0.78607 0.29032 0.42757 0.0
H1244 H 0.78217 0.31411 0.43777 0.0
H1245 H 0.7664 0.29303 0.44203 0.0
H1246 H 0.73861 0.31213 0.44963 0.0
H1247 H 0.74007 0.33546 0.4761 0.0
H1248 H 0.50283 0.98504 0.90761 0.0
H1249 H 0.5231 0.98279 0.88182 0.0
H1250 H 0.54744 0.04226 0.89531 0.0
H1251 H 0.52716 0.0447 0.92102 0.0
H1252 H 0.52361 0.0109 0.85248 0.0
H1253 H 0.59546 0.00696 0.8908 0.0
H1254 H 0.57224 0.00013 0.89982 0.0
H1255 H 0.58019 0.02538 0.89857 0.0
C1256 C 0.51254 0.99761 0.90507 0.0
C1257 C 0.51344 0.01501 0.91628 0.0
C1258 C 0.52405 0.99631 0.89037 0.0
C1259 C 0.5368 0.01231 0.88681 0.0
C1260 C 0.53778 0.02972 0.89798 0.0
H1261 H 0.62252 0.02735 0.80734 0.0
H1262 H 0.60233 0.03129 0.8329 0.0
C1263 C 0.52615 0.03108 0.91261 0.0
C1264 C 0.54882 0.01089 0.87118 0.0
H1265 H 0.59581 0.00767 0.85944 0.0
C1266 C 0.5394 0.01018 0.85393 0.0
C1267 C 0.56938 0.01011 0.87325 0.0
C1268 C 0.58002 0.01057 0.89157 0.0
C1269 C 0.55008 0.00885 0.83859 0.0
C1270 C 0.57064 0.00766 0.84061 0.0
C1271 C 0.58005 0.00853 0.85792 0.0
C1272 C 0.58265 0.00533 0.82495 0.0
C1273 C 0.53928 0.00916 0.82041 0.0
C1274 C 0.57843 0.9893 0.81211 0.0
C1275 C 0.58984 0.98709 0.79742 0.0
C1276 C 0.60588 0.00072 0.79543 0.0
C1277 C 0.61026 0.0166 0.80847 0.0
C1278 C 0.59874 0.01888 0.82308 0.0
H1279 H 0.52523 0.01595 0.82146 0.0
H1280 H 0.54841 0.01726 0.81124 0.0
H1281 H 0.53572 0.99397 0.81434 0.0
H1282 H 0.5664 0.97839 0.81353 0.0
H1283 H 0.58618 0.9746 0.7877 0.0
H1284 H 0.29613 0.29952 0.34107 0.0
H1285 H 0.29752 0.28172 0.36801 0.0
H1286 H 0.30235 0.22833 0.33523 0.0
H1287 H 0.30104 0.24601 0.30827 0.0
H1288 H 0.27246 0.25119 0.37672 0.0
H1289 H 0.34796 0.22867 0.37287 0.0
H1290 H 0.33881 0.24714 0.35972 0.0
H1291 H 0.33242 0.22172 0.35273 0.0
C1292 C 0.29745 0.28398 0.33961 0.0
C1293 C 0.29858 0.27418 0.32256 0.0
C1294 C 0.29834 0.27386 0.35501 0.0
C1295 C 0.3004 0.25378 0.35364 0.0
C1296 C 0.30129 0.24391 0.33663 0.0
H1297 H 0.29735 0.16277 0.426 0.0
H1298 H 0.29895 0.1824 0.40031 0.0
C1299 C 0.30049 0.25403 0.32124 0.0
C1300 C 0.30087 0.243 0.36995 0.0
H1301 H 0.32818 0.21351 0.3938 0.0
C1302 C 0.28471 0.24309 0.38055 0.0
C1303 C 0.31689 0.23245 0.37491 0.0
C1304 C 0.33509 0.2326 0.36457 0.0
C1305 C 0.28389 0.23249 0.39572 0.0
C1306 C 0.29977 0.22173 0.40051 0.0
C1307 C 0.31602 0.22176 0.39003 0.0
C1308 C 0.29959 0.21005 0.4162 0.0
C1309 C 0.26582 0.23246 0.40624 0.0
C1310 C 0.29981 0.21916 0.43365 0.0
C1311 C 0.29893 0.208 0.44836 0.0
C1312 C 0.29784 0.18752 0.44587 0.0
C1313 C 0.29809 0.17849 0.42839 0.0
C1314 C 0.29903 0.18967 0.41369 0.0
H1315 H 0.2533 0.23803 0.39869 0.0
H1316 H 0.2612 0.21752 0.40977 0.0
H1317 H 0.26926 0.24195 0.41893 0.0
H1318 H 0.30054 0.2349 0.43586 0.0
H1319 H 0.29884 0.21542 0.46166 0.0
H1320 H 0.51833 0.4872 0.93572 0.0
H1321 H 0.49647 0.49111 0.90939 0.0
H1322 H 0.54631 0.51199 0.88161 0.0
H1323 H 0.56835 0.50721 0.90749 0.0
H1324 H 0.49019 0.52418 0.89345 0.0
H1325 H 0.5189 0.47081 0.84484 0.0
H1326 H 0.52512 0.4718 0.86869 0.0
H1327 H 0.53757 0.48878 0.85529 0.0
C1328 C 0.52469 0.49228 0.92389 0.0
C1329 C 0.54512 0.49681 0.92371 0.0
C1330 C 0.51216 0.49466 0.90891 0.0
C1331 C 0.51979 0.50156 0.89344 0.0
C1332 C 0.54014 0.50624 0.89325 0.0
H1333 H 0.46701 0.53626 0.79385 0.0
H1334 H 0.48928 0.53125 0.81969 0.0
C1335 C 0.55269 0.50377 0.90818 0.0
C1336 C 0.5064 0.5045 0.87774 0.0
H1337 H 0.4968 0.492 0.83277 0.0
C1338 C 0.49156 0.51705 0.88021 0.0
C1339 C 0.50822 0.49517 0.86047 0.0
C1340 C 0.52318 0.48074 0.85716 0.0
C1341 C 0.47868 0.52075 0.86581 0.0
C1342 C 0.48066 0.51159 0.84856 0.0
C1343 C 0.49546 0.49906 0.84604 0.0
C1344 C 0.46723 0.5146 0.833 0.0
C1345 C 0.46318 0.53461 0.86903 0.0
C1346 C 0.44757 0.50671 0.83195 0.0
C1347 C 0.43487 0.50942 0.8172 0.0
C1348 C 0.4416 0.52016 0.80329 0.0
C1349 C 0.46136 0.528 0.80438 0.0
C1350 C 0.4741 0.52513 0.81909 0.0
H1351 H 0.46579 0.5431 0.88235 0.0
H1352 H 0.46272 0.54492 0.85842 0.0
H1353 H 0.44855 0.52618 0.86847 0.0
H1354 H 0.4421 0.49837 0.84251 0.0
H1355 H 0.41975 0.50318 0.81677 0.0
H1356 H 0.77735 0.79951 0.17 0.0
H1357 H 0.78223 0.7817 0.14137 0.0
H1358 H 0.71981 0.77731 0.12724 0.0
H1359 H 0.71478 0.79527 0.15593 0.0
H1360 H 0.73681 0.74232 0.12041 0.0
H1361 H 0.77877 0.80348 0.09211 0.0
H1362 H 0.78872 0.79853 0.11385 0.0
H1363 H 0.76465 0.80697 0.11145 0.0
C1364 C 0.76466 0.79492 0.16073 0.0
C1365 C 0.74569 0.79898 0.16513 0.0
C1366 C 0.76749 0.78477 0.14438 0.0
C1367 C 0.75143 0.77856 0.13205 0.0
C1368 C 0.7324 0.78212 0.13654 0.0
H1369 H 0.76435 0.73479 0.02117 0.0
H1370 H 0.75565 0.75369 0.04808 0.0
C1371 C 0.72955 0.79229 0.15295 0.0
C1372 C 0.75458 0.76802 0.11463 0.0
H1373 H 0.77964 0.77183 0.07696 0.0
C1374 C 0.74604 0.7488 0.11082 0.0
C1375 C 0.76638 0.77664 0.10205 0.0
C1376 C 0.77501 0.79761 0.10495 0.0
C1377 C 0.74955 0.73771 0.09502 0.0
C1378 C 0.76219 0.74599 0.08289 0.0
C1379 C 0.77016 0.76544 0.0864 0.0
C1380 C 0.76759 0.73461 0.06664 0.0
C1381 C 0.73964 0.71725 0.09142 0.0
C1382 C 0.77755 0.71788 0.0682 0.0
C1383 C 0.78254 0.70705 0.05289 0.0
C1384 C 0.77779 0.71286 0.0357 0.0
C1385 C 0.7682 0.7299 0.0342 0.0
C1386 C 0.76319 0.7407 0.04955 0.0
H1387 H 0.72641 0.71513 0.09915 0.0
H1388 H 0.7352 0.71377 0.07692 0.0
H1389 H 0.75006 0.70675 0.09556 0.0
H1390 H 0.7815 0.71319 0.0813 0.0
H1391 H 0.79003 0.69407 0.05453 0.0
H1392 H 0.03902 0.07956 0.09384 0.0
H1393 H 0.02182 0.07839 0.12142 0.0
H1394 H 0.01201 0.01577 0.11218 0.0
H1395 H 0.02871 0.01685 0.08433 0.0
H1396 H 0.97851 0.03397 0.1218 0.0
H1397 H 0.04375 0.0591 0.16863 0.0
H1398 H 0.03904 0.07476 0.15116 0.0
H1399 H 0.04576 0.0506 0.14545 0.0
C1400 C 0.03307 0.06556 0.0976 0.0
C1401 C 0.0353 0.04829 0.08694 0.0
C1402 C 0.02343 0.0649 0.11346 0.0
C1403 C 0.01592 0.04697 0.11896 0.0
C1404 C 0.01784 0.02974 0.10822 0.0
H1405 H 0.97789 0.01931 0.22246 0.0
H1406 H 0.99475 0.02232 0.1949 0.0
C1407 C 0.02749 0.03038 0.09239 0.0
C1408 C 0.00584 0.04614 0.13582 0.0
H1409 H 0.01294 0.05571 0.18132 0.0
C1410 C 0.98601 0.03872 0.13482 0.0
C1411 C 0.01577 0.05216 0.15278 0.0
C1412 C 0.0373 0.05945 0.15468 0.0
C1413 C 0.97576 0.03731 0.15036 0.0
C1414 C 0.98556 0.04373 0.16729 0.0
C1415 C 0.00544 0.05098 0.1683 0.0
C1416 C 0.97558 0.04247 0.18416 0.0
C1417 C 0.95465 0.02857 0.14856 0.0
C1418 C 0.95942 0.05309 0.18737 0.0
C1419 C 0.94973 0.05141 0.20311 0.0
C1420 C 0.95609 0.03913 0.21595 0.0
C1421 C 0.97257 0.02885 0.21284 0.0
C1422 C 0.98224 0.03056 0.19711 0.0
H1423 H 0.95079 0.02027 0.13528 0.0
H1424 H 0.95178 0.01869 0.15925 0.0
H1425 H 0.94481 0.04044 0.14995 0.0
H1426 H 0.95428 0.06264 0.17768 0.0
H1427 H 0.93716 0.05961 0.20513 0.0
H1428 H 0.30826 0.78459 0.18275 0.0
H1429 H 0.30094 0.80282 0.15678 0.0
H1430 H 0.27305 0.75013 0.12763 0.0
H1431 H 0.27996 0.73194 0.15362 0.0
H1432 H 0.31204 0.79769 0.122 0.0
H1433 H 0.23078 0.78771 0.12318 0.0
H1434 H 0.24712 0.7824 0.14166 0.0
H1435 H 0.24225 0.76531 0.12212 0.0
C1436 C 0.30053 0.77694 0.17079 0.0
C1437 C 0.29451 0.75694 0.17024 0.0
C1438 C 0.29638 0.78734 0.15599 0.0
C1439 C 0.28614 0.77789 0.14041 0.0
C1440 C 0.28054 0.75779 0.13968 0.0
H1441 H 0.2468 0.81495 0.0375 0.0
H1442 H 0.25543 0.79658 0.06294 0.0
C1443 C 0.2846 0.7474 0.15451 0.0
C1444 C 0.28148 0.78906 0.12488 0.0
H1445 H 0.24339 0.80191 0.09802 0.0
C1446 C 0.29703 0.79869 0.11679 0.0
C1447 C 0.26188 0.79033 0.11815 0.0
C1448 C 0.24453 0.78105 0.12681 0.0
C1449 C 0.29353 0.80931 0.1019 0.0
C1450 C 0.27394 0.81051 0.09514 0.0
C1451 C 0.2584 0.80089 0.10323 0.0
C1452 C 0.2692 0.82171 0.07967 0.0
C1453 C 0.31082 0.81882 0.09332 0.0
C1454 C 0.27393 0.84196 0.08074 0.0
C1455 C 0.26904 0.85252 0.06623 0.0
C1456 C 0.25919 0.843 0.05043 0.0
C1457 C 0.25438 0.82272 0.04946 0.0
C1458 C 0.25929 0.81219 0.06398 0.0
H1459 H 0.32472 0.81256 0.09722 0.0
H1460 H 0.30838 0.8172 0.07846 0.0
H1461 H 0.31265 0.83463 0.09777 0.0
H1462 H 0.28123 0.84962 0.09288 0.0
H1463 H 0.27288 0.86813 0.06744 0.0
H1464 H 0.98297 0.45324 0.07558 0.0
H1465 H -0.0006 0.44997 0.10502 0.0
H1466 H 0.0156 0.51202 0.11162 0.0
H1467 H 0.99901 0.5154 0.08224 0.0
H1468 H 0.03807 0.45851 0.1147 0.0
H1469 H 0.99442 0.50228 0.15968 0.0
H1470 H 0.98606 0.4944 0.13667 0.0
H1471 H 0.00351 0.51548 0.14181 0.0
C1472 C 0.98991 0.4662 0.08339 0.0
C1473 C 0.98974 0.48457 0.07663 0.0
C1474 C 0.99923 0.46432 0.10021 0.0
C1475 C 0.00853 0.48077 0.11061 0.0
C1476 C 0.00811 0.49919 0.10402 0.0
H1477 H 0.1046 0.48567 0.19117 0.0
H1478 H 0.08304 0.48575 0.16393 0.0
C1479 C 0.99868 0.5011 0.08722 0.0
C1480 C 0.01987 0.47844 0.12772 0.0
H1481 H 0.02548 0.49437 0.17225 0.0
C1482 C 0.0352 0.46621 0.12731 0.0
C1483 C 0.01594 0.48828 0.14421 0.0
C1484 C 0.99896 0.50069 0.1457 0.0
C1485 C 0.04709 0.46402 0.14284 0.0
C1486 C 0.04381 0.47466 0.15914 0.0
C1487 C 0.02809 0.4864 0.15969 0.0
C1488 C 0.05686 0.47421 0.17563 0.0
C1489 C 0.06299 0.45026 0.14166 0.0
C1490 C 0.04921 0.46806 0.19138 0.0
C1491 C 0.06149 0.46812 0.20705 0.0
C1492 C 0.08162 0.47443 0.20727 0.0
C1493 C 0.0892 0.48057 0.19145 0.0
C1494 C 0.07692 0.48055 0.17582 0.0
H1495 H 0.05985 0.43916 0.13001 0.0
H1496 H 0.07719 0.45869 0.1399 0.0
H1497 H 0.06466 0.44265 0.15408 0.0
H1498 H 0.03374 0.46321 0.19152 0.0
H1499 H 0.05517 0.46336 0.21902 0.0
H1500 H 0.31216 0.7121 0.26578 0.0
H1501 H 0.34094 0.71913 0.28728 0.0
H1502 H 0.37877 0.72117 0.24348 0.0
H1503 H 0.35004 0.71446 0.22195 0.0
H1504 H 0.37249 0.69866 0.29267 0.0
H1505 H 0.39707 0.77192 0.27275 0.0
H1506 H 0.37327 0.75952 0.26532 0.0
H1507 H 0.39479 0.75334 0.25437 0.0
C1508 C 0.32663 0.71406 0.26076 0.0
C1509 C 0.32889 0.71288 0.24221 0.0
C1510 C 0.34303 0.71812 0.27303 0.0
C1511 C 0.36196 0.72103 0.26697 0.0
C1512 C 0.36426 0.71952 0.24845 0.0
H1513 H 0.47947 0.7358 0.3197 0.0
H1514 H 0.45053 0.72888 0.29837 0.0
C1515 C 0.34786 0.71564 0.23617 0.0
C1516 C 0.37932 0.72511 0.28005 0.0
H1517 H 0.41928 0.75772 0.29253 0.0
C1518 C 0.38264 0.71163 0.29271 0.0
C1519 C 0.39253 0.74208 0.2801 0.0
C1520 C 0.38916 0.75764 0.26753 0.0
C1521 C 0.39902 0.71452 0.30523 0.0
C1522 C 0.41232 0.7313 0.30506 0.0
C1523 C 0.40903 0.74481 0.29247 0.0
C1524 C 0.42968 0.7352 0.31802 0.0
C1525 C 0.4022 0.69954 0.31841 0.0
C1526 C 0.42741 0.74113 0.33604 0.0
C1527 C 0.44388 0.74523 0.34822 0.0
C1528 C 0.46287 0.74335 0.34257 0.0
C1529 C 0.46504 0.73731 0.32448 0.0
C1530 C 0.44857 0.73338 0.31228 0.0
H1531 H 0.39216 0.68601 0.31511 0.0
H1532 H 0.41763 0.69573 0.31871 0.0
H1533 H 0.39955 0.70574 0.33208 0.0
H1534 H 0.41291 0.74275 0.34062 0.0
H1535 H 0.44171 0.74984 0.36206 0.0
H1536 H 0.97173 0.43569 0.98478 0.0
H1537 H 0.97493 0.40822 0.96269 0.0
H1538 H 0.03398 0.40389 0.98488 0.0
H1539 H 0.03075 0.43114 0.00719 0.0
H1540 H 0.00167 0.40406 0.93667 0.0
H1541 H 0.00808 0.34845 0.98553 0.0
H1542 H -0.00014 0.37209 0.99144 0.0
H1543 H 0.02566 0.36937 0.99039 0.0
C1544 C 0.98538 0.42888 0.98495 0.0
C1545 C 0.001 0.43545 0.99773 0.0
C1546 C 0.98719 0.4132 0.97233 0.0
C1547 C 0.00456 0.40383 0.97235 0.0
C1548 C 0.02029 0.41064 0.98489 0.0
H1549 H 0.04566 0.32782 0.8882 0.0
H1550 H 0.0395 0.35517 0.90922 0.0
C1551 C 0.01848 0.42626 0.99753 0.0
C1552 C 0.00637 0.38706 0.95914 0.0
H1553 H 0.01561 0.33923 0.95562 0.0
C1554 C 0.0046 0.38985 0.94079 0.0
C1555 C 0.00989 0.36847 0.96456 0.0
C1556 C 0.0108 0.36431 0.98404 0.0
C1557 C 0.00678 0.37463 0.92768 0.0
C1558 C 0.01117 0.35628 0.93314 0.0
C1559 C 0.01244 0.35338 0.95148 0.0
C1560 C 0.01461 0.33988 0.92008 0.0
C1561 C 0.00412 0.37828 0.90813 0.0
C1562 C 0.00295 0.32207 0.9195 0.0
C1563 C 0.00655 0.30634 0.90764 0.0
C1564 C 0.02195 0.30813 0.89616 0.0
C1565 C 0.03361 0.326 0.89677 0.0
C1566 C 0.03003 0.34169 0.9087 0.0
H1567 H 0.99544 0.3909 0.90619 0.0
H1568 H 0.01877 0.38163 0.90298 0.0
H1569 H 0.99665 0.36525 0.9 0.0
H1570 H 0.99104 0.32034 0.92825 0.0
H1571 H 0.9973 0.29278 0.90751 0.0
H1572 H 0.70297 0.82267 0.27351 0.0
H1573 H 0.67485 0.81119 0.28977 0.0
H1574 H 0.6478 0.77975 0.24103 0.0
H1575 H 0.6759 0.79103 0.22475 0.0
H1576 H 0.63465 0.81683 0.28247 0.0
H1577 H 0.64719 0.73825 0.27762 0.0
H1578 H 0.66589 0.7571 0.27339 0.0
H1579 H 0.64619 0.74916 0.25666 0.0
C1580 C 0.69103 0.81326 0.26631 0.0
C1581 C 0.69166 0.80767 0.24793 0.0
C1582 C 0.67501 0.80674 0.27558 0.0
C1583 C 0.6594 0.79442 0.26665 0.0
C1584 C 0.65988 0.78896 0.24823 0.0
H1585 H 0.55055 0.74034 0.30175 0.0
H1586 H 0.57793 0.75128 0.28446 0.0
C1587 C 0.6759 0.7955 0.23894 0.0
C1588 C 0.64246 0.78761 0.27658 0.0
H1589 H 0.61795 0.74681 0.29015 0.0
C1590 C 0.631 0.80153 0.28419 0.0
C1591 C 0.63774 0.76764 0.27872 0.0
C1592 C 0.64996 0.75214 0.27131 0.0
C1593 C 0.61478 0.79599 0.29378 0.0
C1594 C 0.61017 0.77603 0.29609 0.0
C1595 C 0.62154 0.7621 0.28835 0.0
C1596 C 0.5937 0.76934 0.30666 0.0
C1597 C 0.60251 0.81152 0.30106 0.0
C1598 C 0.59368 0.77561 0.32494 0.0
C1599 C 0.57806 0.76943 0.33485 0.0
C1600 C 0.56222 0.75672 0.32669 0.0
C1601 C 0.56248 0.75017 0.30844 0.0
C1602 C 0.57811 0.75639 0.29853 0.0
H1603 H 0.60467 0.82505 0.29409 0.0
H1604 H 0.58663 0.80628 0.2997 0.0
H1605 H 0.60691 0.81528 0.31553 0.0
H1606 H 0.60578 0.78527 0.33157 0.0
H1607 H 0.57839 0.77466 0.3489 0.0
H1608 H 0.02649 0.10114 0.0143 0.0
H1609 H 0.01699 0.12365 0.99237 0.0
H1610 H 0.0739 0.12271 0.97092 0.0
H1611 H 0.08342 0.10004 0.99269 0.0
H1612 H 0.03529 0.16075 0.9878 0.0
H1613 H 0.03569 0.11061 0.92612 0.0
H1614 H 0.0355 0.1021 0.94827 0.0
H1615 H 0.05803 0.11245 0.94037 0.0
C1616 C 0.03695 0.10566 0.00487 0.0
C1617 C 0.0557 0.09882 0.00513 0.0
C1618 C 0.0315 0.11851 0.99236 0.0
C1619 C 0.04463 0.12459 0.97985 0.0
C1620 C 0.0634 0.11787 0.9802 0.0
H1621 H 0.04685 0.20509 0.89763 0.0
H1622 H 0.05366 0.18091 0.91875 0.0
C1623 C 0.06886 0.10505 0.9927 0.0
C1624 C 0.039 0.13847 0.96682 0.0
H1625 H 0.0334 0.14413 0.92199 0.0
C1626 C 0.03471 0.15709 0.97341 0.0
C1627 C 0.03829 0.13362 0.94807 0.0
C1628 C 0.04194 0.11355 0.94024 0.0
C1629 C 0.03025 0.17122 0.96173 0.0
C1630 C 0.02975 0.16643 0.94297 0.0
C1631 C 0.03384 0.14774 0.93638 0.0
C1632 C 0.02532 0.18075 0.92997 0.0
C1633 C 0.02669 0.19131 0.96956 0.0
C1634 C 0.007 0.18839 0.92908 0.0
C1635 C 0.00306 0.20223 0.91706 0.0
C1636 C 0.01735 0.20858 0.90563 0.0
C1637 C 0.03555 0.20056 0.90629 0.0
C1638 C 0.03946 0.18674 0.91833 0.0
H1639 H 0.03222 0.19399 0.98389 0.0
H1640 H 0.03387 0.20274 0.96194 0.0
H1641 H 0.01065 0.19277 0.96871 0.0
H1642 H 0.99574 0.18366 0.93771 0.0
H1643 H 0.98885 0.20801 0.91681 0.0
H1644 H 0.33223 0.28396 0.23019 0.0
H1645 H 0.35386 0.28059 0.20558 0.0
H1646 H 0.40179 0.27163 0.2434 0.0
H1647 H 0.38009 0.27449 0.268 0.0
H1648 H 0.3872 0.30271 0.20007 0.0
H1649 H 0.40397 0.22649 0.20615 0.0
H1650 H 0.38438 0.23697 0.21743 0.0
H1651 H 0.40941 0.24152 0.22684 0.0
C1652 C 0.34734 0.28113 0.23324 0.0
C1653 C 0.35453 0.27943 0.25099 0.0
C1654 C 0.35967 0.27921 0.21917 0.0
C1655 C 0.37935 0.27553 0.22261 0.0
C1656 C 0.38654 0.27395 0.24036 0.0
H1657 H 0.48406 0.27564 0.166 0.0
H1658 H 0.45888 0.27688 0.18762 0.0
C1659 C 0.37419 0.27573 0.25441 0.0
C1660 C 0.3926 0.27418 0.20777 0.0
H1661 H 0.42484 0.24541 0.18833 0.0
C1662 C 0.39525 0.29008 0.19735 0.0
C1663 C 0.40302 0.25765 0.20419 0.0
C1664 C 0.39991 0.23961 0.21412 0.0
C1665 C 0.40857 0.29017 0.18388 0.0
C1666 C 0.41943 0.27394 0.18077 0.0
C1667 C 0.41652 0.25787 0.19088 0.0
C1668 C 0.43444 0.27364 0.16749 0.0
C1669 C 0.41144 0.30781 0.17341 0.0
C1670 C 0.42894 0.27138 0.14903 0.0
C1671 C 0.4433 0.27057 0.13659 0.0
C1672 C 0.46336 0.27209 0.14247 0.0
C1673 C 0.46875 0.27451 0.16101 0.0
C1674 C 0.45441 0.27518 0.1734 0.0
H1675 H 0.40361 0.32013 0.1789 0.0
H1676 H 0.42734 0.31272 0.17346 0.0
H1677 H 0.40581 0.30387 0.15923 0.0
H1678 H 0.41356 0.27002 0.14427 0.0
H1679 H 0.43867 0.26867 0.12241 0.0
H1680 H 0.54043 0.43268 0.98653 0.0
H1681 H 0.52975 0.40698 0.00534 0.0
H1682 H 0.5875 0.41221 0.03297 0.0
H1683 H 0.59828 0.43804 0.01423 0.0
H1684 H 0.54679 0.37093 0.00892 0.0
H1685 H 0.54963 0.41657 0.0738 0.0
H1686 H 0.54927 0.42686 0.0524 0.0
H1687 H 0.57157 0.41875 0.0619 0.0
C1688 C 0.55085 0.42842 0.99664 0.0
C1689 C 0.5702 0.43737 0.99899 0.0
C1690 C 0.54472 0.41374 0.00736 0.0
C1691 C 0.55777 0.40791 0.02068 0.0
C1692 C 0.57712 0.41675 0.02297 0.0
H1693 H 0.5499 0.3212 0.09779 0.0
H1694 H 0.55994 0.34793 0.07989 0.0
C1695 C 0.58328 0.43139 0.01222 0.0
C1696 C 0.55128 0.39216 0.0318 0.0
H1697 H 0.54365 0.38241 0.07486 0.0
C1698 C 0.546 0.37342 0.02332 0.0
C1699 C 0.55039 0.39551 0.05058 0.0
C1700 C 0.55535 0.41553 0.06025 0.0
C1701 C 0.54016 0.35778 0.03319 0.0
C1702 C 0.53914 0.36113 0.05198 0.0
C1703 C 0.54443 0.3799 0.06045 0.0
C1704 C 0.53274 0.34529 0.06309 0.0
C1705 C 0.53562 0.33773 0.02346 0.0
C1706 C 0.51396 0.33523 0.05981 0.0
C1707 C 0.50822 0.31988 0.06993 0.0
C1708 C 0.52108 0.31447 0.08367 0.0
C1709 C 0.53966 0.32497 0.08728 0.0
C1710 C 0.54543 0.34025 0.07707 0.0
H1711 H 0.54221 0.33665 0.01029 0.0
H1712 H 0.54111 0.32635 0.03161 0.0
H1713 H 0.51945 0.3346 0.02091 0.0
H1714 H 0.50376 0.33921 0.04937 0.0
H1715 H 0.49374 0.31223 0.06693 0.0
H1716 H 0.67201 0.23375 0.27412 0.0
H1717 H 0.64406 0.23961 0.25396 0.0
H1718 H 0.66822 0.2073 0.21027 0.0
H1719 H 0.69624 0.20117 0.23048 0.0
H1720 H 0.64525 0.25894 0.22276 0.0
H1721 H 0.61114 0.18282 0.20859 0.0
H1722 H 0.62932 0.1901 0.22701 0.0
H1723 H 0.63675 0.18619 0.20454 0.0
C1724 C 0.67135 0.22778 0.26025 0.0
C1725 C 0.68629 0.21698 0.25382 0.0
C1726 C 0.65537 0.23116 0.24876 0.0
C1727 C 0.65399 0.22372 0.23069 0.0
C1728 C 0.66885 0.21287 0.22425 0.0
H1729 H 0.57924 0.26304 0.14504 0.0
H1730 H 0.6071 0.25547 0.16456 0.0
C1731 C 0.68485 0.20947 0.23575 0.0
C1732 C 0.63733 0.22798 0.2185 0.0
H1733 H 0.59791 0.20665 0.1915 0.0
C1734 C 0.63487 0.24753 0.21593 0.0
C1735 C 0.62375 0.21304 0.20978 0.0
C1736 C 0.62519 0.19186 0.2127 0.0
C1737 C 0.61924 0.25256 0.20473 0.0
C1738 C 0.60592 0.23761 0.19567 0.0
C1739 C 0.60827 0.21806 0.19835 0.0
C1740 C 0.58913 0.24198 0.18368 0.0
C1741 C 0.61687 0.27385 0.203 0.0
C1742 C 0.56984 0.23649 0.18778 0.0
C1743 C 0.5539 0.24069 0.17662 0.0
C1744 C 0.55698 0.25039 0.16112 0.0
C1745 C 0.57636 0.25568 0.15695 0.0
C1746 C 0.5923 0.25144 0.16811 0.0
H1747 H 0.62527 0.28337 0.21407 0.0
H1748 H 0.62246 0.27799 0.19014 0.0
H1749 H 0.60115 0.27669 0.20294 0.0
H1750 H 0.56711 0.22911 0.19971 0.0
H1751 H 0.53916 0.23636 0.1802 0.0
H1752 H 0.51298 0.07814 0.99508 0.0
H1753 H 0.51795 0.10826 0.01506 0.0
H1754 H 0.45525 0.11172 0.01317 0.0
H1755 H 0.45019 0.08215 0.9926 0.0
H1756 H 0.47559 0.14703 0.01011 0.0
H1757 H 0.5072 0.11176 0.06794 0.0
H1758 H 0.52005 0.10853 0.04793 0.0
H1759 H 0.49512 0.09795 0.04819 0.0
C1760 C 0.50026 0.08545 0.99874 0.0
C1761 C 0.48117 0.07764 0.99238 0.0
C1762 C 0.50312 0.10252 0.01033 0.0
C1763 C 0.48694 0.11198 0.01588 0.0
C1764 C 0.46792 0.10454 0.00917 0.0
H1765 H 0.48381 0.19537 0.10798 0.0
H1766 H 0.47929 0.16708 0.08581 0.0
C1767 C 0.46506 0.08755 0.99754 0.0
C1768 C 0.4897 0.1296 0.02875 0.0
H1769 H 0.50741 0.14615 0.07141 0.0
C1770 C 0.48255 0.14686 0.02352 0.0
C1771 C 0.49851 0.12923 0.04631 0.0
C1772 C 0.5055 0.11084 0.05304 0.0
C1773 C 0.48407 0.16383 0.03535 0.0
C1774 C 0.49336 0.1636 0.05275 0.0
C1775 C 0.50042 0.14631 0.05801 0.0
C1776 C 0.49565 0.18103 0.06585 0.0
C1777 C 0.47531 0.18169 0.02926 0.0
C1778 C 0.50642 0.19823 0.062 0.0
C1779 C 0.50892 0.21447 0.0746 0.0
C1780 C 0.5009 0.21371 0.09137 0.0
C1781 C 0.49017 0.19644 0.0952 0.0
C1782 C 0.48759 0.18025 0.08255 0.0
H1783 H 0.46422 0.17793 0.01772 0.0
H1784 H 0.46822 0.18938 0.04034 0.0
H1785 H 0.48716 0.19187 0.02491 0.0
H1786 H 0.51314 0.199 0.04936 0.0
H1787 H 0.51739 0.2275 0.07128 0.0
H1788 H 0.25587 0.37094 0.67839 0.0
H1789 H 0.27831 0.40056 0.68553 0.0
H1790 H 0.2889 0.38489 0.73961 0.0
H1791 H 0.26676 0.35503 0.73249 0.0
H1792 H 0.27708 0.43176 0.71379 0.0
H1793 H 0.34439 0.39247 0.71996 0.0
H1794 H 0.32146 0.38113 0.70901 0.0
H1795 H 0.32464 0.38439 0.73307 0.0
C1796 C 0.26303 0.37378 0.69179 0.0
C1797 C 0.25968 0.3606 0.70485 0.0
C1798 C 0.27574 0.39074 0.69586 0.0
C1799 C 0.28541 0.39473 0.71301 0.0
C1800 C 0.28173 0.38189 0.72623 0.0
H1801 H 0.37523 0.48488 0.7585 0.0
H1802 H 0.35075 0.45668 0.75325 0.0
C1803 C 0.26897 0.36496 0.72219 0.0
C1804 C 0.2996 0.41221 0.71694 0.0
H1805 H 0.34836 0.42659 0.72675 0.0
C1806 C 0.29267 0.43069 0.71662 0.0
C1807 C 0.31989 0.41066 0.72064 0.0
C1808 C 0.32815 0.39112 0.72058 0.0
C1809 C 0.30552 0.44775 0.72013 0.0
C1810 C 0.32587 0.44622 0.72365 0.0
C1811 C 0.33275 0.42771 0.72405 0.0
C1812 C 0.34033 0.46361 0.72686 0.0
C1813 C 0.29714 0.46724 0.72039 0.0
C1814 C 0.34273 0.47674 0.71366 0.0
C1815 C 0.35666 0.49293 0.71664 0.0
C1816 C 0.36859 0.49615 0.73279 0.0
C1817 C 0.36627 0.48284 0.74591 0.0
C1818 C 0.35229 0.46671 0.74295 0.0
H1819 H 0.28117 0.46589 0.72246 0.0
H1820 H 0.30483 0.47773 0.73113 0.0
H1821 H 0.29906 0.47334 0.7073 0.0
H1822 H 0.33398 0.47436 0.70097 0.0
H1823 H 0.35817 0.50283 0.70622 0.0
H1824 H 0.27059 0.68464 0.83031 0.0
H1825 H 0.29581 0.66211 0.82576 0.0
H1826 H 0.29851 0.67646 0.77098 0.0
H1827 H 0.27371 0.69946 0.77557 0.0
H1828 H 0.29323 0.62962 0.80055 0.0
H1829 H 0.35652 0.68243 0.79003 0.0
H1830 H 0.3346 0.68978 0.79979 0.0
H1831 H 0.33469 0.68448 0.77592 0.0
C1832 C 0.27678 0.68325 0.81738 0.0
C1833 C 0.27021 0.6939 0.80331 0.0
C1834 C 0.2911 0.67029 0.81478 0.0
C1835 C 0.2992 0.66783 0.79812 0.0
C1836 C 0.2927 0.67842 0.78404 0.0
H1837 H 0.38008 0.59087 0.75292 0.0
H1838 H 0.35762 0.61598 0.75858 0.0
C1839 C 0.27837 0.69137 0.78662 0.0
C1840 C 0.31378 0.6535 0.79524 0.0
H1841 H 0.36081 0.64883 0.78404 0.0
C1842 C 0.30805 0.63381 0.79705 0.0
C1843 C 0.33305 0.65906 0.79059 0.0
C1844 C 0.3402 0.68011 0.78911 0.0
C1845 C 0.32097 0.61943 0.79403 0.0
C1846 C 0.34026 0.62497 0.78941 0.0
C1847 C 0.34601 0.64466 0.78759 0.0
C1848 C 0.35461 0.61045 0.78632 0.0
C1849 C 0.31371 0.59837 0.7954 0.0
C1850 C 0.3607 0.59937 0.80017 0.0
C1851 C 0.37347 0.58499 0.79698 0.0
C1852 C 0.3805 0.58153 0.7799 0.0
C1853 C 0.37488 0.59312 0.76621 0.0
C1854 C 0.36206 0.60748 0.76941 0.0
H1855 H 0.29739 0.59612 0.79454 0.0
H1856 H 0.3192 0.58873 0.78463 0.0
H1857 H 0.31924 0.59386 0.80854 0.0
H1858 H 0.35543 0.60173 0.81342 0.0
H1859 H 0.37764 0.57645 0.80786 0.0
H1860 H 0.9576 0.4886 0.4712 0.0
H1861 H 0.93007 0.46509 0.47648 0.0
H1862 H 0.89343 0.51213 0.48526 0.0
H1863 H 0.92061 0.53562 0.4795 0.0
H1864 H 0.90963 0.46362 0.5077 0.0
H1865 H 0.85966 0.47393 0.44863 0.0
H1866 H 0.88551 0.48231 0.45032 0.0
H1867 H 0.86841 0.49623 0.46183 0.0
C1868 C 0.94358 0.49389 0.47398 0.0
C1869 C 0.94125 0.51396 0.4749 0.0
C1870 C 0.92793 0.48047 0.4771 0.0
C1871 C 0.90968 0.48687 0.48102 0.0
C1872 C 0.90731 0.50687 0.48194 0.0
H1873 H 0.79814 0.43677 0.51088 0.0
H1874 H 0.82675 0.45789 0.50403 0.0
C1875 C 0.92291 0.52028 0.47884 0.0
C1876 C 0.89327 0.47277 0.48485 0.0
H1877 H 0.8457 0.45627 0.47146 0.0
C1878 C 0.8957 0.46185 0.4997 0.0
C1879 C 0.87515 0.47054 0.47437 0.0
C1880 C 0.87203 0.48123 0.45779 0.0
C1881 C 0.88023 0.44917 0.50469 0.0
C1882 C 0.86201 0.4472 0.49437 0.0
C1883 C 0.85968 0.4579 0.47937 0.0
C1884 C 0.84503 0.43432 0.49904 0.0
C1885 C 0.88331 0.43843 0.52124 0.0
C1886 C 0.84585 0.41407 0.49843 0.0
C1887 C 0.82955 0.40195 0.50235 0.0
C1888 C 0.8121 0.40988 0.50687 0.0
C1889 C 0.81137 0.43019 0.50751 0.0
C1890 C 0.82767 0.44229 0.50357 0.0
H1891 H 0.89647 0.44487 0.52987 0.0
H1892 H 0.87025 0.43854 0.52929 0.0
H1893 H 0.88547 0.42302 0.51713 0.0
H1894 H 0.85902 0.40763 0.49466 0.0
H1895 H 0.83056 0.38636 0.50165 0.0
H1896 H 0.76067 0.81193 0.75798 0.0
H1897 H 0.73796 0.83684 0.75317 0.0
H1898 H 0.74897 0.85938 0.80862 0.0
H1899 H 0.77195 0.83479 0.81347 0.0
H1900 H 0.70331 0.84476 0.77207 0.0
H1901 H 0.76126 0.90705 0.77928 0.0
H1902 H 0.76673 0.88206 0.77512 0.0
H1903 H 0.76156 0.89132 0.79724 0.0
C1904 C 0.75831 0.82225 0.76912 0.0
C1905 C 0.76816 0.82147 0.78608 0.0
C1906 C 0.74527 0.83638 0.76637 0.0
C1907 C 0.74201 0.85005 0.78049 0.0
C1908 C 0.7515 0.84908 0.79751 0.0
H1909 H 0.67635 0.95077 0.7921 0.0
H1910 H 0.69681 0.92404 0.79624 0.0
C1911 C 0.76447 0.83493 0.80029 0.0
C1912 C 0.72881 0.86546 0.77739 0.0
H1913 H 0.72824 0.91475 0.77725 0.0
C1914 C 0.70871 0.86007 0.77311 0.0
C1915 C 0.73599 0.88537 0.77877 0.0
C1916 C 0.75759 0.89188 0.78271 0.0
C1917 C 0.69545 0.87417 0.77059 0.0
C1918 C 0.70263 0.89412 0.77204 0.0
C1919 C 0.72278 0.89945 0.77619 0.0
C1920 C 0.68952 0.90979 0.76955 0.0
C1921 C 0.67385 0.86764 0.76689 0.0
C1922 C 0.67868 0.91068 0.75313 0.0
C1923 C 0.66688 0.92592 0.75072 0.0
C1924 C 0.66589 0.94064 0.76466 0.0
C1925 C 0.67678 0.93968 0.78108 0.0
C1926 C 0.68849 0.92442 0.78348 0.0
H1927 H 0.6702 0.85266 0.77083 0.0
H1928 H 0.66472 0.87772 0.77417 0.0
H1929 H 0.66983 0.86757 0.75229 0.0
H1930 H 0.6796 0.89977 0.74206 0.0
H1931 H 0.65877 0.92631 0.73787 0.0
H1932 H 0.62535 0.49975 0.96824 0.0
H1933 H 0.65356 0.5241 0.97599 0.0
H1934 H 0.61563 0.57024 0.97092 0.0
H1935 H 0.58732 0.546 0.9632 0.0
H1936 H 0.66427 0.55767 0.95205 0.0
H1937 H 0.64886 0.57985 0.02251 0.0
H1938 H 0.64018 0.55614 0.01146 0.0
H1939 H 0.62866 0.57727 0.00556 0.0
C1940 C 0.62301 0.51509 0.96896 0.0
C1941 C 0.60418 0.52102 0.96513 0.0
C1942 C 0.63911 0.52893 0.9733 0.0
C1943 C 0.63656 0.54887 0.9741 0.0
C1944 C 0.61778 0.55487 0.97046 0.0
H1945 H 0.71344 0.65478 0.00128 0.0
H1946 H 0.68555 0.63004 0.99476 0.0
C1947 C 0.6017 0.54105 0.96596 0.0
C1948 C 0.65366 0.56346 0.97816 0.0
H1949 H 0.67564 0.59716 0.01075 0.0
C1950 C 0.66686 0.56629 0.96488 0.0
C1951 C 0.65676 0.57468 0.99486 0.0
C1952 C 0.64298 0.57188 0.00953 0.0
C1953 C 0.68306 0.58038 0.96778 0.0
C1954 C 0.68637 0.59149 0.98461 0.0
C1955 C 0.67311 0.58859 0.99789 0.0
C1956 C 0.70338 0.60635 0.98864 0.0
C1957 C 0.69612 0.58358 0.95261 0.0
C1958 C 0.72268 0.60118 0.98763 0.0
C1959 C 0.73865 0.61532 0.99118 0.0
C1960 C 0.73561 0.63484 0.9961 0.0
C1961 C 0.71628 0.63989 0.99751 0.0
C1962 C 0.70032 0.62577 0.99379 0.0
H1963 H 0.68849 0.57813 0.93938 0.0
H1964 H 0.70108 0.59928 0.95229 0.0
H1965 H 0.70931 0.57551 0.95452 0.0
H1966 H 0.72541 0.58619 0.98414 0.0
H1967 H 0.75337 0.61093 0.99016 0.0
H1968 H 0.26532 0.65986 0.19393 0.0
H1969 H 0.24112 0.63267 0.19817 0.0
H1970 H 0.23811 0.65484 0.25335 0.0
H1971 H 0.26268 0.68177 0.24928 0.0
H1972 H 0.24108 0.6167 0.25083 0.0
H1973 H 0.18273 0.63259 0.20089 0.0
H1974 H 0.20572 0.62995 0.19119 0.0
H1975 H 0.20375 0.64974 0.20797 0.0
C1976 C 0.25933 0.65901 0.2069 0.0
C1977 C 0.2658 0.67292 0.22127 0.0
C1978 C 0.24545 0.64353 0.20929 0.0
C1979 C 0.23751 0.64192 0.22598 0.0
C1980 C 0.24398 0.65583 0.24034 0.0
H1981 H 0.13518 0.56316 0.24279 0.0
H1982 H 0.1581 0.59172 0.23974 0.0
C1983 C 0.25802 0.67117 0.23802 0.0
C1984 C 0.22308 0.62532 0.22872 0.0
H1985 H 0.17903 0.60132 0.21233 0.0
C1986 C 0.22745 0.61342 0.24249 0.0
C1987 C 0.20515 0.62121 0.21801 0.0
C1988 C 0.19894 0.63417 0.20382 0.0
C1989 C 0.21457 0.59733 0.24564 0.0
C1990 C 0.1971 0.59266 0.23436 0.0
C1991 C 0.19254 0.60477 0.22082 0.0
C1992 C 0.18333 0.57531 0.2364 0.0
C1993 C 0.21967 0.58572 0.26123 0.0
C1994 C 0.18985 0.55658 0.23534 0.0
C1995 C 0.17685 0.54027 0.23728 0.0
C1996 C 0.15698 0.54235 0.24 0.0
C1997 C 0.1504 0.56108 0.24073 0.0
C1998 C 0.16347 0.57741 0.23897 0.0
H1999 H 0.2299 0.59449 0.27156 0.0
H2000 H 0.20629 0.58045 0.26768 0.0
H2001 H 0.22708 0.57288 0.2563 0.0
H2002 H 0.20497 0.55455 0.23286 0.0
H2003 H 0.18233 0.52602 0.23646 0.0
H2004 H 0.93076 0.51393 0.05697 0.0
H2005 H 0.90802 0.53824 0.05023 0.0
H2006 H 0.9371 0.54919 0.00222 0.0
H2007 H 0.96024 0.52532 0.0091 0.0
H2008 H 0.92875 0.58334 0.02266 0.0
H2009 H 0.86338 0.52912 0.00995 0.0
H2010 H 0.87676 0.52863 0.03132 0.0
H2011 H 0.88821 0.52218 0.01104 0.0
C2012 C 0.93246 0.52167 0.04508 0.0
C2013 C 0.94722 0.51761 0.0335 0.0
C2014 C 0.91934 0.53541 0.04117 0.0
C2015 C 0.92072 0.54526 0.02559 0.0
C2016 C 0.93573 0.54162 0.01424 0.0
H2017 H 0.83147 0.60662 0.97328 0.0
H2018 H 0.85667 0.58511 0.98089 0.0
C2019 C 0.94883 0.52789 0.01813 0.0
C2020 C 0.90636 0.55921 0.02095 0.0
H2021 H 0.85765 0.56239 0.00991 0.0
C2022 C 0.91319 0.5788 0.01987 0.0
C2023 C 0.88615 0.55314 0.01709 0.0
C2024 C 0.87814 0.5321 0.01723 0.0
C2025 C 0.90027 0.59257 0.01521 0.0
C2026 C 0.87999 0.58658 0.01176 0.0
C2027 C 0.8732 0.56695 0.01268 0.0
C2028 C 0.86551 0.60034 0.00692 0.0
C2029 C 0.90847 0.61331 0.01368 0.0
C2030 C 0.86214 0.61605 0.01906 0.0
C2031 C 0.84776 0.62841 0.01475 0.0
C2032 C 0.8364 0.62519 0.99826 0.0
C2033 C 0.83996 0.60953 0.98608 0.0
C2034 C 0.85434 0.5972 0.9904 0.0
H2035 H 0.9246 0.61443 0.01237 0.0
H2036 H 0.90123 0.61936 0.00194 0.0
H2037 H 0.90568 0.62246 0.02595 0.0
H2038 H 0.87036 0.61852 0.03201 0.0
H2039 H 0.84533 0.64028 0.02446 0.0
H2040 H 0.07429 0.01624 0.01805 0.0
H2041 H 0.0988 0.99359 0.011 0.0
H2042 H 0.12143 -0.00013 0.06643 0.0
H2043 H 0.09716 0.02275 0.07357 0.0
H2044 H 0.14037 0.00178 0.01655 0.0
H2045 H 0.11261 0.94018 0.05409 0.0
H2046 H 0.09772 0.9594 0.04837 0.0
H2047 H 0.1161 0.96355 0.06684 0.0
C2048 C 0.08451 0.01284 0.02874 0.0
C2049 C 0.08378 0.02131 0.04638 0.0
C2050 C 0.09842 -0.00017 0.0247 0.0
C2051 C 0.11174 0.9949 0.03823 0.0
C2052 C 0.11101 0.0032 0.05587 0.0
H2053 H 0.2101 0.92413 0.04065 0.0
H2054 H 0.18425 0.94517 0.0478 0.0
C2055 C 0.09713 0.01625 0.05992 0.0
C2056 C 0.12698 0.98175 0.03372 0.0
H2057 H 0.14355 0.93794 0.04193 0.0
C2058 C 0.14103 0.98777 0.022 0.0
C2059 C 0.1278 0.96356 0.04095 0.0
C2060 C 0.11268 0.95614 0.05315 0.0
C2061 C 0.15615 0.9762 0.01755 0.0
C2062 C 0.15695 0.95795 0.02473 0.0
C2063 C 0.14288 0.95193 0.03645 0.0
C2064 C 0.17236 0.94495 0.02031 0.0
C2065 C 0.1714 0.98385 0.00557 0.0
C2066 C 0.17402 0.9376 0.00251 0.0
C2067 C 0.18882 0.92564 0.99836 0.0
C2068 C 0.20212 0.92066 0.01197 0.0
C2069 C 0.20014 0.92773 0.02984 0.0
C2070 C 0.18537 0.93973 0.03397 0.0
H2071 H 0.17172 -9e-05 0.00513 0.0
H2072 H 0.1863 0.98024 0.01017 0.0
H2073 H 0.16785 0.97699 0.9917 0.0
H2074 H 0.16386 0.94111 0.99183 0.0
H2075 H 0.18984 0.92033 0.98448 0.0
loop_
_geom_bond_atom_site_label_1
_geom_bond_atom_site_label_2
_geom_bond_distance
_geom_bond_site_symmetry_2
_ccdc_geom_bond_type
H0 C5 0.930 . S
H1 C8 0.930 . S
H2 C10 0.930 . S
H3 C4 1.016 . S
C4 H3 1.016 . S
C4 N11 1.286 . S
C5 H0 0.930 . S
C5 C6 1.397 . S
C5 C7 1.361 . S
C6 C5 1.397 . S
C6 C10 1.390 . S
C7 C5 1.361 . S
C7 C8 1.393 . S
C7 N11 1.413 . S
C8 H1 0.930 . S
C8 C7 1.393 . S
C8 C9 1.399 . S
C9 C8 1.399 . S
C9 C10 1.381 . S
C10 H2 0.930 . S
C10 C6 1.390 . S
C10 C9 1.381 . S
N11 C4 1.286 . S
N11 C7 1.413 . S
H12 C17 0.930 . S
H13 C20 0.930 . S
H14 C22 0.930 . S
H15 C16 1.016 . S
C16 H15 1.016 . S
C16 N23 1.286 . S
C17 H12 0.930 . S
C17 C18 1.397 . S
C17 C19 1.361 . S
C18 C17 1.397 . S
C18 C22 1.390 . S
C19 C17 1.361 . S
C19 C20 1.393 . S
C19 N23 1.413 . S
C20 H13 0.930 . S
C20 C19 1.393 . S
C20 C21 1.399 . S
C21 C20 1.399 . S
C21 C22 1.381 . S
C22 H14 0.930 . S
C22 C18 1.390 . S
C22 C21 1.381 . S
N23 C16 1.286 . S
N23 C19 1.413 . S
H24 C29 0.930 . S
H25 C32 0.930 . S
H26 C34 0.930 . S
H27 C28 1.016 . S
C28 H27 1.016 . S
C28 N35 1.286 . S
C29 H24 0.930 . S
C29 C30 1.397 . S
C29 C31 1.361 . S
C30 C29 1.397 . S
C30 C34 1.390 . S
C31 C29 1.361 . S
C31 C32 1.393 . S
C31 N35 1.413 . S
C32 H25 0.930 . S
C32 C31 1.393 . S
C32 C33 1.399 . S
C33 C32 1.399 . S
C33 C34 1.381 . S
C34 H26 0.930 . S
C34 C30 1.390 . S
C34 C33 1.381 . S
N35 C28 1.286 . S
N35 C31 1.413 . S
H36 C41 0.930 . S
H37 C44 0.930 . S
H38 C46 0.930 . S
H39 C40 1.016 . S
C40 H39 1.016 . S
C40 N47 1.286 . S
C41 H36 0.930 . S
C41 C42 1.397 . S
C41 C43 1.361 . S
C42 C41 1.397 . S
C42 C46 1.390 . S
C43 C41 1.361 . S
C43 C44 1.393 . S
C43 N47 1.413 . S
C44 H37 0.930 . S
C44 C43 1.393 . S
C44 C45 1.399 . S
C45 C44 1.399 . S
C45 C46 1.381 . S
C46 H38 0.930 . S
C46 C42 1.390 . S
C46 C45 1.381 . S
N47 C40 1.286 . S
N47 C43 1.413 . S
H48 C53 0.930 . S
H49 C56 0.930 . S
H50 C58 0.930 . S
H51 C52 1.016 . S
C52 H51 1.016 . S
C52 N59 1.286 . S
C53 H48 0.930 . S
C53 C54 1.397 . S
C53 C55 1.361 . S
C54 C53 1.397 . S
C54 C58 1.390 1_565 S
C55 C53 1.361 . S
C55 C56 1.393 . S
C55 N59 1.413 . S
C56 H49 0.930 . S
C56 C55 1.393 . S
C56 C57 1.425 . S
C57 C56 1.425 . S
C57 C58 1.373 1_565 S
C58 H50 0.930 . S
C58 C54 1.390 1_545 S
C58 C57 1.373 1_545 S
N59 C52 1.286 . S
N59 C55 1.413 . S
H60 C65 0.930 . S
H61 C68 0.930 . S
H62 C70 0.930 . S
H63 C64 1.016 . S
C64 H63 1.016 . S
C64 N71 1.286 . S
C65 H60 0.930 . S
C65 C66 1.397 . S
C65 C67 1.361 . S
C66 C65 1.397 . S
C66 C70 1.390 . S
C67 C65 1.361 . S
C67 C68 1.393 . S
C67 N71 1.413 . S
C68 H61 0.930 . S
C68 C67 1.393 . S
C68 C69 1.399 . S
C69 C68 1.399 . S
C69 C70 1.381 . S
C70 H62 0.930 . S
C70 C66 1.390 . S
C70 C69 1.381 . S
N71 C64 1.286 . S
N71 C67 1.413 . S
H72 C77 0.930 1_455 S
H73 C80 0.930 . S
H74 C82 0.930 . S
H75 C76 1.007 1_655 S
C76 H75 1.007 1_455 S
C76 N83 1.289 . S
C77 H72 0.930 1_655 S
C77 C78 1.397 . S
C77 C79 1.361 . S
C78 C77 1.397 . S
C78 C82 1.390 . S
C79 C77 1.361 . S
C79 C80 1.393 . S
C79 N83 1.408 1_655 S
C80 H73 0.930 . S
C80 C79 1.393 . S
C80 C81 1.399 . S
C81 C80 1.399 . S
C81 C82 1.381 . S
C82 H74 0.930 . S
C82 C78 1.390 . S
C82 C81 1.381 . S
N83 C76 1.289 . S
N83 C79 1.408 1_455 S
H84 C89 0.930 . S
H85 C92 0.930 . S
H86 C94 0.930 . S
H87 C88 1.016 . S
C88 H87 1.016 . S
C88 N95 1.286 . S
C89 H84 0.930 . S
C89 C90 1.397 . S
C89 C91 1.361 . S
C90 C89 1.397 . S
C90 C94 1.390 . S
C91 C89 1.361 . S
C91 C92 1.393 . S
C91 N95 1.413 . S
C92 H85 0.930 . S
C92 C91 1.393 . S
C92 C93 1.399 . S
C93 C92 1.399 . S
C93 C94 1.381 . S
C94 H86 0.930 . S
C94 C90 1.390 . S
C94 C93 1.381 . S
N95 C88 1.286 . S
N95 C91 1.413 . S
H96 C101 0.930 . S
H97 C104 0.930 . S
H98 C106 0.930 . S
H99 C100 1.016 . S
C100 H99 1.016 . S
C100 N107 1.286 . S
C101 H96 0.930 . S
C101 C102 1.397 . S
C101 C103 1.361 . S
C102 C101 1.397 . S
C102 C106 1.390 . S
C103 C101 1.361 . S
C103 C104 1.393 . S
C103 N107 1.413 . S
C104 H97 0.930 . S
C104 C103 1.393 . S
C104 C105 1.399 . S
C105 C104 1.399 . S
C105 C106 1.381 . S
C106 H98 0.930 . S
C106 C102 1.390 . S
C106 C105 1.381 . S
N107 C100 1.286 . S
N107 C103 1.413 . S
H108 C113 0.930 . S
H109 C116 0.930 . S
H110 C118 0.930 1_545 S
H111 C112 1.016 . S
C112 H111 1.016 . S
C112 N119 1.286 . S
C113 H108 0.930 . S
C113 C114 1.397 . S
C113 C115 1.361 . S
C114 C113 1.397 . S
C114 C118 1.390 . S
C115 C113 1.361 . S
C115 C116 1.393 . S
C115 N119 1.413 . S
C116 H109 0.930 . S
C116 C115 1.393 . S
C116 C117 1.399 . S
C117 C116 1.399 . S
C117 C118 1.381 . S
C118 H110 0.930 1_565 S
C118 C114 1.390 . S
C118 C117 1.381 . S
N119 C112 1.286 . S
N119 C115 1.413 . S
H120 C125 0.930 . S
H121 C128 0.930 . S
H122 C130 0.930 . S
H123 C124 1.016 . S
C124 H123 1.016 . S
C124 N131 1.286 . S
C125 H120 0.930 . S
C125 C126 1.397 . S
C125 C127 1.361 . S
C126 C125 1.397 . S
C126 C130 1.390 . S
C127 C125 1.361 . S
C127 C128 1.393 . S
C127 N131 1.413 . S
C128 H121 0.930 . S
C128 C127 1.393 . S
C128 C129 1.399 . S
C129 C128 1.399 . S
C129 C130 1.381 . S
C130 H122 0.930 . S
C130 C126 1.390 . S
C130 C129 1.381 . S
N131 C124 1.286 . S
N131 C127 1.413 . S
H132 C137 0.930 . S
H133 C140 0.930 . S
H134 C142 0.930 . S
H135 C136 1.016 . S
C136 H135 1.016 . S
C136 N143 1.286 . S
C137 H132 0.930 . S
C137 C138 1.397 . S
C137 C139 1.361 . S
C138 C137 1.397 . S
C138 C142 1.390 . S
C139 C137 1.361 . S
C139 C140 1.393 . S
C139 N143 1.413 . S
C140 H133 0.930 . S
C140 C139 1.393 . S
C140 C141 1.399 . S
C141 C140 1.399 . S
C141 C142 1.381 . S
C142 H134 0.930 . S
C142 C138 1.390 . S
C142 C141 1.381 . S
N143 C136 1.286 . S
N143 C139 1.413 . S
H144 C149 0.930 . S
H145 C152 0.930 . S
H146 C154 0.930 . S
H147 C148 1.016 . S
C148 H147 1.016 . S
C148 N155 1.286 . S
C149 H144 0.930 . S
C149 C150 1.397 . S
C149 C151 1.361 . S
C150 C149 1.397 . S
C150 C154 1.390 . S
C151 C149 1.361 . S
C151 C152 1.393 . S
C151 N155 1.413 . S
C152 H145 0.930 . S
C152 C151 1.393 . S
C152 C153 1.399 . S
C153 C152 1.399 . S
C153 C154 1.381 . S
C154 H146 0.930 . S
C154 C150 1.390 . S
C154 C153 1.381 . S
N155 C148 1.286 . S
N155 C151 1.413 . S
H156 C161 0.930 . S
H157 C164 0.930 . S
H158 C166 0.930 . S
H159 C160 1.016 . S
C160 H159 1.016 . S
C160 N167 1.286 . S
C161 H156 0.930 . S
C161 C162 1.397 . S
C161 C163 1.361 . S
C162 C161 1.397 . S
C162 C166 1.390 . S
C163 C161 1.361 . S
C163 C164 1.393 . S
C163 N167 1.413 . S
C164 H157 0.930 . S
C164 C163 1.393 . S
C164 C165 1.399 . S
C165 C164 1.399 . S
C165 C166 1.381 . S
C166 H158 0.930 . S
C166 C162 1.390 . S
C166 C165 1.381 . S
N167 C160 1.286 . S
N167 C163 1.413 . S
H168 C173 0.930 . S
H169 C176 0.930 . S
H170 C178 0.930 . S
H171 C172 1.016 . S
C172 H171 1.016 . S
C172 N179 1.286 . S
C173 H168 0.930 . S
C173 C174 1.397 . S
C173 C175 1.361 . S
C174 C173 1.397 . S
C174 C178 1.390 . S
C175 C173 1.361 . S
C175 C176 1.393 . S
C175 N179 1.413 . S
C176 H169 0.930 . S
C176 C175 1.393 . S
C176 C177 1.399 . S
C177 C176 1.399 . S
C177 C178 1.381 . S
C178 H170 0.930 . S
C178 C174 1.390 . S
C178 C177 1.381 . S
N179 C172 1.286 . S
N179 C175 1.413 . S
H180 C185 0.930 . S
H181 C188 0.930 . S
H182 C190 0.930 . S
H183 C184 1.016 . S
C184 H183 1.016 . S
C184 N191 1.286 . S
C185 H180 0.930 . S
C185 C186 1.397 . S
C185 C187 1.361 . S
C186 C185 1.397 . S
C186 C190 1.390 . S
C187 C185 1.361 . S
C187 C188 1.393 . S
C187 N191 1.413 . S
C188 H181 0.930 . S
C188 C187 1.393 . S
C188 C189 1.399 . S
C189 C188 1.399 . S
C189 C190 1.381 . S
C190 H182 0.930 . S
C190 C186 1.390 . S
C190 C189 1.381 . S
N191 C184 1.286 . S
N191 C187 1.413 . S
C192 O193 1.160 . S
C192 O199 1.185 . S
O193 C192 1.160 . S
O194 Zn195 1.899 . S
O194 C202 1.284 1_554 S
Zn195 O194 1.899 . S
Zn195 O196 2.032 . S
Zn195 O199 2.086 . S
Zn195 O204 1.977 . S
O196 Zn195 2.032 . S
O196 C200 1.278 . S
C197 O198 1.203 . S
C197 O204 1.267 . S
O198 C197 1.203 . S
O199 C192 1.185 . S
O199 Zn195 2.086 . S
C200 O196 1.278 . S
C200 O201 1.211 . S
O201 C200 1.211 . S
C202 O194 1.284 1_556 S
C202 O203 1.273 . S
O203 C202 1.273 . S
O204 Zn195 1.977 . S
O204 C197 1.267 . S
C205 O206 1.160 . S
C205 O212 1.185 . S
O206 C205 1.160 . S
O207 Zn208 1.899 . S
O207 C215 1.284 . S
Zn208 O207 1.899 . S
Zn208 O209 2.032 . S
Zn208 O212 2.086 . S
Zn208 O217 1.977 . S
O209 Zn208 2.032 . S
O209 C213 1.278 . S
C210 O211 1.203 . S
C210 O217 1.267 . S
O211 C210 1.203 . S
O212 C205 1.185 . S
O212 Zn208 2.086 . S
C213 O209 1.278 . S
C213 O214 1.211 . S
O214 C213 1.211 . S
C215 O207 1.284 . S
C215 O216 1.273 . S
O216 C215 1.273 . S
O217 Zn208 1.977 . S
O217 C210 1.267 . S
C218 O219 1.160 1_554 S
C218 O225 1.185 . S
O219 C218 1.160 1_556 S
O220 Zn221 1.899 1_556 S
O220 C228 1.284 . S
Zn221 O220 1.899 1_554 S
Zn221 O222 2.032 1_554 S
Zn221 O225 2.086 . S
Zn221 O230 1.977 . S
O222 Zn221 2.032 1_556 S
O222 C226 1.278 . S
C223 O224 1.203 . S
C223 O230 1.267 . S
O224 C223 1.203 . S
O225 C218 1.185 . S
O225 Zn221 2.086 . S
C226 O222 1.278 . S
C226 O227 1.211 1_556 S
O227 C226 1.211 1_554 S
C228 O220 1.284 . S
C228 O229 1.273 . S
O229 C228 1.273 . S
O230 Zn221 1.977 . S
O230 C223 1.267 . S
C231 O232 1.160 . S
C231 O238 1.185 . S
O232 C231 1.160 . S
O233 Zn234 1.899 . S
O233 C241 1.284 . S
Zn234 O233 1.899 . S
Zn234 O235 2.032 . S
Zn234 O238 2.086 . S
Zn234 O243 1.977 . S
O235 Zn234 2.032 . S
O235 C239 1.278 . S
C236 O237 1.203 . S
C236 O243 1.267 . S
O237 C236 1.203 . S
O238 C231 1.185 . S
O238 Zn234 2.086 . S
C239 O235 1.278 . S
C239 O240 1.211 1_545 S
O240 C239 1.211 1_565 S
C241 O233 1.284 . S
C241 O242 1.273 . S
O242 C241 1.273 . S
O243 Zn234 1.977 . S
O243 C236 1.267 . S
C244 O245 1.160 . S
C244 O251 1.185 . S
O245 C244 1.160 . S
O246 Zn247 1.899 . S
O246 C254 1.284 . S
Zn247 O246 1.899 . S
Zn247 O248 2.032 . S
Zn247 O251 2.086 . S
Zn247 O256 1.977 . S
O248 Zn247 2.032 . S
O248 C252 1.278 . S
C249 O250 1.203 . S
C249 O256 1.267 . S
O250 C249 1.203 . S
O251 C244 1.185 . S
O251 Zn247 2.086 . S
C252 O248 1.278 . S
C252 O253 1.211 . S
O253 C252 1.211 . S
C254 O246 1.284 . S
C254 O255 1.273 . S
O255 C254 1.273 . S
O256 Zn247 1.977 . S
O256 C249 1.267 . S
C257 O258 1.160 . S
C257 O264 1.185 . S
O258 C257 1.160 . S
O259 Zn260 1.899 . S
O259 C267 1.284 . S
Zn260 O259 1.899 . S
Zn260 O261 2.032 . S
Zn260 O264 2.086 . S
Zn260 O269 1.977 . S
O261 Zn260 2.032 . S
O261 C265 1.278 . S
C262 O263 1.203 . S
C262 O269 1.267 . S
O263 C262 1.203 . S
O264 C257 1.185 . S
O264 Zn260 2.086 . S
C265 O261 1.278 . S
C265 O266 1.211 . S
O266 C265 1.211 . S
C267 O259 1.284 . S
C267 O268 1.273 . S
O268 C267 1.273 . S
O269 Zn260 1.977 . S
O269 C262 1.267 . S
C270 O271 1.160 . S
C270 O277 1.185 . S
O271 C270 1.160 . S
O272 Zn273 1.899 . S
O272 C280 1.284 . S
Zn273 O272 1.899 . S
Zn273 O274 2.032 . S
Zn273 O277 2.086 . S
Zn273 O282 1.977 . S
O274 Zn273 2.032 . S
O274 C278 1.278 . S
C275 O276 1.203 . S
C275 O282 1.267 . S
O276 C275 1.203 . S
O277 C270 1.185 . S
O277 Zn273 2.086 . S
C278 O274 1.278 . S
C278 O279 1.211 . S
O279 C278 1.211 . S
C280 O272 1.284 . S
C280 O281 1.273 . S
O281 C280 1.273 . S
O282 Zn273 1.977 . S
O282 C275 1.267 . S
C283 O284 1.160 . S
C283 O290 1.185 . S
O284 C283 1.160 . S
O285 Zn286 1.899 . S
O285 C293 1.284 1_565 S
Zn286 O285 1.899 . S
Zn286 O287 2.032 1_565 S
Zn286 O290 2.086 . S
Zn286 O295 1.977 . S
O287 Zn286 2.032 1_545 S
O287 C291 1.278 . S
C288 O289 1.203 1_565 S
C288 O295 1.267 . S
O289 C288 1.203 1_545 S
O290 C283 1.185 . S
O290 Zn286 2.086 . S
C291 O287 1.278 . S
C291 O292 1.211 . S
O292 C291 1.211 . S
C293 O285 1.284 1_545 S
C293 O294 1.273 . S
O294 C293 1.273 . S
O295 Zn286 1.977 . S
O295 C288 1.267 . S
C296 O297 1.160 1_455 S
C296 O303 1.185 . S
O297 C296 1.160 1_655 S
O298 Zn299 1.899 1_655 S
O298 C306 1.284 . S
Zn299 O298 1.899 1_455 S
Zn299 O300 2.032 . S
Zn299 O303 2.086 . S
Zn299 O308 1.977 . S
O300 Zn299 2.032 . S
O300 C304 1.278 . S
C301 O302 1.203 . S
C301 O308 1.267 . S
O302 C301 1.203 . S
O303 C296 1.185 . S
O303 Zn299 2.086 . S
C304 O300 1.278 . S
C304 O305 1.211 . S
O305 C304 1.211 . S
C306 O298 1.284 . S
C306 O307 1.273 . S
O307 C306 1.273 . S
O308 Zn299 1.977 . S
O308 C301 1.267 . S
C309 O310 1.160 . S
C309 O316 1.185 . S
O310 C309 1.160 . S
O311 Zn312 1.899 . S
O311 C319 1.284 . S
Zn312 O311 1.899 . S
Zn312 O313 2.032 . S
Zn312 O316 2.086 . S
Zn312 O321 1.977 . S
O313 Zn312 2.032 . S
O313 C317 1.278 . S
C314 O315 1.203 . S
C314 O321 1.267 . S
O315 C314 1.203 . S
O316 C309 1.185 . S
O316 Zn312 2.086 . S
C317 O313 1.278 . S
C317 O318 1.211 . S
O318 C317 1.211 . S
C319 O311 1.284 . S
C319 O320 1.273 . S
O320 C319 1.273 . S
O321 Zn312 1.977 . S
O321 C314 1.267 . S
C322 O323 1.110 1_455 S
C322 O329 1.185 . S
O323 C322 1.110 1_655 S
O324 Zn325 1.899 1_655 S
O324 C332 1.284 . S
Zn325 O324 1.899 1_455 S
Zn325 O326 2.032 . S
Zn325 O329 2.086 . S
Zn325 O334 1.977 . S
O326 Zn325 2.032 . S
O326 C330 1.278 . S
C327 O328 1.203 . S
C327 O334 1.267 . S
O328 C327 1.203 . S
O329 C322 1.185 . S
O329 Zn325 2.086 . S
C330 O326 1.278 . S
C330 O331 1.211 . S
O331 C330 1.211 . S
C332 O324 1.284 . S
C332 O333 1.273 . S
O333 C332 1.273 . S
O334 Zn325 1.977 . S
O334 C327 1.267 . S
C335 O336 1.160 . S
C335 O342 1.185 . S
O336 C335 1.160 . S
O337 Zn338 1.899 . S
O337 C345 1.284 . S
Zn338 O337 1.899 . S
Zn338 O339 2.032 . S
Zn338 O342 2.086 . S
Zn338 O347 1.977 . S
O339 Zn338 2.032 . S
O339 C343 1.278 . S
C340 O341 1.203 . S
C340 O347 1.267 . S
O341 C340 1.203 . S
O342 C335 1.185 . S
O342 Zn338 2.086 . S
C343 O339 1.278 . S
C343 O344 1.211 . S
O344 C343 1.211 . S
C345 O337 1.284 . S
C345 O346 1.273 . S
O346 C345 1.273 . S
O347 Zn338 1.977 . S
O347 C340 1.267 . S
H348 C356 0.929 . S
H349 C358 0.930 . S
H350 C360 0.930 . S
H351 C363 0.929 . S
H352 C366 0.930 . S
H353 C368 0.960 . S
H354 C368 0.960 . S
H355 C368 0.960 . S
C356 H348 0.929 . S
C356 C357 1.377 . S
C356 C358 1.384 . S
C357 C356 1.377 . S
C357 C363 1.390 . S
C358 H349 0.930 . S
C358 C356 1.384 . S
C358 C359 1.372 . S
C359 C358 1.372 . S
C359 C360 1.400 . S
C359 C364 1.490 . S
C360 H350 0.930 . S
C360 C359 1.400 . S
C360 C363 1.386 . S
H361 C377 0.930 . S
H362 C378 0.931 . S
C363 H351 0.929 . S
C363 C357 1.390 . S
C363 C360 1.386 . S
C364 C359 1.490 . S
C364 C366 1.395 . S
C364 C367 1.403 . S
H365 C371 0.930 . S
C366 H352 0.930 . S
C366 C364 1.395 . S
C366 C369 1.403 . S
C367 C364 1.403 . S
C367 C368 1.524 . S
C367 C371 1.400 . S
C368 H353 0.960 . S
C368 H354 0.960 . S
C368 H355 0.960 . S
C368 C367 1.524 . S
C369 C366 1.403 . S
C369 C370 1.392 . S
C369 C373 1.495 . S
C370 C369 1.392 . S
C370 C371 1.385 . S
C370 C372 1.478 . S
C371 H365 0.930 . S
C371 C367 1.400 . S
C371 C370 1.385 . S
C372 C370 1.478 . S
C372 C374 1.381 . S
C372 C378 1.383 . S
C373 C369 1.495 . S
C373 H379 0.959 . S
C373 H380 0.961 . S
C373 H381 0.960 . S
C374 C372 1.381 . S
C374 C375 1.394 . S
C374 H382 0.930 . S
C375 C374 1.394 . S
C375 C376 1.383 . S
C375 H383 0.929 . S
C376 C375 1.383 . S
C376 C377 1.377 . S
C377 H361 0.930 . S
C377 C376 1.377 . S
C377 C378 1.379 . S
C378 H362 0.931 . S
C378 C372 1.383 . S
C378 C377 1.379 . S
H379 C373 0.959 . S
H380 C373 0.961 . S
H381 C373 0.960 . S
H382 C374 0.930 . S
H383 C375 0.929 . S
H384 C392 0.929 . S
H385 C394 0.930 . S
H386 C396 0.930 . S
H387 C399 0.929 . S
H388 C402 0.930 . S
H389 C404 0.960 . S
H390 C404 0.960 . S
H391 C404 0.960 . S
C392 H384 0.929 . S
C392 C393 1.377 . S
C392 C394 1.384 . S
C393 C392 1.377 . S
C393 C399 1.390 . S
C394 H385 0.930 . S
C394 C392 1.384 . S
C394 C395 1.372 . S
C395 C394 1.372 . S
C395 C396 1.400 . S
C395 C400 1.490 . S
C396 H386 0.930 . S
C396 C395 1.400 . S
C396 C399 1.386 . S
H397 C413 0.930 . S
H398 C414 0.931 . S
C399 H387 0.929 . S
C399 C393 1.390 . S
C399 C396 1.386 . S
C400 C395 1.490 . S
C400 C402 1.395 . S
C400 C403 1.403 . S
H401 C407 0.930 . S
C402 H388 0.930 . S
C402 C400 1.395 . S
C402 C405 1.403 . S
C403 C400 1.403 . S
C403 C404 1.524 . S
C403 C407 1.400 . S
C404 H389 0.960 . S
C404 H390 0.960 . S
C404 H391 0.960 . S
C404 C403 1.524 . S
C405 C402 1.403 . S
C405 C406 1.392 . S
C405 C409 1.495 . S
C406 C405 1.392 . S
C406 C407 1.385 . S
C406 C408 1.478 . S
C407 H401 0.930 . S
C407 C403 1.400 . S
C407 C406 1.385 . S
C408 C406 1.478 . S
C408 C410 1.381 . S
C408 C414 1.383 . S
C409 C405 1.495 . S
C409 H415 0.959 . S
C409 H416 0.961 . S
C409 H417 0.960 . S
C410 C408 1.381 . S
C410 C411 1.394 . S
C410 H418 0.930 . S
C411 C410 1.394 . S
C411 C412 1.383 . S
C411 H419 0.929 . S
C412 C411 1.383 . S
C412 C413 1.377 . S
C413 H397 0.930 . S
C413 C412 1.377 . S
C413 C414 1.379 . S
C414 H398 0.931 . S
C414 C408 1.383 . S
C414 C413 1.379 . S
H415 C409 0.959 . S
H416 C409 0.961 . S
H417 C409 0.960 . S
H418 C410 0.930 . S
H419 C411 0.929 . S
H420 C428 0.929 . S
H421 C430 0.930 . S
H422 C432 0.930 . S
H423 C435 0.929 . S
H424 C438 0.930 . S
H425 C440 0.960 . S
H426 C440 0.960 . S
H427 C440 0.960 . S
C428 H420 0.929 . S
C428 C429 1.377 . S
C428 C430 1.384 . S
C429 C428 1.377 . S
C429 C435 1.390 . S
C430 H421 0.930 . S
C430 C428 1.384 . S
C430 C431 1.372 . S
C431 C430 1.372 . S
C431 C432 1.400 . S
C431 C436 1.490 . S
C432 H422 0.930 . S
C432 C431 1.400 . S
C432 C435 1.386 . S
H433 C449 0.930 . S
H434 C450 0.931 . S
C435 H423 0.929 . S
C435 C429 1.390 . S
C435 C432 1.386 . S
C436 C431 1.490 . S
C436 C438 1.395 . S
C436 C439 1.403 . S
H437 C443 0.930 . S
C438 H424 0.930 . S
C438 C436 1.395 . S
C438 C441 1.403 . S
C439 C436 1.403 . S
C439 C440 1.524 . S
C439 C443 1.400 . S
C440 H425 0.960 . S
C440 H426 0.960 . S
C440 H427 0.960 . S
C440 C439 1.524 . S
C441 C438 1.403 . S
C441 C442 1.392 . S
C441 C445 1.495 . S
C442 C441 1.392 . S
C442 C443 1.385 . S
C442 C444 1.478 . S
C443 H437 0.930 . S
C443 C439 1.400 . S
C443 C442 1.385 . S
C444 C442 1.478 . S
C444 C446 1.381 . S
C444 C450 1.383 . S
C445 C441 1.495 . S
C445 H451 0.959 . S
C445 H452 0.961 . S
C445 H453 0.960 . S
C446 C444 1.381 . S
C446 C447 1.394 . S
C446 H454 0.930 . S
C447 C446 1.394 . S
C447 C448 1.383 . S
C447 H455 0.929 . S
C448 C447 1.383 . S
C448 C449 1.377 . S
C449 H433 0.930 . S
C449 C448 1.377 . S
C449 C450 1.379 . S
C450 H434 0.931 . S
C450 C444 1.383 . S
C450 C449 1.379 . S
H451 C445 0.959 . S
H452 C445 0.961 . S
H453 C445 0.960 . S
H454 C446 0.930 . S
H455 C447 0.929 . S
H456 C464 0.929 . S
H457 C466 0.930 . S
H458 C468 0.930 . S
H459 C471 0.929 . S
H460 C474 0.930 . S
H461 C476 0.960 . S
H462 C476 0.960 1_565 S
H463 C476 0.960 . S
C464 H456 0.929 . S
C464 C465 1.377 . S
C464 C466 1.384 . S
C465 C464 1.377 . S
C465 C471 1.390 1_565 S
C466 H457 0.930 . S
C466 C464 1.384 . S
C466 C467 1.372 1_565 S
C467 C466 1.372 1_545 S
C467 C468 1.400 . S
C467 C472 1.490 . S
C468 H458 0.930 . S
C468 C467 1.400 . S
C468 C471 1.386 . S
H469 C485 0.930 . S
H470 C486 0.931 . S
C471 H459 0.929 . S
C471 C465 1.390 1_545 S
C471 C468 1.386 . S
C472 C467 1.490 . S
C472 C474 1.395 1_455 S
C472 C475 1.403 . S
H473 C479 0.930 . S
C474 H460 0.930 . S
C474 C472 1.395 1_655 S
C474 C477 1.403 . S
C475 C472 1.403 . S
C475 C476 1.524 . S
C475 C479 1.400 . S
C476 H461 0.960 . S
C476 H462 0.960 1_545 S
C476 H463 0.960 . S
C476 C475 1.524 . S
C477 C474 1.403 . S
C477 C478 1.392 . S
C477 C481 1.495 . S
C478 C477 1.392 . S
C478 C479 1.385 1_655 S
C478 C480 1.478 . S
C479 H473 0.930 . S
C479 C475 1.400 . S
C479 C478 1.385 1_455 S
C480 C478 1.478 . S
C480 C482 1.381 . S
C480 C486 1.383 . S
C481 C477 1.495 . S
C481 H487 0.959 . S
C481 H488 0.961 . S
C481 H489 0.960 . S
C482 C480 1.381 . S
C482 C483 1.394 . S
C482 H490 0.930 1_545 S
C483 C482 1.394 . S
C483 C484 1.383 . S
C483 H491 0.901 1_545 S
C484 C483 1.383 . S
C484 C485 1.377 . S
C485 H469 0.930 . S
C485 C484 1.377 . S
C485 C486 1.379 . S
C486 H470 0.931 . S
C486 C480 1.383 . S
C486 C485 1.379 . S
H487 C481 0.959 . S
H488 C481 0.961 . S
H489 C481 0.960 . S
H490 C482 0.930 1_565 S
H491 C483 0.901 1_565 S
H492 C500 0.929 . S
H493 C502 0.930 . S
H494 C504 0.930 . S
H495 C507 0.929 . S
H496 C510 0.930 . S
H497 C512 0.960 . S
H498 C512 0.960 . S
H499 C512 0.960 . S
C500 H492 0.929 . S
C500 C501 1.377 . S
C500 C502 1.384 . S
C501 C500 1.377 . S
C501 C507 1.390 . S
C502 H493 0.930 . S
C502 C500 1.384 . S
C502 C503 1.372 . S
C503 C502 1.372 . S
C503 C504 1.400 . S
C503 C508 1.490 . S
C504 H494 0.930 . S
C504 C503 1.400 . S
C504 C507 1.386 . S
H505 C521 0.930 . S
H506 C522 0.931 . S
C507 H495 0.929 . S
C507 C501 1.390 . S
C507 C504 1.386 . S
C508 C503 1.490 . S
C508 C510 1.395 . S
C508 C511 1.403 . S
H509 C515 0.930 . S
C510 H496 0.930 . S
C510 C508 1.395 . S
C510 C513 1.403 . S
C511 C508 1.403 . S
C511 C512 1.524 . S
C511 C515 1.400 . S
C512 H497 0.960 . S
C512 H498 0.960 . S
C512 H499 0.960 . S
C512 C511 1.524 . S
C513 C510 1.403 . S
C513 C514 1.392 . S
C513 C517 1.495 . S
C514 C513 1.392 . S
C514 C515 1.385 . S
C514 C516 1.478 . S
C515 H509 0.930 . S
C515 C511 1.400 . S
C515 C514 1.385 . S
C516 C514 1.478 . S
C516 C518 1.381 . S
C516 C522 1.383 . S
C517 C513 1.495 . S
C517 H523 0.959 . S
C517 H524 0.961 . S
C517 H525 0.960 . S
C518 C516 1.381 . S
C518 C519 1.394 . S
C518 H526 0.930 . S
C519 C518 1.394 . S
C519 C520 1.383 . S
C519 H527 0.929 . S
C520 C519 1.383 . S
C520 C521 1.377 . S
C521 H505 0.930 . S
C521 C520 1.377 . S
C521 C522 1.379 . S
C522 H506 0.931 . S
C522 C516 1.383 . S
C522 C521 1.379 . S
H523 C517 0.959 . S
H524 C517 0.961 . S
H525 C517 0.960 . S
H526 C518 0.930 . S
H527 C519 0.929 . S
H528 C536 0.929 . S
H529 C538 0.930 . S
H530 C540 0.930 . S
H531 C543 0.929 . S
H532 C546 0.930 . S
H533 C548 0.960 . S
H534 C548 0.960 . S
H535 C548 0.960 . S
C536 H528 0.929 . S
C536 C537 1.377 . S
C536 C538 1.384 . S
C537 C536 1.377 . S
C537 C543 1.390 . S
C538 H529 0.930 . S
C538 C536 1.384 . S
C538 C539 1.372 . S
C539 C538 1.372 . S
C539 C540 1.400 . S
C539 C544 1.490 . S
C540 H530 0.930 . S
C540 C539 1.400 . S
C540 C543 1.386 . S
H541 C557 0.930 . S
H542 C558 0.931 . S
C543 H531 0.929 . S
C543 C537 1.390 . S
C543 C540 1.386 . S
C544 C539 1.490 . S
C544 C546 1.395 . S
C544 C547 1.403 . S
H545 C551 0.930 . S
C546 H532 0.930 . S
C546 C544 1.395 . S
C546 C549 1.403 . S
C547 C544 1.403 . S
C547 C548 1.524 . S
C547 C551 1.400 . S
C548 H533 0.960 . S
C548 H534 0.960 . S
C548 H535 0.960 . S
C548 C547 1.524 . S
C549 C546 1.403 . S
C549 C550 1.392 . S
C549 C553 1.495 . S
C550 C549 1.392 . S
C550 C551 1.385 . S
C550 C552 1.478 . S
C551 H545 0.930 . S
C551 C547 1.400 . S
C551 C550 1.385 . S
C552 C550 1.478 . S
C552 C554 1.381 . S
C552 C558 1.383 . S
C553 C549 1.495 . S
C553 H559 0.959 . S
C553 H560 0.961 . S
C553 H561 0.960 . S
C554 C552 1.381 . S
C554 C555 1.394 . S
C554 H562 0.930 . S
C555 C554 1.394 . S
C555 C556 1.383 . S
C555 H563 0.929 . S
C556 C555 1.383 . S
C556 C557 1.377 . S
C557 H541 0.930 . S
C557 C556 1.377 . S
C557 C558 1.379 . S
C558 H542 0.931 . S
C558 C552 1.383 . S
C558 C557 1.379 . S
H559 C553 0.959 . S
H560 C553 0.961 . S
H561 C553 0.960 . S
H562 C554 0.930 . S
H563 C555 0.929 . S
H564 C572 0.929 . S
H565 C574 0.930 . S
H566 C576 0.930 . S
H567 C579 0.929 . S
H568 C582 0.930 . S
H569 C584 0.960 . S
H570 C584 0.960 . S
H571 C584 0.960 . S
C572 H564 0.929 . S
C572 C573 1.377 . S
C572 C574 1.384 . S
C573 C572 1.377 . S
C573 C579 1.390 . S
C574 H565 0.930 . S
C574 C572 1.384 . S
C574 C575 1.372 . S
C575 C574 1.372 . S
C575 C576 1.400 . S
C575 C580 1.490 . S
C576 H566 0.930 . S
C576 C575 1.400 . S
C576 C579 1.386 . S
H577 C593 0.930 . S
H578 C594 0.931 . S
C579 H567 0.929 . S
C579 C573 1.390 . S
C579 C576 1.386 . S
C580 C575 1.490 . S
C580 C582 1.395 . S
C580 C583 1.403 . S
H581 C587 0.930 . S
C582 H568 0.930 . S
C582 C580 1.395 . S
C582 C585 1.403 . S
C583 C580 1.403 . S
C583 C584 1.524 . S
C583 C587 1.400 . S
C584 H569 0.960 . S
C584 H570 0.960 . S
C584 H571 0.960 . S
C584 C583 1.524 . S
C585 C582 1.403 . S
C585 C586 1.392 . S
C585 C589 1.495 . S
C586 C585 1.392 . S
C586 C587 1.385 . S
C586 C588 1.478 . S
C587 H581 0.930 . S
C587 C583 1.400 . S
C587 C586 1.385 . S
C588 C586 1.478 . S
C588 C590 1.381 . S
C588 C594 1.383 . S
C589 C585 1.495 . S
C589 H595 0.959 . S
C589 H596 0.961 . S
C589 H597 0.960 . S
C590 C588 1.381 . S
C590 C591 1.394 . S
C590 H598 0.930 . S
C591 C590 1.394 . S
C591 C592 1.383 . S
C591 H599 0.929 . S
C592 C591 1.383 . S
C592 C593 1.377 . S
C593 H577 0.930 . S
C593 C592 1.377 . S
C593 C594 1.379 . S
C594 H578 0.931 . S
C594 C588 1.383 . S
C594 C593 1.379 . S
H595 C589 0.959 . S
H596 C589 0.961 . S
H597 C589 0.960 . S
H598 C590 0.930 . S
H599 C591 0.929 . S
H600 C608 0.929 . S
H601 C610 0.930 . S
H602 C612 0.930 . S
H603 C615 0.929 . S
H604 C618 0.930 . S
H605 C620 0.960 . S
H606 C620 0.960 . S
H607 C620 0.960 . S
C608 H600 0.929 . S
C608 C609 1.377 . S
C608 C610 1.384 . S
C609 C608 1.377 . S
C609 C615 1.390 . S
C610 H601 0.930 . S
C610 C608 1.384 . S
C610 C611 1.372 . S
C611 C610 1.372 . S
C611 C612 1.400 . S
C611 C616 1.490 . S
C612 H602 0.930 . S
C612 C611 1.400 . S
C612 C615 1.386 . S
H613 C629 0.937 . S
H614 C630 0.931 . S
C615 H603 0.929 . S
C615 C609 1.390 . S
C615 C612 1.386 . S
C616 C611 1.490 . S
C616 C618 1.395 . S
C616 C619 1.403 1_565 S
H617 C623 0.930 . S
C618 H604 0.930 . S
C618 C616 1.395 . S
C618 C621 1.403 . S
C619 C616 1.403 1_545 S
C619 C620 1.524 . S
C619 C623 1.400 . S
C620 H605 0.960 . S
C620 H606 0.960 . S
C620 H607 0.960 . S
C620 C619 1.524 . S
C621 C618 1.403 . S
C621 C622 1.392 . S
C621 C625 1.495 . S
C622 C621 1.392 . S
C622 C623 1.385 1_565 S
C622 C624 1.478 . S
C623 H617 0.930 . S
C623 C619 1.400 . S
C623 C622 1.385 1_545 S
C624 C622 1.478 . S
C624 C626 1.381 . S
C624 C630 1.383 . S
C625 C621 1.495 . S
C625 H631 0.959 . S
C625 H632 0.961 . S
C625 H633 0.960 . S
C626 C624 1.381 . S
C626 C627 1.394 . S
C626 H634 0.930 . S
C627 C626 1.394 . S
C627 C628 1.383 . S
C627 H635 0.929 . S
C628 C627 1.383 . S
C628 C629 1.377 . S
C629 H613 0.937 . S
C629 C628 1.377 . S
C629 C630 1.379 . S
C630 H614 0.931 . S
C630 C624 1.383 . S
C630 C629 1.379 . S
H631 C625 0.959 . S
H632 C625 0.961 . S
H633 C625 0.960 . S
H634 C626 0.930 . S
H635 C627 0.929 . S
H636 C644 0.929 . S
H637 C646 0.930 . S
H638 C648 0.930 . S
H639 C651 0.929 . S
H640 C654 0.930 . S
H641 C656 0.960 . S
H642 C656 0.960 . S
H643 C656 0.960 . S
C644 H636 0.929 . S
C644 C645 1.377 . S
C644 C646 1.384 . S
C645 C644 1.377 . S
C645 C651 1.390 . S
C646 H637 0.930 . S
C646 C644 1.384 . S
C646 C647 1.372 . S
C647 C646 1.372 . S
C647 C648 1.400 . S
C647 C652 1.490 . S
C648 H638 0.930 . S
C648 C647 1.400 . S
C648 C651 1.386 . S
H649 C665 0.930 . S
H650 C666 0.931 . S
C651 H639 0.929 . S
C651 C645 1.390 . S
C651 C648 1.386 . S
C652 C647 1.490 . S
C652 C654 1.395 . S
C652 C655 1.403 . S
H653 C659 0.930 . S
C654 H640 0.930 . S
C654 C652 1.395 . S
C654 C657 1.403 . S
C655 C652 1.403 . S
C655 C656 1.524 . S
C655 C659 1.400 . S
C656 H641 0.960 . S
C656 H642 0.960 . S
C656 H643 0.960 . S
C656 C655 1.524 . S
C657 C654 1.403 . S
C657 C658 1.392 . S
C657 C661 1.495 . S
C658 C657 1.392 . S
C658 C659 1.385 . S
C658 C660 1.478 . S
C659 H653 0.930 . S
C659 C655 1.400 . S
C659 C658 1.385 . S
C660 C658 1.478 . S
C660 C662 1.381 . S
C660 C666 1.383 . S
C661 C657 1.495 . S
C661 H667 0.959 . S
C661 H668 0.961 . S
C661 H669 0.960 . S
C662 C660 1.381 . S
C662 C663 1.394 . S
C662 H670 0.930 . S
C663 C662 1.394 . S
C663 C664 1.383 . S
C663 H671 0.929 . S
C664 C663 1.383 . S
C664 C665 1.377 . S
C665 H649 0.930 . S
C665 C664 1.377 . S
C665 C666 1.379 . S
C666 H650 0.931 . S
C666 C660 1.383 . S
C666 C665 1.379 . S
H667 C661 0.959 . S
H668 C661 0.961 . S
H669 C661 0.960 . S
H670 C662 0.930 . S
H671 C663 0.929 . S
H672 C680 0.929 . S
H673 C682 0.930 . S
H674 C684 0.930 . S
H675 C687 0.929 . S
H676 C690 0.930 . S
H677 C692 0.960 . S
H678 C692 0.960 . S
H679 C692 0.960 . S
C680 H672 0.929 . S
C680 C681 1.377 . S
C680 C682 1.384 . S
C681 C680 1.377 . S
C681 C687 1.390 . S
C682 H673 0.930 . S
C682 C680 1.384 . S
C682 C683 1.372 . S
C683 C682 1.372 . S
C683 C684 1.400 . S
C683 C688 1.490 . S
C684 H674 0.930 . S
C684 C683 1.400 . S
C684 C687 1.386 . S
H685 C701 0.930 . S
H686 C702 0.931 . S
C687 H675 0.929 . S
C687 C681 1.390 . S
C687 C684 1.386 . S
C688 C683 1.490 . S
C688 C690 1.395 . S
C688 C691 1.403 . S
H689 C695 0.930 . S
C690 H676 0.930 . S
C690 C688 1.395 . S
C690 C693 1.403 . S
C691 C688 1.403 . S
C691 C692 1.524 . S
C691 C695 1.400 . S
C692 H677 0.960 . S
C692 H678 0.960 . S
C692 H679 0.960 . S
C692 C691 1.524 . S
C693 C690 1.403 . S
C693 C694 1.392 . S
C693 C697 1.495 . S
C694 C693 1.392 . S
C694 C695 1.385 . S
C694 C696 1.478 . S
C695 H689 0.930 . S
C695 C691 1.400 . S
C695 C694 1.385 . S
C696 C694 1.478 . S
C696 C698 1.381 . S
C696 C702 1.383 . S
C697 C693 1.495 . S
C697 H703 0.959 . S
C697 H704 0.961 . S
C697 H705 0.960 . S
C698 C696 1.381 . S
C698 C699 1.394 . S
C698 H706 0.930 . S
C699 C698 1.394 . S
C699 C700 1.383 . S
C699 H707 0.929 . S
C700 C699 1.383 . S
C700 C701 1.377 . S
C701 H685 0.930 . S
C701 C700 1.377 . S
C701 C702 1.379 . S
C702 H686 0.931 . S
C702 C696 1.383 . S
C702 C701 1.379 . S
H703 C697 0.959 . S
H704 C697 0.961 . S
H705 C697 0.960 . S
H706 C698 0.930 . S
H707 C699 0.929 . S
H708 C716 0.929 . S
H709 C718 0.930 . S
H710 C720 0.930 . S
H711 C723 0.929 . S
H712 C726 0.930 . S
H713 C728 0.960 . S
H714 C728 0.960 . S
H715 C728 0.960 . S
C716 H708 0.929 . S
C716 C717 1.377 . S
C716 C718 1.384 . S
C717 C716 1.377 . S
C717 C723 1.390 . S
C718 H709 0.930 . S
C718 C716 1.384 . S
C718 C719 1.372 . S
C719 C718 1.372 . S
C719 C720 1.400 . S
C719 C724 1.490 . S
C720 H710 0.930 . S
C720 C719 1.400 . S
C720 C723 1.386 . S
H721 C737 0.930 . S
H722 C738 0.931 . S
C723 H711 0.929 . S
C723 C717 1.390 . S
C723 C720 1.386 . S
C724 C719 1.490 . S
C724 C726 1.395 . S
C724 C727 1.403 . S
H725 C731 0.930 . S
C726 H712 0.930 . S
C726 C724 1.395 . S
C726 C729 1.403 . S
C727 C724 1.403 . S
C727 C728 1.524 . S
C727 C731 1.400 . S
C728 H713 0.960 . S
C728 H714 0.960 . S
C728 H715 0.960 . S
C728 C727 1.524 . S
C729 C726 1.403 . S
C729 C730 1.392 . S
C729 C733 1.495 . S
C730 C729 1.392 . S
C730 C731 1.385 . S
C730 C732 1.478 . S
C731 H725 0.930 . S
C731 C727 1.400 . S
C731 C730 1.385 . S
C732 C730 1.478 . S
C732 C734 1.381 . S
C732 C738 1.383 . S
C733 C729 1.495 . S
C733 H739 0.959 . S
C733 H740 0.961 . S
C733 H741 0.960 . S
C734 C732 1.381 . S
C734 C735 1.394 . S
C734 H742 0.930 . S
C735 C734 1.394 . S
C735 C736 1.383 . S
C735 H743 0.929 . S
C736 C735 1.383 . S
C736 C737 1.377 . S
C737 H721 0.930 . S
C737 C736 1.377 . S
C737 C738 1.379 . S
C738 H722 0.931 . S
C738 C732 1.383 . S
C738 C737 1.379 . S
H739 C733 0.959 . S
H740 C733 0.961 . S
H741 C733 0.960 . S
H742 C734 0.930 . S
H743 C735 0.929 . S
H744 C752 0.929 . S
H745 C754 0.930 . S
H746 C756 0.930 . S
H747 C759 0.929 . S
H748 C762 0.930 . S
H749 C764 0.960 . S
H750 C764 0.960 . S
H751 C764 0.960 . S
C752 H744 0.929 . S
C752 C753 1.377 . S
C752 C754 1.384 . S
C753 C752 1.377 . S
C753 C759 1.390 . S
C754 H745 0.930 . S
C754 C752 1.384 . S
C754 C755 1.372 . S
C755 C754 1.372 . S
C755 C756 1.400 . S
C755 C760 1.490 . S
C756 H746 0.930 . S
C756 C755 1.400 . S
C756 C759 1.386 . S
H757 C773 0.930 . S
H758 C774 0.931 . S
C759 H747 0.929 . S
C759 C753 1.390 . S
C759 C756 1.386 . S
C760 C755 1.490 . S
C760 C762 1.395 . S
C760 C763 1.403 . S
H761 C767 0.930 . S
C762 H748 0.930 . S
C762 C760 1.395 . S
C762 C765 1.403 . S
C763 C760 1.403 . S
C763 C764 1.524 . S
C763 C767 1.400 . S
C764 H749 0.960 . S
C764 H750 0.960 . S
C764 H751 0.960 . S
C764 C763 1.524 . S
C765 C762 1.403 . S
C765 C766 1.392 . S
C765 C769 1.495 . S
C766 C765 1.392 . S
C766 C767 1.385 . S
C766 C768 1.478 . S
C767 H761 0.930 . S
C767 C763 1.400 . S
C767 C766 1.385 . S
C768 C766 1.478 . S
C768 C770 1.381 . S
C768 C774 1.383 . S
C769 C765 1.495 . S
C769 H775 0.959 . S
C769 H776 0.961 . S
C769 H777 0.960 . S
C770 C768 1.381 . S
C770 C771 1.394 . S
C770 H778 0.930 . S
C771 C770 1.394 . S
C771 C772 1.383 . S
C771 H779 0.929 . S
C772 C771 1.383 . S
C772 C773 1.377 . S
C773 H757 0.930 . S
C773 C772 1.377 . S
C773 C774 1.379 . S
C774 H758 0.931 . S
C774 C768 1.383 . S
C774 C773 1.379 . S
H775 C769 0.959 . S
H776 C769 0.961 . S
H777 C769 0.960 . S
H778 C770 0.930 . S
H779 C771 0.929 . S
H780 C788 0.929 . S
H781 C790 0.930 . S
H782 C792 0.930 . S
H783 C795 0.929 . S
H784 C798 0.930 . S
H785 C800 0.960 . S
H786 C800 0.960 . S
H787 C800 0.960 . S
C788 H780 0.929 . S
C788 C789 1.377 . S
C788 C790 1.384 . S
C789 C788 1.377 . S
C789 C795 1.390 . S
C790 H781 0.930 . S
C790 C788 1.384 . S
C790 C791 1.372 . S
C791 C790 1.372 . S
C791 C792 1.400 . S
C791 C796 1.490 . S
C792 H782 0.930 . S
C792 C791 1.400 . S
C792 C795 1.386 . S
H793 C809 0.930 . S
H794 C810 0.931 . S
C795 H783 0.929 . S
C795 C789 1.390 . S
C795 C792 1.386 . S
C796 C791 1.490 . S
C796 C798 1.395 . S
C796 C799 1.403 . S
H797 C803 0.930 . S
C798 H784 0.930 . S
C798 C796 1.395 . S
C798 C801 1.403 . S
C799 C796 1.403 . S
C799 C800 1.524 . S
C799 C803 1.400 . S
C800 H785 0.960 . S
C800 H786 0.960 . S
C800 H787 0.960 . S
C800 C799 1.524 . S
C801 C798 1.403 . S
C801 C802 1.392 . S
C801 C805 1.495 . S
C802 C801 1.392 . S
C802 C803 1.385 . S
C802 C804 1.478 . S
C803 H797 0.930 . S
C803 C799 1.400 . S
C803 C802 1.385 . S
C804 C802 1.478 . S
C804 C806 1.381 . S
C804 C810 1.383 . S
C805 C801 1.495 . S
C805 H811 0.959 . S
C805 H812 0.961 . S
C805 H813 0.960 . S
C806 C804 1.381 . S
C806 C807 1.394 . S
C806 H814 0.930 . S
C807 C806 1.394 . S
C807 C808 1.383 . S
C807 H815 0.929 . S
C808 C807 1.383 . S
C808 C809 1.377 . S
C809 H793 0.930 . S
C809 C808 1.377 . S
C809 C810 1.379 . S
C810 H794 0.931 . S
C810 C804 1.383 . S
C810 C809 1.379 . S
H811 C805 0.959 . S
H812 C805 0.961 . S
H813 C805 0.960 . S
H814 C806 0.930 . S
H815 C807 0.929 . S
H816 C824 0.929 . S
H817 C826 0.930 . S
H818 C828 0.930 . S
H819 C831 0.929 . S
H820 C834 0.930 . S
H821 C836 0.960 . S
H822 C836 0.960 . S
H823 C836 0.960 . S
C824 H816 0.929 . S
C824 C825 1.377 . S
C824 C826 1.384 . S
C825 C824 1.377 . S
C825 C831 1.390 . S
C826 H817 0.930 . S
C826 C824 1.384 . S
C826 C827 1.372 . S
C827 C826 1.372 . S
C827 C828 1.400 . S
C827 C832 1.490 . S
C828 H818 0.930 . S
C828 C827 1.400 . S
C828 C831 1.386 . S
H829 C845 0.930 . S
H830 C846 0.931 . S
C831 H819 0.929 . S
C831 C825 1.390 . S
C831 C828 1.386 . S
C832 C827 1.490 . S
C832 C834 1.395 . S
C832 C835 1.403 . S
H833 C839 0.930 . S
C834 H820 0.930 . S
C834 C832 1.395 . S
C834 C837 1.403 . S
C835 C832 1.403 . S
C835 C836 1.524 . S
C835 C839 1.400 . S
C836 H821 0.960 . S
C836 H822 0.960 . S
C836 H823 0.960 . S
C836 C835 1.524 . S
C837 C834 1.403 . S
C837 C838 1.392 . S
C837 C841 1.495 1_455 S
C838 C837 1.392 . S
C838 C839 1.385 . S
C838 C840 1.478 . S
C839 H833 0.930 . S
C839 C835 1.400 . S
C839 C838 1.385 . S
C840 C838 1.478 . S
C840 C842 1.381 . S
C840 C846 1.383 . S
C841 C837 1.495 1_655 S
C841 H847 0.959 . S
C841 H848 0.961 . S
C841 H849 0.960 . S
C842 C840 1.381 . S
C842 C843 1.394 . S
C842 H850 0.930 . S
C843 C842 1.394 . S
C843 C844 1.383 . S
C843 H851 0.929 . S
C844 C843 1.383 . S
C844 C845 1.377 . S
C845 H829 0.930 . S
C845 C844 1.377 . S
C845 C846 1.379 . S
C846 H830 0.931 . S
C846 C840 1.383 . S
C846 C845 1.379 . S
H847 C841 0.959 . S
H848 C841 0.961 . S
H849 C841 0.960 . S
H850 C842 0.930 . S
H851 C843 0.929 . S
H852 C860 0.929 . S
H853 C862 0.930 . S
H854 C864 0.930 . S
H855 C867 0.929 . S
H856 C870 0.930 . S
H857 C872 0.960 . S
H858 C872 0.960 . S
H859 C872 0.960 . S
C860 H852 0.929 . S
C860 C861 1.377 . S
C860 C862 1.384 . S
C861 C860 1.377 . S
C861 C867 1.390 . S
C862 H853 0.930 . S
C862 C860 1.384 . S
C862 C863 1.372 . S
C863 C862 1.372 . S
C863 C864 1.400 . S
C863 C868 1.490 . S
C864 H854 0.930 . S
C864 C863 1.400 . S
C864 C867 1.386 . S
H865 C881 0.930 . S
H866 C882 0.931 . S
C867 H855 0.929 . S
C867 C861 1.390 . S
C867 C864 1.386 . S
C868 C863 1.490 . S
C868 C870 1.395 . S
C868 C871 1.403 . S
H869 C875 0.930 . S
C870 H856 0.930 . S
C870 C868 1.395 . S
C870 C873 1.403 . S
C871 C868 1.403 . S
C871 C872 1.524 . S
C871 C875 1.400 . S
C872 H857 0.960 . S
C872 H858 0.960 . S
C872 H859 0.960 . S
C872 C871 1.524 . S
C873 C870 1.403 . S
C873 C874 1.392 . S
C873 C877 1.495 . S
C874 C873 1.392 . S
C874 C875 1.385 . S
C874 C876 1.478 . S
C875 H869 0.930 . S
C875 C871 1.400 . S
C875 C874 1.385 . S
C876 C874 1.478 . S
C876 C878 1.381 . S
C876 C882 1.383 . S
C877 C873 1.495 . S
C877 H883 0.959 . S
C877 H884 0.961 . S
C877 H885 0.960 . S
C878 C876 1.381 . S
C878 C879 1.394 . S
C878 H886 0.930 . S
C879 C878 1.394 . S
C879 C880 1.383 . S
C879 H887 0.929 . S
C880 C879 1.383 . S
C880 C881 1.377 . S
C881 H865 0.930 . S
C881 C880 1.377 . S
C881 C882 1.379 . S
C882 H866 0.931 . S
C882 C876 1.383 . S
C882 C881 1.379 . S
H883 C877 0.959 . S
H884 C877 0.961 . S
H885 C877 0.960 . S
H886 C878 0.930 . S
H887 C879 0.929 . S
H888 C896 0.929 . S
H889 C898 0.930 . S
H890 C900 0.930 . S
H891 C903 0.929 . S
H892 C906 0.930 . S
H893 C908 0.960 . S
H894 C908 0.960 1_455 S
H895 C908 0.960 . S
C896 H888 0.929 . S
C896 C897 1.377 1_455 S
C896 C898 1.384 . S
C897 C896 1.377 1_655 S
C897 C903 1.390 . S
C898 H889 0.930 . S
C898 C896 1.384 . S
C898 C899 1.372 1_455 S
C899 C898 1.372 1_655 S
C899 C900 1.400 . S
C899 C904 1.490 . S
C900 H890 0.930 . S
C900 C899 1.400 . S
C900 C903 1.386 . S
H901 C917 0.930 . S
H902 C918 0.931 . S
C903 H891 0.929 . S
C903 C897 1.390 . S
C903 C900 1.386 . S
C904 C899 1.490 . S
C904 C906 1.395 . S
C904 C907 1.403 . S
H905 C911 0.930 . S
C906 H892 0.930 . S
C906 C904 1.395 . S
C906 C909 1.403 . S
C907 C904 1.403 . S
C907 C908 1.524 . S
C907 C911 1.400 . S
C908 H893 0.960 . S
C908 H894 0.960 1_655 S
C908 H895 0.960 . S
C908 C907 1.524 . S
C909 C906 1.403 . S
C909 C910 1.392 . S
C909 C913 1.495 . S
C910 C909 1.392 . S
C910 C911 1.385 . S
C910 C912 1.477 . S
C911 H905 0.930 . S
C911 C907 1.400 . S
C911 C910 1.385 . S
C912 C910 1.477 . S
C912 C914 1.354 1_655 S
C912 C918 1.411 . S
C913 C909 1.495 . S
C913 H919 0.959 . S
C913 H920 0.961 . S
C913 H921 0.960 1_655 S
C914 C912 1.354 1_455 S
C914 C915 1.394 . S
C914 H922 0.930 . S
C915 C914 1.394 . S
C915 C916 1.383 . S
C915 H923 0.929 . S
C916 C915 1.383 . S
C916 C917 1.377 1_455 S
C917 H901 0.930 . S
C917 C916 1.377 1_655 S
C917 C918 1.379 . S
C918 H902 0.931 . S
C918 C912 1.411 . S
C918 C917 1.379 . S
H919 C913 0.959 . S
H920 C913 0.961 . S
H921 C913 0.960 1_455 S
H922 C914 0.930 . S
H923 C915 0.929 . S
H924 C932 0.929 . S
H925 C934 0.930 . S
H926 C936 0.930 . S
H927 C939 0.929 . S
H928 C942 0.930 . S
H929 C944 0.960 . S
H930 C944 0.960 . S
H931 C944 0.960 . S
C932 H924 0.929 . S
C932 C933 1.377 . S
C932 C934 1.384 . S
C933 C932 1.377 . S
C933 C939 1.390 . S
C934 H925 0.930 . S
C934 C932 1.384 . S
C934 C935 1.372 . S
C935 C934 1.372 . S
C935 C936 1.400 . S
C935 C940 1.490 . S
C936 H926 0.930 . S
C936 C935 1.400 . S
C936 C939 1.386 . S
H937 C953 0.930 . S
H938 C954 0.931 . S
C939 H927 0.929 . S
C939 C933 1.390 . S
C939 C936 1.386 . S
C940 C935 1.490 . S
C940 C942 1.395 . S
C940 C943 1.403 . S
H941 C947 0.930 . S
C942 H928 0.930 . S
C942 C940 1.395 . S
C942 C945 1.403 . S
C943 C940 1.403 . S
C943 C944 1.524 . S
C943 C947 1.400 . S
C944 H929 0.960 . S
C944 H930 0.960 . S
C944 H931 0.960 . S
C944 C943 1.524 . S
C945 C942 1.403 . S
C945 C946 1.392 . S
C945 C949 1.495 . S
C946 C945 1.392 . S
C946 C947 1.385 . S
C946 C948 1.478 . S
C947 H941 0.930 . S
C947 C943 1.400 . S
C947 C946 1.385 . S
C948 C946 1.478 . S
C948 C950 1.381 . S
C948 C954 1.383 . S
C949 C945 1.495 . S
C949 H955 0.959 . S
C949 H956 0.961 . S
C949 H957 0.960 . S
C950 C948 1.381 . S
C950 C951 1.394 . S
C950 H958 0.930 . S
C951 C950 1.394 . S
C951 C952 1.383 . S
C951 H959 0.920 1_565 S
C952 C951 1.383 . S
C952 C953 1.377 . S
C953 H937 0.930 . S
C953 C952 1.377 . S
C953 C954 1.379 . S
C954 H938 0.931 . S
C954 C948 1.383 . S
C954 C953 1.379 . S
H955 C949 0.959 . S
H956 C949 0.961 . S
H957 C949 0.960 . S
H958 C950 0.930 . S
H959 C951 0.920 1_545 S
H960 C968 0.929 . S
H961 C970 0.930 . S
H962 C972 0.930 . S
H963 C975 0.929 . S
H964 C978 0.930 . S
H965 C980 0.960 . S
H966 C980 0.960 . S
H967 C980 0.960 . S
C968 H960 0.929 . S
C968 C969 1.377 . S
C968 C970 1.384 . S
C969 C968 1.377 . S
C969 C975 1.390 . S
C970 H961 0.930 . S
C970 C968 1.384 . S
C970 C971 1.372 . S
C971 C970 1.372 . S
C971 C972 1.400 . S
C971 C976 1.490 . S
C972 H962 0.930 . S
C972 C971 1.400 . S
C972 C975 1.386 . S
H973 C989 0.930 . S
H974 C990 0.931 . S
C975 H963 0.929 . S
C975 C969 1.390 . S
C975 C972 1.386 . S
C976 C971 1.490 . S
C976 C978 1.395 . S
C976 C979 1.403 . S
H977 C983 0.930 . S
C978 H964 0.930 . S
C978 C976 1.395 . S
C978 C981 1.403 . S
C979 C976 1.403 . S
C979 C980 1.524 . S
C979 C983 1.400 . S
C980 H965 0.960 . S
C980 H966 0.960 . S
C980 H967 0.960 . S
C980 C979 1.524 . S
C981 C978 1.403 . S
C981 C982 1.392 . S
C981 C985 1.495 . S
C982 C981 1.392 . S
C982 C983 1.385 . S
C982 C984 1.478 . S
C983 H977 0.930 . S
C983 C979 1.400 . S
C983 C982 1.385 . S
C984 C982 1.478 . S
C984 C986 1.381 . S
C984 C990 1.383 . S
C985 C981 1.495 . S
C985 H991 0.959 . S
C985 H992 0.961 . S
C985 H993 0.960 . S
C986 C984 1.381 . S
C986 C987 1.394 . S
C986 H994 0.930 . S
C987 C986 1.394 . S
C987 C988 1.383 . S
C987 H995 0.929 . S
C988 C987 1.383 . S
C988 C989 1.377 . S
C989 H973 0.930 . S
C989 C988 1.377 . S
C989 C990 1.379 . S
C990 H974 0.931 . S
C990 C984 1.383 . S
C990 C989 1.379 . S
H991 C985 0.959 . S
H992 C985 0.961 . S
H993 C985 0.960 . S
H994 C986 0.930 . S
H995 C987 0.929 . S
H996 C1004 0.929 . S
H997 C1006 0.930 . S
H998 C1008 0.930 . S
H999 C1011 0.929 . S
H1000 C1014 0.928 1_545 S
H1001 C1016 0.960 . S
H1002 C1016 0.960 . S
H1003 C1016 0.960 1_556 S
C1004 H996 0.929 . S
C1004 C1005 1.377 . S
C1004 C1006 1.384 . S
C1005 C1004 1.377 . S
C1005 C1011 1.390 1_545 S
C1006 H997 0.930 . S
C1006 C1004 1.384 . S
C1006 C1007 1.372 1_545 S
C1007 C1006 1.372 1_565 S
C1007 C1008 1.400 . S
C1007 C1012 1.490 . S
C1008 H998 0.930 . S
C1008 C1007 1.400 . S
C1008 C1011 1.386 . S
H1009 C1025 0.930 . S
H1010 C1026 0.931 . S
C1011 H999 0.929 . S
C1011 C1005 1.390 1_565 S
C1011 C1008 1.386 . S
C1012 C1007 1.490 . S
C1012 C1014 1.395 . S
C1012 C1015 1.403 . S
H1013 C1019 0.928 . S
C1014 H1000 0.928 1_565 S
C1014 C1012 1.395 . S
C1014 C1017 1.403 . S
C1015 C1012 1.403 . S
C1015 C1016 1.524 1_556 S
C1015 C1019 1.401 1_556 S
C1016 H1001 0.960 . S
C1016 H1002 0.960 . S
C1016 H1003 0.960 1_554 S
C1016 C1015 1.524 1_554 S
C1017 C1014 1.403 . S
C1017 C1018 1.392 . S
C1017 C1021 1.495 . S
C1018 C1017 1.392 . S
C1018 C1019 1.386 1_556 S
C1018 C1020 1.478 1_556 S
C1019 H1013 0.928 . S
C1019 C1015 1.401 1_554 S
C1019 C1018 1.386 1_554 S
C1020 C1018 1.478 1_554 S
C1020 C1022 1.381 . S
C1020 C1026 1.383 1_554 S
C1021 C1017 1.495 . S
C1021 H1027 0.959 . S
C1021 H1028 0.961 . S
C1021 H1029 0.960 . S
C1022 C1020 1.381 . S
C1022 C1023 1.394 . S
C1022 H1030 0.930 . S
C1023 C1022 1.394 . S
C1023 C1024 1.383 . S
C1023 H1031 0.929 . S
C1024 C1023 1.383 . S
C1024 C1025 1.377 1_554 S
C1025 H1009 0.930 . S
C1025 C1024 1.377 1_556 S
C1025 C1026 1.379 . S
C1026 H1010 0.931 . S
C1026 C1020 1.383 1_556 S
C1026 C1025 1.379 . S
H1027 C1021 0.959 . S
H1028 C1021 0.961 . S
H1029 C1021 0.960 . S
H1030 C1022 0.930 . S
H1031 C1023 0.929 . S
H1032 C1040 0.929 . S
H1033 C1042 0.930 . S
H1034 C1044 0.930 . S
H1035 C1047 0.929 . S
H1036 C1050 0.930 . S
H1037 C1052 0.960 . S
H1038 C1052 0.960 . S
H1039 C1052 0.960 . S
C1040 H1032 0.929 . S
C1040 C1041 1.377 . S
C1040 C1042 1.384 . S
C1041 C1040 1.377 . S
C1041 C1047 1.390 . S
C1042 H1033 0.930 . S
C1042 C1040 1.384 . S
C1042 C1043 1.372 . S
C1043 C1042 1.372 . S
C1043 C1044 1.400 . S
C1043 C1048 1.490 . S
C1044 H1034 0.930 . S
C1044 C1043 1.400 . S
C1044 C1047 1.386 . S
H1045 C1061 0.930 . S
H1046 C1062 0.931 . S
C1047 H1035 0.929 . S
C1047 C1041 1.390 . S
C1047 C1044 1.386 . S
C1048 C1043 1.490 . S
C1048 C1050 1.395 . S
C1048 C1051 1.403 . S
H1049 C1055 0.930 . S
C1050 H1036 0.930 . S
C1050 C1048 1.395 . S
C1050 C1053 1.403 . S
C1051 C1048 1.403 . S
C1051 C1052 1.524 . S
C1051 C1055 1.400 . S
C1052 H1037 0.960 . S
C1052 H1038 0.960 . S
C1052 H1039 0.960 . S
C1052 C1051 1.524 . S
C1053 C1050 1.403 . S
C1053 C1054 1.392 . S
C1053 C1057 1.495 . S
C1054 C1053 1.392 . S
C1054 C1055 1.385 . S
C1054 C1056 1.478 . S
C1055 H1049 0.930 . S
C1055 C1051 1.400 . S
C1055 C1054 1.385 . S
C1056 C1054 1.478 . S
C1056 C1058 1.381 . S
C1056 C1062 1.383 . S
C1057 C1053 1.495 . S
C1057 H1063 0.959 . S
C1057 H1064 0.961 . S
C1057 H1065 0.960 . S
C1058 C1056 1.381 . S
C1058 C1059 1.394 . S
C1058 H1066 0.930 . S
C1059 C1058 1.394 . S
C1059 C1060 1.383 . S
C1059 H1067 0.929 . S
C1060 C1059 1.383 . S
C1060 C1061 1.377 . S
C1061 H1045 0.930 . S
C1061 C1060 1.377 . S
C1061 C1062 1.379 . S
C1062 H1046 0.931 . S
C1062 C1056 1.383 . S
C1062 C1061 1.379 . S
H1063 C1057 0.959 . S
H1064 C1057 0.961 . S
H1065 C1057 0.960 . S
H1066 C1058 0.930 . S
H1067 C1059 0.929 . S
H1068 C1076 0.929 . S
H1069 C1078 0.930 . S
H1070 C1080 0.930 . S
H1071 C1083 0.929 . S
H1072 C1086 0.930 . S
H1073 C1088 0.960 . S
H1074 C1088 0.960 . S
H1075 C1088 0.960 . S
C1076 H1068 0.929 . S
C1076 C1077 1.377 . S
C1076 C1078 1.384 . S
C1077 C1076 1.377 . S
C1077 C1083 1.390 . S
C1078 H1069 0.930 . S
C1078 C1076 1.384 . S
C1078 C1079 1.372 . S
C1079 C1078 1.372 . S
C1079 C1080 1.400 . S
C1079 C1084 1.490 . S
C1080 H1070 0.930 . S
C1080 C1079 1.400 . S
C1080 C1083 1.386 . S
H1081 C1097 0.930 . S
H1082 C1098 0.931 . S
C1083 H1071 0.929 . S
C1083 C1077 1.390 . S
C1083 C1080 1.386 . S
C1084 C1079 1.490 . S
C1084 C1086 1.395 . S
C1084 C1087 1.403 . S
H1085 C1091 0.930 . S
C1086 H1072 0.930 . S
C1086 C1084 1.395 . S
C1086 C1089 1.403 . S
C1087 C1084 1.403 . S
C1087 C1088 1.524 . S
C1087 C1091 1.400 . S
C1088 H1073 0.960 . S
C1088 H1074 0.960 . S
C1088 H1075 0.960 . S
C1088 C1087 1.524 . S
C1089 C1086 1.403 . S
C1089 C1090 1.392 . S
C1089 C1093 1.495 . S
C1090 C1089 1.392 . S
C1090 C1091 1.385 . S
C1090 C1092 1.478 . S
C1091 H1085 0.930 . S
C1091 C1087 1.400 . S
C1091 C1090 1.385 . S
C1092 C1090 1.478 . S
C1092 C1094 1.381 . S
C1092 C1098 1.383 . S
C1093 C1089 1.495 . S
C1093 H1099 0.959 . S
C1093 H1100 0.961 . S
C1093 H1101 0.960 . S
C1094 C1092 1.381 . S
C1094 C1095 1.394 . S
C1094 H1102 0.930 . S
C1095 C1094 1.394 . S
C1095 C1096 1.383 . S
C1095 H1103 0.929 . S
C1096 C1095 1.383 . S
C1096 C1097 1.377 . S
C1097 H1081 0.930 . S
C1097 C1096 1.377 . S
C1097 C1098 1.379 . S
C1098 H1082 0.931 . S
C1098 C1092 1.383 . S
C1098 C1097 1.379 . S
H1099 C1093 0.959 . S
H1100 C1093 0.961 . S
H1101 C1093 0.960 . S
H1102 C1094 0.930 . S
H1103 C1095 0.929 . S
H1104 C1112 0.929 . S
H1105 C1114 0.930 . S
H1106 C1116 0.930 . S
H1107 C1119 0.929 . S
H1108 C1122 0.930 . S
H1109 C1124 0.960 . S
H1110 C1124 0.960 . S
H1111 C1124 0.960 . S
C1112 H1104 0.929 . S
C1112 C1113 1.377 . S
C1112 C1114 1.384 . S
C1113 C1112 1.377 . S
C1113 C1119 1.390 . S
C1114 H1105 0.930 . S
C1114 C1112 1.384 . S
C1114 C1115 1.372 . S
C1115 C1114 1.372 . S
C1115 C1116 1.400 . S
C1115 C1120 1.490 . S
C1116 H1106 0.930 . S
C1116 C1115 1.400 . S
C1116 C1119 1.386 . S
H1117 C1133 0.930 . S
H1118 C1134 0.931 . S
C1119 H1107 0.929 . S
C1119 C1113 1.390 . S
C1119 C1116 1.386 . S
C1120 C1115 1.490 . S
C1120 C1122 1.395 . S
C1120 C1123 1.403 . S
H1121 C1127 0.930 . S
C1122 H1108 0.930 . S
C1122 C1120 1.395 . S
C1122 C1125 1.403 . S
C1123 C1120 1.403 . S
C1123 C1124 1.524 . S
C1123 C1127 1.400 . S
C1124 H1109 0.960 . S
C1124 H1110 0.960 . S
C1124 H1111 0.960 . S
C1124 C1123 1.524 . S
C1125 C1122 1.403 . S
C1125 C1126 1.392 . S
C1125 C1129 1.495 . S
C1126 C1125 1.392 . S
C1126 C1127 1.385 . S
C1126 C1128 1.478 . S
C1127 H1121 0.930 . S
C1127 C1123 1.400 . S
C1127 C1126 1.385 . S
C1128 C1126 1.478 . S
C1128 C1130 1.381 . S
C1128 C1134 1.383 . S
C1129 C1125 1.495 . S
C1129 H1135 0.959 . S
C1129 H1136 0.961 . S
C1129 H1137 0.960 . S
C1130 C1128 1.381 . S
C1130 C1131 1.394 . S
C1130 H1138 0.930 . S
C1131 C1130 1.394 . S
C1131 C1132 1.383 . S
C1131 H1139 0.929 . S
C1132 C1131 1.383 . S
C1132 C1133 1.377 . S
C1133 H1117 0.930 . S
C1133 C1132 1.377 . S
C1133 C1134 1.379 . S
C1134 H1118 0.931 . S
C1134 C1128 1.383 . S
C1134 C1133 1.379 . S
H1135 C1129 0.959 . S
H1136 C1129 0.961 . S
H1137 C1129 0.960 . S
H1138 C1130 0.930 . S
H1139 C1131 0.929 . S
H1140 C1148 0.929 1_565 S
H1141 C1150 0.930 . S
H1142 C1152 0.930 . S
H1143 C1155 0.929 . S
H1144 C1158 0.930 . S
H1145 C1160 0.960 . S
H1146 C1160 0.960 . S
H1147 C1160 0.960 . S
C1148 H1140 0.929 1_545 S
C1148 C1149 1.377 . S
C1148 C1150 1.384 . S
C1149 C1148 1.377 . S
C1149 C1155 1.390 . S
C1150 H1141 0.930 . S
C1150 C1148 1.384 . S
C1150 C1151 1.372 . S
C1151 C1150 1.372 . S
C1151 C1152 1.400 . S
C1151 C1156 1.490 . S
C1152 H1142 0.930 . S
C1152 C1151 1.400 . S
C1152 C1155 1.386 . S
H1153 C1169 0.930 . S
H1154 C1170 0.931 . S
C1155 H1143 0.929 . S
C1155 C1149 1.390 . S
C1155 C1152 1.386 . S
C1156 C1151 1.490 . S
C1156 C1158 1.395 . S
C1156 C1159 1.403 . S
H1157 C1163 0.930 . S
C1158 H1144 0.930 . S
C1158 C1156 1.395 . S
C1158 C1161 1.403 . S
C1159 C1156 1.403 . S
C1159 C1160 1.524 . S
C1159 C1163 1.400 . S
C1160 H1145 0.960 . S
C1160 H1146 0.960 . S
C1160 H1147 0.960 . S
C1160 C1159 1.524 . S
C1161 C1158 1.403 . S
C1161 C1162 1.392 . S
C1161 C1165 1.495 . S
C1162 C1161 1.392 . S
C1162 C1163 1.385 . S
C1162 C1164 1.478 . S
C1163 H1157 0.930 . S
C1163 C1159 1.400 . S
C1163 C1162 1.385 . S
C1164 C1162 1.478 . S
C1164 C1166 1.381 . S
C1164 C1170 1.383 . S
C1165 C1161 1.495 . S
C1165 H1171 0.959 . S
C1165 H1172 0.961 . S
C1165 H1173 0.960 . S
C1166 C1164 1.381 . S
C1166 C1167 1.394 . S
C1166 H1174 0.930 . S
C1167 C1166 1.394 . S
C1167 C1168 1.383 . S
C1167 H1175 0.929 . S
C1168 C1167 1.383 . S
C1168 C1169 1.377 . S
C1169 H1153 0.930 . S
C1169 C1168 1.377 . S
C1169 C1170 1.379 . S
C1170 H1154 0.931 . S
C1170 C1164 1.383 . S
C1170 C1169 1.379 . S
H1171 C1165 0.959 . S
H1172 C1165 0.961 . S
H1173 C1165 0.960 . S
H1174 C1166 0.930 . S
H1175 C1167 0.929 . S
H1176 C1184 0.929 . S
H1177 C1186 0.930 . S
H1178 C1188 0.930 . S
H1179 C1191 0.929 . S
H1180 C1194 0.930 . S
H1181 C1196 0.960 . S
H1182 C1196 0.960 . S
H1183 C1196 0.960 . S
C1184 H1176 0.929 . S
C1184 C1185 1.377 . S
C1184 C1186 1.384 . S
C1185 C1184 1.377 . S
C1185 C1191 1.390 . S
C1186 H1177 0.930 . S
C1186 C1184 1.384 . S
C1186 C1187 1.372 . S
C1187 C1186 1.372 . S
C1187 C1188 1.400 . S
C1187 C1192 1.490 . S
C1188 H1178 0.930 . S
C1188 C1187 1.400 . S
C1188 C1191 1.386 . S
H1189 C1205 0.930 . S
H1190 C1206 0.931 . S
C1191 H1179 0.929 . S
C1191 C1185 1.390 . S
C1191 C1188 1.386 . S
C1192 C1187 1.490 . S
C1192 C1194 1.395 . S
C1192 C1195 1.403 . S
H1193 C1199 0.930 . S
C1194 H1180 0.930 . S
C1194 C1192 1.395 . S
C1194 C1197 1.403 . S
C1195 C1192 1.403 . S
C1195 C1196 1.524 . S
C1195 C1199 1.400 . S
C1196 H1181 0.960 . S
C1196 H1182 0.960 . S
C1196 H1183 0.960 . S
C1196 C1195 1.524 . S
C1197 C1194 1.403 . S
C1197 C1198 1.392 . S
C1197 C1201 1.495 . S
C1198 C1197 1.392 . S
C1198 C1199 1.385 . S
C1198 C1200 1.478 . S
C1199 H1193 0.930 . S
C1199 C1195 1.400 . S
C1199 C1198 1.385 . S
C1200 C1198 1.478 . S
C1200 C1202 1.381 . S
C1200 C1206 1.383 . S
C1201 C1197 1.495 . S
C1201 H1207 0.959 . S
C1201 H1208 0.961 . S
C1201 H1209 0.960 . S
C1202 C1200 1.381 . S
C1202 C1203 1.394 . S
C1202 H1210 0.930 . S
C1203 C1202 1.394 . S
C1203 C1204 1.383 . S
C1203 H1211 0.929 . S
C1204 C1203 1.383 . S
C1204 C1205 1.377 . S
C1205 H1189 0.930 . S
C1205 C1204 1.377 . S
C1205 C1206 1.379 . S
C1206 H1190 0.931 . S
C1206 C1200 1.383 . S
C1206 C1205 1.379 . S
H1207 C1201 0.959 . S
H1208 C1201 0.961 . S
H1209 C1201 0.960 . S
H1210 C1202 0.930 . S
H1211 C1203 0.929 . S
H1212 C1220 0.929 . S
H1213 C1222 0.930 . S
H1214 C1224 0.930 . S
H1215 C1227 0.929 . S
H1216 C1230 0.930 . S
H1217 C1232 0.960 . S
H1218 C1232 0.960 . S
H1219 C1232 0.960 . S
C1220 H1212 0.929 . S
C1220 C1221 1.377 . S
C1220 C1222 1.384 . S
C1221 C1220 1.377 . S
C1221 C1227 1.390 . S
C1222 H1213 0.930 . S
C1222 C1220 1.384 . S
C1222 C1223 1.372 . S
C1223 C1222 1.372 . S
C1223 C1224 1.400 . S
C1223 C1228 1.490 . S
C1224 H1214 0.930 . S
C1224 C1223 1.400 . S
C1224 C1227 1.386 . S
H1225 C1241 0.930 . S
H1226 C1242 0.931 . S
C1227 H1215 0.929 . S
C1227 C1221 1.390 . S
C1227 C1224 1.386 . S
C1228 C1223 1.490 . S
C1228 C1230 1.395 . S
C1228 C1231 1.403 . S
H1229 C1235 0.930 . S
C1230 H1216 0.930 . S
C1230 C1228 1.395 . S
C1230 C1233 1.403 . S
C1231 C1228 1.403 . S
C1231 C1232 1.524 . S
C1231 C1235 1.400 . S
C1232 H1217 0.960 . S
C1232 H1218 0.960 . S
C1232 H1219 0.960 . S
C1232 C1231 1.524 . S
C1233 C1230 1.403 . S
C1233 C1234 1.392 . S
C1233 C1237 1.495 . S
C1234 C1233 1.392 . S
C1234 C1235 1.385 . S
C1234 C1236 1.478 . S
C1235 H1229 0.930 . S
C1235 C1231 1.400 . S
C1235 C1234 1.385 . S
C1236 C1234 1.478 . S
C1236 C1238 1.381 . S
C1236 C1242 1.383 . S
C1237 C1233 1.495 . S
C1237 H1243 0.959 . S
C1237 H1244 0.961 . S
C1237 H1245 0.960 . S
C1238 C1236 1.381 . S
C1238 C1239 1.394 . S
C1238 H1246 0.930 . S
C1239 C1238 1.394 . S
C1239 C1240 1.383 . S
C1239 H1247 0.929 . S
C1240 C1239 1.383 . S
C1240 C1241 1.377 . S
C1241 H1225 0.930 . S
C1241 C1240 1.377 . S
C1241 C1242 1.379 . S
C1242 H1226 0.931 . S
C1242 C1236 1.383 . S
C1242 C1241 1.379 . S
H1243 C1237 0.959 . S
H1244 C1237 0.961 . S
H1245 C1237 0.960 . S
H1246 C1238 0.930 . S
H1247 C1239 0.929 . S
H1248 C1256 0.928 . S
H1249 C1258 0.930 1_565 S
H1250 C1260 0.930 . S
H1251 C1263 0.929 . S
H1252 C1266 0.930 . S
H1253 C1268 0.960 . S
H1254 C1268 0.960 . S
H1255 C1268 0.960 . S
C1256 H1248 0.928 . S
C1256 C1257 1.377 . S
C1256 C1258 1.384 . S
C1257 C1256 1.377 . S
C1257 C1263 1.390 . S
C1258 H1249 0.930 1_545 S
C1258 C1256 1.384 . S
C1258 C1259 1.372 . S
C1259 C1258 1.372 . S
C1259 C1260 1.400 . S
C1259 C1264 1.490 . S
C1260 H1250 0.930 . S
C1260 C1259 1.400 . S
C1260 C1263 1.386 . S
H1261 C1277 0.930 . S
H1262 C1278 0.931 . S
C1263 H1251 0.929 . S
C1263 C1257 1.390 . S
C1263 C1260 1.386 . S
C1264 C1259 1.490 . S
C1264 C1266 1.395 . S
C1264 C1267 1.403 . S
H1265 C1271 0.930 . S
C1266 H1252 0.930 . S
C1266 C1264 1.395 . S
C1266 C1269 1.403 . S
C1267 C1264 1.403 . S
C1267 C1268 1.524 . S
C1267 C1271 1.400 . S
C1268 H1253 0.960 . S
C1268 H1254 0.960 . S
C1268 H1255 0.960 . S
C1268 C1267 1.524 . S
C1269 C1266 1.403 . S
C1269 C1270 1.392 . S
C1269 C1273 1.495 . S
C1270 C1269 1.392 . S
C1270 C1271 1.385 . S
C1270 C1272 1.478 . S
C1271 H1265 0.930 . S
C1271 C1267 1.400 . S
C1271 C1270 1.385 . S
C1272 C1270 1.478 . S
C1272 C1274 1.381 1_545 S
C1272 C1278 1.383 . S
C1273 C1269 1.495 . S
C1273 H1279 0.959 . S
C1273 H1280 0.961 . S
C1273 H1281 0.960 1_545 S
C1274 C1272 1.381 1_565 S
C1274 C1275 1.394 . S
C1274 H1282 0.930 . S
C1275 C1274 1.394 . S
C1275 C1276 1.383 1_565 S
C1275 H1283 0.929 . S
C1276 C1275 1.383 1_545 S
C1276 C1277 1.377 . S
C1277 H1261 0.930 . S
C1277 C1276 1.377 . S
C1277 C1278 1.379 . S
C1278 H1262 0.931 . S
C1278 C1272 1.383 . S
C1278 C1277 1.379 . S
H1279 C1273 0.959 . S
H1280 C1273 0.961 . S
H1281 C1273 0.960 1_565 S
H1282 C1274 0.930 . S
H1283 C1275 0.929 . S
H1284 C1292 0.929 . S
H1285 C1294 0.930 . S
H1286 C1296 0.930 . S
H1287 C1299 0.929 . S
H1288 C1302 0.930 . S
H1289 C1304 0.960 . S
H1290 C1304 0.960 . S
H1291 C1304 0.960 . S
C1292 H1284 0.929 . S
C1292 C1293 1.377 . S
C1292 C1294 1.384 . S
C1293 C1292 1.377 . S
C1293 C1299 1.390 . S
C1294 H1285 0.930 . S
C1294 C1292 1.384 . S
C1294 C1295 1.372 . S
C1295 C1294 1.372 . S
C1295 C1296 1.400 . S
C1295 C1300 1.490 . S
C1296 H1286 0.930 . S
C1296 C1295 1.400 . S
C1296 C1299 1.386 . S
H1297 C1313 0.930 . S
H1298 C1314 0.931 . S
C1299 H1287 0.929 . S
C1299 C1293 1.390 . S
C1299 C1296 1.386 . S
C1300 C1295 1.490 . S
C1300 C1302 1.395 . S
C1300 C1303 1.403 . S
H1301 C1307 0.930 . S
C1302 H1288 0.930 . S
C1302 C1300 1.395 . S
C1302 C1305 1.403 . S
C1303 C1300 1.403 . S
C1303 C1304 1.524 . S
C1303 C1307 1.400 . S
C1304 H1289 0.960 . S
C1304 H1290 0.960 . S
C1304 H1291 0.960 . S
C1304 C1303 1.524 . S
C1305 C1302 1.403 . S
C1305 C1306 1.392 . S
C1305 C1309 1.495 . S
C1306 C1305 1.392 . S
C1306 C1307 1.385 . S
C1306 C1308 1.478 . S
C1307 H1301 0.930 . S
C1307 C1303 1.400 . S
C1307 C1306 1.385 . S
C1308 C1306 1.478 . S
C1308 C1310 1.381 . S
C1308 C1314 1.383 . S
C1309 C1305 1.495 . S
C1309 H1315 0.959 . S
C1309 H1316 0.961 . S
C1309 H1317 0.960 . S
C1310 C1308 1.381 . S
C1310 C1311 1.394 . S
C1310 H1318 0.930 . S
C1311 C1310 1.394 . S
C1311 C1312 1.383 . S
C1311 H1319 0.929 . S
C1312 C1311 1.383 . S
C1312 C1313 1.377 . S
C1313 H1297 0.930 . S
C1313 C1312 1.377 . S
C1313 C1314 1.379 . S
C1314 H1298 0.931 . S
C1314 C1308 1.383 . S
C1314 C1313 1.379 . S
H1315 C1309 0.959 . S
H1316 C1309 0.961 . S
H1317 C1309 0.960 . S
H1318 C1310 0.930 . S
H1319 C1311 0.929 . S
H1320 C1328 0.929 . S
H1321 C1330 0.930 . S
H1322 C1332 0.930 . S
H1323 C1335 0.929 . S
H1324 C1338 0.930 . S
H1325 C1340 0.960 . S
H1326 C1340 0.960 . S
H1327 C1340 0.960 . S
C1328 H1320 0.929 . S
C1328 C1329 1.377 . S
C1328 C1330 1.384 . S
C1329 C1328 1.377 . S
C1329 C1335 1.390 . S
C1330 H1321 0.930 . S
C1330 C1328 1.384 . S
C1330 C1331 1.372 . S
C1331 C1330 1.372 . S
C1331 C1332 1.400 . S
C1331 C1336 1.490 . S
C1332 H1322 0.930 . S
C1332 C1331 1.400 . S
C1332 C1335 1.386 . S
H1333 C1349 0.930 . S
H1334 C1350 0.931 . S
C1335 H1323 0.929 . S
C1335 C1329 1.390 . S
C1335 C1332 1.386 . S
C1336 C1331 1.490 . S
C1336 C1338 1.395 . S
C1336 C1339 1.403 . S
H1337 C1343 0.930 . S
C1338 H1324 0.930 . S
C1338 C1336 1.395 . S
C1338 C1341 1.403 . S
C1339 C1336 1.403 . S
C1339 C1340 1.524 . S
C1339 C1343 1.400 . S
C1340 H1325 0.960 . S
C1340 H1326 0.960 . S
C1340 H1327 0.960 . S
C1340 C1339 1.524 . S
C1341 C1338 1.403 . S
C1341 C1342 1.392 . S
C1341 C1345 1.495 . S
C1342 C1341 1.392 . S
C1342 C1343 1.385 . S
C1342 C1344 1.478 . S
C1343 H1337 0.930 . S
C1343 C1339 1.400 . S
C1343 C1342 1.385 . S
C1344 C1342 1.478 . S
C1344 C1346 1.381 . S
C1344 C1350 1.383 . S
C1345 C1341 1.495 . S
C1345 H1351 0.959 . S
C1345 H1352 0.961 . S
C1345 H1353 0.960 . S
C1346 C1344 1.381 . S
C1346 C1347 1.394 . S
C1346 H1354 0.930 . S
C1347 C1346 1.394 . S
C1347 C1348 1.383 . S
C1347 H1355 0.929 . S
C1348 C1347 1.383 . S
C1348 C1349 1.377 . S
C1349 H1333 0.930 . S
C1349 C1348 1.377 . S
C1349 C1350 1.379 . S
C1350 H1334 0.931 . S
C1350 C1344 1.383 . S
C1350 C1349 1.379 . S
H1351 C1345 0.959 . S
H1352 C1345 0.961 . S
H1353 C1345 0.960 . S
H1354 C1346 0.930 . S
H1355 C1347 0.929 . S
H1356 C1364 0.929 . S
H1357 C1366 0.930 . S
H1358 C1368 0.930 . S
H1359 C1371 0.929 . S
H1360 C1374 0.930 . S
H1361 C1376 0.960 . S
H1362 C1376 0.960 . S
H1363 C1376 0.960 . S
C1364 H1356 0.929 . S
C1364 C1365 1.377 . S
C1364 C1366 1.384 . S
C1365 C1364 1.377 . S
C1365 C1371 1.390 . S
C1366 H1357 0.930 . S
C1366 C1364 1.384 . S
C1366 C1367 1.372 . S
C1367 C1366 1.372 . S
C1367 C1368 1.400 . S
C1367 C1372 1.490 . S
C1368 H1358 0.930 . S
C1368 C1367 1.400 . S
C1368 C1371 1.386 . S
H1369 C1385 0.930 . S
H1370 C1386 0.931 . S
C1371 H1359 0.929 . S
C1371 C1365 1.390 . S
C1371 C1368 1.386 . S
C1372 C1367 1.490 . S
C1372 C1374 1.395 . S
C1372 C1375 1.403 . S
H1373 C1379 0.930 . S
C1374 H1360 0.930 . S
C1374 C1372 1.395 . S
C1374 C1377 1.403 . S
C1375 C1372 1.403 . S
C1375 C1376 1.524 . S
C1375 C1379 1.400 . S
C1376 H1361 0.960 . S
C1376 H1362 0.960 . S
C1376 H1363 0.960 . S
C1376 C1375 1.524 . S
C1377 C1374 1.403 . S
C1377 C1378 1.392 . S
C1377 C1381 1.495 . S
C1378 C1377 1.392 . S
C1378 C1379 1.385 . S
C1378 C1380 1.478 . S
C1379 H1373 0.930 . S
C1379 C1375 1.400 . S
C1379 C1378 1.385 . S
C1380 C1378 1.478 . S
C1380 C1382 1.381 . S
C1380 C1386 1.383 . S
C1381 C1377 1.495 . S
C1381 H1387 0.959 . S
C1381 H1388 0.961 . S
C1381 H1389 0.960 . S
C1382 C1380 1.381 . S
C1382 C1383 1.394 . S
C1382 H1390 0.930 . S
C1383 C1382 1.394 . S
C1383 C1384 1.383 . S
C1383 H1391 0.929 . S
C1384 C1383 1.383 . S
C1384 C1385 1.377 . S
C1385 H1369 0.930 . S
C1385 C1384 1.377 . S
C1385 C1386 1.379 . S
C1386 H1370 0.931 . S
C1386 C1380 1.383 . S
C1386 C1385 1.379 . S
H1387 C1381 0.959 . S
H1388 C1381 0.961 . S
H1389 C1381 0.960 . S
H1390 C1382 0.930 . S
H1391 C1383 0.929 . S
H1392 C1400 0.929 . S
H1393 C1402 0.930 . S
H1394 C1404 0.930 . S
H1395 C1407 0.929 . S
H1396 C1410 0.930 . S
H1397 C1412 0.960 . S
H1398 C1412 0.960 . S
H1399 C1412 0.960 . S
C1400 H1392 0.929 . S
C1400 C1401 1.377 . S
C1400 C1402 1.384 . S
C1401 C1400 1.377 . S
C1401 C1407 1.390 . S
C1402 H1393 0.930 . S
C1402 C1400 1.384 . S
C1402 C1403 1.372 . S
C1403 C1402 1.372 . S
C1403 C1404 1.400 . S
C1403 C1408 1.490 . S
C1404 H1394 0.930 . S
C1404 C1403 1.400 . S
C1404 C1407 1.386 . S
H1405 C1421 0.930 . S
H1406 C1422 0.931 . S
C1407 H1395 0.929 . S
C1407 C1401 1.390 . S
C1407 C1404 1.386 . S
C1408 C1403 1.490 . S
C1408 C1410 1.395 1_455 S
C1408 C1411 1.403 . S
H1409 C1415 0.930 . S
C1410 H1396 0.930 . S
C1410 C1408 1.395 1_655 S
C1410 C1413 1.403 . S
C1411 C1408 1.403 . S
C1411 C1412 1.524 . S
C1411 C1415 1.400 . S
C1412 H1397 0.960 . S
C1412 H1398 0.960 . S
C1412 H1399 0.960 . S
C1412 C1411 1.524 . S
C1413 C1410 1.403 . S
C1413 C1414 1.392 . S
C1413 C1417 1.495 . S
C1414 C1413 1.392 . S
C1414 C1415 1.385 1_655 S
C1414 C1416 1.478 . S
C1415 H1409 0.930 . S
C1415 C1411 1.400 . S
C1415 C1414 1.385 1_455 S
C1416 C1414 1.478 . S
C1416 C1418 1.381 . S
C1416 C1422 1.383 . S
C1417 C1413 1.495 . S
C1417 H1423 0.959 . S
C1417 H1424 0.961 . S
C1417 H1425 0.960 . S
C1418 C1416 1.381 . S
C1418 C1419 1.394 . S
C1418 H1426 0.930 . S
C1419 C1418 1.394 . S
C1419 C1420 1.383 . S
C1419 H1427 0.929 . S
C1420 C1419 1.383 . S
C1420 C1421 1.377 . S
C1421 H1405 0.930 . S
C1421 C1420 1.377 . S
C1421 C1422 1.379 . S
C1422 H1406 0.931 . S
C1422 C1416 1.383 . S
C1422 C1421 1.379 . S
H1423 C1417 0.959 . S
H1424 C1417 0.961 . S
H1425 C1417 0.960 . S
H1426 C1418 0.930 . S
H1427 C1419 0.929 . S
H1428 C1436 0.929 . S
H1429 C1438 0.930 . S
H1430 C1440 0.930 . S
H1431 C1443 0.929 . S
H1432 C1446 0.930 . S
H1433 C1448 0.960 . S
H1434 C1448 0.960 . S
H1435 C1448 0.960 . S
C1436 H1428 0.929 . S
C1436 C1437 1.377 . S
C1436 C1438 1.384 . S
C1437 C1436 1.377 . S
C1437 C1443 1.390 . S
C1438 H1429 0.930 . S
C1438 C1436 1.384 . S
C1438 C1439 1.372 . S
C1439 C1438 1.372 . S
C1439 C1440 1.400 . S
C1439 C1444 1.490 . S
C1440 H1430 0.930 . S
C1440 C1439 1.400 . S
C1440 C1443 1.386 . S
H1441 C1457 0.930 . S
H1442 C1458 0.931 . S
C1443 H1431 0.929 . S
C1443 C1437 1.390 . S
C1443 C1440 1.386 . S
C1444 C1439 1.490 . S
C1444 C1446 1.395 . S
C1444 C1447 1.403 . S
H1445 C1451 0.930 . S
C1446 H1432 0.930 . S
C1446 C1444 1.395 . S
C1446 C1449 1.403 . S
C1447 C1444 1.403 . S
C1447 C1448 1.524 . S
C1447 C1451 1.400 . S
C1448 H1433 0.960 . S
C1448 H1434 0.960 . S
C1448 H1435 0.960 . S
C1448 C1447 1.524 . S
C1449 C1446 1.403 . S
C1449 C1450 1.392 . S
C1449 C1453 1.495 . S
C1450 C1449 1.392 . S
C1450 C1451 1.385 . S
C1450 C1452 1.478 . S
C1451 H1445 0.930 . S
C1451 C1447 1.400 . S
C1451 C1450 1.385 . S
C1452 C1450 1.478 . S
C1452 C1454 1.381 . S
C1452 C1458 1.383 . S
C1453 C1449 1.495 . S
C1453 H1459 0.959 . S
C1453 H1460 0.961 . S
C1453 H1461 0.960 . S
C1454 C1452 1.381 . S
C1454 C1455 1.394 . S
C1454 H1462 0.930 . S
C1455 C1454 1.394 . S
C1455 C1456 1.383 . S
C1455 H1463 0.929 . S
C1456 C1455 1.383 . S
C1456 C1457 1.377 . S
C1457 H1441 0.930 . S
C1457 C1456 1.377 . S
C1457 C1458 1.379 . S
C1458 H1442 0.931 . S
C1458 C1452 1.383 . S
C1458 C1457 1.379 . S
H1459 C1453 0.959 . S
H1460 C1453 0.961 . S
H1461 C1453 0.960 . S
H1462 C1454 0.930 . S
H1463 C1455 0.929 . S
H1464 C1472 0.929 . S
H1465 C1474 0.930 . S
H1466 C1476 0.930 . S
H1467 C1479 0.929 . S
H1468 C1482 0.930 . S
H1469 C1484 0.960 . S
H1470 C1484 0.960 . S
H1471 C1484 0.960 . S
C1472 H1464 0.929 . S
C1472 C1473 1.370 1_655 S
C1472 C1474 1.384 1_655 S
C1473 C1472 1.370 1_455 S
C1473 C1479 1.411 . S
C1474 H1465 0.930 . S
C1474 C1472 1.384 1_455 S
C1474 C1475 1.372 . S
C1475 C1474 1.372 . S
C1475 C1476 1.400 . S
C1475 C1480 1.490 . S
C1476 H1466 0.930 . S
C1476 C1475 1.400 . S
C1476 C1479 1.386 . S
H1477 C1493 0.930 . S
H1478 C1494 0.931 . S
C1479 H1467 0.929 . S
C1479 C1473 1.411 . S
C1479 C1476 1.386 . S
C1480 C1475 1.490 . S
C1480 C1482 1.395 . S
C1480 C1483 1.403 . S
H1481 C1487 0.930 . S
C1482 H1468 0.930 . S
C1482 C1480 1.395 . S
C1482 C1485 1.403 . S
C1483 C1480 1.403 . S
C1483 C1484 1.524 . S
C1483 C1487 1.400 . S
C1484 H1469 0.960 . S
C1484 H1470 0.960 . S
C1484 H1471 0.960 . S
C1484 C1483 1.524 . S
C1485 C1482 1.403 . S
C1485 C1486 1.392 . S
C1485 C1489 1.495 . S
C1486 C1485 1.392 . S
C1486 C1487 1.385 . S
C1486 C1488 1.478 . S
C1487 H1481 0.930 . S
C1487 C1483 1.400 . S
C1487 C1486 1.385 . S
C1488 C1486 1.478 . S
C1488 C1490 1.381 . S
C1488 C1494 1.383 . S
C1489 C1485 1.495 . S
C1489 H1495 0.959 . S
C1489 H1496 0.961 . S
C1489 H1497 0.960 . S
C1490 C1488 1.381 . S
C1490 C1491 1.394 . S
C1490 H1498 0.930 . S
C1491 C1490 1.394 . S
C1491 C1492 1.383 . S
C1491 H1499 0.929 . S
C1492 C1491 1.383 . S
C1492 C1493 1.377 . S
C1493 H1477 0.930 . S
C1493 C1492 1.377 . S
C1493 C1494 1.379 . S
C1494 H1478 0.931 . S
C1494 C1488 1.383 . S
C1494 C1493 1.379 . S
H1495 C1489 0.959 . S
H1496 C1489 0.961 . S
H1497 C1489 0.960 . S
H1498 C1490 0.930 . S
H1499 C1491 0.929 . S
H1500 C1508 0.929 . S
H1501 C1510 0.930 . S
H1502 C1512 0.930 . S
H1503 C1515 0.929 . S
H1504 C1518 0.930 . S
H1505 C1520 0.960 . S
H1506 C1520 0.960 . S
H1507 C1520 0.960 . S
C1508 H1500 0.929 . S
C1508 C1509 1.377 . S
C1508 C1510 1.384 . S
C1509 C1508 1.377 . S
C1509 C1515 1.390 . S
C1510 H1501 0.930 . S
C1510 C1508 1.384 . S
C1510 C1511 1.372 . S
C1511 C1510 1.372 . S
C1511 C1512 1.400 . S
C1511 C1516 1.490 . S
C1512 H1502 0.930 . S
C1512 C1511 1.400 . S
C1512 C1515 1.386 . S
H1513 C1529 0.930 . S
H1514 C1530 0.931 . S
C1515 H1503 0.929 . S
C1515 C1509 1.390 . S
C1515 C1512 1.386 . S
C1516 C1511 1.490 . S
C1516 C1518 1.395 . S
C1516 C1519 1.403 . S
H1517 C1523 0.930 . S
C1518 H1504 0.930 . S
C1518 C1516 1.395 . S
C1518 C1521 1.403 . S
C1519 C1516 1.403 . S
C1519 C1520 1.524 . S
C1519 C1523 1.400 . S
C1520 H1505 0.960 . S
C1520 H1506 0.960 . S
C1520 H1507 0.960 . S
C1520 C1519 1.524 . S
C1521 C1518 1.403 . S
C1521 C1522 1.392 . S
C1521 C1525 1.495 . S
C1522 C1521 1.392 . S
C1522 C1523 1.385 . S
C1522 C1524 1.478 . S
C1523 H1517 0.930 . S
C1523 C1519 1.400 . S
C1523 C1522 1.385 . S
C1524 C1522 1.478 . S
C1524 C1526 1.381 . S
C1524 C1530 1.383 . S
C1525 C1521 1.495 . S
C1525 H1531 0.959 . S
C1525 H1532 0.961 . S
C1525 H1533 0.960 . S
C1526 C1524 1.381 . S
C1526 C1527 1.394 . S
C1526 H1534 0.930 . S
C1527 C1526 1.394 . S
C1527 C1528 1.383 . S
C1527 H1535 0.929 . S
C1528 C1527 1.383 . S
C1528 C1529 1.377 . S
C1529 H1513 0.930 . S
C1529 C1528 1.377 . S
C1529 C1530 1.379 . S
C1530 H1514 0.931 . S
C1530 C1524 1.383 . S
C1530 C1529 1.379 . S
H1531 C1525 0.959 . S
H1532 C1525 0.961 . S
H1533 C1525 0.960 . S
H1534 C1526 0.930 . S
H1535 C1527 0.929 . S
H1536 C1544 0.929 . S
H1537 C1546 0.930 . S
H1538 C1548 0.930 . S
H1539 C1551 0.922 1_554 S
H1540 C1554 0.930 . S
H1541 C1556 0.960 1_455 S
H1542 C1556 0.960 . S
H1543 C1556 0.960 1_455 S
C1544 H1536 0.929 . S
C1544 C1545 1.377 . S
C1544 C1546 1.384 . S
C1545 C1544 1.377 . S
C1545 C1551 1.363 1_655 S
C1546 H1537 0.930 . S
C1546 C1544 1.384 . S
C1546 C1547 1.372 . S
C1547 C1546 1.372 . S
C1547 C1548 1.400 1_655 S
C1547 C1552 1.490 . S
C1548 H1538 0.930 . S
C1548 C1547 1.400 1_455 S
C1548 C1551 1.392 . S
H1549 C1565 0.930 . S
H1550 C1566 0.931 . S
C1551 H1539 0.922 1_556 S
C1551 C1545 1.363 1_455 S
C1551 C1548 1.392 . S
C1552 C1547 1.490 . S
C1552 C1554 1.395 . S
C1552 C1555 1.403 . S
H1553 C1559 0.922 1_455 S
C1554 H1540 0.930 . S
C1554 C1552 1.395 . S
C1554 C1557 1.403 . S
C1555 C1552 1.403 . S
C1555 C1556 1.524 . S
C1555 C1559 1.400 . S
C1556 H1541 0.960 1_655 S
C1556 H1542 0.960 . S
C1556 H1543 0.960 1_655 S
C1556 C1555 1.524 . S
C1557 C1554 1.403 . S
C1557 C1558 1.392 . S
C1557 C1561 1.495 . S
C1558 C1557 1.392 . S
C1558 C1559 1.385 . S
C1558 C1560 1.478 . S
C1559 H1553 0.922 1_655 S
C1559 C1555 1.400 . S
C1559 C1558 1.385 . S
C1560 C1558 1.478 . S
C1560 C1562 1.381 . S
C1560 C1566 1.383 1_655 S
C1561 C1557 1.495 . S
C1561 H1567 0.959 . S
C1561 H1568 0.961 . S
C1561 H1569 0.960 . S
C1562 C1560 1.381 . S
C1562 C1563 1.394 . S
C1562 H1570 0.930 . S
C1563 C1562 1.394 . S
C1563 C1564 1.383 1_655 S
C1563 H1571 0.929 . S
C1564 C1563 1.383 1_455 S
C1564 C1565 1.377 . S
C1565 H1549 0.930 . S
C1565 C1564 1.377 . S
C1565 C1566 1.379 . S
C1566 H1550 0.931 . S
C1566 C1560 1.383 1_455 S
C1566 C1565 1.379 . S
H1567 C1561 0.959 . S
H1568 C1561 0.961 . S
H1569 C1561 0.960 . S
H1570 C1562 0.930 . S
H1571 C1563 0.929 . S
H1572 C1580 0.929 . S
H1573 C1582 0.930 . S
H1574 C1584 0.930 . S
H1575 C1587 0.929 . S
H1576 C1590 0.930 . S
H1577 C1592 0.960 . S
H1578 C1592 0.960 . S
H1579 C1592 0.960 . S
C1580 H1572 0.929 . S
C1580 C1581 1.377 . S
C1580 C1582 1.384 . S
C1581 C1580 1.377 . S
C1581 C1587 1.390 . S
C1582 H1573 0.930 . S
C1582 C1580 1.384 . S
C1582 C1583 1.372 . S
C1583 C1582 1.372 . S
C1583 C1584 1.400 . S
C1583 C1588 1.490 . S
C1584 H1574 0.930 . S
C1584 C1583 1.400 . S
C1584 C1587 1.386 . S
H1585 C1601 0.930 . S
H1586 C1602 0.931 . S
C1587 H1575 0.929 . S
C1587 C1581 1.390 . S
C1587 C1584 1.386 . S
C1588 C1583 1.490 . S
C1588 C1590 1.395 . S
C1588 C1591 1.403 . S
H1589 C1595 0.930 . S
C1590 H1576 0.930 . S
C1590 C1588 1.395 . S
C1590 C1593 1.403 . S
C1591 C1588 1.403 . S
C1591 C1592 1.524 . S
C1591 C1595 1.400 . S
C1592 H1577 0.960 . S
C1592 H1578 0.960 . S
C1592 H1579 0.960 . S
C1592 C1591 1.524 . S
C1593 C1590 1.403 . S
C1593 C1594 1.392 . S
C1593 C1597 1.495 . S
C1594 C1593 1.392 . S
C1594 C1595 1.385 . S
C1594 C1596 1.478 . S
C1595 H1589 0.930 . S
C1595 C1591 1.400 . S
C1595 C1594 1.385 . S
C1596 C1594 1.478 . S
C1596 C1598 1.381 . S
C1596 C1602 1.383 . S
C1597 C1593 1.495 . S
C1597 H1603 0.959 . S
C1597 H1604 0.961 . S
C1597 H1605 0.960 . S
C1598 C1596 1.381 . S
C1598 C1599 1.394 . S
C1598 H1606 0.930 . S
C1599 C1598 1.394 . S
C1599 C1600 1.383 . S
C1599 H1607 0.929 . S
C1600 C1599 1.383 . S
C1600 C1601 1.377 . S
C1601 H1585 0.930 . S
C1601 C1600 1.377 . S
C1601 C1602 1.379 . S
C1602 H1586 0.931 . S
C1602 C1596 1.383 . S
C1602 C1601 1.379 . S
H1603 C1597 0.959 . S
H1604 C1597 0.961 . S
H1605 C1597 0.960 . S
H1606 C1598 0.930 . S
H1607 C1599 0.929 . S
H1608 C1616 0.929 1_554 S
H1609 C1618 0.930 . S
H1610 C1620 0.930 . S
H1611 C1623 0.929 . S
H1612 C1626 0.930 . S
H1613 C1628 0.960 . S
H1614 C1628 0.960 . S
H1615 C1628 0.960 . S
C1616 H1608 0.929 1_556 S
C1616 C1617 1.377 1_556 S
C1616 C1618 1.384 . S
C1617 C1616 1.377 1_554 S
C1617 C1623 1.388 1_554 S
C1618 H1609 0.930 . S
C1618 C1616 1.384 . S
C1618 C1619 1.372 . S
C1619 C1618 1.372 . S
C1619 C1620 1.400 . S
C1619 C1624 1.490 . S
C1620 H1610 0.930 . S
C1620 C1619 1.400 . S
C1620 C1623 1.386 . S
H1621 C1637 0.930 . S
H1622 C1638 0.931 . S
C1623 H1611 0.929 . S
C1623 C1617 1.388 1_556 S
C1623 C1620 1.386 . S
C1624 C1619 1.490 . S
C1624 C1626 1.395 . S
C1624 C1627 1.403 . S
H1625 C1631 0.930 . S
C1626 H1612 0.930 . S
C1626 C1624 1.395 . S
C1626 C1629 1.403 . S
C1627 C1624 1.403 . S
C1627 C1628 1.524 . S
C1627 C1631 1.400 . S
C1628 H1613 0.960 . S
C1628 H1614 0.960 . S
C1628 H1615 0.960 . S
C1628 C1627 1.524 . S
C1629 C1626 1.403 . S
C1629 C1630 1.392 . S
C1629 C1633 1.495 . S
C1630 C1629 1.392 . S
C1630 C1631 1.385 . S
C1630 C1632 1.478 . S
C1631 H1625 0.930 . S
C1631 C1627 1.400 . S
C1631 C1630 1.385 . S
C1632 C1630 1.478 . S
C1632 C1634 1.381 . S
C1632 C1638 1.383 . S
C1633 C1629 1.495 . S
C1633 H1639 0.959 . S
C1633 H1640 0.961 . S
C1633 H1641 0.960 . S
C1634 C1632 1.381 . S
C1634 C1635 1.391 1_455 S
C1634 H1642 0.930 1_455 S
C1635 C1634 1.391 1_655 S
C1635 C1636 1.367 1_655 S
C1635 H1643 0.949 . S
C1636 C1635 1.367 1_455 S
C1636 C1637 1.377 . S
C1637 H1621 0.930 . S
C1637 C1636 1.377 . S
C1637 C1638 1.379 . S
C1638 H1622 0.931 . S
C1638 C1632 1.383 . S
C1638 C1637 1.379 . S
H1639 C1633 0.959 . S
H1640 C1633 0.961 . S
H1641 C1633 0.960 . S
H1642 C1634 0.930 1_655 S
H1643 C1635 0.949 . S
H1644 C1652 0.929 . S
H1645 C1654 0.930 . S
H1646 C1656 0.930 . S
H1647 C1659 0.929 . S
H1648 C1662 0.930 . S
H1649 C1664 0.960 . S
H1650 C1664 0.960 . S
H1651 C1664 0.960 . S
C1652 H1644 0.929 . S
C1652 C1653 1.377 . S
C1652 C1654 1.384 . S
C1653 C1652 1.377 . S
C1653 C1659 1.390 . S
C1654 H1645 0.930 . S
C1654 C1652 1.384 . S
C1654 C1655 1.372 . S
C1655 C1654 1.372 . S
C1655 C1656 1.400 . S
C1655 C1660 1.490 . S
C1656 H1646 0.930 . S
C1656 C1655 1.400 . S
C1656 C1659 1.386 . S
H1657 C1673 0.930 . S
H1658 C1674 0.931 . S
C1659 H1647 0.929 . S
C1659 C1653 1.390 . S
C1659 C1656 1.386 . S
C1660 C1655 1.490 . S
C1660 C1662 1.395 . S
C1660 C1663 1.403 . S
H1661 C1667 0.930 . S
C1662 H1648 0.930 . S
C1662 C1660 1.395 . S
C1662 C1665 1.403 . S
C1663 C1660 1.403 . S
C1663 C1664 1.524 . S
C1663 C1667 1.400 . S
C1664 H1649 0.960 . S
C1664 H1650 0.960 . S
C1664 H1651 0.960 . S
C1664 C1663 1.524 . S
C1665 C1662 1.403 . S
C1665 C1666 1.392 . S
C1665 C1669 1.495 . S
C1666 C1665 1.392 . S
C1666 C1667 1.385 . S
C1666 C1668 1.478 . S
C1667 H1661 0.930 . S
C1667 C1663 1.400 . S
C1667 C1666 1.385 . S
C1668 C1666 1.478 . S
C1668 C1670 1.381 . S
C1668 C1674 1.383 . S
C1669 C1665 1.495 . S
C1669 H1675 0.959 . S
C1669 H1676 0.961 . S
C1669 H1677 0.960 . S
C1670 C1668 1.381 . S
C1670 C1671 1.394 . S
C1670 H1678 0.930 . S
C1671 C1670 1.394 . S
C1671 C1672 1.383 . S
C1671 H1679 0.929 . S
C1672 C1671 1.383 . S
C1672 C1673 1.377 . S
C1673 H1657 0.930 . S
C1673 C1672 1.377 . S
C1673 C1674 1.379 . S
C1674 H1658 0.931 . S
C1674 C1668 1.383 . S
C1674 C1673 1.379 . S
H1675 C1669 0.959 . S
H1676 C1669 0.961 . S
H1677 C1669 0.960 . S
H1678 C1670 0.930 . S
H1679 C1671 0.929 . S
H1680 C1688 0.929 . S
H1681 C1690 0.930 . S
H1682 C1692 0.930 . S
H1683 C1695 0.955 . S
H1684 C1698 0.930 . S
H1685 C1700 0.960 . S
H1686 C1700 0.960 . S
H1687 C1700 0.960 . S
C1688 H1680 0.929 . S
C1688 C1689 1.377 . S
C1688 C1690 1.384 . S
C1689 C1688 1.377 . S
C1689 C1695 1.390 . S
C1690 H1681 0.930 . S
C1690 C1688 1.384 . S
C1690 C1691 1.372 . S
C1691 C1690 1.372 . S
C1691 C1692 1.400 . S
C1691 C1696 1.490 . S
C1692 H1682 0.930 . S
C1692 C1691 1.400 . S
C1692 C1695 1.386 . S
H1693 C1709 0.930 . S
H1694 C1710 0.931 . S
C1695 H1683 0.955 . S
C1695 C1689 1.390 . S
C1695 C1692 1.386 . S
C1696 C1691 1.490 . S
C1696 C1698 1.395 . S
C1696 C1699 1.403 . S
H1697 C1703 0.930 . S
C1698 H1684 0.930 . S
C1698 C1696 1.395 . S
C1698 C1701 1.403 . S
C1699 C1696 1.403 . S
C1699 C1700 1.524 . S
C1699 C1703 1.400 . S
C1700 H1685 0.960 . S
C1700 H1686 0.960 . S
C1700 H1687 0.960 . S
C1700 C1699 1.524 . S
C1701 C1698 1.403 . S
C1701 C1702 1.392 . S
C1701 C1705 1.495 . S
C1702 C1701 1.392 . S
C1702 C1703 1.385 . S
C1702 C1704 1.478 . S
C1703 H1697 0.930 . S
C1703 C1699 1.400 . S
C1703 C1702 1.385 . S
C1704 C1702 1.478 . S
C1704 C1706 1.381 . S
C1704 C1710 1.383 . S
C1705 C1701 1.495 . S
C1705 H1711 0.959 . S
C1705 H1712 0.961 . S
C1705 H1713 0.960 . S
C1706 C1704 1.381 . S
C1706 C1707 1.394 . S
C1706 H1714 0.930 . S
C1707 C1706 1.394 . S
C1707 C1708 1.383 . S
C1707 H1715 0.929 . S
C1708 C1707 1.383 . S
C1708 C1709 1.377 . S
C1709 H1693 0.930 . S
C1709 C1708 1.377 . S
C1709 C1710 1.379 . S
C1710 H1694 0.931 . S
C1710 C1704 1.383 . S
C1710 C1709 1.379 . S
H1711 C1705 0.959 . S
H1712 C1705 0.961 . S
H1713 C1705 0.960 . S
H1714 C1706 0.930 . S
H1715 C1707 0.929 . S
H1716 C1724 0.929 . S
H1717 C1726 0.930 . S
H1718 C1728 0.930 . S
H1719 C1731 0.929 . S
H1720 C1734 0.930 . S
H1721 C1736 0.960 . S
H1722 C1736 0.960 . S
H1723 C1736 0.960 . S
C1724 H1716 0.929 . S
C1724 C1725 1.377 . S
C1724 C1726 1.384 . S
C1725 C1724 1.377 . S
C1725 C1731 1.390 . S
C1726 H1717 0.930 . S
C1726 C1724 1.384 . S
C1726 C1727 1.372 . S
C1727 C1726 1.372 . S
C1727 C1728 1.400 . S
C1727 C1732 1.490 . S
C1728 H1718 0.930 . S
C1728 C1727 1.400 . S
C1728 C1731 1.386 . S
H1729 C1745 0.930 . S
H1730 C1746 0.931 . S
C1731 H1719 0.929 . S
C1731 C1725 1.390 . S
C1731 C1728 1.386 . S
C1732 C1727 1.490 . S
C1732 C1734 1.395 . S
C1732 C1735 1.403 . S
H1733 C1739 0.930 . S
C1734 H1720 0.930 . S
C1734 C1732 1.395 . S
C1734 C1737 1.403 . S
C1735 C1732 1.403 . S
C1735 C1736 1.524 . S
C1735 C1739 1.400 . S
C1736 H1721 0.960 . S
C1736 H1722 0.960 . S
C1736 H1723 0.960 . S
C1736 C1735 1.524 . S
C1737 C1734 1.403 . S
C1737 C1738 1.392 . S
C1737 C1741 1.495 . S
C1738 C1737 1.392 . S
C1738 C1739 1.385 . S
C1738 C1740 1.478 . S
C1739 H1733 0.930 . S
C1739 C1735 1.400 . S
C1739 C1738 1.385 . S
C1740 C1738 1.478 . S
C1740 C1742 1.381 . S
C1740 C1746 1.383 . S
C1741 C1737 1.495 . S
C1741 H1747 0.959 . S
C1741 H1748 0.961 . S
C1741 H1749 0.960 . S
C1742 C1740 1.381 . S
C1742 C1743 1.394 . S
C1742 H1750 0.930 . S
C1743 C1742 1.394 . S
C1743 C1744 1.383 . S
C1743 H1751 0.929 . S
C1744 C1743 1.383 . S
C1744 C1745 1.377 . S
C1745 H1729 0.930 . S
C1745 C1744 1.377 . S
C1745 C1746 1.379 . S
C1746 H1730 0.931 . S
C1746 C1740 1.383 . S
C1746 C1745 1.379 . S
H1747 C1741 0.959 . S
H1748 C1741 0.961 . S
H1749 C1741 0.960 . S
H1750 C1742 0.930 . S
H1751 C1743 0.929 . S
H1752 C1760 0.929 . S
H1753 C1762 0.930 . S
H1754 C1764 0.930 . S
H1755 C1767 0.929 . S
H1756 C1770 0.930 . S
H1757 C1772 0.960 . S
H1758 C1772 0.960 . S
H1759 C1772 0.960 . S
C1760 H1752 0.929 . S
C1760 C1761 1.377 . S
C1760 C1762 1.384 1_556 S
C1761 C1760 1.377 . S
C1761 C1767 1.390 1_556 S
C1762 H1753 0.930 . S
C1762 C1760 1.384 1_554 S
C1762 C1763 1.372 . S
C1763 C1762 1.372 . S
C1763 C1764 1.400 . S
C1763 C1768 1.490 . S
C1764 H1754 0.930 . S
C1764 C1763 1.400 . S
C1764 C1767 1.386 . S
H1765 C1781 0.930 . S
H1766 C1782 0.931 . S
C1767 H1755 0.929 . S
C1767 C1761 1.390 1_554 S
C1767 C1764 1.386 . S
C1768 C1763 1.490 . S
C1768 C1770 1.395 . S
C1768 C1771 1.403 . S
H1769 C1775 0.930 . S
C1770 H1756 0.930 . S
C1770 C1768 1.395 . S
C1770 C1773 1.403 . S
C1771 C1768 1.403 . S
C1771 C1772 1.524 . S
C1771 C1775 1.400 . S
C1772 H1757 0.960 . S
C1772 H1758 0.960 . S
C1772 H1759 0.960 . S
C1772 C1771 1.524 . S
C1773 C1770 1.403 . S
C1773 C1774 1.392 . S
C1773 C1777 1.495 . S
C1774 C1773 1.392 . S
C1774 C1775 1.385 . S
C1774 C1776 1.478 . S
C1775 H1769 0.930 . S
C1775 C1771 1.400 . S
C1775 C1774 1.385 . S
C1776 C1774 1.478 . S
C1776 C1778 1.381 . S
C1776 C1782 1.383 . S
C1777 C1773 1.495 . S
C1777 H1783 0.959 . S
C1777 H1784 0.961 . S
C1777 H1785 0.960 . S
C1778 C1776 1.381 . S
C1778 C1779 1.394 . S
C1778 H1786 0.930 . S
C1779 C1778 1.394 . S
C1779 C1780 1.383 . S
C1779 H1787 0.929 . S
C1780 C1779 1.383 . S
C1780 C1781 1.377 . S
C1781 H1765 0.930 . S
C1781 C1780 1.377 . S
C1781 C1782 1.379 . S
C1782 H1766 0.931 . S
C1782 C1776 1.383 . S
C1782 C1781 1.379 . S
H1783 C1777 0.959 . S
H1784 C1777 0.961 . S
H1785 C1777 0.960 . S
H1786 C1778 0.930 . S
H1787 C1779 0.929 . S
H1788 C1796 0.929 . S
H1789 C1798 0.930 . S
H1790 C1800 0.930 . S
H1791 C1803 0.929 . S
H1792 C1806 0.930 . S
H1793 C1808 0.960 . S
H1794 C1808 0.960 . S
H1795 C1808 0.960 . S
C1796 H1788 0.929 . S
C1796 C1797 1.377 . S
C1796 C1798 1.384 . S
C1797 C1796 1.377 . S
C1797 C1803 1.390 . S
C1798 H1789 0.930 . S
C1798 C1796 1.384 . S
C1798 C1799 1.372 . S
C1799 C1798 1.372 . S
C1799 C1800 1.400 . S
C1799 C1804 1.490 . S
C1800 H1790 0.930 . S
C1800 C1799 1.400 . S
C1800 C1803 1.386 . S
H1801 C1817 0.930 . S
H1802 C1818 0.931 . S
C1803 H1791 0.929 . S
C1803 C1797 1.390 . S
C1803 C1800 1.386 . S
C1804 C1799 1.490 . S
C1804 C1806 1.395 . S
C1804 C1807 1.403 . S
H1805 C1811 0.930 . S
C1806 H1792 0.930 . S
C1806 C1804 1.395 . S
C1806 C1809 1.403 . S
C1807 C1804 1.403 . S
C1807 C1808 1.524 . S
C1807 C1811 1.400 . S
C1808 H1793 0.960 . S
C1808 H1794 0.960 . S
C1808 H1795 0.960 . S
C1808 C1807 1.524 . S
C1809 C1806 1.403 . S
C1809 C1810 1.392 . S
C1809 C1813 1.495 . S
C1810 C1809 1.392 . S
C1810 C1811 1.385 . S
C1810 C1812 1.478 . S
C1811 H1805 0.930 . S
C1811 C1807 1.400 . S
C1811 C1810 1.385 . S
C1812 C1810 1.478 . S
C1812 C1814 1.381 . S
C1812 C1818 1.383 . S
C1813 C1809 1.495 . S
C1813 H1819 0.959 . S
C1813 H1820 0.961 . S
C1813 H1821 0.960 . S
C1814 C1812 1.381 . S
C1814 C1815 1.394 . S
C1814 H1822 0.930 . S
C1815 C1814 1.394 . S
C1815 C1816 1.383 . S
C1815 H1823 0.929 . S
C1816 C1815 1.383 . S
C1816 C1817 1.377 . S
C1817 H1801 0.930 . S
C1817 C1816 1.377 . S
C1817 C1818 1.379 . S
C1818 H1802 0.931 . S
C1818 C1812 1.383 . S
C1818 C1817 1.379 . S
H1819 C1813 0.959 . S
H1820 C1813 0.961 . S
H1821 C1813 0.960 . S
H1822 C1814 0.930 . S
H1823 C1815 0.929 . S
H1824 C1832 0.929 . S
H1825 C1834 0.930 . S
H1826 C1836 0.930 . S
H1827 C1839 0.929 . S
H1828 C1842 0.930 . S
H1829 C1844 0.960 . S
H1830 C1844 0.960 . S
H1831 C1844 0.960 . S
C1832 H1824 0.929 . S
C1832 C1833 1.377 . S
C1832 C1834 1.384 . S
C1833 C1832 1.377 . S
C1833 C1839 1.390 . S
C1834 H1825 0.930 . S
C1834 C1832 1.384 . S
C1834 C1835 1.372 . S
C1835 C1834 1.372 . S
C1835 C1836 1.400 . S
C1835 C1840 1.490 . S
C1836 H1826 0.930 . S
C1836 C1835 1.400 . S
C1836 C1839 1.386 . S
H1837 C1853 0.930 . S
H1838 C1854 0.931 . S
C1839 H1827 0.929 . S
C1839 C1833 1.390 . S
C1839 C1836 1.386 . S
C1840 C1835 1.490 . S
C1840 C1842 1.395 . S
C1840 C1843 1.403 . S
H1841 C1847 0.930 . S
C1842 H1828 0.930 . S
C1842 C1840 1.395 . S
C1842 C1845 1.403 . S
C1843 C1840 1.403 . S
C1843 C1844 1.524 . S
C1843 C1847 1.400 . S
C1844 H1829 0.960 . S
C1844 H1830 0.960 . S
C1844 H1831 0.960 . S
C1844 C1843 1.524 . S
C1845 C1842 1.403 . S
C1845 C1846 1.392 . S
C1845 C1849 1.495 . S
C1846 C1845 1.392 . S
C1846 C1847 1.385 . S
C1846 C1848 1.478 . S
C1847 H1841 0.930 . S
C1847 C1843 1.400 . S
C1847 C1846 1.385 . S
C1848 C1846 1.478 . S
C1848 C1850 1.381 . S
C1848 C1854 1.383 . S
C1849 C1845 1.495 . S
C1849 H1855 0.959 . S
C1849 H1856 0.961 . S
C1849 H1857 0.960 . S
C1850 C1848 1.381 . S
C1850 C1851 1.394 . S
C1850 H1858 0.930 . S
C1851 C1850 1.394 . S
C1851 C1852 1.383 . S
C1851 H1859 0.929 . S
C1852 C1851 1.383 . S
C1852 C1853 1.377 . S
C1853 H1837 0.930 . S
C1853 C1852 1.377 . S
C1853 C1854 1.379 . S
C1854 H1838 0.931 . S
C1854 C1848 1.383 . S
C1854 C1853 1.379 . S
H1855 C1849 0.959 . S
H1856 C1849 0.961 . S
H1857 C1849 0.960 . S
H1858 C1850 0.930 . S
H1859 C1851 0.929 . S
H1860 C1868 0.929 . S
H1861 C1870 0.930 . S
H1862 C1872 0.930 . S
H1863 C1875 0.929 . S
H1864 C1878 0.930 . S
H1865 C1880 0.960 . S
H1866 C1880 0.960 . S
H1867 C1880 0.960 . S
C1868 H1860 0.929 . S
C1868 C1869 1.377 . S
C1868 C1870 1.384 . S
C1869 C1868 1.377 . S
C1869 C1875 1.390 . S
C1870 H1861 0.930 . S
C1870 C1868 1.384 . S
C1870 C1871 1.372 . S
C1871 C1870 1.372 . S
C1871 C1872 1.400 . S
C1871 C1876 1.490 . S
C1872 H1862 0.930 . S
C1872 C1871 1.400 . S
C1872 C1875 1.386 . S
H1873 C1889 0.930 . S
H1874 C1890 0.931 . S
C1875 H1863 0.929 . S
C1875 C1869 1.390 . S
C1875 C1872 1.386 . S
C1876 C1871 1.490 . S
C1876 C1878 1.395 . S
C1876 C1879 1.403 . S
H1877 C1883 0.930 . S
C1878 H1864 0.930 . S
C1878 C1876 1.395 . S
C1878 C1881 1.403 . S
C1879 C1876 1.403 . S
C1879 C1880 1.524 . S
C1879 C1883 1.400 . S
C1880 H1865 0.960 . S
C1880 H1866 0.960 . S
C1880 H1867 0.960 . S
C1880 C1879 1.524 . S
C1881 C1878 1.403 . S
C1881 C1882 1.392 . S
C1881 C1885 1.495 . S
C1882 C1881 1.392 . S
C1882 C1883 1.385 . S
C1882 C1884 1.478 . S
C1883 H1877 0.930 . S
C1883 C1879 1.400 . S
C1883 C1882 1.385 . S
C1884 C1882 1.478 . S
C1884 C1886 1.381 . S
C1884 C1890 1.383 . S
C1885 C1881 1.495 . S
C1885 H1891 0.959 . S
C1885 H1892 0.961 . S
C1885 H1893 0.960 . S
C1886 C1884 1.381 . S
C1886 C1887 1.394 . S
C1886 H1894 0.930 . S
C1887 C1886 1.394 . S
C1887 C1888 1.383 . S
C1887 H1895 0.929 . S
C1888 C1887 1.383 . S
C1888 C1889 1.377 . S
C1889 H1873 0.930 . S
C1889 C1888 1.377 . S
C1889 C1890 1.379 . S
C1890 H1874 0.931 . S
C1890 C1884 1.383 . S
C1890 C1889 1.379 . S
H1891 C1885 0.959 . S
H1892 C1885 0.961 . S
H1893 C1885 0.960 . S
H1894 C1886 0.930 . S
H1895 C1887 0.929 . S
H1896 C1904 0.929 . S
H1897 C1906 0.930 . S
H1898 C1908 0.930 . S
H1899 C1911 0.929 . S
H1900 C1914 0.930 . S
H1901 C1916 0.960 . S
H1902 C1916 0.960 . S
H1903 C1916 0.960 . S
C1904 H1896 0.929 . S
C1904 C1905 1.377 . S
C1904 C1906 1.384 . S
C1905 C1904 1.377 . S
C1905 C1911 1.390 . S
C1906 H1897 0.930 . S
C1906 C1904 1.384 . S
C1906 C1907 1.372 . S
C1907 C1906 1.372 . S
C1907 C1908 1.400 . S
C1907 C1912 1.490 . S
C1908 H1898 0.930 . S
C1908 C1907 1.400 . S
C1908 C1911 1.386 . S
H1909 C1925 0.930 . S
H1910 C1926 0.931 . S
C1911 H1899 0.929 . S
C1911 C1905 1.390 . S
C1911 C1908 1.386 . S
C1912 C1907 1.490 . S
C1912 C1914 1.395 . S
C1912 C1915 1.403 . S
H1913 C1919 0.930 . S
C1914 H1900 0.930 . S
C1914 C1912 1.395 . S
C1914 C1917 1.403 . S
C1915 C1912 1.403 . S
C1915 C1916 1.524 . S
C1915 C1919 1.400 . S
C1916 H1901 0.960 . S
C1916 H1902 0.960 . S
C1916 H1903 0.960 . S
C1916 C1915 1.524 . S
C1917 C1914 1.403 . S
C1917 C1918 1.392 . S
C1917 C1921 1.495 . S
C1918 C1917 1.392 . S
C1918 C1919 1.385 . S
C1918 C1920 1.478 . S
C1919 H1913 0.930 . S
C1919 C1915 1.400 . S
C1919 C1918 1.385 . S
C1920 C1918 1.478 . S
C1920 C1922 1.381 . S
C1920 C1926 1.383 . S
C1921 C1917 1.495 . S
C1921 H1927 0.959 . S
C1921 H1928 0.961 . S
C1921 H1929 0.960 . S
C1922 C1920 1.381 . S
C1922 C1923 1.394 . S
C1922 H1930 0.930 . S
C1923 C1922 1.394 . S
C1923 C1924 1.383 . S
C1923 H1931 0.929 . S
C1924 C1923 1.383 . S
C1924 C1925 1.377 . S
C1925 H1909 0.930 . S
C1925 C1924 1.377 . S
C1925 C1926 1.379 . S
C1926 H1910 0.931 . S
C1926 C1920 1.383 . S
C1926 C1925 1.379 . S
H1927 C1921 0.959 . S
H1928 C1921 0.961 . S
H1929 C1921 0.960 . S
H1930 C1922 0.930 . S
H1931 C1923 0.929 . S
H1932 C1940 0.929 . S
H1933 C1942 0.930 . S
H1934 C1944 0.930 . S
H1935 C1947 0.929 . S
H1936 C1950 0.930 . S
H1937 C1952 0.960 . S
H1938 C1952 0.960 . S
H1939 C1952 0.974 . S
C1940 H1932 0.929 . S
C1940 C1941 1.377 . S
C1940 C1942 1.384 . S
C1941 C1940 1.377 . S
C1941 C1947 1.390 . S
C1942 H1933 0.930 . S
C1942 C1940 1.384 . S
C1942 C1943 1.372 . S
C1943 C1942 1.372 . S
C1943 C1944 1.400 . S
C1943 C1948 1.490 . S
C1944 H1934 0.930 . S
C1944 C1943 1.400 . S
C1944 C1947 1.386 . S
H1945 C1961 0.930 . S
H1946 C1962 0.931 . S
C1947 H1935 0.929 . S
C1947 C1941 1.390 . S
C1947 C1944 1.386 . S
C1948 C1943 1.490 . S
C1948 C1950 1.395 . S
C1948 C1951 1.403 . S
H1949 C1955 0.930 1_554 S
C1950 H1936 0.930 . S
C1950 C1948 1.395 . S
C1950 C1953 1.403 . S
C1951 C1948 1.403 . S
C1951 C1952 1.524 1_556 S
C1951 C1955 1.400 . S
C1952 H1937 0.960 . S
C1952 H1938 0.960 . S
C1952 H1939 0.974 . S
C1952 C1951 1.524 1_554 S
C1953 C1950 1.403 . S
C1953 C1954 1.392 . S
C1953 C1957 1.495 . S
C1954 C1953 1.392 . S
C1954 C1955 1.385 . S
C1954 C1956 1.478 . S
C1955 H1949 0.930 1_556 S
C1955 C1951 1.400 . S
C1955 C1954 1.385 . S
C1956 C1954 1.478 . S
C1956 C1958 1.381 . S
C1956 C1962 1.383 . S
C1957 C1953 1.495 . S
C1957 H1963 0.959 . S
C1957 H1964 0.961 . S
C1957 H1965 0.960 . S
C1958 C1956 1.381 . S
C1958 C1959 1.394 . S
C1958 H1966 0.930 . S
C1959 C1958 1.394 . S
C1959 C1960 1.383 . S
C1959 H1967 0.929 . S
C1960 C1959 1.383 . S
C1960 C1961 1.377 . S
C1961 H1945 0.930 . S
C1961 C1960 1.377 . S
C1961 C1962 1.379 . S
C1962 H1946 0.931 . S
C1962 C1956 1.383 . S
C1962 C1961 1.379 . S
H1963 C1957 0.959 . S
H1964 C1957 0.961 . S
H1965 C1957 0.960 . S
H1966 C1958 0.930 . S
H1967 C1959 0.929 . S
H1968 C1976 0.929 . S
H1969 C1978 0.930 . S
H1970 C1980 0.930 . S
H1971 C1983 0.929 . S
H1972 C1986 0.930 . S
H1973 C1988 0.960 . S
H1974 C1988 0.960 . S
H1975 C1988 0.960 . S
C1976 H1968 0.929 . S
C1976 C1977 1.377 . S
C1976 C1978 1.384 . S
C1977 C1976 1.377 . S
C1977 C1983 1.390 . S
C1978 H1969 0.930 . S
C1978 C1976 1.384 . S
C1978 C1979 1.372 . S
C1979 C1978 1.372 . S
C1979 C1980 1.400 . S
C1979 C1984 1.490 . S
C1980 H1970 0.930 . S
C1980 C1979 1.400 . S
C1980 C1983 1.386 . S
H1981 C1997 0.930 . S
H1982 C1998 0.931 . S
C1983 H1971 0.929 . S
C1983 C1977 1.390 . S
C1983 C1980 1.386 . S
C1984 C1979 1.490 . S
C1984 C1986 1.395 . S
C1984 C1987 1.403 . S
H1985 C1991 0.930 . S
C1986 H1972 0.930 . S
C1986 C1984 1.395 . S
C1986 C1989 1.403 . S
C1987 C1984 1.403 . S
C1987 C1988 1.524 . S
C1987 C1991 1.400 . S
C1988 H1973 0.960 . S
C1988 H1974 0.960 . S
C1988 H1975 0.960 . S
C1988 C1987 1.524 . S
C1989 C1986 1.403 . S
C1989 C1990 1.392 . S
C1989 C1993 1.495 . S
C1990 C1989 1.392 . S
C1990 C1991 1.385 . S
C1990 C1992 1.478 . S
C1991 H1985 0.930 . S
C1991 C1987 1.400 . S
C1991 C1990 1.385 . S
C1992 C1990 1.478 . S
C1992 C1994 1.381 . S
C1992 C1998 1.383 . S
C1993 C1989 1.495 . S
C1993 H1999 0.959 . S
C1993 H2000 0.961 . S
C1993 H2001 0.960 . S
C1994 C1992 1.381 . S
C1994 C1995 1.394 . S
C1994 H2002 0.930 . S
C1995 C1994 1.394 . S
C1995 C1996 1.383 . S
C1995 H2003 0.929 . S
C1996 C1995 1.383 . S
C1996 C1997 1.377 . S
C1997 H1981 0.930 . S
C1997 C1996 1.377 . S
C1997 C1998 1.379 . S
C1998 H1982 0.931 . S
C1998 C1992 1.383 . S
C1998 C1997 1.379 . S
H1999 C1993 0.959 . S
H2000 C1993 0.961 . S
H2001 C1993 0.960 . S
H2002 C1994 0.930 . S
H2003 C1995 0.929 . S
H2004 C2012 0.929 . S
H2005 C2014 0.930 . S
H2006 C2016 0.930 . S
H2007 C2019 0.929 . S
H2008 C2022 0.930 . S
H2009 C2024 0.960 . S
H2010 C2024 0.960 . S
H2011 C2024 0.960 . S
C2012 H2004 0.929 . S
C2012 C2013 1.377 . S
C2012 C2014 1.384 . S
C2013 C2012 1.377 . S
C2013 C2019 1.390 . S
C2014 H2005 0.930 . S
C2014 C2012 1.384 . S
C2014 C2015 1.372 . S
C2015 C2014 1.372 . S
C2015 C2016 1.400 . S
C2015 C2020 1.490 . S
C2016 H2006 0.930 . S
C2016 C2015 1.400 . S
C2016 C2019 1.386 . S
H2017 C2033 0.930 . S
H2018 C2034 0.931 . S
C2019 H2007 0.929 . S
C2019 C2013 1.390 . S
C2019 C2016 1.386 . S
C2020 C2015 1.490 . S
C2020 C2022 1.395 . S
C2020 C2023 1.403 . S
H2021 C2027 0.930 . S
C2022 H2008 0.930 . S
C2022 C2020 1.395 . S
C2022 C2025 1.403 . S
C2023 C2020 1.403 . S
C2023 C2024 1.524 . S
C2023 C2027 1.400 . S
C2024 H2009 0.960 . S
C2024 H2010 0.960 . S
C2024 H2011 0.960 . S
C2024 C2023 1.524 . S
C2025 C2022 1.403 . S
C2025 C2026 1.392 . S
C2025 C2029 1.495 . S
C2026 C2025 1.392 . S
C2026 C2027 1.385 . S
C2026 C2028 1.478 . S
C2027 H2021 0.930 . S
C2027 C2023 1.400 . S
C2027 C2026 1.385 . S
C2028 C2026 1.478 . S
C2028 C2030 1.381 . S
C2028 C2034 1.383 1_554 S
C2029 C2025 1.495 . S
C2029 H2035 0.959 . S
C2029 H2036 0.961 . S
C2029 H2037 0.960 . S
C2030 C2028 1.381 . S
C2030 C2031 1.394 . S
C2030 H2038 0.930 . S
C2031 C2030 1.394 . S
C2031 C2032 1.383 . S
C2031 H2039 0.929 . S
C2032 C2031 1.383 . S
C2032 C2033 1.377 1_554 S
C2033 H2017 0.930 . S
C2033 C2032 1.377 1_556 S
C2033 C2034 1.379 . S
C2034 H2018 0.931 . S
C2034 C2028 1.383 1_556 S
C2034 C2033 1.379 . S
H2035 C2029 0.959 . S
H2036 C2029 0.961 . S
H2037 C2029 0.960 . S
H2038 C2030 0.930 . S
H2039 C2031 0.929 . S
H2040 C2048 0.929 . S
H2041 C2050 0.930 . S
H2042 C2052 0.930 . S
H2043 C2055 0.929 . S
H2044 C2058 0.930 1_545 S
H2045 C2060 0.960 . S
H2046 C2060 0.960 . S
H2047 C2060 0.960 . S
C2048 H2040 0.929 . S
C2048 C2049 1.377 . S
C2048 C2050 1.384 . S
C2049 C2048 1.377 . S
C2049 C2055 1.390 . S
C2050 H2041 0.930 . S
C2050 C2048 1.384 . S
C2050 C2051 1.372 . S
C2051 C2050 1.372 . S
C2051 C2052 1.400 . S
C2051 C2056 1.490 1_545 S
C2052 H2042 0.930 . S
C2052 C2051 1.400 . S
C2052 C2055 1.386 . S
H2053 C2069 0.930 . S
H2054 C2070 0.931 . S
C2055 H2043 0.929 . S
C2055 C2049 1.390 . S
C2055 C2052 1.386 . S
C2056 C2051 1.490 1_565 S
C2056 C2058 1.395 . S
C2056 C2059 1.403 . S
H2057 C2063 0.930 . S
C2058 H2044 0.930 1_565 S
C2058 C2056 1.395 . S
C2058 C2061 1.403 . S
C2059 C2056 1.403 . S
C2059 C2060 1.524 . S
C2059 C2063 1.400 . S
C2060 H2045 0.960 . S
C2060 H2046 0.960 . S
C2060 H2047 0.960 . S
C2060 C2059 1.524 . S
C2061 C2058 1.403 . S
C2061 C2062 1.392 . S
C2061 C2065 1.495 . S
C2062 C2061 1.392 . S
C2062 C2063 1.385 . S
C2062 C2064 1.478 . S
C2063 H2057 0.930 . S
C2063 C2059 1.400 . S
C2063 C2062 1.385 . S
C2064 C2062 1.478 . S
C2064 C2066 1.381 . S
C2064 C2070 1.383 . S
C2065 C2061 1.495 . S
C2065 H2071 0.959 1_565 S
C2065 H2072 0.961 . S
C2065 H2073 0.960 . S
C2066 C2064 1.381 . S
C2066 C2067 1.394 . S
C2066 H2074 0.908 1_554 S
C2067 C2066 1.394 . S
C2067 C2068 1.383 . S
C2067 H2075 0.929 1_554 S
C2068 C2067 1.383 . S
C2068 C2069 1.377 . S
C2069 H2053 0.930 . S
C2069 C2068 1.377 . S
C2069 C2070 1.379 . S
C2070 H2054 0.931 . S
C2070 C2064 1.383 . S
C2070 C2069 1.379 . S
H2071 C2065 0.959 1_545 S
H2072 C2065 0.961 . S
H2073 C2065 0.960 . S
H2074 C2066 0.908 1_556 S
H2075 C2067 0.929 1_556 S
C376 C202 1.657 . S
C357 C66 1.697 . S
C412 C215 1.173 . S
C393 C76 1.170 . S
C429 C93 1.838 . S
C448 C228 1.793 . S
C484 C241 1.453 . S
C465 C54 1.495 . S
C520 C249 1.472 . S
C501 C126 1.482 . S
C556 C262 1.775 . S
C537 C150 1.797 . S
C573 C136 1.112 . S
C592 C275 1.114 . S
C628 C288 1.798 . S
C609 C117 1.809 . S
C645 C141 1.171 . S
C664 C306 1.148 . S
C700 C317 1.330 . S
C681 C112 1.325 . S
C717 C124 1.510 . S
C736 C301 1.475 . S
C772 C309 1.212 . S
C753 C148 1.221 . S
C789 C88 1.237 . S
C808 C332 1.225 . S
C825 C52 1.616 . S
C844 C322 1.586 . S
C861 C64 1.224 . S
C880 C327 1.189 . S
C897 C78 1.219 . S
C916 C330 1.213 . S
C933 C45 1.703 . S
C952 C239 1.696 1_565 S
C969 C177 1.845 . S
C988 C231 1.832 . S
C1024 C200 1.453 . S
C1005 C189 1.447 . S
C1060 C205 1.617 . S
C1041 C102 1.636 . S
C1077 C57 1.774 1_545 S
C1096 C252 1.779 . S
C1132 C291 1.451 . S
C1113 C138 1.478 . S
C1168 C244 1.819 . S
C1149 C114 1.829 1_545 S
C1204 C270 1.691 . S
C1185 C153 1.714 . S
C1240 C280 1.668 . S
C1221 C174 1.695 . S
C1257 C184 1.169 . S
C1276 C293 1.170 . S
C1293 C105 1.839 . S
C1312 C254 1.805 . S
C1348 C267 1.473 . S
C1329 C162 1.495 . S
C1365 C42 1.482 . S
C1384 C223 1.469 . S
C1420 C236 1.780 . S
C1401 C6 1.797 . S
C1456 C197 1.117 . S
C1437 C16 1.113 . S
C1492 C210 1.799 . S
C1473 C33 1.794 1_455 S
C1509 C21 1.170 . S
C1528 C319 1.174 . S
C1545 C28 1.327 1_556 S
C1564 C304 1.297 . S
C1581 C40 1.508 . S
C1600 C314 1.473 . S
C1617 C4 1.225 . S
C1636 C296 1.220 . S
C1672 C345 1.236 . S
C1653 C100 1.236 . S
C1708 C335 1.594 . S
C1689 C160 1.617 1_554 S
C1744 C340 1.222 . S
C1725 C172 1.227 . S
C1761 C186 1.219 . S
C1780 C343 1.213 . S
C1797 C129 1.702 . S
C1816 C265 1.689 . S
C1852 C257 1.814 . S
C1833 C69 1.845 . S
C1888 C278 1.428 . S
C1869 C81 1.451 . S
C1924 C283 1.603 . S
C1905 C90 1.634 . S
C1941 C165 1.794 . S
C1960 C226 1.785 . S
C1996 C213 1.456 . S
C1977 C18 1.477 . S
C2013 C30 1.829 . S
C2032 C218 1.806 . S
C2068 C192 1.680 . S
C2049 C9 1.713 . S
