# Generated by pormake.
# Topology ftw, (4,12)-cn, num edge types: 1
# Building blocks:
#     Node 0, Type 0, BuildingBlock: NAHDIM_clean_linker_0, # of connection points: 4
#     Node 1, Type 0, BuildingBlock: NAHDIM_clean_linker_0, # of connection points: 4
#     Node 2, Type 0, BuildingBlock: NAHDIM_clean_linker_0, # of connection points: 4
#     Node 3, Type 1, BuildingBlock: EZIPEK_clean_sbu_0, # of connection points: 12
#     Edge 4, Type (0, 1), BuildingBlock: MIFKUJ_clean_linker_0, # of connection points: 2
#     Edge 5, Type (0, 1), BuildingBlock: MIFKUJ_clean_linker_0, # of connection points: 2
#     Edge 6, Type (0, 1), BuildingBlock: MIFKUJ_clean_linker_0, # of connection points: 2
#     Edge 7, Type (0, 1), BuildingBlock: MIFKUJ_clean_linker_0, # of connection points: 2
#     Edge 8, Type (0, 1), BuildingBlock: MIFKUJ_clean_linker_0, # of connection points: 2
#     Edge 9, Type (0, 1), BuildingBlock: MIFKUJ_clean_linker_0, # of connection points: 2
#     Edge 10, Type (0, 1), BuildingBlock: MIFKUJ_clean_linker_0, # of connection points: 2
#     Edge 11, Type (0, 1), BuildingBlock: MIFKUJ_clean_linker_0, # of connection points: 2
#     Edge 12, Type (0, 1), BuildingBlock: MIFKUJ_clean_linker_0, # of connection points: 2
#     Edge 13, Type (0, 1), BuildingBlock: MIFKUJ_clean_linker_0, # of connection points: 2
#     Edge 14, Type (0, 1), BuildingBlock: MIFKUJ_clean_linker_0, # of connection points: 2
#     Edge 15, Type (0, 1), BuildingBlock: MIFKUJ_clean_linker_0, # of connection points: 2
# Relax obj value: 0.006
# Max RMSD: 0.061
# Mean RMSD: 0.047
data_MOF--net-ftw--node1-EZIPEK_clean_sbu_0--node2-NAHDIM_clean_linker_0--edge1-MIFKUJ_clean_linker_0
_symmetry_space_group_name_H-M    P1
_symmetry_Int_Tables_number       1
_symmetry_cell_setting            triclinic
loop_
_symmetry_equiv_pos_as_xyz
'x, y, z'
_cell_length_a     39.532948
_cell_length_b     38.914257
_cell_length_c     38.270681
_cell_angle_alpha  90.397184
_cell_angle_beta   89.642331
_cell_angle_gamma 89.646021
loop_
_atom_site_label
_atom_site_type_symbol
_atom_site_fract_x
_atom_site_fract_y
_atom_site_fract_z
_atom_type_partial_charge
C0 C 0.10505 0.6776 0.36315 0.0
C1 C 0.07428 0.66645 0.34172 0.0
C2 C 0.03915 0.63089 0.38045 0.0
C3 C 0.00766 0.6289 0.39704 0.0
C4 C 0.99782 0.59919 0.4149 0.0
C5 C 0.02041 0.57092 0.4167 0.0
C6 C 0.05247 0.57277 0.40025 0.0
C7 C 0.06148 0.60264 0.38214 0.0
C8 C 0.96328 0.598 0.43186 0.0
C9 C 0.07727 0.5432 0.40196 0.0
C10 C 0.90547 0.398 0.28786 0.0
C11 C 0.93952 0.38785 0.30362 0.0
C12 C 0.94785 0.40486 0.36347 0.0
C13 C 0.98274 0.40857 0.36763 0.0
C14 C 0.99566 0.43273 0.39136 0.0
C15 C 0.97305 0.45405 0.41068 0.0
C16 C 0.93768 0.44993 0.40673 0.0
C17 C 0.92552 0.42483 0.38354 0.0
C18 C 0.03347 0.43598 0.39514 0.0
C19 C 0.91276 0.47268 0.42616 0.0
C20 C 0.94673 0.38809 0.63299 0.0
C21 C 0.98055 0.38581 0.62176 0.0
C22 C 0.99628 0.41386 0.60558 0.0
C23 C 0.97764 0.44456 0.60036 0.0
C24 C 0.94395 0.44724 0.61286 0.0
C25 C 0.9291 0.41902 0.62944 0.0
C26 C 0.0326 0.41061 0.59364 0.0
C27 C 0.92342 0.47968 0.6081 0.0
C28 C 0.10362 0.69044 0.62705 0.0
C29 C 0.07087 0.67722 0.64347 0.0
C30 C 0.06081 0.61562 0.63915 0.0
C31 C 0.08036 0.58614 0.63317 0.0
C32 C 0.06685 0.55753 0.61576 0.0
C33 C 0.03271 0.55833 0.6049 0.0
C34 C 0.01219 0.5873 0.61296 0.0
C35 C 0.02651 0.61574 0.62996 0.0
C36 C 0.08931 0.52691 0.60795 0.0
C37 C 0.97538 0.58853 0.60284 0.0
C38 C 0.0105 0.53947 0.43589 0.0
C39 C 0.99713 0.51212 0.41673 0.0
C40 C 0.98647 0.48204 0.43316 0.0
C41 C 0.98862 0.47929 0.46994 0.0
C42 C 0.97753 0.44977 0.48749 0.0
C43 C 0.97868 0.44787 0.52378 0.0
C44 C 0.99186 0.47503 0.54388 0.0
C45 C 0.99279 0.47355 0.58082 0.0
C46 C 0.00651 0.50082 0.59993 0.0
C47 C 0.01909 0.52991 0.58316 0.0
C48 C 0.01796 0.53206 0.5463 0.0
C49 C 0.03015 0.56109 0.52862 0.0
C50 C 0.02789 0.56351 0.49248 0.0
C51 C 0.01364 0.53687 0.47254 0.0
C52 C 0.0022 0.50688 0.48967 0.0
C53 C 0.00415 0.50458 0.52663 0.0
C54 C 0.90003 0.31218 0.62871 0.0
C55 C 0.93451 0.32684 0.63855 0.0
O56 O 0.04684 0.66051 0.3635 0.0
O57 O 0.07571 0.64347 0.65385 0.0
O58 O 0.93038 0.36117 0.64763 0.0
O59 O 0.93546 0.3829 0.33922 0.0
H60 H 0.08104 0.64255 0.32707 0.0
H61 H 0.11308 0.65675 0.38094 0.0
H62 H 0.09904 0.70068 0.37932 0.0
H63 H 0.12664 0.68352 0.3455 0.0
H64 H 0.99061 0.65077 0.39569 0.0
H65 H 0.08608 0.60365 0.36974 0.0
H66 H 0.94955 0.57476 0.42292 0.0
H67 H 0.94776 0.62109 0.42588 0.0
H68 H 0.96607 0.5962 0.46063 0.0
H69 H 0.10217 0.54959 0.39013 0.0
H70 H 0.06676 0.52069 0.38788 0.0
H71 H 0.08119 0.53558 0.42956 0.0
H72 H 0.95735 0.40944 0.29865 0.0
H73 H 0.90821 0.40235 0.25931 0.0
H74 H 0.89615 0.42219 0.30023 0.0
H75 H 0.8864 0.37759 0.29229 0.0
H76 H 0.99975 0.3927 0.35203 0.0
H77 H 0.89855 0.42161 0.37995 0.0
H78 H 0.04045 0.43734 0.42318 0.0
H79 H 0.04187 0.46015 0.38265 0.0
H80 H 0.04729 0.41416 0.38263 0.0
H81 H 0.8863 0.46833 0.41768 0.0
H82 H 0.91909 0.50014 0.42211 0.0
H83 H 0.91434 0.46759 0.4546 0.0
H84 H 0.95106 0.32403 0.61502 0.0
H85 H 0.99473 0.36228 0.62579 0.0
H86 H 0.9032 0.42063 0.63879 0.0
H87 H 0.03377 0.41154 0.56467 0.0
H88 H 0.04451 0.38623 0.60237 0.0
H89 H 0.04752 0.43255 0.60382 0.0
H90 H 0.89709 0.4771 0.61798 0.0
H91 H 0.92262 0.4865 0.57999 0.0
H92 H 0.93566 0.50125 0.62222 0.0
H93 H 0.05109 0.67896 0.62295 0.0
H94 H 0.10035 0.7175 0.61851 0.0
H95 H 0.11035 0.67451 0.6038 0.0
H96 H 0.1248 0.68907 0.64597 0.0
H97 H 0.10666 0.58613 0.64101 0.0
H98 H 0.01096 0.63804 0.63599 0.0
H99 H 0.09071 0.52252 0.57927 0.0
H100 H 0.07829 0.50353 0.61983 0.0
H101 H 0.11536 0.53035 0.61806 0.0
H102 H 0.96198 0.61111 0.6144 0.0
H103 H 0.96245 0.56474 0.61138 0.0
H104 H 0.97335 0.58987 0.57396 0.0
H105 H 0.99492 0.5143 0.38857 0.0
H106 H 0.96738 0.42798 0.47338 0.0
H107 H 0.96919 0.42474 0.53585 0.0
H108 H 0.00695 0.4996 0.62824 0.0
H109 H 0.04133 0.58246 0.54252 0.0
H110 H 0.03743 0.5866 0.48036 0.0
H111 H 0.90258 0.28477 0.62072 0.0
H112 H 0.8894 0.32674 0.60642 0.0
H113 H 0.88209 0.31417 0.65113 0.0
C114 C 0.68921 0.1029 0.63643 0.0
C115 C 0.67739 0.07446 0.66117 0.0
C116 C 0.63971 0.03841 0.62535 0.0
C117 C 0.63619 0.00607 0.6098 0.0
C118 C 0.60682 0.99726 0.59147 0.0
C119 C 0.58045 0.02176 0.58811 0.0
C120 C 0.58369 0.05456 0.60385 0.0
C121 C 0.61317 0.06252 0.6225 0.0
C122 C 0.60403 0.9618 0.57556 0.0
C123 C 0.55611 0.08132 0.60065 0.0
C124 C 0.35703 0.89766 0.64532 0.0
C125 C 0.36755 0.92934 0.66671 0.0
C126 C 0.40287 0.96462 0.62781 0.0
C127 C 0.40513 0.99676 0.612 0.0
C128 C 0.43425 0.00648 0.59353 0.0
C129 C 0.46148 0.9829 0.58984 0.0
C130 C 0.45949 0.9503 0.60584 0.0
C131 C 0.43038 0.94161 0.62499 0.0
C132 C 0.43576 0.04191 0.57779 0.0
C133 C 0.48794 0.92444 0.6023 0.0
C134 C 0.40177 0.96 0.36471 0.0
C135 C 0.4031 0.99359 0.37818 0.0
C136 C 0.4319 0.0052 0.39589 0.0
C137 C 0.45976 0.98263 0.40032 0.0
C138 C 0.45884 0.94915 0.38573 0.0
C139 C 0.42993 0.93843 0.36769 0.0
C140 C 0.43251 0.04147 0.41005 0.0
C141 C 0.48819 0.92453 0.38969 0.0
C142 C 0.70332 0.1064 0.36404 0.0
C143 C 0.69025 0.0706 0.35472 0.0
C144 C 0.63015 0.05896 0.36193 0.0
C145 C 0.60078 0.07847 0.367 0.0
C146 C 0.57323 0.06533 0.38577 0.0
C147 C 0.57487 0.03139 0.39877 0.0
C148 C 0.60392 0.01085 0.39203 0.0
C149 C 0.63145 0.025 0.3739 0.0
C150 C 0.54261 0.08792 0.39221 0.0
C151 C 0.60598 0.9741 0.40419 0.0
C152 C 0.54966 0.01305 0.56787 0.0
C153 C 0.52094 0.00238 0.58624 0.0
C154 C 0.49169 0.9922 0.5687 0.0
C155 C 0.49125 0.99176 0.53173 0.0
C156 C 0.46301 0.97978 0.51319 0.0
C157 C 0.46253 0.98013 0.47685 0.0
C158 C 0.49018 0.99268 0.4576 0.0
C159 C 0.48963 0.99387 0.42067 0.0
C160 C 0.51768 0.00619 0.40235 0.0
C161 C 0.54641 0.01771 0.41991 0.0
C162 C 0.54739 0.0169 0.45686 0.0
C163 C 0.57573 0.02861 0.47542 0.0
C164 C 0.57661 0.02726 0.51173 0.0
C165 C 0.54897 0.01467 0.53095 0.0
C166 C 0.5198 0.00355 0.51283 0.0
C167 C 0.51915 0.00431 0.47573 0.0
C168 C 0.326 0.91925 0.37109 0.0
C169 C 0.34072 0.9533 0.35855 0.0
O170 O 0.66912 0.04512 0.6424 0.0
O171 O 0.65663 0.07346 0.34501 0.0
O172 O 0.37401 0.94786 0.34813 0.0
O173 O 0.37363 0.95695 0.64494 0.0
H174 H 0.65487 0.08385 0.67607 0.0
H175 H 0.66858 0.11051 0.61852 0.0
H176 H 0.71109 0.09404 0.6203 0.0
H177 H 0.69673 0.126 0.65167 0.0
H178 H 0.65666 0.98759 0.61216 0.0
H179 H 0.61524 0.08769 0.63437 0.0
H180 H 0.57984 0.94977 0.58366 0.0
H181 H 0.6253 0.94472 0.58326 0.0
H182 H 0.60391 0.96377 0.54665 0.0
H183 H 0.56333 0.10637 0.61244 0.0
H184 H 0.53281 0.07212 0.61386 0.0
H185 H 0.54996 0.08531 0.57268 0.0
H186 H 0.39091 0.92272 0.68137 0.0
H187 H 0.35014 0.87628 0.66304 0.0
H188 H 0.37816 0.88868 0.62832 0.0
H189 H 0.33517 0.90361 0.62827 0.0
H190 H 0.38391 0.01441 0.6144 0.0
H191 H 0.42926 0.91666 0.63714 0.0
H192 H 0.43371 0.03982 0.54895 0.0
H193 H 0.46035 0.05421 0.58378 0.0
H194 H 0.41498 0.05885 0.58752 0.0
H195 H 0.48122 0.89907 0.61343 0.0
H196 H 0.51061 0.93422 0.61605 0.0
H197 H 0.49488 0.92087 0.57433 0.0
H198 H 0.33921 0.9716 0.38101 0.0
H199 H 0.38183 0.01085 0.37455 0.0
H200 H 0.4288 0.91275 0.35662 0.0
H201 H 0.43291 0.04088 0.43904 0.0
H202 H 0.41018 0.05675 0.40171 0.0
H203 H 0.45585 0.05464 0.40119 0.0
H204 H 0.48289 0.89885 0.37819 0.0
H205 H 0.49421 0.92141 0.4178 0.0
H206 H 0.51095 0.93521 0.37666 0.0
H207 H 0.69288 0.05448 0.37852 0.0
H208 H 0.73006 0.10497 0.37275 0.0
H209 H 0.68787 0.11758 0.38568 0.0
H210 H 0.70169 0.12372 0.34112 0.0
H211 H 0.59995 0.10448 0.35709 0.0
H212 H 0.65382 0.0095 0.36879 0.0
H213 H 0.53642 0.08876 0.42055 0.0
H214 H 0.52048 0.07694 0.37845 0.0
H215 H 0.54649 0.1146 0.3829 0.0
H216 H 0.62826 0.9603 0.39299 0.0
H217 H 0.58267 0.96006 0.39683 0.0
H218 H 0.60785 0.97364 0.4331 0.0
H219 H 0.52136 0.00201 0.61459 0.0
H220 H 0.44095 0.96992 0.52658 0.0
H221 H 0.44009 0.97059 0.46405 0.0
H222 H 0.51705 0.00706 0.37402 0.0
H223 H 0.59767 0.03882 0.46209 0.0
H224 H 0.59918 0.03646 0.52457 0.0
H225 H 0.2994 0.9229 0.38 0.0
H226 H 0.34101 0.90946 0.3934 0.0
H227 H 0.32671 0.89972 0.34976 0.0
C228 C 0.64885 0.70559 0.92245 0.0
C229 C 0.65552 0.70043 0.96149 0.0
C230 C 0.63457 0.6444 0.97642 0.0
C231 C 0.62707 0.63707 0.01127 0.0
C232 C 0.5999 0.61559 0.01994 0.0
C233 C 0.57981 0.6014 0.99298 0.0
C234 C 0.58781 0.60839 0.95762 0.0
C235 C 0.61553 0.62941 0.94976 0.0
C236 C 0.59238 0.60837 0.05787 0.0
C237 C 0.56681 0.59406 0.92818 0.0
C238 C 0.39256 0.71614 0.08138 0.0
C239 C 0.38166 0.70084 0.04627 0.0
C240 C 0.40333 0.6433 0.04199 0.0
C241 C 0.41233 0.63625 0.0073 0.0
C242 C 0.44005 0.61483 0.9994 0.0
C243 C 0.45933 0.60071 0.02694 0.0
C244 C 0.44989 0.60752 0.06209 0.0
C245 C 0.42157 0.62843 0.06917 0.0
C246 C 0.44911 0.60781 0.96165 0.0
C247 C 0.47017 0.59341 0.09208 0.0
C248 C 0.40287 0.37614 0.04301 0.0
C249 C 0.40642 0.3895 0.00926 0.0
C250 C 0.43534 0.40818 0.99986 0.0
C251 C 0.46095 0.41384 0.02492 0.0
C252 C 0.4577 0.39964 0.05873 0.0
C253 C 0.42883 0.38053 0.06715 0.0
C254 C 0.43855 0.42182 0.96319 0.0
C255 C 0.48459 0.40494 0.08602 0.0
C256 C 0.7124 0.38747 0.91984 0.0
C257 C 0.69905 0.37241 0.95404 0.0
C258 C 0.63815 0.37902 0.9616 0.0
C259 C 0.61104 0.38451 0.93911 0.0
C260 C 0.58217 0.40266 0.95034 0.0
C261 C 0.58011 0.41463 0.98531 0.0
C262 C 0.60686 0.40763 0.0087 0.0
C263 C 0.63579 0.39007 0.99649 0.0
C264 C 0.55407 0.40943 0.92472 0.0
C265 C 0.60493 0.41883 0.04649 0.0
C266 C 0.54966 0.58047 0.00182 0.0
C267 C 0.51981 0.59792 0.01077 0.0
C268 C 0.49019 0.58014 0.01887 0.0
C269 C 0.49023 0.54381 0.01841 0.0
C270 C 0.46097 0.5251 0.02665 0.0
C271 C 0.46132 0.48934 0.0263 0.0
C272 C 0.49074 0.47089 0.01692 0.0
C273 C 0.49118 0.43453 0.01584 0.0
C274 C 0.52075 0.41705 0.00596 0.0
C275 C 0.55015 0.43486 0.99712 0.0
C276 C 0.55035 0.47121 0.99847 0.0
C277 C 0.57957 0.48995 0.99002 0.0
C278 C 0.57957 0.52569 0.99159 0.0
C279 C 0.55013 0.54412 0.00087 0.0
C280 C 0.52031 0.52575 0.00928 0.0
C281 C 0.52049 0.48925 0.0083 0.0
C282 C 0.32986 0.38821 0.0806 0.0
C283 C 0.34195 0.36868 0.04797 0.0
O284 O 0.66034 0.66586 0.96865 0.0
O285 O 0.66586 0.36221 0.94915 0.0
O286 O 0.37515 0.35806 0.05267 0.0
O287 O 0.37789 0.66563 0.0494 0.0
H288 H 0.63312 0.71027 0.97646 0.0
H289 H 0.62403 0.69455 0.91525 0.0
H290 H 0.66902 0.69304 0.90644 0.0
H291 H 0.64796 0.73342 0.91616 0.0
H292 H 0.64233 0.64855 0.03163 0.0
H293 H 0.62217 0.63444 0.92279 0.0
H294 H 0.56778 0.62033 0.06527 0.0
H295 H 0.61224 0.61859 0.07546 0.0
H296 H 0.59014 0.58024 0.06197 0.0
H297 H 0.57483 0.60404 0.90231 0.0
H298 H 0.53971 0.60062 0.93248 0.0
H299 H 0.56905 0.56563 0.92767 0.0
H300 H 0.40182 0.70657 0.02664 0.0
H301 H 0.3954 0.74445 0.07934 0.0
H302 H 0.41733 0.70506 0.08915 0.0
H303 H 0.37362 0.71039 0.10207 0.0
H304 H 0.39781 0.64791 0.98653 0.0
H305 H 0.41424 0.63422 0.09591 0.0
H306 H 0.4525 0.57976 0.9572 0.0
H307 H 0.47349 0.6204 0.95532 0.0
H308 H 0.42951 0.61757 0.94349 0.0
H309 H 0.46069 0.60283 0.11782 0.0
H310 H 0.49713 0.60079 0.08915 0.0
H311 H 0.46909 0.56492 0.09175 0.0
H312 H 0.34 0.38644 0.02539 0.0
H313 H 0.38692 0.38485 0.99008 0.0
H314 H 0.42601 0.36957 0.09296 0.0
H315 H 0.43781 0.45033 0.96389 0.0
H316 H 0.41796 0.4126 0.94594 0.0
H317 H 0.46327 0.41393 0.95164 0.0
H318 H 0.47725 0.3941 0.11174 0.0
H319 H 0.48966 0.43281 0.08935 0.0
H320 H 0.50852 0.39245 0.07722 0.0
H321 H 0.70061 0.39289 0.97444 0.0
H322 H 0.73873 0.39675 0.92309 0.0
H323 H 0.69633 0.4096 0.91203 0.0
H324 H 0.71195 0.36783 0.89862 0.0
H325 H 0.613 0.37529 0.91238 0.0
H326 H 0.65634 0.38458 0.01423 0.0
H327 H 0.54816 0.43736 0.92403 0.0
H328 H 0.53084 0.39596 0.93336 0.0
H329 H 0.56065 0.40056 0.89786 0.0
H330 H 0.62611 0.40823 0.06212 0.0
H331 H 0.5806 0.41051 0.05828 0.0
H332 H 0.60573 0.4473 0.0481 0.0
H333 H 0.51954 0.62581 0.01114 0.0
H334 H 0.43748 0.5379 0.03366 0.0
H335 H 0.43811 0.47635 0.03321 0.0
H336 H 0.52081 0.38918 0.00487 0.0
H337 H 0.60288 0.47722 0.98226 0.0
H338 H 0.60289 0.53872 0.98514 0.0
H339 H 0.33128 0.37151 0.104 0.0
H340 H 0.30335 0.39722 0.07731 0.0
H341 H 0.34606 0.41104 0.085 0.0
C342 C 0.01901 0.09454 0.91531 0.0
C343 C 0.0181 0.09708 0.0848 0.0
C344 C 0.02086 0.92802 0.91688 0.0
C345 C 0.01815 0.93032 0.08606 0.0
C346 C 0.09967 0.92755 0.00186 0.0
C347 C 0.10293 0.09403 0.00256 0.0
C348 C 0.93549 0.93171 0.99943 0.0
C349 C 0.93939 0.09815 0.99988 0.0
C350 C 0.93631 0.01435 0.08496 0.0
C351 C 0.10013 0.01163 0.08638 0.0
C352 C 0.93886 0.01597 0.9155 0.0
C353 C 0.10309 0.00724 0.91734 0.0
Eu354 Eu 0.02087 0.07752 0.00022 0.0
O355 O 0.04957 0.04293 0.03221 0.0
O356 O 0.9909 0.04302 0.96953 0.0
Eu357 Eu 0.08327 0.01129 0.00158 0.0
Eu358 Eu 0.95562 0.01434 0.00039 0.0
O359 O 0.05102 0.04232 0.9692 0.0
O360 O 0.98968 0.04438 0.03144 0.0
Eu361 Eu 0.02057 0.01156 0.93454 0.0
Eu362 Eu 0.01844 0.01352 0.06711 0.0
O363 O 0.04907 0.98117 0.97067 0.0
O364 O 0.04824 0.98186 0.0323 0.0
O365 O 0.98827 0.98314 0.03206 0.0
O366 O 0.98913 0.98227 0.96949 0.0
Eu367 Eu 0.01803 0.94754 0.00129 0.0
O368 O 0.01899 0.10554 0.94845 0.0
O369 O 0.02064 0.10693 0.05153 0.0
O370 O 0.02099 0.91804 0.95016 0.0
O371 O 0.01741 0.91961 0.05288 0.0
O372 O 0.1104 0.95999 0.00125 0.0
O373 O 0.1127 0.06114 0.00368 0.0
O374 O 0.92619 0.96474 0.99944 0.0
O375 O 0.92836 0.06578 0.0001 0.0
O376 O 0.96832 0.01355 0.09578 0.0
O377 O 0.06787 0.01391 0.09676 0.0
O378 O 0.97105 0.01338 0.90493 0.0
O379 O 0.07115 0.00812 0.90607 0.0
O380 O 0.96739 0.92012 -2e-05 0.0
O381 O 0.06741 0.91761 0.00255 0.0
O382 O 0.97177 0.10762 0.00012 0.0
O383 O 0.07103 0.10517 0.00026 0.0
O384 O 0.01643 0.06467 0.09589 0.0
O385 O 0.01862 0.96312 0.09665 0.0
O386 O 0.02059 0.06173 0.90494 0.0
O387 O 0.01964 0.96046 0.90578 0.0
O388 O 0.11257 0.00887 0.95071 0.0
O389 O 0.11082 0.00976 0.05327 0.0
O390 O 0.92824 0.01672 0.94868 0.0
O391 O 0.92644 0.01504 0.05165 0.0
H392 H 0.92175 0.32034 0.31529 0.0
H393 H 0.93977 0.26918 0.28215 0.0
H394 H 0.00446 0.33202 0.21809 0.0
H395 H 0.98636 0.38311 0.25095 0.0
H396 H 0.96462 0.29123 0.17924 0.0
H397 H 0.03774 0.27747 0.27818 0.0
H398 H 0.05128 0.27255 0.34076 0.0
H399 H 0.98921 0.18271 0.34826 0.0
H400 H 0.9749 0.18737 0.28581 0.0
H401 H 0.04406 0.16173 0.08124 0.0
H402 H 0.03555 0.20893 0.12279 0.0
H403 H 0.97697 0.14263 0.18937 0.0
H404 H 0.98644 0.09481 0.14846 0.0
H405 H 0.01399 0.18448 0.22817 0.0
H406 H 0.9374 0.19971 0.13212 0.0
H407 H 0.92209 0.20373 0.06995 0.0
H408 H 0.98847 0.28985 0.05777 0.0
H409 H 0.00427 0.28621 0.11993 0.0
C410 C 0.94032 0.32304 0.29459 0.0
C411 C 0.9531 0.3556 0.28605 0.0
C412 C 0.95061 0.29385 0.2757 0.0
C413 C 0.97371 0.29675 0.24785 0.0
C414 C 0.98673 0.32917 0.23956 0.0
C415 C 0.97651 0.3583 0.25844 0.0
C416 C 0.98265 0.26647 0.2258 0.0
C417 C 0.97589 0.2681 0.18991 0.0
C418 C 0.99633 0.23587 0.23986 0.0
C419 C 0.00499 0.23297 0.27739 0.0
C420 C 0.02675 0.25683 0.29324 0.0
C421 C 0.03461 0.25406 0.32867 0.0
C422 C 0.02105 0.22739 0.34849 0.0
C423 C 0.99966 0.20338 0.33289 0.0
C424 C 0.99169 0.20606 0.29746 0.0
C425 C 0.02959 0.15711 0.10486 0.0
C426 C 0.01559 0.12469 0.11142 0.0
C427 C 0.02469 0.18414 0.12855 0.0
C428 C 0.00493 0.17959 0.15878 0.0
C429 C 0.99217 0.14681 0.16615 0.0
C430 C 0.99758 0.11953 0.14273 0.0
C431 C 0.99624 0.20944 0.18161 0.0
C432 C 0.00283 0.20769 0.21757 0.0
C433 C 0.98205 0.23991 0.16777 0.0
C434 C 0.97213 0.24257 0.13058 0.0
C435 C 0.94878 0.21944 0.11614 0.0
C436 C 0.94001 0.22166 0.0809 0.0
C437 C 0.95436 0.247 0.05987 0.0
C438 C 0.97738 0.27026 0.07409 0.0
C439 C 0.98617 0.26819 0.10934 0.0
H440 H 0.94764 0.24868 0.03258 0.0
H441 H 0.02717 0.22529 0.37592 0.0
H442 H 0.75011 0.03619 0.36048 0.0
H443 H 0.78964 0.01928 0.31381 0.0
H444 H 0.71873 0.05447 0.23661 0.0
H445 H 0.67942 0.0723 0.2831 0.0
H446 H 0.75834 0.98701 0.22162 0.0
H447 H 0.76984 0.10807 0.25344 0.0
H448 H 0.77679 0.15507 0.29629 0.0
H449 H 0.87012 0.10999 0.33076 0.0
H450 H 0.86334 0.06233 0.28853 0.0
H451 H 0.86742 0.01829 0.0765 0.0
H452 H 0.82405 0.02091 0.12218 0.0
H453 H 0.90115 0.01368 0.20108 0.0
H454 H 0.94471 0.01146 0.15585 0.0
H455 H 0.85778 0.06415 0.21599 0.0
H456 H 0.851 0.94596 0.1849 0.0
H457 H 0.84649 0.89627 0.14493 0.0
H458 H 0.74846 0.9312 0.11235 0.0
H459 H 0.75258 0.98141 0.15183 0.0
C460 C 0.74263 0.03953 0.33352 0.0
C461 C 0.71152 0.05517 0.32549 0.0
C462 C 0.76517 0.02986 0.30696 0.0
C463 C 0.75693 0.03552 0.27189 0.0
C464 C 0.72527 0.04955 0.26357 0.0
C465 C 0.70289 0.05975 0.29017 0.0
C466 C 0.783 0.03088 0.2444 0.0
C467 C 0.77992 0.00402 0.22001 0.0
C468 C 0.81154 0.05254 0.24314 0.0
C469 C 0.81587 0.08145 0.26814 0.0
C470 C 0.79167 0.10801 0.27039 0.0
C471 C 0.7956 0.13479 0.29453 0.0
C472 C 0.82383 0.13547 0.3163 0.0
C473 C 0.84823 0.1094 0.31392 0.0
C474 C 0.84436 0.0825 0.28989 0.0
C475 C 0.87522 0.01708 0.10354 0.0
C476 C 0.90966 0.01477 0.11239 0.0
C477 C 0.85034 0.0184 0.12962 0.0
C478 C 0.85938 0.01723 0.16501 0.0
C479 C 0.89364 0.01464 0.17392 0.0
C480 C 0.91851 0.01334 0.14793 0.0
C481 C 0.83328 0.02029 0.19283 0.0
C482 C 0.83631 0.04697 0.21741 0.0
C483 C 0.8051 0.99805 0.19452 0.0
C484 C 0.80224 0.96766 0.17108 0.0
C485 C 0.82858 0.9432 0.16903 0.0
C486 C 0.82608 0.91491 0.14649 0.0
C487 C 0.79725 0.91064 0.12602 0.0
C488 C 0.7708 0.93458 0.12818 0.0
C489 C 0.77318 0.96294 0.15068 0.0
H490 H 0.79538 0.88875 0.10855 0.0
H491 H 0.82685 0.15623 0.33497 0.0
H492 H 0.07569 0.66239 0.27001 0.0
H493 H 0.06232 0.70724 0.22787 0.0
H494 H 0.03912 0.77766 0.31241 0.0
H495 H 0.05099 0.73224 0.3547 0.0
H496 H 0.9956 0.78681 0.26216 0.0
H497 H 0.11613 0.7794 0.26774 0.0
H498 H 0.17219 0.75129 0.266 0.0
H499 H 0.1557 0.72007 0.15965 0.0
H500 H 0.0993 0.74758 0.16092 0.0
H501 H 0.01434 0.93843 0.15741 0.0
H502 H 0.02021 0.89389 0.20178 0.0
H503 H 0.03139 0.8169 0.12089 0.0
H504 H 0.02581 0.86096 0.07639 0.0
H505 H 0.08093 0.81297 0.17068 0.0
H506 H 0.95905 0.82331 0.16682 0.0
H507 H 0.9052 0.85553 0.17017 0.0
H508 H 0.92686 0.88571 0.27569 0.0
H509 H 0.98117 0.8542 0.27285 0.0
C510 C 0.06756 0.68737 0.2796 0.0
C511 C 0.06485 0.69395 0.31567 0.0
C512 C 0.06009 0.71306 0.25551 0.0
C513 C 0.05044 0.7461 0.26696 0.0
C514 C 0.04672 0.75246 0.30294 0.0
C515 C 0.05373 0.72659 0.32707 0.0
C516 C 0.04498 0.77412 0.24138 0.0
C517 C 0.01444 0.79279 0.24242 0.0
C518 C 0.06943 0.78184 0.21542 0.0
C519 C 0.10335 0.76527 0.21455 0.0
C520 C 0.12434 0.76631 0.24407 0.0
C521 C 0.1562 0.75052 0.24315 0.0
C522 C 0.16746 0.73383 0.21276 0.0
C523 C 0.14692 0.73296 0.18319 0.0
C524 C 0.11502 0.74867 0.18399 0.0
C525 C 0.01783 0.91202 0.14899 0.0
C526 C 0.01967 0.90339 0.11324 0.0
C527 C 0.02103 0.88658 0.17442 0.0
C528 C 0.02608 0.85211 0.16457 0.0
C529 C 0.0275 0.84337 0.129 0.0
C530 C 0.02419 0.86868 0.1036 0.0
C531 C 0.03145 0.82521 0.19119 0.0
C532 C 0.06209 0.80689 0.1904 0.0
C533 C 0.00733 0.81825 0.21761 0.0
C534 C 0.97436 0.83665 0.21951 0.0
C535 C 0.95246 0.83701 0.19067 0.0
C536 C 0.92183 0.85511 0.19248 0.0
C537 C 0.91264 0.8727 0.22306 0.0
C538 C 0.93402 0.87211 0.25199 0.0
C539 C 0.96473 0.85412 0.25031 0.0
H540 H 0.88894 0.88674 0.22435 0.0
H541 H 0.19214 0.72163 0.2121 0.0
H542 H 0.286 0.99635 0.36235 0.0
H543 H 0.24726 0.01272 0.3155 0.0
H544 H 0.30854 0.95623 0.24099 0.0
H545 H 0.34715 0.93942 0.28778 0.0
H546 H 0.28304 0.02186 0.21608 0.0
H547 H 0.24471 0.91758 0.27191 0.0
H548 H 0.22815 0.88264 0.32265 0.0
H549 H 0.14825 0.95422 0.34725 0.0
H550 H 0.16473 0.98991 0.29694 0.0
H551 H 0.16633 0.99146 0.07986 0.0
H552 H 0.20866 0.9877 0.12577 0.0
H553 H 0.13582 0.02615 0.20108 0.0
H554 H 0.09301 0.02916 0.15547 0.0
H555 H 0.16758 0.97348 0.2268 0.0
H556 H 0.20175 0.07612 0.16981 0.0
H557 H 0.21727 0.11244 0.11974 0.0
H558 H 0.30349 0.04784 0.09841 0.0
H559 H 0.28815 0.01073 0.14798 0.0
C560 C 0.29157 0.98806 0.33584 0.0
C561 C 0.31986 0.96707 0.32865 0.0
C562 C 0.26944 0.99735 0.30917 0.0
C563 C 0.2751 0.98566 0.27485 0.0
C564 C 0.30395 0.96575 0.26728 0.0
C565 C 0.32596 0.95618 0.29402 0.0
C566 C 0.24936 0.99159 0.24758 0.0
C567 C 0.25785 0.01112 0.21816 0.0
C568 C 0.21632 0.97822 0.25088 0.0
C569 C 0.20619 0.9566 0.28091 0.0
C570 C 0.22379 0.92602 0.28831 0.0
C571 C 0.21439 0.90606 0.31697 0.0
C572 C 0.18722 0.91625 0.33822 0.0
C573 C 0.16933 0.94639 0.3308 0.0
C574 C 0.17868 0.96649 0.30222 0.0
C575 C 0.15932 0.99939 0.10612 0.0
C576 C 0.12623 0.01062 0.11396 0.0
C577 C 0.18365 0.99736 0.13235 0.0
C578 C 0.17558 0.00707 0.16683 0.0
C579 C 0.14264 0.01853 0.17467 0.0
C580 C 0.11819 0.02024 0.14853 0.0
C581 C 0.20106 0.00383 0.19498 0.0
C582 C 0.19259 0.98463 0.22465 0.0
C583 C 0.23395 0.01786 0.19199 0.0
C584 C 0.24362 0.04045 0.16247 0.0
C585 C 0.2239 0.06951 0.15431 0.0
C586 C 0.23267 0.09026 0.12602 0.0
C587 C 0.26131 0.08242 0.10587 0.0
C588 C 0.28129 0.05387 0.11403 0.0
C589 C 0.27258 0.03297 0.14224 0.0
H590 H 0.26804 0.0985 0.08396 0.0
H591 H 0.17997 0.90076 0.36039 0.0
H592 H 0.02328 0.72864 0.64591 0.0
H593 H 0.01107 0.76893 0.69384 0.0
H594 H 0.08496 0.71762 0.75787 0.0
H595 H 0.09702 0.67703 0.71005 0.0
H596 H 0.02739 0.73577 0.79524 0.0
H597 H 0.10598 0.78907 0.71561 0.0
H598 H 0.12565 0.80906 0.658 0.0
H599 H 0.03881 0.87537 0.65048 0.0
H600 H 0.01836 0.85537 0.70785 0.0
H601 H 0.05407 0.86675 0.92117 0.0
H602 H 0.05986 0.82259 0.87586 0.0
H603 H 0.99751 0.88312 0.80704 0.0
H604 H 0.99322 0.9282 0.85177 0.0
H605 H 0.04753 0.85928 0.77197 0.0
H606 H 0.96855 0.80743 0.85129 0.0
H607 H 0.94809 0.78796 0.90883 0.0
H608 H 0.03337 0.71964 0.9169 0.0
H609 H 0.05455 0.73902 0.85959 0.0
C610 C 0.03647 0.72562 0.67043 0.0
C611 C 0.06084 0.69952 0.67441 0.0
C612 C 0.02962 0.74872 0.6977 0.0
C613 C 0.04734 0.74643 0.72928 0.0
C614 C 0.07094 0.71975 0.73374 0.0
C615 C 0.0778 0.69662 0.70646 0.0
C616 C 0.04261 0.77294 0.75691 0.0
C617 C 0.03204 0.76276 0.79032 0.0
C618 C 0.04803 0.8082 0.75021 0.0
C619 C 0.06048 0.82047 0.71586 0.0
C620 C 0.09096 0.80773 0.70156 0.0
C621 C 0.10227 0.81908 0.66896 0.0
C622 C 0.08345 0.84341 0.65055 0.0
C623 C 0.05334 0.85649 0.66475 0.0
C624 C 0.04189 0.84517 0.69731 0.0
C625 C 0.04141 0.87048 0.89645 0.0
C626 C 0.02305 0.90077 0.88998 0.0
C627 C 0.04458 0.84514 0.8706 0.0
C628 C 0.02855 0.84911 0.83818 0.0
C629 C 0.01008 0.87938 0.83181 0.0
C630 C 0.00757 0.9051 0.85738 0.0
C631 C 0.03197 0.82231 0.81048 0.0
C632 C 0.04251 0.83238 0.77699 0.0
C633 C 0.02624 0.78701 0.81709 0.0
C634 C 0.01322 0.77483 0.85125 0.0
C635 C 0.98299 0.78835 0.8654 0.0
C636 C 0.97127 0.77732 0.89797 0.0
C637 C 0.98944 0.75261 0.91652 0.0
C638 C 0.01931 0.73877 0.90249 0.0
C639 C 0.03116 0.74972 0.86994 0.0
H640 H 0.98035 0.74414 0.94175 0.0
H641 H 0.09225 0.85217 0.62532 0.0
H642 H 0.30132 0.94767 0.6537 0.0
H643 H 0.25678 0.96234 0.69578 0.0
H644 H 0.32801 0.95164 0.78012 0.0
H645 H 0.3721 0.93487 0.73819 0.0
H646 H 0.27304 0.92326 0.79854 0.0
H647 H 0.29843 0.03218 0.74848 0.0
H648 H 0.30725 0.07428 0.70148 0.0
H649 H 0.20435 0.06185 0.66868 0.0
H650 H 0.19504 0.01929 0.71519 0.0
H651 H 0.17147 0.00405 0.92844 0.0
H652 H 0.21611 0.99293 0.88564 0.0
H653 H 0.142 0.98824 0.80358 0.0
H654 H 0.09692 0.99978 0.84617 0.0
H655 H 0.19814 0.02489 0.78447 0.0
H656 H 0.17505 0.91514 0.83894 0.0
H657 H 0.16973 0.87473 0.88808 0.0
H658 H 0.27311 0.89287 0.91611 0.0
H659 H 0.27892 0.93375 0.86753 0.0
C660 C 0.30737 0.94807 0.68124 0.0
C661 C 0.34008 0.93947 0.69267 0.0
C662 C 0.28199 0.95694 0.70529 0.0
C663 C 0.28903 0.95854 0.74121 0.0
C664 C 0.32185 0.95049 0.7526 0.0
C665 C 0.34707 0.94099 0.72861 0.0
C666 C 0.26203 0.96757 0.76701 0.0
C667 C 0.25704 0.9458 0.79567 0.0
C668 C 0.24066 0.99666 0.76309 0.0
C669 C 0.24614 0.02229 0.73512 0.0
C670 C 0.27775 0.03823 0.73108 0.0
C671 C 0.28283 0.0622 0.70455 0.0
C672 C 0.2564 0.07067 0.68205 0.0
C673 C 0.22481 0.05523 0.6861 0.0
C674 C 0.21961 0.0312 0.71256 0.0
C675 C 0.16449 0.00087 0.9013 0.0
C676 C 0.13041 0.00268 0.89088 0.0
C677 C 0.19013 0.99434 0.87687 0.0
C678 C 0.18232 0.98921 0.84153 0.0
C679 C 0.14854 0.99197 0.83078 0.0
C680 C 0.1228 0.99855 0.85522 0.0
C681 C 0.20939 0.98063 0.81585 0.0
C682 C 0.21428 0.00243 0.78724 0.0
C683 C 0.23115 0.95197 0.82019 0.0
C684 C 0.22734 0.92771 0.84971 0.0
C685 C 0.19655 0.91076 0.85577 0.0
C686 C 0.19347 0.88772 0.88349 0.0
C687 C 0.2211 0.88125 0.90514 0.0
C688 C 0.25177 0.8979 0.89928 0.0
C689 C 0.25496 0.92098 0.87166 0.0
H690 H 0.21889 0.86323 0.92638 0.0
H691 H 0.26038 0.08924 0.66154 0.0
H692 H 0.92554 0.33717 0.70965 0.0
H693 H 0.9448 0.30031 0.75727 0.0
H694 H 0.99361 0.23269 0.68251 0.0
H695 H 0.97481 0.26974 0.63479 0.0
H696 H 0.94965 0.19974 0.72938 0.0
H697 H 0.04125 0.28113 0.73257 0.0
H698 H 0.06571 0.33916 0.73649 0.0
H699 H 0.01893 0.35428 0.83703 0.0
H700 H 0.99377 0.29651 0.83349 0.0
H701 H 0.03047 0.0868 0.84506 0.0
H702 H 0.01949 0.12845 0.79911 0.0
H703 H 0.98667 0.20279 0.87652 0.0
H704 H 0.99827 0.16153 0.92279 0.0
H705 H 0.0226 0.23366 0.82865 0.0
H706 H 0.92978 0.15624 0.82752 0.0
H707 H 0.89843 0.10174 0.82408 0.0
H708 H 0.94024 0.08193 0.72206 0.0
H709 H 0.97236 0.13598 0.72514 0.0
C710 C 0.94109 0.31493 0.70344 0.0
C711 C 0.94932 0.30668 0.66853 0.0
C712 C 0.95199 0.29387 0.73065 0.0
C713 C 0.97085 0.26397 0.72338 0.0
C714 C 0.97926 0.25579 0.68863 0.0
C715 C 0.96867 0.277 0.66147 0.0
C716 C 0.97983 0.23997 0.75175 0.0
C717 C 0.96609 0.20686 0.75082 0.0
C718 C 1.00006 0.24996 0.78036 0.0
C719 C 0.01537 0.2846 0.78261 0.0
C720 C 0.03595 0.29693 0.75539 0.0
C721 C 0.04998 0.32976 0.75757 0.0
C722 C 0.04381 0.35042 0.78695 0.0
C723 C 0.02366 0.33826 0.81427 0.0
C724 C 0.00954 0.30546 0.8122 0.0
C725 C 0.02111 0.11207 0.8524 0.0
C726 C 0.01511 0.12072 0.88766 0.0
C727 C 0.01468 0.13582 0.82604 0.0
C728 C 0.00163 0.16854 0.83428 0.0
C729 C 0.99664 0.17767 0.86951 0.0
C730 C 0.00334 0.15402 0.89595 0.0
C731 C 0.99278 0.19303 0.80612 0.0
C732 C 0.00634 0.22631 0.80716 0.0
C733 C 0.97175 0.18344 0.77788 0.0
C734 C 0.95374 0.15006 0.7767 0.0
C735 C 0.93267 0.14005 0.80455 0.0
C736 C 0.91466 0.10928 0.80261 0.0
C737 C 0.91728 0.08845 0.77282 0.0
C738 C 0.93821 0.09812 0.74509 0.0
C739 C 0.95634 0.1288 0.74693 0.0
H740 H 0.90296 0.06494 0.77106 0.0
H741 H 0.0547 0.37583 0.78859 0.0
H742 H 0.67875 0.08713 0.7319 0.0
H743 H 0.72435 0.0753 0.773 0.0
H744 H 0.78489 0.03195 0.68926 0.0
H745 H 0.73868 0.0426 0.64825 0.0
H746 H 0.79154 0.99412 0.74531 0.0
H747 H 0.79891 0.1143 0.72189 0.0
H748 H 0.77847 0.17402 0.71654 0.0
H749 H 0.75275 0.17615 0.82571 0.0
H750 H 0.77259 0.11626 0.83162 0.0
H751 H 0.94446 0.00083 0.84555 0.0
H752 H 0.90142 0.00846 0.80061 0.0
H753 H 0.8313 0.04694 0.87856 0.0
H754 H 0.87397 0.03931 0.9236 0.0
H755 H 0.83293 0.08784 0.82215 0.0
H756 H 0.82403 0.9658 0.84391 0.0
H757 H 0.84668 0.90681 0.84846 0.0
H758 H 0.87813 0.90948 0.74091 0.0
H759 H 0.85602 0.96868 0.73585 0.0
C760 C 0.70169 0.07486 0.72231 0.0
C761 C 0.70518 0.06586 0.68684 0.0
C762 C 0.72786 0.06835 0.74576 0.0
C763 C 0.75837 0.05333 0.73413 0.0
C764 C 0.76168 0.04368 0.69884 0.0
C765 C 0.73534 0.04987 0.67543 0.0
C766 C 0.78675 0.04782 0.75883 0.0
C767 C 0.8009 0.01476 0.76174 0.0
C768 C 0.79887 0.07461 0.78057 0.0
C769 C 0.78696 0.11067 0.77711 0.0
C770 C 0.78866 0.12741 0.7447 0.0
C771 C 0.77722 0.16131 0.74158 0.0
C772 C 0.76425 0.17884 0.77075 0.0
C773 C 0.76277 0.16253 0.80313 0.0
C774 C 0.77413 0.12862 0.80638 0.0
C775 C 0.91985 0.01081 0.85316 0.0
C776 C 0.91267 0.01937 0.88822 0.0
C777 C 0.89523 0.01506 0.82744 0.0
C778 C 0.86312 0.02825 0.83624 0.0
C779 C 0.85592 0.03677 0.87118 0.0
C780 C 0.88033 0.03219 0.89694 0.0
C781 C 0.83711 0.03408 0.8091 0.0
C782 C 0.82358 0.06728 0.80561 0.0
C783 C 0.82582 0.00751 0.7867 0.0
C784 C 0.83865 0.97176 0.7896 0.0
C785 C 0.83596 0.95388 0.82129 0.0
C786 C 0.84867 0.9204 0.82396 0.0
C787 C 0.86391 0.90444 0.79502 0.0
C788 C 0.86635 0.92189 0.76332 0.0
C789 C 0.8537 0.95538 0.76052 0.0
H790 H 0.87377 0.87853 0.79714 0.0
H791 H 0.7554 0.20508 0.76828 0.0
H792 H 0.34772 0.30237 0.07335 0.0
H793 H 0.30882 0.25434 0.06466 0.0
H794 H 0.24495 0.31871 0.00137 0.0
H795 H 0.28399 0.36672 0.00959 0.0
H796 H 0.20961 0.28267 0.0523 0.0
H797 H 0.29286 0.26016 0.9625 0.0
H798 H 0.35043 0.2504 0.93921 0.0
H799 H 0.36166 0.16191 0.00464 0.0
H800 H 0.30429 0.17145 0.02873 0.0
H801 H 0.09948 0.16056 0.98077 0.0
H802 H 0.1418 0.20532 0.98808 0.0
H803 H 0.20815 0.13293 0.03878 0.0
H804 H 0.16625 0.0876 0.03049 0.0
H805 H 0.2434 0.17209 0.99653 0.0
H806 H 0.16011 0.19292 0.08557 0.0
H807 H 0.10273 0.20223 0.10958 0.0
H808 H 0.09183 0.29333 0.0479 0.0
H809 H 0.14897 0.28429 0.0231 0.0
C810 C 0.32572 0.3061 0.05706 0.0
C811 C 0.31933 0.33807 0.04134 0.0
C812 C 0.30348 0.27869 0.05223 0.0
C813 C 0.27421 0.28291 0.03209 0.0
C814 C 0.2675 0.31489 0.01685 0.0
C815 C 0.28987 0.34219 0.02138 0.0
C816 C 0.25011 0.25422 0.02753 0.0
C817 C 0.21683 0.25861 0.03976 0.0
C818 C 0.25993 0.22252 0.01213 0.0
C819 C 0.29443 0.21676 0.99771 0.0
C820 C 0.30772 0.23882 0.97218 0.0
C821 C 0.34029 0.23328 0.95878 0.0
C822 C 0.35973 0.20562 0.97052 0.0
C823 C 0.3466 0.18337 0.99562 0.0
C824 C 0.31405 0.18882 0.00914 0.0
C825 C 0.12313 0.15409 0.99336 0.0
C826 C 0.12944 0.12056 0.00521 0.0
C827 C 0.14725 0.17977 0.99768 0.0
C828 C 0.17788 0.17271 0.01465 0.0
C829 C 0.18465 0.13903 0.02571 0.0
C830 C 0.16069 0.11314 0.02093 0.0
C831 C 0.20265 0.20058 0.02099 0.0
C832 C 0.23611 0.19605 0.00922 0.0
C833 C 0.19306 0.2321 0.0371 0.0
C834 C 0.15876 0.23776 0.05225 0.0
C835 C 0.1454 0.21481 0.07694 0.0
C836 C 0.11291 0.22006 0.09071 0.0
C837 C 0.09362 0.24833 0.08021 0.0
C838 C 0.1068 0.27144 0.05598 0.0
C839 C 0.13925 0.26628 0.04208 0.0
H840 H 0.06849 0.25242 0.09088 0.0
H841 H 0.38494 0.20136 0.96009 0.0
H842 H 0.37405 0.75533 0.00251 0.0
H843 H 0.32261 0.78818 0.99026 0.0
H844 H 0.2644 0.71817 0.05304 0.0
H845 H 0.31601 0.68516 0.06559 0.0
H846 H 0.23084 0.74276 0.98869 0.0
H847 H 0.28739 0.78392 0.09204 0.0
H848 H 0.33685 0.80355 0.12547 0.0
H849 H 0.34986 0.88783 0.05491 0.0
H850 H 0.30082 0.8683 0.02064 0.0
H851 H 0.09335 0.86029 0.02177 0.0
H852 H 0.13824 0.81692 0.02526 0.0
H853 H 0.21023 0.89023 0.98573 0.0
H854 H 0.16586 0.93363 0.98263 0.0
H855 H 0.23501 0.86038 0.03937 0.0
H856 H 0.17713 0.82092 0.93652 0.0
H857 H 0.12807 0.80146 0.90254 0.0
H858 H 0.11683 0.7147 0.97023 0.0
H859 H 0.16559 0.734 0.00502 0.0
C860 C 0.35016 0.74644 0.01297 0.0
C861 C 0.34897 0.71747 0.03465 0.0
C862 C 0.32084 0.7652 0.00599 0.0
C863 C 0.2898 0.75555 0.02078 0.0
C864 C 0.28811 0.72577 0.04114 0.0
C865 C 0.31756 0.70702 0.04832 0.0
C866 C 0.26026 0.77893 0.01829 0.0
C867 C 0.23142 0.76837 2e-05 0.0
C868 C 0.26141 0.8124 0.03277 0.0
C869 C 0.29065 0.82444 0.05358 0.0
C870 C 0.30098 0.80647 0.08348 0.0
C871 C 0.32891 0.81759 0.1026 0.0
C872 C 0.34653 0.84687 0.09227 0.0
C873 C 0.33621 0.86513 0.06284 0.0
C874 C 0.30834 0.85404 0.04357 0.0
C875 C 0.11868 0.86702 0.01344 0.0
C876 C 0.12606 0.90047 0.0021 0.0
C877 C 0.14429 0.84215 0.01531 0.0
C878 C 0.17757 0.85014 0.00532 0.0
C879 C 0.18475 0.88337 0.99347 0.0
C880 C 0.15932 0.90824 0.99183 0.0
C881 C 0.20548 0.82476 0.00897 0.0
C882 C 0.23415 0.83486 0.0278 0.0
C883 C 0.20403 0.79102 0.99482 0.0
C884 C 0.17493 0.77912 0.9736 0.0
C885 C 0.16414 0.79783 0.94433 0.0
C886 C 0.13635 0.78681 0.92489 0.0
C887 C 0.1193 0.75689 0.93426 0.0
C888 C 0.13006 0.7379 0.96303 0.0
C889 C 0.15779 0.74886 0.98261 0.0
H890 H 0.0978 0.7484 0.91919 0.0
H891 H 0.36815 0.85546 0.10712 0.0
H892 H 0.75995 0.37483 0.98681 0.0
H893 H 0.79929 0.32745 0.99871 0.0
H894 H 0.72761 0.25517 0.95706 0.0
H895 H 0.6886 0.30236 0.94403 0.0
H896 H 0.7641 0.23663 0.02502 0.0
H897 H 0.78143 0.27314 0.90481 0.0
H898 H 0.79195 0.31666 0.85957 0.0
H899 H 0.88498 0.34442 0.90943 0.0
H900 H 0.87467 0.30145 0.95535 0.0
H901 H 0.87051 0.09191 0.99413 0.0
H902 H 0.82861 0.13798 0.99027 0.0
H903 H 0.90765 0.21337 0.9989 0.0
H904 H 0.94984 0.16768 0.00244 0.0
H905 H 0.86666 0.23108 0.94963 0.0
H906 H 0.85361 0.19604 0.0678 0.0
H907 H 0.84546 0.15516 0.11599 0.0
H908 H 0.74811 0.128 0.07546 0.0
H909 H 0.7559 0.16838 0.02666 0.0
C910 C 0.75239 0.34877 0.98072 0.0
C911 C 0.72102 0.34236 0.96493 0.0
C912 C 0.77483 0.32181 0.98751 0.0
C913 C 0.76617 0.28794 0.97888 0.0
C914 C 0.73449 0.28118 0.96419 0.0
C915 C 0.71226 0.3082 0.95679 0.0
C916 C 0.79131 0.25998 0.98258 0.0
C917 C 0.78636 0.23504 0.00835 0.0
C918 C 0.82074 0.25876 0.96147 0.0
C919 C 0.82707 0.28438 0.93373 0.0
C920 C 0.80395 0.28877 0.90632 0.0
C921 C 0.80991 0.31329 0.88052 0.0
C922 C 0.83907 0.33337 0.88168 0.0
C923 C 0.86237 0.3289 0.9086 0.0
C924 C 0.85648 0.30446 0.93451 0.0
C925 C 0.87906 0.11827 0.99547 0.0
C926 C 0.91364 0.12597 0.9987 0.0
C927 C 0.85499 0.14461 0.9934 0.0
C928 C 0.86496 0.17916 0.99483 0.0
C929 C 0.8994 0.18691 0.99792 0.0
C930 C 0.92349 0.16065 -3e-05 0.0
C931 C 0.83963 0.2073 0.99211 0.0
C932 C 0.8445 0.23244 0.96647 0.0
C933 C 0.8105 0.20901 0.01383 0.0
C934 C 0.80549 0.185 0.04336 0.0
C935 C 0.83056 0.18117 0.06901 0.0
C936 C 0.826 0.15811 0.09646 0.0
C937 C 0.79633 0.13892 0.09873 0.0
C938 C 0.7711 0.14285 0.07363 0.0
C939 C 0.77556 0.16585 0.04608 0.0
H940 H 0.79285 0.12105 0.11999 0.0
H941 H 0.84365 0.35233 0.86166 0.0
H942 H 0.65707 0.76578 0.98784 0.0
H943 H 0.70633 0.80227 0.99782 0.0
H944 H 0.77249 0.71872 0.9672 0.0
H945 H 0.72318 0.6821 0.95682 0.0
H946 H 0.79516 0.75893 0.02747 0.0
H947 H 0.75637 0.7736 0.90898 0.0
H948 H 0.71336 0.78513 0.8641 0.0
H949 H 0.69403 0.88468 0.9093 0.0
H950 H 0.73652 0.87349 0.95485 0.0
H951 H 0.94075 0.8615 0.99181 0.0
H952 H 0.89468 0.81996 0.98859 0.0
H953 H 0.82177 0.902 0.00189 0.0
H954 H 0.86734 0.94366 0.00474 0.0
H955 H 0.80369 0.86037 0.95005 0.0
H956 H 0.83851 0.84803 0.06837 0.0
H957 H 0.8793 0.83918 0.11582 0.0
H958 H 0.90372 0.73892 0.07501 0.0
H959 H 0.8633 0.74742 0.02686 0.0
C960 C 0.68214 0.75498 0.98397 0.0
C961 C 0.68628 0.72093 0.97213 0.0
C962 C 0.71022 0.77585 0.98954 0.0
C963 C 0.743 0.76317 0.98318 0.0
C964 C 0.74739 0.72886 0.9725 0.0
C965 C 0.71924 0.70799 0.96664 0.0
C966 C 0.77233 0.78661 0.98508 0.0
C967 C 0.79736 0.78084 0.01025 0.0
C968 C 0.77466 0.81563 0.96315 0.0
C969 C 0.7494 0.82256 0.93551 0.0
C970 C 0.74275 0.79783 0.90952 0.0
C971 C 0.71849 0.80432 0.88394 0.0
C972 C 0.70092 0.83559 0.88389 0.0
C973 C 0.70763 0.86046 0.90939 0.0
C974 C 0.73182 0.85406 0.93508 0.0
C975 C 0.91494 0.87074 0.99421 0.0
C976 C 0.90788 0.90603 0.99845 0.0
C977 C 0.88862 0.84691 0.99246 0.0
C978 C 0.85477 0.85786 0.99517 0.0
C979 C 0.84768 0.89298 0.99959 0.0
C980 C 0.87389 0.91678 0.00127 0.0
C981 C 0.82656 0.83296 0.99264 0.0
C982 C 0.80169 0.83841 0.96724 0.0
C983 C 0.82418 0.804 0.0147 0.0
C984 C 0.84816 0.7985 0.04381 0.0
C985 C 0.85275 0.82418 0.06936 0.0
C986 C 0.87578 0.81921 0.09642 0.0
C987 C 0.8942 0.78854 0.09843 0.0
C988 C 0.88948 0.7627 0.0734 0.0
C989 C 0.86649 0.76756 0.04622 0.0
H990 H 0.91206 0.78477 0.11941 0.0
H991 H 0.68215 0.84057 0.86407 0.0
loop_
_geom_bond_atom_site_label_1
_geom_bond_atom_site_label_2
_geom_bond_distance
_geom_bond_site_symmetry_2
_ccdc_geom_bond_type
C0 C1 1.560 . S
C0 H61 0.959 . S
C0 H62 0.959 . S
C0 H63 0.960 . S
C1 C0 1.560 . S
C1 O56 1.426 . S
C1 H60 0.980 . S
C2 C3 1.407 . S
C2 C7 1.418 . S
C2 O56 1.334 . S
C3 C2 1.407 . S
C3 C4 1.360 1_455 S
C3 H64 0.929 1_455 S
C4 C3 1.360 1_655 S
C4 C5 1.401 1_655 S
C4 C8 1.527 . S
C5 C4 1.401 1_455 S
C5 C6 1.405 . S
C5 C38 1.587 . S
C6 C5 1.405 . S
C6 C7 1.332 . S
C6 C9 1.496 . S
C7 C2 1.418 . S
C7 C6 1.332 . S
C7 H65 0.929 . S
C8 C4 1.527 . S
C8 H66 0.959 . S
C8 H67 0.961 . S
C8 H68 0.961 . S
C9 C6 1.496 . S
C9 H69 0.960 . S
C9 H70 0.960 . S
C9 H71 0.961 . S
C10 C11 1.513 1_655 S
C10 H73 0.961 1_655 S
C10 H74 0.960 . S
C10 H75 0.959 . S
C11 C10 1.513 1_455 S
C11 O59 1.455 1_455 S
C11 H72 0.988 . S
C12 C13 1.349 1_655 S
C12 C17 1.367 . S
C12 O59 1.408 . S
C13 C12 1.349 1_455 S
C13 C14 1.407 . S
C13 H76 0.930 . S
C14 C13 1.407 . S
C14 C15 1.449 1_455 S
C14 C18 1.535 . S
C15 C14 1.449 1_655 S
C15 C16 1.384 . S
C15 C40 1.553 . S
C16 C15 1.384 . S
C16 C17 1.364 . S
C16 C19 1.450 . S
C17 C12 1.367 . S
C17 C16 1.364 . S
C17 H77 0.931 . S
C18 C14 1.535 . S
C18 H78 0.959 . S
C18 H79 0.961 . S
C18 H80 0.959 . S
C19 C16 1.450 . S
C19 H81 0.960 . S
C19 H82 0.960 . S
C19 H83 0.960 . S
C20 C21 1.309 1_655 S
C20 C25 1.304 . S
C20 O58 1.435 . S
C21 C20 1.309 1_455 S
C21 C22 1.476 . S
C21 H85 0.930 . S
C22 C21 1.476 . S
C22 C23 1.400 1_455 S
C22 C26 1.567 . S
C23 C22 1.400 1_655 S
C23 C24 1.373 . S
C23 C45 1.431 . S
C24 C23 1.373 . S
C24 C25 1.339 . S
C24 C27 1.530 . S
C25 C20 1.304 . S
C25 C24 1.339 . S
C25 H86 0.930 . S
C26 C22 1.567 . S
C26 H87 0.961 . S
C26 H88 0.960 . S
C26 H89 0.958 . S
C27 C24 1.530 . S
C27 H90 0.961 . S
C27 H91 0.960 . S
C27 H92 0.960 . S
C28 C29 1.530 . S
C28 H94 0.961 . S
C28 H95 0.961 . S
C28 H96 0.959 . S
C29 C28 1.530 . S
C29 O57 1.412 . S
C29 H93 0.980 . S
C30 C31 1.288 . S
C30 C35 1.377 . S
C30 O57 1.393 . S
C31 C30 1.288 . S
C31 C32 1.369 . S
C31 H97 0.932 . S
C32 C31 1.369 . S
C32 C33 1.398 . S
C32 C36 1.527 . S
C33 C32 1.398 . S
C33 C34 1.380 1_455 S
C33 C47 1.497 . S
C34 C33 1.380 1_655 S
C34 C35 1.383 1_655 S
C34 C37 1.603 . S
C35 C30 1.377 . S
C35 C34 1.383 1_455 S
C35 H98 0.929 1_455 S
C36 C32 1.527 . S
C36 H99 0.961 . S
C36 H100 0.959 . S
C36 H101 0.959 . S
C37 C34 1.603 . S
C37 H102 0.960 . S
C37 H103 0.962 . S
C37 H104 0.961 . S
C38 C5 1.587 . S
C38 C39 1.360 1_455 S
C38 C51 1.412 . S
C39 C38 1.360 1_655 S
C39 C40 1.365 . S
C39 H105 0.929 . S
C40 C15 1.553 . S
C40 C39 1.365 . S
C40 C41 1.404 . S
C41 C40 1.404 . S
C41 C42 1.395 . S
C41 C52 1.451 . S
C42 C41 1.395 . S
C42 C43 1.322 . S
C42 H106 0.930 . S
C43 C42 1.322 . S
C43 C44 1.459 . S
C43 H107 0.929 . S
C44 C43 1.459 . S
C44 C45 1.445 . S
C44 C53 1.396 . S
C45 C23 1.431 . S
C45 C44 1.445 . S
C45 C46 1.371 1_655 S
C46 C45 1.371 1_455 S
C46 C47 1.438 . S
C46 H108 0.930 . S
C47 C33 1.497 . S
C47 C46 1.438 . S
C47 C48 1.360 . S
C48 C47 1.360 . S
C48 C49 1.401 . S
C48 C53 1.444 1_455 S
C49 C48 1.401 . S
C49 C50 1.347 . S
C49 H109 0.929 . S
C50 C49 1.347 . S
C50 C51 1.455 . S
C50 H110 0.930 . S
C51 C38 1.412 . S
C51 C50 1.455 . S
C51 C52 1.331 1_455 S
C52 C41 1.451 . S
C52 C51 1.331 1_655 S
C52 C53 1.497 . S
C53 C44 1.396 . S
C53 C48 1.444 1_655 S
C53 C52 1.497 . S
C54 C55 1.582 1_655 S
C54 H111 0.962 1_655 S
C54 H112 0.959 . S
C54 H113 0.958 . S
C55 C54 1.582 1_455 S
C55 O58 1.458 1_455 S
C55 H84 0.980 . S
O56 C1 1.426 . S
O56 C2 1.334 . S
O57 C29 1.412 . S
O57 C30 1.393 . S
O58 C20 1.435 . S
O58 C55 1.458 1_655 S
O59 C11 1.455 1_655 S
O59 C12 1.408 . S
H60 C1 0.980 . S
H61 C0 0.959 . S
H62 C0 0.959 . S
H63 C0 0.960 . S
H64 C3 0.929 1_655 S
H65 C7 0.929 . S
H66 C8 0.959 . S
H67 C8 0.961 . S
H68 C8 0.961 . S
H69 C9 0.960 . S
H70 C9 0.960 . S
H71 C9 0.961 . S
H72 C11 0.988 . S
H73 C10 0.961 1_455 S
H74 C10 0.960 . S
H75 C10 0.959 . S
H76 C13 0.930 . S
H77 C17 0.931 . S
H78 C18 0.959 . S
H79 C18 0.961 . S
H80 C18 0.959 . S
H81 C19 0.960 . S
H82 C19 0.960 . S
H83 C19 0.960 . S
H84 C55 0.980 . S
H85 C21 0.930 . S
H86 C25 0.930 . S
H87 C26 0.961 . S
H88 C26 0.960 . S
H89 C26 0.958 . S
H90 C27 0.961 . S
H91 C27 0.960 . S
H92 C27 0.960 . S
H93 C29 0.980 . S
H94 C28 0.961 . S
H95 C28 0.961 . S
H96 C28 0.959 . S
H97 C31 0.932 . S
H98 C35 0.929 1_655 S
H99 C36 0.961 . S
H100 C36 0.959 . S
H101 C36 0.959 . S
H102 C37 0.960 . S
H103 C37 0.962 . S
H104 C37 0.961 . S
H105 C39 0.929 . S
H106 C42 0.930 . S
H107 C43 0.929 . S
H108 C46 0.930 . S
H109 C49 0.929 . S
H110 C50 0.930 . S
H111 C54 0.962 1_455 S
H112 C54 0.959 . S
H113 C54 0.958 . S
C114 C115 1.560 . S
C114 H175 0.959 . S
C114 H176 0.959 . S
C114 H177 0.960 . S
C115 C114 1.560 . S
C115 O170 1.426 . S
C115 H174 0.980 . S
C116 C117 1.377 1_545 S
C116 C121 1.418 . S
C116 O170 1.334 . S
C117 C116 1.377 1_565 S
C117 C118 1.370 . S
C117 H178 0.949 . S
C118 C117 1.370 . S
C118 C119 1.401 1_565 S
C118 C122 1.527 . S
C119 C118 1.401 1_545 S
C119 C120 1.405 . S
C119 C152 1.587 1_545 S
C120 C119 1.405 . S
C120 C121 1.332 . S
C120 C123 1.496 . S
C121 C116 1.418 . S
C121 C120 1.332 . S
C121 H179 0.929 . S
C122 C118 1.527 . S
C122 H180 0.959 . S
C122 H181 0.961 . S
C122 H182 0.961 . S
C123 C120 1.496 . S
C123 H183 0.960 . S
C123 H184 0.960 . S
C123 H185 0.961 . S
C124 C125 1.517 . S
C124 H187 0.961 1_565 S
C124 H188 0.960 . S
C124 H189 0.959 . S
C125 C124 1.517 . S
C125 O173 1.468 . S
C125 H186 0.980 1_565 S
C126 C127 1.349 1_565 S
C126 C131 1.367 . S
C126 O173 1.408 . S
C127 C126 1.349 1_545 S
C127 C128 1.407 . S
C127 H190 0.930 . S
C128 C127 1.407 . S
C128 C129 1.449 1_545 S
C128 C132 1.535 . S
C129 C128 1.449 1_565 S
C129 C130 1.384 . S
C129 C154 1.553 . S
C130 C129 1.384 . S
C130 C131 1.364 . S
C130 C133 1.450 . S
C131 C126 1.367 . S
C131 C130 1.364 . S
C131 H191 0.931 . S
C132 C128 1.535 . S
C132 H192 0.959 . S
C132 H193 0.961 . S
C132 H194 0.959 . S
C133 C130 1.450 . S
C133 H195 0.960 . S
C133 H196 0.960 . S
C133 H197 0.960 . S
C134 C135 1.309 1_565 S
C134 C139 1.304 . S
C134 O172 1.435 . S
C135 C134 1.309 1_545 S
C135 C136 1.476 . S
C135 H199 0.930 . S
C136 C135 1.476 . S
C136 C137 1.400 1_545 S
C136 C140 1.567 . S
C137 C136 1.400 1_565 S
C137 C138 1.373 . S
C137 C159 1.432 . S
C138 C137 1.373 . S
C138 C139 1.339 . S
C138 C141 1.530 . S
C139 C134 1.304 . S
C139 C138 1.339 . S
C139 H200 0.930 . S
C140 C136 1.567 . S
C140 H201 0.961 . S
C140 H202 0.960 . S
C140 H203 0.958 . S
C141 C138 1.530 . S
C141 H204 0.961 . S
C141 H205 0.960 . S
C141 H206 0.960 . S
C142 C143 1.530 . S
C142 H208 0.961 . S
C142 H209 0.961 . S
C142 H210 0.959 . S
C143 C142 1.530 . S
C143 O171 1.412 . S
C143 H207 0.980 . S
C144 C145 1.288 . S
C144 C149 1.358 1_545 S
C144 O171 1.393 . S
C145 C144 1.288 . S
C145 C146 1.369 . S
C145 H211 0.932 . S
C146 C145 1.369 . S
C146 C147 1.398 . S
C146 C150 1.527 . S
C147 C146 1.398 . S
C147 C148 1.380 1_545 S
C147 C161 1.497 . S
C148 C147 1.380 1_565 S
C148 C149 1.388 . S
C148 C151 1.603 . S
C149 C144 1.358 1_565 S
C149 C148 1.388 . S
C149 H212 0.942 . S
C150 C146 1.527 . S
C150 H213 0.961 . S
C150 H214 0.959 . S
C150 H215 0.959 . S
C151 C148 1.603 . S
C151 H216 0.960 . S
C151 H217 0.962 . S
C151 H218 0.961 . S
C152 C119 1.587 1_565 S
C152 C153 1.360 . S
C152 C165 1.412 . S
C153 C152 1.360 . S
C153 C154 1.365 . S
C153 H219 0.929 . S
C154 C129 1.553 . S
C154 C153 1.365 . S
C154 C155 1.404 . S
C155 C154 1.404 . S
C155 C156 1.395 . S
C155 C166 1.451 . S
C156 C155 1.395 . S
C156 C157 1.322 . S
C156 H220 0.930 . S
C157 C156 1.322 . S
C157 C158 1.459 . S
C157 H221 0.929 . S
C158 C157 1.459 . S
C158 C159 1.445 . S
C158 C167 1.395 . S
C159 C137 1.432 . S
C159 C158 1.445 . S
C159 C160 1.370 1_565 S
C160 C159 1.370 1_545 S
C160 C161 1.438 . S
C160 H222 0.930 . S
C161 C147 1.497 . S
C161 C160 1.438 . S
C161 C162 1.360 . S
C162 C161 1.360 . S
C162 C163 1.401 . S
C162 C167 1.446 1_545 S
C163 C162 1.401 . S
C163 C164 1.347 . S
C163 H223 0.929 . S
C164 C163 1.347 . S
C164 C165 1.455 1_545 S
C164 H224 0.930 . S
C165 C152 1.412 . S
C165 C164 1.455 1_565 S
C165 C166 1.331 . S
C166 C155 1.451 . S
C166 C165 1.331 . S
C166 C167 1.497 . S
C167 C158 1.395 . S
C167 C162 1.446 1_565 S
C167 C166 1.497 . S
C168 C169 1.582 1_565 S
C168 H225 0.961 1_565 S
C168 H226 0.959 . S
C168 H227 0.958 . S
C169 C168 1.582 1_545 S
C169 O172 1.458 1_545 S
C169 H198 0.980 . S
O170 C115 1.426 . S
O170 C116 1.334 . S
O171 C143 1.412 . S
O171 C144 1.393 . S
O172 C134 1.435 . S
O172 C169 1.458 1_565 S
O173 C125 1.468 . S
O173 C126 1.408 . S
H174 C115 0.980 . S
H175 C114 0.959 . S
H176 C114 0.959 . S
H177 C114 0.960 . S
H178 C117 0.949 . S
H179 C121 0.929 . S
H180 C122 0.959 . S
H181 C122 0.961 . S
H182 C122 0.961 . S
H183 C123 0.960 . S
H184 C123 0.960 . S
H185 C123 0.961 . S
H186 C125 0.980 1_545 S
H187 C124 0.961 1_545 S
H188 C124 0.960 . S
H189 C124 0.959 . S
H190 C127 0.930 . S
H191 C131 0.931 . S
H192 C132 0.959 . S
H193 C132 0.961 . S
H194 C132 0.959 . S
H195 C133 0.960 . S
H196 C133 0.960 . S
H197 C133 0.960 . S
H198 C169 0.980 . S
H199 C135 0.930 . S
H200 C139 0.930 . S
H201 C140 0.961 . S
H202 C140 0.960 . S
H203 C140 0.958 . S
H204 C141 0.961 . S
H205 C141 0.960 . S
H206 C141 0.960 . S
H207 C143 0.980 . S
H208 C142 0.961 . S
H209 C142 0.961 . S
H210 C142 0.959 . S
H211 C145 0.932 . S
H212 C149 0.942 . S
H213 C150 0.961 . S
H214 C150 0.959 . S
H215 C150 0.959 . S
H216 C151 0.960 . S
H217 C151 0.962 . S
H218 C151 0.961 . S
H219 C153 0.929 . S
H220 C156 0.930 . S
H221 C157 0.929 . S
H222 C160 0.930 . S
H223 C163 0.929 . S
H224 C164 0.930 . S
H225 C168 0.961 1_545 S
H226 C168 0.959 . S
H227 C168 0.958 . S
C228 C229 1.560 . S
C228 H289 0.959 . S
C228 H290 0.959 . S
C228 H291 0.960 . S
C229 C228 1.560 . S
C229 O284 1.426 . S
C229 H288 0.980 . S
C230 C231 1.407 1_556 S
C230 C235 1.418 . S
C230 O284 1.334 . S
C231 C230 1.407 1_554 S
C231 C232 1.360 . S
C231 H292 0.929 . S
C232 C231 1.360 . S
C232 C233 1.401 . S
C232 C236 1.527 . S
C233 C232 1.401 . S
C233 C234 1.405 1_554 S
C233 C266 1.587 . S
C234 C233 1.405 1_556 S
C234 C235 1.332 . S
C234 C237 1.496 . S
C235 C230 1.418 . S
C235 C234 1.332 . S
C235 H293 0.929 . S
C236 C232 1.527 . S
C236 H294 0.959 . S
C236 H295 0.961 . S
C236 H296 0.961 . S
C237 C234 1.496 . S
C237 H297 0.960 . S
C237 H298 0.960 . S
C237 H299 0.961 . S
C238 C239 1.517 . S
C238 H301 0.961 . S
C238 H302 0.960 . S
C238 H303 0.959 . S
C239 C238 1.517 . S
C239 O287 1.468 . S
C239 H300 0.980 . S
C240 C241 1.349 . S
C240 C245 1.367 . S
C240 O287 1.408 . S
C241 C240 1.349 . S
C241 C242 1.407 . S
C241 H304 0.930 1_554 S
C242 C241 1.407 . S
C242 C243 1.449 . S
C242 C246 1.535 1_554 S
C243 C242 1.449 . S
C243 C244 1.384 . S
C243 C268 1.553 . S
C244 C243 1.384 . S
C244 C245 1.364 . S
C244 C247 1.450 . S
C245 C240 1.367 . S
C245 C244 1.364 . S
C245 H305 0.931 . S
C246 C242 1.535 1_556 S
C246 H306 0.959 . S
C246 H307 0.961 . S
C246 H308 0.959 . S
C247 C244 1.450 . S
C247 H309 0.960 . S
C247 H310 0.960 . S
C247 H311 0.960 . S
C248 C249 1.289 1_554 S
C248 C253 1.304 . S
C248 O286 1.435 . S
C249 C248 1.289 1_556 S
C249 C250 1.479 . S
C249 H313 0.945 . S
C250 C249 1.479 . S
C250 C251 1.400 1_556 S
C250 C254 1.567 . S
C251 C250 1.400 1_554 S
C251 C252 1.373 . S
C251 C273 1.432 . S
C252 C251 1.373 . S
C252 C253 1.339 . S
C252 C255 1.530 . S
C253 C248 1.304 . S
C253 C252 1.339 . S
C253 H314 0.930 . S
C254 C250 1.567 . S
C254 H315 0.961 . S
C254 H316 0.960 . S
C254 H317 0.958 . S
C255 C252 1.530 . S
C255 H318 0.961 . S
C255 H319 0.960 . S
C255 H320 0.960 . S
C256 C257 1.530 . S
C256 H322 0.961 . S
C256 H323 0.961 . S
C256 H324 0.959 . S
C257 C256 1.530 . S
C257 O285 1.412 . S
C257 H321 0.980 1_556 S
C258 C259 1.288 . S
C258 C263 1.377 1_556 S
C258 O285 1.393 . S
C259 C258 1.288 . S
C259 C260 1.369 . S
C259 H325 0.932 . S
C260 C259 1.369 . S
C260 C261 1.425 . S
C260 C264 1.527 . S
C261 C260 1.425 . S
C261 C262 1.360 1_556 S
C261 C275 1.492 1_556 S
C262 C261 1.360 1_554 S
C262 C263 1.383 . S
C262 C265 1.603 . S
C263 C258 1.377 1_554 S
C263 C262 1.383 . S
C263 H326 0.929 . S
C264 C260 1.527 . S
C264 H327 0.961 . S
C264 H328 0.959 . S
C264 H329 0.959 . S
C265 C262 1.603 . S
C265 H330 0.960 . S
C265 H331 0.962 . S
C265 H332 0.961 . S
C266 C233 1.587 . S
C266 C267 1.360 . S
C266 C279 1.412 . S
C267 C266 1.360 . S
C267 C268 1.365 . S
C267 H333 0.929 . S
C268 C243 1.553 . S
C268 C267 1.365 . S
C268 C269 1.404 . S
C269 C268 1.404 . S
C269 C270 1.395 . S
C269 C280 1.451 . S
C270 C269 1.395 . S
C270 C271 1.322 . S
C270 H334 0.930 . S
C271 C270 1.322 . S
C271 C272 1.459 . S
C271 H335 0.929 . S
C272 C271 1.459 . S
C272 C273 1.445 . S
C272 C281 1.395 . S
C273 C251 1.432 . S
C273 C272 1.445 . S
C273 C274 1.370 . S
C274 C273 1.370 . S
C274 C275 1.438 . S
C274 H336 0.930 . S
C275 C261 1.492 1_554 S
C275 C274 1.438 . S
C275 C276 1.360 . S
C276 C275 1.360 . S
C276 C277 1.401 . S
C276 C281 1.446 . S
C277 C276 1.401 . S
C277 C278 1.347 . S
C277 H337 0.929 . S
C278 C277 1.347 . S
C278 C279 1.455 . S
C278 H338 0.930 . S
C279 C266 1.412 . S
C279 C278 1.455 . S
C279 C280 1.331 . S
C280 C269 1.451 . S
C280 C279 1.331 . S
C280 C281 1.497 . S
C281 C272 1.395 . S
C281 C276 1.446 . S
C281 C280 1.497 . S
C282 C283 1.582 . S
C282 H339 0.962 . S
C282 H340 0.959 . S
C282 H341 0.958 . S
C283 C282 1.582 . S
C283 O286 1.458 . S
C283 H312 0.980 . S
O284 C229 1.426 . S
O284 C230 1.334 . S
O285 C257 1.412 . S
O285 C258 1.393 . S
O286 C248 1.435 . S
O286 C283 1.458 . S
O287 C239 1.468 . S
O287 C240 1.408 . S
H288 C229 0.980 . S
H289 C228 0.959 . S
H290 C228 0.959 . S
H291 C228 0.960 . S
H292 C231 0.929 . S
H293 C235 0.929 . S
H294 C236 0.959 . S
H295 C236 0.961 . S
H296 C236 0.961 . S
H297 C237 0.960 . S
H298 C237 0.960 . S
H299 C237 0.961 . S
H300 C239 0.980 . S
H301 C238 0.961 . S
H302 C238 0.960 . S
H303 C238 0.959 . S
H304 C241 0.930 1_556 S
H305 C245 0.931 . S
H306 C246 0.959 . S
H307 C246 0.961 . S
H308 C246 0.959 . S
H309 C247 0.960 . S
H310 C247 0.960 . S
H311 C247 0.960 . S
H312 C283 0.980 . S
H313 C249 0.945 . S
H314 C253 0.930 . S
H315 C254 0.961 . S
H316 C254 0.960 . S
H317 C254 0.958 . S
H318 C255 0.961 . S
H319 C255 0.960 . S
H320 C255 0.960 . S
H321 C257 0.980 1_554 S
H322 C256 0.961 . S
H323 C256 0.961 . S
H324 C256 0.959 . S
H325 C259 0.932 . S
H326 C263 0.929 . S
H327 C264 0.961 . S
H328 C264 0.959 . S
H329 C264 0.959 . S
H330 C265 0.960 . S
H331 C265 0.962 . S
H332 C265 0.961 . S
H333 C267 0.929 . S
H334 C270 0.930 . S
H335 C271 0.929 . S
H336 C274 0.930 . S
H337 C277 0.929 . S
H338 C278 0.930 . S
H339 C282 0.962 . S
H340 C282 0.959 . S
H341 C282 0.958 . S
C342 O368 1.283 . S
C342 O386 1.283 . S
C343 O369 1.283 . S
C343 O384 1.283 . S
C344 O370 1.283 . S
C344 O387 1.283 . S
C345 O371 1.283 . S
C345 O385 1.283 . S
C346 O372 1.283 . S
C346 O381 1.283 . S
C347 O373 1.283 1_554 S
C347 O383 1.283 . S
C348 O374 1.283 . S
C348 O380 1.283 1_554 S
C349 O375 1.283 . S
C349 O382 1.283 . S
C350 O376 1.283 . S
C350 O391 1.283 . S
C351 O377 1.283 . S
C351 O389 1.283 . S
C352 O378 1.283 . S
C352 O390 1.283 . S
C353 O379 1.283 . S
C353 O388 1.283 . S
Eu354 O355 2.375 . S
Eu354 O356 2.365 1_454 S
Eu354 O359 2.365 1_554 S
Eu354 O360 2.375 1_455 S
Eu354 O368 2.354 1_554 S
Eu354 O369 2.371 . S
Eu354 O382 2.363 1_455 S
Eu354 O383 2.363 . S
O355 Eu354 2.375 . S
O355 Eu357 2.369 1_554 S
O355 Eu362 2.370 . S
O356 Eu354 2.365 1_656 S
O356 Eu358 2.365 1_556 S
O356 Eu361 2.370 1_655 S
Eu357 O355 2.369 1_556 S
Eu357 O359 2.371 . S
Eu357 O363 2.371 1_545 S
Eu357 O364 2.369 1_546 S
Eu357 O372 2.363 1_545 S
Eu357 O373 2.363 . S
Eu357 O388 2.364 . S
Eu357 O389 2.362 1_556 S
Eu358 O356 2.365 1_554 S
Eu358 O360 2.375 . S
Eu358 O365 2.375 1_545 S
Eu358 O366 2.365 1_544 S
Eu358 O374 2.363 1_545 S
Eu358 O375 2.363 . S
Eu358 O390 2.355 1_554 S
Eu358 O391 2.371 . S
O359 Eu354 2.365 1_556 S
O359 Eu357 2.371 . S
O359 Eu361 2.370 . S
O360 Eu354 2.375 1_655 S
O360 Eu358 2.375 . S
O360 Eu362 2.370 1_655 S
Eu361 O356 2.370 1_455 S
Eu361 O359 2.370 . S
Eu361 O363 2.370 1_545 S
Eu361 O366 2.370 1_445 S
Eu361 O378 2.363 1_455 S
Eu361 O379 2.363 . S
Eu361 O386 2.363 . S
Eu361 O387 2.363 1_545 S
Eu362 O355 2.370 . S
Eu362 O360 2.370 1_455 S
Eu362 O364 2.370 1_545 S
Eu362 O365 2.370 1_445 S
Eu362 O376 2.363 1_455 S
Eu362 O377 2.363 . S
Eu362 O384 2.363 . S
Eu362 O385 2.363 1_545 S
O363 Eu357 2.371 1_565 S
O363 Eu361 2.370 1_565 S
O363 Eu367 2.371 . S
O364 Eu357 2.369 1_564 S
O364 Eu362 2.370 1_565 S
O364 Eu367 2.369 1_554 S
O365 Eu358 2.375 1_565 S
O365 Eu362 2.370 1_665 S
O365 Eu367 2.369 1_654 S
O366 Eu358 2.365 1_566 S
O366 Eu361 2.370 1_665 S
O366 Eu367 2.371 1_655 S
Eu367 O363 2.371 . S
Eu367 O364 2.369 1_556 S
Eu367 O365 2.369 1_456 S
Eu367 O366 2.371 1_455 S
Eu367 O370 2.365 . S
Eu367 O371 2.361 1_556 S
Eu367 O380 2.363 1_455 S
Eu367 O381 2.363 . S
O368 C342 1.283 . S
O368 Eu354 2.354 1_556 S
O369 C343 1.283 . S
O369 Eu354 2.371 . S
O370 C344 1.283 . S
O370 Eu367 2.365 . S
O371 C345 1.283 . S
O371 Eu367 2.361 1_554 S
O372 C346 1.283 . S
O372 Eu357 2.363 1_565 S
O373 C347 1.283 1_556 S
O373 Eu357 2.363 . S
O374 C348 1.283 . S
O374 Eu358 2.363 1_565 S
O375 C349 1.283 . S
O375 Eu358 2.363 . S
O376 C350 1.283 . S
O376 Eu362 2.363 1_655 S
O377 C351 1.283 . S
O377 Eu362 2.363 . S
O378 C352 1.283 . S
O378 Eu361 2.363 1_655 S
O379 C353 1.283 . S
O379 Eu361 2.363 . S
O380 C348 1.283 1_556 S
O380 Eu367 2.363 1_655 S
O381 C346 1.283 . S
O381 Eu367 2.363 . S
O382 C349 1.283 . S
O382 Eu354 2.363 1_655 S
O383 C347 1.283 . S
O383 Eu354 2.363 . S
O384 C343 1.283 . S
O384 Eu362 2.363 . S
O385 C345 1.283 . S
O385 Eu362 2.363 1_565 S
O386 C342 1.283 . S
O386 Eu361 2.363 . S
O387 C344 1.283 . S
O387 Eu361 2.363 1_565 S
O388 C353 1.283 . S
O388 Eu357 2.364 . S
O389 C351 1.283 . S
O389 Eu357 2.362 1_554 S
O390 C352 1.283 . S
O390 Eu358 2.355 1_556 S
O391 C350 1.283 . S
O391 Eu358 2.371 . S
H392 C410 0.951 . S
H393 C412 0.951 . S
H394 C414 0.950 . S
H395 C415 0.950 . S
H396 C417 0.950 . S
H397 C420 0.950 . S
H398 C421 0.950 . S
H399 C423 0.957 . S
H400 C424 0.950 . S
H401 C425 0.951 . S
H402 C427 0.951 . S
H403 C429 0.950 . S
H404 C430 0.950 . S
H405 C432 0.950 . S
H406 C435 0.950 . S
H407 C436 0.950 . S
H408 C438 0.950 . S
H409 C439 0.950 . S
C410 H392 0.951 . S
C410 C411 1.366 1_655 S
C410 C412 1.388 . S
C411 C410 1.366 1_455 S
C411 C415 1.385 . S
C412 H393 0.951 . S
C412 C410 1.388 . S
C412 C413 1.366 1_655 S
C413 C412 1.366 1_455 S
C413 C414 1.414 . S
C413 C416 1.499 . S
C414 H394 0.950 . S
C414 C413 1.414 . S
C414 C415 1.374 . S
C415 H395 0.950 . S
C415 C411 1.385 . S
C415 C414 1.374 . S
C416 C413 1.499 . S
C416 C417 1.373 . S
C416 C418 1.389 . S
C417 H396 0.950 . S
C417 C416 1.373 . S
C417 C433 1.377 . S
C418 C416 1.389 . S
C418 C419 1.524 . S
C418 C432 1.377 . S
C419 C418 1.524 . S
C419 C420 1.397 . S
C419 C424 1.363 1_455 S
C420 H397 0.950 . S
C420 C419 1.397 . S
C420 C421 1.334 . S
C421 H398 0.950 . S
C421 C420 1.334 . S
C421 C422 1.287 . S
C422 C421 1.287 . S
C422 C423 1.514 1_455 S
C422 H441 0.913 . S
C423 H399 0.957 . S
C423 C422 1.514 1_655 S
C423 C424 1.416 . S
C424 H400 0.950 . S
C424 C419 1.363 1_655 S
C424 C423 1.416 . S
C425 H401 0.951 . S
C425 C426 1.366 . S
C425 C427 1.388 . S
C426 C425 1.366 . S
C426 C430 1.385 1_455 S
C427 H402 0.951 . S
C427 C425 1.388 . S
C427 C428 1.366 . S
C428 C427 1.366 . S
C428 C429 1.414 1_455 S
C428 C431 1.499 . S
C429 H403 0.950 . S
C429 C428 1.414 1_655 S
C429 C430 1.374 . S
C430 H404 0.950 . S
C430 C426 1.385 1_655 S
C430 C429 1.374 . S
C431 C428 1.499 . S
C431 C432 1.373 . S
C431 C433 1.389 . S
C432 H405 0.950 . S
C432 C418 1.377 . S
C432 C431 1.373 . S
C433 C417 1.377 . S
C433 C431 1.389 . S
C433 C434 1.524 . S
C434 C433 1.524 . S
C434 C435 1.397 1_455 S
C434 C439 1.363 . S
C435 H406 0.950 . S
C435 C434 1.397 1_655 S
C435 C436 1.334 . S
C436 H407 0.950 . S
C436 C435 1.334 . S
C436 C437 1.287 . S
C437 C436 1.287 . S
C437 C438 1.524 1_655 S
C437 H440 0.999 . S
C438 H408 0.950 . S
C438 C437 1.524 1_455 S
C438 C439 1.415 . S
C439 H409 0.950 . S
C439 C434 1.363 . S
C439 C438 1.415 . S
H440 C437 0.999 . S
H441 C422 0.913 . S
H442 C460 0.951 . S
H443 C462 0.951 . S
H444 C464 0.953 . S
H445 C465 0.950 . S
H446 C467 0.950 . S
H447 C470 0.950 . S
H448 C471 0.950 . S
H449 C473 0.950 . S
H450 C474 0.950 . S
H451 C475 0.951 1_565 S
H452 C477 0.951 1_565 S
H453 C479 0.950 . S
H454 C480 0.950 . S
H455 C482 0.950 . S
H456 C485 0.950 . S
H457 C486 0.950 . S
H458 C488 0.950 . S
H459 C489 0.950 . S
C460 H442 0.951 . S
C460 C461 1.366 . S
C460 C462 1.388 . S
C461 C460 1.366 . S
C461 C465 1.385 1_545 S
C462 H443 0.951 . S
C462 C460 1.388 . S
C462 C463 1.366 . S
C463 C462 1.366 . S
C463 C464 1.411 1_545 S
C463 C466 1.499 . S
C464 H444 0.953 . S
C464 C463 1.411 1_565 S
C464 C465 1.374 . S
C465 H445 0.950 . S
C465 C461 1.385 1_565 S
C465 C464 1.374 . S
C466 C463 1.499 . S
C466 C467 1.373 1_545 S
C466 C468 1.389 . S
C467 H446 0.950 . S
C467 C466 1.373 1_565 S
C467 C483 1.377 . S
C468 C466 1.389 . S
C468 C469 1.524 . S
C468 C482 1.377 . S
C469 C468 1.524 . S
C469 C470 1.397 . S
C469 C474 1.363 . S
C470 H447 0.950 . S
C470 C469 1.397 . S
C470 C471 1.334 . S
C471 H448 0.950 . S
C471 C470 1.334 . S
C471 C472 1.287 . S
C472 C471 1.287 . S
C472 C473 1.524 . S
C472 H491 0.913 . S
C473 H449 0.950 . S
C473 C472 1.524 . S
C473 C474 1.415 . S
C474 H450 0.950 . S
C474 C469 1.363 . S
C474 C473 1.415 . S
C475 H451 0.951 1_545 S
C475 C476 1.366 . S
C475 C477 1.388 . S
C476 C475 1.366 . S
C476 C480 1.385 . S
C477 H452 0.951 1_545 S
C477 C475 1.388 . S
C477 C478 1.366 . S
C478 C477 1.366 . S
C478 C479 1.414 . S
C478 C481 1.499 . S
C479 H453 0.950 . S
C479 C478 1.414 . S
C479 C480 1.374 . S
C480 H454 0.950 . S
C480 C476 1.385 . S
C480 C479 1.374 . S
C481 C478 1.499 . S
C481 C482 1.373 . S
C481 C483 1.389 1_545 S
C482 H455 0.950 . S
C482 C468 1.377 . S
C482 C481 1.373 . S
C483 C467 1.377 . S
C483 C481 1.389 1_565 S
C483 C484 1.524 . S
C484 C483 1.524 . S
C484 C485 1.397 . S
C484 C489 1.363 . S
C485 H456 0.950 . S
C485 C484 1.397 . S
C485 C486 1.334 . S
C486 H457 0.950 . S
C486 C485 1.334 . S
C486 C487 1.287 . S
C487 C486 1.287 . S
C487 C488 1.524 . S
C487 H490 0.999 . S
C488 H458 0.950 . S
C488 C487 1.524 . S
C488 C489 1.415 . S
C489 H459 0.950 . S
C489 C484 1.363 . S
C489 C488 1.415 . S
H490 C487 0.999 . S
H491 C472 0.913 . S
H492 C510 0.951 . S
H493 C512 0.951 . S
H494 C514 0.950 . S
H495 C515 0.950 . S
H496 C517 0.950 . S
H497 C520 0.950 . S
H498 C521 0.950 . S
H499 C523 0.950 . S
H500 C524 0.950 . S
H501 C525 0.951 . S
H502 C527 0.951 . S
H503 C529 0.950 . S
H504 C530 0.950 . S
H505 C532 0.950 . S
H506 C535 0.950 . S
H507 C536 0.950 . S
H508 C538 0.950 . S
H509 C539 0.950 . S
C510 H492 0.951 . S
C510 C511 1.366 . S
C510 C512 1.388 . S
C511 C510 1.366 . S
C511 C515 1.385 . S
C512 H493 0.951 . S
C512 C510 1.388 . S
C512 C513 1.366 . S
C513 C512 1.366 . S
C513 C514 1.414 . S
C513 C516 1.499 . S
C514 H494 0.950 . S
C514 C513 1.414 . S
C514 C515 1.374 . S
C515 H495 0.950 . S
C515 C511 1.385 . S
C515 C514 1.374 . S
C516 C513 1.499 . S
C516 C517 1.373 1_455 S
C516 C518 1.389 . S
C517 H496 0.950 . S
C517 C516 1.373 1_655 S
C517 C533 1.377 . S
C518 C516 1.389 . S
C518 C519 1.524 . S
C518 C532 1.377 . S
C519 C518 1.524 . S
C519 C520 1.397 . S
C519 C524 1.363 . S
C520 H497 0.950 . S
C520 C519 1.397 . S
C520 C521 1.334 . S
C521 H498 0.950 . S
C521 C520 1.334 . S
C521 C522 1.287 . S
C522 C521 1.287 . S
C522 C523 1.524 . S
C522 H541 0.913 . S
C523 H499 0.950 . S
C523 C522 1.524 . S
C523 C524 1.415 . S
C524 H500 0.950 . S
C524 C519 1.363 . S
C524 C523 1.415 . S
C525 H501 0.951 . S
C525 C526 1.366 . S
C525 C527 1.388 . S
C526 C525 1.366 . S
C526 C530 1.385 . S
C527 H502 0.951 . S
C527 C525 1.388 . S
C527 C528 1.366 . S
C528 C527 1.366 . S
C528 C529 1.414 . S
C528 C531 1.499 . S
C529 H503 0.950 . S
C529 C528 1.414 . S
C529 C530 1.374 . S
C530 H504 0.950 . S
C530 C526 1.385 . S
C530 C529 1.374 . S
C531 C528 1.499 . S
C531 C532 1.373 . S
C531 C533 1.389 1_455 S
C532 H505 0.950 . S
C532 C518 1.377 . S
C532 C531 1.373 . S
C533 C517 1.377 . S
C533 C531 1.389 1_655 S
C533 C534 1.524 . S
C534 C533 1.524 . S
C534 C535 1.397 . S
C534 C539 1.363 . S
C535 H506 0.950 . S
C535 C534 1.397 . S
C535 C536 1.334 . S
C536 H507 0.950 . S
C536 C535 1.334 . S
C536 C537 1.287 . S
C537 C536 1.287 . S
C537 C538 1.524 . S
C537 H540 0.999 . S
C538 H508 0.950 . S
C538 C537 1.524 . S
C538 C539 1.415 . S
C539 H509 0.950 . S
C539 C534 1.363 . S
C539 C538 1.415 . S
H540 C537 0.999 . S
H541 C522 0.913 . S
H542 C560 0.951 . S
H543 C562 0.951 . S
H544 C564 0.950 1_565 S
H545 C565 0.950 1_565 S
H546 C567 0.950 . S
H547 C570 0.950 . S
H548 C571 0.950 . S
H549 C573 0.950 . S
H550 C574 0.950 . S
H551 C575 0.967 . S
H552 C577 0.945 1_565 S
H553 C579 0.950 . S
H554 C580 0.950 . S
H555 C582 0.950 . S
H556 C585 0.950 . S
H557 C586 0.950 . S
H558 C588 0.950 . S
H559 C589 0.950 . S
C560 H542 0.951 . S
C560 C561 1.366 . S
C560 C562 1.388 . S
C561 C560 1.366 . S
C561 C565 1.385 . S
C562 H543 0.951 . S
C562 C560 1.388 . S
C562 C563 1.366 . S
C563 C562 1.366 . S
C563 C564 1.414 . S
C563 C566 1.499 . S
C564 H544 0.950 1_545 S
C564 C563 1.414 . S
C564 C565 1.374 . S
C565 H545 0.950 1_545 S
C565 C561 1.385 . S
C565 C564 1.374 . S
C566 C563 1.499 . S
C566 C567 1.373 . S
C566 C568 1.389 . S
C567 H546 0.950 . S
C567 C566 1.373 . S
C567 C583 1.377 . S
C568 C566 1.389 . S
C568 C569 1.524 1_545 S
C568 C582 1.377 . S
C569 C568 1.524 1_565 S
C569 C570 1.397 . S
C569 C574 1.363 1_565 S
C570 H547 0.950 . S
C570 C569 1.397 . S
C570 C571 1.334 . S
C571 H548 0.950 . S
C571 C570 1.334 . S
C571 C572 1.287 . S
C572 C571 1.287 . S
C572 C573 1.524 . S
C572 H591 0.913 . S
C573 H549 0.950 . S
C573 C572 1.524 . S
C573 C574 1.415 1_565 S
C574 H550 0.950 . S
C574 C569 1.363 1_545 S
C574 C573 1.415 1_545 S
C575 H551 0.967 . S
C575 C576 1.352 1_565 S
C575 C577 1.387 1_565 S
C576 C575 1.352 1_545 S
C576 C580 1.385 . S
C577 H552 0.945 1_545 S
C577 C575 1.387 1_545 S
C577 C578 1.372 . S
C578 C577 1.372 . S
C578 C579 1.414 . S
C578 C581 1.499 . S
C579 H553 0.950 . S
C579 C578 1.414 . S
C579 C580 1.374 . S
C580 H554 0.950 . S
C580 C576 1.385 . S
C580 C579 1.374 . S
C581 C578 1.499 . S
C581 C582 1.373 . S
C581 C583 1.389 . S
C582 H555 0.950 . S
C582 C568 1.377 . S
C582 C581 1.373 . S
C583 C567 1.377 . S
C583 C581 1.389 . S
C583 C584 1.524 . S
C584 C583 1.524 . S
C584 C585 1.397 . S
C584 C589 1.363 . S
C585 H556 0.950 . S
C585 C584 1.397 . S
C585 C586 1.334 . S
C586 H557 0.950 . S
C586 C585 1.334 . S
C586 C587 1.287 . S
C587 C586 1.287 . S
C587 C588 1.524 . S
C587 H590 0.999 . S
C588 H558 0.950 . S
C588 C587 1.524 . S
C588 C589 1.415 . S
C589 H559 0.950 . S
C589 C584 1.363 . S
C589 C588 1.415 . S
H590 C587 0.999 . S
H591 C572 0.913 . S
H592 C610 0.951 . S
H593 C612 0.951 . S
H594 C614 0.950 . S
H595 C615 0.950 . S
H596 C617 0.950 . S
H597 C620 0.950 . S
H598 C621 0.950 . S
H599 C623 0.950 . S
H600 C624 0.950 . S
H601 C625 0.951 . S
H602 C627 0.951 . S
H603 C629 0.950 . S
H604 C630 0.950 . S
H605 C632 0.950 . S
H606 C635 0.950 . S
H607 C636 0.950 . S
H608 C638 0.950 . S
H609 C639 0.950 . S
C610 H592 0.951 . S
C610 C611 1.366 1_655 S
C610 C612 1.388 . S
C611 C610 1.366 1_455 S
C611 C615 1.385 . S
C612 H593 0.951 . S
C612 C610 1.388 . S
C612 C613 1.366 1_655 S
C613 C612 1.366 1_455 S
C613 C614 1.414 . S
C613 C616 1.499 . S
C614 H594 0.950 . S
C614 C613 1.414 . S
C614 C615 1.374 . S
C615 H595 0.950 . S
C615 C611 1.385 . S
C615 C614 1.374 . S
C616 C613 1.499 . S
C616 C617 1.373 . S
C616 C618 1.389 . S
C617 H596 0.950 . S
C617 C616 1.373 . S
C617 C633 1.377 . S
C618 C616 1.389 . S
C618 C619 1.524 . S
C618 C632 1.377 . S
C619 C618 1.524 . S
C619 C620 1.397 . S
C619 C624 1.363 1_455 S
C620 H597 0.950 . S
C620 C619 1.397 . S
C620 C621 1.334 . S
C621 H598 0.950 . S
C621 C620 1.334 . S
C621 C622 1.287 . S
C622 C621 1.287 . S
C622 C623 1.524 1_455 S
C622 H641 0.913 . S
C623 H599 0.950 . S
C623 C622 1.524 1_655 S
C623 C624 1.415 . S
C624 H600 0.950 . S
C624 C619 1.363 1_655 S
C624 C623 1.415 . S
C625 H601 0.951 . S
C625 C626 1.366 . S
C625 C627 1.388 . S
C626 C625 1.366 . S
C626 C630 1.385 1_455 S
C627 H602 0.951 . S
C627 C625 1.388 . S
C627 C628 1.366 . S
C628 C627 1.366 . S
C628 C629 1.414 1_455 S
C628 C631 1.499 . S
C629 H603 0.950 . S
C629 C628 1.414 1_655 S
C629 C630 1.374 . S
C630 H604 0.950 . S
C630 C626 1.385 1_655 S
C630 C629 1.374 . S
C631 C628 1.499 . S
C631 C632 1.373 . S
C631 C633 1.389 . S
C632 H605 0.950 . S
C632 C618 1.377 . S
C632 C631 1.373 . S
C633 C617 1.377 . S
C633 C631 1.389 . S
C633 C634 1.524 . S
C634 C633 1.524 . S
C634 C635 1.397 1_455 S
C634 C639 1.363 . S
C635 H606 0.950 . S
C635 C634 1.397 1_655 S
C635 C636 1.334 . S
C636 H607 0.950 . S
C636 C635 1.334 . S
C636 C637 1.287 1_655 S
C637 C636 1.287 1_455 S
C637 C638 1.524 . S
C637 H640 0.999 . S
C638 H608 0.950 . S
C638 C637 1.524 . S
C638 C639 1.415 . S
C639 H609 0.950 . S
C639 C634 1.363 . S
C639 C638 1.415 . S
H640 C637 0.999 . S
H641 C622 0.913 . S
H642 C660 0.951 . S
H643 C662 0.951 . S
H644 C664 0.950 . S
H645 C665 0.950 . S
H646 C667 0.950 . S
H647 C670 0.950 . S
H648 C671 0.950 . S
H649 C673 0.950 . S
H650 C674 0.950 . S
H651 C675 0.951 . S
H652 C677 0.951 . S
H653 C679 0.950 . S
H654 C680 0.950 . S
H655 C682 0.950 . S
H656 C685 0.950 . S
H657 C686 0.950 . S
H658 C688 0.950 . S
H659 C689 0.950 . S
C660 H642 0.951 . S
C660 C661 1.366 . S
C660 C662 1.388 . S
C661 C660 1.366 . S
C661 C665 1.385 . S
C662 H643 0.951 . S
C662 C660 1.388 . S
C662 C663 1.366 . S
C663 C662 1.366 . S
C663 C664 1.414 . S
C663 C666 1.499 . S
C664 H644 0.950 . S
C664 C663 1.414 . S
C664 C665 1.374 . S
C665 H645 0.950 . S
C665 C661 1.385 . S
C665 C664 1.374 . S
C666 C663 1.499 . S
C666 C667 1.373 1_545 S
C666 C668 1.389 . S
C667 H646 0.950 . S
C667 C666 1.373 1_565 S
C667 C683 1.377 . S
C668 C666 1.389 . S
C668 C669 1.524 . S
C668 C682 1.377 . S
C669 C668 1.524 . S
C669 C670 1.397 . S
C669 C674 1.363 . S
C670 H647 0.950 . S
C670 C669 1.397 . S
C670 C671 1.334 . S
C671 H648 0.950 . S
C671 C670 1.334 . S
C671 C672 1.287 . S
C672 C671 1.287 . S
C672 C673 1.524 . S
C672 H691 0.913 . S
C673 H649 0.950 . S
C673 C672 1.524 . S
C673 C674 1.415 . S
C674 H650 0.950 . S
C674 C669 1.363 . S
C674 C673 1.415 . S
C675 H651 0.951 . S
C675 C676 1.366 . S
C675 C677 1.388 . S
C676 C675 1.366 . S
C676 C680 1.385 . S
C677 H652 0.951 . S
C677 C675 1.388 . S
C677 C678 1.366 . S
C678 C677 1.366 . S
C678 C679 1.414 . S
C678 C681 1.499 . S
C679 H653 0.950 . S
C679 C678 1.414 . S
C679 C680 1.374 . S
C680 H654 0.950 . S
C680 C676 1.385 . S
C680 C679 1.374 . S
C681 C678 1.499 . S
C681 C682 1.373 . S
C681 C683 1.389 1_545 S
C682 H655 0.950 . S
C682 C668 1.377 . S
C682 C681 1.373 . S
C683 C667 1.377 . S
C683 C681 1.389 1_565 S
C683 C684 1.524 . S
C684 C683 1.524 . S
C684 C685 1.397 . S
C684 C689 1.363 . S
C685 H656 0.950 . S
C685 C684 1.397 . S
C685 C686 1.334 . S
C686 H657 0.950 . S
C686 C685 1.334 . S
C686 C687 1.287 . S
C687 C686 1.287 . S
C687 C688 1.524 . S
C687 H690 0.999 . S
C688 H658 0.950 . S
C688 C687 1.524 . S
C688 C689 1.415 . S
C689 H659 0.950 . S
C689 C684 1.363 . S
C689 C688 1.415 . S
H690 C687 0.999 . S
H691 C672 0.913 . S
H692 C710 0.951 1_655 S
H693 C712 0.951 1_655 S
H694 C714 0.950 . S
H695 C715 0.950 . S
H696 C717 0.950 . S
H697 C720 0.950 . S
H698 C721 0.950 . S
H699 C723 0.950 . S
H700 C724 0.950 . S
H701 C725 0.951 . S
H702 C727 0.951 . S
H703 C729 0.950 1_655 S
H704 C730 0.950 1_655 S
H705 C732 0.950 . S
H706 C735 0.950 . S
H707 C736 0.950 . S
H708 C738 0.950 1_455 S
H709 C739 0.950 . S
C710 H692 0.951 1_455 S
C710 C711 1.366 . S
C710 C712 1.388 . S
C711 C710 1.366 . S
C711 C715 1.385 . S
C712 H693 0.951 1_455 S
C712 C710 1.388 . S
C712 C713 1.366 . S
C713 C712 1.366 . S
C713 C714 1.414 . S
C713 C716 1.499 . S
C714 H694 0.950 . S
C714 C713 1.414 . S
C714 C715 1.374 . S
C715 H695 0.950 . S
C715 C711 1.385 . S
C715 C714 1.374 . S
C716 C713 1.499 . S
C716 C717 1.373 . S
C716 C718 1.389 . S
C717 H696 0.950 . S
C717 C716 1.373 . S
C717 C733 1.377 . S
C718 C716 1.389 . S
C718 C719 1.524 . S
C718 C732 1.377 . S
C719 C718 1.524 . S
C719 C720 1.397 . S
C719 C724 1.363 . S
C720 H697 0.950 . S
C720 C719 1.397 . S
C720 C721 1.334 . S
C721 H698 0.950 . S
C721 C720 1.334 . S
C721 C722 1.287 . S
C722 C721 1.287 . S
C722 C723 1.524 . S
C722 H741 0.913 . S
C723 H699 0.950 . S
C723 C722 1.524 . S
C723 C724 1.415 . S
C724 H700 0.950 . S
C724 C719 1.363 . S
C724 C723 1.415 . S
C725 H701 0.951 . S
C725 C726 1.366 . S
C725 C727 1.388 . S
C726 C725 1.366 . S
C726 C730 1.385 . S
C727 H702 0.951 . S
C727 C725 1.388 . S
C727 C728 1.366 . S
C728 C727 1.366 . S
C728 C729 1.414 . S
C728 C731 1.499 . S
C729 H703 0.950 1_455 S
C729 C728 1.414 . S
C729 C730 1.374 . S
C730 H704 0.950 1_455 S
C730 C726 1.385 . S
C730 C729 1.374 . S
C731 C728 1.499 . S
C731 C732 1.373 . S
C731 C733 1.389 . S
C732 H705 0.950 . S
C732 C718 1.377 . S
C732 C731 1.373 . S
C733 C717 1.377 . S
C733 C731 1.389 . S
C733 C734 1.524 1_455 S
C734 C733 1.524 1_655 S
C734 C735 1.397 . S
C734 C739 1.363 1_655 S
C735 H706 0.950 . S
C735 C734 1.397 . S
C735 C736 1.334 . S
C736 H707 0.950 . S
C736 C735 1.334 . S
C736 C737 1.287 . S
C737 C736 1.287 . S
C737 C738 1.524 . S
C737 H740 0.999 . S
C738 H708 0.950 1_655 S
C738 C737 1.524 . S
C738 C739 1.415 1_655 S
C739 H709 0.950 . S
C739 C734 1.363 1_455 S
C739 C738 1.415 1_455 S
H740 C737 0.999 . S
H741 C722 0.913 . S
H742 C760 0.951 . S
H743 C762 0.951 . S
H744 C764 0.950 . S
H745 C765 0.950 . S
H746 C767 0.950 . S
H747 C770 0.950 . S
H748 C771 0.950 . S
H749 C773 0.950 . S
H750 C774 0.950 . S
H751 C775 0.951 . S
H752 C777 0.951 . S
H753 C779 0.950 . S
H754 C780 0.950 . S
H755 C782 0.950 . S
H756 C785 0.950 . S
H757 C786 0.950 . S
H758 C788 0.950 . S
H759 C789 0.950 . S
C760 H742 0.951 . S
C760 C761 1.366 . S
C760 C762 1.388 . S
C761 C760 1.366 . S
C761 C765 1.385 . S
C762 H743 0.951 . S
C762 C760 1.388 . S
C762 C763 1.366 . S
C763 C762 1.366 . S
C763 C764 1.414 . S
C763 C766 1.499 . S
C764 H744 0.950 . S
C764 C763 1.414 . S
C764 C765 1.374 . S
C765 H745 0.950 . S
C765 C761 1.385 . S
C765 C764 1.374 . S
C766 C763 1.499 . S
C766 C767 1.373 1_545 S
C766 C768 1.389 . S
C767 H746 0.950 . S
C767 C766 1.373 1_565 S
C767 C783 1.377 . S
C768 C766 1.389 . S
C768 C769 1.524 . S
C768 C782 1.377 . S
C769 C768 1.524 . S
C769 C770 1.397 . S
C769 C774 1.363 . S
C770 H747 0.950 . S
C770 C769 1.397 . S
C770 C771 1.334 . S
C771 H748 0.950 . S
C771 C770 1.334 . S
C771 C772 1.287 . S
C772 C771 1.287 . S
C772 C773 1.524 . S
C772 H791 0.913 . S
C773 H749 0.950 . S
C773 C772 1.524 . S
C773 C774 1.415 . S
C774 H750 0.950 . S
C774 C769 1.363 . S
C774 C773 1.415 . S
C775 H751 0.951 . S
C775 C776 1.366 . S
C775 C777 1.388 . S
C776 C775 1.366 . S
C776 C780 1.385 . S
C777 H752 0.951 . S
C777 C775 1.388 . S
C777 C778 1.366 . S
C778 C777 1.366 . S
C778 C779 1.414 . S
C778 C781 1.499 . S
C779 H753 0.950 . S
C779 C778 1.414 . S
C779 C780 1.374 . S
C780 H754 0.950 . S
C780 C776 1.385 . S
C780 C779 1.374 . S
C781 C778 1.499 . S
C781 C782 1.373 . S
C781 C783 1.389 1_545 S
C782 H755 0.950 . S
C782 C768 1.377 . S
C782 C781 1.373 . S
C783 C767 1.377 . S
C783 C781 1.389 1_565 S
C783 C784 1.524 . S
C784 C783 1.524 . S
C784 C785 1.397 . S
C784 C789 1.363 . S
C785 H756 0.950 . S
C785 C784 1.397 . S
C785 C786 1.334 . S
C786 H757 0.950 . S
C786 C785 1.334 . S
C786 C787 1.287 . S
C787 C786 1.287 . S
C787 C788 1.524 . S
C787 H790 0.999 . S
C788 H758 0.950 . S
C788 C787 1.524 . S
C788 C789 1.415 . S
C789 H759 0.950 . S
C789 C784 1.363 . S
C789 C788 1.415 . S
H790 C787 0.999 . S
H791 C772 0.913 . S
H792 C810 0.951 . S
H793 C812 0.951 . S
H794 C814 0.950 . S
H795 C815 0.950 . S
H796 C817 0.950 . S
H797 C820 0.950 . S
H798 C821 0.950 . S
H799 C823 0.950 . S
H800 C824 0.950 . S
H801 C825 0.952 . S
H802 C827 0.952 . S
H803 C829 0.950 . S
H804 C830 0.950 . S
H805 C832 0.950 . S
H806 C835 0.950 . S
H807 C836 0.950 . S
H808 C838 0.950 . S
H809 C839 0.950 . S
C810 H792 0.951 . S
C810 C811 1.366 . S
C810 C812 1.388 . S
C811 C810 1.366 . S
C811 C815 1.385 . S
C812 H793 0.951 . S
C812 C810 1.388 . S
C812 C813 1.366 . S
C813 C812 1.366 . S
C813 C814 1.414 . S
C813 C816 1.499 . S
C814 H794 0.950 . S
C814 C813 1.414 . S
C814 C815 1.374 . S
C815 H795 0.950 . S
C815 C811 1.385 . S
C815 C814 1.374 . S
C816 C813 1.499 . S
C816 C817 1.373 1_556 S
C816 C818 1.389 . S
C817 H796 0.950 . S
C817 C816 1.373 1_554 S
C817 C833 1.377 . S
C818 C816 1.389 . S
C818 C819 1.524 . S
C818 C832 1.377 . S
C819 C818 1.524 . S
C819 C820 1.397 . S
C819 C824 1.363 . S
C820 H797 0.950 . S
C820 C819 1.397 . S
C820 C821 1.334 . S
C821 H798 0.950 . S
C821 C820 1.334 . S
C821 C822 1.287 . S
C822 C821 1.287 . S
C822 C823 1.524 . S
C822 H841 0.913 . S
C823 H799 0.950 . S
C823 C822 1.524 . S
C823 C824 1.415 . S
C824 H800 0.950 . S
C824 C819 1.363 . S
C824 C823 1.415 . S
C825 H801 0.952 . S
C825 C826 1.365 1_554 S
C825 C827 1.388 . S
C826 C825 1.365 1_556 S
C826 C830 1.385 . S
C827 H802 0.952 . S
C827 C825 1.388 . S
C827 C828 1.366 . S
C828 C827 1.366 . S
C828 C829 1.414 1_554 S
C828 C831 1.498 1_554 S
C829 H803 0.950 . S
C829 C828 1.414 1_556 S
C829 C830 1.374 . S
C830 H804 0.950 . S
C830 C826 1.385 . S
C830 C829 1.374 . S
C831 C828 1.498 1_556 S
C831 C832 1.381 . S
C831 C833 1.382 1_556 S
C832 H805 0.950 . S
C832 C818 1.377 . S
C832 C831 1.381 . S
C833 C817 1.377 . S
C833 C831 1.382 1_554 S
C833 C834 1.524 . S
C834 C833 1.524 . S
C834 C835 1.397 . S
C834 C839 1.363 . S
C835 H806 0.950 . S
C835 C834 1.397 . S
C835 C836 1.334 . S
C836 H807 0.950 . S
C836 C835 1.334 . S
C836 C837 1.287 . S
C837 C836 1.287 . S
C837 C838 1.524 . S
C837 H840 0.999 . S
C838 H808 0.950 . S
C838 C837 1.524 . S
C838 C839 1.415 . S
C839 H809 0.950 . S
C839 C834 1.363 . S
C839 C838 1.415 . S
H840 C837 0.999 . S
H841 C822 0.913 . S
H842 C860 0.951 . S
H843 C862 0.951 . S
H844 C864 0.950 . S
H845 C865 0.950 . S
H846 C867 0.950 . S
H847 C870 0.950 . S
H848 C871 0.950 . S
H849 C873 0.950 . S
H850 C874 0.950 . S
H851 C875 0.951 . S
H852 C877 0.951 . S
H853 C879 0.950 . S
H854 C880 0.950 . S
H855 C882 0.950 . S
H856 C885 0.950 . S
H857 C886 0.950 . S
H858 C888 0.950 . S
H859 C889 0.950 1_554 S
C860 H842 0.951 . S
C860 C861 1.366 1_556 S
C860 C862 1.388 . S
C861 C860 1.366 1_554 S
C861 C865 1.385 . S
C862 H843 0.951 . S
C862 C860 1.388 . S
C862 C863 1.366 1_556 S
C863 C862 1.366 1_554 S
C863 C864 1.414 . S
C863 C866 1.499 . S
C864 H844 0.950 . S
C864 C863 1.414 . S
C864 C865 1.374 . S
C865 H845 0.950 . S
C865 C861 1.385 . S
C865 C864 1.374 . S
C866 C863 1.499 . S
C866 C867 1.373 1_554 S
C866 C868 1.389 . S
C867 H846 0.950 . S
C867 C866 1.373 1_556 S
C867 C883 1.377 . S
C868 C866 1.389 . S
C868 C869 1.524 . S
C868 C882 1.377 . S
C869 C868 1.524 . S
C869 C870 1.397 . S
C869 C874 1.363 . S
C870 H847 0.950 . S
C870 C869 1.397 . S
C870 C871 1.334 . S
C871 H848 0.950 . S
C871 C870 1.334 . S
C871 C872 1.287 . S
C872 C871 1.287 . S
C872 C873 1.524 . S
C872 H891 0.913 . S
C873 H849 0.950 . S
C873 C872 1.524 . S
C873 C874 1.415 . S
C874 H850 0.950 . S
C874 C869 1.363 . S
C874 C873 1.415 . S
C875 H851 0.951 . S
C875 C876 1.367 1_554 S
C875 C877 1.388 . S
C876 C875 1.367 1_556 S
C876 C880 1.383 . S
C877 H852 0.951 . S
C877 C875 1.388 . S
C877 C878 1.363 1_554 S
C878 C877 1.363 1_556 S
C878 C879 1.416 . S
C878 C881 1.499 . S
C879 H853 0.950 . S
C879 C878 1.416 . S
C879 C880 1.374 . S
C880 H854 0.950 . S
C880 C876 1.383 . S
C880 C879 1.374 . S
C881 C878 1.499 . S
C881 C882 1.373 1_556 S
C881 C883 1.389 . S
C882 H855 0.950 . S
C882 C868 1.377 . S
C882 C881 1.373 1_554 S
C883 C867 1.377 . S
C883 C881 1.389 . S
C883 C884 1.524 . S
C884 C883 1.524 . S
C884 C885 1.397 . S
C884 C889 1.363 . S
C885 H856 0.950 . S
C885 C884 1.397 . S
C885 C886 1.334 . S
C886 H857 0.950 . S
C886 C885 1.334 . S
C886 C887 1.287 . S
C887 C886 1.287 . S
C887 C888 1.524 . S
C887 H890 0.999 . S
C888 H858 0.950 . S
C888 C887 1.524 . S
C888 C889 1.415 . S
C889 H859 0.950 1_556 S
C889 C884 1.363 . S
C889 C888 1.415 . S
H890 C887 0.999 . S
H891 C872 0.913 . S
H892 C910 0.954 . S
H893 C912 0.951 . S
H894 C914 0.950 . S
H895 C915 0.950 . S
H896 C917 0.950 . S
H897 C920 0.950 . S
H898 C921 0.950 . S
H899 C923 0.950 . S
H900 C924 0.950 . S
H901 C925 0.951 . S
H902 C927 0.951 . S
H903 C929 0.950 . S
H904 C930 0.950 . S
H905 C932 0.950 . S
H906 C935 0.950 . S
H907 C936 0.950 . S
H908 C938 0.950 . S
H909 C939 0.950 . S
C910 H892 0.954 . S
C910 C911 1.362 1_556 S
C910 C912 1.389 . S
C911 C910 1.362 1_554 S
C911 C915 1.385 . S
C912 H893 0.951 . S
C912 C910 1.389 . S
C912 C913 1.366 1_556 S
C913 C912 1.366 1_554 S
C913 C914 1.414 . S
C913 C916 1.499 . S
C914 H894 0.950 . S
C914 C913 1.414 . S
C914 C915 1.374 . S
C915 H895 0.950 . S
C915 C911 1.385 . S
C915 C914 1.374 . S
C916 C913 1.499 . S
C916 C917 1.373 . S
C916 C918 1.389 1_554 S
C917 H896 0.950 . S
C917 C916 1.373 . S
C917 C933 1.377 . S
C918 C916 1.389 1_556 S
C918 C919 1.524 . S
C918 C932 1.377 . S
C919 C918 1.524 . S
C919 C920 1.397 . S
C919 C924 1.363 . S
C920 H897 0.950 . S
C920 C919 1.397 . S
C920 C921 1.334 . S
C921 H898 0.950 . S
C921 C920 1.334 . S
C921 C922 1.287 . S
C922 C921 1.287 . S
C922 C923 1.524 . S
C922 H941 0.913 . S
C923 H899 0.950 . S
C923 C922 1.524 . S
C923 C924 1.415 . S
C924 H900 0.950 . S
C924 C919 1.363 . S
C924 C923 1.415 . S
C925 H901 0.951 . S
C925 C926 1.366 . S
C925 C927 1.388 . S
C926 C925 1.366 . S
C926 C930 1.385 1_554 S
C927 H902 0.951 . S
C927 C925 1.388 . S
C927 C928 1.366 . S
C928 C927 1.366 . S
C928 C929 1.414 1_554 S
C928 C931 1.499 . S
C929 H903 0.950 . S
C929 C928 1.414 1_556 S
C929 C930 1.374 . S
C930 H904 0.950 . S
C930 C926 1.385 1_556 S
C930 C929 1.374 . S
C931 C928 1.499 . S
C931 C932 1.373 1_554 S
C931 C933 1.389 . S
C932 H905 0.950 . S
C932 C918 1.377 . S
C932 C931 1.373 1_556 S
C933 C917 1.377 . S
C933 C931 1.389 . S
C933 C934 1.524 . S
C934 C933 1.524 . S
C934 C935 1.397 . S
C934 C939 1.363 . S
C935 H906 0.950 . S
C935 C934 1.397 . S
C935 C936 1.334 . S
C936 H907 0.950 . S
C936 C935 1.334 . S
C936 C937 1.287 . S
C937 C936 1.287 . S
C937 C938 1.524 . S
C937 H940 0.999 . S
C938 H908 0.950 . S
C938 C937 1.524 . S
C938 C939 1.415 . S
C939 H909 0.950 . S
C939 C934 1.363 . S
C939 C938 1.415 . S
H940 C937 0.999 . S
H941 C922 0.913 . S
H942 C960 0.950 1_554 S
H943 C962 0.949 1_554 S
H944 C964 0.950 . S
H945 C965 0.950 . S
H946 C967 0.950 . S
H947 C970 0.950 . S
H948 C971 0.950 . S
H949 C973 0.950 . S
H950 C974 0.950 . S
H951 C975 0.951 . S
H952 C977 0.951 . S
H953 C979 0.950 . S
H954 C980 0.950 . S
H955 C982 0.950 . S
H956 C985 0.950 . S
H957 C986 0.950 . S
H958 C988 0.950 . S
H959 C989 0.950 . S
C960 H942 0.950 1_556 S
C960 C961 1.367 . S
C960 C962 1.388 . S
C961 C960 1.367 . S
C961 C965 1.385 . S
C962 H943 0.949 1_556 S
C962 C960 1.388 . S
C962 C963 1.367 . S
C963 C962 1.367 . S
C963 C964 1.414 . S
C963 C966 1.499 . S
C964 H944 0.950 . S
C964 C963 1.414 . S
C964 C965 1.374 . S
C965 H945 0.950 . S
C965 C961 1.385 . S
C965 C964 1.374 . S
C966 C963 1.499 . S
C966 C967 1.373 1_556 S
C966 C968 1.389 . S
C967 H946 0.950 . S
C967 C966 1.373 1_554 S
C967 C983 1.377 . S
C968 C966 1.389 . S
C968 C969 1.524 . S
C968 C982 1.377 . S
C969 C968 1.524 . S
C969 C970 1.397 . S
C969 C974 1.363 . S
C970 H947 0.950 . S
C970 C969 1.397 . S
C970 C971 1.334 . S
C971 H948 0.950 . S
C971 C970 1.334 . S
C971 C972 1.287 . S
C972 C971 1.287 . S
C972 C973 1.524 . S
C972 H991 0.913 . S
C973 H949 0.950 . S
C973 C972 1.524 . S
C973 C974 1.415 . S
C974 H950 0.950 . S
C974 C969 1.363 . S
C974 C973 1.415 . S
C975 H951 0.951 . S
C975 C976 1.367 . S
C975 C977 1.388 . S
C976 C975 1.367 . S
C976 C980 1.383 1_556 S
C977 H952 0.951 . S
C977 C975 1.388 . S
C977 C978 1.366 1_556 S
C978 C977 1.366 1_554 S
C978 C979 1.414 . S
C978 C981 1.499 1_554 S
C979 H953 0.950 . S
C979 C978 1.414 . S
C979 C980 1.374 . S
C980 H954 0.950 . S
C980 C976 1.383 1_554 S
C980 C979 1.374 . S
C981 C978 1.499 1_556 S
C981 C982 1.379 . S
C981 C983 1.385 1_556 S
C982 H955 0.950 . S
C982 C968 1.377 . S
C982 C981 1.379 . S
C983 C967 1.377 . S
C983 C981 1.385 1_554 S
C983 C984 1.524 . S
C984 C983 1.524 . S
C984 C985 1.397 . S
C984 C989 1.363 . S
C985 H956 0.950 . S
C985 C984 1.397 . S
C985 C986 1.334 . S
C986 H957 0.950 . S
C986 C985 1.334 . S
C986 C987 1.287 . S
C987 C986 1.287 . S
C987 C988 1.524 . S
C987 H990 0.999 . S
C988 H958 0.950 . S
C988 C987 1.524 . S
C988 C989 1.415 . S
C989 H959 0.950 . S
C989 C984 1.363 . S
C989 C988 1.415 . S
H990 C987 0.999 . S
H991 C972 0.913 . S
C426 C343 1.484 . S
C411 C11 0.867 . S
C476 C350 1.474 . S
C461 C143 1.205 . S
C526 C345 1.239 . S
C511 C1 0.958 . S
C576 C351 1.618 . S
C561 C169 1.215 . S
C611 C29 1.121 . S
C626 C344 1.361 . S
C676 C353 1.592 . S
C661 C125 0.934 1_545 S
C711 C55 1.134 . S
C726 C342 1.510 . S
C761 C115 1.039 . S
C776 C352 1.352 . S
C811 C283 1.314 1_556 S
C826 C347 1.735 1_556 S
C861 C239 1.011 . S
C876 C346 1.711 . S
C926 C349 1.586 . S
C911 C257 1.306 1_554 S
C976 C348 1.464 1_556 S
C961 C229 1.114 . S
