# Generated by pormake.
# Topology anh, (6,3)-cn, num edge types: 1
# Building blocks:
#     Node 0, Type 0, BuildingBlock: HISSIN_clean_sbu_0, # of connection points: 6
#     Node 1, Type 0, BuildingBlock: HISSIN_clean_sbu_0, # of connection points: 6
#     Node 2, Type 0, BuildingBlock: HISSIN_clean_sbu_0, # of connection points: 6
#     Node 3, Type 1, BuildingBlock: ESEHIV_clean_linker_0, # of connection points: 3
#     Node 4, Type 1, BuildingBlock: ESEHIV_clean_linker_0, # of connection points: 3
#     Node 5, Type 1, BuildingBlock: ESEHIV_clean_linker_0, # of connection points: 3
#     Node 6, Type 1, BuildingBlock: ESEHIV_clean_linker_0, # of connection points: 3
#     Node 7, Type 1, BuildingBlock: ESEHIV_clean_linker_0, # of connection points: 3
#     Node 8, Type 1, BuildingBlock: ESEHIV_clean_linker_0, # of connection points: 3
#     Edge 9, Type (0, 1), BuildingBlock: UVAHIK_clean_linker_0, # of connection points: 2
#     Edge 10, Type (0, 1), BuildingBlock: UVAHIK_clean_linker_0, # of connection points: 2
#     Edge 11, Type (0, 1), BuildingBlock: UVAHIK_clean_linker_0, # of connection points: 2
#     Edge 12, Type (0, 1), BuildingBlock: UVAHIK_clean_linker_0, # of connection points: 2
#     Edge 13, Type (0, 1), BuildingBlock: UVAHIK_clean_linker_0, # of connection points: 2
#     Edge 14, Type (0, 1), BuildingBlock: UVAHIK_clean_linker_0, # of connection points: 2
#     Edge 15, Type (0, 1), BuildingBlock: UVAHIK_clean_linker_0, # of connection points: 2
#     Edge 16, Type (0, 1), BuildingBlock: UVAHIK_clean_linker_0, # of connection points: 2
#     Edge 17, Type (0, 1), BuildingBlock: UVAHIK_clean_linker_0, # of connection points: 2
#     Edge 18, Type (0, 1), BuildingBlock: UVAHIK_clean_linker_0, # of connection points: 2
#     Edge 19, Type (0, 1), BuildingBlock: UVAHIK_clean_linker_0, # of connection points: 2
#     Edge 20, Type (0, 1), BuildingBlock: UVAHIK_clean_linker_0, # of connection points: 2
#     Edge 21, Type (0, 1), BuildingBlock: UVAHIK_clean_linker_0, # of connection points: 2
#     Edge 22, Type (0, 1), BuildingBlock: UVAHIK_clean_linker_0, # of connection points: 2
#     Edge 23, Type (0, 1), BuildingBlock: UVAHIK_clean_linker_0, # of connection points: 2
#     Edge 24, Type (0, 1), BuildingBlock: UVAHIK_clean_linker_0, # of connection points: 2
#     Edge 25, Type (0, 1), BuildingBlock: UVAHIK_clean_linker_0, # of connection points: 2
#     Edge 26, Type (0, 1), BuildingBlock: UVAHIK_clean_linker_0, # of connection points: 2
# Relax obj value: 0.236
# Max RMSD: 0.188
# Mean RMSD: 0.154
data_MOF--net-anh--node1-HISSIN_clean_sbu_0--node2-ESEHIV_clean_linker_0--edge1-UVAHIK_clean_linker_0
_symmetry_space_group_name_H-M    P1
_symmetry_Int_Tables_number       1
_symmetry_cell_setting            triclinic
loop_
_symmetry_equiv_pos_as_xyz
'x, y, z'
_cell_length_a     36.661261
_cell_length_b     36.758574
_cell_length_c     67.431109
_cell_angle_alpha  91.481099
_cell_angle_beta   90.521153
_cell_angle_gamma 120.0019
loop_
_atom_site_label
_atom_site_type_symbol
_atom_site_fract_x
_atom_site_fract_y
_atom_site_fract_z
_atom_type_partial_charge
Eu0 Eu 1.07058 0.50939 0.16201 0.0
Eu1 Eu 0.12396 0.60943 0.17304 0.0
C2 C 1.08485 0.54348 0.20754 0.0
C3 C 0.98286 0.41413 0.13836 0.0
C4 C 0.94841 0.37627 0.14402 0.0
C5 C 0.9359 0.42774 0.11821 0.0
C6 C 0.90772 0.36515 0.13757 0.0
C7 C 0.97652 0.43896 0.12476 0.0
C8 C 0.90085 0.39182 0.12534 0.0
C9 C 1.02295 0.43182 0.14966 0.0
O10 O 0.17405 0.58992 0.1749 0.0
O11 O 0.13797 0.52215 0.16175 0.0
C12 C 0.17324 0.55542 0.16822 0.0
O13 O 1.07619 0.54584 0.13439 0.0
O14 O 0.1665 0.66307 0.19219 0.0
O15 O 0.14224 0.67294 0.16457 0.0
O16 O 0.14118 0.59881 0.14277 0.0
C17 C 0.11226 0.57748 0.1292 0.0
O18 O 1.01972 0.52642 0.16665 0.0
O19 O 1.05858 0.59791 0.16392 0.0
O20 O 1.09137 0.57939 0.2009 0.0
O21 O 1.05663 0.45846 0.14046 0.0
O22 O 1.02178 0.44515 0.16764 0.0
O23 O 1.08322 0.51404 0.19537 0.0
C24 C 0.21298 0.71885 0.17297 0.0
C25 C 0.23555 0.70272 0.16297 0.0
C26 C 0.27291 0.78901 0.1712 0.0
C27 C 0.27688 0.72953 0.15738 0.0
C28 C 0.23164 0.76209 0.17692 0.0
C29 C 0.29602 0.77292 0.16152 0.0
C30 C 0.17 0.6902 0.17911 0.0
C31 C 1.02182 0.56286 0.16445 0.0
H32 H 0.95258 0.357 0.15467 0.0
H33 H 0.93179 0.44864 0.10859 0.0
H34 H 0.88156 0.33751 0.14361 0.0
H35 H 1.00261 0.46859 0.12027 0.0
H36 H 0.22125 0.66933 0.15961 0.0
H37 H 0.28715 0.8223 0.17485 0.0
H38 H 0.29387 0.71636 0.14986 0.0
H39 H 0.21451 0.77493 0.18458 0.0
Eu40 Eu 0.59728 1.01847 0.49646 0.0
Eu41 Eu 0.54834 0.06935 0.50561 0.0
C42 C 0.57873 1.03483 0.54061 0.0
C43 C 0.62312 0.93576 0.47834 0.0
C44 C 0.58229 0.91025 0.4703 0.0
C45 C 0.64052 0.88235 0.46929 0.0
C46 C 0.57029 0.87033 0.46217 0.0
C47 C 0.65241 0.92211 0.47735 0.0
C48 C 0.59902 0.85551 0.46204 0.0
C49 C 0.63485 0.97557 0.48878 0.0
O50 O 0.61814 0.11906 0.50945 0.0
O51 O 0.64799 0.08629 0.49248 0.0
C52 C 0.65067 0.12055 0.50051 0.0
O53 O 0.56803 1.02071 0.46735 0.0
O54 O 0.53296 0.10391 0.52747 0.0
O55 O 0.51117 0.09825 0.49697 0.0
O56 O 0.57001 0.08257 0.47431 0.0
C57 C 0.56842 1.05457 0.46143 0.0
O58 O 0.52886 0.96709 0.49964 0.0
O59 O 0.49434 1.00441 0.49597 0.0
O60 O 0.54571 1.03463 0.53297 0.0
O61 O 0.63798 1.00558 0.47779 0.0
O62 O 0.61501 0.97267 0.50515 0.0
O63 O 0.60881 1.03839 0.52904 0.0
C64 C 0.54663 0.16591 0.51284 0.0
C65 C 0.57163 0.18346 0.49618 0.0
C66 C 0.59221 0.23023 0.53195 0.0
C67 C 0.60753 0.22324 0.49766 0.0
C68 C 0.55604 0.19056 0.53042 0.0
C69 C 0.61924 0.24603 0.51584 0.0
C70 C 0.5203 0.11987 0.5138 0.0
C71 C 0.49377 0.96825 0.49679 0.0
H72 H 0.55939 0.92066 0.4709 0.0
H73 H 0.6633 0.87181 0.46988 0.0
H74 H 0.53823 0.85056 0.45664 0.0
H75 H 0.68402 0.94154 0.48352 0.0
H76 H 0.56568 0.16516 0.48246 0.0
H77 H 0.60016 0.24767 0.54603 0.0
H78 H 0.6278 0.23469 0.48501 0.0
H79 H 0.53757 0.17763 0.54351 0.0
Eu80 Eu 0.53743 0.48995 0.82696 0.0
Eu81 Eu 0.63848 0.54078 0.83306 0.0
C82 C 0.58021 0.51863 0.87057 0.0
C83 C 0.43278 0.47973 0.82671 0.0
C84 C 0.43587 0.49779 0.84572 0.0
C85 C 0.40317 0.52103 0.81397 0.0
C86 C 0.42436 0.52829 0.84863 0.0
C87 C 0.41468 0.49033 0.81103 0.0
C88 C 0.40964 0.54151 0.83263 0.0
C89 C 0.45649 0.45789 0.82236 0.0
O90 O 0.61981 0.47167 0.83598 0.0
O91 O 0.55395 0.43886 0.82105 0.0
C92 C 0.58705 0.43764 0.82797 0.0
O93 O 0.56554 0.51344 0.79698 0.0
O94 O 0.69595 0.55202 0.84867 0.0
O95 O 0.69912 0.59272 0.82514 0.0
O96 O 0.6277 0.51488 0.80195 0.0
C97 C 0.59938 0.51462 0.78998 0.0
O98 O 0.55366 0.5573 0.83424 0.0
O99 O 0.62103 0.58935 0.82341 0.0
O100 O 0.61345 0.54833 0.86218 0.0
O101 O 0.48256 0.47331 0.80786 0.0
O102 O 0.47363 0.45011 0.8375 0.0
O103 O 0.55032 0.48756 0.85978 0.0
C104 C 0.75706 0.58172 0.8291 0.0
C105 C 0.76608 0.58683 0.80877 0.0
C106 C 0.82354 0.58452 0.83545 0.0
C107 C 0.80434 0.59223 0.80198 0.0
C108 C 0.78557 0.57948 0.84224 0.0
C109 C 0.83389 0.59221 0.81537 0.0
C110 C 0.72025 0.58241 0.83717 0.0
C111 C 0.58717 0.59111 0.82815 0.0
H112 H 0.44967 0.49046 0.85817 0.0
H113 H 0.39161 0.53046 0.8014 0.0
H114 H 0.42853 0.54273 0.86331 0.0
H115 H 0.41222 0.47703 0.79622 0.0
H116 H 0.74443 0.58831 0.79824 0.0
H117 H 0.84593 0.58507 0.84623 0.0
H118 H 0.81146 0.59793 0.78643 0.0
H119 H 0.77932 0.5757 0.85796 0.0
H120 H 0.59289 0.09387 0.24813 0.0
H121 H 0.62798 0.2239 0.25787 0.0
H122 H 0.6068 0.17028 0.19862 0.0
C123 C 0.60089 0.12417 0.24239 0.0
C124 C 0.5992 0.12816 0.22183 0.0
C125 C 0.6111 0.15836 0.25561 0.0
C126 C 0.61936 0.19699 0.24796 0.0
C127 C 0.61683 0.201 0.22741 0.0
C128 C 0.60705 0.16662 0.21452 0.0
H129 H 0.67295 0.62622 0.57833 0.0
H130 H 0.75926 0.5817 0.58908 0.0
H131 H 0.74637 0.61933 0.53077 0.0
C132 C 0.6966 0.61911 0.57307 0.0
C133 C 0.70664 0.62332 0.55291 0.0
C134 C 0.71627 0.60511 0.58636 0.0
C135 C 0.74661 0.59567 0.57921 0.0
C136 C 0.75786 0.60057 0.55913 0.0
C137 C 0.73851 0.61579 0.54629 0.0
H138 H 0.15537 0.77034 0.93127 0.0
H139 H 0.27588 0.78537 0.94787 0.0
H140 H 0.24696 0.79463 0.88703 0.0
C141 C 0.18719 0.77839 0.92754 0.0
C142 C 0.19914 0.78489 0.90766 0.0
C143 C 0.21468 0.77852 0.94224 0.0
C144 C 0.25523 0.78729 0.93688 0.0
C145 C 0.26723 0.79287 0.91694 0.0
C146 C 0.23951 0.79338 0.90261 0.0
H147 H 1.0051 0.47944 0.42464 0.0
H148 H 0.12593 0.59101 0.42287 0.0
H149 H 1.06995 0.54404 0.47941 0.0
C150 C 1.03209 0.50502 0.43246 0.0
C151 C 1.03268 0.50786 0.45336 0.0
C152 C 1.06546 0.53478 0.42144 0.0
C153 C 0.10037 0.56798 0.4315 0.0
C154 C 0.10314 0.57193 0.45238 0.0
C155 C 1.06872 0.54155 0.46335 0.0
H156 H 0.59439 0.07456 0.75778 0.0
H157 H 0.58377 0.95312 0.75573 0.0
H158 H 0.58864 1.01341 0.8124 0.0
C159 C 0.592 1.048 0.76554 0.0
C160 C 0.59236 1.0489 0.78641 0.0
C161 C 0.5889 1.01378 0.75444 0.0
C162 C 0.58597 0.97942 0.7644 0.0
C163 C 0.58538 0.97821 0.7853 0.0
C164 C 0.58879 1.0135 0.79634 0.0
H165 H 0.52715 0.54077 0.08841 0.0
H166 H 0.64807 0.55012 0.08718 0.0
H167 H 0.59492 0.55493 0.14347 0.0
C168 C 0.55447 0.54406 0.0964 0.0
C169 C 0.55591 0.54677 0.11732 0.0
C170 C 0.58726 0.54499 0.08548 0.0
C171 C 0.62289 0.54959 0.09569 0.0
C172 C 0.62694 0.55403 0.11657 0.0
C173 C 0.5928 0.55219 0.12742 0.0
C174 C 0.25241 0.59154 0.16382 0.0
C175 C 0.2138 0.55463 0.16681 0.0
C176 C 0.28978 0.5902 0.16079 0.0
C177 C 0.32809 0.51255 0.14983 0.0
H178 H 0.43781 0.61214 0.15741 0.0
C179 C 0.4771 0.51477 0.12011 0.0
C180 C 0.51789 0.54358 0.12762 0.0
C181 C 0.44138 0.51556 0.12679 0.0
C182 C 0.40765 0.58362 0.15544 0.0
H183 H 0.18515 0.48745 0.16978 0.0
H184 H 0.24975 0.48515 0.16599 0.0
H185 H 0.37505 0.61482 0.16595 0.0
H186 H 0.55191 0.59443 0.1493 0.0
H187 H 0.48931 0.59443 0.1619 0.0
H188 H 0.36047 0.48058 0.14058 0.0
C189 C 0.25156 0.51528 0.16487 0.0
C190 C 0.371 0.58537 0.16005 0.0
C191 C 0.21408 0.51654 0.16734 0.0
C192 C 0.52122 0.57166 0.1431 0.0
C193 C 0.48506 0.57207 0.15009 0.0
C194 C 0.36462 0.51058 0.14569 0.0
C195 C 0.29027 0.55195 0.16112 0.0
C196 C 0.33021 0.54998 0.15708 0.0
C197 C 0.44435 0.54452 0.14177 0.0
C198 C 0.4053 0.54623 0.14798 0.0
H199 H 0.25355 0.62149 0.16309 0.0
H200 H 0.31799 0.61933 0.15767 0.0
H201 H 0.29808 0.48439 0.14687 0.0
H202 H 0.47274 0.4921 0.10841 0.0
H203 H 0.41154 0.49408 0.11949 0.0
C204 C 0.72507 0.16438 0.48807 0.0
C205 C 0.69104 0.16199 0.49872 0.0
C206 C 0.76224 0.20305 0.48558 0.0
C207 C 0.80574 0.32038 0.48856 0.0
H208 H 0.91278 0.32393 0.48402 0.0
C209 C 0.95394 0.46458 0.45736 0.0
C210 C 0.99475 0.47471 0.4638 0.0
C211 C 0.91784 0.42894 0.46403 0.0
C212 C 0.88339 0.32391 0.48546 0.0
H213 H 0.67061 0.19962 0.51529 0.0
H214 H 0.73539 0.2667 0.51115 0.0
H215 H 0.84957 0.25796 0.49099 0.0
H216 H 1.02891 0.45525 0.48302 0.0
H217 H 0.96592 0.39325 0.49499 0.0
H218 H 0.83974 0.38649 0.4833 0.0
C219 C 0.73307 0.2386 0.50444 0.0
C220 C 0.84664 0.28557 0.48919 0.0
C221 C 0.69579 0.19984 0.50694 0.0
C222 C 0.99812 0.44882 0.47786 0.0
C223 C 0.96183 0.41279 0.48449 0.0
C224 C 0.84249 0.3587 0.48482 0.0
C225 C 0.76706 0.24107 0.49366 0.0
C226 C 0.80691 0.28282 0.49058 0.0
C227 C 0.92097 0.40169 0.47739 0.0
C228 C 0.88203 0.36119 0.48295 0.0
H229 H 0.72289 0.13626 0.48135 0.0
H230 H 0.78691 0.20308 0.47687 0.0
H231 H 0.77616 0.32017 0.48937 0.0
H232 H 0.94995 0.48358 0.44648 0.0
H233 H 0.88747 0.42182 0.45793 0.0
C234 C 0.62027 0.6669 0.81766 0.0
C235 C 0.58651 0.63161 0.82615 0.0
C236 C 0.61936 0.70447 0.81532 0.0
C237 C 0.54511 0.74801 0.81505 0.0
H238 H 0.64908 0.85514 0.81576 0.0
C239 C 0.55092 0.89919 0.78682 0.0
C240 C 0.581 0.93929 0.79462 0.0
C241 C 0.55049 0.86259 0.7927 0.0
C242 C 0.61954 0.82571 0.81573 0.0
H243 H 0.52527 0.60922 0.83903 0.0
H244 H 0.52416 0.6746 0.8355 0.0
H245 H 0.65094 0.79117 0.82214 0.0
H246 H 0.63351 0.97142 0.81552 0.0
H247 H 0.63238 0.90745 0.82622 0.0
H248 H 0.51363 0.78262 0.80911 0.0
C249 C 0.55114 0.67313 0.83017 0.0
C250 C 0.62065 0.78852 0.81911 0.0
C251 C 0.55192 0.63543 0.83237 0.0
C252 C 0.60965 0.94124 0.80926 0.0
C253 C 0.60933 0.90439 0.81517 0.0
C254 C 0.544 0.78517 0.81174 0.0
C255 C 0.58476 0.70845 0.8215 0.0
C256 C 0.5835 0.74876 0.81863 0.0
C257 C 0.58014 0.86434 0.80673 0.0
C258 C 0.58123 0.82479 0.81176 0.0
H259 H 0.64742 0.66543 0.81253 0.0
H260 H 0.64569 0.73015 0.80824 0.0
H261 H 0.51562 0.71851 0.81433 0.0
H262 H 0.52823 0.89619 0.77554 0.0
H263 H 0.52772 0.83297 0.78556 0.0
C264 C 0.94252 0.52632 0.15882 0.0
C265 C 0.98133 0.56381 0.16205 0.0
C266 C 0.90459 0.52682 0.15621 0.0
C267 C 0.8628 0.60065 0.14552 0.0
H268 H 0.75556 0.50186 0.15557 0.0
C269 C 0.70627 0.58702 0.11713 0.0
C270 C 0.66752 0.56062 0.12607 0.0
C271 C 0.74375 0.58877 0.12337 0.0
C272 C 0.78504 0.53014 0.1529 0.0
H273 H 1.00966 0.63137 0.16542 0.0
H274 H 0.94408 0.63238 0.16149 0.0
H275 H 0.82053 0.50238 0.16342 0.0
H276 H 0.63921 0.51686 0.14962 0.0
H277 H 0.70499 0.52121 0.16124 0.0
H278 H 0.82754 0.62926 0.13603 0.0
C279 C 0.94264 0.60229 0.16034 0.0
C280 C 0.82289 0.53019 0.15709 0.0
C281 C 0.98068 0.6018 0.1628 0.0
C282 C 0.66822 0.53766 0.14234 0.0
C283 C 0.70613 0.53971 0.14879 0.0
C284 C 0.82509 0.60086 0.14167 0.0
C285 C 0.90367 0.56479 0.15677 0.0
C286 C 0.86273 0.56527 0.15323 0.0
C287 C 0.74464 0.56478 0.13917 0.0
C288 C 0.78525 0.56538 0.14491 0.0
H289 H 0.94134 0.49628 0.15801 0.0
H290 H 0.87608 0.49712 0.15339 0.0
H291 H 0.89204 0.62835 0.14196 0.0
H292 H 0.70751 0.60572 0.10473 0.0
H293 H 0.77181 0.60808 0.11515 0.0
C294 C 0.45021 0.88896 0.49904 0.0
C295 C 0.45263 0.92728 0.49443 0.0
C296 C 0.41223 0.85041 0.4966 0.0
C297 C 0.29433 0.80266 0.48698 0.0
H298 H 0.30136 0.70291 0.47479 0.0
C299 C 0.14175 0.63623 0.47614 0.0
C300 C 0.14276 0.60832 0.46172 0.0
C301 C 0.1789 0.674 0.48199 0.0
C302 C 0.29833 0.73027 0.47795 0.0
H303 H 0.41589 0.95419 0.48348 0.0
H304 H 0.35033 0.88731 0.47857 0.0
H305 H 0.36527 0.76986 0.47987 0.0
H306 H 0.18474 0.59795 0.44305 0.0
H307 H 0.24803 0.66284 0.45263 0.0
H308 H 0.22714 0.763 0.48402 0.0
C309 C 0.37753 0.88687 0.48462 0.0
C310 C 0.33555 0.76915 0.48127 0.0
C311 C 0.41551 0.92558 0.48732 0.0
C312 C 0.18234 0.61855 0.45409 0.0
C313 C 0.21912 0.65606 0.45979 0.0
C314 C 0.25697 0.76371 0.48343 0.0
C315 C 0.37505 0.84833 0.48914 0.0
C316 C 0.33453 0.80634 0.48582 0.0
C317 C 0.21831 0.68505 0.47364 0.0
C318 C 0.25816 0.72667 0.47868 0.0
H319 H 0.47778 0.88863 0.5047 0.0
H320 H 0.41221 0.82221 0.50082 0.0
H321 H 0.29144 0.82989 0.49072 0.0
H322 H 0.11201 0.62977 0.4823 0.0
H323 H 0.17652 0.69471 0.49293 0.0
C324 C 0.55558 0.36148 0.81585 0.0
C325 C 0.58774 0.39693 0.82634 0.0
C326 C 0.55659 0.32372 0.81386 0.0
C327 C 0.62992 0.27981 0.81868 0.0
H328 H 0.52614 0.1728 0.81343 0.0
C329 C 0.62837 0.1277 0.79106 0.0
C330 C 0.59656 0.08778 0.79676 0.0
C331 C 0.62816 0.16454 0.79695 0.0
C332 C 0.5556 0.2022 0.81512 0.0
H333 H 0.64609 0.41932 0.84321 0.0
H334 H 0.64745 0.35374 0.84019 0.0
H335 H 0.52351 0.23709 0.8193 0.0
H336 H 0.54017 1.05605 0.8139 0.0
H337 H 0.54027 0.12045 0.82479 0.0
H338 H 0.66205 0.24493 0.81501 0.0
C339 C 0.62167 0.35517 0.83305 0.0
C340 C 0.55408 0.23955 0.81819 0.0
C341 C 0.62077 0.39303 0.83494 0.0
C342 C 0.56548 0.08615 0.80941 0.0
C343 C 0.56521 0.12324 0.81536 0.0
C344 C 0.63143 0.2425 0.8157 0.0
C345 C 0.58971 0.31971 0.82237 0.0
C346 C 0.59122 0.27925 0.81983 0.0
C347 C 0.5961 0.16315 0.80887 0.0
C348 C 0.59432 0.20289 0.8136 0.0
H349 H 0.52965 0.36296 0.80888 0.0
H350 H 0.53162 0.2979 0.80522 0.0
H351 H 0.65942 0.30928 0.81963 0.0
H352 H 0.65269 0.13032 0.78121 0.0
H353 H 0.65231 0.194 0.79129 0.0
C354 C 0.61301 0.79933 0.44914 0.0
C355 C 0.58494 0.81062 0.45746 0.0
C356 C 0.60728 0.75934 0.45178 0.0
C357 C 0.56505 0.68842 0.49263 0.0
H358 H 0.63443 0.6472 0.46943 0.0
C359 C 0.63702 0.61117 0.53986 0.0
C360 C 0.68112 0.63145 0.53838 0.0
C361 C 0.61267 0.61753 0.52585 0.0
C362 C 0.6145 0.658 0.47599 0.0
H363 H 0.52437 0.78631 0.47145 0.0
H364 H 0.51317 0.71594 0.47499 0.0
H365 H 0.60695 0.68192 0.44861 0.0
H366 H 0.73409 0.67399 0.52091 0.0
H367 H 0.69154 0.68505 0.49646 0.0
H368 H 0.57403 0.66609 0.52012 0.0
C369 C 0.54094 0.73864 0.46745 0.0
C370 C 0.59877 0.6779 0.4641 0.0
C371 C 0.54713 0.77899 0.46519 0.0
C372 C 0.70021 0.65764 0.52238 0.0
C373 C 0.67581 0.6637 0.5083 0.0
C374 C 0.58023 0.66804 0.50439 0.0
C375 C 0.5729 0.72968 0.4625 0.0
C376 C 0.57622 0.69586 0.47259 0.0
C377 C 0.63186 0.64396 0.50998 0.0
C378 C 0.60712 0.65491 0.49644 0.0
H379 H 0.64167 0.82266 0.4424 0.0
H380 H 0.63243 0.75375 0.4474 0.0
H381 H 0.54811 0.70188 0.4999 0.0
H382 H 0.62121 0.58997 0.55173 0.0
H383 H 0.57883 0.60194 0.52747 0.0
C384 C 0.89955 0.58776 0.81752 0.0
C385 C 0.87764 0.60633 0.80944 0.0
C386 C 0.94344 0.609 0.81773 0.0
C387 C 1.02352 0.71892 0.82302 0.0
H388 H 1.09109 0.66871 0.8367 0.0
C389 C 0.17403 0.7973 0.87512 0.0
C390 C 0.16695 0.77218 0.89162 0.0
C391 C 0.14645 0.78166 0.85858 0.0
C392 C 1.07294 0.68339 0.83259 0.0
H393 H 0.884 0.6585 0.79251 0.0
H394 H 0.96067 0.69501 0.79233 0.0
H395 H 1.02904 0.62978 0.81488 0.0
H396 H 0.12601 0.71123 0.9038 0.0
H397 H 1.07811 0.68406 0.87502 0.0
H398 H 1.06658 0.7717 0.84154 0.0
C399 C 0.94405 0.66471 0.7991 0.0
C400 C 1.03741 0.66114 0.82017 0.0
C401 C 0.90006 0.64354 0.79903 0.0
C402 C 0.13171 0.73155 0.89145 0.0
C403 C 0.10479 0.71574 0.87487 0.0
C404 C 1.05944 0.7414 0.8352 0.0
C405 C 0.96622 0.64914 0.80972 0.0
C406 C 1.0107 0.67748 0.81636 0.0
C407 C 0.11226 0.74038 0.85821 0.0
C408 C 1.08283 0.72269 0.841 0.0
H409 H 0.88293 0.5586 0.82527 0.0
H410 H 0.95919 0.59574 0.82601 0.0
H411 H 1.00375 0.73259 0.82054 0.0
H412 H 0.20133 0.82855 0.87487 0.0
H413 H 0.15239 0.80126 0.84592 0.0
C414 C 0.35334 0.84067 0.14904 0.0
C415 C 0.34073 0.80131 0.15694 0.0
C416 C 0.39595 0.87063 0.1482 0.0
C417 C 0.48764 0.90112 0.17898 0.0
H418 H 0.53382 0.99672 0.14493 0.0
C419 C 0.6029 0.064 0.21128 0.0
C420 C 0.58762 0.0917 0.20805 0.0
C421 C 0.5884 1.0274 0.19942 0.0
C422 C 0.52176 0.97008 0.15448 0.0
H423 H 0.36265 0.76084 0.16843 0.0
H424 H 0.43739 0.81339 0.16698 0.0
H425 H 0.47667 0.92882 0.13238 0.0
H426 H 0.54673 0.10374 0.18926 0.0
H427 H 0.52131 1.04018 0.16879 0.0
H428 H 0.53 0.94283 0.2016 0.0
C429 C 0.41428 0.82113 0.16155 0.0
C430 C 0.48913 0.93125 0.14728 0.0
C431 C 0.37154 0.79106 0.16233 0.0
C432 C 0.55946 0.0833 0.19203 0.0
C433 C 0.54508 1.04688 0.18019 0.0
C434 C 0.52017 0.93989 0.18617 0.0
C435 C 0.42682 0.86185 0.15533 0.0
C436 C 0.46988 0.89719 0.15993 0.0
C437 C 0.5584 1.01789 0.18409 0.0
C438 C 0.53554 0.97539 0.17442 0.0
H439 H 0.33017 0.84906 0.14446 0.0
H440 H 0.4044 0.90176 0.14348 0.0
H441 H 0.47353 0.87559 0.18915 0.0
H442 H 0.62532 0.07012 0.22327 0.0
H443 H 0.59947 1.0058 0.20268 0.0
C444 C 0.67555 0.31555 0.5042 0.0
C445 C 0.66096 0.2845 0.51842 0.0
C446 C 0.71405 0.35264 0.50718 0.0
C447 C 0.77883 0.41812 0.54932 0.0
H448 H 0.83063 0.49479 0.50662 0.0
C449 C 0.81459 0.58109 0.56301 0.0
C450 C 0.78391 0.58305 0.55106 0.0
C451 C 0.82978 0.55417 0.55757 0.0
C452 C 0.81765 0.47375 0.51882 0.0
H453 H 0.67686 0.26582 0.54592 0.0
H454 H 0.74446 0.33024 0.55103 0.0
H455 H 0.79628 0.41915 0.49971 0.0
H456 H 0.75004 0.56229 0.52257 0.0
H457 H 0.77731 0.51754 0.51305 0.0
H458 H 0.7973 0.47224 0.56811 0.0
C459 C 0.72565 0.32676 0.53789 0.0
C460 C 0.79747 0.43039 0.51484 0.0
C461 C 0.68677 0.28999 0.53506 0.0
C462 C 0.77364 0.56224 0.53229 0.0
C463 C 0.78953 0.53626 0.5267 0.0
C464 C 0.79941 0.46133 0.55332 0.0
C465 C 0.73912 0.35927 0.52436 0.0
C466 C 0.7744 0.40225 0.52969 0.0
C467 C 0.8152 0.5295 0.53991 0.0
C468 C 0.81531 0.48935 0.53774 0.0
H469 H 0.65634 0.31199 0.49119 0.0
H470 H 0.72271 0.37704 0.49656 0.0
H471 H 0.76203 0.39771 0.56128 0.0
H472 H 0.82455 0.59789 0.57723 0.0
H473 H 0.84998 0.54992 0.56793 0.0
C474 C 0.36695 0.57692 0.82788 0.0
C475 C 0.40327 0.57798 0.83543 0.0
C476 C 0.35922 0.60967 0.83258 0.0
C477 C 0.40507 0.7169 0.85618 0.0
H478 H 0.29457 0.67016 0.87904 0.0
C479 C 0.32437 0.80525 0.893 0.0
C480 C 0.30193 0.78609 0.91013 0.0
C481 C 0.34547 0.78812 0.8826 0.0
C482 C 0.32553 0.68367 0.87268 0.0
H483 H 0.46178 0.61564 0.85222 0.0
H484 H 0.44806 0.67234 0.86063 0.0
H485 H 0.31232 0.62455 0.85996 0.0
H486 H 0.28887 0.73717 0.93105 0.0
H487 H 0.32659 0.70873 0.91336 0.0
H488 H 0.41818 0.77607 0.86964 0.0
C489 C 0.42554 0.64644 0.8511 0.0
C490 C 0.33548 0.65769 0.8615 0.0
C491 C 0.43311 0.61366 0.84652 0.0
C492 C 0.30577 0.75308 0.91802 0.0
C493 C 0.32695 0.73626 0.90773 0.0
C494 C 0.39486 0.74315 0.86731 0.0
C495 C 0.38781 0.64405 0.84481 0.0
C496 C 0.37566 0.67371 0.85353 0.0
C497 C 0.34458 0.75192 0.88934 0.0
C498 C 0.35543 0.72629 0.87614 0.0
H499 H 0.34358 0.54991 0.81919 0.0
H500 H 0.33004 0.60727 0.82736 0.0
H501 H 0.43622 0.73006 0.85009 0.0
H502 H 0.32262 0.83119 0.88674 0.0
H503 H 0.35927 0.80093 0.86852 0.0
C504 C 0.85177 0.42071 0.12605 0.0
C505 C 0.85783 0.38601 0.12327 0.0
C506 C 0.8121 0.41472 0.13068 0.0
C507 C 0.70151 0.33063 0.14076 0.0
H508 H 0.72591 0.39001 0.19183 0.0
C509 C 0.66869 0.276 0.22192 0.0
C510 C 0.62807 0.24163 0.21868 0.0
C511 C 0.68483 0.30904 0.20883 0.0
C512 C 0.71819 0.37346 0.17753 0.0
H513 H 0.82578 0.31817 0.11973 0.0
H514 H 0.75723 0.30751 0.12833 0.0
H515 H 0.77741 0.41792 0.16595 0.0
H516 H 0.57014 0.21733 0.20129 0.0
H517 H 0.59783 0.27564 0.17871 0.0
H518 H 0.64462 0.2836 0.15306 0.0
C519 C 0.78281 0.33948 0.12709 0.0
C520 C 0.74758 0.38975 0.16251 0.0
C521 C 0.82238 0.3455 0.1224 0.0
C522 C 0.60186 0.24341 0.20387 0.0
C523 C 0.6178 0.27666 0.1909 0.0
C524 C 0.67235 0.31411 0.15583 0.0
C525 C 0.77785 0.37394 0.13265 0.0
C526 C 0.74098 0.36664 0.14454 0.0
C527 C 0.66043 0.30827 0.19236 0.0
C528 C 0.68196 0.33366 0.1749 0.0
H529 H 0.87827 0.45246 0.12652 0.0
H530 H 0.80906 0.44193 0.13436 0.0
H531 H 0.69494 0.31278 0.12685 0.0
H532 H 0.68949 0.27525 0.23321 0.0
H533 H 0.71783 0.33264 0.21049 0.0
C534 C 1.08791 0.576 0.09393 0.0
C535 C 0.11992 0.59266 0.10872 0.0
C536 C 0.09538 0.59367 0.07516 0.0
C537 C 0.18279 0.66399 0.04274 0.0
H538 H 0.09909 0.68443 0.01803 0.0
C539 C 0.22513 0.77757 0.97911 0.0
C540 C 0.19874 0.76148 0.96209 0.0
C541 C 0.21276 0.75685 -0.003 0.0
C542 C 0.12263 0.67872 0.02475 0.0
H543 H 0.1851 0.64029 0.11524 0.0
H544 H 0.19765 0.67103 0.08306 0.0
H545 H 1.08248 0.645 0.04853 0.0
H546 H 0.13777 0.71166 0.95086 0.0
H547 H 0.11594 0.67643 0.9822 0.0
H548 H 0.22321 0.69839 0.01927 0.0
C549 C 0.16701 0.64407 0.08564 0.0
C550 C 0.11305 0.6559 0.04211 0.0
C551 C 0.15964 0.62651 0.10423 0.0
C552 C 0.15867 0.72553 0.96372 0.0
C553 C 0.14617 0.70507 0.98166 0.0
C554 C 0.19245 0.68707 0.02557 0.0
C555 C 0.13501 0.62815 0.07088 0.0
C556 C 0.14328 0.64878 0.05146 0.0
C557 C 0.17359 0.71982 -0.0017 0.0
C558 C 0.1627 0.69512 0.01652 0.0
H559 H 1.05696 0.54997 0.09697 0.0
H560 H 1.07017 0.58043 0.06404 0.0
H561 H 0.20649 0.65828 0.04927 0.0
H562 H 0.25594 0.80544 0.97844 0.0
H563 H 0.23424 0.76928 0.00973 0.0
C564 C 0.56222 0.0946 0.43353 0.0
C565 C 0.57003 0.0631 0.44008 0.0
C566 C 0.56663 0.10507 0.41361 0.0
C567 C 0.57538 0.06722 0.36323 0.0
H568 H 0.62314 0.18484 0.35115 0.0
C569 C 0.62756 0.12776 0.28487 0.0
C570 C 0.61181 0.1527 0.27733 0.0
C571 C 0.62406 0.11837 0.30491 0.0
C572 C 0.60955 0.15188 0.35433 0.0
H573 H 0.58814 1.01752 0.43089 0.0
H574 H 0.59692 1.03649 0.39617 0.0
H575 H 0.61293 0.16413 0.38563 0.0
H576 H 0.58155 0.18871 0.28519 0.0
H577 H 0.57641 0.17307 0.32041 0.0
H578 H 0.57293 1.05529 0.33186 0.0
C579 C 0.5865 1.05255 0.40632 0.0
C580 C 0.60347 0.1399 0.37406 0.0
C581 C 0.5816 1.04172 0.42624 0.0
C582 C 0.59433 0.16973 0.29053 0.0
C583 C 0.59123 0.16065 0.31067 0.0
C584 C 0.58192 0.07928 0.34353 0.0
C585 C 0.57947 0.08467 0.3998 0.0
C586 C 0.58613 0.09738 0.37877 0.0
C587 C 0.60525 0.13415 0.31794 0.0
C588 C 0.59897 0.1217 0.33889 0.0
H589 H 0.55291 0.11142 0.44382 0.0
H590 H 0.55997 0.12924 0.40907 0.0
H591 H 0.56131 1.03415 0.36625 0.0
H592 H 0.64211 0.11494 0.2752 0.0
H593 H 0.63584 0.0985 0.31022 0.0
C594 C 0.57721 0.51612 0.75479 0.0
C595 C 0.6079 0.51954 0.76853 0.0
C596 C 0.58656 0.52316 0.73469 0.0
C597 C 0.66478 0.53153 0.69754 0.0
H598 H 0.62329 0.59351 0.66828 0.0
C599 C 0.73228 0.60509 0.6227 0.0
C600 C 0.70275 0.59694 0.6073 0.0
C601 C 0.71925 0.59501 0.64218 0.0
C602 C 0.63483 0.57591 0.67625 0.0
H603 H 0.6725 0.53301 0.77193 0.0
H604 H 0.68899 0.54622 0.73723 0.0
H605 H 0.60243 0.57557 0.70254 0.0
H606 H 0.6362 0.57187 0.60049 0.0
H607 H 0.61381 0.5555 0.63461 0.0
H608 H 0.69806 0.53296 0.67138 0.0
C609 C 0.65736 0.53709 0.74175 0.0
C610 C 0.62273 0.56541 0.69584 0.0
C611 C 0.64793 0.52971 0.76174 0.0
C612 C 0.65997 0.57936 0.61198 0.0
C613 C 0.64703 0.56975 0.63151 0.0
C614 C 0.67722 0.54245 0.67808 0.0
C615 C 0.6269 0.53407 0.72796 0.0
C616 C 0.63782 0.54335 0.70678 0.0
C617 C 0.67648 0.57699 0.64674 0.0
C618 C 0.6626 0.56497 0.66729 0.0
H619 H 0.54604 0.50822 0.75956 0.0
H620 H 0.56216 0.51998 0.72444 0.0
H621 H 0.6763 0.51374 0.70534 0.0
H622 H 0.76552 0.6192 0.61969 0.0
H623 H 0.74267 0.60146 0.65371 0.0
C624 C 0.613 1.02537 0.57119 0.0
C625 C 0.58193 1.03205 0.56246 0.0
C626 C 0.61555 1.02303 0.59187 0.0
C627 C 0.58679 1.0559 0.63855 0.0
H628 H 0.59756 0.96662 0.6622 0.0
C629 C 0.56314 1.02654 0.72215 0.0
C630 C 0.58851 1.01412 0.73233 0.0
C631 C 0.56357 1.0283 0.70145 0.0
C632 C 0.59518 0.99216 0.65589 0.0
H633 H 0.5293 1.04165 0.56872 0.0
H634 H 0.53405 1.03796 0.60454 0.0
H635 H 0.59738 0.97131 0.62611 0.0
H636 H 0.63419 0.99363 0.72869 0.0
H637 H 0.63565 0.99741 0.69255 0.0
H638 H 0.58513 0.07728 0.66811 0.0
C639 C 0.55649 1.03458 0.59547 0.0
C640 C 0.59501 0.99476 0.63517 0.0
C641 C 0.55363 1.03643 0.57488 0.0
C642 C 0.614 1.00298 0.72127 0.0
C643 C 0.61474 1.00508 0.70052 0.0
C644 C 0.58735 1.05356 0.65921 0.0
C645 C 0.58748 1.02793 0.60425 0.0
C646 C 0.59024 1.02635 0.62626 0.0
C647 C 0.58972 1.01806 0.69031 0.0
C648 C 0.59095 1.02133 0.66821 0.0
H649 H 0.63525 1.02182 0.56207 0.0
H650 H 0.63993 1.01809 0.5982 0.0
H651 H 0.58383 0.08108 0.63217 0.0
H652 H 0.54262 1.03465 0.73021 0.0
H653 H 0.54305 1.03741 0.69418 0.0
C654 C 0.54398 0.48789 0.90264 0.0
C655 C 0.5774 0.52034 0.89257 0.0
C656 C 0.54255 0.48959 0.92343 0.0
C657 C 0.56197 0.48996 0.9679 0.0
H658 H 0.59723 0.59699 0.99521 0.0
C659 C 0.59677 0.51584 0.05284 0.0
C660 C 0.58421 0.54121 0.06331 0.0
C661 C 0.5938 0.51226 0.03207 0.0
C662 C 0.58692 0.56674 0.98787 0.0
H663 H 0.63537 0.58019 0.89665 0.0
H664 H 0.63295 0.58295 0.9326 0.0
H665 H 0.59444 0.59249 0.95909 0.0
H666 H 0.55896 0.58298 0.05994 0.0
H667 H 0.55319 0.57627 0.02382 0.0
H668 H 0.5541 0.46418 -0.00326 0.0
C669 C 0.60755 0.55636 0.92451 0.0
C670 C 0.58576 0.56424 0.9671 0.0
C671 C 0.60905 0.55461 0.90381 0.0
C672 C 0.56856 0.56285 0.05242 0.0
C673 C 0.56567 0.55934 0.03166 0.0
C674 C 0.56325 0.49249 0.9887 0.0
C675 C 0.57437 0.52389 0.93464 0.0
C676 C 0.57358 0.5259 0.9568 0.0
C677 C 0.5783 0.53405 0.02117 0.0
C678 C 0.57596 0.53097 -0.00102 0.0
H679 H 0.51904 0.46104 0.89448 0.0
H680 H 0.5163 0.4642 0.93072 0.0
H681 H 0.55275 0.45999 0.96051 0.0
H682 H 0.60858 0.49838 0.06073 0.0
H683 H 0.60426 0.49285 0.02453 0.0
C684 C 1.08529 0.57094 0.24193 0.0
C685 C 1.07974 0.53734 0.22932 0.0
C686 C 1.08069 0.56644 0.26238 0.0
C687 C 1.08031 0.50222 0.30391 0.0
H688 H 1.03093 0.56042 0.33152 0.0
C689 C 1.05182 0.49297 0.3892 0.0
C690 C 1.06393 0.53149 0.3993 0.0
C691 C 1.05128 0.4903 0.3684 0.0
C692 C 1.04503 0.54418 0.32407 0.0
H693 H 1.06518 0.47245 0.22861 0.0
H694 H 1.05655 0.46433 0.26458 0.0
H695 H 1.03343 0.56063 0.29548 0.0
H696 H 1.0843 0.5972 0.39538 0.0
H697 H 1.08327 0.59258 0.3592 0.0
H698 H 1.09174 0.48578 0.33272 0.0
C699 C 1.06489 0.49441 0.25848 0.0
C700 C 1.04655 0.54433 0.30337 0.0
C701 C 1.06965 0.49897 0.23785 0.0
C702 C 1.07511 0.56714 0.38809 0.0
C703 C 1.07416 0.56438 0.36733 0.0
C704 C 1.07852 0.50184 0.32471 0.0
C705 C 1.0701 0.5281 0.271 0.0
C706 C 1.06502 0.52415 0.29298 0.0
C707 C 1.0623 0.52597 0.3572 0.0
C708 C 1.06158 0.52353 0.33505 0.0
H709 H 0.09352 0.60118 0.23606 0.0
H710 H 1.08602 0.59345 0.27148 0.0
H711 H 0.09502 0.48659 0.29648 0.0
H712 H 1.04333 0.46499 0.39741 0.0
H713 H 1.04176 0.4602 0.36106 0.0
loop_
_geom_bond_atom_site_label_1
_geom_bond_atom_site_label_2
_geom_bond_distance
_geom_bond_site_symmetry_2
_ccdc_geom_bond_type
Eu0 C9 2.828 . S
Eu0 O11 2.392 1_655 S
Eu0 O13 2.418 . S
Eu0 O18 2.373 . S
Eu0 O21 2.488 . S
Eu0 O22 2.471 . S
Eu0 O23 2.349 . S
Eu1 O10 2.373 . S
Eu1 O14 2.488 . S
Eu1 O15 2.471 . S
Eu1 O16 2.349 . S
Eu1 O19 2.392 1_455 S
Eu1 O20 2.418 . S
Eu1 C30 2.828 . S
C2 O20 1.244 . S
C2 O23 1.265 1_455 S
C3 C4 1.379 . S
C3 C7 1.373 . S
C3 C9 1.505 . S
C4 C3 1.379 . S
C4 C6 1.369 . S
C4 H32 0.930 . S
C5 C7 1.383 . S
C5 C8 1.382 . S
C5 H33 0.930 . S
C6 C4 1.369 . S
C6 C8 1.392 . S
C6 H34 0.930 . S
C7 C3 1.373 . S
C7 C5 1.383 . S
C7 H35 0.931 . S
C8 C5 1.382 . S
C8 C6 1.392 . S
C9 Eu0 2.828 . S
C9 C3 1.505 . S
C9 O21 1.249 . S
C9 O22 1.244 . S
O10 Eu1 2.373 . S
O10 C12 1.258 . S
O11 Eu0 2.392 1_455 S
O11 C12 1.242 . S
C12 O10 1.258 . S
C12 O11 1.242 . S
O13 Eu0 2.418 . S
O13 C17 1.242 1_655 S
O14 Eu1 2.488 . S
O14 C30 1.249 . S
O15 Eu1 2.471 . S
O15 C30 1.244 . S
O16 Eu1 2.349 . S
O16 C17 1.266 . S
C17 O13 1.242 1_455 S
C17 O16 1.266 . S
O18 Eu0 2.373 . S
O18 C31 1.258 . S
O19 Eu1 2.392 1_655 S
O19 C31 1.242 . S
O20 Eu1 2.418 . S
O20 C2 1.244 . S
O21 Eu0 2.488 . S
O21 C9 1.249 . S
O22 Eu0 2.471 . S
O22 C9 1.244 . S
O23 Eu0 2.349 . S
O23 C2 1.265 1_655 S
C24 C25 1.379 . S
C24 C28 1.373 . S
C24 C30 1.505 . S
C25 C24 1.379 . S
C25 C27 1.369 . S
C25 H36 0.930 . S
C26 C28 1.383 . S
C26 C29 1.382 . S
C26 H37 0.930 . S
C27 C25 1.369 . S
C27 C29 1.392 . S
C27 H38 0.930 . S
C28 C24 1.373 . S
C28 C26 1.383 . S
C28 H39 0.931 . S
C29 C26 1.382 . S
C29 C27 1.392 . S
C30 Eu1 2.828 . S
C30 O14 1.249 . S
C30 O15 1.244 . S
C30 C24 1.505 . S
C31 O18 1.258 . S
C31 O19 1.242 . S
H32 C4 0.930 . S
H33 C5 0.930 . S
H34 C6 0.930 . S
H35 C7 0.931 . S
H36 C25 0.930 . S
H37 C26 0.930 . S
H38 C27 0.930 . S
H39 C28 0.931 . S
Eu40 C49 2.828 . S
Eu40 O51 2.392 1_565 S
Eu40 O53 2.418 . S
Eu40 O58 2.373 . S
Eu40 O61 2.488 . S
Eu40 O62 2.471 . S
Eu40 O63 2.360 . S
Eu41 O50 2.373 . S
Eu41 O54 2.488 . S
Eu41 O55 2.471 . S
Eu41 O56 2.349 . S
Eu41 O59 2.392 1_545 S
Eu41 O60 2.418 . S
Eu41 C70 2.828 . S
C42 O60 1.244 . S
C42 O63 1.255 1_545 S
C43 C44 1.379 . S
C43 C47 1.373 . S
C43 C49 1.505 . S
C44 C43 1.379 . S
C44 C46 1.369 . S
C44 H72 0.930 . S
C45 C47 1.383 . S
C45 C48 1.382 . S
C45 H73 0.930 . S
C46 C44 1.369 . S
C46 C48 1.392 . S
C46 H74 0.930 . S
C47 C43 1.373 . S
C47 C45 1.383 . S
C47 H75 0.931 . S
C48 C45 1.382 . S
C48 C46 1.392 . S
C49 Eu40 2.828 . S
C49 C43 1.505 . S
C49 O61 1.249 . S
C49 O62 1.244 . S
O50 Eu41 2.373 . S
O50 C52 1.258 . S
O51 Eu40 2.392 1_545 S
O51 C52 1.242 . S
C52 O50 1.258 . S
C52 O51 1.242 . S
O53 Eu40 2.418 . S
O53 C57 1.244 1_565 S
O54 Eu41 2.488 . S
O54 C70 1.249 . S
O55 Eu41 2.471 . S
O55 C70 1.244 . S
O56 Eu41 2.349 . S
O56 C57 1.265 . S
C57 O53 1.244 1_545 S
C57 O56 1.265 . S
O58 Eu40 2.373 . S
O58 C71 1.258 . S
O59 Eu41 2.392 1_565 S
O59 C71 1.242 . S
O60 Eu41 2.418 . S
O60 C42 1.244 . S
O61 Eu40 2.488 . S
O61 C49 1.249 . S
O62 Eu40 2.471 . S
O62 C49 1.244 . S
O63 Eu40 2.360 . S
O63 C42 1.255 1_565 S
C64 C65 1.379 . S
C64 C68 1.373 . S
C64 C70 1.505 . S
C65 C64 1.379 . S
C65 C67 1.369 . S
C65 H76 0.930 . S
C66 C68 1.383 . S
C66 C69 1.382 . S
C66 H77 0.930 . S
C67 C65 1.369 . S
C67 C69 1.392 . S
C67 H78 0.930 . S
C68 C64 1.373 . S
C68 C66 1.383 . S
C68 H79 0.931 . S
C69 C66 1.382 . S
C69 C67 1.392 . S
C70 Eu41 2.828 . S
C70 O54 1.249 . S
C70 O55 1.244 . S
C70 C64 1.505 . S
C71 O58 1.258 . S
C71 O59 1.242 . S
H72 C44 0.930 . S
H73 C45 0.930 . S
H74 C46 0.930 . S
H75 C47 0.931 . S
H76 C65 0.930 . S
H77 C66 0.930 . S
H78 C67 0.930 . S
H79 C68 0.931 . S
Eu80 C89 2.828 . S
Eu80 O91 2.392 . S
Eu80 O93 2.418 . S
Eu80 O98 2.373 . S
Eu80 O101 2.488 . S
Eu80 O102 2.471 . S
Eu80 O103 2.349 . S
Eu81 O90 2.373 . S
Eu81 O94 2.488 . S
Eu81 O95 2.471 . S
Eu81 O96 2.349 . S
Eu81 O99 2.392 . S
Eu81 O100 2.418 . S
Eu81 C110 2.828 . S
C82 O100 1.244 . S
C82 O103 1.265 . S
C83 C84 1.379 . S
C83 C87 1.373 . S
C83 C89 1.505 . S
C84 C83 1.379 . S
C84 C86 1.369 . S
C84 H112 0.930 . S
C85 C87 1.383 . S
C85 C88 1.382 . S
C85 H113 0.930 . S
C86 C84 1.369 . S
C86 C88 1.392 . S
C86 H114 0.930 . S
C87 C83 1.373 . S
C87 C85 1.383 . S
C87 H115 0.931 . S
C88 C85 1.382 . S
C88 C86 1.392 . S
C89 Eu80 2.828 . S
C89 C83 1.505 . S
C89 O101 1.249 . S
C89 O102 1.244 . S
O90 Eu81 2.373 . S
O90 C92 1.258 . S
O91 Eu80 2.392 . S
O91 C92 1.242 . S
C92 O90 1.258 . S
C92 O91 1.242 . S
O93 Eu80 2.418 . S
O93 C97 1.244 . S
O94 Eu81 2.488 . S
O94 C110 1.249 . S
O95 Eu81 2.471 . S
O95 C110 1.244 . S
O96 Eu81 2.349 . S
O96 C97 1.265 . S
C97 O93 1.244 . S
C97 O96 1.265 . S
O98 Eu80 2.373 . S
O98 C111 1.258 . S
O99 Eu81 2.392 . S
O99 C111 1.242 . S
O100 Eu81 2.418 . S
O100 C82 1.244 . S
O101 Eu80 2.488 . S
O101 C89 1.249 . S
O102 Eu80 2.471 . S
O102 C89 1.244 . S
O103 Eu80 2.349 . S
O103 C82 1.265 . S
C104 C105 1.379 . S
C104 C108 1.373 . S
C104 C110 1.505 . S
C105 C104 1.379 . S
C105 C107 1.369 . S
C105 H116 0.930 . S
C106 C108 1.383 . S
C106 C109 1.382 . S
C106 H117 0.930 . S
C107 C105 1.369 . S
C107 C109 1.392 . S
C107 H118 0.930 . S
C108 C104 1.373 . S
C108 C106 1.383 . S
C108 H119 0.931 . S
C109 C106 1.382 . S
C109 C107 1.392 . S
C110 Eu81 2.828 . S
C110 O94 1.249 . S
C110 O95 1.244 . S
C110 C104 1.505 . S
C111 O98 1.258 . S
C111 O99 1.242 . S
H112 C84 0.930 . S
H113 C85 0.930 . S
H114 C86 0.930 . S
H115 C87 0.931 . S
H116 C105 0.930 . S
H117 C106 0.930 . S
H118 C107 0.930 . S
H119 C108 0.931 . S
H120 C123 0.931 . S
H121 C126 0.928 . S
H122 C128 0.930 . S
C123 H120 0.931 . S
C123 C124 1.413 . S
C123 C125 1.360 1_565 S
C124 C123 1.413 . S
C124 C128 1.429 1_565 S
C125 C123 1.360 1_545 S
C125 C126 1.372 . S
C126 H121 0.928 . S
C126 C125 1.372 . S
C126 C127 1.404 . S
C127 C126 1.404 . S
C127 C128 1.391 . S
C128 H122 0.930 . S
C128 C124 1.429 1_545 S
C128 C127 1.391 . S
H129 C132 0.931 . S
H130 C135 0.928 . S
H131 C137 0.930 . S
C132 H129 0.931 . S
C132 C133 1.413 . S
C132 C134 1.360 . S
C133 C132 1.413 . S
C133 C137 1.429 . S
C134 C132 1.360 . S
C134 C135 1.372 . S
C135 H130 0.928 . S
C135 C134 1.372 . S
C135 C136 1.404 . S
C136 C135 1.404 . S
C136 C137 1.391 . S
C137 H131 0.930 . S
C137 C133 1.429 . S
C137 C136 1.391 . S
H138 C141 0.931 1_655 S
H139 C144 0.928 . S
H140 C146 0.930 . S
C141 H138 0.931 1_455 S
C141 C142 1.413 . S
C141 C143 1.360 . S
C142 C141 1.413 . S
C142 C146 1.429 . S
C143 C141 1.360 . S
C143 C144 1.372 . S
C144 H139 0.928 . S
C144 C143 1.372 . S
C144 C145 1.404 . S
C145 C144 1.404 . S
C145 C146 1.391 . S
C146 H140 0.930 . S
C146 C142 1.429 . S
C146 C145 1.391 . S
H147 C150 0.931 . S
H148 C153 0.928 . S
H149 C155 0.930 . S
C150 H147 0.931 . S
C150 C151 1.413 . S
C150 C152 1.360 1_655 S
C151 C150 1.413 . S
C151 C155 1.429 1_655 S
C152 C150 1.360 1_455 S
C152 C153 1.372 . S
C153 H148 0.928 . S
C153 C152 1.372 . S
C153 C154 1.404 . S
C154 C153 1.404 . S
C154 C155 1.391 . S
C155 H149 0.930 . S
C155 C151 1.429 1_455 S
C155 C154 1.391 . S
H156 C159 0.931 . S
H157 C162 0.928 . S
H158 C164 0.930 . S
C159 H156 0.931 . S
C159 C160 1.413 . S
C159 C161 1.360 . S
C160 C159 1.413 . S
C160 C164 1.429 . S
C161 C159 1.360 . S
C161 C162 1.372 1_545 S
C162 H157 0.928 . S
C162 C161 1.372 1_565 S
C162 C163 1.404 . S
C163 C162 1.404 . S
C163 C164 1.391 1_565 S
C164 H158 0.930 . S
C164 C160 1.429 . S
C164 C163 1.391 1_545 S
H165 C168 0.931 . S
H166 C171 0.928 . S
H167 C173 0.930 . S
C168 H165 0.931 . S
C168 C169 1.413 . S
C168 C170 1.360 . S
C169 C168 1.413 . S
C169 C173 1.429 . S
C170 C168 1.360 . S
C170 C171 1.372 . S
C171 H166 0.928 . S
C171 C170 1.372 . S
C171 C172 1.404 . S
C172 C171 1.404 . S
C172 C173 1.391 . S
C173 H167 0.930 . S
C173 C169 1.429 . S
C173 C172 1.391 . S
C174 C175 1.349 . S
C174 C176 1.327 . S
C174 H199 0.950 . S
C175 C174 1.349 . S
C175 C191 1.349 . S
C176 C174 1.327 . S
C176 C195 1.429 . S
C176 H200 0.950 . S
C177 C194 1.574 . S
C177 C196 1.368 . S
C177 H201 0.949 . S
H178 C182 0.949 . S
C179 C180 1.349 . S
C179 C181 1.327 . S
C179 H202 0.950 . S
C180 C179 1.349 . S
C180 C192 1.349 . S
C181 C179 1.327 . S
C181 C197 1.429 . S
C181 H203 0.950 . S
C182 H178 0.949 . S
C182 C190 1.574 . S
C182 C198 1.368 . S
H183 C191 0.950 . S
H184 C189 0.950 . S
H185 C190 0.949 . S
H186 C192 0.950 . S
H187 C193 0.950 . S
H188 C194 0.949 . S
C189 H184 0.950 . S
C189 C191 1.327 . S
C189 C195 1.429 . S
C190 C182 1.574 . S
C190 H185 0.949 . S
C190 C196 1.368 . S
C191 C175 1.349 . S
C191 H183 0.950 . S
C191 C189 1.327 . S
C192 C180 1.349 . S
C192 H186 0.950 . S
C192 C193 1.327 . S
C193 H187 0.950 . S
C193 C192 1.327 . S
C193 C197 1.429 . S
C194 C177 1.574 . S
C194 H188 0.949 . S
C194 C198 1.368 . S
C195 C176 1.429 . S
C195 C189 1.429 . S
C195 C196 1.523 . S
C196 C177 1.368 . S
C196 C190 1.368 . S
C196 C195 1.523 . S
C197 C181 1.429 . S
C197 C193 1.429 . S
C197 C198 1.523 . S
C198 C182 1.368 . S
C198 C194 1.368 . S
C198 C197 1.523 . S
H199 C174 0.950 . S
H200 C176 0.950 . S
H201 C177 0.949 . S
H202 C179 0.950 . S
H203 C181 0.950 . S
C204 C205 1.349 . S
C204 C206 1.327 . S
C204 H229 0.950 . S
C205 C204 1.349 . S
C205 C221 1.349 . S
C206 C204 1.327 . S
C206 C225 1.429 . S
C206 H230 0.950 . S
C207 C224 1.574 . S
C207 C226 1.368 . S
C207 H231 0.949 . S
H208 C212 0.949 . S
C209 C210 1.349 . S
C209 C211 1.327 . S
C209 H232 0.950 . S
C210 C209 1.349 . S
C210 C222 1.349 . S
C211 C209 1.327 . S
C211 C227 1.429 . S
C211 H233 0.950 . S
C212 H208 0.949 . S
C212 C220 1.574 . S
C212 C228 1.368 . S
H213 C221 0.950 . S
H214 C219 0.950 . S
H215 C220 0.949 . S
H216 C222 0.950 . S
H217 C223 0.950 . S
H218 C224 0.949 . S
C219 H214 0.950 . S
C219 C221 1.327 . S
C219 C225 1.429 . S
C220 C212 1.574 . S
C220 H215 0.949 . S
C220 C226 1.368 . S
C221 C205 1.349 . S
C221 H213 0.950 . S
C221 C219 1.327 . S
C222 C210 1.349 . S
C222 H216 0.950 . S
C222 C223 1.327 . S
C223 H217 0.950 . S
C223 C222 1.327 . S
C223 C227 1.429 . S
C224 C207 1.574 . S
C224 H218 0.949 . S
C224 C228 1.368 . S
C225 C206 1.429 . S
C225 C219 1.429 . S
C225 C226 1.523 . S
C226 C207 1.368 . S
C226 C220 1.368 . S
C226 C225 1.523 . S
C227 C211 1.429 . S
C227 C223 1.429 . S
C227 C228 1.523 . S
C228 C212 1.368 . S
C228 C224 1.368 . S
C228 C227 1.523 . S
H229 C204 0.950 . S
H230 C206 0.950 . S
H231 C207 0.949 . S
H232 C209 0.950 . S
H233 C211 0.950 . S
C234 C235 1.349 . S
C234 C236 1.327 . S
C234 H259 0.950 . S
C235 C234 1.349 . S
C235 C251 1.349 . S
C236 C234 1.327 . S
C236 C255 1.429 . S
C236 H260 0.950 . S
C237 C254 1.574 . S
C237 C256 1.368 . S
C237 H261 0.949 . S
H238 C242 0.949 . S
C239 C240 1.349 . S
C239 C241 1.327 . S
C239 H262 0.950 . S
C240 C239 1.349 . S
C240 C252 1.349 . S
C241 C239 1.327 . S
C241 C257 1.429 . S
C241 H263 0.950 . S
C242 H238 0.949 . S
C242 C250 1.574 . S
C242 C258 1.368 . S
H243 C251 0.950 . S
H244 C249 0.950 . S
H245 C250 0.949 . S
H246 C252 0.950 . S
H247 C253 0.950 . S
H248 C254 0.949 . S
C249 H244 0.950 . S
C249 C251 1.327 . S
C249 C255 1.429 . S
C250 C242 1.574 . S
C250 H245 0.949 . S
C250 C256 1.368 . S
C251 C235 1.349 . S
C251 H243 0.950 . S
C251 C249 1.327 . S
C252 C240 1.349 . S
C252 H246 0.950 . S
C252 C253 1.327 . S
C253 H247 0.950 . S
C253 C252 1.327 . S
C253 C257 1.429 . S
C254 C237 1.574 . S
C254 H248 0.949 . S
C254 C258 1.368 . S
C255 C236 1.429 . S
C255 C249 1.429 . S
C255 C256 1.523 . S
C256 C237 1.368 . S
C256 C250 1.368 . S
C256 C255 1.523 . S
C257 C241 1.429 . S
C257 C253 1.429 . S
C257 C258 1.523 . S
C258 C242 1.368 . S
C258 C254 1.368 . S
C258 C257 1.523 . S
H259 C234 0.950 . S
H260 C236 0.950 . S
H261 C237 0.949 . S
H262 C239 0.950 . S
H263 C241 0.950 . S
C264 C265 1.349 . S
C264 C266 1.327 . S
C264 H289 0.950 . S
C265 C264 1.349 . S
C265 C281 1.349 . S
C266 C264 1.327 . S
C266 C285 1.429 . S
C266 H290 0.950 . S
C267 C284 1.574 . S
C267 C286 1.368 . S
C267 H291 0.949 . S
H268 C272 0.949 . S
C269 C270 1.349 . S
C269 C271 1.327 . S
C269 H292 0.950 . S
C270 C269 1.349 . S
C270 C282 1.349 . S
C271 C269 1.327 . S
C271 C287 1.429 . S
C271 H293 0.950 . S
C272 H268 0.949 . S
C272 C280 1.574 . S
C272 C288 1.368 . S
H273 C281 0.950 . S
H274 C279 0.950 . S
H275 C280 0.949 . S
H276 C282 0.950 . S
H277 C283 0.950 . S
H278 C284 0.949 . S
C279 H274 0.950 . S
C279 C281 1.327 . S
C279 C285 1.429 . S
C280 C272 1.574 . S
C280 H275 0.949 . S
C280 C286 1.368 . S
C281 C265 1.349 . S
C281 H273 0.950 . S
C281 C279 1.327 . S
C282 C270 1.349 . S
C282 H276 0.950 . S
C282 C283 1.327 . S
C283 H277 0.950 . S
C283 C282 1.327 . S
C283 C287 1.429 . S
C284 C267 1.574 . S
C284 H278 0.949 . S
C284 C288 1.368 . S
C285 C266 1.429 . S
C285 C279 1.429 . S
C285 C286 1.523 . S
C286 C267 1.368 . S
C286 C280 1.368 . S
C286 C285 1.523 . S
C287 C271 1.429 . S
C287 C283 1.429 . S
C287 C288 1.523 . S
C288 C272 1.368 . S
C288 C284 1.368 . S
C288 C287 1.523 . S
H289 C264 0.950 . S
H290 C266 0.950 . S
H291 C267 0.949 . S
H292 C269 0.950 . S
H293 C271 0.950 . S
C294 C295 1.349 . S
C294 C296 1.327 . S
C294 H319 0.950 . S
C295 C294 1.349 . S
C295 C311 1.349 . S
C296 C294 1.327 . S
C296 C315 1.429 . S
C296 H320 0.950 . S
C297 C314 1.574 . S
C297 C316 1.368 . S
C297 H321 0.949 . S
H298 C302 0.949 . S
C299 C300 1.349 . S
C299 C301 1.327 . S
C299 H322 0.950 . S
C300 C299 1.349 . S
C300 C312 1.349 . S
C301 C299 1.327 . S
C301 C317 1.429 . S
C301 H323 0.950 . S
C302 H298 0.949 . S
C302 C310 1.574 . S
C302 C318 1.368 . S
H303 C311 0.950 . S
H304 C309 0.950 . S
H305 C310 0.949 . S
H306 C312 0.950 . S
H307 C313 0.950 . S
H308 C314 0.949 . S
C309 H304 0.950 . S
C309 C311 1.327 . S
C309 C315 1.429 . S
C310 C302 1.574 . S
C310 H305 0.949 . S
C310 C316 1.368 . S
C311 C295 1.349 . S
C311 H303 0.950 . S
C311 C309 1.327 . S
C312 C300 1.349 . S
C312 H306 0.950 . S
C312 C313 1.327 . S
C313 H307 0.950 . S
C313 C312 1.327 . S
C313 C317 1.429 . S
C314 C297 1.574 . S
C314 H308 0.949 . S
C314 C318 1.368 . S
C315 C296 1.429 . S
C315 C309 1.429 . S
C315 C316 1.523 . S
C316 C297 1.368 . S
C316 C310 1.368 . S
C316 C315 1.523 . S
C317 C301 1.429 . S
C317 C313 1.429 . S
C317 C318 1.523 . S
C318 C302 1.368 . S
C318 C314 1.368 . S
C318 C317 1.523 . S
H319 C294 0.950 . S
H320 C296 0.950 . S
H321 C297 0.949 . S
H322 C299 0.950 . S
H323 C301 0.950 . S
C324 C325 1.349 . S
C324 C326 1.327 . S
C324 H349 0.950 . S
C325 C324 1.349 . S
C325 C341 1.349 . S
C326 C324 1.327 . S
C326 C345 1.429 . S
C326 H350 0.950 . S
C327 C344 1.574 . S
C327 C346 1.368 . S
C327 H351 0.949 . S
H328 C332 0.949 . S
C329 C330 1.349 . S
C329 C331 1.327 . S
C329 H352 0.950 . S
C330 C329 1.349 . S
C330 C342 1.349 . S
C331 C329 1.327 . S
C331 C347 1.429 . S
C331 H353 0.950 . S
C332 H328 0.949 . S
C332 C340 1.574 . S
C332 C348 1.368 . S
H333 C341 0.950 . S
H334 C339 0.950 . S
H335 C340 0.949 . S
H336 C342 0.950 . S
H337 C343 0.950 . S
H338 C344 0.949 . S
C339 H334 0.950 . S
C339 C341 1.327 . S
C339 C345 1.429 . S
C340 C332 1.574 . S
C340 H335 0.949 . S
C340 C346 1.368 . S
C341 C325 1.349 . S
C341 H333 0.950 . S
C341 C339 1.327 . S
C342 C330 1.349 . S
C342 H336 0.950 . S
C342 C343 1.327 . S
C343 H337 0.950 . S
C343 C342 1.327 . S
C343 C347 1.429 . S
C344 C327 1.574 . S
C344 H338 0.949 . S
C344 C348 1.368 . S
C345 C326 1.429 . S
C345 C339 1.429 . S
C345 C346 1.523 . S
C346 C327 1.368 . S
C346 C340 1.368 . S
C346 C345 1.523 . S
C347 C331 1.429 . S
C347 C343 1.429 . S
C347 C348 1.523 . S
C348 C332 1.368 . S
C348 C344 1.368 . S
C348 C347 1.523 . S
H349 C324 0.950 . S
H350 C326 0.950 . S
H351 C327 0.949 . S
H352 C329 0.950 . S
H353 C331 0.950 . S
C354 C355 1.349 . S
C354 C356 1.327 . S
C354 H379 0.950 . S
C355 C354 1.349 . S
C355 C371 1.349 . S
C356 C354 1.327 . S
C356 C375 1.429 . S
C356 H380 0.950 . S
C357 C374 1.574 . S
C357 C376 1.368 . S
C357 H381 0.949 . S
H358 C362 0.949 . S
C359 C360 1.349 . S
C359 C361 1.327 . S
C359 H382 0.950 . S
C360 C359 1.349 . S
C360 C372 1.349 . S
C361 C359 1.327 . S
C361 C377 1.429 . S
C361 H383 0.950 . S
C362 H358 0.949 . S
C362 C370 1.574 . S
C362 C378 1.368 . S
H363 C371 0.950 . S
H364 C369 0.950 . S
H365 C370 0.949 . S
H366 C372 0.950 . S
H367 C373 0.950 . S
H368 C374 0.949 . S
C369 H364 0.950 . S
C369 C371 1.327 . S
C369 C375 1.429 . S
C370 C362 1.574 . S
C370 H365 0.949 . S
C370 C376 1.368 . S
C371 C355 1.349 . S
C371 H363 0.950 . S
C371 C369 1.327 . S
C372 C360 1.349 . S
C372 H366 0.950 . S
C372 C373 1.327 . S
C373 H367 0.950 . S
C373 C372 1.327 . S
C373 C377 1.429 . S
C374 C357 1.574 . S
C374 H368 0.949 . S
C374 C378 1.368 . S
C375 C356 1.429 . S
C375 C369 1.429 . S
C375 C376 1.523 . S
C376 C357 1.368 . S
C376 C370 1.368 . S
C376 C375 1.523 . S
C377 C361 1.429 . S
C377 C373 1.429 . S
C377 C378 1.523 . S
C378 C362 1.368 . S
C378 C374 1.368 . S
C378 C377 1.523 . S
H379 C354 0.950 . S
H380 C356 0.950 . S
H381 C357 0.949 . S
H382 C359 0.950 . S
H383 C361 0.950 . S
C384 C385 1.349 . S
C384 C386 1.327 . S
C384 H409 0.950 . S
C385 C384 1.349 . S
C385 C401 1.349 . S
C386 C384 1.327 . S
C386 C405 1.429 . S
C386 H410 0.950 . S
C387 C404 1.574 . S
C387 C406 1.368 . S
C387 H411 0.949 . S
H388 C392 0.949 . S
C389 C390 1.349 1_655 S
C389 C391 1.327 . S
C389 H412 0.950 1_655 S
C390 C389 1.349 1_455 S
C390 C402 1.349 1_455 S
C391 C389 1.327 . S
C391 C407 1.429 . S
C391 H413 0.950 . S
C392 H388 0.949 . S
C392 C400 1.574 . S
C392 C408 1.368 . S
H393 C401 0.950 . S
H394 C399 0.950 . S
H395 C400 0.949 . S
H396 C402 0.950 . S
H397 C403 0.950 . S
H398 C404 0.949 . S
C399 H394 0.950 . S
C399 C401 1.327 . S
C399 C405 1.429 . S
C400 C392 1.574 . S
C400 H395 0.949 . S
C400 C406 1.368 . S
C401 C385 1.349 . S
C401 H393 0.950 . S
C401 C399 1.327 . S
C402 C390 1.349 1_655 S
C402 H396 0.950 . S
C402 C403 1.327 . S
C403 H397 0.950 . S
C403 C402 1.327 . S
C403 C407 1.429 . S
C404 C387 1.574 . S
C404 H398 0.949 . S
C404 C408 1.368 . S
C405 C386 1.429 . S
C405 C399 1.429 . S
C405 C406 1.523 . S
C406 C387 1.368 . S
C406 C400 1.368 . S
C406 C405 1.523 . S
C407 C391 1.429 . S
C407 C403 1.429 . S
C407 C408 1.523 . S
C408 C392 1.368 . S
C408 C404 1.368 . S
C408 C407 1.523 . S
H409 C384 0.950 . S
H410 C386 0.950 . S
H411 C387 0.949 . S
H412 C389 0.950 1_455 S
H413 C391 0.950 . S
C414 C415 1.349 . S
C414 C416 1.327 . S
C414 H439 0.950 . S
C415 C414 1.349 . S
C415 C431 1.349 . S
C416 C414 1.327 . S
C416 C435 1.429 . S
C416 H440 0.950 . S
C417 C434 1.574 . S
C417 C436 1.368 . S
C417 H441 0.949 . S
H418 C422 0.949 . S
C419 C420 1.349 . S
C419 C421 1.327 . S
C419 H442 0.950 . S
C420 C419 1.349 . S
C420 C432 1.349 . S
C421 C419 1.327 . S
C421 C437 1.429 . S
C421 H443 0.950 . S
C422 H418 0.949 . S
C422 C430 1.574 . S
C422 C438 1.368 . S
H423 C431 0.950 . S
H424 C429 0.950 . S
H425 C430 0.949 . S
H426 C432 0.950 1_545 S
H427 C433 0.950 . S
H428 C434 0.949 . S
C429 H424 0.950 . S
C429 C431 1.327 . S
C429 C435 1.429 . S
C430 C422 1.574 . S
C430 H425 0.949 . S
C430 C436 1.368 . S
C431 C415 1.349 . S
C431 H423 0.950 . S
C431 C429 1.327 . S
C432 C420 1.349 . S
C432 H426 0.950 1_565 S
C432 C433 1.327 . S
C433 H427 0.950 . S
C433 C432 1.327 . S
C433 C437 1.429 . S
C434 C417 1.574 . S
C434 H428 0.949 . S
C434 C438 1.368 . S
C435 C416 1.429 . S
C435 C429 1.429 . S
C435 C436 1.523 . S
C436 C417 1.368 . S
C436 C430 1.368 . S
C436 C435 1.523 . S
C437 C421 1.429 . S
C437 C433 1.429 . S
C437 C438 1.523 . S
C438 C422 1.368 . S
C438 C434 1.368 . S
C438 C437 1.523 . S
H439 C414 0.950 . S
H440 C416 0.950 . S
H441 C417 0.949 . S
H442 C419 0.950 . S
H443 C421 0.950 . S
C444 C445 1.349 . S
C444 C446 1.327 . S
C444 H469 0.950 . S
C445 C444 1.349 . S
C445 C461 1.349 . S
C446 C444 1.327 . S
C446 C465 1.429 . S
C446 H470 0.950 . S
C447 C464 1.574 . S
C447 C466 1.368 . S
C447 H471 0.949 . S
H448 C452 0.949 . S
C449 C450 1.349 . S
C449 C451 1.327 . S
C449 H472 0.950 . S
C450 C449 1.349 . S
C450 C462 1.349 . S
C451 C449 1.327 . S
C451 C467 1.429 . S
C451 H473 0.950 . S
C452 H448 0.949 . S
C452 C460 1.574 . S
C452 C468 1.368 . S
H453 C461 0.950 . S
H454 C459 0.950 . S
H455 C460 0.949 . S
H456 C462 0.950 . S
H457 C463 0.950 . S
H458 C464 0.949 . S
C459 H454 0.950 . S
C459 C461 1.327 . S
C459 C465 1.429 . S
C460 C452 1.574 . S
C460 H455 0.949 . S
C460 C466 1.368 . S
C461 C445 1.349 . S
C461 H453 0.950 . S
C461 C459 1.327 . S
C462 C450 1.349 . S
C462 H456 0.950 . S
C462 C463 1.327 . S
C463 H457 0.950 . S
C463 C462 1.327 . S
C463 C467 1.429 . S
C464 C447 1.574 . S
C464 H458 0.949 . S
C464 C468 1.368 . S
C465 C446 1.429 . S
C465 C459 1.429 . S
C465 C466 1.523 . S
C466 C447 1.368 . S
C466 C460 1.368 . S
C466 C465 1.523 . S
C467 C451 1.429 . S
C467 C463 1.429 . S
C467 C468 1.523 . S
C468 C452 1.368 . S
C468 C464 1.368 . S
C468 C467 1.523 . S
H469 C444 0.950 . S
H470 C446 0.950 . S
H471 C447 0.949 . S
H472 C449 0.950 . S
H473 C451 0.950 . S
C474 C475 1.349 . S
C474 C476 1.327 . S
C474 H499 0.950 . S
C475 C474 1.349 . S
C475 C491 1.349 . S
C476 C474 1.327 . S
C476 C495 1.429 . S
C476 H500 0.950 . S
C477 C494 1.574 . S
C477 C496 1.368 . S
C477 H501 0.949 . S
H478 C482 0.949 . S
C479 C480 1.349 . S
C479 C481 1.327 . S
C479 H502 0.950 . S
C480 C479 1.349 . S
C480 C492 1.349 . S
C481 C479 1.327 . S
C481 C497 1.429 . S
C481 H503 0.950 . S
C482 H478 0.949 . S
C482 C490 1.574 . S
C482 C498 1.368 . S
H483 C491 0.950 . S
H484 C489 0.950 . S
H485 C490 0.949 . S
H486 C492 0.950 . S
H487 C493 0.950 . S
H488 C494 0.949 . S
C489 H484 0.950 . S
C489 C491 1.327 . S
C489 C495 1.429 . S
C490 C482 1.574 . S
C490 H485 0.949 . S
C490 C496 1.368 . S
C491 C475 1.349 . S
C491 H483 0.950 . S
C491 C489 1.327 . S
C492 C480 1.349 . S
C492 H486 0.950 . S
C492 C493 1.327 . S
C493 H487 0.950 . S
C493 C492 1.327 . S
C493 C497 1.429 . S
C494 C477 1.574 . S
C494 H488 0.949 . S
C494 C498 1.368 . S
C495 C476 1.429 . S
C495 C489 1.429 . S
C495 C496 1.523 . S
C496 C477 1.368 . S
C496 C490 1.368 . S
C496 C495 1.523 . S
C497 C481 1.429 . S
C497 C493 1.429 . S
C497 C498 1.523 . S
C498 C482 1.368 . S
C498 C494 1.368 . S
C498 C497 1.523 . S
H499 C474 0.950 . S
H500 C476 0.950 . S
H501 C477 0.949 . S
H502 C479 0.950 . S
H503 C481 0.950 . S
C504 C505 1.349 . S
C504 C506 1.327 . S
C504 H529 0.950 . S
C505 C504 1.349 . S
C505 C521 1.349 . S
C506 C504 1.327 . S
C506 C525 1.429 . S
C506 H530 0.950 . S
C507 C524 1.574 . S
C507 C526 1.368 . S
C507 H531 0.949 . S
H508 C512 0.949 . S
C509 C510 1.349 . S
C509 C511 1.327 . S
C509 H532 0.950 . S
C510 C509 1.349 . S
C510 C522 1.349 . S
C511 C509 1.327 . S
C511 C527 1.429 . S
C511 H533 0.950 . S
C512 H508 0.949 . S
C512 C520 1.574 . S
C512 C528 1.368 . S
H513 C521 0.950 . S
H514 C519 0.950 . S
H515 C520 0.949 . S
H516 C522 0.950 . S
H517 C523 0.950 . S
H518 C524 0.949 . S
C519 H514 0.950 . S
C519 C521 1.327 . S
C519 C525 1.429 . S
C520 C512 1.574 . S
C520 H515 0.949 . S
C520 C526 1.368 . S
C521 C505 1.349 . S
C521 H513 0.950 . S
C521 C519 1.327 . S
C522 C510 1.349 . S
C522 H516 0.950 . S
C522 C523 1.327 . S
C523 H517 0.950 . S
C523 C522 1.327 . S
C523 C527 1.429 . S
C524 C507 1.574 . S
C524 H518 0.949 . S
C524 C528 1.368 . S
C525 C506 1.429 . S
C525 C519 1.429 . S
C525 C526 1.523 . S
C526 C507 1.368 . S
C526 C520 1.368 . S
C526 C525 1.523 . S
C527 C511 1.429 . S
C527 C523 1.429 . S
C527 C528 1.523 . S
C528 C512 1.368 . S
C528 C524 1.368 . S
C528 C527 1.523 . S
H529 C504 0.950 . S
H530 C506 0.950 . S
H531 C507 0.949 . S
H532 C509 0.950 . S
H533 C511 0.950 . S
C534 C535 1.349 1_655 S
C534 C536 1.327 . S
C534 H559 0.950 . S
C535 C534 1.349 1_455 S
C535 C551 1.349 . S
C536 C534 1.327 . S
C536 C555 1.429 1_655 S
C536 H560 0.950 . S
C537 C554 1.574 . S
C537 C556 1.368 . S
C537 H561 0.949 . S
H538 C542 0.949 . S
C539 C540 1.349 . S
C539 C541 1.327 . S
C539 H562 0.950 . S
C540 C539 1.349 . S
C540 C552 1.349 . S
C541 C539 1.327 . S
C541 C557 1.429 . S
C541 H563 0.950 . S
C542 H538 0.949 . S
C542 C550 1.574 . S
C542 C558 1.368 1_655 S
H543 C551 0.950 . S
H544 C549 0.950 . S
H545 C550 0.949 . S
H546 C552 0.950 1_655 S
H547 C553 0.945 1_655 S
H548 C554 0.949 . S
C549 H544 0.950 . S
C549 C551 1.327 . S
C549 C555 1.429 . S
C550 C542 1.574 . S
C550 H545 0.949 . S
C550 C556 1.368 1_655 S
C551 C535 1.349 . S
C551 H543 0.950 . S
C551 C549 1.327 . S
C552 C540 1.349 . S
C552 H546 0.950 1_455 S
C552 C553 1.328 . S
C553 H547 0.945 1_455 S
C553 C552 1.328 . S
C553 C557 1.432 . S
C554 C537 1.574 . S
C554 H548 0.949 . S
C554 C558 1.368 . S
C555 C536 1.429 1_455 S
C555 C549 1.429 . S
C555 C556 1.523 . S
C556 C537 1.368 . S
C556 C550 1.368 1_455 S
C556 C555 1.523 . S
C557 C541 1.429 . S
C557 C553 1.432 . S
C557 C558 1.523 1_556 S
C558 C542 1.368 1_455 S
C558 C554 1.368 . S
C558 C557 1.523 1_554 S
H559 C534 0.950 . S
H560 C536 0.950 . S
H561 C537 0.949 . S
H562 C539 0.950 . S
H563 C541 0.950 . S
C564 C565 1.349 . S
C564 C566 1.327 . S
C564 H589 0.950 . S
C565 C564 1.349 . S
C565 C581 1.349 1_545 S
C566 C564 1.327 . S
C566 C585 1.429 . S
C566 H590 0.950 . S
C567 C584 1.574 . S
C567 C586 1.368 1_565 S
C567 H591 0.949 . S
H568 C572 0.949 . S
C569 C570 1.349 1_565 S
C569 C571 1.327 . S
C569 H592 0.950 . S
C570 C569 1.349 1_545 S
C570 C582 1.349 . S
C571 C569 1.327 . S
C571 C587 1.429 1_565 S
C571 H593 0.950 . S
C572 H568 0.949 . S
C572 C580 1.574 . S
C572 C588 1.368 . S
H573 C581 0.950 . S
H574 C579 0.950 . S
H575 C580 0.949 . S
H576 C582 0.950 . S
H577 C583 0.950 . S
H578 C584 0.949 . S
C579 H574 0.950 . S
C579 C581 1.327 . S
C579 C585 1.429 1_565 S
C580 C572 1.574 . S
C580 H575 0.949 . S
C580 C586 1.368 . S
C581 C565 1.349 1_565 S
C581 H573 0.950 . S
C581 C579 1.327 . S
C582 C570 1.349 . S
C582 H576 0.950 . S
C582 C583 1.327 . S
C583 H577 0.950 . S
C583 C582 1.327 . S
C583 C587 1.429 . S
C584 C567 1.574 . S
C584 H578 0.949 . S
C584 C588 1.368 1_565 S
C585 C566 1.429 . S
C585 C579 1.429 1_545 S
C585 C586 1.523 . S
C586 C567 1.368 1_545 S
C586 C580 1.368 . S
C586 C585 1.523 . S
C587 C571 1.429 1_545 S
C587 C583 1.429 . S
C587 C588 1.523 . S
C588 C572 1.368 . S
C588 C584 1.368 1_545 S
C588 C587 1.523 . S
H589 C564 0.950 . S
H590 C566 0.950 . S
H591 C567 0.949 . S
H592 C569 0.950 . S
H593 C571 0.950 . S
C594 C595 1.349 . S
C594 C596 1.327 . S
C594 H619 0.950 . S
C595 C594 1.349 . S
C595 C611 1.349 . S
C596 C594 1.327 . S
C596 C615 1.429 . S
C596 H620 0.950 . S
C597 C614 1.574 . S
C597 C616 1.368 . S
C597 H621 0.949 . S
H598 C602 0.949 . S
C599 C600 1.349 . S
C599 C601 1.327 . S
C599 H622 0.950 . S
C600 C599 1.349 . S
C600 C612 1.349 . S
C601 C599 1.327 . S
C601 C617 1.429 . S
C601 H623 0.950 . S
C602 H598 0.949 . S
C602 C610 1.574 . S
C602 C618 1.368 . S
H603 C611 0.950 . S
H604 C609 0.950 . S
H605 C610 0.949 . S
H606 C612 0.950 . S
H607 C613 0.950 . S
H608 C614 0.949 . S
C609 H604 0.950 . S
C609 C611 1.327 . S
C609 C615 1.429 . S
C610 C602 1.574 . S
C610 H605 0.949 . S
C610 C616 1.368 . S
C611 C595 1.349 . S
C611 H603 0.950 . S
C611 C609 1.327 . S
C612 C600 1.349 . S
C612 H606 0.950 . S
C612 C613 1.327 . S
C613 H607 0.950 . S
C613 C612 1.327 . S
C613 C617 1.429 . S
C614 C597 1.574 . S
C614 H608 0.949 . S
C614 C618 1.368 . S
C615 C596 1.429 . S
C615 C609 1.429 . S
C615 C616 1.523 . S
C616 C597 1.368 . S
C616 C610 1.368 . S
C616 C615 1.523 . S
C617 C601 1.429 . S
C617 C613 1.429 . S
C617 C618 1.523 . S
C618 C602 1.368 . S
C618 C614 1.368 . S
C618 C617 1.523 . S
H619 C594 0.950 . S
H620 C596 0.950 . S
H621 C597 0.949 . S
H622 C599 0.950 . S
H623 C601 0.950 . S
C624 C625 1.349 1_565 S
C624 C626 1.327 . S
C624 H649 0.950 . S
C625 C624 1.349 1_545 S
C625 C641 1.349 . S
C626 C624 1.327 . S
C626 C645 1.429 1_565 S
C626 H650 0.950 . S
C627 C644 1.574 . S
C627 C646 1.368 . S
C627 H651 0.949 . S
H628 C632 0.949 . S
C629 C630 1.349 . S
C629 C631 1.327 . S
C629 H652 0.950 . S
C630 C629 1.349 . S
C630 C642 1.349 1_545 S
C631 C629 1.327 . S
C631 C647 1.429 . S
C631 H653 0.950 . S
C632 H628 0.949 . S
C632 C640 1.574 . S
C632 C648 1.368 1_565 S
H633 C641 0.950 . S
H634 C639 0.950 . S
H635 C640 0.949 . S
H636 C642 0.950 . S
H637 C643 0.950 . S
H638 C644 0.949 . S
C639 H634 0.950 . S
C639 C641 1.327 . S
C639 C645 1.429 . S
C640 C632 1.574 . S
C640 H635 0.949 . S
C640 C646 1.368 1_565 S
C641 C625 1.349 . S
C641 H633 0.950 . S
C641 C639 1.327 . S
C642 C630 1.349 1_565 S
C642 H636 0.950 . S
C642 C643 1.327 . S
C643 H637 0.950 . S
C643 C642 1.327 . S
C643 C647 1.429 1_565 S
C644 C627 1.574 . S
C644 H638 0.949 . S
C644 C648 1.368 . S
C645 C626 1.429 1_545 S
C645 C639 1.429 . S
C645 C646 1.523 . S
C646 C627 1.368 . S
C646 C640 1.368 1_545 S
C646 C645 1.523 . S
C647 C631 1.429 . S
C647 C643 1.429 1_545 S
C647 C648 1.523 . S
C648 C632 1.368 1_545 S
C648 C644 1.368 . S
C648 C647 1.523 . S
H649 C624 0.950 . S
H650 C626 0.950 . S
H651 C627 0.949 . S
H652 C629 0.950 . S
H653 C631 0.950 . S
C654 C655 1.349 . S
C654 C656 1.327 . S
C654 H679 0.950 . S
C655 C654 1.349 . S
C655 C671 1.349 . S
C656 C654 1.327 . S
C656 C675 1.429 . S
C656 H680 0.950 . S
C657 C674 1.574 . S
C657 C676 1.368 . S
C657 H681 0.949 . S
H658 C662 0.949 . S
C659 C660 1.349 . S
C659 C661 1.327 . S
C659 H682 0.950 . S
C660 C659 1.349 . S
C660 C672 1.349 . S
C661 C659 1.327 . S
C661 C677 1.429 . S
C661 H683 0.950 . S
C662 H658 0.949 . S
C662 C670 1.574 . S
C662 C678 1.368 . S
H663 C671 0.950 . S
H664 C669 0.950 . S
H665 C670 0.949 . S
H666 C672 0.950 . S
H667 C673 0.950 . S
H668 C674 0.949 . S
C669 H664 0.950 . S
C669 C671 1.327 . S
C669 C675 1.429 . S
C670 C662 1.574 . S
C670 H665 0.949 . S
C670 C676 1.368 . S
C671 C655 1.349 . S
C671 H663 0.950 . S
C671 C669 1.327 . S
C672 C660 1.349 . S
C672 H666 0.950 . S
C672 C673 1.327 . S
C673 H667 0.950 . S
C673 C672 1.327 . S
C673 C677 1.429 . S
C674 C657 1.574 . S
C674 H668 0.949 . S
C674 C678 1.368 . S
C675 C656 1.429 . S
C675 C669 1.429 . S
C675 C676 1.523 . S
C676 C657 1.368 . S
C676 C670 1.368 . S
C676 C675 1.523 . S
C677 C661 1.429 . S
C677 C673 1.429 . S
C677 C678 1.523 1_554 S
C678 C662 1.368 . S
C678 C674 1.368 . S
C678 C677 1.523 1_556 S
H679 C654 0.950 . S
H680 C656 0.950 . S
H681 C657 0.949 . S
H682 C659 0.950 . S
H683 C661 0.950 . S
C684 C685 1.363 . S
C684 C686 1.329 . S
C684 H709 0.935 1_455 S
C685 C684 1.363 . S
C685 C701 1.349 . S
C686 C684 1.329 . S
C686 C705 1.429 . S
C686 H710 0.950 . S
C687 C704 1.574 . S
C687 C706 1.368 . S
C687 H711 0.949 . S
H688 C692 0.949 . S
C689 C690 1.349 . S
C689 C691 1.327 . S
C689 H712 0.950 . S
C690 C689 1.349 . S
C690 C702 1.349 . S
C691 C689 1.327 . S
C691 C707 1.429 . S
C691 H713 0.950 . S
C692 H688 0.949 . S
C692 C700 1.574 . S
C692 C708 1.368 . S
H693 C701 0.950 . S
H694 C699 0.950 . S
H695 C700 0.949 . S
H696 C702 0.950 . S
H697 C703 0.950 . S
H698 C704 0.949 . S
C699 H694 0.950 . S
C699 C701 1.327 . S
C699 C705 1.429 . S
C700 C692 1.574 . S
C700 H695 0.949 . S
C700 C706 1.368 . S
C701 C685 1.349 . S
C701 H693 0.950 . S
C701 C699 1.327 . S
C702 C690 1.349 . S
C702 H696 0.950 . S
C702 C703 1.327 . S
C703 H697 0.950 . S
C703 C702 1.327 . S
C703 C707 1.429 . S
C704 C687 1.574 . S
C704 H698 0.949 . S
C704 C708 1.368 . S
C705 C686 1.429 . S
C705 C699 1.429 . S
C705 C706 1.523 . S
C706 C687 1.368 . S
C706 C700 1.368 . S
C706 C705 1.523 . S
C707 C691 1.429 . S
C707 C703 1.429 . S
C707 C708 1.523 . S
C708 C692 1.368 . S
C708 C704 1.368 . S
C708 C707 1.523 . S
H709 C684 0.935 1_655 S
H710 C686 0.950 . S
H711 C687 0.949 . S
H712 C689 0.950 . S
H713 C691 0.950 . S
C175 C12 2.793 . S
C180 C169 2.778 . S
C205 C52 2.795 . S
C210 C151 2.786 . S
C235 C111 2.818 . S
C240 C163 2.793 . S
C265 C31 2.936 . S
C270 C172 2.902 . S
C300 C154 2.897 . S
C295 C71 2.935 . S
C330 C160 2.880 . S
C325 C92 2.904 . S
C355 C48 0.431 . S
C360 C133 0.362 . S
C385 C109 0.504 . S
C390 C142 0.384 . S
C415 C29 0.482 . S
C420 C124 0.355 . S
C450 C136 0.289 . S
C445 C69 0.435 . S
C480 C145 0.253 . S
C475 C88 0.310 . S
C505 C8 0.320 . S
C510 C127 0.245 . S
C540 C143 1.071 . S
C535 C17 1.053 . S
C565 C57 1.053 . S
C570 C125 1.069 . S
C595 C97 1.057 . S
C600 C134 1.076 . S
C630 C161 1.788 . S
C625 C42 1.723 . S
C660 C170 1.784 . S
C655 C82 1.731 . S
C685 C2 1.736 . S
C690 C152 1.788 . S
