# Generated by pormake.
# Topology zzz, (3,6)-cn, num edge types: 1
# Building blocks:
#     Node 0, Type 0, BuildingBlock: ESEHIV_clean_linker_0, # of connection points: 3
#     Node 1, Type 0, BuildingBlock: ESEHIV_clean_linker_0, # of connection points: 3
#     Node 2, Type 0, BuildingBlock: ESEHIV_clean_linker_0, # of connection points: 3
#     Node 3, Type 0, BuildingBlock: ESEHIV_clean_linker_0, # of connection points: 3
#     Node 4, Type 0, BuildingBlock: ESEHIV_clean_linker_0, # of connection points: 3
#     Node 5, Type 0, BuildingBlock: ESEHIV_clean_linker_0, # of connection points: 3
#     Node 6, Type 0, BuildingBlock: ESEHIV_clean_linker_0, # of connection points: 3
#     Node 7, Type 0, BuildingBlock: ESEHIV_clean_linker_0, # of connection points: 3
#     Node 8, Type 1, BuildingBlock: BETDEL_clean_sbu_0, # of connection points: 6
#     Node 9, Type 1, BuildingBlock: BETDEL_clean_sbu_0, # of connection points: 6
#     Node 10, Type 1, BuildingBlock: BETDEL_clean_sbu_0, # of connection points: 6
#     Node 11, Type 1, BuildingBlock: BETDEL_clean_sbu_0, # of connection points: 6
#     Edge 12, Type (0, 1), BuildingBlock: KIFKEQ_clean_linker_1, # of connection points: 2
#     Edge 13, Type (0, 1), BuildingBlock: KIFKEQ_clean_linker_1, # of connection points: 2
#     Edge 14, Type (0, 1), BuildingBlock: KIFKEQ_clean_linker_1, # of connection points: 2
#     Edge 15, Type (0, 1), BuildingBlock: KIFKEQ_clean_linker_1, # of connection points: 2
#     Edge 16, Type (0, 1), BuildingBlock: KIFKEQ_clean_linker_1, # of connection points: 2
#     Edge 17, Type (0, 1), BuildingBlock: KIFKEQ_clean_linker_1, # of connection points: 2
#     Edge 18, Type (0, 1), BuildingBlock: KIFKEQ_clean_linker_1, # of connection points: 2
#     Edge 19, Type (0, 1), BuildingBlock: KIFKEQ_clean_linker_1, # of connection points: 2
#     Edge 20, Type (0, 1), BuildingBlock: KIFKEQ_clean_linker_1, # of connection points: 2
#     Edge 21, Type (0, 1), BuildingBlock: KIFKEQ_clean_linker_1, # of connection points: 2
#     Edge 22, Type (0, 1), BuildingBlock: KIFKEQ_clean_linker_1, # of connection points: 2
#     Edge 23, Type (0, 1), BuildingBlock: KIFKEQ_clean_linker_1, # of connection points: 2
#     Edge 24, Type (0, 1), BuildingBlock: KIFKEQ_clean_linker_1, # of connection points: 2
#     Edge 25, Type (0, 1), BuildingBlock: KIFKEQ_clean_linker_1, # of connection points: 2
#     Edge 26, Type (0, 1), BuildingBlock: KIFKEQ_clean_linker_1, # of connection points: 2
#     Edge 27, Type (0, 1), BuildingBlock: KIFKEQ_clean_linker_1, # of connection points: 2
#     Edge 28, Type (0, 1), BuildingBlock: KIFKEQ_clean_linker_1, # of connection points: 2
#     Edge 29, Type (0, 1), BuildingBlock: KIFKEQ_clean_linker_1, # of connection points: 2
#     Edge 30, Type (0, 1), BuildingBlock: KIFKEQ_clean_linker_1, # of connection points: 2
#     Edge 31, Type (0, 1), BuildingBlock: KIFKEQ_clean_linker_1, # of connection points: 2
#     Edge 32, Type (0, 1), BuildingBlock: KIFKEQ_clean_linker_1, # of connection points: 2
#     Edge 33, Type (0, 1), BuildingBlock: KIFKEQ_clean_linker_1, # of connection points: 2
#     Edge 34, Type (0, 1), BuildingBlock: KIFKEQ_clean_linker_1, # of connection points: 2
#     Edge 35, Type (0, 1), BuildingBlock: KIFKEQ_clean_linker_1, # of connection points: 2
# Relax obj value: 0.350
# Max RMSD: 0.228
# Mean RMSD: 0.212
data_MOF--net-zzz--node1-BETDEL_clean_sbu_0--node2-ESEHIV_clean_linker_0--edge1-KIFKEQ_clean_linker_1
_symmetry_space_group_name_H-M    P1
_symmetry_Int_Tables_number       1
_symmetry_cell_setting            triclinic
loop_
_symmetry_equiv_pos_as_xyz
'x, y, z'
_cell_length_a     43.651067
_cell_length_b     44.002506
_cell_length_c     15.583762
_cell_angle_alpha  91.271282
_cell_angle_beta   88.836642
_cell_angle_gamma 95.241655
loop_
_atom_site_label
_atom_site_type_symbol
_atom_site_fract_x
_atom_site_fract_y
_atom_site_fract_z
_atom_type_partial_charge
H0 H 0.82018 0.47285 0.1145 0.0
H1 H 0.74768 0.45961 0.93138 0.0
H2 H 0.74788 0.5328 0.12065 0.0
C3 C 0.79832 0.47863 0.09055 0.0
C4 C 0.78505 0.50356 0.12802 0.0
C5 C 0.78544 0.46284 0.0191 0.0
C6 C 0.75779 0.47153 0.98707 0.0
C7 C 0.74387 0.49656 0.02338 0.0
C8 C 0.75792 0.51304 0.09346 0.0
H9 H 0.03339 0.79678 0.17302 0.0
H10 H 0.03142 0.73219 0.96336 0.0
H11 H 0.99058 0.70582 0.20886 0.0
C12 C 0.0281 0.7736 0.14876 0.0
C13 C 1.01182 0.75222 0.20146 0.0
C14 C 0.03485 0.76673 0.06313 0.0
C15 C 0.02631 0.73742 0.03019 0.0
C16 C 1.01108 0.71491 0.08264 0.0
C17 C 1.00343 0.72249 0.1688 0.0
H18 H 0.71484 0.05705 0.08633 0.0
H19 H 0.79509 0.06026 0.92235 0.0
H20 H 0.78751 1.00063 0.13911 0.0
C21 C 0.73782 0.05049 0.07251 0.0
C22 C 0.74973 0.02879 0.12403 0.0
C23 C 0.75365 0.06133 0.99869 0.0
C24 C 0.78284 0.05197 0.97971 0.0
C25 C 0.79553 0.03043 0.03019 0.0
C26 C 0.77851 0.01813 0.10161 0.0
H27 H 0.49327 0.71237 0.19992 0.0
H28 H 0.53872 0.80323 0.20935 0.0
H29 H 0.47856 0.77445 1.00014 0.0
C30 C 0.49644 0.7352 0.17415 0.0
C31 C 0.48318 0.74093 0.09617 0.0
C32 C 0.51653 0.75717 0.21522 0.0
C33 C 0.52276 0.78624 0.17881 0.0
C34 C 0.50793 0.79303 0.10242 0.0
C35 C 0.48853 0.77004 0.06131 0.0
H36 H 0.21884 0.53616 0.00888 0.0
H37 H 0.29632 0.56054 0.16887 0.0
H38 H 0.2947 0.48031 0.00312 0.0
C39 C 0.24175 0.53227 0.02938 0.0
C40 C 0.25504 0.50648 0.99753 0.0
C41 C 0.25618 0.55171 0.09141 0.0
C42 C 0.28531 0.54586 0.1195 0.0
C43 C 0.29974 0.52042 0.08759 0.0
C44 C 0.2843 0.50039 0.02664 0.0
H45 H 0.04552 0.21301 0.93298 0.0
H46 H 0.04915 0.27638 0.14543 0.0
H47 H 0.05539 0.3092 0.88478 0.0
C48 C 0.04788 0.23644 0.95727 0.0
C49 C 0.05105 0.26007 0.8989 0.0
C50 C 0.04791 0.24201 0.04544 0.0
C51 C 0.0498 0.27213 0.07664 0.0
C52 C 0.05242 0.29676 0.01955 0.0
C53 C 0.05304 0.29063 0.9296 0.0
H54 H 0.31134 0.94754 0.94566 0.0
H55 H 0.24827 0.94772 0.16113 0.0
H56 H 0.24117 0.00999 0.95553 0.0
C57 C 0.29163 0.95607 0.97828 0.0
C58 C 0.27792 0.98016 0.94171 0.0
C59 C 0.28272 0.94547 0.06007 0.0
C60 C 0.25593 0.95557 0.09824 0.0
C61 C 0.23982 0.97767 0.05915 0.0
C62 C 0.25191 0.99127 0.9828 0.0
H63 H 0.47017 0.30325 0.94947 0.0
H64 H 0.48814 0.21087 0.88831 0.0
H65 H 0.46808 0.2382 0.15036 0.0
C66 C 0.47092 0.27987 0.96971 0.0
C67 C 0.46763 0.27324 0.05658 0.0
C68 C 0.47824 0.25794 0.90858 0.0
C69 C 0.48183 0.22796 0.93484 0.0
C70 C 0.47699 0.22045 0.02248 0.0
C71 C 0.4702 0.24338 0.08266 0.0
Dy72 Dy 0.0373 0.9957 0.6364 0.0
C73 C 0.99785 0.0427 0.3328 0.0
C74 C 0.05026 0.96551 0.78023 0.0
Dy75 Dy 1.00405 0.01341 0.48237 0.0
O76 O 0.07027 0.97471 0.72148 0.0
O77 O 0.02361 0.9743 0.76215 0.0
O78 O 0.08245 0.01375 0.57681 0.0
O79 O 0.04721 0.99346 0.49906 0.0
C80 C 0.07387 0.00734 0.49852 0.0
C81 C 0.967 1.00132 0.61846 0.0
O82 O 0.99869 0.9636 0.45181 0.0
O83 O 0.0168 0.95001 0.58307 0.0
O84 O 0.97806 0.042 0.39641 0.0
O85 O 0.0194 0.02543 0.34936 0.0
O86 O 0.95852 0.9959 0.53935 0.0
O87 O 0.99373 0.0152 0.61991 0.0
O88 O 0.03972 0.04572 0.66915 0.0
O89 O 0.02535 0.05876 0.5336 0.0
C90 C 1.00424 0.9426 0.50757 0.0
C91 C 0.03567 0.06656 0.61118 0.0
Dy92 Dy 0.49249 0.98038 0.49177 0.0
C93 C 0.58153 0.06617 0.64555 0.0
C94 C 0.4453 0.93952 0.43943 0.0
Dy95 Dy 0.53437 0.02604 0.58915 0.0
O96 O 0.47333 0.94066 0.4096 0.0
O97 O 0.4431 0.96081 0.49744 0.0
O98 O 0.52785 0.97773 0.38692 0.0
O99 O 0.54245 0.98509 0.51427 0.0
C100 C 0.55131 0.98363 0.43643 0.0
C101 C 0.4752 0.02371 0.6421 0.0
O102 O 0.52701 0.05208 0.46881 0.0
O103 O 0.48601 0.02118 0.41288 0.0
O104 O 0.55575 0.05947 0.68656 0.0
O105 O 0.58147 0.05106 0.57313 0.0
O106 O 0.49836 0.02998 0.69232 0.0
O107 O 0.48469 0.02172 0.56519 0.0
O108 O 0.498 0.95576 0.61424 0.0
O109 O 0.54093 0.98443 0.66614 0.0
C110 C 0.5052 0.04634 0.41085 0.0
C111 C 0.52036 0.96034 0.67051 0.0
Dy112 Dy 0.50471 0.52282 0.64768 0.0
C113 C 0.53639 0.47209 0.31887 0.0
C114 C 0.48849 0.54558 0.80409 0.0
Dy115 Dy 0.53596 0.49953 0.47658 0.0
O116 O 0.46943 0.53173 0.74985 0.0
O117 O 0.51651 0.54537 0.77423 0.0
O118 O 0.46818 0.54011 0.56777 0.0
O119 O 0.4889 0.50101 0.52666 0.0
C120 C 0.47009 0.51981 0.5067 0.0
C121 C 0.57837 0.51247 0.59902 0.0
O122 O 0.53729 0.54958 0.45185 0.0
O123 O 0.52737 0.56634 0.59207 0.0
O124 O 0.55535 0.46792 0.3799 0.0
O125 O 0.51886 0.49324 0.34248 0.0
O126 O 0.58554 0.50402 0.52093 0.0
O127 O 0.5498 0.51441 0.60269 0.0
O128 O 0.5036 0.47254 0.67506 0.0
O129 O 0.52119 0.45544 0.54124 0.0
C130 C 0.53542 0.57175 0.51058 0.0
C131 C 0.51056 0.45031 0.62052 0.0
Dy132 Dy 1.00297 0.48115 0.60213 0.0
C133 C 0.07466 0.56366 0.39383 0.0
C134 C 0.96825 0.44426 0.7132 0.0
Dy135 Dy 0.04113 0.52646 0.50649 0.0
O136 O 0.9717 0.43913 0.63167 0.0
O137 O 0.98451 0.46936 0.73478 0.0
O138 O 0.98979 0.4568 0.47939 0.0
O139 O 0.03498 0.47678 0.49135 0.0
C140 C 0.01622 0.46224 0.44104 0.0
C141 C 0.02799 0.54509 0.66762 0.0
O142 O 0.9949 0.531 0.44721 0.0
O143 O 0.96575 0.50829 0.55683 0.0
O144 O 0.06965 0.56999 0.47408 0.0
O145 O 0.06081 0.5371 0.37452 0.0
O146 O 0.05452 0.55032 0.62964 0.0
O147 O 1.0091 0.53086 0.61707 0.0
O148 O 0.04926 0.47565 0.66044 0.0
O149 O 0.07886 0.50088 0.55534 0.0
C150 C 0.96777 0.52359 0.4846 0.0
C151 C 0.07655 0.48452 0.62573 0.0
H152 H 0.2282 0.03395 0.12569 0.0
H153 H 0.18824 0.94116 0.09642 0.0
H154 H 0.18556 0.04523 0.22332 0.0
H155 H 0.14597 0.95207 0.19347 0.0
H156 H 0.06371 0.98222 0.3381 0.0
H157 H 0.10071 0.97946 0.21895 0.0
H158 H 0.17013 0.03063 0.37071 0.0
H159 H 0.13292 0.03378 0.48916 0.0
C160 C 0.20985 0.01626 0.13829 0.0
C161 C 0.21138 0.98675 0.10315 0.0
C162 C 0.18563 0.02255 0.19496 0.0
C163 C 0.16232 0.99952 0.21687 0.0
C164 C 0.16318 0.9705 0.17764 0.0
C165 C 0.18745 0.96419 0.122 0.0
C166 C 0.08673 0.99328 0.34552 0.0
C167 C 0.09542 0.00806 0.42332 0.0
C168 C 0.10803 0.99156 0.27734 0.0
C169 C 0.13856 1.00466 0.2851 0.0
C170 C 0.14681 0.02054 0.36185 0.0
C171 C 0.12553 0.02215 0.43013 0.0
H172 H 0.52882 0.18986 0.02431 0.0
H173 H 0.43309 0.18275 0.10111 0.0
H174 H 0.53653 0.1449 0.10926 0.0
H175 H 0.44053 0.13808 0.18575 0.0
H176 H 0.45922 0.04672 0.29327 0.0
H177 H 0.45288 0.08474 0.18488 0.0
H178 H 0.53692 0.13569 0.26581 0.0
H179 H 0.54344 0.09761 0.37382 0.0
C180 C 0.50926 0.17807 0.05716 0.0
C181 C 0.4803 0.18953 0.0555 0.0
C182 C 0.51371 0.1526 0.10676 0.0
C183 C 0.4892 0.13796 0.15504 0.0
C184 C 0.45987 0.14852 0.14898 0.0
C185 C 0.45555 0.17408 0.10035 0.0
C186 C 0.47646 0.06593 0.28782 0.0
C187 C 0.50174 0.06912 0.34304 0.0
C188 C 0.47277 0.08779 0.22563 0.0
C189 C 0.49438 0.11333 0.21638 0.0
C190 C 0.52002 0.11615 0.27024 0.0
C191 C 0.5236 0.09441 0.33288 0.0
H192 H 0.31505 0.47044 0.17441 0.0
H193 H 0.35208 0.55884 0.08746 0.0
H194 H 0.36002 0.46793 0.26533 0.0
H195 H 0.39713 0.55622 0.17611 0.0
H196 H 0.43894 0.56448 0.44439 0.0
H197 H 0.40182 0.56134 0.32983 0.0
H198 H 0.41671 0.46659 0.28387 0.0
H199 H 0.45413 0.46987 0.40069 0.0
C200 C 0.33334 0.4888 0.17237 0.0
C201 C 0.33001 0.51489 0.1241 0.0
C202 C 0.3591 0.48744 0.22465 0.0
C203 C 0.382 0.51216 0.2296 0.0
C204 C 0.37966 0.53708 0.1757 0.0
C205 C 0.35398 0.53848 0.12413 0.0
C206 C 0.43458 0.54302 0.40938 0.0
C207 C 0.44956 0.51748 0.43143 0.0
C208 C 0.41339 0.54124 0.34301 0.0
C209 C 0.40628 0.51376 0.29671 0.0
C210 C 0.42152 0.48811 0.3182 0.0
C211 C 0.44311 0.49002 0.3846 0.0
H212 H 0.09102 0.32172 0.14232 0.0
H213 H 0.01589 0.34235 0.98462 0.0
H214 H 0.08506 0.36732 0.23005 0.0
H215 H 1.01022 0.38873 0.07138 0.0
H216 H 0.97738 0.42998 0.3322 0.0
H217 H 0.98999 0.39607 0.21414 0.0
H218 H 0.08679 0.42181 0.25144 0.0
H219 H 0.07392 0.45558 0.37169 0.0
C220 C 0.07377 0.33659 0.12493 0.0
C221 C 0.05372 0.32829 0.05709 0.0
C222 C 0.07043 0.3629 0.17506 0.0
C223 C 0.04684 0.38164 0.15893 0.0
C224 C 0.02829 0.37457 0.08675 0.0
C225 C 0.03174 0.3482 0.03625 0.0
C226 C 1.00137 0.42874 0.31456 0.0
C227 C 0.02466 0.44516 0.36206 0.0
C228 C 1.00864 0.40944 0.24607 0.0
C229 C 0.03946 0.40594 0.22299 0.0
C230 C 0.0628 0.42359 0.26798 0.0
C231 C 0.05547 0.44307 0.33664 0.0
H232 H 0.80686 0.97406 0.9669 0.0
H233 H 0.85057 0.06416 0.01909 0.0
H234 H 0.85151 0.96207 0.8786 0.0
H235 H 0.89491 0.05262 0.93067 0.0
H236 H 0.90735 0.97687 0.62118 0.0
H237 H 0.86945 0.97898 0.73766 0.0
H238 H 0.93903 0.02424 0.90113 0.0
H239 H 0.9769 0.02253 0.78343 0.0
C240 C 0.82655 0.99084 0.96218 0.0
C241 C 0.82543 0.01991 1.0005 0.0
C242 C 0.85194 0.98421 0.91051 0.0
C243 C 0.87676 0.0065 0.89633 0.0
C244 C 0.87649 0.03475 0.94039 0.0
C245 C 0.85109 0.0414 0.99141 0.0
C246 C 0.91466 0.98696 0.6823 0.0
C247 C 0.94505 0.99982 0.69273 0.0
C248 C 0.89295 0.98794 0.74955 0.0
C249 C 0.90103 1.00185 0.82916 0.0
C250 C 0.93184 0.01366 0.84054 0.0
C251 C 0.9536 0.01259 0.77319 0.0
H252 H 0.56209 0.82267 0.04226 0.0
H253 H 0.46456 0.83064 0.06507 0.0
H254 H 0.56733 0.86589 0.94391 0.0
H255 H 0.46967 0.87384 0.969 0.0
H256 H 0.47994 0.91063 0.70004 0.0
H257 H 0.47939 0.87441 0.81463 0.0
H258 H 0.56204 0.92193 0.91686 0.0
H259 H 0.56282 0.9587 0.80006 0.0
C260 C 0.542 0.83432 0.02847 0.0
C261 C 0.5129 0.82326 0.06088 0.0
C262 C 0.54494 0.85899 0.97198 0.0
C263 C 0.5188 0.87295 0.947 0.0
C264 C 0.49017 0.8632 0.98503 0.0
C265 C 0.48725 0.83863 0.04076 0.0
C266 C 0.49814 0.91359 0.74652 0.0
C267 C 0.5214 0.93783 0.74045 0.0
C268 C 0.49765 0.89282 0.81304 0.0
C269 C 0.52039 0.89544 0.87604 0.0
C270 C 0.54414 0.91926 0.86948 0.0
C271 C 0.54454 0.94035 0.80263 0.0
H272 H 0.73853 0.54746 0.93012 0.0
H273 H 0.68716 0.46539 0.01814 0.0
H274 H 0.69635 0.55655 0.8347 0.0
H275 H 0.64479 0.4746 0.92417 0.0
H276 H 0.64031 0.52447 0.58642 0.0
H277 H 0.67777 0.52623 0.7011 0.0
H278 H 0.60395 0.51088 0.88796 0.0
H279 H 0.56627 0.50959 0.77246 0.0
C280 C 0.71775 0.53198 0.93116 0.0
C281 C 0.71591 0.50592 0.98207 0.0
C282 C 0.69374 0.53699 0.87604 0.0
C283 C 0.66723 0.51624 0.87158 0.0
C284 C 0.6647 0.49118 0.9266 0.0
C285 C 0.68892 0.48591 0.9805 0.0
C286 C 0.63204 0.52205 0.65216 0.0
C287 C 0.60036 0.51704 0.67052 0.0
C288 C 0.65351 0.5232 0.71796 0.0
C289 C 0.64389 0.51876 0.80381 0.0
C290 C 0.61209 0.51438 0.8225 0.0
C291 C 0.59052 0.51384 0.75655 0.0
H292 H 0.97575 0.69982 0.94379 0.0
H293 H 0.03105 0.66092 0.13149 0.0
H294 H 0.97453 0.65275 0.85758 0.0
H295 H 0.02988 0.61348 0.04529 0.0
H296 H 0.06671 0.56896 0.78976 0.0
H297 H 0.0561 0.60445 0.90634 0.0
H298 H 0.96019 0.597 0.83887 0.0
H299 H 0.971 0.56111 0.72142 0.0
C300 C 0.98677 0.68072 0.96794 0.0
C301 C 1.00352 0.68398 0.04422 0.0
C302 C 0.98604 0.65369 0.91864 0.0
C303 C 1.00239 0.62938 0.94389 0.0
C304 C 0.01731 0.63188 0.02351 0.0
C305 C 0.01774 0.65889 0.07338 0.0
C306 C 0.04322 0.57441 0.80086 0.0
C307 C 0.01975 0.56248 0.74604 0.0
C308 C 0.03707 0.59462 0.86821 0.0
C309 C 1.00729 0.60374 0.88204 0.0
C310 C 0.98343 0.59062 0.82964 0.0
C311 C 0.98955 0.56997 0.76267 0.0
H312 H 0.08049 0.19279 0.03219 0.0
H313 H 1.00887 0.23083 0.18362 0.0
H314 H 0.06663 0.14339 0.09178 0.0
H315 H 0.9969 0.18162 0.25218 0.0
H316 H 0.95799 0.08424 0.29034 0.0
H317 H 0.97206 0.13383 0.22604 0.0
H318 H 0.06637 0.11116 0.19939 0.0
H319 H 0.05153 0.06128 0.25418 0.0
C320 C 0.06234 0.19067 0.08078 0.0
C321 C 0.04527 0.21538 0.10195 0.0
C322 C 0.05446 0.16225 0.11582 0.0
C323 C 0.03016 0.15805 0.17622 0.0
C324 C 0.015 0.18363 0.20361 0.0
C325 C 0.02231 0.21205 0.16611 0.0
C326 C 0.98139 0.08968 0.26737 0.0
C327 C 1.00357 0.06892 0.27639 0.0
C328 C 0.98972 0.11834 0.23252 0.0
C329 C 0.02055 0.12699 0.20856 0.0
C330 C 0.0423 0.1055 0.21513 0.0
C331 C 0.03376 0.07665 0.24681 0.0
H332 H 0.34577 0.94852 0.04528 0.0
H333 H 0.26955 0.90458 0.19295 0.0
H334 H 0.38129 0.92948 0.1402 0.0
H335 H 0.30636 0.88768 0.29403 0.0
H336 H 0.38484 0.94062 0.48392 0.0
H337 H 0.34157 0.92547 0.39115 0.0
H338 H 0.40269 0.88418 0.21117 0.0
H339 H 0.4461 0.89956 0.30377 0.0
C340 C 0.33622 0.93382 0.09566 0.0
C341 C 0.30422 0.92841 0.1104 0.0
C342 C 0.35699 0.92293 0.15101 0.0
C343 C 0.34664 0.90707 0.22452 0.0
C344 C 0.31489 0.89989 0.23754 0.0
C345 C 0.29386 0.91002 0.18014 0.0
C346 C 0.38881 0.92721 0.42625 0.0
C347 C 0.41882 0.92203 0.3994 0.0
C348 C 0.36397 0.91825 0.37354 0.0
C349 C 0.36895 0.90416 0.29333 0.0
C350 C 0.39836 0.89529 0.27242 0.0
C351 C 0.42319 0.90422 0.32515 0.0
H352 H 0.43287 0.32161 0.05167 0.0
H353 H 0.50321 0.28439 0.1974 0.0
H354 H 0.44933 0.37233 0.10592 0.0
H355 H 0.5178 0.33471 0.25904 0.0
H356 H 0.56902 0.42621 0.2589 0.0
H357 H 0.54704 0.37682 0.20512 0.0
H358 H 0.45703 0.41082 0.20506 0.0
H359 H 0.47973 0.46068 0.25074 0.0
C360 C 0.45094 0.32416 0.09866 0.0
C361 C 0.46747 0.2993 0.11805 0.0
C362 C 0.46048 0.35333 0.12984 0.0
C363 C 0.48596 0.35795 0.18385 0.0
C364 C 0.49919 0.33224 0.21383 0.0
C365 C 0.49022 0.30316 0.18057 0.0
C366 C 0.54478 0.42332 0.24386 0.0
C367 C 0.526 0.44705 0.25974 0.0
C368 C 0.53194 0.3948 0.21541 0.0
C369 C 0.49994 0.38928 0.20443 0.0
C370 C 0.48168 0.41394 0.21329 0.0
C371 C 0.49473 0.44269 0.23923 0.0
H372 H 0.22006 0.59175 0.01952 0.0
H373 H 0.24968 0.56163 0.26373 0.0
H374 H 0.17489 0.61081 0.08985 0.0
H375 H 0.20523 0.58137 0.33388 0.0
H376 H 0.08583 0.55529 0.22322 0.0
H377 H 0.13388 0.57022 0.14676 0.0
H378 H 0.16763 0.62157 0.37023 0.0
H379 H 0.11915 0.60701 0.44637 0.0
C380 C 0.21767 0.59048 0.08872 0.0
C381 C 0.23783 0.57432 0.13579 0.0
C382 C 0.19186 0.60142 0.12884 0.0
C383 C 0.18623 0.5969 0.21681 0.0
C384 C 0.20897 0.58517 0.26587 0.0
C385 C 0.23457 0.57387 0.22559 0.0
C386 C 0.10302 0.57076 0.25472 0.0
C387 C 0.09908 0.5796 0.34086 0.0
C388 C 0.13048 0.57952 0.21086 0.0
C389 C 0.1546 0.59685 0.25299 0.0
C390 C 0.14944 0.60814 0.33649 0.0
C391 C 0.12171 0.59979 0.3799 0.0
H392 H 1.0086 0.78395 0.91831 0.0
H393 H 0.085 0.80769 0.08598 0.0
H394 H 0.01688 0.83413 0.85347 0.0
H395 H 0.09337 0.85803 0.02058 0.0
H396 H 0.10218 0.93673 0.80493 0.0
H397 H 0.104 0.88625 0.86763 0.0
H398 H 1.00808 0.88557 0.94108 0.0
H399 H 1.00627 0.93587 0.8801 0.0
C400 C 0.02793 0.79943 0.93876 0.0
C401 C 0.04611 0.79212 0.00714 0.0
C402 C 0.03239 0.82823 0.90261 0.0
C403 C 0.05532 0.84995 0.93366 0.0
C404 C 0.07547 0.84163 0.99611 0.0
C405 C 0.07077 0.8129 0.03304 0.0
C406 C 0.08179 0.92614 0.83688 0.0
C407 C 0.05401 0.94 0.83721 0.0
C408 C 0.0828 0.89726 0.87197 0.0
C409 C 0.05596 0.8819 0.90665 0.0
C410 C 0.02888 0.89678 0.9127 0.0
C411 C 0.02796 0.92568 0.8788 0.0
H412 H 0.71895 0.1099 0.02376 0.0
H413 H 0.75019 0.04831 0.82822 0.0
H414 H 0.68127 0.12632 0.92484 0.0
H415 H 0.71231 0.06351 0.73124 0.0
H416 H 0.63791 0.08013 0.57027 0.0
H417 H 0.68593 0.09436 0.64477 0.0
H418 H 0.63475 0.10016 0.88446 0.0
H419 H 0.58717 0.08774 0.80916 0.0
C420 C 0.71825 0.10047 0.95894 0.0
C421 C 0.73714 0.07751 0.93408 0.0
C422 C 0.69661 0.10972 0.90235 0.0
C423 C 0.69309 0.09572 0.82054 0.0
C424 C 0.71428 0.0751 0.79313 0.0
C425 C 0.73611 0.06621 0.84916 0.0
C426 C 0.63702 0.08556 0.63838 0.0
C427 C 0.60903 0.08219 0.68451 0.0
C428 C 0.66451 0.09351 0.68127 0.0
C429 C 0.66446 0.09755 0.77122 0.0
C430 C 0.63596 0.09736 0.81534 0.0
C431 C 0.60852 0.08993 0.77223 0.0
H432 H 0.44008 0.69551 0.14845 0.0
H433 H 0.49737 0.72563 0.93179 0.0
H434 H 0.43419 0.6437 0.08572 0.0
H435 H 0.49123 0.67417 0.86961 0.0
H436 H 0.52629 0.57985 0.91093 0.0
H437 H 0.51522 0.62796 0.98026 0.0
H438 H 0.41998 0.61156 0.91021 0.0
H439 H 0.43099 0.56318 0.83955 0.0
C440 C 0.45022 0.69136 0.08573 0.0
C441 C 0.46951 0.71444 0.0454 0.0
C442 C 0.4469 0.6618 0.05024 0.0
C443 C 0.46275 0.65519 0.9741 0.0
C444 C 0.479 0.67895 0.92891 0.0
C445 C 0.48222 0.70844 0.96403 0.0
C446 C 0.50277 0.58592 0.91277 0.0
C447 C 0.47959 0.56806 0.869 0.0
C448 C 0.49653 0.6135 0.95177 0.0
C449 C 0.46697 0.62347 0.94837 0.0
C450 C 0.44297 0.60424 0.91269 0.0
C451 C 0.44927 0.57657 0.87302 0.0
H452 H 0.81965 0.41956 0.08424 0.0
H453 H 0.79448 0.45798 0.8456 0.0
H454 H 0.86441 0.40015 0.01259 0.0
H455 H 0.83819 0.43743 0.77395 0.0
H456 H 0.92104 0.40446 0.65854 0.0
H457 H 0.87177 0.39305 0.73363 0.0
H458 H 0.90869 0.44005 0.96022 0.0
H459 H 0.95767 0.45201 0.88469 0.0
C460 C 0.82294 0.42282 0.01586 0.0
C461 C 0.80409 0.44121 0.97124 0.0
C462 C 0.84847 0.41157 0.97498 0.0
C463 C 0.855 0.4178 0.88831 0.0
C464 C 0.83365 0.43224 0.8409 0.0
C465 C 0.80846 0.44398 0.88208 0.0
C466 C 0.91897 0.41138 0.72541 0.0
C467 C 0.94289 0.42958 0.76562 0.0
C468 C 0.89078 0.40483 0.76819 0.0
C469 C 0.88639 0.41587 0.85228 0.0
C470 C 0.91152 0.43104 0.89555 0.0
C471 C 0.93952 0.43805 0.85229 0.0
H472 H 0.10222 0.24627 0.81179 0.0
H473 H 1.00408 0.24618 0.78895 0.0
H474 H 0.10124 0.19973 0.72329 0.0
H475 H 1.00304 0.19999 0.69889 0.0
H476 H 0.01474 0.11461 0.52826 0.0
H477 H 0.02165 0.16888 0.5675 0.0
H478 H 0.07643 0.14823 0.78236 0.0
H479 H 0.06913 0.09383 0.74421 0.0
C480 C 0.08076 0.23766 0.78248 0.0
C481 C 0.0532 0.24985 0.80793 0.0
C482 C 0.08008 0.21047 0.73365 0.0
C483 C 0.05193 0.19563 0.70656 0.0
C484 C 0.02509 0.21071 0.71939 0.0
C485 C 0.02574 0.23766 0.76953 0.0
C486 C 0.0285 0.1216 0.58355 0.0
C487 C 0.04132 0.09972 0.63331 0.0
C488 C 0.03242 0.15275 0.60588 0.0
C489 C 0.04983 0.16294 0.67742 0.0
C490 C 0.0633 0.14118 0.72594 0.0
C491 C 0.05889 0.10995 0.70459 0.0
H492 H 0.29099 0.95681 0.7829 0.0
H493 H 0.30704 0.03736 0.94377 0.0
H494 H 0.33664 0.97281 0.69622 0.0
H495 H 0.35264 0.05364 0.85693 0.0
H496 H 0.4223 0.01332 0.54727 0.0
H497 H 0.36885 0.00921 0.60174 0.0
H498 H 0.40147 0.0294 0.85833 0.0
H499 H 0.45428 0.03284 0.80457 0.0
C500 C 0.30334 0.9788 0.79674 0.0
C501 C 0.29536 0.99588 0.86996 0.0
C502 C 0.3297 0.98789 0.74746 0.0
C503 C 0.34876 0.01416 0.77078 0.0
C504 C 0.33878 0.03298 0.83815 0.0
C505 C 0.3123 0.02397 0.88706 0.0
C506 C 0.41794 0.01682 0.61523 0.0
C507 C 0.44256 0.02298 0.67175 0.0
C508 C 0.38734 0.01464 0.64638 0.0
C509 C 0.38076 0.01924 0.73441 0.0
C510 C 0.40551 0.0263 0.79001 0.0
C511 C 0.4359 0.02801 0.75921 0.0
H512 H 0.53385 0.27505 0.8349 0.0
H513 H 0.43634 0.2719 0.79371 0.0
H514 H 0.542 0.32085 0.74809 0.0
H515 H 0.44429 0.31809 0.70901 0.0
H516 H 0.47123 0.42499 0.74479 0.0
H517 H 0.46363 0.37134 0.7858 0.0
H518 H 0.53286 0.3487 0.59974 0.0
H519 H 0.54002 0.40214 0.55705 0.0
C520 C 0.5144 0.28287 0.80239 0.0
C521 C 0.48446 0.26978 0.82103 0.0
C522 C 0.51898 0.30953 0.75414 0.0
C523 C 0.49365 0.32353 0.7241 0.0
C524 C 0.46418 0.30808 0.73267 0.0
C525 C 0.4597 0.28116 0.77939 0.0
C526 C 0.48477 0.4086 0.71247 0.0
C527 C 0.5062 0.41793 0.64765 0.0
C528 C 0.48022 0.37782 0.73532 0.0
C529 C 0.49743 0.35576 0.6952 0.0
C530 C 0.51916 0.36512 0.63131 0.0
C531 C 0.52321 0.39576 0.60705 0.0
H532 H 0.20224 0.47211 0.03491 0.0
H533 H 0.26317 0.499 0.82396 0.0
H534 H 0.16044 0.45986 0.93668 0.0
H535 H 0.22189 0.48472 0.72316 0.0
H536 H 0.13431 0.51223 0.59906 0.0
H537 H 0.18007 0.50757 0.68057 0.0
H538 H 0.13089 0.43674 0.83106 0.0
H539 H 0.08426 0.44302 0.75194 0.0
C540 C 0.20712 0.47364 0.96659 0.0
C541 C 0.23602 0.48646 0.9372 0.0
C542 C 0.18296 0.46676 0.90963 0.0
C543 C 0.18711 0.47206 0.82111 0.0
C544 C 0.21722 0.48134 0.79091 0.0
C545 C 0.24129 0.48881 0.84841 0.0
C546 C 0.13326 0.49536 0.64885 0.0
C547 C 0.10538 0.47821 0.66924 0.0
C548 C 0.15984 0.49242 0.69559 0.0
C549 C 0.1597 0.4718 0.7636 0.0
C550 C 0.13209 0.45342 0.78085 0.0
C551 C 0.10524 0.45682 0.73496 0.0
H552 H 0.95526 0.76966 0.24064 0.0
H553 H 0.04564 0.76609 0.34347 0.0
H554 H 0.94696 0.81322 0.33545 0.0
H555 H 0.03779 0.80975 0.43747 0.0
H556 H 0.97625 0.91794 0.36295 0.0
H557 H 0.97097 0.86477 0.3154 0.0
H558 H 0.0127 0.839 0.5487 0.0
H559 H 0.01836 0.89248 0.59614 0.0
C560 C 0.97259 0.77697 0.28741 0.0
C561 C 1.00103 0.76437 0.28501 0.0
C562 C 0.96816 0.80243 0.34038 0.0
C563 C 0.99207 0.81565 0.3923 0.0
C564 C 0.01885 0.80033 0.39843 0.0
C565 C 0.02327 0.77494 0.34527 0.0
C566 C 0.98396 0.90098 0.40483 0.0
C567 C 0.99803 0.9097 0.48304 0.0
C568 C 0.98063 0.8703 0.37789 0.0
C569 C 0.99134 0.84741 0.42822 0.0
C570 C 1.00436 0.85598 0.50802 0.0
C571 C 1.00755 0.88671 0.53525 0.0
H572 H 0.72025 0.97161 0.13216 0.0
H573 H 0.73106 0.05797 0.26892 0.0
H574 H 0.67454 0.95636 0.22047 0.0
H575 H 0.68557 0.04282 0.35774 0.0
H576 H 0.60492 0.99951 0.525 0.0
H577 H 0.65764 0.00619 0.46504 0.0
H578 H 0.62329 0.97784 0.21528 0.0
H579 H 0.57111 0.97207 0.27412 0.0
C580 C 0.71365 0.98674 0.18371 0.0
C581 C 0.72941 0.0158 0.19441 0.0
C582 C 0.68723 0.97823 0.23355 0.0
C583 C 0.67615 0.99853 0.2956 0.0
C584 C 0.69352 0.02656 0.31109 0.0
C585 C 0.71968 0.0352 0.26051 0.0
C586 C 0.60873 0.99475 0.45738 0.0
C587 C 0.58375 0.98564 0.40417 0.0
C588 C 0.6389 0.99845 0.42309 0.0
C589 C 0.64476 0.99235 0.33537 0.0
C590 C 0.61979 0.98229 0.28326 0.0
C591 C 0.58976 0.97919 0.317 0.0
H592 H 0.4932 0.74849 0.37604 0.0
H593 H 0.57347 0.73734 0.21745 0.0
H594 H 0.50499 0.70609 0.46349 0.0
H595 H 0.58593 0.69516 0.30583 0.0
H596 H 0.55487 0.59255 0.3524 0.0
H597 H 0.55942 0.64466 0.3026 0.0
H598 H 0.53441 0.6769 0.556 0.0
H599 H 0.52929 0.6244 0.60583 0.0
C600 C 0.51458 0.73831 0.3636 0.0
C601 C 0.53246 0.74632 0.29012 0.0
C602 C 0.5212 0.71362 0.41312 0.0
C603 C 0.54593 0.69648 0.39022 0.0
C604 C 0.56623 0.70732 0.32399 0.0
C605 C 0.55956 0.73202 0.27447 0.0
C606 C 0.5507 0.61069 0.39807 0.0
C607 C 0.5414 0.60405 0.48306 0.0
C608 C 0.55365 0.64079 0.36962 0.0
C609 C 0.54738 0.66522 0.4252 0.0
C610 C 0.53922 0.65872 0.51116 0.0
C611 C 0.53635 0.62854 0.53978 0.0
H612 H 0.82401 0.55547 0.12111 0.0
H613 H 0.78759 0.4848 0.29136 0.0
H614 H 0.86699 0.56841 0.21774 0.0
H615 H 0.83063 0.49666 0.38655 0.0
H616 H 0.9097 0.52172 0.55541 0.0
H617 H 0.86153 0.52656 0.4829 0.0
H618 H 0.912 0.54445 0.24514 0.0
H619 H 0.96017 0.54077 0.31872 0.0
C620 C 0.82443 0.54373 0.18139 0.0
C621 C 0.80216 0.51953 0.19961 0.0
C622 C 0.84945 0.55061 0.23596 0.0
C623 C 0.85287 0.53321 0.30956 0.0
C624 C 0.82893 0.51086 0.33134 0.0
C625 C 0.80395 0.50413 0.27703 0.0
C626 C 0.91056 0.5272 0.48793 0.0
C627 C 0.93888 0.53059 0.44282 0.0
C628 C 0.88283 0.52983 0.44606 0.0
C629 C 0.88254 0.53555 0.35752 0.0
C630 C 0.91106 0.54042 0.31346 0.0
C631 C 0.93884 0.53812 0.35563 0.0
loop_
_geom_bond_atom_site_label_1
_geom_bond_atom_site_label_2
_geom_bond_distance
_geom_bond_site_symmetry_2
_ccdc_geom_bond_type
H0 C3 0.931 . S
H1 C6 0.928 . S
H2 C8 0.930 . S
C3 H0 0.931 . S
C3 C4 1.413 . S
C3 C5 1.360 1_554 S
C4 C3 1.413 . S
C4 C8 1.429 . S
C5 C3 1.360 1_556 S
C5 C6 1.372 . S
C6 H1 0.928 . S
C6 C5 1.372 . S
C6 C7 1.404 1_556 S
C7 C6 1.404 1_554 S
C7 C8 1.391 . S
C8 H2 0.930 . S
C8 C4 1.429 . S
C8 C7 1.391 . S
H9 C12 0.931 . S
H10 C15 0.928 . S
H11 C17 0.930 . S
C12 H9 0.931 . S
C12 C13 1.413 . S
C12 C14 1.360 1_554 S
C13 C12 1.413 . S
C13 C17 1.429 . S
C14 C12 1.360 1_556 S
C14 C15 1.372 . S
C15 H10 0.928 . S
C15 C14 1.372 . S
C15 C16 1.404 1_556 S
C16 C15 1.404 1_554 S
C16 C17 1.391 . S
C17 H11 0.930 . S
C17 C13 1.429 . S
C17 C16 1.391 . S
H18 C21 0.931 . S
H19 C24 0.928 . S
H20 C26 0.932 . S
C21 H18 0.931 . S
C21 C22 1.414 . S
C21 C23 1.360 1_554 S
C22 C21 1.414 . S
C22 C26 1.430 1_565 S
C23 C21 1.360 1_556 S
C23 C24 1.374 . S
C24 H19 0.928 . S
C24 C23 1.374 . S
C24 C25 1.403 1_556 S
C25 C24 1.403 1_554 S
C25 C26 1.390 1_565 S
C26 H20 0.932 . S
C26 C22 1.430 1_545 S
C26 C25 1.390 1_545 S
H27 C30 0.931 . S
H28 C33 0.928 . S
H29 C35 0.930 . S
C30 H27 0.931 . S
C30 C31 1.413 . S
C30 C32 1.360 . S
C31 C30 1.413 . S
C31 C35 1.429 1_554 S
C32 C30 1.360 . S
C32 C33 1.372 . S
C33 H28 0.928 . S
C33 C32 1.372 . S
C33 C34 1.404 . S
C34 C33 1.404 . S
C34 C35 1.391 1_554 S
C35 H29 0.930 . S
C35 C31 1.429 1_556 S
C35 C34 1.391 1_556 S
H36 C39 0.931 . S
H37 C42 0.928 . S
H38 C44 0.936 . S
C39 H36 0.931 . S
C39 C40 1.413 1_554 S
C39 C41 1.360 . S
C40 C39 1.413 1_556 S
C40 C44 1.431 . S
C41 C39 1.360 . S
C41 C42 1.372 . S
C42 H37 0.928 . S
C42 C41 1.372 . S
C42 C43 1.404 . S
C43 C42 1.404 . S
C43 C44 1.382 1_554 S
C44 H38 0.936 . S
C44 C40 1.431 . S
C44 C43 1.382 1_556 S
H45 C48 0.931 . S
H46 C51 0.928 . S
H47 C53 0.930 1_556 S
C48 H45 0.931 . S
C48 C49 1.413 1_554 S
C48 C50 1.360 . S
C49 C48 1.413 1_556 S
C49 C53 1.429 1_556 S
C50 C48 1.360 . S
C50 C51 1.372 . S
C51 H46 0.928 . S
C51 C50 1.372 . S
C51 C52 1.404 . S
C52 C51 1.404 . S
C52 C53 1.391 . S
C53 H47 0.930 1_554 S
C53 C49 1.429 1_554 S
C53 C52 1.391 . S
H54 C57 0.930 . S
H55 C60 0.928 . S
H56 C62 0.928 . S
C57 H54 0.930 . S
C57 C58 1.413 1_554 S
C57 C59 1.360 . S
C58 C57 1.413 1_556 S
C58 C62 1.428 1_565 S
C59 C57 1.360 . S
C59 C60 1.371 . S
C60 H55 0.928 . S
C60 C59 1.371 . S
C60 C61 1.404 . S
C61 C60 1.404 . S
C61 C62 1.391 1_564 S
C62 H56 0.928 . S
C62 C58 1.428 1_545 S
C62 C61 1.391 1_546 S
H63 C66 0.931 1_556 S
H64 C69 0.928 . S
H65 C71 0.930 . S
C66 H63 0.931 1_554 S
C66 C67 1.413 . S
C66 C68 1.360 1_554 S
C67 C66 1.413 . S
C67 C71 1.429 . S
C68 C66 1.360 1_556 S
C68 C69 1.372 . S
C69 H64 0.928 . S
C69 C68 1.372 . S
C69 C70 1.404 1_556 S
C70 C69 1.404 1_554 S
C70 C71 1.391 . S
C71 H65 0.930 . S
C71 C67 1.429 . S
C71 C70 1.391 . S
Dy72 O76 2.398 . S
Dy72 O77 2.491 1_455 S
Dy72 O78 2.403 . S
Dy72 O79 2.664 1_565 S
Dy72 O83 2.326 . S
Dy72 O87 2.310 1_455 S
Dy72 O88 2.351 1_565 S
C73 O84 1.185 1_455 S
C73 O85 1.355 . S
C74 O76 1.185 . S
C74 O77 1.355 1_455 S
Dy75 O79 2.310 1_655 S
Dy75 O82 2.351 1_545 S
Dy75 O84 2.398 . S
Dy75 O85 2.491 1_655 S
Dy75 O86 2.403 . S
Dy75 O87 2.664 1_545 S
Dy75 O89 2.326 1_655 S
O76 Dy72 2.398 . S
O76 C74 1.185 . S
O77 Dy72 2.491 1_655 S
O77 C74 1.355 1_655 S
O78 Dy72 2.403 . S
O78 C80 1.254 . S
O79 Dy72 2.664 1_545 S
O79 Dy75 2.310 1_455 S
O79 C80 1.268 1_545 S
C80 O78 1.254 . S
C80 O79 1.268 1_565 S
C81 O86 1.254 . S
C81 O87 1.268 1_545 S
O82 Dy75 2.351 1_565 S
O82 C90 1.249 . S
O83 Dy72 2.326 . S
O83 C90 1.267 1_455 S
O84 C73 1.185 1_655 S
O84 Dy75 2.398 . S
O85 C73 1.355 . S
O85 Dy75 2.491 1_455 S
O86 Dy75 2.403 . S
O86 C81 1.254 . S
O87 Dy72 2.310 1_655 S
O87 Dy75 2.664 1_565 S
O87 C81 1.268 1_565 S
O88 Dy72 2.351 1_545 S
O88 C91 1.249 . S
O89 Dy75 2.326 1_455 S
O89 C91 1.267 . S
C90 O82 1.249 . S
C90 O83 1.267 1_655 S
C91 O88 1.249 . S
C91 O89 1.267 . S
Dy92 O96 2.398 . S
Dy92 O97 2.491 . S
Dy92 O98 2.403 . S
Dy92 O99 2.664 . S
Dy92 O103 2.326 1_565 S
Dy92 O107 2.310 1_565 S
Dy92 O108 2.351 . S
C93 O104 1.185 . S
C93 O105 1.355 . S
C94 O96 1.185 . S
C94 O97 1.355 . S
Dy95 O99 2.310 1_545 S
Dy95 O102 2.351 . S
Dy95 O104 2.398 . S
Dy95 O105 2.491 . S
Dy95 O106 2.403 . S
Dy95 O107 2.664 . S
Dy95 O109 2.326 1_545 S
O96 Dy92 2.398 . S
O96 C94 1.185 . S
O97 Dy92 2.491 . S
O97 C94 1.355 . S
O98 Dy92 2.403 . S
O98 C100 1.254 . S
O99 Dy92 2.664 . S
O99 Dy95 2.310 1_565 S
O99 C100 1.268 . S
C100 O98 1.254 . S
C100 O99 1.268 . S
C101 O106 1.254 . S
C101 O107 1.268 . S
O102 Dy95 2.351 . S
O102 C110 1.249 . S
O103 Dy92 2.326 1_545 S
O103 C110 1.267 . S
O104 C93 1.185 . S
O104 Dy95 2.398 . S
O105 C93 1.355 . S
O105 Dy95 2.491 . S
O106 Dy95 2.403 . S
O106 C101 1.254 . S
O107 Dy92 2.310 1_545 S
O107 Dy95 2.664 . S
O107 C101 1.268 . S
O108 Dy92 2.351 . S
O108 C111 1.249 . S
O109 Dy95 2.326 1_565 S
O109 C111 1.267 . S
C110 O102 1.249 . S
C110 O103 1.267 . S
C111 O108 1.249 . S
C111 O109 1.267 . S
Dy112 O116 2.398 . S
Dy112 O117 2.491 . S
Dy112 O118 2.403 . S
Dy112 O119 2.664 . S
Dy112 O123 2.326 . S
Dy112 O127 2.310 . S
Dy112 O128 2.351 . S
C113 O124 1.185 . S
C113 O125 1.355 . S
C114 O116 1.185 . S
C114 O117 1.355 . S
Dy115 O119 2.310 . S
Dy115 O122 2.351 . S
Dy115 O124 2.398 . S
Dy115 O125 2.491 . S
Dy115 O126 2.403 . S
Dy115 O127 2.664 . S
Dy115 O129 2.326 . S
O116 Dy112 2.398 . S
O116 C114 1.185 . S
O117 Dy112 2.491 . S
O117 C114 1.355 . S
O118 Dy112 2.403 . S
O118 C120 1.254 . S
O119 Dy112 2.664 . S
O119 Dy115 2.310 . S
O119 C120 1.268 . S
C120 O118 1.254 . S
C120 O119 1.268 . S
C121 O126 1.254 . S
C121 O127 1.268 . S
O122 Dy115 2.351 . S
O122 C130 1.249 . S
O123 Dy112 2.326 . S
O123 C130 1.267 . S
O124 C113 1.185 . S
O124 Dy115 2.398 . S
O125 C113 1.355 . S
O125 Dy115 2.491 . S
O126 Dy115 2.403 . S
O126 C121 1.254 . S
O127 Dy112 2.310 . S
O127 Dy115 2.664 . S
O127 C121 1.268 . S
O128 Dy112 2.351 . S
O128 C131 1.249 . S
O129 Dy115 2.326 . S
O129 C131 1.267 . S
C130 O122 1.249 . S
C130 O123 1.267 . S
C131 O128 1.249 . S
C131 O129 1.267 . S
Dy132 O136 2.398 . S
Dy132 O137 2.491 . S
Dy132 O138 2.403 . S
Dy132 O139 2.664 1_655 S
Dy132 O143 2.326 . S
Dy132 O147 2.310 . S
Dy132 O148 2.351 1_655 S
C133 O144 1.185 . S
C133 O145 1.355 . S
C134 O136 1.185 . S
C134 O137 1.355 . S
Dy135 O139 2.310 . S
Dy135 O142 2.351 1_455 S
Dy135 O144 2.398 . S
Dy135 O145 2.491 . S
Dy135 O146 2.403 . S
Dy135 O147 2.664 1_455 S
Dy135 O149 2.326 . S
O136 Dy132 2.398 . S
O136 C134 1.185 . S
O137 Dy132 2.491 . S
O137 C134 1.355 . S
O138 Dy132 2.403 . S
O138 C140 1.254 1_655 S
O139 Dy132 2.664 1_455 S
O139 Dy135 2.310 . S
O139 C140 1.268 . S
C140 O138 1.254 1_455 S
C140 O139 1.268 . S
C141 O146 1.254 1_655 S
C141 O147 1.268 . S
O142 Dy135 2.351 1_655 S
O142 C150 1.249 . S
O143 Dy132 2.326 . S
O143 C150 1.267 . S
O144 C133 1.185 . S
O144 Dy135 2.398 . S
O145 C133 1.355 . S
O145 Dy135 2.491 . S
O146 Dy135 2.403 . S
O146 C141 1.254 1_455 S
O147 Dy132 2.310 . S
O147 Dy135 2.664 1_655 S
O147 C141 1.268 . S
O148 Dy132 2.351 1_455 S
O148 C151 1.249 . S
O149 Dy135 2.326 . S
O149 C151 1.267 . S
C150 O142 1.249 . S
C150 O143 1.267 . S
C151 O148 1.249 . S
C151 O149 1.267 . S
H152 C160 0.950 . S
H153 C165 0.950 . S
H154 C162 0.950 . S
H155 C164 0.950 . S
H156 C166 0.950 . S
H157 C168 0.950 . S
H158 C170 0.950 . S
H159 C171 0.950 . S
C160 H152 0.950 . S
C160 C161 1.393 . S
C160 C162 1.391 . S
C161 C160 1.393 . S
C161 C165 1.386 1_545 S
C162 H154 0.950 . S
C162 C160 1.391 . S
C162 C163 1.400 1_545 S
C163 C162 1.400 1_565 S
C163 C164 1.398 . S
C163 C169 1.491 . S
C164 H155 0.950 . S
C164 C163 1.398 . S
C164 C165 1.391 . S
C165 H153 0.950 . S
C165 C161 1.386 1_565 S
C165 C164 1.391 . S
C166 H156 0.950 . S
C166 C167 1.386 . S
C166 C168 1.391 . S
C167 C166 1.386 . S
C167 C171 1.393 1_565 S
C168 H157 0.950 . S
C168 C166 1.391 . S
C168 C169 1.400 . S
C169 C163 1.491 . S
C169 C168 1.400 . S
C169 C170 1.398 1_565 S
C170 H158 0.950 . S
C170 C169 1.398 1_545 S
C170 C171 1.391 . S
C171 H159 0.950 . S
C171 C167 1.393 1_545 S
C171 C170 1.391 . S
H172 C180 0.950 . S
H173 C185 0.950 . S
H174 C182 0.950 . S
H175 C184 0.950 . S
H176 C186 0.950 . S
H177 C188 0.950 . S
H178 C190 0.950 . S
H179 C191 0.950 . S
C180 H172 0.950 . S
C180 C181 1.386 . S
C180 C182 1.391 . S
C181 C180 1.386 . S
C181 C185 1.393 . S
C182 H174 0.950 . S
C182 C180 1.391 . S
C182 C183 1.400 . S
C183 C182 1.400 . S
C183 C184 1.398 . S
C183 C189 1.491 . S
C184 H175 0.950 . S
C184 C183 1.398 . S
C184 C185 1.391 . S
C185 H173 0.950 . S
C185 C181 1.393 . S
C185 C184 1.391 . S
C186 H176 0.950 . S
C186 C187 1.386 . S
C186 C188 1.391 . S
C187 C186 1.386 . S
C187 C191 1.393 . S
C188 H177 0.950 . S
C188 C186 1.391 . S
C188 C189 1.400 . S
C189 C183 1.491 . S
C189 C188 1.400 . S
C189 C190 1.398 . S
C190 H178 0.950 . S
C190 C189 1.398 . S
C190 C191 1.391 . S
C191 H179 0.950 . S
C191 C187 1.393 . S
C191 C190 1.391 . S
H192 C200 0.950 . S
H193 C205 0.950 . S
H194 C202 0.950 . S
H195 C204 0.950 . S
H196 C206 0.950 . S
H197 C208 0.950 . S
H198 C210 0.950 . S
H199 C211 0.950 . S
C200 H192 0.950 . S
C200 C201 1.386 . S
C200 C202 1.391 . S
C201 C200 1.386 . S
C201 C205 1.393 . S
C202 H194 0.950 . S
C202 C200 1.391 . S
C202 C203 1.400 . S
C203 C202 1.400 . S
C203 C204 1.398 . S
C203 C209 1.491 . S
C204 H195 0.950 . S
C204 C203 1.398 . S
C204 C205 1.391 . S
C205 H193 0.950 . S
C205 C201 1.393 . S
C205 C204 1.391 . S
C206 H196 0.950 . S
C206 C207 1.386 . S
C206 C208 1.391 . S
C207 C206 1.386 . S
C207 C211 1.393 . S
C208 H197 0.950 . S
C208 C206 1.391 . S
C208 C209 1.400 . S
C209 C203 1.491 . S
C209 C208 1.400 . S
C209 C210 1.398 . S
C210 H198 0.950 . S
C210 C209 1.398 . S
C210 C211 1.391 . S
C211 H199 0.950 . S
C211 C207 1.393 . S
C211 C210 1.391 . S
H212 C220 0.950 . S
H213 C225 0.950 . S
H214 C222 0.950 . S
H215 C224 0.950 . S
H216 C226 0.950 1_655 S
H217 C228 0.950 . S
H218 C230 0.950 . S
H219 C231 0.950 . S
C220 H212 0.950 . S
C220 C221 1.386 . S
C220 C222 1.391 . S
C221 C220 1.386 . S
C221 C225 1.393 . S
C222 H214 0.950 . S
C222 C220 1.391 . S
C222 C223 1.400 . S
C223 C222 1.400 . S
C223 C224 1.398 . S
C223 C229 1.491 . S
C224 H215 0.950 . S
C224 C223 1.398 . S
C224 C225 1.391 . S
C225 H213 0.950 . S
C225 C221 1.393 . S
C225 C224 1.391 . S
C226 H216 0.950 1_455 S
C226 C227 1.386 . S
C226 C228 1.391 . S
C227 C226 1.386 . S
C227 C231 1.393 . S
C228 H217 0.950 . S
C228 C226 1.391 . S
C228 C229 1.400 . S
C229 C223 1.491 . S
C229 C228 1.400 . S
C229 C230 1.398 . S
C230 H218 0.950 . S
C230 C229 1.398 . S
C230 C231 1.391 . S
C231 H219 0.950 . S
C231 C227 1.393 . S
C231 C230 1.391 . S
H232 C240 0.950 1_554 S
H233 C245 0.950 . S
H234 C242 0.950 . S
H235 C244 0.950 . S
H236 C246 0.950 . S
H237 C248 0.950 . S
H238 C250 0.950 . S
H239 C251 0.950 . S
C240 H232 0.950 1_556 S
C240 C241 1.386 . S
C240 C242 1.391 . S
C241 C240 1.386 . S
C241 C245 1.393 1_565 S
C242 H234 0.950 . S
C242 C240 1.391 . S
C242 C243 1.400 1_565 S
C243 C242 1.400 1_545 S
C243 C244 1.398 . S
C243 C249 1.491 . S
C244 H235 0.950 . S
C244 C243 1.398 . S
C244 C245 1.391 . S
C245 H233 0.950 . S
C245 C241 1.393 1_545 S
C245 C244 1.391 . S
C246 H236 0.950 . S
C246 C247 1.386 . S
C246 C248 1.391 . S
C247 C246 1.386 . S
C247 C251 1.393 1_545 S
C248 H237 0.950 . S
C248 C246 1.391 . S
C248 C249 1.400 . S
C249 C243 1.491 . S
C249 C248 1.400 . S
C249 C250 1.398 1_545 S
C250 H238 0.950 . S
C250 C249 1.398 1_565 S
C250 C251 1.391 . S
C251 H239 0.950 . S
C251 C247 1.393 1_565 S
C251 C250 1.391 . S
H252 C260 0.950 . S
H253 C265 0.950 . S
H254 C262 0.950 . S
H255 C264 0.950 . S
H256 C266 0.950 . S
H257 C268 0.950 . S
H258 C270 0.950 . S
H259 C271 0.950 . S
C260 H252 0.950 . S
C260 C261 1.386 1_554 S
C260 C262 1.391 1_554 S
C261 C260 1.386 1_556 S
C261 C265 1.393 . S
C262 H254 0.950 . S
C262 C260 1.391 1_556 S
C262 C263 1.400 . S
C263 C262 1.400 . S
C263 C264 1.398 . S
C263 C269 1.491 . S
C264 H255 0.950 . S
C264 C263 1.398 . S
C264 C265 1.391 . S
C265 H253 0.950 . S
C265 C261 1.393 . S
C265 C264 1.391 . S
C266 H256 0.950 . S
C266 C267 1.386 . S
C266 C268 1.391 . S
C267 C266 1.386 . S
C267 C271 1.393 . S
C268 H257 0.950 . S
C268 C266 1.391 . S
C268 C269 1.400 . S
C269 C263 1.491 . S
C269 C268 1.400 . S
C269 C270 1.398 . S
C270 H258 0.950 . S
C270 C269 1.398 . S
C270 C271 1.391 . S
C271 H259 0.950 . S
C271 C267 1.393 . S
C271 C270 1.391 . S
H272 C280 0.950 1_554 S
H273 C285 0.950 . S
H274 C282 0.950 . S
H275 C284 0.950 . S
H276 C286 0.950 . S
H277 C288 0.950 . S
H278 C290 0.950 . S
H279 C291 0.950 . S
C280 H272 0.950 1_556 S
C280 C281 1.386 . S
C280 C282 1.391 . S
C281 C280 1.386 . S
C281 C285 1.393 . S
C282 H274 0.950 . S
C282 C280 1.391 . S
C282 C283 1.400 . S
C283 C282 1.400 . S
C283 C284 1.398 . S
C283 C289 1.491 . S
C284 H275 0.950 . S
C284 C283 1.398 . S
C284 C285 1.391 . S
C285 H273 0.950 . S
C285 C281 1.393 . S
C285 C284 1.391 . S
C286 H276 0.950 . S
C286 C287 1.386 . S
C286 C288 1.391 . S
C287 C286 1.386 . S
C287 C291 1.393 . S
C288 H277 0.950 . S
C288 C286 1.391 . S
C288 C289 1.400 . S
C289 C283 1.491 . S
C289 C288 1.400 . S
C289 C290 1.398 . S
C290 H278 0.950 . S
C290 C289 1.398 . S
C290 C291 1.391 . S
C291 H279 0.950 . S
C291 C287 1.393 . S
C291 C290 1.391 . S
H292 C300 0.950 . S
H293 C305 0.950 . S
H294 C302 0.950 . S
H295 C304 0.950 . S
H296 C306 0.950 . S
H297 C308 0.950 1_455 S
H298 C310 0.950 . S
H299 C311 0.950 . S
C300 H292 0.950 . S
C300 C301 1.386 . S
C300 C302 1.391 . S
C301 C300 1.386 . S
C301 C305 1.393 . S
C302 H294 0.950 . S
C302 C300 1.391 . S
C302 C303 1.400 . S
C303 C302 1.400 . S
C303 C304 1.398 . S
C303 C309 1.491 . S
C304 H295 0.950 . S
C304 C303 1.398 . S
C304 C305 1.391 . S
C305 H293 0.950 . S
C305 C301 1.393 . S
C305 C304 1.391 . S
C306 H296 0.950 . S
C306 C307 1.386 1_455 S
C306 C308 1.391 1_455 S
C307 C306 1.386 1_655 S
C307 C311 1.393 . S
C308 H297 0.950 1_655 S
C308 C306 1.391 1_655 S
C308 C309 1.400 . S
C309 C303 1.491 . S
C309 C308 1.400 . S
C309 C310 1.398 . S
C310 H298 0.950 . S
C310 C309 1.398 . S
C310 C311 1.391 . S
C311 H299 0.950 . S
C311 C307 1.393 . S
C311 C310 1.391 . S
H312 C320 0.950 . S
H313 C325 0.950 . S
H314 C322 0.950 . S
H315 C324 0.950 . S
H316 C326 0.950 1_655 S
H317 C328 0.950 . S
H318 C330 0.950 . S
H319 C331 0.950 . S
C320 H312 0.950 . S
C320 C321 1.386 . S
C320 C322 1.391 . S
C321 C320 1.386 . S
C321 C325 1.393 . S
C322 H314 0.950 . S
C322 C320 1.391 . S
C322 C323 1.400 . S
C323 C322 1.400 . S
C323 C324 1.398 . S
C323 C329 1.491 . S
C324 H315 0.950 . S
C324 C323 1.398 . S
C324 C325 1.391 . S
C325 H313 0.950 . S
C325 C321 1.393 . S
C325 C324 1.391 . S
C326 H316 0.950 1_455 S
C326 C327 1.386 . S
C326 C328 1.391 . S
C327 C326 1.386 . S
C327 C331 1.393 . S
C328 H317 0.950 . S
C328 C326 1.391 . S
C328 C329 1.400 . S
C329 C323 1.491 . S
C329 C328 1.400 . S
C329 C330 1.398 . S
C330 H318 0.950 . S
C330 C329 1.398 . S
C330 C331 1.391 . S
C331 H319 0.950 . S
C331 C327 1.393 . S
C331 C330 1.391 . S
H332 C340 0.950 . S
H333 C345 0.950 . S
H334 C342 0.950 . S
H335 C344 0.950 . S
H336 C346 0.950 . S
H337 C348 0.950 . S
H338 C350 0.950 . S
H339 C351 0.950 . S
C340 H332 0.950 . S
C340 C341 1.386 . S
C340 C342 1.391 . S
C341 C340 1.386 . S
C341 C345 1.393 1_545 S
C342 H334 0.950 . S
C342 C340 1.391 . S
C342 C343 1.400 1_545 S
C343 C342 1.400 1_565 S
C343 C344 1.398 . S
C343 C349 1.491 . S
C344 H335 0.950 . S
C344 C343 1.398 . S
C344 C345 1.391 . S
C345 H333 0.950 . S
C345 C341 1.393 1_565 S
C345 C344 1.391 . S
C346 H336 0.950 . S
C346 C347 1.386 . S
C346 C348 1.391 . S
C347 C346 1.386 . S
C347 C351 1.393 1_565 S
C348 H337 0.950 . S
C348 C346 1.391 . S
C348 C349 1.400 . S
C349 C343 1.491 . S
C349 C348 1.400 . S
C349 C350 1.398 1_565 S
C350 H338 0.950 . S
C350 C349 1.398 1_545 S
C350 C351 1.391 . S
C351 H339 0.950 . S
C351 C347 1.393 1_545 S
C351 C350 1.391 . S
H352 C360 0.950 . S
H353 C365 0.950 . S
H354 C362 0.950 . S
H355 C364 0.950 . S
H356 C366 0.950 . S
H357 C368 0.950 . S
H358 C370 0.950 . S
H359 C371 0.950 . S
C360 H352 0.950 . S
C360 C361 1.386 . S
C360 C362 1.391 . S
C361 C360 1.386 . S
C361 C365 1.393 . S
C362 H354 0.950 . S
C362 C360 1.391 . S
C362 C363 1.400 . S
C363 C362 1.400 . S
C363 C364 1.398 . S
C363 C369 1.491 . S
C364 H355 0.950 . S
C364 C363 1.398 . S
C364 C365 1.391 . S
C365 H353 0.950 . S
C365 C361 1.393 . S
C365 C364 1.391 . S
C366 H356 0.950 . S
C366 C367 1.386 . S
C366 C368 1.391 . S
C367 C366 1.386 . S
C367 C371 1.393 . S
C368 H357 0.950 . S
C368 C366 1.391 . S
C368 C369 1.400 . S
C369 C363 1.491 . S
C369 C368 1.400 . S
C369 C370 1.398 . S
C370 H358 0.950 . S
C370 C369 1.398 . S
C370 C371 1.391 . S
C371 H359 0.950 . S
C371 C367 1.393 . S
C371 C370 1.391 . S
H372 C380 0.950 . S
H373 C385 0.950 . S
H374 C382 0.950 . S
H375 C384 0.950 . S
H376 C386 0.950 . S
H377 C388 0.950 . S
H378 C390 0.950 . S
H379 C391 0.950 . S
C380 H372 0.950 . S
C380 C381 1.386 . S
C380 C382 1.391 . S
C381 C380 1.386 . S
C381 C385 1.393 . S
C382 H374 0.950 . S
C382 C380 1.391 . S
C382 C383 1.400 . S
C383 C382 1.400 . S
C383 C384 1.398 . S
C383 C389 1.491 . S
C384 H375 0.950 . S
C384 C383 1.398 . S
C384 C385 1.391 . S
C385 H373 0.950 . S
C385 C381 1.393 . S
C385 C384 1.391 . S
C386 H376 0.950 . S
C386 C387 1.386 . S
C386 C388 1.391 . S
C387 C386 1.386 . S
C387 C391 1.393 . S
C388 H377 0.950 . S
C388 C386 1.391 . S
C388 C389 1.400 . S
C389 C383 1.491 . S
C389 C388 1.400 . S
C389 C390 1.398 . S
C390 H378 0.950 . S
C390 C389 1.398 . S
C390 C391 1.391 . S
C391 H379 0.950 . S
C391 C387 1.393 . S
C391 C390 1.391 . S
H392 C400 0.950 . S
H393 C405 0.950 . S
H394 C402 0.950 . S
H395 C404 0.950 . S
H396 C406 0.950 . S
H397 C408 0.950 1_455 S
H398 C410 0.950 . S
H399 C411 0.950 . S
C400 H392 0.950 . S
C400 C401 1.386 . S
C400 C402 1.391 . S
C401 C400 1.386 . S
C401 C405 1.393 . S
C402 H394 0.950 . S
C402 C400 1.391 . S
C402 C403 1.400 . S
C403 C402 1.400 . S
C403 C404 1.398 . S
C403 C409 1.491 . S
C404 H395 0.950 . S
C404 C403 1.398 . S
C404 C405 1.391 . S
C405 H393 0.950 . S
C405 C401 1.393 . S
C405 C404 1.391 . S
C406 H396 0.950 . S
C406 C407 1.392 . S
C406 C408 1.391 1_455 S
C407 C406 1.392 . S
C407 C411 1.381 1_455 S
C408 H397 0.950 1_655 S
C408 C406 1.391 1_655 S
C408 C409 1.400 . S
C409 C403 1.491 . S
C409 C408 1.400 . S
C409 C410 1.398 . S
C410 H398 0.950 . S
C410 C409 1.398 . S
C410 C411 1.391 . S
C411 H399 0.950 . S
C411 C407 1.381 1_655 S
C411 C410 1.391 . S
H412 C420 0.950 . S
H413 C425 0.950 . S
H414 C422 0.950 1_554 S
H415 C424 0.950 . S
H416 C426 0.950 . S
H417 C428 0.950 . S
H418 C430 0.950 . S
H419 C431 0.950 . S
C420 H412 0.950 . S
C420 C421 1.387 1_554 S
C420 C422 1.391 1_554 S
C421 C420 1.387 1_556 S
C421 C425 1.393 1_545 S
C422 H414 0.950 1_556 S
C422 C420 1.391 1_556 S
C422 C423 1.400 . S
C423 C422 1.400 . S
C423 C424 1.398 . S
C423 C429 1.491 . S
C424 H415 0.950 . S
C424 C423 1.398 . S
C424 C425 1.391 1_545 S
C425 H413 0.950 . S
C425 C421 1.393 1_565 S
C425 C424 1.391 1_565 S
C426 H416 0.950 . S
C426 C427 1.386 . S
C426 C428 1.391 . S
C427 C426 1.386 . S
C427 C431 1.393 . S
C428 H417 0.950 . S
C428 C426 1.391 . S
C428 C429 1.400 . S
C429 C423 1.491 . S
C429 C428 1.400 . S
C429 C430 1.398 . S
C430 H418 0.950 . S
C430 C429 1.398 . S
C430 C431 1.391 . S
C431 H419 0.950 . S
C431 C427 1.393 . S
C431 C430 1.391 . S
H432 C440 0.950 . S
H433 C445 0.950 1_554 S
H434 C442 0.950 . S
H435 C444 0.950 . S
H436 C446 0.950 . S
H437 C448 0.950 . S
H438 C450 0.950 . S
H439 C451 0.950 . S
C440 H432 0.950 . S
C440 C441 1.386 . S
C440 C442 1.391 . S
C441 C440 1.386 . S
C441 C445 1.393 . S
C442 H434 0.950 . S
C442 C440 1.391 . S
C442 C443 1.400 . S
C443 C442 1.400 . S
C443 C444 1.398 . S
C443 C449 1.491 . S
C444 H435 0.950 . S
C444 C443 1.398 . S
C444 C445 1.391 . S
C445 H433 0.950 1_556 S
C445 C441 1.393 . S
C445 C444 1.391 . S
C446 H436 0.950 . S
C446 C447 1.386 . S
C446 C448 1.391 . S
C447 C446 1.386 . S
C447 C451 1.393 . S
C448 H437 0.950 . S
C448 C446 1.391 . S
C448 C449 1.400 . S
C449 C443 1.491 . S
C449 C448 1.400 . S
C449 C450 1.398 . S
C450 H438 0.950 . S
C450 C449 1.398 . S
C450 C451 1.391 . S
C451 H439 0.950 . S
C451 C447 1.393 . S
C451 C450 1.391 . S
H452 C460 0.950 1_554 S
H453 C465 0.950 . S
H454 C462 0.950 . S
H455 C464 0.950 . S
H456 C466 0.950 . S
H457 C468 0.950 . S
H458 C470 0.950 . S
H459 C471 0.950 . S
C460 H452 0.950 1_556 S
C460 C461 1.386 . S
C460 C462 1.391 . S
C461 C460 1.386 . S
C461 C465 1.393 . S
C462 H454 0.950 . S
C462 C460 1.391 . S
C462 C463 1.400 . S
C463 C462 1.400 . S
C463 C464 1.398 . S
C463 C469 1.491 . S
C464 H455 0.950 . S
C464 C463 1.398 . S
C464 C465 1.391 . S
C465 H453 0.950 . S
C465 C461 1.393 . S
C465 C464 1.391 . S
C466 H456 0.950 . S
C466 C467 1.386 . S
C466 C468 1.391 . S
C467 C466 1.386 . S
C467 C471 1.393 . S
C468 H457 0.950 . S
C468 C466 1.391 . S
C468 C469 1.400 . S
C469 C463 1.491 . S
C469 C468 1.400 . S
C469 C470 1.398 . S
C470 H458 0.950 . S
C470 C469 1.398 . S
C470 C471 1.391 . S
C471 H459 0.950 . S
C471 C467 1.393 . S
C471 C470 1.391 . S
H472 C480 0.950 . S
H473 C485 0.950 . S
H474 C482 0.950 . S
H475 C484 0.950 . S
H476 C486 0.950 . S
H477 C488 0.950 . S
H478 C490 0.950 . S
H479 C491 0.950 . S
C480 H472 0.950 . S
C480 C481 1.386 . S
C480 C482 1.391 . S
C481 C480 1.386 . S
C481 C485 1.393 . S
C482 H474 0.950 . S
C482 C480 1.391 . S
C482 C483 1.400 . S
C483 C482 1.400 . S
C483 C484 1.398 . S
C483 C489 1.491 . S
C484 H475 0.950 . S
C484 C483 1.398 . S
C484 C485 1.391 . S
C485 H473 0.950 . S
C485 C481 1.393 . S
C485 C484 1.391 . S
C486 H476 0.950 . S
C486 C487 1.386 . S
C486 C488 1.391 . S
C487 C486 1.386 . S
C487 C491 1.393 . S
C488 H477 0.950 . S
C488 C486 1.391 . S
C488 C489 1.400 . S
C489 C483 1.491 . S
C489 C488 1.400 . S
C489 C490 1.398 . S
C490 H478 0.950 . S
C490 C489 1.398 . S
C490 C491 1.391 . S
C491 H479 0.950 . S
C491 C487 1.393 . S
C491 C490 1.391 . S
H492 C500 0.950 1_554 S
H493 C505 0.950 . S
H494 C502 0.950 . S
H495 C504 0.950 . S
H496 C506 0.950 . S
H497 C508 0.950 . S
H498 C510 0.950 . S
H499 C511 0.950 . S
C500 H492 0.950 1_556 S
C500 C501 1.390 . S
C500 C502 1.391 . S
C501 C500 1.390 . S
C501 C505 1.389 1_565 S
C502 H494 0.950 . S
C502 C500 1.391 . S
C502 C503 1.400 1_565 S
C503 C502 1.400 1_545 S
C503 C504 1.398 . S
C503 C509 1.491 . S
C504 H495 0.950 . S
C504 C503 1.398 . S
C504 C505 1.391 . S
C505 H493 0.950 . S
C505 C501 1.389 1_545 S
C505 C504 1.391 . S
C506 H496 0.950 . S
C506 C507 1.386 . S
C506 C508 1.391 . S
C507 C506 1.386 . S
C507 C511 1.393 1_545 S
C508 H497 0.950 . S
C508 C506 1.391 . S
C508 C509 1.400 . S
C509 C503 1.491 . S
C509 C508 1.400 . S
C509 C510 1.398 1_545 S
C510 H498 0.950 . S
C510 C509 1.398 1_565 S
C510 C511 1.391 . S
C511 H499 0.950 . S
C511 C507 1.393 1_565 S
C511 C510 1.391 . S
H512 C520 0.950 . S
H513 C525 0.950 . S
H514 C522 0.950 . S
H515 C524 0.950 . S
H516 C526 0.950 . S
H517 C528 0.950 . S
H518 C530 0.950 . S
H519 C531 0.950 . S
C520 H512 0.950 . S
C520 C521 1.386 . S
C520 C522 1.391 . S
C521 C520 1.386 . S
C521 C525 1.393 . S
C522 H514 0.950 . S
C522 C520 1.391 . S
C522 C523 1.400 . S
C523 C522 1.400 . S
C523 C524 1.398 . S
C523 C529 1.491 . S
C524 H515 0.950 . S
C524 C523 1.398 . S
C524 C525 1.391 . S
C525 H513 0.950 . S
C525 C521 1.393 . S
C525 C524 1.391 . S
C526 H516 0.950 . S
C526 C527 1.386 . S
C526 C528 1.391 . S
C527 C526 1.386 . S
C527 C531 1.393 . S
C528 H517 0.950 . S
C528 C526 1.391 . S
C528 C529 1.400 . S
C529 C523 1.491 . S
C529 C528 1.400 . S
C529 C530 1.398 . S
C530 H518 0.950 . S
C530 C529 1.398 . S
C530 C531 1.391 . S
C531 H519 0.950 . S
C531 C527 1.393 . S
C531 C530 1.391 . S
H532 C540 0.950 1_554 S
H533 C545 0.950 . S
H534 C542 0.950 . S
H535 C544 0.950 . S
H536 C546 0.950 . S
H537 C548 0.950 . S
H538 C550 0.950 . S
H539 C551 0.950 . S
C540 H532 0.950 1_556 S
C540 C541 1.386 . S
C540 C542 1.391 . S
C541 C540 1.386 . S
C541 C545 1.393 . S
C542 H534 0.950 . S
C542 C540 1.391 . S
C542 C543 1.400 . S
C543 C542 1.400 . S
C543 C544 1.398 . S
C543 C549 1.491 . S
C544 H535 0.950 . S
C544 C543 1.398 . S
C544 C545 1.391 . S
C545 H533 0.950 . S
C545 C541 1.393 . S
C545 C544 1.391 . S
C546 H536 0.950 . S
C546 C547 1.386 . S
C546 C548 1.391 . S
C547 C546 1.386 . S
C547 C551 1.393 . S
C548 H537 0.950 . S
C548 C546 1.391 . S
C548 C549 1.400 . S
C549 C543 1.491 . S
C549 C548 1.400 . S
C549 C550 1.398 . S
C550 H538 0.950 . S
C550 C549 1.398 . S
C550 C551 1.391 . S
C551 H539 0.950 . S
C551 C547 1.393 . S
C551 C550 1.391 . S
H552 C560 0.950 . S
H553 C565 0.950 . S
H554 C562 0.950 . S
H555 C564 0.950 . S
H556 C566 0.950 . S
H557 C568 0.950 . S
H558 C570 0.950 . S
H559 C571 0.950 . S
C560 H552 0.950 . S
C560 C561 1.386 . S
C560 C562 1.391 . S
C561 C560 1.386 . S
C561 C565 1.393 . S
C562 H554 0.950 . S
C562 C560 1.391 . S
C562 C563 1.400 . S
C563 C562 1.400 . S
C563 C564 1.398 . S
C563 C569 1.491 . S
C564 H555 0.950 . S
C564 C563 1.398 . S
C564 C565 1.391 . S
C565 H553 0.950 . S
C565 C561 1.393 . S
C565 C564 1.391 . S
C566 H556 0.950 . S
C566 C567 1.386 . S
C566 C568 1.391 . S
C567 C566 1.386 . S
C567 C571 1.393 . S
C568 H557 0.950 . S
C568 C566 1.391 . S
C568 C569 1.400 . S
C569 C563 1.491 . S
C569 C568 1.400 . S
C569 C570 1.398 . S
C570 H558 0.950 . S
C570 C569 1.398 . S
C570 C571 1.391 . S
C571 H559 0.950 . S
C571 C567 1.393 . S
C571 C570 1.391 . S
H572 C580 0.950 . S
H573 C585 0.950 . S
H574 C582 0.950 . S
H575 C584 0.950 . S
H576 C586 0.950 . S
H577 C588 0.950 . S
H578 C590 0.950 . S
H579 C591 0.950 . S
C580 H572 0.950 . S
C580 C581 1.408 . S
C580 C582 1.391 . S
C581 C580 1.408 . S
C581 C585 1.370 1_565 S
C582 H574 0.950 . S
C582 C580 1.391 . S
C582 C583 1.400 . S
C583 C582 1.400 . S
C583 C584 1.398 1_565 S
C583 C589 1.491 . S
C584 H575 0.950 . S
C584 C583 1.398 1_545 S
C584 C585 1.391 . S
C585 H573 0.950 . S
C585 C581 1.370 1_545 S
C585 C584 1.391 . S
C586 H576 0.950 . S
C586 C587 1.386 1_545 S
C586 C588 1.391 . S
C587 C586 1.386 1_565 S
C587 C591 1.393 . S
C588 H577 0.950 . S
C588 C586 1.391 . S
C588 C589 1.400 1_545 S
C589 C583 1.491 . S
C589 C588 1.400 1_565 S
C589 C590 1.398 . S
C590 H578 0.950 . S
C590 C589 1.398 . S
C590 C591 1.391 . S
C591 H579 0.950 . S
C591 C587 1.393 . S
C591 C590 1.391 . S
H592 C600 0.950 . S
H593 C605 0.950 . S
H594 C602 0.950 . S
H595 C604 0.950 . S
H596 C606 0.950 . S
H597 C608 0.950 . S
H598 C610 0.950 . S
H599 C611 0.950 . S
C600 H592 0.950 . S
C600 C601 1.386 . S
C600 C602 1.391 . S
C601 C600 1.386 . S
C601 C605 1.393 . S
C602 H594 0.950 . S
C602 C600 1.391 . S
C602 C603 1.400 . S
C603 C602 1.400 . S
C603 C604 1.398 . S
C603 C609 1.491 . S
C604 H595 0.950 . S
C604 C603 1.398 . S
C604 C605 1.391 . S
C605 H593 0.950 . S
C605 C601 1.393 . S
C605 C604 1.391 . S
C606 H596 0.950 . S
C606 C607 1.386 . S
C606 C608 1.391 . S
C607 C606 1.386 . S
C607 C611 1.393 . S
C608 H597 0.950 . S
C608 C606 1.391 . S
C608 C609 1.400 . S
C609 C603 1.491 . S
C609 C608 1.400 . S
C609 C610 1.398 . S
C610 H598 0.950 . S
C610 C609 1.398 . S
C610 C611 1.391 . S
C611 H599 0.950 . S
C611 C607 1.393 . S
C611 C610 1.391 . S
H612 C620 0.950 . S
H613 C625 0.950 . S
H614 C622 0.950 . S
H615 C624 0.950 . S
H616 C626 0.950 . S
H617 C628 0.950 . S
H618 C630 0.950 . S
H619 C631 0.950 . S
C620 H612 0.950 . S
C620 C621 1.386 . S
C620 C622 1.391 . S
C621 C620 1.386 . S
C621 C625 1.393 . S
C622 H614 0.950 . S
C622 C620 1.391 . S
C622 C623 1.400 . S
C623 C622 1.400 . S
C623 C624 1.398 . S
C623 C629 1.491 . S
C624 H615 0.950 . S
C624 C623 1.398 . S
C624 C625 1.391 . S
C625 H613 0.950 . S
C625 C621 1.393 . S
C625 C624 1.391 . S
C626 H616 0.950 . S
C626 C627 1.386 . S
C626 C628 1.391 . S
C627 C626 1.386 . S
C627 C631 1.393 . S
C628 H617 0.950 . S
C628 C626 1.391 . S
C628 C629 1.400 . S
C629 C623 1.491 . S
C629 C628 1.400 . S
C629 C630 1.398 . S
C630 H618 0.950 . S
C630 C629 1.398 . S
C630 C631 1.391 . S
C631 H619 0.950 . S
C631 C627 1.393 . S
C631 C630 1.391 . S
C161 C61 1.534 1_545 S
C167 C80 1.572 . S
C187 C110 1.885 . S
C181 C70 1.833 . S
C207 C120 1.562 . S
C201 C43 1.517 . S
C227 C140 1.440 . S
C221 C52 1.381 . S
C247 C81 1.574 . S
C241 C25 1.515 1_556 S
C261 C34 1.825 1_556 S
C267 C111 1.885 . S
C281 C7 1.485 1_556 S
C287 C121 1.556 . S
C301 C16 1.365 1_556 S
C307 C141 1.443 . S
C327 C73 0.708 . S
C321 C50 0.711 . S
C347 C94 0.370 . S
C341 C59 0.411 1_545 S
C367 C113 0.893 . S
C361 C67 0.903 . S
C381 C41 0.623 . S
C387 C133 0.631 . S
C401 C14 0.704 . S
C407 C74 0.737 . S
C427 C93 0.364 . S
C421 C23 0.375 1_545 S
C447 C114 0.910 . S
C441 C31 0.917 1_556 S
C461 C5 0.640 . S
C467 C134 0.612 . S
C481 C49 1.661 . S
C487 C91 1.770 . S
C501 C58 1.321 . S
C507 C101 1.409 . S
C527 C131 1.849 . S
C521 C68 1.759 . S
C547 C151 1.844 . S
C541 C40 1.750 . S
C561 C13 1.674 . S
C567 C90 1.776 . S
C587 C100 1.414 . S
C581 C22 1.330 . S
C607 C130 1.859 . S
C601 C32 1.723 . S
C621 C4 1.745 . S
C627 C150 1.831 . S
