# Generated by pormake.
# Topology eea, (3,6)-cn, num edge types: 1
# Building blocks:
#     Node 0, Type 0, BuildingBlock: BETDIP_clean_linker_0, # of connection points: 3
#     Node 1, Type 0, BuildingBlock: BETDIP_clean_linker_0, # of connection points: 3
#     Node 2, Type 0, BuildingBlock: BETDIP_clean_linker_0, # of connection points: 3
#     Node 3, Type 0, BuildingBlock: BETDIP_clean_linker_0, # of connection points: 3
#     Node 4, Type 0, BuildingBlock: BETDIP_clean_linker_0, # of connection points: 3
#     Node 5, Type 0, BuildingBlock: BETDIP_clean_linker_0, # of connection points: 3
#     Node 6, Type 0, BuildingBlock: BETDIP_clean_linker_0, # of connection points: 3
#     Node 7, Type 0, BuildingBlock: BETDIP_clean_linker_0, # of connection points: 3
#     Node 8, Type 0, BuildingBlock: BETDIP_clean_linker_0, # of connection points: 3
#     Node 9, Type 0, BuildingBlock: BETDIP_clean_linker_0, # of connection points: 3
#     Node 10, Type 0, BuildingBlock: BETDIP_clean_linker_0, # of connection points: 3
#     Node 11, Type 0, BuildingBlock: BETDIP_clean_linker_0, # of connection points: 3
#     Node 12, Type 0, BuildingBlock: BETDIP_clean_linker_0, # of connection points: 3
#     Node 13, Type 0, BuildingBlock: BETDIP_clean_linker_0, # of connection points: 3
#     Node 14, Type 0, BuildingBlock: BETDIP_clean_linker_0, # of connection points: 3
#     Node 15, Type 0, BuildingBlock: BETDIP_clean_linker_0, # of connection points: 3
#     Node 16, Type 0, BuildingBlock: BETDIP_clean_linker_0, # of connection points: 3
#     Node 17, Type 0, BuildingBlock: BETDIP_clean_linker_0, # of connection points: 3
#     Node 18, Type 1, BuildingBlock: NUHQIS_clean_sbu_0, # of connection points: 6
#     Node 19, Type 1, BuildingBlock: NUHQIS_clean_sbu_0, # of connection points: 6
#     Node 20, Type 1, BuildingBlock: NUHQIS_clean_sbu_0, # of connection points: 6
#     Node 21, Type 1, BuildingBlock: NUHQIS_clean_sbu_0, # of connection points: 6
#     Node 22, Type 1, BuildingBlock: NUHQIS_clean_sbu_0, # of connection points: 6
#     Node 23, Type 1, BuildingBlock: NUHQIS_clean_sbu_0, # of connection points: 6
#     Node 24, Type 1, BuildingBlock: NUHQIS_clean_sbu_0, # of connection points: 6
#     Node 25, Type 1, BuildingBlock: NUHQIS_clean_sbu_0, # of connection points: 6
#     Node 26, Type 1, BuildingBlock: NUHQIS_clean_sbu_0, # of connection points: 6
#     Edge 27, Type (0, 1), BuildingBlock: OJICUG_clean_linker_0, # of connection points: 2
#     Edge 28, Type (0, 1), BuildingBlock: OJICUG_clean_linker_0, # of connection points: 2
#     Edge 29, Type (0, 1), BuildingBlock: OJICUG_clean_linker_0, # of connection points: 2
#     Edge 30, Type (0, 1), BuildingBlock: OJICUG_clean_linker_0, # of connection points: 2
#     Edge 31, Type (0, 1), BuildingBlock: OJICUG_clean_linker_0, # of connection points: 2
#     Edge 32, Type (0, 1), BuildingBlock: OJICUG_clean_linker_0, # of connection points: 2
#     Edge 33, Type (0, 1), BuildingBlock: OJICUG_clean_linker_0, # of connection points: 2
#     Edge 34, Type (0, 1), BuildingBlock: OJICUG_clean_linker_0, # of connection points: 2
#     Edge 35, Type (0, 1), BuildingBlock: OJICUG_clean_linker_0, # of connection points: 2
#     Edge 36, Type (0, 1), BuildingBlock: OJICUG_clean_linker_0, # of connection points: 2
#     Edge 37, Type (0, 1), BuildingBlock: OJICUG_clean_linker_0, # of connection points: 2
#     Edge 38, Type (0, 1), BuildingBlock: OJICUG_clean_linker_0, # of connection points: 2
#     Edge 39, Type (0, 1), BuildingBlock: OJICUG_clean_linker_0, # of connection points: 2
#     Edge 40, Type (0, 1), BuildingBlock: OJICUG_clean_linker_0, # of connection points: 2
#     Edge 41, Type (0, 1), BuildingBlock: OJICUG_clean_linker_0, # of connection points: 2
#     Edge 42, Type (0, 1), BuildingBlock: OJICUG_clean_linker_0, # of connection points: 2
#     Edge 43, Type (0, 1), BuildingBlock: OJICUG_clean_linker_0, # of connection points: 2
#     Edge 44, Type (0, 1), BuildingBlock: OJICUG_clean_linker_0, # of connection points: 2
#     Edge 45, Type (0, 1), BuildingBlock: OJICUG_clean_linker_0, # of connection points: 2
#     Edge 46, Type (0, 1), BuildingBlock: OJICUG_clean_linker_0, # of connection points: 2
#     Edge 47, Type (0, 1), BuildingBlock: OJICUG_clean_linker_0, # of connection points: 2
#     Edge 48, Type (0, 1), BuildingBlock: OJICUG_clean_linker_0, # of connection points: 2
#     Edge 49, Type (0, 1), BuildingBlock: OJICUG_clean_linker_0, # of connection points: 2
#     Edge 50, Type (0, 1), BuildingBlock: OJICUG_clean_linker_0, # of connection points: 2
#     Edge 51, Type (0, 1), BuildingBlock: OJICUG_clean_linker_0, # of connection points: 2
#     Edge 52, Type (0, 1), BuildingBlock: OJICUG_clean_linker_0, # of connection points: 2
#     Edge 53, Type (0, 1), BuildingBlock: OJICUG_clean_linker_0, # of connection points: 2
#     Edge 54, Type (0, 1), BuildingBlock: OJICUG_clean_linker_0, # of connection points: 2
#     Edge 55, Type (0, 1), BuildingBlock: OJICUG_clean_linker_0, # of connection points: 2
#     Edge 56, Type (0, 1), BuildingBlock: OJICUG_clean_linker_0, # of connection points: 2
#     Edge 57, Type (0, 1), BuildingBlock: OJICUG_clean_linker_0, # of connection points: 2
#     Edge 58, Type (0, 1), BuildingBlock: OJICUG_clean_linker_0, # of connection points: 2
#     Edge 59, Type (0, 1), BuildingBlock: OJICUG_clean_linker_0, # of connection points: 2
#     Edge 60, Type (0, 1), BuildingBlock: OJICUG_clean_linker_0, # of connection points: 2
#     Edge 61, Type (0, 1), BuildingBlock: OJICUG_clean_linker_0, # of connection points: 2
#     Edge 62, Type (0, 1), BuildingBlock: OJICUG_clean_linker_0, # of connection points: 2
#     Edge 63, Type (0, 1), BuildingBlock: OJICUG_clean_linker_0, # of connection points: 2
#     Edge 64, Type (0, 1), BuildingBlock: OJICUG_clean_linker_0, # of connection points: 2
#     Edge 65, Type (0, 1), BuildingBlock: OJICUG_clean_linker_0, # of connection points: 2
#     Edge 66, Type (0, 1), BuildingBlock: OJICUG_clean_linker_0, # of connection points: 2
#     Edge 67, Type (0, 1), BuildingBlock: OJICUG_clean_linker_0, # of connection points: 2
#     Edge 68, Type (0, 1), BuildingBlock: OJICUG_clean_linker_0, # of connection points: 2
#     Edge 69, Type (0, 1), BuildingBlock: OJICUG_clean_linker_0, # of connection points: 2
#     Edge 70, Type (0, 1), BuildingBlock: OJICUG_clean_linker_0, # of connection points: 2
#     Edge 71, Type (0, 1), BuildingBlock: OJICUG_clean_linker_0, # of connection points: 2
#     Edge 72, Type (0, 1), BuildingBlock: OJICUG_clean_linker_0, # of connection points: 2
#     Edge 73, Type (0, 1), BuildingBlock: OJICUG_clean_linker_0, # of connection points: 2
#     Edge 74, Type (0, 1), BuildingBlock: OJICUG_clean_linker_0, # of connection points: 2
#     Edge 75, Type (0, 1), BuildingBlock: OJICUG_clean_linker_0, # of connection points: 2
#     Edge 76, Type (0, 1), BuildingBlock: OJICUG_clean_linker_0, # of connection points: 2
#     Edge 77, Type (0, 1), BuildingBlock: OJICUG_clean_linker_0, # of connection points: 2
#     Edge 78, Type (0, 1), BuildingBlock: OJICUG_clean_linker_0, # of connection points: 2
#     Edge 79, Type (0, 1), BuildingBlock: OJICUG_clean_linker_0, # of connection points: 2
#     Edge 80, Type (0, 1), BuildingBlock: OJICUG_clean_linker_0, # of connection points: 2
# Relax obj value: 0.062
# Max RMSD: 0.228
# Mean RMSD: 0.163
data_MOF--net-eea--node1-NUHQIS_clean_sbu_0--node2-BETDIP_clean_linker_0--edge1-OJICUG_clean_linker_0
_symmetry_space_group_name_H-M    P1
_symmetry_Int_Tables_number       1
_symmetry_cell_setting            triclinic
loop_
_symmetry_equiv_pos_as_xyz
'x, y, z'
_cell_length_a     39.254766
_cell_length_b     39.85012
_cell_length_c     54.466417
_cell_angle_alpha  92.347289
_cell_angle_beta   92.329364
_cell_angle_gamma 120.10468
loop_
_atom_site_label
_atom_site_type_symbol
_atom_site_fract_x
_atom_site_fract_y
_atom_site_fract_z
_atom_type_partial_charge
H0 H 0.22968 0.09273 0.3757 0.0
H1 H 0.28309 0.17743 0.43726 0.0
H2 H 0.28921 0.07334 0.43714 0.0
H3 H 0.28852 0.21872 0.41015 0.0
C4 C 0.26258 0.20323 0.39738 0.0
C5 C 0.24676 0.10217 0.39326 0.0
C6 C 0.25787 0.07783 0.40499 0.0
C7 C 0.25704 0.13879 0.40419 0.0
C8 C 0.27681 0.15033 0.42782 0.0
C9 C 0.28825 0.12666 0.43976 0.0
C10 C 0.27963 0.09109 0.42797 0.0
N11 N 0.24583 0.16267 0.39144 0.0
H12 H 0.94491 0.13123 0.38672 0.0
H13 H 0.86107 0.1099 0.44036 0.0
H14 H 0.96374 0.22358 0.43985 0.0
H15 H 0.82211 0.08093 0.39615 0.0
C16 C 0.83467 0.06204 0.39651 0.0
C17 C 0.93576 0.14222 0.40208 0.0
C18 C 0.9591 0.18113 0.41166 0.0
C19 C 0.89993 0.11718 0.41187 0.0
C20 C 0.88803 0.13013 0.43228 0.0
C21 C 0.91145 0.1682 0.44295 0.0
C22 C 0.94662 0.19373 0.43228 0.0
N23 N 0.87605 0.07871 0.40116 0.0
H24 H 0.89201 0.79989 0.38696 0.0
H25 H 0.92371 0.74973 0.44555 0.0
H26 H 0.81113 0.7431 0.44283 0.0
H27 H 0.98516 0.79096 0.43507 0.0
C28 C 0.98302 0.79253 0.41526 0.0
C29 C 0.88423 0.78395 0.4034 0.0
C30 C 0.84772 0.77256 0.4133 0.0
C31 C 0.9119 0.77621 0.41483 0.0
C32 C 0.90307 0.75673 0.43676 0.0
C33 C 0.86676 0.74496 0.44707 0.0
C34 C 0.8392 0.75258 0.43503 0.0
N35 N 0.94784 0.78787 0.40338 0.0
H36 H 0.09398 0.21536 0.64205 0.0
H37 H 0.17027 0.26038 0.58323 0.0
H38 H 0.06186 0.26234 0.58106 0.0
H39 H 0.18205 0.21159 0.59197 0.0
C40 C 0.18446 0.21404 0.61198 0.0
C41 C 0.09968 0.22824 0.62447 0.0
C42 C 0.07319 0.23805 0.61315 0.0
C43 C 0.13375 0.23466 0.61331 0.0
C44 C 0.14275 0.25312 0.59113 0.0
C45 C 0.1172 0.26358 0.57945 0.0
C46 C 0.08229 0.2556 0.59048 0.0
N47 N 0.15882 0.22286 0.62494 0.0
H48 H 0.78753 0.87326 0.65906 0.0
H49 H 0.74954 0.90434 0.59304 0.0
H50 H 0.75138 0.79794 0.59234 0.0
H51 H 0.73583 0.93907 0.61887 0.0
C52 C 0.7604 0.95084 0.63273 0.0
C53 C 0.77663 0.86658 0.63986 0.0
C54 C 0.77034 0.8321 0.6273 0.0
C55 C 0.76847 0.89247 0.62787 0.0
C56 C 0.7548 0.88418 0.60289 0.0
C57 C 0.74794 0.84986 0.59019 0.0
C58 C 0.75559 0.82388 0.60247 0.0
N59 N 0.77582 0.92736 0.64096 0.0
H60 H 0.14001 0.91795 0.64345 0.0
H61 H 0.10633 0.8338 0.58197 0.0
H62 H 0.21789 0.9396 0.58512 0.0
H63 H 0.04577 0.81518 0.59386 0.0
C64 C 0.04845 0.81913 0.61383 0.0
C65 C 0.14705 0.90903 0.62625 0.0
C66 C 0.18245 0.93399 0.61563 0.0
C67 C 0.11944 0.87291 0.61441 0.0
C68 C 0.1273 0.86147 0.59146 0.0
C69 C 0.16237 0.88618 0.58048 0.0
C70 C 0.19007 0.92162 0.59307 0.0
N71 N 0.08412 0.84918 0.62613 0.0
H72 H 0.90813 0.43492 0.70497 0.0
H73 H 0.95257 0.51257 0.77047 0.0
H74 H 0.95154 0.4047 0.76935 0.0
H75 H 0.95643 0.55611 0.74624 0.0
C76 C 0.93334 0.54144 0.73153 0.0
C77 C 0.92111 0.44176 0.72374 0.0
C78 C 0.92909 0.41545 0.73554 0.0
C79 C 0.92992 0.47716 0.73589 0.0
C80 C 0.94649 0.48603 0.76038 0.0
C81 C 0.95516 0.46034 0.7723 0.0
C82 C 0.94634 0.4252 0.75977 0.0
N83 N 0.92023 0.50226 0.72332 0.0
H84 H 0.60787 0.4678 0.71635 0.0
H85 H 0.52639 0.44354 0.77221 0.0
H86 H 0.62624 0.55837 0.77084 0.0
H87 H 0.52242 0.38398 0.76666 0.0
C88 C 0.51888 0.38048 0.74666 0.0
C89 C 0.59883 0.47806 0.73211 0.0
C90 C 0.62182 0.51687 0.74199 0.0
C91 C 0.56481 0.45146 0.74305 0.0
C92 C 0.55294 0.46383 0.76383 0.0
C93 C 0.5753 0.50217 0.77414 0.0
C94 C 0.60959 0.52857 0.76311 0.0
N95 N 0.54279 0.41247 0.7327 0.0
H96 H 0.55685 0.13168 0.71991 0.0
H97 H 0.59017 0.08478 0.77977 0.0
H98 H 0.47622 0.07508 0.77587 0.0
H99 H 0.65129 0.12606 0.76899 0.0
C100 C 0.6491 0.12705 0.74913 0.0
C101 C 0.54938 0.11627 0.73656 0.0
C102 C 0.51282 0.10479 0.74646 0.0
C103 C 0.57744 0.10929 0.7483 0.0
C104 C 0.5689 0.09046 0.77049 0.0
C105 C 0.53269 0.07895 0.78087 0.0
C106 C 0.50474 0.08559 0.76844 0.0
N107 N 0.61359 0.12131 0.737 0.0
H108 H 0.76085 0.54992 0.9765 0.0
H109 H 0.83826 0.59762 0.91839 0.0
H110 H 0.73074 0.60117 0.91714 0.0
H111 H 0.85065 0.54932 0.92654 0.0
C112 C 0.85207 0.55021 0.94653 0.0
C113 C 0.76703 0.56385 0.95929 0.0
C114 C 0.74077 0.57421 0.94827 0.0
C115 C 0.80143 0.57099 0.94827 0.0
C116 C 0.8111 0.59086 0.92661 0.0
C117 C 0.78599 0.60227 0.9154 0.0
C118 C 0.75053 0.59319 0.92609 0.0
N119 N 0.82601 0.55831 0.95956 0.0
H120 H 0.45344 0.20464 0.98939 0.0
H121 H 0.41404 0.23424 0.92327 0.0
H122 H 0.4131 0.12663 0.92375 0.0
H123 H 0.40439 0.2724 0.9481 0.0
C124 C 0.42857 0.28345 0.96219 0.0
C125 C 0.44168 0.19734 0.97036 0.0
C126 C 0.43409 0.16209 0.95821 0.0
C127 C 0.43385 0.2233 0.95815 0.0
C128 C 0.41908 0.21417 0.93337 0.0
C129 C 0.41083 0.17905 0.92114 0.0
C130 C 0.41827 0.15312 0.93361 0.0
N131 N 0.44262 0.25903 0.97078 0.0
H132 H 0.80369 0.25067 0.97523 0.0
H133 H 0.77134 0.16286 0.91631 0.0
H134 H 0.88337 0.26815 0.91853 0.0
H135 H 0.71007 0.14674 0.92653 0.0
C136 C 0.71235 0.15108 0.94648 0.0
C137 C 0.81121 0.24063 0.95866 0.0
C138 C 0.84733 0.26442 0.94838 0.0
C139 C 0.78354 0.2042 0.94729 0.0
C140 C 0.79203 0.19118 0.92517 0.0
C141 C 0.82802 0.21439 0.91467 0.0
C142 C 0.85557 0.25055 0.92659 0.0
N143 N 0.74777 0.18144 0.95881 0.0
H144 H 0.56236 0.76044 0.04246 0.0
H145 H 0.61696 0.84439 0.10434 0.0
H146 H 0.62152 0.7395 0.10336 0.0
H147 H 0.61884 0.88578 0.07908 0.0
C148 C 0.59419 0.87032 0.06541 0.0
C149 C 0.5796 0.76957 0.05997 0.0
C150 C 0.59029 0.74479 0.07145 0.0
C151 C 0.59028 0.80616 0.07113 0.0
C152 C 0.61025 0.81731 0.0947 0.0
C153 C 0.62138 0.79322 0.10637 0.0
C154 C 0.61225 0.75762 0.09437 0.0
N155 N 0.57905 0.83024 0.05863 0.0
H156 H 0.26822 0.79926 0.04675 0.0
H157 H 0.19411 0.77387 0.10697 0.0
H158 H 0.29746 0.88662 0.10619 0.0
H159 H 0.18818 0.71399 0.09926 0.0
C160 C 0.18299 0.71099 0.07933 0.0
C161 C 0.26234 0.80857 0.06424 0.0
C162 C 0.28757 0.84658 0.07489 0.0
C163 C 0.22946 0.78194 0.07607 0.0
C164 C 0.22019 0.79398 0.09812 0.0
C165 C 0.24427 0.83184 0.10892 0.0
C166 C 0.27833 0.85775 0.09748 0.0
N167 N 0.20574 0.74334 0.06532 0.0
H168 H 0.21788 0.45498 0.04978 0.0
H169 H 0.25361 0.41442 0.11212 0.0
H170 H 0.14294 0.41198 0.11009 0.0
H171 H 0.31466 0.45612 0.1007 0.0
C172 C 0.3122 0.45564 0.08074 0.0
C173 C 0.21203 0.4432 0.0677 0.0
C174 C 0.17659 0.43425 0.0783 0.0
C175 C 0.24051 0.43738 0.07997 0.0
C176 C 0.23274 0.42075 0.10292 0.0
C177 C 0.19708 0.4107 0.11366 0.0
C178 C 0.16956 0.41808 0.10134 0.0
N179 N 0.27613 0.44796 0.06837 0.0
H180 H 0.42801 0.88008 0.30833 0.0
H181 H 0.50329 0.92542 0.24897 0.0
H182 H 0.3973 0.93172 0.24956 0.0
H183 H 0.51599 0.87721 0.25751 0.0
C184 C 0.51793 0.87887 0.27752 0.0
C185 C 0.43378 0.89371 0.291 0.0
C186 C 0.40769 0.90456 0.28039 0.0
C187 C 0.46753 0.90003 0.27948 0.0
C188 C 0.47665 0.91941 0.25762 0.0
C189 C 0.45173 0.93142 0.24685 0.0
C190 C 0.41696 0.92325 0.25812 0.0
N191 N 0.49217 0.88733 0.2906 0.0
H192 H 0.12346 0.54009 0.32122 0.0
H193 H 0.07613 0.56286 0.25558 0.0
H194 H 0.074 0.45499 0.25913 0.0
H195 H 0.07491 0.60771 0.278 0.0
C196 C 0.09824 0.61789 0.29258 0.0
C197 C 0.10926 0.53082 0.30278 0.0
C198 C 0.10006 0.49435 0.29179 0.0
C199 C 0.10001 0.55554 0.2902 0.0
C200 C 0.08168 0.54364 0.26624 0.0
C201 C 0.07149 0.50714 0.2552 0.0
C202 C 0.08108 0.48282 0.26794 0.0
N203 N 0.11083 0.59262 0.30171 0.0
H204 H 0.47313 0.5853 0.31121 0.0
H205 H 0.44002 0.5024 0.24905 0.0
H206 H 0.55152 0.60837 0.25301 0.0
H207 H 0.37923 0.4837 0.26066 0.0
C208 C 0.38174 0.48711 0.28064 0.0
C209 C 0.4803 0.57676 0.29393 0.0
C210 C 0.5158 0.602 0.28352 0.0
C211 C 0.45279 0.54089 0.28176 0.0
C212 C 0.4609 0.52993 0.25875 0.0
C213 C 0.49611 0.55487 0.24798 0.0
C214 C 0.52364 0.59014 0.26083 0.0
N215 N 0.4173 0.51688 0.29322 0.0
Tb216 Tb 0.48586 0.98287 0.98702 0.0
Eu217 Eu 0.51588 0.03124 0.04194 0.0
C218 C 0.52389 0.95723 0.02909 0.0
C219 C 0.43022 0.95512 0.03001 0.0
C220 C 0.47512 0.97074 0.9194 0.0
C221 C 0.47947 0.96584 0.8751 0.0
C222 C 0.46991 0.94836 0.89755 0.0
C223 C 0.48993 0.01084 0.91855 0.0
C224 C 0.49948 0.02833 0.89616 0.0
C225 C 0.4945 0.0061 0.87412 0.0
C226 C 0.46783 0.9529 0.94323 0.0
O227 O 0.46093 0.02103 0.99024 0.0
O228 O 0.50742 0.07015 0.01707 0.0
O229 O 0.57018 0.05428 0.02003 0.0
O230 O 0.53731 0.03852 0.98181 0.0
C231 C 0.47864 0.0572 0.99978 0.0
O232 O 0.50658 0.06217 0.07255 0.0
O233 O 0.55525 0.05121 0.07544 0.0
O234 O 0.51372 0.97465 0.04564 0.0
O235 O 0.52127 0.96176 1.00545 0.0
O236 O 0.44353 0.94371 0.0116 0.0
O237 O 0.44994 0.99082 0.04018 0.0
C238 C 0.57008 0.05706 0.99602 0.0
O239 O 0.49945 0.95956 0.95621 0.0
O240 O 0.44366 0.95754 0.9568 0.0
C241 C 0.52035 0.04439 0.11073 0.0
C242 C 0.49578 0.00954 0.15575 0.0
C243 C 0.524 0.04939 0.15549 0.0
C244 C 0.53615 0.06663 0.13317 0.0
C245 C 0.49197 0.00477 0.11084 0.0
C246 C 0.47979 0.98752 0.1331 0.0
C247 C 0.53365 0.06203 0.0872 0.0
H248 H 0.47483 0.94775 0.85849 0.0
H249 H 0.45882 0.91742 0.89787 0.0
H250 H 0.49467 0.02875 0.93528 0.0
H251 H 0.5115 0.05945 0.89621 0.0
H252 H 0.53659 0.06733 0.17255 0.0
H253 H 0.55801 0.09727 0.13343 0.0
H254 H 0.47951 0.98707 0.09366 0.0
H255 H 0.45848 0.9567 0.13255 0.0
Tb256 Tb 0.03439 0.50064 0.98862 0.0
Eu257 Eu 0.98762 0.47855 0.03978 0.0
C258 C 0.06472 0.5602 0.03502 0.0
C259 C 0.06279 0.46877 0.03183 0.0
C260 C 0.05138 0.50774 0.92272 0.0
C261 C 0.0618 0.51225 0.87911 0.0
C262 C 0.07698 0.51991 0.90366 0.0
C263 C 1.01043 0.48749 0.91705 0.0
C264 C 0.99524 0.48003 0.89256 0.0
C265 C 0.02076 0.49251 0.87332 0.0
C266 C 0.06723 0.51728 0.94849 0.0
O267 O 0.99308 0.43812 0.98423 0.0
O268 O 0.94718 0.43133 0.01162 0.0
O269 O 0.9645 0.51091 0.01804 0.0
O270 O 0.97836 0.49735 0.97967 0.0
C271 C 0.95817 0.41803 0.99301 0.0
O272 O 0.955 0.4366 0.06648 0.0
O273 O 0.96726 0.49591 0.07191 0.0
O274 O 0.04682 0.53158 0.04933 0.0
O275 O 0.05653 0.555 0.01107 0.0
O276 O 0.07366 0.49434 0.01505 0.0
O277 O 0.02743 0.45297 0.04011 0.0
C278 C 0.95963 0.50908 0.99392 0.0
O279 O 0.05792 0.53968 0.96105 0.0
O280 O 0.06275 0.4881 0.96078 0.0
C281 C 0.96972 0.46472 0.10689 0.0
C282 C 0.99977 0.47133 0.15573 0.0
C283 C 0.95916 0.45657 0.15028 0.0
C284 C 0.94426 0.45332 0.12601 0.0
C285 C 1.01009 0.47874 0.11211 0.0
C286 C 0.02502 0.48204 0.13633 0.0
C287 C 0.95445 0.46257 0.08156 0.0
H288 H 0.08215 0.52245 0.86467 0.0
H289 H 0.10867 0.53569 0.90777 0.0
H290 H 0.99024 0.47774 0.93159 0.0
H291 H 0.96351 0.46428 0.88867 0.0
H292 H 0.93892 0.44766 0.16479 0.0
H293 H 0.91298 0.44225 0.1222 0.0
H294 H 0.03012 0.48766 0.09746 0.0
H295 H 0.05648 0.49402 0.13992 0.0
Tb296 Tb 0.54038 0.51135 0.03705 0.0
Eu297 Eu 0.50818 0.52686 0.98366 0.0
C298 C 0.50026 0.44556 0.99421 0.0
C299 C 0.59486 0.53826 0.99287 0.0
C300 C 0.55313 0.50886 0.10379 0.0
C301 C 0.55106 0.49969 0.14764 0.0
C302 C 0.56103 0.49303 0.12426 0.0
C303 C 0.53516 0.53141 0.1069 0.0
C304 C 0.52515 0.53803 0.13018 0.0
C305 C 0.53294 0.52225 0.15086 0.0
C306 C 0.56074 0.49957 0.07895 0.0
O307 O 0.5615 0.57348 0.03824 0.0
O308 O 0.51827 0.57643 1.00964 0.0
O309 O 0.45498 0.49806 1.00647 0.0
O310 O 0.48807 0.51423 0.04477 0.0
C311 C 0.54486 0.59175 0.02829 0.0
O312 O 0.51343 0.56606 0.9554 0.0
O313 O 0.46864 0.50516 0.95015 0.0
O314 O 0.50976 0.47162 0.97794 0.0
O315 O 0.50288 0.45466 0.01787 0.0
O316 O 0.58244 0.51469 0.01083 0.0
O317 O 0.57408 0.55282 0.98359 0.0
C318 C 0.45536 0.50114 0.03068 0.0
O319 O 0.52935 0.47413 0.06556 0.0
O320 O 0.58354 0.52909 0.06653 0.0
C321 C 0.50006 0.53639 0.91465 0.0
C322 C 0.52469 0.53099 0.86718 0.0
C323 C 0.54794 0.56381 0.88354 0.0
C324 C 0.53579 0.5665 0.90698 0.0
C325 C 0.47637 0.50404 0.89811 0.0
C326 C 0.48859 0.50128 0.87472 0.0
C327 C 0.48769 0.53809 0.93985 0.0
H328 H 0.55786 0.48749 0.16321 0.0
H329 H 0.57456 0.47524 0.12213 0.0
H330 H 0.52833 0.54343 0.09123 0.0
H331 H 0.5107 0.55502 0.13189 0.0
H332 H 0.57558 0.58752 0.87825 0.0
H333 H 0.55466 0.59207 0.91913 0.0
H334 H 0.4486 0.48048 0.9034 0.0
H335 H 0.47011 0.47533 0.86279 0.0
Tb336 Tb 0.15459 0.31902 0.32175 0.0
Eu337 Eu 0.18726 0.36796 0.37675 0.0
C338 C 0.1938 0.29275 0.3632 0.0
C339 C 0.10149 0.28992 0.36649 0.0
C340 C 0.14233 0.30733 0.25379 0.0
C341 C 0.13814 0.30014 0.20903 0.0
C342 C 0.12946 0.28359 0.2318 0.0
C343 C 0.16377 0.34791 0.25274 0.0
C344 C 0.17276 0.36448 0.23001 0.0
C345 C 0.16018 0.3408 0.20785 0.0
C346 C 0.13518 0.28979 0.27775 0.0
O347 O 0.12871 0.35596 0.32651 0.0
O348 O 0.17693 0.40596 0.35187 0.0
O349 O 0.24061 0.38969 0.35431 0.0
O350 O 0.20661 0.3745 0.31649 0.0
C351 C 0.147 0.39243 0.33537 0.0
O352 O 0.1794 0.40029 0.40716 0.0
O353 O 0.2278 0.38885 0.40976 0.0
O354 O 0.18679 0.31216 0.38027 0.0
O355 O 0.18844 0.29563 0.33954 0.0
O356 O 0.11196 0.27961 0.34614 0.0
O357 O 0.12246 0.32481 0.37772 0.0
C358 C 0.23984 0.39249 0.33035 0.0
O359 O 0.16663 0.29534 0.29042 0.0
O360 O 0.11205 0.29557 0.29162 0.0
C361 C 0.19382 0.38295 0.44595 0.0
C362 C 0.16739 0.34507 0.49001 0.0
C363 C 0.1445 0.35687 0.4764 0.0
C364 C 0.15752 0.37555 0.45462 0.0
C365 C 0.21729 0.37235 0.46005 0.0
C366 C 0.20418 0.35352 0.48173 0.0
C367 C 0.20624 0.39954 0.42175 0.0
H368 H 0.1283 0.28106 0.19235 0.0
H369 H 0.1131 0.25223 0.23224 0.0
H370 H 0.17384 0.36677 0.26951 0.0
H371 H 0.1893 0.39586 0.22978 0.0
H372 H 0.11595 0.35065 0.48218 0.0
H373 H 0.13867 0.38341 0.44433 0.0
H374 H 0.24554 0.37793 0.45406 0.0
H375 H 0.22289 0.34548 0.49202 0.0
Tb376 Tb 0.70424 0.83602 0.32198 0.0
Eu377 Eu 0.66026 0.8196 0.37433 0.0
C378 C 0.73311 0.9005 0.36483 0.0
C379 C 0.73526 0.80921 0.36739 0.0
C380 C 0.72096 0.84142 0.2559 0.0
C381 C 0.73138 0.84715 0.21232 0.0
C382 C 0.74657 0.85436 0.23686 0.0
C383 C 0.68003 0.82086 0.25025 0.0
C384 C 0.66483 0.81381 0.22579 0.0
C385 C 0.69033 0.8271 0.20656 0.0
C386 C 0.73681 0.85065 0.28165 0.0
O387 O 0.66179 0.77402 0.31874 0.0
O388 O 0.61943 0.7679 0.34873 0.0
O389 O 0.63445 0.84742 0.35037 0.0
O390 O 0.64726 0.83046 0.31251 0.0
C391 C 0.62847 0.75414 0.32933 0.0
O392 O 0.62828 0.78135 0.40287 0.0
O393 O 0.64289 0.84159 0.40585 0.0
O394 O 0.71975 0.87391 0.38079 0.0
O395 O 0.72145 0.89154 0.34144 0.0
O396 O 0.74442 0.83083 0.34841 0.0
O397 O 0.70149 0.79628 0.37742 0.0
C398 C 0.6284 0.84276 0.32623 0.0
O399 O 0.72897 0.87425 0.29409 0.0
O400 O 0.73079 0.82113 0.29408 0.0
C401 C 0.64754 0.8138 0.44203 0.0
C402 C 0.68165 0.82189 0.48986 0.0
C403 C 0.6405 0.80486 0.48565 0.0
C404 C 0.62356 0.8009 0.46185 0.0
C405 C 0.68851 0.83023 0.44607 0.0
C406 C 0.70546 0.83434 0.46981 0.0
C407 C 0.63006 0.80946 0.41702 0.0
H408 H 0.75171 0.85797 0.19791 0.0
H409 H 0.77825 0.87042 0.24098 0.0
H410 H 0.65986 0.81057 0.26479 0.0
H411 H 0.6331 0.79777 0.22191 0.0
H412 H 0.62151 0.79536 0.50081 0.0
H413 H 0.59185 0.78795 0.45894 0.0
H414 H 0.70738 0.83993 0.43084 0.0
H415 H 0.73717 0.84711 0.47246 0.0
Tb416 Tb 0.20915 0.84402 0.37037 0.0
Eu417 Eu 0.17752 0.86068 0.31732 0.0
C418 C 0.16895 0.77899 0.32713 0.0
C419 C 0.26375 0.87123 0.32641 0.0
C420 C 0.22101 0.84034 0.43687 0.0
C421 C 0.21785 0.8306 0.48064 0.0
C422 C 0.22835 0.82419 0.45737 0.0
C423 C 0.20304 0.86291 0.43982 0.0
C424 C 0.19241 0.8692 0.46296 0.0
C425 C 0.1997 0.85317 0.48369 0.0
C426 C 0.22901 0.8313 0.4121 0.0
O427 O 0.23047 0.90633 0.37209 0.0
O428 O 0.1878 0.91008 0.34342 0.0
O429 O 0.12417 0.83234 0.34006 0.0
O430 O 0.15728 0.84741 0.37832 0.0
C431 C 0.21421 0.925 0.36217 0.0
O432 O 0.18414 0.90028 0.28902 0.0
O433 O 0.13815 0.83983 0.2838 0.0
O434 O 0.17902 0.80551 0.31117 0.0
O435 O 0.17122 0.78762 0.35084 0.0
O436 O 0.25104 0.84726 0.34413 0.0
O437 O 0.24342 0.8865 0.31753 0.0
C438 C 0.12466 0.83505 0.36429 0.0
O439 O 0.19771 0.80613 0.39851 0.0
O440 O 0.25211 0.86099 0.39989 0.0
C441 C 0.17184 0.87005 0.24927 0.0
C442 C 0.19858 0.8644 0.20281 0.0
C443 C 0.16955 0.87505 0.20504 0.0
C444 C 0.15631 0.87786 0.2281 0.0
C445 C 0.20107 0.85985 0.24723 0.0
C446 C 0.21433 0.85705 0.22423 0.0
C447 C 0.15793 0.87266 0.27353 0.0
H448 H 0.22427 0.81821 0.49625 0.0
H449 H 0.24185 0.80637 0.45535 0.0
H450 H 0.19666 0.8752 0.42412 0.0
H451 H 0.17792 0.88617 0.46451 0.0
H452 H 0.15712 0.88131 0.18896 0.0
H453 H 0.13391 0.88601 0.2294 0.0
H454 H 0.21341 0.85375 0.26344 0.0
H455 H 0.23624 0.84822 0.22318 0.0
Tb456 Tb 0.8216 0.65301 0.65497 0.0
Eu457 Eu 0.85355 0.70101 0.71037 0.0
C458 C 0.8599 0.62639 0.6965 0.0
C459 C 0.76689 0.62471 0.69894 0.0
C460 C 0.81032 0.64081 0.5869 0.0
C461 C 0.80706 0.63308 0.54217 0.0
C462 C 0.79809 0.61682 0.56502 0.0
C463 C 0.83138 0.68135 0.58564 0.0
C464 C 0.84063 0.69763 0.56284 0.0
C465 C 0.82874 0.67371 0.5408 0.0
C466 C 0.80288 0.62358 0.61097 0.0
O467 O 0.79683 0.69104 0.65913 0.0
O468 O 0.84366 0.7398 0.68603 0.0
O469 O 0.90708 0.72295 0.6879 0.0
O470 O 0.87331 0.70875 0.65006 0.0
C471 C 0.81461 0.72703 0.66892 0.0
O472 O 0.84608 0.7328 0.74131 0.0
O473 O 0.89351 0.71996 0.74357 0.0
O474 O 0.8503 0.64387 0.71335 0.0
O475 O 0.8566 0.63095 0.67291 0.0
O476 O 0.77793 0.61401 0.679 0.0
O477 O 0.78821 0.65941 0.71039 0.0
C478 C 0.90648 0.72627 0.66396 0.0
O479 O 0.83417 0.62926 0.6239 0.0
O480 O 0.77958 0.62952 0.62456 0.0
C481 C 0.85943 0.71403 0.77924 0.0
C482 C 0.83316 0.67963 0.82422 0.0
C483 C 0.85979 0.71988 0.82387 0.0
C484 C 0.87273 0.73691 0.80157 0.0
C485 C 0.83283 0.67395 0.77946 0.0
C486 C 0.81974 0.65693 0.80168 0.0
C487 C 0.87285 0.73164 0.75568 0.0
H488 H 0.79773 0.6138 0.5256 0.0
H489 H 0.78203 0.58547 0.56562 0.0
H490 H 0.84097 0.7004 0.60232 0.0
H491 H 0.85685 0.729 0.56247 0.0
H492 H 0.87042 0.7383 0.84084 0.0
H493 H 0.89313 0.76791 0.80176 0.0
H494 H 0.82237 0.65576 0.76238 0.0
H495 H 0.79973 0.62583 0.80124 0.0
Tb496 Tb 0.37018 0.16954 0.65548 0.0
Eu497 Eu 0.3231 0.14948 0.70691 0.0
C498 C 0.40168 0.22966 0.70186 0.0
C499 C 0.39872 0.13887 0.70001 0.0
C500 C 0.38722 0.17682 0.5895 0.0
C501 C 0.39785 0.18261 0.54594 0.0
C502 C 0.41292 0.19002 0.57052 0.0
C503 C 0.34631 0.1558 0.58375 0.0
C504 C 0.33123 0.14855 0.55925 0.0
C505 C 0.35683 0.16208 0.54008 0.0
C506 C 0.4029 0.18612 0.61528 0.0
O507 O 0.32815 0.1073 0.65109 0.0
O508 O 0.28353 0.1001 0.67969 0.0
O509 O 0.30129 0.18203 0.68439 0.0
O510 O 0.31387 0.1657 0.64641 0.0
C511 C 0.29398 0.08697 0.66071 0.0
O512 O 0.28955 0.10884 0.734 0.0
O513 O 0.30286 0.16863 0.73829 0.0
O514 O 0.38277 0.20158 0.71632 0.0
O515 O 0.39387 0.22425 0.67788 0.0
O516 O 0.40848 0.16044 0.68102 0.0
O517 O 0.36505 0.12674 0.71015 0.0
C518 C 0.29564 0.17852 0.66028 0.0
O519 O 0.39366 0.20855 0.62788 0.0
O520 O 0.39818 0.15681 0.6275 0.0
C521 C 0.30743 0.13944 0.77366 0.0
C522 C 0.34182 0.14796 0.82142 0.0
C523 C 0.30075 0.13188 0.81741 0.0
C524 C 0.28366 0.12772 0.79363 0.0
C525 C 0.34826 0.15472 0.77751 0.0
C526 C 0.36533 0.15899 0.8012 0.0
C527 C 0.29022 0.13588 0.7487 0.0
H528 H 0.41826 0.1936 0.53157 0.0
H529 H 0.44458 0.20642 0.57471 0.0
H530 H 0.32606 0.14528 0.59823 0.0
H531 H 0.29952 0.13214 0.55529 0.0
H532 H 0.28203 0.12347 0.83272 0.0
H533 H 0.25207 0.11574 0.79085 0.0
H534 H 0.36695 0.16361 0.76219 0.0
H535 H 0.39696 0.17098 0.8037 0.0
Tb536 Tb 0.87694 0.1821 0.70356 0.0
Eu537 Eu 0.84247 0.19528 0.65062 0.0
C538 C 0.83351 0.11397 0.66224 0.0
C539 C 0.9287 0.20506 0.65844 0.0
C540 C 0.89095 0.17886 0.77056 0.0
C541 C 0.89133 0.16775 0.81405 0.0
C542 C 0.90248 0.16458 0.79037 0.0
C543 C 0.8682 0.19643 0.77465 0.0
C544 C 0.85688 0.19945 0.79825 0.0
C545 C 0.8682 0.18504 0.81823 0.0
C546 C 0.90038 0.17313 0.74546 0.0
O547 O 0.90117 0.24446 0.70098 0.0
O548 O 0.85137 0.2437 0.67724 0.0
O549 O 0.79005 0.16717 0.67402 0.0
O550 O 0.82429 0.18404 0.71205 0.0
C551 C 0.88184 0.26153 0.69331 0.0
O552 O 0.84787 0.23449 0.62231 0.0
O553 O 0.80261 0.17373 0.6173 0.0
O554 O 0.84205 0.13902 0.6454 0.0
O555 O 0.83811 0.1245 0.68582 0.0
O556 O 0.91674 0.18223 0.67677 0.0
O557 O 0.90822 0.22021 0.64957 0.0
C558 C 0.79116 0.17063 0.69826 0.0
O559 O 0.87104 0.14553 0.73171 0.0
O560 O 0.91964 0.20428 0.73357 0.0
C561 C 0.83553 0.20414 0.58256 0.0
C562 C 0.86247 0.19932 0.53599 0.0
C563 C 0.83236 0.20846 0.53825 0.0
C564 C 0.81904 0.21089 0.56138 0.0
C565 C 0.86568 0.19525 0.58045 0.0
C566 C 0.87903 0.19287 0.55741 0.0
C567 C 0.82175 0.20656 0.60692 0.0
H568 H 0.90026 0.15611 0.82901 0.0
H569 H 0.9197 0.15056 0.78747 0.0
H570 H 0.85897 0.20757 0.75954 0.0
H571 H 0.83962 0.21347 0.80089 0.0
H572 H 0.81922 0.21394 0.52217 0.0
H573 H 0.79586 0.21797 0.56271 0.0
H574 H 0.87874 0.18991 0.59665 0.0
H575 H 0.90176 0.18513 0.55635 0.0
C576 C 0.34509 0.86102 0.04928 0.0
C577 C 0.32357 0.87432 0.0626 0.0
H578 H 0.39522 0.87595 0.02828 0.0
C579 C 0.33702 0.91446 0.06425 0.0
H580 H 0.33631 0.83053 0.04793 0.0
C581 C 0.37141 0.94054 0.05348 0.0
C582 C 0.39282 0.92714 0.04031 0.0
H583 H 0.32095 0.92591 0.07378 0.0
H584 H 0.38114 0.97127 0.05537 0.0
C585 C 0.37907 0.88708 0.03807 0.0
C586 C 0.1598 0.47544 0.05201 0.0
C587 C 0.14726 0.44236 0.06558 0.0
H588 H 0.14315 0.50952 0.03062 0.0
C589 C 0.10645 0.41751 0.06726 0.0
H590 H 0.1909 0.49569 0.05062 0.0
C591 C 0.07908 0.42594 0.05618 0.0
C592 C 0.09174 0.4591 0.04279 0.0
H593 H 0.09549 0.39135 0.07708 0.0
H594 H 0.04795 0.40634 0.05805 0.0
C595 C 0.13238 0.48353 0.04062 0.0
C596 C 0.57011 0.67446 0.07504 0.0
C597 C 0.5779 0.70524 0.06007 0.0
H598 H 0.55451 0.61485 0.07664 0.0
C599 C 0.57383 0.69772 0.03429 0.0
H600 H 0.5714 0.67833 0.09491 0.0
C601 C 0.56235 0.66057 0.02387 0.0
C602 C 0.55593 0.63059 0.03901 0.0
H603 H 0.58008 0.72056 0.02206 0.0
H604 H 0.55949 0.65553 1.004 0.0
C605 C 0.55999 0.63782 0.06463 0.0
C606 C 0.87974 0.31179 0.98567 0.0
C607 C 0.87605 0.30399 0.95994 0.0
H608 H 0.90827 0.35421 0.01619 0.0
C609 C 0.9 0.3345 0.9453 0.0
H610 H 0.8626 0.28913 0.99768 0.0
C611 C 0.92726 0.37137 0.95609 0.0
C612 C 0.93028 0.37895 0.98166 0.0
H613 H 0.89742 0.33026 0.92542 0.0
H614 H 0.94527 0.39423 0.94438 0.0
C615 C 0.90615 0.34902 0.99635 0.0
C616 C 0.68295 0.53145 0.97295 0.0
C617 C 0.70337 0.56512 0.95993 0.0
H618 H 0.63327 0.49689 0.99377 0.0
C619 C 0.68773 0.59003 0.95828 0.0
H620 H 0.6933 0.51097 0.97426 0.0
C621 C 0.65263 0.58129 0.96899 0.0
C622 C 0.63256 0.54783 0.98208 0.0
H623 H 0.70275 0.61662 0.94894 0.0
H624 H 0.64143 0.60106 0.96722 0.0
C625 C 0.64827 0.52316 0.98408 0.0
C626 C 0.47891 0.14967 0.98583 0.0
C627 C 0.44394 0.13517 0.97062 0.0
H628 H 0.51728 0.13645 1.007 0.0
C629 C 0.41954 0.09466 0.96619 0.0
H630 H 0.49866 0.18067 0.98939 0.0
C631 C 0.43056 0.06935 0.97592 0.0
C632 C 0.46599 0.08391 0.99059 0.0
H633 H 0.39199 0.08243 0.95498 0.0
H634 H 0.41138 0.03835 0.97179 0.0
C635 C 0.48972 0.1243 0.9958 0.0
C636 C 0.67737 0.12997 0.98576 0.0
C637 C 0.67662 0.12773 0.95986 0.0
H638 H 0.64424 0.10923 0.01771 0.0
C639 C 0.64098 0.10251 0.94626 0.0
H640 H 0.70454 0.14914 0.99675 0.0
C641 C 0.60667 0.08004 0.95814 0.0
C642 C 0.6071 0.08194 0.98404 0.0
H643 H 0.63958 0.10018 0.9263 0.0
H644 H 0.57981 0.06087 0.94686 0.0
C645 C 0.64288 0.10711 0.99777 0.0
C646 C 0.88293 0.54015 0.98503 0.0
C647 C 0.87914 0.5397 0.95923 0.0
H648 H 0.9114 0.53088 0.01634 0.0
C649 C 0.9018 0.52914 0.94508 0.0
H650 H 0.86586 0.54824 0.99644 0.0
C651 C 0.92774 0.51916 0.95638 0.0
C652 C 0.93176 0.5196 0.9822 0.0
H653 H 0.89947 0.52859 0.92516 0.0
H654 H 0.94472 0.51121 0.94479 0.0
C655 C 0.90905 0.53023 0.99642 0.0
C656 C 0.47036 0.33926 0.99317 0.0
C657 C 0.44819 0.32499 0.97047 0.0
H658 H 0.50397 0.38897 0.01867 0.0
C659 C 0.44434 0.35072 0.95533 0.0
H660 H 0.47365 0.3199 1.00517 0.0
C661 C 0.46242 0.39021 0.96271 0.0
C662 C 0.48377 0.40443 0.98568 0.0
H663 H 0.42745 0.34026 0.93769 0.0
H664 H 0.45875 0.4094 0.95074 0.0
C665 C 0.4876 0.37866 1.00087 0.0
C666 C 0.13254 0.64159 0.08231 0.0
C667 C 0.15317 0.67267 0.06752 0.0
H668 H 0.08849 0.58181 0.08374 0.0
C669 C 0.14458 0.66673 0.0419 0.0
H670 H 0.13862 0.6455 0.10213 0.0
C671 C 0.11574 0.63021 0.03129 0.0
C672 C 0.09502 0.59902 0.04612 0.0
H673 H 0.15998 0.69022 0.03004 0.0
H674 H 0.10976 0.62648 0.01147 0.0
C675 C 0.1038 0.60515 0.07175 0.0
C676 C 0.38412 0.47922 0.08081 0.0
C677 C 0.34825 0.4673 0.06732 0.0
H678 H 0.44566 0.49935 0.08003 0.0
C679 C 0.3476 0.46684 0.04144 0.0
H680 H 0.38551 0.47989 0.10075 0.0
C681 C 0.38229 0.47795 0.02937 0.0
C682 C 0.41829 0.48993 0.04296 0.0
H683 H 0.32034 0.45774 0.03051 0.0
H684 H 0.38087 0.47711 1.00944 0.0
C685 C 0.41866 0.49047 0.06885 0.0
C686 C 0.58019 0.92421 0.0694 0.0
C687 C 0.57546 0.89156 0.05555 0.0
H688 H 0.56689 0.96998 0.07203 0.0
C689 C 0.55346 0.88021 0.03269 0.0
H690 H 0.59706 0.93347 0.08707 0.0
C691 C 0.53689 0.90176 0.02371 0.0
C692 C 0.54119 0.93412 0.03786 0.0
H693 H 0.54962 0.85519 0.02162 0.0
H694 H 0.52034 0.89286 1.00595 0.0
C695 C 0.5628 0.94495 0.06082 0.0
C696 C 0.02865 0.23844 0.41432 0.0
C697 C 0.99603 0.20852 0.39999 0.0
H698 H 0.08711 0.28751 0.41496 0.0
C699 C 0.99893 0.20532 0.37435 0.0
H700 H 0.02821 0.24148 0.43413 0.0
C701 C 0.03338 0.2312 0.36343 0.0
C702 C 0.06539 0.26145 0.37779 0.0
H703 H 0.97433 0.18328 0.36252 0.0
H704 H 0.03457 0.22811 0.34368 0.0
C705 C 0.06266 0.26476 0.40333 0.0
C706 C 0.81618 0.78426 0.37555 0.0
C707 C 0.81895 0.7822 0.40131 0.0
H708 H 0.7881 0.79512 0.34469 0.0
C709 C 0.79413 0.78984 0.41558 0.0
H710 H 0.83405 0.77791 0.36376 0.0
C711 C 0.76689 0.79832 0.40445 0.0
C712 C 0.76448 0.80055 0.37885 0.0
H713 H 0.79591 0.78981 0.43545 0.0
H714 H 0.74812 0.80383 0.416 0.0
C715 C 0.78964 0.79389 0.36451 0.0
C716 C 0.24247 0.03078 0.36799 0.0
C717 C 0.24628 0.03839 0.39375 0.0
H718 H 0.22873 0.98861 0.33782 0.0
C719 C 0.23903 0.00781 0.40881 0.0
H720 H 0.24839 0.05346 0.35569 0.0
C721 C 0.22948 0.97126 0.3985 0.0
C722 C 0.22548 0.96391 0.37289 0.0
H723 H 0.24019 0.01174 0.42867 0.0
H724 H 0.22422 0.94842 0.41056 0.0
C725 C 0.23157 0.99373 0.35768 0.0
C726 C 0.54938 0.64784 0.3215 0.0
C727 C 0.54422 0.64122 0.29565 0.0
H728 H 0.57984 0.68908 0.35248 0.0
C729 C 0.56665 0.67263 0.28126 0.0
H730 H 0.53315 0.62446 0.33327 0.0
C731 C 0.59431 0.70905 0.29231 0.0
C732 C 0.59933 0.71542 0.31801 0.0
H733 H 0.56274 0.66939 0.26135 0.0
H734 H 0.61125 0.73252 0.28071 0.0
C735 C 0.57631 0.68475 0.33256 0.0
C736 C 0.35604 0.92183 0.29127 0.0
C737 C 0.37095 0.89629 0.29254 0.0
H738 H 0.31068 0.93393 0.30082 0.0
C739 C 0.35035 0.86267 0.30556 0.0
H740 H 0.37128 0.94842 0.28194 0.0
C741 C 0.31612 0.85498 0.31703 0.0
C742 C 0.30109 0.88027 0.31537 0.0
H743 H 0.36017 0.84175 0.30659 0.0
H744 H 0.30089 0.8287 0.32668 0.0
C745 C 0.32139 0.91372 0.30232 0.0
C746 C 0.08563 0.42791 0.30241 0.0
C747 C 0.11088 0.46849 0.30476 0.0
H748 H 0.07721 0.37219 0.31015 0.0
C749 C 0.14725 0.48391 0.31862 0.0
H750 H 0.05701 0.41501 0.29237 0.0
C751 C 0.15855 0.45926 0.32922 0.0
C752 C 0.13388 0.4187 0.32599 0.0
H753 H 0.16763 0.51497 0.3206 0.0
H754 H 0.18715 0.472 0.33927 0.0
C755 C 0.09711 0.40332 0.31273 0.0
C756 C 0.31033 0.43834 0.28039 0.0
C757 C 0.34608 0.46331 0.29398 0.0
H758 H 0.2491 0.39672 0.28109 0.0
C759 C 0.34702 0.46507 0.31988 0.0
H760 H 0.30879 0.43637 0.26043 0.0
C761 C 0.31262 0.44211 0.33189 0.0
C762 C 0.2767 0.41725 0.3182 0.0
H763 H 0.37426 0.48403 0.33086 0.0
H764 H 0.31415 0.44396 0.35184 0.0
C765 C 0.27607 0.4157 0.2923 0.0
C766 C 0.55032 0.87161 0.31625 0.0
C767 C 0.54557 0.86927 0.29041 0.0
H768 H 0.58023 0.86511 0.34788 0.0
C769 C 0.56785 0.85788 0.27652 0.0
H770 H 0.53357 0.88039 0.32746 0.0
C771 C 0.59447 0.84902 0.28816 0.0
C772 C 0.59954 0.85153 0.31402 0.0
H773 H 0.56474 0.85586 0.25657 0.0
H774 H 0.61123 0.84045 0.27681 0.0
C775 C 0.5771 0.86288 0.32794 0.0
C776 C 0.13829 0.67236 0.32479 0.0
C777 C 0.11765 0.65915 0.30156 0.0
H778 H 0.17041 0.72097 0.35132 0.0
C779 C 0.11493 0.68566 0.2866 0.0
H780 H 0.14066 0.65239 0.33668 0.0
C781 C 0.13264 0.72487 0.29467 0.0
C782 C 0.15249 0.73804 0.31813 0.0
H783 H 0.09919 0.67606 0.26858 0.0
H784 H 0.12989 0.74465 0.28278 0.0
C785 C 0.15517 0.71148 0.33315 0.0
C786 C 0.77708 0.00921 0.37139 0.0
C787 C 0.80932 0.0206 0.38844 0.0
H788 H 0.72819 0.96198 0.35007 0.0
C789 C 0.81628 0.99223 0.39804 0.0
H790 H 0.77117 0.03068 0.36386 0.0
C791 C 0.79088 0.95282 0.39083 0.0
C792 C 0.75915 0.94159 0.37332 0.0
H793 H 0.84082 1.00045 0.41142 0.0
H794 H 0.79644 0.93123 0.39853 0.0
C795 C 0.75262 0.97007 0.36352 0.0
C796 C 0.01804 0.80461 0.37579 0.0
C797 C 0.01868 0.80348 0.4016 0.0
H798 H 0.05099 0.81536 0.34359 0.0
C799 C 0.05409 0.8129 0.41479 0.0
H800 H 0.99109 0.79739 0.36509 0.0
C801 C 0.08825 0.82335 0.40259 0.0
C802 C 0.0879 0.82443 0.37676 0.0
H803 H 0.05543 0.81225 0.43467 0.0
H804 H 0.11492 0.83031 0.41354 0.0
C805 C 0.05234 0.81487 0.36347 0.0
C806 C 0.21956 0.21287 0.36615 0.0
C807 C 0.24416 0.22507 0.38803 0.0
H808 H 0.18475 0.22541 0.34067 0.0
C809 C 0.25192 0.25926 0.40138 0.0
H810 H 0.21336 0.18665 0.35547 0.0
C811 C 0.23498 0.28069 0.39333 0.0
C812 C 0.21072 0.26896 0.37135 0.0
H813 H 0.27082 0.26924 0.41828 0.0
H814 H 0.24146 0.3069 0.40416 0.0
C815 C 0.20338 0.23504 0.35766 0.0
C816 C 0.69146 0.57386 0.74547 0.0
C817 C 0.65896 0.54465 0.73068 0.0
H818 H 0.75049 0.622 0.74701 0.0
C819 C 0.66262 0.54198 0.7051 0.0
H820 H 0.69052 0.57645 0.76525 0.0
C821 C 0.69783 0.56748 0.69473 0.0
C822 C 0.72982 0.59686 0.70959 0.0
H823 H 0.63816 0.52048 0.69293 0.0
H824 H 0.69971 0.56472 0.67504 0.0
C825 C 0.72618 0.59987 0.73502 0.0
C826 C 0.48033 0.11485 0.70847 0.0
C827 C 0.48341 0.11342 0.73426 0.0
H828 H 0.45153 0.12453 0.67746 0.0
C829 C 0.45818 0.12063 0.74842 0.0
H830 H 0.49852 0.10882 0.69676 0.0
C831 C 0.43031 0.12816 0.73718 0.0
C832 C 0.42766 0.12989 0.71155 0.0
H833 H 0.46017 0.12109 0.76831 0.0
H834 H 0.41143 0.13356 0.74866 0.0
C835 C 0.45315 0.12354 0.6973 0.0
C836 C 0.94287 0.36125 0.72652 0.0
C837 C 0.91822 0.37712 0.72315 0.0
H838 H 0.95071 0.31238 0.71986 0.0
C839 C 0.88221 0.35519 0.70895 0.0
H840 H 0.97115 0.37763 0.73696 0.0
C841 C 0.87072 0.31792 0.69887 0.0
C842 C 0.89486 0.30167 0.70291 0.0
H843 H 0.86228 0.3663 0.70625 0.0
H844 H 0.84246 0.30151 0.68841 0.0
C845 C 0.93123 0.32388 0.71664 0.0
C846 C 0.21607 0.98047 0.65326 0.0
C847 C 0.21105 0.97339 0.62745 0.0
H848 H 0.24601 0.02225 0.68398 0.0
C849 C 0.23368 0.0045 0.61286 0.0
H850 H 0.19982 0.95735 0.66519 0.0
C851 C 0.2612 0.04117 0.62372 0.0
C852 C 0.26577 0.04801 0.64938 0.0
H853 H 0.22994 1.00087 0.59295 0.0
H854 H 0.27822 0.06446 0.61202 0.0
C855 C 0.24276 0.01756 0.66408 0.0
C856 C 0.02034 0.25437 0.62254 0.0
C857 C 0.03607 0.22963 0.62488 0.0
H858 H 0.97428 0.26597 0.63111 0.0
C859 C 0.01596 0.19674 0.6386 0.0
H860 H 0.03514 0.28037 0.6126 0.0
C861 C 0.98154 0.18911 0.64981 0.0
C862 C 0.96582 0.21369 0.64722 0.0
H863 H 0.02637 0.17638 0.64044 0.0
H864 H 0.96682 0.16348 0.66012 0.0
C865 C 0.98551 0.2463 0.63336 0.0
C866 C 0.75611 0.76468 0.63483 0.0
C867 C 0.78016 0.80513 0.63965 0.0
H868 H 0.74806 0.70841 0.64024 0.0
C869 C 0.81461 0.81955 0.65538 0.0
H870 H 0.72896 0.75252 0.62321 0.0
C871 C 0.82531 0.79415 0.66546 0.0
C872 C 0.80194 0.75383 0.65987 0.0
H873 H 0.83404 0.85055 0.65928 0.0
H874 H 0.85249 0.80624 0.67703 0.0
C875 C 0.76697 0.73935 0.6447 0.0
C876 C 0.01389 0.79804 0.65325 0.0
C877 C 0.01285 0.79583 0.62735 0.0
H878 H 0.98105 0.77765 0.68533 0.0
C879 C 0.97699 0.77085 0.61387 0.0
H880 H 0.04122 0.81702 0.66415 0.0
C881 C 0.94275 0.74867 0.62589 0.0
C882 C 0.94344 0.75066 0.65179 0.0
H883 H 0.97536 0.76852 0.59391 0.0
H884 H 0.91572 0.72967 0.61473 0.0
C885 C 0.97947 0.77549 0.66539 0.0
C886 C 0.2351 0.19412 0.61091 0.0
C887 C 0.21263 0.20516 0.62488 0.0
H888 H 0.27874 0.17709 0.61099 0.0
C889 C 0.21765 0.20767 0.65071 0.0
H890 H 0.23183 0.19203 0.59096 0.0
C891 C 0.24471 0.19918 0.66231 0.0
C892 C 0.26716 0.18796 0.64828 0.0
H893 H 0.20078 0.2162 0.66198 0.0
H894 H 0.24792 0.2013 0.68225 0.0
C895 C 0.26199 0.18556 0.62243 0.0
C896 C 0.80326 0.00771 0.66276 0.0
C897 C 0.7798 0.99252 0.64055 0.0
H898 H 0.8384 0.05843 0.68725 0.0
C899 C 0.77481 0.01752 0.62534 0.0
H900 H 0.80744 0.98892 0.67481 0.0
C901 C 0.79323 0.05724 0.63209 0.0
C902 C 0.81609 0.07244 0.65452 0.0
H903 H 0.75691 0.00636 0.60807 0.0
H904 H 0.78881 0.07589 0.62003 0.0
C905 C 0.82087 0.04735 0.66986 0.0
C906 C 0.48256 0.33581 0.70897 0.0
C907 C 0.48971 0.34204 0.7347 0.0
H908 H 0.449 0.29534 0.67834 0.0
C909 C 0.46804 0.31121 0.74944 0.0
H910 H 0.49879 0.35913 0.69714 0.0
C911 C 0.4396 0.27476 0.73874 0.0
C912 C 0.43211 0.26838 0.71301 0.0
H913 H 0.473 0.31534 0.76932 0.0
H914 H 0.42339 0.25166 0.75072 0.0
C915 C 0.45397 0.29929 0.69821 0.0
C916 C 0.72058 0.14856 0.74885 0.0
C917 C 0.68495 0.1383 0.73558 0.0
H918 H 0.78171 0.16686 0.74766 0.0
C919 C 0.68426 0.13887 0.70975 0.0
H920 H 0.72198 0.14834 0.76875 0.0
C921 C 0.71865 0.1494 0.69749 0.0
C922 C 0.75443 0.15979 0.71084 0.0
H923 H 0.65719 0.13102 0.69898 0.0
H924 H 0.71719 0.14943 0.67759 0.0
C925 C 0.75488 0.15927 0.73669 0.0
C926 C 0.89287 0.55168 0.69875 0.0
C927 C 0.91403 0.56231 0.7219 0.0
H928 H 0.85951 0.56429 0.67217 0.0
C929 C 0.91701 0.59365 0.73638 0.0
H930 H 0.89035 0.52765 0.68719 0.0
C931 C 0.89875 0.61379 0.72814 0.0
C932 C 0.87791 0.60367 0.70491 0.0
H933 H 0.93315 0.60234 0.75429 0.0
H934 H 0.90159 0.63784 0.73985 0.0
C935 C 0.87537 0.57262 0.69015 0.0
C936 C 0.43385 0.94337 0.20436 0.0
C937 C 0.46239 0.95254 0.22387 0.0
H938 H 0.4218 0.95431 0.16775 0.0
C939 C 0.50163 0.98153 0.22106 0.0
H940 H 0.40341 0.92104 0.20583 0.0
C941 C 0.51226 1.00033 0.19918 0.0
C942 C 0.48393 0.99069 0.17947 0.0
H943 H 0.52429 0.98971 0.23582 0.0
H944 H 0.54294 0.02182 0.19753 0.0
C945 C 0.4445 0.96216 0.18242 0.0
C946 C 0.02032 0.50191 0.2239 0.0
C947 C 0.05129 0.49506 0.23014 0.0
H948 H 0.98008 0.50011 0.19555 0.0
C949 C 0.06372 0.47818 0.21206 0.0
H950 H 1.0098 0.51445 0.23753 0.0
C951 C 0.04635 0.46954 0.18801 0.0
C952 C 0.01617 0.4775 0.18161 0.0
H953 H 0.08764 0.47275 0.21631 0.0
H954 H 0.05684 0.45698 0.17436 0.0
C955 C 1.00299 0.49327 0.19991 0.0
C956 C 0.4971 0.50817 0.21566 0.0
C957 C 0.50409 0.54548 0.22291 0.0
H958 H 0.50066 0.47147 0.18718 0.0
C959 C 0.51986 0.57464 0.20615 0.0
H960 H 0.48513 0.48516 0.22819 0.0
C961 C 0.52911 0.567 0.1829 0.0
C962 C 0.52268 0.5299 0.17568 0.0
H963 H 0.5251 0.60356 0.21102 0.0
H964 H 0.54191 0.59044 0.17071 0.0
C965 C 0.50643 0.50049 0.19229 0.0
C966 C 0.95749 0.48362 0.81617 0.0
C967 C 0.97264 0.46963 0.79806 0.0
H968 H 0.96092 0.50192 0.85415 0.0
C969 C 1.00412 0.46377 0.80478 0.0
H970 H 0.93302 0.4881 0.81156 0.0
C971 C 0.02 0.47154 0.82915 0.0
C972 C 1.00453 0.48507 0.84733 0.0
H973 H 0.01656 0.45327 0.79115 0.0
H974 H 0.04395 0.46633 0.83384 0.0
C975 C 0.97319 0.49114 0.84058 0.0
C976 C 0.59075 0.53269 0.81738 0.0
C977 C 0.56331 0.51367 0.79707 0.0
H978 H 0.60005 0.55234 0.85551 0.0
C979 C 0.52365 0.50283 0.79949 0.0
H980 H 0.62143 0.54099 0.81612 0.0
C981 C 0.51138 0.50957 0.82197 0.0
C982 C 0.53843 0.52706 0.84266 0.0
H983 H 0.50195 0.48858 0.78404 0.0
H984 H 0.48055 0.50066 0.82318 0.0
C985 C 0.57843 0.53918 0.83995 0.0
C986 C 0.53316 0.03182 0.81038 0.0
C987 C 0.52385 0.06061 0.80491 0.0
H988 H 0.53139 0.99215 0.83644 0.0
C989 C 0.5053 0.07156 0.82251 0.0
H990 H 0.54722 0.02252 0.79721 0.0
C991 C 0.4959 0.05395 0.84485 0.0
C992 C 0.50481 0.02489 0.85027 0.0
H993 H 0.49814 0.09397 0.81907 0.0
H994 H 0.48111 0.0628 0.85774 0.0
C995 C 0.52365 0.0141 0.83277 0.0
C996 C 0.1218 0.31449 0.55147 0.0
C997 C 0.12756 0.28307 0.55584 0.0
H998 H 0.13023 0.35901 0.52745 0.0
C999 C 0.14504 0.27137 0.5379 0.0
H1000 H 0.10879 0.32452 0.56497 0.0
C1001 C 0.15755 0.29127 0.51656 0.0
C1002 C 0.15276 0.3233 0.51246 0.0
H1003 H 0.14916 0.24678 0.54036 0.0
H1004 H 0.17088 0.28142 0.50317 0.0
C1005 C 0.1342 0.33434 0.52999 0.0
C1006 C 0.69994 0.80521 0.55595 0.0
C1007 C 0.73267 0.84147 0.56405 0.0
H1008 H 0.658 0.77055 0.526 0.0
C1009 C 0.7495 0.87051 0.54734 0.0
H1010 H 0.68633 0.78242 0.56853 0.0
C1011 C 0.73333 0.86381 0.52315 0.0
C1012 C 0.69988 0.82797 0.51519 0.0
H1013 H 0.77496 0.89861 0.55308 0.0
H1014 H 0.74638 0.88709 0.51085 0.0
C1015 C 0.68355 0.79858 0.53174 0.0
C1016 C 0.16325 0.83919 0.54833 0.0
C1017 C 0.1701 0.8765 0.55543 0.0
H1018 H 0.16715 0.80243 0.52005 0.0
C1019 C 0.18577 0.90552 0.53858 0.0
H1020 H 0.15133 0.81628 0.56094 0.0
C1021 C 0.19525 0.89782 0.51544 0.0
C1022 C 0.18906 0.86077 0.50838 0.0
H1023 H 0.19088 0.93442 0.54332 0.0
H1024 H 0.2081 0.92123 0.50323 0.0
C1025 C 0.17275 0.83143 0.52504 0.0
C1026 C 0.67311 0.79941 0.13786 0.0
C1027 C 0.64071 0.80413 0.13168 0.0
H1028 H 0.71415 0.80288 0.16642 0.0
C1029 C 0.62563 0.81764 0.15012 0.0
H1030 H 0.68549 0.78928 0.12397 0.0
C1031 C 0.64205 0.8255 0.17434 0.0
C1032 C 0.674 0.82015 0.18063 0.0
H1033 H 0.60045 0.82119 0.14596 0.0
H1034 H 0.62966 0.83571 0.18818 0.0
C1035 C 0.68968 0.80747 0.16209 0.0
C1036 C 0.26199 0.86327 0.15211 0.0
C1037 C 0.23359 0.84357 0.13233 0.0
H1038 H 0.27335 0.88567 0.18982 0.0
C1039 C 0.19416 0.83306 0.13549 0.0
H1040 H 0.29257 0.8716 0.15028 0.0
C1041 C 0.18308 0.84075 0.15812 0.0
C1042 C 0.21116 0.85921 0.1782 0.0
H1043 H 0.17166 0.81828 0.1205 0.0
H1044 H 0.15221 0.83103 0.16009 0.0
C1045 C 0.25088 0.87093 0.17482 0.0
C1046 C 0.21689 0.40644 0.15757 0.0
C1047 C 0.18815 0.39233 0.13768 0.0
H1048 H 0.23066 0.40135 0.19526 0.0
C1049 C 0.15036 0.36086 0.14098 0.0
H1050 H 0.2462 0.43079 0.1557 0.0
C1051 C 0.14143 0.34405 0.16362 0.0
C1052 C 0.16997 0.35843 0.18363 0.0
H1053 H 0.12763 0.34904 0.12598 0.0
H1054 H 0.1119 0.32013 0.16556 0.0
C1055 C 0.20785 0.38981 0.18031 0.0
C1056 C 0.83621 0.65358 0.89039 0.0
C1057 C 0.79717 0.62351 0.89247 0.0
H1058 H 0.87814 0.69453 0.8674 0.0
C1059 C 0.76957 0.61309 0.87222 0.0
H1060 H 0.85812 0.66265 0.90572 0.0
C1061 C 0.78103 0.63158 0.85021 0.0
C1062 C 0.82031 0.66115 0.84798 0.0
H1063 H 0.73933 0.58993 0.87315 0.0
H1064 H 0.75911 0.62265 0.83489 0.0
C1065 C 0.8476 0.67217 0.86847 0.0
C1066 C 0.41141 0.19798 0.87796 0.0
C1067 C 0.39456 0.16985 0.89522 0.0
H1068 H 0.40771 0.21311 0.84117 0.0
C1069 C 0.36104 0.13376 0.88786 0.0
H1070 H 0.43747 0.22592 0.88314 0.0
C1071 C 0.34397 0.12637 0.8638 0.0
C1072 C 0.36044 0.15483 0.84667 0.0
H1073 H 0.34742 0.11169 0.9009 0.0
H1074 H 0.31789 0.09848 0.85859 0.0
C1075 C 0.39456 0.19052 0.85392 0.0
C1076 C 0.80855 0.18872 0.87045 0.0
C1077 C 0.83664 0.20227 0.89065 0.0
H1078 H 0.79642 0.17248 0.83173 0.0
C1079 C 0.87426 0.20747 0.88717 0.0
H1080 H 0.77942 0.18467 0.87253 0.0
C1081 C 0.8841 0.2008 0.86383 0.0
C1082 C 0.8566 0.18889 0.84339 0.0
H1083 H 0.89641 0.21756 0.90245 0.0
H1084 H 0.91376 0.20637 0.86164 0.0
C1085 C 0.81847 0.18222 0.84704 0.0
C1086 C 0.29204 0.1514 0.48337 0.0
C1087 C 0.3075 0.13804 0.46509 0.0
H1088 H 0.29568 0.16968 0.52135 0.0
C1089 C 0.34019 0.13388 0.47145 0.0
H1090 H 0.26664 0.15454 0.47906 0.0
C1091 C 0.35667 0.14232 0.49571 0.0
C1092 C 0.34061 0.15482 0.5141 0.0
H1093 H 0.35287 0.12389 0.45768 0.0
H1094 H 0.38137 0.13815 0.50018 0.0
C1095 C 0.30837 0.15963 0.50763 0.0
C1096 C 0.9276 0.20098 0.48566 0.0
C1097 C 0.89965 0.18028 0.4658 0.0
H1098 H 0.93792 0.22363 0.52325 0.0
C1099 C 0.85983 0.16853 0.46868 0.0
H1100 H 0.95846 0.21025 0.48411 0.0
C1101 C 0.84798 0.17579 0.49119 0.0
C1102 C 0.87566 0.195 0.51139 0.0
H1103 H 0.83762 0.15295 0.45365 0.0
H1104 H 0.81686 0.165 0.493 0.0
C1105 C 0.91574 0.20821 0.50819 0.0
C1106 C 0.88595 0.73981 0.49087 0.0
C1107 C 0.85767 0.72544 0.4707 0.0
H1108 H 0.89909 0.73485 0.52868 0.0
C1109 C 0.82012 0.69329 0.47362 0.0
H1110 H 0.91503 0.7647 0.48932 0.0
C1111 C 0.81092 0.67626 0.4962 0.0
C1112 C 0.83893 0.69111 0.51652 0.0
H1113 H 0.79776 0.68128 0.45841 0.0
H1114 H 0.78154 0.65193 0.49788 0.0
C1115 C 0.87665 0.72297 0.51351 0.0
loop_
_geom_bond_atom_site_label_1
_geom_bond_atom_site_label_2
_geom_bond_distance
_geom_bond_site_symmetry_2
_ccdc_geom_bond_type
H0 C5 0.930 . S
H1 C8 0.930 . S
H2 C10 0.930 . S
H3 C4 1.016 . S
C4 H3 1.016 . S
C4 N11 1.286 . S
C5 H0 0.930 . S
C5 C6 1.397 . S
C5 C7 1.361 . S
C6 C5 1.397 . S
C6 C10 1.390 . S
C7 C5 1.361 . S
C7 C8 1.393 . S
C7 N11 1.413 . S
C8 H1 0.930 . S
C8 C7 1.393 . S
C8 C9 1.399 . S
C9 C8 1.399 . S
C9 C10 1.381 . S
C10 H2 0.930 . S
C10 C6 1.390 . S
C10 C9 1.381 . S
N11 C4 1.286 . S
N11 C7 1.413 . S
H12 C17 0.930 . S
H13 C20 0.930 . S
H14 C22 0.930 . S
H15 C16 1.016 . S
C16 H15 1.016 . S
C16 N23 1.286 . S
C17 H12 0.930 . S
C17 C18 1.397 . S
C17 C19 1.361 . S
C18 C17 1.397 . S
C18 C22 1.390 . S
C19 C17 1.361 . S
C19 C20 1.393 . S
C19 N23 1.413 . S
C20 H13 0.930 . S
C20 C19 1.393 . S
C20 C21 1.399 . S
C21 C20 1.399 . S
C21 C22 1.381 . S
C22 H14 0.930 . S
C22 C18 1.390 . S
C22 C21 1.381 . S
N23 C16 1.286 . S
N23 C19 1.413 . S
H24 C29 0.930 . S
H25 C32 0.930 . S
H26 C34 0.930 . S
H27 C28 1.016 . S
C28 H27 1.016 . S
C28 N35 1.286 . S
C29 H24 0.930 . S
C29 C30 1.397 . S
C29 C31 1.361 . S
C30 C29 1.397 . S
C30 C34 1.390 . S
C31 C29 1.361 . S
C31 C32 1.393 . S
C31 N35 1.413 . S
C32 H25 0.930 . S
C32 C31 1.393 . S
C32 C33 1.399 . S
C33 C32 1.399 . S
C33 C34 1.381 . S
C34 H26 0.930 . S
C34 C30 1.390 . S
C34 C33 1.381 . S
N35 C28 1.286 . S
N35 C31 1.413 . S
H36 C41 0.930 . S
H37 C44 0.930 . S
H38 C46 0.930 . S
H39 C40 1.016 . S
C40 H39 1.016 . S
C40 N47 1.286 . S
C41 H36 0.930 . S
C41 C42 1.397 . S
C41 C43 1.361 . S
C42 C41 1.397 . S
C42 C46 1.390 . S
C43 C41 1.361 . S
C43 C44 1.393 . S
C43 N47 1.413 . S
C44 H37 0.930 . S
C44 C43 1.393 . S
C44 C45 1.399 . S
C45 C44 1.399 . S
C45 C46 1.381 . S
C46 H38 0.930 . S
C46 C42 1.390 . S
C46 C45 1.381 . S
N47 C40 1.286 . S
N47 C43 1.413 . S
H48 C53 0.930 . S
H49 C56 0.930 . S
H50 C58 0.930 . S
H51 C52 1.016 . S
C52 H51 1.016 . S
C52 N59 1.286 . S
C53 H48 0.930 . S
C53 C54 1.397 . S
C53 C55 1.361 . S
C54 C53 1.397 . S
C54 C58 1.390 . S
C55 C53 1.361 . S
C55 C56 1.393 . S
C55 N59 1.413 . S
C56 H49 0.930 . S
C56 C55 1.393 . S
C56 C57 1.399 . S
C57 C56 1.399 . S
C57 C58 1.381 . S
C58 H50 0.930 . S
C58 C54 1.390 . S
C58 C57 1.381 . S
N59 C52 1.286 . S
N59 C55 1.413 . S
H60 C65 0.930 . S
H61 C68 0.930 . S
H62 C70 0.930 . S
H63 C64 1.016 . S
C64 H63 1.016 . S
C64 N71 1.286 . S
C65 H60 0.930 . S
C65 C66 1.397 . S
C65 C67 1.361 . S
C66 C65 1.397 . S
C66 C70 1.390 . S
C67 C65 1.361 . S
C67 C68 1.393 . S
C67 N71 1.413 . S
C68 H61 0.930 . S
C68 C67 1.393 . S
C68 C69 1.399 . S
C69 C68 1.399 . S
C69 C70 1.381 . S
C70 H62 0.930 . S
C70 C66 1.390 . S
C70 C69 1.381 . S
N71 C64 1.286 . S
N71 C67 1.413 . S
H72 C77 0.930 . S
H73 C80 0.930 . S
H74 C82 0.930 . S
H75 C76 1.016 . S
C76 H75 1.016 . S
C76 N83 1.286 . S
C77 H72 0.930 . S
C77 C78 1.397 . S
C77 C79 1.361 . S
C78 C77 1.397 . S
C78 C82 1.390 . S
C79 C77 1.361 . S
C79 C80 1.393 . S
C79 N83 1.413 . S
C80 H73 0.930 . S
C80 C79 1.393 . S
C80 C81 1.399 . S
C81 C80 1.399 . S
C81 C82 1.381 . S
C82 H74 0.930 . S
C82 C78 1.390 . S
C82 C81 1.381 . S
N83 C76 1.286 . S
N83 C79 1.413 . S
H84 C89 0.930 . S
H85 C92 0.930 . S
H86 C94 0.930 . S
H87 C88 1.016 . S
C88 H87 1.016 . S
C88 N95 1.286 . S
C89 H84 0.930 . S
C89 C90 1.397 . S
C89 C91 1.361 . S
C90 C89 1.397 . S
C90 C94 1.390 . S
C91 C89 1.361 . S
C91 C92 1.393 . S
C91 N95 1.413 . S
C92 H85 0.930 . S
C92 C91 1.393 . S
C92 C93 1.399 . S
C93 C92 1.399 . S
C93 C94 1.381 . S
C94 H86 0.930 . S
C94 C90 1.390 . S
C94 C93 1.381 . S
N95 C88 1.286 . S
N95 C91 1.413 . S
H96 C101 0.930 . S
H97 C104 0.930 . S
H98 C106 0.930 . S
H99 C100 1.016 . S
C100 H99 1.016 . S
C100 N107 1.286 . S
C101 H96 0.930 . S
C101 C102 1.397 . S
C101 C103 1.361 . S
C102 C101 1.397 . S
C102 C106 1.390 . S
C103 C101 1.361 . S
C103 C104 1.393 . S
C103 N107 1.413 . S
C104 H97 0.930 . S
C104 C103 1.393 . S
C104 C105 1.399 . S
C105 C104 1.399 . S
C105 C106 1.381 . S
C106 H98 0.930 . S
C106 C102 1.390 . S
C106 C105 1.381 . S
N107 C100 1.286 . S
N107 C103 1.413 . S
H108 C113 0.930 . S
H109 C116 0.930 . S
H110 C118 0.930 . S
H111 C112 1.016 . S
C112 H111 1.016 . S
C112 N119 1.286 . S
C113 H108 0.930 . S
C113 C114 1.397 . S
C113 C115 1.361 . S
C114 C113 1.397 . S
C114 C118 1.390 . S
C115 C113 1.361 . S
C115 C116 1.393 . S
C115 N119 1.413 . S
C116 H109 0.930 . S
C116 C115 1.393 . S
C116 C117 1.399 . S
C117 C116 1.399 . S
C117 C118 1.381 . S
C118 H110 0.930 . S
C118 C114 1.390 . S
C118 C117 1.381 . S
N119 C112 1.286 . S
N119 C115 1.413 . S
H120 C125 0.930 1_554 S
H121 C128 0.930 . S
H122 C130 0.930 . S
H123 C124 1.016 . S
C124 H123 1.016 . S
C124 N131 1.286 . S
C125 H120 0.930 1_556 S
C125 C126 1.397 . S
C125 C127 1.361 . S
C126 C125 1.397 . S
C126 C130 1.390 . S
C127 C125 1.361 . S
C127 C128 1.393 . S
C127 N131 1.413 . S
C128 H121 0.930 . S
C128 C127 1.393 . S
C128 C129 1.399 . S
C129 C128 1.399 . S
C129 C130 1.381 . S
C130 H122 0.930 . S
C130 C126 1.390 . S
C130 C129 1.381 . S
N131 C124 1.286 . S
N131 C127 1.413 . S
H132 C137 0.930 . S
H133 C140 0.930 . S
H134 C142 0.930 . S
H135 C136 1.016 . S
C136 H135 1.016 . S
C136 N143 1.286 . S
C137 H132 0.930 . S
C137 C138 1.397 . S
C137 C139 1.361 . S
C138 C137 1.397 . S
C138 C142 1.390 . S
C139 C137 1.361 . S
C139 C140 1.393 . S
C139 N143 1.413 . S
C140 H133 0.930 . S
C140 C139 1.393 . S
C140 C141 1.399 . S
C141 C140 1.399 . S
C141 C142 1.381 . S
C142 H134 0.930 . S
C142 C138 1.390 . S
C142 C141 1.381 . S
N143 C136 1.286 . S
N143 C139 1.413 . S
H144 C149 0.930 . S
H145 C152 0.930 . S
H146 C154 0.930 . S
H147 C148 1.016 . S
C148 H147 1.016 . S
C148 N155 1.286 . S
C149 H144 0.930 . S
C149 C150 1.397 . S
C149 C151 1.361 . S
C150 C149 1.397 . S
C150 C154 1.390 . S
C151 C149 1.361 . S
C151 C152 1.393 . S
C151 N155 1.413 . S
C152 H145 0.930 . S
C152 C151 1.393 . S
C152 C153 1.399 . S
C153 C152 1.399 . S
C153 C154 1.381 . S
C154 H146 0.930 . S
C154 C150 1.390 . S
C154 C153 1.381 . S
N155 C148 1.286 . S
N155 C151 1.413 . S
H156 C161 0.930 . S
H157 C164 0.930 . S
H158 C166 0.930 . S
H159 C160 1.016 . S
C160 H159 1.016 . S
C160 N167 1.286 . S
C161 H156 0.930 . S
C161 C162 1.397 . S
C161 C163 1.361 . S
C162 C161 1.397 . S
C162 C166 1.390 . S
C163 C161 1.361 . S
C163 C164 1.393 . S
C163 N167 1.413 . S
C164 H157 0.930 . S
C164 C163 1.393 . S
C164 C165 1.399 . S
C165 C164 1.399 . S
C165 C166 1.381 . S
C166 H158 0.930 . S
C166 C162 1.390 . S
C166 C165 1.381 . S
N167 C160 1.286 . S
N167 C163 1.413 . S
H168 C173 0.930 . S
H169 C176 0.930 . S
H170 C178 0.930 . S
H171 C172 1.016 . S
C172 H171 1.016 . S
C172 N179 1.286 . S
C173 H168 0.930 . S
C173 C174 1.397 . S
C173 C175 1.361 . S
C174 C173 1.397 . S
C174 C178 1.390 . S
C175 C173 1.361 . S
C175 C176 1.393 . S
C175 N179 1.413 . S
C176 H169 0.930 . S
C176 C175 1.393 . S
C176 C177 1.399 . S
C177 C176 1.399 . S
C177 C178 1.381 . S
C178 H170 0.930 . S
C178 C174 1.390 . S
C178 C177 1.381 . S
N179 C172 1.286 . S
N179 C175 1.413 . S
H180 C185 0.930 . S
H181 C188 0.930 . S
H182 C190 0.930 . S
H183 C184 1.016 . S
C184 H183 1.016 . S
C184 N191 1.286 . S
C185 H180 0.930 . S
C185 C186 1.397 . S
C185 C187 1.361 . S
C186 C185 1.397 . S
C186 C190 1.390 . S
C187 C185 1.361 . S
C187 C188 1.393 . S
C187 N191 1.413 . S
C188 H181 0.930 . S
C188 C187 1.393 . S
C188 C189 1.399 . S
C189 C188 1.399 . S
C189 C190 1.381 . S
C190 H182 0.930 . S
C190 C186 1.390 . S
C190 C189 1.381 . S
N191 C184 1.286 . S
N191 C187 1.413 . S
H192 C197 0.930 . S
H193 C200 0.930 . S
H194 C202 0.930 . S
H195 C196 1.016 . S
C196 H195 1.016 . S
C196 N203 1.286 . S
C197 H192 0.930 . S
C197 C198 1.397 . S
C197 C199 1.361 . S
C198 C197 1.397 . S
C198 C202 1.390 . S
C199 C197 1.361 . S
C199 C200 1.393 . S
C199 N203 1.413 . S
C200 H193 0.930 . S
C200 C199 1.393 . S
C200 C201 1.399 . S
C201 C200 1.399 . S
C201 C202 1.381 . S
C202 H194 0.930 . S
C202 C198 1.390 . S
C202 C201 1.381 . S
N203 C196 1.286 . S
N203 C199 1.413 . S
H204 C209 0.930 . S
H205 C212 0.930 . S
H206 C214 0.930 . S
H207 C208 1.016 . S
C208 H207 1.016 . S
C208 N215 1.286 . S
C209 H204 0.930 . S
C209 C210 1.397 . S
C209 C211 1.361 . S
C210 C209 1.397 . S
C210 C214 1.390 . S
C211 C209 1.361 . S
C211 C212 1.393 . S
C211 N215 1.413 . S
C212 H205 0.930 . S
C212 C211 1.393 . S
C212 C213 1.399 . S
C213 C212 1.399 . S
C213 C214 1.381 . S
C214 H206 0.930 . S
C214 C210 1.390 . S
C214 C213 1.381 . S
N215 C208 1.286 . S
N215 C211 1.413 . S
Tb216 C226 2.825 1_565 S
Tb216 O227 2.347 1_565 S
Tb216 O230 2.366 1_565 S
Tb216 O235 2.418 . S
Tb216 O236 2.384 . S
Tb216 O239 2.479 . S
Tb216 O240 2.471 1_565 S
Eu217 O228 2.418 . S
Eu217 O229 2.384 . S
Eu217 O232 2.479 . S
Eu217 O233 2.471 1_545 S
Eu217 O234 2.347 1_545 S
Eu217 O237 2.366 1_545 S
Eu217 C247 2.825 . S
C218 O234 1.259 . S
C218 O235 1.265 1_554 S
C219 O236 1.255 1_554 S
C219 O237 1.265 . S
C220 C222 1.380 1_545 S
C220 C223 1.374 . S
C220 C226 1.507 . S
C221 C222 1.384 1_545 S
C221 C225 1.387 . S
C221 H248 0.930 1_545 S
C222 C220 1.380 1_565 S
C222 C221 1.384 1_565 S
C222 H249 0.931 . S
C223 C220 1.374 . S
C223 C224 1.390 . S
C223 H250 0.930 . S
C224 C223 1.390 . S
C224 C225 1.391 . S
C224 H251 0.930 . S
C225 C221 1.387 . S
C225 C224 1.391 . S
C226 Tb216 2.825 1_545 S
C226 C220 1.507 . S
C226 O239 1.238 1_545 S
C226 O240 1.247 . S
O227 Tb216 2.347 1_545 S
O227 C231 1.259 1_556 S
O228 Eu217 2.418 . S
O228 C231 1.265 . S
O229 Eu217 2.384 . S
O229 C238 1.255 1_554 S
O230 Tb216 2.366 1_545 S
O230 C238 1.265 . S
C231 O227 1.259 1_554 S
C231 O228 1.265 . S
O232 Eu217 2.479 . S
O232 C247 1.238 . S
O233 Eu217 2.471 1_565 S
O233 C247 1.247 1_565 S
O234 Eu217 2.347 1_565 S
O234 C218 1.259 . S
O235 Tb216 2.418 . S
O235 C218 1.265 1_556 S
O236 Tb216 2.384 . S
O236 C219 1.255 1_556 S
O237 Eu217 2.366 1_565 S
O237 C219 1.265 . S
C238 O229 1.255 1_556 S
C238 O230 1.265 . S
O239 Tb216 2.479 . S
O239 C226 1.238 1_565 S
O240 Tb216 2.471 1_545 S
O240 C226 1.247 . S
C241 C244 1.380 1_565 S
C241 C245 1.374 . S
C241 C247 1.507 1_565 S
C242 C243 1.387 1_565 S
C242 C246 1.391 . S
C243 C242 1.387 1_545 S
C243 C244 1.384 . S
C243 H252 0.930 . S
C244 C241 1.380 1_545 S
C244 C243 1.384 . S
C244 H253 0.931 . S
C245 C241 1.374 . S
C245 C246 1.390 . S
C245 H254 0.930 . S
C246 C242 1.391 . S
C246 C245 1.390 . S
C246 H255 0.930 . S
C247 Eu217 2.825 . S
C247 O232 1.238 . S
C247 O233 1.247 1_545 S
C247 C241 1.507 1_545 S
H248 C221 0.930 1_565 S
H249 C222 0.931 . S
H250 C223 0.930 . S
H251 C224 0.930 . S
H252 C243 0.930 . S
H253 C244 0.931 . S
H254 C245 0.930 . S
H255 C246 0.930 . S
Tb256 C266 2.833 . S
Tb256 O267 2.347 1_455 S
Tb256 O270 2.366 1_455 S
Tb256 O275 2.418 . S
Tb256 O276 2.384 1_556 S
Tb256 O279 2.479 . S
Tb256 O280 2.471 1_455 S
Eu257 O268 2.418 . S
Eu257 O269 2.384 . S
Eu257 O272 2.479 . S
Eu257 O273 2.471 1_655 S
Eu257 O274 2.347 1_655 S
Eu257 O277 2.366 1_655 S
Eu257 C287 2.825 1_655 S
C258 O274 1.259 . S
C258 O275 1.265 1_554 S
C259 O276 1.255 . S
C259 O277 1.265 . S
C260 C262 1.380 1_655 S
C260 C263 1.374 . S
C260 C266 1.498 1_655 S
C261 C262 1.384 1_655 S
C261 C265 1.387 . S
C261 H288 0.930 1_655 S
C262 C260 1.380 1_455 S
C262 C261 1.384 1_455 S
C262 H289 0.931 . S
C263 C260 1.374 . S
C263 C264 1.390 . S
C263 H290 0.930 . S
C264 C263 1.390 . S
C264 C265 1.391 . S
C264 H291 0.930 . S
C265 C261 1.387 . S
C265 C264 1.391 . S
C266 Tb256 2.833 . S
C266 C260 1.498 1_455 S
C266 O279 1.249 . S
C266 O280 1.245 1_455 S
O267 Tb256 2.347 1_655 S
O267 C271 1.259 . S
O268 Eu257 2.418 . S
O268 C271 1.265 1_554 S
O269 Eu257 2.384 . S
O269 C278 1.255 1_554 S
O270 Tb256 2.366 1_655 S
O270 C278 1.265 . S
C271 O267 1.259 . S
C271 O268 1.265 1_556 S
O272 Eu257 2.479 . S
O272 C287 1.238 1_655 S
O273 Eu257 2.471 1_455 S
O273 C287 1.247 . S
O274 Eu257 2.347 1_455 S
O274 C258 1.259 . S
O275 Tb256 2.418 . S
O275 C258 1.265 1_556 S
O276 Tb256 2.384 1_554 S
O276 C259 1.255 . S
O277 Eu257 2.366 1_455 S
O277 C259 1.265 . S
C278 O269 1.255 1_556 S
C278 O270 1.265 . S
O279 Tb256 2.479 . S
O279 C266 1.249 . S
O280 Tb256 2.471 1_655 S
O280 C266 1.245 1_655 S
C281 C284 1.380 1_455 S
C281 C285 1.374 . S
C281 C287 1.507 . S
C282 C283 1.387 . S
C282 C286 1.391 . S
C283 C282 1.387 . S
C283 C284 1.384 1_455 S
C283 H292 0.930 1_455 S
C284 C281 1.380 1_655 S
C284 C283 1.384 1_655 S
C284 H293 0.931 . S
C285 C281 1.374 . S
C285 C286 1.390 . S
C285 H294 0.930 . S
C286 C282 1.391 . S
C286 C285 1.390 . S
C286 H295 0.930 . S
C287 Eu257 2.825 1_455 S
C287 O272 1.238 1_455 S
C287 O273 1.247 . S
C287 C281 1.507 . S
H288 C261 0.930 1_455 S
H289 C262 0.931 . S
H290 C263 0.930 . S
H291 C264 0.930 . S
H292 C283 0.930 1_655 S
H293 C284 0.931 . S
H294 C285 0.930 . S
H295 C286 0.930 . S
Tb296 C306 2.825 . S
Tb296 O307 2.347 . S
Tb296 O310 2.366 . S
Tb296 O315 2.418 . S
Tb296 O316 2.384 . S
Tb296 O319 2.479 . S
Tb296 O320 2.471 . S
Eu297 O308 2.418 . S
Eu297 O309 2.384 1_556 S
Eu297 O312 2.479 . S
Eu297 O313 2.471 . S
Eu297 O314 2.347 . S
Eu297 O317 2.366 . S
Eu297 C327 2.825 . S
C298 O314 1.259 1_554 S
C298 O315 1.265 . S
C299 O316 1.255 1_556 S
C299 O317 1.265 . S
C300 C302 1.380 . S
C300 C303 1.374 . S
C300 C306 1.507 . S
C301 C302 1.384 . S
C301 C305 1.387 . S
C301 H328 0.930 . S
C302 C300 1.380 . S
C302 C301 1.384 . S
C302 H329 0.931 . S
C303 C300 1.374 . S
C303 C304 1.390 . S
C303 H330 0.930 . S
C304 C303 1.390 . S
C304 C305 1.391 . S
C304 H331 0.930 . S
C305 C301 1.387 . S
C305 C304 1.391 . S
C306 Tb296 2.825 . S
C306 C300 1.507 . S
C306 O319 1.238 . S
C306 O320 1.247 . S
O307 Tb296 2.347 . S
O307 C311 1.259 . S
O308 Eu297 2.418 . S
O308 C311 1.265 1_556 S
O309 Eu297 2.384 1_554 S
O309 C318 1.255 . S
O310 Tb296 2.366 . S
O310 C318 1.265 . S
C311 O307 1.259 . S
C311 O308 1.265 1_554 S
O312 Eu297 2.479 . S
O312 C327 1.238 . S
O313 Eu297 2.471 . S
O313 C327 1.247 . S
O314 Eu297 2.347 . S
O314 C298 1.259 1_556 S
O315 Tb296 2.418 . S
O315 C298 1.265 . S
O316 Tb296 2.384 . S
O316 C299 1.255 1_554 S
O317 Eu297 2.366 . S
O317 C299 1.265 . S
C318 O309 1.255 . S
C318 O310 1.265 . S
O319 Tb296 2.479 . S
O319 C306 1.238 . S
O320 Tb296 2.471 . S
O320 C306 1.247 . S
C321 C324 1.380 . S
C321 C325 1.374 . S
C321 C327 1.507 . S
C322 C323 1.387 . S
C322 C326 1.391 . S
C323 C322 1.387 . S
C323 C324 1.384 . S
C323 H332 0.930 . S
C324 C321 1.380 . S
C324 C323 1.384 . S
C324 H333 0.931 . S
C325 C321 1.374 . S
C325 C326 1.390 . S
C325 H334 0.930 . S
C326 C322 1.391 . S
C326 C325 1.390 . S
C326 H335 0.930 . S
C327 Eu297 2.825 . S
C327 O312 1.238 . S
C327 O313 1.247 . S
C327 C321 1.507 . S
H328 C301 0.930 . S
H329 C302 0.931 . S
H330 C303 0.930 . S
H331 C304 0.930 . S
H332 C323 0.930 . S
H333 C324 0.931 . S
H334 C325 0.930 . S
H335 C326 0.930 . S
Tb336 C346 2.825 . S
Tb336 O347 2.347 . S
Tb336 O350 2.366 . S
Tb336 O355 2.418 . S
Tb336 O356 2.384 . S
Tb336 O359 2.479 . S
Tb336 O360 2.471 . S
Eu337 O348 2.418 . S
Eu337 O349 2.384 . S
Eu337 O352 2.479 . S
Eu337 O353 2.471 . S
Eu337 O354 2.347 . S
Eu337 O357 2.366 . S
Eu337 C367 2.825 . S
C338 O354 1.259 . S
C338 O355 1.265 . S
C339 O356 1.255 . S
C339 O357 1.265 . S
C340 C342 1.380 . S
C340 C343 1.374 . S
C340 C346 1.507 . S
C341 C342 1.384 . S
C341 C345 1.387 . S
C341 H368 0.930 . S
C342 C340 1.380 . S
C342 C341 1.384 . S
C342 H369 0.931 . S
C343 C340 1.374 . S
C343 C344 1.390 . S
C343 H370 0.930 . S
C344 C343 1.390 . S
C344 C345 1.391 . S
C344 H371 0.930 . S
C345 C341 1.387 . S
C345 C344 1.391 . S
C346 Tb336 2.825 . S
C346 C340 1.507 . S
C346 O359 1.238 . S
C346 O360 1.247 . S
O347 Tb336 2.347 . S
O347 C351 1.259 . S
O348 Eu337 2.418 . S
O348 C351 1.265 . S
O349 Eu337 2.384 . S
O349 C358 1.255 . S
O350 Tb336 2.366 . S
O350 C358 1.265 . S
C351 O347 1.259 . S
C351 O348 1.265 . S
O352 Eu337 2.479 . S
O352 C367 1.238 . S
O353 Eu337 2.471 . S
O353 C367 1.247 . S
O354 Eu337 2.347 . S
O354 C338 1.259 . S
O355 Tb336 2.418 . S
O355 C338 1.265 . S
O356 Tb336 2.384 . S
O356 C339 1.255 . S
O357 Eu337 2.366 . S
O357 C339 1.265 . S
C358 O349 1.255 . S
C358 O350 1.265 . S
O359 Tb336 2.479 . S
O359 C346 1.238 . S
O360 Tb336 2.471 . S
O360 C346 1.247 . S
C361 C364 1.380 . S
C361 C365 1.374 . S
C361 C367 1.507 . S
C362 C363 1.387 . S
C362 C366 1.391 . S
C363 C362 1.387 . S
C363 C364 1.384 . S
C363 H372 0.930 . S
C364 C361 1.380 . S
C364 C363 1.384 . S
C364 H373 0.931 . S
C365 C361 1.374 . S
C365 C366 1.390 . S
C365 H374 0.930 . S
C366 C362 1.391 . S
C366 C365 1.390 . S
C366 H375 0.930 . S
C367 Eu337 2.825 . S
C367 O352 1.238 . S
C367 O353 1.247 . S
C367 C361 1.507 . S
H368 C341 0.930 . S
H369 C342 0.931 . S
H370 C343 0.930 . S
H371 C344 0.930 . S
H372 C363 0.930 . S
H373 C364 0.931 . S
H374 C365 0.930 . S
H375 C366 0.930 . S
Tb376 C386 2.825 . S
Tb376 O387 2.347 . S
Tb376 O390 2.366 . S
Tb376 O395 2.418 . S
Tb376 O396 2.384 . S
Tb376 O399 2.479 . S
Tb376 O400 2.471 . S
Eu377 O388 2.418 . S
Eu377 O389 2.384 . S
Eu377 O392 2.479 . S
Eu377 O393 2.471 . S
Eu377 O394 2.347 . S
Eu377 O397 2.366 . S
Eu377 C407 2.825 . S
C378 O394 1.259 . S
C378 O395 1.265 . S
C379 O396 1.255 . S
C379 O397 1.265 . S
C380 C382 1.380 . S
C380 C383 1.374 . S
C380 C386 1.507 . S
C381 C382 1.384 . S
C381 C385 1.387 . S
C381 H408 0.930 . S
C382 C380 1.380 . S
C382 C381 1.384 . S
C382 H409 0.931 . S
C383 C380 1.374 . S
C383 C384 1.390 . S
C383 H410 0.930 . S
C384 C383 1.390 . S
C384 C385 1.391 . S
C384 H411 0.930 . S
C385 C381 1.387 . S
C385 C384 1.391 . S
C386 Tb376 2.825 . S
C386 C380 1.507 . S
C386 O399 1.238 . S
C386 O400 1.247 . S
O387 Tb376 2.347 . S
O387 C391 1.259 . S
O388 Eu377 2.418 . S
O388 C391 1.265 . S
O389 Eu377 2.384 . S
O389 C398 1.255 . S
O390 Tb376 2.366 . S
O390 C398 1.265 . S
C391 O387 1.259 . S
C391 O388 1.265 . S
O392 Eu377 2.479 . S
O392 C407 1.238 . S
O393 Eu377 2.471 . S
O393 C407 1.247 . S
O394 Eu377 2.347 . S
O394 C378 1.259 . S
O395 Tb376 2.418 . S
O395 C378 1.265 . S
O396 Tb376 2.384 . S
O396 C379 1.255 . S
O397 Eu377 2.366 . S
O397 C379 1.265 . S
C398 O389 1.255 . S
C398 O390 1.265 . S
O399 Tb376 2.479 . S
O399 C386 1.238 . S
O400 Tb376 2.471 . S
O400 C386 1.247 . S
C401 C404 1.380 . S
C401 C405 1.374 . S
C401 C407 1.507 . S
C402 C403 1.387 . S
C402 C406 1.391 . S
C403 C402 1.387 . S
C403 C404 1.384 . S
C403 H412 0.930 . S
C404 C401 1.380 . S
C404 C403 1.384 . S
C404 H413 0.931 . S
C405 C401 1.374 . S
C405 C406 1.390 . S
C405 H414 0.930 . S
C406 C402 1.391 . S
C406 C405 1.390 . S
C406 H415 0.930 . S
C407 Eu377 2.825 . S
C407 O392 1.238 . S
C407 O393 1.247 . S
C407 C401 1.507 . S
H408 C381 0.930 . S
H409 C382 0.931 . S
H410 C383 0.930 . S
H411 C384 0.930 . S
H412 C403 0.930 . S
H413 C404 0.931 . S
H414 C405 0.930 . S
H415 C406 0.930 . S
Tb416 C426 2.825 . S
Tb416 O427 2.347 . S
Tb416 O430 2.366 . S
Tb416 O435 2.418 . S
Tb416 O436 2.384 . S
Tb416 O439 2.479 . S
Tb416 O440 2.471 . S
Eu417 O428 2.418 . S
Eu417 O429 2.384 . S
Eu417 O432 2.479 . S
Eu417 O433 2.471 . S
Eu417 O434 2.347 . S
Eu417 O437 2.366 . S
Eu417 C447 2.825 . S
C418 O434 1.259 . S
C418 O435 1.265 . S
C419 O436 1.255 . S
C419 O437 1.265 . S
C420 C422 1.380 . S
C420 C423 1.374 . S
C420 C426 1.507 . S
C421 C422 1.384 . S
C421 C425 1.387 . S
C421 H448 0.930 . S
C422 C420 1.380 . S
C422 C421 1.384 . S
C422 H449 0.931 . S
C423 C420 1.374 . S
C423 C424 1.390 . S
C423 H450 0.930 . S
C424 C423 1.390 . S
C424 C425 1.391 . S
C424 H451 0.930 . S
C425 C421 1.387 . S
C425 C424 1.391 . S
C426 Tb416 2.825 . S
C426 C420 1.507 . S
C426 O439 1.238 . S
C426 O440 1.247 . S
O427 Tb416 2.347 . S
O427 C431 1.259 . S
O428 Eu417 2.418 . S
O428 C431 1.265 . S
O429 Eu417 2.384 . S
O429 C438 1.255 . S
O430 Tb416 2.366 . S
O430 C438 1.265 . S
C431 O427 1.259 . S
C431 O428 1.265 . S
O432 Eu417 2.479 . S
O432 C447 1.238 . S
O433 Eu417 2.471 . S
O433 C447 1.247 . S
O434 Eu417 2.347 . S
O434 C418 1.259 . S
O435 Tb416 2.418 . S
O435 C418 1.265 . S
O436 Tb416 2.384 . S
O436 C419 1.255 . S
O437 Eu417 2.366 . S
O437 C419 1.265 . S
C438 O429 1.255 . S
C438 O430 1.265 . S
O439 Tb416 2.479 . S
O439 C426 1.238 . S
O440 Tb416 2.471 . S
O440 C426 1.247 . S
C441 C444 1.380 . S
C441 C445 1.374 . S
C441 C447 1.507 . S
C442 C443 1.387 . S
C442 C446 1.391 . S
C443 C442 1.387 . S
C443 C444 1.384 . S
C443 H452 0.930 . S
C444 C441 1.380 . S
C444 C443 1.384 . S
C444 H453 0.931 . S
C445 C441 1.374 . S
C445 C446 1.390 . S
C445 H454 0.930 . S
C446 C442 1.391 . S
C446 C445 1.390 . S
C446 H455 0.930 . S
C447 Eu417 2.825 . S
C447 O432 1.238 . S
C447 O433 1.247 . S
C447 C441 1.507 . S
H448 C421 0.930 . S
H449 C422 0.931 . S
H450 C423 0.930 . S
H451 C424 0.930 . S
H452 C443 0.930 . S
H453 C444 0.931 . S
H454 C445 0.930 . S
H455 C446 0.930 . S
Tb456 C466 2.825 . S
Tb456 O467 2.347 . S
Tb456 O470 2.366 . S
Tb456 O475 2.418 . S
Tb456 O476 2.384 . S
Tb456 O479 2.479 . S
Tb456 O480 2.471 . S
Eu457 O468 2.418 . S
Eu457 O469 2.384 . S
Eu457 O472 2.479 . S
Eu457 O473 2.471 . S
Eu457 O474 2.347 . S
Eu457 O477 2.366 . S
Eu457 C487 2.825 . S
C458 O474 1.259 . S
C458 O475 1.265 . S
C459 O476 1.255 . S
C459 O477 1.265 . S
C460 C462 1.380 . S
C460 C463 1.374 . S
C460 C466 1.507 . S
C461 C462 1.384 . S
C461 C465 1.387 . S
C461 H488 0.930 . S
C462 C460 1.380 . S
C462 C461 1.384 . S
C462 H489 0.931 . S
C463 C460 1.374 . S
C463 C464 1.390 . S
C463 H490 0.930 . S
C464 C463 1.390 . S
C464 C465 1.391 . S
C464 H491 0.930 . S
C465 C461 1.387 . S
C465 C464 1.391 . S
C466 Tb456 2.825 . S
C466 C460 1.507 . S
C466 O479 1.238 . S
C466 O480 1.247 . S
O467 Tb456 2.347 . S
O467 C471 1.259 . S
O468 Eu457 2.418 . S
O468 C471 1.265 . S
O469 Eu457 2.384 . S
O469 C478 1.255 . S
O470 Tb456 2.366 . S
O470 C478 1.265 . S
C471 O467 1.259 . S
C471 O468 1.265 . S
O472 Eu457 2.479 . S
O472 C487 1.238 . S
O473 Eu457 2.471 . S
O473 C487 1.247 . S
O474 Eu457 2.347 . S
O474 C458 1.259 . S
O475 Tb456 2.418 . S
O475 C458 1.265 . S
O476 Tb456 2.384 . S
O476 C459 1.255 . S
O477 Eu457 2.366 . S
O477 C459 1.265 . S
C478 O469 1.255 . S
C478 O470 1.265 . S
O479 Tb456 2.479 . S
O479 C466 1.238 . S
O480 Tb456 2.471 . S
O480 C466 1.247 . S
C481 C484 1.380 . S
C481 C485 1.374 . S
C481 C487 1.507 . S
C482 C483 1.387 . S
C482 C486 1.391 . S
C483 C482 1.387 . S
C483 C484 1.384 . S
C483 H492 0.930 . S
C484 C481 1.380 . S
C484 C483 1.384 . S
C484 H493 0.931 . S
C485 C481 1.374 . S
C485 C486 1.390 . S
C485 H494 0.930 . S
C486 C482 1.391 . S
C486 C485 1.390 . S
C486 H495 0.930 . S
C487 Eu457 2.825 . S
C487 O472 1.238 . S
C487 O473 1.247 . S
C487 C481 1.507 . S
H488 C461 0.930 . S
H489 C462 0.931 . S
H490 C463 0.930 . S
H491 C464 0.930 . S
H492 C483 0.930 . S
H493 C484 0.931 . S
H494 C485 0.930 . S
H495 C486 0.930 . S
Tb496 C506 2.825 . S
Tb496 O507 2.347 . S
Tb496 O510 2.366 . S
Tb496 O515 2.418 . S
Tb496 O516 2.384 . S
Tb496 O519 2.479 . S
Tb496 O520 2.471 . S
Eu497 O508 2.418 . S
Eu497 O509 2.384 . S
Eu497 O512 2.479 . S
Eu497 O513 2.471 . S
Eu497 O514 2.347 . S
Eu497 O517 2.366 . S
Eu497 C527 2.825 . S
C498 O514 1.259 . S
C498 O515 1.265 . S
C499 O516 1.255 . S
C499 O517 1.265 . S
C500 C502 1.380 . S
C500 C503 1.374 . S
C500 C506 1.507 . S
C501 C502 1.384 . S
C501 C505 1.387 . S
C501 H528 0.930 . S
C502 C500 1.380 . S
C502 C501 1.384 . S
C502 H529 0.931 . S
C503 C500 1.374 . S
C503 C504 1.390 . S
C503 H530 0.930 . S
C504 C503 1.390 . S
C504 C505 1.391 . S
C504 H531 0.930 . S
C505 C501 1.387 . S
C505 C504 1.391 . S
C506 Tb496 2.825 . S
C506 C500 1.507 . S
C506 O519 1.238 . S
C506 O520 1.247 . S
O507 Tb496 2.347 . S
O507 C511 1.259 . S
O508 Eu497 2.418 . S
O508 C511 1.265 . S
O509 Eu497 2.384 . S
O509 C518 1.255 . S
O510 Tb496 2.366 . S
O510 C518 1.265 . S
C511 O507 1.259 . S
C511 O508 1.265 . S
O512 Eu497 2.479 . S
O512 C527 1.238 . S
O513 Eu497 2.471 . S
O513 C527 1.247 . S
O514 Eu497 2.347 . S
O514 C498 1.259 . S
O515 Tb496 2.418 . S
O515 C498 1.265 . S
O516 Tb496 2.384 . S
O516 C499 1.255 . S
O517 Eu497 2.366 . S
O517 C499 1.265 . S
C518 O509 1.255 . S
C518 O510 1.265 . S
O519 Tb496 2.479 . S
O519 C506 1.238 . S
O520 Tb496 2.471 . S
O520 C506 1.247 . S
C521 C524 1.380 . S
C521 C525 1.374 . S
C521 C527 1.507 . S
C522 C523 1.387 . S
C522 C526 1.391 . S
C523 C522 1.387 . S
C523 C524 1.384 . S
C523 H532 0.930 . S
C524 C521 1.380 . S
C524 C523 1.384 . S
C524 H533 0.931 . S
C525 C521 1.374 . S
C525 C526 1.390 . S
C525 H534 0.930 . S
C526 C522 1.391 . S
C526 C525 1.390 . S
C526 H535 0.930 . S
C527 Eu497 2.825 . S
C527 O512 1.238 . S
C527 O513 1.247 . S
C527 C521 1.507 . S
H528 C501 0.930 . S
H529 C502 0.931 . S
H530 C503 0.930 . S
H531 C504 0.930 . S
H532 C523 0.930 . S
H533 C524 0.931 . S
H534 C525 0.930 . S
H535 C526 0.930 . S
Tb536 C546 2.825 . S
Tb536 O547 2.347 . S
Tb536 O550 2.366 . S
Tb536 O555 2.418 . S
Tb536 O556 2.384 . S
Tb536 O559 2.479 . S
Tb536 O560 2.471 . S
Eu537 O548 2.418 . S
Eu537 O549 2.384 . S
Eu537 O552 2.479 . S
Eu537 O553 2.471 . S
Eu537 O554 2.347 . S
Eu537 O557 2.366 . S
Eu537 C567 2.825 . S
C538 O554 1.259 . S
C538 O555 1.265 . S
C539 O556 1.255 . S
C539 O557 1.265 . S
C540 C542 1.380 . S
C540 C543 1.374 . S
C540 C546 1.507 . S
C541 C542 1.384 . S
C541 C545 1.387 . S
C541 H568 0.930 . S
C542 C540 1.380 . S
C542 C541 1.384 . S
C542 H569 0.931 . S
C543 C540 1.374 . S
C543 C544 1.390 . S
C543 H570 0.930 . S
C544 C543 1.390 . S
C544 C545 1.391 . S
C544 H571 0.930 . S
C545 C541 1.387 . S
C545 C544 1.391 . S
C546 Tb536 2.825 . S
C546 C540 1.507 . S
C546 O559 1.238 . S
C546 O560 1.247 . S
O547 Tb536 2.347 . S
O547 C551 1.259 . S
O548 Eu537 2.418 . S
O548 C551 1.265 . S
O549 Eu537 2.384 . S
O549 C558 1.255 . S
O550 Tb536 2.366 . S
O550 C558 1.265 . S
C551 O547 1.259 . S
C551 O548 1.265 . S
O552 Eu537 2.479 . S
O552 C567 1.238 . S
O553 Eu537 2.471 . S
O553 C567 1.247 . S
O554 Eu537 2.347 . S
O554 C538 1.259 . S
O555 Tb536 2.418 . S
O555 C538 1.265 . S
O556 Tb536 2.384 . S
O556 C539 1.255 . S
O557 Eu537 2.366 . S
O557 C539 1.265 . S
C558 O549 1.255 . S
C558 O550 1.265 . S
O559 Tb536 2.479 . S
O559 C546 1.238 . S
O560 Tb536 2.471 . S
O560 C546 1.247 . S
C561 C564 1.380 . S
C561 C565 1.374 . S
C561 C567 1.507 . S
C562 C563 1.387 . S
C562 C566 1.391 . S
C563 C562 1.387 . S
C563 C564 1.384 . S
C563 H572 0.930 . S
C564 C561 1.380 . S
C564 C563 1.384 . S
C564 H573 0.931 . S
C565 C561 1.374 . S
C565 C566 1.390 . S
C565 H574 0.930 . S
C566 C562 1.391 . S
C566 C565 1.390 . S
C566 H575 0.930 . S
C567 Eu537 2.825 . S
C567 O552 1.238 . S
C567 O553 1.247 . S
C567 C561 1.507 . S
H568 C541 0.930 . S
H569 C542 0.931 . S
H570 C543 0.930 . S
H571 C544 0.930 . S
H572 C563 0.930 . S
H573 C564 0.931 . S
H574 C565 0.930 . S
H575 C566 0.930 . S
C576 C577 1.387 . S
C576 H580 0.950 . S
C576 C585 1.390 . S
C577 C576 1.387 . S
C577 C579 1.387 . S
H578 C585 0.950 1_556 S
C579 C577 1.387 . S
C579 C581 1.390 . S
C579 H583 0.950 . S
H580 C576 0.950 . S
C581 C579 1.390 . S
C581 C582 1.387 . S
C581 H584 0.950 . S
C582 C581 1.387 . S
C582 C585 1.387 . S
H583 C579 0.950 . S
H584 C581 0.950 . S
C585 C576 1.390 . S
C585 H578 0.950 1_554 S
C585 C582 1.387 . S
C586 C587 1.387 . S
C586 H590 0.950 . S
C586 C595 1.390 . S
C587 C586 1.387 . S
C587 C589 1.387 . S
H588 C595 0.950 . S
C589 C587 1.387 . S
C589 C591 1.390 . S
C589 H593 0.950 . S
H590 C586 0.950 . S
C591 C589 1.390 . S
C591 C592 1.387 . S
C591 H594 0.950 . S
C592 C591 1.387 . S
C592 C595 1.387 . S
H593 C589 0.950 . S
H594 C591 0.950 . S
C595 C586 1.390 . S
C595 H588 0.950 . S
C595 C592 1.387 . S
C596 C597 1.387 . S
C596 H600 0.950 . S
C596 C605 1.390 . S
C597 C596 1.387 . S
C597 C599 1.387 . S
H598 C605 0.950 . S
C599 C597 1.387 . S
C599 C601 1.390 1_554 S
C599 H603 0.950 1_554 S
H600 C596 0.950 . S
C601 C599 1.390 1_556 S
C601 C602 1.387 1_556 S
C601 H604 0.950 . S
C602 C601 1.387 1_554 S
C602 C605 1.387 . S
H603 C599 0.950 1_556 S
H604 C601 0.950 . S
C605 C596 1.390 . S
C605 H598 0.950 . S
C605 C602 1.387 . S
C606 C607 1.387 . S
C606 H610 0.950 1_556 S
C606 C615 1.390 . S
C607 C606 1.387 . S
C607 C609 1.387 . S
H608 C615 0.950 1_554 S
C609 C607 1.387 . S
C609 C611 1.390 . S
C609 H613 0.950 . S
H610 C606 0.950 1_554 S
C611 C609 1.390 . S
C611 C612 1.387 . S
C611 H614 0.950 . S
C612 C611 1.387 . S
C612 C615 1.387 . S
H613 C609 0.950 . S
H614 C611 0.950 . S
C615 C606 1.390 . S
C615 H608 0.950 1_556 S
C615 C612 1.387 . S
C616 C617 1.387 . S
C616 H620 0.950 . S
C616 C625 1.390 . S
C617 C616 1.387 . S
C617 C619 1.387 . S
H618 C625 0.950 . S
C619 C617 1.387 . S
C619 C621 1.390 . S
C619 H623 0.950 . S
H620 C616 0.950 . S
C621 C619 1.390 . S
C621 C622 1.387 . S
C621 H624 0.950 . S
C622 C621 1.387 . S
C622 C625 1.387 . S
H623 C619 0.950 . S
H624 C621 0.950 . S
C625 C616 1.390 . S
C625 H618 0.950 . S
C625 C622 1.387 . S
C626 C627 1.387 1_554 S
C626 H630 0.950 . S
C626 C635 1.390 . S
C627 C626 1.387 1_556 S
C627 C629 1.387 . S
H628 C635 0.950 . S
C629 C627 1.387 . S
C629 C631 1.390 . S
C629 H633 0.950 . S
H630 C626 0.950 . S
C631 C629 1.390 . S
C631 C632 1.387 . S
C631 H634 0.950 . S
C632 C631 1.387 . S
C632 C635 1.387 1_556 S
H633 C629 0.950 . S
H634 C631 0.950 . S
C635 C626 1.390 . S
C635 H628 0.950 . S
C635 C632 1.387 1_554 S
C636 C637 1.387 . S
C636 H640 0.950 . S
C636 C645 1.390 . S
C637 C636 1.387 . S
C637 C639 1.387 . S
H638 C645 0.950 . S
C639 C637 1.387 . S
C639 C641 1.390 . S
C639 H643 0.950 . S
H640 C636 0.950 . S
C641 C639 1.390 . S
C641 C642 1.387 . S
C641 H644 0.950 . S
C642 C641 1.387 . S
C642 C645 1.387 . S
H643 C639 0.950 . S
H644 C641 0.950 . S
C645 C636 1.390 . S
C645 H638 0.950 . S
C645 C642 1.387 . S
C646 C647 1.387 . S
C646 H650 0.950 . S
C646 C655 1.390 . S
C647 C646 1.387 . S
C647 C649 1.387 . S
H648 C655 0.950 1_554 S
C649 C647 1.387 . S
C649 C651 1.390 . S
C649 H653 0.950 . S
H650 C646 0.950 . S
C651 C649 1.390 . S
C651 C652 1.387 . S
C651 H654 0.950 . S
C652 C651 1.387 . S
C652 C655 1.387 . S
H653 C649 0.950 . S
H654 C651 0.950 . S
C655 C646 1.390 . S
C655 H648 0.950 1_556 S
C655 C652 1.387 . S
C656 C657 1.387 1_554 S
C656 H660 0.950 . S
C656 C665 1.390 . S
C657 C656 1.387 1_556 S
C657 C659 1.387 . S
H658 C665 0.950 . S
C659 C657 1.387 . S
C659 C661 1.390 . S
C659 H663 0.950 . S
H660 C656 0.950 . S
C661 C659 1.390 . S
C661 C662 1.387 . S
C661 H664 0.950 . S
C662 C661 1.387 . S
C662 C665 1.387 1_556 S
H663 C659 0.950 . S
H664 C661 0.950 . S
C665 C656 1.390 . S
C665 H658 0.950 . S
C665 C662 1.387 1_554 S
C666 C667 1.387 . S
C666 H670 0.950 . S
C666 C675 1.390 . S
C667 C666 1.387 . S
C667 C669 1.387 1_554 S
H668 C675 0.950 . S
C669 C667 1.387 1_556 S
C669 C671 1.390 . S
C669 H673 0.950 . S
H670 C666 0.950 . S
C671 C669 1.390 . S
C671 C672 1.387 1_556 S
C671 H674 0.950 . S
C672 C671 1.387 1_554 S
C672 C675 1.387 . S
H673 C669 0.950 . S
H674 C671 0.950 . S
C675 C666 1.390 . S
C675 H668 0.950 . S
C675 C672 1.387 . S
C676 C677 1.387 . S
C676 H680 0.950 . S
C676 C685 1.390 . S
C677 C676 1.387 . S
C677 C679 1.387 . S
H678 C685 0.950 . S
C679 C677 1.387 . S
C679 C681 1.390 . S
C679 H683 0.950 . S
H680 C676 0.950 . S
C681 C679 1.390 . S
C681 C682 1.387 . S
C681 H684 0.937 1_554 S
C682 C681 1.387 . S
C682 C685 1.387 . S
H683 C679 0.950 . S
H684 C681 0.937 1_556 S
C685 C676 1.390 . S
C685 H678 0.950 . S
C685 C682 1.387 . S
C686 C687 1.387 . S
C686 H690 0.950 . S
C686 C695 1.390 . S
C687 C686 1.387 . S
C687 C689 1.387 1_554 S
H688 C695 0.950 . S
C689 C687 1.387 1_556 S
C689 C691 1.390 . S
C689 H693 0.950 . S
H690 C686 0.950 . S
C691 C689 1.390 . S
C691 C692 1.387 1_556 S
C691 H694 0.950 . S
C692 C691 1.387 1_554 S
C692 C695 1.387 . S
H693 C689 0.950 . S
H694 C691 0.950 . S
C695 C686 1.390 . S
C695 H688 0.950 . S
C695 C692 1.387 . S
C696 C697 1.387 . S
C696 H700 0.950 . S
C696 C705 1.390 1_655 S
C697 C696 1.387 . S
C697 C699 1.387 . S
H698 C705 0.950 . S
C699 C697 1.387 . S
C699 C701 1.390 . S
C699 H703 0.950 . S
H700 C696 0.950 . S
C701 C699 1.390 . S
C701 C702 1.387 1_655 S
C701 H704 0.946 1_655 S
C702 C701 1.387 1_455 S
C702 C705 1.387 . S
H703 C699 0.950 . S
H704 C701 0.946 1_455 S
C705 C696 1.390 1_455 S
C705 H698 0.950 . S
C705 C702 1.387 . S
C706 C707 1.387 . S
C706 H710 0.950 . S
C706 C715 1.390 . S
C707 C706 1.387 . S
C707 C709 1.387 . S
H708 C715 0.950 . S
C709 C707 1.387 . S
C709 C711 1.390 . S
C709 H713 0.950 . S
H710 C706 0.950 . S
C711 C709 1.390 . S
C711 C712 1.387 . S
C711 H714 0.950 . S
C712 C711 1.387 . S
C712 C715 1.387 . S
H713 C709 0.950 . S
H714 C711 0.950 . S
C715 C706 1.390 . S
C715 H708 0.950 . S
C715 C712 1.387 . S
C716 C717 1.387 . S
C716 H720 0.950 . S
C716 C725 1.390 . S
C717 C716 1.387 . S
C717 C719 1.387 . S
H718 C725 0.950 1_565 S
C719 C717 1.387 . S
C719 C721 1.390 . S
C719 H723 0.950 . S
H720 C716 0.950 . S
C721 C719 1.390 . S
C721 C722 1.387 1_545 S
C721 H724 0.950 1_545 S
C722 C721 1.387 1_565 S
C722 C725 1.387 1_565 S
H723 C719 0.950 . S
H724 C721 0.950 1_565 S
C725 C716 1.390 . S
C725 H718 0.950 1_545 S
C725 C722 1.387 1_545 S
C726 C727 1.387 . S
C726 H730 0.950 . S
C726 C735 1.390 . S
C727 C726 1.387 . S
C727 C729 1.387 . S
H728 C735 0.950 . S
C729 C727 1.387 . S
C729 C731 1.390 . S
C729 H733 0.950 . S
H730 C726 0.950 . S
C731 C729 1.390 . S
C731 C732 1.387 . S
C731 H734 0.950 . S
C732 C731 1.387 . S
C732 C735 1.387 . S
H733 C729 0.950 . S
H734 C731 0.950 . S
C735 C726 1.390 . S
C735 H728 0.950 . S
C735 C732 1.387 . S
C736 C737 1.387 . S
C736 H740 0.950 . S
C736 C745 1.390 . S
C737 C736 1.387 . S
C737 C739 1.387 . S
H738 C745 0.950 . S
C739 C737 1.387 . S
C739 C741 1.390 . S
C739 H743 0.950 . S
H740 C736 0.950 . S
C741 C739 1.390 . S
C741 C742 1.387 . S
C741 H744 0.950 . S
C742 C741 1.387 . S
C742 C745 1.387 . S
H743 C739 0.950 . S
H744 C741 0.950 . S
C745 C736 1.390 . S
C745 H738 0.950 . S
C745 C742 1.387 . S
C746 C747 1.387 . S
C746 H750 0.950 . S
C746 C755 1.390 . S
C747 C746 1.387 . S
C747 C749 1.387 . S
H748 C755 0.950 . S
C749 C747 1.387 . S
C749 C751 1.390 . S
C749 H753 0.950 . S
H750 C746 0.950 . S
C751 C749 1.390 . S
C751 C752 1.387 . S
C751 H754 0.950 . S
C752 C751 1.387 . S
C752 C755 1.387 . S
H753 C749 0.950 . S
H754 C751 0.950 . S
C755 C746 1.390 . S
C755 H748 0.950 . S
C755 C752 1.387 . S
C756 C757 1.387 . S
C756 H760 0.950 . S
C756 C765 1.390 . S
C757 C756 1.387 . S
C757 C759 1.387 . S
H758 C765 0.950 . S
C759 C757 1.387 . S
C759 C761 1.390 . S
C759 H763 0.950 . S
H760 C756 0.950 . S
C761 C759 1.390 . S
C761 C762 1.387 . S
C761 H764 0.950 . S
C762 C761 1.387 . S
C762 C765 1.387 . S
H763 C759 0.950 . S
H764 C761 0.950 . S
C765 C756 1.390 . S
C765 H758 0.950 . S
C765 C762 1.387 . S
C766 C767 1.387 . S
C766 H770 0.950 . S
C766 C775 1.390 . S
C767 C766 1.387 . S
C767 C769 1.387 . S
H768 C775 0.950 . S
C769 C767 1.387 . S
C769 C771 1.390 . S
C769 H773 0.950 . S
H770 C766 0.950 . S
C771 C769 1.390 . S
C771 C772 1.387 . S
C771 H774 0.950 . S
C772 C771 1.387 . S
C772 C775 1.387 . S
H773 C769 0.950 . S
H774 C771 0.950 . S
C775 C766 1.390 . S
C775 H768 0.950 . S
C775 C772 1.387 . S
C776 C777 1.387 . S
C776 H780 0.950 . S
C776 C785 1.390 . S
C777 C776 1.387 . S
C777 C779 1.387 . S
H778 C785 0.950 . S
C779 C777 1.387 . S
C779 C781 1.390 . S
C779 H783 0.950 . S
H780 C776 0.950 . S
C781 C779 1.390 . S
C781 C782 1.387 . S
C781 H784 0.950 . S
C782 C781 1.387 . S
C782 C785 1.387 . S
H783 C779 0.950 . S
H784 C781 0.950 . S
C785 C776 1.390 . S
C785 H778 0.950 . S
C785 C782 1.387 . S
C786 C787 1.387 1_565 S
C786 H790 0.950 . S
C786 C795 1.390 . S
C787 C786 1.387 1_545 S
C787 C789 1.387 1_545 S
H788 C795 0.950 . S
C789 C787 1.387 1_565 S
C789 C791 1.390 . S
C789 H793 0.950 . S
H790 C786 0.950 . S
C791 C789 1.390 . S
C791 C792 1.387 . S
C791 H794 0.950 . S
C792 C791 1.387 . S
C792 C795 1.387 . S
H793 C789 0.950 . S
H794 C791 0.950 . S
C795 C786 1.390 . S
C795 H788 0.950 . S
C795 C792 1.387 . S
C796 C797 1.387 . S
C796 H800 0.950 . S
C796 C805 1.390 . S
C797 C796 1.387 . S
C797 C799 1.387 . S
H798 C805 0.950 . S
C799 C797 1.387 . S
C799 C801 1.390 . S
C799 H803 0.950 . S
H800 C796 0.950 . S
C801 C799 1.390 . S
C801 C802 1.387 . S
C801 H804 0.950 . S
C802 C801 1.387 . S
C802 C805 1.387 . S
H803 C799 0.950 . S
H804 C801 0.950 . S
C805 C796 1.390 . S
C805 H798 0.950 . S
C805 C802 1.387 . S
C806 C807 1.387 . S
C806 H810 0.950 . S
C806 C815 1.390 . S
C807 C806 1.387 . S
C807 C809 1.387 . S
H808 C815 0.950 . S
C809 C807 1.387 . S
C809 C811 1.390 . S
C809 H813 0.950 . S
H810 C806 0.950 . S
C811 C809 1.390 . S
C811 C812 1.387 . S
C811 H814 0.950 . S
C812 C811 1.387 . S
C812 C815 1.387 . S
H813 C809 0.950 . S
H814 C811 0.950 . S
C815 C806 1.390 . S
C815 H808 0.950 . S
C815 C812 1.387 . S
C816 C817 1.387 . S
C816 H820 0.950 . S
C816 C825 1.390 . S
C817 C816 1.387 . S
C817 C819 1.387 . S
H818 C825 0.950 . S
C819 C817 1.387 . S
C819 C821 1.390 . S
C819 H823 0.950 . S
H820 C816 0.950 . S
C821 C819 1.390 . S
C821 C822 1.387 . S
C821 H824 0.950 . S
C822 C821 1.387 . S
C822 C825 1.387 . S
H823 C819 0.950 . S
H824 C821 0.950 . S
C825 C816 1.390 . S
C825 H818 0.950 . S
C825 C822 1.387 . S
C826 C827 1.387 . S
C826 H830 0.950 . S
C826 C835 1.390 . S
C827 C826 1.387 . S
C827 C829 1.387 . S
H828 C835 0.950 . S
C829 C827 1.387 . S
C829 C831 1.390 . S
C829 H833 0.950 . S
H830 C826 0.950 . S
C831 C829 1.390 . S
C831 C832 1.387 . S
C831 H834 0.950 . S
C832 C831 1.387 . S
C832 C835 1.387 . S
H833 C829 0.950 . S
H834 C831 0.950 . S
C835 C826 1.390 . S
C835 H828 0.950 . S
C835 C832 1.387 . S
C836 C837 1.387 . S
C836 H840 0.950 . S
C836 C845 1.390 . S
C837 C836 1.387 . S
C837 C839 1.387 . S
H838 C845 0.950 . S
C839 C837 1.387 . S
C839 C841 1.390 . S
C839 H843 0.950 . S
H840 C836 0.950 . S
C841 C839 1.390 . S
C841 C842 1.387 . S
C841 H844 0.950 . S
C842 C841 1.387 . S
C842 C845 1.387 . S
H843 C839 0.950 . S
H844 C841 0.950 . S
C845 C836 1.390 . S
C845 H838 0.950 . S
C845 C842 1.387 . S
C846 C847 1.387 . S
C846 H850 0.950 . S
C846 C855 1.391 . S
C847 C846 1.387 . S
C847 C849 1.387 . S
H848 C855 0.949 1_545 S
C849 C847 1.387 . S
C849 C851 1.390 1_565 S
C849 H853 0.950 . S
H850 C846 0.950 . S
C851 C849 1.390 1_545 S
C851 C852 1.387 . S
C851 H854 0.950 . S
C852 C851 1.387 . S
C852 C855 1.387 1_545 S
H853 C849 0.950 . S
H854 C851 0.950 . S
C855 C846 1.391 . S
C855 H848 0.949 1_565 S
C855 C852 1.387 1_565 S
C856 C857 1.387 . S
C856 H860 0.950 . S
C856 C865 1.390 . S
C857 C856 1.387 . S
C857 C859 1.387 . S
H858 C865 0.950 . S
C859 C857 1.387 . S
C859 C861 1.390 1_455 S
C859 H863 0.950 . S
H860 C856 0.950 . S
C861 C859 1.390 1_655 S
C861 C862 1.387 . S
C861 H864 0.950 . S
C862 C861 1.387 . S
C862 C865 1.387 1_655 S
H863 C859 0.950 . S
H864 C861 0.950 . S
C865 C856 1.390 . S
C865 H858 0.950 . S
C865 C862 1.387 1_455 S
C866 C867 1.387 . S
C866 H870 0.950 . S
C866 C875 1.390 . S
C867 C866 1.387 . S
C867 C869 1.387 . S
H868 C875 0.950 . S
C869 C867 1.387 . S
C869 C871 1.390 . S
C869 H873 0.950 . S
H870 C866 0.950 . S
C871 C869 1.390 . S
C871 C872 1.387 . S
C871 H874 0.950 . S
C872 C871 1.387 . S
C872 C875 1.387 . S
H873 C869 0.950 . S
H874 C871 0.950 . S
C875 C866 1.390 . S
C875 H868 0.950 . S
C875 C872 1.387 . S
C876 C877 1.387 . S
C876 H880 0.950 1_655 S
C876 C885 1.390 . S
C877 C876 1.387 . S
C877 C879 1.387 . S
H878 C885 0.950 . S
C879 C877 1.387 . S
C879 C881 1.390 . S
C879 H883 0.950 . S
H880 C876 0.950 1_455 S
C881 C879 1.390 . S
C881 C882 1.387 . S
C881 H884 0.950 . S
C882 C881 1.387 . S
C882 C885 1.387 . S
H883 C879 0.950 . S
H884 C881 0.950 . S
C885 C876 1.390 . S
C885 H878 0.950 . S
C885 C882 1.387 . S
C886 C887 1.387 . S
C886 H890 0.950 . S
C886 C895 1.390 . S
C887 C886 1.387 . S
C887 C889 1.387 . S
H888 C895 0.950 . S
C889 C887 1.387 . S
C889 C891 1.390 . S
C889 H893 0.950 . S
H890 C886 0.950 . S
C891 C889 1.390 . S
C891 C892 1.387 . S
C891 H894 0.950 . S
C892 C891 1.387 . S
C892 C895 1.387 . S
H893 C889 0.950 . S
H894 C891 0.950 . S
C895 C886 1.390 . S
C895 H888 0.950 . S
C895 C892 1.387 . S
C896 C897 1.387 . S
C896 H900 0.950 . S
C896 C905 1.390 . S
C897 C896 1.387 . S
C897 C899 1.387 . S
H898 C905 0.950 . S
C899 C897 1.387 . S
C899 C901 1.390 . S
C899 H903 0.950 . S
H900 C896 0.950 . S
C901 C899 1.390 . S
C901 C902 1.387 . S
C901 H904 0.950 . S
C902 C901 1.387 . S
C902 C905 1.387 . S
H903 C899 0.950 . S
H904 C901 0.950 . S
C905 C896 1.390 . S
C905 H898 0.950 . S
C905 C902 1.387 . S
C906 C907 1.387 . S
C906 H910 0.950 . S
C906 C915 1.390 . S
C907 C906 1.387 . S
C907 C909 1.387 . S
H908 C915 0.950 . S
C909 C907 1.387 . S
C909 C911 1.390 . S
C909 H913 0.950 . S
H910 C906 0.950 . S
C911 C909 1.390 . S
C911 C912 1.387 . S
C911 H914 0.950 . S
C912 C911 1.387 . S
C912 C915 1.387 . S
H913 C909 0.950 . S
H914 C911 0.950 . S
C915 C906 1.390 . S
C915 H908 0.950 . S
C915 C912 1.387 . S
C916 C917 1.387 . S
C916 H920 0.950 . S
C916 C925 1.390 . S
C917 C916 1.387 . S
C917 C919 1.387 . S
H918 C925 0.950 . S
C919 C917 1.387 . S
C919 C921 1.390 . S
C919 H923 0.950 . S
H920 C916 0.950 . S
C921 C919 1.390 . S
C921 C922 1.387 . S
C921 H924 0.950 . S
C922 C921 1.387 . S
C922 C925 1.387 . S
H923 C919 0.950 . S
H924 C921 0.950 . S
C925 C916 1.390 . S
C925 H918 0.950 . S
C925 C922 1.387 . S
C926 C927 1.387 . S
C926 H930 0.950 . S
C926 C935 1.390 . S
C927 C926 1.387 . S
C927 C929 1.387 . S
H928 C935 0.950 . S
C929 C927 1.387 . S
C929 C931 1.390 . S
C929 H933 0.950 . S
H930 C926 0.950 . S
C931 C929 1.390 . S
C931 C932 1.387 . S
C931 H934 0.950 . S
C932 C931 1.387 . S
C932 C935 1.387 . S
H933 C929 0.950 . S
H934 C931 0.950 . S
C935 C926 1.390 . S
C935 H928 0.950 . S
C935 C932 1.387 . S
C936 C937 1.387 . S
C936 H940 0.950 . S
C936 C945 1.390 . S
C937 C936 1.387 . S
C937 C939 1.387 . S
H938 C945 0.950 . S
C939 C937 1.387 . S
C939 C941 1.390 . S
C939 H943 0.950 . S
H940 C936 0.950 . S
C941 C939 1.390 . S
C941 C942 1.387 . S
C941 H944 0.950 1_565 S
C942 C941 1.387 . S
C942 C945 1.387 . S
H943 C939 0.950 . S
H944 C941 0.950 1_545 S
C945 C936 1.390 . S
C945 H938 0.950 . S
C945 C942 1.387 . S
C946 C947 1.387 . S
C946 H950 0.950 . S
C946 C955 1.390 . S
C947 C946 1.387 . S
C947 C949 1.387 . S
H948 C955 0.950 . S
C949 C947 1.387 . S
C949 C951 1.390 . S
C949 H953 0.950 . S
H950 C946 0.950 . S
C951 C949 1.390 . S
C951 C952 1.387 . S
C951 H954 0.950 . S
C952 C951 1.387 . S
C952 C955 1.387 . S
H953 C949 0.950 . S
H954 C951 0.950 . S
C955 C946 1.390 . S
C955 H948 0.950 . S
C955 C952 1.387 . S
C956 C957 1.387 . S
C956 H960 0.950 . S
C956 C965 1.390 . S
C957 C956 1.387 . S
C957 C959 1.387 . S
H958 C965 0.950 . S
C959 C957 1.387 . S
C959 C961 1.390 . S
C959 H963 0.950 . S
H960 C956 0.950 . S
C961 C959 1.390 . S
C961 C962 1.387 . S
C961 H964 0.950 . S
C962 C961 1.387 . S
C962 C965 1.387 . S
H963 C959 0.950 . S
H964 C961 0.950 . S
C965 C956 1.390 . S
C965 H958 0.950 . S
C965 C962 1.387 . S
C966 C967 1.387 . S
C966 H970 0.950 . S
C966 C975 1.390 . S
C967 C966 1.387 . S
C967 C969 1.387 . S
H968 C975 0.950 . S
C969 C967 1.387 . S
C969 C971 1.390 . S
C969 H973 0.950 1_655 S
H970 C966 0.950 . S
C971 C969 1.390 . S
C971 C972 1.387 . S
C971 H974 0.950 1_655 S
C972 C971 1.387 . S
C972 C975 1.387 . S
H973 C969 0.950 1_455 S
H974 C971 0.950 1_455 S
C975 C966 1.390 . S
C975 H968 0.950 . S
C975 C972 1.387 . S
C976 C977 1.387 . S
C976 H980 0.950 . S
C976 C985 1.390 . S
C977 C976 1.387 . S
C977 C979 1.387 . S
H978 C985 0.950 . S
C979 C977 1.387 . S
C979 C981 1.390 . S
C979 H983 0.950 . S
H980 C976 0.950 . S
C981 C979 1.390 . S
C981 C982 1.387 . S
C981 H984 0.950 . S
C982 C981 1.387 . S
C982 C985 1.387 . S
H983 C979 0.950 . S
H984 C981 0.950 . S
C985 C976 1.390 . S
C985 H978 0.950 . S
C985 C982 1.387 . S
C986 C987 1.387 . S
C986 H990 0.950 . S
C986 C995 1.390 . S
C987 C986 1.387 . S
C987 C989 1.387 . S
H988 C995 0.950 . S
C989 C987 1.387 . S
C989 C991 1.390 . S
C989 H993 0.950 . S
H990 C986 0.950 . S
C991 C989 1.390 . S
C991 C992 1.387 . S
C991 H994 0.950 . S
C992 C991 1.387 . S
C992 C995 1.387 . S
H993 C989 0.950 . S
H994 C991 0.950 . S
C995 C986 1.390 . S
C995 H988 0.950 . S
C995 C992 1.387 . S
C996 C997 1.387 . S
C996 H1000 0.950 . S
C996 C1005 1.390 . S
C997 C996 1.387 . S
C997 C999 1.387 . S
H998 C1005 0.950 . S
C999 C997 1.387 . S
C999 C1001 1.390 . S
C999 H1003 0.950 . S
H1000 C996 0.950 . S
C1001 C999 1.390 . S
C1001 C1002 1.387 . S
C1001 H1004 0.950 . S
C1002 C1001 1.387 . S
C1002 C1005 1.387 . S
H1003 C999 0.950 . S
H1004 C1001 0.950 . S
C1005 C996 1.390 . S
C1005 H998 0.950 . S
C1005 C1002 1.387 . S
C1006 C1007 1.387 . S
C1006 H1010 0.950 . S
C1006 C1015 1.390 . S
C1007 C1006 1.387 . S
C1007 C1009 1.387 . S
H1008 C1015 0.950 . S
C1009 C1007 1.387 . S
C1009 C1011 1.390 . S
C1009 H1013 0.950 . S
H1010 C1006 0.950 . S
C1011 C1009 1.390 . S
C1011 C1012 1.387 . S
C1011 H1014 0.950 . S
C1012 C1011 1.387 . S
C1012 C1015 1.387 . S
H1013 C1009 0.950 . S
H1014 C1011 0.950 . S
C1015 C1006 1.390 . S
C1015 H1008 0.950 . S
C1015 C1012 1.387 . S
C1016 C1017 1.387 . S
C1016 H1020 0.950 . S
C1016 C1025 1.390 . S
C1017 C1016 1.387 . S
C1017 C1019 1.387 . S
H1018 C1025 0.950 . S
C1019 C1017 1.387 . S
C1019 C1021 1.390 . S
C1019 H1023 0.950 . S
H1020 C1016 0.950 . S
C1021 C1019 1.390 . S
C1021 C1022 1.387 . S
C1021 H1024 0.950 . S
C1022 C1021 1.387 . S
C1022 C1025 1.387 . S
H1023 C1019 0.950 . S
H1024 C1021 0.950 . S
C1025 C1016 1.390 . S
C1025 H1018 0.950 . S
C1025 C1022 1.387 . S
C1026 C1027 1.387 . S
C1026 H1030 0.950 . S
C1026 C1035 1.390 . S
C1027 C1026 1.387 . S
C1027 C1029 1.387 . S
H1028 C1035 0.950 . S
C1029 C1027 1.387 . S
C1029 C1031 1.390 . S
C1029 H1033 0.950 . S
H1030 C1026 0.950 . S
C1031 C1029 1.390 . S
C1031 C1032 1.387 . S
C1031 H1034 0.950 . S
C1032 C1031 1.387 . S
C1032 C1035 1.387 . S
H1033 C1029 0.950 . S
H1034 C1031 0.950 . S
C1035 C1026 1.390 . S
C1035 H1028 0.950 . S
C1035 C1032 1.387 . S
C1036 C1037 1.387 . S
C1036 H1040 0.950 . S
C1036 C1045 1.390 . S
C1037 C1036 1.387 . S
C1037 C1039 1.387 . S
H1038 C1045 0.950 . S
C1039 C1037 1.387 . S
C1039 C1041 1.390 . S
C1039 H1043 0.950 . S
H1040 C1036 0.950 . S
C1041 C1039 1.390 . S
C1041 C1042 1.387 . S
C1041 H1044 0.950 . S
C1042 C1041 1.387 . S
C1042 C1045 1.387 . S
H1043 C1039 0.950 . S
H1044 C1041 0.950 . S
C1045 C1036 1.390 . S
C1045 H1038 0.950 . S
C1045 C1042 1.387 . S
C1046 C1047 1.387 . S
C1046 H1050 0.950 . S
C1046 C1055 1.390 . S
C1047 C1046 1.387 . S
C1047 C1049 1.387 . S
H1048 C1055 0.950 . S
C1049 C1047 1.387 . S
C1049 C1051 1.390 . S
C1049 H1053 0.950 . S
H1050 C1046 0.950 . S
C1051 C1049 1.390 . S
C1051 C1052 1.387 . S
C1051 H1054 0.950 . S
C1052 C1051 1.387 . S
C1052 C1055 1.387 . S
H1053 C1049 0.950 . S
H1054 C1051 0.950 . S
C1055 C1046 1.390 . S
C1055 H1048 0.950 . S
C1055 C1052 1.387 . S
C1056 C1057 1.387 . S
C1056 H1060 0.950 . S
C1056 C1065 1.390 . S
C1057 C1056 1.387 . S
C1057 C1059 1.387 . S
H1058 C1065 0.950 . S
C1059 C1057 1.387 . S
C1059 C1061 1.390 . S
C1059 H1063 0.950 . S
H1060 C1056 0.950 . S
C1061 C1059 1.390 . S
C1061 C1062 1.387 . S
C1061 H1064 0.950 . S
C1062 C1061 1.387 . S
C1062 C1065 1.387 . S
H1063 C1059 0.950 . S
H1064 C1061 0.950 . S
C1065 C1056 1.390 . S
C1065 H1058 0.950 . S
C1065 C1062 1.387 . S
C1066 C1067 1.387 . S
C1066 H1070 0.950 . S
C1066 C1075 1.390 . S
C1067 C1066 1.387 . S
C1067 C1069 1.387 . S
H1068 C1075 0.950 . S
C1069 C1067 1.387 . S
C1069 C1071 1.390 . S
C1069 H1073 0.950 . S
H1070 C1066 0.950 . S
C1071 C1069 1.390 . S
C1071 C1072 1.387 . S
C1071 H1074 0.950 . S
C1072 C1071 1.387 . S
C1072 C1075 1.387 . S
H1073 C1069 0.950 . S
H1074 C1071 0.950 . S
C1075 C1066 1.390 . S
C1075 H1068 0.950 . S
C1075 C1072 1.387 . S
C1076 C1077 1.387 . S
C1076 H1080 0.950 . S
C1076 C1085 1.390 . S
C1077 C1076 1.387 . S
C1077 C1079 1.387 . S
H1078 C1085 0.950 . S
C1079 C1077 1.387 . S
C1079 C1081 1.390 . S
C1079 H1083 0.950 . S
H1080 C1076 0.950 . S
C1081 C1079 1.390 . S
C1081 C1082 1.387 . S
C1081 H1084 0.950 . S
C1082 C1081 1.387 . S
C1082 C1085 1.387 . S
H1083 C1079 0.950 . S
H1084 C1081 0.950 . S
C1085 C1076 1.390 . S
C1085 H1078 0.950 . S
C1085 C1082 1.387 . S
C1086 C1087 1.387 . S
C1086 H1090 0.950 . S
C1086 C1095 1.390 . S
C1087 C1086 1.387 . S
C1087 C1089 1.387 . S
H1088 C1095 0.950 . S
C1089 C1087 1.387 . S
C1089 C1091 1.390 . S
C1089 H1093 0.950 . S
H1090 C1086 0.950 . S
C1091 C1089 1.390 . S
C1091 C1092 1.387 . S
C1091 H1094 0.950 . S
C1092 C1091 1.387 . S
C1092 C1095 1.387 . S
H1093 C1089 0.950 . S
H1094 C1091 0.950 . S
C1095 C1086 1.390 . S
C1095 H1088 0.950 . S
C1095 C1092 1.387 . S
C1096 C1097 1.387 . S
C1096 H1100 0.950 . S
C1096 C1105 1.390 . S
C1097 C1096 1.387 . S
C1097 C1099 1.387 . S
H1098 C1105 0.950 . S
C1099 C1097 1.387 . S
C1099 C1101 1.390 . S
C1099 H1103 0.950 . S
H1100 C1096 0.950 . S
C1101 C1099 1.390 . S
C1101 C1102 1.387 . S
C1101 H1104 0.950 . S
C1102 C1101 1.387 . S
C1102 C1105 1.387 . S
H1103 C1099 0.950 . S
H1104 C1101 0.950 . S
C1105 C1096 1.390 . S
C1105 H1098 0.950 . S
C1105 C1102 1.387 . S
C1106 C1107 1.387 . S
C1106 H1110 0.950 . S
C1106 C1115 1.390 . S
C1107 C1106 1.387 . S
C1107 C1109 1.387 . S
H1108 C1115 0.950 . S
C1109 C1107 1.387 . S
C1109 C1111 1.390 . S
C1109 H1113 0.950 . S
H1110 C1106 0.950 . S
C1111 C1109 1.390 . S
C1111 C1112 1.387 . S
C1111 H1114 0.950 . S
C1112 C1111 1.387 . S
C1112 C1115 1.387 . S
H1113 C1109 0.950 . S
H1114 C1111 0.950 . S
C1115 C1106 1.390 . S
C1115 H1108 0.950 . S
C1115 C1112 1.387 . S
C577 C162 1.657 . S
C582 C219 1.665 . S
C587 C174 1.754 . S
C592 C259 1.749 . S
C597 C150 1.592 . S
C602 C311 1.578 . S
C607 C138 1.496 . S
C612 C271 1.473 . S
C622 C299 1.521 . S
C617 C114 1.525 . S
C627 C126 1.404 . S
C632 C231 1.400 1_556 S
C642 C238 1.672 . S
C637 C136 1.645 . S
C652 C278 1.646 . S
C647 C112 1.626 . S
C657 C124 1.630 . S
C662 C298 1.675 1_556 S
C667 C160 1.508 . S
C672 C258 1.534 . S
C677 C172 1.479 . S
C682 C318 1.487 . S
C692 C218 1.528 . S
C687 C148 1.488 . S
C702 C339 1.666 . S
C697 C18 1.658 . S
C707 C30 1.755 . S
C712 C379 1.750 . S
C717 C6 1.591 . S
C722 C431 1.579 . S
C727 C210 1.496 . S
C732 C391 1.473 . S
C737 C186 1.524 . S
C742 C419 1.521 . S
C747 C198 1.405 . S
C752 C351 1.400 . S
C757 C208 1.642 . S
C762 C358 1.670 . S
C767 C184 1.627 . S
C772 C398 1.646 . S
C782 C418 1.675 . S
C777 C196 1.630 . S
C787 C16 1.507 . S
C792 C378 1.533 . S
C802 C438 1.488 . S
C797 C28 1.479 1_455 S
C807 C4 1.491 . S
C812 C338 1.531 . S
C822 C459 1.665 . S
C817 C90 1.658 . S
C827 C102 1.755 . S
C832 C499 1.750 . S
C842 C551 1.578 . S
C837 C78 1.592 . S
C852 C511 1.473 . S
C847 C66 1.496 . S
C862 C539 1.521 . S
C857 C42 1.524 . S
C867 C54 1.405 . S
C872 C471 1.401 . S
C877 C64 1.645 1_655 S
C882 C478 1.673 . S
C887 C40 1.626 . S
C892 C518 1.646 . S
C902 C538 1.675 . S
C897 C52 1.629 1_545 S
C907 C88 1.509 . S
C912 C498 1.534 . S
C917 C100 1.478 . S
C922 C558 1.486 . S
C927 C76 1.491 . S
C932 C458 1.530 . S
C937 C189 1.614 . S
C942 C242 1.573 . S
C952 C282 1.876 . S
C947 C201 1.931 . S
C957 C213 1.562 . S
C962 C305 1.578 . S
C967 C81 1.738 . S
C972 C265 1.728 . S
C977 C93 1.692 . S
C982 C322 1.661 . S
C992 C225 1.375 . S
C987 C105 1.367 . S
C997 C45 1.612 . S
C1002 C362 1.570 . S
C1007 C57 1.931 . S
C1012 C402 1.875 . S
C1017 C69 1.562 . S
C1022 C425 1.578 . S
C1027 C153 1.737 . S
C1032 C385 1.728 . S
C1042 C442 1.662 . S
C1037 C165 1.692 . S
C1047 C177 1.368 . S
C1052 C345 1.375 . S
C1057 C117 1.612 . S
C1062 C482 1.570 . S
C1067 C129 1.932 . S
C1072 C522 1.877 . S
C1082 C545 1.578 . S
C1077 C141 1.563 . S
C1087 C9 1.738 . S
C1092 C505 1.729 . S
C1097 C21 1.693 . S
C1102 C562 1.663 . S
C1107 C33 1.368 . S
C1112 C465 1.375 . S
