# Generated by pormake.
# Topology rtl, (3,6)-cn, num edge types: 1
# Building blocks:
#     Node 0, Type 0, BuildingBlock: VETTIZ_charged_linker_0, # of connection points: 3
#     Node 1, Type 0, BuildingBlock: VETTIZ_charged_linker_0, # of connection points: 3
#     Node 2, Type 0, BuildingBlock: VETTIZ_charged_linker_0, # of connection points: 3
#     Node 3, Type 0, BuildingBlock: VETTIZ_charged_linker_0, # of connection points: 3
#     Node 4, Type 1, BuildingBlock: KUMJIN_clean_sbu_1, # of connection points: 6
#     Node 5, Type 1, BuildingBlock: KUMJIN_clean_sbu_1, # of connection points: 6
#     Edge 6, Type (0, 1), BuildingBlock: CIFDUS_clean_linker_0, # of connection points: 2
#     Edge 7, Type (0, 1), BuildingBlock: CIFDUS_clean_linker_0, # of connection points: 2
#     Edge 8, Type (0, 1), BuildingBlock: CIFDUS_clean_linker_0, # of connection points: 2
#     Edge 9, Type (0, 1), BuildingBlock: CIFDUS_clean_linker_0, # of connection points: 2
#     Edge 10, Type (0, 1), BuildingBlock: CIFDUS_clean_linker_0, # of connection points: 2
#     Edge 11, Type (0, 1), BuildingBlock: CIFDUS_clean_linker_0, # of connection points: 2
#     Edge 12, Type (0, 1), BuildingBlock: CIFDUS_clean_linker_0, # of connection points: 2
#     Edge 13, Type (0, 1), BuildingBlock: CIFDUS_clean_linker_0, # of connection points: 2
#     Edge 14, Type (0, 1), BuildingBlock: CIFDUS_clean_linker_0, # of connection points: 2
#     Edge 15, Type (0, 1), BuildingBlock: CIFDUS_clean_linker_0, # of connection points: 2
#     Edge 16, Type (0, 1), BuildingBlock: CIFDUS_clean_linker_0, # of connection points: 2
#     Edge 17, Type (0, 1), BuildingBlock: CIFDUS_clean_linker_0, # of connection points: 2
# Relax obj value: 0.018
# Max RMSD: 0.104
# Mean RMSD: 0.061
data_MOF--net-rtl--node1-KUMJIN_clean_sbu_1--node2-VETTIZ_charged_linker_0--edge1-CIFDUS_clean_linker_0
_symmetry_space_group_name_H-M    P1
_symmetry_Int_Tables_number       1
_symmetry_cell_setting            triclinic
loop_
_symmetry_equiv_pos_as_xyz
'x, y, z'
_cell_length_a     35.353957
_cell_length_b     36.198481
_cell_length_c     32.010569
_cell_angle_alpha  78.673594
_cell_angle_beta   98.909186
_cell_angle_gamma 90.183351
loop_
_atom_site_label
_atom_site_type_symbol
_atom_site_fract_x
_atom_site_fract_y
_atom_site_fract_z
_atom_type_partial_charge
C0 C 0.15425 0.87934 0.8819 0.0
C1 C 0.12613 0.90831 0.87359 0.0
C2 C 0.11521 0.92178 0.90854 0.0
C3 C 0.15873 0.8764 0.95903 0.0
C4 C 0.16991 0.86374 0.92467 0.0
C5 C 0.19851 0.83136 0.93914 0.0
H6 H 0.31034 0.71308 0.10024 0.0
C7 C 0.17914 0.85294 0.99933 0.0
C8 C 0.20244 0.82648 0.98786 0.0
H9 H 0.29699 0.7174 0.96244 0.0
H10 H 0.25089 0.76796 0.95005 0.0
H11 H 0.30334 0.80514 0.09839 0.0
H12 H 0.22088 0.71704 0.10038 0.0
H13 H 0.20599 0.74894 0.12974 0.0
H14 H 0.25124 0.72348 0.14862 0.0
H15 H 0.30396 0.76562 0.1424 0.0
H16 H 0.27458 0.80694 0.13857 0.0
C17 C 0.23624 0.84425 0.92245 0.0
C18 C 0.18073 0.79652 0.92281 0.0
C19 C 0.15238 0.87477 0.14406 0.0
C20 C 0.16313 0.85517 0.18692 0.0
C21 C 0.18976 0.82455 0.19468 0.0
C22 C 0.20475 0.81351 0.16068 0.0
C23 C 0.19265 0.83274 0.1181 0.0
C24 C 0.16679 0.86276 0.11044 0.0
C25 C 0.15502 0.87839 0.06309 0.0
C26 C 0.17808 0.85286 0.04353 0.0
C27 C 0.20051 0.8264 0.07585 0.0
C28 C 0.1679 0.91972 0.05361 0.0
C29 C 0.11126 0.87348 0.05155 0.0
C30 C 0.29747 0.72476 0.06737 0.0
C31 C 0.30866 0.71153 0.03228 0.0
C32 C 0.29052 0.72768 0.99016 0.0
C33 C 0.26319 0.75698 0.9829 0.0
C34 C 0.25297 0.77027 0.01802 0.0
C35 C 0.26941 0.75381 0.0595 0.0
C36 C 0.25263 0.7701 0.0928 0.0
C37 C 0.22471 0.79999 0.06423 0.0
C38 C 0.22535 0.79997 0.02048 0.0
C39 C 0.28522 0.78781 0.1198 0.0
C40 C 0.23176 0.7384 0.11965 0.0
H41 H 0.12176 0.91749 0.97628 0.0
H42 H 0.16287 0.86805 0.85576 0.0
H43 H 0.14891 0.79775 0.91909 0.0
H44 H 0.18912 0.76974 0.94581 0.0
H45 H 0.18853 0.79468 0.89096 0.0
H46 H 0.24211 0.87387 0.92569 0.0
H47 H 0.2345 0.84298 0.88782 0.0
H48 H 0.26168 0.8277 0.94089 0.0
H49 H 0.13264 0.8988 0.13637 0.0
H50 H 0.19836 0.80828 0.22695 0.0
H51 H 0.22467 0.78995 0.16876 0.0
H52 H 0.19661 0.92266 0.0724 0.0
H53 H 0.14752 0.93896 0.06262 0.0
H54 H 0.17116 0.9298 0.01953 0.0
H55 H 0.10157 0.84811 0.07252 0.0
H56 H 0.10267 0.86867 0.01841 0.0
H57 H 0.09481 0.89823 0.05575 0.0
H58 H 0.09385 0.94435 0.90288 0.0
C59 C 0.13147 0.90615 0.95113 0.0
C60 C 0.6357 0.67455 0.74232 0.0
C61 C 0.60508 0.64962 0.74492 0.0
C62 C 0.58852 0.63658 0.70783 0.0
C63 C 0.63269 0.67273 0.66629 0.0
C64 C 0.64877 0.68609 0.70251 0.0
C65 C 0.67952 0.71414 0.69266 0.0
H66 H 0.78436 0.80499 0.54384 0.0
C67 C 0.65245 0.68976 0.63005 0.0
C68 C 0.68005 0.71424 0.64516 0.0
H69 H 0.7883 0.82259 0.67409 0.0
H70 H 0.74127 0.77395 0.68667 0.0
H71 H 0.77903 0.71548 0.5638 0.0
H72 H 0.69893 0.80879 0.5226 0.0
H73 H 0.67784 0.77375 0.49681 0.0
H74 H 0.72378 0.79135 0.48542 0.0
H75 H 0.77203 0.74386 0.51041 0.0
H76 H 0.74442 0.70246 0.52416 0.0
C77 C 0.71773 0.69885 0.72107 0.0
C78 C 0.66626 0.7528 0.69975 0.0
C79 C 0.61435 0.65586 0.48166 0.0
C80 C 0.62755 0.66861 0.44218 0.0
C81 C 0.658 0.69361 0.44037 0.0
C82 C 0.67491 0.70639 0.47701 0.0
C83 C 0.66102 0.69446 0.51609 0.0
C84 C 0.63141 0.66947 0.51823 0.0
C85 C 0.62038 0.66074 0.56275 0.0
C86 C 0.64812 0.68487 0.58653 0.0
C87 C 0.6717 0.70432 0.55885 0.0
C88 C 0.62816 0.6181 0.58101 0.0
C89 C 0.57813 0.67398 0.55917 0.0
C90 C 0.77502 0.79892 0.57509 0.0
C91 C 0.7897 0.81835 0.60762 0.0
C92 C 0.77741 0.80823 0.64824 0.0
C93 C 0.74984 0.78023 0.65535 0.0
C94 C 0.73427 0.76236 0.62142 0.0
C95 C 0.74728 0.77201 0.58228 0.0
C96 C 0.727 0.75238 0.5487 0.0
C97 C 0.69941 0.72901 0.57377 0.0
C98 C 0.70369 0.73436 0.61657 0.0
C99 C 0.75696 0.72736 0.53563 0.0
C100 C 0.70593 0.78287 0.51119 0.0
H101 H 0.58842 0.63667 0.64176 0.0
H102 H 0.64854 0.68533 0.77034 0.0
H103 H 0.635 0.75772 0.68831 0.0
H104 H 0.68004 0.77664 0.68132 0.0
H105 H 0.67181 0.75426 0.73451 0.0
H106 H 0.72232 0.66859 0.72042 0.0
H107 H 0.71771 0.70126 0.75514 0.0
H108 H 0.74277 0.71352 0.7098 0.0
H109 H 0.59091 0.63658 0.48372 0.0
H110 H 0.66877 0.70333 0.41029 0.0
H111 H 0.69796 0.72538 0.47315 0.0
H112 H 0.65508 0.60847 0.57197 0.0
H113 H 0.60451 0.6012 0.56805 0.0
H114 H 0.63246 0.61092 0.61658 0.0
H115 H 0.5709 0.69917 0.53288 0.0
H116 H 0.57209 0.68317 0.58846 0.0
H117 H 0.55809 0.65154 0.55199 0.0
H118 H 0.56498 0.61734 0.70928 0.0
C119 C 0.60225 0.64778 0.6687 0.0
C120 C 0.84702 0.0922 0.22364 0.0
C121 C 0.87294 0.06138 0.23235 0.0
C122 C 0.88282 0.04655 0.19787 0.0
C123 C 0.84381 0.09556 0.14672 0.0
C124 C 0.83273 0.10864 0.18085 0.0
C125 C 0.8057 0.1422 0.16629 0.0
H126 H 0.71865 0.28011 0.00753 0.0
C127 C 0.82601 0.12101 0.10641 0.0
C128 C 0.80341 0.14811 0.11768 0.0
H129 H 0.71107 0.25824 0.14383 0.0
H130 H 0.75082 0.20274 0.1552 0.0
H131 H 0.80953 0.25686 0.01769 0.0
H132 H 0.70885 0.19034 0.99838 0.0
H133 H 0.74106 0.18118 0.96461 0.0
H134 H 0.72034 0.22793 0.95699 0.0
H135 H 0.77582 0.26594 0.96846 0.0
H136 H 0.81372 0.23084 0.97746 0.0
C137 C 0.82477 0.17558 0.18456 0.0
C138 C 0.76665 0.13091 0.18088 0.0
C139 C 0.86143 0.10399 0.96393 0.0
C140 C 0.8519 0.1236 0.92106 0.0
C141 C 0.82688 0.15548 0.91235 0.0
C142 C 0.81156 0.1673 0.94581 0.0
C143 C 0.82147 0.14718 0.9885 0.0
C144 C 0.84598 0.11603 0.99675 0.0
C145 C 0.85397 0.09799 0.04373 0.0
C146 C 0.83002 0.12317 0.06258 0.0
C147 C 0.81105 0.15217 0.03027 0.0
C148 C 0.89741 0.10077 0.05958 0.0
C149 C 0.83922 0.05721 0.04917 0.0
C150 C 0.72547 0.26316 0.03973 0.0
C151 C 0.71232 0.27424 0.07502 0.0
C152 C 0.72165 0.25116 0.11631 0.0
C153 C 0.74459 0.21862 0.12286 0.0
C154 C 0.75862 0.2086 0.08785 0.0
C155 C 0.74854 0.23019 0.04693 0.0
C156 C 0.7656 0.21396 0.01371 0.0
C157 C 0.78775 0.17948 0.04175 0.0
C158 C 0.78371 0.17698 0.08517 0.0
C159 C 0.79248 0.24335 0.99283 0.0
C160 C 0.73242 0.2029 0.98137 0.0
H161 H 0.8777 0.05163 0.13003 0.0
H162 H 0.83861 0.10375 0.24971 0.0
H163 H 0.76273 0.09994 0.18541 0.0
H164 H 0.74196 0.14321 0.15644 0.0
H165 H 0.76424 0.13923 0.21199 0.0
H166 H 0.85591 0.17597 0.18247 0.0
H167 H 0.82179 0.17323 0.21902 0.0
H168 H 0.81329 0.20342 0.16652 0.0
H169 H 0.88118 0.07991 0.97211 0.0
H170 H 0.81886 0.17104 0.87963 0.0
H171 H 0.79265 0.19165 0.93719 0.0
H172 H 0.90829 0.1282 0.04428 0.0
H173 H 0.91405 0.078 0.05125 0.0
H174 H 0.90439 0.09982 0.09456 0.0
H175 H 0.81339 0.05535 0.025 0.0
H176 H 0.82984 0.04725 0.08075 0.0
H177 H 0.86135 0.0372 0.04481 0.0
H178 H 0.90278 0.02274 0.20408 0.0
C179 C 0.86843 0.06355 0.15502 0.0
C180 C 0.355 0.34425 0.29572 0.0
C181 C 0.38226 0.37204 0.2864 0.0
C182 C 0.3983 0.3912 0.31886 0.0
C183 C 0.36133 0.35489 0.36919 0.0
C184 C 0.3452 0.33589 0.3376 0.0
C185 C 0.31811 0.30624 0.35471 0.0
H186 H 0.23369 0.22181 0.52585 0.0
C187 C 0.34582 0.33999 0.40914 0.0
C188 C 0.3203 0.31135 0.40124 0.0
H189 H 0.22091 0.19201 0.40018 0.0
H190 H 0.26269 0.24265 0.37632 0.0
H191 H 0.3225 0.22889 0.53557 0.0
H192 H 0.2292 0.31002 0.49423 0.0
H193 H 0.26488 0.33119 0.52543 0.0
H194 H 0.24394 0.28835 0.5498 0.0
H195 H 0.2955 0.24382 0.57264 0.0
H196 H 0.33721 0.2684 0.55723 0.0
C197 C 0.33415 0.26718 0.35226 0.0
C198 C 0.27768 0.31592 0.32856 0.0
C199 C 0.39074 0.39423 0.54281 0.0
C200 C 0.38157 0.38654 0.5848 0.0
C201 C 0.35404 0.35933 0.59486 0.0
C202 C 0.33628 0.33983 0.56381 0.0
C203 C 0.34612 0.34745 0.52213 0.0
C204 C 0.37269 0.37447 0.51215 0.0
C205 C 0.37931 0.37905 0.46617 0.0
C206 C 0.35262 0.34997 0.45034 0.0
C207 C 0.33346 0.33155 0.48326 0.0
C208 C 0.42198 0.36877 0.46666 0.0
C209 C 0.3666 0.41983 0.4427 0.0
C210 C 0.2401 0.22559 0.4933 0.0
C211 C 0.22421 0.20232 0.46523 0.0
C212 C 0.23263 0.20947 0.42264 0.0
C213 C 0.25715 0.23871 0.40891 0.0
C214 C 0.27359 0.26097 0.4381 0.0
C215 C 0.26469 0.25404 0.47945 0.0
C216 C 0.285 0.2792 0.50703 0.0
C217 C 0.30776 0.30261 0.4757 0.0
C218 C 0.30111 0.29224 0.43506 0.0
C219 C 0.3113 0.25406 0.54537 0.0
C220 C 0.25442 0.30339 0.52024 0.0
H221 H 0.40144 0.39865 0.38289 0.0
H222 H 0.34233 0.329 0.27137 0.0
H223 H 0.27076 0.3465 0.32451 0.0
H224 H 0.25499 0.30102 0.34465 0.0
H225 H 0.27581 0.30918 0.29592 0.0
H226 H 0.3658 0.26542 0.36201 0.0
H227 H 0.32768 0.2619 0.31889 0.0
H228 H 0.32306 0.24391 0.37442 0.0
H229 H 0.41143 0.41529 0.53388 0.0
H230 H 0.34677 0.35254 0.62709 0.0
H231 H 0.31583 0.3193 0.5737 0.0
H232 H 0.43281 0.34614 0.49491 0.0
H233 H 0.44033 0.39352 0.46869 0.0
H234 H 0.42671 0.35714 0.4384 0.0
H235 H 0.34242 0.43029 0.45613 0.0
H236 H 0.35545 0.42196 0.40807 0.0
H237 H 0.39042 0.43962 0.44621 0.0
H238 H 0.41886 0.41302 0.31231 0.0
C239 C 0.38799 0.3829 0.35991 0.0
Eu240 Eu 0.03902 0.96311 0.52957 0.0
C241 C 0.92769 0.09865 0.49734 0.0
N242 N 0.96534 0.09771 0.51454 0.0
C243 C 0.97454 0.15601 0.46738 0.0
C244 C 0.91228 0.12771 0.46281 0.0
C245 C 0.9886 0.12637 0.50133 0.0
C246 C 0.93634 0.15642 0.44762 0.0
C247 C 0.86502 0.07163 0.49877 0.0
C248 C 0.90449 0.07086 0.51511 0.0
C249 C 0.84981 0.09951 0.46304 0.0
C250 C 0.87338 0.12753 0.44514 0.0
Eu251 Eu 0.98739 0.0465 0.57068 0.0
N252 N 0.92 0.04459 0.55003 0.0
C253 C 0.84175 0.04522 0.51981 0.0
C254 C 0.89677 0.02118 0.57291 0.0
C255 C 0.85759 0.02039 0.55755 0.0
H256 H 0.01815 0.12586 0.51656 0.0
H257 H 0.83955 1.00101 0.57521 0.0
H258 H 0.98169 0.88822 0.55175 0.0
H259 H 0.19299 0.96951 0.57854 0.0
H260 H 0.9081 0.00333 0.60341 0.0
H261 H 0.81131 0.04482 0.50825 0.0
H262 H 0.12964 0.98966 0.53466 0.0
H263 H 0.99319 0.17837 0.45632 0.0
H264 H 0.81964 0.10028 0.44978 0.0
H265 H 0.86107 0.14936 0.41825 0.0
H266 H 0.98201 0.83039 0.60704 0.0
H267 H 0.92557 0.17929 0.42118 0.0
H268 H 0.19838 0.91354 0.63792 0.0
N269 N 0.0369 0.90464 0.57785 0.0
C270 C 0.06994 0.89323 0.60536 0.0
C271 C 0.00673 0.84811 0.6074 0.0
C272 C 0.07195 0.85948 0.63649 0.0
C273 C 0.00636 0.88144 0.57665 0.0
C274 C 0.03941 0.83745 0.63803 0.0
N275 N 0.10009 0.94597 0.56973 0.0
C276 C 0.13203 0.9652 0.56055 0.0
C277 C 0.13797 0.90163 0.62649 0.0
C278 C 0.10264 0.91401 0.60055 0.0
C279 C 0.17069 0.92218 0.61871 0.0
C280 C 0.16777 0.95383 0.58524 0.0
H281 H 0.03976 0.81138 0.66151 0.0
H282 H 0.10859 0.82244 0.68832 0.0
H283 H 0.16639 0.85934 0.67953 0.0
O284 O 0.05716 0.97217 0.46589 0.0
O285 O 0.06646 0.98499 0.5893 0.0
O286 O 0.01403 0.99599 0.61879 0.0
O287 O 0.04989 0.91577 0.49979 0.0
O288 O 0.05942 0.02212 0.50653 0.0
O289 O 0.04856 0.0577 0.55733 0.0
O290 O 0.95791 0.07422 0.61195 0.0
O291 O 0.9882 0.04901 0.49933 0.0
O292 O 0.98131 0.98736 0.49442 0.0
O293 O 0.01787 0.08349 0.60997 0.0
O294 O 0.97165 0.98577 0.59574 0.0
O295 O 0.97652 0.95578 0.53929 0.0
C296 C 0.04987 0.98503 0.62325 0.0
C297 C 0.0353 0.92698 0.42427 0.0
C298 C 0.0349 0.91131 0.35314 0.0
C299 C 0.99532 0.90489 0.35096 0.0
C300 C 0.9959 0.92076 0.42098 0.0
C301 C 0.97607 0.90986 0.38445 0.0
C302 C 0.05467 0.92257 0.39025 0.0
C303 C 0.06564 0.05141 0.52532 0.0
C304 C 0.05644 0.93663 0.46384 0.0
C305 C 0.10666 0.84806 0.66392 0.0
C306 C 0.13961 0.86902 0.65884 0.0
C307 C 0.97634 0.02324 0.47707 0.0
C308 C 0.99633 0.07987 0.67722 0.0
C309 C 0.97574 0.08384 0.74568 0.0
C310 C 0.00677 0.05991 0.76761 0.0
C311 C 0.0274 0.05631 0.69992 0.0
C312 C 0.97081 0.094 0.70036 0.0
C313 C 0.03255 0.04651 0.74483 0.0
C314 C 0.96161 0.95923 0.57365 0.0
C315 C 0.98903 0.08795 0.62957 0.0
H316 H 0.97917 0.89527 0.32373 0.0
H317 H 0.98062 0.92378 0.44701 0.0
H318 H 0.94573 0.90469 0.38233 0.0
H319 H 0.08502 0.92795 0.39286 0.0
H320 H 0.01127 0.05187 0.80249 0.0
H321 H 0.04753 0.04516 0.68297 0.0
H322 H 0.94663 0.11197 0.68311 0.0
H323 H 0.05649 0.02828 0.76204 0.0
Eu324 Eu 0.47374 0.4844 0.98282 0.0
C325 C 0.61471 0.57553 0.02689 0.0
N326 N 0.6106 0.53896 0.04565 0.0
C327 C 0.67411 0.52346 0.03607 0.0
C328 C 0.64877 0.58735 0.01113 0.0
C329 C 0.63973 0.51302 0.05102 0.0
C330 C 0.67858 0.56073 0.01579 0.0
C331 C 0.58883 0.63957 0.00604 0.0
C332 C 0.58474 0.60116 0.02382 0.0
C333 C 0.62214 0.65124 0.98887 0.0
C334 C 0.65203 0.62518 0.99139 0.0
Eu335 Eu 0.55123 0.52321 0.06846 0.0
N336 N 0.55284 0.58907 0.04089 0.0
C337 C 0.56007 0.66541 0.00783 0.0
C338 C 0.52732 0.6148 0.04736 0.0
C339 C 0.52969 0.65308 0.02961 0.0
H340 H 0.63626 0.48425 0.06665 0.0
H341 H 0.50856 0.67314 0.03364 0.0
H342 H 0.40095 0.54841 0.95174 0.0
H343 H 0.47495 0.33676 0.06424 0.0
H344 H 0.50556 0.60624 0.06715 0.0
H345 H 0.56214 0.69516 0.9946 0.0
H346 H 0.50273 0.39524 0.02957 0.0
H347 H 0.69707 0.50276 0.04007 0.0
H348 H 0.62552 0.68055 0.97463 0.0
H349 H 0.67782 0.63472 0.97867 0.0
H350 H 0.33211 0.55247 0.95659 0.0
H351 H 0.70519 0.5687 0.00407 0.0
H352 H 0.40602 0.33549 0.07029 0.0
N353 N 0.40769 0.49115 0.98432 0.0
C354 C 0.3903 0.45971 1.00226 0.0
C355 C 0.34819 0.52628 0.96975 0.0
C356 C 0.35094 0.46064 0.0052 0.0
C357 C 0.38727 0.52402 0.96751 0.0
C358 C 0.32996 0.49451 0.9888 0.0
N359 N 0.4504 0.42701 0.0171 0.0
C360 C 0.47276 0.39514 0.03228 0.0
C361 C 0.39503 0.39379 0.03815 0.0
C362 C 0.41211 0.42659 0.01855 0.0
C363 C 0.41805 0.36124 0.05491 0.0
C364 C 0.45702 0.36189 0.05173 0.0
H365 H 0.29967 0.49637 0.9905 0.0
H366 H 0.30367 0.42818 0.02723 0.0
H367 H 0.34224 0.36974 0.05609 0.0
O368 O 0.48644 0.45176 0.93603 0.0
O369 O 0.46346 0.47347 0.0531 0.0
O370 O 0.52405 0.46816 0.09191 0.0
O371 O 0.43728 0.49005 0.91998 0.0
O372 O 0.53298 0.45584 0.997 0.0
O373 O 0.56412 0.46268 0.06466 0.0
O374 O 0.54365 0.54047 0.12839 0.0
O375 O 0.56396 0.52464 1.00049 0.0
O376 O 0.50521 0.53731 0.95881 0.0
O377 O 0.59728 0.51478 0.12391 0.0
O378 O 0.4884 0.54332 0.05758 0.0
O379 O 0.47021 0.54599 0.98513 0.0
C380 C 0.48731 0.46203 0.08918 0.0
C381 C 0.46894 0.48097 0.86315 0.0
C382 C 0.45828 0.48115 0.78601 0.0
C383 C 0.48866 0.50603 0.78097 0.0
C384 C 0.49951 0.50521 0.85763 0.0
C385 C 0.50911 0.51795 0.81666 0.0
C386 C 0.44842 0.46899 0.82738 0.0
C387 C 0.55983 0.44602 0.03103 0.0
C388 C 0.45868 0.46739 0.90614 0.0
C389 C 0.33385 0.42795 0.0246 0.0
C390 C 0.35581 0.39464 0.04099 0.0
C391 C 0.54258 0.54039 0.9642 0.0
C392 C 0.59891 0.56147 0.16635 0.0
C393 C 0.6111 0.59506 0.22581 0.0
C394 C 0.63254 0.62119 0.2012 0.0
C395 C 0.62078 0.5876 0.1425 0.0
C396 C 0.59447 0.56504 0.20825 0.0
C397 C 0.63749 0.61729 0.15989 0.0
C398 C 0.46671 0.55758 0.02066 0.0
C399 C 0.57874 0.5319 0.14694 0.0
H400 H 0.4966 0.51625 0.74947 0.0
H401 H 0.51609 0.51385 0.88508 0.0
H402 H 0.53266 0.53684 0.81261 0.0
H403 H 0.42544 0.44944 0.83205 0.0
H404 H 0.64589 0.64438 0.2142 0.0
H405 H 0.62479 0.58524 0.1104 0.0
H406 H 0.57742 0.54506 0.22674 0.0
H407 H 0.65421 0.6374 0.14123 0.0
H408 H 0.15909 0.17679 0.42214 0.0
H409 H 0.23399 0.15615 0.54493 0.0
H410 H 0.19088 0.10934 0.57485 0.0
H411 H 0.13088 0.07481 0.56716 0.0
H412 H 0.05868 0.09076 0.44337 0.0
H413 H 0.10158 0.13848 0.41282 0.0
C414 C 0.16631 0.16169 0.45523 0.0
C415 C 0.19947 0.17081 0.48134 0.0
C416 C 0.14163 0.13403 0.47224 0.0
C417 C 0.20815 0.15075 0.52427 0.0
C418 C 0.1836 0.12371 0.54148 0.0
C419 C 0.12469 0.08891 0.53356 0.0
C420 C 0.09174 0.07986 0.50752 0.0
C421 C 0.15 0.11546 0.51601 0.0
C422 C 0.08404 0.09758 0.46386 0.0
C423 C 0.10852 0.12478 0.44645 0.0
H424 H 0.3606 0.70328 0.9796 0.0
H425 H 0.32488 0.65048 0.09988 0.0
H426 H 0.37229 0.59959 0.10836 0.0
H427 H 0.42205 0.56818 0.0797 0.0
H428 H 0.4515 0.61811 0.95555 0.0
H429 H 0.4075 0.67135 0.94989 0.0
C430 C 0.36246 0.68042 0.00741 0.0
C431 C 0.33864 0.68094 0.0388 0.0
C432 C 0.38857 0.6504 0.01122 0.0
C433 C 0.34293 0.65143 0.07531 0.0
C434 C 0.36985 0.62198 0.08003 0.0
C435 C 0.41876 0.59085 0.05155 0.0
C436 C 0.43985 0.58937 0.01806 0.0
C437 C 0.39256 0.62096 0.04796 0.0
C438 C 0.43526 0.61859 0.98152 0.0
C439 C 0.41025 0.64907 0.97836 0.0
H440 H 0.85383 0.83715 0.65926 0.0
H441 H 0.7859 0.87061 0.53299 0.0
H442 H 0.83368 0.9155 0.51097 0.0
H443 H 0.89628 0.94364 0.52586 0.0
H444 H 0.96153 0.91655 0.65359 0.0
H445 H 0.91354 0.87103 0.67681 0.0
C446 C 0.84919 0.85466 0.6272 0.0
C447 C 0.81675 0.84945 0.59751 0.0
C448 C 0.87656 0.88138 0.61479 0.0
C449 C 0.8112 0.87282 0.55614 0.0
C450 C 0.83844 0.89877 0.54345 0.0
C451 C 0.89983 0.92766 0.55874 0.0
C452 C 0.93235 0.93272 0.58788 0.0
C453 C 0.87157 0.90274 0.57213 0.0
C454 C 0.93654 0.91276 0.63069 0.0
C455 C 0.90917 0.88682 0.6439 0.0
H456 H 0.65331 0.30318 0.01083 0.0
H457 H 0.71957 0.32506 0.12807 0.0
H458 H 0.67819 0.37941 0.12518 0.0
H459 H 0.62177 0.4192 0.09141 0.0
H460 H 0.55685 0.39989 0.97216 0.0
H461 H 0.59903 0.34624 0.97397 0.0
C462 C 0.65903 0.32018 0.03535 0.0
C463 C 0.68919 0.3096 0.06996 0.0
C464 C 0.63516 0.35176 0.03342 0.0
C465 C 0.69605 0.33196 0.10158 0.0
C466 C 0.67247 0.3632 0.09991 0.0
C467 C 0.61694 0.40359 0.06552 0.0
C468 C 0.58606 0.41381 0.03174 0.0
C469 C 0.64162 0.37304 0.06636 0.0
C470 C 0.58033 0.39284 0.99868 0.0
C471 C 0.60449 0.36207 0.99961 0.0
H472 H 0.09087 0.88427 0.18323 0.0
H473 H 0.19521 0.84969 0.27239 0.0
H474 H 0.16502 0.86359 0.33123 0.0
H475 H 0.10841 0.88412 0.35787 0.0
H476 H 0.00724 0.92564 0.26643 0.0
H477 H 0.03733 0.91099 0.20812 0.0
C478 C 0.10763 0.88051 0.21517 0.0
C479 C 0.14547 0.86561 0.22285 0.0
C480 C 0.09057 0.88971 0.24877 0.0
C481 C 0.16583 0.86022 0.26518 0.0
C482 C 0.14868 0.86852 0.29899 0.0
C483 C 0.09307 0.89068 0.32516 0.0
C484 C 0.05513 0.9054 0.3171 0.0
C485 C 0.11095 0.88308 0.29122 0.0
C486 C 0.03593 0.91326 0.27422 0.0
C487 C 0.05325 0.90516 0.2406 0.0
H488 H 0.64193 0.60814 0.82022 0.0
H489 H 0.53305 0.66132 0.7597 0.0
H490 H 0.50449 0.63422 0.82348 0.0
H491 H 0.50952 0.59225 0.89463 0.0
H492 H 0.6169 0.53421 0.95224 0.0
H493 H 0.64716 0.56667 0.89225 0.0
C494 C 0.61216 0.61425 0.82151 0.0
C495 C 0.58963 0.6369 0.78568 0.0
C496 C 0.59566 0.59757 0.85777 0.0
C497 C 0.55089 0.6441 0.78715 0.0
C498 C 0.53456 0.62851 0.82349 0.0
C499 C 0.53959 0.58685 0.89414 0.0
C500 C 0.56102 0.56116 0.92824 0.0
C501 C 0.55648 0.60467 0.8587 0.0
C502 C 0.59991 0.5544 0.92694 0.0
C503 C 0.61719 0.57273 0.89239 0.0
H504 H 0.9128 0.10146 0.28538 0.0
H505 H 0.87517 0.98914 0.27897 0.0
H506 H 0.90384 0.96695 0.35479 0.0
H507 H 0.93782 0.98062 0.42349 0.0
H508 H 0.97955 0.09238 0.42634 0.0
H509 H 0.95037 0.11396 0.35167 0.0
C510 C 0.91094 0.07211 0.3007 0.0
C511 C 0.89167 0.04698 0.27715 0.0
C512 C 0.92786 0.05964 0.3437 0.0
C513 C 0.88991 0.0089 0.29678 0.0
C514 C 0.90619 0.9963 0.34002 0.0
C515 C 0.94089 0.00955 0.4076 0.0
C516 C 0.96012 0.03507 0.4309 0.0
C517 C 0.92504 0.02153 0.36391 0.0
C518 C 0.96383 0.07246 0.40976 0.0
C519 C 0.9475 0.08477 0.36681 0.0
H520 H 0.34965 0.41566 0.64375 0.0
H521 H 0.45768 0.40101 0.60127 0.0
H522 H 0.49063 0.43061 0.65851 0.0
H523 H 0.48919 0.45767 0.72275 0.0
H524 H 0.38125 0.47206 0.76556 0.0
H525 H 0.34791 0.44482 0.70652 0.0
C526 C 0.38042 0.41883 0.64714 0.0
C527 C 0.40118 0.40604 0.6184 0.0
C528 C 0.39923 0.43554 0.68034 0.0
C529 C 0.44097 0.41094 0.62271 0.0
C530 C 0.45987 0.42764 0.65559 0.0
C531 C 0.4583 0.45539 0.71879 0.0
C532 C 0.43777 0.46677 0.74861 0.0
C533 C 0.43933 0.43975 0.68479 0.0
C534 C 0.3978 0.46305 0.74339 0.0
C535 C 0.3787 0.44763 0.70955 0.0
H536 H 0.62907 0.59873 0.42345 0.0
H537 H 0.58991 0.71338 0.37057 0.0
H538 H 0.57686 0.6993 0.29821 0.0
H539 H 0.58588 0.65711 0.24917 0.0
H540 H 0.62685 0.54281 0.30074 0.0
H541 H 0.62954 0.5536 0.37441 0.0
C542 C 0.61648 0.62012 0.39616 0.0
C543 C 0.61038 0.65697 0.40196 0.0
C544 C 0.61011 0.61203 0.35443 0.0
C545 C 0.59463 0.68481 0.36654 0.0
C546 C 0.5875 0.67685 0.32522 0.0
C547 C 0.59484 0.63446 0.27664 0.0
C548 C 0.60671 0.59946 0.26982 0.0
C549 C 0.59664 0.64102 0.31861 0.0
C550 C 0.6177 0.57004 0.30542 0.0
C551 C 0.61939 0.57627 0.34746 0.0
H552 H 0.87962 0.16666 0.85242 0.0
H553 H 0.86219 0.05125 0.91146 0.0
H554 H 0.89761 0.02897 0.86137 0.0
H555 H 0.93748 0.04194 0.80423 0.0
H556 H 0.95348 0.15666 0.74277 0.0
H557 H 0.91408 0.17954 0.78965 0.0
C558 C 0.88292 0.13666 0.85379 0.0
C559 C 0.86886 0.11073 0.88635 0.0
C560 C 0.90323 0.12388 0.82454 0.0
C561 C 0.87354 0.0719 0.88756 0.0
C562 C 0.89367 0.05907 0.85878 0.0
C563 C 0.93206 0.07194 0.80097 0.0
C564 C 0.94861 0.09764 0.77055 0.0
C565 C 0.90939 0.08476 0.82784 0.0
C566 C 0.94097 0.1364 0.76604 0.0
C567 C 0.91861 0.14945 0.79294 0.0
H568 H 0.45485 0.37434 0.27015 0.0
H569 H 0.33787 0.39324 0.20692 0.0
H570 H 0.35994 0.42151 0.13889 0.0
H571 H 0.41277 0.44714 0.10025 0.0
H572 H 0.52965 0.42707 0.16498 0.0
H573 H 0.50726 0.39383 0.22983 0.0
C574 C 0.43421 0.38417 0.24126 0.0
C575 C 0.39484 0.38203 0.24351 0.0
C576 C 0.44708 0.40089 0.20283 0.0
C577 C 0.36833 0.39446 0.20586 0.0
C578 C 0.38097 0.41097 0.16716 0.0
C579 C 0.4334 0.43486 0.12817 0.0
C580 C 0.47293 0.43979 0.12746 0.0
C581 C 0.42032 0.41531 0.16561 0.0
C582 C 0.49909 0.42407 0.16442 0.0
C583 C 0.48634 0.40488 0.20164 0.0
H584 H 0.15891 0.93006 0.80115 0.0
H585 H 0.04963 0.91904 0.84591 0.0
H586 H 0.01668 0.94107 0.77234 0.0
H587 H 0.0187 0.96239 0.6956 0.0
H588 H 0.12744 0.978 0.65037 0.0
H589 H 0.16091 0.95419 0.72363 0.0
C590 C 0.12788 0.93242 0.79466 0.0
C591 C 0.10671 0.92297 0.82888 0.0
C592 C 0.10909 0.94538 0.75224 0.0
C593 C 0.06656 0.92654 0.82018 0.0
C594 C 0.04769 0.93887 0.77812 0.0
C595 C 0.04976 0.96066 0.70168 0.0
C596 C 0.0706 0.9711 0.66737 0.0
C597 C 0.06865 0.94825 0.74395 0.0
C598 C 0.11077 0.96901 0.67598 0.0
C599 C 0.12988 0.95581 0.71796 0.0
loop_
_geom_bond_atom_site_label_1
_geom_bond_atom_site_label_2
_geom_bond_distance
_geom_bond_site_symmetry_2
_ccdc_geom_bond_type
C0 C1 1.391 . S
C0 C4 1.391 . S
C0 H42 0.948 . S
C1 C0 1.391 . S
C1 C2 1.391 . S
C2 C1 1.391 . S
C2 H58 0.947 . S
C2 C59 1.392 . S
C3 C4 1.391 . S
C3 C7 1.397 . S
C3 C59 1.419 . S
C4 C0 1.391 . S
C4 C3 1.391 . S
C4 C5 1.399 . S
C5 C4 1.399 . S
C5 C8 1.396 . S
C5 C17 1.453 . S
C5 C18 1.684 . S
H6 C30 0.948 . S
C7 C3 1.397 . S
C7 C8 1.394 . S
C7 C26 1.723 1_556 S
C8 C5 1.396 . S
C8 C7 1.394 . S
C8 C38 1.723 1_556 S
H9 C32 0.947 . S
H10 C33 0.948 . S
H11 C39 0.982 . S
H12 C40 0.979 . S
H13 C40 0.980 . S
H14 C40 0.983 . S
H15 C39 0.979 . S
H16 C39 0.977 . S
C17 C5 1.453 . S
C17 H46 0.982 . S
C17 H47 0.979 . S
C17 H48 0.977 . S
C18 C5 1.684 . S
C18 H43 0.979 . S
C18 H44 0.980 . S
C18 H45 0.983 . S
C19 C20 1.391 . S
C19 C24 1.391 . S
C19 H49 0.948 . S
C20 C19 1.391 . S
C20 C21 1.391 . S
C21 C20 1.391 . S
C21 C22 1.392 . S
C21 H50 0.947 . S
C22 C21 1.392 . S
C22 C23 1.419 . S
C22 H51 0.948 . S
C23 C22 1.419 . S
C23 C24 1.391 . S
C23 C27 1.397 . S
C24 C19 1.391 . S
C24 C23 1.391 . S
C24 C25 1.399 . S
C25 C24 1.399 . S
C25 C26 1.396 . S
C25 C28 1.453 . S
C25 C29 1.684 . S
C26 C7 1.723 1_554 S
C26 C25 1.396 . S
C26 C27 1.394 . S
C27 C23 1.397 . S
C27 C26 1.394 . S
C27 C37 1.723 . S
C28 C25 1.453 . S
C28 H52 0.982 . S
C28 H53 0.979 . S
C28 H54 0.977 1_554 S
C29 C25 1.684 . S
C29 H55 0.979 . S
C29 H56 0.980 1_554 S
C29 H57 0.983 . S
C30 H6 0.948 . S
C30 C31 1.391 . S
C30 C35 1.391 . S
C31 C30 1.391 . S
C31 C32 1.391 1_554 S
C32 H9 0.947 . S
C32 C31 1.391 1_556 S
C32 C33 1.392 . S
C33 H10 0.948 . S
C33 C32 1.392 . S
C33 C34 1.419 1_556 S
C34 C33 1.419 1_554 S
C34 C35 1.391 . S
C34 C38 1.397 . S
C35 C30 1.391 . S
C35 C34 1.391 . S
C35 C36 1.399 . S
C36 C35 1.399 . S
C36 C37 1.396 . S
C36 C39 1.453 . S
C36 C40 1.684 . S
C37 C27 1.723 . S
C37 C36 1.396 . S
C37 C38 1.394 . S
C38 C8 1.723 1_554 S
C38 C34 1.397 . S
C38 C37 1.394 . S
C39 H11 0.982 . S
C39 H15 0.979 . S
C39 H16 0.977 . S
C39 C36 1.453 . S
C40 H12 0.979 . S
C40 H13 0.980 . S
C40 H14 0.983 . S
C40 C36 1.684 . S
H41 C59 0.948 . S
H42 C0 0.948 . S
H43 C18 0.979 . S
H44 C18 0.980 . S
H45 C18 0.983 . S
H46 C17 0.982 . S
H47 C17 0.979 . S
H48 C17 0.977 . S
H49 C19 0.948 . S
H50 C21 0.947 . S
H51 C22 0.948 . S
H52 C28 0.982 . S
H53 C28 0.979 . S
H54 C28 0.977 1_556 S
H55 C29 0.979 . S
H56 C29 0.980 1_556 S
H57 C29 0.983 . S
H58 C2 0.947 . S
C59 C2 1.392 . S
C59 C3 1.419 . S
C59 H41 0.948 . S
C60 C61 1.391 . S
C60 C64 1.391 . S
C60 H102 0.948 . S
C61 C60 1.391 . S
C61 C62 1.391 . S
C62 C61 1.391 . S
C62 H118 0.947 . S
C62 C119 1.392 . S
C63 C64 1.391 . S
C63 C67 1.397 . S
C63 C119 1.419 . S
C64 C60 1.391 . S
C64 C63 1.391 . S
C64 C65 1.399 . S
C65 C64 1.399 . S
C65 C68 1.396 . S
C65 C77 1.453 . S
C65 C78 1.684 . S
H66 C90 0.948 . S
C67 C63 1.397 . S
C67 C68 1.394 . S
C67 C86 1.723 . S
C68 C65 1.396 . S
C68 C67 1.394 . S
C68 C98 1.723 . S
H69 C92 0.947 . S
H70 C93 0.948 . S
H71 C99 0.982 . S
H72 C100 0.979 . S
H73 C100 0.980 . S
H74 C100 0.983 . S
H75 C99 0.979 . S
H76 C99 0.977 . S
C77 C65 1.453 . S
C77 H106 0.982 . S
C77 H107 0.979 . S
C77 H108 0.977 . S
C78 C65 1.684 . S
C78 H103 0.979 . S
C78 H104 0.980 . S
C78 H105 0.983 . S
C79 C80 1.391 . S
C79 C84 1.391 . S
C79 H109 0.948 . S
C80 C79 1.391 . S
C80 C81 1.391 . S
C81 C80 1.391 . S
C81 C82 1.392 . S
C81 H110 0.947 . S
C82 C81 1.392 . S
C82 C83 1.419 . S
C82 H111 0.948 . S
C83 C82 1.419 . S
C83 C84 1.391 . S
C83 C87 1.397 . S
C84 C79 1.391 . S
C84 C83 1.391 . S
C84 C85 1.399 . S
C85 C84 1.399 . S
C85 C86 1.396 . S
C85 C88 1.453 . S
C85 C89 1.684 . S
C86 C67 1.723 . S
C86 C85 1.396 . S
C86 C87 1.394 . S
C87 C83 1.397 . S
C87 C86 1.394 . S
C87 C97 1.723 . S
C88 C85 1.453 . S
C88 H112 0.982 . S
C88 H113 0.979 . S
C88 H114 0.977 . S
C89 C85 1.684 . S
C89 H115 0.979 . S
C89 H116 0.980 . S
C89 H117 0.983 . S
C90 H66 0.948 . S
C90 C91 1.391 . S
C90 C95 1.391 . S
C91 C90 1.391 . S
C91 C92 1.391 . S
C92 H69 0.947 . S
C92 C91 1.391 . S
C92 C93 1.392 . S
C93 H70 0.948 . S
C93 C92 1.392 . S
C93 C94 1.419 . S
C94 C93 1.419 . S
C94 C95 1.391 . S
C94 C98 1.397 . S
C95 C90 1.391 . S
C95 C94 1.391 . S
C95 C96 1.399 . S
C96 C95 1.399 . S
C96 C97 1.396 . S
C96 C99 1.453 . S
C96 C100 1.684 . S
C97 C87 1.723 . S
C97 C96 1.396 . S
C97 C98 1.394 . S
C98 C68 1.723 . S
C98 C94 1.397 . S
C98 C97 1.394 . S
C99 H71 0.982 . S
C99 H75 0.979 . S
C99 H76 0.977 . S
C99 C96 1.453 . S
C100 H72 0.979 . S
C100 H73 0.980 . S
C100 H74 0.983 . S
C100 C96 1.684 . S
H101 C119 0.948 . S
H102 C60 0.948 . S
H103 C78 0.979 . S
H104 C78 0.980 . S
H105 C78 0.983 . S
H106 C77 0.982 . S
H107 C77 0.979 . S
H108 C77 0.977 . S
H109 C79 0.948 . S
H110 C81 0.947 . S
H111 C82 0.948 . S
H112 C88 0.982 . S
H113 C88 0.979 . S
H114 C88 0.977 . S
H115 C89 0.979 . S
H116 C89 0.980 . S
H117 C89 0.983 . S
H118 C62 0.947 . S
C119 C62 1.392 . S
C119 C63 1.419 . S
C119 H101 0.948 . S
C120 C121 1.391 . S
C120 C124 1.391 . S
C120 H162 0.948 . S
C121 C120 1.391 . S
C121 C122 1.391 . S
C122 C121 1.391 . S
C122 H178 0.947 . S
C122 C179 1.392 . S
C123 C124 1.391 . S
C123 C127 1.397 . S
C123 C179 1.419 . S
C124 C120 1.391 . S
C124 C123 1.391 . S
C124 C125 1.399 . S
C125 C124 1.399 . S
C125 C128 1.396 . S
C125 C137 1.453 . S
C125 C138 1.684 . S
H126 C150 0.948 1_556 S
C127 C123 1.397 . S
C127 C128 1.394 . S
C127 C146 1.723 . S
C128 C125 1.396 . S
C128 C127 1.394 . S
C128 C158 1.723 . S
H129 C152 0.947 . S
H130 C153 0.948 . S
H131 C159 0.982 . S
H132 C160 0.979 . S
H133 C160 0.980 . S
H134 C160 0.983 . S
H135 C159 0.979 . S
H136 C159 0.977 . S
C137 C125 1.453 . S
C137 H166 0.982 . S
C137 H167 0.979 . S
C137 H168 0.977 . S
C138 C125 1.684 . S
C138 H163 0.979 . S
C138 H164 0.980 . S
C138 H165 0.983 . S
C139 C140 1.391 . S
C139 C144 1.391 . S
C139 H169 0.948 . S
C140 C139 1.391 . S
C140 C141 1.391 . S
C141 C140 1.391 . S
C141 C142 1.392 . S
C141 H170 0.947 . S
C142 C141 1.392 . S
C142 C143 1.419 . S
C142 H171 0.948 . S
C143 C142 1.419 . S
C143 C144 1.391 . S
C143 C147 1.397 1_556 S
C144 C139 1.391 . S
C144 C143 1.391 . S
C144 C145 1.399 1_556 S
C145 C144 1.399 1_554 S
C145 C146 1.396 . S
C145 C148 1.453 . S
C145 C149 1.684 . S
C146 C127 1.723 . S
C146 C145 1.396 . S
C146 C147 1.394 . S
C147 C143 1.397 1_554 S
C147 C146 1.394 . S
C147 C157 1.723 . S
C148 C145 1.453 . S
C148 H172 0.982 . S
C148 H173 0.979 . S
C148 H174 0.977 . S
C149 C145 1.684 . S
C149 H175 0.979 . S
C149 H176 0.980 . S
C149 H177 0.983 . S
C150 H126 0.948 1_554 S
C150 C151 1.391 . S
C150 C155 1.391 . S
C151 C150 1.391 . S
C151 C152 1.391 . S
C152 H129 0.947 . S
C152 C151 1.391 . S
C152 C153 1.392 . S
C153 H130 0.948 . S
C153 C152 1.392 . S
C153 C154 1.419 . S
C154 C153 1.419 . S
C154 C155 1.391 . S
C154 C158 1.397 . S
C155 C150 1.391 . S
C155 C154 1.391 . S
C155 C156 1.399 1_554 S
C156 C155 1.399 1_556 S
C156 C157 1.396 1_556 S
C156 C159 1.453 . S
C156 C160 1.684 . S
C157 C147 1.723 . S
C157 C156 1.396 1_554 S
C157 C158 1.394 . S
C158 C128 1.723 . S
C158 C154 1.397 . S
C158 C157 1.394 . S
C159 H131 0.982 . S
C159 H135 0.979 . S
C159 H136 0.977 . S
C159 C156 1.453 . S
C160 H132 0.979 . S
C160 H133 0.980 . S
C160 H134 0.983 . S
C160 C156 1.684 . S
H161 C179 0.948 . S
H162 C120 0.948 . S
H163 C138 0.979 . S
H164 C138 0.980 . S
H165 C138 0.983 . S
H166 C137 0.982 . S
H167 C137 0.979 . S
H168 C137 0.977 . S
H169 C139 0.948 . S
H170 C141 0.947 . S
H171 C142 0.948 . S
H172 C148 0.982 . S
H173 C148 0.979 . S
H174 C148 0.977 . S
H175 C149 0.979 . S
H176 C149 0.980 . S
H177 C149 0.983 . S
H178 C122 0.947 . S
C179 C122 1.392 . S
C179 C123 1.419 . S
C179 H161 0.948 . S
C180 C181 1.391 . S
C180 C184 1.391 . S
C180 H222 0.948 . S
C181 C180 1.391 . S
C181 C182 1.391 . S
C182 C181 1.391 . S
C182 H238 0.947 . S
C182 C239 1.392 . S
C183 C184 1.391 . S
C183 C187 1.397 . S
C183 C239 1.419 . S
C184 C180 1.391 . S
C184 C183 1.391 . S
C184 C185 1.399 . S
C185 C184 1.399 . S
C185 C188 1.396 . S
C185 C197 1.453 . S
C185 C198 1.684 . S
H186 C210 0.948 . S
C187 C183 1.397 . S
C187 C188 1.394 . S
C187 C206 1.723 . S
C188 C185 1.396 . S
C188 C187 1.394 . S
C188 C218 1.723 . S
H189 C212 0.947 . S
H190 C213 0.948 . S
H191 C219 0.982 . S
H192 C220 0.979 . S
H193 C220 0.980 . S
H194 C220 0.983 . S
H195 C219 0.979 . S
H196 C219 0.977 . S
C197 C185 1.453 . S
C197 H226 0.982 . S
C197 H227 0.979 . S
C197 H228 0.977 . S
C198 C185 1.684 . S
C198 H223 0.979 . S
C198 H224 0.980 . S
C198 H225 0.983 . S
C199 C200 1.391 . S
C199 C204 1.391 . S
C199 H229 0.948 . S
C200 C199 1.391 . S
C200 C201 1.391 . S
C201 C200 1.391 . S
C201 C202 1.392 . S
C201 H230 0.947 . S
C202 C201 1.392 . S
C202 C203 1.419 . S
C202 H231 0.948 . S
C203 C202 1.419 . S
C203 C204 1.391 . S
C203 C207 1.397 . S
C204 C199 1.391 . S
C204 C203 1.391 . S
C204 C205 1.399 . S
C205 C204 1.399 . S
C205 C206 1.396 . S
C205 C208 1.453 . S
C205 C209 1.684 . S
C206 C187 1.723 . S
C206 C205 1.396 . S
C206 C207 1.394 . S
C207 C203 1.397 . S
C207 C206 1.394 . S
C207 C217 1.723 . S
C208 C205 1.453 . S
C208 H232 0.982 . S
C208 H233 0.979 . S
C208 H234 0.977 . S
C209 C205 1.684 . S
C209 H235 0.979 . S
C209 H236 0.980 . S
C209 H237 0.983 . S
C210 H186 0.948 . S
C210 C211 1.391 . S
C210 C215 1.391 . S
C211 C210 1.391 . S
C211 C212 1.391 . S
C212 H189 0.947 . S
C212 C211 1.391 . S
C212 C213 1.392 . S
C213 H190 0.948 . S
C213 C212 1.392 . S
C213 C214 1.419 . S
C214 C213 1.419 . S
C214 C215 1.391 . S
C214 C218 1.397 . S
C215 C210 1.391 . S
C215 C214 1.391 . S
C215 C216 1.399 . S
C216 C215 1.399 . S
C216 C217 1.396 . S
C216 C219 1.453 . S
C216 C220 1.684 . S
C217 C207 1.723 . S
C217 C216 1.396 . S
C217 C218 1.394 . S
C218 C188 1.723 . S
C218 C214 1.397 . S
C218 C217 1.394 . S
C219 H191 0.982 . S
C219 H195 0.979 . S
C219 H196 0.977 . S
C219 C216 1.453 . S
C220 H192 0.979 . S
C220 H193 0.980 . S
C220 H194 0.983 . S
C220 C216 1.684 . S
H221 C239 0.948 . S
H222 C180 0.948 . S
H223 C198 0.979 . S
H224 C198 0.980 . S
H225 C198 0.983 . S
H226 C197 0.982 . S
H227 C197 0.979 . S
H228 C197 0.977 . S
H229 C199 0.948 . S
H230 C201 0.947 . S
H231 C202 0.948 . S
H232 C208 0.982 . S
H233 C208 0.979 . S
H234 C208 0.977 . S
H235 C209 0.979 . S
H236 C209 0.980 . S
H237 C209 0.983 . S
H238 C182 0.947 . S
C239 C182 1.392 . S
C239 C183 1.419 . S
C239 H221 0.948 . S
Eu240 N269 2.600 . S
Eu240 N275 2.562 . S
Eu240 O284 2.462 . S
Eu240 O285 2.373 . S
Eu240 O287 2.432 . S
Eu240 O288 2.291 1_565 S
Eu240 O292 2.347 1_455 S
Eu240 O295 2.372 1_455 S
Eu240 C304 2.787 . S
C241 N242 1.365 . S
C241 C244 1.405 . S
C241 C248 1.448 . S
N242 C241 1.365 . S
N242 C245 1.333 . S
N242 Eu251 2.600 . S
C243 C245 1.397 . S
C243 C246 1.367 . S
C243 H263 0.931 1_655 S
C244 C241 1.405 . S
C244 C246 1.403 . S
C244 C250 1.439 . S
C245 N242 1.333 . S
C245 C243 1.397 . S
C245 H256 0.915 1_655 S
C246 C243 1.367 . S
C246 C244 1.403 . S
C246 H267 0.929 . S
C247 C248 1.430 . S
C247 C249 1.387 . S
C247 C253 1.404 . S
C248 C241 1.448 . S
C248 C247 1.430 . S
C248 N252 1.351 . S
C249 C247 1.387 . S
C249 C250 1.374 . S
C249 H264 0.931 . S
C250 C244 1.439 . S
C250 C249 1.374 . S
C250 H265 0.931 . S
Eu251 N242 2.600 . S
Eu251 N252 2.562 . S
Eu251 O286 2.335 1_655 S
Eu251 O289 2.372 1_655 S
Eu251 O290 2.462 . S
Eu251 O291 2.373 . S
Eu251 O293 2.432 . S
Eu251 O294 2.291 1_545 S
Eu251 C315 2.787 . S
N252 C248 1.351 . S
N252 Eu251 2.562 . S
N252 C254 1.325 . S
C253 C247 1.404 . S
C253 C255 1.366 . S
C253 H261 0.930 . S
C254 N252 1.325 . S
C254 C255 1.416 . S
C254 H260 0.929 . S
C255 C253 1.366 . S
C255 C254 1.416 . S
C255 H257 0.930 . S
H256 C245 0.915 1_455 S
H257 C255 0.930 . S
H258 C273 0.930 1_655 S
H259 C280 0.930 . S
H260 C254 0.929 . S
H261 C253 0.930 . S
H262 C276 0.929 . S
H263 C243 0.931 1_455 S
H264 C249 0.931 . S
H265 C250 0.931 . S
H266 C271 0.931 1_655 S
H267 C246 0.929 . S
H268 C279 0.930 . S
N269 Eu240 2.600 . S
N269 C270 1.365 . S
N269 C273 1.319 . S
C270 N269 1.365 . S
C270 C272 1.405 . S
C270 C278 1.448 . S
C271 H266 0.931 1_455 S
C271 C273 1.397 . S
C271 C274 1.367 . S
C272 C270 1.405 . S
C272 C274 1.403 . S
C272 C305 1.439 . S
C273 H258 0.930 1_455 S
C273 N269 1.319 . S
C273 C271 1.397 . S
C274 C271 1.367 . S
C274 C272 1.403 . S
C274 H281 0.929 . S
N275 Eu240 2.562 . S
N275 C276 1.325 . S
N275 C278 1.351 . S
C276 H262 0.929 . S
C276 N275 1.325 . S
C276 C280 1.416 . S
C277 C278 1.430 . S
C277 C279 1.404 . S
C277 C306 1.387 . S
C278 C270 1.448 . S
C278 N275 1.351 . S
C278 C277 1.430 . S
C279 H268 0.930 . S
C279 C277 1.404 . S
C279 C280 1.366 . S
C280 H259 0.930 . S
C280 C276 1.416 . S
C280 C279 1.366 . S
H281 C274 0.929 . S
H282 C305 0.931 . S
H283 C306 0.931 . S
O284 Eu240 2.462 . S
O284 C304 1.252 . S
O285 Eu240 2.373 . S
O285 C296 1.249 . S
O286 Eu251 2.335 1_455 S
O286 C296 1.264 1_545 S
O287 Eu240 2.432 . S
O287 C304 1.268 . S
O288 Eu240 2.291 1_545 S
O288 C303 1.255 . S
O289 Eu251 2.372 1_455 S
O289 C303 1.257 . S
O290 Eu251 2.462 . S
O290 C315 1.252 . S
O291 Eu251 2.373 . S
O291 C307 1.249 . S
O292 Eu240 2.347 1_655 S
O292 C307 1.245 1_565 S
O293 Eu251 2.432 . S
O293 C315 1.268 . S
O294 Eu251 2.291 1_565 S
O294 C314 1.255 . S
O295 Eu240 2.372 1_655 S
O295 C314 1.257 . S
C296 O285 1.249 . S
C296 O286 1.264 1_565 S
C297 C300 1.382 . S
C297 C302 1.390 . S
C297 C304 1.506 . S
C298 C299 1.398 . S
C298 C302 1.392 . S
C299 C298 1.398 . S
C299 C301 1.372 . S
C299 H316 0.931 . S
C300 C297 1.382 . S
C300 C301 1.390 . S
C300 H317 0.931 . S
C301 C299 1.372 . S
C301 C300 1.390 . S
C301 H318 0.929 . S
C302 C297 1.390 . S
C302 C298 1.392 . S
C302 H319 0.930 . S
C303 O288 1.255 . S
C303 O289 1.257 . S
C304 Eu240 2.787 . S
C304 O284 1.252 . S
C304 O287 1.268 . S
C304 C297 1.506 . S
C305 C272 1.439 . S
C305 H282 0.931 . S
C305 C306 1.374 . S
C306 C277 1.387 . S
C306 H283 0.931 . S
C306 C305 1.374 . S
C307 O291 1.249 . S
C307 O292 1.245 1_545 S
C308 C311 1.382 . S
C308 C312 1.390 . S
C308 C315 1.506 . S
C309 C310 1.398 . S
C309 C312 1.392 . S
C310 C309 1.398 . S
C310 C313 1.372 . S
C310 H320 0.931 . S
C311 C308 1.382 . S
C311 C313 1.390 . S
C311 H321 0.931 . S
C312 C308 1.390 . S
C312 C309 1.392 . S
C312 H322 0.930 . S
C313 C310 1.372 . S
C313 C311 1.390 . S
C313 H323 0.929 . S
C314 O294 1.255 . S
C314 O295 1.257 . S
C315 Eu251 2.787 . S
C315 O290 1.252 . S
C315 O293 1.268 . S
C315 C308 1.506 . S
H316 C299 0.931 . S
H317 C300 0.931 . S
H318 C301 0.929 . S
H319 C302 0.930 . S
H320 C310 0.931 . S
H321 C311 0.931 . S
H322 C312 0.930 . S
H323 C313 0.929 . S
Eu324 N353 2.600 . S
Eu324 N359 2.562 1_556 S
Eu324 O368 2.462 . S
Eu324 O369 2.373 1_556 S
Eu324 O371 2.432 . S
Eu324 O372 2.291 1_556 S
Eu324 O376 2.335 . S
Eu324 O379 2.370 1_556 S
Eu324 C388 2.787 . S
C325 N326 1.365 . S
C325 C328 1.405 . S
C325 C332 1.448 . S
N326 C325 1.365 . S
N326 C329 1.319 . S
N326 Eu335 2.600 . S
C327 C329 1.397 . S
C327 C330 1.367 . S
C327 H347 0.931 . S
C328 C325 1.405 . S
C328 C330 1.403 . S
C328 C334 1.439 . S
C329 N326 1.319 . S
C329 C327 1.397 . S
C329 H340 0.930 . S
C330 C327 1.367 . S
C330 C328 1.403 . S
C330 H351 0.929 . S
C331 C332 1.430 . S
C331 C333 1.387 . S
C331 C337 1.404 . S
C332 C325 1.448 . S
C332 C331 1.430 . S
C332 N336 1.351 . S
C333 C331 1.387 . S
C333 C334 1.374 . S
C333 H348 0.931 . S
C334 C328 1.439 . S
C334 C333 1.374 . S
C334 H349 0.931 . S
Eu335 N326 2.600 . S
Eu335 N336 2.562 . S
Eu335 O370 2.335 . S
Eu335 O373 2.372 . S
Eu335 O374 2.462 . S
Eu335 O375 2.356 1_554 S
Eu335 O377 2.432 . S
Eu335 O378 2.291 . S
Eu335 C399 2.787 . S
N336 C332 1.351 . S
N336 Eu335 2.562 . S
N336 C338 1.325 . S
C337 C331 1.404 . S
C337 C339 1.366 . S
C337 H345 0.930 . S
C338 N336 1.325 . S
C338 C339 1.416 . S
C338 H344 0.929 . S
C339 C337 1.366 . S
C339 C338 1.416 . S
C339 H341 0.930 . S
H340 C329 0.930 . S
H341 C339 0.930 . S
H342 C357 0.930 . S
H343 C364 0.930 . S
H344 C338 0.929 . S
H345 C337 0.930 . S
H346 C360 0.929 . S
H347 C327 0.931 . S
H348 C333 0.931 . S
H349 C334 0.931 . S
H350 C355 0.931 . S
H351 C330 0.929 . S
H352 C363 0.930 . S
N353 Eu324 2.600 . S
N353 C354 1.365 1_556 S
N353 C357 1.319 . S
C354 N353 1.365 1_554 S
C354 C356 1.405 . S
C354 C362 1.448 . S
C355 H350 0.931 . S
C355 C357 1.397 . S
C355 C358 1.367 1_556 S
C356 C354 1.405 . S
C356 C358 1.403 . S
C356 C389 1.439 . S
C357 H342 0.930 . S
C357 N353 1.319 . S
C357 C355 1.397 . S
C358 C355 1.367 1_554 S
C358 C356 1.403 . S
C358 H365 0.929 . S
N359 Eu324 2.562 1_554 S
N359 C360 1.325 . S
N359 C362 1.351 . S
C360 H346 0.929 . S
C360 N359 1.325 . S
C360 C364 1.416 . S
C361 C362 1.430 . S
C361 C363 1.404 . S
C361 C390 1.387 . S
C362 C354 1.448 . S
C362 N359 1.351 . S
C362 C361 1.430 . S
C363 H352 0.930 . S
C363 C361 1.404 . S
C363 C364 1.366 . S
C364 H343 0.930 . S
C364 C360 1.416 . S
C364 C363 1.366 . S
H365 C358 0.929 . S
H366 C389 0.931 . S
H367 C390 0.931 . S
O368 Eu324 2.462 . S
O368 C388 1.252 . S
O369 Eu324 2.373 1_554 S
O369 C380 1.249 . S
O370 Eu335 2.335 . S
O370 C380 1.264 . S
O371 Eu324 2.432 . S
O371 C388 1.268 . S
O372 Eu324 2.291 1_554 S
O372 C387 1.255 . S
O373 Eu335 2.372 . S
O373 C387 1.257 . S
O374 Eu335 2.462 . S
O374 C399 1.252 . S
O375 Eu335 2.356 1_556 S
O375 C391 1.262 . S
O376 Eu324 2.335 . S
O376 C391 1.264 . S
O377 Eu335 2.432 . S
O377 C399 1.268 . S
O378 Eu335 2.291 . S
O378 C398 1.255 . S
O379 Eu324 2.370 1_554 S
O379 C398 1.260 . S
C380 O369 1.249 . S
C380 O370 1.264 . S
C381 C384 1.382 . S
C381 C386 1.390 . S
C381 C388 1.506 . S
C382 C383 1.398 . S
C382 C386 1.392 . S
C383 C382 1.398 . S
C383 C385 1.372 . S
C383 H400 0.931 . S
C384 C381 1.382 . S
C384 C385 1.390 . S
C384 H401 0.931 . S
C385 C383 1.372 . S
C385 C384 1.390 . S
C385 H402 0.929 . S
C386 C381 1.390 . S
C386 C382 1.392 . S
C386 H403 0.930 . S
C387 O372 1.255 . S
C387 O373 1.257 . S
C388 Eu324 2.787 . S
C388 O368 1.252 . S
C388 O371 1.268 . S
C388 C381 1.506 . S
C389 C356 1.439 . S
C389 H366 0.931 . S
C389 C390 1.374 . S
C390 C361 1.387 . S
C390 H367 0.931 . S
C390 C389 1.374 . S
C391 O375 1.262 . S
C391 O376 1.264 . S
C392 C395 1.382 . S
C392 C396 1.390 . S
C392 C399 1.506 . S
C393 C394 1.398 . S
C393 C396 1.392 . S
C394 C393 1.398 . S
C394 C397 1.372 . S
C394 H404 0.931 . S
C395 C392 1.382 . S
C395 C397 1.390 . S
C395 H405 0.931 . S
C396 C392 1.390 . S
C396 C393 1.392 . S
C396 H406 0.930 . S
C397 C394 1.372 . S
C397 C395 1.390 . S
C397 H407 0.929 . S
C398 O378 1.255 . S
C398 O379 1.260 . S
C399 Eu335 2.787 . S
C399 O374 1.252 . S
C399 O377 1.268 . S
C399 C392 1.506 . S
H400 C383 0.931 . S
H401 C384 0.931 . S
H402 C385 0.929 . S
H403 C386 0.930 . S
H404 C394 0.931 . S
H405 C395 0.931 . S
H406 C396 0.930 . S
H407 C397 0.929 . S
H408 C414 0.930 . S
H409 C417 0.930 . S
H410 C418 0.930 . S
H411 C419 0.930 . S
H412 C422 0.930 . S
H413 C423 0.930 . S
C414 H408 0.930 . S
C414 C415 1.355 . S
C414 C416 1.415 . S
C415 C414 1.355 . S
C415 C417 1.419 . S
C416 C414 1.415 . S
C416 C421 1.425 . S
C416 C423 1.409 . S
C417 H409 0.930 . S
C417 C415 1.419 . S
C417 C418 1.362 . S
C418 H410 0.930 . S
C418 C417 1.362 . S
C418 C421 1.409 . S
C419 H411 0.930 . S
C419 C420 1.355 . S
C419 C421 1.415 . S
C420 C419 1.355 . S
C420 C422 1.419 . S
C421 C416 1.425 . S
C421 C418 1.409 . S
C421 C419 1.415 . S
C422 H412 0.930 . S
C422 C420 1.419 . S
C422 C423 1.362 . S
C423 H413 0.930 . S
C423 C416 1.409 . S
C423 C422 1.362 . S
H424 C430 0.930 . S
H425 C433 0.930 . S
H426 C434 0.930 . S
H427 C435 0.930 . S
H428 C438 0.930 . S
H429 C439 0.930 . S
C430 H424 0.930 . S
C430 C431 1.355 . S
C430 C432 1.415 . S
C431 C430 1.355 . S
C431 C433 1.419 . S
C432 C430 1.415 . S
C432 C437 1.425 . S
C432 C439 1.409 . S
C433 H425 0.930 . S
C433 C431 1.419 . S
C433 C434 1.362 . S
C434 H426 0.930 . S
C434 C433 1.362 . S
C434 C437 1.409 . S
C435 H427 0.930 . S
C435 C436 1.355 . S
C435 C437 1.415 . S
C436 C435 1.355 . S
C436 C438 1.419 . S
C437 C432 1.425 . S
C437 C434 1.409 . S
C437 C435 1.415 . S
C438 H428 0.930 . S
C438 C436 1.419 . S
C438 C439 1.362 . S
C439 H429 0.930 . S
C439 C432 1.409 . S
C439 C438 1.362 . S
H440 C446 0.930 . S
H441 C449 0.930 . S
H442 C450 0.930 . S
H443 C451 0.930 . S
H444 C454 0.930 . S
H445 C455 0.930 . S
C446 H440 0.930 . S
C446 C447 1.355 . S
C446 C448 1.415 . S
C447 C446 1.355 . S
C447 C449 1.419 . S
C448 C446 1.415 . S
C448 C453 1.425 . S
C448 C455 1.409 . S
C449 H441 0.930 . S
C449 C447 1.419 . S
C449 C450 1.362 . S
C450 H442 0.930 . S
C450 C449 1.362 . S
C450 C453 1.409 . S
C451 H443 0.930 . S
C451 C452 1.355 . S
C451 C453 1.415 . S
C452 C451 1.355 . S
C452 C454 1.419 . S
C453 C448 1.425 . S
C453 C450 1.409 . S
C453 C451 1.415 . S
C454 H444 0.930 . S
C454 C452 1.419 . S
C454 C455 1.362 . S
C455 H445 0.930 . S
C455 C448 1.409 . S
C455 C454 1.362 . S
H456 C462 0.930 . S
H457 C465 0.930 . S
H458 C466 0.930 . S
H459 C467 0.930 . S
H460 C470 0.930 . S
H461 C471 0.930 1_556 S
C462 H456 0.930 . S
C462 C463 1.355 . S
C462 C464 1.415 . S
C463 C462 1.355 . S
C463 C465 1.419 . S
C464 C462 1.415 . S
C464 C469 1.425 . S
C464 C471 1.409 . S
C465 H457 0.930 . S
C465 C463 1.419 . S
C465 C466 1.362 . S
C466 H458 0.930 . S
C466 C465 1.362 . S
C466 C469 1.409 . S
C467 H459 0.930 . S
C467 C468 1.355 . S
C467 C469 1.415 . S
C468 C467 1.355 . S
C468 C470 1.419 . S
C469 C464 1.425 . S
C469 C466 1.409 . S
C469 C467 1.415 . S
C470 H460 0.930 . S
C470 C468 1.419 . S
C470 C471 1.362 . S
C471 H461 0.930 1_554 S
C471 C464 1.409 . S
C471 C470 1.362 . S
H472 C478 0.930 . S
H473 C481 0.930 . S
H474 C482 0.930 . S
H475 C483 0.930 . S
H476 C486 0.930 . S
H477 C487 0.930 . S
C478 H472 0.930 . S
C478 C479 1.355 . S
C478 C480 1.415 . S
C479 C478 1.355 . S
C479 C481 1.419 . S
C480 C478 1.415 . S
C480 C485 1.425 . S
C480 C487 1.409 . S
C481 H473 0.930 . S
C481 C479 1.419 . S
C481 C482 1.362 . S
C482 H474 0.930 . S
C482 C481 1.362 . S
C482 C485 1.409 . S
C483 H475 0.930 . S
C483 C484 1.355 . S
C483 C485 1.415 . S
C484 C483 1.355 . S
C484 C486 1.419 . S
C485 C480 1.425 . S
C485 C482 1.409 . S
C485 C483 1.415 . S
C486 H476 0.930 . S
C486 C484 1.419 . S
C486 C487 1.362 . S
C487 H477 0.930 . S
C487 C480 1.409 . S
C487 C486 1.362 . S
H488 C494 0.930 . S
H489 C497 0.930 . S
H490 C498 0.930 . S
H491 C499 0.930 . S
H492 C502 0.930 . S
H493 C503 0.930 . S
C494 H488 0.930 . S
C494 C495 1.355 . S
C494 C496 1.415 . S
C495 C494 1.355 . S
C495 C497 1.419 . S
C496 C494 1.415 . S
C496 C501 1.425 . S
C496 C503 1.409 . S
C497 H489 0.930 . S
C497 C495 1.419 . S
C497 C498 1.362 . S
C498 H490 0.930 . S
C498 C497 1.362 . S
C498 C501 1.409 . S
C499 H491 0.930 . S
C499 C500 1.355 . S
C499 C501 1.415 . S
C500 C499 1.355 . S
C500 C502 1.419 . S
C501 C496 1.425 . S
C501 C498 1.409 . S
C501 C499 1.415 . S
C502 H492 0.930 . S
C502 C500 1.419 . S
C502 C503 1.362 . S
C503 H493 0.930 . S
C503 C496 1.409 . S
C503 C502 1.362 . S
H504 C510 0.930 . S
H505 C513 0.930 . S
H506 C514 0.930 . S
H507 C515 0.930 . S
H508 C518 0.930 . S
H509 C519 0.930 . S
C510 H504 0.930 . S
C510 C511 1.355 . S
C510 C512 1.415 . S
C511 C510 1.355 . S
C511 C513 1.419 . S
C512 C510 1.415 . S
C512 C517 1.425 . S
C512 C519 1.409 . S
C513 H505 0.930 . S
C513 C511 1.419 . S
C513 C514 1.362 . S
C514 H506 0.930 . S
C514 C513 1.362 . S
C514 C517 1.409 . S
C515 H507 0.930 . S
C515 C516 1.355 . S
C515 C517 1.415 . S
C516 C515 1.355 . S
C516 C518 1.419 . S
C517 C512 1.425 . S
C517 C514 1.409 . S
C517 C515 1.415 . S
C518 H508 0.930 . S
C518 C516 1.419 . S
C518 C519 1.362 . S
C519 H509 0.930 . S
C519 C512 1.409 . S
C519 C518 1.362 . S
H520 C526 0.930 . S
H521 C529 0.930 . S
H522 C530 0.930 . S
H523 C531 0.930 . S
H524 C534 0.930 . S
H525 C535 0.930 . S
C526 H520 0.930 . S
C526 C527 1.355 . S
C526 C528 1.415 . S
C527 C526 1.355 . S
C527 C529 1.419 . S
C528 C526 1.415 . S
C528 C533 1.425 . S
C528 C535 1.409 . S
C529 H521 0.930 . S
C529 C527 1.419 . S
C529 C530 1.362 . S
C530 H522 0.930 . S
C530 C529 1.362 . S
C530 C533 1.409 . S
C531 H523 0.930 . S
C531 C532 1.355 . S
C531 C533 1.415 . S
C532 C531 1.355 . S
C532 C534 1.419 . S
C533 C528 1.425 . S
C533 C530 1.409 . S
C533 C531 1.415 . S
C534 H524 0.930 . S
C534 C532 1.419 . S
C534 C535 1.362 . S
C535 H525 0.930 . S
C535 C528 1.409 . S
C535 C534 1.362 . S
H536 C542 0.930 . S
H537 C545 0.930 . S
H538 C546 0.930 . S
H539 C547 0.930 . S
H540 C550 0.930 . S
H541 C551 0.930 . S
C542 H536 0.930 . S
C542 C543 1.355 . S
C542 C544 1.415 . S
C543 C542 1.355 . S
C543 C545 1.419 . S
C544 C542 1.415 . S
C544 C549 1.425 . S
C544 C551 1.409 . S
C545 H537 0.930 . S
C545 C543 1.419 . S
C545 C546 1.362 . S
C546 H538 0.930 . S
C546 C545 1.362 . S
C546 C549 1.409 . S
C547 H539 0.930 . S
C547 C548 1.355 . S
C547 C549 1.415 . S
C548 C547 1.355 . S
C548 C550 1.419 . S
C549 C544 1.425 . S
C549 C546 1.409 . S
C549 C547 1.415 . S
C550 H540 0.930 . S
C550 C548 1.419 . S
C550 C551 1.362 . S
C551 H541 0.930 . S
C551 C544 1.409 . S
C551 C550 1.362 . S
H552 C558 0.930 . S
H553 C561 0.930 . S
H554 C562 0.930 . S
H555 C563 0.930 . S
H556 C566 0.930 . S
H557 C567 0.930 . S
C558 H552 0.930 . S
C558 C559 1.355 . S
C558 C560 1.415 . S
C559 C558 1.355 . S
C559 C561 1.419 . S
C560 C558 1.415 . S
C560 C565 1.425 . S
C560 C567 1.409 . S
C561 H553 0.930 . S
C561 C559 1.419 . S
C561 C562 1.362 . S
C562 H554 0.930 . S
C562 C561 1.362 . S
C562 C565 1.409 . S
C563 H555 0.930 . S
C563 C564 1.355 . S
C563 C565 1.415 . S
C564 C563 1.355 . S
C564 C566 1.419 . S
C565 C560 1.425 . S
C565 C562 1.409 . S
C565 C563 1.415 . S
C566 H556 0.930 . S
C566 C564 1.419 . S
C566 C567 1.362 . S
C567 H557 0.930 . S
C567 C560 1.409 . S
C567 C566 1.362 . S
H568 C574 0.930 . S
H569 C577 0.930 . S
H570 C578 0.930 . S
H571 C579 0.930 . S
H572 C582 0.930 . S
H573 C583 0.930 . S
C574 H568 0.930 . S
C574 C575 1.355 . S
C574 C576 1.415 . S
C575 C574 1.355 . S
C575 C577 1.419 . S
C576 C574 1.415 . S
C576 C581 1.425 . S
C576 C583 1.409 . S
C577 H569 0.930 . S
C577 C575 1.419 . S
C577 C578 1.362 . S
C578 H570 0.930 . S
C578 C577 1.362 . S
C578 C581 1.409 . S
C579 H571 0.930 . S
C579 C580 1.355 . S
C579 C581 1.415 . S
C580 C579 1.355 . S
C580 C582 1.419 . S
C581 C576 1.425 . S
C581 C578 1.409 . S
C581 C579 1.415 . S
C582 H572 0.930 . S
C582 C580 1.419 . S
C582 C583 1.362 . S
C583 H573 0.930 . S
C583 C576 1.409 . S
C583 C582 1.362 . S
H584 C590 0.930 . S
H585 C593 0.930 . S
H586 C594 0.930 . S
H587 C595 0.930 . S
H588 C598 0.930 . S
H589 C599 0.930 . S
C590 H584 0.930 . S
C590 C591 1.355 . S
C590 C592 1.415 . S
C591 C590 1.355 . S
C591 C593 1.419 . S
C592 C590 1.415 . S
C592 C597 1.425 . S
C592 C599 1.409 . S
C593 H585 0.930 . S
C593 C591 1.419 . S
C593 C594 1.362 . S
C594 H586 0.930 . S
C594 C593 1.362 . S
C594 C597 1.409 . S
C595 H587 0.930 . S
C595 C596 1.355 . S
C595 C597 1.415 . S
C596 C595 1.355 . S
C596 C598 1.419 . S
C597 C592 1.425 . S
C597 C594 1.409 . S
C597 C595 1.415 . S
C598 H588 0.930 . S
C598 C596 1.419 . S
C598 C599 1.362 . S
C599 H589 0.930 . S
C599 C592 1.409 . S
C599 C598 1.362 . S
C420 C303 1.650 . S
C415 C211 1.642 . S
C431 C31 1.506 . S
C436 C398 1.628 . S
C447 C91 1.655 . S
C452 C314 1.640 . S
C463 C151 1.589 . S
C468 C387 1.623 . S
C484 C298 1.401 . S
C479 C20 1.515 . S
C500 C391 1.608 . S
C495 C61 1.533 . S
C511 C121 1.627 . S
C516 C307 1.635 . S
C527 C200 1.516 . S
C532 C382 1.358 . S
C548 C393 1.387 . S
C543 C80 1.473 . S
C564 C309 1.366 . S
C559 C140 1.545 . S
C580 C380 1.610 . S
C575 C181 1.490 . S
C591 C1 1.534 . S
C596 C296 1.633 . S
