# Generated by pormake.
# Topology anh, (6,3)-cn, num edge types: 1
# Building blocks:
#     Node 0, Type 0, BuildingBlock: BETGAK_clean_sbu_0, # of connection points: 6
#     Node 1, Type 0, BuildingBlock: BETGAK_clean_sbu_0, # of connection points: 6
#     Node 2, Type 0, BuildingBlock: BETGAK_clean_sbu_0, # of connection points: 6
#     Node 3, Type 1, BuildingBlock: KAKCAD_clean_linker_0, # of connection points: 3
#     Node 4, Type 1, BuildingBlock: KAKCAD_clean_linker_0, # of connection points: 3
#     Node 5, Type 1, BuildingBlock: KAKCAD_clean_linker_0, # of connection points: 3
#     Node 6, Type 1, BuildingBlock: KAKCAD_clean_linker_0, # of connection points: 3
#     Node 7, Type 1, BuildingBlock: KAKCAD_clean_linker_0, # of connection points: 3
#     Node 8, Type 1, BuildingBlock: KAKCAD_clean_linker_0, # of connection points: 3
#     Edge 9, Type (0, 1), BuildingBlock: TEMPAE_clean_linker_10, # of connection points: 2
#     Edge 10, Type (0, 1), BuildingBlock: TEMPAE_clean_linker_10, # of connection points: 2
#     Edge 11, Type (0, 1), BuildingBlock: TEMPAE_clean_linker_10, # of connection points: 2
#     Edge 12, Type (0, 1), BuildingBlock: TEMPAE_clean_linker_10, # of connection points: 2
#     Edge 13, Type (0, 1), BuildingBlock: TEMPAE_clean_linker_10, # of connection points: 2
#     Edge 14, Type (0, 1), BuildingBlock: TEMPAE_clean_linker_10, # of connection points: 2
#     Edge 15, Type (0, 1), BuildingBlock: TEMPAE_clean_linker_10, # of connection points: 2
#     Edge 16, Type (0, 1), BuildingBlock: TEMPAE_clean_linker_10, # of connection points: 2
#     Edge 17, Type (0, 1), BuildingBlock: TEMPAE_clean_linker_10, # of connection points: 2
#     Edge 18, Type (0, 1), BuildingBlock: TEMPAE_clean_linker_10, # of connection points: 2
#     Edge 19, Type (0, 1), BuildingBlock: TEMPAE_clean_linker_10, # of connection points: 2
#     Edge 20, Type (0, 1), BuildingBlock: TEMPAE_clean_linker_10, # of connection points: 2
#     Edge 21, Type (0, 1), BuildingBlock: TEMPAE_clean_linker_10, # of connection points: 2
#     Edge 22, Type (0, 1), BuildingBlock: TEMPAE_clean_linker_10, # of connection points: 2
#     Edge 23, Type (0, 1), BuildingBlock: TEMPAE_clean_linker_10, # of connection points: 2
#     Edge 24, Type (0, 1), BuildingBlock: TEMPAE_clean_linker_10, # of connection points: 2
#     Edge 25, Type (0, 1), BuildingBlock: TEMPAE_clean_linker_10, # of connection points: 2
#     Edge 26, Type (0, 1), BuildingBlock: TEMPAE_clean_linker_10, # of connection points: 2
# Relax obj value: 0.182
# Max RMSD: 0.206
# Mean RMSD: 0.155
data_MOF--net-anh--node1-BETGAK_clean_sbu_0--node2-KAKCAD_clean_linker_0--edge1-TEMPAE_clean_linker_10
_symmetry_space_group_name_H-M    P1
_symmetry_Int_Tables_number       1
_symmetry_cell_setting            triclinic
loop_
_symmetry_equiv_pos_as_xyz
'x, y, z'
_cell_length_a     36.911309
_cell_length_b     43.987339
_cell_length_c     67.388185
_cell_angle_alpha  92.790006
_cell_angle_beta   88.822708
_cell_angle_gamma 128.23626
loop_
_atom_site_label
_atom_site_type_symbol
_atom_site_fract_x
_atom_site_fract_y
_atom_site_fract_z
_atom_type_partial_charge
La0 La 0.16445 0.56645 0.15082 0.0
La1 La 0.10696 0.58946 0.16564 0.0
C2 C 0.21862 0.55691 0.13415 0.0
C3 C 0.22177 0.52519 0.13202 0.0
C4 C 0.18284 0.48679 0.12747 0.0
C5 C 0.187 0.45725 0.12566 0.0
C6 C 0.23004 0.46559 0.12852 0.0
C7 C 0.26861 0.504 0.13349 0.0
C8 C 0.2645 0.53348 0.13513 0.0
C9 C 0.15144 0.56385 0.18923 0.0
C10 C 0.20867 0.65598 0.15796 0.0
C11 C 1.04888 0.59095 0.18493 0.0
C12 C 0.99919 0.55997 0.18721 0.0
C13 C 0.97619 0.52737 0.174 0.0
C14 C 0.9295 0.49708 0.17625 0.0
C15 C 0.90447 0.49924 0.1914 0.0
C16 C 0.92727 0.53197 0.2046 0.0
C17 C 0.97462 0.562 0.20266 0.0
C18 C 0.11538 0.58851 0.12665 0.0
C19 C 1.06205 0.4993 0.15864 0.0
O20 O 0.18441 0.55209 0.12494 0.0
O21 O 0.22509 0.57202 0.15216 0.0
O22 O 0.15275 0.539 0.17887 0.0
O23 O 0.1592 0.58966 0.17831 0.0
O24 O 0.20842 0.62968 0.14725 0.0
O25 O 0.17345 0.64584 0.16929 0.0
O26 O 1.06189 0.60342 0.16696 0.0
O27 O 0.07558 0.58472 0.19294 0.0
O28 O 0.11156 0.61227 0.13668 0.0
O29 O 0.11096 0.56489 0.13825 0.0
O30 O 1.06072 0.52618 0.16737 0.0
O31 O 0.09857 0.50838 0.14867 0.0
H32 H 0.14931 0.47961 0.12522 0.0
H33 H 0.15672 0.42807 0.12166 0.0
H34 H 0.30207 0.51133 0.13618 0.0
H35 H 0.29479 0.56284 0.13889 0.0
H36 H 0.99403 0.52554 0.16166 0.0
H37 H 0.91249 0.47262 0.16559 0.0
H38 H 0.90839 0.53437 0.21624 0.0
H39 H 0.99187 0.58693 0.21301 0.0
La40 La 0.62811 0.03169 0.48178 0.0
La41 La 0.56495 0.05138 0.47532 0.0
C42 C 0.66622 1.00418 0.49396 0.0
C43 C 0.654 0.96611 0.49775 0.0
C44 C 0.68459 0.95876 0.49177 0.0
C45 C 0.675 0.92351 0.49554 0.0
C46 C 0.63462 0.89482 0.50552 0.0
C47 C 0.60343 0.90195 0.51116 0.0
C48 C 0.61301 0.93729 0.50729 0.0
C49 C 0.62338 0.04636 0.44498 0.0
C50 C 0.52014 0.96446 0.47419 0.0
C51 C 0.52858 0.08098 0.46421 0.0
C52 C 0.53626 0.11784 0.469 0.0
C53 C 0.50369 0.11743 0.48038 0.0
C54 C 0.51099 0.15191 0.48583 0.0
C55 C 0.55083 0.18776 0.4798 0.0
C56 C 0.58309 0.18809 0.46808 0.0
C57 C 0.57594 0.15355 0.46276 0.0
C58 C 0.57194 0.03867 0.51233 0.0
C59 C 0.674 0.11937 0.4819 0.0
O60 O 0.6654 0.01092 0.47537 0.0
O61 O 0.64888 0.0167 0.50575 0.0
O62 O 0.66018 0.05491 0.45326 0.0
O63 O 0.58999 0.02777 0.45673 0.0
O64 O 0.55879 0.97532 0.48271 0.0
O65 O 0.51735 0.99016 0.46664 0.0
O66 O 0.51262 0.05697 0.47861 0.0
O67 O 0.56079 0.0829 0.45429 0.0
O68 O 0.53477 0.03008 0.50453 0.0
O69 O 0.60404 0.0564 0.50004 0.0
O70 O 0.63324 0.10862 0.47624 0.0
O71 O 0.67961 0.0939 0.48711 0.0
H72 H 0.71621 0.98049 0.48425 0.0
H73 H 0.69932 0.91877 0.49061 0.0
H74 H 0.57216 0.88063 0.51898 0.0
H75 H 0.58868 0.9422 0.51195 0.0
H76 H 0.47276 0.09037 0.48536 0.0
H77 H 0.48573 0.15043 0.49514 0.0
H78 H 0.61384 0.21503 0.46292 0.0
H79 H 0.60169 0.15495 0.45388 0.0
La80 La 0.62577 0.56608 0.84772 0.0
La81 La 0.5608 0.47921 0.84777 0.0
C82 C 0.66797 0.63651 0.84096 0.0
C83 C 0.65717 0.66177 0.83476 0.0
C84 C 0.68738 0.70129 0.84033 0.0
C85 C 0.67849 0.72621 0.83459 0.0
C86 C 0.63916 0.71214 0.82306 0.0
C87 C 0.60852 0.67225 0.8177 0.0
C88 C 0.61745 0.64727 0.82351 0.0
C89 C 0.61172 0.53579 0.88238 0.0
C90 C 0.51602 0.52062 0.8497 0.0
C91 C 0.52225 0.40986 0.85557 0.0
C92 C 0.53164 0.38203 0.85102 0.0
C93 C 0.50141 0.34946 0.83834 0.0
C94 C 0.51007 0.32331 0.83332 0.0
C95 C 0.54899 0.3288 0.84104 0.0
C96 C 0.57903 0.36125 0.85395 0.0
C97 C 0.57048 0.38758 0.85888 0.0
C98 C 0.57432 0.50771 0.81253 0.0
C99 C 0.67162 0.52508 0.84634 0.0
O100 O 0.65351 0.62229 0.85853 0.0
O101 O 0.66163 0.61079 0.8277 0.0
O102 O 0.6512 0.56669 0.87697 0.0
O103 O 0.58206 0.52435 0.86902 0.0
O104 O 0.55686 0.55156 0.84379 0.0
O105 O 0.51103 0.48964 0.85521 0.0
O106 O 0.51066 0.41989 0.84043 0.0
O107 O 0.55092 0.4395 0.86773 0.0
O108 O 0.53684 0.47503 0.81779 0.0
O109 O 0.60437 0.52087 0.82603 0.0
O110 O 0.62923 0.49203 0.84822 0.0
O111 O 0.67871 0.55824 0.84426 0.0
H112 H 0.71801 0.71294 0.84914 0.0
H113 H 0.70235 0.75654 0.83932 0.0
H114 H 0.57808 0.66045 0.80873 0.0
H115 H 0.59354 0.61677 0.81912 0.0
H116 H 0.47121 0.34443 0.83208 0.0
H117 H 0.48658 0.29912 0.82307 0.0
H118 H 0.60902 0.36621 0.86038 0.0
H119 H 0.59444 0.41232 0.86878 0.0
C120 C 0.61433 0.10025 0.28838 0.0
C121 C 0.61987 0.07537 0.29775 0.0
C122 C 0.61841 0.10359 0.26773 0.0
C123 C 0.62734 0.08166 0.25603 0.0
C124 C 0.63344 0.05725 0.26532 0.0
C125 C 0.63023 0.05442 0.28591 0.0
C126 C 0.62847 0.08274 0.2341 0.0
C127 C 0.65875 0.11774 0.22457 0.0
C128 C 0.66166 0.11809 0.2037 0.0
C129 C 0.63227 0.08299 0.19235 0.0
C130 C 0.60115 0.04792 0.20183 0.0
C131 C 0.6 0.04808 0.22264 0.0
C132 C 0.569 0.0105 0.19055 0.0
C133 C 0.53248 1.00325 0.17941 0.0
C134 C 0.57044 0.97991 0.19352 0.0
C135 C 0.53484 0.94233 0.18634 0.0
C136 C 0.49641 0.93426 0.17637 0.0
C137 C 0.69782 0.15489 0.19416 0.0
C138 C 0.70272 0.18876 0.19893 0.0
C139 C 0.73045 0.15725 0.18174 0.0
C140 C 0.76844 0.19306 0.17501 0.0
C141 C 0.77399 0.22708 0.18022 0.0
C142 C 0.74018 0.22444 0.19185 0.0
C143 C 0.4964 0.96545 0.17244 0.0
H144 H 0.60586 0.11655 0.2969 0.0
H145 H 0.61328 0.12243 0.26084 0.0
H146 H 0.64088 0.04038 0.2566 0.0
H147 H 0.63611 0.03586 0.29253 0.0
H148 H 0.68164 0.14445 0.23345 0.0
H149 H 0.57617 0.02104 0.22998 0.0
H150 H 0.63395 0.08292 0.17627 0.0
H151 H 0.5304 0.02636 0.17718 0.0
H152 H 0.59832 0.98487 0.20209 0.0
H153 H 0.53675 0.91934 0.18921 0.0
H154 H 0.67807 0.18772 0.20851 0.0
H155 H 0.72773 0.13166 0.178 0.0
H156 H 0.46734 0.96044 0.16496 0.0
H157 H 0.74378 0.25024 0.19618 0.0
H158 H 0.79398 0.19432 0.16603 0.0
C159 C 0.57619 0.55438 0.65554 0.0
C160 C 0.60188 0.54585 0.66547 0.0
C161 C 0.57478 0.55335 0.63479 0.0
C162 C 0.59958 0.54431 0.62337 0.0
C163 C 0.6258 0.53631 0.6333 0.0
C164 C 0.6267 0.53683 0.65405 0.0
C165 C 0.59817 0.54329 0.60121 0.0
C166 C 0.59647 0.56979 0.59135 0.0
C167 C 0.59495 0.56906 0.57052 0.0
C168 C 0.59641 0.54198 0.55935 0.0
C169 C 0.59806 0.51505 0.5689 0.0
C170 C 0.59837 0.51577 0.58981 0.0
C171 C 0.59856 0.48552 0.55729 0.0
C172 C 0.57132 0.4666 0.53998 0.0
C173 C 0.62494 0.4748 0.56399 0.0
C174 C 0.6227 0.44495 0.55418 0.0
C175 C 0.59446 0.42533 0.53725 0.0
C176 C 0.59194 0.59698 0.56073 0.0
C177 C 0.56014 0.60262 0.56748 0.0
C178 C 0.62231 0.61971 0.54552 0.0
C179 C 0.62224 0.64872 0.53786 0.0
C180 C 0.59151 0.65535 0.54514 0.0
C181 C 0.55977 0.63129 0.55973 0.0
C182 C 0.56944 0.43693 0.53003 0.0
H183 H 0.55712 0.56198 0.66378 0.0
H184 H 0.5537 0.55918 0.62774 0.0
H185 H 0.64593 0.52981 0.62507 0.0
H186 H 0.64635 0.52952 0.6611 0.0
H187 H 0.59729 0.59174 0.59988 0.0
H188 H 0.5976 0.49412 0.59728 0.0
H189 H 0.59601 0.54182 0.54327 0.0
H190 H 0.55019 0.47377 0.53448 0.0
H191 H 0.64718 0.48931 0.57697 0.0
H192 H 0.64297 0.43708 0.55989 0.0
H193 H 0.53581 0.58507 0.57898 0.0
H194 H 0.64737 0.61612 0.54013 0.0
H195 H 0.54715 0.42212 0.51708 0.0
H196 H 0.53487 0.63488 0.56536 0.0
H197 H 0.64745 0.6669 0.52676 0.0
C198 C 0.14759 0.57038 0.96548 0.0
C199 C 0.10749 0.55689 0.97633 0.0
C200 C 0.1462 0.566 0.94472 0.0
C201 C 0.10433 0.54657 0.93406 0.0
C202 C 1.0641 0.53235 0.94496 0.0
C203 C 1.06583 0.53818 0.9656 0.0
C204 C 0.10244 0.54109 0.9118 0.0
C205 C 0.13446 0.53896 0.90159 0.0
C206 C 0.13352 0.53419 0.88074 0.0
C207 C 0.09728 0.5292 0.86985 0.0
C208 C 1.06383 0.53039 0.87996 0.0
C209 C 1.06819 0.53763 0.90067 0.0
C210 C 1.0227 0.52349 0.87022 0.0
C211 C 1.02733 0.54888 0.85653 0.0
C212 C 0.97848 0.49567 0.87798 0.0
C213 C 0.94089 0.4947 0.87326 0.0
C214 C 0.94578 0.5214 0.86049 0.0
C215 C 0.17185 0.5352 0.87151 0.0
C216 C 0.21798 0.56661 0.8765 0.0
C217 C 0.16353 0.50282 0.8611 0.0
C218 C 0.20011 0.50129 0.85674 0.0
C219 C 0.24604 0.53201 0.86278 0.0
C220 C 0.25427 0.56511 0.8722 0.0
C221 C 0.9893 0.5477 0.85164 0.0
H222 H 0.18039 0.58419 0.97289 0.0
H223 H 0.17835 0.57823 0.93715 0.0
H224 H 1.03074 0.51631 0.9377 0.0
H225 H 1.03412 0.52804 0.97301 0.0
H226 H 0.1604 0.54047 0.90988 0.0
H227 H 1.04431 0.54076 0.90809 0.0
H228 H 0.09517 0.52448 0.85386 0.0
H229 H 1.06089 0.57113 0.85053 0.0
H230 H 0.97351 0.47574 0.88863 0.0
H231 H 0.908 0.47347 0.8801 0.0
H232 H 0.22583 0.592 0.88458 0.0
H233 H 0.12849 0.47781 0.85732 0.0
H234 H 0.99462 0.56877 0.84174 0.0
H235 H 0.28892 0.58983 0.8767 0.0
H236 H 0.19201 0.47519 0.8495 0.0
C237 C 1.05889 0.52104 0.34625 0.0
C238 C 0.10185 0.54157 0.33677 0.0
C239 C 1.05625 0.51999 0.36698 0.0
C240 C 0.09646 0.53895 0.37877 0.0
C241 C 0.1393 0.55895 0.36923 0.0
C242 C 0.142 0.56064 0.34859 0.0
C243 C 0.09406 0.53846 0.40089 0.0
C244 C 1.05741 0.5056 0.4105 0.0
C245 C 1.05494 0.50504 0.43139 0.0
C246 C 0.09064 0.53792 0.4428 0.0
C247 C 0.12791 0.57072 0.43333 0.0
C248 C 0.12889 0.5709 0.41254 0.0
C249 C 0.16703 0.60544 0.44451 0.0
C250 C 0.16157 0.63066 0.45504 0.0
C251 C 0.2116 0.6169 0.44162 0.0
C252 C 0.25024 0.65378 0.44811 0.0
C253 C 0.24522 0.68029 0.45741 0.0
C254 C 1.01535 0.46937 0.44084 0.0
C255 C 0.97065 0.44874 0.43274 0.0
C256 C 1.0221 0.45398 0.45688 0.0
C257 C 0.9854 0.41784 0.46394 0.0
C258 C 0.94134 0.39637 0.45505 0.0
C259 C 0.93421 0.4127 0.43969 0.0
C260 C 0.20038 0.66783 0.46144 0.0
H261 H 1.02712 0.50551 0.33769 0.0
H262 H 1.02264 0.50467 0.37374 0.0
H263 H 0.17104 0.57331 0.37768 0.0
H264 H 0.17582 0.57735 0.34196 0.0
H265 H 1.03125 0.47984 0.40168 0.0
H266 H 0.15701 0.59689 0.40547 0.0
H267 H 0.08963 0.53798 0.45888 0.0
H268 H 0.12748 0.62257 0.45716 0.0
H269 H 0.21657 0.59791 0.43346 0.0
H270 H 0.28417 0.66204 0.44516 0.0
H271 H 0.96398 0.46012 0.42067 0.0
H272 H 1.05611 0.46901 0.46339 0.0
H273 H 0.19522 0.68754 0.46846 0.0
H274 H 0.90046 0.39727 0.43283 0.0
H275 H 0.99196 0.40595 0.47578 0.0
C276 C 0.57036 0.99151 0.66922 0.0
C277 C 0.60008 0.02679 0.65976 0.0
C278 C 0.57071 0.99052 0.68992 0.0
C279 C 0.60072 0.0248 0.70165 0.0
C280 C 0.63087 0.05998 0.69217 0.0
C281 C 0.6306 0.06096 0.67148 0.0
C282 C 0.60026 0.02406 0.72369 0.0
C283 C 0.59757 0.99501 0.73314 0.0
C284 C 0.59749 0.9943 0.75398 0.0
C285 C 0.60032 0.02337 0.76546 0.0
C286 C 0.6027 0.05264 0.75623 0.0
C287 C 0.60247 0.05249 0.73535 0.0
C288 C 0.6043 0.08302 0.76807 0.0
C289 C 0.57639 0.07366 0.78484 0.0
C290 C 0.63176 0.12135 0.76186 0.0
C291 C 0.62965 0.14905 0.77149 0.0
C292 C 0.60039 0.13932 0.78773 0.0
C293 C 0.59525 0.96334 0.76347 0.0
C294 C 0.5642 0.92466 0.7562 0.0
C295 C 0.62576 0.97237 0.77899 0.0
C296 C 0.6264 0.94358 0.78654 0.0
C297 C 0.59632 0.90506 0.77881 0.0
C298 C 0.56462 0.89589 0.76381 0.0
C299 C 0.57455 0.10156 0.79461 0.0
H300 H 0.54599 0.96475 0.66065 0.0
H301 H 0.5467 0.96302 0.69679 0.0
H302 H 0.65497 0.0868 0.70076 0.0
H303 H 0.65449 0.08852 0.66466 0.0
H304 H 0.59677 0.9734 0.72423 0.0
H305 H 0.60276 0.07407 0.72806 0.0
H306 H 0.60054 0.0231 0.78152 0.0
H307 H 0.55452 0.0444 0.78995 0.0
H308 H 0.65449 0.12987 0.7493 0.0
H309 H 0.65062 0.1781 0.76609 0.0
H310 H 0.53976 0.91669 0.74446 0.0
H311 H 0.65036 1.00197 0.78478 0.0
H312 H 0.5515 0.09316 0.80703 0.0
H313 H 0.54026 0.86643 0.7578 0.0
H314 H 0.6516 0.95181 0.79794 0.0
C315 C 0.50305 0.33708 0.9987 0.0
C316 C 0.5455 0.37458 0.99904 0.0
C317 C 0.48583 0.3164 0.01606 0.0
C318 C 0.511 0.33271 0.03401 0.0
C319 C 0.55483 0.36915 0.03397 0.0
C320 C 0.57182 0.38991 0.01669 0.0
C321 C 0.48943 0.31486 0.0532 0.0
C322 C 0.51503 0.31456 0.06816 0.0
C323 C 0.49815 0.3051 0.08761 0.0
C324 C 0.45519 0.2962 0.09199 0.0
C325 C 0.42901 0.29643 0.07719 0.0
C326 C 0.44571 0.30412 0.05764 0.0
C327 C 0.38821 0.29452 0.08262 0.0
C328 C 0.35954 0.27285 0.09859 0.0
C329 C 0.38033 0.31765 0.07294 0.0
C330 C 0.34593 0.31991 0.07928 0.0
C331 C 0.31906 0.29989 0.09578 0.0
C332 C 0.5282 0.3094 0.10368 0.0
C333 C 0.55532 0.29729 0.1003 0.0
C334 C 0.53324 0.3289 0.12185 0.0
C335 C 0.56655 0.33813 0.13579 0.0
C336 C 0.59566 0.32823 0.13181 0.0
C337 C 0.58875 0.30666 0.11421 0.0
C338 C 0.32568 0.27595 0.10528 0.0
H339 H 0.48197 0.32465 0.9853 0.0
H340 H 0.45202 0.28834 0.01566 0.0
H341 H 0.57483 0.38272 0.0476 0.0
H342 H 0.60482 0.41863 0.0173 0.0
H343 H 0.54929 0.32378 0.06488 0.0
H344 H 0.42616 0.30456 0.04605 0.0
H345 H 0.44341 0.29102 0.10719 0.0
H346 H 0.36397 0.25429 0.10626 0.0
H347 H 0.40226 0.33587 0.06106 0.0
H348 H 0.34225 0.33931 0.07199 0.0
H349 H 0.55173 0.28168 0.08659 0.0
H350 H 0.51338 0.33912 0.12484 0.0
H351 H 0.30539 0.26035 0.1181 0.0
H352 H 0.6104 0.2983 0.11087 0.0
H353 H 0.57147 0.35517 0.14911 0.0
C354 C 0.2019 0.39746 0.13249 0.0
C355 C 0.23535 0.43481 0.12569 0.0
C356 C 0.20698 0.36839 0.12967 0.0
C357 C 0.2465 0.37705 0.11993 0.0
C358 C 0.2804 0.41472 0.11313 0.0
C359 C 0.27424 0.44297 0.11598 0.0
C360 C 0.1701 0.32849 0.13701 0.0
C361 C 0.32318 0.42523 0.10267 0.0
C362 C 0.29736 0.325 0.12349 0.0
C363 C 0.28893 0.3086 0.10416 0.0
C364 C 0.27974 0.34442 0.12971 0.0
C365 C 0.25288 0.34705 0.11626 0.0
C366 C 0.23995 0.32662 0.09758 0.0
C367 C 0.25846 0.30783 0.09168 0.0
C368 C 0.29428 0.36573 0.14976 0.0
C369 C 0.21064 0.32803 0.08296 0.0
H370 H 0.17196 0.39104 0.14019 0.0
H371 H 0.29977 0.47146 0.1103 0.0
H372 H 0.1554 0.30677 0.12437 0.0
H373 H 0.18528 0.32052 0.1476 0.0
H374 H 0.14166 0.32655 0.14448 0.0
H375 H 0.34682 0.45616 0.09885 0.0
H376 H 0.34227 0.41947 0.11223 0.0
H377 H 0.31333 0.40703 0.08878 0.0
H378 H 0.32113 0.32576 0.13311 0.0
H379 H 0.25172 0.29484 0.07677 0.0
H380 H 0.26527 0.36306 0.15705 0.0
H381 H 0.32241 0.39699 0.14779 0.0
H382 H 0.30713 0.35484 0.15977 0.0
H383 H 0.18155 0.3248 0.09055 0.0
H384 H 0.19658 0.30506 0.07094 0.0
H385 H 0.23193 0.35659 0.07605 0.0
C386 C 0.75942 0.17289 0.48176 0.0
C387 C 0.71435 0.16108 0.48166 0.0
C388 C 0.7976 0.21179 0.47917 0.0
C389 C 0.7906 0.23962 0.47666 0.0
C390 C 0.74533 0.22817 0.47753 0.0
C391 C 0.70779 0.18905 0.4799 0.0
C392 C 0.84524 0.22272 0.47818 0.0
C393 C 0.73627 0.25691 0.47515 0.0
C394 C 0.89335 0.34726 0.48093 0.0
C395 C 0.90333 0.35626 0.46089 0.0
C396 C 0.85677 0.30943 0.48636 0.0
C397 C 0.82998 0.27987 0.47138 0.0
C398 C 0.84043 0.28874 0.45115 0.0
C399 C 0.87678 0.32676 0.44617 0.0
C400 C 0.84639 0.30119 0.50808 0.0
C401 C 0.81313 0.25805 0.4347 0.0
H402 H 0.76483 0.15149 0.48304 0.0
H403 H 0.67314 0.18031 0.47999 0.0
H404 H 0.85882 0.23129 0.46294 0.0
H405 H 0.86925 0.24802 0.48843 0.0
H406 H 0.84533 0.19849 0.48202 0.0
H407 H 0.69987 0.24428 0.4783 0.0
H408 H 0.7592 0.28284 0.48521 0.0
H409 H 0.74402 0.26679 0.45971 0.0
H410 H 0.9136 0.36999 0.49236 0.0
H411 H 0.8848 0.33338 0.43065 0.0
H412 H 0.84807 0.27784 0.51191 0.0
H413 H 0.8108 0.29074 0.51117 0.0
H414 H 0.87078 0.32719 0.51792 0.0
H415 H 0.81437 0.23379 0.4366 0.0
H416 H 0.8263 0.26951 0.41973 0.0
H417 H 0.7764 0.24596 0.43542 0.0
C418 C 0.6676 0.77611 0.81029 0.0
C419 C 0.63074 0.73923 0.81655 0.0
C420 C 0.6607 0.80241 0.80448 0.0
C421 C 0.61574 0.79161 0.80476 0.0
C422 C 0.57826 0.75436 0.81091 0.0
C423 C 0.5862 0.72864 0.81675 0.0
C424 C 0.70161 0.84179 0.79797 0.0
C425 C 0.52978 0.74171 0.81135 0.0
C426 C 0.60704 0.87356 0.80585 0.0
C427 C 0.59922 0.87488 0.78572 0.0
C428 C 0.61161 0.84615 0.81233 0.0
C429 C 0.60813 0.81928 0.79837 0.0
C430 C 0.59941 0.82 0.77811 0.0
C431 C 0.59525 0.84781 0.77203 0.0
C432 C 0.62095 0.84637 0.83406 0.0
C433 C 0.59548 0.79189 0.76274 0.0
H434 H 0.702 0.78435 0.80973 0.0
H435 H 0.55757 0.7004 0.82177 0.0
H436 H 0.69632 0.84568 0.78244 0.0
H437 H 0.70498 0.86485 0.8074 0.0
H438 H 0.73444 0.84593 0.79887 0.0
H439 H 0.50437 0.71174 0.81642 0.0
H440 H 0.5284 0.76168 0.82142 0.0
H441 H 0.51935 0.74313 0.79632 0.0
H442 H 0.60955 0.89396 0.81659 0.0
H443 H 0.58998 0.84892 0.75641 0.0
H444 H 0.65488 0.85273 0.83588 0.0
H445 H 0.59445 0.81738 0.83996 0.0
H446 H 0.62111 0.86824 0.84313 0.0
H447 H 0.62875 0.79677 0.76173 0.0
H448 H 0.58622 0.79489 0.74777 0.0
H449 H 0.56898 0.76168 0.7672 0.0
C450 C 0.82581 0.4802 0.18895 0.0
C451 C 0.85384 0.46932 0.19148 0.0
C452 C 0.77945 0.4526 0.18315 0.0
C453 C 0.76081 0.41324 0.18015 0.0
C454 C 0.78762 0.40161 0.18499 0.0
C455 C 0.83416 0.42995 0.19038 0.0
C456 C 0.75211 0.46626 0.17812 0.0
C457 C 0.76824 0.35969 0.18286 0.0
C458 C 0.63385 0.34517 0.16537 0.0
C459 C 0.63679 0.3449 0.14458 0.0
C460 C 0.67383 0.36536 0.17737 0.0
C461 C 0.71758 0.38647 0.16828 0.0
C462 C 0.7205 0.38491 0.14731 0.0
C463 C 0.68009 0.36397 0.13575 0.0
C464 C 0.66919 0.36543 0.19967 0.0
C465 C 0.76649 0.40713 0.13696 0.0
H466 H 0.84115 0.51069 0.18973 0.0
H467 H 0.85591 0.42163 0.19258 0.0
H468 H 0.74794 0.46463 0.16174 0.0
H469 H 0.71714 0.44737 0.18454 0.0
H470 H 0.76937 0.49662 0.18361 0.0
H471 H 0.79166 0.35488 0.18936 0.0
H472 H 0.73425 0.34106 0.19019 0.0
H473 H 0.76262 0.35026 0.16691 0.0
H474 H 0.60034 0.33019 0.17224 0.0
H475 H 0.68259 0.36429 0.11969 0.0
H476 H 0.67559 0.39262 0.20506 0.0
H477 H 0.69486 0.36419 0.207 0.0
H478 H 0.63407 0.34068 0.20434 0.0
H479 H 0.78628 0.43864 0.14043 0.0
H480 H 0.76264 0.40203 0.12056 0.0
H481 H 0.78721 0.39871 0.14237 0.0
C482 C 0.48244 0.89483 0.48022 0.0
C483 C 0.47975 0.92264 0.47274 0.0
C484 C 0.44463 0.85516 0.47884 0.0
C485 C 0.40299 0.8429 0.46977 0.0
C486 C 0.39988 0.87084 0.4624 0.0
C487 C 0.43823 0.9103 0.46396 0.0
C488 C 0.44947 0.82634 0.48684 0.0
C489 C 0.35616 0.85898 0.4526 0.0
C490 C 0.32121 0.74054 0.44693 0.0
C491 C 0.28644 0.72155 0.46123 0.0
C492 C 0.35953 0.77974 0.4497 0.0
C493 C 0.36333 0.80078 0.46717 0.0
C494 C 0.32865 0.78181 0.48177 0.0
C495 C 0.29059 0.74245 0.47861 0.0
C496 C 0.39558 0.79883 0.43371 0.0
C497 C 0.33154 0.80323 0.50062 0.0
H498 H 0.51426 0.90397 0.48707 0.0
H499 H 0.43566 0.93148 0.45819 0.0
H500 H 0.4221 0.80835 0.49782 0.0
H501 H 0.44496 0.80645 0.47458 0.0
H502 H 0.48361 0.84065 0.49407 0.0
H503 H 0.35878 0.8843 0.44822 0.0
H504 H 0.34823 0.8402 0.43913 0.0
H505 H 0.32668 0.84182 0.46281 0.0
H506 H 0.31795 0.72497 0.43325 0.0
H507 H 0.26411 0.72798 0.4898 0.0
H508 H 0.43011 0.81193 0.44009 0.0
H509 H 0.39718 0.82261 0.4276 0.0
H510 H 0.38833 0.77812 0.4213 0.0
H511 H 0.36441 0.81604 0.50862 0.0
H512 H 0.30243 0.78412 0.51075 0.0
H513 H 0.33142 0.82748 0.49695 0.0
C514 C 0.60347 0.31431 0.83156 0.0
C515 C 0.55832 0.30102 0.8353 0.0
C516 C 0.61227 0.28859 0.82507 0.0
C517 C 0.57503 0.24864 0.822 0.0
C518 C 0.52955 0.23492 0.82616 0.0
C519 C 0.52181 0.26117 0.83288 0.0
C520 C 0.66132 0.30435 0.82096 0.0
C521 C 0.48883 0.19259 0.823 0.0
C522 C 0.58875 0.18918 0.78443 0.0
C523 C 0.59514 0.16796 0.79671 0.0
C524 C 0.58253 0.21568 0.79248 0.0
C525 C 0.58317 0.22147 0.81337 0.0
C526 C 0.59021 0.20052 0.82587 0.0
C527 C 0.59577 0.17377 0.81739 0.0
C528 C 0.57446 0.23697 0.77861 0.0
C529 C 0.59172 0.20627 0.84819 0.0
H530 H 0.63193 0.34503 0.83316 0.0
H531 H 0.48692 0.25041 0.83612 0.0
H532 H 0.66963 0.28777 0.82886 0.0
H533 H 0.66534 0.30091 0.80484 0.0
H534 H 0.68667 0.33551 0.8256 0.0
H535 H 0.45581 0.18636 0.82755 0.0
H536 H 0.48602 0.18362 0.80707 0.0
H537 H 0.49387 0.17453 0.83155 0.0
H538 H 0.58759 0.18441 0.76844 0.0
H539 H 0.60105 0.15765 0.82694 0.0
H540 H 0.60092 0.26871 0.78129 0.0
H541 H 0.54034 0.22984 0.78157 0.0
H542 H 0.57554 0.22954 0.76273 0.0
H543 H 0.61861 0.23728 0.85259 0.0
H544 H 0.59908 0.18876 0.85581 0.0
H545 H 0.55824 0.19812 0.85351 0.0
C546 C 0.58163 0.82246 0.50888 0.0
C547 C 0.62605 0.8582 0.51048 0.0
C548 C 0.57346 0.78795 0.51372 0.0
C549 C 0.6106 0.78917 0.52025 0.0
C550 C 0.65551 0.82507 0.52174 0.0
C551 C 0.66262 0.85907 0.51694 0.0
C552 C 0.52505 0.75024 0.51202 0.0
C553 C 0.69607 0.82768 0.52866 0.0
C554 C 0.5892 0.71071 0.55211 0.0
C555 C 0.59399 0.68837 0.53837 0.0
C556 C 0.59313 0.74282 0.54627 0.0
C557 C 0.60256 0.75325 0.52621 0.0
C558 C 0.60678 0.73059 0.51218 0.0
C559 C 0.60236 0.6984 0.51841 0.0
C560 C 0.58837 0.76618 0.56171 0.0
C561 C 0.61693 0.74086 0.49066 0.0
H562 H 0.55325 0.82139 0.50368 0.0
H563 H 0.69691 0.88656 0.51859 0.0
H564 H 0.52437 0.72923 0.50189 0.0
H565 H 0.51345 0.7373 0.52677 0.0
H566 H 0.5001 0.75407 0.50636 0.0
H567 H 0.72907 0.8576 0.52832 0.0
H568 H 0.69038 0.81789 0.54407 0.0
H569 H 0.69938 0.80822 0.51915 0.0
H570 H 0.58355 0.70372 0.56763 0.0
H571 H 0.60551 0.68107 0.50763 0.0
H572 H 0.56218 0.7691 0.55682 0.0
H573 H 0.62161 0.79583 0.5635 0.0
H574 H 0.57826 0.75288 0.57642 0.0
H575 H 0.59087 0.74279 0.48443 0.0
H576 H 0.61716 0.71934 0.48144 0.0
H577 H 0.65107 0.76972 0.48951 0.0
C578 C 0.75761 0.55944 0.8493 0.0
C579 C 0.71226 0.52477 0.84692 0.0
C580 C 0.79584 0.55947 0.85086 0.0
C581 C 0.78926 0.524 0.84976 0.0
C582 C 0.74363 0.48893 0.84699 0.0
C583 C 0.70595 0.48971 0.84577 0.0
C584 C 0.84336 0.5976 0.85415 0.0
C585 C 0.73444 0.45034 0.84547 0.0
C586 C 0.89439 0.52675 0.83861 0.0
C587 C 0.90617 0.52266 0.85747 0.0
C588 C 0.85645 0.52685 0.83583 0.0
C589 C 0.82972 0.52354 0.85232 0.0
C590 C 0.84197 0.52003 0.87142 0.0
C591 C 0.87949 0.51939 0.87372 0.0
C592 C 0.84463 0.53008 0.81514 0.0
C593 C 0.81551 0.51717 0.88957 0.0
H594 H 0.76328 0.58676 0.85037 0.0
H595 H 0.67135 0.46264 0.8439 0.0
H596 H 0.85784 0.59798 0.86851 0.0
H597 H 0.86686 0.60114 0.8423 0.0
H598 H 0.8431 0.62273 0.85431 0.0
H599 H 0.69754 0.42584 0.8423 0.0
H600 H 0.75567 0.4504 0.83355 0.0
H601 H 0.74457 0.44532 0.85959 0.0
H602 H 0.9143 0.52907 0.82589 0.0
H603 H 0.8884 0.51685 0.88844 0.0
H604 H 0.84647 0.55616 0.81453 0.0
H605 H 0.80869 0.50456 0.81123 0.0
H606 H 0.86814 0.53193 0.80381 0.0
H607 H 0.81641 0.54287 0.89111 0.0
H608 H 0.82963 0.51523 0.90343 0.0
H609 H 0.77879 0.49125 0.88792 0.0
C610 C 0.24926 0.72612 0.16739 0.0
C611 C 0.25013 0.69741 0.15796 0.0
C612 C 0.28903 0.76506 0.16875 0.0
C613 C 0.33093 0.77565 0.16064 0.0
C614 C 0.33176 0.74704 0.1506 0.0
C615 C 0.29135 0.70832 0.14931 0.0
C616 C 0.28649 0.79469 0.17941 0.0
C617 C 0.37576 0.75705 0.14186 0.0
C618 C 0.42895 0.88304 0.15416 0.0
C619 C 0.45515 0.89329 0.1716 0.0
C620 C 0.38875 0.84481 0.15023 0.0
C621 C 0.37446 0.81603 0.16399 0.0
C622 C 0.40112 0.82604 0.18143 0.0
C623 C 0.44079 0.86443 0.18506 0.0
C624 C 0.36117 0.83532 0.13151 0.0
C625 C 0.38725 0.7963 0.19649 0.0
H626 H 0.21757 0.71812 0.17399 0.0
H627 H 0.29247 0.68643 0.142 0.0
H628 H 0.30804 0.80606 0.19314 0.0
H629 H 0.30046 0.81961 0.16993 0.0
H630 H 0.25066 0.78239 0.18356 0.0
H631 H 0.37 0.73213 0.1333 0.0
H632 H 0.39141 0.7816 0.13192 0.0
H633 H 0.4011 0.76643 0.15396 0.0
H634 H 0.43985 0.9049 0.14356 0.0
H635 H 0.45996 0.872 0.1988 0.0
H636 H 0.32598 0.82506 0.1354 0.0
H637 H 0.35729 0.81148 0.1227 0.0
H638 H 0.37745 0.86069 0.12207 0.0
H639 H 0.35335 0.7852 0.20285 0.0
H640 H 0.41281 0.80833 0.20884 0.0
H641 H 0.38333 0.77124 0.18919 0.0
C642 C 0.60331 0.25797 0.49164 0.0
C643 C 0.55892 0.22454 0.48617 0.0
C644 C 0.61084 0.29207 0.49875 0.0
C645 C 0.57302 0.29268 0.50072 0.0
C646 C 0.52834 0.25938 0.49482 0.0
C647 C 0.52191 0.2259 0.48748 0.0
C648 C 0.65911 0.32711 0.50468 0.0
C649 C 0.48703 0.25873 0.49679 0.0
C650 C 0.58182 0.36279 0.53947 0.0
C651 C 0.58977 0.39182 0.52774 0.0
C652 C 0.57645 0.3305 0.53085 0.0
C653 C 0.57964 0.32732 0.50998 0.0
C654 C 0.58816 0.35676 0.49806 0.0
C655 C 0.59275 0.38853 0.50707 0.0
C656 C 0.5667 0.29949 0.54408 0.0
C657 C 0.59244 0.35468 0.4758 0.0
H658 H 0.63212 0.25724 0.49093 0.0
H659 H 0.48764 0.20059 0.4829 0.0
H660 H 0.66815 0.35304 0.49738 0.0
H661 H 0.66095 0.33311 0.52096 0.0
H662 H 0.68526 0.32303 0.50071 0.0
H663 H 0.45483 0.23098 0.49095 0.0
H664 H 0.48202 0.26315 0.51265 0.0
H665 H 0.49293 0.28279 0.4887 0.0
H666 H 0.5789 0.36497 0.55543 0.0
H667 H 0.59925 0.41108 0.49798 0.0
H668 H 0.5937 0.29578 0.5422 0.0
H669 H 0.53322 0.27134 0.53974 0.0
H670 H 0.5654 0.30639 0.56003 0.0
H671 H 0.62012 0.35237 0.47211 0.0
H672 H 0.60035 0.38042 0.4687 0.0
H673 H 0.55985 0.32834 0.46926 0.0
C674 C 0.47944 0.5531 0.84406 0.0
C675 C 0.47564 0.52139 0.85074 0.0
C676 C 0.44216 0.55455 0.84526 0.0
C677 C 0.39948 0.52366 0.85345 0.0
C678 C 0.39535 0.49148 0.8601 0.0
C679 C 0.43312 0.49069 0.85863 0.0
C680 C 0.44868 0.58947 0.83787 0.0
C681 C 0.35102 0.45793 0.86906 0.0
C682 C 0.31903 0.54446 0.87514 0.0
C683 C 0.285 0.52936 0.86019 0.0
C684 C 0.35598 0.54275 0.87313 0.0
C685 C 0.35985 0.52557 0.85568 0.0
C686 C 0.32563 0.51014 0.84054 0.0
C687 C 0.28876 0.51202 0.84299 0.0
C688 C 0.39092 0.55928 0.88983 0.0
C689 C 0.32812 0.49178 0.8216 0.0
H690 H 0.51179 0.57706 0.83789 0.0
H691 H 0.42935 0.46599 0.86389 0.0
H692 H 0.42198 0.58022 0.82647 0.0
H693 H 0.4443 0.60439 0.8503 0.0
H694 H 0.48327 0.61054 0.83134 0.0
H695 H 0.35272 0.43468 0.87317 0.0
H696 H 0.34315 0.46826 0.88256 0.0
H697 H 0.32196 0.44538 0.85841 0.0
H698 H 0.31649 0.55726 0.8887 0.0
H699 H 0.26325 0.50046 0.83122 0.0
H700 H 0.4259 0.58236 0.88432 0.0
H701 H 0.39169 0.53635 0.89539 0.0
H702 H 0.38328 0.57164 0.90246 0.0
H703 H 0.36114 0.51309 0.81403 0.0
H704 H 0.29917 0.48117 0.81119 0.0
H705 H 0.32751 0.46707 0.82508 0.0
C706 C 0.99295 0.4482 0.17735 0.0
C707 C 1.02115 0.45832 0.16068 0.0
C708 C 0.95304 0.41003 0.1796 0.0
C709 C 0.94034 0.38118 0.16465 0.0
C710 C 0.96853 0.39124 0.1477 0.0
C711 C 1.00903 0.42965 0.14604 0.0
C712 C 0.92495 0.40053 0.19821 0.0
C713 C 0.95547 0.36157 0.13118 0.0
C714 C 0.8599 0.27649 0.17988 0.0
C715 C 0.81652 0.26554 0.17479 0.0
C716 C 0.90052 0.31378 0.17635 0.0
C717 C 0.89782 0.34051 0.16702 0.0
C718 C 0.85413 0.32912 0.16121 0.0
C719 C 0.81393 0.29196 0.16546 0.0
C720 C 0.94616 0.32506 0.18332 0.0
C721 C 0.8498 0.35649 0.15093 0.0
H722 H 1.00241 0.47018 0.18883 0.0
H723 H 1.0305 0.43745 0.13306 0.0
H724 H 0.88818 0.38527 0.19438 0.0
H725 H 0.92656 0.38071 0.20701 0.0
H726 H 0.93754 0.4268 0.20768 0.0
H727 H 0.98044 0.37415 0.11879 0.0
H728 H 0.95359 0.33747 0.13699 0.0
H729 H 0.92072 0.34893 0.12523 0.0
H730 H 0.86192 0.25627 0.18733 0.0
H731 H 0.78041 0.28352 0.16148 0.0
H732 H 0.96165 0.34909 0.19478 0.0
H733 H 0.97064 0.33575 0.17081 0.0
H734 H 0.94255 0.30053 0.18973 0.0
H735 H 0.85934 0.3807 0.16142 0.0
H736 H 0.8142 0.34183 0.1453 0.0
H737 H 0.8739 0.36933 0.13827 0.0
C738 C 0.11921 0.55797 0.09525 0.0
C739 C 0.11461 0.58446 0.1047 0.0
C740 C 0.11998 0.55463 0.07445 0.0
C741 C 0.11296 0.57654 0.06278 0.0
C742 C 0.1065 0.60231 0.07227 0.0
C743 C 0.10843 0.60659 0.09312 0.0
C744 C 0.1286 0.52781 0.065 0.0
C745 C 0.09662 0.62476 0.06042 0.0
C746 C 0.14956 0.59303 0.00866 0.0
C747 C 0.10896 0.56214 0.9986 0.0
C748 C 0.15162 0.59756 0.0295 0.0
C749 C 0.11151 0.5719 0.04067 0.0
C750 C 1.0701 0.54141 0.03074 0.0
C751 C 1.06967 0.53625 0.00998 0.0
C752 C 0.19696 0.6296 0.03957 0.0
C753 C 1.02606 0.51417 0.04202 0.0
H754 H 0.12225 0.53979 0.10408 0.0
H755 H 0.1041 0.62669 0.10037 0.0
H756 H 0.09725 0.50324 0.05686 0.0
H757 H 0.15677 0.5434 0.05404 0.0
H758 H 0.13809 0.51595 0.07616 0.0
H759 H 0.09037 0.64225 0.07008 0.0
H760 H 0.12598 0.64446 0.05059 0.0
H761 H 1.06583 0.60448 0.05073 0.0
H762 H 0.18003 0.61404 0.00035 0.0
H763 H 1.03829 0.51154 0.00282 0.0
H764 H 0.2059 0.61738 0.05073 0.0
H765 H 0.19398 0.65053 0.04762 0.0
H766 H 0.22568 0.64555 0.02886 0.0
H767 H 1.02955 0.4962 0.0515 0.0
H768 H 0.99578 0.49454 0.03195 0.0
H769 H 1.01921 0.53091 0.05198 0.0
C770 C 0.57967 0.04304 0.41586 0.0
C771 C 0.62004 0.05172 0.42382 0.0
C772 C 0.57668 0.0479 0.39564 0.0
C773 C 0.61449 0.06064 0.38306 0.0
C774 C 0.65526 0.06936 0.3911 0.0
C775 C 0.6577 0.06523 0.41142 0.0
C776 C 0.53304 0.03917 0.3877 0.0
C777 C 0.69602 0.08226 0.37817 0.0
C778 C 0.59587 0.03511 0.32769 0.0
C779 C 0.61499 0.07107 0.31971 0.0
C780 C 0.59437 0.03109 0.34828 0.0
C781 C 0.61125 0.06357 0.36134 0.0
C782 C 0.62839 0.09947 0.35349 0.0
C783 C 0.63054 0.10292 0.33279 0.0
C784 C 0.57637 0.9924 0.35602 0.0
C785 C 0.64587 0.13459 0.36695 0.0
H786 H 0.55045 0.03247 0.42542 0.0
H787 H 0.68895 0.07188 0.41752 0.0
H788 H 0.54135 0.06432 0.3798 0.0
H789 H 0.5161 0.0142 0.37677 0.0
H790 H 0.50816 0.03227 0.39967 0.0
H791 H 0.72512 0.08781 0.38674 0.0
H792 H 0.68539 0.05972 0.36629 0.0
H793 H 0.70851 0.10912 0.37079 0.0
H794 H 0.58247 0.00998 0.31782 0.0
H795 H 0.6457 0.13093 0.3269 0.0
H796 H 0.54847 0.98269 0.36684 0.0
H797 H 0.60448 0.99532 0.36398 0.0
H798 H 0.56284 0.96962 0.34394 0.0
H799 H 0.62034 0.12714 0.37867 0.0
H800 H 0.65302 0.15898 0.35867 0.0
H801 H 0.67816 0.14451 0.37451 0.0
C802 C 0.57521 0.48914 0.77737 0.0
C803 C 0.58488 0.51757 0.7916 0.0
C804 C 0.58166 0.49666 0.7571 0.0
C805 C 0.59706 0.53323 0.75094 0.0
C806 C 0.60741 0.56225 0.76536 0.0
C807 C 0.60147 0.55409 0.78561 0.0
C808 C 0.57094 0.46513 0.74226 0.0
C809 C 0.62302 0.6013 0.75938 0.0
C810 C 0.64161 0.55784 0.69818 0.0
C811 C 0.60177 0.54526 0.6876 0.0
C812 C 0.64101 0.5551 0.71889 0.0
C813 C 0.5998 0.54 0.72934 0.0
C814 C 0.55999 0.52862 0.7189 0.0
C815 C 0.56132 0.53103 0.69818 0.0
C816 C 0.68405 0.5672 0.72948 0.0
C817 C 0.51545 0.51269 0.72953 0.0
H818 H 0.56232 0.46086 0.78212 0.0
H819 H 0.60788 0.57567 0.79666 0.0
H820 H 0.5413 0.4559 0.7327 0.0
H821 H 0.60084 0.47625 0.73241 0.0
H822 H 0.56233 0.43933 0.74958 0.0
H823 H 0.63206 0.62135 0.77243 0.0
H824 H 0.65343 0.61485 0.74959 0.0
H825 H 0.59513 0.59759 0.75076 0.0
H826 H 0.67332 0.56962 0.69026 0.0
H827 H 0.53011 0.52067 0.69022 0.0
H828 H 0.67759 0.54162 0.73605 0.0
H829 H 0.69323 0.58846 0.74188 0.0
H830 H 0.71395 0.58023 0.71938 0.0
H831 H 0.50139 0.48437 0.73563 0.0
H832 H 0.48895 0.5085 0.71956 0.0
H833 H 0.52177 0.5325 0.74224 0.0
C834 C 0.62121 0.0526 0.5417 0.0
C835 C 0.5774 0.03465 0.53344 0.0
C836 C 0.62669 0.0505 0.56204 0.0
C837 C 0.58738 0.03002 0.57432 0.0
C838 C 0.54297 0.01107 0.5659 0.0
C839 C 0.53854 0.01367 0.54555 0.0
C840 C 0.67458 0.07104 0.57047 0.0
C841 C 0.50019 0.98881 0.57846 0.0
C842 C 0.59387 0.99959 0.62518 0.0
C843 C 0.59841 0.02816 0.63779 0.0
C844 C 0.59099 1.00013 0.60445 0.0
C845 C 0.59268 0.02994 0.59615 0.0
C846 C 0.59785 0.05911 0.60878 0.0
C847 C 0.60057 0.05783 0.62941 0.0
C848 C 0.58558 0.96857 0.59146 0.0
C849 C 0.59967 0.09133 0.6005 0.0
H850 H 0.65132 0.06897 0.53236 0.0
H851 H 0.5046 0.99961 0.53915 0.0
H852 H 0.68313 0.09465 0.58119 0.0
H853 H 0.67616 0.05066 0.57872 0.0
H854 H 0.70122 0.08371 0.55874 0.0
H855 H 0.46809 0.97422 0.56947 0.0
H856 H 0.49841 0.96658 0.58659 0.0
H857 H 0.50165 0.00878 0.58974 0.0
H858 H 0.59277 0.97686 0.63152 0.0
H859 H 0.60338 0.07968 0.63904 0.0
H860 H 0.61355 0.98149 0.58036 0.0
H861 H 0.55242 0.95193 0.58309 0.0
H862 H 0.58628 0.94815 0.60018 0.0
H863 H 0.62771 0.10693 0.5895 0.0
H864 H 0.60548 0.11256 0.61227 0.0
H865 H 0.56681 0.07899 0.59262 0.0
C866 C 0.55974 0.48569 0.90651 0.0
C867 C 0.60442 0.51321 0.89954 0.0
C868 C 0.55178 0.46307 0.92248 0.0
C869 C 0.58941 0.46778 0.93148 0.0
C870 C 0.63462 0.49531 0.92431 0.0
C871 C 0.64165 0.51804 0.90851 0.0
C872 C 0.50315 0.43439 0.92985 0.0
C873 C 0.67546 0.50067 0.9333 0.0
C874 C 0.57308 0.43656 0.98448 0.0
C875 C 0.56002 0.39916 0.98171 0.0
C876 C 0.58354 0.45944 0.96827 0.0
C877 C 0.58142 0.44474 0.94881 0.0
C878 C 0.56952 0.4074 0.94593 0.0
C879 C 0.55851 0.38485 0.96244 0.0
C880 C 0.59533 0.49883 0.97193 0.0
C881 C 0.56764 0.39105 0.9254 0.0
H882 H 0.53098 0.482 0.8995 0.0
H883 H 0.67617 0.53907 0.90293 0.0
H884 H 0.49293 0.40475 0.9289 0.0
H885 H 0.50136 0.44141 0.94571 0.0
H886 H 0.47777 0.43431 0.92121 0.0
H887 H 0.70805 0.5221 0.92545 0.0
H888 H 0.67977 0.51059 0.94914 0.0
H889 H 0.66944 0.47261 0.93285 0.0
H890 H 0.57357 0.44746 0.99933 0.0
H891 H 0.54861 0.356 0.9603 0.0
H892 H 0.56905 0.49939 0.96466 0.0
H893 H 0.62909 0.52144 0.96526 0.0
H894 H 0.5969 0.5065 0.98801 0.0
H895 H 0.54019 0.3873 0.91639 0.0
H896 H 0.56063 0.36263 0.9258 0.0
H897 H 0.60074 0.41154 0.9177 0.0
C898 C 0.15638 0.59323 0.22257 0.0
C899 C 0.1387 0.56021 0.21026 0.0
C900 C 0.14761 0.59006 0.24303 0.0
C901 C 0.11931 0.5529 0.25111 0.0
C902 C 0.09918 0.51937 0.23842 0.0
C903 C 0.10982 0.52349 0.21816 0.0
C904 C 0.17043 0.6265 0.25613 0.0
C905 C 1.06751 0.47921 0.24631 0.0
C906 C 0.13932 0.54386 0.30473 0.0
C907 C 0.10513 0.54331 0.31468 0.0
C908 C 0.14449 0.54737 0.28411 0.0
C909 C 0.11385 0.5492 0.27298 0.0
C910 C 0.07839 0.54753 0.28275 0.0
C911 C 0.07481 0.54511 0.30351 0.0
C912 C 0.18308 0.54945 0.27427 0.0
C913 C 1.04436 0.54842 0.27128 0.0
H914 H 0.17864 0.62159 0.21633 0.0
H915 H 0.09555 0.49794 0.20848 0.0
H916 H 0.14436 0.6254 0.26528 0.0
H917 H 0.19507 0.62879 0.2665 0.0
H918 H 0.18945 0.65301 0.2474 0.0
H919 H 1.05011 0.45634 0.23417 0.0
H920 H 0.08761 0.47414 0.25561 0.0
H921 H 1.04078 0.47629 0.25588 0.0
H922 H 0.1622 0.54145 0.31303 0.0
H923 H 1.04862 0.54522 0.31097 0.0
H924 H 0.2052 0.57628 0.26588 0.0
H925 H 0.1686 0.52457 0.26344 0.0
H926 H 0.20506 0.54917 0.28515 0.0
H927 H 1.06268 0.57634 0.2639 0.0
H928 H 1.01731 0.5448 0.28095 0.0
H929 H 1.02741 0.52507 0.25941 0.0
loop_
_geom_bond_atom_site_label_1
_geom_bond_atom_site_label_2
_geom_bond_distance
_geom_bond_site_symmetry_2
_ccdc_geom_bond_type
La0 C2 2.928 . S
La0 O20 2.521 . S
La0 O21 2.628 . S
La0 O22 2.554 . S
La0 O23 2.757 . S
La0 O24 2.470 . S
La0 O29 2.482 . S
La0 O31 2.503 1_455 S
La1 C11 2.928 . S
La1 O23 2.482 1_655 S
La1 O25 2.503 1_655 S
La1 O26 2.521 . S
La1 O27 2.628 . S
La1 O28 2.553 . S
La1 O29 2.757 1_655 S
La1 O30 2.470 . S
C2 La0 2.928 . S
C2 C3 1.503 . S
C2 O20 1.261 . S
C2 O21 1.243 . S
C3 C2 1.503 . S
C3 C4 1.394 . S
C3 C8 1.373 . S
C4 C3 1.394 . S
C4 C5 1.380 . S
C4 H32 0.930 . S
C5 C4 1.380 . S
C5 C6 1.376 . S
C5 H33 0.930 . S
C6 C5 1.376 . S
C6 C7 1.370 . S
C7 C6 1.370 . S
C7 C8 1.396 . S
C7 H34 0.929 . S
C8 C3 1.373 . S
C8 C7 1.396 . S
C8 H35 0.929 . S
C9 O22 1.240 . S
C9 O23 1.289 . S
C10 O24 1.258 . S
C10 O25 1.256 . S
C11 La1 2.928 . S
C11 C12 1.503 . S
C11 O26 1.261 . S
C11 O27 1.243 . S
C12 C11 1.503 . S
C12 C13 1.394 . S
C12 C17 1.373 . S
C13 C12 1.394 . S
C13 C14 1.380 . S
C13 H36 0.930 . S
C14 C13 1.380 . S
C14 C15 1.376 . S
C14 H37 0.930 . S
C15 C14 1.376 . S
C15 C16 1.370 . S
C16 C15 1.370 . S
C16 C17 1.396 . S
C16 H38 0.929 . S
C17 C12 1.373 . S
C17 C16 1.396 . S
C17 H39 0.929 . S
C18 O28 1.243 1_455 S
C18 O29 1.289 . S
C19 O30 1.258 . S
C19 O31 1.256 . S
O20 La0 2.521 . S
O20 C2 1.261 . S
O21 La0 2.628 . S
O21 C2 1.243 . S
O22 La0 2.554 . S
O22 C9 1.240 . S
O23 La0 2.757 . S
O23 La1 2.482 1_455 S
O23 C9 1.289 . S
O24 La0 2.470 . S
O24 C10 1.258 . S
O25 La1 2.503 1_455 S
O25 C10 1.256 . S
O26 La1 2.521 . S
O26 C11 1.261 . S
O27 La1 2.628 . S
O27 C11 1.243 . S
O28 La1 2.553 . S
O28 C18 1.243 1_655 S
O29 La0 2.482 . S
O29 La1 2.757 1_455 S
O29 C18 1.289 . S
O30 La1 2.470 . S
O30 C19 1.258 . S
O31 La0 2.503 1_655 S
O31 C19 1.256 . S
H32 C4 0.930 . S
H33 C5 0.930 . S
H34 C7 0.929 . S
H35 C8 0.929 . S
H36 C13 0.930 . S
H37 C14 0.930 . S
H38 C16 0.929 . S
H39 C17 0.929 . S
La40 C42 2.928 . S
La40 O60 2.521 . S
La40 O61 2.628 . S
La40 O62 2.554 . S
La40 O63 2.757 1_565 S
La40 O64 2.470 . S
La40 O69 2.498 . S
La40 O71 2.503 1_565 S
La41 C51 2.928 . S
La41 O63 2.482 . S
La41 O65 2.503 1_545 S
La41 O66 2.521 . S
La41 O67 2.628 . S
La41 O68 2.554 . S
La41 O69 2.730 1_545 S
La41 O70 2.470 . S
C42 La40 2.928 . S
C42 C43 1.503 . S
C42 O60 1.261 . S
C42 O61 1.243 . S
C43 C42 1.503 . S
C43 C44 1.394 . S
C43 C48 1.373 . S
C44 C43 1.394 . S
C44 C45 1.380 . S
C44 H72 0.930 . S
C45 C44 1.380 . S
C45 C46 1.376 . S
C45 H73 0.930 . S
C46 C45 1.376 . S
C46 C47 1.370 . S
C47 C46 1.370 . S
C47 C48 1.396 . S
C47 H74 0.929 . S
C48 C43 1.373 . S
C48 C47 1.396 . S
C48 H75 0.929 . S
C49 O62 1.240 1_545 S
C49 O63 1.289 . S
C50 O64 1.258 . S
C50 O65 1.256 . S
C51 La41 2.928 . S
C51 C52 1.503 . S
C51 O66 1.261 . S
C51 O67 1.243 . S
C52 C51 1.503 . S
C52 C53 1.394 . S
C52 C57 1.373 . S
C53 C52 1.394 . S
C53 C54 1.380 . S
C53 H76 0.930 . S
C54 C53 1.380 . S
C54 C55 1.376 . S
C54 H77 0.930 . S
C55 C54 1.376 . S
C55 C56 1.370 . S
C56 C55 1.370 . S
C56 C57 1.396 . S
C56 H78 0.929 . S
C57 C52 1.373 . S
C57 C56 1.396 . S
C57 H79 0.929 . S
C58 O68 1.240 . S
C58 O69 1.275 1_545 S
C59 O70 1.258 . S
C59 O71 1.256 . S
O60 La40 2.521 . S
O60 C42 1.261 . S
O61 La40 2.628 . S
O61 C42 1.243 . S
O62 La40 2.554 . S
O62 C49 1.240 1_565 S
O63 La40 2.757 1_545 S
O63 La41 2.482 . S
O63 C49 1.289 . S
O64 La40 2.470 . S
O64 C50 1.258 . S
O65 La41 2.503 1_565 S
O65 C50 1.256 . S
O66 La41 2.521 . S
O66 C51 1.261 . S
O67 La41 2.628 . S
O67 C51 1.243 . S
O68 La41 2.554 . S
O68 C58 1.240 . S
O69 La40 2.498 . S
O69 La41 2.730 1_565 S
O69 C58 1.275 1_565 S
O70 La41 2.470 . S
O70 C59 1.258 . S
O71 La40 2.503 1_545 S
O71 C59 1.256 . S
H72 C44 0.930 . S
H73 C45 0.930 . S
H74 C47 0.929 . S
H75 C48 0.929 . S
H76 C53 0.930 . S
H77 C54 0.930 . S
H78 C56 0.929 . S
H79 C57 0.929 . S
La80 C82 2.928 . S
La80 O100 2.521 . S
La80 O101 2.628 . S
La80 O102 2.554 . S
La80 O103 2.757 . S
La80 O104 2.470 . S
La80 O109 2.482 . S
La80 O111 2.503 . S
La81 C91 2.928 . S
La81 O103 2.482 . S
La81 O105 2.503 . S
La81 O106 2.521 . S
La81 O107 2.628 . S
La81 O108 2.554 . S
La81 O109 2.757 . S
La81 O110 2.470 . S
C82 La80 2.928 . S
C82 C83 1.503 . S
C82 O100 1.261 . S
C82 O101 1.243 . S
C83 C82 1.503 . S
C83 C84 1.394 . S
C83 C88 1.373 . S
C84 C83 1.394 . S
C84 C85 1.380 . S
C84 H112 0.930 . S
C85 C84 1.380 . S
C85 C86 1.376 . S
C85 H113 0.930 . S
C86 C85 1.376 . S
C86 C87 1.370 . S
C87 C86 1.370 . S
C87 C88 1.396 . S
C87 H114 0.929 . S
C88 C83 1.373 . S
C88 C87 1.396 . S
C88 H115 0.929 . S
C89 O102 1.240 . S
C89 O103 1.289 . S
C90 O104 1.258 . S
C90 O105 1.256 . S
C91 La81 2.928 . S
C91 C92 1.503 . S
C91 O106 1.261 . S
C91 O107 1.243 . S
C92 C91 1.503 . S
C92 C93 1.394 . S
C92 C97 1.373 . S
C93 C92 1.394 . S
C93 C94 1.380 . S
C93 H116 0.930 . S
C94 C93 1.380 . S
C94 C95 1.376 . S
C94 H117 0.930 . S
C95 C94 1.376 . S
C95 C96 1.370 . S
C96 C95 1.370 . S
C96 C97 1.396 . S
C96 H118 0.929 . S
C97 C92 1.373 . S
C97 C96 1.396 . S
C97 H119 0.929 . S
C98 O108 1.240 . S
C98 O109 1.289 . S
C99 O110 1.258 . S
C99 O111 1.256 . S
O100 La80 2.521 . S
O100 C82 1.261 . S
O101 La80 2.628 . S
O101 C82 1.243 . S
O102 La80 2.554 . S
O102 C89 1.240 . S
O103 La80 2.757 . S
O103 La81 2.482 . S
O103 C89 1.289 . S
O104 La80 2.470 . S
O104 C90 1.258 . S
O105 La81 2.503 . S
O105 C90 1.256 . S
O106 La81 2.521 . S
O106 C91 1.261 . S
O107 La81 2.628 . S
O107 C91 1.243 . S
O108 La81 2.554 . S
O108 C98 1.240 . S
O109 La80 2.482 . S
O109 La81 2.757 . S
O109 C98 1.289 . S
O110 La81 2.470 . S
O110 C99 1.258 . S
O111 La80 2.503 . S
O111 C99 1.256 . S
H112 C84 0.930 . S
H113 C85 0.930 . S
H114 C87 0.929 . S
H115 C88 0.929 . S
H116 C93 0.930 . S
H117 C94 0.930 . S
H118 C96 0.929 . S
H119 C97 0.929 . S
C120 C121 1.386 . S
C120 C122 1.397 . S
C120 H144 0.931 . S
C121 C120 1.386 . S
C121 C125 1.397 1_545 S
C122 C120 1.397 . S
C122 C123 1.384 . S
C122 H145 0.930 . S
C123 C122 1.384 . S
C123 C124 1.377 1_545 S
C123 C126 1.481 . S
C124 C123 1.377 1_565 S
C124 C125 1.389 . S
C124 H146 0.929 . S
C125 C121 1.397 1_565 S
C125 C124 1.389 . S
C125 H147 0.931 . S
C126 C123 1.481 . S
C126 C127 1.387 . S
C126 C131 1.390 1_545 S
C127 C126 1.387 . S
C127 C128 1.401 . S
C127 H148 0.930 . S
C128 C127 1.401 . S
C128 C129 1.376 . S
C128 C137 1.511 . S
C129 C128 1.376 . S
C129 C130 1.392 1_545 S
C129 H150 0.931 . S
C130 C129 1.392 1_565 S
C130 C131 1.361 . S
C130 C132 1.500 . S
C131 C126 1.390 1_565 S
C131 C130 1.361 . S
C131 H149 0.931 . S
C132 C130 1.500 . S
C132 C133 1.371 . S
C132 C134 1.365 . S
C133 C132 1.371 . S
C133 C143 1.386 . S
C133 H151 0.931 . S
C134 C132 1.365 . S
C134 C135 1.409 . S
C134 H152 0.929 . S
C135 C134 1.409 . S
C135 C136 1.380 . S
C135 H153 0.930 . S
C136 C135 1.380 . S
C136 C143 1.357 . S
C137 C128 1.511 . S
C137 C138 1.341 . S
C137 C139 1.371 . S
C138 C137 1.341 . S
C138 C142 1.394 . S
C138 H154 0.930 . S
C139 C137 1.371 . S
C139 C140 1.392 . S
C139 H155 0.931 . S
C140 C139 1.392 . S
C140 C141 1.331 . S
C140 H158 0.932 . S
C141 C140 1.331 . S
C141 C142 1.336 . S
C142 C138 1.394 . S
C142 C141 1.336 . S
C142 H157 0.929 . S
C143 C133 1.386 . S
C143 C136 1.357 . S
C143 H156 0.928 . S
H144 C120 0.931 . S
H145 C122 0.930 . S
H146 C124 0.929 . S
H147 C125 0.931 . S
H148 C127 0.930 . S
H149 C131 0.931 . S
H150 C129 0.931 . S
H151 C133 0.931 . S
H152 C134 0.929 . S
H153 C135 0.930 . S
H154 C138 0.930 . S
H155 C139 0.931 . S
H156 C143 0.928 . S
H157 C142 0.929 . S
H158 C140 0.932 . S
C159 C160 1.386 . S
C159 C161 1.397 . S
C159 H183 0.931 . S
C160 C159 1.386 . S
C160 C164 1.397 . S
C161 C159 1.397 . S
C161 C162 1.384 . S
C161 H184 0.930 . S
C162 C161 1.384 . S
C162 C163 1.377 . S
C162 C165 1.481 . S
C163 C162 1.377 . S
C163 C164 1.389 . S
C163 H185 0.929 . S
C164 C160 1.397 . S
C164 C163 1.389 . S
C164 H186 0.931 . S
C165 C162 1.481 . S
C165 C166 1.387 . S
C165 C170 1.390 . S
C166 C165 1.387 . S
C166 C167 1.401 . S
C166 H187 0.930 . S
C167 C166 1.401 . S
C167 C168 1.376 . S
C167 C176 1.511 . S
C168 C167 1.376 . S
C168 C169 1.392 . S
C168 H189 0.931 . S
C169 C168 1.392 . S
C169 C170 1.361 . S
C169 C171 1.500 . S
C170 C165 1.390 . S
C170 C169 1.361 . S
C170 H188 0.931 . S
C171 C169 1.500 . S
C171 C172 1.371 . S
C171 C173 1.365 . S
C172 C171 1.371 . S
C172 C182 1.386 . S
C172 H190 0.931 . S
C173 C171 1.365 . S
C173 C174 1.409 . S
C173 H191 0.929 . S
C174 C173 1.409 . S
C174 C175 1.380 . S
C174 H192 0.930 . S
C175 C174 1.380 . S
C175 C182 1.357 . S
C176 C167 1.511 . S
C176 C177 1.341 . S
C176 C178 1.371 . S
C177 C176 1.341 . S
C177 C181 1.394 . S
C177 H193 0.930 . S
C178 C176 1.371 . S
C178 C179 1.392 . S
C178 H194 0.931 . S
C179 C178 1.392 . S
C179 C180 1.331 . S
C179 H197 0.932 . S
C180 C179 1.331 . S
C180 C181 1.336 . S
C181 C177 1.394 . S
C181 C180 1.336 . S
C181 H196 0.929 . S
C182 C172 1.386 . S
C182 C175 1.357 . S
C182 H195 0.928 . S
H183 C159 0.931 . S
H184 C161 0.930 . S
H185 C163 0.929 . S
H186 C164 0.931 . S
H187 C166 0.930 . S
H188 C170 0.931 . S
H189 C168 0.931 . S
H190 C172 0.931 . S
H191 C173 0.929 . S
H192 C174 0.930 . S
H193 C177 0.930 . S
H194 C178 0.931 . S
H195 C182 0.928 . S
H196 C181 0.929 . S
H197 C179 0.932 . S
C198 C199 1.386 . S
C198 C200 1.397 . S
C198 H222 0.931 . S
C199 C198 1.386 . S
C199 C203 1.397 . S
C200 C198 1.397 . S
C200 C201 1.384 . S
C200 H223 0.930 . S
C201 C200 1.384 . S
C201 C202 1.377 . S
C201 C204 1.481 . S
C202 C201 1.377 . S
C202 C203 1.389 . S
C202 H224 0.929 1_455 S
C203 C199 1.397 . S
C203 C202 1.389 . S
C203 H225 0.931 1_455 S
C204 C201 1.481 . S
C204 C205 1.387 . S
C204 C209 1.390 . S
C205 C204 1.387 . S
C205 C206 1.401 . S
C205 H226 0.930 . S
C206 C205 1.401 . S
C206 C207 1.376 . S
C206 C215 1.511 . S
C207 C206 1.376 . S
C207 C208 1.392 . S
C207 H228 0.931 . S
C208 C207 1.392 . S
C208 C209 1.361 . S
C208 C210 1.500 1_455 S
C209 C204 1.390 . S
C209 C208 1.361 . S
C209 H227 0.931 1_455 S
C210 C208 1.500 1_655 S
C210 C211 1.371 . S
C210 C212 1.365 . S
C211 C210 1.371 . S
C211 C221 1.386 . S
C211 H229 0.931 1_655 S
C212 C210 1.365 . S
C212 C213 1.409 . S
C212 H230 0.929 . S
C213 C212 1.409 . S
C213 C214 1.380 . S
C213 H231 0.930 . S
C214 C213 1.380 . S
C214 C221 1.357 . S
C215 C206 1.511 . S
C215 C216 1.341 . S
C215 C217 1.371 . S
C216 C215 1.341 . S
C216 C220 1.394 . S
C216 H232 0.930 . S
C217 C215 1.371 . S
C217 C218 1.392 . S
C217 H233 0.931 . S
C218 C217 1.392 . S
C218 C219 1.331 . S
C218 H236 0.932 . S
C219 C218 1.331 . S
C219 C220 1.336 . S
C220 C216 1.394 . S
C220 C219 1.336 . S
C220 H235 0.929 . S
C221 C211 1.386 . S
C221 C214 1.357 . S
C221 H234 0.928 . S
H222 C198 0.931 . S
H223 C200 0.930 . S
H224 C202 0.929 1_655 S
H225 C203 0.931 1_655 S
H226 C205 0.930 . S
H227 C209 0.931 1_655 S
H228 C207 0.931 . S
H229 C211 0.931 1_455 S
H230 C212 0.929 . S
H231 C213 0.930 . S
H232 C216 0.930 . S
H233 C217 0.931 . S
H234 C221 0.928 . S
H235 C220 0.929 . S
H236 C218 0.932 . S
C237 C238 1.398 . S
C237 C239 1.397 . S
C237 H261 0.931 . S
C238 C237 1.398 . S
C238 C242 1.386 1_655 S
C239 C237 1.397 . S
C239 C240 1.384 . S
C239 H262 0.930 . S
C240 C239 1.384 . S
C240 C241 1.377 1_655 S
C240 C243 1.481 . S
C241 C240 1.377 1_455 S
C241 C242 1.389 . S
C241 H263 0.929 . S
C242 C238 1.386 1_455 S
C242 C241 1.389 . S
C242 H264 0.931 . S
C243 C240 1.481 . S
C243 C244 1.387 . S
C243 C248 1.390 1_655 S
C244 C243 1.387 . S
C244 C245 1.401 . S
C244 H265 0.930 . S
C245 C244 1.401 . S
C245 C246 1.376 . S
C245 C254 1.511 . S
C246 C245 1.376 . S
C246 C247 1.392 1_655 S
C246 H267 0.931 . S
C247 C246 1.392 1_455 S
C247 C248 1.361 . S
C247 C249 1.500 . S
C248 C243 1.390 1_455 S
C248 C247 1.361 . S
C248 H266 0.931 . S
C249 C247 1.500 . S
C249 C250 1.371 . S
C249 C251 1.365 . S
C250 C249 1.371 . S
C250 C260 1.386 . S
C250 H268 0.931 . S
C251 C249 1.365 . S
C251 C252 1.409 . S
C251 H269 0.929 . S
C252 C251 1.409 . S
C252 C253 1.380 . S
C252 H270 0.930 . S
C253 C252 1.380 . S
C253 C260 1.357 . S
C254 C245 1.511 . S
C254 C255 1.341 . S
C254 C256 1.371 . S
C255 C254 1.341 . S
C255 C259 1.394 . S
C255 H271 0.930 . S
C256 C254 1.371 . S
C256 C257 1.392 . S
C256 H272 0.931 . S
C257 C256 1.392 . S
C257 C258 1.331 . S
C257 H275 0.932 . S
C258 C257 1.331 . S
C258 C259 1.336 . S
C259 C255 1.394 . S
C259 C258 1.336 . S
C259 H274 0.929 . S
C260 C250 1.386 . S
C260 C253 1.357 . S
C260 H273 0.928 . S
H261 C237 0.931 . S
H262 C239 0.930 . S
H263 C241 0.929 . S
H264 C242 0.931 . S
H265 C244 0.930 . S
H266 C248 0.931 . S
H267 C246 0.931 . S
H268 C250 0.931 . S
H269 C251 0.929 . S
H270 C252 0.930 . S
H271 C255 0.930 . S
H272 C256 0.931 . S
H273 C260 0.928 . S
H274 C259 0.929 . S
H275 C257 0.932 . S
C276 C277 1.386 . S
C276 C278 1.397 . S
C276 H300 0.931 . S
C277 C276 1.386 . S
C277 C281 1.397 1_565 S
C278 C276 1.397 . S
C278 C279 1.406 . S
C278 H301 0.930 . S
C279 C278 1.406 . S
C279 C280 1.355 1_565 S
C279 C282 1.482 1_565 S
C280 C279 1.355 1_545 S
C280 C281 1.389 . S
C280 H302 0.929 . S
C281 C277 1.397 1_545 S
C281 C280 1.389 . S
C281 H303 0.931 . S
C282 C279 1.482 1_545 S
C282 C283 1.374 1_545 S
C282 C287 1.404 . S
C283 C282 1.374 1_565 S
C283 C284 1.401 . S
C283 H304 0.930 . S
C284 C283 1.401 . S
C284 C285 1.376 1_565 S
C284 C293 1.511 . S
C285 C284 1.376 1_545 S
C285 C286 1.392 . S
C285 H306 0.931 . S
C286 C285 1.392 . S
C286 C287 1.361 . S
C286 C288 1.500 . S
C287 C282 1.404 . S
C287 C286 1.361 . S
C287 H305 0.931 . S
C288 C286 1.500 . S
C288 C289 1.371 . S
C288 C290 1.365 . S
C289 C288 1.371 . S
C289 C299 1.386 . S
C289 H307 0.931 . S
C290 C288 1.365 . S
C290 C291 1.409 . S
C290 H308 0.929 . S
C291 C290 1.409 . S
C291 C292 1.380 . S
C291 H309 0.930 . S
C292 C291 1.380 . S
C292 C299 1.357 . S
C293 C284 1.511 . S
C293 C294 1.341 . S
C293 C295 1.371 . S
C294 C293 1.341 . S
C294 C298 1.394 . S
C294 H310 0.930 . S
C295 C293 1.371 . S
C295 C296 1.392 . S
C295 H311 0.931 . S
C296 C295 1.392 . S
C296 C297 1.331 . S
C296 H314 0.932 . S
C297 C296 1.331 . S
C297 C298 1.336 . S
C298 C294 1.394 . S
C298 C297 1.336 . S
C298 H313 0.929 . S
C299 C289 1.386 . S
C299 C292 1.357 . S
C299 H312 0.928 . S
H300 C276 0.931 . S
H301 C278 0.930 . S
H302 C280 0.929 . S
H303 C281 0.931 . S
H304 C283 0.930 . S
H305 C287 0.931 . S
H306 C285 0.931 . S
H307 C289 0.931 . S
H308 C290 0.929 . S
H309 C291 0.930 . S
H310 C294 0.930 . S
H311 C295 0.931 . S
H312 C299 0.928 . S
H313 C298 0.929 . S
H314 C296 0.932 . S
C315 C316 1.386 . S
C315 C317 1.397 . S
C315 H339 0.931 . S
C316 C315 1.386 . S
C316 C320 1.397 . S
C317 C315 1.397 . S
C317 C318 1.384 . S
C317 H340 0.930 . S
C318 C317 1.384 . S
C318 C319 1.377 . S
C318 C321 1.481 . S
C319 C318 1.377 . S
C319 C320 1.389 . S
C319 H341 0.929 . S
C320 C316 1.397 . S
C320 C319 1.389 . S
C320 H342 0.931 . S
C321 C318 1.481 . S
C321 C322 1.387 . S
C321 C326 1.390 . S
C322 C321 1.387 . S
C322 C323 1.401 . S
C322 H343 0.930 . S
C323 C322 1.401 . S
C323 C324 1.376 . S
C323 C332 1.511 . S
C324 C323 1.376 . S
C324 C325 1.392 . S
C324 H345 0.931 . S
C325 C324 1.392 . S
C325 C326 1.361 . S
C325 C327 1.500 . S
C326 C321 1.390 . S
C326 C325 1.361 . S
C326 H344 0.931 . S
C327 C325 1.500 . S
C327 C328 1.371 . S
C327 C329 1.365 . S
C328 C327 1.371 . S
C328 C338 1.386 . S
C328 H346 0.931 . S
C329 C327 1.365 . S
C329 C330 1.409 . S
C329 H347 0.929 . S
C330 C329 1.409 . S
C330 C331 1.380 . S
C330 H348 0.930 . S
C331 C330 1.380 . S
C331 C338 1.357 . S
C332 C323 1.511 . S
C332 C333 1.341 . S
C332 C334 1.371 . S
C333 C332 1.341 . S
C333 C337 1.394 . S
C333 H349 0.930 . S
C334 C332 1.371 . S
C334 C335 1.392 . S
C334 H350 0.931 . S
C335 C334 1.392 . S
C335 C336 1.331 . S
C335 H353 0.932 . S
C336 C335 1.331 . S
C336 C337 1.336 . S
C337 C333 1.394 . S
C337 C336 1.336 . S
C337 H352 0.929 . S
C338 C328 1.386 . S
C338 C331 1.357 . S
C338 H351 0.928 . S
H339 C315 0.931 . S
H340 C317 0.930 . S
H341 C319 0.929 . S
H342 C320 0.931 . S
H343 C322 0.930 . S
H344 C326 0.931 . S
H345 C324 0.931 . S
H346 C328 0.931 . S
H347 C329 0.929 . S
H348 C330 0.930 . S
H349 C333 0.930 . S
H350 C334 0.931 . S
H351 C338 0.928 . S
H352 C337 0.929 . S
H353 C335 0.932 . S
C354 C355 1.391 . S
C354 C356 1.394 . S
C354 H370 0.931 . S
C355 C354 1.391 . S
C355 C359 1.376 . S
C356 C354 1.394 . S
C356 C357 1.369 . S
C356 C360 1.531 . S
C357 C356 1.369 . S
C357 C358 1.410 . S
C357 C365 1.503 . S
C358 C357 1.410 . S
C358 C359 1.392 . S
C358 C361 1.511 . S
C359 C355 1.376 . S
C359 C358 1.392 . S
C359 H371 0.929 . S
C360 C356 1.531 . S
C360 H372 0.960 . S
C360 H373 0.962 . S
C360 H374 0.960 . S
C361 C358 1.511 . S
C361 H375 0.961 . S
C361 H376 0.961 . S
C361 H377 0.961 . S
C362 C363 1.370 . S
C362 C364 1.363 . S
C362 H378 0.931 . S
C363 C362 1.370 . S
C363 C367 1.408 . S
C364 C362 1.363 . S
C364 C365 1.370 . S
C364 C368 1.524 . S
C365 C357 1.503 . S
C365 C364 1.370 . S
C365 C366 1.403 . S
C366 C365 1.403 . S
C366 C367 1.404 . S
C366 C369 1.539 . S
C367 C363 1.408 . S
C367 C366 1.404 . S
C367 H379 0.930 . S
C368 C364 1.524 . S
C368 H380 0.956 . S
C368 H381 0.961 . S
C368 H382 0.961 . S
C369 C366 1.539 . S
C369 H383 0.958 . S
C369 H384 0.961 . S
C369 H385 0.960 . S
H370 C354 0.931 . S
H371 C359 0.929 . S
H372 C360 0.960 . S
H373 C360 0.962 . S
H374 C360 0.960 . S
H375 C361 0.961 . S
H376 C361 0.961 . S
H377 C361 0.961 . S
H378 C362 0.931 . S
H379 C367 0.930 . S
H380 C368 0.956 . S
H381 C368 0.961 . S
H382 C368 0.961 . S
H383 C369 0.958 . S
H384 C369 0.961 . S
H385 C369 0.960 . S
C386 C387 1.391 . S
C386 C388 1.394 . S
C386 H402 0.931 . S
C387 C386 1.391 . S
C387 C391 1.376 . S
C388 C386 1.394 . S
C388 C389 1.369 . S
C388 C392 1.531 . S
C389 C388 1.369 . S
C389 C390 1.410 . S
C389 C397 1.503 . S
C390 C389 1.410 . S
C390 C391 1.392 . S
C390 C393 1.511 . S
C391 C387 1.376 . S
C391 C390 1.392 . S
C391 H403 0.929 . S
C392 C388 1.531 . S
C392 H404 0.960 . S
C392 H405 0.962 . S
C392 H406 0.960 . S
C393 C390 1.511 . S
C393 H407 0.961 . S
C393 H408 0.961 . S
C393 H409 0.961 . S
C394 C395 1.370 . S
C394 C396 1.363 . S
C394 H410 0.931 . S
C395 C394 1.370 . S
C395 C399 1.408 . S
C396 C394 1.363 . S
C396 C397 1.370 . S
C396 C400 1.524 . S
C397 C389 1.503 . S
C397 C396 1.370 . S
C397 C398 1.403 . S
C398 C397 1.403 . S
C398 C399 1.404 . S
C398 C401 1.539 . S
C399 C395 1.408 . S
C399 C398 1.404 . S
C399 H411 0.930 . S
C400 C396 1.524 . S
C400 H412 0.956 . S
C400 H413 0.961 . S
C400 H414 0.961 . S
C401 C398 1.539 . S
C401 H415 0.958 . S
C401 H416 0.961 . S
C401 H417 0.960 . S
H402 C386 0.931 . S
H403 C391 0.929 . S
H404 C392 0.960 . S
H405 C392 0.962 . S
H406 C392 0.960 . S
H407 C393 0.961 . S
H408 C393 0.961 . S
H409 C393 0.961 . S
H410 C394 0.931 . S
H411 C399 0.930 . S
H412 C400 0.956 . S
H413 C400 0.961 . S
H414 C400 0.961 . S
H415 C401 0.958 . S
H416 C401 0.961 . S
H417 C401 0.960 . S
C418 C419 1.391 . S
C418 C420 1.394 . S
C418 H434 0.931 . S
C419 C418 1.391 . S
C419 C423 1.376 . S
C420 C418 1.394 . S
C420 C421 1.369 . S
C420 C424 1.531 . S
C421 C420 1.369 . S
C421 C422 1.410 . S
C421 C429 1.503 . S
C422 C421 1.410 . S
C422 C423 1.392 . S
C422 C425 1.511 . S
C423 C419 1.376 . S
C423 C422 1.392 . S
C423 H435 0.929 . S
C424 C420 1.531 . S
C424 H436 0.960 . S
C424 H437 0.962 . S
C424 H438 0.960 . S
C425 C422 1.511 . S
C425 H439 0.961 . S
C425 H440 0.961 . S
C425 H441 0.961 . S
C426 C427 1.370 . S
C426 C428 1.363 . S
C426 H442 0.931 . S
C427 C426 1.370 . S
C427 C431 1.408 . S
C428 C426 1.363 . S
C428 C429 1.370 . S
C428 C432 1.524 . S
C429 C421 1.503 . S
C429 C428 1.370 . S
C429 C430 1.403 . S
C430 C429 1.403 . S
C430 C431 1.404 . S
C430 C433 1.539 . S
C431 C427 1.408 . S
C431 C430 1.404 . S
C431 H443 0.930 . S
C432 C428 1.524 . S
C432 H444 0.956 . S
C432 H445 0.961 . S
C432 H446 0.961 . S
C433 C430 1.539 . S
C433 H447 0.958 . S
C433 H448 0.961 . S
C433 H449 0.960 . S
H434 C418 0.931 . S
H435 C423 0.929 . S
H436 C424 0.960 . S
H437 C424 0.962 . S
H438 C424 0.960 . S
H439 C425 0.961 . S
H440 C425 0.961 . S
H441 C425 0.961 . S
H442 C426 0.931 . S
H443 C431 0.930 . S
H444 C432 0.956 . S
H445 C432 0.961 . S
H446 C432 0.961 . S
H447 C433 0.958 . S
H448 C433 0.961 . S
H449 C433 0.960 . S
C450 C451 1.391 . S
C450 C452 1.394 . S
C450 H466 0.931 . S
C451 C450 1.391 . S
C451 C455 1.376 . S
C452 C450 1.394 . S
C452 C453 1.369 . S
C452 C456 1.531 . S
C453 C452 1.369 . S
C453 C454 1.410 . S
C453 C461 1.503 . S
C454 C453 1.410 . S
C454 C455 1.392 . S
C454 C457 1.511 . S
C455 C451 1.376 . S
C455 C454 1.392 . S
C455 H467 0.929 . S
C456 C452 1.531 . S
C456 H468 0.960 . S
C456 H469 0.962 . S
C456 H470 0.960 . S
C457 C454 1.511 . S
C457 H471 0.961 . S
C457 H472 0.961 . S
C457 H473 0.961 . S
C458 C459 1.370 . S
C458 C460 1.363 . S
C458 H474 0.931 . S
C459 C458 1.370 . S
C459 C463 1.408 . S
C460 C458 1.363 . S
C460 C461 1.370 . S
C460 C464 1.524 . S
C461 C453 1.503 . S
C461 C460 1.370 . S
C461 C462 1.403 . S
C462 C461 1.403 . S
C462 C463 1.404 . S
C462 C465 1.539 . S
C463 C459 1.408 . S
C463 C462 1.404 . S
C463 H475 0.930 . S
C464 C460 1.524 . S
C464 H476 0.956 . S
C464 H477 0.961 . S
C464 H478 0.961 . S
C465 C462 1.539 . S
C465 H479 0.958 . S
C465 H480 0.961 . S
C465 H481 0.960 . S
H466 C450 0.931 . S
H467 C455 0.929 . S
H468 C456 0.960 . S
H469 C456 0.962 . S
H470 C456 0.960 . S
H471 C457 0.961 . S
H472 C457 0.961 . S
H473 C457 0.961 . S
H474 C458 0.931 . S
H475 C463 0.930 . S
H476 C464 0.956 . S
H477 C464 0.961 . S
H478 C464 0.961 . S
H479 C465 0.958 . S
H480 C465 0.961 . S
H481 C465 0.960 . S
C482 C483 1.391 . S
C482 C484 1.394 . S
C482 H498 0.931 . S
C483 C482 1.391 . S
C483 C487 1.376 . S
C484 C482 1.394 . S
C484 C485 1.369 . S
C484 C488 1.531 . S
C485 C484 1.369 . S
C485 C486 1.410 . S
C485 C493 1.503 . S
C486 C485 1.410 . S
C486 C487 1.392 . S
C486 C489 1.511 . S
C487 C483 1.376 . S
C487 C486 1.392 . S
C487 H499 0.929 . S
C488 C484 1.531 . S
C488 H500 0.960 . S
C488 H501 0.962 . S
C488 H502 0.960 . S
C489 C486 1.511 . S
C489 H503 0.961 . S
C489 H504 0.961 . S
C489 H505 0.961 . S
C490 C491 1.370 . S
C490 C492 1.363 . S
C490 H506 0.931 . S
C491 C490 1.370 . S
C491 C495 1.408 . S
C492 C490 1.363 . S
C492 C493 1.370 . S
C492 C496 1.524 . S
C493 C485 1.503 . S
C493 C492 1.370 . S
C493 C494 1.403 . S
C494 C493 1.403 . S
C494 C495 1.404 . S
C494 C497 1.539 . S
C495 C491 1.408 . S
C495 C494 1.404 . S
C495 H507 0.930 . S
C496 C492 1.524 . S
C496 H508 0.956 . S
C496 H509 0.961 . S
C496 H510 0.961 . S
C497 C494 1.539 . S
C497 H511 0.958 . S
C497 H512 0.961 . S
C497 H513 0.960 . S
H498 C482 0.931 . S
H499 C487 0.929 . S
H500 C488 0.960 . S
H501 C488 0.962 . S
H502 C488 0.960 . S
H503 C489 0.961 . S
H504 C489 0.961 . S
H505 C489 0.961 . S
H506 C490 0.931 . S
H507 C495 0.930 . S
H508 C496 0.956 . S
H509 C496 0.961 . S
H510 C496 0.961 . S
H511 C497 0.958 . S
H512 C497 0.961 . S
H513 C497 0.960 . S
C514 C515 1.391 . S
C514 C516 1.394 . S
C514 H530 0.931 . S
C515 C514 1.391 . S
C515 C519 1.376 . S
C516 C514 1.394 . S
C516 C517 1.369 . S
C516 C520 1.531 . S
C517 C516 1.369 . S
C517 C518 1.410 . S
C517 C525 1.503 . S
C518 C517 1.410 . S
C518 C519 1.392 . S
C518 C521 1.511 . S
C519 C515 1.376 . S
C519 C518 1.392 . S
C519 H531 0.929 . S
C520 C516 1.531 . S
C520 H532 0.960 . S
C520 H533 0.962 . S
C520 H534 0.960 . S
C521 C518 1.511 . S
C521 H535 0.961 . S
C521 H536 0.961 . S
C521 H537 0.961 . S
C522 C523 1.370 . S
C522 C524 1.363 . S
C522 H538 0.931 . S
C523 C522 1.370 . S
C523 C527 1.408 . S
C524 C522 1.363 . S
C524 C525 1.370 . S
C524 C528 1.524 . S
C525 C517 1.503 . S
C525 C524 1.370 . S
C525 C526 1.403 . S
C526 C525 1.403 . S
C526 C527 1.404 . S
C526 C529 1.539 . S
C527 C523 1.408 . S
C527 C526 1.404 . S
C527 H539 0.930 . S
C528 C524 1.524 . S
C528 H540 0.956 . S
C528 H541 0.961 . S
C528 H542 0.961 . S
C529 C526 1.539 . S
C529 H543 0.958 . S
C529 H544 0.961 . S
C529 H545 0.960 . S
H530 C514 0.931 . S
H531 C519 0.929 . S
H532 C520 0.960 . S
H533 C520 0.962 . S
H534 C520 0.960 . S
H535 C521 0.961 . S
H536 C521 0.961 . S
H537 C521 0.961 . S
H538 C522 0.931 . S
H539 C527 0.930 . S
H540 C528 0.956 . S
H541 C528 0.961 . S
H542 C528 0.961 . S
H543 C529 0.958 . S
H544 C529 0.961 . S
H545 C529 0.960 . S
C546 C547 1.391 . S
C546 C548 1.394 . S
C546 H562 0.931 . S
C547 C546 1.391 . S
C547 C551 1.376 . S
C548 C546 1.394 . S
C548 C549 1.369 . S
C548 C552 1.531 . S
C549 C548 1.369 . S
C549 C550 1.410 . S
C549 C557 1.503 . S
C550 C549 1.410 . S
C550 C551 1.392 . S
C550 C553 1.511 . S
C551 C547 1.376 . S
C551 C550 1.392 . S
C551 H563 0.929 . S
C552 C548 1.531 . S
C552 H564 0.960 . S
C552 H565 0.962 . S
C552 H566 0.960 . S
C553 C550 1.511 . S
C553 H567 0.961 . S
C553 H568 0.961 . S
C553 H569 0.961 . S
C554 C555 1.370 . S
C554 C556 1.363 . S
C554 H570 0.931 . S
C555 C554 1.370 . S
C555 C559 1.408 . S
C556 C554 1.363 . S
C556 C557 1.370 . S
C556 C560 1.524 . S
C557 C549 1.503 . S
C557 C556 1.370 . S
C557 C558 1.403 . S
C558 C557 1.403 . S
C558 C559 1.404 . S
C558 C561 1.539 . S
C559 C555 1.408 . S
C559 C558 1.404 . S
C559 H571 0.930 . S
C560 C556 1.524 . S
C560 H572 0.956 . S
C560 H573 0.961 . S
C560 H574 0.961 . S
C561 C558 1.539 . S
C561 H575 0.958 . S
C561 H576 0.961 . S
C561 H577 0.960 . S
H562 C546 0.931 . S
H563 C551 0.929 . S
H564 C552 0.960 . S
H565 C552 0.962 . S
H566 C552 0.960 . S
H567 C553 0.961 . S
H568 C553 0.961 . S
H569 C553 0.961 . S
H570 C554 0.931 . S
H571 C559 0.930 . S
H572 C560 0.956 . S
H573 C560 0.961 . S
H574 C560 0.961 . S
H575 C561 0.958 . S
H576 C561 0.961 . S
H577 C561 0.960 . S
C578 C579 1.391 . S
C578 C580 1.394 . S
C578 H594 0.931 . S
C579 C578 1.391 . S
C579 C583 1.376 . S
C580 C578 1.394 . S
C580 C581 1.369 . S
C580 C584 1.531 . S
C581 C580 1.369 . S
C581 C582 1.410 . S
C581 C589 1.503 . S
C582 C581 1.410 . S
C582 C583 1.392 . S
C582 C585 1.511 . S
C583 C579 1.376 . S
C583 C582 1.392 . S
C583 H595 0.929 . S
C584 C580 1.531 . S
C584 H596 0.960 . S
C584 H597 0.962 . S
C584 H598 0.960 . S
C585 C582 1.511 . S
C585 H599 0.961 . S
C585 H600 0.961 . S
C585 H601 0.961 . S
C586 C587 1.370 . S
C586 C588 1.363 . S
C586 H602 0.931 . S
C587 C586 1.370 . S
C587 C591 1.408 . S
C588 C586 1.363 . S
C588 C589 1.370 . S
C588 C592 1.524 . S
C589 C581 1.503 . S
C589 C588 1.370 . S
C589 C590 1.403 . S
C590 C589 1.403 . S
C590 C591 1.404 . S
C590 C593 1.539 . S
C591 C587 1.408 . S
C591 C590 1.404 . S
C591 H603 0.930 . S
C592 C588 1.524 . S
C592 H604 0.956 . S
C592 H605 0.961 . S
C592 H606 0.961 . S
C593 C590 1.539 . S
C593 H607 0.958 . S
C593 H608 0.961 . S
C593 H609 0.960 . S
H594 C578 0.931 . S
H595 C583 0.929 . S
H596 C584 0.960 . S
H597 C584 0.962 . S
H598 C584 0.960 . S
H599 C585 0.961 . S
H600 C585 0.961 . S
H601 C585 0.961 . S
H602 C586 0.931 . S
H603 C591 0.930 . S
H604 C592 0.956 . S
H605 C592 0.961 . S
H606 C592 0.961 . S
H607 C593 0.958 . S
H608 C593 0.961 . S
H609 C593 0.960 . S
C610 C611 1.391 . S
C610 C612 1.394 . S
C610 H626 0.931 . S
C611 C610 1.391 . S
C611 C615 1.376 . S
C612 C610 1.394 . S
C612 C613 1.369 . S
C612 C616 1.531 . S
C613 C612 1.369 . S
C613 C614 1.410 . S
C613 C621 1.503 . S
C614 C613 1.410 . S
C614 C615 1.392 . S
C614 C617 1.511 . S
C615 C611 1.376 . S
C615 C614 1.392 . S
C615 H627 0.929 . S
C616 C612 1.531 . S
C616 H628 0.960 . S
C616 H629 0.962 . S
C616 H630 0.960 . S
C617 C614 1.511 . S
C617 H631 0.961 . S
C617 H632 0.961 . S
C617 H633 0.961 . S
C618 C619 1.370 . S
C618 C620 1.363 . S
C618 H634 0.931 . S
C619 C618 1.370 . S
C619 C623 1.408 . S
C620 C618 1.363 . S
C620 C621 1.370 . S
C620 C624 1.524 . S
C621 C613 1.503 . S
C621 C620 1.370 . S
C621 C622 1.403 . S
C622 C621 1.403 . S
C622 C623 1.404 . S
C622 C625 1.539 . S
C623 C619 1.408 . S
C623 C622 1.404 . S
C623 H635 0.930 . S
C624 C620 1.524 . S
C624 H636 0.956 . S
C624 H637 0.961 . S
C624 H638 0.961 . S
C625 C622 1.539 . S
C625 H639 0.958 . S
C625 H640 0.961 . S
C625 H641 0.960 . S
H626 C610 0.931 . S
H627 C615 0.929 . S
H628 C616 0.960 . S
H629 C616 0.962 . S
H630 C616 0.960 . S
H631 C617 0.961 . S
H632 C617 0.961 . S
H633 C617 0.961 . S
H634 C618 0.931 . S
H635 C623 0.930 . S
H636 C624 0.956 . S
H637 C624 0.961 . S
H638 C624 0.961 . S
H639 C625 0.958 . S
H640 C625 0.961 . S
H641 C625 0.960 . S
C642 C643 1.391 . S
C642 C644 1.394 . S
C642 H658 0.931 . S
C643 C642 1.391 . S
C643 C647 1.376 . S
C644 C642 1.394 . S
C644 C645 1.369 . S
C644 C648 1.531 . S
C645 C644 1.369 . S
C645 C646 1.410 . S
C645 C653 1.503 . S
C646 C645 1.410 . S
C646 C647 1.392 . S
C646 C649 1.511 . S
C647 C643 1.376 . S
C647 C646 1.392 . S
C647 H659 0.929 . S
C648 C644 1.531 . S
C648 H660 0.960 . S
C648 H661 0.962 . S
C648 H662 0.960 . S
C649 C646 1.511 . S
C649 H663 0.961 . S
C649 H664 0.961 . S
C649 H665 0.961 . S
C650 C651 1.370 . S
C650 C652 1.363 . S
C650 H666 0.931 . S
C651 C650 1.370 . S
C651 C655 1.408 . S
C652 C650 1.363 . S
C652 C653 1.370 . S
C652 C656 1.524 . S
C653 C645 1.503 . S
C653 C652 1.370 . S
C653 C654 1.403 . S
C654 C653 1.403 . S
C654 C655 1.404 . S
C654 C657 1.539 . S
C655 C651 1.408 . S
C655 C654 1.404 . S
C655 H667 0.930 . S
C656 C652 1.524 . S
C656 H668 0.956 . S
C656 H669 0.961 . S
C656 H670 0.961 . S
C657 C654 1.539 . S
C657 H671 0.958 . S
C657 H672 0.961 . S
C657 H673 0.960 . S
H658 C642 0.931 . S
H659 C647 0.929 . S
H660 C648 0.960 . S
H661 C648 0.962 . S
H662 C648 0.960 . S
H663 C649 0.961 . S
H664 C649 0.961 . S
H665 C649 0.961 . S
H666 C650 0.931 . S
H667 C655 0.930 . S
H668 C656 0.956 . S
H669 C656 0.961 . S
H670 C656 0.961 . S
H671 C657 0.958 . S
H672 C657 0.961 . S
H673 C657 0.960 . S
C674 C675 1.391 . S
C674 C676 1.394 . S
C674 H690 0.931 . S
C675 C674 1.391 . S
C675 C679 1.376 . S
C676 C674 1.394 . S
C676 C677 1.369 . S
C676 C680 1.531 . S
C677 C676 1.369 . S
C677 C678 1.410 . S
C677 C685 1.503 . S
C678 C677 1.410 . S
C678 C679 1.392 . S
C678 C681 1.511 . S
C679 C675 1.376 . S
C679 C678 1.392 . S
C679 H691 0.929 . S
C680 C676 1.531 . S
C680 H692 0.960 . S
C680 H693 0.962 . S
C680 H694 0.960 . S
C681 C678 1.511 . S
C681 H695 0.961 . S
C681 H696 0.961 . S
C681 H697 0.961 . S
C682 C683 1.370 . S
C682 C684 1.363 . S
C682 H698 0.931 . S
C683 C682 1.370 . S
C683 C687 1.408 . S
C684 C682 1.363 . S
C684 C685 1.370 . S
C684 C688 1.524 . S
C685 C677 1.503 . S
C685 C684 1.370 . S
C685 C686 1.403 . S
C686 C685 1.403 . S
C686 C687 1.404 . S
C686 C689 1.539 . S
C687 C683 1.408 . S
C687 C686 1.404 . S
C687 H699 0.930 . S
C688 C684 1.524 . S
C688 H700 0.956 . S
C688 H701 0.961 . S
C688 H702 0.961 . S
C689 C686 1.539 . S
C689 H703 0.958 . S
C689 H704 0.961 . S
C689 H705 0.960 . S
H690 C674 0.931 . S
H691 C679 0.929 . S
H692 C680 0.960 . S
H693 C680 0.962 . S
H694 C680 0.960 . S
H695 C681 0.961 . S
H696 C681 0.961 . S
H697 C681 0.961 . S
H698 C682 0.931 . S
H699 C687 0.930 . S
H700 C688 0.956 . S
H701 C688 0.961 . S
H702 C688 0.961 . S
H703 C689 0.958 . S
H704 C689 0.961 . S
H705 C689 0.960 . S
C706 C707 1.391 . S
C706 C708 1.394 . S
C706 H722 0.931 . S
C707 C706 1.391 . S
C707 C711 1.376 . S
C708 C706 1.394 . S
C708 C709 1.369 . S
C708 C712 1.531 . S
C709 C708 1.369 . S
C709 C710 1.410 . S
C709 C717 1.503 . S
C710 C709 1.410 . S
C710 C711 1.392 . S
C710 C713 1.511 . S
C711 C707 1.376 . S
C711 C710 1.392 . S
C711 H723 0.929 . S
C712 C708 1.531 . S
C712 H724 0.960 . S
C712 H725 0.962 . S
C712 H726 0.960 . S
C713 C710 1.511 . S
C713 H727 0.961 . S
C713 H728 0.961 . S
C713 H729 0.961 . S
C714 C715 1.370 . S
C714 C716 1.363 . S
C714 H730 0.931 . S
C715 C714 1.370 . S
C715 C719 1.408 . S
C716 C714 1.363 . S
C716 C717 1.370 . S
C716 C720 1.524 . S
C717 C709 1.503 . S
C717 C716 1.370 . S
C717 C718 1.403 . S
C718 C717 1.403 . S
C718 C719 1.404 . S
C718 C721 1.539 . S
C719 C715 1.408 . S
C719 C718 1.404 . S
C719 H731 0.930 . S
C720 C716 1.524 . S
C720 H732 0.956 . S
C720 H733 0.961 . S
C720 H734 0.961 . S
C721 C718 1.539 . S
C721 H735 0.958 . S
C721 H736 0.961 . S
C721 H737 0.960 . S
H722 C706 0.931 . S
H723 C711 0.929 . S
H724 C712 0.960 . S
H725 C712 0.962 . S
H726 C712 0.960 . S
H727 C713 0.961 . S
H728 C713 0.961 . S
H729 C713 0.961 . S
H730 C714 0.931 . S
H731 C719 0.930 . S
H732 C720 0.956 . S
H733 C720 0.961 . S
H734 C720 0.961 . S
H735 C721 0.958 . S
H736 C721 0.961 . S
H737 C721 0.960 . S
C738 C739 1.391 . S
C738 C740 1.394 . S
C738 H754 0.931 . S
C739 C738 1.391 . S
C739 C743 1.376 . S
C740 C738 1.394 . S
C740 C741 1.369 . S
C740 C744 1.531 . S
C741 C740 1.369 . S
C741 C742 1.435 . S
C741 C749 1.503 . S
C742 C741 1.435 . S
C742 C743 1.393 . S
C742 C745 1.485 1_455 S
C743 C739 1.376 . S
C743 C742 1.393 . S
C743 H755 0.929 1_455 S
C744 C740 1.531 . S
C744 H756 0.960 . S
C744 H757 0.962 . S
C744 H758 0.960 . S
C745 C742 1.485 1_655 S
C745 H759 0.961 . S
C745 H760 0.961 . S
C745 H761 0.961 . S
C746 C747 1.360 1_554 S
C746 C748 1.363 . S
C746 H762 0.931 . S
C747 C746 1.360 1_556 S
C747 C751 1.402 1_556 S
C748 C746 1.363 . S
C748 C749 1.370 . S
C748 C752 1.524 . S
C749 C741 1.503 . S
C749 C748 1.370 . S
C749 C750 1.408 . S
C750 C749 1.408 . S
C750 C751 1.404 . S
C750 C753 1.533 1_455 S
C751 C747 1.402 1_554 S
C751 C750 1.404 . S
C751 H763 0.930 1_454 S
C752 C748 1.524 . S
C752 H764 0.956 . S
C752 H765 0.961 . S
C752 H766 0.961 . S
C753 C750 1.533 1_655 S
C753 H767 0.958 . S
C753 H768 0.961 . S
C753 H769 0.960 . S
H754 C738 0.931 . S
H755 C743 0.929 1_655 S
H756 C744 0.960 . S
H757 C744 0.962 . S
H758 C744 0.960 . S
H759 C745 0.961 . S
H760 C745 0.961 . S
H761 C745 0.961 . S
H762 C746 0.931 . S
H763 C751 0.930 1_656 S
H764 C752 0.956 . S
H765 C752 0.961 . S
H766 C752 0.961 . S
H767 C753 0.958 . S
H768 C753 0.961 . S
H769 C753 0.960 . S
C770 C771 1.391 . S
C770 C772 1.394 . S
C770 H786 0.931 . S
C771 C770 1.391 . S
C771 C775 1.376 . S
C772 C770 1.394 . S
C772 C773 1.369 . S
C772 C776 1.531 . S
C773 C772 1.369 . S
C773 C774 1.410 . S
C773 C781 1.503 . S
C774 C773 1.410 . S
C774 C775 1.392 . S
C774 C777 1.511 . S
C775 C771 1.376 . S
C775 C774 1.392 . S
C775 H787 0.949 . S
C776 C772 1.531 . S
C776 H788 0.960 . S
C776 H789 0.962 . S
C776 H790 0.960 . S
C777 C774 1.511 . S
C777 H791 0.961 1_545 S
C777 H792 0.961 1_545 S
C777 H793 0.961 . S
C778 C779 1.370 1_565 S
C778 C780 1.363 . S
C778 H794 0.931 . S
C779 C778 1.370 1_545 S
C779 C783 1.408 . S
C780 C778 1.363 . S
C780 C781 1.370 1_565 S
C780 C784 1.524 . S
C781 C773 1.503 . S
C781 C780 1.370 1_545 S
C781 C782 1.403 . S
C782 C781 1.403 . S
C782 C783 1.404 . S
C782 C785 1.539 . S
C783 C779 1.408 . S
C783 C782 1.404 . S
C783 H795 0.930 . S
C784 C780 1.524 . S
C784 H796 0.956 . S
C784 H797 0.961 . S
C784 H798 0.961 . S
C785 C782 1.539 . S
C785 H799 0.958 . S
C785 H800 0.961 . S
C785 H801 0.960 . S
H786 C770 0.931 . S
H787 C775 0.949 . S
H788 C776 0.960 . S
H789 C776 0.962 . S
H790 C776 0.960 . S
H791 C777 0.961 1_565 S
H792 C777 0.961 1_565 S
H793 C777 0.961 . S
H794 C778 0.931 . S
H795 C783 0.930 . S
H796 C784 0.956 . S
H797 C784 0.961 . S
H798 C784 0.961 . S
H799 C785 0.958 . S
H800 C785 0.961 . S
H801 C785 0.960 . S
C802 C803 1.391 . S
C802 C804 1.394 . S
C802 H818 0.931 . S
C803 C802 1.391 . S
C803 C807 1.376 . S
C804 C802 1.394 . S
C804 C805 1.369 . S
C804 C808 1.531 . S
C805 C804 1.369 . S
C805 C806 1.410 . S
C805 C813 1.503 . S
C806 C805 1.410 . S
C806 C807 1.392 . S
C806 C809 1.511 . S
C807 C803 1.376 . S
C807 C806 1.392 . S
C807 H819 0.929 . S
C808 C804 1.531 . S
C808 H820 0.960 . S
C808 H821 0.962 . S
C808 H822 0.960 . S
C809 C806 1.511 . S
C809 H823 0.961 . S
C809 H824 0.961 . S
C809 H825 0.961 . S
C810 C811 1.370 . S
C810 C812 1.363 . S
C810 H826 0.931 . S
C811 C810 1.370 . S
C811 C815 1.408 . S
C812 C810 1.363 . S
C812 C813 1.370 . S
C812 C816 1.524 . S
C813 C805 1.503 . S
C813 C812 1.370 . S
C813 C814 1.403 . S
C814 C813 1.403 . S
C814 C815 1.404 . S
C814 C817 1.539 . S
C815 C811 1.408 . S
C815 C814 1.404 . S
C815 H827 0.930 . S
C816 C812 1.524 . S
C816 H828 0.956 . S
C816 H829 0.961 . S
C816 H830 0.961 . S
C817 C814 1.539 . S
C817 H831 0.958 . S
C817 H832 0.961 . S
C817 H833 0.960 . S
H818 C802 0.931 . S
H819 C807 0.929 . S
H820 C808 0.960 . S
H821 C808 0.962 . S
H822 C808 0.960 . S
H823 C809 0.961 . S
H824 C809 0.961 . S
H825 C809 0.961 . S
H826 C810 0.931 . S
H827 C815 0.930 . S
H828 C816 0.956 . S
H829 C816 0.961 . S
H830 C816 0.961 . S
H831 C817 0.958 . S
H832 C817 0.961 . S
H833 C817 0.960 . S
C834 C835 1.391 . S
C834 C836 1.394 . S
C834 H850 0.931 . S
C835 C834 1.391 . S
C835 C839 1.376 1_545 S
C836 C834 1.394 . S
C836 C837 1.369 . S
C836 C840 1.531 . S
C837 C836 1.369 . S
C837 C838 1.410 1_545 S
C837 C845 1.503 . S
C838 C837 1.410 1_565 S
C838 C839 1.392 . S
C838 C841 1.511 . S
C839 C835 1.376 1_565 S
C839 C838 1.392 . S
C839 H851 0.929 . S
C840 C836 1.531 . S
C840 H852 0.960 . S
C840 H853 0.962 . S
C840 H854 0.960 . S
C841 C838 1.511 . S
C841 H855 0.961 . S
C841 H856 0.961 . S
C841 H857 0.961 . S
C842 C843 1.370 . S
C842 C844 1.363 . S
C842 H858 0.931 . S
C843 C842 1.370 . S
C843 C847 1.408 1_565 S
C844 C842 1.363 . S
C844 C845 1.370 1_565 S
C844 C848 1.524 . S
C845 C837 1.503 . S
C845 C844 1.370 1_545 S
C845 C846 1.403 . S
C846 C845 1.403 . S
C846 C847 1.404 . S
C846 C849 1.539 . S
C847 C843 1.408 1_545 S
C847 C846 1.404 . S
C847 H859 0.930 . S
C848 C844 1.524 . S
C848 H860 0.956 . S
C848 H861 0.961 . S
C848 H862 0.961 . S
C849 C846 1.539 . S
C849 H863 0.958 . S
C849 H864 0.961 . S
C849 H865 0.960 . S
H850 C834 0.931 . S
H851 C839 0.929 . S
H852 C840 0.960 . S
H853 C840 0.962 . S
H854 C840 0.960 . S
H855 C841 0.961 . S
H856 C841 0.961 . S
H857 C841 0.961 . S
H858 C842 0.931 . S
H859 C847 0.930 . S
H860 C848 0.956 . S
H861 C848 0.961 . S
H862 C848 0.961 . S
H863 C849 0.958 . S
H864 C849 0.961 . S
H865 C849 0.960 . S
C866 C867 1.391 . S
C866 C868 1.394 . S
C866 H882 0.931 . S
C867 C866 1.391 . S
C867 C871 1.376 . S
C868 C866 1.394 . S
C868 C869 1.369 . S
C868 C872 1.531 . S
C869 C868 1.369 . S
C869 C870 1.410 . S
C869 C877 1.503 . S
C870 C869 1.410 . S
C870 C871 1.392 . S
C870 C873 1.511 . S
C871 C867 1.376 . S
C871 C870 1.392 . S
C871 H883 0.929 . S
C872 C868 1.531 . S
C872 H884 0.960 . S
C872 H885 0.962 . S
C872 H886 0.960 . S
C873 C870 1.511 . S
C873 H887 0.961 . S
C873 H888 0.961 . S
C873 H889 0.961 . S
C874 C875 1.370 . S
C874 C876 1.363 . S
C874 H890 0.931 . S
C875 C874 1.370 . S
C875 C879 1.408 . S
C876 C874 1.363 . S
C876 C877 1.370 . S
C876 C880 1.524 . S
C877 C869 1.503 . S
C877 C876 1.370 . S
C877 C878 1.403 . S
C878 C877 1.403 . S
C878 C879 1.404 . S
C878 C881 1.539 . S
C879 C875 1.408 . S
C879 C878 1.404 . S
C879 H891 0.930 . S
C880 C876 1.524 . S
C880 H892 0.956 . S
C880 H893 0.961 . S
C880 H894 0.961 . S
C881 C878 1.539 . S
C881 H895 0.958 . S
C881 H896 0.961 . S
C881 H897 0.960 . S
H882 C866 0.931 . S
H883 C871 0.929 . S
H884 C872 0.960 . S
H885 C872 0.962 . S
H886 C872 0.960 . S
H887 C873 0.961 . S
H888 C873 0.961 . S
H889 C873 0.961 . S
H890 C874 0.931 . S
H891 C879 0.930 . S
H892 C880 0.956 . S
H893 C880 0.961 . S
H894 C880 0.961 . S
H895 C881 0.958 . S
H896 C881 0.961 . S
H897 C881 0.960 . S
C898 C899 1.391 . S
C898 C900 1.394 . S
C898 H914 0.931 . S
C899 C898 1.391 . S
C899 C903 1.376 1_455 S
C900 C898 1.394 . S
C900 C901 1.369 . S
C900 C904 1.531 . S
C901 C900 1.369 . S
C901 C902 1.410 1_455 S
C901 C909 1.503 . S
C902 C901 1.410 1_655 S
C902 C903 1.392 . S
C902 C905 1.511 . S
C903 C899 1.376 1_655 S
C903 C902 1.392 . S
C903 H915 0.929 . S
C904 C900 1.531 . S
C904 H916 0.960 . S
C904 H917 0.962 . S
C904 H918 0.960 . S
C905 C902 1.511 . S
C905 H919 0.961 . S
C905 H920 0.961 . S
C905 H921 0.961 . S
C906 C907 1.370 . S
C906 C908 1.363 . S
C906 H922 0.931 . S
C907 C906 1.370 . S
C907 C911 1.408 . S
C908 C906 1.363 . S
C908 C909 1.370 . S
C908 C912 1.524 . S
C909 C901 1.503 . S
C909 C908 1.370 . S
C909 C910 1.403 . S
C910 C909 1.403 . S
C910 C911 1.404 . S
C910 C913 1.539 . S
C911 C907 1.408 . S
C911 C910 1.404 . S
C911 H923 0.930 . S
C912 C908 1.524 . S
C912 H924 0.956 . S
C912 H925 0.961 1_455 S
C912 H926 0.954 . S
C913 C910 1.539 . S
C913 H927 0.958 . S
C913 H928 0.961 1_455 S
C913 H929 0.960 1_455 S
H914 C898 0.931 . S
H915 C903 0.929 . S
H916 C904 0.960 . S
H917 C904 0.962 . S
H918 C904 0.960 . S
H919 C905 0.961 . S
H920 C905 0.961 . S
H921 C905 0.961 . S
H922 C906 0.931 . S
H923 C911 0.930 . S
H924 C912 0.956 . S
H925 C912 0.961 1_655 S
H926 C912 0.954 . S
H927 C913 0.958 . S
H928 C913 0.961 1_655 S
H929 C913 0.960 1_655 S
C355 C6 0.531 . S
C363 C331 0.586 . S
C387 C59 1.935 . S
C395 C258 1.890 . S
C419 C86 1.200 . S
C427 C297 1.233 . S
C451 C15 0.357 . S
C459 C336 0.294 . S
C491 C253 1.985 . S
C483 C50 2.027 . S
C523 C292 1.304 . S
C515 C95 1.305 . S
C547 C46 1.217 . S
C555 C180 1.218 . S
C579 C99 3.131 . S
C587 C214 3.083 . S
C611 C10 2.030 . S
C619 C136 2.005 . S
C651 C175 1.294 . S
C643 C55 1.293 . S
C683 C219 2.994 . S
C675 C90 3.014 . S
C707 C19 1.929 . S
C715 C141 1.897 . S
C747 C199 1.795 . S
C739 C18 1.706 . S
C771 C49 1.322 . S
C779 C121 1.377 . S
C803 C98 1.427 . S
C811 C160 1.507 . S
C843 C277 1.488 . S
C835 C58 1.409 . S
C875 C316 1.088 1_556 S
C867 C89 1.079 . S
C899 C9 1.348 . S
C907 C238 1.364 1_455 S
