# Generated by pormake.
# Topology pts, (4,4)-cn, num edge types: 1
# Building blocks:
#     Node 0, Type 0, BuildingBlock: AZAVOO_clean_linker_0, # of connection points: 4
#     Node 1, Type 0, BuildingBlock: AZAVOO_clean_linker_0, # of connection points: 4
#     Node 2, Type 1, BuildingBlock: QUQFOY_clean_sbu_1, # of connection points: 4
#     Node 3, Type 1, BuildingBlock: QUQFOY_clean_sbu_1, # of connection points: 4
#     Edge 4, Type (0, 1), BuildingBlock: MIFKUJ_clean_linker_0, # of connection points: 2
#     Edge 5, Type (0, 1), BuildingBlock: MIFKUJ_clean_linker_0, # of connection points: 2
#     Edge 6, Type (0, 1), BuildingBlock: MIFKUJ_clean_linker_0, # of connection points: 2
#     Edge 7, Type (0, 1), BuildingBlock: MIFKUJ_clean_linker_0, # of connection points: 2
#     Edge 8, Type (0, 1), BuildingBlock: MIFKUJ_clean_linker_0, # of connection points: 2
#     Edge 9, Type (0, 1), BuildingBlock: MIFKUJ_clean_linker_0, # of connection points: 2
#     Edge 10, Type (0, 1), BuildingBlock: MIFKUJ_clean_linker_0, # of connection points: 2
#     Edge 11, Type (0, 1), BuildingBlock: MIFKUJ_clean_linker_0, # of connection points: 2
# Relax obj value: 0.189
# Max RMSD: 0.245
# Mean RMSD: 0.235
data_MOF--net-pts--node1-QUQFOY_clean_sbu_1--node2-AZAVOO_clean_linker_0--edge1-MIFKUJ_clean_linker_0
_symmetry_space_group_name_H-M    P1
_symmetry_Int_Tables_number       1
_symmetry_cell_setting            triclinic
loop_
_symmetry_equiv_pos_as_xyz
'x, y, z'
_cell_length_a     31.081804
_cell_length_b     34.776252
_cell_length_c     61.072451
_cell_angle_alpha  90.786089
_cell_angle_beta   92.45318
_cell_angle_gamma 90.129496
loop_
_atom_site_label
_atom_site_type_symbol
_atom_site_fract_x
_atom_site_fract_y
_atom_site_fract_z
_atom_type_partial_charge
H0 H 0.48783 0.10199 0.86161 0.0
H1 H 0.8344 0.01647 0.03524 0.0
H2 H 0.47647 0.14204 0.97708 0.0
H3 H 0.40689 0.13939 0.95728 0.0
H4 H 0.38234 0.02823 0.98525 0.0
H5 H 0.45341 0.03034 0.004 0.0
H6 H 0.55866 0.13257 0.95046 0.0
H7 H 0.53406 0.13027 0.91186 0.0
H8 H 0.47618 0.01897 0.92174 0.0
H9 H 0.50168 0.02133 0.9602 0.0
H10 H 0.64823 0.12922 0.97601 0.0
H11 H 0.69527 0.12728 0.94485 0.0
H12 H 0.64952 0.01257 0.92829 0.0
H13 H 0.60347 0.01449 0.95981 0.0
H14 H 0.66037 0.12839 0.02728 0.0
H15 H 0.7366 0.12021 0.0379 0.0
H16 H 0.72924 0.00141 0.01611 0.0
H17 H 0.65293 0.00993 0.00577 0.0
H18 H 0.58918 0.13759 0.05479 0.0
H19 H 0.62099 0.13439 0.09204 0.0
H20 H 0.62193 0.01012 0.08693 0.0
H21 H 0.59244 0.01402 0.0493 0.0
H22 H 0.48612 0.14705 0.03118 0.0
H23 H 0.43301 0.15406 0.05948 0.0
H24 H 0.45181 0.03491 0.07676 0.0
H25 H 0.50365 0.02797 0.04799 0.0
O26 O 0.49736 0.10227 0.87691 0.0
O27 O 0.46686 0.04575 0.88306 0.0
O28 O 0.80635 0.08169 0.04227 0.0
O29 O 0.80434 0.02049 0.03121 0.0
C30 C 0.51649 0.08298 -0.00191 0.0
C31 C 0.54674 0.07862 0.98159 0.0
C32 C 0.59094 0.07496 0.98744 0.0
C33 C 0.60485 0.07462 0.0097 0.0
C34 C 0.57446 0.07815 0.02614 0.0
C35 C 0.53037 0.08275 0.02036 0.0
C36 C 0.47016 0.08615 0.99165 0.0
C37 C 0.45551 0.11763 0.97938 0.0
C38 C 0.41552 0.11609 0.96817 0.0
C39 C 0.38924 0.08322 0.96934 0.0
C40 C 0.40223 0.05353 0.98358 0.0
C41 C 0.44256 0.05488 0.99454 0.0
C42 C 0.53197 0.07712 0.9581 0.0
C43 C 0.54089 0.10764 0.94421 0.0
C44 C 0.52668 0.10628 0.92219 0.0
C45 C 0.50312 0.07444 0.91371 0.0
C46 C 0.49424 0.04392 0.92773 0.0
C47 C 0.50868 0.04522 0.94971 0.0
C48 C 0.62256 0.07201 0.97007 0.0
C49 C 0.649 0.10348 0.96583 0.0
C50 C 0.67542 0.10246 0.94793 0.0
C51 C 0.67576 0.0699 0.93403 0.0
C52 C 0.6502 0.03792 0.9388 0.0
C53 C 0.62383 0.03898 0.95671 0.0
C54 C 0.65121 0.06972 0.01583 0.0
C55 C 0.67529 0.1006 0.02489 0.0
C56 C 0.71881 0.09586 0.0309 0.0
C57 C 0.73902 0.06012 0.02787 0.0
C58 C 0.71471 0.02929 0.01868 0.0
C59 C 0.67116 0.03408 0.01272 0.0
C60 C 0.589 0.07606 0.04943 0.0
C61 C 0.59597 0.10975 0.06189 0.0
C62 C 0.61379 0.10778 0.08322 0.0
C63 C 0.62435 0.07196 0.09249 0.0
C64 C 0.61511 0.03819 0.08018 0.0
C65 C 0.598 0.04028 0.05876 0.0
C66 C 0.49871 0.08706 0.03764 0.0
C67 C 0.47862 0.12253 0.0411 0.0
C68 C 0.44861 0.12653 0.05735 0.0
C69 C 0.43824 0.09504 0.07037 0.0
C70 C 0.4587 0.05958 0.06685 0.0
C71 C 0.48856 0.05561 0.05057 0.0
C72 C 0.48794 0.07315 0.89033 0.0
C73 C 0.78524 0.05491 0.03424 0.0
H74 H 0.98137 0.54622 0.362 0.0
H75 H 0.13516 0.79955 0.56059 0.0
H76 H 0.97554 0.50374 0.47543 0.0
H77 H 0.968 0.44099 0.45696 0.0
H78 H 0.09801 0.41233 0.47859 0.0
H79 H 0.10552 0.47539 0.4968 0.0
H80 H 0.97917 0.58635 0.45527 0.0
H81 H 0.9685 0.57503 0.41578 0.0
H82 H 0.09152 0.51727 0.41498 0.0
H83 H 0.10203 0.52923 0.45443 0.0
H84 H 0.99558 0.66126 0.48658 0.0
H85 H 0.99755 0.71685 0.46264 0.0
H86 H 0.1138 0.67284 0.435 0.0
H87 H 0.1129 0.61871 0.46003 0.0
H88 H 0.00233 0.65378 0.53375 0.0
H89 H 0.01493 0.71653 0.55152 0.0
H90 H 0.14556 0.71596 0.52981 0.0
H91 H 0.13262 0.65293 0.51233 0.0
H92 H 0.00209 0.58494 0.55868 0.0
H93 H 0.01284 0.62283 0.59244 0.0
H94 H 0.14947 0.62778 0.58217 0.0
H95 H 0.13809 0.59074 0.54813 0.0
H96 H 0.98601 0.49259 0.52548 0.0
H97 H 0.9849 0.43498 0.54762 0.0
H98 H 0.1166 0.45759 0.57021 0.0
H99 H 0.11841 0.51311 0.54633 0.0
O100 O 0.98635 0.55055 0.37759 0.0
O101 O 0.04968 0.52087 0.3781 0.0
O102 O 0.06093 0.77495 0.56304 0.0
O103 O 0.12901 0.77519 0.55323 0.0
C104 C 0.04735 0.53379 0.49621 0.0
C105 C 0.04752 0.56523 0.48172 0.0
C106 C 0.05356 0.60298 0.49011 0.0
C107 C 0.05999 0.6092 0.51286 0.0
C108 C 0.06085 0.57769 0.52727 0.0
C109 C 0.05379 0.54002 0.51906 0.0
C110 C 0.04123 0.49421 0.48721 0.0
C111 C 0.00223 0.48376 0.47633 0.0
C112 C 0.99797 0.448 0.46584 0.0
C113 C 0.03251 0.42199 0.46629 0.0
C114 C 0.07078 0.43174 0.47817 0.0
C115 C 0.07517 0.46771 0.48849 0.0
C116 C 0.04134 0.55861 0.45769 0.0
C117 C 0.00385 0.57144 0.4465 0.0
C118 C 0.9978 0.56484 0.42396 0.0
C119 C 0.02914 0.5452 0.41222 0.0
C120 C 0.06673 0.53245 0.42352 0.0
C121 C 0.07279 0.53918 0.44605 0.0
C122 C 0.05416 0.63608 0.47507 0.0
C123 C 0.02164 0.6639 0.47547 0.0
C124 C 0.02262 0.69542 0.46161 0.0
C125 C 0.05584 0.69939 0.44684 0.0
C126 C 0.08816 0.67114 0.4464 0.0
C127 C 0.08747 0.63993 0.4605 0.0
C128 C 0.0666 0.64886 0.52182 0.0
C129 C 0.03355 0.66741 0.53274 0.0
C130 C 0.04084 0.70321 0.54288 0.0
C131 C 0.08132 0.72122 0.54213 0.0
C132 C 0.11406 0.70287 0.53073 0.0
C133 C 0.10673 0.66699 0.52063 0.0
C134 C 0.06925 0.58549 0.55094 0.0
C135 C 0.03456 0.59256 0.56432 0.0
C136 C 0.04082 0.61437 0.58358 0.0
C137 C 0.08192 0.62904 0.58966 0.0
C138 C 0.11734 0.61753 0.57763 0.0
C139 C 0.11101 0.59594 0.55836 0.0
C140 C 0.05227 0.50711 0.53427 0.0
C141 C 0.01466 0.48495 0.53516 0.0
C142 C 0.01401 0.45217 0.54805 0.0
C143 C 0.05068 0.44135 0.56083 0.0
C144 C 0.08798 0.46437 0.56031 0.0
C145 C 0.0889 0.49663 0.54697 0.0
C146 C 0.02251 0.53807 0.38829 0.0
C147 C 0.0896 0.75876 0.55341 0.0
O148 O 0.99671 0.04097 0.24261 0.0
Cd149 Cd 0.05798 0.03545 0.25597 0.0
Cd150 Cd 0.05357 0.11133 0.26284 0.0
O151 O 0.99194 0.10314 0.2496 0.0
O152 O 0.0656 0.98108 0.26485 0.0
O153 O 0.06531 0.03016 0.28842 0.0
C154 C 0.06781 0.99355 0.28487 0.0
C155 C 0.05821 0.14603 0.29566 0.0
C156 C 0.97523 0.07198 0.24217 0.0
C157 C 0.12202 0.08328 0.23341 0.0
O158 O 0.10482 0.11235 0.24232 0.0
O159 O 0.1083 0.04962 0.23697 0.0
O160 O 0.05183 0.16287 0.27713 0.0
O161 O 0.06325 0.10919 0.29551 0.0
O162 O 0.98583 0.09407 0.75749 0.0
Cd163 Cd 0.047 0.0972 0.74609 0.0
Cd164 Cd 0.04482 0.0194 0.74832 0.0
O165 O 0.98357 0.03077 0.75801 0.0
O166 O 0.05343 0.15066 0.73589 0.0
O167 O 0.05527 0.09993 0.71362 0.0
C168 C 0.05701 0.13682 0.71638 0.0
C169 C 0.05204 0.96701 0.72456 0.0
C170 C 0.9659 0.06312 0.76128 0.0
C171 C 0.11016 0.06022 0.77771 0.0
O172 O 0.09399 0.02814 0.77148 0.0
O173 O 0.09669 0.09127 0.76915 0.0
O174 O 0.04306 0.96263 0.74475 0.0
O175 O 0.05721 0.00158 0.71766 0.0
H176 H 0.37517 0.04382 0.07962 0.0
H177 H 0.32219 0.04931 0.10778 0.0
H178 H 0.37327 0.16074 0.12711 0.0
H179 H 0.42771 0.15478 0.0994 0.0
H180 H 0.35831 0.11829 0.16231 0.0
H181 H 0.27872 0.15426 0.0979 0.0
H182 H 0.2514 0.14944 0.05947 0.0
H183 H 0.18794 0.04313 0.07304 0.0
H184 H 0.21542 0.04699 0.1115 0.0
H185 H 0.16998 0.14814 0.22687 0.0
H186 H 0.22487 0.15691 0.19964 0.0
H187 H 0.20617 0.03962 0.17738 0.0
H188 H 0.15194 0.03039 0.20455 0.0
H189 H 0.20334 0.09566 0.14349 0.0
H190 H 0.29091 0.05855 0.20748 0.0
H191 H 0.31826 0.0655 0.24583 0.0
H192 H 0.36547 0.1786 0.23258 0.0
H193 H 0.33782 0.1725 0.19419 0.0
C194 C 0.37544 0.06936 0.08998 0.0
C195 C 0.40566 0.09886 0.08729 0.0
C196 C 0.34481 0.07266 0.1059 0.0
C197 C 0.34339 0.10569 0.11931 0.0
C198 C 0.37368 0.13512 0.11683 0.0
C199 C 0.4045 0.13179 0.1009 0.0
C200 C 0.31058 0.10884 0.13612 0.0
C201 C 0.32432 0.11413 0.15815 0.0
C202 C 0.26627 0.10321 0.13069 0.0
C203 C 0.24941 0.1008 0.10757 0.0
C204 C 0.25919 0.12971 0.09267 0.0
C205 C 0.24364 0.12716 0.07087 0.0
C206 C 0.21801 0.09596 0.06381 0.0
C207 C 0.20781 0.06728 0.07854 0.0
C208 C 0.22333 0.06965 0.10034 0.0
C209 C 0.17778 0.12417 0.21625 0.0
C210 C 0.15665 0.08856 0.21786 0.0
C211 C 0.2091 0.12924 0.20076 0.0
C212 C 0.21936 0.0989 0.18655 0.0
C213 C 0.19851 0.06336 0.1882 0.0
C214 C 0.16771 0.05812 0.20381 0.0
C215 C 0.2513 0.104 0.1696 0.0
C216 C 0.23728 0.10038 0.14754 0.0
C217 C 0.29518 0.11162 0.175 0.0
C218 C 0.31181 0.11526 0.19805 0.0
C219 C 0.30673 0.08505 0.2128 0.0
C220 C 0.32238 0.0888 0.23453 0.0
C221 C 0.34346 0.12252 0.24166 0.0
C222 C 0.34905 0.15253 0.22705 0.0
C223 C 0.33341 0.14893 0.2053 0.0
H224 H 0.35557 0.12537 0.25849 0.0
H225 H 0.206 0.09405 0.04693 0.0
H226 H 0.11709 0.39125 0.57046 0.0
H227 H 0.11659 0.33587 0.59432 0.0
H228 H 0.98154 0.35386 0.60457 0.0
H229 H 0.98276 0.41146 0.58254 0.0
H230 H 0.01611 0.33921 0.64067 0.0
H231 H 0.02273 0.2776 0.57118 0.0
H232 H 0.04946 0.26403 0.53444 0.0
H233 H 0.17176 0.23009 0.56322 0.0
H234 H 0.14597 0.24398 0.60013 0.0
H235 H 0.03379 0.12371 0.67315 0.0
H236 H 0.03138 0.17125 0.64377 0.0
H237 H 0.08868 0.25591 0.68846 0.0
H238 H 0.08936 0.20926 0.71791 0.0
H239 H 0.08436 0.21457 0.62258 0.0
H240 H 0.04457 0.34135 0.68175 0.0
H241 H 0.00775 0.35155 0.71634 0.0
H242 H 0.93285 0.24909 0.7038 0.0
H243 H 0.96874 0.23859 0.669 0.0
C244 C 0.08736 0.3839 0.57802 0.0
C245 C 0.05 0.40622 0.57454 0.0
C246 C 0.08693 0.3516 0.59136 0.0
C247 C 0.04884 0.34012 0.601 0.0
C248 C 0.01136 0.36196 0.59729 0.0
C249 C 0.012 0.39477 0.5844 0.0
C250 C 0.04861 0.3068 0.616 0.0
C251 C 0.03086 0.31195 0.63658 0.0
C252 C 0.06688 0.27074 0.6106 0.0
C253 C 0.0825 0.26213 0.58843 0.0
C254 C 0.05542 0.26749 0.56968 0.0
C255 C 0.07039 0.25971 0.54882 0.0
C256 C 0.11231 0.24628 0.5465 0.0
C257 C 0.1393 0.24052 0.56504 0.0
C258 C 0.12451 0.2483 0.58594 0.0
C259 C 0.04628 0.15237 0.67656 0.0
C260 C 0.06113 0.16307 0.69784 0.0
C261 C 0.04493 0.17946 0.65979 0.0
C262 C 0.05885 0.21741 0.66407 0.0
C263 C 0.07659 0.22714 0.68494 0.0
C264 C 0.07713 0.20042 0.70173 0.0
C265 C 0.05281 0.24759 0.64727 0.0
C266 C 0.06936 0.24182 0.62646 0.0
C267 C 0.03183 0.28262 0.65206 0.0
C268 C 0.00965 0.28903 0.67285 0.0
C269 C 0.02009 0.32111 0.68632 0.0
C270 C -0.00059 0.32692 0.70598 0.0
C271 C 0.96807 0.30092 0.7123 0.0
C272 C 0.95723 0.26914 0.69893 0.0
C273 C 0.97776 0.26322 0.67925 0.0
H274 H 0.95214 0.30545 0.72753 0.0
H275 H 0.12384 0.24029 0.53033 0.0
H276 H 0.68912 0.02258 0.1044 0.0
H277 H 0.73346 0.02309 0.13811 0.0
H278 H 0.66097 0.11871 0.16278 0.0
H279 H 0.61482 0.11752 0.12922 0.0
H280 H 0.74958 0.13142 0.16299 0.0
H281 H 0.65446 0.03746 0.18899 0.0
H282 H 0.60954 0.9789 0.18743 0.0
H283 H 0.72191 0.90955 0.17906 0.0
H284 H 0.76748 0.96771 0.18023 0.0
H285 H 0.91244 0.12557 0.24816 0.0
H286 H 0.83989 0.12652 0.23097 0.0
H287 H 0.86601 0.02003 0.19694 0.0
H288 H 0.93766 0.0181 0.21476 0.0
H289 H 0.78686 0.01922 0.20931 0.0
H290 H 0.87685 0.11234 0.17333 0.0
H291 H 0.92322 0.16992 0.17227 0.0
H292 H 0.82159 0.23939 0.19703 0.0
H293 H 0.7748 0.18209 0.19845 0.0
C294 C 0.68143 0.04294 0.11721 0.0
C295 C 0.64824 0.06999 0.11404 0.0
C296 C 0.70701 0.04325 0.13649 0.0
C297 C 0.70021 0.07072 0.15298 0.0
C298 C 0.66652 0.0972 0.15023 0.0
C299 C 0.64047 0.09663 0.13098 0.0
C300 C 0.73163 0.07399 0.17176 0.0
C301 C 0.75703 0.10732 0.17359 0.0
C302 C 0.74162 0.04225 0.18524 0.0
C303 C 0.7144 0.00705 0.18463 0.0
C304 C 0.66959 0.00976 0.18667 0.0
C305 C 0.644 0.97661 0.18588 0.0
C306 C 0.66286 0.94053 0.18313 0.0
C307 C 0.70735 0.93751 0.18121 0.0
C308 C 0.73309 0.97057 0.18198 0.0
C309 C 0.90253 0.10225 0.23712 0.0
C310 C 0.93084 0.07195 0.23261 0.0
C311 C 0.86111 0.10285 0.2273 0.0
C312 C 0.84774 0.07367 0.21239 0.0
C313 C 0.87555 0.04283 0.20842 0.0
C314 C 0.91661 0.04185 0.21852 0.0
C315 C 0.806 0.07598 0.1998 0.0
C316 C 0.77867 0.04374 0.19917 0.0
C317 C 0.7945 0.10853 0.18717 0.0
C318 C 0.82258 0.14292 0.18626 0.0
C319 C 0.86453 0.13987 0.17868 0.0
C320 C 0.89086 0.17244 0.178 0.0
C321 C 0.87541 0.20826 0.18465 0.0
C322 C 0.83355 0.21161 0.19193 0.0
C323 C 0.80711 0.17911 0.19268 0.0
H324 H 0.89584 0.23345 0.18411 0.0
H325 H 0.64299 0.91491 0.18252 0.0
H326 H 0.04437 0.63636 0.62937 0.0
H327 H 0.04315 0.69405 0.65281 0.0
H328 H 0.1269 0.7522 0.60939 0.0
H329 H 0.12832 0.69494 0.586 0.0
H330 H 0.14767 0.77026 0.65174 0.0
H331 H 0.02186 0.76623 0.60439 0.0
H332 H 0.95644 0.73746 0.58673 0.0
H333 H 0.89959 0.72915 0.64936 0.0
H334 H 0.9651 0.75725 0.66745 0.0
H335 H 0.09074 0.96246 0.6851 0.0
H336 H 0.09938 0.90466 0.66211 0.0
H337 H 0.03078 0.83771 0.70831 0.0
H338 H 0.02259 0.89484 0.73141 0.0
H339 H 0.00336 0.8259 0.66337 0.0
H340 H 0.13323 0.83021 0.71013 0.0
H341 H 0.19941 0.86053 0.72606 0.0
H342 H 0.24851 0.87162 0.66178 0.0
H343 H 0.18228 0.84185 0.64544 0.0
C344 C 0.06299 0.66127 0.62503 0.0
C345 C 0.08642 0.66107 0.60586 0.0
C346 C 0.06224 0.69417 0.63838 0.0
C347 C 0.0845 0.72751 0.63264 0.0
C348 C 0.10964 0.72674 0.61415 0.0
C349 C 0.11055 0.69387 0.60085 0.0
C350 C 0.07936 0.76392 0.64508 0.0
C351 C 0.11617 0.78264 0.65409 0.0
C352 C 0.03823 0.78004 0.64812 0.0
C353 C -0.00143 0.76348 0.6373 0.0
C354 C 0.99555 0.75799 0.61442 0.0
C355 C 0.95844 0.74183 0.60432 0.0
C356 C 0.9239 0.7314 0.61692 0.0
C357 C 0.92639 0.73719 0.63963 0.0
C358 C 0.96351 0.75324 0.64982 0.0
C359 C 0.0774 0.93542 0.69027 0.0
C360 C 0.05614 0.93307 0.71006 0.0
C361 C 0.08246 0.90251 0.6772 0.0
C362 C 0.06583 0.86703 0.68364 0.0
C363 C 0.04381 0.86487 0.70311 0.0
C364 C 0.03932 0.8975 0.7163 0.0
C365 C 0.07157 0.83184 0.67028 0.0
C366 C 0.03483 0.81346 0.661 0.0
C367 C 0.11278 0.8164 0.66673 0.0
C368 C 0.1526 0.83423 0.67654 0.0
C369 C 0.15795 0.83946 0.69937 0.0
C370 C 0.19551 0.85647 0.70848 0.0
C371 C 0.22809 0.86811 0.69494 0.0
C372 C 0.22321 0.86266 0.67225 0.0
C373 C 0.18569 0.8457 0.66306 0.0
H374 H 0.25715 0.88125 0.70202 0.0
H375 H 0.89517 0.7189 0.60908 0.0
H376 H 0.33096 0.13719 0.95437 0.0
H377 H 0.28019 0.13054 0.92296 0.0
H378 H 0.31172 0.01012 0.91726 0.0
H379 H 0.36454 0.0171 0.94759 0.0
H380 H 0.31729 0.04146 0.87966 0.0
H381 H 0.21102 0.04286 0.93373 0.0
H382 H 0.17335 0.0666 0.96593 0.0
H383 H 0.14356 0.17206 0.93291 0.0
H384 H 0.18158 0.14918 0.9006 0.0
H385 H 0.15092 -9e-05 0.79798 0.0
H386 H 0.19654 0.00214 0.83159 0.0
H387 H 0.18551 0.12571 0.83394 0.0
H388 H 0.13994 0.12388 0.80034 0.0
H389 H 0.16757 0.09038 0.87345 0.0
H390 H 0.27704 0.08743 0.81971 0.0
H391 H 0.31379 0.06136 0.78776 0.0
H392 H 0.33551 0.95477 0.82108 0.0
H393 H 0.29835 0.98004 0.85313 0.0
C394 C 0.32683 0.10921 0.94655 0.0
C395 C 0.35211 0.07778 0.95347 0.0
C396 C 0.2974 0.10534 0.92873 0.0
C397 C 0.29202 0.06977 0.91777 0.0
C398 C 0.31538 0.03786 0.92544 0.0
C399 C 0.34522 0.04182 0.94303 0.0
C400 C 0.26521 0.06663 0.89715 0.0
C401 C 0.28426 0.05151 0.87845 0.0
C402 C 0.22246 0.08055 0.8954 0.0
C403 C 0.1995 0.09442 0.9148 0.0
C404 C 0.19673 0.07124 0.93339 0.0
C405 C 0.17526 0.08452 0.95166 0.0
C406 C 0.15616 0.12085 0.95149 0.0
C407 C 0.1584 0.14394 0.93302 0.0
C408 C 0.17987 0.13081 0.91472 0.0
C409 C 0.15863 0.02761 0.80548 0.0
C410 C 0.14177 0.06172 0.79649 0.0
C411 C 0.18468 0.02881 0.82467 0.0
C412 C 0.19424 0.06409 0.83521 0.0
C413 C 0.1783 0.09822 0.82605 0.0
C414 C 0.15252 0.0971 0.80677 0.0
C415 C 0.21979 0.06531 0.85617 0.0
C416 C 0.2005 0.08012 0.87484 0.0
C417 C 0.26213 0.05069 0.85798 0.0
C418 C 0.2845 0.03549 0.83872 0.0
C419 C 0.28931 0.05831 0.82015 0.0
C420 C 0.31029 0.04371 0.80204 0.0
C421 C 0.32686 0.00639 0.80237 0.0
C422 C 0.32259 0.98364 0.82083 0.0
C423 C 0.30161 0.9981 0.83898 0.0
H424 H 0.3431 0.99514 0.78833 0.0
H425 H 0.13955 0.13108 0.96565 0.0
H426 H 0.05552 0.34877 0.47803 0.0
H427 H 0.05603 0.29139 0.45415 0.0
H428 H 0.00646 0.3589 0.39993 0.0
H429 H 0.00495 0.41561 0.42372 0.0
H430 H 0.96874 0.29176 0.39896 0.0
H431 H 0.11698 0.33763 0.40932 0.0
H432 H 0.18256 0.354 0.43174 0.0
H433 H 0.18845 0.23864 0.45588 0.0
H434 H 0.12259 0.22174 0.43376 0.0
H435 H 0.04171 0.2223 0.30053 0.0
H436 H 0.03476 0.25864 0.33456 0.0
H437 H 0.06555 0.1572 0.37185 0.0
H438 H 0.07248 0.12017 0.33762 0.0
H439 H 0.10836 0.22726 0.38733 0.0
H440 H 0.9667 0.17983 0.36977 0.0
H441 H 0.90301 0.16553 0.34555 0.0
H442 H 0.88584 0.28601 0.33357 0.0
H443 H 0.94983 0.30102 0.35745 0.0
C444 C 0.04442 0.35108 0.46104 0.0
C445 C 0.0301 0.3865 0.45268 0.0
C446 C 0.04479 0.3184 0.44743 0.0
C447 C 0.03171 0.32094 0.42519 0.0
C448 C 0.01645 0.35615 0.41705 0.0
C449 C 0.01555 0.38856 0.43066 0.0
C450 C 0.03543 0.28784 0.40984 0.0
C451 C -0.00073 0.27764 0.39645 0.0
C452 C 0.07493 0.26849 0.40701 0.0
C453 C 0.11466 0.27857 0.42011 0.0
C454 C 0.13215 0.31584 0.41951 0.0
C455 C 0.16937 0.3252 0.43215 0.0
C456 C 0.18958 0.29741 0.44528 0.0
C457 C 0.17271 0.26016 0.44574 0.0
C458 C 0.13546 0.25067 0.43316 0.0
C459 C 0.04731 0.20764 0.31592 0.0
C460 C 0.05741 0.1683 0.31639 0.0
C461 C 0.04317 0.22845 0.33535 0.0
C462 C 0.04905 0.2104 0.35563 0.0
C463 C 0.06067 0.17148 0.35629 0.0
C464 C 0.06457 0.15045 0.33676 0.0
C465 C 0.04218 0.23269 0.37594 0.0
C466 C 0.07762 0.24069 0.39025 0.0
C467 C 0.00213 0.25036 0.37951 0.0
C468 C 0.96321 0.24152 0.36535 0.0
C469 C 0.9495 0.20327 0.36187 0.0
C470 C 0.91332 0.19504 0.34821 0.0
C471 C 0.89042 0.22484 0.33801 0.0
C472 C 0.9036 0.26295 0.34149 0.0
C473 C 0.93979 0.27135 0.35512 0.0
H474 H 0.86243 0.21841 0.32743 0.0
H475 H 0.21838 0.30471 0.45506 0.0
H476 H 0.68469 0.12782 0.9048 0.0
H477 H 0.72766 0.12751 0.87219 0.0
H478 H 0.76698 0.01094 0.88554 0.0
H479 H 0.7252 0.01148 0.91857 0.0
H480 H 0.834 0.05461 0.87594 0.0
H481 H 0.69216 0.03041 0.84504 0.0
H482 H 0.61463 0.04255 0.83833 0.0
H483 H 0.64326 0.15099 0.80941 0.0
H484 H 0.721 0.13978 0.81626 0.0
H485 H 0.9211 0.00275 0.77706 0.0
H486 H 0.86329 0.00601 0.80271 0.0
H487 H 0.85935 0.12933 0.7969 0.0
H488 H 0.91793 0.12662 0.77133 0.0
H489 H 0.77336 0.08452 0.80157 0.0
H490 H 0.91568 0.10896 0.83492 0.0
H491 H 0.99293 0.09472 0.84098 0.0
H492 H 0.9617 0.98306 0.86503 0.0
H493 H 0.88421 0.99644 0.85873 0.0
C494 C 0.70281 0.10225 0.90088 0.0
C495 C 0.70172 0.0697 0.91426 0.0
C496 C 0.7269 0.10196 0.88212 0.0
C497 C 0.75007 0.06905 0.87634 0.0
C498 C 0.74915 0.03657 0.88969 0.0
C499 C 0.7251 0.03684 0.90846 0.0
C500 C 0.77652 0.06886 0.85677 0.0
C501 C 0.82054 0.06074 0.85968 0.0
C502 C 0.75913 0.07767 0.83561 0.0
C503 C 0.71241 0.08443 0.83138 0.0
C504 C 0.68193 0.057 0.83742 0.0
C505 C 0.63794 0.06369 0.83356 0.0
C506 C 0.62402 0.09757 0.82351 0.0
C507 C 0.65408 0.12479 0.81723 0.0
C508 C 0.69812 0.11827 0.82108 0.0
C509 C 0.90731 0.03055 0.78072 0.0
C510 C 0.92468 0.06452 0.77246 0.0
C511 C 0.87419 0.03229 0.79536 0.0
C512 C 0.85759 0.06791 0.80177 0.0
C513 C 0.87191 0.10161 0.79205 0.0
C514 C 0.90547 0.09997 0.77754 0.0
C515 C 0.83036 0.07005 0.82091 0.0
C516 C 0.7865 0.07854 0.81791 0.0
C517 C 0.84771 0.06146 0.84203 0.0
C518 C 0.89422 0.05353 0.84611 0.0
C519 C 0.92531 0.08124 0.8413 0.0
C520 C 0.96913 0.07335 0.84481 0.0
C521 C 0.98223 0.03796 0.85332 0.0
C522 C 0.95151 0.01044 0.8584 0.0
C523 C 0.90764 0.01816 0.85487 0.0
H524 H 0.01617 0.03191 0.85603 0.0
H525 H 0.58995 0.10269 0.82054 0.0
H526 H 0.1261 0.73979 0.43394 0.0
H527 H 0.12735 0.79248 0.40808 0.0
H528 H 0.98865 0.78876 0.40092 0.0
H529 H 0.9873 0.7343 0.42558 0.0
H530 H 0.01886 0.79515 0.36306 0.0
H531 H 0.04421 0.8614 0.43096 0.0
H532 H 0.07905 0.87539 0.46723 0.0
H533 H 0.19923 0.89618 0.43726 0.0
H534 H 0.16525 0.88179 0.40081 0.0
H535 H 0.05119 0.00743 0.32781 0.0
H536 H 0.04855 0.9603 0.35713 0.0
H537 H 0.09001 0.8716 0.31268 0.0
H538 H 0.0911 0.91818 0.28318 0.0
H539 H 0.10231 0.91516 0.378 0.0
H540 H 0.04125 0.78828 0.32183 0.0
H541 H 0.99801 0.77821 0.28739 0.0
H542 H 0.93366 0.88572 0.29752 0.0
H543 H 0.97607 0.89617 0.33215 0.0
C544 C 0.09585 0.74986 0.4267 0.0
C545 C 0.05659 0.73266 0.43185 0.0
C546 C 0.09659 0.78044 0.41216 0.0
C547 C 0.05805 0.79499 0.40278 0.0
C548 C 0.0188 0.77812 0.40801 0.0
C549 C 0.01807 0.7472 0.42232 0.0
C550 C 0.05878 0.82673 0.38682 0.0
C551 C 0.03702 0.82142 0.36639 0.0
C552 C 0.08166 0.86142 0.39129 0.0
C553 C 0.10225 0.87019 0.41317 0.0
C554 C 0.07815 0.86868 0.43212 0.0
C555 C 0.09773 0.87672 0.45271 0.0
C556 C 0.14135 0.88658 0.45456 0.0
C557 C 0.16545 0.88851 0.4358 0.0
C558 C 0.14604 0.88045 0.41517 0.0
C559 C 0.06005 0.97793 0.32436 0.0
C560 C 0.07084 0.96633 0.30317 0.0
C561 C 0.05859 0.95106 0.34112 0.0
C562 C 0.06821 0.91228 0.33697 0.0
C563 C 0.08135 0.90117 0.31611 0.0
C564 C 0.08216 0.92784 0.29929 0.0
C565 C 0.06313 0.88313 0.35417 0.0
C566 C 0.08406 0.88892 0.37477 0.0
C567 C 0.03822 0.84942 0.35017 0.0
C568 C 0.01215 0.84315 0.32948 0.0
C569 C 0.01774 0.80968 0.31675 0.0
C570 C 0.9934 0.80393 0.29719 0.0
C571 C 0.9632 0.83137 0.29024 0.0
C572 C 0.95716 0.86455 0.30288 0.0
C573 C 0.98138 0.87042 0.32247 0.0
H574 H 0.94443 0.82687 0.27508 0.0
H575 H 0.15645 0.8928 0.47051 0.0
loop_
_geom_bond_atom_site_label_1
_geom_bond_atom_site_label_2
_geom_bond_distance
_geom_bond_site_symmetry_2
_ccdc_geom_bond_type
H0 O26 0.856 . S
H1 O29 0.854 . S
H2 C37 0.930 . S
H3 C38 0.930 . S
H4 C40 0.930 . S
H5 C41 0.930 . S
H6 C43 0.931 . S
H7 C44 0.930 . S
H8 C46 0.930 . S
H9 C47 0.929 . S
H10 C49 0.930 . S
H11 C50 0.931 . S
H12 C52 0.927 1_565 S
H13 C53 0.929 . S
H14 C55 0.931 . S
H15 C56 0.930 . S
H16 C58 0.930 . S
H17 C59 0.932 . S
H18 C61 0.930 . S
H19 C62 0.929 . S
H20 C64 0.931 . S
H21 C65 0.930 . S
H22 C67 0.929 . S
H23 C68 0.931 . S
H24 C70 0.930 . S
H25 C71 0.929 . S
O26 H0 0.856 . S
O26 C72 1.300 . S
O27 C72 1.209 . S
O28 C73 1.199 . S
O29 H1 0.854 . S
O29 C73 1.297 . S
C30 C31 1.404 . S
C30 C35 1.397 1_556 S
C30 C36 1.492 . S
C31 C30 1.404 . S
C31 C32 1.396 . S
C31 C42 1.492 . S
C32 C31 1.396 . S
C32 C33 1.397 1_556 S
C32 C48 1.509 . S
C33 C32 1.397 1_554 S
C33 C34 1.412 . S
C33 C54 1.485 . S
C34 C33 1.412 . S
C34 C35 1.388 . S
C34 C60 1.490 . S
C35 C30 1.397 1_554 S
C35 C34 1.388 . S
C35 C66 1.519 . S
C36 C30 1.492 . S
C36 C37 1.363 . S
C36 C41 1.390 . S
C37 H2 0.930 . S
C37 C36 1.363 . S
C37 C38 1.372 . S
C38 H3 0.930 . S
C38 C37 1.372 . S
C38 C39 1.383 . S
C39 C38 1.383 . S
C39 C40 1.395 . S
C40 H4 0.930 . S
C40 C39 1.395 . S
C40 C41 1.362 . S
C41 H5 0.930 . S
C41 C36 1.390 . S
C41 C40 1.362 . S
C42 C31 1.492 . S
C42 C43 1.377 . S
C42 C47 1.397 . S
C43 H6 0.931 . S
C43 C42 1.377 . S
C43 C44 1.376 . S
C44 H7 0.930 . S
C44 C43 1.376 . S
C44 C45 1.376 . S
C45 C44 1.376 . S
C45 C46 1.378 . S
C45 C72 1.486 . S
C46 H8 0.930 . S
C46 C45 1.378 . S
C46 C47 1.376 . S
C47 H9 0.929 . S
C47 C42 1.397 . S
C47 C46 1.376 . S
C48 C32 1.509 . S
C48 C49 1.391 . S
C48 C53 1.386 . S
C49 H10 0.930 . S
C49 C48 1.391 . S
C49 C50 1.375 . S
C50 H11 0.931 . S
C50 C49 1.375 . S
C50 C51 1.375 . S
C51 C50 1.375 . S
C51 C52 1.361 . S
C52 H12 0.927 1_545 S
C52 C51 1.361 . S
C52 C53 1.399 . S
C53 H13 0.929 . S
C53 C48 1.386 . S
C53 C52 1.399 . S
C54 C33 1.485 . S
C54 C55 1.394 . S
C54 C59 1.360 . S
C55 H14 0.931 . S
C55 C54 1.394 . S
C55 C56 1.372 . S
C56 H15 0.930 . S
C56 C55 1.372 . S
C56 C57 1.397 . S
C57 C56 1.397 . S
C57 C58 1.390 . S
C57 C73 1.476 . S
C58 H16 0.930 . S
C58 C57 1.390 . S
C58 C59 1.366 . S
C59 H17 0.932 . S
C59 C54 1.360 . S
C59 C58 1.366 . S
C60 C34 1.490 . S
C60 C61 1.380 . S
C60 C65 1.386 . S
C61 H18 0.930 . S
C61 C60 1.380 . S
C61 C62 1.381 . S
C62 H19 0.929 . S
C62 C61 1.381 . S
C62 C63 1.371 . S
C63 C62 1.371 . S
C63 C64 1.380 . S
C64 H20 0.931 . S
C64 C63 1.380 . S
C64 C65 1.387 . S
C65 H21 0.930 . S
C65 C60 1.386 . S
C65 C64 1.387 . S
C66 C35 1.519 . S
C66 C67 1.377 . S
C66 C71 1.361 . S
C67 H22 0.929 . S
C67 C66 1.377 . S
C67 C68 1.386 . S
C68 H23 0.931 . S
C68 C67 1.386 . S
C68 C69 1.363 . S
C69 C68 1.363 . S
C69 C70 1.385 . S
C70 H24 0.930 . S
C70 C69 1.385 . S
C70 C71 1.396 . S
C71 H25 0.929 . S
C71 C66 1.361 . S
C71 C70 1.396 . S
C72 O26 1.300 . S
C72 O27 1.209 . S
C72 C45 1.486 . S
C73 O28 1.199 . S
C73 O29 1.297 . S
C73 C57 1.476 . S
H74 O100 0.856 . S
H75 O103 0.854 . S
H76 C111 0.930 1_655 S
H77 C112 0.930 1_655 S
H78 C114 0.930 . S
H79 C115 0.930 . S
H80 C117 0.931 . S
H81 C118 0.930 . S
H82 C120 0.930 . S
H83 C121 0.929 . S
H84 C123 0.932 . S
H85 C124 0.931 . S
H86 C126 0.930 . S
H87 C127 0.929 . S
H88 C129 0.931 1_655 S
H89 C130 0.930 . S
H90 C132 0.930 . S
H91 C133 0.932 . S
H92 C135 0.930 1_655 S
H93 C136 0.929 1_655 S
H94 C138 0.931 . S
H95 C139 0.930 . S
H96 C141 0.929 1_655 S
H97 C142 0.933 . S
H98 C144 0.930 . S
H99 C145 0.929 . S
O100 H74 0.856 . S
O100 C146 1.300 . S
O101 C146 1.209 . S
O102 C147 1.199 . S
O103 H75 0.854 . S
O103 C147 1.297 . S
C104 C105 1.404 . S
C104 C109 1.397 . S
C104 C110 1.492 . S
C105 C104 1.404 . S
C105 C106 1.396 . S
C105 C116 1.492 . S
C106 C105 1.396 . S
C106 C107 1.397 . S
C106 C122 1.509 . S
C107 C106 1.397 . S
C107 C108 1.412 . S
C107 C128 1.485 . S
C108 C107 1.412 . S
C108 C109 1.388 . S
C108 C134 1.490 . S
C109 C104 1.397 . S
C109 C108 1.388 . S
C109 C140 1.519 . S
C110 C104 1.492 . S
C110 C111 1.363 . S
C110 C115 1.390 . S
C111 H76 0.930 1_455 S
C111 C110 1.363 . S
C111 C112 1.372 . S
C112 H77 0.930 1_455 S
C112 C111 1.372 . S
C112 C113 1.383 . S
C113 C112 1.383 . S
C113 C114 1.395 . S
C114 H78 0.930 . S
C114 C113 1.395 . S
C114 C115 1.362 . S
C115 H79 0.930 . S
C115 C110 1.390 . S
C115 C114 1.362 . S
C116 C105 1.492 . S
C116 C117 1.377 . S
C116 C121 1.397 . S
C117 H80 0.931 . S
C117 C116 1.377 . S
C117 C118 1.376 . S
C118 H81 0.930 . S
C118 C117 1.376 . S
C118 C119 1.376 . S
C119 C118 1.376 . S
C119 C120 1.378 . S
C119 C146 1.486 . S
C120 H82 0.930 . S
C120 C119 1.378 . S
C120 C121 1.376 . S
C121 H83 0.929 . S
C121 C116 1.397 . S
C121 C120 1.376 . S
C122 C106 1.509 . S
C122 C123 1.391 . S
C122 C127 1.386 . S
C123 H84 0.932 . S
C123 C122 1.391 . S
C123 C124 1.375 . S
C124 H85 0.931 . S
C124 C123 1.375 . S
C124 C125 1.375 . S
C125 C124 1.375 . S
C125 C126 1.361 . S
C126 H86 0.930 . S
C126 C125 1.361 . S
C126 C127 1.399 . S
C127 H87 0.929 . S
C127 C122 1.386 . S
C127 C126 1.399 . S
C128 C107 1.485 . S
C128 C129 1.394 . S
C128 C133 1.360 . S
C129 H88 0.931 1_455 S
C129 C128 1.394 . S
C129 C130 1.372 . S
C130 H89 0.930 . S
C130 C129 1.372 . S
C130 C131 1.397 . S
C131 C130 1.397 . S
C131 C132 1.390 . S
C131 C147 1.476 . S
C132 H90 0.930 . S
C132 C131 1.390 . S
C132 C133 1.366 . S
C133 H91 0.932 . S
C133 C128 1.360 . S
C133 C132 1.366 . S
C134 C108 1.490 . S
C134 C135 1.380 . S
C134 C139 1.386 . S
C135 H92 0.930 1_455 S
C135 C134 1.380 . S
C135 C136 1.381 . S
C136 H93 0.929 1_455 S
C136 C135 1.381 . S
C136 C137 1.371 . S
C137 C136 1.371 . S
C137 C138 1.380 . S
C138 H94 0.931 . S
C138 C137 1.380 . S
C138 C139 1.387 . S
C139 H95 0.930 . S
C139 C134 1.386 . S
C139 C138 1.387 . S
C140 C109 1.519 . S
C140 C141 1.377 . S
C140 C145 1.361 . S
C141 H96 0.929 1_455 S
C141 C140 1.377 . S
C141 C142 1.386 . S
C142 H97 0.933 . S
C142 C141 1.386 . S
C142 C143 1.363 . S
C143 C142 1.363 . S
C143 C144 1.385 . S
C144 H98 0.930 . S
C144 C143 1.385 . S
C144 C145 1.396 . S
C145 H99 0.929 . S
C145 C140 1.361 . S
C145 C144 1.396 . S
C146 O100 1.300 . S
C146 O101 1.209 . S
C146 C119 1.486 . S
C147 O102 1.199 . S
C147 O103 1.297 . S
C147 C131 1.476 . S
O148 Cd149 2.223 . S
O148 C156 1.315 1_455 S
Cd149 O148 2.223 . S
Cd149 O152 2.297 1_545 S
Cd149 O153 2.439 . S
Cd149 O159 2.240 . S
Cd150 O151 2.240 1_455 S
Cd150 O158 2.223 . S
Cd150 O160 2.297 . S
Cd150 O161 2.439 . S
O151 Cd150 2.240 1_655 S
O151 C156 1.279 . S
O152 Cd149 2.297 1_565 S
O152 C154 1.247 . S
O153 Cd149 2.439 . S
O153 C154 1.208 1_545 S
C154 O152 1.247 . S
C154 O153 1.208 1_565 S
C155 O160 1.247 . S
C155 O161 1.208 . S
C156 O148 1.315 1_655 S
C156 O151 1.279 . S
C157 O158 1.315 . S
C157 O159 1.279 . S
O158 Cd150 2.223 . S
O158 C157 1.315 . S
O159 Cd149 2.240 . S
O159 C157 1.279 . S
O160 Cd150 2.297 . S
O160 C155 1.247 . S
O161 Cd150 2.439 . S
O161 C155 1.208 . S
O162 Cd163 2.223 . S
O162 C170 1.315 1_455 S
Cd163 O162 2.223 . S
Cd163 O166 2.297 . S
Cd163 O167 2.439 . S
Cd163 O173 2.240 . S
Cd164 O165 2.240 1_465 S
Cd164 O172 2.223 . S
Cd164 O174 2.297 . S
Cd164 O175 2.439 . S
O165 Cd164 2.240 1_645 S
O165 C170 1.279 . S
O166 Cd163 2.297 . S
O166 C168 1.247 . S
O167 Cd163 2.439 . S
O167 C168 1.208 . S
C168 O166 1.247 . S
C168 O167 1.208 . S
C169 O174 1.247 . S
C169 O175 1.208 . S
C170 O162 1.315 1_655 S
C170 O165 1.279 . S
C171 O172 1.315 1_545 S
C171 O173 1.279 . S
O172 Cd164 2.223 . S
O172 C171 1.315 1_565 S
O173 Cd163 2.240 . S
O173 C171 1.279 . S
O174 Cd164 2.297 . S
O174 C169 1.247 . S
O175 Cd164 2.439 . S
O175 C169 1.208 . S
H176 C194 0.951 . S
H177 C196 0.951 . S
H178 C198 0.950 . S
H179 C199 0.950 . S
H180 C201 0.950 . S
H181 C204 0.950 . S
H182 C205 0.950 . S
H183 C207 0.950 . S
H184 C208 0.950 . S
H185 C209 0.951 . S
H186 C211 0.951 . S
H187 C213 0.950 . S
H188 C214 0.950 . S
H189 C216 0.950 . S
H190 C219 0.950 . S
H191 C220 0.950 . S
H192 C222 0.950 . S
H193 C223 0.950 . S
C194 H176 0.951 . S
C194 C195 1.366 . S
C194 C196 1.388 . S
C195 C194 1.366 . S
C195 C199 1.385 . S
C196 H177 0.951 . S
C196 C194 1.388 . S
C196 C197 1.366 . S
C197 C196 1.366 . S
C197 C198 1.414 . S
C197 C200 1.499 . S
C198 H178 0.950 . S
C198 C197 1.414 . S
C198 C199 1.374 . S
C199 H179 0.950 . S
C199 C195 1.385 . S
C199 C198 1.374 . S
C200 C197 1.499 . S
C200 C201 1.373 . S
C200 C202 1.389 . S
C201 H180 0.950 . S
C201 C200 1.373 . S
C201 C217 1.377 . S
C202 C200 1.389 . S
C202 C203 1.524 . S
C202 C216 1.377 . S
C203 C202 1.524 . S
C203 C204 1.397 . S
C203 C208 1.363 . S
C204 H181 0.950 . S
C204 C203 1.397 . S
C204 C205 1.334 . S
C205 H182 0.950 . S
C205 C204 1.334 . S
C205 C206 1.287 . S
C206 C205 1.287 . S
C206 C207 1.524 . S
C206 H225 0.913 . S
C207 H183 0.950 . S
C207 C206 1.524 . S
C207 C208 1.415 . S
C208 H184 0.950 . S
C208 C203 1.363 . S
C208 C207 1.415 . S
C209 H185 0.951 . S
C209 C210 1.366 . S
C209 C211 1.388 . S
C210 C209 1.366 . S
C210 C214 1.385 . S
C211 H186 0.951 . S
C211 C209 1.388 . S
C211 C212 1.366 . S
C212 C211 1.366 . S
C212 C213 1.414 . S
C212 C215 1.499 . S
C213 H187 0.950 . S
C213 C212 1.414 . S
C213 C214 1.374 . S
C214 H188 0.950 . S
C214 C210 1.385 . S
C214 C213 1.374 . S
C215 C212 1.499 . S
C215 C216 1.373 . S
C215 C217 1.389 . S
C216 H189 0.950 . S
C216 C202 1.377 . S
C216 C215 1.373 . S
C217 C201 1.377 . S
C217 C215 1.389 . S
C217 C218 1.524 . S
C218 C217 1.524 . S
C218 C219 1.397 . S
C218 C223 1.363 . S
C219 H190 0.950 . S
C219 C218 1.397 . S
C219 C220 1.334 . S
C220 H191 0.950 . S
C220 C219 1.334 . S
C220 C221 1.287 . S
C221 C220 1.287 . S
C221 C222 1.524 . S
C221 H224 0.999 . S
C222 H192 0.950 . S
C222 C221 1.524 . S
C222 C223 1.415 . S
C223 H193 0.950 . S
C223 C218 1.363 . S
C223 C222 1.415 . S
H224 C221 0.999 . S
H225 C206 0.913 . S
H226 C244 0.951 . S
H227 C246 0.951 . S
H228 C248 0.950 1_655 S
H229 C249 0.950 1_655 S
H230 C251 0.950 1_655 S
H231 C254 0.950 . S
H232 C255 0.950 . S
H233 C257 0.950 . S
H234 C258 0.950 . S
H235 C259 0.951 . S
H236 C261 0.951 . S
H237 C263 0.950 . S
H238 C264 0.950 . S
H239 C266 0.950 . S
H240 C269 0.950 1_455 S
H241 C270 0.950 . S
H242 C272 0.950 . S
H243 C273 0.950 . S
C244 H226 0.951 . S
C244 C245 1.366 . S
C244 C246 1.388 . S
C245 C244 1.366 . S
C245 C249 1.385 . S
C246 H227 0.951 . S
C246 C244 1.388 . S
C246 C247 1.366 . S
C247 C246 1.366 . S
C247 C248 1.414 . S
C247 C250 1.499 . S
C248 H228 0.950 1_455 S
C248 C247 1.414 . S
C248 C249 1.374 . S
C249 H229 0.950 1_455 S
C249 C245 1.385 . S
C249 C248 1.374 . S
C250 C247 1.499 . S
C250 C251 1.373 . S
C250 C252 1.389 . S
C251 H230 0.950 1_455 S
C251 C250 1.373 . S
C251 C267 1.377 . S
C252 C250 1.389 . S
C252 C253 1.524 . S
C252 C266 1.377 . S
C253 C252 1.524 . S
C253 C254 1.397 . S
C253 C258 1.363 . S
C254 H231 0.950 . S
C254 C253 1.397 . S
C254 C255 1.334 . S
C255 H232 0.950 . S
C255 C254 1.334 . S
C255 C256 1.287 . S
C256 C255 1.287 . S
C256 C257 1.524 . S
C256 H275 0.913 . S
C257 H233 0.950 . S
C257 C256 1.524 . S
C257 C258 1.415 . S
C258 H234 0.950 . S
C258 C253 1.363 . S
C258 C257 1.415 . S
C259 H235 0.951 . S
C259 C260 1.366 1_655 S
C259 C261 1.388 . S
C260 C259 1.366 1_455 S
C260 C264 1.385 . S
C261 H236 0.951 . S
C261 C259 1.388 . S
C261 C262 1.366 1_655 S
C262 C261 1.366 1_455 S
C262 C263 1.414 . S
C262 C265 1.499 . S
C263 H237 0.950 . S
C263 C262 1.414 . S
C263 C264 1.374 . S
C264 H238 0.950 . S
C264 C260 1.385 . S
C264 C263 1.374 . S
C265 C262 1.499 . S
C265 C266 1.373 . S
C265 C267 1.389 . S
C266 H239 0.950 . S
C266 C252 1.377 . S
C266 C265 1.373 . S
C267 C251 1.377 . S
C267 C265 1.389 . S
C267 C268 1.524 1_455 S
C268 C267 1.524 1_655 S
C268 C269 1.397 . S
C268 C273 1.363 . S
C269 H240 0.950 1_655 S
C269 C268 1.397 . S
C269 C270 1.334 . S
C270 H241 0.950 . S
C270 C269 1.334 . S
C270 C271 1.287 . S
C271 C270 1.287 . S
C271 C272 1.524 . S
C271 H274 0.999 . S
C272 H242 0.950 . S
C272 C271 1.524 . S
C272 C273 1.415 . S
C273 H243 0.950 . S
C273 C268 1.363 . S
C273 C272 1.415 . S
H274 C271 0.999 . S
H275 C256 0.913 . S
H276 C294 0.951 . S
H277 C296 0.951 . S
H278 C298 0.950 . S
H279 C299 0.950 . S
H280 C301 0.950 . S
H281 C304 0.950 1_545 S
H282 C305 0.950 . S
H283 C307 0.950 . S
H284 C308 0.950 . S
H285 C309 0.951 . S
H286 C311 0.951 . S
H287 C313 0.950 . S
H288 C314 0.950 . S
H289 C316 0.950 . S
H290 C319 0.950 . S
H291 C320 0.950 . S
H292 C322 0.950 . S
H293 C323 0.950 . S
C294 H276 0.951 . S
C294 C295 1.366 . S
C294 C296 1.388 . S
C295 C294 1.366 . S
C295 C299 1.385 . S
C296 H277 0.951 . S
C296 C294 1.388 . S
C296 C297 1.366 . S
C297 C296 1.366 . S
C297 C298 1.414 . S
C297 C300 1.499 . S
C298 H278 0.950 . S
C298 C297 1.414 . S
C298 C299 1.374 . S
C299 H279 0.950 . S
C299 C295 1.385 . S
C299 C298 1.374 . S
C300 C297 1.499 . S
C300 C301 1.373 . S
C300 C302 1.389 . S
C301 H280 0.950 . S
C301 C300 1.373 . S
C301 C317 1.377 . S
C302 C300 1.389 . S
C302 C303 1.524 . S
C302 C316 1.377 . S
C303 C302 1.524 . S
C303 C304 1.397 1_545 S
C303 C308 1.363 1_545 S
C304 H281 0.950 1_565 S
C304 C303 1.397 1_565 S
C304 C305 1.334 . S
C305 H282 0.950 . S
C305 C304 1.334 . S
C305 C306 1.287 . S
C306 C305 1.287 . S
C306 C307 1.524 . S
C306 H325 0.913 . S
C307 H283 0.950 . S
C307 C306 1.524 . S
C307 C308 1.415 . S
C308 H284 0.950 . S
C308 C303 1.363 1_565 S
C308 C307 1.415 . S
C309 H285 0.951 . S
C309 C310 1.366 . S
C309 C311 1.388 . S
C310 C309 1.366 . S
C310 C314 1.385 . S
C311 H286 0.951 . S
C311 C309 1.388 . S
C311 C312 1.366 . S
C312 C311 1.366 . S
C312 C313 1.414 . S
C312 C315 1.499 . S
C313 H287 0.950 . S
C313 C312 1.414 . S
C313 C314 1.374 . S
C314 H288 0.950 . S
C314 C310 1.385 . S
C314 C313 1.374 . S
C315 C312 1.499 . S
C315 C316 1.373 . S
C315 C317 1.389 . S
C316 H289 0.950 . S
C316 C302 1.377 . S
C316 C315 1.373 . S
C317 C301 1.377 . S
C317 C315 1.389 . S
C317 C318 1.524 . S
C318 C317 1.524 . S
C318 C319 1.397 . S
C318 C323 1.363 . S
C319 H290 0.950 . S
C319 C318 1.397 . S
C319 C320 1.334 . S
C320 H291 0.950 . S
C320 C319 1.334 . S
C320 C321 1.287 . S
C321 C320 1.287 . S
C321 C322 1.524 . S
C321 H324 0.999 . S
C322 H292 0.950 . S
C322 C321 1.524 . S
C322 C323 1.415 . S
C323 H293 0.950 . S
C323 C318 1.363 . S
C323 C322 1.415 . S
H324 C321 0.999 . S
H325 C306 0.913 . S
H326 C344 0.951 1_655 S
H327 C346 0.951 1_655 S
H328 C348 0.950 . S
H329 C349 0.950 . S
H330 C351 0.950 . S
H331 C354 0.950 . S
H332 C355 0.950 . S
H333 C357 0.950 . S
H334 C358 0.950 . S
H335 C359 0.951 . S
H336 C361 0.951 . S
H337 C363 0.950 . S
H338 C364 0.950 . S
H339 C366 0.950 1_655 S
H340 C369 0.950 . S
H341 C370 0.950 . S
H342 C372 0.950 . S
H343 C373 0.950 . S
C344 H326 0.951 1_455 S
C344 C345 1.366 . S
C344 C346 1.388 . S
C345 C344 1.366 . S
C345 C349 1.385 . S
C346 H327 0.951 1_455 S
C346 C344 1.388 . S
C346 C347 1.366 . S
C347 C346 1.366 . S
C347 C348 1.414 . S
C347 C350 1.499 . S
C348 H328 0.950 . S
C348 C347 1.414 . S
C348 C349 1.374 . S
C349 H329 0.950 . S
C349 C345 1.385 . S
C349 C348 1.374 . S
C350 C347 1.499 . S
C350 C351 1.373 . S
C350 C352 1.389 . S
C351 H330 0.950 . S
C351 C350 1.373 . S
C351 C367 1.377 . S
C352 C350 1.389 . S
C352 C353 1.524 1_455 S
C352 C366 1.377 . S
C353 C352 1.524 1_655 S
C353 C354 1.397 . S
C353 C358 1.363 . S
C354 H331 0.950 . S
C354 C353 1.397 . S
C354 C355 1.334 . S
C355 H332 0.950 . S
C355 C354 1.334 . S
C355 C356 1.287 . S
C356 C355 1.287 . S
C356 C357 1.524 . S
C356 H375 0.913 . S
C357 H333 0.950 . S
C357 C356 1.524 . S
C357 C358 1.415 . S
C358 H334 0.950 . S
C358 C353 1.363 . S
C358 C357 1.415 . S
C359 H335 0.951 . S
C359 C360 1.366 . S
C359 C361 1.388 . S
C360 C359 1.366 . S
C360 C364 1.385 . S
C361 H336 0.951 . S
C361 C359 1.388 . S
C361 C362 1.366 . S
C362 C361 1.366 . S
C362 C363 1.414 . S
C362 C365 1.499 . S
C363 H337 0.950 . S
C363 C362 1.414 . S
C363 C364 1.374 . S
C364 H338 0.950 . S
C364 C360 1.385 . S
C364 C363 1.374 . S
C365 C362 1.499 . S
C365 C366 1.373 . S
C365 C367 1.389 . S
C366 H339 0.950 1_455 S
C366 C352 1.377 . S
C366 C365 1.373 . S
C367 C351 1.377 . S
C367 C365 1.389 . S
C367 C368 1.524 . S
C368 C367 1.524 . S
C368 C369 1.397 . S
C368 C373 1.363 . S
C369 H340 0.950 . S
C369 C368 1.397 . S
C369 C370 1.334 . S
C370 H341 0.950 . S
C370 C369 1.334 . S
C370 C371 1.287 . S
C371 C370 1.287 . S
C371 C372 1.524 . S
C371 H374 0.999 . S
C372 H342 0.950 . S
C372 C371 1.524 . S
C372 C373 1.415 . S
C373 H343 0.950 . S
C373 C368 1.363 . S
C373 C372 1.415 . S
H374 C371 0.999 . S
H375 C356 0.913 . S
H376 C394 0.951 . S
H377 C396 0.951 . S
H378 C398 0.950 . S
H379 C399 0.950 . S
H380 C401 0.950 . S
H381 C404 0.950 . S
H382 C405 0.950 . S
H383 C407 0.950 . S
H384 C408 0.950 . S
H385 C409 0.951 . S
H386 C411 0.951 1_565 S
H387 C413 0.950 . S
H388 C414 0.950 . S
H389 C416 0.950 . S
H390 C419 0.950 . S
H391 C420 0.950 . S
H392 C422 0.950 . S
H393 C423 0.950 . S
C394 H376 0.951 . S
C394 C395 1.366 . S
C394 C396 1.388 . S
C395 C394 1.366 . S
C395 C399 1.385 . S
C396 H377 0.951 . S
C396 C394 1.388 . S
C396 C397 1.366 . S
C397 C396 1.366 . S
C397 C398 1.414 . S
C397 C400 1.499 . S
C398 H378 0.950 . S
C398 C397 1.414 . S
C398 C399 1.374 . S
C399 H379 0.950 . S
C399 C395 1.385 . S
C399 C398 1.374 . S
C400 C397 1.499 . S
C400 C401 1.373 . S
C400 C402 1.389 . S
C401 H380 0.950 . S
C401 C400 1.373 . S
C401 C417 1.377 . S
C402 C400 1.389 . S
C402 C403 1.524 . S
C402 C416 1.377 . S
C403 C402 1.524 . S
C403 C404 1.397 . S
C403 C408 1.363 . S
C404 H381 0.950 . S
C404 C403 1.397 . S
C404 C405 1.334 . S
C405 H382 0.950 . S
C405 C404 1.334 . S
C405 C406 1.287 . S
C406 C405 1.287 . S
C406 C407 1.524 . S
C406 H425 0.913 . S
C407 H383 0.950 . S
C407 C406 1.524 . S
C407 C408 1.415 . S
C408 H384 0.950 . S
C408 C403 1.363 . S
C408 C407 1.415 . S
C409 H385 0.951 . S
C409 C410 1.366 1_565 S
C409 C411 1.388 1_565 S
C410 C409 1.366 1_545 S
C410 C414 1.385 . S
C411 H386 0.951 1_545 S
C411 C409 1.388 1_545 S
C411 C412 1.366 . S
C412 C411 1.366 . S
C412 C413 1.414 . S
C412 C415 1.499 . S
C413 H387 0.950 . S
C413 C412 1.414 . S
C413 C414 1.374 . S
C414 H388 0.950 . S
C414 C410 1.385 . S
C414 C413 1.374 . S
C415 C412 1.499 . S
C415 C416 1.373 . S
C415 C417 1.389 . S
C416 H389 0.950 . S
C416 C402 1.377 . S
C416 C415 1.373 . S
C417 C401 1.377 . S
C417 C415 1.389 . S
C417 C418 1.524 . S
C418 C417 1.524 . S
C418 C419 1.397 . S
C418 C423 1.363 1_545 S
C419 H390 0.950 . S
C419 C418 1.397 . S
C419 C420 1.334 . S
C420 H391 0.950 . S
C420 C419 1.334 . S
C420 C421 1.286 1_545 S
C421 C420 1.286 1_565 S
C421 C422 1.524 . S
C421 H424 0.999 . S
C422 H392 0.950 . S
C422 C421 1.524 . S
C422 C423 1.415 . S
C423 H393 0.950 . S
C423 C418 1.363 1_565 S
C423 C422 1.415 . S
H424 C421 0.999 . S
H425 C406 0.913 . S
H426 C444 0.951 . S
H427 C446 0.951 . S
H428 C448 0.950 . S
H429 C449 0.950 . S
H430 C451 0.950 . S
H431 C454 0.950 . S
H432 C455 0.950 . S
H433 C457 0.950 . S
H434 C458 0.950 . S
H435 C459 0.951 . S
H436 C461 0.951 . S
H437 C463 0.950 . S
H438 C464 0.950 . S
H439 C466 0.950 . S
H440 C469 0.950 . S
H441 C470 0.950 . S
H442 C472 0.950 . S
H443 C473 0.950 1_455 S
C444 H426 0.951 . S
C444 C445 1.366 . S
C444 C446 1.388 . S
C445 C444 1.366 . S
C445 C449 1.385 . S
C446 H427 0.951 . S
C446 C444 1.388 . S
C446 C447 1.366 . S
C447 C446 1.366 . S
C447 C448 1.414 . S
C447 C450 1.499 . S
C448 H428 0.950 . S
C448 C447 1.414 . S
C448 C449 1.374 . S
C449 H429 0.950 . S
C449 C445 1.385 . S
C449 C448 1.374 . S
C450 C447 1.499 . S
C450 C451 1.373 . S
C450 C452 1.389 . S
C451 H430 0.950 . S
C451 C450 1.373 . S
C451 C467 1.377 . S
C452 C450 1.389 . S
C452 C453 1.524 . S
C452 C466 1.377 . S
C453 C452 1.524 . S
C453 C454 1.397 . S
C453 C458 1.363 . S
C454 H431 0.950 . S
C454 C453 1.397 . S
C454 C455 1.334 . S
C455 H432 0.950 . S
C455 C454 1.334 . S
C455 C456 1.287 . S
C456 C455 1.287 . S
C456 C457 1.524 . S
C456 H475 0.913 . S
C457 H433 0.950 . S
C457 C456 1.524 . S
C457 C458 1.415 . S
C458 H434 0.950 . S
C458 C453 1.363 . S
C458 C457 1.415 . S
C459 H435 0.951 . S
C459 C460 1.366 . S
C459 C461 1.388 . S
C460 C459 1.366 . S
C460 C464 1.385 . S
C461 H436 0.951 . S
C461 C459 1.388 . S
C461 C462 1.366 . S
C462 C461 1.366 . S
C462 C463 1.414 . S
C462 C465 1.499 . S
C463 H437 0.950 . S
C463 C462 1.414 . S
C463 C464 1.374 . S
C464 H438 0.950 . S
C464 C460 1.385 . S
C464 C463 1.374 . S
C465 C462 1.499 . S
C465 C466 1.373 . S
C465 C467 1.389 . S
C466 H439 0.950 . S
C466 C452 1.377 . S
C466 C465 1.373 . S
C467 C451 1.377 . S
C467 C465 1.389 . S
C467 C468 1.524 1_455 S
C468 C467 1.524 1_655 S
C468 C469 1.397 . S
C468 C473 1.363 . S
C469 H440 0.950 . S
C469 C468 1.397 . S
C469 C470 1.334 . S
C470 H441 0.950 . S
C470 C469 1.334 . S
C470 C471 1.287 . S
C471 C470 1.287 . S
C471 C472 1.524 . S
C471 H474 0.999 . S
C472 H442 0.950 . S
C472 C471 1.524 . S
C472 C473 1.415 . S
C473 H443 0.950 1_655 S
C473 C468 1.363 . S
C473 C472 1.415 . S
H474 C471 0.999 . S
H475 C456 0.913 . S
H476 C494 0.951 . S
H477 C496 0.951 . S
H478 C498 0.950 . S
H479 C499 0.950 . S
H480 C501 0.950 . S
H481 C504 0.950 1_565 S
H482 C505 0.950 1_565 S
H483 C507 0.950 . S
H484 C508 0.950 . S
H485 C509 0.951 1_455 S
H486 C511 0.951 . S
H487 C513 0.950 . S
H488 C514 0.950 . S
H489 C516 0.950 . S
H490 C519 0.950 . S
H491 C520 0.950 1_455 S
H492 C522 0.950 1_455 S
H493 C523 0.950 . S
C494 H476 0.951 . S
C494 C495 1.366 . S
C494 C496 1.388 . S
C495 C494 1.366 . S
C495 C499 1.385 . S
C496 H477 0.951 . S
C496 C494 1.388 . S
C496 C497 1.366 . S
C497 C496 1.366 . S
C497 C498 1.414 . S
C497 C500 1.499 . S
C498 H478 0.950 . S
C498 C497 1.414 . S
C498 C499 1.374 . S
C499 H479 0.950 . S
C499 C495 1.385 . S
C499 C498 1.374 . S
C500 C497 1.499 . S
C500 C501 1.373 . S
C500 C502 1.389 . S
C501 H480 0.950 . S
C501 C500 1.373 . S
C501 C517 1.377 . S
C502 C500 1.389 . S
C502 C503 1.524 . S
C502 C516 1.377 . S
C503 C502 1.524 . S
C503 C504 1.397 . S
C503 C508 1.363 . S
C504 H481 0.950 1_545 S
C504 C503 1.397 . S
C504 C505 1.334 . S
C505 H482 0.950 1_545 S
C505 C504 1.334 . S
C505 C506 1.287 . S
C506 C505 1.287 . S
C506 C507 1.524 . S
C506 H525 0.913 . S
C507 H483 0.950 . S
C507 C506 1.524 . S
C507 C508 1.415 . S
C508 H484 0.950 . S
C508 C503 1.363 . S
C508 C507 1.415 . S
C509 H485 0.951 1_655 S
C509 C510 1.366 . S
C509 C511 1.388 . S
C510 C509 1.366 . S
C510 C514 1.385 . S
C511 H486 0.951 . S
C511 C509 1.388 . S
C511 C512 1.366 . S
C512 C511 1.366 . S
C512 C513 1.414 . S
C512 C515 1.499 . S
C513 H487 0.950 . S
C513 C512 1.414 . S
C513 C514 1.374 . S
C514 H488 0.950 . S
C514 C510 1.385 . S
C514 C513 1.374 . S
C515 C512 1.499 . S
C515 C516 1.373 . S
C515 C517 1.389 . S
C516 H489 0.950 . S
C516 C502 1.377 . S
C516 C515 1.373 . S
C517 C501 1.377 . S
C517 C515 1.389 . S
C517 C518 1.524 . S
C518 C517 1.524 . S
C518 C519 1.397 . S
C518 C523 1.363 . S
C519 H490 0.950 . S
C519 C518 1.397 . S
C519 C520 1.334 . S
C520 H491 0.950 1_655 S
C520 C519 1.334 . S
C520 C521 1.287 1_655 S
C521 C520 1.287 1_455 S
C521 C522 1.524 1_455 S
C521 H524 0.999 . S
C522 H492 0.950 1_655 S
C522 C521 1.524 1_655 S
C522 C523 1.415 . S
C523 H493 0.950 . S
C523 C518 1.363 . S
C523 C522 1.415 . S
H524 C521 0.999 . S
H525 C506 0.913 . S
H526 C544 0.951 . S
H527 C546 0.951 . S
H528 C548 0.950 1_655 S
H529 C549 0.950 . S
H530 C551 0.950 . S
H531 C554 0.950 . S
H532 C555 0.950 . S
H533 C557 0.950 . S
H534 C558 0.950 . S
H535 C559 0.951 . S
H536 C561 0.951 . S
H537 C563 0.950 . S
H538 C564 0.950 . S
H539 C566 0.950 . S
H540 C569 0.951 . S
H541 C570 0.950 . S
H542 C572 0.950 . S
H543 C573 0.950 . S
C544 H526 0.951 . S
C544 C545 1.366 . S
C544 C546 1.388 . S
C545 C544 1.366 . S
C545 C549 1.385 . S
C546 H527 0.951 . S
C546 C544 1.388 . S
C546 C547 1.366 . S
C547 C546 1.366 . S
C547 C548 1.414 . S
C547 C550 1.499 . S
C548 H528 0.950 1_455 S
C548 C547 1.414 . S
C548 C549 1.374 . S
C549 H529 0.950 . S
C549 C545 1.385 . S
C549 C548 1.374 . S
C550 C547 1.499 . S
C550 C551 1.373 . S
C550 C552 1.389 . S
C551 H530 0.950 . S
C551 C550 1.373 . S
C551 C567 1.377 . S
C552 C550 1.389 . S
C552 C553 1.524 . S
C552 C566 1.377 . S
C553 C552 1.524 . S
C553 C554 1.397 . S
C553 C558 1.363 . S
C554 H531 0.950 . S
C554 C553 1.397 . S
C554 C555 1.334 . S
C555 H532 0.950 . S
C555 C554 1.334 . S
C555 C556 1.287 . S
C556 C555 1.287 . S
C556 C557 1.524 . S
C556 H575 0.913 . S
C557 H533 0.950 . S
C557 C556 1.524 . S
C557 C558 1.415 . S
C558 H534 0.950 . S
C558 C553 1.363 . S
C558 C557 1.415 . S
C559 H535 0.951 . S
C559 C560 1.366 1_655 S
C559 C561 1.388 . S
C560 C559 1.366 1_455 S
C560 C564 1.385 . S
C561 H536 0.951 . S
C561 C559 1.388 . S
C561 C562 1.366 1_655 S
C562 C561 1.366 1_455 S
C562 C563 1.414 . S
C562 C565 1.499 . S
C563 H537 0.950 . S
C563 C562 1.414 . S
C563 C564 1.374 . S
C564 H538 0.950 . S
C564 C560 1.385 . S
C564 C563 1.374 . S
C565 C562 1.499 . S
C565 C566 1.373 . S
C565 C567 1.389 . S
C566 H539 0.950 . S
C566 C552 1.377 . S
C566 C565 1.373 . S
C567 C551 1.377 . S
C567 C565 1.389 . S
C567 C568 1.524 1_455 S
C568 C567 1.524 1_655 S
C568 C569 1.396 1_655 S
C568 C573 1.363 . S
C569 H540 0.951 . S
C569 C568 1.396 1_455 S
C569 C570 1.333 1_455 S
C570 H541 0.950 . S
C570 C569 1.333 1_655 S
C570 C571 1.287 . S
C571 C570 1.287 . S
C571 C572 1.524 . S
C571 H574 0.999 . S
C572 H542 0.950 . S
C572 C571 1.524 . S
C572 C573 1.415 . S
C573 H543 0.950 . S
C573 C568 1.363 . S
C573 C572 1.415 . S
H574 C571 0.999 . S
H575 C556 0.913 . S
C210 C157 2.295 . S
C195 C69 2.289 . S
C260 C168 2.314 . S
C245 C143 2.383 . S
C310 C156 1.527 . S
C295 C63 1.437 . S
C360 C169 1.501 . S
C345 C137 1.469 . S
C410 C171 1.578 . S
C395 C39 1.483 . S
C460 C155 1.422 . S
C445 C113 1.399 . S
C510 C170 0.750 . S
C495 C51 0.749 . S
C545 C125 0.795 . S
C560 C154 0.790 . S
