# Generated by pormake.
# Topology csq, (4,8)-cn, num edge types: 1
# Building blocks:
#     Node 0, Type 0, BuildingBlock: GIZVER_clean_linker_0, # of connection points: 4
#     Node 1, Type 0, BuildingBlock: GIZVER_clean_linker_0, # of connection points: 4
#     Node 2, Type 0, BuildingBlock: GIZVER_clean_linker_0, # of connection points: 4
#     Node 3, Type 0, BuildingBlock: GIZVER_clean_linker_0, # of connection points: 4
#     Node 4, Type 0, BuildingBlock: GIZVER_clean_linker_0, # of connection points: 4
#     Node 5, Type 0, BuildingBlock: GIZVER_clean_linker_0, # of connection points: 4
#     Node 6, Type 1, BuildingBlock: TAGTUT_clean_sbu_3, # of connection points: 8
#     Node 7, Type 1, BuildingBlock: TAGTUT_clean_sbu_3, # of connection points: 8
#     Node 8, Type 1, BuildingBlock: TAGTUT_clean_sbu_3, # of connection points: 8
#     Edge 9, Type (0, 1), BuildingBlock: MIFKUJ_clean_linker_0, # of connection points: 2
#     Edge 10, Type (0, 1), BuildingBlock: MIFKUJ_clean_linker_0, # of connection points: 2
#     Edge 11, Type (0, 1), BuildingBlock: MIFKUJ_clean_linker_0, # of connection points: 2
#     Edge 12, Type (0, 1), BuildingBlock: MIFKUJ_clean_linker_0, # of connection points: 2
#     Edge 13, Type (0, 1), BuildingBlock: MIFKUJ_clean_linker_0, # of connection points: 2
#     Edge 14, Type (0, 1), BuildingBlock: MIFKUJ_clean_linker_0, # of connection points: 2
#     Edge 15, Type (0, 1), BuildingBlock: MIFKUJ_clean_linker_0, # of connection points: 2
#     Edge 16, Type (0, 1), BuildingBlock: MIFKUJ_clean_linker_0, # of connection points: 2
#     Edge 17, Type (0, 1), BuildingBlock: MIFKUJ_clean_linker_0, # of connection points: 2
#     Edge 18, Type (0, 1), BuildingBlock: MIFKUJ_clean_linker_0, # of connection points: 2
#     Edge 19, Type (0, 1), BuildingBlock: MIFKUJ_clean_linker_0, # of connection points: 2
#     Edge 20, Type (0, 1), BuildingBlock: MIFKUJ_clean_linker_0, # of connection points: 2
#     Edge 21, Type (0, 1), BuildingBlock: MIFKUJ_clean_linker_0, # of connection points: 2
#     Edge 22, Type (0, 1), BuildingBlock: MIFKUJ_clean_linker_0, # of connection points: 2
#     Edge 23, Type (0, 1), BuildingBlock: MIFKUJ_clean_linker_0, # of connection points: 2
#     Edge 24, Type (0, 1), BuildingBlock: MIFKUJ_clean_linker_0, # of connection points: 2
#     Edge 25, Type (0, 1), BuildingBlock: MIFKUJ_clean_linker_0, # of connection points: 2
#     Edge 26, Type (0, 1), BuildingBlock: MIFKUJ_clean_linker_0, # of connection points: 2
#     Edge 27, Type (0, 1), BuildingBlock: MIFKUJ_clean_linker_0, # of connection points: 2
#     Edge 28, Type (0, 1), BuildingBlock: MIFKUJ_clean_linker_0, # of connection points: 2
#     Edge 29, Type (0, 1), BuildingBlock: MIFKUJ_clean_linker_0, # of connection points: 2
#     Edge 30, Type (0, 1), BuildingBlock: MIFKUJ_clean_linker_0, # of connection points: 2
#     Edge 31, Type (0, 1), BuildingBlock: MIFKUJ_clean_linker_0, # of connection points: 2
#     Edge 32, Type (0, 1), BuildingBlock: MIFKUJ_clean_linker_0, # of connection points: 2
# Relax obj value: 0.037
# Max RMSD: 0.117
# Mean RMSD: 0.082
data_MOF--net-csq--node1-TAGTUT_clean_sbu_3--node2-GIZVER_clean_linker_0--edge1-MIFKUJ_clean_linker_0
_symmetry_space_group_name_H-M    P1
_symmetry_Int_Tables_number       1
_symmetry_cell_setting            triclinic
loop_
_symmetry_equiv_pos_as_xyz
'x, y, z'
_cell_length_a     70.228681
_cell_length_b     69.407953
_cell_length_c     22.647966
_cell_angle_alpha  92.779562
_cell_angle_beta   92.426585
_cell_angle_gamma 119.88227
loop_
_atom_site_label
_atom_site_type_symbol
_atom_site_fract_x
_atom_site_fract_y
_atom_site_fract_z
_atom_type_partial_charge
H0 H 0.24032 0.51252 0.03183 0.0
H1 H 0.23806 0.53917 0.20568 0.0
H2 H 0.17848 0.48856 0.10852 0.0
H3 H 0.27091 0.55077 0.08145 0.0
H4 H 0.27217 0.5555 0.16009 0.0
H5 H 0.28311 0.52659 0.037 0.0
H6 H 0.31234 0.49933 0.15162 0.0
H7 H 0.27979 0.53204 0.2266 0.0
C8 C 0.23114 0.51234 0.06929 0.0
C9 C 0.20823 0.49847 0.06534 0.0
C10 C 0.24213 0.52654 0.12076 0.0
C11 C 0.22979 0.52737 0.16739 0.0
C12 C 0.20668 0.51405 0.16276 0.0
C13 C 0.19627 0.49899 0.11265 0.0
C14 C 0.2667 0.54223 0.12324 0.0
C15 C 0.27906 0.52978 0.13073 0.0
C16 C 0.28621 0.5228 0.081 0.0
C17 C 0.29799 0.5115 0.08839 0.0
C18 C 0.30228 0.50703 0.14542 0.0
C19 C 0.29606 0.5146 0.19523 0.0
C20 C 0.28428 0.52582 0.18794 0.0
H21 H 0.80052 0.26151 0.99605 0.0
H22 H 0.81216 0.26384 0.18537 0.0
H23 H 0.83779 0.32455 0.09755 0.0
H24 H 0.79642 0.22819 0.04836 0.0
H25 H 0.79699 0.22888 0.12738 0.0
H26 H 0.76512 0.2275 0.98898 0.0
H27 H 0.7037 0.1981 0.06873 0.0
H28 H 0.76361 0.21854 0.17616 0.0
C29 C 0.80695 0.27096 0.03869 0.0
C30 C 0.8188 0.29431 0.04131 0.0
C31 C 0.80386 0.25985 0.09096 0.0
C32 C 0.81352 0.27236 0.14554 0.0
C33 C 0.82623 0.29571 0.14805 0.0
C34 C 0.82804 0.30651 0.09605 0.0
C35 C 0.79192 0.23472 0.08799 0.0
C36 C 0.7673 0.2252 0.08373 0.0
C37 C 0.75615 0.22283 0.02845 0.0
C38 C 0.73327 0.21352 0.02353 0.0
C39 C 0.72151 0.20648 0.07392 0.0
C40 C 0.73207 0.20764 0.12899 0.0
C41 C 0.75517 0.21751 0.13393 0.0
H42 H 0.55724 0.81314 0.97748 0.0
H43 H 0.54583 0.80088 0.16077 0.0
H44 H 0.52203 0.83909 0.07302 0.0
H45 H 0.57738 0.79898 0.0344 0.0
H46 H 0.57557 0.79769 0.11269 0.0
H47 H 0.54923 0.76813 0.96525 0.0
H48 H 0.51464 0.70393 0.0346 0.0
H49 H 0.54984 0.76294 0.15414 0.0
C50 C 0.55012 0.81486 0.01754 0.0
C51 C 0.53887 0.82694 0.01827 0.0
C52 C 0.55246 0.8052 0.06877 0.0
C53 C 0.5436 0.8078 0.12089 0.0
C54 C 0.53239 0.81975 0.12231 0.0
C55 C 0.52989 0.82904 0.07089 0.0
C56 C 0.56558 0.79336 0.0696 0.0
C57 C 0.55059 0.7684 0.06071 0.0
C58 C 0.54375 0.75812 0.00288 0.0
C59 C 0.53067 0.73491 0.99336 0.0
C60 C 0.52392 0.72196 0.04213 0.0
C61 C 0.53087 0.7318 0.10032 0.0
C62 C 0.54415 0.75515 0.10943 0.0
H63 H 0.74849 0.53496 0.94562 0.0
H64 H 0.75843 0.56713 0.12066 0.0
H65 H 0.69337 0.51811 0.04957 0.0
H66 H 0.78182 0.57527 0.98379 0.0
H67 H 0.78914 0.57907 0.06165 0.0
H68 H 0.79318 0.55451 0.921 0.0
H69 H 0.82419 0.52127 -0.0006 0.0
H70 H 0.79417 0.54913 0.10991 0.0
C71 C 0.74199 0.53645 0.98708 0.0
C72 C 0.71922 0.52425 0.99256 0.0
C73 C 0.75631 0.55164 0.03346 0.0
C74 C 0.7476 0.55475 0.08574 0.0
C75 C 0.72483 0.54238 0.09215 0.0
C76 C 0.711 0.52677 0.04602 0.0
C77 C 0.78042 0.56619 0.024 0.0
C78 C 0.79161 0.55255 0.01618 0.0
C79 C 0.79711 0.54821 0.95973 0.0
C80 C 0.80833 0.53629 0.95378 0.0
C81 C 0.81418 0.52902 0.00422 0.0
C82 C 0.80961 0.53385 0.06089 0.0
C83 C 0.7978 0.54519 0.0664 0.0
H84 H 0.26003 0.78488 0.98066 0.0
H85 H 0.28638 0.78925 0.15952 0.0
H86 H 0.31003 0.84796 0.06408 0.0
H87 H 0.25686 0.75122 0.02972 0.0
H88 H 0.26476 0.75353 0.10671 0.0
H89 H 0.22363 0.7527 0.9968 0.0
H90 H 0.17188 0.72513 0.1153 0.0
H91 H 0.23888 0.74922 0.18044 0.0
C92 C 0.2706 0.79474 0.01951 0.0
C93 C 0.28455 0.81777 0.01737 0.0
C94 C 0.27084 0.78442 0.07155 0.0
C95 C 0.28552 0.79728 0.1204 0.0
C96 C 0.30006 0.82013 0.11748 0.0
C97 C 0.29897 0.83027 0.06653 0.0
C98 C 0.25719 0.7595 0.0734 0.0
C99 C 0.23387 0.75234 0.08734 0.0
C100 C 0.21834 0.7489 0.04109 0.0
C101 C 0.19587 0.73893 0.05049 0.0
C102 C 0.18928 0.7339 0.1081 0.0
C103 C 0.20462 0.73771 0.15547 0.0
C104 C 0.22699 0.74698 0.14477 0.0
H105 H 0.51692 0.29525 0.09939 0.0
H106 H 0.48835 0.28059 0.26729 0.0
H107 H 0.46561 0.30943 0.13793 0.0
H108 H 0.53486 0.28683 0.17948 0.0
H109 H 0.52774 0.28934 0.25302 0.0
H110 H 0.51442 0.25043 0.11947 0.0
H111 H 0.48725 0.19219 0.21789 0.0
H112 H 0.5081 0.25635 0.30675 0.0
C113 C 0.50479 0.29451 0.12861 0.0
C114 C 0.49044 0.30219 0.11054 0.0
C115 C 0.50391 0.2865 0.18516 0.0
C116 C 0.48861 0.28624 0.22339 0.0
C117 C 0.47476 0.29458 0.20703 0.0
C118 C 0.47547 0.302 0.15004 0.0
C119 C 0.52081 0.28069 0.20814 0.0
C120 C 0.51087 0.25585 0.21165 0.0
C121 C 0.50869 0.24256 0.16024 0.0
C122 C 0.50086 0.21967 0.16247 0.0
C123 C 0.4937 0.20994 0.21594 0.0
C124 C 0.49673 0.22296 0.26844 0.0
C125 C 0.50531 0.24604 0.26621 0.0
C126 C 0.04038 0.50177 0.53119 0.0
C127 C 0.03502 0.47207 0.73978 0.0
C128 C 0.97003 0.46628 0.73004 0.0
Mg129 Mg 0.01637 0.52671 0.47221 0.0
Mg130 Mg 0.00652 0.5599 0.55833 0.0
O131 O 1.00142 0.53092 0.54103 0.0
Mg132 Mg 0.01054 0.51736 0.60302 0.0
O133 O 0.01992 0.50227 0.6607 0.0
Mg134 Mg 0.00363 0.471 0.62138 0.0
Mg135 Mg 0.01742 0.50552 0.74219 0.0
C136 C 0.98128 0.53602 0.66933 0.0
O137 O 0.03539 0.5507 0.65323 0.0
O138 O 0.99442 0.53703 0.41663 0.0
O139 O 0.03247 0.54192 0.74877 0.0
O140 O 0.0451 0.56316 0.48184 0.0
O141 O 0.98795 0.55876 0.48026 0.0
O142 O 0.04041 0.58448 0.54962 0.0
O143 O 0.98594 0.4832 0.55917 0.0
O144 O 0.98857 0.49005 0.46401 0.0
C145 C 0.98024 0.47657 0.50445 0.0
C146 C 0.98509 0.54854 0.42917 0.0
O147 O 0.98497 0.51973 0.66025 0.0
O148 O 0.02429 0.46326 0.68916 0.0
O149 O 0.99026 0.55362 0.64064 0.0
O150 O 0.97519 0.45937 0.68343 0.0
O151 O 0.03497 0.48864 0.76749 0.0
O152 O 0.98347 0.4847 0.75928 0.0
O153 O 0.03511 0.51679 0.54067 0.0
O154 O 0.0314 0.4837 0.55759 0.0
C155 C 0.05198 0.58183 0.51165 0.0
C156 C 0.03932 0.55616 0.70926 0.0
C157 C 0.49889 0.04883 0.53291 0.0
C158 C 0.56412 0.04109 0.45116 0.0
C159 C 0.52562 0.97284 0.51027 0.0
Mg160 Mg 0.46865 0.0241 0.64038 0.0
Mg161 Mg 0.48816 0.00862 0.75216 0.0
O162 O 0.48254 0.00676 0.67011 0.0
Mg163 Mg 0.50708 0.01611 0.61672 0.0
O164 O 0.53001 0.02562 0.55862 0.0
Mg165 Mg 0.51076 0.01142 0.48328 0.0
Mg166 Mg 0.55283 0.01926 0.57145 0.0
C167 C 0.51185 0.98206 0.70767 0.0
O168 O 0.53494 0.0405 0.68571 0.0
O169 O 0.43968 0.00311 0.69956 0.0
O170 O 0.56288 0.0351 0.66087 0.0
O171 O 0.48631 0.05198 0.71505 0.0
O172 O 0.45442 0.99264 0.77262 0.0
O173 O 0.50398 0.04322 0.78341 0.0
O174 O 0.48183 0.99272 0.54305 0.0
O175 O 0.45305 0.99632 0.56607 0.0
C176 C 0.46163 0.98742 0.53393 0.0
C177 C 0.43788 0.9925 0.74602 0.0
O178 O 0.51344 0.98881 0.65504 0.0
O179 O 0.54343 0.03291 0.43625 0.0
O180 O 0.50451 0.98901 0.74983 0.0
O181 O 0.51567 0.98104 0.48148 0.0
O182 O 0.5711 0.03738 0.50012 0.0
O183 O 0.54024 0.9842 0.55236 0.0
O184 O 0.4989 0.04232 0.58493 0.0
O185 O 0.50401 0.0405 0.48888 0.0
C186 C 0.49911 0.05704 0.76205 0.0
C187 C 0.55463 0.04387 0.69517 0.0
C188 C 0.51988 0.55565 0.68558 0.0
C189 C 0.45873 0.48806 0.78979 0.0
C190 C 0.4867 0.45084 0.70918 0.0
Mg191 Mg 0.5422 0.55531 0.56345 0.0
Mg192 Mg 0.51314 0.51735 0.45348 0.0
O193 O 0.52407 0.52303 0.53332 0.0
Mg194 Mg 0.50365 0.51107 0.59826 0.0
O195 O 0.48496 0.50059 0.66686 0.0
Mg196 Mg 0.50802 0.50716 0.73232 0.0
Mg197 Mg 0.46036 0.47152 0.66034 0.0
C198 C 0.48617 0.46866 0.50092 0.0
O199 O 0.47325 0.50725 0.54563 0.0
O200 O 0.56574 0.55822 0.48983 0.0
O201 O 0.44573 0.47559 0.57756 0.0
O202 O 0.5237 0.56674 0.49978 0.0
O203 O 0.54519 0.5306 0.41893 0.0
O204 O 0.50092 0.53954 0.43243 0.0
O205 O 0.53167 0.51308 0.65753 0.0
O206 O 0.55993 0.54376 0.62788 0.0
C207 C 0.55227 0.5273 0.66041 0.0
C208 C 0.56375 0.54707 0.4405 0.0
O209 O 0.49191 0.47598 0.55574 0.0
O210 O 0.47991 0.50023 0.79548 0.0
O211 O 0.49081 0.48145 0.458 0.0
O212 O 0.49985 0.47047 0.73302 0.0
O213 O 0.44818 0.47577 0.74239 0.0
O214 O 0.47049 0.44696 0.67305 0.0
O215 O 0.51609 0.547 0.63231 0.0
O216 O 0.51703 0.54383 0.72966 0.0
C217 C 0.50919 0.55944 0.45588 0.0
C218 C 0.45295 0.49161 0.54297 0.0
H219 H 0.21281 0.51949 0.28509 0.0
H220 H 0.18821 0.52226 0.35478 0.0
H221 H 0.14469 0.51766 0.2075 0.0
H222 H 0.16953 0.51616 0.13858 0.0
H223 H 0.14641 0.54592 0.28718 0.0
H224 H 0.13622 0.47153 0.28731 0.0
H225 H 0.14815 0.44401 0.30158 0.0
H226 H 0.16868 0.46908 0.48383 0.0
H227 H 0.15709 0.49694 0.47038 0.0
H228 H 0.04497 0.47095 0.46437 0.0
H229 H 0.07582 0.47709 0.40661 0.0
H230 H 0.10808 0.54766 0.45839 0.0
H231 H 0.07649 0.54163 0.51311 0.0
H232 H 0.11552 0.48982 0.43521 0.0
H233 H 0.14494 0.57752 0.35846 0.0
H234 H 0.13044 0.60238 0.33669 0.0
H235 H 0.06596 0.54578 0.29301 0.0
H236 H 0.08023 0.52049 0.31338 0.0
C237 C 0.19814 0.51939 0.26779 0.0
C238 C 0.19289 0.51709 0.20629 0.0
C239 C 0.184 0.5208 0.30759 0.0
C240 C 0.16434 0.51977 0.28647 0.0
C241 C 0.15965 0.5184 0.22512 0.0
C242 C 0.17377 0.51722 0.18563 0.0
C243 C 0.14795 0.51914 0.32715 0.0
C244 C 0.13975 0.53373 0.31983 0.0
C245 C 0.13909 0.50318 0.36954 0.0
C246 C 0.14605 0.48647 0.37765 0.0
C247 C 0.14342 0.47127 0.33029 0.0
C248 C 0.1501 0.4556 0.33825 0.0
C249 C 0.15923 0.45485 0.39352 0.0
C250 C 0.16165 0.46972 0.441 0.0
C251 C 0.15503 0.48545 0.43325 0.0
C252 C 0.05851 0.4878 0.4626 0.0
C253 C 0.05827 0.50583 0.49272 0.0
C254 C 0.07624 0.49131 0.42996 0.0
C255 C 0.09437 0.51287 0.42766 0.0
C256 C 0.09417 0.53092 0.45813 0.0
C257 C 0.0761 0.52748 0.48949 0.0
C258 C 0.11339 0.51611 0.39388 0.0
C259 C 0.12226 0.50216 0.40294 0.0
C260 C 0.12241 0.53223 0.35181 0.0
C261 C 0.11361 0.54714 0.33821 0.0
C262 C 0.12769 0.57037 0.34394 0.0
C263 C 0.11951 0.58454 0.33177 0.0
C264 C 0.09726 0.57571 0.31374 0.0
C265 C 0.08318 0.55262 0.30726 0.0
C266 C 0.09131 0.53835 0.31905 0.0
H267 H 0.09095 0.58675 0.30469 0.0
H268 H 0.16438 0.4427 0.39961 0.0
H269 H 0.73734 0.17977 0.20104 0.0
H270 H 0.71012 0.15324 0.26281 0.0
H271 H 0.66733 0.17968 0.22342 0.0
H272 H 0.69505 0.2071 0.16473 0.0
H273 H 0.66178 0.16776 0.32844 0.0
H274 H 0.65997 0.12952 0.14361 0.0
H275 H 0.67647 0.11886 0.06331 0.0
H276 H 0.69968 0.08887 0.18745 0.0
H277 H 0.68365 0.09982 0.26847 0.0
H278 H 0.55993 0.06857 0.37483 0.0
H279 H 0.58956 0.09893 0.32604 0.0
H280 H 0.636 0.08115 0.39816 0.0
H281 H 0.6067 0.051 0.44697 0.0
H282 H 0.63951 0.08862 0.27795 0.0
H283 H 0.63563 0.12494 0.46192 0.0
H284 H 0.61983 0.13876 0.53688 0.0
H285 H 0.60406 0.17206 0.4053 0.0
H286 H 0.61971 0.15849 0.32941 0.0
C287 C 0.72248 0.18047 0.20722 0.0
C288 C 0.71826 0.19539 0.17728 0.0
C289 C 0.7067 0.16497 0.24167 0.0
C290 C 0.68625 0.16383 0.24603 0.0
C291 C 0.6828 0.17994 0.22021 0.0
C292 C 0.69867 0.19561 0.1865 0.0
C293 C 0.66806 0.14533 0.27487 0.0
C294 C 0.65675 0.15044 0.31681 0.0
C295 C 0.6615 0.12267 0.26031 0.0
C296 C 0.67099 0.11583 0.21199 0.0
C297 C 0.66886 0.12093 0.15368 0.0
C298 C 0.67805 0.11477 0.1081 0.0
C299 C 0.68921 0.10328 0.12032 0.0
C300 C 0.6911 0.09784 0.17809 0.0
C301 C 0.68196 0.10401 0.22384 0.0
C302 C 0.57638 0.0709 0.37938 0.0
C303 C 0.58093 0.05728 0.41446 0.0
C304 C 0.59333 0.08842 0.35219 0.0
C305 C 0.61502 0.09247 0.35922 0.0
C306 C 0.61941 0.0784 0.39243 0.0
C307 C 0.60261 0.06112 0.42011 0.0
C308 C 0.63323 0.11109 0.33134 0.0
C309 C 0.64453 0.10594 0.28951 0.0
C310 C 0.63938 0.13366 0.34504 0.0
C311 C 0.62862 0.14048 0.38982 0.0
C312 C 0.62848 0.13491 0.44873 0.0
C313 C 0.61966 0.14279 0.49145 0.0
C314 C 0.61094 0.15622 0.47585 0.0
C315 C 0.61091 0.16173 0.41738 0.0
C316 C 0.61972 0.15394 0.37449 0.0
H317 H 0.60416 0.16231 0.50906 0.0
H318 H 0.69632 0.09851 0.08501 0.0
H319 H 0.49114 0.69696 0.12482 0.0
H320 H 0.48449 0.66869 0.19458 0.0
H321 H 0.5534 0.70427 0.25492 0.0
H322 H 0.56009 0.73269 0.18549 0.0
H323 H 0.53747 0.65937 0.22001 0.0
H324 H 0.51781 0.7033 0.34586 0.0
H325 H 0.49787 0.72302 0.37172 0.0
H326 H 0.43623 0.66161 0.34284 0.0
H327 H 0.45579 0.64156 0.31598 0.0
H328 H 0.51748 0.60024 0.50252 0.0
H329 H 0.51695 0.62973 0.44889 0.0
H330 H 0.49032 0.58515 0.29019 0.0
H331 H 0.49052 0.5554 0.34361 0.0
H332 H 0.48538 0.63542 0.37837 0.0
H333 H 0.52262 0.61563 0.17996 0.0
H334 H 0.54342 0.59652 0.15696 0.0
H335 H 0.57213 0.61188 0.33628 0.0
H336 H 0.55179 0.63138 0.36002 0.0
C337 C 0.50477 0.69899 0.15394 0.0
C338 C 0.52612 0.71708 0.14987 0.0
C339 C 0.50095 0.68283 0.19376 0.0
C340 C 0.51845 0.68431 0.2299 0.0
C341 C 0.53965 0.70279 0.22744 0.0
C342 C 0.54342 0.71912 0.18818 0.0
C343 C 0.51492 0.66581 0.26694 0.0
C344 C 0.52607 0.65418 0.25459 0.0
C345 C 0.50006 0.65897 0.31215 0.0
C346 C 0.48826 0.67097 0.32835 0.0
C347 C 0.49999 0.69403 0.3445 0.0
C348 C 0.48876 0.70527 0.35946 0.0
C349 C 0.46579 0.69359 0.35877 0.0
C350 C 0.45402 0.67064 0.34328 0.0
C351 C 0.46517 0.65933 0.32825 0.0
C352 C 0.511 0.5965 0.45656 0.0
C353 C 0.50434 0.57551 0.4272 0.0
C354 C 0.51065 0.61339 0.42602 0.0
C355 C 0.5039 0.60975 0.36536 0.0
C356 C 0.49575 0.58836 0.33692 0.0
C357 C 0.49583 0.57135 0.36763 0.0
C358 C 0.5077 0.62888 0.33071 0.0
C359 C 0.49665 0.64059 0.34348 0.0
C360 C 0.52274 0.63592 0.28599 0.0
C361 C 0.53549 0.62474 0.27186 0.0
C362 C 0.53345 0.61501 0.21436 0.0
C363 C 0.54516 0.6041 0.20122 0.0
C364 C 0.55903 0.60292 0.24518 0.0
C365 C 0.56132 0.61274 0.30232 0.0
C366 C 0.5497 0.6237 0.31565 0.0
H367 H 0.56804 0.59443 0.23495 0.0
H368 H 0.45713 0.70231 0.37038 0.0
H369 H 0.82982 0.56206 0.16088 0.0
H370 H 0.85705 0.56148 0.23045 0.0
H371 H 0.84375 0.49866 0.14553 0.0
H372 H 0.81523 0.49812 0.07861 0.0
H373 H 0.8557 0.52066 0.30257 0.0
H374 H 0.90536 0.52408 0.103 0.0
H375 H 0.91309 0.53838 0.00403 0.0
H376 H 0.8942 0.58672 0.05256 0.0
H377 H 0.88748 0.57351 0.1526 0.0
H378 H 0.96812 0.52367 0.32214 0.0
H379 H 0.93527 0.51766 0.26295 0.0
H380 H 0.92985 0.56443 0.38345 0.0
H381 H 0.96252 0.57081 0.4421 0.0
H382 H 0.92607 0.54749 0.20739 0.0
H383 H 0.87415 0.54187 0.40633 0.0
H384 H 0.869 0.52889 0.507 0.0
H385 H 0.89375 0.4852 0.46086 0.0
H386 H 0.89862 0.49751 0.35954 0.0
C387 C 0.83184 0.54756 0.1587 0.0
C388 C 0.82069 0.53036 0.11322 0.0
C389 C 0.84761 0.54741 0.1981 0.0
C390 C 0.85276 0.53039 0.1915 0.0
C391 C 0.8402 0.51214 0.15029 0.0
C392 C 0.82397 0.51192 0.11212 0.0
C393 C 0.87251 0.53265 0.22367 0.0
C394 C 0.87118 0.52671 0.28216 0.0
C395 C 0.8924 0.53997 0.19594 0.0
C396 C 0.89522 0.54729 0.13484 0.0
C397 C 0.90277 0.5377 0.09248 0.0
C398 C 0.90726 0.54582 0.03642 0.0
C399 C 0.90408 0.5634 0.02198 0.0
C400 C 0.8965 0.57298 0.06365 0.0
C401 C 0.89232 0.56516 0.12009 0.0
C402 C 0.96018 0.53298 0.33539 0.0
C403 C 0.9679 0.5476 0.38709 0.0
C404 C 0.94135 0.5294 0.30182 0.0
C405 C 0.92992 0.54019 0.31991 0.0
C406 C 0.93819 0.55558 0.36965 0.0
C407 C 0.95702 0.55931 0.40279 0.0
C408 C 0.90943 0.53575 0.28666 0.0
C409 C 0.91057 0.54124 0.2278 0.0
C410 C 0.88941 0.52806 0.31414 0.0
C411 C 0.88691 0.52078 0.37535 0.0
C412 C 0.87842 0.52943 0.41755 0.0
C413 C 0.87548 0.52213 0.47467 0.0
C414 C 0.88093 0.50614 0.49015 0.0
C415 C 0.88948 0.49752 0.44868 0.0
C416 C 0.89238 0.5047 0.39142 0.0
H417 H 0.87863 0.50049 0.53436 0.0
H418 H 0.90746 0.56959 0.97845 0.0
H419 H 0.34328 0.84937 0.10542 0.0
H420 H 0.37158 0.87354 0.1828 0.0
H421 H 0.32499 0.84442 0.31531 0.0
H422 H 0.29623 0.82054 0.23737 0.0
H423 H 0.34535 0.88885 0.32613 0.0
H424 H 0.36811 0.83465 0.30456 0.0
H425 H 0.37895 0.8101 0.25195 0.0
H426 H 0.43442 0.86708 0.19003 0.0
H427 H 0.42377 0.89198 0.2416 0.0
H428 H 0.4223 0.95398 0.55915 0.0
H429 H 0.39632 0.92128 0.49487 0.0
H430 H 0.44087 0.94377 0.3554 0.0
H431 H 0.4678 0.97598 0.42189 0.0
H432 H 0.42087 0.90026 0.35341 0.0
H433 H 0.39586 0.95373 0.36337 0.0
H434 H 0.38563 0.97897 0.41517 0.0
H435 H 0.33459 0.92372 0.49594 0.0
H436 H 0.34466 0.89818 0.44502 0.0
C437 C 0.33905 0.84808 0.15107 0.0
C438 C 0.31748 0.83331 0.16541 0.0
C439 C 0.35533 0.86168 0.1953 0.0
C440 C 0.35044 0.86059 0.25482 0.0
C441 C 0.32909 0.84539 0.26956 0.0
C442 C 0.31273 0.83175 0.22517 0.0
C443 C 0.36707 0.87689 0.3006 0.0
C444 C 0.36172 0.89103 0.33298 0.0
C445 C 0.38863 0.88015 0.30802 0.0
C446 C 0.39502 0.86518 0.27663 0.0
C447 C 0.38251 0.84195 0.27932 0.0
C448 C 0.38866 0.82796 0.24977 0.0
C449 C 0.40736 0.83702 0.21762 0.0
C450 C 0.41996 0.86008 0.21498 0.0
C451 C 0.41389 0.87414 0.24442 0.0
C452 C 0.42656 0.9519 0.51476 0.0
C453 C 0.44671 0.96765 0.49457 0.0
C454 C 0.4117 0.93325 0.47809 0.0
C455 C 0.4163 0.93049 0.41965 0.0
C456 C 0.43689 0.94573 0.40017 0.0
C457 C 0.45216 0.96413 0.43778 0.0
C458 C 0.39916 0.91228 0.37842 0.0
C459 C 0.40442 0.89788 0.34685 0.0
C460 C 0.37752 0.90884 0.37117 0.0
C461 C 0.37112 0.92409 0.40073 0.0
C462 C 0.3825 0.94699 0.39231 0.0
C463 C 0.37673 0.96134 0.42151 0.0
C464 C 0.3595 0.95296 0.45892 0.0
C465 C 0.34794 0.93019 0.46698 0.0
C466 C 0.35363 0.91576 0.43787 0.0
H467 H 0.35509 0.9641 0.48157 0.0
H468 H 0.4121 0.82617 0.19481 0.0
H469 H 0.48832 0.30995 0.32322 0.0
H470 H 0.47395 0.3278 0.38745 0.0
H471 H 0.41999 0.30967 0.25717 0.0
H472 H 0.43393 0.29093 0.19272 0.0
H473 H 0.44776 0.35424 0.27542 0.0
H474 H 0.4086 0.29543 0.39679 0.0
H475 H 0.40171 0.26453 0.45811 0.0
H476 H 0.45498 0.30981 0.58327 0.0
H477 H 0.46248 0.34094 0.52227 0.0
H478 H 0.45013 0.44534 0.42388 0.0
H479 H 0.43279 0.40591 0.38867 0.0
H480 H 0.47849 0.39875 0.50649 0.0
H481 H 0.49467 0.43774 0.54481 0.0
H482 H 0.44225 0.36082 0.49225 0.0
H483 H 0.48904 0.41426 0.35774 0.0
H484 H 0.5004 0.44595 0.29575 0.0
H485 H 0.43771 0.41109 0.195 0.0
H486 H 0.42592 0.37929 0.2569 0.0
C487 C 0.47277 0.30865 0.30916 0.0
C488 C 0.46253 0.29937 0.25209 0.0
C489 C 0.46453 0.31892 0.34625 0.0
C490 C 0.44597 0.32019 0.32698 0.0
C491 C 0.43436 0.30888 0.27281 0.0
C492 C 0.44249 0.29839 0.23582 0.0
C493 C 0.44237 0.33756 0.356 0.0
C494 C 0.44575 0.35532 0.32252 0.0
C495 C 0.44052 0.33925 0.41773 0.0
C496 C 0.43614 0.32056 0.45471 0.0
C497 C 0.41897 0.2988 0.43714 0.0
C498 C 0.41494 0.28123 0.47191 0.0
C499 C 0.42791 0.2852 0.52453 0.0
C500 C 0.44494 0.30676 0.54252 0.0
C501 C 0.44906 0.32439 0.50789 0.0
C502 C 0.45609 0.43513 0.44297 0.0
C503 C 0.47398 0.44449 0.4859 0.0
C504 C 0.44622 0.41266 0.42292 0.0
C505 C 0.45481 0.39954 0.44345 0.0
C506 C 0.47164 0.40854 0.48964 0.0
C507 C 0.48101 0.43083 0.51121 0.0
C508 C 0.44851 0.3777 0.41188 0.0
C509 C 0.44341 0.3593 0.44482 0.0
C510 C 0.44942 0.37551 0.34967 0.0
C511 C 0.4565 0.39457 0.31238 0.0
C512 C 0.47765 0.41344 0.32257 0.0
C513 C 0.48416 0.4314 0.28746 0.0
C514 C 0.46975 0.43057 0.24161 0.0
C515 C 0.44883 0.41173 0.23064 0.0
C516 C 0.44222 0.39374 0.26571 0.0
H517 H 0.47482 0.44449 0.21446 0.0
H518 H 0.42475 0.27158 0.5514 0.0
H519 H 0.50341 0.82936 0.97356 0.0
H520 H 0.50258 0.85296 0.89841 0.0
H521 H 0.57052 0.87516 0.86949 0.0
H522 H 0.57161 0.85191 0.94631 0.0
H523 H 0.5651 0.90982 0.88176 0.0
H524 H 0.52912 0.84293 0.75997 0.0
H525 H 0.50324 0.80339 0.72849 0.0
H526 H 0.44858 0.81421 0.746 0.0
H527 H 0.4741 0.85376 0.77845 0.0
H528 H 0.5454 0.97564 0.67009 0.0
H529 H 0.55383 0.94676 0.69993 0.0
H530 H 0.49704 0.9191 0.80259 0.0
H531 H 0.48895 0.94787 0.77449 0.0
H532 H 0.50324 0.88658 0.72924 0.0
H533 H 0.54233 0.95224 0.87367 0.0
H534 H 0.56943 0.99197 0.89938 0.0
H535 H 0.62026 0.98258 0.82856 0.0
H536 H 0.59334 0.94283 0.80169 0.0
C537 C 0.51813 0.83907 0.95081 0.0
C538 C 0.5376 0.83878 0.96622 0.0
C539 C 0.51758 0.85244 0.90729 0.0
C540 C 0.53643 0.86577 0.87759 0.0
C541 C 0.55573 0.86499 0.8915 0.0
C542 C 0.55628 0.85154 0.93512 0.0
C543 C 0.53623 0.8818 0.83618 0.0
C544 C 0.55188 0.90458 0.84733 0.0
C545 C 0.5191 0.87518 0.79087 0.0
C546 C 0.50357 0.85132 0.77211 0.0
C547 C 0.51158 0.83685 0.75769 0.0
C548 C 0.49697 0.81443 0.73952 0.0
C549 C 0.47428 0.80629 0.73535 0.0
C550 C 0.46616 0.82055 0.74926 0.0
C551 C 0.4807 0.84298 0.76746 0.0
C552 C 0.53465 0.96321 0.69845 0.0
C553 C 0.51663 0.96409 0.72039 0.0
C554 C 0.53948 0.94678 0.7155 0.0
C555 C 0.52602 0.93079 0.75347 0.0
C556 C 0.50757 0.9312 0.77314 0.0
C557 C 0.50308 0.94776 0.75736 0.0
C558 C 0.5315 0.91435 0.77679 0.0
C559 C 0.5168 0.89157 0.76242 0.0
C560 C 0.54967 0.9209 0.81833 0.0
C561 C 0.56581 0.94469 0.835 0.0
C562 C 0.55925 0.95871 0.86313 0.0
C563 C 0.57457 0.98121 0.87799 0.0
C564 C 0.59654 0.98982 0.86541 0.0
C565 C 0.60323 0.97591 0.83813 0.0
C566 C 0.58796 0.9534 0.82309 0.0
H567 H 0.60838 0.00724 0.87695 0.0
H568 H 0.46299 0.78893 0.72125 0.0
H569 H 0.72212 0.53923 0.8826 0.0
H570 H 0.69084 0.52999 0.81349 0.0
H571 H 0.64861 0.47577 0.91516 0.0
H572 H 0.68013 0.48443 0.98404 0.0
H573 H 0.63676 0.47615 0.77229 0.0
H574 H 0.64634 0.51288 0.97544 0.0
H575 H 0.6723 0.53809 0.05802 0.0
H576 H 0.70306 0.5901 0.94054 0.0
H577 H 0.6771 0.56522 0.85739 0.0
H578 H 0.54363 0.4904 0.71828 0.0
H579 H 0.57024 0.48318 0.77132 0.0
H580 H 0.62267 0.54856 0.73843 0.0
H581 H 0.59622 0.55599 0.68619 0.0
H582 H 0.62684 0.53846 0.85095 0.0
H583 H 0.61396 0.50369 0.65133 0.0
H584 H 0.59038 0.4785 0.5656 0.0
H585 H 0.56727 0.42262 0.67196 0.0
H586 H 0.59059 0.44756 0.75853 0.0
C587 C 0.70656 0.52444 0.88841 0.0
C588 C 0.70345 0.51294 0.93978 0.0
C589 C 0.68863 0.51919 0.8487 0.0
C590 C 0.66745 0.5025 0.86007 0.0
C591 C 0.66488 0.48873 0.90583 0.0
C592 C 0.68288 0.49385 0.94542 0.0
C593 C 0.64846 0.50419 0.83684 0.0
C594 C 0.63426 0.48947 0.7899 0.0
C595 C 0.64545 0.52171 0.85978 0.0
C596 C 0.65988 0.53723 0.91038 0.0
C597 C 0.6586 0.52973 0.96737 0.0
C598 C 0.67338 0.54389 0.01412 0.0
C599 C 0.68954 0.56556 0.00431 0.0
C600 C 0.69064 0.57326 0.94797 0.0
C601 C 0.67582 0.55919 0.9011 0.0
C602 C 0.56076 0.50335 0.72319 0.0
C603 C 0.56781 0.52372 0.69787 0.0
C604 C 0.57596 0.49914 0.75309 0.0
C605 C 0.59844 0.51524 0.75805 0.0
C606 C 0.60539 0.5359 0.73493 0.0
C607 C 0.59024 0.54009 0.70497 0.0
C608 C 0.61498 0.5105 0.78562 0.0
C609 C 0.6289 0.5248 0.8337 0.0
C610 C 0.61757 0.49253 0.7636 0.0
C611 C 0.60387 0.47749 0.71143 0.0
C612 C 0.60378 0.48604 0.65646 0.0
C613 C 0.59048 0.47182 0.60772 0.0
C614 C 0.57731 0.44898 0.61334 0.0
C615 C 0.57747 0.44032 0.66768 0.0
C616 C 0.59075 0.45448 0.71657 0.0
H617 H 0.56699 0.438 0.57558 0.0
H618 H 0.70101 0.57645 0.04054 0.0
H619 H 0.19739 0.71927 0.94491 0.0
H620 H 0.16709 0.69692 0.87165 0.0
H621 H 0.12505 0.71396 0.96745 0.0
H622 H 0.15578 0.73715 0.04115 0.0
H623 H 0.11083 0.66894 0.95615 0.0
H624 H 0.12952 0.72586 0.81667 0.0
H625 H 0.1564 0.75707 0.76315 0.0
H626 H 0.17982 0.71533 0.68876 0.0
H627 H 0.15305 0.68391 0.74186 0.0
H628 H 0.02646 0.57914 0.7809 0.0
H629 H 0.04882 0.61785 0.82254 0.0
H630 H 0.10356 0.62441 0.72743 0.0
H631 H 0.08049 0.58626 0.68217 0.0
H632 H 0.10688 0.6625 0.73624 0.0
H633 H 0.09475 0.60846 0.8774 0.0
H634 H 0.07303 0.57667 0.93643 0.0
H635 H 0.0436 0.6118 0.01671 0.0
H636 H 0.06497 0.64371 0.95759 0.0
C637 C 0.18209 0.71926 0.94928 0.0
C638 C 0.17903 0.72994 -0.00065 0.0
C639 C 0.16469 0.70638 0.90706 0.0
C640 C 0.14386 0.70389 0.91388 0.0
C641 C 0.14107 0.71579 0.96134 0.0
C642 C 0.15858 0.72887 0.00355 0.0
C643 C 0.12458 0.68571 0.87818 0.0
C644 C 0.10942 0.66779 0.90802 0.0
C645 C 0.12346 0.68391 0.81565 0.0
C646 C 0.13918 0.70254 0.78265 0.0
C647 C 0.14038 0.72337 0.78872 0.0
C648 C 0.15559 0.74108 0.75852 0.0
C649 C 0.16978 0.73817 0.72247 0.0
C650 C 0.1688 0.71756 0.71661 0.0
C651 C 0.15353 0.69976 0.74645 0.0
C652 C 0.04317 0.58909 0.76837 0.0
C653 C 0.05206 0.57986 0.72954 0.0
C654 C 0.05596 0.61112 0.79219 0.0
C655 C 0.07815 0.62386 0.77979 0.0
C656 C 0.08656 0.61494 0.73809 0.0
C657 C 0.07349 0.59313 0.71259 0.0
C658 C 0.09314 0.64544 0.81431 0.0
C659 C 0.10763 0.66387 0.78431 0.0
C660 C 0.09415 0.64751 0.87717 0.0
C661 C 0.0812 0.62831 0.91251 0.0
C662 C 0.08351 0.60932 0.90733 0.0
C663 C 0.07129 0.5913 0.94083 0.0
C664 C 0.05688 0.59218 0.98013 0.0
C665 C 0.05471 0.61112 0.98612 0.0
C666 C 0.06687 0.62917 0.95264 0.0
H667 H 0.04745 0.57822 0.00606 0.0
H668 H 0.18155 0.7519 0.69915 0.0
H669 H 0.49522 0.22224 0.04192 0.0
H670 H 0.50083 0.20124 0.96111 0.0
H671 H 0.51561 0.16547 0.08907 0.0
H672 H 0.5124 0.18765 0.16888 0.0
H673 H 0.54241 0.17483 0.01193 0.0
H674 H 0.46308 0.14444 0.00358 0.0
H675 H 0.42893 0.14624 0.99156 0.0
H676 H 0.44526 0.16968 0.81861 0.0
H677 H 0.47964 0.16823 0.82994 0.0
H678 H 0.51102 0.06817 0.88021 0.0
H679 H 0.51654 0.10161 0.93658 0.0
H680 H 0.50983 0.12859 0.77428 0.0
H681 H 0.50328 0.09467 0.7179 0.0
H682 H 0.48394 0.13067 0.85155 0.0
H683 H 0.56082 0.15071 0.86238 0.0
H684 H 0.59051 0.14228 0.88196 0.0
H685 H 0.57444 0.13207 0.0629 0.0
H686 H 0.54447 0.14027 0.04425 0.0
C687 C 0.49989 0.21006 0.05271 0.0
C688 C 0.5029 0.2064 0.11213 0.0
C689 C 0.50287 0.1979 0.00645 0.0
C690 C 0.50839 0.18156 0.0189 0.0
C691 C 0.51139 0.17799 0.07809 0.0
C692 C 0.50903 0.19043 0.12396 0.0
C693 C 0.51102 0.16777 0.97144 0.0
C694 C 0.52959 0.16517 0.97686 0.0
C695 C 0.49464 0.15559 0.92465 0.0
C696 C 0.47404 0.15653 0.91794 0.0
C697 C 0.45946 0.15014 0.9632 0.0
C698 C 0.44006 0.15107 0.95647 0.0
C699 C 0.43498 0.15815 0.90445 0.0
C700 C 0.44925 0.16426 0.85895 0.0
C701 C 0.46869 0.16339 0.86549 0.0
C702 C 0.51123 0.08144 0.85644 0.0
C703 C 0.50663 0.07879 0.79474 0.0
C704 C 0.51447 0.10061 0.88867 0.0
C705 C 0.51383 0.11774 0.85957 0.0
C706 C 0.51038 0.11559 0.79761 0.0
C707 C 0.50673 0.09624 0.76548 0.0
C708 C 0.51472 0.13686 0.89427 0.0
C709 C 0.49698 0.14068 0.88582 0.0
C710 C 0.53145 0.14957 0.93977 0.0
C711 C 0.55034 0.146 0.95177 0.0
C712 C 0.56362 0.14667 0.90633 0.0
C713 C 0.58045 0.14182 0.91727 0.0
C714 C 0.58421 0.13637 0.97355 0.0
C715 C 0.57142 0.13617 0.01929 0.0
C716 C 0.55457 0.14099 0.0086 0.0
H717 H 0.59706 0.13237 0.98201 0.0
H718 H 0.41994 0.15885 0.89931 0.0
H719 H 0.32695 0.54151 0.01793 0.0
H720 H 0.35403 0.53713 0.96301 0.0
H721 H 0.32217 0.46769 0.9976 0.0
H722 H 0.2953 0.47215 0.05316 0.0
H723 H 0.3644 0.48857 0.03633 0.0
H724 H 0.32366 0.4842 0.85606 0.0
H725 H 0.305 0.49609 0.78418 0.0
H726 H 0.36573 0.55692 0.76962 0.0
H727 H 0.38471 0.54553 0.84208 0.0
H728 H 0.42097 0.45512 0.82869 0.0
H729 H 0.39414 0.45993 0.88398 0.0
H730 H 0.43822 0.53096 0.90256 0.0
H731 H 0.46567 0.52613 0.84961 0.0
H732 H 0.39143 0.5109 0.8383 0.0
H733 H 0.4318 0.51569 0.01959 0.0
H734 H 0.45035 0.50444 0.09369 0.0
H735 H 0.39008 0.4429 0.1059 0.0
H736 H 0.37121 0.4537 0.0314 0.0
C737 C 0.32518 0.52511 0.01149 0.0
C738 C 0.30906 0.50715 0.03962 0.0
C739 C 0.34075 0.52264 0.98045 0.0
C740 C 0.34026 0.50211 0.97665 0.0
C741 C 0.32298 0.48371 0.00038 0.0
C742 C 0.30751 0.4862 0.03157 0.0
C743 C 0.35905 0.50044 0.95448 0.0
C744 C 0.37005 0.49312 0.99258 0.0
C745 C 0.36697 0.50715 0.89833 0.0
C746 C 0.35556 0.51411 0.85501 0.0
C747 C 0.333 0.50021 0.83799 0.0
C748 C 0.32237 0.50684 0.79703 0.0
C749 C 0.33415 0.52728 0.77248 0.0
C750 C 0.35661 0.54111 0.78875 0.0
C751 C 0.36732 0.53456 0.82972 0.0
C752 C 0.42527 0.47167 0.8466 0.0
C753 C 0.4454 0.49029 0.83531 0.0
C754 C 0.40993 0.4744 0.87787 0.0
C755 C 0.41427 0.49581 0.89703 0.0
C756 C 0.43476 0.51434 0.88833 0.0
C757 C 0.4504 0.51155 0.85855 0.0
C758 C 0.39645 0.49883 0.91993 0.0
C759 C 0.38567 0.50637 0.88196 0.0
C760 C 0.38871 0.49233 0.97614 0.0
C761 C 0.40017 0.48537 0.01925 0.0
C762 C 0.42258 0.49961 0.03738 0.0
C763 C 0.43313 0.49337 0.07969 0.0
C764 C 0.42143 0.47293 0.10432 0.0
C765 C 0.39914 0.4587 0.08669 0.0
C766 C 0.3885 0.46489 0.04447 0.0
H767 H 0.42961 0.46816 0.1372 0.0
H768 H 0.3259 0.53237 0.74074 0.0
H769 H 0.84571 0.2941 0.95948 0.0
H770 H 0.86405 0.32247 0.88953 0.0
H771 H 0.82328 0.35072 0.93244 0.0
H772 H 0.80573 0.32296 0.00461 0.0
H773 H 0.85821 0.34045 0.79583 0.0
H774 H 0.8548 0.40662 0.95256 0.0
H775 H 0.84888 0.4122 0.05722 0.0
H776 H 0.87311 0.36897 0.10752 0.0
H777 H 0.8795 0.36345 0.00339 0.0
H778 H 0.92926 0.44158 0.67115 0.0
H779 H 0.89575 0.4127 0.71086 0.0
H780 H 0.93137 0.42633 0.88227 0.0
H781 H 0.96393 0.45638 0.84392 0.0
H782 H 0.89369 0.41564 0.9028 0.0
H783 H 0.92211 0.38215 0.76292 0.0
H784 H 0.93271 0.3766 0.6637 0.0
H785 H 0.8668 0.35314 0.58999 0.0
H786 H 0.85591 0.35889 0.68862 0.0
C787 C 0.84017 0.3059 0.95226 0.0
C788 C 0.82442 0.30649 0.98724 0.0
C789 C 0.85065 0.32213 0.91234 0.0
C790 C 0.84542 0.33907 0.90667 0.0
C791 C 0.82791 0.3381 0.93693 0.0
C792 C 0.81777 0.32217 0.97775 0.0
C793 C 0.86038 0.3593 0.87675 0.0
C794 C 0.86585 0.35693 0.81896 0.0
C795 C 0.87068 0.38081 0.90716 0.0
C796 C 0.86732 0.3844 0.9701 0.0
C797 C 0.85892 0.39838 0.98602 0.0
C798 C 0.8555 0.40153 0.04524 0.0
C799 C 0.86053 0.39087 0.08895 0.0
C800 C 0.86915 0.37716 0.07361 0.0
C801 C 0.87268 0.37402 0.01451 0.0
C802 C 0.92962 0.43865 0.71763 0.0
C803 C 0.94908 0.4511 0.75462 0.0
C804 C 0.91058 0.42198 0.7402 0.0
C805 C 0.91106 0.4167 0.7993 0.0
C806 C 0.93036 0.42991 0.83659 0.0
C807 C 0.94905 0.44711 0.81468 0.0
C808 C 0.89223 0.39686 0.82233 0.0
C809 C 0.88587 0.39928 0.87896 0.0
C810 C 0.8819 0.37531 0.79177 0.0
C811 C 0.88826 0.37115 0.73296 0.0
C812 C 0.9099 0.37584 0.72549 0.0
C813 C 0.91597 0.37272 0.66935 0.0
C814 C 0.90046 0.36464 0.6205 0.0
C815 C 0.87882 0.35951 0.62779 0.0
C816 C 0.87268 0.36268 0.68379 0.0
H817 H 0.9052 0.3623 0.57703 0.0
H818 H 0.85781 0.39329 0.13473 0.0
H819 H 0.79908 0.49817 0.88922 0.0
H820 H 0.82436 0.49418 0.82519 0.0
H821 H 0.86576 0.56572 0.83534 0.0
H822 H 0.84015 0.56967 0.89785 0.0
H823 H 0.86897 0.54728 0.7314 0.0
H824 H 0.8691 0.53346 0.93789 0.0
H825 H 0.85515 0.51463 0.02859 0.0
H826 H 0.84583 0.45344 0.94457 0.0
H827 H 0.85994 0.47205 0.85317 0.0
H828 H 0.97647 0.56905 0.72345 0.0
H829 H 0.94314 0.56533 0.76305 0.0
H830 H 0.91205 0.49373 0.73753 0.0
H831 H 0.94563 0.49731 0.69849 0.0
H832 H 0.90014 0.50714 0.83784 0.0
H833 H 0.90456 0.5224 0.63501 0.0
H834 H 0.92233 0.54288 0.54905 0.0
H835 H 0.92298 0.60103 0.62534 0.0
H836 H 0.90613 0.58129 0.71311 0.0
C837 C 0.81296 0.51302 0.875 0.0
C838 C 0.81768 0.53423 0.89814 0.0
C839 C 0.82754 0.51074 0.83907 0.0
C840 C 0.84729 0.52963 0.82692 0.0
C841 C 0.8507 0.5509 0.84438 0.0
C842 C 0.83597 0.55318 0.87974 0.0
C843 C 0.86576 0.52739 0.80435 0.0
C844 C 0.8758 0.53853 0.75467 0.0
C845 C 0.8744 0.5155 0.83398 0.0
C846 C 0.86538 0.50413 0.88843 0.0
C847 C 0.86392 0.51596 0.93853 0.0
C848 C 0.85597 0.50531 0.99012 0.0
C849 C 0.8494 0.48279 0.9923 0.0
C850 C 0.85086 0.47088 0.94282 0.0
C851 C 0.85888 0.4815 0.89112 0.0
C852 C 0.96273 0.55248 0.72749 0.0
C853 C 0.96357 0.53348 0.70701 0.0
C854 C 0.94363 0.55039 0.74977 0.0
C855 C 0.92487 0.52929 0.75135 0.0
C856 C 0.92626 0.51019 0.7359 0.0
C857 C 0.9455 0.51226 0.71394 0.0
C858 C 0.90359 0.52742 0.76577 0.0
C859 C 0.89305 0.51551 0.81383 0.0
C860 C 0.89448 0.53856 0.73458 0.0
C861 C 0.90419 0.55036 0.68105 0.0
C862 C 0.90866 0.53962 0.63382 0.0
C863 C 0.91861 0.55111 0.58476 0.0
C864 C 0.9237 0.5732 0.58163 0.0
C865 C 0.91899 0.5839 0.62777 0.0
C866 C 0.90931 0.57259 0.67732 0.0
H867 H 0.9313 0.58201 0.54346 0.0
H868 H 0.84329 0.47461 0.03239 0.0
H869 H 0.30737 0.81794 0.92425 0.0
H870 H 0.32377 0.84799 0.85811 0.0
H871 H 0.28432 0.87484 0.92426 0.0
H872 H 0.2686 0.84519 0.99217 0.0
H873 H 0.31686 0.87009 0.77419 0.0
H874 H 0.31565 0.92834 0.95874 0.0
H875 H 0.31169 0.93035 0.06639 0.0
H876 H 0.33922 0.888 0.09155 0.0
H877 H 0.34309 0.88554 0.98399 0.0
H878 H 0.39679 0.97828 0.69 0.0
H879 H 0.36117 0.94938 0.72049 0.0
H880 H 0.39405 0.94382 0.87863 0.0
H881 H 0.42908 0.97285 0.84997 0.0
H882 H 0.35739 0.94006 0.9053 0.0
H883 H 0.38093 0.90914 0.74405 0.0
H884 H 0.39045 0.90709 0.64113 0.0
H885 H 0.32637 0.89365 0.57572 0.0
H886 H 0.31661 0.89596 0.67828 0.0
C887 C 0.30142 0.82962 0.92239 0.0
C888 C 0.2867 0.82928 0.96287 0.0
C889 C 0.31086 0.84688 0.88477 0.0
C890 C 0.30568 0.86401 0.88717 0.0
C891 C 0.28885 0.86203 0.92233 0.0
C892 C 0.27967 0.84496 0.96062 0.0
C893 C 0.32061 0.88547 0.86211 0.0
C894 C 0.32547 0.88549 0.80253 0.0
C895 C 0.33209 0.90559 0.89906 0.0
C896 C 0.3294 0.90657 0.96345 0.0
C897 C 0.32076 0.91939 0.9873 0.0
C898 C 0.31849 0.92056 0.04822 0.0
C899 C 0.32506 0.90917 0.0857 0.0
C900 C 0.33395 0.89663 0.06237 0.0
C901 C 0.33611 0.89528 0.00145 0.0
C902 C 0.3963 0.97123 0.73191 0.0
C903 C 0.41586 0.97777 0.76725 0.0
C904 C 0.37595 0.95458 0.74902 0.0
C905 C 0.37492 0.94413 0.80145 0.0
C906 C 0.39431 0.95155 0.838 0.0
C907 C 0.41445 0.96816 0.8213 0.0
C908 C 0.35427 0.92459 0.81793 0.0
C909 C 0.34826 0.92492 0.87611 0.0
C910 C 0.34237 0.9047 0.78018 0.0
C911 C 0.34814 0.90298 0.71871 0.0
C912 C 0.36893 0.90587 0.70767 0.0
C913 C 0.37437 0.90467 0.64943 0.0
C914 C 0.35905 0.90032 0.60192 0.0
C915 C 0.33824 0.89709 0.61256 0.0
C916 C 0.33274 0.89834 0.67071 0.0
H917 H 0.36327 0.89936 0.5569 0.0
H918 H 0.32336 0.91015 0.13286 0.0
H919 H 0.45727 0.29492 0.02889 0.0
H920 H 0.45943 0.31723 0.94632 0.0
H921 H 0.5299 0.35665 0.98245 0.0
H922 H 0.52777 0.3344 0.06551 0.0
H923 H 0.51113 0.38244 0.97753 0.0
H924 H 0.50748 0.32249 0.85573 0.0
H925 H 0.4928 0.28352 0.81664 0.0
H926 H 0.43172 0.27923 0.75841 0.0
H927 H 0.4459 0.31808 0.79804 0.0
H928 H 0.5244 0.45252 0.75267 0.0
H929 H 0.5276 0.4243 0.80531 0.0
H930 H 0.4578 0.37916 0.77013 0.0
H931 H 0.45468 0.40716 0.71511 0.0
H932 H 0.47865 0.35603 0.77063 0.0
H933 H 0.47991 0.41331 0.90221 0.0
H934 H 0.4934 0.452 0.94218 0.0
H935 H 0.55752 0.46057 0.98385 0.0
H936 H 0.54447 0.42199 0.94345 0.0
C937 C 0.47329 0.30805 0.01842 0.0
C938 C 0.49235 0.31288 0.05378 0.0
C939 C 0.47452 0.32075 0.97101 0.0
C940 C 0.49484 0.33865 0.95787 0.0
C941 C 0.51403 0.34291 0.99156 0.0
C942 C 0.51283 0.33006 0.03875 0.0
C943 C 0.49571 0.35412 0.91306 0.0
C944 C 0.50444 0.3767 0.93195 0.0
C945 C 0.48634 0.3466 0.85399 0.0
C946 C 0.4777 0.32317 0.8304 0.0
C947 C 0.49084 0.31318 0.83513 0.0
C948 C 0.48262 0.29112 0.81276 0.0
C949 C 0.46132 0.27889 0.78519 0.0
C950 C 0.44821 0.28872 0.77985 0.0
C951 C 0.45634 0.31077 0.80222 0.0
C952 C 0.5098 0.43642 0.75492 0.0
C953 C 0.48923 0.4322 0.73018 0.0
C954 C 0.51162 0.4203 0.78546 0.0
C955 C 0.49283 0.39977 0.79348 0.0
C956 C 0.47253 0.3949 0.7651 0.0
C957 C 0.47076 0.41093 0.73351 0.0
C958 C 0.49405 0.3843 0.83524 0.0
C959 C 0.48559 0.36176 0.816 0.0
C960 C 0.50346 0.39175 0.89435 0.0
C961 C 0.51127 0.41486 0.91931 0.0
C962 C 0.49692 0.42349 0.91962 0.0
C963 C 0.50448 0.44539 0.94237 0.0
C964 C 0.52632 0.45875 0.96541 0.0
C965 C 0.54062 0.45021 0.96592 0.0
C966 C 0.53315 0.42833 0.94316 0.0
H967 H 0.53215 0.47571 0.98297 0.0
H968 H 0.45499 0.26181 0.76786 0.0
H969 H 0.18165 0.45362 0.04149 0.0
H970 H 0.15209 0.43555 0.9619 0.0
H971 H 0.17525 0.49911 0.88839 0.0
H972 H 0.20538 0.51658 0.96526 0.0
H973 H 0.12104 0.44225 0.95788 0.0
H974 H 0.15459 0.49787 0.75682 0.0
H975 H 0.18685 0.51198 0.69755 0.0
H976 H 0.19868 0.46001 0.75003 0.0
H977 H 0.16627 0.44532 0.8089 0.0
H978 H 0.0555 0.48211 0.85116 0.0
H979 H 0.08312 0.47346 0.8885 0.0
H980 H 0.0755 0.43578 0.72329 0.0
H981 H 0.04783 0.44463 0.68496 0.0
H982 H 0.1178 0.46389 0.75392 0.0
H983 H 0.05991 0.40832 0.84757 0.0
H984 H 0.02663 0.39048 0.90277 0.0
H985 H 0.06216 0.43511 0.05631 0.0
H986 H 0.09559 0.45347 0.00182 0.0
C987 C 0.18102 0.46334 0.00622 0.0
C988 C 0.19577 0.48638 0.00891 0.0
C989 C 0.16403 0.4531 0.96108 0.0
C990 C 0.16121 0.46588 0.9189 0.0
C991 C 0.17717 0.48861 0.91906 0.0
C992 C 0.19444 0.49869 0.96327 0.0
C993 C 0.1398 0.45698 0.88311 0.0
C994 C 0.12038 0.44663 0.91285 0.0
C995 C 0.13854 0.46186 0.8235 0.0
C996 C 0.15795 0.47049 0.78747 0.0
C997 C 0.16393 0.4893 0.75536 0.0
C998 C 0.18229 0.49744 0.72191 0.0
C999 C 0.19482 0.48691 0.72006 0.0
C1000 C 0.18899 0.46818 0.7516 0.0
C1001 C 0.17063 0.45996 0.78509 0.0
C1002 C 0.05939 0.4717 0.82291 0.0
C1003 C 0.04949 0.46416 0.76495 0.0
C1004 C 0.07513 0.46663 0.84451 0.0
C1005 C 0.08126 0.4538 0.80888 0.0
C1006 C 0.07095 0.44564 0.75159 0.0
C1007 C 0.05507 0.45064 0.72991 0.0
C1008 C 0.09979 0.45081 0.83057 0.0
C1009 C 0.11852 0.45888 0.79818 0.0
C1010 C 0.10034 0.44324 0.88708 0.0
C1011 C 0.08029 0.43231 0.92045 0.0
C1012 C 0.06061 0.41443 0.893 0.0
C1013 C 0.04171 0.40421 0.92419 0.0
C1014 C 0.04228 0.41166 0.98301 0.0
C1015 C 0.06176 0.42934 0.01077 0.0
C1016 C 0.08071 0.43963 0.97976 0.0
H1017 H 0.02763 0.40373 0.00709 0.0
H1018 H 0.20904 0.49325 0.69418 0.0
H1019 H 0.70463 0.22609 0.98056 0.0
H1020 H 0.67402 0.20395 0.90577 0.0
H1021 H 0.7013 0.16159 0.86627 0.0
H1022 H 0.73238 0.18435 0.93868 0.0
H1023 H 0.67504 0.16111 0.77093 0.0
H1024 H 0.66578 0.14631 0.98783 0.0
H1025 H 0.66855 0.1607 0.0915 0.0
H1026 H 0.63123 0.19161 0.03987 0.0
H1027 H 0.62863 0.17772 0.93561 0.0
H1028 H 0.59372 0.05001 0.74228 0.0
H1029 H 0.6239 0.08464 0.79047 0.0
H1030 H 0.58134 0.11277 0.797 0.0
H1031 H 0.5509 0.07811 0.74815 0.0
H1032 H 0.6129 0.12464 0.89899 0.0
H1033 H 0.60928 0.12208 0.68733 0.0
H1034 H 0.60601 0.10406 0.5881 0.0
H1035 H 0.66821 0.10767 0.62492 0.0
H1036 H 0.67132 0.12459 0.72571 0.0
C1037 C 0.70466 0.21282 0.9534 0.0
C1038 C 0.72064 0.20673 0.96535 0.0
C1039 C 0.68711 0.20006 0.91115 0.0
C1040 C 0.68504 0.1807 0.88208 0.0
C1041 C 0.70251 0.17639 0.88846 0.0
C1042 C 0.7203 0.18943 0.92976 0.0
C1043 C 0.6633 0.1626 0.85633 0.0
C1044 C 0.66127 0.15334 0.79837 0.0
C1045 C 0.64532 0.15254 0.89215 0.0
C1046 C 0.64682 0.16083 0.95444 0.0
C1047 C 0.6581 0.15608 0.9988 0.0
C1048 C 0.65961 0.16412 0.05759 0.0
C1049 C 0.6499 0.17687 0.07244 0.0
C1050 C 0.63871 0.18169 0.02839 0.0
C1051 C 0.6372 0.17374 0.96948 0.0
C1052 C 0.59056 0.06332 0.75533 0.0
C1053 C 0.57006 0.06151 0.74026 0.0
C1054 C 0.60786 0.08311 0.78261 0.0
C1055 C 0.60494 0.10137 0.79544 0.0
C1056 C 0.5839 0.09887 0.78662 0.0
C1057 C 0.5665 0.07901 0.75905 0.0
C1058 C 0.62433 0.12344 0.81328 0.0
C1059 C 0.6261 0.13308 0.87027 0.0
C1060 C 0.64185 0.13393 0.77601 0.0
C1061 C 0.64044 0.12448 0.7145 0.0
C1062 C 0.62217 0.11884 0.67462 0.0
C1063 C 0.62032 0.10877 0.61807 0.0
C1064 C 0.63693 0.10482 0.60009 0.0
C1065 C 0.65536 0.11078 0.63886 0.0
C1066 C 0.65713 0.12051 0.69586 0.0
H1067 H 0.63551 0.09714 0.55614 0.0
H1068 H 0.65114 0.18311 0.11799 0.0
H1069 H 0.56143 0.74022 0.91729 0.0
H1070 H 0.5569 0.71373 0.83554 0.0
H1071 H 0.48684 0.67718 0.85336 0.0
H1072 H 0.49153 0.70331 0.93679 0.0
H1073 H 0.50327 0.65233 0.87238 0.0
H1074 H 0.50897 0.69853 0.71936 0.0
H1075 H 0.52402 0.7328 0.6667 0.0
H1076 H 0.58465 0.7325 0.6527 0.0
H1077 H 0.57011 0.69841 0.70607 0.0
H1078 H 0.50859 0.57972 0.61454 0.0
H1079 H 0.50952 0.61464 0.64429 0.0
H1080 H 0.54371 0.61895 0.81159 0.0
H1081 H 0.54202 0.58372 0.78323 0.0
H1082 H 0.53863 0.65819 0.68393 0.0
H1083 H 0.52154 0.63076 0.92073 0.0
H1084 H 0.50531 0.59632 0.9729 0.0
H1085 H 0.4638 0.55936 0.81629 0.0
H1086 H 0.47974 0.5936 0.76332 0.0
C1087 C 0.54495 0.72708 0.90203 0.0
C1088 C 0.52684 0.72357 0.93355 0.0
C1089 C 0.54235 0.71196 0.85504 0.0
C1090 C 0.52153 0.69333 0.83844 0.0
C1091 C 0.50307 0.69135 0.86562 0.0
C1092 C 0.50573 0.70625 0.9132 0.0
C1093 C 0.51988 0.67381 0.80364 0.0
C1094 C 0.51072 0.65365 0.83065 0.0
C1095 C 0.52959 0.67539 0.74922 0.0
C1096 C 0.53846 0.69593 0.71707 0.0
C1097 C 0.52558 0.70585 0.70548 0.0
C1098 C 0.53401 0.72524 0.67541 0.0
C1099 C 0.55529 0.73484 0.65643 0.0
C1100 C 0.56817 0.72504 0.66741 0.0
C1101 C 0.55982 0.70566 0.69749 0.0
C1102 C 0.51673 0.5884 0.65713 0.0
C1103 C 0.52484 0.57884 0.69719 0.0
C1104 C 0.51726 0.60835 0.674 0.0
C1105 C 0.52613 0.61902 0.73076 0.0
C1106 C 0.53627 0.61064 0.76816 0.0
C1107 C 0.53534 0.59056 0.75191 0.0
C1108 C 0.52265 0.63727 0.75399 0.0
C1109 C 0.53085 0.65701 0.72499 0.0
C1110 C 0.51184 0.63539 0.80651 0.0
C1111 C 0.50192 0.6147 0.83802 0.0
C1112 C 0.50889 0.61528 0.89753 0.0
C1113 C 0.49979 0.5958 0.9272 0.0
C1114 C 0.48362 0.57565 0.8979 0.0
C1115 C 0.47643 0.57495 0.83889 0.0
C1116 C 0.48551 0.59439 0.80897 0.0
H1117 H 0.47669 0.56063 0.92109 0.0
H1118 H 0.56179 0.74985 0.63315 0.0
H1119 H 0.46026 0.18666 0.30256 0.0
H1120 H 0.46006 0.16149 0.37461 0.0
H1121 H 0.52798 0.20856 0.43094 0.0
H1122 H 0.52821 0.23372 0.35825 0.0
H1123 H 0.52332 0.1696 0.39477 0.0
H1124 H 0.48756 0.19291 0.52942 0.0
H1125 H 0.46019 0.20261 0.56267 0.0
H1126 H 0.40817 0.13563 0.51349 0.0
H1127 H 0.43517 0.12558 0.47912 0.0
H1128 H 0.50005 0.08028 0.61442 0.0
H1129 H 0.49819 0.11377 0.59307 0.0
H1130 H 0.48543 0.092 0.40683 0.0
H1131 H 0.48746 0.05895 0.42756 0.0
H1132 H 0.46734 0.12347 0.53079 0.0
H1133 H 0.52077 0.13589 0.33264 0.0
H1134 H 0.54687 0.12421 0.30047 0.0
H1135 H 0.56447 0.12074 0.48188 0.0
H1136 H 0.53927 0.13338 0.51528 0.0
C1137 C 0.47483 0.19207 0.33225 0.0
C1138 C 0.49422 0.21219 0.32497 0.0
C1139 C 0.47474 0.17763 0.37342 0.0
C1140 C 0.49404 0.18301 0.40823 0.0
C1141 C 0.51288 0.204 0.40461 0.0
C1142 C 0.51294 0.21852 0.36355 0.0
C1143 C 0.49539 0.16546 0.44067 0.0
C1144 C 0.51125 0.15978 0.42519 0.0
C1145 C 0.47977 0.1526 0.48074 0.0
C1146 C 0.46342 0.15853 0.50138 0.0
C1147 C 0.47027 0.18028 0.52527 0.0
C1148 C 0.45482 0.18584 0.54441 0.0
C1149 C 0.43245 0.16975 0.54013 0.0
C1150 C 0.4255 0.14807 0.51679 0.0
C1151 C 0.44088 0.14242 0.49757 0.0
C1152 C 0.49639 0.08245 0.56917 0.0
C1153 C 0.49423 0.06712 0.52266 0.0
C1154 C 0.4953 0.10156 0.55702 0.0
C1155 C 0.49203 0.10556 0.49821 0.0
C1156 C 0.48828 0.08943 0.45243 0.0
C1157 C 0.4895 0.07054 0.46441 0.0
C1158 C 0.49471 0.12736 0.48301 0.0
C1159 C 0.47964 0.13369 0.50142 0.0
C1160 C 0.51117 0.141 0.44591 0.0
C1161 C 0.52791 0.13537 0.42644 0.0
C1162 C 0.53047 0.13299 0.36573 0.0
C1163 C 0.54512 0.1262 0.34727 0.0
C1164 C 0.55725 0.12165 0.38909 0.0
C1165 C 0.55506 0.12426 0.44951 0.0
C1166 C 0.54068 0.13135 0.46824 0.0
H1167 H 0.56841 0.11618 0.37471 0.0
H1168 H 0.42052 0.17409 0.55496 0.0
H1169 H 0.28724 0.478 0.25306 0.0
H1170 H 0.31286 0.47589 0.3258 0.0
H1171 H 0.35423 0.5474 0.33511 0.0
H1172 H 0.32834 0.54955 0.26341 0.0
H1173 H 0.37362 0.52185 0.29181 0.0
H1174 H 0.33518 0.52717 0.45573 0.0
H1175 H 0.30297 0.51728 0.51326 0.0
H1176 H 0.29218 0.45097 0.52247 0.0
H1177 H 0.32415 0.46035 0.46421 0.0
H1178 H 0.45878 0.52782 0.48617 0.0
H1179 H 0.4306 0.53243 0.43306 0.0
H1180 H 0.38229 0.46405 0.45557 0.0
H1181 H 0.41031 0.45947 0.51031 0.0
H1182 H 0.36659 0.48974 0.48598 0.0
H1183 H 0.40162 0.48198 0.31651 0.0
H1184 H 0.43248 0.4898 0.25502 0.0
H1185 H 0.44827 0.55797 0.25194 0.0
H1186 H 0.41756 0.55058 0.31364 0.0
C1187 C 0.30117 0.4933 0.27327 0.0
C1188 C 0.30579 0.51394 0.25344 0.0
C1189 C 0.31587 0.4921 0.31434 0.0
C1190 C 0.33548 0.51149 0.33529 0.0
C1191 C 0.33914 0.53228 0.31941 0.0
C1192 C 0.32425 0.53352 0.2791 0.0
C1193 C 0.3535 0.50962 0.36548 0.0
C1194 C 0.37233 0.51525 0.33485 0.0
C1195 C 0.35129 0.50017 0.42034 0.0
C1196 C 0.33196 0.49441 0.45507 0.0
C1197 C 0.32581 0.51041 0.46947 0.0
C1198 C 0.30762 0.50491 0.50236 0.0
C1199 C 0.2955 0.48349 0.52138 0.0
C1200 C 0.30157 0.46754 0.50765 0.0
C1201 C 0.31974 0.47295 0.47474 0.0
C1202 C 0.44227 0.51361 0.47891 0.0
C1203 C 0.43678 0.49329 0.50277 0.0
C1204 C 0.42614 0.51627 0.44841 0.0
C1205 C 0.40431 0.49857 0.44019 0.0
C1206 C 0.399 0.47799 0.46175 0.0
C1207 C 0.41506 0.47537 0.4928 0.0
C1208 C 0.38677 0.50189 0.41225 0.0
C1209 C 0.368 0.49648 0.44311 0.0
C1210 C 0.38885 0.51122 0.35706 0.0
C1211 C 0.40741 0.51577 0.32014 0.0
C1212 C 0.41177 0.49867 0.30306 0.0
C1213 C 0.42921 0.50302 0.26807 0.0
C1214 C 0.44237 0.52439 0.24976 0.0
C1215 C 0.43808 0.54144 0.26623 0.0
C1216 C 0.42063 0.53717 0.30108 0.0
H1217 H 0.45587 0.52772 0.22268 0.0
H1218 H 0.28144 0.47928 0.54688 0.0
H1219 H 0.86923 0.32789 0.1561 0.0
H1220 H 0.89217 0.35035 0.24369 0.0
H1221 H 0.83788 0.31547 0.35224 0.0
H1222 H 0.81434 0.29292 0.26323 0.0
H1223 H 0.85931 0.36126 0.37658 0.0
H1224 H 0.88005 0.30646 0.36956 0.0
H1225 H 0.89003 0.27994 0.32473 0.0
H1226 H 0.94862 0.33418 0.26538 0.0
H1227 H 0.93885 0.36103 0.30898 0.0
H1228 H 0.95004 0.44571 0.57231 0.0
H1229 H 0.9216 0.40719 0.54008 0.0
H1230 H 0.94595 0.41568 0.36597 0.0
H1231 H 0.97409 0.45398 0.39743 0.0
H1232 H 0.93503 0.3737 0.41089 0.0
H1233 H 0.90408 0.42369 0.38506 0.0
H1234 H 0.89451 0.45093 0.42719 0.0
H1235 H 0.85571 0.40481 0.55171 0.0
H1236 H 0.86515 0.37733 0.5101 0.0
C1237 C 0.86205 0.32501 0.19846 0.0
C1238 C 0.8399 0.30881 0.2027 0.0
C1239 C 0.87529 0.33767 0.2487 0.0
C1240 C 0.86685 0.33432 0.30466 0.0
C1241 C 0.84474 0.31814 0.30946 0.0
C1242 C 0.83137 0.30529 0.25878 0.0
C1243 C 0.88127 0.34895 0.35654 0.0
C1244 C 0.8756 0.36346 0.38576 0.0
C1245 C 0.90252 0.35181 0.36869 0.0
C1246 C 0.90869 0.33578 0.34269 0.0
C1247 C 0.89502 0.31274 0.34673 0.0
C1248 C 0.90064 0.29764 0.32152 0.0
C1249 C 0.91995 0.30537 0.29225 0.0
C1250 C 0.93369 0.32822 0.28818 0.0
C1251 C 0.92814 0.3434 0.31328 0.0
C1252 C 0.94948 0.43922 0.52743 0.0
C1253 C 0.96417 0.45289 0.4872 0.0
C1254 C 0.93326 0.41726 0.50918 0.0
C1255 C 0.93176 0.40866 0.45073 0.0
C1256 C 0.94696 0.422 0.41139 0.0
C1257 C 0.96291 0.44394 0.42928 0.0
C1258 C 0.91338 0.38656 0.42767 0.0
C1259 C 0.91837 0.37072 0.40393 0.0
C1260 C 0.89151 0.38237 0.42091 0.0
C1261 C 0.88544 0.3986 0.44492 0.0
C1262 C 0.89355 0.41942 0.42151 0.0
C1263 C 0.88814 0.43489 0.44526 0.0
C1264 C 0.87455 0.42964 0.49225 0.0
C1265 C 0.86625 0.40887 0.51537 0.0
C1266 C 0.8716 0.39333 0.49167 0.0
H1267 H 0.87041 0.44166 0.51065 0.0
H1268 H 0.92427 0.29365 0.27273 0.0
H1269 H 0.49195 0.8136 0.14472 0.0
H1270 H 0.48302 0.82948 0.23095 0.0
H1271 H 0.5487 0.85449 0.31153 0.0
H1272 H 0.55737 0.83795 0.22644 0.0
H1273 H 0.51912 0.84548 0.39639 0.0
H1274 H 0.53863 0.88498 0.21721 0.0
H1275 H 0.53393 0.88777 0.10997 0.0
H1276 H 0.46797 0.87455 0.12843 0.0
H1277 H 0.47217 0.87128 0.23572 0.0
H1278 H 0.55162 0.95414 0.52618 0.0
H1279 H 0.5453 0.91879 0.47875 0.0
H1280 H 0.4812 0.90431 0.40684 0.0
H1281 H 0.48775 0.93985 0.45236 0.0
H1282 H 0.50418 0.90315 0.32248 0.0
H1283 H 0.48813 0.87148 0.50842 0.0
H1284 H 0.49397 0.86937 0.61552 0.0
H1285 H 0.55384 0.86901 0.58714 0.0
H1286 H 0.54856 0.87143 0.47997 0.0
C1287 C 0.50419 0.82189 0.18176 0.0
C1288 C 0.52541 0.82487 0.17881 0.0
C1289 C 0.4991 0.83089 0.23098 0.0
C1290 C 0.51537 0.84359 0.27701 0.0
C1291 C 0.53591 0.84478 0.27653 0.0
C1292 C 0.54088 0.83542 0.22779 0.0
C1293 C 0.51253 0.8588 0.31923 0.0
C1294 C 0.51582 0.8581 0.38055 0.0
C1295 C 0.50795 0.87508 0.29839 0.0
C1296 C 0.50563 0.87766 0.23427 0.0
C1297 C 0.5231 0.88259 0.19832 0.0
C1298 C 0.52052 0.88423 0.13756 0.0
C1299 C 0.50064 0.88129 0.1124 0.0
C1300 C 0.48334 0.87678 0.148 0.0
C1301 C 0.4858 0.87502 0.20876 0.0
C1302 C 0.536 0.94316 0.50137 0.0
C1303 C 0.52038 0.94992 0.4919 0.0
C1304 C 0.53232 0.92287 0.47461 0.0
C1305 C 0.51277 0.90888 0.43908 0.0
C1306 C 0.49646 0.91489 0.4337 0.0
C1307 C 0.50026 0.93524 0.45958 0.0
C1308 C 0.51076 0.89001 0.40027 0.0
C1309 C 0.50684 0.8902 0.33907 0.0
C1310 C 0.51486 0.87346 0.42156 0.0
C1311 C 0.51801 0.87178 0.48604 0.0
C1312 C 0.50263 0.87111 0.52501 0.0
C1313 C 0.50583 0.86983 0.58577 0.0
C1314 C 0.52429 0.86911 0.60811 0.0
C1315 C 0.53955 0.86958 0.56975 0.0
C1316 C 0.53644 0.87086 0.50896 0.0
H1317 H 0.52677 0.86817 0.65512 0.0
H1318 H 0.49867 0.88255 0.06533 0.0
H1319 H 0.69236 0.5126 0.15625 0.0
H1320 H 0.67023 0.52008 0.22395 0.0
H1321 H 0.7117 0.59068 0.21039 0.0
H1322 H 0.73342 0.58323 0.14043 0.0
H1323 H 0.67946 0.54462 0.33213 0.0
H1324 H 0.68943 0.61005 0.20105 0.0
H1325 H 0.69111 0.62348 0.10127 0.0
H1326 H 0.63824 0.55897 0.03416 0.0
H1327 H 0.63681 0.54504 0.1332 0.0
H1328 H 0.6072 0.57247 0.48266 0.0
H1329 H 0.63963 0.5779 0.43269 0.0
H1330 H 0.59779 0.53884 0.27753 0.0
H1331 H 0.56545 0.5334 0.32673 0.0
H1332 H 0.63469 0.57526 0.2477 0.0
H1333 H 0.61553 0.51544 0.376 0.0
H1334 H 0.60841 0.49883 0.47214 0.0
H1335 H 0.67403 0.54733 0.54132 0.0
H1336 H 0.68144 0.5644 0.44567 0.0
C1337 C 0.69692 0.52975 0.16814 0.0
C1338 C 0.71457 0.5473 0.14261 0.0
C1339 C 0.68426 0.53401 0.20687 0.0
C1340 C 0.68893 0.55591 0.22112 0.0
C1341 C 0.70738 0.57361 0.19873 0.0
C1342 C 0.72006 0.56935 0.15965 0.0
C1343 C 0.67382 0.55976 0.25756 0.0
C1344 C 0.67001 0.55178 0.31423 0.0
C1345 C 0.66117 0.56872 0.23412 0.0
C1346 C 0.66334 0.57644 0.17389 0.0
C1347 C 0.67847 0.59867 0.16465 0.0
C1348 C 0.67934 0.60637 0.10834 0.0
C1349 C 0.66481 0.59208 0.06139 0.0
C1350 C 0.6495 0.57001 0.07055 0.0
C1351 C 0.64882 0.56214 0.12655 0.0
C1352 C 0.60493 0.56529 0.43761 0.0
C1353 C 0.58368 0.55239 0.40884 0.0
C1354 C 0.62348 0.56832 0.40925 0.0
C1355 C 0.62112 0.5586 0.35156 0.0
C1356 C 0.60003 0.54649 0.32203 0.0
C1357 C 0.58152 0.54332 0.35038 0.0
C1358 C 0.64031 0.56012 0.32223 0.0
C1359 C 0.64468 0.56885 0.26667 0.0
C1360 C 0.65332 0.55168 0.34665 0.0
C1361 C 0.64895 0.54136 0.40397 0.0
C1362 C 0.62838 0.52267 0.41187 0.0
C1363 C 0.6243 0.51315 0.46624 0.0
C1364 C 0.64073 0.52207 0.5129 0.0
C1365 C 0.6613 0.54047 0.50519 0.0
C1366 C 0.66545 0.55007 0.4509 0.0
H1367 H 0.63754 0.51467 0.55496 0.0
H1368 H 0.66541 0.59808 0.0179 0.0
H1369 H 0.21442 0.71103 0.21956 0.0
H1370 H 0.19403 0.6889 0.29958 0.0
H1371 H 0.15476 0.72078 0.29934 0.0
H1372 H 0.1752 0.74308 0.21948 0.0
H1373 H 0.16315 0.70982 0.41537 0.0
H1374 H 0.13466 0.67548 0.21588 0.0
H1375 H 0.13802 0.66311 0.11482 0.0
H1376 H 0.16098 0.62155 0.18676 0.0
H1377 H 0.15822 0.63411 0.28826 0.0
H1378 H 0.06087 0.62465 0.50785 0.0
H1379 H 0.09147 0.65478 0.46241 0.0
H1380 H 0.12034 0.61313 0.43479 0.0
H1381 H 0.08883 0.58239 0.476 0.0
H1382 H 0.11957 0.63045 0.33784 0.0
H1383 H 0.14074 0.66049 0.54103 0.0
H1384 H 0.13248 0.67101 0.63786 0.0
H1385 H 0.12277 0.72107 0.56071 0.0
H1386 H 0.12997 0.71013 0.46264 0.0
C1387 C 0.20203 0.71394 0.23807 0.0
C1388 C 0.1963 0.72867 0.213 0.0
C1389 C 0.1903 0.7012 0.2836 0.0
C1390 C 0.17272 0.70303 0.30492 0.0
C1391 C 0.16827 0.71913 0.28361 0.0
C1392 C 0.17989 0.73177 0.23782 0.0
C1393 C 0.15697 0.68599 0.34218 0.0
C1394 C 0.15366 0.69242 0.39881 0.0
C1395 C 0.14462 0.66332 0.32045 0.0
C1396 C 0.14627 0.65574 0.25954 0.0
C1397 C 0.14054 0.6638 0.21008 0.0
C1398 C 0.14235 0.65678 0.15275 0.0
C1399 C 0.1497 0.64155 0.14437 0.0
C1400 C 0.15527 0.63332 0.19331 0.0
C1401 C 0.15357 0.64037 0.25074 0.0
C1402 C 0.074 0.62211 0.49319 0.0
C1403 C 0.07254 0.60124 0.49567 0.0
C1404 C 0.09155 0.63938 0.46724 0.0
C1405 C 0.10842 0.63639 0.44531 0.0
C1406 C 0.10748 0.61584 0.45074 0.0
C1407 C 0.08959 0.59835 0.47488 0.0
C1408 C 0.12609 0.65389 0.41256 0.0
C1409 C 0.12953 0.64762 0.35589 0.0
C1410 C 0.13847 0.67665 0.43456 0.0
C1411 C 0.13572 0.68434 0.49427 0.0
C1412 C 0.13679 0.67371 0.54461 0.0
C1413 C 0.13221 0.6797 0.59973 0.0
C1414 C 0.12708 0.6967 0.60547 0.0
C1415 C 0.12669 0.70786 0.55616 0.0
C1416 C 0.13096 0.70172 0.50072 0.0
H1417 H 0.12339 0.70123 0.6481 0.0
H1418 H 0.15108 0.63611 0.09995 0.0
loop_
_geom_bond_atom_site_label_1
_geom_bond_atom_site_label_2
_geom_bond_distance
_geom_bond_site_symmetry_2
_ccdc_geom_bond_type
H0 C8 0.930 . S
H1 C11 0.930 . S
H2 C13 0.930 . S
H3 C14 0.970 . S
H4 C14 0.970 . S
H5 C16 0.930 . S
H6 C18 0.930 . S
H7 C20 0.930 . S
C8 H0 0.930 . S
C8 C9 1.382 . S
C8 C10 1.426 . S
C9 C8 1.382 . S
C9 C13 1.389 . S
C10 C8 1.426 . S
C10 C11 1.375 . S
C10 C14 1.532 . S
C11 H1 0.930 . S
C11 C10 1.375 . S
C11 C12 1.416 . S
C12 C11 1.416 . S
C12 C13 1.371 . S
C13 H2 0.930 . S
C13 C9 1.389 . S
C13 C12 1.371 . S
C14 H3 0.970 . S
C14 H4 0.970 . S
C14 C10 1.532 . S
C14 C15 1.499 . S
C15 C14 1.499 . S
C15 C16 1.370 . S
C15 C20 1.415 . S
C16 H5 0.930 . S
C16 C15 1.370 . S
C16 C17 1.407 . S
C17 C16 1.407 . S
C17 C18 1.365 . S
C18 H6 0.930 . S
C18 C17 1.365 . S
C18 C19 1.393 . S
C19 C18 1.393 . S
C19 C20 1.387 . S
C20 H7 0.930 . S
C20 C15 1.415 . S
C20 C19 1.387 . S
H21 C29 0.930 . S
H22 C32 0.930 . S
H23 C34 0.930 . S
H24 C35 0.970 . S
H25 C35 0.970 . S
H26 C37 0.930 . S
H27 C39 0.930 . S
H28 C41 0.930 . S
C29 H21 0.930 . S
C29 C30 1.382 . S
C29 C31 1.426 . S
C30 C29 1.382 . S
C30 C34 1.389 . S
C31 C29 1.426 . S
C31 C32 1.375 . S
C31 C35 1.532 . S
C32 H22 0.930 . S
C32 C31 1.375 . S
C32 C33 1.416 . S
C33 C32 1.416 . S
C33 C34 1.371 . S
C34 H23 0.930 . S
C34 C30 1.389 . S
C34 C33 1.371 . S
C35 H24 0.970 . S
C35 H25 0.970 . S
C35 C31 1.532 . S
C35 C36 1.499 . S
C36 C35 1.499 . S
C36 C37 1.370 . S
C36 C41 1.415 . S
C37 H26 0.930 . S
C37 C36 1.370 . S
C37 C38 1.407 . S
C38 C37 1.407 . S
C38 C39 1.365 . S
C39 H27 0.930 . S
C39 C38 1.365 . S
C39 C40 1.393 . S
C40 C39 1.393 . S
C40 C41 1.387 . S
C41 H28 0.930 . S
C41 C36 1.415 . S
C41 C40 1.387 . S
H42 C50 0.930 . S
H43 C53 0.930 . S
H44 C55 0.930 . S
H45 C56 0.970 . S
H46 C56 0.970 . S
H47 C58 0.930 . S
H48 C60 0.930 . S
H49 C62 0.930 . S
C50 H42 0.930 . S
C50 C51 1.382 . S
C50 C52 1.426 1_556 S
C51 C50 1.382 . S
C51 C55 1.389 1_556 S
C52 C50 1.426 1_554 S
C52 C53 1.375 . S
C52 C56 1.532 . S
C53 H43 0.930 . S
C53 C52 1.375 . S
C53 C54 1.416 . S
C54 C53 1.416 . S
C54 C55 1.371 . S
C55 H44 0.930 . S
C55 C51 1.389 1_554 S
C55 C54 1.371 . S
C56 H45 0.970 . S
C56 H46 0.970 . S
C56 C52 1.532 . S
C56 C57 1.499 . S
C57 C56 1.499 . S
C57 C58 1.370 1_554 S
C57 C62 1.415 . S
C58 H47 0.930 . S
C58 C57 1.370 1_556 S
C58 C59 1.407 . S
C59 C58 1.407 . S
C59 C60 1.365 1_556 S
C60 H48 0.930 . S
C60 C59 1.365 1_554 S
C60 C61 1.393 . S
C61 C60 1.393 . S
C61 C62 1.387 . S
C62 H49 0.930 . S
C62 C57 1.415 . S
C62 C61 1.387 . S
H63 C71 0.930 . S
H64 C74 0.930 . S
H65 C76 0.930 . S
H66 C77 0.970 1_556 S
H67 C77 0.970 . S
H68 C79 0.930 . S
H69 C81 0.930 . S
H70 C83 0.930 . S
C71 H63 0.930 . S
C71 C72 1.382 . S
C71 C73 1.426 1_556 S
C72 C71 1.382 . S
C72 C76 1.389 1_556 S
C73 C71 1.426 1_554 S
C73 C74 1.375 . S
C73 C77 1.532 . S
C74 H64 0.930 . S
C74 C73 1.375 . S
C74 C75 1.416 . S
C75 C74 1.416 . S
C75 C76 1.371 . S
C76 H65 0.930 . S
C76 C72 1.389 1_554 S
C76 C75 1.371 . S
C77 H66 0.970 1_554 S
C77 H67 0.970 . S
C77 C73 1.532 . S
C77 C78 1.499 . S
C78 C77 1.499 . S
C78 C79 1.370 1_554 S
C78 C83 1.415 . S
C79 H68 0.930 . S
C79 C78 1.370 1_556 S
C79 C80 1.407 . S
C80 C79 1.407 . S
C80 C81 1.365 1_556 S
C81 H69 0.930 . S
C81 C80 1.365 1_554 S
C81 C82 1.393 . S
C82 C81 1.393 . S
C82 C83 1.387 . S
C83 H70 0.930 . S
C83 C78 1.415 . S
C83 C82 1.387 . S
H84 C92 0.930 . S
H85 C95 0.930 . S
H86 C97 0.930 . S
H87 C98 0.970 . S
H88 C98 0.970 . S
H89 C100 0.930 . S
H90 C102 0.930 . S
H91 C104 0.930 . S
C92 H84 0.930 . S
C92 C93 1.382 . S
C92 C94 1.426 . S
C93 C92 1.382 . S
C93 C97 1.389 . S
C94 C92 1.426 . S
C94 C95 1.375 . S
C94 C98 1.532 . S
C95 H85 0.930 . S
C95 C94 1.375 . S
C95 C96 1.416 . S
C96 C95 1.416 . S
C96 C97 1.371 . S
C97 H86 0.930 . S
C97 C93 1.389 . S
C97 C96 1.371 . S
C98 H87 0.970 . S
C98 H88 0.970 . S
C98 C94 1.532 . S
C98 C99 1.499 . S
C99 C98 1.499 . S
C99 C100 1.370 . S
C99 C104 1.415 . S
C100 H89 0.930 . S
C100 C99 1.370 . S
C100 C101 1.407 . S
C101 C100 1.407 . S
C101 C102 1.365 . S
C102 H90 0.930 . S
C102 C101 1.365 . S
C102 C103 1.393 . S
C103 C102 1.393 . S
C103 C104 1.387 . S
C104 H91 0.930 . S
C104 C99 1.415 . S
C104 C103 1.387 . S
H105 C113 0.930 . S
H106 C116 0.930 . S
H107 C118 0.930 . S
H108 C119 0.970 . S
H109 C119 0.970 . S
H110 C121 0.930 . S
H111 C123 0.930 . S
H112 C125 0.930 . S
C113 H105 0.930 . S
C113 C114 1.382 . S
C113 C115 1.426 . S
C114 C113 1.382 . S
C114 C118 1.389 . S
C115 C113 1.426 . S
C115 C116 1.375 . S
C115 C119 1.532 . S
C116 H106 0.930 . S
C116 C115 1.375 . S
C116 C117 1.416 . S
C117 C116 1.416 . S
C117 C118 1.371 . S
C118 H107 0.930 . S
C118 C114 1.389 . S
C118 C117 1.371 . S
C119 H108 0.970 . S
C119 H109 0.970 . S
C119 C115 1.532 . S
C119 C120 1.499 . S
C120 C119 1.499 . S
C120 C121 1.370 . S
C120 C125 1.415 . S
C121 H110 0.930 . S
C121 C120 1.370 . S
C121 C122 1.407 . S
C122 C121 1.407 . S
C122 C123 1.365 . S
C123 H111 0.930 . S
C123 C122 1.365 . S
C123 C124 1.393 . S
C124 C123 1.393 . S
C124 C125 1.387 . S
C125 H112 0.930 . S
C125 C120 1.415 . S
C125 C124 1.387 . S
C126 O153 1.312 . S
C126 O154 1.208 . S
C127 O148 1.331 . S
C127 O151 1.244 . S
C128 O150 1.264 . S
C128 O152 1.273 . S
Mg129 O131 1.936 1_455 S
Mg129 O138 2.081 1_455 S
Mg129 O140 2.023 . S
Mg129 O144 2.031 1_455 S
Mg129 O153 2.291 . S
Mg130 O131 1.963 . S
Mg130 O141 1.942 . S
Mg130 O142 1.955 1_655 S
Mg130 O149 1.986 . S
O131 Mg129 1.936 1_655 S
O131 Mg130 1.963 . S
O131 Mg132 1.915 1_655 S
Mg132 O131 1.915 1_455 S
Mg132 O133 1.915 . S
Mg132 O137 2.013 . S
Mg132 O143 2.114 1_455 S
Mg132 O147 2.013 1_455 S
Mg132 O153 2.114 . S
O133 Mg132 1.915 . S
O133 Mg134 1.936 . S
O133 Mg135 1.963 . S
Mg134 O133 1.936 . S
Mg134 O143 2.291 1_455 S
Mg134 O148 2.081 . S
Mg134 O150 2.023 1_455 S
Mg134 O154 2.031 . S
Mg135 O133 1.963 . S
Mg135 O139 1.986 . S
Mg135 O151 1.942 . S
Mg135 O152 1.955 1_455 S
C136 O147 1.191 . S
C136 O149 1.307 . S
O137 Mg132 2.013 . S
O137 C156 1.191 . S
O138 Mg129 2.081 1_655 S
O138 C146 1.331 . S
O139 Mg135 1.986 . S
O139 C156 1.307 . S
O140 Mg129 2.023 . S
O140 C155 1.264 . S
O141 Mg130 1.942 . S
O141 C146 1.244 . S
O142 Mg130 1.955 1_455 S
O142 C155 1.273 . S
O143 Mg132 2.114 1_655 S
O143 Mg134 2.291 1_655 S
O143 C145 1.312 . S
O144 Mg129 2.031 1_655 S
O144 C145 1.208 . S
C145 O143 1.312 . S
C145 O144 1.208 . S
C146 O138 1.331 . S
C146 O141 1.244 . S
O147 Mg132 2.013 1_655 S
O147 C136 1.191 . S
O148 C127 1.331 . S
O148 Mg134 2.081 . S
O149 Mg130 1.986 . S
O149 C136 1.307 . S
O150 C128 1.264 . S
O150 Mg134 2.023 1_655 S
O151 C127 1.244 . S
O151 Mg135 1.942 . S
O152 C128 1.273 . S
O152 Mg135 1.955 1_655 S
O153 C126 1.312 . S
O153 Mg129 2.291 . S
O153 Mg132 2.114 . S
O154 C126 1.208 . S
O154 Mg134 2.031 . S
C155 O140 1.264 . S
C155 O142 1.273 . S
C156 O137 1.191 . S
C156 O139 1.307 . S
C157 O184 1.312 . S
C157 O185 1.208 . S
C158 O179 1.331 . S
C158 O182 1.244 . S
C159 O181 1.264 . S
C159 O183 1.273 . S
Mg160 O162 1.936 . S
Mg160 O169 2.081 1_545 S
Mg160 O171 2.023 . S
Mg160 O175 2.031 1_545 S
Mg160 O184 2.291 . S
Mg161 O162 1.963 . S
Mg161 O172 1.942 1_545 S
Mg161 O173 1.955 . S
Mg161 O180 1.986 1_545 S
O162 Mg160 1.936 . S
O162 Mg161 1.963 . S
O162 Mg163 1.915 . S
Mg163 O162 1.915 . S
Mg163 O164 1.915 . S
Mg163 O168 2.013 . S
Mg163 O174 2.114 1_545 S
Mg163 O178 2.013 1_545 S
Mg163 O184 2.114 . S
O164 Mg163 1.915 . S
O164 Mg165 1.936 . S
O164 Mg166 1.963 . S
Mg165 O164 1.936 . S
Mg165 O174 2.291 1_545 S
Mg165 O179 2.081 . S
Mg165 O181 2.023 1_545 S
Mg165 O185 2.031 . S
Mg166 O164 1.963 . S
Mg166 O170 1.986 . S
Mg166 O182 1.942 . S
Mg166 O183 1.955 1_545 S
C167 O178 1.191 . S
C167 O180 1.307 . S
O168 Mg163 2.013 . S
O168 C187 1.191 . S
O169 Mg160 2.081 1_565 S
O169 C177 1.331 . S
O170 Mg166 1.986 . S
O170 C187 1.307 . S
O171 Mg160 2.023 . S
O171 C186 1.264 . S
O172 Mg161 1.942 1_565 S
O172 C177 1.244 . S
O173 Mg161 1.955 . S
O173 C186 1.273 . S
O174 Mg163 2.114 1_565 S
O174 Mg165 2.291 1_565 S
O174 C176 1.312 . S
O175 Mg160 2.031 1_565 S
O175 C176 1.208 . S
C176 O174 1.312 . S
C176 O175 1.208 . S
C177 O169 1.331 . S
C177 O172 1.244 . S
O178 Mg163 2.013 1_565 S
O178 C167 1.191 . S
O179 C158 1.331 . S
O179 Mg165 2.081 . S
O180 Mg161 1.986 1_565 S
O180 C167 1.307 . S
O181 C159 1.264 . S
O181 Mg165 2.023 1_565 S
O182 C158 1.244 . S
O182 Mg166 1.942 . S
O183 C159 1.273 . S
O183 Mg166 1.955 1_565 S
O184 C157 1.312 . S
O184 Mg160 2.291 . S
O184 Mg163 2.114 . S
O185 C157 1.208 . S
O185 Mg165 2.031 . S
C186 O171 1.264 . S
C186 O173 1.273 . S
C187 O168 1.191 . S
C187 O170 1.307 . S
C188 O215 1.312 . S
C188 O216 1.208 . S
C189 O210 1.331 . S
C189 O213 1.244 . S
C190 O212 1.264 . S
C190 O214 1.273 . S
Mg191 O193 1.936 . S
Mg191 O200 2.081 . S
Mg191 O202 2.023 . S
Mg191 O206 2.031 . S
Mg191 O215 2.291 . S
Mg192 O193 1.963 . S
Mg192 O203 1.942 . S
Mg192 O204 1.955 . S
Mg192 O211 1.986 . S
O193 Mg191 1.936 . S
O193 Mg192 1.963 . S
O193 Mg194 1.915 . S
Mg194 O193 1.915 . S
Mg194 O195 1.915 . S
Mg194 O199 2.013 . S
Mg194 O205 2.114 . S
Mg194 O209 2.013 . S
Mg194 O215 2.114 . S
O195 Mg194 1.915 . S
O195 Mg196 1.936 . S
O195 Mg197 1.963 . S
Mg196 O195 1.936 . S
Mg196 O205 2.291 . S
Mg196 O210 2.081 . S
Mg196 O212 2.023 . S
Mg196 O216 2.031 . S
Mg197 O195 1.963 . S
Mg197 O201 1.986 . S
Mg197 O213 1.942 . S
Mg197 O214 1.955 . S
C198 O209 1.191 . S
C198 O211 1.307 . S
O199 Mg194 2.013 . S
O199 C218 1.191 . S
O200 Mg191 2.081 . S
O200 C208 1.331 . S
O201 Mg197 1.986 . S
O201 C218 1.307 . S
O202 Mg191 2.023 . S
O202 C217 1.264 . S
O203 Mg192 1.942 . S
O203 C208 1.244 . S
O204 Mg192 1.955 . S
O204 C217 1.273 . S
O205 Mg194 2.114 . S
O205 Mg196 2.291 . S
O205 C207 1.312 . S
O206 Mg191 2.031 . S
O206 C207 1.208 . S
C207 O205 1.312 . S
C207 O206 1.208 . S
C208 O200 1.331 . S
C208 O203 1.244 . S
O209 Mg194 2.013 . S
O209 C198 1.191 . S
O210 C189 1.331 . S
O210 Mg196 2.081 . S
O211 Mg192 1.986 . S
O211 C198 1.307 . S
O212 C190 1.264 . S
O212 Mg196 2.023 . S
O213 C189 1.244 . S
O213 Mg197 1.942 . S
O214 C190 1.273 . S
O214 Mg197 1.955 . S
O215 C188 1.312 . S
O215 Mg191 2.291 . S
O215 Mg194 2.114 . S
O216 C188 1.208 . S
O216 Mg196 2.031 . S
C217 O202 1.264 . S
C217 O204 1.273 . S
C218 O199 1.191 . S
C218 O201 1.307 . S
H219 C237 0.951 . S
H220 C239 0.951 . S
H221 C241 0.950 . S
H222 C242 0.950 . S
H223 C244 0.950 . S
H224 C247 0.950 . S
H225 C248 0.950 . S
H226 C250 0.950 . S
H227 C251 0.950 . S
H228 C252 0.951 . S
H229 C254 0.951 . S
H230 C256 0.950 . S
H231 C257 0.950 . S
H232 C259 0.950 . S
H233 C262 0.950 . S
H234 C263 0.950 . S
H235 C265 0.950 . S
H236 C266 0.950 . S
C237 H219 0.951 . S
C237 C238 1.366 . S
C237 C239 1.388 . S
C238 C237 1.366 . S
C238 C242 1.385 . S
C239 H220 0.951 . S
C239 C237 1.388 . S
C239 C240 1.366 . S
C240 C239 1.366 . S
C240 C241 1.414 . S
C240 C243 1.499 . S
C241 H221 0.950 . S
C241 C240 1.414 . S
C241 C242 1.374 . S
C242 H222 0.950 . S
C242 C238 1.385 . S
C242 C241 1.374 . S
C243 C240 1.499 . S
C243 C244 1.373 . S
C243 C245 1.389 . S
C244 H223 0.950 . S
C244 C243 1.373 . S
C244 C260 1.377 . S
C245 C243 1.389 . S
C245 C246 1.524 . S
C245 C259 1.377 . S
C246 C245 1.524 . S
C246 C247 1.397 . S
C246 C251 1.363 . S
C247 H224 0.950 . S
C247 C246 1.397 . S
C247 C248 1.334 . S
C248 H225 0.950 . S
C248 C247 1.334 . S
C248 C249 1.287 . S
C249 C248 1.287 . S
C249 C250 1.524 . S
C249 H268 0.913 . S
C250 H226 0.950 . S
C250 C249 1.524 . S
C250 C251 1.415 . S
C251 H227 0.950 . S
C251 C246 1.363 . S
C251 C250 1.415 . S
C252 H228 0.951 . S
C252 C253 1.366 . S
C252 C254 1.388 . S
C253 C252 1.366 . S
C253 C257 1.385 . S
C254 H229 0.951 . S
C254 C252 1.388 . S
C254 C255 1.366 . S
C255 C254 1.366 . S
C255 C256 1.414 . S
C255 C258 1.499 . S
C256 H230 0.950 . S
C256 C255 1.414 . S
C256 C257 1.374 . S
C257 H231 0.950 . S
C257 C253 1.385 . S
C257 C256 1.374 . S
C258 C255 1.499 . S
C258 C259 1.373 . S
C258 C260 1.389 . S
C259 H232 0.950 . S
C259 C245 1.377 . S
C259 C258 1.373 . S
C260 C244 1.377 . S
C260 C258 1.389 . S
C260 C261 1.524 . S
C261 C260 1.524 . S
C261 C262 1.397 . S
C261 C266 1.363 . S
C262 H233 0.950 . S
C262 C261 1.397 . S
C262 C263 1.334 . S
C263 H234 0.950 . S
C263 C262 1.334 . S
C263 C264 1.287 . S
C264 C263 1.287 . S
C264 C265 1.524 . S
C264 H267 0.999 . S
C265 H235 0.950 . S
C265 C264 1.524 . S
C265 C266 1.415 . S
C266 H236 0.950 . S
C266 C261 1.363 . S
C266 C265 1.415 . S
H267 C264 0.999 . S
H268 C249 0.913 . S
H269 C287 0.951 . S
H270 C289 0.951 . S
H271 C291 0.950 . S
H272 C292 0.950 . S
H273 C294 0.950 . S
H274 C297 0.950 . S
H275 C298 0.950 . S
H276 C300 0.950 . S
H277 C301 0.950 . S
H278 C302 0.951 . S
H279 C304 0.951 . S
H280 C306 0.950 . S
H281 C307 0.950 . S
H282 C309 0.950 . S
H283 C312 0.950 . S
H284 C313 0.950 . S
H285 C315 0.950 . S
H286 C316 0.950 . S
C287 H269 0.951 . S
C287 C288 1.366 . S
C287 C289 1.388 . S
C288 C287 1.366 . S
C288 C292 1.385 . S
C289 H270 0.951 . S
C289 C287 1.388 . S
C289 C290 1.366 . S
C290 C289 1.366 . S
C290 C291 1.414 . S
C290 C293 1.499 . S
C291 H271 0.950 . S
C291 C290 1.414 . S
C291 C292 1.374 . S
C292 H272 0.950 . S
C292 C288 1.385 . S
C292 C291 1.374 . S
C293 C290 1.499 . S
C293 C294 1.373 . S
C293 C295 1.389 . S
C294 H273 0.950 . S
C294 C293 1.373 . S
C294 C310 1.377 . S
C295 C293 1.389 . S
C295 C296 1.524 . S
C295 C309 1.377 . S
C296 C295 1.524 . S
C296 C297 1.397 . S
C296 C301 1.363 . S
C297 H274 0.950 . S
C297 C296 1.397 . S
C297 C298 1.334 . S
C298 H275 0.950 . S
C298 C297 1.334 . S
C298 C299 1.287 . S
C299 C298 1.287 . S
C299 C300 1.524 . S
C299 H318 0.913 . S
C300 H276 0.950 . S
C300 C299 1.524 . S
C300 C301 1.415 . S
C301 H277 0.950 . S
C301 C296 1.363 . S
C301 C300 1.415 . S
C302 H278 0.951 . S
C302 C303 1.366 . S
C302 C304 1.388 . S
C303 C302 1.366 . S
C303 C307 1.385 . S
C304 H279 0.951 . S
C304 C302 1.388 . S
C304 C305 1.366 . S
C305 C304 1.366 . S
C305 C306 1.414 . S
C305 C308 1.499 . S
C306 H280 0.950 . S
C306 C305 1.414 . S
C306 C307 1.374 . S
C307 H281 0.950 . S
C307 C303 1.385 . S
C307 C306 1.374 . S
C308 C305 1.499 . S
C308 C309 1.373 . S
C308 C310 1.389 . S
C309 H282 0.950 . S
C309 C295 1.377 . S
C309 C308 1.373 . S
C310 C294 1.377 . S
C310 C308 1.389 . S
C310 C311 1.524 . S
C311 C310 1.524 . S
C311 C312 1.397 . S
C311 C316 1.363 . S
C312 H283 0.950 . S
C312 C311 1.397 . S
C312 C313 1.334 . S
C313 H284 0.950 . S
C313 C312 1.334 . S
C313 C314 1.287 . S
C314 C313 1.287 . S
C314 C315 1.524 . S
C314 H317 0.999 . S
C315 H285 0.950 . S
C315 C314 1.524 . S
C315 C316 1.415 . S
C316 H286 0.950 . S
C316 C311 1.363 . S
C316 C315 1.415 . S
H317 C314 0.999 . S
H318 C299 0.913 . S
H319 C337 0.951 . S
H320 C339 0.951 . S
H321 C341 0.950 . S
H322 C342 0.950 . S
H323 C344 0.950 . S
H324 C347 0.950 . S
H325 C348 0.950 . S
H326 C350 0.950 . S
H327 C351 0.950 . S
H328 C352 0.951 . S
H329 C354 0.951 . S
H330 C356 0.950 . S
H331 C357 0.950 . S
H332 C359 0.950 . S
H333 C362 0.950 . S
H334 C363 0.950 . S
H335 C365 0.950 . S
H336 C366 0.950 . S
C337 H319 0.951 . S
C337 C338 1.366 . S
C337 C339 1.388 . S
C338 C337 1.366 . S
C338 C342 1.385 . S
C339 H320 0.951 . S
C339 C337 1.388 . S
C339 C340 1.366 . S
C340 C339 1.366 . S
C340 C341 1.414 . S
C340 C343 1.499 . S
C341 H321 0.950 . S
C341 C340 1.414 . S
C341 C342 1.374 . S
C342 H322 0.950 . S
C342 C338 1.385 . S
C342 C341 1.374 . S
C343 C340 1.499 . S
C343 C344 1.373 . S
C343 C345 1.389 . S
C344 H323 0.950 . S
C344 C343 1.373 . S
C344 C360 1.377 . S
C345 C343 1.389 . S
C345 C346 1.524 . S
C345 C359 1.377 . S
C346 C345 1.524 . S
C346 C347 1.397 . S
C346 C351 1.363 . S
C347 H324 0.950 . S
C347 C346 1.397 . S
C347 C348 1.334 . S
C348 H325 0.950 . S
C348 C347 1.334 . S
C348 C349 1.287 . S
C349 C348 1.287 . S
C349 C350 1.524 . S
C349 H368 0.913 . S
C350 H326 0.950 . S
C350 C349 1.524 . S
C350 C351 1.415 . S
C351 H327 0.950 . S
C351 C346 1.363 . S
C351 C350 1.415 . S
C352 H328 0.951 . S
C352 C353 1.366 . S
C352 C354 1.388 . S
C353 C352 1.366 . S
C353 C357 1.385 . S
C354 H329 0.951 . S
C354 C352 1.388 . S
C354 C355 1.366 . S
C355 C354 1.366 . S
C355 C356 1.414 . S
C355 C358 1.499 . S
C356 H330 0.950 . S
C356 C355 1.414 . S
C356 C357 1.374 . S
C357 H331 0.950 . S
C357 C353 1.385 . S
C357 C356 1.374 . S
C358 C355 1.499 . S
C358 C359 1.373 . S
C358 C360 1.389 . S
C359 H332 0.950 . S
C359 C345 1.377 . S
C359 C358 1.373 . S
C360 C344 1.377 . S
C360 C358 1.389 . S
C360 C361 1.524 . S
C361 C360 1.524 . S
C361 C362 1.397 . S
C361 C366 1.363 . S
C362 H333 0.950 . S
C362 C361 1.397 . S
C362 C363 1.334 . S
C363 H334 0.950 . S
C363 C362 1.334 . S
C363 C364 1.287 . S
C364 C363 1.287 . S
C364 C365 1.524 . S
C364 H367 0.999 . S
C365 H335 0.950 . S
C365 C364 1.524 . S
C365 C366 1.415 . S
C366 H336 0.950 . S
C366 C361 1.363 . S
C366 C365 1.415 . S
H367 C364 0.999 . S
H368 C349 0.913 . S
H369 C387 0.951 . S
H370 C389 0.951 . S
H371 C391 0.950 . S
H372 C392 0.950 . S
H373 C394 0.950 . S
H374 C397 0.950 . S
H375 C398 0.950 . S
H376 C400 0.950 . S
H377 C401 0.950 . S
H378 C402 0.951 . S
H379 C404 0.951 . S
H380 C406 0.950 . S
H381 C407 0.950 . S
H382 C409 0.950 . S
H383 C412 0.950 . S
H384 C413 0.950 . S
H385 C415 0.950 . S
H386 C416 0.950 . S
C387 H369 0.951 . S
C387 C388 1.366 . S
C387 C389 1.388 . S
C388 C387 1.366 . S
C388 C392 1.385 . S
C389 H370 0.951 . S
C389 C387 1.388 . S
C389 C390 1.366 . S
C390 C389 1.366 . S
C390 C391 1.414 . S
C390 C393 1.499 . S
C391 H371 0.950 . S
C391 C390 1.414 . S
C391 C392 1.374 . S
C392 H372 0.950 . S
C392 C388 1.385 . S
C392 C391 1.374 . S
C393 C390 1.499 . S
C393 C394 1.373 . S
C393 C395 1.389 . S
C394 H373 0.950 . S
C394 C393 1.373 . S
C394 C410 1.377 . S
C395 C393 1.389 . S
C395 C396 1.524 . S
C395 C409 1.377 . S
C396 C395 1.524 . S
C396 C397 1.397 . S
C396 C401 1.363 . S
C397 H374 0.950 . S
C397 C396 1.397 . S
C397 C398 1.334 . S
C398 H375 0.950 . S
C398 C397 1.334 . S
C398 C399 1.287 . S
C399 C398 1.287 . S
C399 C400 1.524 . S
C399 H418 0.913 1_554 S
C400 H376 0.950 . S
C400 C399 1.524 . S
C400 C401 1.415 . S
C401 H377 0.950 . S
C401 C396 1.363 . S
C401 C400 1.415 . S
C402 H378 0.951 . S
C402 C403 1.366 . S
C402 C404 1.388 . S
C403 C402 1.366 . S
C403 C407 1.385 . S
C404 H379 0.951 . S
C404 C402 1.388 . S
C404 C405 1.366 . S
C405 C404 1.366 . S
C405 C406 1.414 . S
C405 C408 1.499 . S
C406 H380 0.950 . S
C406 C405 1.414 . S
C406 C407 1.374 . S
C407 H381 0.950 . S
C407 C403 1.385 . S
C407 C406 1.374 . S
C408 C405 1.499 . S
C408 C409 1.373 . S
C408 C410 1.389 . S
C409 H382 0.950 . S
C409 C395 1.377 . S
C409 C408 1.373 . S
C410 C394 1.377 . S
C410 C408 1.389 . S
C410 C411 1.524 . S
C411 C410 1.524 . S
C411 C412 1.397 . S
C411 C416 1.363 . S
C412 H383 0.950 . S
C412 C411 1.397 . S
C412 C413 1.334 . S
C413 H384 0.950 . S
C413 C412 1.334 . S
C413 C414 1.287 . S
C414 C413 1.287 . S
C414 C415 1.524 . S
C414 H417 0.999 . S
C415 H385 0.950 . S
C415 C414 1.524 . S
C415 C416 1.415 . S
C416 H386 0.950 . S
C416 C411 1.363 . S
C416 C415 1.415 . S
H417 C414 0.999 . S
H418 C399 0.913 1_556 S
H419 C437 0.951 . S
H420 C439 0.951 . S
H421 C441 0.950 . S
H422 C442 0.950 . S
H423 C444 0.950 . S
H424 C447 0.950 . S
H425 C448 0.950 . S
H426 C450 0.950 . S
H427 C451 0.950 . S
H428 C452 0.951 . S
H429 C454 0.951 . S
H430 C456 0.950 . S
H431 C457 0.950 . S
H432 C459 0.950 . S
H433 C462 0.950 . S
H434 C463 0.950 1_545 S
H435 C465 0.950 . S
H436 C466 0.950 . S
C437 H419 0.951 . S
C437 C438 1.366 . S
C437 C439 1.388 . S
C438 C437 1.366 . S
C438 C442 1.385 . S
C439 H420 0.951 . S
C439 C437 1.388 . S
C439 C440 1.366 . S
C440 C439 1.366 . S
C440 C441 1.414 . S
C440 C443 1.499 . S
C441 H421 0.950 . S
C441 C440 1.414 . S
C441 C442 1.374 . S
C442 H422 0.950 . S
C442 C438 1.385 . S
C442 C441 1.374 . S
C443 C440 1.499 . S
C443 C444 1.373 . S
C443 C445 1.389 . S
C444 H423 0.950 . S
C444 C443 1.373 . S
C444 C460 1.377 . S
C445 C443 1.389 . S
C445 C446 1.524 . S
C445 C459 1.377 . S
C446 C445 1.524 . S
C446 C447 1.397 . S
C446 C451 1.363 . S
C447 H424 0.950 . S
C447 C446 1.397 . S
C447 C448 1.334 . S
C448 H425 0.950 . S
C448 C447 1.334 . S
C448 C449 1.287 . S
C449 C448 1.287 . S
C449 C450 1.524 . S
C449 H468 0.913 . S
C450 H426 0.950 . S
C450 C449 1.524 . S
C450 C451 1.415 . S
C451 H427 0.950 . S
C451 C446 1.363 . S
C451 C450 1.415 . S
C452 H428 0.951 . S
C452 C453 1.366 . S
C452 C454 1.388 . S
C453 C452 1.366 . S
C453 C457 1.385 . S
C454 H429 0.951 . S
C454 C452 1.388 . S
C454 C455 1.366 . S
C455 C454 1.366 . S
C455 C456 1.414 . S
C455 C458 1.499 . S
C456 H430 0.950 . S
C456 C455 1.414 . S
C456 C457 1.374 . S
C457 H431 0.950 . S
C457 C453 1.385 . S
C457 C456 1.374 . S
C458 C455 1.499 . S
C458 C459 1.373 . S
C458 C460 1.389 . S
C459 H432 0.950 . S
C459 C445 1.377 . S
C459 C458 1.373 . S
C460 C444 1.377 . S
C460 C458 1.389 . S
C460 C461 1.524 . S
C461 C460 1.524 . S
C461 C462 1.397 . S
C461 C466 1.363 . S
C462 H433 0.950 . S
C462 C461 1.397 . S
C462 C463 1.334 . S
C463 H434 0.950 1_565 S
C463 C462 1.334 . S
C463 C464 1.287 . S
C464 C463 1.287 . S
C464 C465 1.524 . S
C464 H467 0.999 1_565 S
C465 H435 0.950 . S
C465 C464 1.524 . S
C465 C466 1.415 . S
C466 H436 0.950 . S
C466 C461 1.363 . S
C466 C465 1.415 . S
H467 C464 0.999 1_545 S
H468 C449 0.913 . S
H469 C487 0.951 . S
H470 C489 0.951 . S
H471 C491 0.950 . S
H472 C492 0.950 . S
H473 C494 0.950 . S
H474 C497 0.950 . S
H475 C498 0.950 . S
H476 C500 0.950 . S
H477 C501 0.950 . S
H478 C502 0.951 . S
H479 C504 0.951 . S
H480 C506 0.950 . S
H481 C507 0.950 . S
H482 C509 0.950 . S
H483 C512 0.950 . S
H484 C513 0.950 . S
H485 C515 0.950 . S
H486 C516 0.950 . S
C487 H469 0.951 . S
C487 C488 1.366 . S
C487 C489 1.388 . S
C488 C487 1.366 . S
C488 C492 1.385 . S
C489 H470 0.951 . S
C489 C487 1.388 . S
C489 C490 1.366 . S
C490 C489 1.366 . S
C490 C491 1.414 . S
C490 C493 1.499 . S
C491 H471 0.950 . S
C491 C490 1.414 . S
C491 C492 1.374 . S
C492 H472 0.950 . S
C492 C488 1.385 . S
C492 C491 1.374 . S
C493 C490 1.499 . S
C493 C494 1.373 . S
C493 C495 1.389 . S
C494 H473 0.950 . S
C494 C493 1.373 . S
C494 C510 1.377 . S
C495 C493 1.389 . S
C495 C496 1.524 . S
C495 C509 1.377 . S
C496 C495 1.524 . S
C496 C497 1.397 . S
C496 C501 1.363 . S
C497 H474 0.950 . S
C497 C496 1.397 . S
C497 C498 1.334 . S
C498 H475 0.950 . S
C498 C497 1.334 . S
C498 C499 1.287 . S
C499 C498 1.287 . S
C499 C500 1.524 . S
C499 H518 0.913 . S
C500 H476 0.950 . S
C500 C499 1.524 . S
C500 C501 1.415 . S
C501 H477 0.950 . S
C501 C496 1.363 . S
C501 C500 1.415 . S
C502 H478 0.951 . S
C502 C503 1.366 . S
C502 C504 1.388 . S
C503 C502 1.366 . S
C503 C507 1.385 . S
C504 H479 0.951 . S
C504 C502 1.388 . S
C504 C505 1.366 . S
C505 C504 1.366 . S
C505 C506 1.414 . S
C505 C508 1.499 . S
C506 H480 0.950 . S
C506 C505 1.414 . S
C506 C507 1.374 . S
C507 H481 0.950 . S
C507 C503 1.385 . S
C507 C506 1.374 . S
C508 C505 1.499 . S
C508 C509 1.373 . S
C508 C510 1.389 . S
C509 H482 0.950 . S
C509 C495 1.377 . S
C509 C508 1.373 . S
C510 C494 1.377 . S
C510 C508 1.389 . S
C510 C511 1.524 . S
C511 C510 1.524 . S
C511 C512 1.397 . S
C511 C516 1.363 . S
C512 H483 0.950 . S
C512 C511 1.397 . S
C512 C513 1.334 . S
C513 H484 0.950 . S
C513 C512 1.334 . S
C513 C514 1.287 . S
C514 C513 1.287 . S
C514 C515 1.524 . S
C514 H517 0.999 . S
C515 H485 0.950 . S
C515 C514 1.524 . S
C515 C516 1.415 . S
C516 H486 0.950 . S
C516 C511 1.363 . S
C516 C515 1.415 . S
H517 C514 0.999 . S
H518 C499 0.913 . S
H519 C537 0.951 . S
H520 C539 0.951 . S
H521 C541 0.950 . S
H522 C542 0.950 . S
H523 C544 0.950 . S
H524 C547 0.950 . S
H525 C548 0.950 . S
H526 C550 0.950 . S
H527 C551 0.950 . S
H528 C552 0.951 . S
H529 C554 0.951 . S
H530 C556 0.950 . S
H531 C557 0.950 . S
H532 C559 0.950 . S
H533 C562 0.950 . S
H534 C563 0.950 . S
H535 C565 0.950 . S
H536 C566 0.950 . S
C537 H519 0.951 . S
C537 C538 1.366 . S
C537 C539 1.388 . S
C538 C537 1.366 . S
C538 C542 1.385 . S
C539 H520 0.951 . S
C539 C537 1.388 . S
C539 C540 1.366 . S
C540 C539 1.366 . S
C540 C541 1.414 . S
C540 C543 1.499 . S
C541 H521 0.950 . S
C541 C540 1.414 . S
C541 C542 1.374 . S
C542 H522 0.950 . S
C542 C538 1.385 . S
C542 C541 1.374 . S
C543 C540 1.499 . S
C543 C544 1.373 . S
C543 C545 1.389 . S
C544 H523 0.950 . S
C544 C543 1.373 . S
C544 C560 1.377 . S
C545 C543 1.389 . S
C545 C546 1.524 . S
C545 C559 1.377 . S
C546 C545 1.524 . S
C546 C547 1.397 . S
C546 C551 1.363 . S
C547 H524 0.950 . S
C547 C546 1.397 . S
C547 C548 1.334 . S
C548 H525 0.950 . S
C548 C547 1.334 . S
C548 C549 1.287 . S
C549 C548 1.287 . S
C549 C550 1.524 . S
C549 H568 0.913 . S
C550 H526 0.950 . S
C550 C549 1.524 . S
C550 C551 1.415 . S
C551 H527 0.950 . S
C551 C546 1.363 . S
C551 C550 1.415 . S
C552 H528 0.951 . S
C552 C553 1.366 . S
C552 C554 1.388 . S
C553 C552 1.366 . S
C553 C557 1.385 . S
C554 H529 0.951 . S
C554 C552 1.388 . S
C554 C555 1.366 . S
C555 C554 1.366 . S
C555 C556 1.414 . S
C555 C558 1.499 . S
C556 H530 0.950 . S
C556 C555 1.414 . S
C556 C557 1.374 . S
C557 H531 0.950 . S
C557 C553 1.385 . S
C557 C556 1.374 . S
C558 C555 1.499 . S
C558 C559 1.373 . S
C558 C560 1.389 . S
C559 H532 0.950 . S
C559 C545 1.377 . S
C559 C558 1.373 . S
C560 C544 1.377 . S
C560 C558 1.389 . S
C560 C561 1.524 . S
C561 C560 1.524 . S
C561 C562 1.397 . S
C561 C566 1.363 . S
C562 H533 0.950 . S
C562 C561 1.397 . S
C562 C563 1.334 . S
C563 H534 0.950 . S
C563 C562 1.334 . S
C563 C564 1.287 . S
C564 C563 1.287 . S
C564 C565 1.524 . S
C564 H567 0.999 1_565 S
C565 H535 0.950 . S
C565 C564 1.524 . S
C565 C566 1.415 . S
C566 H536 0.950 . S
C566 C561 1.363 . S
C566 C565 1.415 . S
H567 C564 0.999 1_545 S
H568 C549 0.913 . S
H569 C587 0.951 . S
H570 C589 0.951 . S
H571 C591 0.950 . S
H572 C592 0.950 . S
H573 C594 0.950 . S
H574 C597 0.950 . S
H575 C598 0.950 . S
H576 C600 0.950 . S
H577 C601 0.950 . S
H578 C602 0.951 . S
H579 C604 0.951 . S
H580 C606 0.950 . S
H581 C607 0.950 . S
H582 C609 0.950 . S
H583 C612 0.950 . S
H584 C613 0.950 . S
H585 C615 0.950 . S
H586 C616 0.950 . S
C587 H569 0.951 . S
C587 C588 1.366 . S
C587 C589 1.388 . S
C588 C587 1.366 . S
C588 C592 1.385 . S
C589 H570 0.951 . S
C589 C587 1.388 . S
C589 C590 1.366 . S
C590 C589 1.366 . S
C590 C591 1.414 . S
C590 C593 1.499 . S
C591 H571 0.950 . S
C591 C590 1.414 . S
C591 C592 1.374 . S
C592 H572 0.950 . S
C592 C588 1.385 . S
C592 C591 1.374 . S
C593 C590 1.499 . S
C593 C594 1.373 . S
C593 C595 1.389 . S
C594 H573 0.950 . S
C594 C593 1.373 . S
C594 C610 1.377 . S
C595 C593 1.389 . S
C595 C596 1.524 . S
C595 C609 1.377 . S
C596 C595 1.524 . S
C596 C597 1.397 . S
C596 C601 1.363 . S
C597 H574 0.950 . S
C597 C596 1.397 . S
C597 C598 1.334 1_556 S
C598 H575 0.950 . S
C598 C597 1.334 1_554 S
C598 C599 1.287 . S
C599 C598 1.287 . S
C599 C600 1.524 1_554 S
C599 H618 0.913 . S
C600 H576 0.950 . S
C600 C599 1.524 1_556 S
C600 C601 1.415 . S
C601 H577 0.950 . S
C601 C596 1.363 . S
C601 C600 1.415 . S
C602 H578 0.951 . S
C602 C603 1.366 . S
C602 C604 1.388 . S
C603 C602 1.366 . S
C603 C607 1.385 . S
C604 H579 0.951 . S
C604 C602 1.388 . S
C604 C605 1.366 . S
C605 C604 1.366 . S
C605 C606 1.414 . S
C605 C608 1.499 . S
C606 H580 0.950 . S
C606 C605 1.414 . S
C606 C607 1.374 . S
C607 H581 0.950 . S
C607 C603 1.385 . S
C607 C606 1.374 . S
C608 C605 1.499 . S
C608 C609 1.373 . S
C608 C610 1.389 . S
C609 H582 0.950 . S
C609 C595 1.377 . S
C609 C608 1.373 . S
C610 C594 1.377 . S
C610 C608 1.389 . S
C610 C611 1.524 . S
C611 C610 1.524 . S
C611 C612 1.397 . S
C611 C616 1.363 . S
C612 H583 0.950 . S
C612 C611 1.397 . S
C612 C613 1.334 . S
C613 H584 0.950 . S
C613 C612 1.334 . S
C613 C614 1.287 . S
C614 C613 1.287 . S
C614 C615 1.524 . S
C614 H617 0.999 . S
C615 H585 0.950 . S
C615 C614 1.524 . S
C615 C616 1.415 . S
C616 H586 0.950 . S
C616 C611 1.363 . S
C616 C615 1.415 . S
H617 C614 0.999 . S
H618 C599 0.913 . S
H619 C637 0.951 . S
H620 C639 0.951 . S
H621 C641 0.950 . S
H622 C642 0.950 1_554 S
H623 C644 0.950 . S
H624 C647 0.950 . S
H625 C648 0.950 . S
H626 C650 0.950 . S
H627 C651 0.950 . S
H628 C652 0.951 . S
H629 C654 0.951 . S
H630 C656 0.950 . S
H631 C657 0.950 . S
H632 C659 0.950 . S
H633 C662 0.950 . S
H634 C663 0.950 . S
H635 C665 0.950 1_554 S
H636 C666 0.950 . S
C637 H619 0.951 . S
C637 C638 1.360 1_556 S
C637 C639 1.388 . S
C638 C637 1.360 1_554 S
C638 C642 1.385 1_554 S
C639 H620 0.951 . S
C639 C637 1.388 . S
C639 C640 1.366 . S
C640 C639 1.366 . S
C640 C641 1.414 . S
C640 C643 1.499 . S
C641 H621 0.950 . S
C641 C640 1.414 . S
C641 C642 1.374 . S
C642 H622 0.950 1_556 S
C642 C638 1.385 1_556 S
C642 C641 1.374 . S
C643 C640 1.499 . S
C643 C644 1.373 . S
C643 C645 1.389 . S
C644 H623 0.950 . S
C644 C643 1.373 . S
C644 C660 1.377 . S
C645 C643 1.389 . S
C645 C646 1.524 . S
C645 C659 1.377 . S
C646 C645 1.524 . S
C646 C647 1.397 . S
C646 C651 1.363 . S
C647 H624 0.950 . S
C647 C646 1.397 . S
C647 C648 1.334 . S
C648 H625 0.950 . S
C648 C647 1.334 . S
C648 C649 1.287 . S
C649 C648 1.287 . S
C649 C650 1.524 . S
C649 H668 0.913 . S
C650 H626 0.950 . S
C650 C649 1.524 . S
C650 C651 1.415 . S
C651 H627 0.950 . S
C651 C646 1.363 . S
C651 C650 1.415 . S
C652 H628 0.951 . S
C652 C653 1.366 . S
C652 C654 1.388 . S
C653 C652 1.366 . S
C653 C657 1.385 . S
C654 H629 0.951 . S
C654 C652 1.388 . S
C654 C655 1.366 . S
C655 C654 1.366 . S
C655 C656 1.414 . S
C655 C658 1.499 . S
C656 H630 0.950 . S
C656 C655 1.414 . S
C656 C657 1.374 . S
C657 H631 0.950 . S
C657 C653 1.385 . S
C657 C656 1.374 . S
C658 C655 1.499 . S
C658 C659 1.373 . S
C658 C660 1.389 . S
C659 H632 0.950 . S
C659 C645 1.377 . S
C659 C658 1.373 . S
C660 C644 1.377 . S
C660 C658 1.389 . S
C660 C661 1.524 . S
C661 C660 1.524 . S
C661 C662 1.397 . S
C661 C666 1.363 . S
C662 H633 0.950 . S
C662 C661 1.397 . S
C662 C663 1.334 . S
C663 H634 0.950 . S
C663 C662 1.334 . S
C663 C664 1.287 . S
C664 C663 1.287 . S
C664 C665 1.524 . S
C664 H667 0.999 1_556 S
C665 H635 0.950 1_556 S
C665 C664 1.524 . S
C665 C666 1.415 . S
C666 H636 0.950 . S
C666 C661 1.363 . S
C666 C665 1.415 . S
H667 C664 0.999 1_554 S
H668 C649 0.913 . S
H669 C687 0.951 1_556 S
H670 C689 0.951 . S
H671 C691 0.950 . S
H672 C692 0.950 . S
H673 C694 0.950 1_554 S
H674 C697 0.950 . S
H675 C698 0.950 . S
H676 C700 0.950 . S
H677 C701 0.950 . S
H678 C702 0.951 . S
H679 C704 0.951 . S
H680 C706 0.950 . S
H681 C707 0.950 . S
H682 C709 0.950 . S
H683 C712 0.950 . S
H684 C713 0.950 . S
H685 C715 0.950 . S
H686 C716 0.950 . S
C687 H669 0.951 1_554 S
C687 C688 1.366 . S
C687 C689 1.388 1_554 S
C688 C687 1.366 . S
C688 C692 1.385 . S
C689 H670 0.951 . S
C689 C687 1.388 1_556 S
C689 C690 1.366 . S
C690 C689 1.366 . S
C690 C691 1.414 1_556 S
C690 C693 1.499 . S
C691 H671 0.950 . S
C691 C690 1.414 1_554 S
C691 C692 1.374 . S
C692 H672 0.950 . S
C692 C688 1.385 . S
C692 C691 1.374 . S
C693 C690 1.499 . S
C693 C694 1.373 . S
C693 C695 1.389 . S
C694 H673 0.950 1_556 S
C694 C693 1.373 . S
C694 C710 1.377 . S
C695 C693 1.389 . S
C695 C696 1.524 . S
C695 C709 1.377 . S
C696 C695 1.524 . S
C696 C697 1.397 . S
C696 C701 1.363 . S
C697 H674 0.950 . S
C697 C696 1.397 . S
C697 C698 1.334 . S
C698 H675 0.950 . S
C698 C697 1.334 . S
C698 C699 1.287 . S
C699 C698 1.287 . S
C699 C700 1.524 . S
C699 H718 0.913 . S
C700 H676 0.950 . S
C700 C699 1.524 . S
C700 C701 1.415 . S
C701 H677 0.950 . S
C701 C696 1.363 . S
C701 C700 1.415 . S
C702 H678 0.951 . S
C702 C703 1.366 . S
C702 C704 1.388 . S
C703 C702 1.366 . S
C703 C707 1.385 . S
C704 H679 0.951 . S
C704 C702 1.388 . S
C704 C705 1.366 . S
C705 C704 1.366 . S
C705 C706 1.414 . S
C705 C708 1.499 . S
C706 H680 0.950 . S
C706 C705 1.414 . S
C706 C707 1.374 . S
C707 H681 0.950 . S
C707 C703 1.385 . S
C707 C706 1.374 . S
C708 C705 1.499 . S
C708 C709 1.373 . S
C708 C710 1.389 . S
C709 H682 0.950 . S
C709 C695 1.377 . S
C709 C708 1.373 . S
C710 C694 1.377 . S
C710 C708 1.389 . S
C710 C711 1.524 . S
C711 C710 1.524 . S
C711 C712 1.397 . S
C711 C716 1.363 1_556 S
C712 H683 0.950 . S
C712 C711 1.397 . S
C712 C713 1.334 . S
C713 H684 0.950 . S
C713 C712 1.334 . S
C713 C714 1.287 1_556 S
C714 C713 1.287 1_554 S
C714 C715 1.524 . S
C714 H717 0.999 . S
C715 H685 0.950 . S
C715 C714 1.524 . S
C715 C716 1.415 . S
C716 H686 0.950 . S
C716 C711 1.363 1_554 S
C716 C715 1.415 . S
H717 C714 0.999 . S
H718 C699 0.913 . S
H719 C737 0.951 . S
H720 C739 0.951 . S
H721 C741 0.951 . S
H722 C742 0.950 . S
H723 C744 0.950 . S
H724 C747 0.950 . S
H725 C748 0.950 . S
H726 C750 0.950 . S
H727 C751 0.950 . S
H728 C752 0.951 . S
H729 C754 0.951 . S
H730 C756 0.950 . S
H731 C757 0.950 . S
H732 C759 0.950 . S
H733 C762 0.950 . S
H734 C763 0.950 . S
H735 C765 0.950 . S
H736 C766 0.950 . S
C737 H719 0.951 . S
C737 C738 1.366 . S
C737 C739 1.388 . S
C738 C737 1.366 . S
C738 C742 1.385 . S
C739 H720 0.951 . S
C739 C737 1.388 . S
C739 C740 1.366 . S
C740 C739 1.366 . S
C740 C741 1.414 1_554 S
C740 C743 1.499 1_554 S
C741 H721 0.951 . S
C741 C740 1.414 1_556 S
C741 C742 1.373 1_556 S
C742 H722 0.950 . S
C742 C738 1.385 . S
C742 C741 1.373 1_554 S
C743 C740 1.499 1_556 S
C743 C744 1.373 . S
C743 C745 1.389 . S
C744 H723 0.950 . S
C744 C743 1.373 . S
C744 C760 1.377 . S
C745 C743 1.389 . S
C745 C746 1.524 . S
C745 C759 1.377 . S
C746 C745 1.524 . S
C746 C747 1.397 . S
C746 C751 1.363 . S
C747 H724 0.950 . S
C747 C746 1.397 . S
C747 C748 1.334 . S
C748 H725 0.950 . S
C748 C747 1.334 . S
C748 C749 1.287 . S
C749 C748 1.287 . S
C749 C750 1.524 . S
C749 H768 0.913 . S
C750 H726 0.950 . S
C750 C749 1.524 . S
C750 C751 1.415 . S
C751 H727 0.950 . S
C751 C746 1.363 . S
C751 C750 1.415 . S
C752 H728 0.951 . S
C752 C753 1.366 . S
C752 C754 1.388 . S
C753 C752 1.366 . S
C753 C757 1.385 . S
C754 H729 0.951 . S
C754 C752 1.388 . S
C754 C755 1.366 . S
C755 C754 1.366 . S
C755 C756 1.414 . S
C755 C758 1.499 . S
C756 H730 0.950 . S
C756 C755 1.414 . S
C756 C757 1.374 . S
C757 H731 0.950 . S
C757 C753 1.385 . S
C757 C756 1.374 . S
C758 C755 1.499 . S
C758 C759 1.373 . S
C758 C760 1.389 . S
C759 H732 0.950 . S
C759 C745 1.377 . S
C759 C758 1.373 . S
C760 C744 1.377 . S
C760 C758 1.389 . S
C760 C761 1.524 . S
C761 C760 1.524 . S
C761 C762 1.397 . S
C761 C766 1.363 . S
C762 H733 0.950 . S
C762 C761 1.397 . S
C762 C763 1.334 . S
C763 H734 0.950 . S
C763 C762 1.334 . S
C763 C764 1.287 . S
C764 C763 1.287 . S
C764 C765 1.524 . S
C764 H767 0.999 . S
C765 H735 0.950 . S
C765 C764 1.524 . S
C765 C766 1.415 . S
C766 H736 0.950 . S
C766 C761 1.363 . S
C766 C765 1.415 . S
H767 C764 0.999 . S
H768 C749 0.913 . S
H769 C787 0.951 . S
H770 C789 0.951 1_554 S
H771 C791 0.950 . S
H772 C792 0.950 . S
H773 C794 0.950 . S
H774 C797 0.950 . S
H775 C798 0.950 . S
H776 C800 0.950 . S
H777 C801 0.950 . S
H778 C802 0.951 . S
H779 C804 0.951 . S
H780 C806 0.950 . S
H781 C807 0.950 . S
H782 C809 0.950 . S
H783 C812 0.950 . S
H784 C813 0.950 . S
H785 C815 0.950 . S
H786 C816 0.950 . S
C787 H769 0.951 . S
C787 C788 1.366 1_554 S
C787 C789 1.388 1_554 S
C788 C787 1.366 1_556 S
C788 C792 1.385 . S
C789 H770 0.951 1_556 S
C789 C787 1.388 1_556 S
C789 C790 1.366 . S
C790 C789 1.366 . S
C790 C791 1.414 . S
C790 C793 1.499 . S
C791 H771 0.950 . S
C791 C790 1.414 . S
C791 C792 1.374 . S
C792 H772 0.950 . S
C792 C788 1.385 . S
C792 C791 1.374 . S
C793 C790 1.499 . S
C793 C794 1.373 . S
C793 C795 1.389 . S
C794 H773 0.950 . S
C794 C793 1.373 . S
C794 C810 1.377 . S
C795 C793 1.389 . S
C795 C796 1.524 . S
C795 C809 1.377 . S
C796 C795 1.524 . S
C796 C797 1.397 . S
C796 C801 1.363 1_556 S
C797 H774 0.950 . S
C797 C796 1.397 . S
C797 C798 1.334 1_556 S
C798 H775 0.950 . S
C798 C797 1.334 1_554 S
C798 C799 1.287 . S
C799 C798 1.287 . S
C799 C800 1.524 . S
C799 H818 0.913 . S
C800 H776 0.950 . S
C800 C799 1.524 . S
C800 C801 1.415 . S
C801 H777 0.950 . S
C801 C796 1.363 1_554 S
C801 C800 1.415 . S
C802 H778 0.951 . S
C802 C803 1.366 . S
C802 C804 1.388 . S
C803 C802 1.366 . S
C803 C807 1.385 . S
C804 H779 0.951 . S
C804 C802 1.388 . S
C804 C805 1.366 . S
C805 C804 1.366 . S
C805 C806 1.414 . S
C805 C808 1.499 . S
C806 H780 0.950 . S
C806 C805 1.414 . S
C806 C807 1.374 . S
C807 H781 0.950 . S
C807 C803 1.385 . S
C807 C806 1.374 . S
C808 C805 1.499 . S
C808 C809 1.373 . S
C808 C810 1.389 . S
C809 H782 0.950 . S
C809 C795 1.377 . S
C809 C808 1.373 . S
C810 C794 1.377 . S
C810 C808 1.389 . S
C810 C811 1.524 . S
C811 C810 1.524 . S
C811 C812 1.397 . S
C811 C816 1.363 . S
C812 H783 0.950 . S
C812 C811 1.397 . S
C812 C813 1.334 . S
C813 H784 0.950 . S
C813 C812 1.334 . S
C813 C814 1.287 . S
C814 C813 1.287 . S
C814 C815 1.524 . S
C814 H817 0.999 . S
C815 H785 0.950 . S
C815 C814 1.524 . S
C815 C816 1.415 . S
C816 H786 0.950 . S
C816 C811 1.363 . S
C816 C815 1.415 . S
H817 C814 0.999 . S
H818 C799 0.913 . S
H819 C837 0.951 . S
H820 C839 0.951 . S
H821 C841 0.950 . S
H822 C842 0.950 . S
H823 C844 0.950 . S
H824 C847 0.950 . S
H825 C848 0.950 . S
H826 C850 0.950 . S
H827 C851 0.950 . S
H828 C852 0.951 . S
H829 C854 0.951 . S
H830 C856 0.950 . S
H831 C857 0.950 . S
H832 C859 0.950 . S
H833 C862 0.950 . S
H834 C863 0.950 . S
H835 C865 0.950 . S
H836 C866 0.950 . S
C837 H819 0.951 . S
C837 C838 1.366 . S
C837 C839 1.388 . S
C838 C837 1.366 . S
C838 C842 1.385 . S
C839 H820 0.951 . S
C839 C837 1.388 . S
C839 C840 1.366 . S
C840 C839 1.366 . S
C840 C841 1.414 . S
C840 C843 1.499 . S
C841 H821 0.950 . S
C841 C840 1.414 . S
C841 C842 1.374 . S
C842 H822 0.950 . S
C842 C838 1.385 . S
C842 C841 1.374 . S
C843 C840 1.499 . S
C843 C844 1.373 . S
C843 C845 1.389 . S
C844 H823 0.950 . S
C844 C843 1.373 . S
C844 C860 1.377 . S
C845 C843 1.389 . S
C845 C846 1.524 . S
C845 C859 1.377 . S
C846 C845 1.524 . S
C846 C847 1.397 . S
C846 C851 1.363 . S
C847 H824 0.950 . S
C847 C846 1.397 . S
C847 C848 1.334 . S
C848 H825 0.950 . S
C848 C847 1.334 . S
C848 C849 1.287 . S
C849 C848 1.287 . S
C849 C850 1.524 . S
C849 H868 0.913 . S
C850 H826 0.950 . S
C850 C849 1.524 . S
C850 C851 1.415 . S
C851 H827 0.950 . S
C851 C846 1.363 . S
C851 C850 1.415 . S
C852 H828 0.951 . S
C852 C853 1.366 . S
C852 C854 1.388 . S
C853 C852 1.366 . S
C853 C857 1.385 . S
C854 H829 0.951 . S
C854 C852 1.388 . S
C854 C855 1.366 . S
C855 C854 1.366 . S
C855 C856 1.414 . S
C855 C858 1.499 . S
C856 H830 0.950 . S
C856 C855 1.414 . S
C856 C857 1.374 . S
C857 H831 0.950 . S
C857 C853 1.385 . S
C857 C856 1.374 . S
C858 C855 1.499 . S
C858 C859 1.373 . S
C858 C860 1.389 . S
C859 H832 0.950 . S
C859 C845 1.377 . S
C859 C858 1.373 . S
C860 C844 1.377 . S
C860 C858 1.389 . S
C860 C861 1.524 . S
C861 C860 1.524 . S
C861 C862 1.397 . S
C861 C866 1.363 . S
C862 H833 0.950 . S
C862 C861 1.397 . S
C862 C863 1.334 . S
C863 H834 0.950 . S
C863 C862 1.334 . S
C863 C864 1.287 . S
C864 C863 1.287 . S
C864 C865 1.524 . S
C864 H867 0.999 . S
C865 H835 0.950 . S
C865 C864 1.524 . S
C865 C866 1.415 . S
C866 H836 0.950 . S
C866 C861 1.363 . S
C866 C865 1.415 . S
H867 C864 0.999 . S
H868 C849 0.913 . S
H869 C887 0.951 . S
H870 C889 0.951 . S
H871 C891 0.950 . S
H872 C892 0.950 . S
H873 C894 0.950 . S
H874 C897 0.950 . S
H875 C898 0.950 . S
H876 C900 0.950 . S
H877 C901 0.950 . S
H878 C902 0.951 . S
H879 C904 0.951 . S
H880 C906 0.950 . S
H881 C907 0.950 . S
H882 C909 0.950 . S
H883 C912 0.950 . S
H884 C913 0.950 . S
H885 C915 0.950 . S
H886 C916 0.950 . S
C887 H869 0.951 . S
C887 C888 1.366 . S
C887 C889 1.388 . S
C888 C887 1.366 . S
C888 C892 1.385 1_554 S
C889 H870 0.951 . S
C889 C887 1.388 . S
C889 C890 1.366 1_554 S
C890 C889 1.366 1_556 S
C890 C891 1.414 . S
C890 C893 1.499 . S
C891 H871 0.950 . S
C891 C890 1.414 . S
C891 C892 1.374 . S
C892 H872 0.950 . S
C892 C888 1.385 1_556 S
C892 C891 1.374 . S
C893 C890 1.499 . S
C893 C894 1.373 . S
C893 C895 1.389 . S
C894 H873 0.950 . S
C894 C893 1.373 . S
C894 C910 1.377 . S
C895 C893 1.389 . S
C895 C896 1.524 . S
C895 C909 1.377 . S
C896 C895 1.524 . S
C896 C897 1.397 . S
C896 C901 1.363 1_556 S
C897 H874 0.950 . S
C897 C896 1.397 . S
C897 C898 1.334 1_556 S
C898 H875 0.950 . S
C898 C897 1.334 1_554 S
C898 C899 1.287 . S
C899 C898 1.287 . S
C899 C900 1.524 . S
C899 H918 0.913 . S
C900 H876 0.950 . S
C900 C899 1.524 . S
C900 C901 1.415 . S
C901 H877 0.950 . S
C901 C896 1.363 1_554 S
C901 C900 1.415 . S
C902 H878 0.951 . S
C902 C903 1.366 . S
C902 C904 1.388 . S
C903 C902 1.366 . S
C903 C907 1.385 . S
C904 H879 0.951 . S
C904 C902 1.388 . S
C904 C905 1.366 . S
C905 C904 1.366 . S
C905 C906 1.414 . S
C905 C908 1.499 . S
C906 H880 0.950 . S
C906 C905 1.414 . S
C906 C907 1.374 . S
C907 H881 0.950 . S
C907 C903 1.385 . S
C907 C906 1.374 . S
C908 C905 1.499 . S
C908 C909 1.373 . S
C908 C910 1.389 . S
C909 H882 0.950 . S
C909 C895 1.377 . S
C909 C908 1.373 . S
C910 C894 1.377 . S
C910 C908 1.389 . S
C910 C911 1.524 . S
C911 C910 1.524 . S
C911 C912 1.397 . S
C911 C916 1.363 . S
C912 H883 0.950 . S
C912 C911 1.397 . S
C912 C913 1.334 . S
C913 H884 0.950 . S
C913 C912 1.334 . S
C913 C914 1.287 . S
C914 C913 1.287 . S
C914 C915 1.524 . S
C914 H917 0.999 . S
C915 H885 0.950 . S
C915 C914 1.524 . S
C915 C916 1.415 . S
C916 H886 0.950 . S
C916 C911 1.363 . S
C916 C915 1.415 . S
H917 C914 0.999 . S
H918 C899 0.913 . S
H919 C937 0.951 . S
H920 C939 0.951 . S
H921 C941 0.950 . S
H922 C942 0.950 . S
H923 C944 0.950 1_554 S
H924 C947 0.950 . S
H925 C948 0.950 . S
H926 C950 0.950 . S
H927 C951 0.950 . S
H928 C952 0.951 . S
H929 C954 0.951 . S
H930 C956 0.950 . S
H931 C957 0.950 . S
H932 C959 0.950 . S
H933 C962 0.950 . S
H934 C963 0.950 . S
H935 C965 0.950 . S
H936 C966 0.950 . S
C937 H919 0.951 . S
C937 C938 1.366 . S
C937 C939 1.388 1_554 S
C938 C937 1.366 . S
C938 C942 1.385 . S
C939 H920 0.951 . S
C939 C937 1.388 1_556 S
C939 C940 1.366 . S
C940 C939 1.366 . S
C940 C941 1.414 1_556 S
C940 C943 1.499 . S
C941 H921 0.950 . S
C941 C940 1.414 1_554 S
C941 C942 1.374 . S
C942 H922 0.950 . S
C942 C938 1.385 . S
C942 C941 1.374 . S
C943 C940 1.499 . S
C943 C944 1.373 . S
C943 C945 1.389 . S
C944 H923 0.950 1_556 S
C944 C943 1.373 . S
C944 C960 1.377 . S
C945 C943 1.389 . S
C945 C946 1.524 . S
C945 C959 1.377 . S
C946 C945 1.524 . S
C946 C947 1.397 . S
C946 C951 1.363 . S
C947 H924 0.950 . S
C947 C946 1.397 . S
C947 C948 1.334 . S
C948 H925 0.950 . S
C948 C947 1.334 . S
C948 C949 1.287 . S
C949 C948 1.287 . S
C949 C950 1.524 . S
C949 H968 0.913 . S
C950 H926 0.950 . S
C950 C949 1.524 . S
C950 C951 1.415 . S
C951 H927 0.950 . S
C951 C946 1.363 . S
C951 C950 1.415 . S
C952 H928 0.951 . S
C952 C953 1.366 . S
C952 C954 1.388 . S
C953 C952 1.366 . S
C953 C957 1.385 . S
C954 H929 0.951 . S
C954 C952 1.388 . S
C954 C955 1.366 . S
C955 C954 1.366 . S
C955 C956 1.414 . S
C955 C958 1.499 . S
C956 H930 0.950 . S
C956 C955 1.414 . S
C956 C957 1.374 . S
C957 H931 0.950 . S
C957 C953 1.385 . S
C957 C956 1.374 . S
C958 C955 1.499 . S
C958 C959 1.373 . S
C958 C960 1.389 . S
C959 H932 0.950 . S
C959 C945 1.377 . S
C959 C958 1.373 . S
C960 C944 1.377 . S
C960 C958 1.389 . S
C960 C961 1.524 . S
C961 C960 1.524 . S
C961 C962 1.397 . S
C961 C966 1.363 1_556 S
C962 H933 0.950 . S
C962 C961 1.397 . S
C962 C963 1.334 . S
C963 H934 0.950 . S
C963 C962 1.334 . S
C963 C964 1.287 1_556 S
C964 C963 1.287 1_554 S
C964 C965 1.524 . S
C964 H967 0.999 . S
C965 H935 0.950 . S
C965 C964 1.524 . S
C965 C966 1.415 . S
C966 H936 0.950 . S
C966 C961 1.363 1_554 S
C966 C965 1.415 . S
H967 C964 0.999 . S
H968 C949 0.913 . S
H969 C987 0.945 1_556 S
H970 C989 0.951 . S
H971 C991 0.950 . S
H972 C992 0.950 . S
H973 C994 0.950 1_554 S
H974 C997 0.950 . S
H975 C998 0.950 . S
H976 C1000 0.950 . S
H977 C1001 0.950 . S
H978 C1002 0.951 . S
H979 C1004 0.951 . S
H980 C1006 0.950 . S
H981 C1007 0.950 . S
H982 C1009 0.950 . S
H983 C1012 0.950 . S
H984 C1013 0.950 . S
H985 C1015 0.950 . S
H986 C1016 0.950 1_554 S
C987 H969 0.945 1_554 S
C987 C988 1.366 . S
C987 C989 1.388 1_554 S
C988 C987 1.366 . S
C988 C992 1.385 . S
C989 H970 0.951 . S
C989 C987 1.388 1_556 S
C989 C990 1.359 1_556 S
C990 C989 1.359 1_554 S
C990 C991 1.432 . S
C990 C993 1.488 1_554 S
C991 H971 0.950 . S
C991 C990 1.432 . S
C991 C992 1.374 . S
C992 H972 0.950 . S
C992 C988 1.385 . S
C992 C991 1.374 . S
C993 C990 1.488 1_556 S
C993 C994 1.373 . S
C993 C995 1.389 . S
C994 H973 0.950 1_556 S
C994 C993 1.373 . S
C994 C1010 1.377 . S
C995 C993 1.389 . S
C995 C996 1.524 . S
C995 C1009 1.377 . S
C996 C995 1.524 . S
C996 C997 1.397 . S
C996 C1001 1.363 . S
C997 H974 0.950 . S
C997 C996 1.397 . S
C997 C998 1.334 . S
C998 H975 0.950 . S
C998 C997 1.334 . S
C998 C999 1.287 . S
C999 C998 1.287 . S
C999 C1000 1.524 . S
C999 H1018 0.913 . S
C1000 H976 0.950 . S
C1000 C999 1.524 . S
C1000 C1001 1.415 . S
C1001 H977 0.950 . S
C1001 C996 1.363 . S
C1001 C1000 1.415 . S
C1002 H978 0.951 . S
C1002 C1003 1.366 . S
C1002 C1004 1.388 . S
C1003 C1002 1.366 . S
C1003 C1007 1.385 . S
C1004 H979 0.951 . S
C1004 C1002 1.388 . S
C1004 C1005 1.366 . S
C1005 C1004 1.366 . S
C1005 C1006 1.414 . S
C1005 C1008 1.499 . S
C1006 H980 0.950 . S
C1006 C1005 1.414 . S
C1006 C1007 1.374 . S
C1007 H981 0.950 . S
C1007 C1003 1.385 . S
C1007 C1006 1.374 . S
C1008 C1005 1.499 . S
C1008 C1009 1.373 . S
C1008 C1010 1.389 . S
C1009 H982 0.950 . S
C1009 C995 1.377 . S
C1009 C1008 1.373 . S
C1010 C994 1.377 . S
C1010 C1008 1.389 . S
C1010 C1011 1.524 . S
C1011 C1010 1.524 . S
C1011 C1012 1.397 . S
C1011 C1016 1.363 . S
C1012 H983 0.950 . S
C1012 C1011 1.397 . S
C1012 C1013 1.334 . S
C1013 H984 0.950 . S
C1013 C1012 1.334 . S
C1013 C1014 1.287 . S
C1014 C1013 1.287 . S
C1014 C1015 1.524 1_556 S
C1014 H1017 0.999 . S
C1015 H985 0.950 . S
C1015 C1014 1.524 1_554 S
C1015 C1016 1.415 1_554 S
C1016 H986 0.950 1_556 S
C1016 C1011 1.363 . S
C1016 C1015 1.415 1_556 S
H1017 C1014 0.999 . S
H1018 C999 0.913 . S
H1019 C1037 0.951 1_554 S
H1020 C1039 0.951 . S
H1021 C1041 0.950 . S
H1022 C1042 0.950 . S
H1023 C1044 0.950 . S
H1024 C1047 0.950 1_556 S
H1025 C1048 0.950 . S
H1026 C1050 0.950 . S
H1027 C1051 0.950 . S
H1028 C1052 0.951 . S
H1029 C1054 0.951 . S
H1030 C1056 0.950 . S
H1031 C1057 0.950 . S
H1032 C1059 0.950 . S
H1033 C1062 0.950 . S
H1034 C1063 0.950 . S
H1035 C1065 0.950 . S
H1036 C1066 0.950 . S
C1037 H1019 0.951 1_556 S
C1037 C1038 1.366 . S
C1037 C1039 1.388 . S
C1038 C1037 1.366 . S
C1038 C1042 1.385 . S
C1039 H1020 0.951 . S
C1039 C1037 1.388 . S
C1039 C1040 1.366 . S
C1040 C1039 1.366 . S
C1040 C1041 1.414 . S
C1040 C1043 1.499 . S
C1041 H1021 0.950 . S
C1041 C1040 1.414 . S
C1041 C1042 1.374 . S
C1042 H1022 0.950 . S
C1042 C1038 1.385 . S
C1042 C1041 1.374 . S
C1043 C1040 1.499 . S
C1043 C1044 1.373 . S
C1043 C1045 1.389 . S
C1044 H1023 0.950 . S
C1044 C1043 1.373 . S
C1044 C1060 1.377 . S
C1045 C1043 1.389 . S
C1045 C1046 1.524 . S
C1045 C1059 1.377 . S
C1046 C1045 1.524 . S
C1046 C1047 1.397 1_556 S
C1046 C1051 1.363 . S
C1047 H1024 0.950 1_554 S
C1047 C1046 1.397 1_554 S
C1047 C1048 1.334 . S
C1048 H1025 0.950 . S
C1048 C1047 1.334 . S
C1048 C1049 1.287 . S
C1049 C1048 1.287 . S
C1049 C1050 1.524 . S
C1049 H1068 0.913 . S
C1050 H1026 0.950 . S
C1050 C1049 1.524 . S
C1050 C1051 1.415 1_554 S
C1051 H1027 0.950 . S
C1051 C1046 1.363 . S
C1051 C1050 1.415 1_556 S
C1052 H1028 0.951 . S
C1052 C1053 1.366 . S
C1052 C1054 1.388 . S
C1053 C1052 1.366 . S
C1053 C1057 1.385 . S
C1054 H1029 0.951 . S
C1054 C1052 1.388 . S
C1054 C1055 1.366 . S
C1055 C1054 1.366 . S
C1055 C1056 1.414 . S
C1055 C1058 1.499 . S
C1056 H1030 0.950 . S
C1056 C1055 1.414 . S
C1056 C1057 1.374 . S
C1057 H1031 0.950 . S
C1057 C1053 1.385 . S
C1057 C1056 1.374 . S
C1058 C1055 1.499 . S
C1058 C1059 1.373 . S
C1058 C1060 1.389 . S
C1059 H1032 0.950 . S
C1059 C1045 1.377 . S
C1059 C1058 1.373 . S
C1060 C1044 1.377 . S
C1060 C1058 1.389 . S
C1060 C1061 1.524 . S
C1061 C1060 1.524 . S
C1061 C1062 1.397 . S
C1061 C1066 1.363 . S
C1062 H1033 0.950 . S
C1062 C1061 1.397 . S
C1062 C1063 1.334 . S
C1063 H1034 0.950 . S
C1063 C1062 1.334 . S
C1063 C1064 1.287 . S
C1064 C1063 1.287 . S
C1064 C1065 1.524 . S
C1064 H1067 0.999 . S
C1065 H1035 0.950 . S
C1065 C1064 1.524 . S
C1065 C1066 1.415 . S
C1066 H1036 0.950 . S
C1066 C1061 1.363 . S
C1066 C1065 1.415 . S
H1067 C1064 0.999 . S
H1068 C1049 0.913 . S
H1069 C1087 0.951 . S
H1070 C1089 0.951 . S
H1071 C1091 0.950 . S
H1072 C1092 0.950 . S
H1073 C1094 0.950 . S
H1074 C1097 0.950 . S
H1075 C1098 0.950 . S
H1076 C1100 0.950 . S
H1077 C1101 0.950 . S
H1078 C1102 0.951 . S
H1079 C1104 0.951 . S
H1080 C1106 0.950 . S
H1081 C1107 0.950 . S
H1082 C1109 0.950 . S
H1083 C1112 0.950 . S
H1084 C1113 0.950 . S
H1085 C1115 0.950 . S
H1086 C1116 0.950 . S
C1087 H1069 0.951 . S
C1087 C1088 1.366 . S
C1087 C1089 1.388 . S
C1088 C1087 1.366 . S
C1088 C1092 1.385 . S
C1089 H1070 0.951 . S
C1089 C1087 1.388 . S
C1089 C1090 1.366 . S
C1090 C1089 1.366 . S
C1090 C1091 1.414 . S
C1090 C1093 1.499 . S
C1091 H1071 0.950 . S
C1091 C1090 1.414 . S
C1091 C1092 1.374 . S
C1092 H1072 0.950 . S
C1092 C1088 1.385 . S
C1092 C1091 1.374 . S
C1093 C1090 1.499 . S
C1093 C1094 1.373 . S
C1093 C1095 1.389 . S
C1094 H1073 0.950 . S
C1094 C1093 1.373 . S
C1094 C1110 1.377 . S
C1095 C1093 1.389 . S
C1095 C1096 1.524 . S
C1095 C1109 1.377 . S
C1096 C1095 1.524 . S
C1096 C1097 1.397 . S
C1096 C1101 1.363 . S
C1097 H1074 0.950 . S
C1097 C1096 1.397 . S
C1097 C1098 1.334 . S
C1098 H1075 0.950 . S
C1098 C1097 1.334 . S
C1098 C1099 1.287 . S
C1099 C1098 1.287 . S
C1099 C1100 1.524 . S
C1099 H1118 0.913 . S
C1100 H1076 0.950 . S
C1100 C1099 1.524 . S
C1100 C1101 1.415 . S
C1101 H1077 0.950 . S
C1101 C1096 1.363 . S
C1101 C1100 1.415 . S
C1102 H1078 0.951 . S
C1102 C1103 1.366 . S
C1102 C1104 1.388 . S
C1103 C1102 1.366 . S
C1103 C1107 1.385 . S
C1104 H1079 0.951 . S
C1104 C1102 1.388 . S
C1104 C1105 1.366 . S
C1105 C1104 1.366 . S
C1105 C1106 1.414 . S
C1105 C1108 1.499 . S
C1106 H1080 0.950 . S
C1106 C1105 1.414 . S
C1106 C1107 1.374 . S
C1107 H1081 0.950 . S
C1107 C1103 1.385 . S
C1107 C1106 1.374 . S
C1108 C1105 1.499 . S
C1108 C1109 1.373 . S
C1108 C1110 1.389 . S
C1109 H1082 0.950 . S
C1109 C1095 1.377 . S
C1109 C1108 1.373 . S
C1110 C1094 1.377 . S
C1110 C1108 1.389 . S
C1110 C1111 1.524 . S
C1111 C1110 1.524 . S
C1111 C1112 1.397 . S
C1111 C1116 1.363 . S
C1112 H1083 0.950 . S
C1112 C1111 1.397 . S
C1112 C1113 1.334 . S
C1113 H1084 0.950 . S
C1113 C1112 1.334 . S
C1113 C1114 1.287 . S
C1114 C1113 1.287 . S
C1114 C1115 1.524 . S
C1114 H1117 0.999 . S
C1115 H1085 0.950 . S
C1115 C1114 1.524 . S
C1115 C1116 1.415 . S
C1116 H1086 0.950 . S
C1116 C1111 1.363 . S
C1116 C1115 1.415 . S
H1117 C1114 0.999 . S
H1118 C1099 0.913 . S
H1119 C1137 0.951 . S
H1120 C1139 0.951 . S
H1121 C1141 0.950 . S
H1122 C1142 0.950 . S
H1123 C1144 0.950 . S
H1124 C1147 0.950 . S
H1125 C1148 0.950 . S
H1126 C1150 0.950 . S
H1127 C1151 0.950 . S
H1128 C1152 0.951 . S
H1129 C1154 0.951 . S
H1130 C1156 0.950 . S
H1131 C1157 0.950 . S
H1132 C1159 0.950 . S
H1133 C1162 0.950 . S
H1134 C1163 0.950 . S
H1135 C1165 0.950 . S
H1136 C1166 0.950 . S
C1137 H1119 0.951 . S
C1137 C1138 1.366 . S
C1137 C1139 1.388 . S
C1138 C1137 1.366 . S
C1138 C1142 1.385 . S
C1139 H1120 0.951 . S
C1139 C1137 1.388 . S
C1139 C1140 1.366 . S
C1140 C1139 1.366 . S
C1140 C1141 1.414 . S
C1140 C1143 1.499 . S
C1141 H1121 0.950 . S
C1141 C1140 1.414 . S
C1141 C1142 1.374 . S
C1142 H1122 0.950 . S
C1142 C1138 1.385 . S
C1142 C1141 1.374 . S
C1143 C1140 1.499 . S
C1143 C1144 1.373 . S
C1143 C1145 1.389 . S
C1144 H1123 0.950 . S
C1144 C1143 1.373 . S
C1144 C1160 1.377 . S
C1145 C1143 1.389 . S
C1145 C1146 1.524 . S
C1145 C1159 1.377 . S
C1146 C1145 1.524 . S
C1146 C1147 1.397 . S
C1146 C1151 1.363 . S
C1147 H1124 0.950 . S
C1147 C1146 1.397 . S
C1147 C1148 1.334 . S
C1148 H1125 0.950 . S
C1148 C1147 1.334 . S
C1148 C1149 1.287 . S
C1149 C1148 1.287 . S
C1149 C1150 1.524 . S
C1149 H1168 0.913 . S
C1150 H1126 0.950 . S
C1150 C1149 1.524 . S
C1150 C1151 1.415 . S
C1151 H1127 0.950 . S
C1151 C1146 1.363 . S
C1151 C1150 1.415 . S
C1152 H1128 0.951 . S
C1152 C1153 1.366 . S
C1152 C1154 1.388 . S
C1153 C1152 1.366 . S
C1153 C1157 1.385 . S
C1154 H1129 0.951 . S
C1154 C1152 1.388 . S
C1154 C1155 1.366 . S
C1155 C1154 1.366 . S
C1155 C1156 1.414 . S
C1155 C1158 1.499 . S
C1156 H1130 0.950 . S
C1156 C1155 1.414 . S
C1156 C1157 1.374 . S
C1157 H1131 0.950 . S
C1157 C1153 1.385 . S
C1157 C1156 1.374 . S
C1158 C1155 1.499 . S
C1158 C1159 1.373 . S
C1158 C1160 1.389 . S
C1159 H1132 0.950 . S
C1159 C1145 1.377 . S
C1159 C1158 1.373 . S
C1160 C1144 1.377 . S
C1160 C1158 1.389 . S
C1160 C1161 1.524 . S
C1161 C1160 1.524 . S
C1161 C1162 1.397 . S
C1161 C1166 1.363 . S
C1162 H1133 0.950 . S
C1162 C1161 1.397 . S
C1162 C1163 1.334 . S
C1163 H1134 0.950 . S
C1163 C1162 1.334 . S
C1163 C1164 1.287 . S
C1164 C1163 1.287 . S
C1164 C1165 1.524 . S
C1164 H1167 0.999 . S
C1165 H1135 0.950 . S
C1165 C1164 1.524 . S
C1165 C1166 1.415 . S
C1166 H1136 0.950 . S
C1166 C1161 1.363 . S
C1166 C1165 1.415 . S
H1167 C1164 0.999 . S
H1168 C1149 0.913 . S
H1169 C1187 0.951 . S
H1170 C1189 0.951 . S
H1171 C1191 0.950 . S
H1172 C1192 0.950 . S
H1173 C1194 0.950 . S
H1174 C1197 0.950 . S
H1175 C1198 0.950 . S
H1176 C1200 0.950 . S
H1177 C1201 0.950 . S
H1178 C1202 0.951 . S
H1179 C1204 0.951 . S
H1180 C1206 0.950 . S
H1181 C1207 0.950 . S
H1182 C1209 0.950 . S
H1183 C1212 0.950 . S
H1184 C1213 0.950 . S
H1185 C1215 0.950 . S
H1186 C1216 0.950 . S
C1187 H1169 0.951 . S
C1187 C1188 1.366 . S
C1187 C1189 1.388 . S
C1188 C1187 1.366 . S
C1188 C1192 1.385 . S
C1189 H1170 0.951 . S
C1189 C1187 1.388 . S
C1189 C1190 1.366 . S
C1190 C1189 1.366 . S
C1190 C1191 1.414 . S
C1190 C1193 1.499 . S
C1191 H1171 0.950 . S
C1191 C1190 1.414 . S
C1191 C1192 1.374 . S
C1192 H1172 0.950 . S
C1192 C1188 1.385 . S
C1192 C1191 1.374 . S
C1193 C1190 1.499 . S
C1193 C1194 1.373 . S
C1193 C1195 1.389 . S
C1194 H1173 0.950 . S
C1194 C1193 1.373 . S
C1194 C1210 1.377 . S
C1195 C1193 1.389 . S
C1195 C1196 1.524 . S
C1195 C1209 1.377 . S
C1196 C1195 1.524 . S
C1196 C1197 1.397 . S
C1196 C1201 1.363 . S
C1197 H1174 0.950 . S
C1197 C1196 1.397 . S
C1197 C1198 1.334 . S
C1198 H1175 0.950 . S
C1198 C1197 1.334 . S
C1198 C1199 1.287 . S
C1199 C1198 1.287 . S
C1199 C1200 1.524 . S
C1199 H1218 0.913 . S
C1200 H1176 0.950 . S
C1200 C1199 1.524 . S
C1200 C1201 1.415 . S
C1201 H1177 0.950 . S
C1201 C1196 1.363 . S
C1201 C1200 1.415 . S
C1202 H1178 0.951 . S
C1202 C1203 1.366 . S
C1202 C1204 1.388 . S
C1203 C1202 1.366 . S
C1203 C1207 1.385 . S
C1204 H1179 0.951 . S
C1204 C1202 1.388 . S
C1204 C1205 1.366 . S
C1205 C1204 1.366 . S
C1205 C1206 1.414 . S
C1205 C1208 1.499 . S
C1206 H1180 0.950 . S
C1206 C1205 1.414 . S
C1206 C1207 1.374 . S
C1207 H1181 0.950 . S
C1207 C1203 1.385 . S
C1207 C1206 1.374 . S
C1208 C1205 1.499 . S
C1208 C1209 1.373 . S
C1208 C1210 1.389 . S
C1209 H1182 0.950 . S
C1209 C1195 1.377 . S
C1209 C1208 1.373 . S
C1210 C1194 1.377 . S
C1210 C1208 1.389 . S
C1210 C1211 1.524 . S
C1211 C1210 1.524 . S
C1211 C1212 1.397 . S
C1211 C1216 1.363 . S
C1212 H1183 0.950 . S
C1212 C1211 1.397 . S
C1212 C1213 1.334 . S
C1213 H1184 0.950 . S
C1213 C1212 1.334 . S
C1213 C1214 1.287 . S
C1214 C1213 1.287 . S
C1214 C1215 1.524 . S
C1214 H1217 0.999 . S
C1215 H1185 0.950 . S
C1215 C1214 1.524 . S
C1215 C1216 1.415 . S
C1216 H1186 0.950 . S
C1216 C1211 1.363 . S
C1216 C1215 1.415 . S
H1217 C1214 0.999 . S
H1218 C1199 0.913 . S
H1219 C1237 0.951 . S
H1220 C1239 0.951 . S
H1221 C1241 0.950 . S
H1222 C1242 0.950 . S
H1223 C1244 0.950 . S
H1224 C1247 0.950 . S
H1225 C1248 0.950 . S
H1226 C1250 0.950 . S
H1227 C1251 0.950 . S
H1228 C1252 0.951 . S
H1229 C1254 0.951 . S
H1230 C1256 0.950 . S
H1231 C1257 0.950 . S
H1232 C1259 0.950 . S
H1233 C1262 0.950 . S
H1234 C1263 0.950 . S
H1235 C1265 0.950 . S
H1236 C1266 0.950 . S
C1237 H1219 0.951 . S
C1237 C1238 1.366 . S
C1237 C1239 1.388 . S
C1238 C1237 1.366 . S
C1238 C1242 1.385 . S
C1239 H1220 0.951 . S
C1239 C1237 1.388 . S
C1239 C1240 1.366 . S
C1240 C1239 1.366 . S
C1240 C1241 1.414 . S
C1240 C1243 1.499 . S
C1241 H1221 0.950 . S
C1241 C1240 1.414 . S
C1241 C1242 1.374 . S
C1242 H1222 0.950 . S
C1242 C1238 1.385 . S
C1242 C1241 1.374 . S
C1243 C1240 1.499 . S
C1243 C1244 1.373 . S
C1243 C1245 1.389 . S
C1244 H1223 0.950 . S
C1244 C1243 1.373 . S
C1244 C1260 1.377 . S
C1245 C1243 1.389 . S
C1245 C1246 1.524 . S
C1245 C1259 1.377 . S
C1246 C1245 1.524 . S
C1246 C1247 1.397 . S
C1246 C1251 1.363 . S
C1247 H1224 0.950 . S
C1247 C1246 1.397 . S
C1247 C1248 1.334 . S
C1248 H1225 0.950 . S
C1248 C1247 1.334 . S
C1248 C1249 1.287 . S
C1249 C1248 1.287 . S
C1249 C1250 1.524 . S
C1249 H1268 0.913 . S
C1250 H1226 0.950 . S
C1250 C1249 1.524 . S
C1250 C1251 1.415 . S
C1251 H1227 0.950 . S
C1251 C1246 1.363 . S
C1251 C1250 1.415 . S
C1252 H1228 0.951 . S
C1252 C1253 1.366 . S
C1252 C1254 1.388 . S
C1253 C1252 1.366 . S
C1253 C1257 1.385 . S
C1254 H1229 0.951 . S
C1254 C1252 1.388 . S
C1254 C1255 1.366 . S
C1255 C1254 1.366 . S
C1255 C1256 1.414 . S
C1255 C1258 1.499 . S
C1256 H1230 0.950 . S
C1256 C1255 1.414 . S
C1256 C1257 1.374 . S
C1257 H1231 0.950 . S
C1257 C1253 1.385 . S
C1257 C1256 1.374 . S
C1258 C1255 1.499 . S
C1258 C1259 1.373 . S
C1258 C1260 1.389 . S
C1259 H1232 0.950 . S
C1259 C1245 1.377 . S
C1259 C1258 1.373 . S
C1260 C1244 1.377 . S
C1260 C1258 1.389 . S
C1260 C1261 1.524 . S
C1261 C1260 1.524 . S
C1261 C1262 1.397 . S
C1261 C1266 1.363 . S
C1262 H1233 0.950 . S
C1262 C1261 1.397 . S
C1262 C1263 1.334 . S
C1263 H1234 0.950 . S
C1263 C1262 1.334 . S
C1263 C1264 1.287 . S
C1264 C1263 1.287 . S
C1264 C1265 1.524 . S
C1264 H1267 0.999 . S
C1265 H1235 0.950 . S
C1265 C1264 1.524 . S
C1265 C1266 1.415 . S
C1266 H1236 0.950 . S
C1266 C1261 1.363 . S
C1266 C1265 1.415 . S
H1267 C1264 0.999 . S
H1268 C1249 0.913 . S
H1269 C1287 0.951 . S
H1270 C1289 0.951 . S
H1271 C1291 0.950 . S
H1272 C1292 0.950 . S
H1273 C1294 0.950 . S
H1274 C1297 0.950 . S
H1275 C1298 0.950 . S
H1276 C1300 0.950 . S
H1277 C1301 0.950 . S
H1278 C1302 0.951 . S
H1279 C1304 0.951 . S
H1280 C1306 0.950 . S
H1281 C1307 0.950 . S
H1282 C1309 0.950 . S
H1283 C1312 0.950 . S
H1284 C1313 0.950 . S
H1285 C1315 0.950 . S
H1286 C1316 0.950 . S
C1287 H1269 0.951 . S
C1287 C1288 1.366 . S
C1287 C1289 1.388 . S
C1288 C1287 1.366 . S
C1288 C1292 1.385 . S
C1289 H1270 0.951 . S
C1289 C1287 1.388 . S
C1289 C1290 1.366 . S
C1290 C1289 1.366 . S
C1290 C1291 1.414 . S
C1290 C1293 1.499 . S
C1291 H1271 0.950 . S
C1291 C1290 1.414 . S
C1291 C1292 1.374 . S
C1292 H1272 0.950 . S
C1292 C1288 1.385 . S
C1292 C1291 1.374 . S
C1293 C1290 1.499 . S
C1293 C1294 1.373 . S
C1293 C1295 1.389 . S
C1294 H1273 0.950 . S
C1294 C1293 1.373 . S
C1294 C1310 1.377 . S
C1295 C1293 1.389 . S
C1295 C1296 1.524 . S
C1295 C1309 1.377 . S
C1296 C1295 1.524 . S
C1296 C1297 1.397 . S
C1296 C1301 1.363 . S
C1297 H1274 0.950 . S
C1297 C1296 1.397 . S
C1297 C1298 1.334 . S
C1298 H1275 0.950 . S
C1298 C1297 1.334 . S
C1298 C1299 1.287 . S
C1299 C1298 1.287 . S
C1299 C1300 1.524 . S
C1299 H1318 0.913 . S
C1300 H1276 0.950 . S
C1300 C1299 1.524 . S
C1300 C1301 1.415 . S
C1301 H1277 0.950 . S
C1301 C1296 1.363 . S
C1301 C1300 1.415 . S
C1302 H1278 0.951 . S
C1302 C1303 1.366 . S
C1302 C1304 1.388 . S
C1303 C1302 1.366 . S
C1303 C1307 1.385 . S
C1304 H1279 0.951 . S
C1304 C1302 1.388 . S
C1304 C1305 1.366 . S
C1305 C1304 1.366 . S
C1305 C1306 1.414 . S
C1305 C1308 1.499 . S
C1306 H1280 0.950 . S
C1306 C1305 1.414 . S
C1306 C1307 1.374 . S
C1307 H1281 0.950 . S
C1307 C1303 1.385 . S
C1307 C1306 1.374 . S
C1308 C1305 1.499 . S
C1308 C1309 1.373 . S
C1308 C1310 1.389 . S
C1309 H1282 0.950 . S
C1309 C1295 1.377 . S
C1309 C1308 1.373 . S
C1310 C1294 1.377 . S
C1310 C1308 1.389 . S
C1310 C1311 1.524 . S
C1311 C1310 1.524 . S
C1311 C1312 1.397 . S
C1311 C1316 1.363 . S
C1312 H1283 0.950 . S
C1312 C1311 1.397 . S
C1312 C1313 1.334 . S
C1313 H1284 0.950 . S
C1313 C1312 1.334 . S
C1313 C1314 1.287 . S
C1314 C1313 1.287 . S
C1314 C1315 1.524 . S
C1314 H1317 0.999 . S
C1315 H1285 0.950 . S
C1315 C1314 1.524 . S
C1315 C1316 1.415 . S
C1316 H1286 0.950 . S
C1316 C1311 1.363 . S
C1316 C1315 1.415 . S
H1317 C1314 0.999 . S
H1318 C1299 0.913 . S
H1319 C1337 0.951 . S
H1320 C1339 0.951 . S
H1321 C1341 0.950 . S
H1322 C1342 0.950 . S
H1323 C1344 0.950 . S
H1324 C1347 0.950 . S
H1325 C1348 0.950 . S
H1326 C1350 0.950 . S
H1327 C1351 0.950 . S
H1328 C1352 0.951 . S
H1329 C1354 0.951 . S
H1330 C1356 0.950 . S
H1331 C1357 0.950 . S
H1332 C1359 0.950 . S
H1333 C1362 0.950 . S
H1334 C1363 0.950 . S
H1335 C1365 0.950 . S
H1336 C1366 0.950 . S
C1337 H1319 0.951 . S
C1337 C1338 1.366 . S
C1337 C1339 1.388 . S
C1338 C1337 1.366 . S
C1338 C1342 1.385 . S
C1339 H1320 0.951 . S
C1339 C1337 1.388 . S
C1339 C1340 1.366 . S
C1340 C1339 1.366 . S
C1340 C1341 1.414 . S
C1340 C1343 1.499 . S
C1341 H1321 0.950 . S
C1341 C1340 1.414 . S
C1341 C1342 1.374 . S
C1342 H1322 0.950 . S
C1342 C1338 1.385 . S
C1342 C1341 1.374 . S
C1343 C1340 1.499 . S
C1343 C1344 1.373 . S
C1343 C1345 1.389 . S
C1344 H1323 0.950 . S
C1344 C1343 1.373 . S
C1344 C1360 1.377 . S
C1345 C1343 1.389 . S
C1345 C1346 1.524 . S
C1345 C1359 1.377 . S
C1346 C1345 1.524 . S
C1346 C1347 1.397 . S
C1346 C1351 1.363 . S
C1347 H1324 0.950 . S
C1347 C1346 1.397 . S
C1347 C1348 1.334 . S
C1348 H1325 0.950 . S
C1348 C1347 1.334 . S
C1348 C1349 1.287 . S
C1349 C1348 1.287 . S
C1349 C1350 1.524 . S
C1349 H1368 0.913 . S
C1350 H1326 0.950 . S
C1350 C1349 1.524 . S
C1350 C1351 1.415 . S
C1351 H1327 0.950 . S
C1351 C1346 1.363 . S
C1351 C1350 1.415 . S
C1352 H1328 0.951 . S
C1352 C1353 1.366 . S
C1352 C1354 1.388 . S
C1353 C1352 1.366 . S
C1353 C1357 1.385 . S
C1354 H1329 0.951 . S
C1354 C1352 1.388 . S
C1354 C1355 1.366 . S
C1355 C1354 1.366 . S
C1355 C1356 1.414 . S
C1355 C1358 1.499 . S
C1356 H1330 0.950 . S
C1356 C1355 1.414 . S
C1356 C1357 1.374 . S
C1357 H1331 0.950 . S
C1357 C1353 1.385 . S
C1357 C1356 1.374 . S
C1358 C1355 1.499 . S
C1358 C1359 1.373 . S
C1358 C1360 1.389 . S
C1359 H1332 0.950 . S
C1359 C1345 1.377 . S
C1359 C1358 1.373 . S
C1360 C1344 1.377 . S
C1360 C1358 1.389 . S
C1360 C1361 1.524 . S
C1361 C1360 1.524 . S
C1361 C1362 1.397 . S
C1361 C1366 1.363 . S
C1362 H1333 0.950 . S
C1362 C1361 1.397 . S
C1362 C1363 1.334 . S
C1363 H1334 0.950 . S
C1363 C1362 1.334 . S
C1363 C1364 1.287 . S
C1364 C1363 1.287 . S
C1364 C1365 1.524 . S
C1364 H1367 0.999 . S
C1365 H1335 0.950 . S
C1365 C1364 1.524 . S
C1365 C1366 1.415 . S
C1366 H1336 0.950 . S
C1366 C1361 1.363 . S
C1366 C1365 1.415 . S
H1367 C1364 0.999 . S
H1368 C1349 0.913 . S
H1369 C1387 0.951 . S
H1370 C1389 0.951 . S
H1371 C1391 0.950 . S
H1372 C1392 0.950 . S
H1373 C1394 0.950 . S
H1374 C1397 0.950 . S
H1375 C1398 0.950 . S
H1376 C1400 0.950 . S
H1377 C1401 0.950 . S
H1378 C1402 0.951 . S
H1379 C1404 0.951 . S
H1380 C1406 0.950 . S
H1381 C1407 0.950 . S
H1382 C1409 0.950 . S
H1383 C1412 0.950 . S
H1384 C1413 0.950 . S
H1385 C1415 0.950 . S
H1386 C1416 0.950 . S
C1387 H1369 0.951 . S
C1387 C1388 1.366 . S
C1387 C1389 1.388 . S
C1388 C1387 1.366 . S
C1388 C1392 1.385 . S
C1389 H1370 0.951 . S
C1389 C1387 1.388 . S
C1389 C1390 1.366 . S
C1390 C1389 1.366 . S
C1390 C1391 1.414 . S
C1390 C1393 1.499 . S
C1391 H1371 0.950 . S
C1391 C1390 1.414 . S
C1391 C1392 1.374 . S
C1392 H1372 0.950 . S
C1392 C1388 1.385 . S
C1392 C1391 1.374 . S
C1393 C1390 1.499 . S
C1393 C1394 1.373 . S
C1393 C1395 1.389 . S
C1394 H1373 0.950 . S
C1394 C1393 1.373 . S
C1394 C1410 1.377 . S
C1395 C1393 1.389 . S
C1395 C1396 1.524 . S
C1395 C1409 1.377 . S
C1396 C1395 1.524 . S
C1396 C1397 1.397 . S
C1396 C1401 1.363 . S
C1397 H1374 0.950 . S
C1397 C1396 1.397 . S
C1397 C1398 1.334 . S
C1398 H1375 0.950 . S
C1398 C1397 1.334 . S
C1398 C1399 1.287 . S
C1399 C1398 1.287 . S
C1399 C1400 1.524 . S
C1399 H1418 0.913 . S
C1400 H1376 0.950 . S
C1400 C1399 1.524 . S
C1400 C1401 1.415 . S
C1401 H1377 0.950 . S
C1401 C1396 1.363 . S
C1401 C1400 1.415 . S
C1402 H1378 0.951 . S
C1402 C1403 1.366 . S
C1402 C1404 1.388 . S
C1403 C1402 1.366 . S
C1403 C1407 1.385 . S
C1404 H1379 0.951 . S
C1404 C1402 1.388 . S
C1404 C1405 1.366 . S
C1405 C1404 1.366 . S
C1405 C1406 1.414 . S
C1405 C1408 1.499 . S
C1406 H1380 0.950 . S
C1406 C1405 1.414 . S
C1406 C1407 1.374 . S
C1407 H1381 0.950 . S
C1407 C1403 1.385 . S
C1407 C1406 1.374 . S
C1408 C1405 1.499 . S
C1408 C1409 1.373 . S
C1408 C1410 1.389 . S
C1409 H1382 0.950 . S
C1409 C1395 1.377 . S
C1409 C1408 1.373 . S
C1410 C1394 1.377 . S
C1410 C1408 1.389 . S
C1410 C1411 1.524 . S
C1411 C1410 1.524 . S
C1411 C1412 1.397 . S
C1411 C1416 1.363 . S
C1412 H1383 0.950 . S
C1412 C1411 1.397 . S
C1412 C1413 1.334 . S
C1413 H1384 0.950 . S
C1413 C1412 1.334 . S
C1413 C1414 1.287 . S
C1414 C1413 1.287 . S
C1414 C1415 1.524 . S
C1414 H1417 0.999 . S
C1415 H1385 0.950 . S
C1415 C1414 1.524 . S
C1415 C1416 1.415 . S
C1416 H1386 0.950 . S
C1416 C1411 1.363 . S
C1416 C1415 1.415 . S
H1417 C1414 0.999 . S
H1418 C1399 0.913 . S
C238 C12 1.633 . S
C253 C126 1.734 . S
C288 C40 1.574 . S
C303 C158 1.602 . S
C353 C217 1.986 . S
C338 C61 1.988 . S
C403 C146 1.473 . S
C388 C82 1.472 . S
C438 C96 1.531 . S
C453 C176 1.600 . S
C503 C198 1.222 . S
C488 C117 1.116 . S
C553 C167 1.718 . S
C538 C51 1.678 . S
C588 C72 1.260 . S
C603 C207 1.260 . S
C653 C156 1.586 . S
C638 C101 1.497 . S
C688 C122 1.492 . S
C703 C186 1.565 . S
C738 C17 1.848 . S
C753 C189 1.931 . S
C803 C128 1.683 . S
C788 C30 1.647 1_556 S
C853 C136 1.657 . S
C838 C80 1.619 . S
C903 C177 1.580 . S
C888 C93 1.503 . S
C953 C190 2.000 . S
C938 C114 1.944 . S
C1003 C127 1.498 . S
C988 C9 1.448 . S
C1053 C187 1.543 . S
C1038 C38 1.534 1_556 S
C1088 C59 1.186 . S
C1103 C188 1.207 . S
C1153 C157 1.631 . S
C1138 C124 1.582 . S
C1203 C218 1.196 . S
C1188 C19 1.141 . S
C1253 C145 1.536 . S
C1238 C33 1.547 . S
C1303 C159 1.589 . S
C1288 C54 1.564 . S
C1338 C75 1.885 . S
C1353 C208 1.907 . S
C1388 C103 1.599 . S
C1403 C155 1.664 . S
