# Generated by pormake.
# Topology csq, (4,8)-cn, num edge types: 1
# Building blocks:
#     Node 0, Type 0, BuildingBlock: AZAVOO_clean_linker_0, # of connection points: 4
#     Node 1, Type 0, BuildingBlock: AZAVOO_clean_linker_0, # of connection points: 4
#     Node 2, Type 0, BuildingBlock: AZAVOO_clean_linker_0, # of connection points: 4
#     Node 3, Type 0, BuildingBlock: AZAVOO_clean_linker_0, # of connection points: 4
#     Node 4, Type 0, BuildingBlock: AZAVOO_clean_linker_0, # of connection points: 4
#     Node 5, Type 0, BuildingBlock: AZAVOO_clean_linker_0, # of connection points: 4
#     Node 6, Type 1, BuildingBlock: TAGTUT_clean_sbu_1, # of connection points: 8
#     Node 7, Type 1, BuildingBlock: TAGTUT_clean_sbu_1, # of connection points: 8
#     Node 8, Type 1, BuildingBlock: TAGTUT_clean_sbu_1, # of connection points: 8
#     Edge 9, Type (0, 1), BuildingBlock: ZUJKAS_clean_linker_0, # of connection points: 2
#     Edge 10, Type (0, 1), BuildingBlock: ZUJKAS_clean_linker_0, # of connection points: 2
#     Edge 11, Type (0, 1), BuildingBlock: ZUJKAS_clean_linker_0, # of connection points: 2
#     Edge 12, Type (0, 1), BuildingBlock: ZUJKAS_clean_linker_0, # of connection points: 2
#     Edge 13, Type (0, 1), BuildingBlock: ZUJKAS_clean_linker_0, # of connection points: 2
#     Edge 14, Type (0, 1), BuildingBlock: ZUJKAS_clean_linker_0, # of connection points: 2
#     Edge 15, Type (0, 1), BuildingBlock: ZUJKAS_clean_linker_0, # of connection points: 2
#     Edge 16, Type (0, 1), BuildingBlock: ZUJKAS_clean_linker_0, # of connection points: 2
#     Edge 17, Type (0, 1), BuildingBlock: ZUJKAS_clean_linker_0, # of connection points: 2
#     Edge 18, Type (0, 1), BuildingBlock: ZUJKAS_clean_linker_0, # of connection points: 2
#     Edge 19, Type (0, 1), BuildingBlock: ZUJKAS_clean_linker_0, # of connection points: 2
#     Edge 20, Type (0, 1), BuildingBlock: ZUJKAS_clean_linker_0, # of connection points: 2
#     Edge 21, Type (0, 1), BuildingBlock: ZUJKAS_clean_linker_0, # of connection points: 2
#     Edge 22, Type (0, 1), BuildingBlock: ZUJKAS_clean_linker_0, # of connection points: 2
#     Edge 23, Type (0, 1), BuildingBlock: ZUJKAS_clean_linker_0, # of connection points: 2
#     Edge 24, Type (0, 1), BuildingBlock: ZUJKAS_clean_linker_0, # of connection points: 2
#     Edge 25, Type (0, 1), BuildingBlock: ZUJKAS_clean_linker_0, # of connection points: 2
#     Edge 26, Type (0, 1), BuildingBlock: ZUJKAS_clean_linker_0, # of connection points: 2
#     Edge 27, Type (0, 1), BuildingBlock: ZUJKAS_clean_linker_0, # of connection points: 2
#     Edge 28, Type (0, 1), BuildingBlock: ZUJKAS_clean_linker_0, # of connection points: 2
#     Edge 29, Type (0, 1), BuildingBlock: ZUJKAS_clean_linker_0, # of connection points: 2
#     Edge 30, Type (0, 1), BuildingBlock: ZUJKAS_clean_linker_0, # of connection points: 2
#     Edge 31, Type (0, 1), BuildingBlock: ZUJKAS_clean_linker_0, # of connection points: 2
#     Edge 32, Type (0, 1), BuildingBlock: ZUJKAS_clean_linker_0, # of connection points: 2
# Relax obj value: 0.124
# Max RMSD: 0.238
# Mean RMSD: 0.202
data_MOF--net-csq--node1-TAGTUT_clean_sbu_1--node2-AZAVOO_clean_linker_0--edge1-ZUJKAS_clean_linker_0
_symmetry_space_group_name_H-M    P1
_symmetry_Int_Tables_number       1
_symmetry_cell_setting            triclinic
loop_
_symmetry_equiv_pos_as_xyz
'x, y, z'
_cell_length_a     71.048574
_cell_length_b     69.957588
_cell_length_c     29.353399
_cell_angle_alpha  92.501482
_cell_angle_beta   91.677762
_cell_angle_gamma 119.99055
loop_
_atom_site_label
_atom_site_type_symbol
_atom_site_fract_x
_atom_site_fract_y
_atom_site_fract_z
_atom_type_partial_charge
H0 H 0.18342 0.42737 0.42475 0.0
H1 H 0.38191 0.4876 0.12751 0.0
H2 H 0.18711 0.42212 0.18121 0.0
H3 H 0.15893 0.42309 0.22541 0.0
H4 H 0.19014 0.49371 0.2144 0.0
H5 H 0.21813 0.49248 0.16991 0.0
H6 H 0.21946 0.42151 0.25146 0.0
H7 H 0.20309 0.41759 0.32523 0.0
H8 H 0.22135 0.48665 0.33066 0.0
H9 H 0.23787 0.49037 0.25716 0.0
H10 H 0.26606 0.42815 0.23089 0.0
H11 H 0.28847 0.43184 0.29966 0.0
H12 H 0.30293 0.49932 0.32514 0.0
H13 H 0.28104 0.4956 0.25598 0.0
H14 H 0.27374 0.42714 0.13147 0.0
H15 H 0.30874 0.42937 0.1195 0.0
H16 H 0.34172 0.50001 0.1523 0.0
H17 H 0.30657 0.4975 0.1639 0.0
H18 H 0.24893 0.42775 0.05477 0.0
H19 H 0.27182 0.43078 0.99122 0.0
H20 H 0.30505 0.50194 0.0116 0.0
H21 H 0.28264 0.49877 0.07588 0.0
H22 H 0.19425 0.42734 0.08416 0.0
H23 H 0.17373 0.42816 0.01623 0.0
H24 H 0.22504 0.49456 0.99639 0.0
H25 H 0.24503 0.494 0.06522 0.0
O26 O 0.19048 0.42942 0.39624 0.0
O27 O 0.20013 0.46497 0.39722 0.0
O28 O 0.35013 0.44986 0.11581 0.0
O29 O 0.36789 0.48622 0.13243 0.0
C30 C 0.22569 0.45803 0.16404 0.0
C31 C 0.23811 0.45798 0.20261 0.0
C32 C 0.25847 0.45963 0.19743 0.0
C33 C 0.26639 0.46082 0.15367 0.0
C34 C 0.25431 0.46114 0.11482 0.0
C35 C 0.2339 0.45991 0.11993 0.0
C36 C 0.20471 0.45722 0.17221 0.0
C37 C 0.18725 0.43762 0.18637 0.0
C38 C 0.1714 0.43829 0.21249 0.0
C39 C 0.17258 0.45857 0.22455 0.0
C40 C 0.18871 0.4778 0.20584 0.0
C41 C 0.20463 0.47712 0.17985 0.0
C42 C 0.22969 0.45617 0.24895 0.0
C43 C 0.22008 0.4358 0.26892 0.0
C44 C 0.21068 0.4336 0.31093 0.0
C45 C 0.2108 0.45178 0.33372 0.0
C46 C 0.22091 0.47231 0.31397 0.0
C47 C 0.23037 0.47449 0.27204 0.0
C48 C 0.27211 0.46166 0.2385 0.0
C49 C 0.27419 0.44371 0.25134 0.0
C50 C 0.28678 0.4458 0.29077 0.0
C51 C 0.29747 0.46589 0.31779 0.0
C52 C 0.29514 0.48374 0.30476 0.0
C53 C 0.28261 0.48164 0.26542 0.0
C54 C 0.28771 0.46216 0.14846 0.0
C55 C 0.28858 0.44305 0.13618 0.0
C56 C 0.30856 0.44439 0.12933 0.0
C57 C 0.32804 0.46489 0.13485 0.0
C58 C 0.32705 0.48397 0.14771 0.0
C59 C 0.30703 0.4826 0.15447 0.0
C60 C 0.26377 0.46304 0.06945 0.0
C61 C 0.26064 0.44399 0.04452 0.0
C62 C 0.27389 0.44575 0.00862 0.0
C63 C 0.29024 0.46661 0.99653 0.0
C64 C 0.29244 0.48567 0.01979 0.0
C65 C 0.27952 0.48389 0.05627 0.0
C66 C 0.22127 0.46052 0.0794 0.0
C67 C 0.20098 0.44212 0.06534 0.0
C68 C 0.18932 0.44258 0.02657 0.0
C69 C 0.19794 0.46135 0.00089 0.0
C70 C 0.21821 0.47977 0.01515 0.0
C71 C 0.22965 0.47944 0.05436 0.0
C72 C 0.20021 0.44922 0.37766 0.0
C73 C 0.34929 0.46644 0.12711 0.0
H74 H 0.80698 0.25743 0.43091 0.0
H75 H 0.68127 0.06952 0.07236 0.0
H76 H 0.79393 0.26706 0.18345 0.0
H77 H 0.82287 0.30327 0.21467 0.0
H78 H 0.87103 0.28722 0.16964 0.0
H79 H 0.84178 0.25071 0.13924 0.0
H80 H 0.76632 0.22896 0.24583 0.0
H81 H 0.77799 0.24135 0.32616 0.0
H82 H 0.83715 0.23954 0.30595 0.0
H83 H 0.82512 0.22684 0.22584 0.0
H84 H 0.72845 0.18433 0.19109 0.0
H85 H 0.70992 0.16526 0.25785 0.0
H86 H 0.76642 0.16139 0.30161 0.0
H87 H 0.78467 0.17982 0.2336 0.0
H88 H 0.72215 0.17884 0.08988 0.0
H89 H 0.69175 0.14169 0.06832 0.0
H90 H 0.73114 0.11384 0.11172 0.0
H91 H 0.76152 0.15112 0.13253 0.0
H92 H 0.75307 0.22102 0.03797 0.0
H93 H 0.73086 0.20428 0.96675 0.0
H94 H 0.75007 0.1546 0.96262 0.0
H95 H 0.77275 0.17185 0.03326 0.0
H96 H 0.7915 0.26365 0.07883 0.0
H97 H 0.81575 0.29112 0.02781 0.0
H98 H 0.84236 0.24922 0.99142 0.0
H99 H 0.81788 0.22179 0.04213 0.0
O100 O 0.80271 0.25258 0.39901 0.0
O101 O 0.83302 0.25172 0.38664 0.0
O102 O 0.67344 0.09954 0.05881 0.0
O103 O 0.69298 0.08438 0.08076 0.0
C104 C 0.79809 0.23331 0.14663 0.0
C105 C 0.78756 0.21906 0.1815 0.0
C106 C 0.76992 0.19752 0.17025 0.0
C107 C 0.7628 0.19026 0.12404 0.0
C108 C 0.77339 0.20457 0.08897 0.0
C109 C 0.79115 0.22603 0.10038 0.0
C110 C 0.81579 0.25628 0.15935 0.0
C111 C 0.81074 0.27154 0.17968 0.0
C112 C 0.82731 0.29226 0.19723 0.0
C113 C 0.84926 0.2981 0.19478 0.0
C114 C 0.85427 0.2831 0.17248 0.0
C115 C 0.83763 0.26234 0.15484 0.0
C116 C 0.79485 0.22695 0.23012 0.0
C117 C 0.78176 0.23119 0.25889 0.0
C118 C 0.78849 0.2383 0.30472 0.0
C119 C 0.8085 0.24142 0.3225 0.0
C120 C 0.82164 0.23729 0.29337 0.0
C121 C 0.81485 0.2301 0.2476 0.0
C122 C 0.75786 0.18338 0.2074 0.0
C123 C 0.73661 0.17881 0.21434 0.0
C124 C 0.72611 0.16805 0.25255 0.0
C125 C 0.73684 0.16201 0.28484 0.0
C126 C 0.75791 0.16606 0.2773 0.0
C127 C 0.76827 0.17646 0.23852 0.0
C128 C 0.74407 0.16766 0.11246 0.0
C129 C 0.72419 0.16469 0.09457 0.0
C130 C 0.70685 0.14346 0.08238 0.0
C131 C 0.70903 0.12479 0.08821 0.0
C132 C 0.72891 0.12785 0.10671 0.0
C133 C 0.74628 0.14911 0.11874 0.0
C134 C 0.76442 0.19758 0.04093 0.0
C135 C 0.75308 0.20699 0.02084 0.0
C136 C 0.74019 0.19724 0.98046 0.0
C137 C 0.73841 0.17789 0.95946 0.0
C138 C 0.75116 0.16953 0.97779 0.0
C139 C 0.7641 0.17934 0.01818 0.0
C140 C 0.80305 0.24083 0.0642 0.0
C141 C 0.80232 0.26028 0.05916 0.0
C142 C 0.81627 0.276 0.03034 0.0
C143 C 0.83114 0.27244 0.00601 0.0
C144 C 0.83099 0.25237 0.00941 0.0
C145 C 0.81704 0.23669 0.03832 0.0
C146 C 0.81556 0.24889 0.37125 0.0
C147 C 0.6907 0.10219 0.07501 0.0
H148 H 0.56671 0.84016 0.78632 0.0
H149 H 0.51683 0.62215 -0.00164 0.0
H150 H 0.58374 0.82217 0.02137 0.0
H151 H 0.58428 0.85552 -0.00228 0.0
H152 H 0.51587 0.82594 0.02172 0.0
H153 H 0.51562 0.79282 0.04591 0.0
H154 H 0.5782 0.79297 0.93456 0.0
H155 H 0.57944 0.81393 0.86893 0.0
H156 H 0.51275 0.79697 0.88665 0.0
H157 H 0.51169 0.77586 0.95186 0.0
H158 H 0.57314 0.74696 0.94117 0.0
H159 H 0.56921 0.73036 0.86374 0.0
H160 H 0.50183 0.71376 0.85324 0.0
H161 H 0.50595 0.7304 0.93091 0.0
H162 H 0.57489 0.7311 0.04932 0.0
H163 H 0.57242 0.6949 0.04499 0.0
H164 H 0.50544 0.66466 0.99269 0.0
H165 H 0.50805 0.70092 -0.00226 0.0
H166 H 0.57905 0.76396 0.134 0.0
H167 H 0.58004 0.74377 0.19924 0.0
H168 H 0.51304 0.69358 0.1649 0.0
H169 H 0.512 0.71438 0.10116 0.0
H170 H 0.58413 0.80636 0.11726 0.0
H171 H 0.58521 0.83297 0.17565 0.0
H172 H 0.51559 0.79279 0.18439 0.0
H173 H 0.51469 0.7663 0.12569 0.0
O174 O 0.56567 0.83125 0.81151 0.0
O175 O 0.53145 0.82227 0.82245 0.0
O176 O 0.55272 0.653 0.02753 0.0
O177 O 0.51826 0.63665 0.00037 0.0
C178 C 0.54754 0.78295 0.03305 0.0
C179 C 0.54485 0.77192 0.99001 0.0
C180 C 0.54253 0.75074 0.9871 0.0
C181 C 0.54316 0.74058 0.02723 0.0
C182 C 0.54554 0.75155 0.0706 0.0
C183 C 0.54778 0.77279 0.07329 0.0
C184 C 0.5496 0.8051 0.03483 0.0
C185 C 0.56915 0.82335 0.0235 0.0
C186 C 0.56937 0.84226 0.00963 0.0
C187 C 0.55 0.84309 0.00691 0.0
C188 C 0.53105 0.8258 0.02356 0.0
C189 C 0.53086 0.80687 0.03746 0.0
C190 C 0.54487 0.78293 0.94782 0.0
C191 C 0.56381 0.79358 0.92377 0.0
C192 C 0.56449 0.80563 0.88649 0.0
C193 C 0.54623 0.80722 0.87267 0.0
C194 C 0.52712 0.79612 0.89642 0.0
C195 C 0.52644 0.78402 0.93358 0.0
C196 C 0.53976 0.73956 0.94154 0.0
C197 C 0.55755 0.73965 0.92213 0.0
C198 C 0.55535 0.7305 0.87779 0.0
C199 C 0.53527 0.72105 0.8524 0.0
C200 C 0.51747 0.72099 0.87208 0.0
C201 C 0.51975 0.73031 0.91633 0.0
C202 C 0.54167 0.71862 0.02375 0.0
C203 C 0.5597 0.71663 0.03698 0.0
C204 C 0.55825 0.69594 0.03443 0.0
C205 C 0.53872 0.67687 0.01846 0.0
C206 C 0.52071 0.67899 0.00509 0.0
C207 C 0.52218 0.69969 0.00777 0.0
C208 C 0.54547 0.74061 0.11284 0.0
C209 C 0.56448 0.74884 0.14125 0.0
C210 C 0.56507 0.73715 0.17817 0.0
C211 C 0.54666 0.71694 0.18717 0.0
C212 C 0.52743 0.70919 0.15942 0.0
C213 C 0.52683 0.72096 0.12275 0.0
C214 C 0.54935 0.78445 0.11756 0.0
C215 C 0.56929 0.80286 0.13326 0.0
C216 C 0.56985 0.81806 0.16645 0.0
C217 C 0.55042 0.81506 0.18398 0.0
C218 C 0.53074 0.79559 0.17094 0.0
C219 C 0.53022 0.78034 0.13794 0.0
C220 C 0.54724 0.82064 0.83403 0.0
C221 C 0.53708 0.65485 0.01579 0.0
H222 H 0.73169 0.52988 0.3642 0.0
H223 H 0.93299 0.59185 0.07195 0.0
H224 H 0.73655 0.51219 0.10965 0.0
H225 H 0.70609 0.50597 0.15545 0.0
H226 H 0.73101 0.57648 0.16906 0.0
H227 H 0.76083 0.58233 0.12166 0.0
H228 H 0.76627 0.5194 0.19243 0.0
H229 H 0.74999 0.51728 0.26576 0.0
H230 H 0.77384 0.58763 0.26964 0.0
H231 H 0.78997 0.58945 0.19621 0.0
H232 H 0.81484 0.52512 0.16196 0.0
H233 H 0.83322 0.52373 0.23232 0.0
H234 H 0.84766 0.5898 0.2752 0.0
H235 H 0.82943 0.59118 0.20398 0.0
H236 H 0.82512 0.52582 0.0659 0.0
H237 H 0.86125 0.53086 0.05428 0.0
H238 H 0.89034 0.60012 0.09836 0.0
H239 H 0.85407 0.5949 0.10917 0.0
H240 H 0.78601 0.51526 0.00167 0.0
H241 H 0.80368 0.50832 0.93793 0.0
H242 H 0.85127 0.57803 0.9423 0.0
H243 H 0.83311 0.58486 0.00533 0.0
H244 H 0.74649 0.51218 0.02288 0.0
H245 H 0.72385 0.50628 0.95347 0.0
H246 H 0.75951 0.57661 0.9361 0.0
H247 H 0.78252 0.58211 0.00477 0.0
O248 O 0.73865 0.53118 0.33575 0.0
O249 O 0.75138 0.56741 0.3363 0.0
O250 O 0.90276 0.55365 0.05404 0.0
O251 O 0.91852 0.58936 0.07654 0.0
C252 C 0.77324 0.55183 0.10391 0.0
C253 C 0.78719 0.55529 0.1426 0.0
C254 C 0.80793 0.55787 0.13718 0.0
C255 C 0.81503 0.55725 0.09309 0.0
C256 C 0.80115 0.55358 0.05406 0.0
C257 C 0.78023 0.55096 0.05957 0.0
C258 C 0.75095 0.54771 0.11207 0.0
C259 C 0.73472 0.52617 0.12024 0.0
C260 C 0.71759 0.52272 0.14753 0.0
C261 C 0.71641 0.54077 0.16737 0.0
C262 C 0.73129 0.56213 0.15457 0.0
C263 C 0.74831 0.56554 0.12692 0.0
C264 C 0.77924 0.55456 0.18914 0.0
C265 C 0.76815 0.53435 0.2095 0.0
C266 C 0.75881 0.53319 0.25125 0.0
C267 C 0.76051 0.55227 0.27345 0.0
C268 C 0.77217 0.57261 0.25341 0.0
C269 C 0.78148 0.57373 0.21162 0.0
C270 C 0.82094 0.55828 0.1779 0.0
C271 C 0.82233 0.53944 0.18616 0.0
C272 C 0.83276 0.53867 0.22633 0.0
C273 C 0.84181 0.55666 0.25914 0.0
C274 C 0.84064 0.57566 0.25058 0.0
C275 C 0.83038 0.57651 0.21 0.0
C276 C 0.837 0.56005 0.08795 0.0
C277 C 0.83932 0.54207 0.07288 0.0
C278 C 0.85997 0.54499 0.06638 0.0
C279 C 0.87869 0.56593 0.07525 0.0
C280 C 0.87627 0.58381 0.09109 0.0
C281 C 0.8556 0.58087 0.09742 0.0
C282 C 0.80818 0.55058 0.00818 0.0
C283 C 0.79972 0.52916 0.9877 0.0
C284 C 0.81008 0.52518 0.95174 0.0
C285 C 0.82915 0.54256 0.93548 0.0
C286 C 0.83659 0.56426 0.95375 0.0
C287 C 0.82619 0.56823 0.98975 0.0
C288 C 0.76593 0.54757 0.0189 0.0
C289 C 0.74928 0.52627 0.00412 0.0
C290 C 0.73637 0.52298 0.9645 0.0
C291 C 0.73981 0.54099 0.93917 0.0
C292 C 0.7566 0.56234 0.95431 0.0
C293 C 0.76961 0.56557 0.99376 0.0
C294 C 0.74996 0.55084 0.31707 0.0
C295 C 0.90066 0.56918 0.06794 0.0
H296 H 0.24975 0.84843 0.37557 0.0
H297 H 0.12281 0.64589 0.0305 0.0
H298 H 0.25616 0.84463 0.13689 0.0
H299 H 0.28685 0.87249 0.18659 0.0
H300 H 0.32097 0.83656 0.16425 0.0
H301 H 0.29018 0.80871 0.11542 0.0
H302 H 0.21527 0.81173 0.18912 0.0
H303 H 0.22471 0.82846 0.26747 0.0
H304 H 0.2751 0.81115 0.2796 0.0
H305 H 0.26522 0.79414 0.20162 0.0
H306 H 0.17443 0.76513 0.14043 0.0
H307 H 0.14742 0.73722 0.18707 0.0
H308 H 0.19643 0.72345 0.2406 0.0
H309 H 0.22309 0.75092 0.19309 0.0
H310 H 0.17421 0.75619 0.03808 0.0
H311 H 0.14241 0.72035 0.0134 0.0
H312 H 0.17325 0.68721 0.07541 0.0
H313 H 0.20504 0.72316 0.09931 0.0
H314 H 0.20588 0.77664 0.97369 0.0
H315 H 0.18774 0.74665 0.9138 0.0
H316 H 0.22109 0.71471 0.96979 0.0
H317 H 0.23938 0.74489 0.02844 0.0
H318 H 0.24952 0.82793 0.01211 0.0
H319 H 0.27266 0.84379 0.94817 0.0
H320 H 0.30095 0.80246 0.97012 0.0
H321 H 0.27722 0.78629 0.03301 0.0
O322 O 0.24596 0.84131 0.34509 0.0
O323 O 0.27207 0.83262 0.34895 0.0
O324 O 0.12113 0.67806 0.00383 0.0
O325 O 0.13522 0.66027 0.03953 0.0
C326 C 0.25011 0.80432 0.10783 0.0
C327 C 0.23491 0.79311 0.14111 0.0
C328 C 0.2156 0.7731 0.12857 0.0
C329 C 0.21161 0.76398 0.08322 0.0
C330 C 0.22711 0.77465 0.05052 0.0
C331 C 0.2462 0.79496 0.0625 0.0
C332 C 0.27091 0.82461 0.12266 0.0
C333 C 0.27065 0.84331 0.14121 0.0
C334 C 0.28806 0.85904 0.17 0.0
C335 C 0.3061 0.85646 0.1799 0.0
C336 C 0.30732 0.83903 0.15713 0.0
C337 C 0.2898 0.82318 0.12881 0.0
C338 C 0.23967 0.80189 0.18964 0.0
C339 C 0.22819 0.81138 0.20896 0.0
C340 C 0.23368 0.82101 0.25362 0.0
C341 C 0.25075 0.82127 0.2797 0.0
C342 C 0.26192 0.81131 0.26043 0.0
C343 C 0.25633 0.8016 0.2159 0.0
C344 C 0.20067 0.76002 0.16354 0.0
C345 C 0.1794 0.75643 0.1631 0.0
C346 C 0.16403 0.7405 0.18968 0.0
C347 C 0.16977 0.72797 0.21696 0.0
C348 C 0.19146 0.7326 0.21928 0.0
C349 C 0.20677 0.74847 0.19271 0.0
C350 C 0.19186 0.74221 0.07045 0.0
C351 C 0.174 0.74115 0.04639 0.0
C352 C 0.1559 0.72068 0.0323 0.0
C353 C 0.1553 0.70091 0.04239 0.0
C354 C 0.17317 0.70209 0.06708 0.0
C355 C 0.1913 0.72258 0.08092 0.0
C356 C 0.22379 0.76279 0.00541 0.0
C357 C 0.21012 0.76376 0.97137 0.0
C358 C 0.19953 0.74644 0.93769 0.0
C359 C 0.20253 0.72801 0.93785 0.0
C360 C 0.21841 0.72862 0.96856 0.0
C361 C 0.229 0.74594 0.00206 0.0
C362 C 0.26186 0.80613 0.02726 0.0
C363 C 0.26091 0.82253 0.00331 0.0
C364 C 0.27416 0.83156 0.96685 0.0
C365 C 0.28862 0.82434 0.9538 0.0
C366 C 0.28975 0.80814 0.97866 0.0
C367 C 0.27642 0.79906 0.01493 0.0
C368 C 0.25695 0.83202 0.32667 0.0
C369 C 0.13617 0.67911 0.0273 0.0
H370 H 0.44598 0.24078 0.86764 0.0
H371 H 0.43899 0.0877 0.25468 0.0
H372 H 0.49899 0.27137 0.13223 0.0
H373 H 0.50541 0.30475 0.09576 0.0
H374 H 0.43615 0.28023 0.08626 0.0
H375 H 0.42992 0.24695 0.1234 0.0
H376 H 0.48111 0.23932 0.04935 0.0
H377 H 0.47276 0.24363 0.97029 0.0
H378 H 0.40399 0.20346 0.99046 0.0
H379 H 0.4126 0.19949 0.06966 0.0
H380 H 0.47783 0.193 0.07102 0.0
H381 H 0.47009 0.16128 0.01964 0.0
H382 H 0.40271 0.12855 0.05437 0.0
H383 H 0.41095 0.16038 0.107 0.0
H384 H 0.49047 0.1877 0.17251 0.0
H385 H 0.49101 0.15499 0.19718 0.0
H386 H 0.42279 0.12479 0.224 0.0
H387 H 0.42256 0.1577 0.19943 0.0
H388 H 0.50599 0.22921 0.23404 0.0
H389 H 0.51781 0.21317 0.29283 0.0
H390 H 0.45159 0.17554 0.33295 0.0
H391 H 0.44007 0.1921 0.27484 0.0
H392 H 0.50599 0.26662 0.22202 0.0
H393 H 0.51437 0.30039 0.26804 0.0
H394 H 0.44546 0.2752 0.27949 0.0
H395 H 0.43742 0.24158 0.23455 0.0
O396 O 0.44891 0.23879 0.89899 0.0
O397 O 0.41375 0.21788 0.91097 0.0
O398 O 0.47379 0.11635 0.22684 0.0
O399 O 0.43915 0.10072 0.24427 0.0
C400 C 0.46023 0.23532 0.1457 0.0
C401 C 0.45256 0.2171 0.11342 0.0
C402 C 0.45057 0.19712 0.12674 0.0
C403 C 0.45665 0.19542 0.17178 0.0
C404 C 0.4642 0.21359 0.20426 0.0
C405 C 0.46565 0.2334 0.19131 0.0
C406 C 0.46401 0.25684 0.13053 0.0
C407 C 0.48527 0.27349 0.12334 0.0
C408 C 0.48888 0.2924 0.10214 0.0
C409 C 0.47126 0.29497 0.08784 0.0
C410 C 0.45004 0.27876 0.09723 0.0
C411 C 0.44644 0.25976 0.11831 0.0
C412 C 0.44744 0.21919 0.06516 0.0
C413 C 0.46426 0.23151 0.0366 0.0
C414 C 0.45944 0.23392 0.99147 0.0
C415 C 0.4377 0.22392 0.97406 0.0
C416 C 0.4209 0.21139 0.00279 0.0
C417 C 0.42575 0.20905 0.04797 0.0
C418 C 0.44491 0.17887 0.09228 0.0
C419 C 0.46136 0.17909 0.06693 0.0
C420 C 0.45684 0.161 0.03751 0.0
C421 C 0.43574 0.14244 0.03281 0.0
C422 C 0.41914 0.14254 0.05761 0.0
C423 C 0.42374 0.16068 0.0873 0.0
C424 C 0.45649 0.175 0.18427 0.0
C425 C 0.47565 0.17393 0.18349 0.0
C426 C 0.47591 0.15526 0.19766 0.0
C427 C 0.45694 0.13729 0.21267 0.0
C428 C 0.43768 0.13835 0.21275 0.0
C429 C 0.43746 0.15706 0.19858 0.0
C430 C 0.47218 0.21179 0.25015 0.0
C431 C 0.49428 0.2185 0.25728 0.0
C432 C 0.50093 0.209 0.29033 0.0
C433 C 0.48554 0.19267 0.31671 0.0
C434 C 0.46386 0.18808 0.31328 0.0
C435 C 0.45724 0.19765 0.28025 0.0
C436 C 0.47114 0.2517 0.22555 0.0
C437 C 0.49283 0.26823 0.23571 0.0
C438 C 0.49753 0.28755 0.26142 0.0
C439 C 0.48057 0.29047 0.2772 0.0
C440 C 0.45891 0.27334 0.26845 0.0
C441 C 0.45426 0.25412 0.24281 0.0
C442 C 0.43265 0.22662 0.92615 0.0
C443 C 0.45722 0.11754 0.2283 0.0
C444 C 0.99056 0.43762 0.73894 0.0
C445 C 0.05392 0.47539 0.68425 0.0
C446 C 0.03821 0.54208 0.68485 0.0
Mg447 Mg 0.00714 0.44981 0.64152 0.0
O448 O 0.00263 0.47336 0.65842 0.0
Mg449 Mg 0.01829 0.49158 0.71636 0.0
Mg450 Mg 0.0105 0.49738 0.61607 0.0
O451 O 0.01842 0.52148 0.57409 0.0
Mg452 Mg 0.01531 0.54559 0.59298 0.0
Mg453 Mg 0.00073 0.50319 0.51796 0.0
C454 C 0.98504 0.45335 0.54702 0.0
C455 C 0.04106 0.49445 0.53706 0.0
O456 O 7e-05 0.45834 0.75179 0.0
O457 O 0.99082 0.43068 0.69788 0.0
O458 O 0.04739 0.4864 0.70819 0.0
O459 O 0.04151 0.46091 0.65283 0.0
O460 O 0.99151 0.44285 0.57222 0.0
O461 O 0.98746 0.47227 0.56039 0.0
C462 C 0.97865 0.50076 0.69226 0.0
O463 O 0.98344 0.50226 0.6501 0.0
O464 O 0.98927 0.49664 0.72236 0.0
O465 O 0.01725 0.5363 0.48132 0.0
O466 O 0.0292 0.5644 0.53523 0.0
O467 O 0.97168 0.50827 0.53241 0.0
C468 C 0.02731 0.55711 0.49354 0.0
O469 O 0.98143 0.53498 0.58756 0.0
O470 O 0.03263 0.55331 0.65991 0.0
C471 C 0.96715 0.52017 0.55913 0.0
O472 O 0.03354 0.52226 0.67253 0.0
O473 O 0.03737 0.49268 0.57993 0.0
O474 O 0.02956 0.49845 0.50882 0.0
C475 C 0.46865 0.00141 0.74204 0.0
C476 C 0.44847 0.94555 0.65299 0.0
C477 C 0.53087 0.96623 0.65601 0.0
Mg478 Mg 0.46883 0.99443 0.63669 0.0
O479 O 0.49697 0.0006 0.65453 0.0
Mg480 Mg 0.4991 0.98117 0.70068 0.0
Mg481 Mg 0.51302 0.99559 0.60529 0.0
O482 O 0.529 0.99028 0.55664 0.0
Mg483 Mg 0.55619 0.99334 0.5725 0.0
Mg484 Mg 0.52823 0.01044 0.51114 0.0
C485 C 0.49518 0.02476 0.55625 0.0
C486 C 0.47939 0.96876 0.51729 0.0
O487 O 0.48216 0.99448 0.74859 0.0
O488 O 0.46185 0.00311 0.70231 0.0
O489 O 0.46522 0.95143 0.67977 0.0
O490 O 0.44707 0.95925 0.62785 0.0
O491 O 0.47794 0.0158 0.57915 0.0
O492 O 0.51125 0.02153 0.56423 0.0
C493 C 0.54755 0.0235 0.69165 0.0
O494 O 0.54397 0.02113 0.64806 0.0
O495 O 0.53311 0.01082 0.71824 0.0
O496 O 0.54382 0.99551 0.46274 0.0
O497 O 0.56094 0.98255 0.50677 0.0
O498 O 0.56263 0.03927 0.53462 0.0
C499 C 0.55481 0.98557 0.46754 0.0
O500 O 0.57919 0.02789 0.58301 0.0
O501 O 0.54756 0.97333 0.6317 0.0
C502 C 0.57891 0.04313 0.56128 0.0
O503 O 0.51537 0.97015 0.64713 0.0
O504 O 0.48182 0.97035 0.56118 0.0
O505 O 0.49452 0.98169 0.49238 0.0
C506 C 0.54671 0.56476 0.5017 0.0
C507 C 0.57549 0.52462 0.52543 0.0
C508 C 0.49505 0.46114 0.56511 0.0
Mg509 Mg 0.56271 0.55219 0.58914 0.0
O510 O 0.53262 0.53032 0.58304 0.0
Mg511 Mg 0.52224 0.51078 0.52538 0.0
Mg512 Mg 0.52003 0.50728 0.62982 0.0
O513 O 0.50863 0.48452 0.67541 0.0
Mg514 Mg 0.48038 0.46016 0.66859 0.0
Mg515 Mg 0.5174 0.50439 0.73219 0.0
C516 C 0.54533 0.55274 0.68177 0.0
C517 C 0.56106 0.50987 0.68764 0.0
O518 O 0.53416 0.54397 0.49031 0.0
O519 O 0.55838 0.57185 0.53956 0.0
O520 O 0.55537 0.51326 0.51218 0.0
O521 O 0.58211 0.53996 0.55722 0.0
O522 O 0.56141 0.55246 0.66396 0.0
O523 O 0.5277 0.53437 0.68629 0.0
C524 C 0.47913 0.50538 0.57324 0.0
O525 O 0.48659 0.50381 0.61227 0.0
O526 O 0.48982 0.50841 0.53741 0.0
O527 O 0.50654 0.47269 0.77154 0.0
O528 O 0.48382 0.44298 0.72484 0.0
O529 O 0.48258 0.49936 0.73886 0.0
C530 C 0.49459 0.45164 0.76322 0.0
O531 O 0.45869 0.4717 0.69034 0.0
O532 O 0.48196 0.45091 0.59646 0.0
C533 C 0.46315 0.48703 0.72131 0.0
O534 O 0.51111 0.48099 0.5723 0.0
O535 O 0.5534 0.51015 0.64773 0.0
O536 O 0.55056 0.50821 0.72328 0.0
H537 H 0.1615 0.43753 0.30425 0.0
H538 H 0.13968 0.44087 0.3637 0.0
H539 H 0.13107 0.48709 0.28587 0.0
H540 H 0.15242 0.48342 0.22573 0.0
H541 H 0.14646 0.47797 0.4171 0.0
H542 H 0.06877 0.442 0.31266 0.0
H543 H 0.09148 0.43925 0.29504 0.0
H544 H 0.09091 0.46428 0.28646 0.0
C545 C 0.15462 0.44809 0.29931 0.0
C546 C 0.15848 0.45997 0.25977 0.0
C547 C 0.14232 0.45015 0.33362 0.0
C548 C 0.13342 0.46397 0.32904 0.0
C549 C 0.13739 0.47598 0.28983 0.0
H550 H 0.06543 0.51622 0.46808 0.0
H551 H 0.08885 0.5074 0.42385 0.0
C552 C 0.14975 0.47399 0.25557 0.0
C553 C 0.12026 0.46616 0.36538 0.0
H554 H 0.07116 0.46231 0.38239 0.0
C555 C 0.12988 0.47425 0.40975 0.0
C556 C 0.09852 0.46104 0.35601 0.0
C557 C 0.08671 0.45094 0.3101 0.0
C558 C 0.11876 0.47855 0.4441 0.0
C559 C 0.09747 0.47451 0.43386 0.0
C560 C 0.08755 0.46551 0.39015 0.0
C561 C 0.08588 0.48154 0.4659 0.0
C562 C 0.1301 0.48831 0.49045 0.0
C563 C 0.07696 0.47041 0.50545 0.0
C564 C 0.06348 0.47556 0.53131 0.0
C565 C 0.05866 0.49172 0.51751 0.0
C566 C 0.06868 0.50356 0.47945 0.0
C567 C 0.08208 0.49853 0.45402 0.0
H568 H 0.14729 0.49213 0.49191 0.0
H569 H 0.12977 0.50372 0.49943 0.0
H570 H 0.12134 0.47647 0.51661 0.0
H571 H 0.07956 0.4571 0.51505 0.0
H572 H 0.05582 0.46603 0.56019 0.0
H573 H 0.75363 0.17548 0.37271 0.0
H574 H 0.73462 0.16143 0.44297 0.0
H575 H 0.6773 0.11332 0.36198 0.0
H576 H 0.69608 0.12731 0.29197 0.0
H577 H 0.69119 0.15834 0.46135 0.0
H578 H 0.69091 0.07894 0.46217 0.0
H579 H 0.71086 0.10244 0.43367 0.0
H580 H 0.68406 0.08492 0.40718 0.0
C581 C 0.73709 0.16168 0.37011 0.0
C582 C 0.72626 0.15239 0.32711 0.0
C583 C 0.72627 0.1538 0.41009 0.0
C584 C 0.70468 0.13631 0.40742 0.0
C585 C 0.69405 0.12672 0.36457 0.0
H586 H 0.58656 0.07805 0.511 0.0
H587 H 0.62202 0.10682 0.49022 0.0
C588 C 0.70472 0.13474 0.32471 0.0
C589 C 0.6925 0.12846 0.44885 0.0
H590 H 0.66295 0.081 0.50221 0.0
C591 C 0.68542 0.14164 0.47132 0.0
C592 C 0.68537 0.10688 0.46218 0.0
C593 C 0.69333 0.0925 0.44036 0.0
C594 C 0.66975 0.13296 0.5041 0.0
C595 C 0.66092 0.11058 0.51399 0.0
C596 C 0.66961 0.09816 0.49455 0.0
C597 C 0.64038 0.09843 0.53736 0.0
C598 C 0.66209 0.14752 0.52624 0.0
C599 C 0.63882 0.08474 0.57232 0.0
C600 C 0.61846 0.06801 0.58396 0.0
C601 C 0.59936 0.06461 0.56044 0.0
C602 C 0.60093 0.08003 0.52943 0.0
C603 C 0.62128 0.09669 0.51776 0.0
H604 H 0.67543 0.16506 0.52973 0.0
H605 H 0.64868 0.1467 0.50433 0.0
H606 H 0.65603 0.14219 0.5605 0.0
H607 H 0.65337 0.08583 0.58794 0.0
H608 H 0.61783 0.05665 0.6086 0.0
H609 H 0.58047 0.71029 0.21061 0.0
H610 H 0.58141 0.68609 0.26699 0.0
H611 H 0.51611 0.66769 0.30104 0.0
H612 H 0.51538 0.69268 0.24623 0.0
H613 H 0.54268 0.67451 0.37692 0.0
H614 H 0.54966 0.61924 0.24563 0.0
H615 H 0.57088 0.6476 0.24543 0.0
H616 H 0.54314 0.64014 0.23116 0.0
C617 C 0.56644 0.70143 0.23064 0.0
C618 C 0.54778 0.70335 0.22362 0.0
C619 C 0.5669 0.68736 0.26243 0.0
C620 C 0.54865 0.67471 0.28744 0.0
C621 C 0.5303 0.67714 0.28174 0.0
H622 H 0.52109 0.55689 0.42371 0.0
H623 H 0.52149 0.58397 0.37344 0.0
C624 C 0.52985 0.69131 0.25014 0.0
C625 C 0.54853 0.65865 0.31895 0.0
H626 H 0.55354 0.61269 0.32301 0.0
C627 C 0.54502 0.66096 0.36519 0.0
C628 C 0.55123 0.64079 0.30338 0.0
C629 C 0.55372 0.6366 0.25362 0.0
C630 C 0.54441 0.64604 0.39641 0.0
C631 C 0.54785 0.62861 0.3811 0.0
C632 C 0.55112 0.62618 0.33478 0.0
C633 C 0.54763 0.61237 0.41224 0.0
C634 C 0.53957 0.64877 0.44522 0.0
C635 C 0.56238 0.61931 0.45049 0.0
C636 C 0.56212 0.60387 0.47952 0.0
C637 C 0.54729 0.58113 0.47051 0.0
C638 C 0.53276 0.57424 0.43171 0.0
C639 C 0.53295 0.5897 0.40291 0.0
H640 H 0.53145 0.6588 0.44832 0.0
H641 H 0.52901 0.63248 0.45914 0.0
H642 H 0.55506 0.65744 0.46655 0.0
H643 H 0.57421 0.63666 0.45774 0.0
H644 H 0.57363 0.60978 0.50891 0.0
H645 H 0.87086 0.54247 0.26943 0.0
H646 H 0.88608 0.5376 0.34082 0.0
H647 H 0.85129 0.56261 0.41784 0.0
H648 H 0.83575 0.56742 0.34613 0.0
H649 H 0.90925 0.57605 0.42164 0.0
H650 H 0.83691 0.49579 0.45785 0.0
H651 H 0.84233 0.5033 0.39962 0.0
H652 H 0.83404 0.51822 0.43725 0.0
C653 C 0.86643 0.54692 0.30155 0.0
C654 C 0.85208 0.55523 0.30237 0.0
C655 C 0.87515 0.54418 0.34217 0.0
C656 C 0.86959 0.5496 0.38425 0.0
C657 C 0.8556 0.55828 0.38547 0.0
H658 H 0.95284 0.54548 0.60349 0.0
H659 H 0.92395 0.55188 0.57521 0.0
C660 C 0.84691 0.56114 0.34465 0.0
C661 C 0.8788 0.54605 0.42642 0.0
H662 H 0.87026 0.50549 0.49739 0.0
C663 C 0.90065 0.56099 0.43937 0.0
C664 C 0.86737 0.52628 0.44881 0.0
C665 C 0.84382 0.50987 0.43549 0.0
C666 C 0.91196 0.55593 0.47208 0.0
C667 C 0.90089 0.53548 0.4927 0.0
C668 C 0.87859 0.5212 0.48183 0.0
C669 C 0.91317 0.52721 0.51866 0.0
C670 C 0.93608 0.57166 0.48131 0.0
C671 C 0.91532 0.5099 0.49851 0.0
C672 C 0.93163 0.50598 0.51484 0.0
C673 C 0.94613 0.51946 0.55136 0.0
C674 C 0.94217 0.53497 0.57488 0.0
C675 C 0.9257 0.53874 0.55871 0.0
H676 H 0.94261 0.58529 0.4578 0.0
H677 H 0.93921 0.57914 0.5168 0.0
H678 H 0.94523 0.56268 0.47777 0.0
H679 H 0.90564 0.50068 0.46773 0.0
H680 H 0.93397 0.49365 0.49635 0.0
H681 H 0.35045 0.8759 0.18118 0.0
H682 H 0.37643 0.8944 0.24706 0.0
H683 H 0.32403 0.88564 0.33037 0.0
H684 H 0.29792 0.86682 0.26488 0.0
H685 H 0.38455 0.93277 0.30417 0.0
H686 H 0.35431 0.85668 0.39977 0.0
H687 H 0.34788 0.85566 0.33941 0.0
H688 H 0.3345 0.86382 0.38029 0.0
C689 C 0.34451 0.87806 0.21347 0.0
C690 C 0.3222 0.86999 0.21786 0.0
C691 C 0.35933 0.88862 0.251 0.0
C692 C 0.35207 0.89109 0.29363 0.0
C693 C 0.32989 0.88364 0.29787 0.0
H694 H 0.43812 0.95674 0.54165 0.0
H695 H 0.40447 0.93619 0.49246 0.0
C696 C 0.31506 0.87316 0.26029 0.0
C697 C 0.36784 0.90123 0.33357 0.0
H698 H 0.38445 0.88927 0.43347 0.0
C699 C 0.38439 0.92334 0.33269 0.0
C700 C 0.36749 0.88885 0.37077 0.0
C701 C 0.35021 0.86489 0.3728 0.0
C702 C 0.40098 0.93328 0.36747 0.0
C703 C 0.40114 0.92067 0.40365 0.0
C704 C 0.38417 0.89881 0.4056 0.0
C705 C 0.42008 0.92948 0.43681 0.0
C706 C 0.41861 0.95706 0.36478 0.0
C707 C 0.4396 0.93162 0.42233 0.0
C708 C 0.45864 0.94313 0.45028 0.0
C709 C 0.45846 0.95257 0.49338 0.0
C710 C 0.4386 0.94917 0.50915 0.0
C711 C 0.41945 0.93765 0.48092 0.0
H712 H 0.41386 0.96576 0.3402 0.0
H713 H 0.42254 0.96613 0.39889 0.0
H714 H 0.43361 0.95757 0.3534 0.0
H715 H 0.44032 0.92532 0.38842 0.0
H716 H 0.47375 0.94553 0.43731 0.0
H717 H 0.4613 0.29666 0.35102 0.0
H718 H 0.46597 0.33158 0.38372 0.0
H719 H 0.51484 0.36733 0.2887 0.0
H720 H 0.50987 0.33233 0.25471 0.0
H721 H 0.52434 0.38302 0.38899 0.0
H722 H 0.44659 0.37163 0.31358 0.0
H723 H 0.44447 0.34769 0.33875 0.0
H724 H 0.46018 0.35784 0.28953 0.0
C725 C 0.47298 0.31192 0.33692 0.0
C726 C 0.48511 0.31174 0.30011 0.0
C727 C 0.47561 0.33181 0.35559 0.0
C728 C 0.49044 0.35185 0.33792 0.0
C729 C 0.50319 0.35192 0.30237 0.0
H730 H 0.52054 0.47549 0.49159 0.0
H731 H 0.52018 0.45285 0.42553 0.0
C732 C 0.50047 0.33196 0.28338 0.0
C733 C 0.49266 0.37261 0.35776 0.0
H734 H 0.46282 0.39758 0.3786 0.0
C735 C 0.5112 0.38665 0.38602 0.0
C736 C 0.47546 0.37713 0.35331 0.0
C737 C 0.4556 0.3629 0.32183 0.0
C738 C 0.51221 0.40416 0.41316 0.0
C739 C 0.49432 0.40783 0.41098 0.0
C740 C 0.47647 0.3947 0.38016 0.0
C741 C 0.49242 0.42275 0.44525 0.0
C742 C 0.53164 0.41747 0.44642 0.0
C743 C 0.4761 0.41362 0.47649 0.0
C744 C 0.47612 0.42654 0.51396 0.0
C745 C 0.49253 0.44884 0.52097 0.0
C746 C 0.50784 0.45835 0.4876 0.0
C747 C 0.50774 0.44541 0.4499 0.0
H748 H 0.54237 0.41019 0.44869 0.0
H749 H 0.54141 0.4345 0.43517 0.0
H750 H 0.52628 0.41863 0.48108 0.0
H751 H 0.46403 0.39615 0.47328 0.0
H752 H 0.46391 0.41869 0.53863 0.0
H753 H 0.56649 0.85586 0.92441 0.0
H754 H 0.56045 0.87916 0.87368 0.0
H755 H 0.52308 0.8899 0.97427 0.0
H756 H 0.52928 0.86659 0.026 0.0
H757 H 0.51457 0.8687 0.84656 0.0
H758 H 0.57007 0.95327 0.92761 0.0
H759 H 0.57512 0.93072 0.9355 0.0
H760 H 0.55311 0.93118 0.96276 0.0
C761 C 0.55752 0.86367 0.93643 0.0
C762 C 0.54858 0.85963 0.97946 0.0
C763 C 0.5539 0.87679 0.90718 0.0
C764 C 0.54141 0.88623 0.92043 0.0
C765 C 0.5329 0.88281 0.96375 0.0
H766 H 0.49651 0.94249 0.70906 0.0
H767 H 0.49656 0.92378 0.77766 0.0
C768 C 0.53642 0.86952 0.99311 0.0
C769 C 0.53641 0.89854 0.88728 0.0
H770 H 0.55249 0.95071 0.85648 0.0
C771 C 0.5225 0.88662 0.84896 0.0
C772 C 0.54696 0.92184 0.89077 0.0
C773 C 0.56223 0.93517 0.93122 0.0
C774 C 0.51951 0.8975 0.81291 0.0
C775 C 0.53062 0.92088 0.81565 0.0
C776 C 0.54392 0.93278 0.85478 0.0
C777 C 0.53053 0.9332 0.77616 0.0
C778 C 0.50545 0.884 0.77112 0.0
C779 C 0.54968 0.94493 0.75326 0.0
C780 C 0.54973 0.95563 0.71428 0.0
C781 C 0.53062 0.95492 0.69759 0.0
C782 C 0.5115 0.94344 0.72112 0.0
C783 C 0.51147 0.93267 0.76017 0.0
H784 H 0.50058 0.86626 0.77178 0.0
H785 H 0.49045 0.8852 0.76923 0.0
H786 H 0.51417 0.89053 0.73965 0.0
H787 H 0.56454 0.94546 0.76512 0.0
H788 H 0.56479 0.96444 0.69725 0.0
H789 H 0.69592 0.51297 0.92666 0.0
H790 H 0.67219 0.50793 0.86025 0.0
H791 H 0.72706 0.55673 0.79221 0.0
H792 H 0.75125 0.56153 0.85845 0.0
H793 H 0.69089 0.56348 0.79349 0.0
H794 H 0.66522 0.4777 0.73233 0.0
H795 H 0.66338 0.48017 0.79292 0.0
H796 H 0.68956 0.49459 0.76877 0.0
C797 C 0.70312 0.52228 0.89726 0.0
C798 C 0.72555 0.53755 0.89788 0.0
C799 C 0.6895 0.51937 0.85925 0.0
C800 C 0.69795 0.53163 0.82098 0.0
C801 C 0.72029 0.54694 0.82127 0.0
H802 H 0.59608 0.52912 0.6334 0.0
H803 H 0.63289 0.53517 0.6509 0.0
C804 C 0.73402 0.54978 0.8593 0.0
C805 C 0.68282 0.52952 0.78282 0.0
H806 H 0.63915 0.48999 0.71693 0.0
C807 C 0.68001 0.54763 0.77538 0.0
C808 C 0.66885 0.5089 0.75891 0.0
C809 C 0.67205 0.4893 0.76326 0.0
C810 C 0.66206 0.54501 0.74858 0.0
C811 C 0.6468 0.52379 0.72869 0.0
C812 C 0.65087 0.50624 0.73238 0.0
C813 C 0.62457 0.51846 0.71379 0.0
C814 C 0.65837 0.56436 0.74531 0.0
C815 C 0.6078 0.50666 0.74273 0.0
C816 C 0.58708 0.50336 0.73308 0.0
C817 C 0.58259 0.51164 0.69403 0.0
C818 C 0.59912 0.52257 0.6637 0.0
C819 C 0.6201 0.52609 0.6737 0.0
H820 H 0.67174 0.57974 0.76316 0.0
H821 H 0.65706 0.56742 0.70889 0.0
H822 H 0.64281 0.5605 0.76043 0.0
H823 H 0.61095 0.50066 0.77382 0.0
H824 H 0.57464 0.49465 0.75686 0.0
H825 H 0.15855 0.7098 0.92645 0.0
H826 H 0.13215 0.67341 0.89186 0.0
H827 H 0.18411 0.66104 0.85948 0.0
H828 H 0.21089 0.69806 0.89244 0.0
H829 H 0.15391 0.64781 0.7895 0.0
H830 H 0.11252 0.61533 0.94805 0.0
H831 H 0.11314 0.6405 0.93578 0.0
H832 H 0.13827 0.64076 0.94802 0.0
C833 C 0.16447 0.6996 0.91107 0.0
C834 C 0.18688 0.70692 0.91197 0.0
C835 C 0.14929 0.67858 0.89217 0.0
C836 C 0.15613 0.66426 0.87436 0.0
C837 C 0.17849 0.67172 0.87373 0.0
H838 H 0.07038 0.53605 0.72246 0.0
H839 H 0.10012 0.56229 0.77665 0.0
C840 C 0.19375 0.69286 0.89251 0.0
C841 C 0.13982 0.64184 0.85496 0.0
H842 H 0.0921 0.59591 0.87724 0.0
C843 C 0.14067 0.63622 0.80892 0.0
C844 C 0.12267 0.62666 0.88054 0.0
C845 C 0.12172 0.63103 0.93096 0.0
C846 C 0.12401 0.61651 0.78694 0.0
C847 C 0.10616 0.60205 0.81181 0.0
C848 C 0.10585 0.60707 0.85839 0.0
C849 C 0.08644 0.58352 0.78811 0.0
C850 C 0.12486 0.61187 0.73656 0.0
C851 C 0.06853 0.58627 0.77877 0.0
C852 C 0.05171 0.5715 0.74783 0.0
C853 C 0.05247 0.55363 0.7261 0.0
C854 C 0.06937 0.54966 0.73889 0.0
C855 C 0.0864 0.56466 0.76957 0.0
H856 H 0.13913 0.62559 0.72154 0.0
H857 H 0.12578 0.59656 0.7312 0.0
H858 H 0.1098 0.6091 0.71786 0.0
H859 H 0.06831 0.60073 0.7929 0.0
H860 H 0.03878 0.57484 0.73879 0.0
H861 H 0.41111 0.09879 0.05076 0.0
H862 H 0.40794 0.06679 0.00619 0.0
H863 H 0.44899 0.10996 0.90664 0.0
H864 H 0.45108 0.14166 0.94922 0.0
H865 H 0.41622 0.07273 0.86684 0.0
H866 H 0.45696 0.0533 0.00753 0.0
H867 H 0.43199 0.05239 0.02058 0.0
H868 H 0.45543 0.07828 0.00941 0.0
C869 C 0.41902 0.10136 0.0188 0.0
C870 C 0.43161 0.12277 0.00375 0.0
C871 C 0.41745 0.08311 0.99378 0.0
C872 C 0.42869 0.08611 0.95382 0.0
C873 C 0.44033 0.10731 0.93765 0.0
H874 H 0.492 0.02943 0.81518 0.0
H875 H 0.47834 0.04555 0.87194 0.0
C876 C 0.44168 0.12544 0.96221 0.0
C877 C 0.42931 0.06762 0.92911 0.0
H878 H 0.44968 0.03279 0.93743 0.0
C879 C 0.42325 0.06373 0.8823 0.0
C880 C 0.43866 0.05611 0.94958 0.0
C881 C 0.44631 0.06028 -0.00057 0.0
C882 C 0.42753 0.04972 0.85463 0.0
C883 C 0.43721 0.03845 0.8749 0.0
C884 C 0.44214 0.04136 0.9222 0.0
C885 C 0.4446 0.02572 0.84673 0.0
C886 C 0.42307 0.04847 0.8036 0.0
C887 C 0.43003 0.00852 0.81543 0.0
C888 C 0.4379 -0.00012 0.78235 0.0
C889 C 0.46031 0.00771 0.78139 0.0
C890 C 0.47466 0.02326 0.81547 0.0
C891 C 0.46685 0.03238 0.84782 0.0
H892 H 0.42055 0.06214 0.79308 0.0
H893 H 0.43672 0.04917 0.78483 0.0
H894 H 0.40805 0.03264 0.79301 0.0
H895 H 0.41274 0.00265 0.81501 0.0
H896 H 0.42658 0.98759 0.75658 0.0
H897 H 0.31386 0.44565 0.99415 0.0
H898 H 0.34212 0.45076 0.94226 0.0
H899 H 0.33053 0.49657 0.86969 0.0
H900 H 0.30287 0.49218 0.92294 0.0
H901 H 0.34246 0.44287 0.85528 0.0
H902 H 0.39458 0.53328 0.89254 0.0
H903 H 0.37149 0.51659 0.92516 0.0
H904 H 0.36772 0.52564 0.87085 0.0
C905 C 0.31727 0.45672 0.96694 0.0
C906 C 0.30619 0.46855 0.96262 0.0
C907 C 0.33348 0.45969 0.93732 0.0
C908 C 0.3389 0.47442 0.90242 0.0
C909 C 0.32725 0.48566 0.8971 0.0
H910 H 0.42064 0.46873 0.68758 0.0
H911 H 0.39005 0.46704 0.72712 0.0
C912 C 0.31129 0.483 0.92729 0.0
C913 C 0.35664 0.47782 0.87179 0.0
H914 H 0.40455 0.51731 0.83184 0.0
C915 C 0.35604 0.45917 0.85021 0.0
C916 C 0.3746 0.49905 0.86549 0.0
C917 C 0.37731 0.51976 0.8901 0.0
C918 C 0.37283 0.46107 0.82309 0.0
C919 C 0.39046 0.48234 0.81563 0.0
C920 C 0.39097 0.50101 0.8369 0.0
C921 C 0.40927 0.48552 0.78873 0.0
C922 C 0.37188 0.44012 0.80446 0.0
C923 C 0.43059 0.4978 0.80857 0.0
C924 C 0.44822 0.4994 0.78543 0.0
C925 C 0.44498 0.48854 0.74194 0.0
C926 C 0.42377 0.47717 0.72111 0.0
C927 C 0.40617 0.47594 0.744 0.0
H928 H 0.36098 0.4257 0.8238 0.0
H929 H 0.36534 0.43647 0.76839 0.0
H930 H 0.38829 0.44183 0.80569 0.0
H931 H 0.43355 0.50552 0.84283 0.0
H932 H 0.46426 0.50827 0.80269 0.0
H933 H 0.84464 0.26807 0.92174 0.0
H934 H 0.87331 0.29709 0.88008 0.0
H935 H 0.88318 0.34567 0.98786 0.0
H936 H 0.85504 0.3167 0.03037 0.0
H937 H 0.87544 0.3356 0.84944 0.0
H938 H 0.94469 0.35564 0.97279 0.0
H939 H 0.91855 0.33073 0.97399 0.0
H940 H 0.92225 0.3567 -0.00308 0.0
C941 C 0.85302 0.28491 0.9367 0.0
C942 C 0.84761 0.29009 0.97937 0.0
C943 C 0.86932 0.30146 0.91281 0.0
C944 C 0.88057 0.32342 0.93129 0.0
C945 C 0.87495 0.32874 0.97344 0.0
H946 H 0.98053 0.44514 0.82508 0.0
H947 H 0.95445 0.41762 0.87364 0.0
C948 C 0.85866 0.31221 -0.00265 0.0
C949 C 0.89788 0.34081 0.9059 0.0
H950 H 0.95229 0.37858 0.91082 0.0
C951 C 0.89225 0.34496 0.86277 0.0
C952 C 0.91976 0.35305 0.92363 0.0
C953 C 0.92679 0.34874 0.9692 0.0
C954 C 0.90792 0.36113 0.83685 0.0
C955 C 0.92984 0.37316 0.85428 0.0
C956 C 0.93546 0.36925 0.89765 0.0
C957 C 0.94713 0.38958 0.82728 0.0
C958 C 0.90087 0.3654 0.79124 0.0
C959 C 0.95214 0.38276 0.78606 0.0
C960 C 0.96699 0.39836 0.75829 0.0
C961 C 0.97717 0.4211 0.77133 0.0
C962 C 0.97295 0.42778 0.81391 0.0
C963 C 0.95804 0.41211 0.84169 0.0
H964 H 0.88301 0.35875 0.7879 0.0
H965 H 0.90932 0.38339 0.78614 0.0
H966 H 0.90516 0.35718 0.76356 0.0
H967 H 0.94415 0.36537 0.77485 0.0
H968 H 0.96999 0.39257 0.72599 0.0
H969 H 0.85041 0.56578 0.86207 0.0
H970 H 0.87339 0.55861 0.81139 0.0
H971 H 0.86119 0.50201 0.88547 0.0
H972 H 0.8383 0.50899 0.93587 0.0
H973 H 0.91065 0.55809 0.83217 0.0
H974 H 0.84885 0.47565 0.75567 0.0
H975 H 0.84164 0.49353 0.7873 0.0
H976 H 0.84988 0.47665 0.81689 0.0
C977 C 0.85251 0.55172 0.86734 0.0
C978 C 0.84223 0.53779 0.90272 0.0
C979 C 0.86562 0.54761 0.83827 0.0
C980 C 0.86869 0.52947 0.84389 0.0
C981 C 0.85856 0.51568 0.87938 0.0
H982 H 0.95172 0.48031 0.75995 0.0
H983 H 0.9244 0.4878 0.79162 0.0
C984 C 0.84543 0.51971 0.90825 0.0
C985 C 0.88338 0.52555 0.81449 0.0
H986 H 0.88622 0.48557 0.74876 0.0
C987 C 0.90523 0.54236 0.81333 0.0
C988 C 0.87633 0.50504 0.78972 0.0
C989 C 0.85284 0.48678 0.78702 0.0
C990 C 0.92039 0.53885 0.79002 0.0
C991 C 0.91349 0.51804 0.76677 0.0
C992 C 0.89153 0.50148 0.76674 0.0
C993 C 0.92912 0.5127 0.74494 0.0
C994 C 0.94388 0.5571 0.79207 0.0
C995 C 0.94059 0.52388 0.70748 0.0
C996 C 0.95623 0.51956 0.68924 0.0
C997 C 0.96063 0.50395 0.70787 0.0
C998 C 0.94872 0.49244 0.74468 0.0
C999 C 0.93305 0.49666 0.76279 0.0
H1000 H 0.94729 0.57061 0.81814 0.0
H1001 H 0.95487 0.55051 0.79996 0.0
H1002 H 0.94782 0.56427 0.75831 0.0
H1003 H 0.93773 0.53622 0.69288 0.0
H1004 H 0.96555 0.52916 0.66209 0.0
H1005 H 0.30963 0.86727 0.92985 0.0
H1006 H 0.33292 0.88255 0.8662 0.0
H1007 H 0.32313 0.81802 0.82611 0.0
H1008 H 0.29898 0.80237 0.88846 0.0
H1009 H 0.37072 0.88328 0.85501 0.0
H1010 H 0.31394 0.83852 0.70426 0.0
H1011 H 0.30468 0.83902 0.7607 0.0
H1012 H 0.31476 0.82073 0.74561 0.0
C1013 C 0.31202 0.85621 0.90697 0.0
C1014 C 0.30241 0.83357 0.91437 0.0
C1015 C 0.32545 0.865 0.8707 0.0
C1016 C 0.32955 0.85139 0.841 0.0
C1017 C 0.31986 0.82876 0.84798 0.0
H1018 H 0.44606 0.90939 0.69042 0.0
H1019 H 0.41495 0.88184 0.7291 0.0
C1020 C 0.30633 0.81992 0.88414 0.0
C1021 C 0.34535 0.86131 0.80518 0.0
H1022 H 0.35159 0.85993 0.69017 0.0
C1023 C 0.36651 0.87816 0.81899 0.0
C1024 C 0.33977 0.8547 0.75814 0.0
C1025 C 0.317 0.8374 0.74112 0.0
C1026 C 0.38227 0.88862 0.78723 0.0
C1027 C 0.37692 0.88165 0.7403 0.0
C1028 C 0.35573 0.8649 0.72625 0.0
C1029 C 0.39303 0.89286 0.70573 0.0
C1030 C 0.40438 0.90752 0.80416 0.0
C1031 C 0.39034 0.90674 0.67643 0.0
C1032 C 0.40802 0.92232 0.65365 0.0
C1033 C 0.42865 0.92434 0.66047 0.0
C1034 C 0.43045 0.90845 0.68501 0.0
C1035 C 0.41272 0.89275 0.70732 0.0
H1036 H 0.40426 0.91391 0.83941 0.0
H1037 H 0.41633 0.90171 0.80444 0.0
H1038 H 0.41007 0.9214 0.78137 0.0
H1039 H 0.37518 0.90693 0.67446 0.0
H1040 H 0.40604 0.93424 0.63482 0.0
H1041 H 0.49664 0.30955 0.01537 0.0
H1042 H 0.50135 0.33876 0.96647 0.0
H1043 H 0.45861 0.35145 0.04762 0.0
H1044 H 0.45357 0.32185 0.09651 0.0
H1045 H 0.44824 0.34851 0.95792 0.0
H1046 H 0.53687 0.40493 0.98907 0.0
H1047 H 0.53062 0.37745 0.97117 0.0
H1048 H 0.52139 0.3824 0.02455 0.0
C1049 C 0.48857 0.31884 0.02334 0.0
C1050 C 0.47492 0.31359 0.06003 0.0
C1051 C 0.49131 0.33557 0.99541 0.0
C1052 C 0.48071 0.34763 0.00395 0.0
C1053 C 0.46708 0.34246 0.04064 0.0
H1054 H 0.50978 0.46334 0.85278 0.0
H1055 H 0.50567 0.43883 0.91324 0.0
C1056 C 0.46418 0.32556 0.06845 0.0
C1057 C 0.48289 0.36465 0.97278 0.0
H1058 H 0.52033 0.41025 0.92186 0.0
C1059 C 0.46398 0.36217 0.95044 0.0
C1060 C 0.5034 0.38267 0.96355 0.0
C1061 C 0.52419 0.38718 0.98874 0.0
C1062 C 0.46509 0.37672 0.91783 0.0
C1063 C 0.4857 0.39387 0.90644 0.0
C1064 C 0.50455 0.39688 0.93008 0.0
C1065 C 0.4881 0.40868 0.86968 0.0
C1066 C 0.44415 0.37363 0.8961 0.0
C1067 C 0.47992 0.39989 0.82491 0.0
C1068 C 0.48211 0.41382 0.7903 0.0
C1069 C 0.49281 0.43688 0.79963 0.0
C1070 C 0.50143 0.44567 0.84434 0.0
C1071 C 0.49909 0.43169 0.879 0.0
H1072 H 0.4303 0.36467 0.91811 0.0
H1073 H 0.44555 0.38976 0.88922 0.0
H1074 H 0.44029 0.36363 0.86318 0.0
H1075 H 0.47192 0.38222 0.81666 0.0
H1076 H 0.47546 0.40649 0.7562 0.0
H1077 H 0.21271 0.47292 0.91589 0.0
H1078 H 0.19255 0.47466 0.84847 0.0
H1079 H 0.13568 0.45359 0.92653 0.0
H1080 H 0.15553 0.451 0.99327 0.0
H1081 H 0.12457 0.43311 0.84457 0.0
H1082 H 0.17947 0.52278 0.82595 0.0
H1083 H 0.19271 0.50669 0.82208 0.0
H1084 H 0.18167 0.50921 0.87493 0.0
C1085 C 0.19589 0.46868 0.9185 0.0
C1086 C 0.18567 0.46193 0.95977 0.0
C1087 C 0.18443 0.4698 0.88008 0.0
C1088 C 0.16272 0.46472 0.88259 0.0
C1089 C 0.15243 0.45764 0.92369 0.0
H1090 H 0.0841 0.50494 0.74852 0.0
H1091 H 0.11303 0.50203 0.78759 0.0
C1092 C 0.16375 0.45615 0.96182 0.0
C1093 C 0.15052 0.4668 0.84285 0.0
H1094 H 0.15002 0.50387 0.77149 0.0
C1095 C 0.13019 0.44854 0.82835 0.0
C1096 C 0.15787 0.48697 0.82175 0.0
C1097 C 0.17902 0.50759 0.83717 0.0
C1098 C 0.11655 0.45012 0.79499 0.0
C1099 C 0.1238 0.47035 0.77411 0.0
C1100 C 0.14458 0.48831 0.78711 0.0
C1101 C 0.10891 0.47421 0.74422 0.0
C1102 C 0.09398 0.4305 0.78472 0.0
C1103 C 0.0977 0.46037 0.70495 0.0
C1104 C 0.08072 0.46176 0.68269 0.0
C1105 C 0.07495 0.47723 0.69907 0.0
C1106 C 0.0878 0.49255 0.73535 0.0
C1107 C 0.10447 0.49096 0.75778 0.0
H1108 H 0.08945 0.41803 0.81062 0.0
H1109 H 0.08163 0.4358 0.78344 0.0
H1110 H 0.09332 0.42232 0.751 0.0
H1111 H 0.10135 0.44781 0.69284 0.0
H1112 H 0.07136 0.4499 0.65447 0.0
H1113 H 0.74199 0.15706 0.88124 0.0
H1114 H 0.71296 0.13352 0.82318 0.0
H1115 H 0.66776 0.14572 0.8961 0.0
H1116 H 0.69651 0.16918 0.95369 0.0
H1117 H 0.67602 0.09577 0.83526 0.0
H1118 H 0.65455 0.15521 0.7675 0.0
H1119 H 0.67938 0.16396 0.80177 0.0
H1120 H 0.65418 0.15574 0.82857 0.0
C1121 C 0.72591 0.15492 0.8845 0.0
C1122 C 0.72162 0.1652 0.9218 0.0
C1123 C 0.70937 0.14153 0.85128 0.0
C1124 C 0.68827 0.13821 0.85474 0.0
C1125 C 0.68404 0.14859 0.89179 0.0
H1126 H 0.56424 0.02728 0.77866 0.0
H1127 H 0.59983 0.0553 0.81229 0.0
C1128 C 0.70053 0.16201 0.9248 0.0
C1129 C 0.67012 0.12245 0.82217 0.0
H1130 H 0.62655 0.11659 0.75759 0.0
C1131 C 0.66543 0.10042 0.81764 0.0
C1132 C 0.65649 0.12854 0.7984 0.0
C1133 C 0.66156 0.15222 0.79889 0.0
C1134 C 0.64677 0.08408 0.79231 0.0
C1135 C 0.63215 0.08983 0.77188 0.0
C1136 C 0.63755 0.1121 0.77396 0.0
C1137 C 0.61059 0.07284 0.75077 0.0
C1138 C 0.64278 0.06075 0.78817 0.0
C1139 C 0.60443 0.07383 0.70545 0.0
C1140 C 0.58387 0.05796 0.68625 0.0
C1141 C 0.5691 0.04082 0.71203 0.0
C1142 C 0.57522 0.04016 0.75768 0.0
C1143 C 0.59569 0.05604 0.77685 0.0
H1144 H 0.65828 0.06053 0.7918 0.0
H1145 H 0.63245 0.05133 0.81586 0.0
H1146 H 0.63431 0.05216 0.75483 0.0
H1147 H 0.61555 0.08685 0.68489 0.0
H1148 H 0.57946 0.05925 0.65144 0.0
H1149 H 0.56203 0.736 0.78152 0.0
H1150 H 0.56221 0.71354 0.71537 0.0
H1151 H 0.50335 0.65767 0.75702 0.0
H1152 H 0.50291 0.68007 0.82214 0.0
H1153 H 0.5687 0.68147 0.73498 0.0
H1154 H 0.49442 0.64429 0.62207 0.0
H1155 H 0.50258 0.66885 0.65904 0.0
H1156 H 0.48676 0.64169 0.68001 0.0
C1157 C 0.54875 0.71912 0.77548 0.0
C1158 C 0.53264 0.70961 0.80717 0.0
C1159 C 0.54876 0.70639 0.73753 0.0
C1160 C 0.53274 0.68394 0.731 0.0
C1161 C 0.51557 0.67507 0.76044 0.0
H1162 H 0.51404 0.56058 0.71341 0.0
H1163 H 0.51191 0.59418 0.70827 0.0
C1164 C 0.51543 0.68785 0.79807 0.0
C1165 C 0.53675 0.66859 0.70219 0.0
H1166 H 0.50929 0.61954 0.63836 0.0
C1167 C 0.55606 0.66837 0.71237 0.0
C1168 C 0.52031 0.65155 0.67261 0.0
C1169 C 0.49998 0.6518 0.65751 0.0
C1170 C 0.55828 0.65025 0.69854 0.0
C1171 C 0.54086 0.63212 0.67284 0.0
C1172 C 0.5225 0.63337 0.65854 0.0
C1173 C 0.54 0.61061 0.66768 0.0
C1174 C 0.57833 0.64978 0.71552 0.0
C1175 C 0.55613 0.60852 0.64547 0.0
C1176 C 0.55775 0.58958 0.6494 0.0
C1177 C 0.54283 0.57214 0.67447 0.0
C1178 C 0.5258 0.57373 0.69399 0.0
C1179 C 0.52445 0.59283 0.69074 0.0
H1180 H 0.58873 0.66381 0.74067 0.0
H1181 H 0.57371 0.63412 0.73182 0.0
H1182 H 0.58825 0.65079 0.68626 0.0
H1183 H 0.56806 0.62194 0.62691 0.0
H1184 H 0.571 0.5889 0.63365 0.0
H1185 H 0.50973 0.1746 0.28797 0.0
H1186 H 0.51558 0.14721 0.32471 0.0
H1187 H 0.47895 0.14914 0.43761 0.0
H1188 H 0.47343 0.17708 0.40149 0.0
H1189 H 0.51766 0.14827 0.4634 0.0
H1190 H 0.46566 0.08272 0.32889 0.0
H1191 H 0.48802 0.10709 0.30851 0.0
H1192 H 0.46638 0.10887 0.33483 0.0
C1193 C 0.50337 0.16965 0.32118 0.0
C1194 C 0.4912 0.17812 0.34198 0.0
C1195 C 0.5065 0.15377 0.34182 0.0
C1196 C 0.49744 0.14595 0.38352 0.0
C1197 C 0.486 0.15494 0.40528 0.0
H1198 H 0.46204 0.02856 0.51739 0.0
H1199 H 0.46488 0.05801 0.47155 0.0
C1200 C 0.48281 0.17082 0.3846 0.0
C1201 C 0.49914 0.12778 0.4036 0.0
H1202 H 0.48267 0.0729 0.38627 0.0
C1203 C 0.51017 0.13182 0.44648 0.0
C1204 C 0.48917 0.10631 0.38146 0.0
C1205 C 0.47646 0.10084 0.33606 0.0
C1206 C 0.51129 0.11487 0.46811 0.0
C1207 C 0.50132 0.09342 0.44595 0.0
C1208 C 0.49053 0.08945 0.40283 0.0
C1209 C 0.49991 0.0744 0.46914 0.0
C1210 C 0.52237 0.11982 0.51527 0.0
C1211 C 0.51863 0.07339 0.48148 0.0
C1212 C 0.51706 0.05645 0.50772 0.0
C1213 C 0.49675 0.04038 0.5221 0.0
C1214 C 0.47796 0.0408 0.50733 0.0
C1215 C 0.47953 0.05761 0.48104 0.0
H1216 H 0.52596 0.13617 0.53067 0.0
H1217 H 0.51208 0.10687 0.53831 0.0
H1218 H 0.53797 0.11989 0.51318 0.0
H1219 H 0.53447 0.08603 0.47193 0.0
H1220 H 0.53183 0.05656 0.51847 0.0
H1221 H 0.28974 0.43662 0.38392 0.0
H1222 H 0.31406 0.4411 0.44973 0.0
H1223 H 0.36141 0.50545 0.40866 0.0
H1224 H 0.33741 0.50112 0.34329 0.0
H1225 H 0.35433 0.44626 0.44708 0.0
H1226 H 0.36057 0.51873 0.54359 0.0
H1227 H 0.3392 0.50274 0.49989 0.0
H1228 H 0.36551 0.52427 0.48479 0.0
C1229 C 0.3053 0.45176 0.38917 0.0
C1230 C 0.31161 0.46859 0.3586 0.0
C1231 C 0.31907 0.45435 0.42692 0.0
C1232 C 0.33929 0.47385 0.43478 0.0
C1233 C 0.34556 0.49061 0.40426 0.0
H1234 H 0.46608 0.52618 0.51562 0.0
H1235 H 0.42878 0.51711 0.4958 0.0
C1236 C 0.33186 0.48806 0.36672 0.0
C1237 C 0.35502 0.47605 0.47176 0.0
H1238 H 0.3924 0.51397 0.55169 0.0
C1239 C 0.36221 0.46067 0.47107 0.0
C1240 C 0.36512 0.49474 0.50335 0.0
C1241 C 0.357 0.5109 0.50829 0.0
C1242 C 0.38065 0.46465 0.49786 0.0
C1243 C 0.39199 0.48444 0.52611 0.0
C1244 C 0.3837 0.49887 0.52975 0.0
C1245 C 0.41432 0.49221 0.54487 0.0
C1246 C 0.38897 0.44864 0.49292 0.0
C1247 C 0.41852 0.4817 0.58013 0.0
C1248 C 0.43991 0.48695 0.59164 0.0
C1249 C 0.45723 0.50264 0.56783 0.0
C1250 C 0.453 0.51396 0.53438 0.0
C1251 C 0.43174 0.50887 0.52319 0.0
H1252 H 0.37884 0.43459 0.46759 0.0
H1253 H 0.40597 0.45734 0.48219 0.0
H1254 H 0.38904 0.44188 0.52639 0.0
H1255 H 0.40522 0.46879 0.59719 0.0
H1256 H 0.44273 0.47774 0.61687 0.0
H1257 H 0.88425 0.30387 0.24746 0.0
H1258 H 0.91009 0.3367 0.29522 0.0
H1259 H 0.8792 0.37207 0.24594 0.0
H1260 H 0.85327 0.33925 0.19767 0.0
H1261 H 0.93968 0.3816 0.27617 0.0
H1262 H 0.87362 0.37351 0.38553 0.0
H1263 H 0.87001 0.35162 0.34501 0.0
H1264 H 0.86971 0.37544 0.32549 0.0
C1265 C 0.88324 0.31877 0.24591 0.0
C1266 C 0.86661 0.31891 0.21897 0.0
C1267 C 0.89796 0.33749 0.2734 0.0
C1268 C 0.89633 0.35667 0.2746 0.0
C1269 C 0.88047 0.35728 0.24608 0.0
H1270 H 0.96169 0.46478 0.48907 0.0
H1271 H 0.94201 0.44523 0.41652 0.0
C1272 C 0.86569 0.33853 0.21857 0.0
C1273 C 0.91039 0.37538 0.30797 0.0
H1274 H 0.9092 0.40131 0.40818 0.0
C1275 C 0.93304 0.38614 0.30474 0.0
C1276 C 0.90164 0.38129 0.34509 0.0
C1277 C 0.87744 0.36982 0.35094 0.0
C1278 C 0.94721 0.40223 0.33844 0.0
C1279 C 0.93849 0.40737 0.37666 0.0
C1280 C 0.91583 0.39738 0.37875 0.0
C1281 C 0.95237 0.42094 0.41734 0.0
C1282 C 0.97142 0.4133 0.33319 0.0
C1283 C 0.96473 0.4138 0.44169 0.0
C1284 C 0.97587 0.42481 0.483 0.0
C1285 C 0.97482 0.44319 0.50108 0.0
C1286 C 0.96292 0.45075 0.47601 0.0
C1287 C 0.95166 0.4396 0.4346 0.0
H1288 H 0.97514 0.41344 0.29666 0.0
H1289 H 0.97996 0.43058 0.34844 0.0
H1290 H 0.97796 0.40395 0.35084 0.0
H1291 H 0.96511 0.39915 0.42962 0.0
H1292 H 0.98491 0.41855 0.50126 0.0
H1293 H 0.57833 0.84097 0.25585 0.0
H1294 H 0.57969 0.87322 0.29579 0.0
H1295 H 0.52464 0.86342 0.21063 0.0
H1296 H 0.52306 0.83117 0.17104 0.0
H1297 H 0.58553 0.91185 0.2589 0.0
H1298 H 0.50603 0.86755 0.33872 0.0
H1299 H 0.51896 0.85333 0.31391 0.0
H1300 H 0.50454 0.86249 0.27788 0.0
C1301 C 0.56641 0.84561 0.24606 0.0
C1302 C 0.55039 0.8334 0.21091 0.0
C1303 C 0.56723 0.86402 0.26871 0.0
C1304 C 0.55209 0.87049 0.25648 0.0
C1305 C 0.53615 0.85838 0.22128 0.0
H1306 H 0.53231 0.9735 0.38425 0.0
H1307 H 0.53329 0.94867 0.32412 0.0
C1308 C 0.53522 0.83992 0.19885 0.0
C1309 C 0.55321 0.89015 0.28009 0.0
H1310 H 0.52494 0.90651 0.34776 0.0
C1311 C 0.57227 0.91073 0.27825 0.0
C1312 C 0.5358 0.88861 0.30492 0.0
C1313 C 0.51524 0.8668 0.30942 0.0
C1314 C 0.57451 0.92982 0.30125 0.0
C1315 C 0.55731 0.92815 0.32692 0.0
C1316 C 0.53802 0.90772 0.32763 0.0
C1317 C 0.55972 0.94663 0.35757 0.0
C1318 C 0.59527 0.95156 0.29822 0.0
C1319 C 0.57465 0.95411 0.39549 0.0
C1320 C 0.57406 0.96814 0.4299 0.0
C1321 C 0.55848 0.9749 0.42697 0.0
C1322 C 0.54455 0.96865 0.38738 0.0
C1323 C 0.54505 0.95443 0.35307 0.0
H1324 H 0.60384 0.9515 0.2672 0.0
H1325 H 0.59199 0.9655 0.29781 0.0
H1326 H 0.60633 0.95449 0.3285 0.0
H1327 H 0.58585 0.94799 0.39994 0.0
H1328 H 0.58507 0.97276 0.4599 0.0
H1329 H 0.69397 0.56279 0.18525 0.0
H1330 H 0.67164 0.55916 0.24977 0.0
H1331 H 0.68176 0.50744 0.29792 0.0
H1332 H 0.70507 0.51184 0.23531 0.0
H1333 H 0.63464 0.52639 0.27422 0.0
H1334 H 0.69717 0.54588 0.41297 0.0
H1335 H 0.70366 0.54964 0.35392 0.0
H1336 H 0.69263 0.52271 0.37603 0.0
C1337 C 0.69164 0.55078 0.20977 0.0
C1338 C 0.70136 0.53758 0.2047 0.0
C1339 C 0.67874 0.54863 0.24661 0.0
C1340 C 0.67525 0.53329 0.27941 0.0
C1341 C 0.68454 0.51977 0.27389 0.0
H1342 H 0.56825 0.4911 0.46251 0.0
H1343 H 0.59287 0.49182 0.40523 0.0
C1344 C 0.69758 0.52203 0.23733 0.0
C1345 C 0.66147 0.53107 0.31861 0.0
H1346 H 0.66062 0.53091 0.43516 0.0
C1347 C 0.64038 0.52745 0.3094 0.0
C1348 C 0.66898 0.53279 0.36475 0.0
C1349 C 0.69193 0.53821 0.37758 0.0
C1350 C 0.62658 0.52528 0.34466 0.0
C1351 C 0.63373 0.52601 0.39068 0.0
C1352 C 0.65493 0.52993 0.39998 0.0
C1353 C 0.61981 0.52385 0.42957 0.0
C1354 C 0.60472 0.52292 0.33215 0.0
C1355 C 0.62722 0.54075 0.46467 0.0
C1356 C 0.61333 0.54012 0.49824 0.0
C1357 C 0.59163 0.52264 0.49729 0.0
C1358 C 0.58476 0.50495 0.46407 0.0
C1359 C 0.59877 0.50546 0.43088 0.0
H1360 H 0.60437 0.529 0.29797 0.0
H1361 H 0.592 0.50518 0.331 0.0
H1362 H 0.60051 0.53216 0.35766 0.0
H1363 H 0.64345 0.555 0.46485 0.0
H1364 H 0.61922 0.55405 0.52321 0.0
H1365 H 0.16453 0.68676 0.22034 0.0
H1366 H 0.13731 0.65571 0.25999 0.0
H1367 H 0.10969 0.69532 0.30586 0.0
H1368 H 0.137 0.72658 0.26627 0.0
H1369 H 0.13188 0.65559 0.35282 0.0
H1370 H 0.05613 0.63733 0.25456 0.0
H1371 H 0.08287 0.65399 0.23358 0.0
H1372 H 0.07285 0.66578 0.2752 0.0
C1373 C 0.15272 0.6889 0.23904 0.0
C1374 C 0.153 0.70916 0.24058 0.0
C1375 C 0.13708 0.6711 0.26131 0.0
C1376 C 0.12135 0.67315 0.28529 0.0
C1377 C 0.12142 0.69327 0.28665 0.0
H1378 H 0.04882 0.60213 0.50648 0.0
H1379 H 0.07024 0.62906 0.45227 0.0
C1380 C 0.13707 0.71112 0.26425 0.0
C1381 C 0.10587 0.65471 0.31151 0.0
H1382 H 0.05178 0.61981 0.32472 0.0
C1383 C 0.11438 0.64764 0.34641 0.0
C1384 C 0.08306 0.64427 0.30271 0.0
C1385 C 0.07313 0.65055 0.2642 0.0
C1386 C 0.10066 0.63083 0.37374 0.0
C1387 C 0.07789 0.62102 0.36615 0.0
C1388 C 0.0693 0.62756 0.33045 0.0
C1389 C 0.06297 0.60466 0.39668 0.0
C1390 C 0.11055 0.62379 0.41096 0.0
C1391 C 0.05138 0.58209 0.3827 0.0
C1392 C 0.03912 0.56652 0.4137 0.0
C1393 C 0.03828 0.5734 0.45902 0.0
C1394 C 0.04921 0.59618 0.47203 0.0
C1395 C 0.06145 0.61164 0.44113 0.0
H1396 H 0.12815 0.63006 0.40701 0.0
H1397 H 0.10872 0.63035 0.44463 0.0
H1398 H 0.10198 0.60547 0.41105 0.0
H1399 H 0.05244 0.5765 0.34837 0.0
H1400 H 0.03086 0.54912 0.40253 0.0
loop_
_geom_bond_atom_site_label_1
_geom_bond_atom_site_label_2
_geom_bond_distance
_geom_bond_site_symmetry_2
_ccdc_geom_bond_type
H0 O26 0.856 . S
H1 O29 0.854 . S
H2 C37 0.930 . S
H3 C38 0.930 . S
H4 C40 0.930 . S
H5 C41 0.930 . S
H6 C43 0.931 . S
H7 C44 0.930 . S
H8 C46 0.930 . S
H9 C47 0.929 . S
H10 C49 0.930 . S
H11 C50 0.931 . S
H12 C52 0.930 . S
H13 C53 0.929 . S
H14 C55 0.931 . S
H15 C56 0.930 . S
H16 C58 0.930 . S
H17 C59 0.932 . S
H18 C61 0.930 . S
H19 C62 0.929 . S
H20 C64 0.931 . S
H21 C65 0.930 . S
H22 C67 0.929 . S
H23 C68 0.931 . S
H24 C70 0.930 . S
H25 C71 0.929 . S
O26 H0 0.856 . S
O26 C72 1.300 . S
O27 C72 1.209 . S
O28 C73 1.199 . S
O29 H1 0.854 . S
O29 C73 1.297 . S
C30 C31 1.404 . S
C30 C35 1.397 . S
C30 C36 1.492 . S
C31 C30 1.404 . S
C31 C32 1.396 . S
C31 C42 1.492 . S
C32 C31 1.396 . S
C32 C33 1.397 . S
C32 C48 1.509 . S
C33 C32 1.397 . S
C33 C34 1.412 . S
C33 C54 1.485 . S
C34 C33 1.412 . S
C34 C35 1.388 . S
C34 C60 1.490 . S
C35 C30 1.397 . S
C35 C34 1.388 . S
C35 C66 1.519 . S
C36 C30 1.492 . S
C36 C37 1.363 . S
C36 C41 1.390 . S
C37 H2 0.930 . S
C37 C36 1.363 . S
C37 C38 1.372 . S
C38 H3 0.930 . S
C38 C37 1.372 . S
C38 C39 1.383 . S
C39 C38 1.383 . S
C39 C40 1.395 . S
C40 H4 0.930 . S
C40 C39 1.395 . S
C40 C41 1.362 . S
C41 H5 0.930 . S
C41 C36 1.390 . S
C41 C40 1.362 . S
C42 C31 1.492 . S
C42 C43 1.377 . S
C42 C47 1.397 . S
C43 H6 0.931 . S
C43 C42 1.377 . S
C43 C44 1.376 . S
C44 H7 0.930 . S
C44 C43 1.376 . S
C44 C45 1.376 . S
C45 C44 1.376 . S
C45 C46 1.378 . S
C45 C72 1.486 . S
C46 H8 0.930 . S
C46 C45 1.378 . S
C46 C47 1.376 . S
C47 H9 0.929 . S
C47 C42 1.397 . S
C47 C46 1.376 . S
C48 C32 1.509 . S
C48 C49 1.391 . S
C48 C53 1.386 . S
C49 H10 0.930 . S
C49 C48 1.391 . S
C49 C50 1.375 . S
C50 H11 0.931 . S
C50 C49 1.375 . S
C50 C51 1.375 . S
C51 C50 1.375 . S
C51 C52 1.361 . S
C52 H12 0.930 . S
C52 C51 1.361 . S
C52 C53 1.399 . S
C53 H13 0.929 . S
C53 C48 1.386 . S
C53 C52 1.399 . S
C54 C33 1.485 . S
C54 C55 1.394 . S
C54 C59 1.360 . S
C55 H14 0.931 . S
C55 C54 1.394 . S
C55 C56 1.372 . S
C56 H15 0.930 . S
C56 C55 1.372 . S
C56 C57 1.397 . S
C57 C56 1.397 . S
C57 C58 1.390 . S
C57 C73 1.476 . S
C58 H16 0.930 . S
C58 C57 1.390 . S
C58 C59 1.366 . S
C59 H17 0.932 . S
C59 C54 1.360 . S
C59 C58 1.366 . S
C60 C34 1.490 . S
C60 C61 1.380 . S
C60 C65 1.386 . S
C61 H18 0.930 . S
C61 C60 1.380 . S
C61 C62 1.381 . S
C62 H19 0.929 . S
C62 C61 1.381 . S
C62 C63 1.371 . S
C63 C62 1.371 . S
C63 C64 1.380 . S
C64 H20 0.931 . S
C64 C63 1.380 . S
C64 C65 1.387 . S
C65 H21 0.930 . S
C65 C60 1.386 . S
C65 C64 1.387 . S
C66 C35 1.519 . S
C66 C67 1.377 . S
C66 C71 1.361 . S
C67 H22 0.929 . S
C67 C66 1.377 . S
C67 C68 1.386 . S
C68 H23 0.931 . S
C68 C67 1.386 . S
C68 C69 1.363 . S
C69 C68 1.363 . S
C69 C70 1.385 . S
C70 H24 0.930 . S
C70 C69 1.385 . S
C70 C71 1.396 . S
C71 H25 0.929 . S
C71 C66 1.361 . S
C71 C70 1.396 . S
C72 O26 1.300 . S
C72 O27 1.209 . S
C72 C45 1.486 . S
C73 O28 1.199 . S
C73 O29 1.297 . S
C73 C57 1.476 . S
H74 O100 0.856 . S
H75 O103 0.854 . S
H76 C111 0.930 . S
H77 C112 0.930 . S
H78 C114 0.930 . S
H79 C115 0.930 . S
H80 C117 0.931 . S
H81 C118 0.930 . S
H82 C120 0.930 . S
H83 C121 0.929 . S
H84 C123 0.930 . S
H85 C124 0.931 . S
H86 C126 0.930 . S
H87 C127 0.929 . S
H88 C129 0.931 . S
H89 C130 0.930 . S
H90 C132 0.930 . S
H91 C133 0.932 . S
H92 C135 0.930 . S
H93 C136 0.929 . S
H94 C138 0.931 . S
H95 C139 0.930 . S
H96 C141 0.929 . S
H97 C142 0.931 . S
H98 C144 0.930 . S
H99 C145 0.929 . S
O100 H74 0.856 . S
O100 C146 1.300 . S
O101 C146 1.209 . S
O102 C147 1.199 . S
O103 H75 0.854 . S
O103 C147 1.297 . S
C104 C105 1.404 . S
C104 C109 1.397 . S
C104 C110 1.492 . S
C105 C104 1.404 . S
C105 C106 1.396 . S
C105 C116 1.492 . S
C106 C105 1.396 . S
C106 C107 1.397 . S
C106 C122 1.509 . S
C107 C106 1.397 . S
C107 C108 1.412 . S
C107 C128 1.485 . S
C108 C107 1.412 . S
C108 C109 1.388 . S
C108 C134 1.490 . S
C109 C104 1.397 . S
C109 C108 1.388 . S
C109 C140 1.519 . S
C110 C104 1.492 . S
C110 C111 1.363 . S
C110 C115 1.390 . S
C111 H76 0.930 . S
C111 C110 1.363 . S
C111 C112 1.372 . S
C112 H77 0.930 . S
C112 C111 1.372 . S
C112 C113 1.383 . S
C113 C112 1.383 . S
C113 C114 1.395 . S
C114 H78 0.930 . S
C114 C113 1.395 . S
C114 C115 1.362 . S
C115 H79 0.930 . S
C115 C110 1.390 . S
C115 C114 1.362 . S
C116 C105 1.492 . S
C116 C117 1.377 . S
C116 C121 1.397 . S
C117 H80 0.931 . S
C117 C116 1.377 . S
C117 C118 1.376 . S
C118 H81 0.930 . S
C118 C117 1.376 . S
C118 C119 1.376 . S
C119 C118 1.376 . S
C119 C120 1.378 . S
C119 C146 1.486 . S
C120 H82 0.930 . S
C120 C119 1.378 . S
C120 C121 1.376 . S
C121 H83 0.929 . S
C121 C116 1.397 . S
C121 C120 1.376 . S
C122 C106 1.509 . S
C122 C123 1.391 . S
C122 C127 1.386 . S
C123 H84 0.930 . S
C123 C122 1.391 . S
C123 C124 1.375 . S
C124 H85 0.931 . S
C124 C123 1.375 . S
C124 C125 1.375 . S
C125 C124 1.375 . S
C125 C126 1.361 . S
C126 H86 0.930 . S
C126 C125 1.361 . S
C126 C127 1.399 . S
C127 H87 0.929 . S
C127 C122 1.386 . S
C127 C126 1.399 . S
C128 C107 1.485 . S
C128 C129 1.394 . S
C128 C133 1.360 . S
C129 H88 0.931 . S
C129 C128 1.394 . S
C129 C130 1.372 . S
C130 H89 0.930 . S
C130 C129 1.372 . S
C130 C131 1.397 . S
C131 C130 1.397 . S
C131 C132 1.390 . S
C131 C147 1.476 . S
C132 H90 0.930 . S
C132 C131 1.390 . S
C132 C133 1.366 . S
C133 H91 0.932 . S
C133 C128 1.360 . S
C133 C132 1.366 . S
C134 C108 1.490 . S
C134 C135 1.380 . S
C134 C139 1.386 . S
C135 H92 0.930 . S
C135 C134 1.380 . S
C135 C136 1.381 1_554 S
C136 H93 0.929 . S
C136 C135 1.381 1_556 S
C136 C137 1.371 . S
C137 C136 1.371 . S
C137 C138 1.380 . S
C138 H94 0.931 . S
C138 C137 1.380 . S
C138 C139 1.387 1_556 S
C139 H95 0.930 . S
C139 C134 1.386 . S
C139 C138 1.387 1_554 S
C140 C109 1.519 . S
C140 C141 1.377 . S
C140 C145 1.361 . S
C141 H96 0.929 . S
C141 C140 1.377 . S
C141 C142 1.386 . S
C142 H97 0.931 . S
C142 C141 1.386 . S
C142 C143 1.363 . S
C143 C142 1.363 . S
C143 C144 1.385 . S
C144 H98 0.930 . S
C144 C143 1.385 . S
C144 C145 1.396 . S
C145 H99 0.929 . S
C145 C140 1.361 . S
C145 C144 1.396 . S
C146 O100 1.300 . S
C146 O101 1.209 . S
C146 C119 1.486 . S
C147 O102 1.199 . S
C147 O103 1.297 . S
C147 C131 1.476 . S
H148 O174 0.856 . S
H149 O177 0.854 . S
H150 C185 0.930 . S
H151 C186 0.930 . S
H152 C188 0.930 . S
H153 C189 0.930 . S
H154 C191 0.931 . S
H155 C192 0.930 . S
H156 C194 0.930 . S
H157 C195 0.929 . S
H158 C197 0.930 . S
H159 C198 0.931 . S
H160 C200 0.930 . S
H161 C201 0.929 . S
H162 C203 0.931 . S
H163 C204 0.930 . S
H164 C206 0.930 . S
H165 C207 0.932 1_556 S
H166 C209 0.930 . S
H167 C210 0.929 . S
H168 C212 0.931 . S
H169 C213 0.930 . S
H170 C215 0.929 . S
H171 C216 0.931 . S
H172 C218 0.930 . S
H173 C219 0.929 . S
O174 H148 0.856 . S
O174 C220 1.300 . S
O175 C220 1.209 . S
O176 C221 1.199 . S
O177 H149 0.854 . S
O177 C221 1.297 . S
C178 C179 1.404 . S
C178 C183 1.397 1_556 S
C178 C184 1.492 . S
C179 C178 1.404 . S
C179 C180 1.396 . S
C179 C190 1.492 . S
C180 C179 1.396 . S
C180 C181 1.399 1_556 S
C180 C196 1.509 . S
C181 C180 1.399 1_554 S
C181 C182 1.411 . S
C181 C202 1.484 . S
C182 C181 1.411 . S
C182 C183 1.388 . S
C182 C208 1.490 . S
C183 C178 1.397 1_554 S
C183 C182 1.388 . S
C183 C214 1.519 . S
C184 C178 1.492 . S
C184 C185 1.363 . S
C184 C189 1.390 . S
C185 H150 0.930 . S
C185 C184 1.363 . S
C185 C186 1.372 . S
C186 H151 0.930 . S
C186 C185 1.372 . S
C186 C187 1.383 . S
C187 C186 1.383 . S
C187 C188 1.395 . S
C188 H152 0.930 . S
C188 C187 1.395 . S
C188 C189 1.362 . S
C189 H153 0.930 . S
C189 C184 1.390 . S
C189 C188 1.362 . S
C190 C179 1.492 . S
C190 C191 1.377 . S
C190 C195 1.397 . S
C191 H154 0.931 . S
C191 C190 1.377 . S
C191 C192 1.376 . S
C192 H155 0.930 . S
C192 C191 1.376 . S
C192 C193 1.376 . S
C193 C192 1.376 . S
C193 C194 1.378 . S
C193 C220 1.486 . S
C194 H156 0.930 . S
C194 C193 1.378 . S
C194 C195 1.376 . S
C195 H157 0.929 . S
C195 C190 1.397 . S
C195 C194 1.376 . S
C196 C180 1.509 . S
C196 C197 1.391 . S
C196 C201 1.386 . S
C197 H158 0.930 . S
C197 C196 1.391 . S
C197 C198 1.375 . S
C198 H159 0.931 . S
C198 C197 1.375 . S
C198 C199 1.375 . S
C199 C198 1.375 . S
C199 C200 1.361 . S
C200 H160 0.930 . S
C200 C199 1.361 . S
C200 C201 1.399 . S
C201 H161 0.929 . S
C201 C196 1.386 . S
C201 C200 1.399 . S
C202 C181 1.484 . S
C202 C203 1.394 . S
C202 C207 1.360 . S
C203 H162 0.931 . S
C203 C202 1.394 . S
C203 C204 1.372 . S
C204 H163 0.930 . S
C204 C203 1.372 . S
C204 C205 1.397 . S
C205 C204 1.397 . S
C205 C206 1.390 . S
C205 C221 1.476 . S
C206 H164 0.930 . S
C206 C205 1.390 . S
C206 C207 1.366 . S
C207 H165 0.932 1_554 S
C207 C202 1.360 . S
C207 C206 1.366 . S
C208 C182 1.490 . S
C208 C209 1.380 . S
C208 C213 1.386 . S
C209 H166 0.930 . S
C209 C208 1.380 . S
C209 C210 1.381 . S
C210 H167 0.929 . S
C210 C209 1.381 . S
C210 C211 1.371 . S
C211 C210 1.371 . S
C211 C212 1.380 . S
C212 H168 0.931 . S
C212 C211 1.380 . S
C212 C213 1.387 . S
C213 H169 0.930 . S
C213 C208 1.386 . S
C213 C212 1.387 . S
C214 C183 1.519 . S
C214 C215 1.377 . S
C214 C219 1.361 . S
C215 H170 0.929 . S
C215 C214 1.377 . S
C215 C216 1.386 . S
C216 H171 0.931 . S
C216 C215 1.386 . S
C216 C217 1.363 . S
C217 C216 1.363 . S
C217 C218 1.385 . S
C218 H172 0.930 . S
C218 C217 1.385 . S
C218 C219 1.396 . S
C219 H173 0.929 . S
C219 C214 1.361 . S
C219 C218 1.396 . S
C220 O174 1.300 . S
C220 O175 1.209 . S
C220 C193 1.486 . S
C221 O176 1.199 . S
C221 O177 1.297 . S
C221 C205 1.476 . S
H222 O248 0.856 . S
H223 O251 0.854 . S
H224 C259 0.930 . S
H225 C260 0.930 . S
H226 C262 0.930 . S
H227 C263 0.930 . S
H228 C265 0.931 . S
H229 C266 0.930 . S
H230 C268 0.930 . S
H231 C269 0.929 . S
H232 C271 0.930 . S
H233 C272 0.931 . S
H234 C274 0.930 . S
H235 C275 0.929 . S
H236 C277 0.931 . S
H237 C278 0.930 . S
H238 C280 0.930 . S
H239 C281 0.932 . S
H240 C283 0.930 . S
H241 C284 0.929 . S
H242 C286 0.931 . S
H243 C287 0.930 1_554 S
H244 C289 0.929 . S
H245 C290 0.931 . S
H246 C292 0.930 . S
H247 C293 0.929 . S
O248 H222 0.856 . S
O248 C294 1.300 . S
O249 C294 1.209 . S
O250 C295 1.199 . S
O251 H223 0.854 . S
O251 C295 1.297 . S
C252 C253 1.404 . S
C252 C257 1.397 . S
C252 C258 1.492 . S
C253 C252 1.404 . S
C253 C254 1.396 . S
C253 C264 1.492 . S
C254 C253 1.396 . S
C254 C255 1.397 . S
C254 C270 1.509 . S
C255 C254 1.397 . S
C255 C256 1.412 . S
C255 C276 1.485 . S
C256 C255 1.412 . S
C256 C257 1.388 . S
C256 C282 1.490 . S
C257 C252 1.397 . S
C257 C256 1.388 . S
C257 C288 1.519 . S
C258 C252 1.492 . S
C258 C259 1.363 . S
C258 C263 1.390 . S
C259 H224 0.930 . S
C259 C258 1.363 . S
C259 C260 1.372 . S
C260 H225 0.930 . S
C260 C259 1.372 . S
C260 C261 1.383 . S
C261 C260 1.383 . S
C261 C262 1.395 . S
C262 H226 0.930 . S
C262 C261 1.395 . S
C262 C263 1.362 . S
C263 H227 0.930 . S
C263 C258 1.390 . S
C263 C262 1.362 . S
C264 C253 1.492 . S
C264 C265 1.377 . S
C264 C269 1.397 . S
C265 H228 0.931 . S
C265 C264 1.377 . S
C265 C266 1.376 . S
C266 H229 0.930 . S
C266 C265 1.376 . S
C266 C267 1.376 . S
C267 C266 1.376 . S
C267 C268 1.378 . S
C267 C294 1.486 . S
C268 H230 0.930 . S
C268 C267 1.378 . S
C268 C269 1.376 . S
C269 H231 0.929 . S
C269 C264 1.397 . S
C269 C268 1.376 . S
C270 C254 1.509 . S
C270 C271 1.391 . S
C270 C275 1.386 . S
C271 H232 0.930 . S
C271 C270 1.391 . S
C271 C272 1.375 . S
C272 H233 0.931 . S
C272 C271 1.375 . S
C272 C273 1.375 . S
C273 C272 1.375 . S
C273 C274 1.361 . S
C274 H234 0.930 . S
C274 C273 1.361 . S
C274 C275 1.399 . S
C275 H235 0.929 . S
C275 C270 1.386 . S
C275 C274 1.399 . S
C276 C255 1.485 . S
C276 C277 1.394 . S
C276 C281 1.360 . S
C277 H236 0.931 . S
C277 C276 1.394 . S
C277 C278 1.372 . S
C278 H237 0.930 . S
C278 C277 1.372 . S
C278 C279 1.397 . S
C279 C278 1.397 . S
C279 C280 1.390 . S
C279 C295 1.476 . S
C280 H238 0.930 . S
C280 C279 1.390 . S
C280 C281 1.366 . S
C281 H239 0.932 . S
C281 C276 1.360 . S
C281 C280 1.366 . S
C282 C256 1.490 . S
C282 C283 1.380 1_554 S
C282 C287 1.386 1_554 S
C283 H240 0.930 . S
C283 C282 1.380 1_556 S
C283 C284 1.381 . S
C284 H241 0.929 . S
C284 C283 1.381 . S
C284 C285 1.371 . S
C285 C284 1.371 . S
C285 C286 1.380 . S
C286 H242 0.931 . S
C286 C285 1.380 . S
C286 C287 1.387 . S
C287 H243 0.930 1_556 S
C287 C282 1.386 1_556 S
C287 C286 1.387 . S
C288 C257 1.519 . S
C288 C289 1.377 . S
C288 C293 1.361 . S
C289 H244 0.929 . S
C289 C288 1.377 . S
C289 C290 1.386 1_554 S
C290 H245 0.931 . S
C290 C289 1.386 1_556 S
C290 C291 1.363 . S
C291 C290 1.363 . S
C291 C292 1.385 . S
C292 H246 0.930 . S
C292 C291 1.385 . S
C292 C293 1.396 1_556 S
C293 H247 0.929 . S
C293 C288 1.361 . S
C293 C292 1.396 1_554 S
C294 O248 1.300 . S
C294 O249 1.209 . S
C294 C267 1.486 . S
C295 O250 1.199 . S
C295 O251 1.297 . S
C295 C279 1.476 . S
H296 O322 0.856 . S
H297 O325 0.854 . S
H298 C333 0.930 . S
H299 C334 0.930 . S
H300 C336 0.930 . S
H301 C337 0.930 . S
H302 C339 0.931 . S
H303 C340 0.930 . S
H304 C342 0.930 . S
H305 C343 0.929 . S
H306 C345 0.930 . S
H307 C346 0.931 . S
H308 C348 0.930 . S
H309 C349 0.929 . S
H310 C351 0.931 . S
H311 C352 0.930 . S
H312 C354 0.930 . S
H313 C355 0.932 . S
H314 C357 0.930 . S
H315 C358 0.929 . S
H316 C360 0.931 . S
H317 C361 0.930 . S
H318 C363 0.929 . S
H319 C364 0.931 . S
H320 C366 0.942 . S
H321 C367 0.929 . S
O322 H296 0.856 . S
O322 C368 1.300 . S
O323 C368 1.209 . S
O324 C369 1.199 . S
O325 H297 0.854 . S
O325 C369 1.297 . S
C326 C327 1.404 . S
C326 C331 1.397 . S
C326 C332 1.492 . S
C327 C326 1.404 . S
C327 C328 1.396 . S
C327 C338 1.492 . S
C328 C327 1.396 . S
C328 C329 1.397 . S
C328 C344 1.509 . S
C329 C328 1.397 . S
C329 C330 1.412 . S
C329 C350 1.485 . S
C330 C329 1.412 . S
C330 C331 1.388 . S
C330 C356 1.490 . S
C331 C326 1.397 . S
C331 C330 1.388 . S
C331 C362 1.519 . S
C332 C326 1.492 . S
C332 C333 1.363 . S
C332 C337 1.390 . S
C333 H298 0.930 . S
C333 C332 1.363 . S
C333 C334 1.372 . S
C334 H299 0.930 . S
C334 C333 1.372 . S
C334 C335 1.383 . S
C335 C334 1.383 . S
C335 C336 1.395 . S
C336 H300 0.930 . S
C336 C335 1.395 . S
C336 C337 1.362 . S
C337 H301 0.930 . S
C337 C332 1.390 . S
C337 C336 1.362 . S
C338 C327 1.492 . S
C338 C339 1.377 . S
C338 C343 1.397 . S
C339 H302 0.931 . S
C339 C338 1.377 . S
C339 C340 1.376 . S
C340 H303 0.930 . S
C340 C339 1.376 . S
C340 C341 1.376 . S
C341 C340 1.376 . S
C341 C342 1.378 . S
C341 C368 1.486 . S
C342 H304 0.930 . S
C342 C341 1.378 . S
C342 C343 1.376 . S
C343 H305 0.929 . S
C343 C338 1.397 . S
C343 C342 1.376 . S
C344 C328 1.509 . S
C344 C345 1.391 . S
C344 C349 1.386 . S
C345 H306 0.930 . S
C345 C344 1.391 . S
C345 C346 1.375 . S
C346 H307 0.931 . S
C346 C345 1.375 . S
C346 C347 1.375 . S
C347 C346 1.375 . S
C347 C348 1.361 . S
C348 H308 0.930 . S
C348 C347 1.361 . S
C348 C349 1.399 . S
C349 H309 0.929 . S
C349 C344 1.386 . S
C349 C348 1.399 . S
C350 C329 1.485 . S
C350 C351 1.394 . S
C350 C355 1.360 . S
C351 H310 0.931 . S
C351 C350 1.394 . S
C351 C352 1.372 . S
C352 H311 0.930 . S
C352 C351 1.372 . S
C352 C353 1.397 . S
C353 C352 1.397 . S
C353 C354 1.390 . S
C353 C369 1.476 . S
C354 H312 0.930 . S
C354 C353 1.390 . S
C354 C355 1.366 . S
C355 H313 0.932 . S
C355 C350 1.360 . S
C355 C354 1.366 . S
C356 C330 1.490 . S
C356 C357 1.380 . S
C356 C361 1.386 . S
C357 H314 0.930 . S
C357 C356 1.380 . S
C357 C358 1.381 1_554 S
C358 H315 0.929 . S
C358 C357 1.381 1_556 S
C358 C359 1.371 . S
C359 C358 1.371 . S
C359 C360 1.380 . S
C360 H316 0.931 . S
C360 C359 1.380 . S
C360 C361 1.387 1_556 S
C361 H317 0.930 . S
C361 C356 1.386 . S
C361 C360 1.387 1_554 S
C362 C331 1.519 . S
C362 C363 1.377 . S
C362 C367 1.361 . S
C363 H318 0.929 . S
C363 C362 1.377 . S
C363 C364 1.386 . S
C364 H319 0.931 . S
C364 C363 1.386 . S
C364 C365 1.363 1_554 S
C365 C364 1.363 1_556 S
C365 C366 1.391 . S
C366 H320 0.942 . S
C366 C365 1.391 . S
C366 C367 1.379 1_556 S
C367 H321 0.929 . S
C367 C362 1.361 . S
C367 C366 1.379 1_554 S
C368 O322 1.300 . S
C368 O323 1.209 . S
C368 C341 1.486 . S
C369 O324 1.199 . S
C369 O325 1.297 . S
C369 C353 1.476 . S
H370 O396 0.856 . S
H371 O399 0.854 . S
H372 C407 0.930 . S
H373 C408 0.930 . S
H374 C410 0.930 . S
H375 C411 0.930 . S
H376 C413 0.931 . S
H377 C414 0.930 . S
H378 C416 0.926 1_556 S
H379 C417 0.929 . S
H380 C419 0.930 . S
H381 C420 0.931 . S
H382 C422 0.930 . S
H383 C423 0.929 . S
H384 C425 0.931 . S
H385 C426 0.930 . S
H386 C428 0.930 . S
H387 C429 0.932 . S
H388 C431 0.930 . S
H389 C432 0.929 . S
H390 C434 0.931 . S
H391 C435 0.930 . S
H392 C437 0.929 . S
H393 C438 0.931 . S
H394 C440 0.930 . S
H395 C441 0.929 . S
O396 H370 0.856 . S
O396 C442 1.300 . S
O397 C442 1.209 . S
O398 C443 1.199 . S
O399 H371 0.854 . S
O399 C443 1.297 . S
C400 C401 1.404 . S
C400 C405 1.397 . S
C400 C406 1.492 . S
C401 C400 1.404 . S
C401 C402 1.396 . S
C401 C412 1.492 . S
C402 C401 1.396 . S
C402 C403 1.397 . S
C402 C418 1.509 . S
C403 C402 1.397 . S
C403 C404 1.412 . S
C403 C424 1.485 . S
C404 C403 1.412 . S
C404 C405 1.388 . S
C404 C430 1.490 . S
C405 C400 1.397 . S
C405 C404 1.388 . S
C405 C436 1.519 . S
C406 C400 1.492 . S
C406 C407 1.363 . S
C406 C411 1.390 . S
C407 H372 0.930 . S
C407 C406 1.363 . S
C407 C408 1.372 . S
C408 H373 0.930 . S
C408 C407 1.372 . S
C408 C409 1.383 . S
C409 C408 1.383 . S
C409 C410 1.395 . S
C410 H374 0.930 . S
C410 C409 1.395 . S
C410 C411 1.362 . S
C411 H375 0.930 . S
C411 C406 1.390 . S
C411 C410 1.362 . S
C412 C401 1.492 . S
C412 C413 1.377 . S
C412 C417 1.397 . S
C413 H376 0.931 . S
C413 C412 1.377 . S
C413 C414 1.376 1_554 S
C414 H377 0.930 . S
C414 C413 1.376 1_556 S
C414 C415 1.376 . S
C415 C414 1.376 . S
C415 C416 1.371 1_556 S
C415 C442 1.486 . S
C416 H378 0.926 1_554 S
C416 C415 1.371 1_554 S
C416 C417 1.386 . S
C417 H379 0.929 . S
C417 C412 1.397 . S
C417 C416 1.386 . S
C418 C402 1.509 . S
C418 C419 1.391 . S
C418 C423 1.386 . S
C419 H380 0.930 . S
C419 C418 1.391 . S
C419 C420 1.375 . S
C420 H381 0.931 . S
C420 C419 1.375 . S
C420 C421 1.375 . S
C421 C420 1.375 . S
C421 C422 1.361 . S
C422 H382 0.930 . S
C422 C421 1.361 . S
C422 C423 1.399 . S
C423 H383 0.929 . S
C423 C418 1.386 . S
C423 C422 1.399 . S
C424 C403 1.485 . S
C424 C425 1.394 . S
C424 C429 1.360 . S
C425 H384 0.931 . S
C425 C424 1.394 . S
C425 C426 1.372 . S
C426 H385 0.930 . S
C426 C425 1.372 . S
C426 C427 1.397 . S
C427 C426 1.397 . S
C427 C428 1.390 . S
C427 C443 1.476 . S
C428 H386 0.930 . S
C428 C427 1.390 . S
C428 C429 1.366 . S
C429 H387 0.932 . S
C429 C424 1.360 . S
C429 C428 1.366 . S
C430 C404 1.490 . S
C430 C431 1.380 . S
C430 C435 1.386 . S
C431 H388 0.930 . S
C431 C430 1.380 . S
C431 C432 1.381 . S
C432 H389 0.929 . S
C432 C431 1.381 . S
C432 C433 1.371 . S
C433 C432 1.371 . S
C433 C434 1.380 . S
C434 H390 0.931 . S
C434 C433 1.380 . S
C434 C435 1.387 . S
C435 H391 0.930 . S
C435 C430 1.386 . S
C435 C434 1.387 . S
C436 C405 1.519 . S
C436 C437 1.377 . S
C436 C441 1.361 . S
C437 H392 0.929 . S
C437 C436 1.377 . S
C437 C438 1.386 . S
C438 H393 0.931 . S
C438 C437 1.386 . S
C438 C439 1.363 . S
C439 C438 1.363 . S
C439 C440 1.385 . S
C440 H394 0.930 . S
C440 C439 1.385 . S
C440 C441 1.396 . S
C441 H395 0.929 . S
C441 C436 1.361 . S
C441 C440 1.396 . S
C442 O396 1.300 . S
C442 O397 1.209 . S
C442 C415 1.486 . S
C443 O398 1.199 . S
C443 O399 1.297 . S
C443 C427 1.476 . S
C444 O456 1.241 . S
C444 O457 1.280 . S
C445 O458 1.277 . S
C445 O459 1.245 . S
C446 O470 1.247 . S
C446 O472 1.289 . S
Mg447 O448 1.926 . S
Mg447 O457 1.984 1_455 S
Mg447 O459 1.988 . S
Mg447 O460 2.061 1_455 S
O448 Mg447 1.926 . S
O448 Mg449 1.986 . S
O448 Mg450 1.917 . S
Mg449 O448 1.986 . S
Mg449 O456 2.042 1_455 S
Mg449 O458 2.041 . S
Mg449 O464 2.038 1_455 S
Mg449 O472 2.238 . S
Mg450 O448 1.917 . S
Mg450 O451 1.917 . S
Mg450 O461 2.106 1_455 S
Mg450 O463 2.079 1_455 S
Mg450 O472 2.106 . S
Mg450 O473 2.079 . S
O451 Mg450 1.917 . S
O451 Mg452 1.926 . S
O451 Mg453 1.986 . S
Mg452 O451 1.926 . S
Mg452 O466 1.984 . S
Mg452 O469 1.988 1_455 S
Mg452 O470 2.061 . S
Mg453 O451 1.986 . S
Mg453 O461 2.238 1_455 S
Mg453 O465 2.042 . S
Mg453 O467 2.041 1_455 S
Mg453 O474 2.038 . S
C454 O460 1.247 . S
C454 O461 1.289 . S
C455 O473 1.245 . S
C455 O474 1.274 . S
O456 C444 1.241 . S
O456 Mg449 2.042 1_655 S
O457 C444 1.280 . S
O457 Mg447 1.984 1_655 S
O458 C445 1.277 . S
O458 Mg449 2.041 . S
O459 C445 1.245 . S
O459 Mg447 1.988 . S
O460 Mg447 2.061 1_655 S
O460 C454 1.247 . S
O461 Mg450 2.106 1_655 S
O461 Mg453 2.238 1_655 S
O461 C454 1.289 . S
C462 O463 1.245 . S
C462 O464 1.274 . S
O463 Mg450 2.079 1_655 S
O463 C462 1.245 . S
O464 Mg449 2.038 1_655 S
O464 C462 1.274 . S
O465 Mg453 2.042 . S
O465 C468 1.241 . S
O466 Mg452 1.984 . S
O466 C468 1.280 . S
O467 Mg453 2.041 1_655 S
O467 C471 1.277 . S
C468 O465 1.241 . S
C468 O466 1.280 . S
O469 Mg452 1.988 1_655 S
O469 C471 1.245 . S
O470 C446 1.247 . S
O470 Mg452 2.061 . S
C471 O467 1.277 . S
C471 O469 1.245 . S
O472 C446 1.289 . S
O472 Mg449 2.238 . S
O472 Mg450 2.106 . S
O473 Mg450 2.079 . S
O473 C455 1.245 . S
O474 Mg453 2.038 . S
O474 C455 1.274 . S
C475 O487 1.241 . S
C475 O488 1.280 . S
C476 O489 1.277 . S
C476 O490 1.245 . S
C477 O501 1.247 . S
C477 O503 1.289 . S
Mg478 O479 1.926 . S
Mg478 O488 1.984 . S
Mg478 O490 1.988 1_545 S
Mg478 O491 2.061 . S
O479 Mg478 1.926 . S
O479 Mg480 1.986 . S
O479 Mg481 1.917 . S
Mg480 O479 1.986 . S
Mg480 O487 2.042 . S
Mg480 O489 2.041 1_545 S
Mg480 O495 2.038 . S
Mg480 O503 2.238 1_545 S
Mg481 O479 1.917 . S
Mg481 O482 1.917 1_545 S
Mg481 O492 2.106 . S
Mg481 O494 2.079 . S
Mg481 O503 2.106 1_545 S
Mg481 O504 2.079 1_545 S
O482 Mg481 1.917 1_565 S
O482 Mg483 1.926 . S
O482 Mg484 1.986 1_565 S
Mg483 O482 1.926 . S
Mg483 O497 1.984 . S
Mg483 O500 1.988 1_565 S
Mg483 O501 2.061 . S
Mg484 O482 1.986 1_545 S
Mg484 O492 2.238 . S
Mg484 O496 2.042 1_545 S
Mg484 O498 2.041 . S
Mg484 O505 2.038 1_545 S
C485 O491 1.247 . S
C485 O492 1.289 . S
C486 O504 1.245 . S
C486 O505 1.274 . S
O487 C475 1.241 . S
O487 Mg480 2.042 . S
O488 C475 1.280 . S
O488 Mg478 1.984 . S
O489 C476 1.277 . S
O489 Mg480 2.041 1_565 S
O490 C476 1.245 . S
O490 Mg478 1.988 1_565 S
O491 Mg478 2.061 . S
O491 C485 1.247 . S
O492 Mg481 2.106 . S
O492 Mg484 2.238 . S
O492 C485 1.289 . S
C493 O494 1.245 . S
C493 O495 1.274 . S
O494 Mg481 2.079 . S
O494 C493 1.245 . S
O495 Mg480 2.038 . S
O495 C493 1.274 . S
O496 Mg484 2.042 1_565 S
O496 C499 1.241 . S
O497 Mg483 1.984 . S
O497 C499 1.280 . S
O498 Mg484 2.041 . S
O498 C502 1.277 . S
C499 O496 1.241 . S
C499 O497 1.280 . S
O500 Mg483 1.988 1_545 S
O500 C502 1.245 . S
O501 C477 1.247 . S
O501 Mg483 2.061 . S
C502 O498 1.277 . S
C502 O500 1.245 . S
O503 C477 1.289 . S
O503 Mg480 2.238 1_565 S
O503 Mg481 2.106 1_565 S
O504 Mg481 2.079 1_565 S
O504 C486 1.245 . S
O505 Mg484 2.038 1_565 S
O505 C486 1.274 . S
C506 O518 1.241 . S
C506 O519 1.280 . S
C507 O520 1.277 . S
C507 O521 1.245 . S
C508 O532 1.247 . S
C508 O534 1.289 . S
Mg509 O510 1.926 . S
Mg509 O519 1.984 . S
Mg509 O521 1.988 . S
Mg509 O522 2.061 . S
O510 Mg509 1.926 . S
O510 Mg511 1.986 . S
O510 Mg512 1.917 . S
Mg511 O510 1.986 . S
Mg511 O518 2.042 . S
Mg511 O520 2.041 . S
Mg511 O526 2.038 . S
Mg511 O534 2.238 . S
Mg512 O510 1.917 . S
Mg512 O513 1.917 . S
Mg512 O523 2.106 . S
Mg512 O525 2.079 . S
Mg512 O534 2.106 . S
Mg512 O535 2.079 . S
O513 Mg512 1.917 . S
O513 Mg514 1.926 . S
O513 Mg515 1.986 . S
Mg514 O513 1.926 . S
Mg514 O528 1.984 . S
Mg514 O531 1.988 . S
Mg514 O532 2.061 . S
Mg515 O513 1.986 . S
Mg515 O523 2.238 . S
Mg515 O527 2.042 . S
Mg515 O529 2.041 . S
Mg515 O536 2.038 . S
C516 O522 1.247 . S
C516 O523 1.289 . S
C517 O535 1.245 . S
C517 O536 1.274 . S
O518 C506 1.241 . S
O518 Mg511 2.042 . S
O519 C506 1.280 . S
O519 Mg509 1.984 . S
O520 C507 1.277 . S
O520 Mg511 2.041 . S
O521 C507 1.245 . S
O521 Mg509 1.988 . S
O522 Mg509 2.061 . S
O522 C516 1.247 . S
O523 Mg512 2.106 . S
O523 Mg515 2.238 . S
O523 C516 1.289 . S
C524 O525 1.245 . S
C524 O526 1.274 . S
O525 Mg512 2.079 . S
O525 C524 1.245 . S
O526 Mg511 2.038 . S
O526 C524 1.274 . S
O527 Mg515 2.042 . S
O527 C530 1.241 . S
O528 Mg514 1.984 . S
O528 C530 1.280 . S
O529 Mg515 2.041 . S
O529 C533 1.277 . S
C530 O527 1.241 . S
C530 O528 1.280 . S
O531 Mg514 1.988 . S
O531 C533 1.245 . S
O532 C508 1.247 . S
O532 Mg514 2.061 . S
C533 O529 1.277 . S
C533 O531 1.245 . S
O534 C508 1.289 . S
O534 Mg511 2.238 . S
O534 Mg512 2.106 . S
O535 Mg512 2.079 . S
O535 C517 1.245 . S
O536 Mg515 2.038 . S
O536 C517 1.274 . S
H537 C545 0.929 . S
H538 C547 0.930 . S
H539 C549 0.930 . S
H540 C552 0.929 . S
H541 C555 0.930 . S
H542 C557 0.960 . S
H543 C557 0.960 . S
H544 C557 0.960 . S
C545 H537 0.929 . S
C545 C546 1.377 . S
C545 C547 1.384 . S
C546 C545 1.377 . S
C546 C552 1.390 . S
C547 H538 0.930 . S
C547 C545 1.384 . S
C547 C548 1.372 . S
C548 C547 1.372 . S
C548 C549 1.400 . S
C548 C553 1.490 . S
C549 H539 0.930 . S
C549 C548 1.400 . S
C549 C552 1.386 . S
H550 C566 0.930 . S
H551 C567 0.931 . S
C552 H540 0.929 . S
C552 C546 1.390 . S
C552 C549 1.386 . S
C553 C548 1.490 . S
C553 C555 1.395 . S
C553 C556 1.403 . S
H554 C560 0.930 . S
C555 H541 0.930 . S
C555 C553 1.395 . S
C555 C558 1.403 . S
C556 C553 1.403 . S
C556 C557 1.524 . S
C556 C560 1.400 . S
C557 H542 0.960 . S
C557 H543 0.960 . S
C557 H544 0.960 . S
C557 C556 1.524 . S
C558 C555 1.403 . S
C558 C559 1.392 . S
C558 C562 1.495 . S
C559 C558 1.392 . S
C559 C560 1.385 . S
C559 C561 1.478 . S
C560 H554 0.930 . S
C560 C556 1.400 . S
C560 C559 1.385 . S
C561 C559 1.478 . S
C561 C563 1.381 . S
C561 C567 1.383 . S
C562 C558 1.495 . S
C562 H568 0.959 . S
C562 H569 0.961 . S
C562 H570 0.960 . S
C563 C561 1.381 . S
C563 C564 1.394 . S
C563 H571 0.930 . S
C564 C563 1.394 . S
C564 C565 1.383 . S
C564 H572 0.929 . S
C565 C564 1.383 . S
C565 C566 1.377 . S
C566 H550 0.930 . S
C566 C565 1.377 . S
C566 C567 1.379 . S
C567 H551 0.931 . S
C567 C561 1.383 . S
C567 C566 1.379 . S
H568 C562 0.959 . S
H569 C562 0.961 . S
H570 C562 0.960 . S
H571 C563 0.930 . S
H572 C564 0.929 . S
H573 C581 0.929 . S
H574 C583 0.930 . S
H575 C585 0.930 . S
H576 C588 0.929 . S
H577 C591 0.930 . S
H578 C593 0.960 . S
H579 C593 0.960 . S
H580 C593 0.960 . S
C581 H573 0.929 . S
C581 C582 1.377 . S
C581 C583 1.384 . S
C582 C581 1.377 . S
C582 C588 1.390 . S
C583 H574 0.930 . S
C583 C581 1.384 . S
C583 C584 1.372 . S
C584 C583 1.372 . S
C584 C585 1.400 . S
C584 C589 1.490 . S
C585 H575 0.930 . S
C585 C584 1.400 . S
C585 C588 1.386 . S
H586 C602 0.930 . S
H587 C603 0.931 . S
C588 H576 0.929 . S
C588 C582 1.390 . S
C588 C585 1.386 . S
C589 C584 1.490 . S
C589 C591 1.395 . S
C589 C592 1.403 . S
H590 C596 0.930 . S
C591 H577 0.930 . S
C591 C589 1.395 . S
C591 C594 1.403 . S
C592 C589 1.403 . S
C592 C593 1.524 . S
C592 C596 1.400 . S
C593 H578 0.960 . S
C593 H579 0.960 . S
C593 H580 0.960 . S
C593 C592 1.524 . S
C594 C591 1.403 . S
C594 C595 1.392 . S
C594 C598 1.495 . S
C595 C594 1.392 . S
C595 C596 1.385 . S
C595 C597 1.478 . S
C596 H590 0.930 . S
C596 C592 1.400 . S
C596 C595 1.385 . S
C597 C595 1.478 . S
C597 C599 1.381 . S
C597 C603 1.383 . S
C598 C594 1.495 . S
C598 H604 0.959 . S
C598 H605 0.961 . S
C598 H606 0.960 . S
C599 C597 1.381 . S
C599 C600 1.394 . S
C599 H607 0.930 . S
C600 C599 1.394 . S
C600 C601 1.383 . S
C600 H608 0.929 . S
C601 C600 1.383 . S
C601 C602 1.377 . S
C602 H586 0.930 . S
C602 C601 1.377 . S
C602 C603 1.379 . S
C603 H587 0.931 . S
C603 C597 1.383 . S
C603 C602 1.379 . S
H604 C598 0.959 . S
H605 C598 0.961 . S
H606 C598 0.960 . S
H607 C599 0.930 . S
H608 C600 0.929 . S
H609 C617 0.929 . S
H610 C619 0.930 . S
H611 C621 0.930 . S
H612 C624 0.929 . S
H613 C627 0.930 . S
H614 C629 0.960 . S
H615 C629 0.960 . S
H616 C629 0.960 . S
C617 H609 0.929 . S
C617 C618 1.377 . S
C617 C619 1.384 . S
C618 C617 1.377 . S
C618 C624 1.390 . S
C619 H610 0.930 . S
C619 C617 1.384 . S
C619 C620 1.372 . S
C620 C619 1.372 . S
C620 C621 1.400 . S
C620 C625 1.490 . S
C621 H611 0.930 . S
C621 C620 1.400 . S
C621 C624 1.386 . S
H622 C638 0.930 . S
H623 C639 0.931 . S
C624 H612 0.929 . S
C624 C618 1.390 . S
C624 C621 1.386 . S
C625 C620 1.490 . S
C625 C627 1.395 . S
C625 C628 1.403 . S
H626 C632 0.930 . S
C627 H613 0.930 . S
C627 C625 1.395 . S
C627 C630 1.403 . S
C628 C625 1.403 . S
C628 C629 1.524 . S
C628 C632 1.400 . S
C629 H614 0.960 . S
C629 H615 0.960 . S
C629 H616 0.960 . S
C629 C628 1.524 . S
C630 C627 1.403 . S
C630 C631 1.392 . S
C630 C634 1.495 . S
C631 C630 1.392 . S
C631 C632 1.385 . S
C631 C633 1.478 . S
C632 H626 0.930 . S
C632 C628 1.400 . S
C632 C631 1.385 . S
C633 C631 1.478 . S
C633 C635 1.381 . S
C633 C639 1.383 . S
C634 C630 1.495 . S
C634 H640 0.959 . S
C634 H641 0.961 . S
C634 H642 0.960 . S
C635 C633 1.381 . S
C635 C636 1.394 . S
C635 H643 0.930 . S
C636 C635 1.394 . S
C636 C637 1.383 . S
C636 H644 0.929 . S
C637 C636 1.383 . S
C637 C638 1.377 . S
C638 H622 0.930 . S
C638 C637 1.377 . S
C638 C639 1.379 . S
C639 H623 0.931 . S
C639 C633 1.383 . S
C639 C638 1.379 . S
H640 C634 0.959 . S
H641 C634 0.961 . S
H642 C634 0.960 . S
H643 C635 0.930 . S
H644 C636 0.929 . S
H645 C653 0.929 . S
H646 C655 0.930 . S
H647 C657 0.930 . S
H648 C660 0.929 . S
H649 C663 0.930 . S
H650 C665 0.960 . S
H651 C665 0.960 . S
H652 C665 0.960 . S
C653 H645 0.929 . S
C653 C654 1.377 . S
C653 C655 1.384 . S
C654 C653 1.377 . S
C654 C660 1.390 . S
C655 H646 0.930 . S
C655 C653 1.384 . S
C655 C656 1.372 . S
C656 C655 1.372 . S
C656 C657 1.400 . S
C656 C661 1.490 . S
C657 H647 0.930 . S
C657 C656 1.400 . S
C657 C660 1.386 . S
H658 C674 0.930 . S
H659 C675 0.931 . S
C660 H648 0.929 . S
C660 C654 1.390 . S
C660 C657 1.386 . S
C661 C656 1.490 . S
C661 C663 1.395 . S
C661 C664 1.403 . S
H662 C668 0.930 . S
C663 H649 0.930 . S
C663 C661 1.395 . S
C663 C666 1.403 . S
C664 C661 1.403 . S
C664 C665 1.524 . S
C664 C668 1.400 . S
C665 H650 0.960 . S
C665 H651 0.960 . S
C665 H652 0.960 . S
C665 C664 1.524 . S
C666 C663 1.403 . S
C666 C667 1.392 . S
C666 C670 1.495 . S
C667 C666 1.392 . S
C667 C668 1.385 . S
C667 C669 1.478 . S
C668 H662 0.930 . S
C668 C664 1.400 . S
C668 C667 1.385 . S
C669 C667 1.478 . S
C669 C671 1.381 . S
C669 C675 1.383 . S
C670 C666 1.495 . S
C670 H676 0.959 . S
C670 H677 0.961 . S
C670 H678 0.960 . S
C671 C669 1.381 . S
C671 C672 1.394 . S
C671 H679 0.930 . S
C672 C671 1.394 . S
C672 C673 1.383 . S
C672 H680 0.929 . S
C673 C672 1.383 . S
C673 C674 1.377 . S
C674 H658 0.930 . S
C674 C673 1.377 . S
C674 C675 1.379 . S
C675 H659 0.931 . S
C675 C669 1.383 . S
C675 C674 1.379 . S
H676 C670 0.959 . S
H677 C670 0.961 . S
H678 C670 0.960 . S
H679 C671 0.930 . S
H680 C672 0.929 . S
H681 C689 0.929 . S
H682 C691 0.930 . S
H683 C693 0.930 . S
H684 C696 0.929 . S
H685 C699 0.930 . S
H686 C701 0.960 . S
H687 C701 0.960 . S
H688 C701 0.960 . S
C689 H681 0.929 . S
C689 C690 1.377 . S
C689 C691 1.384 . S
C690 C689 1.377 . S
C690 C696 1.390 . S
C691 H682 0.930 . S
C691 C689 1.384 . S
C691 C692 1.372 . S
C692 C691 1.372 . S
C692 C693 1.400 . S
C692 C697 1.490 . S
C693 H683 0.930 . S
C693 C692 1.400 . S
C693 C696 1.386 . S
H694 C710 0.930 . S
H695 C711 0.931 . S
C696 H684 0.929 . S
C696 C690 1.390 . S
C696 C693 1.386 . S
C697 C692 1.490 . S
C697 C699 1.395 . S
C697 C700 1.403 . S
H698 C704 0.930 . S
C699 H685 0.930 . S
C699 C697 1.395 . S
C699 C702 1.403 . S
C700 C697 1.403 . S
C700 C701 1.524 . S
C700 C704 1.400 . S
C701 H686 0.960 . S
C701 H687 0.960 . S
C701 H688 0.960 . S
C701 C700 1.524 . S
C702 C699 1.403 . S
C702 C703 1.392 . S
C702 C706 1.495 . S
C703 C702 1.392 . S
C703 C704 1.385 . S
C703 C705 1.478 . S
C704 H698 0.930 . S
C704 C700 1.400 . S
C704 C703 1.385 . S
C705 C703 1.478 . S
C705 C707 1.381 . S
C705 C711 1.383 . S
C706 C702 1.495 . S
C706 H712 0.959 . S
C706 H713 0.961 . S
C706 H714 0.960 . S
C707 C705 1.381 . S
C707 C708 1.394 . S
C707 H715 0.930 . S
C708 C707 1.394 . S
C708 C709 1.383 . S
C708 H716 0.929 . S
C709 C708 1.383 . S
C709 C710 1.377 . S
C710 H694 0.930 . S
C710 C709 1.377 . S
C710 C711 1.379 . S
C711 H695 0.931 . S
C711 C705 1.383 . S
C711 C710 1.379 . S
H712 C706 0.959 . S
H713 C706 0.961 . S
H714 C706 0.960 . S
H715 C707 0.930 . S
H716 C708 0.929 . S
H717 C725 0.929 . S
H718 C727 0.930 . S
H719 C729 0.930 . S
H720 C732 0.929 . S
H721 C735 0.930 . S
H722 C737 0.960 . S
H723 C737 0.960 . S
H724 C737 0.960 . S
C725 H717 0.929 . S
C725 C726 1.377 . S
C725 C727 1.384 . S
C726 C725 1.377 . S
C726 C732 1.390 . S
C727 H718 0.930 . S
C727 C725 1.384 . S
C727 C728 1.372 . S
C728 C727 1.372 . S
C728 C729 1.400 . S
C728 C733 1.490 . S
C729 H719 0.930 . S
C729 C728 1.400 . S
C729 C732 1.386 . S
H730 C746 0.930 . S
H731 C747 0.931 . S
C732 H720 0.929 . S
C732 C726 1.390 . S
C732 C729 1.386 . S
C733 C728 1.490 . S
C733 C735 1.395 . S
C733 C736 1.403 . S
H734 C740 0.930 . S
C735 H721 0.930 . S
C735 C733 1.395 . S
C735 C738 1.403 . S
C736 C733 1.403 . S
C736 C737 1.524 . S
C736 C740 1.400 . S
C737 H722 0.960 . S
C737 H723 0.960 . S
C737 H724 0.960 . S
C737 C736 1.524 . S
C738 C735 1.403 . S
C738 C739 1.392 . S
C738 C742 1.495 . S
C739 C738 1.392 . S
C739 C740 1.385 . S
C739 C741 1.478 . S
C740 H734 0.930 . S
C740 C736 1.400 . S
C740 C739 1.385 . S
C741 C739 1.478 . S
C741 C743 1.381 . S
C741 C747 1.383 . S
C742 C738 1.495 . S
C742 H748 0.959 . S
C742 H749 0.961 . S
C742 H750 0.960 . S
C743 C741 1.381 . S
C743 C744 1.394 . S
C743 H751 0.930 . S
C744 C743 1.394 . S
C744 C745 1.383 . S
C744 H752 0.929 . S
C745 C744 1.383 . S
C745 C746 1.377 . S
C746 H730 0.930 . S
C746 C745 1.377 . S
C746 C747 1.379 . S
C747 H731 0.931 . S
C747 C741 1.383 . S
C747 C746 1.379 . S
H748 C742 0.959 . S
H749 C742 0.961 . S
H750 C742 0.960 . S
H751 C743 0.930 . S
H752 C744 0.929 . S
H753 C761 0.929 . S
H754 C763 0.930 . S
H755 C765 0.930 . S
H756 C768 0.929 . S
H757 C771 0.930 . S
H758 C773 0.960 . S
H759 C773 0.960 . S
H760 C773 0.960 . S
C761 H753 0.929 . S
C761 C762 1.377 . S
C761 C763 1.384 . S
C762 C761 1.377 . S
C762 C768 1.390 . S
C763 H754 0.930 . S
C763 C761 1.384 . S
C763 C764 1.372 . S
C764 C763 1.372 . S
C764 C765 1.400 . S
C764 C769 1.490 . S
C765 H755 0.930 . S
C765 C764 1.400 . S
C765 C768 1.386 . S
H766 C782 0.930 . S
H767 C783 0.931 . S
C768 H756 0.929 . S
C768 C762 1.390 . S
C768 C765 1.386 . S
C769 C764 1.490 . S
C769 C771 1.395 . S
C769 C772 1.403 . S
H770 C776 0.930 . S
C771 H757 0.930 . S
C771 C769 1.395 . S
C771 C774 1.403 . S
C772 C769 1.403 . S
C772 C773 1.524 . S
C772 C776 1.400 . S
C773 H758 0.960 . S
C773 H759 0.960 . S
C773 H760 0.960 . S
C773 C772 1.524 . S
C774 C771 1.403 . S
C774 C775 1.392 . S
C774 C778 1.495 . S
C775 C774 1.392 . S
C775 C776 1.385 . S
C775 C777 1.478 . S
C776 H770 0.930 . S
C776 C772 1.400 . S
C776 C775 1.385 . S
C777 C775 1.478 . S
C777 C779 1.381 . S
C777 C783 1.383 . S
C778 C774 1.495 . S
C778 H784 0.959 . S
C778 H785 0.961 . S
C778 H786 0.960 . S
C779 C777 1.381 . S
C779 C780 1.394 . S
C779 H787 0.930 . S
C780 C779 1.394 . S
C780 C781 1.383 . S
C780 H788 0.929 . S
C781 C780 1.383 . S
C781 C782 1.377 . S
C782 H766 0.930 . S
C782 C781 1.377 . S
C782 C783 1.379 . S
C783 H767 0.931 . S
C783 C777 1.383 . S
C783 C782 1.379 . S
H784 C778 0.959 . S
H785 C778 0.961 . S
H786 C778 0.960 . S
H787 C779 0.930 . S
H788 C780 0.929 . S
H789 C797 0.929 . S
H790 C799 0.930 . S
H791 C801 0.930 . S
H792 C804 0.929 . S
H793 C807 0.930 . S
H794 C809 0.960 . S
H795 C809 0.960 . S
H796 C809 0.960 . S
C797 H789 0.929 . S
C797 C798 1.377 . S
C797 C799 1.384 . S
C798 C797 1.377 . S
C798 C804 1.390 . S
C799 H790 0.930 . S
C799 C797 1.384 . S
C799 C800 1.372 . S
C800 C799 1.372 . S
C800 C801 1.400 . S
C800 C805 1.490 . S
C801 H791 0.930 . S
C801 C800 1.400 . S
C801 C804 1.386 . S
H802 C818 0.930 . S
H803 C819 0.931 . S
C804 H792 0.929 . S
C804 C798 1.390 . S
C804 C801 1.386 . S
C805 C800 1.490 . S
C805 C807 1.395 . S
C805 C808 1.403 . S
H806 C812 0.930 . S
C807 H793 0.930 . S
C807 C805 1.395 . S
C807 C810 1.403 . S
C808 C805 1.403 . S
C808 C809 1.524 . S
C808 C812 1.400 . S
C809 H794 0.960 . S
C809 H795 0.960 . S
C809 H796 0.960 . S
C809 C808 1.524 . S
C810 C807 1.403 . S
C810 C811 1.392 . S
C810 C814 1.495 . S
C811 C810 1.392 . S
C811 C812 1.385 . S
C811 C813 1.478 . S
C812 H806 0.930 . S
C812 C808 1.400 . S
C812 C811 1.385 . S
C813 C811 1.478 . S
C813 C815 1.381 . S
C813 C819 1.383 . S
C814 C810 1.495 . S
C814 H820 0.959 . S
C814 H821 0.961 . S
C814 H822 0.960 . S
C815 C813 1.381 . S
C815 C816 1.394 . S
C815 H823 0.930 . S
C816 C815 1.394 . S
C816 C817 1.383 . S
C816 H824 0.929 . S
C817 C816 1.383 . S
C817 C818 1.377 . S
C818 H802 0.930 . S
C818 C817 1.377 . S
C818 C819 1.379 . S
C819 H803 0.931 . S
C819 C813 1.383 . S
C819 C818 1.379 . S
H820 C814 0.959 . S
H821 C814 0.961 . S
H822 C814 0.960 . S
H823 C815 0.930 . S
H824 C816 0.929 . S
H825 C833 0.929 . S
H826 C835 0.930 . S
H827 C837 0.930 . S
H828 C840 0.929 . S
H829 C843 0.930 . S
H830 C845 0.960 . S
H831 C845 0.960 . S
H832 C845 0.960 . S
C833 H825 0.929 . S
C833 C834 1.377 . S
C833 C835 1.384 . S
C834 C833 1.377 . S
C834 C840 1.390 . S
C835 H826 0.930 . S
C835 C833 1.384 . S
C835 C836 1.372 . S
C836 C835 1.372 . S
C836 C837 1.400 . S
C836 C841 1.490 . S
C837 H827 0.930 . S
C837 C836 1.400 . S
C837 C840 1.386 . S
H838 C854 0.930 . S
H839 C855 0.931 . S
C840 H828 0.929 . S
C840 C834 1.390 . S
C840 C837 1.386 . S
C841 C836 1.490 . S
C841 C843 1.395 . S
C841 C844 1.403 . S
H842 C848 0.930 . S
C843 H829 0.930 . S
C843 C841 1.395 . S
C843 C846 1.403 . S
C844 C841 1.403 . S
C844 C845 1.524 . S
C844 C848 1.400 . S
C845 H830 0.960 . S
C845 H831 0.960 . S
C845 H832 0.960 . S
C845 C844 1.524 . S
C846 C843 1.403 . S
C846 C847 1.392 . S
C846 C850 1.495 . S
C847 C846 1.392 . S
C847 C848 1.385 . S
C847 C849 1.478 . S
C848 H842 0.930 . S
C848 C844 1.400 . S
C848 C847 1.385 . S
C849 C847 1.478 . S
C849 C851 1.381 . S
C849 C855 1.383 . S
C850 C846 1.495 . S
C850 H856 0.959 . S
C850 H857 0.961 . S
C850 H858 0.960 . S
C851 C849 1.381 . S
C851 C852 1.394 . S
C851 H859 0.930 . S
C852 C851 1.394 . S
C852 C853 1.383 . S
C852 H860 0.929 . S
C853 C852 1.383 . S
C853 C854 1.377 . S
C854 H838 0.930 . S
C854 C853 1.377 . S
C854 C855 1.379 . S
C855 H839 0.931 . S
C855 C849 1.383 . S
C855 C854 1.379 . S
H856 C850 0.959 . S
H857 C850 0.961 . S
H858 C850 0.960 . S
H859 C851 0.930 . S
H860 C852 0.929 . S
H861 C869 0.929 1_554 S
H862 C871 0.930 . S
H863 C873 0.930 . S
H864 C876 0.929 . S
H865 C879 0.930 . S
H866 C881 0.960 . S
H867 C881 0.960 . S
H868 C881 0.960 . S
C869 H861 0.929 1_556 S
C869 C870 1.377 1_556 S
C869 C871 1.384 . S
C870 C869 1.377 1_554 S
C870 C876 1.386 1_554 S
C871 H862 0.930 . S
C871 C869 1.384 . S
C871 C872 1.372 . S
C872 C871 1.372 . S
C872 C873 1.400 . S
C872 C877 1.490 . S
C873 H863 0.930 . S
C873 C872 1.400 . S
C873 C876 1.386 . S
H874 C890 0.930 . S
H875 C891 0.931 . S
C876 H864 0.929 . S
C876 C870 1.386 1_556 S
C876 C873 1.386 . S
C877 C872 1.490 . S
C877 C879 1.395 . S
C877 C880 1.403 . S
H878 C884 0.930 . S
C879 H865 0.930 . S
C879 C877 1.395 . S
C879 C882 1.403 . S
C880 C877 1.403 . S
C880 C881 1.524 . S
C880 C884 1.400 . S
C881 H866 0.960 . S
C881 H867 0.960 . S
C881 H868 0.960 . S
C881 C880 1.524 . S
C882 C879 1.403 . S
C882 C883 1.392 . S
C882 C886 1.495 . S
C883 C882 1.392 . S
C883 C884 1.385 . S
C883 C885 1.478 . S
C884 H878 0.930 . S
C884 C880 1.400 . S
C884 C883 1.385 . S
C885 C883 1.478 . S
C885 C887 1.381 . S
C885 C891 1.383 . S
C886 C882 1.495 . S
C886 H892 0.959 . S
C886 H893 0.961 . S
C886 H894 0.960 . S
C887 C885 1.381 . S
C887 C888 1.394 . S
C887 H895 0.930 . S
C888 C887 1.394 . S
C888 C889 1.383 . S
C888 H896 0.929 . S
C889 C888 1.383 . S
C889 C890 1.377 . S
C890 H874 0.930 . S
C890 C889 1.377 . S
C890 C891 1.379 . S
C891 H875 0.931 . S
C891 C885 1.383 . S
C891 C890 1.379 . S
H892 C886 0.959 . S
H893 C886 0.961 . S
H894 C886 0.960 . S
H895 C887 0.930 . S
H896 C888 0.929 . S
H897 C905 0.929 . S
H898 C907 0.930 . S
H899 C909 0.930 . S
H900 C912 0.929 . S
H901 C915 0.930 . S
H902 C917 0.960 . S
H903 C917 0.960 . S
H904 C917 0.960 . S
C905 H897 0.929 . S
C905 C906 1.377 . S
C905 C907 1.384 . S
C906 C905 1.377 . S
C906 C912 1.390 . S
C907 H898 0.930 . S
C907 C905 1.384 . S
C907 C908 1.372 . S
C908 C907 1.372 . S
C908 C909 1.400 . S
C908 C913 1.490 . S
C909 H899 0.930 . S
C909 C908 1.400 . S
C909 C912 1.386 . S
H910 C926 0.930 . S
H911 C927 0.931 . S
C912 H900 0.929 . S
C912 C906 1.390 . S
C912 C909 1.386 . S
C913 C908 1.490 . S
C913 C915 1.395 . S
C913 C916 1.403 . S
H914 C920 0.930 . S
C915 H901 0.930 . S
C915 C913 1.395 . S
C915 C918 1.403 . S
C916 C913 1.403 . S
C916 C917 1.524 . S
C916 C920 1.400 . S
C917 H902 0.960 . S
C917 H903 0.960 . S
C917 H904 0.960 . S
C917 C916 1.524 . S
C918 C915 1.403 . S
C918 C919 1.392 . S
C918 C922 1.495 . S
C919 C918 1.392 . S
C919 C920 1.385 . S
C919 C921 1.478 . S
C920 H914 0.930 . S
C920 C916 1.400 . S
C920 C919 1.385 . S
C921 C919 1.478 . S
C921 C923 1.381 . S
C921 C927 1.383 . S
C922 C918 1.495 . S
C922 H928 0.959 . S
C922 H929 0.961 . S
C922 H930 0.960 . S
C923 C921 1.381 . S
C923 C924 1.394 . S
C923 H931 0.930 . S
C924 C923 1.394 . S
C924 C925 1.383 . S
C924 H932 0.929 . S
C925 C924 1.383 . S
C925 C926 1.377 . S
C926 H910 0.930 . S
C926 C925 1.377 . S
C926 C927 1.379 . S
C927 H911 0.931 . S
C927 C921 1.383 . S
C927 C926 1.379 . S
H928 C922 0.959 . S
H929 C922 0.961 . S
H930 C922 0.960 . S
H931 C923 0.930 . S
H932 C924 0.929 . S
H933 C941 0.929 . S
H934 C943 0.930 . S
H935 C945 0.930 . S
H936 C948 0.929 . S
H937 C951 0.930 . S
H938 C953 0.960 . S
H939 C953 0.960 . S
H940 C953 0.960 . S
C941 H933 0.929 . S
C941 C942 1.377 . S
C941 C943 1.384 . S
C942 C941 1.377 . S
C942 C948 1.390 1_556 S
C943 H934 0.930 . S
C943 C941 1.384 . S
C943 C944 1.372 . S
C944 C943 1.372 . S
C944 C945 1.400 . S
C944 C949 1.490 . S
C945 H935 0.930 . S
C945 C944 1.400 . S
C945 C948 1.386 1_556 S
H946 C962 0.930 . S
H947 C963 0.931 . S
C948 H936 0.929 . S
C948 C942 1.390 1_554 S
C948 C945 1.386 1_554 S
C949 C944 1.490 . S
C949 C951 1.395 . S
C949 C952 1.403 . S
H950 C956 0.930 . S
C951 H937 0.930 . S
C951 C949 1.395 . S
C951 C954 1.403 . S
C952 C949 1.403 . S
C952 C953 1.524 . S
C952 C956 1.400 . S
C953 H938 0.960 . S
C953 H939 0.960 . S
C953 H940 0.960 . S
C953 C952 1.524 . S
C954 C951 1.403 . S
C954 C955 1.392 . S
C954 C958 1.495 . S
C955 C954 1.392 . S
C955 C956 1.385 . S
C955 C957 1.478 . S
C956 H950 0.930 . S
C956 C952 1.400 . S
C956 C955 1.385 . S
C957 C955 1.478 . S
C957 C959 1.381 . S
C957 C963 1.383 . S
C958 C954 1.495 . S
C958 H964 0.959 . S
C958 H965 0.961 . S
C958 H966 0.960 . S
C959 C957 1.381 . S
C959 C960 1.394 . S
C959 H967 0.930 . S
C960 C959 1.394 . S
C960 C961 1.383 . S
C960 H968 0.929 . S
C961 C960 1.383 . S
C961 C962 1.377 . S
C962 H946 0.930 . S
C962 C961 1.377 . S
C962 C963 1.379 . S
C963 H947 0.931 . S
C963 C957 1.383 . S
C963 C962 1.379 . S
H964 C958 0.959 . S
H965 C958 0.961 . S
H966 C958 0.960 . S
H967 C959 0.930 . S
H968 C960 0.929 . S
H969 C977 0.929 . S
H970 C979 0.930 . S
H971 C981 0.930 . S
H972 C984 0.929 . S
H973 C987 0.930 . S
H974 C989 0.960 . S
H975 C989 0.960 . S
H976 C989 0.960 . S
C977 H969 0.929 . S
C977 C978 1.377 . S
C977 C979 1.384 . S
C978 C977 1.377 . S
C978 C984 1.390 . S
C979 H970 0.930 . S
C979 C977 1.384 . S
C979 C980 1.372 . S
C980 C979 1.372 . S
C980 C981 1.400 . S
C980 C985 1.490 . S
C981 H971 0.930 . S
C981 C980 1.400 . S
C981 C984 1.386 . S
H982 C998 0.930 . S
H983 C999 0.931 . S
C984 H972 0.929 . S
C984 C978 1.390 . S
C984 C981 1.386 . S
C985 C980 1.490 . S
C985 C987 1.395 . S
C985 C988 1.403 . S
H986 C992 0.930 . S
C987 H973 0.930 . S
C987 C985 1.395 . S
C987 C990 1.403 . S
C988 C985 1.403 . S
C988 C989 1.524 . S
C988 C992 1.400 . S
C989 H974 0.960 . S
C989 H975 0.960 . S
C989 H976 0.960 . S
C989 C988 1.524 . S
C990 C987 1.403 . S
C990 C991 1.392 . S
C990 C994 1.495 . S
C991 C990 1.392 . S
C991 C992 1.385 . S
C991 C993 1.478 . S
C992 H986 0.930 . S
C992 C988 1.400 . S
C992 C991 1.385 . S
C993 C991 1.478 . S
C993 C995 1.381 . S
C993 C999 1.383 . S
C994 C990 1.495 . S
C994 H1000 0.959 . S
C994 H1001 0.961 . S
C994 H1002 0.960 . S
C995 C993 1.381 . S
C995 C996 1.394 . S
C995 H1003 0.930 . S
C996 C995 1.394 . S
C996 C997 1.383 . S
C996 H1004 0.929 . S
C997 C996 1.383 . S
C997 C998 1.377 . S
C998 H982 0.930 . S
C998 C997 1.377 . S
C998 C999 1.379 . S
C999 H983 0.931 . S
C999 C993 1.383 . S
C999 C998 1.379 . S
H1000 C994 0.959 . S
H1001 C994 0.961 . S
H1002 C994 0.960 . S
H1003 C995 0.930 . S
H1004 C996 0.929 . S
H1005 C1013 0.929 . S
H1006 C1015 0.930 . S
H1007 C1017 0.930 . S
H1008 C1020 0.929 . S
H1009 C1023 0.930 . S
H1010 C1025 0.960 . S
H1011 C1025 0.960 . S
H1012 C1025 0.960 . S
C1013 H1005 0.929 . S
C1013 C1014 1.377 . S
C1013 C1015 1.384 . S
C1014 C1013 1.377 . S
C1014 C1020 1.390 . S
C1015 H1006 0.930 . S
C1015 C1013 1.384 . S
C1015 C1016 1.372 . S
C1016 C1015 1.372 . S
C1016 C1017 1.400 . S
C1016 C1021 1.490 . S
C1017 H1007 0.930 . S
C1017 C1016 1.400 . S
C1017 C1020 1.386 . S
H1018 C1034 0.930 . S
H1019 C1035 0.931 . S
C1020 H1008 0.929 . S
C1020 C1014 1.390 . S
C1020 C1017 1.386 . S
C1021 C1016 1.490 . S
C1021 C1023 1.395 . S
C1021 C1024 1.403 . S
H1022 C1028 0.930 . S
C1023 H1009 0.930 . S
C1023 C1021 1.395 . S
C1023 C1026 1.403 . S
C1024 C1021 1.403 . S
C1024 C1025 1.524 . S
C1024 C1028 1.400 . S
C1025 H1010 0.960 . S
C1025 H1011 0.960 . S
C1025 H1012 0.960 . S
C1025 C1024 1.524 . S
C1026 C1023 1.403 . S
C1026 C1027 1.392 . S
C1026 C1030 1.495 . S
C1027 C1026 1.392 . S
C1027 C1028 1.385 . S
C1027 C1029 1.478 . S
C1028 H1022 0.930 . S
C1028 C1024 1.400 . S
C1028 C1027 1.385 . S
C1029 C1027 1.478 . S
C1029 C1031 1.381 . S
C1029 C1035 1.383 . S
C1030 C1026 1.495 . S
C1030 H1036 0.959 . S
C1030 H1037 0.961 . S
C1030 H1038 0.960 . S
C1031 C1029 1.381 . S
C1031 C1032 1.394 . S
C1031 H1039 0.930 . S
C1032 C1031 1.394 . S
C1032 C1033 1.383 . S
C1032 H1040 0.929 . S
C1033 C1032 1.383 . S
C1033 C1034 1.377 . S
C1034 H1018 0.930 . S
C1034 C1033 1.377 . S
C1034 C1035 1.379 . S
C1035 H1019 0.931 . S
C1035 C1029 1.383 . S
C1035 C1034 1.379 . S
H1036 C1030 0.959 . S
H1037 C1030 0.961 . S
H1038 C1030 0.960 . S
H1039 C1031 0.930 . S
H1040 C1032 0.929 . S
H1041 C1049 0.929 . S
H1042 C1051 0.930 . S
H1043 C1053 0.930 . S
H1044 C1056 0.929 . S
H1045 C1059 0.930 . S
H1046 C1061 0.960 . S
H1047 C1061 0.960 . S
H1048 C1061 0.960 1_554 S
C1049 H1041 0.929 . S
C1049 C1050 1.377 . S
C1049 C1051 1.384 1_554 S
C1050 C1049 1.377 . S
C1050 C1056 1.390 . S
C1051 H1042 0.930 . S
C1051 C1049 1.384 1_556 S
C1051 C1052 1.372 1_556 S
C1052 C1051 1.372 1_554 S
C1052 C1053 1.400 . S
C1052 C1057 1.490 1_554 S
C1053 H1043 0.930 . S
C1053 C1052 1.400 . S
C1053 C1056 1.386 . S
H1054 C1070 0.930 . S
H1055 C1071 0.931 . S
C1056 H1044 0.929 . S
C1056 C1050 1.390 . S
C1056 C1053 1.386 . S
C1057 C1052 1.490 1_556 S
C1057 C1059 1.395 . S
C1057 C1060 1.403 . S
H1058 C1064 0.930 . S
C1059 H1045 0.930 . S
C1059 C1057 1.395 . S
C1059 C1062 1.403 . S
C1060 C1057 1.403 . S
C1060 C1061 1.524 . S
C1060 C1064 1.400 . S
C1061 H1046 0.960 . S
C1061 H1047 0.960 . S
C1061 H1048 0.960 1_556 S
C1061 C1060 1.524 . S
C1062 C1059 1.403 . S
C1062 C1063 1.392 . S
C1062 C1066 1.495 . S
C1063 C1062 1.392 . S
C1063 C1064 1.385 . S
C1063 C1065 1.478 . S
C1064 H1058 0.930 . S
C1064 C1060 1.400 . S
C1064 C1063 1.385 . S
C1065 C1063 1.478 . S
C1065 C1067 1.381 . S
C1065 C1071 1.383 . S
C1066 C1062 1.495 . S
C1066 H1072 0.959 . S
C1066 H1073 0.961 . S
C1066 H1074 0.960 . S
C1067 C1065 1.381 . S
C1067 C1068 1.394 . S
C1067 H1075 0.930 . S
C1068 C1067 1.394 . S
C1068 C1069 1.383 . S
C1068 H1076 0.929 . S
C1069 C1068 1.383 . S
C1069 C1070 1.377 . S
C1070 H1054 0.930 . S
C1070 C1069 1.377 . S
C1070 C1071 1.379 . S
C1071 H1055 0.931 . S
C1071 C1065 1.383 . S
C1071 C1070 1.379 . S
H1072 C1066 0.959 . S
H1073 C1066 0.961 . S
H1074 C1066 0.960 . S
H1075 C1067 0.930 . S
H1076 C1068 0.929 . S
H1077 C1085 0.929 . S
H1078 C1087 0.930 . S
H1079 C1089 0.930 . S
H1080 C1092 0.929 . S
H1081 C1095 0.930 . S
H1082 C1097 0.960 . S
H1083 C1097 0.960 . S
H1084 C1097 0.960 . S
C1085 H1077 0.929 . S
C1085 C1086 1.377 1_556 S
C1085 C1087 1.384 . S
C1086 C1085 1.377 1_554 S
C1086 C1092 1.390 . S
C1087 H1078 0.930 . S
C1087 C1085 1.384 . S
C1087 C1088 1.372 . S
C1088 C1087 1.372 . S
C1088 C1089 1.400 . S
C1088 C1093 1.490 . S
C1089 H1079 0.930 . S
C1089 C1088 1.400 . S
C1089 C1092 1.386 1_556 S
H1090 C1106 0.930 . S
H1091 C1107 0.931 . S
C1092 H1080 0.929 . S
C1092 C1086 1.390 . S
C1092 C1089 1.386 1_554 S
C1093 C1088 1.490 . S
C1093 C1095 1.395 . S
C1093 C1096 1.403 . S
H1094 C1100 0.930 . S
C1095 H1081 0.930 . S
C1095 C1093 1.395 . S
C1095 C1098 1.403 . S
C1096 C1093 1.403 . S
C1096 C1097 1.524 . S
C1096 C1100 1.400 . S
C1097 H1082 0.960 . S
C1097 H1083 0.960 . S
C1097 H1084 0.960 . S
C1097 C1096 1.524 . S
C1098 C1095 1.403 . S
C1098 C1099 1.392 . S
C1098 C1102 1.495 . S
C1099 C1098 1.392 . S
C1099 C1100 1.385 . S
C1099 C1101 1.478 . S
C1100 H1094 0.930 . S
C1100 C1096 1.400 . S
C1100 C1099 1.385 . S
C1101 C1099 1.478 . S
C1101 C1103 1.381 . S
C1101 C1107 1.383 . S
C1102 C1098 1.495 . S
C1102 H1108 0.959 . S
C1102 H1109 0.961 . S
C1102 H1110 0.960 . S
C1103 C1101 1.381 . S
C1103 C1104 1.394 . S
C1103 H1111 0.930 . S
C1104 C1103 1.394 . S
C1104 C1105 1.383 . S
C1104 H1112 0.929 . S
C1105 C1104 1.383 . S
C1105 C1106 1.377 . S
C1106 H1090 0.930 . S
C1106 C1105 1.377 . S
C1106 C1107 1.379 . S
C1107 H1091 0.931 . S
C1107 C1101 1.383 . S
C1107 C1106 1.379 . S
H1108 C1102 0.959 . S
H1109 C1102 0.961 . S
H1110 C1102 0.960 . S
H1111 C1103 0.930 . S
H1112 C1104 0.929 . S
H1113 C1121 0.929 . S
H1114 C1123 0.930 . S
H1115 C1125 0.930 . S
H1116 C1128 0.929 . S
H1117 C1131 0.930 . S
H1118 C1133 0.960 . S
H1119 C1133 0.960 . S
H1120 C1133 0.960 . S
C1121 H1113 0.929 . S
C1121 C1122 1.377 . S
C1121 C1123 1.384 . S
C1122 C1121 1.377 . S
C1122 C1128 1.390 . S
C1123 H1114 0.930 . S
C1123 C1121 1.384 . S
C1123 C1124 1.372 . S
C1124 C1123 1.372 . S
C1124 C1125 1.400 . S
C1124 C1129 1.490 . S
C1125 H1115 0.930 . S
C1125 C1124 1.400 . S
C1125 C1128 1.386 . S
H1126 C1142 0.930 . S
H1127 C1143 0.931 . S
C1128 H1116 0.929 . S
C1128 C1122 1.390 . S
C1128 C1125 1.386 . S
C1129 C1124 1.490 . S
C1129 C1131 1.395 . S
C1129 C1132 1.403 . S
H1130 C1136 0.930 . S
C1131 H1117 0.930 . S
C1131 C1129 1.395 . S
C1131 C1134 1.403 . S
C1132 C1129 1.403 . S
C1132 C1133 1.524 . S
C1132 C1136 1.400 . S
C1133 H1118 0.960 . S
C1133 H1119 0.960 . S
C1133 H1120 0.960 . S
C1133 C1132 1.524 . S
C1134 C1131 1.403 . S
C1134 C1135 1.392 . S
C1134 C1138 1.495 . S
C1135 C1134 1.392 . S
C1135 C1136 1.385 . S
C1135 C1137 1.478 . S
C1136 H1130 0.930 . S
C1136 C1132 1.400 . S
C1136 C1135 1.385 . S
C1137 C1135 1.478 . S
C1137 C1139 1.381 . S
C1137 C1143 1.383 . S
C1138 C1134 1.495 . S
C1138 H1144 0.959 . S
C1138 H1145 0.961 . S
C1138 H1146 0.960 . S
C1139 C1137 1.381 . S
C1139 C1140 1.394 . S
C1139 H1147 0.930 . S
C1140 C1139 1.394 . S
C1140 C1141 1.383 . S
C1140 H1148 0.929 . S
C1141 C1140 1.383 . S
C1141 C1142 1.377 . S
C1142 H1126 0.930 . S
C1142 C1141 1.377 . S
C1142 C1143 1.379 . S
C1143 H1127 0.931 . S
C1143 C1137 1.383 . S
C1143 C1142 1.379 . S
H1144 C1138 0.959 . S
H1145 C1138 0.961 . S
H1146 C1138 0.960 . S
H1147 C1139 0.930 . S
H1148 C1140 0.929 . S
H1149 C1157 0.929 . S
H1150 C1159 0.930 . S
H1151 C1161 0.930 . S
H1152 C1164 0.929 . S
H1153 C1167 0.930 . S
H1154 C1169 0.960 . S
H1155 C1169 0.960 . S
H1156 C1169 0.960 . S
C1157 H1149 0.929 . S
C1157 C1158 1.377 . S
C1157 C1159 1.384 . S
C1158 C1157 1.377 . S
C1158 C1164 1.390 . S
C1159 H1150 0.930 . S
C1159 C1157 1.384 . S
C1159 C1160 1.372 . S
C1160 C1159 1.372 . S
C1160 C1161 1.400 . S
C1160 C1165 1.490 . S
C1161 H1151 0.930 . S
C1161 C1160 1.400 . S
C1161 C1164 1.386 . S
H1162 C1178 0.930 . S
H1163 C1179 0.931 . S
C1164 H1152 0.929 . S
C1164 C1158 1.390 . S
C1164 C1161 1.386 . S
C1165 C1160 1.490 . S
C1165 C1167 1.395 . S
C1165 C1168 1.403 . S
H1166 C1172 0.930 . S
C1167 H1153 0.930 . S
C1167 C1165 1.395 . S
C1167 C1170 1.403 . S
C1168 C1165 1.403 . S
C1168 C1169 1.524 . S
C1168 C1172 1.400 . S
C1169 H1154 0.960 . S
C1169 H1155 0.960 . S
C1169 H1156 0.960 . S
C1169 C1168 1.524 . S
C1170 C1167 1.403 . S
C1170 C1171 1.392 . S
C1170 C1174 1.495 . S
C1171 C1170 1.392 . S
C1171 C1172 1.385 . S
C1171 C1173 1.478 . S
C1172 H1166 0.930 . S
C1172 C1168 1.400 . S
C1172 C1171 1.385 . S
C1173 C1171 1.478 . S
C1173 C1175 1.381 . S
C1173 C1179 1.383 . S
C1174 C1170 1.495 . S
C1174 H1180 0.959 . S
C1174 H1181 0.961 . S
C1174 H1182 0.960 . S
C1175 C1173 1.381 . S
C1175 C1176 1.394 . S
C1175 H1183 0.930 . S
C1176 C1175 1.394 . S
C1176 C1177 1.383 . S
C1176 H1184 0.929 . S
C1177 C1176 1.383 . S
C1177 C1178 1.377 . S
C1178 H1162 0.930 . S
C1178 C1177 1.377 . S
C1178 C1179 1.379 . S
C1179 H1163 0.931 . S
C1179 C1173 1.383 . S
C1179 C1178 1.379 . S
H1180 C1174 0.959 . S
H1181 C1174 0.961 . S
H1182 C1174 0.960 . S
H1183 C1175 0.930 . S
H1184 C1176 0.929 . S
H1185 C1193 0.929 . S
H1186 C1195 0.930 . S
H1187 C1197 0.930 . S
H1188 C1200 0.929 . S
H1189 C1203 0.930 . S
H1190 C1205 0.960 . S
H1191 C1205 0.960 . S
H1192 C1205 0.960 . S
C1193 H1185 0.929 . S
C1193 C1194 1.377 . S
C1193 C1195 1.384 . S
C1194 C1193 1.377 . S
C1194 C1200 1.390 . S
C1195 H1186 0.930 . S
C1195 C1193 1.384 . S
C1195 C1196 1.372 . S
C1196 C1195 1.372 . S
C1196 C1197 1.400 . S
C1196 C1201 1.490 . S
C1197 H1187 0.930 . S
C1197 C1196 1.400 . S
C1197 C1200 1.386 . S
H1198 C1214 0.930 . S
H1199 C1215 0.931 . S
C1200 H1188 0.929 . S
C1200 C1194 1.390 . S
C1200 C1197 1.386 . S
C1201 C1196 1.490 . S
C1201 C1203 1.395 . S
C1201 C1204 1.403 . S
H1202 C1208 0.930 . S
C1203 H1189 0.930 . S
C1203 C1201 1.395 . S
C1203 C1206 1.403 . S
C1204 C1201 1.403 . S
C1204 C1205 1.524 . S
C1204 C1208 1.400 . S
C1205 H1190 0.960 . S
C1205 H1191 0.960 . S
C1205 H1192 0.960 . S
C1205 C1204 1.524 . S
C1206 C1203 1.403 . S
C1206 C1207 1.392 . S
C1206 C1210 1.495 . S
C1207 C1206 1.392 . S
C1207 C1208 1.385 . S
C1207 C1209 1.478 . S
C1208 H1202 0.930 . S
C1208 C1204 1.400 . S
C1208 C1207 1.385 . S
C1209 C1207 1.478 . S
C1209 C1211 1.381 . S
C1209 C1215 1.383 . S
C1210 C1206 1.495 . S
C1210 H1216 0.959 . S
C1210 H1217 0.961 . S
C1210 H1218 0.960 . S
C1211 C1209 1.381 . S
C1211 C1212 1.394 . S
C1211 H1219 0.930 . S
C1212 C1211 1.394 . S
C1212 C1213 1.383 . S
C1212 H1220 0.929 . S
C1213 C1212 1.383 . S
C1213 C1214 1.377 . S
C1214 H1198 0.930 . S
C1214 C1213 1.377 . S
C1214 C1215 1.379 . S
C1215 H1199 0.931 . S
C1215 C1209 1.383 . S
C1215 C1214 1.379 . S
H1216 C1210 0.959 . S
H1217 C1210 0.961 . S
H1218 C1210 0.960 . S
H1219 C1211 0.930 . S
H1220 C1212 0.929 . S
H1221 C1229 0.929 . S
H1222 C1231 0.930 . S
H1223 C1233 0.930 . S
H1224 C1236 0.929 . S
H1225 C1239 0.930 . S
H1226 C1241 0.960 . S
H1227 C1241 0.960 . S
H1228 C1241 0.960 . S
C1229 H1221 0.929 . S
C1229 C1230 1.377 . S
C1229 C1231 1.384 . S
C1230 C1229 1.377 . S
C1230 C1236 1.390 . S
C1231 H1222 0.930 . S
C1231 C1229 1.384 . S
C1231 C1232 1.372 . S
C1232 C1231 1.372 . S
C1232 C1233 1.400 . S
C1232 C1237 1.490 . S
C1233 H1223 0.930 . S
C1233 C1232 1.400 . S
C1233 C1236 1.386 . S
H1234 C1250 0.930 . S
H1235 C1251 0.931 . S
C1236 H1224 0.929 . S
C1236 C1230 1.390 . S
C1236 C1233 1.386 . S
C1237 C1232 1.490 . S
C1237 C1239 1.395 . S
C1237 C1240 1.403 . S
H1238 C1244 0.930 . S
C1239 H1225 0.930 . S
C1239 C1237 1.395 . S
C1239 C1242 1.403 . S
C1240 C1237 1.403 . S
C1240 C1241 1.524 . S
C1240 C1244 1.400 . S
C1241 H1226 0.960 . S
C1241 H1227 0.960 . S
C1241 H1228 0.960 . S
C1241 C1240 1.524 . S
C1242 C1239 1.403 . S
C1242 C1243 1.392 . S
C1242 C1246 1.495 . S
C1243 C1242 1.392 . S
C1243 C1244 1.385 . S
C1243 C1245 1.478 . S
C1244 H1238 0.930 . S
C1244 C1240 1.400 . S
C1244 C1243 1.385 . S
C1245 C1243 1.478 . S
C1245 C1247 1.381 . S
C1245 C1251 1.383 . S
C1246 C1242 1.495 . S
C1246 H1252 0.959 . S
C1246 H1253 0.961 . S
C1246 H1254 0.960 . S
C1247 C1245 1.381 . S
C1247 C1248 1.394 . S
C1247 H1255 0.930 . S
C1248 C1247 1.394 . S
C1248 C1249 1.383 . S
C1248 H1256 0.929 . S
C1249 C1248 1.383 . S
C1249 C1250 1.377 . S
C1250 H1234 0.930 . S
C1250 C1249 1.377 . S
C1250 C1251 1.379 . S
C1251 H1235 0.931 . S
C1251 C1245 1.383 . S
C1251 C1250 1.379 . S
H1252 C1246 0.959 . S
H1253 C1246 0.961 . S
H1254 C1246 0.960 . S
H1255 C1247 0.930 . S
H1256 C1248 0.929 . S
H1257 C1265 0.929 . S
H1258 C1267 0.930 . S
H1259 C1269 0.930 . S
H1260 C1272 0.929 . S
H1261 C1275 0.930 . S
H1262 C1277 0.960 . S
H1263 C1277 0.960 . S
H1264 C1277 0.960 . S
C1265 H1257 0.929 . S
C1265 C1266 1.377 . S
C1265 C1267 1.384 . S
C1266 C1265 1.377 . S
C1266 C1272 1.390 . S
C1267 H1258 0.930 . S
C1267 C1265 1.384 . S
C1267 C1268 1.372 . S
C1268 C1267 1.372 . S
C1268 C1269 1.400 . S
C1268 C1273 1.490 . S
C1269 H1259 0.930 . S
C1269 C1268 1.400 . S
C1269 C1272 1.386 . S
H1270 C1286 0.930 . S
H1271 C1287 0.931 . S
C1272 H1260 0.929 . S
C1272 C1266 1.390 . S
C1272 C1269 1.386 . S
C1273 C1268 1.490 . S
C1273 C1275 1.395 . S
C1273 C1276 1.403 . S
H1274 C1280 0.930 . S
C1275 H1261 0.930 . S
C1275 C1273 1.395 . S
C1275 C1278 1.403 . S
C1276 C1273 1.403 . S
C1276 C1277 1.524 . S
C1276 C1280 1.400 . S
C1277 H1262 0.960 . S
C1277 H1263 0.960 . S
C1277 H1264 0.960 . S
C1277 C1276 1.524 . S
C1278 C1275 1.403 . S
C1278 C1279 1.392 . S
C1278 C1282 1.495 . S
C1279 C1278 1.392 . S
C1279 C1280 1.385 . S
C1279 C1281 1.478 . S
C1280 H1274 0.930 . S
C1280 C1276 1.400 . S
C1280 C1279 1.385 . S
C1281 C1279 1.478 . S
C1281 C1283 1.381 . S
C1281 C1287 1.383 . S
C1282 C1278 1.495 . S
C1282 H1288 0.959 . S
C1282 H1289 0.961 . S
C1282 H1290 0.960 . S
C1283 C1281 1.381 . S
C1283 C1284 1.394 . S
C1283 H1291 0.930 . S
C1284 C1283 1.394 . S
C1284 C1285 1.383 . S
C1284 H1292 0.929 . S
C1285 C1284 1.383 . S
C1285 C1286 1.377 . S
C1286 H1270 0.930 . S
C1286 C1285 1.377 . S
C1286 C1287 1.379 . S
C1287 H1271 0.931 . S
C1287 C1281 1.383 . S
C1287 C1286 1.379 . S
H1288 C1282 0.959 . S
H1289 C1282 0.961 . S
H1290 C1282 0.960 . S
H1291 C1283 0.930 . S
H1292 C1284 0.929 . S
H1293 C1301 0.929 . S
H1294 C1303 0.930 . S
H1295 C1305 0.930 . S
H1296 C1308 0.929 . S
H1297 C1311 0.930 . S
H1298 C1313 0.960 . S
H1299 C1313 0.960 . S
H1300 C1313 0.960 . S
C1301 H1293 0.929 . S
C1301 C1302 1.377 . S
C1301 C1303 1.384 . S
C1302 C1301 1.377 . S
C1302 C1308 1.390 . S
C1303 H1294 0.930 . S
C1303 C1301 1.384 . S
C1303 C1304 1.372 . S
C1304 C1303 1.372 . S
C1304 C1305 1.400 . S
C1304 C1309 1.490 . S
C1305 H1295 0.930 . S
C1305 C1304 1.400 . S
C1305 C1308 1.386 . S
H1306 C1322 0.930 . S
H1307 C1323 0.931 . S
C1308 H1296 0.929 . S
C1308 C1302 1.390 . S
C1308 C1305 1.386 . S
C1309 C1304 1.490 . S
C1309 C1311 1.395 . S
C1309 C1312 1.403 . S
H1310 C1316 0.930 . S
C1311 H1297 0.930 . S
C1311 C1309 1.395 . S
C1311 C1314 1.403 . S
C1312 C1309 1.403 . S
C1312 C1313 1.524 . S
C1312 C1316 1.400 . S
C1313 H1298 0.960 . S
C1313 H1299 0.960 . S
C1313 H1300 0.960 . S
C1313 C1312 1.524 . S
C1314 C1311 1.403 . S
C1314 C1315 1.392 . S
C1314 C1318 1.495 . S
C1315 C1314 1.392 . S
C1315 C1316 1.385 . S
C1315 C1317 1.478 . S
C1316 H1310 0.930 . S
C1316 C1312 1.400 . S
C1316 C1315 1.385 . S
C1317 C1315 1.478 . S
C1317 C1319 1.381 . S
C1317 C1323 1.383 . S
C1318 C1314 1.495 . S
C1318 H1324 0.959 . S
C1318 H1325 0.961 . S
C1318 H1326 0.960 . S
C1319 C1317 1.381 . S
C1319 C1320 1.394 . S
C1319 H1327 0.930 . S
C1320 C1319 1.394 . S
C1320 C1321 1.383 . S
C1320 H1328 0.929 . S
C1321 C1320 1.383 . S
C1321 C1322 1.377 . S
C1322 H1306 0.930 . S
C1322 C1321 1.377 . S
C1322 C1323 1.379 . S
C1323 H1307 0.931 . S
C1323 C1317 1.383 . S
C1323 C1322 1.379 . S
H1324 C1318 0.959 . S
H1325 C1318 0.961 . S
H1326 C1318 0.960 . S
H1327 C1319 0.930 . S
H1328 C1320 0.929 . S
H1329 C1337 0.929 . S
H1330 C1339 0.930 . S
H1331 C1341 0.930 . S
H1332 C1344 0.929 . S
H1333 C1347 0.930 . S
H1334 C1349 0.960 . S
H1335 C1349 0.960 . S
H1336 C1349 0.960 . S
C1337 H1329 0.929 . S
C1337 C1338 1.377 . S
C1337 C1339 1.384 . S
C1338 C1337 1.377 . S
C1338 C1344 1.390 . S
C1339 H1330 0.930 . S
C1339 C1337 1.384 . S
C1339 C1340 1.372 . S
C1340 C1339 1.372 . S
C1340 C1341 1.400 . S
C1340 C1345 1.490 . S
C1341 H1331 0.930 . S
C1341 C1340 1.400 . S
C1341 C1344 1.386 . S
H1342 C1358 0.930 . S
H1343 C1359 0.931 . S
C1344 H1332 0.929 . S
C1344 C1338 1.390 . S
C1344 C1341 1.386 . S
C1345 C1340 1.490 . S
C1345 C1347 1.395 . S
C1345 C1348 1.403 . S
H1346 C1352 0.930 . S
C1347 H1333 0.930 . S
C1347 C1345 1.395 . S
C1347 C1350 1.403 . S
C1348 C1345 1.403 . S
C1348 C1349 1.524 . S
C1348 C1352 1.400 . S
C1349 H1334 0.960 . S
C1349 H1335 0.960 . S
C1349 H1336 0.960 . S
C1349 C1348 1.524 . S
C1350 C1347 1.403 . S
C1350 C1351 1.392 . S
C1350 C1354 1.495 . S
C1351 C1350 1.392 . S
C1351 C1352 1.385 . S
C1351 C1353 1.478 . S
C1352 H1346 0.930 . S
C1352 C1348 1.400 . S
C1352 C1351 1.385 . S
C1353 C1351 1.478 . S
C1353 C1355 1.381 . S
C1353 C1359 1.383 . S
C1354 C1350 1.495 . S
C1354 H1360 0.959 . S
C1354 H1361 0.961 . S
C1354 H1362 0.960 . S
C1355 C1353 1.381 . S
C1355 C1356 1.394 . S
C1355 H1363 0.930 . S
C1356 C1355 1.394 . S
C1356 C1357 1.383 . S
C1356 H1364 0.929 . S
C1357 C1356 1.383 . S
C1357 C1358 1.377 . S
C1358 H1342 0.930 . S
C1358 C1357 1.377 . S
C1358 C1359 1.379 . S
C1359 H1343 0.931 . S
C1359 C1353 1.383 . S
C1359 C1358 1.379 . S
H1360 C1354 0.959 . S
H1361 C1354 0.961 . S
H1362 C1354 0.960 . S
H1363 C1355 0.930 . S
H1364 C1356 0.929 . S
H1365 C1373 0.929 . S
H1366 C1375 0.930 . S
H1367 C1377 0.930 . S
H1368 C1380 0.929 . S
H1369 C1383 0.930 . S
H1370 C1385 0.960 . S
H1371 C1385 0.960 . S
H1372 C1385 0.960 . S
C1373 H1365 0.929 . S
C1373 C1374 1.377 . S
C1373 C1375 1.384 . S
C1374 C1373 1.377 . S
C1374 C1380 1.390 . S
C1375 H1366 0.930 . S
C1375 C1373 1.384 . S
C1375 C1376 1.372 . S
C1376 C1375 1.372 . S
C1376 C1377 1.400 . S
C1376 C1381 1.490 . S
C1377 H1367 0.930 . S
C1377 C1376 1.400 . S
C1377 C1380 1.386 . S
H1378 C1394 0.930 . S
H1379 C1395 0.931 . S
C1380 H1368 0.929 . S
C1380 C1374 1.390 . S
C1380 C1377 1.386 . S
C1381 C1376 1.490 . S
C1381 C1383 1.395 . S
C1381 C1384 1.403 . S
H1382 C1388 0.930 . S
C1383 H1369 0.930 . S
C1383 C1381 1.395 . S
C1383 C1386 1.403 . S
C1384 C1381 1.403 . S
C1384 C1385 1.524 . S
C1384 C1388 1.400 . S
C1385 H1370 0.960 . S
C1385 H1371 0.960 . S
C1385 H1372 0.960 . S
C1385 C1384 1.524 . S
C1386 C1383 1.403 . S
C1386 C1387 1.392 . S
C1386 C1390 1.495 . S
C1387 C1386 1.392 . S
C1387 C1388 1.385 . S
C1387 C1389 1.478 . S
C1388 H1382 0.930 . S
C1388 C1384 1.400 . S
C1388 C1387 1.385 . S
C1389 C1387 1.478 . S
C1389 C1391 1.381 . S
C1389 C1395 1.383 . S
C1390 C1386 1.495 . S
C1390 H1396 0.959 . S
C1390 H1397 0.961 . S
C1390 H1398 0.960 . S
C1391 C1389 1.381 . S
C1391 C1392 1.394 . S
C1391 H1399 0.930 . S
C1392 C1391 1.394 . S
C1392 C1393 1.383 . S
C1392 H1400 0.929 . S
C1393 C1392 1.383 . S
C1393 C1394 1.377 . S
C1394 H1378 0.930 . S
C1394 C1393 1.377 . S
C1394 C1395 1.379 . S
C1395 H1379 0.931 . S
C1395 C1389 1.383 . S
C1395 C1394 1.379 . S
H1396 C1390 0.959 . S
H1397 C1390 0.961 . S
H1398 C1390 0.960 . S
H1399 C1391 0.930 . S
H1400 C1392 0.929 . S
C546 C39 1.909 . S
C565 C455 1.892 . S
C582 C125 0.801 . S
C601 C502 0.830 . S
C637 C506 2.109 . S
C618 C211 2.060 . S
C673 C471 0.706 . S
C654 C273 0.738 . S
C690 C335 1.936 . S
C709 C486 1.890 . S
C745 C508 1.272 . S
C726 C439 1.305 . S
C781 C477 1.342 . S
C762 C187 1.337 . S
C798 C291 1.859 . S
C817 C517 1.787 . S
C853 C446 1.496 . S
C834 C359 1.452 . S
C870 C421 0.619 . S
C889 C475 0.592 . S
C906 C63 2.186 1_556 S
C925 C533 2.264 . S
C961 C444 2.028 . S
C942 C143 2.062 1_556 S
C997 C462 2.070 . S
C978 C285 2.018 . S
C1033 C476 2.036 . S
C1014 C365 2.099 . S
C1069 C530 2.022 . S
C1050 C409 2.026 . S
C1105 C445 1.994 . S
C1086 C69 2.050 . S
C1141 C493 1.930 . S
C1122 C137 1.911 . S
C1158 C199 0.439 . S
C1177 C516 0.523 . S
C1213 C485 1.540 . S
C1194 C433 1.466 . S
C1249 C524 0.337 . S
C1230 C51 0.338 . S
C1285 C454 1.305 . S
C1266 C113 1.341 . S
C1321 C499 1.882 . S
C1302 C217 1.953 . S
C1338 C261 2.122 . S
C1357 C507 2.097 . S
C1374 C347 0.551 . S
C1393 C468 0.645 . S
