# Generated by pormake.
# Topology pth, (4,4)-cn, num edge types: 1
# Building blocks:
#     Node 0, Type 0, BuildingBlock: QUQFOY_clean_sbu_3, # of connection points: 4
#     Node 1, Type 0, BuildingBlock: QUQFOY_clean_sbu_3, # of connection points: 4
#     Node 2, Type 0, BuildingBlock: QUQFOY_clean_sbu_3, # of connection points: 4
#     Node 3, Type 1, BuildingBlock: AZAVOO_clean_linker_0, # of connection points: 4
#     Node 4, Type 1, BuildingBlock: AZAVOO_clean_linker_0, # of connection points: 4
#     Node 5, Type 1, BuildingBlock: AZAVOO_clean_linker_0, # of connection points: 4
#     Edge 6, Type (0, 1), BuildingBlock: UVAHIK_clean_linker_0, # of connection points: 2
#     Edge 7, Type (0, 1), BuildingBlock: UVAHIK_clean_linker_0, # of connection points: 2
#     Edge 8, Type (0, 1), BuildingBlock: UVAHIK_clean_linker_0, # of connection points: 2
#     Edge 9, Type (0, 1), BuildingBlock: UVAHIK_clean_linker_0, # of connection points: 2
#     Edge 10, Type (0, 1), BuildingBlock: UVAHIK_clean_linker_0, # of connection points: 2
#     Edge 11, Type (0, 1), BuildingBlock: UVAHIK_clean_linker_0, # of connection points: 2
#     Edge 12, Type (0, 1), BuildingBlock: UVAHIK_clean_linker_0, # of connection points: 2
#     Edge 13, Type (0, 1), BuildingBlock: UVAHIK_clean_linker_0, # of connection points: 2
#     Edge 14, Type (0, 1), BuildingBlock: UVAHIK_clean_linker_0, # of connection points: 2
#     Edge 15, Type (0, 1), BuildingBlock: UVAHIK_clean_linker_0, # of connection points: 2
#     Edge 16, Type (0, 1), BuildingBlock: UVAHIK_clean_linker_0, # of connection points: 2
#     Edge 17, Type (0, 1), BuildingBlock: UVAHIK_clean_linker_0, # of connection points: 2
# Relax obj value: 0.099
# Max RMSD: 0.224
# Mean RMSD: 0.148
data_MOF--net-pth--node1-QUQFOY_clean_sbu_3--node2-AZAVOO_clean_linker_0--edge1-UVAHIK_clean_linker_0
_symmetry_space_group_name_H-M    P1
_symmetry_Int_Tables_number       1
_symmetry_cell_setting            triclinic
loop_
_symmetry_equiv_pos_as_xyz
'x, y, z'
_cell_length_a     32.763448
_cell_length_b     32.774282
_cell_length_c     90.342182
_cell_angle_alpha  92.282577
_cell_angle_beta   89.749069
_cell_angle_gamma 120.82263
loop_
_atom_site_label
_atom_site_type_symbol
_atom_site_fract_x
_atom_site_fract_y
_atom_site_fract_z
_atom_type_partial_charge
C0 C 0.99147 0.10539 0.08663 0.0
O1 O 0.96039 0.09522 0.07655 0.0
Cd2 Cd 0.96129 0.05723 0.05332 0.0
O3 O 0.02222 0.09286 0.08509 0.0
Cd4 Cd 0.04814 0.04834 0.06896 0.0
C5 C 0.07976 0.13239 0.04388 0.0
O6 O 0.96944 0.99213 0.05977 0.0
O7 O 0.02545 0.98761 0.0488 0.0
O8 O 0.05317 0.02146 0.0928 0.0
C9 C 0.98139 0.97274 0.04963 0.0
O10 O 0.03534 0.11537 0.04173 0.0
C11 C 0.09149 0.02155 0.09065 0.0
O12 O 0.0949 0.11645 0.05378 0.0
O13 O 0.11044 0.03384 0.07804 0.0
C14 C 0.09592 0.07363 0.40067 0.0
O15 O 0.10521 0.08152 0.38705 0.0
Cd16 Cd 0.04355 0.06666 0.36944 0.0
O17 O 0.05389 0.05807 0.40525 0.0
Cd18 Cd 0.97325 0.03531 0.39712 0.0
C19 C 0.96614 0.94763 0.37427 0.0
O20 O 0.00144 0.10067 0.38106 0.0
O21 O 0.9257 0.05196 0.37971 0.0
O22 O 0.97202 0.07323 0.42049 0.0
C23 C 0.96153 0.09027 0.37566 0.0
O24 O 0.99447 0.98032 0.36589 0.0
C25 C 0.93334 0.03856 0.42486 0.0
O26 O 0.95471 0.9576 0.38679 0.0
O27 O 0.91249 0.00184 0.41619 0.0
C28 C 0.97576 0.11637 0.71006 0.0
O29 O 0.98728 0.15095 0.7193 0.0
Cd30 Cd 0.03957 0.1684 0.74005 0.0
O31 O 0.99392 0.09024 0.71103 0.0
Cd32 Cd 0.05411 0.08718 0.72675 0.0
C33 C 0.98255 0.06049 0.75619 0.0
O34 O 0.10932 0.17271 0.72983 0.0
O35 O 0.12197 0.12889 0.74403 0.0
O36 O 0.0817 0.06738 0.70415 0.0
C37 C 0.13623 0.16972 0.73919 0.0
O38 O 0.99528 0.10433 0.7572 0.0
C39 C 0.08473 0.03367 0.70942 0.0
O40 O -0.0031 0.04446 0.74563 0.0
O41 O 0.07207 0.02378 0.72273 0.0
H42 H 0.08173 0.55786 0.13862 0.0
H43 H 0.15596 0.87833 0.27355 0.0
H44 H 0.97809 0.48748 0.20985 0.0
H45 H 0.96438 0.41578 0.1963 0.0
H46 H 0.07347 0.41531 0.22302 0.0
H47 H 0.08901 0.48923 0.23585 0.0
H48 H 0.01993 0.58572 0.19706 0.0
H49 H 0.03564 0.57652 0.171 0.0
H50 H 0.1493 0.55452 0.18437 0.0
H51 H 0.13359 0.56438 0.21038 0.0
H52 H 0.02659 0.66746 0.21933 0.0
H53 H 0.05368 0.73539 0.20368 0.0
H54 H 0.18793 0.742 0.19806 0.0
H55 H 0.16082 0.67422 0.21413 0.0
H56 H 0.00045 0.6548 0.25061 0.0
H57 H 0.01643 0.73158 0.26121 0.0
H58 H 0.16746 0.78545 0.25906 0.0
H59 H 0.15092 0.70823 0.24864 0.0
H60 H 0.95767 0.55934 0.26129 0.0
H61 H 0.9355 0.57712 0.28539 0.0
H62 H 0.08212 0.6441 0.30046 0.0
H63 H 0.10407 0.62892 0.27584 0.0
H64 H 0.95355 0.4603 0.24514 0.0
H65 H 0.93156 0.39333 0.26107 0.0
H66 H 0.06698 0.47558 0.28425 0.0
H67 H 0.0893 0.54071 0.26788 0.0
O68 O 0.07638 0.56177 0.149 0.0
O69 O 0.13442 0.55064 0.15645 0.0
O70 O 0.07062 0.81787 0.27053 0.0
O71 O 0.14862 0.84749 0.26947 0.0
C72 C 0.04683 0.54074 0.23039 0.0
C73 C 0.06561 0.58066 0.22142 0.0
C74 C 0.07469 0.62495 0.22751 0.0
C75 C 0.06481 0.62928 0.24253 0.0
C76 C 0.04616 0.58942 0.25146 0.0
C77 C 0.03801 0.5454 0.24549 0.0
C78 C 0.03488 0.49379 0.22369 0.0
C79 C -0.0012 0.47166 0.21282 0.0
C80 C 0.99066 0.43028 0.20521 0.0
C81 C 0.01792 0.40964 0.20851 0.0
C82 C 0.0524 0.43065 0.22 0.0
C83 C 0.06106 0.47261 0.22745 0.0
C84 C 0.07574 0.5759 0.20559 0.0
C85 C 0.04843 0.57927 0.19432 0.0
C86 C 0.05738 0.57383 0.17946 0.0
C87 C 0.09372 0.56476 0.1756 0.0
C88 C 0.12105 0.56147 0.18695 0.0
C89 C 0.11214 0.56705 0.20181 0.0
C90 C 0.09189 0.66625 0.21797 0.0
C91 C 0.06208 0.68393 0.21489 0.0
C92 C 0.07762 0.72271 0.20598 0.0
C93 C 0.12308 0.74417 0.19981 0.0
C94 C 0.15277 0.72605 0.20272 0.0
C95 C 0.13738 0.68751 0.21185 0.0
C96 C 0.07453 0.6759 0.24898 0.0
C97 C 0.03694 0.68311 0.25256 0.0
C98 C 0.04618 0.72705 0.25855 0.0
C99 C 0.09326 0.76467 0.261 0.0
C100 C 0.13082 0.75726 0.25733 0.0
C101 C 0.1215 0.71324 0.25138 0.0
C102 C 0.03244 0.59331 0.26684 0.0
C103 C 0.98476 0.57723 0.26991 0.0
C104 C 0.97218 0.58714 0.28378 0.0
C105 C 0.00704 0.61256 0.29495 0.0
C106 C 0.05444 0.62557 0.29206 0.0
C107 C 0.0671 0.61657 0.27806 0.0
C108 C 0.02306 0.50523 0.25535 0.0
C109 C 0.97838 0.46354 0.25364 0.0
C110 C 0.9658 0.42555 0.2628 0.0
C111 C -0.00231 0.42893 0.27385 0.0
C112 C 0.04197 0.47129 0.27565 0.0
C113 C 0.05461 0.50883 0.26643 0.0
C114 C 0.10289 0.55862 0.1598 0.0
C115 C 0.10328 0.8115 0.26729 0.0
H116 H 0.57033 0.08376 0.46672 0.0
H117 H 0.25421 0.10135 0.58588 0.0
H118 H 0.53887 0.99419 0.5408 0.0
H119 H 0.60685 0.99215 0.53084 0.0
H120 H 0.70144 0.11937 0.55731 0.0
H121 H 0.63258 0.12243 0.56658 0.0
H122 H 0.4742 0.01599 0.5229 0.0
H123 H 0.50337 0.03205 0.49757 0.0
H124 H 0.62501 0.16532 0.51335 0.0
H125 H 0.59507 0.14909 0.5386 0.0
H126 H 0.38674 0.00885 0.53929 0.0
H127 H 0.34652 0.02114 0.51873 0.0
H128 H 0.46169 0.16716 0.51725 0.0
H129 H 0.5008 0.15487 0.5382 0.0
H130 H 0.36943 0.98498 0.57271 0.0
H131 H 0.29669 0.98394 0.57974 0.0
H132 H 0.36864 0.13611 0.57518 0.0
H133 H 0.44128 0.13671 0.56834 0.0
H134 H 0.44511 0.9669 0.58937 0.0
H135 H 0.40069 0.94088 0.61235 0.0
H136 H 0.42419 0.08222 0.6208 0.0
H137 H 0.46977 0.10811 0.59813 0.0
H138 H 0.54572 0.98474 0.5759 0.0
H139 H 0.60284 0.98528 0.59336 0.0
H140 H 0.61906 0.11262 0.61535 0.0
H141 H 0.56478 0.11357 0.59722 0.0
O142 O 0.55941 0.07817 0.47681 0.0
O143 O 0.62151 0.14611 0.4855 0.0
O144 O 0.24708 0.02251 0.58531 0.0
O145 O 0.28241 0.1007 0.58308 0.0
C146 C 0.53912 0.06211 0.55873 0.0
C147 C 0.51448 0.07173 0.54793 0.0
C148 C 0.47278 0.072 0.55172 0.0
C149 C 0.45515 0.06172 0.56621 0.0
C150 C 0.48009 0.05248 0.57706 0.0
C151 C 0.52262 0.05366 0.5734 0.0
C152 C 0.58089 0.05867 0.55428 0.0
C153 C 0.5743 0.02141 0.54452 0.0
C154 C 0.6133 0.02004 0.53899 0.0
C155 C 0.65983 0.0556 0.54327 0.0
C156 C 0.66618 0.09179 0.55362 0.0
C157 C 0.62697 0.09346 0.55902 0.0
C158 C 0.53243 0.08146 0.53256 0.0
C159 C 0.507 0.04873 0.52084 0.0
C160 C 0.52382 0.05794 0.5064 0.0
C161 C 0.56652 0.09999 0.50343 0.0
C162 C 0.592 0.13261 0.51524 0.0
C163 C 0.57504 0.12342 0.52967 0.0
C164 C 0.44658 0.08098 0.54021 0.0
C165 C 0.4028 0.04368 0.53468 0.0
C166 C 0.38024 0.05064 0.52283 0.0
C167 C 0.40124 0.09499 0.51625 0.0
C168 C 0.44448 0.1327 0.52213 0.0
C169 C 0.46694 0.12574 0.53404 0.0
C170 C 0.4106 0.06092 0.57005 0.0
C171 C 0.36939 0.01804 0.57325 0.0
C172 C 0.3279 0.01756 0.57725 0.0
C173 C 0.32687 0.05999 0.57804 0.0
C174 C 0.3682 0.10283 0.57469 0.0
C175 C 0.4097 0.10327 0.57074 0.0
C176 C 0.46013 0.03922 0.59205 0.0
C177 C 0.44164 0.99246 0.59641 0.0
C178 C 0.41601 0.97759 0.60946 0.0
C179 C 0.4085 0.00933 0.61833 0.0
C180 C 0.4297 0.05696 0.61433 0.0
C181 C 0.45544 0.0718 0.60133 0.0
C182 C 0.55166 0.04951 0.58516 0.0
C183 C 0.56164 0.01266 0.58452 0.0
C184 C 0.59397 0.01282 0.5946 0.0
C185 C 0.61618 0.04942 0.60565 0.0
C186 C 0.60373 0.08463 0.60674 0.0
C187 C 0.57216 0.0849 0.59652 0.0
C188 C 0.58429 0.10965 0.48807 0.0
C189 C 0.28298 0.05973 0.58236 0.0
H190 H 0.55704 0.70163 0.99046 0.0
H191 H 0.28585 0.2962 0.87154 0.0
H192 H 0.5548 0.71845 0.91221 0.0
H193 H 0.61963 0.78174 0.92743 0.0
H194 H 0.70652 0.72042 0.91706 0.0
H195 H 0.64203 0.65834 0.90162 0.0
H196 H 0.4768 0.63676 0.93051 0.0
H197 H 0.49878 0.66542 0.95635 0.0
H198 H 0.61334 0.63624 0.95389 0.0
H199 H 0.59055 0.60712 0.92813 0.0
H200 H 0.39423 0.54371 0.91469 0.0
H201 H 0.3438 0.49114 0.93384 0.0
H202 H 0.45009 0.45402 0.94289 0.0
H203 H 0.50074 0.50796 0.92405 0.0
H204 H 0.39062 0.53264 0.8781 0.0
H205 H 0.32267 0.45557 0.86984 0.0
H206 H 0.39392 0.38545 0.88618 0.0
H207 H 0.46182 0.46276 0.89421 0.0
H208 H 0.46764 0.61646 0.86093 0.0
H209 H 0.44184 0.58671 0.8353 0.0
H210 H 0.48874 0.48625 0.84001 0.0
H211 H 0.51491 0.51663 0.86548 0.0
H212 H 0.54885 0.70868 0.87774 0.0
H213 H 0.60444 0.76561 0.86035 0.0
H214 H 0.66377 0.67565 0.85207 0.0
H215 H 0.60705 0.61845 0.86915 0.0
O216 O 0.54808 0.68887 0.98038 0.0
O217 O 0.60684 0.67379 0.97845 0.0
O218 O 0.27725 0.3649 0.86634 0.0
O219 O 0.31223 0.32712 0.87466 0.0
C220 C 0.55124 0.63869 0.90083 0.0
C221 C 0.52147 0.60678 0.91146 0.0
C222 C 0.48202 0.56257 0.90684 0.0
C223 C 0.47241 0.55001 0.8916 0.0
C224 C 0.5025 0.58192 0.88098 0.0
C225 C 0.54183 0.62632 0.88561 0.0
C226 C 0.59381 0.68381 0.90597 0.0
C227 C 0.58859 0.71999 0.91277 0.0
C228 C 0.62543 0.75572 0.92157 0.0
C229 C 0.66781 0.75547 0.92371 0.0
C230 C 0.67449 0.72185 0.91561 0.0
C231 C 0.6377 0.6863 0.90675 0.0
C232 C 0.53211 0.61994 0.92749 0.0
C233 C 0.50621 0.63601 0.93566 0.0
C234 C 0.51902 0.65259 0.95038 0.0
C235 C 0.55801 0.65338 0.95716 0.0
C236 C 0.58323 0.63624 0.94899 0.0
C237 C 0.57025 0.61951 0.9343 0.0
C238 C 0.45093 0.52945 0.91804 0.0
C239 C 0.4064 0.52407 0.92082 0.0
C240 C 0.37764 0.49387 0.9317 0.0
C241 C 0.3929 0.46833 0.93991 0.0
C242 C 0.43757 0.4737 0.93696 0.0
C243 C 0.4664 0.50416 0.92614 0.0
C244 C 0.43103 0.5032 0.88676 0.0
C245 C 0.39147 0.50057 0.87985 0.0
C246 C 0.35272 0.45652 0.87517 0.0
C247 C 0.35285 0.41431 0.87737 0.0
C248 C 0.39262 0.4172 0.88433 0.0
C249 C 0.43139 0.46129 0.88896 0.0
C250 C 0.49276 0.56838 0.86501 0.0
C251 C 0.47318 0.58872 0.85628 0.0
C252 C 0.45834 0.5716 0.84171 0.0
C253 C 0.46313 0.53406 0.83569 0.0
C254 C 0.48511 0.51556 0.84427 0.0
C255 C 0.49975 0.53258 0.85884 0.0
C256 C 0.574 0.65956 0.87462 0.0
C257 C 0.57368 0.70126 0.87205 0.0
C258 C 0.60566 0.73381 0.86221 0.0
C259 C 0.6387 0.72528 0.85485 0.0
C260 C 0.63839 0.68302 0.85737 0.0
C261 C 0.60622 0.6504 0.86716 0.0
C262 C 0.57254 0.67251 0.97263 0.0
C263 C 0.31177 0.36742 0.87244 0.0
C264 C 0.03224 0.15194 0.10995 0.0
C265 C 0.99229 0.13181 0.10037 0.0
C266 C 0.03379 0.17757 0.12284 0.0
C267 C 0.96102 0.19503 0.15004 0.0
H268 H 0.07153 0.32148 0.15592 0.0
C269 C 0.96863 0.33448 0.1929 0.0
C270 C 0.01301 0.36905 0.19909 0.0
C271 C 0.96531 0.30084 0.18223 0.0
C272 C 0.04086 0.28589 0.15468 0.0
H273 H 0.92216 0.12183 0.09698 0.0
H274 H 0.9248 0.16643 0.11972 0.0
H275 H 0.06689 0.27188 0.13453 0.0
H276 H 0.08834 0.39311 0.19954 0.0
H277 H 0.08211 0.33291 0.18168 0.0
H278 H 0.93515 0.20868 0.1703 0.0
C279 C 0.95485 0.16231 0.11714 0.0
C280 C 0.03813 0.25765 0.14234 0.0
C281 C 0.95352 0.13713 0.10411 0.0
C282 C 0.05348 0.367 0.19511 0.0
C283 C 0.05004 0.3329 0.18463 0.0
C284 C 0.96402 0.22308 0.16254 0.0
C285 C 0.99522 0.18311 0.12652 0.0
C286 C -0.00191 0.21216 0.13985 0.0
C287 C 0.00622 0.30049 0.17766 0.0
C288 C 0.00387 0.26903 0.16496 0.0
H289 H 0.06269 0.14846 0.10741 0.0
H290 H 0.06518 0.19305 0.12996 0.0
H291 H 0.92996 0.15982 0.14839 0.0
H292 H 0.93653 0.33427 0.19594 0.0
H293 H 0.93095 0.27658 0.1771 0.0
C294 C 0.87472 0.00097 0.44511 0.0
C295 C 0.91355 0.04144 0.4393 0.0
C296 C 0.85555 0.00439 0.45863 0.0
C297 C 0.83996 0.08866 0.48135 0.0
H298 H 0.80604 -0.00132 0.51233 0.0
C299 C 0.73993 0.10031 0.53162 0.0
C300 C 0.70102 0.05687 0.53584 0.0
C301 C 0.7745 0.10102 0.52237 0.0
C302 C 0.81501 0.02394 0.50375 0.0
H303 H 0.96335 0.11699 0.44321 0.0
H304 H 0.92922 0.12299 0.46665 0.0
H305 H 0.84849 0.99352 0.49068 0.0
H306 H 0.67061 0.98037 0.5348 0.0
H307 H 0.72911 0.98141 0.51804 0.0
H308 H 0.80454 0.11761 0.49376 0.0
C309 C 0.9138 0.0887 0.46077 0.0
C310 C 0.8394 0.021 0.4914 0.0
C311 C 0.9333 0.08519 0.44737 0.0
C312 C 0.69942 0.01442 0.53145 0.0
C313 C 0.73352 0.01508 0.52199 0.0
C314 C 0.81504 0.09119 0.49354 0.0
C315 C 0.87454 0.04844 0.46646 0.0
C316 C 0.85162 0.05306 0.48003 0.0
C317 C 0.77057 0.05832 0.51691 0.0
C318 C 0.8017 0.05853 0.50483 0.0
H319 H 0.85893 0.96676 0.43916 0.0
H320 H 0.82497 0.97292 0.46274 0.0
H321 H 0.84846 0.11344 0.47264 0.0
H322 H 0.74242 0.13376 0.53474 0.0
H323 H 0.80327 0.13508 0.51902 0.0
C324 C 0.93597 0.04446 0.77955 0.0
C325 C 0.94965 0.02744 0.76712 0.0
C326 C 0.90374 0.01287 0.78958 0.0
C327 C 0.84996 0.88901 0.80156 0.0
H328 H 0.75178 0.91066 0.8171 0.0
C329 C 0.68665 0.74597 0.83167 0.0
C330 C 0.67405 0.76076 0.84484 0.0
C331 C 0.72092 0.77931 0.82249 0.0
C332 C 0.77927 0.90442 0.81295 0.0
H333 H 0.94027 0.96382 0.75551 0.0
H334 H 0.88357 0.90889 0.77279 0.0
H335 H 0.81121 0.96771 0.80068 0.0
H336 H 0.68786 0.82231 0.85871 0.0
H337 H 0.7471 0.8805 0.84253 0.0
H338 H 0.8174 0.82526 0.81364 0.0
C339 C 0.89836 0.94666 0.77498 0.0
C340 C 0.81341 0.93714 0.80359 0.0
C341 C 0.93071 0.9782 0.76501 0.0
C342 C 0.69613 0.80972 0.84853 0.0
C343 C 0.73016 0.84307 0.83929 0.0
C344 C 0.81565 0.85617 0.81084 0.0
C345 C 0.88436 0.96357 0.78736 0.0
C346 C 0.84903 0.9297 0.79773 0.0
C347 C 0.7431 0.82817 0.82623 0.0
C348 C 0.77986 0.86344 0.81657 0.0
H349 H 0.95006 0.0822 0.78154 0.0
H350 H 0.89423 0.02712 0.79912 0.0
H351 H 0.8774 0.88263 0.79747 0.0
H352 H 0.66976 0.7086 0.82837 0.0
H353 H 0.72972 0.76688 0.81237 0.0
C354 C 0.10206 0.01226 0.11719 0.0
C355 C 0.11157 0.00664 0.10234 0.0
C356 C 0.11498 0.99278 0.12835 0.0
C357 C 0.18237 0.9334 0.13721 0.0
H358 H 0.08087 0.87092 0.16528 0.0
C359 C 0.15618 0.78398 0.17594 0.0
C360 C 0.13821 0.78447 0.19006 0.0
C361 C 0.16289 0.81814 0.16586 0.0
C362 C 0.10995 0.88879 0.1577 0.0
H363 H 0.14434 0.97867 0.0875 0.0
H364 H 0.16546 0.94264 0.10706 0.0
H365 H 0.07412 0.91751 0.1464 0.0
H366 H 0.1174 0.82317 0.20523 0.0
H367 H 0.12939 0.8829 0.18772 0.0
H368 H 0.21715 0.90257 0.14844 0.0
C369 C 0.14884 0.96298 0.1101 0.0
C370 C 0.10615 0.91566 0.14686 0.0
C371 C 0.13662 0.98339 0.0989 0.0
C372 C 0.13042 0.82154 0.19431 0.0
C373 C 0.13727 0.85565 0.1843 0.0
C374 C 0.18602 0.90603 0.14808 0.0
C375 C 0.13671 0.96619 0.1249 0.0
C376 C 0.14235 0.93857 0.13652 0.0
C377 C 0.1518 0.85323 0.16979 0.0
C378 C 0.14987 0.8837 0.15847 0.0
H379 H 0.08351 0.03081 0.12016 0.0
H380 H 0.10645 -0.00277 0.13968 0.0
H381 H 0.2109 0.95069 0.12943 0.0
H382 H 0.16233 0.75564 0.1724 0.0
H383 H 0.17394 0.81534 0.15473 0.0
C384 C 0.18101 0.10078 0.40704 0.0
C385 C 0.13389 0.08315 0.41148 0.0
C386 C 0.21645 0.10981 0.41747 0.0
C387 C 0.24283 0.12932 0.45782 0.0
H388 H 0.3291 0.08383 0.44918 0.0
C389 C 0.35813 0.06537 0.49182 0.0
C390 C 0.37854 0.10132 0.50308 0.0
C391 C 0.33519 0.07025 0.47965 0.0
C392 C 0.30526 0.09676 0.45174 0.0
H393 H 0.08712 0.06118 0.43036 0.0
H394 H 0.14844 0.07623 0.44836 0.0
H395 H 0.27473 0.0788 0.42985 0.0
H396 H 0.39197 0.17116 0.51023 0.0
H397 H 0.35252 0.18009 0.48879 0.0
H398 H 0.27148 0.14505 0.47989 0.0
C399 C 0.15832 0.08391 0.4369 0.0
C400 C 0.27451 0.09437 0.44063 0.0
C401 C 0.12303 0.07487 0.42653 0.0
C402 C 0.37669 0.1429 0.5017 0.0
C403 C 0.35377 0.14783 0.48949 0.0
C404 C 0.27344 0.13161 0.46893 0.0
C405 C 0.20542 0.10154 0.43251 0.0
C406 C 0.24214 0.10952 0.44366 0.0
C407 C 0.33227 0.1113 0.47842 0.0
C408 C 0.30421 0.11431 0.46612 0.0
H409 H 0.19054 0.10764 0.39553 0.0
H410 H 0.25252 0.1236 0.41377 0.0
H411 H 0.21881 0.14201 0.46042 0.0
H412 H 0.3597 0.03326 0.49242 0.0
H413 H 0.31852 0.04117 0.47142 0.0
C414 C 0.20395 0.20933 0.75744 0.0
C415 C 0.17951 0.2124 0.74522 0.0
C416 C 0.24311 0.25013 0.76374 0.0
C417 C 0.2941 0.37953 0.76735 0.0
H418 H 0.39562 0.37417 0.78731 0.0
C419 C 0.46363 0.49561 0.81115 0.0
C420 C 0.44062 0.51055 0.82122 0.0
C421 C 0.43935 0.46721 0.79858 0.0
C422 C 0.36822 0.37685 0.78155 0.0
H423 H 0.17813 0.2602 0.72957 0.0
H424 H 0.24716 0.33144 0.74041 0.0
H425 H 0.34042 0.30794 0.77098 0.0
H426 H 0.3748 0.50894 0.82579 0.0
H427 H 0.33236 0.45912 0.80411 0.0
H428 H 0.32191 0.44845 0.77793 0.0
C429 C 0.23546 0.29765 0.74533 0.0
C430 C 0.33608 0.33847 0.77236 0.0
C431 C 0.19601 0.25683 0.73909 0.0
C432 C 0.39373 0.49858 0.81811 0.0
C433 C 0.3694 0.47002 0.80563 0.0
C434 C 0.32651 0.4181 0.77644 0.0
C435 C 0.259 0.2949 0.75789 0.0
C436 C 0.29761 0.33862 0.76558 0.0
C437 C 0.39147 0.45293 0.79591 0.0
C438 C 0.36288 0.41646 0.78408 0.0
H439 H 0.19207 0.17558 0.7624 0.0
H440 H 0.25979 0.2467 0.77356 0.0
H441 H 0.26486 0.3809 0.76235 0.0
H442 H 0.49998 0.50481 0.81321 0.0
H443 H 0.45763 0.45532 0.79118 0.0
C444 C 0.91473 0.06075 0.6912 0.0
C445 C 0.94078 0.10633 0.69814 0.0
C446 C 0.8805 0.05106 0.68026 0.0
C447 C 0.84754 0.10651 0.65244 0.0
H448 H 0.71725 0.00577 0.65794 0.0
C449 C 0.69367 0.09699 0.6196 0.0
C450 C 0.65387 0.05245 0.61555 0.0
C451 C 0.72931 0.10043 0.62885 0.0
C452 C 0.75357 0.03341 0.65604 0.0
H453 H 0.95227 0.17772 0.69886 0.0
H454 H 0.89333 0.16101 0.67949 0.0
H455 H 0.77932 0.01705 0.67538 0.0
H456 H 0.62074 0.97641 0.61803 0.0
H457 H 0.68408 0.98228 0.63369 0.0
H458 H 0.82255 0.12272 0.63305 0.0
C459 C 0.89914 0.13279 0.68263 0.0
C460 C 0.789 0.03992 0.66607 0.0
C461 C 0.93262 0.14223 0.69375 0.0
C462 C 0.65103 0.01129 0.62083 0.0
C463 C 0.68711 0.0147 0.62997 0.0
C464 C 0.81237 0.09956 0.64228 0.0
C465 C 0.87258 0.08708 0.67587 0.0
C466 C 0.83603 0.07714 0.66451 0.0
C467 C 0.72667 0.05937 0.63412 0.0
C468 C 0.76471 0.06365 0.64414 0.0
H469 H 0.92017 0.03236 0.6944 0.0
H470 H 0.86043 0.01557 0.67516 0.0
H471 H 0.88377 0.13508 0.65093 0.0
H472 H 0.69768 0.12945 0.61553 0.0
H473 H 0.75871 0.13551 0.632 0.0
C474 C 0.96525 0.93475 0.02412 0.0
C475 C 0.94819 0.94414 0.03735 0.0
C476 C 0.93501 0.91343 0.01179 0.0
C477 C 0.80978 0.84202 -3e-05 0.0
H478 H 0.85473 0.9048 0.96284 0.0
C479 C 0.68409 0.78929 0.94974 0.0
C480 C 0.70157 0.78499 0.93588 0.0
C481 C 0.71483 0.81092 0.96191 0.0
C482 C 0.84184 0.88652 0.97307 0.0
H483 H 0.88572 0.93652 0.04827 0.0
H484 H 0.83277 0.89868 0.02677 0.0
H485 H 0.907 0.93447 0.98472 0.0
H486 H 0.7653 0.80191 0.9238 0.0
H487 H 0.81897 0.83864 0.94518 0.0
H488 H 0.74494 0.79364 0.98837 0.0
C489 C 0.86954 0.90802 0.02594 0.0
C490 C 0.87177 0.90349 0.98558 0.0
C491 C 0.89985 0.92975 0.03823 0.0
C492 C 0.75075 0.80442 0.93436 0.0
C493 C 0.78152 0.82581 0.94658 0.0
C494 C 0.77999 0.8248 0.98744 0.0
C495 C 0.88709 0.90064 0.01252 0.0
C496 C 0.85593 0.8815 -0.00084 0.0
C497 C 0.76373 0.82834 0.96057 0.0
C498 C 0.79556 0.84701 0.97386 0.0
H499 H 0.00233 0.94539 0.02311 0.0
H500 H 0.94924 0.90752 0.00162 0.0
H501 H 0.7969 0.82413 0.01027 0.0
H502 H 0.64633 0.774 0.95139 0.0
H503 H 0.70006 0.81307 0.97246 0.0
C504 C 0.94593 0.8842 0.35468 0.0
C505 C 0.94973 0.89777 0.36977 0.0
C506 C 0.93721 0.83913 0.35028 0.0
C507 C 0.96947 0.75655 0.36135 0.0
H508 H 0.89054 0.68031 0.32764 0.0
C509 C 0.94924 0.60402 0.3149 0.0
C510 C 0.99481 0.62996 0.30879 0.0
C511 C 0.9353 0.62444 0.32623 0.0
C512 C 0.91202 0.70043 0.33729 0.0
H513 H 0.94532 0.87432 0.39214 0.0
H514 H 0.93168 0.79564 0.38437 0.0
H515 H 0.87583 0.73919 0.34001 0.0
H516 H 0.0622 0.69701 0.31057 0.0
H517 H 0.0385 0.73126 0.3306 0.0
H518 H 0.0082 0.72062 0.35784 0.0
C519 C 0.93468 0.81977 0.37601 0.0
C520 C 0.90375 0.73423 0.3443 0.0
C521 C 0.94236 0.86462 0.38042 0.0
C522 C 0.02717 0.67534 0.31508 0.0
C523 C 0.01355 0.69523 0.32658 0.0
C524 C 0.97821 0.72328 0.3542 0.0
C525 C 0.93303 0.80709 0.36089 0.0
C526 C 0.93359 0.76381 0.35601 0.0
C527 C 0.96706 0.67065 0.3319 0.0
C528 C 0.95071 0.6963 0.34176 0.0
H529 H 0.95126 0.90903 0.34625 0.0
H530 H 0.93665 0.83043 0.33856 0.0
H531 H 0.9932 0.77919 0.37029 0.0
H532 H 0.92368 0.56856 0.31061 0.0
H533 H 0.89929 0.60477 0.33022 0.0
C534 C 0.11995 0.98152 0.70778 0.0
C535 C 0.10571 0.00994 0.70081 0.0
C536 C 0.14582 0.96468 0.70003 0.0
C537 C 0.23275 0.97348 0.68441 0.0
H538 H 0.21203 0.93845 0.64245 0.0
C539 C 0.38312 0.02065 0.64366 0.0
C540 C 0.37455 0.99205 0.63071 0.0
C541 C 0.3474 0.00853 0.65403 0.0
C542 C 0.21803 0.94712 0.65424 0.0
H543 H 0.10484 0.04064 0.68008 0.0
H544 H 0.14977 0.01141 0.6666 0.0
H545 H 0.15009 0.94083 0.65669 0.0
H546 H 0.32283 0.92641 0.61902 0.0
H547 H 0.26105 0.90467 0.63731 0.0
H548 H 0.30132 0.98112 0.68185 0.0
C549 C 0.14092 0.00187 0.67801 0.0
C550 C 0.18266 0.94898 0.66235 0.0
C551 C 0.11545 0.01895 0.68576 0.0
C552 C 0.33075 0.94917 0.62891 0.0
C553 C 0.2951 0.93694 0.63931 0.0
C554 C 0.26819 0.97158 0.67629 0.0
C555 C 0.15741 0.97556 0.68515 0.0
C556 C 0.19038 0.96395 0.67738 0.0
C557 C 0.30239 0.96742 0.65169 0.0
C558 C 0.26189 0.96009 0.66099 0.0
H559 H 0.11287 0.97394 0.71938 0.0
H560 H 0.15779 0.94418 0.70577 0.0
H561 H 0.23982 0.9853 0.69598 0.0
H562 H 0.41676 0.05353 0.64547 0.0
H563 H 0.35421 0.03301 0.66339 0.0
C564 C 0.16309 0.19421 0.03747 0.0
C565 C 0.11395 0.17059 0.03444 0.0
C566 C 0.19512 0.22953 0.02828 0.0
C567 C 0.20129 0.30963 -0.00072 0.0
H568 H 0.31771 0.31278 0.98873 0.0
C569 C 0.31286 0.40831 0.94932 0.0
C570 C 0.36238 0.43629 0.95152 0.0
C571 C 0.2841 0.37835 0.96024 0.0
C572 C 0.28558 0.31263 0.99172 0.0
H573 H 0.05997 0.16553 0.01936 0.0
H574 H 0.11564 0.22603 0.00322 0.0
H575 H 0.26464 0.2561 0.00651 0.0
H576 H 0.42038 0.45505 0.96705 0.0
H577 H 0.37005 0.40181 0.98599 0.0
H578 H 0.22172 0.36528 0.98415 0.0
C579 C 0.12952 0.21819 0.01286 0.0
C580 C 0.25524 0.2803 0.00193 0.0
C581 C 0.09756 0.18321 0.02208 0.0
C582 C 0.38247 0.43341 0.96489 0.0
C583 C 0.35369 0.40309 0.97576 0.0
C584 C 0.23141 0.34162 0.98899 0.0
C585 C 0.17869 0.24176 0.01582 0.0
C586 C 0.21247 0.27807 0.0057 0.0
C587 C 0.30424 0.37541 0.97355 0.0
C588 C 0.27358 0.34309 0.985 0.0
H589 H 0.17686 0.18548 0.04694 0.0
H590 H 0.23274 0.24741 0.03097 0.0
H591 H 0.16914 0.30957 0.00217 0.0
H592 H 0.29629 0.40897 0.93906 0.0
H593 H 0.24611 0.35682 0.95817 0.0
C594 C 0.91368 0.11447 0.36056 0.0
C595 C 0.95791 0.12136 0.36503 0.0
C596 C 0.91143 0.14579 0.35094 0.0
C597 C 0.98649 0.26754 0.33771 0.0
H598 H 0.89776 0.22368 0.30435 0.0
C599 C 0.02098 0.3788 0.28747 0.0
C600 C 0.98562 0.38869 0.28346 0.0
C601 C 0.01153 0.34412 0.29755 0.0
C602 C 0.92226 0.2363 0.31374 0.0
H603 H 0.03425 0.16526 0.36254 0.0
H604 H 0.03033 0.21879 0.34566 0.0
H605 H 0.89249 0.16651 0.32214 0.0
H606 H 0.91177 0.36806 0.28638 0.0
H607 H 0.89497 0.30603 0.30383 0.0
H608 H 0.01748 0.33678 0.32903 0.0
C609 C -0.00262 0.19023 0.34985 0.0
C610 C 0.91923 0.20375 0.32393 0.0
C611 C -0.00038 0.1593 0.35946 0.0
C612 C 0.93973 0.3612 0.2892 0.0
C613 C 0.9301 0.32588 0.2992 0.0
C614 C 0.98978 0.29975 0.32751 0.0
C615 C 0.95339 0.18437 0.34564 0.0
C616 C 0.95222 0.21893 0.33579 0.0
C617 C 0.96634 0.31798 0.3037 0.0
C618 C 0.9585 0.28425 0.31526 0.0
H619 H 0.88095 0.08545 0.36469 0.0
H620 H 0.87702 0.14041 0.34791 0.0
H621 H 0.01156 0.28061 0.34696 0.0
H622 H 0.05629 0.39828 0.28294 0.0
H623 H 0.03978 0.33798 0.30067 0.0
loop_
_geom_bond_atom_site_label_1
_geom_bond_atom_site_label_2
_geom_bond_distance
_geom_bond_site_symmetry_2
_ccdc_geom_bond_type
C0 O1 1.306 . S
C0 O3 1.160 . S
O1 C0 1.306 . S
O1 Cd2 2.228 . S
Cd2 O1 2.228 . S
Cd2 O6 2.273 1_455 S
Cd2 O10 2.277 . S
O3 C0 1.160 . S
O3 Cd4 2.203 . S
Cd4 O3 2.203 . S
Cd4 O6 2.411 1_455 S
Cd4 O7 2.333 . S
Cd4 O8 2.352 . S
Cd4 O12 2.277 . S
Cd4 O13 2.356 . S
C5 O10 1.209 . S
C5 O12 1.226 . S
O6 Cd2 2.273 1_655 S
O6 Cd4 2.411 1_655 S
O6 C9 1.320 . S
O7 Cd4 2.333 . S
O7 C9 1.214 1_455 S
O8 Cd4 2.352 . S
O8 C11 1.258 . S
C9 O6 1.320 . S
C9 O7 1.214 1_655 S
O10 Cd2 2.277 . S
O10 C5 1.209 . S
C11 O8 1.258 . S
C11 O13 1.282 . S
O12 Cd4 2.277 . S
O12 C5 1.226 . S
O13 Cd4 2.356 . S
O13 C11 1.282 . S
C14 O15 1.306 . S
C14 O17 1.160 . S
O15 C14 1.306 . S
O15 Cd16 2.228 . S
Cd16 O15 2.228 . S
Cd16 O20 2.273 . S
Cd16 O24 2.277 . S
O17 C14 1.160 . S
O17 Cd18 2.203 1_455 S
Cd18 O17 2.203 1_655 S
Cd18 O20 2.411 1_655 S
Cd18 O21 2.333 . S
Cd18 O22 2.352 . S
Cd18 O26 2.277 1_545 S
Cd18 O27 2.356 1_545 S
C19 O24 1.209 1_565 S
C19 O26 1.226 1_455 S
O20 Cd16 2.273 . S
O20 Cd18 2.411 1_455 S
O20 C23 1.320 . S
O21 Cd18 2.333 . S
O21 C23 1.214 1_655 S
O22 Cd18 2.352 . S
O22 C25 1.258 . S
C23 O20 1.320 . S
C23 O21 1.214 1_455 S
O24 Cd16 2.277 . S
O24 C19 1.209 1_545 S
C25 O22 1.258 . S
C25 O27 1.282 1_545 S
O26 Cd18 2.277 1_565 S
O26 C19 1.226 1_655 S
O27 Cd18 2.356 1_565 S
O27 C25 1.282 1_565 S
C28 O29 1.314 1_655 S
C28 O31 1.136 1_655 S
O29 C28 1.314 1_455 S
O29 Cd30 2.228 . S
Cd30 O29 2.228 . S
Cd30 O34 2.273 . S
Cd30 O38 2.277 . S
O31 C28 1.136 1_455 S
O31 Cd32 2.203 . S
Cd32 O31 2.203 . S
Cd32 O34 2.411 . S
Cd32 O35 2.333 . S
Cd32 O36 2.352 . S
Cd32 O40 2.277 . S
Cd32 O41 2.356 . S
C33 O38 1.200 . S
C33 O40 1.244 . S
O34 Cd30 2.273 . S
O34 Cd32 2.411 . S
O34 C37 1.320 . S
O35 Cd32 2.333 . S
O35 C37 1.214 . S
O36 Cd32 2.352 . S
O36 C39 1.258 . S
C37 O34 1.320 . S
C37 O35 1.214 . S
O38 Cd30 2.277 . S
O38 C33 1.200 . S
C39 O36 1.258 . S
C39 O41 1.282 . S
O40 Cd32 2.277 . S
O40 C33 1.244 . S
O41 Cd32 2.356 . S
O41 C39 1.282 . S
H42 O68 0.856 . S
H43 O71 0.854 . S
H44 C79 0.930 . S
H45 C80 0.930 . S
H46 C82 0.930 . S
H47 C83 0.930 . S
H48 C85 0.931 1_655 S
H49 C86 0.930 1_655 S
H50 C88 0.930 . S
H51 C89 0.929 . S
H52 C91 0.930 1_655 S
H53 C92 0.931 1_655 S
H54 C94 0.930 . S
H55 C95 0.929 . S
H56 C97 0.931 1_655 S
H57 C98 0.930 1_655 S
H58 C100 0.930 . S
H59 C101 0.932 . S
H60 C103 0.930 . S
H61 C104 0.929 . S
H62 C106 0.931 . S
H63 C107 0.930 . S
H64 C109 0.929 . S
H65 C110 0.935 . S
H66 C112 0.930 . S
H67 C113 0.929 . S
O68 H42 0.856 . S
O68 C114 1.300 . S
O69 C114 1.209 . S
O70 C115 1.199 . S
O71 H43 0.854 . S
O71 C115 1.297 . S
C72 C73 1.404 . S
C72 C77 1.397 . S
C72 C78 1.492 . S
C73 C72 1.404 . S
C73 C74 1.396 . S
C73 C84 1.492 . S
C74 C73 1.396 . S
C74 C75 1.397 . S
C74 C90 1.509 . S
C75 C74 1.397 . S
C75 C76 1.412 . S
C75 C96 1.485 . S
C76 C75 1.412 . S
C76 C77 1.388 . S
C76 C102 1.490 . S
C77 C72 1.397 . S
C77 C76 1.388 . S
C77 C108 1.519 . S
C78 C72 1.492 . S
C78 C79 1.363 1_455 S
C78 C83 1.390 . S
C79 H44 0.930 . S
C79 C78 1.363 1_655 S
C79 C80 1.372 . S
C80 H45 0.930 . S
C80 C79 1.372 . S
C80 C81 1.383 1_655 S
C81 C80 1.383 1_455 S
C81 C82 1.395 . S
C82 H46 0.930 . S
C82 C81 1.395 . S
C82 C83 1.362 . S
C83 H47 0.930 . S
C83 C78 1.390 . S
C83 C82 1.362 . S
C84 C73 1.492 . S
C84 C85 1.377 . S
C84 C89 1.397 . S
C85 H48 0.931 1_455 S
C85 C84 1.377 . S
C85 C86 1.376 . S
C86 H49 0.930 1_455 S
C86 C85 1.376 . S
C86 C87 1.376 . S
C87 C86 1.376 . S
C87 C88 1.378 . S
C87 C114 1.486 . S
C88 H50 0.930 . S
C88 C87 1.378 . S
C88 C89 1.376 . S
C89 H51 0.929 . S
C89 C84 1.397 . S
C89 C88 1.376 . S
C90 C74 1.509 . S
C90 C91 1.391 . S
C90 C95 1.386 . S
C91 H52 0.930 1_455 S
C91 C90 1.391 . S
C91 C92 1.375 . S
C92 H53 0.931 1_455 S
C92 C91 1.375 . S
C92 C93 1.375 . S
C93 C92 1.375 . S
C93 C94 1.361 . S
C94 H54 0.930 . S
C94 C93 1.361 . S
C94 C95 1.399 . S
C95 H55 0.929 . S
C95 C90 1.386 . S
C95 C94 1.399 . S
C96 C75 1.485 . S
C96 C97 1.394 . S
C96 C101 1.360 . S
C97 H56 0.931 1_455 S
C97 C96 1.394 . S
C97 C98 1.372 . S
C98 H57 0.930 1_455 S
C98 C97 1.372 . S
C98 C99 1.397 . S
C99 C98 1.397 . S
C99 C100 1.390 . S
C99 C115 1.476 . S
C100 H58 0.930 . S
C100 C99 1.390 . S
C100 C101 1.366 . S
C101 H59 0.932 . S
C101 C96 1.360 . S
C101 C100 1.366 . S
C102 C76 1.490 . S
C102 C103 1.380 1_455 S
C102 C107 1.386 . S
C103 H60 0.930 . S
C103 C102 1.380 1_655 S
C103 C104 1.381 . S
C104 H61 0.929 . S
C104 C103 1.381 . S
C104 C105 1.371 1_655 S
C105 C104 1.371 1_455 S
C105 C106 1.380 . S
C106 H62 0.931 . S
C106 C105 1.380 . S
C106 C107 1.387 . S
C107 H63 0.930 . S
C107 C102 1.386 . S
C107 C106 1.387 . S
C108 C77 1.519 . S
C108 C109 1.377 1_455 S
C108 C113 1.361 . S
C109 H64 0.929 . S
C109 C108 1.377 1_655 S
C109 C110 1.390 . S
C110 H65 0.935 . S
C110 C109 1.390 . S
C110 C111 1.355 1_655 S
C111 C110 1.355 1_455 S
C111 C112 1.385 . S
C112 H66 0.930 . S
C112 C111 1.385 . S
C112 C113 1.396 . S
C113 H67 0.929 . S
C113 C108 1.361 . S
C113 C112 1.396 . S
C114 O68 1.300 . S
C114 O69 1.209 . S
C114 C87 1.486 . S
C115 O70 1.199 . S
C115 O71 1.297 . S
C115 C99 1.476 . S
H116 O142 0.856 . S
H117 O145 0.854 . S
H118 C153 0.930 . S
H119 C154 0.930 1_565 S
H120 C156 0.930 . S
H121 C157 0.930 . S
H122 C159 0.931 . S
H123 C160 0.930 . S
H124 C162 0.930 . S
H125 C163 0.929 . S
H126 C165 0.930 . S
H127 C166 0.931 . S
H128 C168 0.930 . S
H129 C169 0.929 . S
H130 C171 0.931 . S
H131 C172 0.930 . S
H132 C174 0.930 . S
H133 C175 0.932 . S
H134 C177 0.930 . S
H135 C178 0.929 . S
H136 C180 0.931 . S
H137 C181 0.930 . S
H138 C183 0.929 . S
H139 C184 0.931 . S
H140 C186 0.930 . S
H141 C187 0.929 . S
O142 H116 0.856 . S
O142 C188 1.300 . S
O143 C188 1.209 . S
O144 C189 1.199 . S
O145 H117 0.854 . S
O145 C189 1.297 . S
C146 C147 1.404 . S
C146 C151 1.397 . S
C146 C152 1.492 . S
C147 C146 1.404 . S
C147 C148 1.396 . S
C147 C158 1.492 . S
C148 C147 1.396 . S
C148 C149 1.397 . S
C148 C164 1.509 . S
C149 C148 1.397 . S
C149 C150 1.412 . S
C149 C170 1.485 . S
C150 C149 1.412 . S
C150 C151 1.388 . S
C150 C176 1.490 . S
C151 C146 1.397 . S
C151 C150 1.388 . S
C151 C182 1.519 . S
C152 C146 1.492 . S
C152 C153 1.363 . S
C152 C157 1.390 . S
C153 H118 0.930 . S
C153 C152 1.363 . S
C153 C154 1.372 . S
C154 H119 0.930 1_545 S
C154 C153 1.372 . S
C154 C155 1.383 . S
C155 C154 1.383 . S
C155 C156 1.395 . S
C156 H120 0.930 . S
C156 C155 1.395 . S
C156 C157 1.362 . S
C157 H121 0.930 . S
C157 C152 1.390 . S
C157 C156 1.362 . S
C158 C147 1.492 . S
C158 C159 1.377 . S
C158 C163 1.397 . S
C159 H122 0.931 . S
C159 C158 1.377 . S
C159 C160 1.376 . S
C160 H123 0.930 . S
C160 C159 1.376 . S
C160 C161 1.376 . S
C161 C160 1.376 . S
C161 C162 1.378 . S
C161 C188 1.486 . S
C162 H124 0.930 . S
C162 C161 1.378 . S
C162 C163 1.376 . S
C163 H125 0.929 . S
C163 C158 1.397 . S
C163 C162 1.376 . S
C164 C148 1.509 . S
C164 C165 1.391 . S
C164 C169 1.386 . S
C165 H126 0.930 . S
C165 C164 1.391 . S
C165 C166 1.375 . S
C166 H127 0.931 . S
C166 C165 1.375 . S
C166 C167 1.375 . S
C167 C166 1.375 . S
C167 C168 1.361 . S
C168 H128 0.930 . S
C168 C167 1.361 . S
C168 C169 1.399 . S
C169 H129 0.929 . S
C169 C164 1.386 . S
C169 C168 1.399 . S
C170 C149 1.485 . S
C170 C171 1.394 . S
C170 C175 1.360 . S
C171 H130 0.931 . S
C171 C170 1.394 . S
C171 C172 1.372 . S
C172 H131 0.930 . S
C172 C171 1.372 . S
C172 C173 1.397 . S
C173 C172 1.397 . S
C173 C174 1.390 . S
C173 C189 1.476 . S
C174 H132 0.930 . S
C174 C173 1.390 . S
C174 C175 1.366 . S
C175 H133 0.932 . S
C175 C170 1.360 . S
C175 C174 1.366 . S
C176 C150 1.490 . S
C176 C177 1.380 . S
C176 C181 1.386 . S
C177 H134 0.930 . S
C177 C176 1.380 . S
C177 C178 1.381 . S
C178 H135 0.929 . S
C178 C177 1.381 . S
C178 C179 1.371 . S
C179 C178 1.371 . S
C179 C180 1.380 . S
C180 H136 0.931 . S
C180 C179 1.380 . S
C180 C181 1.387 . S
C181 H137 0.930 . S
C181 C176 1.386 . S
C181 C180 1.387 . S
C182 C151 1.519 . S
C182 C183 1.377 . S
C182 C187 1.361 . S
C183 H138 0.929 . S
C183 C182 1.377 . S
C183 C184 1.386 . S
C184 H139 0.931 . S
C184 C183 1.386 . S
C184 C185 1.363 . S
C185 C184 1.363 . S
C185 C186 1.385 . S
C186 H140 0.930 . S
C186 C185 1.385 . S
C186 C187 1.396 . S
C187 H141 0.929 . S
C187 C182 1.361 . S
C187 C186 1.396 . S
C188 O142 1.300 . S
C188 O143 1.209 . S
C188 C161 1.486 . S
C189 O144 1.199 . S
C189 O145 1.297 . S
C189 C173 1.476 . S
H190 O216 0.856 . S
H191 O219 0.854 . S
H192 C227 0.930 . S
H193 C228 0.930 . S
H194 C230 0.930 . S
H195 C231 0.930 . S
H196 C233 0.931 . S
H197 C234 0.930 . S
H198 C236 0.930 . S
H199 C237 0.929 . S
H200 C239 0.930 . S
H201 C240 0.931 . S
H202 C242 0.930 . S
H203 C243 0.929 . S
H204 C245 0.931 . S
H205 C246 0.930 . S
H206 C248 0.930 . S
H207 C249 0.932 . S
H208 C251 0.930 . S
H209 C252 0.929 . S
H210 C254 0.931 . S
H211 C255 0.930 . S
H212 C257 0.929 . S
H213 C258 0.931 . S
H214 C260 0.930 . S
H215 C261 0.929 . S
O216 H190 0.856 . S
O216 C262 1.300 1_554 S
O217 C262 1.209 . S
O218 C263 1.199 . S
O219 H191 0.854 . S
O219 C263 1.297 . S
C220 C221 1.404 . S
C220 C225 1.397 . S
C220 C226 1.492 . S
C221 C220 1.404 . S
C221 C222 1.396 . S
C221 C232 1.492 . S
C222 C221 1.396 . S
C222 C223 1.397 . S
C222 C238 1.509 . S
C223 C222 1.397 . S
C223 C224 1.412 . S
C223 C244 1.485 . S
C224 C223 1.412 . S
C224 C225 1.388 . S
C224 C250 1.490 . S
C225 C220 1.397 . S
C225 C224 1.388 . S
C225 C256 1.519 . S
C226 C220 1.492 . S
C226 C227 1.363 . S
C226 C231 1.390 . S
C227 H192 0.930 . S
C227 C226 1.363 . S
C227 C228 1.372 . S
C228 H193 0.930 . S
C228 C227 1.372 . S
C228 C229 1.383 . S
C229 C228 1.383 . S
C229 C230 1.395 . S
C230 H194 0.930 . S
C230 C229 1.395 . S
C230 C231 1.362 . S
C231 H195 0.930 . S
C231 C226 1.390 . S
C231 C230 1.362 . S
C232 C221 1.492 . S
C232 C233 1.377 . S
C232 C237 1.397 . S
C233 H196 0.931 . S
C233 C232 1.377 . S
C233 C234 1.376 . S
C234 H197 0.930 . S
C234 C233 1.376 . S
C234 C235 1.376 . S
C235 C234 1.376 . S
C235 C236 1.378 . S
C235 C262 1.486 . S
C236 H198 0.930 . S
C236 C235 1.378 . S
C236 C237 1.376 . S
C237 H199 0.929 . S
C237 C232 1.397 . S
C237 C236 1.376 . S
C238 C222 1.509 . S
C238 C239 1.391 . S
C238 C243 1.386 . S
C239 H200 0.930 . S
C239 C238 1.391 . S
C239 C240 1.375 . S
C240 H201 0.931 . S
C240 C239 1.375 . S
C240 C241 1.375 . S
C241 C240 1.375 . S
C241 C242 1.361 . S
C242 H202 0.930 . S
C242 C241 1.361 . S
C242 C243 1.399 . S
C243 H203 0.929 . S
C243 C238 1.386 . S
C243 C242 1.399 . S
C244 C223 1.485 . S
C244 C245 1.394 . S
C244 C249 1.360 . S
C245 H204 0.931 . S
C245 C244 1.394 . S
C245 C246 1.372 . S
C246 H205 0.930 . S
C246 C245 1.372 . S
C246 C247 1.397 . S
C247 C246 1.397 . S
C247 C248 1.390 . S
C247 C263 1.476 . S
C248 H206 0.930 . S
C248 C247 1.390 . S
C248 C249 1.366 . S
C249 H207 0.932 . S
C249 C244 1.360 . S
C249 C248 1.366 . S
C250 C224 1.490 . S
C250 C251 1.380 . S
C250 C255 1.386 . S
C251 H208 0.930 . S
C251 C250 1.380 . S
C251 C252 1.381 . S
C252 H209 0.929 . S
C252 C251 1.381 . S
C252 C253 1.371 . S
C253 C252 1.371 . S
C253 C254 1.380 . S
C254 H210 0.931 . S
C254 C253 1.380 . S
C254 C255 1.387 . S
C255 H211 0.930 . S
C255 C250 1.386 . S
C255 C254 1.387 . S
C256 C225 1.519 . S
C256 C257 1.377 . S
C256 C261 1.361 . S
C257 H212 0.929 . S
C257 C256 1.377 . S
C257 C258 1.386 . S
C258 H213 0.931 . S
C258 C257 1.386 . S
C258 C259 1.363 . S
C259 C258 1.363 . S
C259 C260 1.385 . S
C260 H214 0.930 . S
C260 C259 1.385 . S
C260 C261 1.396 . S
C261 H215 0.929 . S
C261 C256 1.361 . S
C261 C260 1.396 . S
C262 O216 1.300 1_556 S
C262 O217 1.209 . S
C262 C235 1.486 . S
C263 O218 1.199 . S
C263 O219 1.297 . S
C263 C247 1.476 . S
C264 C265 1.349 . S
C264 C266 1.327 . S
C264 H289 0.950 . S
C265 C264 1.349 . S
C265 C281 1.349 . S
C266 C264 1.327 . S
C266 C285 1.429 . S
C266 H290 0.950 . S
C267 C284 1.574 . S
C267 C286 1.368 . S
C267 H291 0.949 . S
H268 C272 0.949 . S
C269 C270 1.349 . S
C269 C271 1.327 . S
C269 H292 0.950 1_455 S
C270 C269 1.349 . S
C270 C282 1.349 . S
C271 C269 1.327 . S
C271 C287 1.429 . S
C271 H293 0.954 1_455 S
C272 H268 0.949 . S
C272 C280 1.574 . S
C272 C288 1.368 . S
H273 C281 0.950 . S
H274 C279 0.950 . S
H275 C280 0.949 . S
H276 C282 0.950 . S
H277 C283 0.950 . S
H278 C284 0.949 . S
C279 H274 0.950 . S
C279 C281 1.327 . S
C279 C285 1.429 . S
C280 C272 1.574 . S
C280 H275 0.949 . S
C280 C286 1.368 . S
C281 C265 1.349 . S
C281 H273 0.950 . S
C281 C279 1.327 . S
C282 C270 1.349 . S
C282 H276 0.950 . S
C282 C283 1.327 . S
C283 H277 0.950 . S
C283 C282 1.327 . S
C283 C287 1.429 . S
C284 C267 1.574 . S
C284 H278 0.949 . S
C284 C288 1.368 . S
C285 C266 1.429 . S
C285 C279 1.429 . S
C285 C286 1.523 . S
C286 C267 1.368 . S
C286 C280 1.368 . S
C286 C285 1.523 . S
C287 C271 1.429 . S
C287 C283 1.429 . S
C287 C288 1.523 . S
C288 C272 1.368 . S
C288 C284 1.368 . S
C288 C287 1.523 . S
H289 C264 0.950 . S
H290 C266 0.950 . S
H291 C267 0.949 . S
H292 C269 0.950 1_655 S
H293 C271 0.954 1_655 S
C294 C295 1.349 . S
C294 C296 1.327 . S
C294 H319 0.950 1_545 S
C295 C294 1.349 . S
C295 C311 1.349 . S
C296 C294 1.327 . S
C296 C315 1.429 . S
C296 H320 0.950 1_545 S
C297 C314 1.574 . S
C297 C316 1.368 . S
C297 H321 0.949 . S
H298 C302 0.949 1_565 S
C299 C300 1.349 . S
C299 C301 1.327 . S
C299 H322 0.950 . S
C300 C299 1.349 . S
C300 C312 1.349 . S
C301 C299 1.327 . S
C301 C317 1.429 . S
C301 H323 0.950 . S
C302 H298 0.949 1_545 S
C302 C310 1.574 . S
C302 C318 1.368 . S
H303 C311 0.950 . S
H304 C309 0.950 . S
H305 C310 0.949 1_565 S
H306 C312 0.950 1_565 S
H307 C313 0.950 1_565 S
H308 C314 0.949 . S
C309 H304 0.950 . S
C309 C311 1.327 . S
C309 C315 1.429 . S
C310 C302 1.574 . S
C310 H305 0.949 1_545 S
C310 C316 1.368 . S
C311 C295 1.349 . S
C311 H303 0.950 . S
C311 C309 1.327 . S
C312 C300 1.349 . S
C312 H306 0.950 1_545 S
C312 C313 1.327 . S
C313 H307 0.950 1_545 S
C313 C312 1.327 . S
C313 C317 1.429 . S
C314 C297 1.574 . S
C314 H308 0.949 . S
C314 C318 1.368 . S
C315 C296 1.429 . S
C315 C309 1.429 . S
C315 C316 1.523 . S
C316 C297 1.368 . S
C316 C310 1.368 . S
C316 C315 1.523 . S
C317 C301 1.429 . S
C317 C313 1.429 . S
C317 C318 1.523 . S
C318 C302 1.368 . S
C318 C314 1.368 . S
C318 C317 1.523 . S
H319 C294 0.950 1_565 S
H320 C296 0.950 1_565 S
H321 C297 0.949 . S
H322 C299 0.950 . S
H323 C301 0.950 . S
C324 C325 1.350 1_545 S
C324 C326 1.328 1_545 S
C324 H349 0.948 . S
C325 C324 1.350 1_565 S
C325 C341 1.349 . S
C326 C324 1.328 1_565 S
C326 C345 1.429 . S
C326 H350 0.950 . S
C327 C344 1.574 . S
C327 C346 1.368 . S
C327 H351 0.949 . S
H328 C332 0.949 . S
C329 C330 1.349 . S
C329 C331 1.327 . S
C329 H352 0.950 . S
C330 C329 1.349 . S
C330 C342 1.349 . S
C331 C329 1.327 . S
C331 C347 1.429 . S
C331 H353 0.950 . S
C332 H328 0.949 . S
C332 C340 1.574 . S
C332 C348 1.368 . S
H333 C341 0.950 . S
H334 C339 0.950 . S
H335 C340 0.949 . S
H336 C342 0.950 . S
H337 C343 0.950 . S
H338 C344 0.949 . S
C339 H334 0.950 . S
C339 C341 1.327 . S
C339 C345 1.429 . S
C340 C332 1.574 . S
C340 H335 0.949 . S
C340 C346 1.368 . S
C341 C325 1.349 . S
C341 H333 0.950 . S
C341 C339 1.327 . S
C342 C330 1.349 . S
C342 H336 0.950 . S
C342 C343 1.327 . S
C343 H337 0.950 . S
C343 C342 1.327 . S
C343 C347 1.429 . S
C344 C327 1.574 . S
C344 H338 0.949 . S
C344 C348 1.368 . S
C345 C326 1.429 . S
C345 C339 1.429 . S
C345 C346 1.523 . S
C346 C327 1.368 . S
C346 C340 1.368 . S
C346 C345 1.523 . S
C347 C331 1.429 . S
C347 C343 1.429 . S
C347 C348 1.523 . S
C348 C332 1.368 . S
C348 C344 1.368 . S
C348 C347 1.523 . S
H349 C324 0.948 . S
H350 C326 0.950 . S
H351 C327 0.949 . S
H352 C329 0.950 . S
H353 C331 0.950 . S
C354 C355 1.349 . S
C354 C356 1.327 . S
C354 H379 0.950 . S
C355 C354 1.349 . S
C355 C371 1.349 . S
C356 C354 1.327 . S
C356 C375 1.429 . S
C356 H380 0.950 . S
C357 C374 1.574 . S
C357 C376 1.368 . S
C357 H381 0.949 . S
H358 C362 0.949 . S
C359 C360 1.349 . S
C359 C361 1.327 . S
C359 H382 0.950 . S
C360 C359 1.349 . S
C360 C372 1.349 . S
C361 C359 1.327 . S
C361 C377 1.429 . S
C361 H383 0.950 . S
C362 H358 0.949 . S
C362 C370 1.574 . S
C362 C378 1.368 . S
H363 C371 0.950 . S
H364 C369 0.950 . S
H365 C370 0.949 . S
H366 C372 0.950 . S
H367 C373 0.950 . S
H368 C374 0.949 . S
C369 H364 0.950 . S
C369 C371 1.327 . S
C369 C375 1.429 . S
C370 C362 1.574 . S
C370 H365 0.949 . S
C370 C376 1.368 . S
C371 C355 1.349 . S
C371 H363 0.950 . S
C371 C369 1.327 . S
C372 C360 1.349 . S
C372 H366 0.950 . S
C372 C373 1.327 . S
C373 H367 0.950 . S
C373 C372 1.327 . S
C373 C377 1.429 . S
C374 C357 1.574 . S
C374 H368 0.949 . S
C374 C378 1.368 . S
C375 C356 1.429 . S
C375 C369 1.429 . S
C375 C376 1.523 . S
C376 C357 1.368 . S
C376 C370 1.368 . S
C376 C375 1.523 . S
C377 C361 1.429 . S
C377 C373 1.429 . S
C377 C378 1.523 . S
C378 C362 1.368 . S
C378 C374 1.368 . S
C378 C377 1.523 . S
H379 C354 0.950 . S
H380 C356 0.950 . S
H381 C357 0.949 . S
H382 C359 0.950 . S
H383 C361 0.950 . S
C384 C385 1.349 . S
C384 C386 1.327 . S
C384 H409 0.950 . S
C385 C384 1.349 . S
C385 C401 1.349 . S
C386 C384 1.327 . S
C386 C405 1.429 . S
C386 H410 0.950 . S
C387 C404 1.574 . S
C387 C406 1.368 . S
C387 H411 0.949 1_545 S
H388 C392 0.949 . S
C389 C390 1.349 . S
C389 C391 1.327 . S
C389 H412 0.950 . S
C390 C389 1.349 . S
C390 C402 1.349 . S
C391 C389 1.327 . S
C391 C407 1.429 . S
C391 H413 0.950 . S
C392 H388 0.949 . S
C392 C400 1.574 . S
C392 C408 1.368 . S
H393 C401 0.950 1_565 S
H394 C399 0.950 1_565 S
H395 C400 0.949 . S
H396 C402 0.950 . S
H397 C403 0.950 . S
H398 C404 0.949 . S
C399 H394 0.950 1_545 S
C399 C401 1.327 . S
C399 C405 1.429 . S
C400 C392 1.574 . S
C400 H395 0.949 . S
C400 C406 1.368 . S
C401 C385 1.349 . S
C401 H393 0.950 1_545 S
C401 C399 1.327 . S
C402 C390 1.349 . S
C402 H396 0.950 . S
C402 C403 1.327 . S
C403 H397 0.950 . S
C403 C402 1.327 . S
C403 C407 1.429 . S
C404 C387 1.574 . S
C404 H398 0.949 . S
C404 C408 1.368 . S
C405 C386 1.429 . S
C405 C399 1.429 . S
C405 C406 1.523 . S
C406 C387 1.368 . S
C406 C400 1.368 . S
C406 C405 1.523 . S
C407 C391 1.429 . S
C407 C403 1.429 . S
C407 C408 1.523 . S
C408 C392 1.368 . S
C408 C404 1.368 . S
C408 C407 1.523 . S
H409 C384 0.950 . S
H410 C386 0.950 . S
H411 C387 0.949 1_565 S
H412 C389 0.950 . S
H413 C391 0.950 . S
C414 C415 1.349 . S
C414 C416 1.327 . S
C414 H439 0.950 . S
C415 C414 1.349 . S
C415 C431 1.349 . S
C416 C414 1.327 . S
C416 C435 1.429 . S
C416 H440 0.950 . S
C417 C434 1.574 . S
C417 C436 1.368 . S
C417 H441 0.949 . S
H418 C422 0.949 . S
C419 C420 1.349 . S
C419 C421 1.327 . S
C419 H442 0.950 . S
C420 C419 1.349 . S
C420 C432 1.349 . S
C421 C419 1.327 . S
C421 C437 1.429 . S
C421 H443 0.950 . S
C422 H418 0.949 . S
C422 C430 1.574 . S
C422 C438 1.368 . S
H423 C431 0.950 . S
H424 C429 0.950 . S
H425 C430 0.949 . S
H426 C432 0.950 . S
H427 C433 0.950 . S
H428 C434 0.949 . S
C429 H424 0.950 . S
C429 C431 1.327 . S
C429 C435 1.429 . S
C430 C422 1.574 . S
C430 H425 0.949 . S
C430 C436 1.368 . S
C431 C415 1.349 . S
C431 H423 0.950 . S
C431 C429 1.327 . S
C432 C420 1.349 . S
C432 H426 0.950 . S
C432 C433 1.327 . S
C433 H427 0.950 . S
C433 C432 1.327 . S
C433 C437 1.429 . S
C434 C417 1.574 . S
C434 H428 0.949 . S
C434 C438 1.368 . S
C435 C416 1.429 . S
C435 C429 1.429 . S
C435 C436 1.523 . S
C436 C417 1.368 . S
C436 C430 1.368 . S
C436 C435 1.523 . S
C437 C421 1.429 . S
C437 C433 1.429 . S
C437 C438 1.523 . S
C438 C422 1.368 . S
C438 C434 1.368 . S
C438 C437 1.523 . S
H439 C414 0.950 . S
H440 C416 0.950 . S
H441 C417 0.949 . S
H442 C419 0.950 . S
H443 C421 0.950 . S
C444 C445 1.349 . S
C444 C446 1.327 . S
C444 H469 0.950 . S
C445 C444 1.349 . S
C445 C461 1.349 . S
C446 C444 1.327 . S
C446 C465 1.429 . S
C446 H470 0.950 . S
C447 C464 1.574 . S
C447 C466 1.368 . S
C447 H471 0.949 . S
H448 C452 0.949 . S
C449 C450 1.349 . S
C449 C451 1.327 . S
C449 H472 0.950 . S
C450 C449 1.349 . S
C450 C462 1.349 . S
C451 C449 1.327 . S
C451 C467 1.429 . S
C451 H473 0.950 . S
C452 H448 0.949 . S
C452 C460 1.574 . S
C452 C468 1.368 . S
H453 C461 0.950 . S
H454 C459 0.950 . S
H455 C460 0.949 . S
H456 C462 0.950 . S
H457 C463 0.950 . S
H458 C464 0.949 . S
C459 H454 0.950 . S
C459 C461 1.327 . S
C459 C465 1.429 . S
C460 C452 1.574 . S
C460 H455 0.949 . S
C460 C466 1.368 . S
C461 C445 1.349 . S
C461 H453 0.950 . S
C461 C459 1.327 . S
C462 C450 1.349 . S
C462 H456 0.950 . S
C462 C463 1.327 . S
C463 H457 0.950 . S
C463 C462 1.327 . S
C463 C467 1.429 . S
C464 C447 1.574 . S
C464 H458 0.949 . S
C464 C468 1.368 . S
C465 C446 1.429 . S
C465 C459 1.429 . S
C465 C466 1.523 . S
C466 C447 1.368 . S
C466 C460 1.368 . S
C466 C465 1.523 . S
C467 C451 1.429 . S
C467 C463 1.429 . S
C467 C468 1.523 . S
C468 C452 1.368 . S
C468 C464 1.368 . S
C468 C467 1.523 . S
H469 C444 0.950 . S
H470 C446 0.950 . S
H471 C447 0.949 . S
H472 C449 0.950 . S
H473 C451 0.950 . S
C474 C475 1.349 1_545 S
C474 C476 1.327 1_545 S
C474 H499 0.950 . S
C475 C474 1.349 1_565 S
C475 C491 1.349 . S
C476 C474 1.327 1_565 S
C476 C495 1.429 . S
C476 H500 0.950 1_565 S
C477 C494 1.574 1_554 S
C477 C496 1.368 . S
C477 H501 0.949 . S
H478 C482 0.949 . S
C479 C480 1.349 . S
C479 C481 1.327 . S
C479 H502 0.950 . S
C480 C479 1.349 . S
C480 C492 1.349 . S
C481 C479 1.327 . S
C481 C497 1.429 . S
C481 H503 0.950 . S
C482 H478 0.949 . S
C482 C490 1.574 . S
C482 C498 1.368 . S
H483 C491 0.950 . S
H484 C489 0.950 . S
H485 C490 0.949 . S
H486 C492 0.950 . S
H487 C493 0.950 . S
H488 C494 0.949 . S
C489 H484 0.950 . S
C489 C491 1.327 . S
C489 C495 1.429 . S
C490 C482 1.574 . S
C490 H485 0.949 . S
C490 C496 1.368 1_556 S
C491 C475 1.349 . S
C491 H483 0.950 . S
C491 C489 1.327 . S
C492 C480 1.349 . S
C492 H486 0.950 . S
C492 C493 1.327 . S
C493 H487 0.950 . S
C493 C492 1.327 . S
C493 C497 1.429 . S
C494 C477 1.574 1_556 S
C494 H488 0.949 . S
C494 C498 1.368 . S
C495 C476 1.429 . S
C495 C489 1.429 . S
C495 C496 1.523 . S
C496 C477 1.368 . S
C496 C490 1.368 1_554 S
C496 C495 1.523 . S
C497 C481 1.429 . S
C497 C493 1.429 . S
C497 C498 1.523 . S
C498 C482 1.368 . S
C498 C494 1.368 . S
C498 C497 1.523 . S
H499 C474 0.950 . S
H500 C476 0.950 1_545 S
H501 C477 0.949 . S
H502 C479 0.950 . S
H503 C481 0.950 . S
C504 C505 1.349 . S
C504 C506 1.327 . S
C504 H529 0.950 . S
C505 C504 1.349 . S
C505 C521 1.349 1_455 S
C506 C504 1.327 . S
C506 C525 1.429 . S
C506 H530 0.950 . S
C507 C524 1.574 . S
C507 C526 1.368 1_655 S
C507 H531 0.949 . S
H508 C512 0.949 . S
C509 C510 1.349 1_655 S
C509 C511 1.327 . S
C509 H532 0.950 . S
C510 C509 1.349 1_455 S
C510 C522 1.349 . S
C511 C509 1.327 . S
C511 C527 1.429 1_655 S
C511 H533 0.950 . S
C512 H508 0.949 . S
C512 C520 1.574 . S
C512 C528 1.368 . S
H513 C521 0.950 . S
H514 C519 0.950 . S
H515 C520 0.949 . S
H516 C522 0.950 . S
H517 C523 0.950 . S
H518 C524 0.949 . S
C519 H514 0.950 . S
C519 C521 1.327 . S
C519 C525 1.429 1_655 S
C520 C512 1.574 . S
C520 H515 0.949 . S
C520 C526 1.368 . S
C521 C505 1.349 1_655 S
C521 H513 0.950 . S
C521 C519 1.327 . S
C522 C510 1.349 . S
C522 H516 0.950 . S
C522 C523 1.327 . S
C523 H517 0.950 . S
C523 C522 1.327 . S
C523 C527 1.429 . S
C524 C507 1.574 . S
C524 H518 0.949 . S
C524 C528 1.368 1_655 S
C525 C506 1.429 . S
C525 C519 1.429 1_455 S
C525 C526 1.523 . S
C526 C507 1.368 1_455 S
C526 C520 1.368 . S
C526 C525 1.523 . S
C527 C511 1.429 1_455 S
C527 C523 1.429 . S
C527 C528 1.523 . S
C528 C512 1.368 . S
C528 C524 1.368 1_455 S
C528 C527 1.523 . S
H529 C504 0.950 . S
H530 C506 0.950 . S
H531 C507 0.949 . S
H532 C509 0.950 . S
H533 C511 0.950 . S
C534 C535 1.349 . S
C534 C536 1.327 . S
C534 H559 0.950 . S
C535 C534 1.349 . S
C535 C551 1.349 . S
C536 C534 1.327 . S
C536 C555 1.429 . S
C536 H560 0.950 . S
C537 C554 1.574 . S
C537 C556 1.368 . S
C537 H561 0.949 . S
H538 C542 0.949 . S
C539 C540 1.349 . S
C539 C541 1.327 . S
C539 H562 0.950 . S
C540 C539 1.349 . S
C540 C552 1.349 . S
C541 C539 1.327 . S
C541 C557 1.429 . S
C541 H563 0.950 . S
C542 H538 0.949 . S
C542 C550 1.574 . S
C542 C558 1.368 . S
H543 C551 0.950 . S
H544 C549 0.950 . S
H545 C550 0.949 . S
H546 C552 0.950 . S
H547 C553 0.950 . S
H548 C554 0.949 . S
C549 H544 0.950 . S
C549 C551 1.327 . S
C549 C555 1.429 . S
C550 C542 1.574 . S
C550 H545 0.949 . S
C550 C556 1.368 . S
C551 C535 1.349 . S
C551 H543 0.950 . S
C551 C549 1.327 . S
C552 C540 1.349 . S
C552 H546 0.950 . S
C552 C553 1.327 . S
C553 H547 0.950 . S
C553 C552 1.327 . S
C553 C557 1.429 . S
C554 C537 1.574 . S
C554 H548 0.949 . S
C554 C558 1.368 . S
C555 C536 1.429 . S
C555 C549 1.429 . S
C555 C556 1.523 . S
C556 C537 1.368 . S
C556 C550 1.368 . S
C556 C555 1.523 . S
C557 C541 1.429 . S
C557 C553 1.429 . S
C557 C558 1.523 . S
C558 C542 1.368 . S
C558 C554 1.368 . S
C558 C557 1.523 . S
H559 C534 0.950 . S
H560 C536 0.950 . S
H561 C537 0.949 . S
H562 C539 0.950 . S
H563 C541 0.950 . S
C564 C565 1.349 . S
C564 C566 1.327 . S
C564 H589 0.950 . S
C565 C564 1.349 . S
C565 C581 1.349 . S
C566 C564 1.327 . S
C566 C585 1.429 . S
C566 H590 0.950 . S
C567 C584 1.574 1_554 S
C567 C586 1.368 . S
C567 H591 0.953 . S
H568 C572 0.949 . S
C569 C570 1.349 . S
C569 C571 1.327 . S
C569 H592 0.950 . S
C570 C569 1.349 . S
C570 C582 1.349 . S
C571 C569 1.327 . S
C571 C587 1.429 . S
C571 H593 0.950 . S
C572 H568 0.949 . S
C572 C580 1.574 . S
C572 C588 1.368 1_554 S
H573 C581 0.950 . S
H574 C579 0.950 . S
H575 C580 0.949 . S
H576 C582 0.950 . S
H577 C583 0.877 1_554 S
H578 C584 0.949 . S
C579 H574 0.950 . S
C579 C581 1.327 . S
C579 C585 1.429 . S
C580 C572 1.574 . S
C580 H575 0.949 . S
C580 C586 1.368 . S
C581 C565 1.349 . S
C581 H573 0.950 . S
C581 C579 1.327 . S
C582 C570 1.349 . S
C582 H576 0.950 . S
C582 C583 1.327 . S
C583 H577 0.877 1_556 S
C583 C582 1.327 . S
C583 C587 1.429 . S
C584 C567 1.574 1_556 S
C584 H578 0.949 . S
C584 C588 1.368 . S
C585 C566 1.429 . S
C585 C579 1.429 . S
C585 C586 1.523 . S
C586 C567 1.368 . S
C586 C580 1.368 . S
C586 C585 1.523 . S
C587 C571 1.429 . S
C587 C583 1.429 . S
C587 C588 1.523 . S
C588 C572 1.368 1_556 S
C588 C584 1.368 . S
C588 C587 1.523 . S
H589 C564 0.950 . S
H590 C566 0.950 . S
H591 C567 0.953 . S
H592 C569 0.950 . S
H593 C571 0.950 . S
C594 C595 1.349 1_655 S
C594 C596 1.327 . S
C594 H619 0.950 . S
C595 C594 1.349 1_455 S
C595 C611 1.349 . S
C596 C594 1.327 . S
C596 C615 1.429 1_655 S
C596 H620 0.950 . S
C597 C614 1.574 . S
C597 C616 1.368 . S
C597 H621 0.949 . S
H598 C602 0.949 . S
C599 C600 1.349 . S
C599 C601 1.327 . S
C599 H622 0.950 . S
C600 C599 1.349 . S
C600 C612 1.349 1_455 S
C601 C599 1.327 . S
C601 C617 1.429 . S
C601 H623 0.950 . S
C602 H598 0.949 . S
C602 C610 1.574 . S
C602 C618 1.368 1_655 S
H603 C611 0.950 . S
H604 C609 0.950 . S
H605 C610 0.949 . S
H606 C612 0.950 . S
H607 C613 0.950 . S
H608 C614 0.949 . S
C609 H604 0.950 . S
C609 C611 1.327 . S
C609 C615 1.429 . S
C610 C602 1.574 . S
C610 H605 0.949 . S
C610 C616 1.368 1_655 S
C611 C595 1.349 . S
C611 H603 0.950 . S
C611 C609 1.327 . S
C612 C600 1.349 1_655 S
C612 H606 0.950 . S
C612 C613 1.327 . S
C613 H607 0.950 . S
C613 C612 1.327 . S
C613 C617 1.429 1_655 S
C614 C597 1.574 . S
C614 H608 0.949 . S
C614 C618 1.368 . S
C615 C596 1.429 1_455 S
C615 C609 1.429 . S
C615 C616 1.523 . S
C616 C597 1.368 . S
C616 C610 1.368 1_455 S
C616 C615 1.523 . S
C617 C601 1.429 . S
C617 C613 1.429 1_455 S
C617 C618 1.523 . S
C618 C602 1.368 1_455 S
C618 C614 1.368 . S
C618 C617 1.523 . S
H619 C594 0.950 . S
H620 C596 0.950 . S
H621 C597 0.949 . S
H622 C599 0.950 . S
H623 C601 0.950 . S
C270 C81 1.362 . S
C265 C0 1.435 . S
C295 C25 1.382 . S
C300 C155 1.317 . S
C325 C33 2.200 1_665 S
C330 C259 2.210 . S
C355 C11 0.678 1_565 S
C360 C93 0.679 . S
C390 C167 0.683 . S
C385 C14 0.682 . S
C415 C37 1.462 . S
C420 C253 1.374 . S
C450 C185 2.209 . S
C445 C28 2.233 . S
C475 C9 1.508 1_565 S
C480 C229 1.427 . S
C510 C105 1.426 . S
C505 C19 1.512 . S
C540 C179 1.315 . S
C535 C39 1.390 . S
C570 C241 0.727 . S
C565 C5 0.728 . S
C595 C23 2.326 . S
C600 C111 2.326 . S
