# Generated by pormake.
# Topology tsx, (6,3)-cn, num edge types: 1
# Building blocks:
#     Node 0, Type 0, BuildingBlock: FUNLAD_clean_sbu_0, # of connection points: 6
#     Node 1, Type 0, BuildingBlock: FUNLAD_clean_sbu_0, # of connection points: 6
#     Node 2, Type 1, BuildingBlock: BELTOD_clean_linker_0, # of connection points: 3
#     Node 3, Type 1, BuildingBlock: BELTOD_clean_linker_0, # of connection points: 3
#     Node 4, Type 1, BuildingBlock: BELTOD_clean_linker_0, # of connection points: 3
#     Node 5, Type 1, BuildingBlock: BELTOD_clean_linker_0, # of connection points: 3
#     Edge 6, Type (0, 1), BuildingBlock: XIVTED_clean_linker_0, # of connection points: 2
#     Edge 7, Type (0, 1), BuildingBlock: XIVTED_clean_linker_0, # of connection points: 2
#     Edge 8, Type (0, 1), BuildingBlock: XIVTED_clean_linker_0, # of connection points: 2
#     Edge 9, Type (0, 1), BuildingBlock: XIVTED_clean_linker_0, # of connection points: 2
#     Edge 10, Type (0, 1), BuildingBlock: XIVTED_clean_linker_0, # of connection points: 2
#     Edge 11, Type (0, 1), BuildingBlock: XIVTED_clean_linker_0, # of connection points: 2
#     Edge 12, Type (0, 1), BuildingBlock: XIVTED_clean_linker_0, # of connection points: 2
#     Edge 13, Type (0, 1), BuildingBlock: XIVTED_clean_linker_0, # of connection points: 2
#     Edge 14, Type (0, 1), BuildingBlock: XIVTED_clean_linker_0, # of connection points: 2
#     Edge 15, Type (0, 1), BuildingBlock: XIVTED_clean_linker_0, # of connection points: 2
#     Edge 16, Type (0, 1), BuildingBlock: XIVTED_clean_linker_0, # of connection points: 2
#     Edge 17, Type (0, 1), BuildingBlock: XIVTED_clean_linker_0, # of connection points: 2
# Relax obj value: 0.152
# Max RMSD: 0.148
# Mean RMSD: 0.078
data_MOF--net-tsx--node1-FUNLAD_clean_sbu_0--node2-BELTOD_clean_linker_0--edge1-XIVTED_clean_linker_0
_symmetry_space_group_name_H-M    P1
_symmetry_Int_Tables_number       1
_symmetry_cell_setting            triclinic
loop_
_symmetry_equiv_pos_as_xyz
'x, y, z'
_cell_length_a     21.600533
_cell_length_b     24.200343
_cell_length_c     46.634227
_cell_angle_alpha  91.783517
_cell_angle_beta   92.000862
_cell_angle_gamma 89.917561
loop_
_atom_site_label
_atom_site_type_symbol
_atom_site_fract_x
_atom_site_fract_y
_atom_site_fract_z
_atom_type_partial_charge
C0 C 0.89045 0.90754 0.0002 0.0
N1 N 0.97757 0.99102 0.0705 0.0
C2 C 0.92475 -0.00773 0.0856 0.0
C3 C 0.928 -0.00584 0.11562 0.0
C4 C 0.98613 -0.00568 0.13012 0.0
C5 C 0.03968 -0.00762 0.11394 0.0
C6 C 0.03434 0.99091 0.08409 0.0
Zn7 Zn 0.97478 -0.00822 0.0267 0.0
C8 C 0.07121 0.91909 0.00182 0.0
N9 N 0.97444 -0.00492 0.93529 0.0
C10 C 0.922 0.98685 0.91867 0.0
C11 C 0.03025 0.00251 0.92331 0.0
C12 C 0.03506 0.00148 0.89361 0.0
C13 C 0.98202 -0.00761 0.87588 0.0
C14 C 0.9248 0.98512 0.88872 0.0
Zn15 Zn 0.97344 -0.00592 0.97907 0.0
O16 O 0.9084 0.92886 0.02429 0.0
C17 C 0.87823 0.0677 0.00373 0.0
O18 O 0.91185 0.92543 0.97717 0.0
H19 H 0.07154 0.00839 0.93683 0.0
H20 H 0.8801 -0.00769 0.07435 0.0
H21 H 0.87812 0.98104 0.92865 0.0
O22 O 0.90356 0.05161 0.02703 0.0
O23 O 0.89732 0.04889 0.97985 0.0
H24 H 0.07578 0.99049 0.07174 0.0
O25 O 0.03545 0.06246 0.98186 0.0
O26 O 0.04049 0.05552 0.02863 0.0
O27 O 0.0495 0.93996 0.97897 0.0
O28 O 0.04699 0.93161 0.02559 0.0
C29 C 0.05748 0.07889 0.00624 0.0
H30 H 0.88559 -0.0047 0.12735 0.0
H31 H 0.08542 -0.00661 0.12424 0.0
H32 H 0.08025 0.00629 0.88465 0.0
H33 H 0.88275 0.9783 0.87577 0.0
C34 C 0.37539 0.41364 0.49924 0.0
N35 N 0.46862 0.49044 0.57012 0.0
C36 C 0.41546 0.49124 0.58495 0.0
C37 C 0.41795 0.491 0.61495 0.0
C38 C 0.47571 0.48975 0.62976 0.0
C39 C 0.52968 0.48848 0.61382 0.0
C40 C 0.52506 0.48887 0.58394 0.0
Zn41 Zn 0.46595 0.49334 0.52635 0.0
C42 C 0.5549 0.41539 0.49987 0.0
N43 N 0.46295 0.49952 0.43481 0.0
C44 C 0.41011 0.49523 0.41812 0.0
C45 C 0.51928 0.50409 0.42292 0.0
C46 C 0.52419 0.50426 0.39324 0.0
C47 C 0.47071 0.49926 0.37541 0.0
C48 C 0.41298 0.49475 0.38816 0.0
Zn49 Zn 0.46214 0.4967 0.47862 0.0
O50 O 0.39651 0.43257 0.52335 0.0
C51 C 0.37335 0.57453 0.50463 0.0
O52 O 0.39544 0.43245 0.47616 0.0
H53 H 0.56086 0.50673 0.43647 0.0
H54 H 0.37107 0.49241 0.57351 0.0
H55 H 0.36582 0.49159 0.42802 0.0
O56 O 0.39764 0.55594 0.52761 0.0
O57 O 0.39109 0.55615 0.48043 0.0
H58 H 0.56678 0.48857 0.57178 0.0
O59 O 0.52996 0.56094 0.48201 0.0
O60 O 0.5346 0.55437 0.5288 0.0
O61 O 0.53222 0.4371 0.47744 0.0
O62 O 0.53537 0.43068 0.52425 0.0
C63 C 0.55305 0.57655 0.50635 0.0
H64 H 0.37518 0.49152 0.62639 0.0
H65 H 0.5752 0.48845 0.62432 0.0
H66 H 0.56971 0.50677 0.38433 0.0
H67 H 0.37061 0.49103 0.37513 0.0
P68 P 0.1006 0.09163 0.43872 0.0
H69 H 0.07736 0.18212 0.48003 0.0
H70 H 0.98177 0.2256 0.49607 0.0
H71 H 0.8749 0.10547 0.4448 0.0
H72 H 0.97056 0.06328 0.42845 0.0
H73 H 0.22038 0.04123 0.45035 0.0
H74 H 0.25137 0.95314 0.47056 0.0
H75 H 0.05954 0.91482 0.48412 0.0
H76 H 0.02892 0.00349 0.46436 0.0
H77 H 0.07924 0.16383 0.39077 0.0
H78 H 0.09 0.98823 0.40363 0.0
O79 O 0.15748 0.13805 0.44304 0.0
H80 H 0.05604 0.14602 0.33954 0.0
H81 H 0.06609 0.97023 0.35282 0.0
C82 C 0.03084 0.12007 0.45283 0.0
C83 C 0.03332 0.16487 0.47256 0.0
C84 C 0.97863 0.18942 0.48184 0.0
C85 C 0.92075 0.16929 0.47147 0.0
C86 C 0.91875 0.12259 0.45275 0.0
C87 C 0.97335 0.09833 0.44345 0.0
C88 C 0.12265 0.02962 0.45659 0.0
C89 C 0.18515 0.01454 0.45836 0.0
C90 C 0.20275 0.96419 0.46988 0.0
C91 C 0.1578 0.92739 0.47906 0.0
C92 C 0.09505 0.94245 0.47713 0.0
C93 C 0.0776 -0.00671 0.46601 0.0
C94 C 0.08724 0.07752 0.40092 0.0
C95 C 0.07699 0.1215 0.38253 0.0
C96 C 0.06317 0.11124 0.35335 0.0
C97 C 0.05929 0.05668 0.34213 0.0
C98 C 0.06963 0.01271 0.36071 0.0
C99 C 0.08324 0.02304 0.38987 0.0
P100 P 0.10419 0.89984 0.57142 0.0
H101 H 0.07487 0.80925 0.53002 0.0
H102 H 0.97659 0.76677 0.51372 0.0
H103 H 0.87763 0.89142 0.56231 0.0
H104 H 0.97585 0.9325 0.57903 0.0
H105 H 0.22493 0.94828 0.56343 0.0
H106 H 0.25763 0.03526 0.54349 0.0
H107 H 0.06644 0.0765 0.52397 0.0
H108 H 0.03412 0.98908 0.5435 0.0
H109 H 0.09553 0.82729 0.61961 0.0
H110 H 0.08474 0.00244 0.60559 0.0
O111 O 0.15936 0.85199 0.56797 0.0
H112 H 0.07209 0.84405 0.67011 0.0
H113 H 0.06041 0.01939 0.65571 0.0
C114 C 0.03248 0.87334 0.55607 0.0
C115 C 0.03195 0.82771 0.53685 0.0
C116 C 0.97571 0.80373 0.5274 0.0
C117 C 0.91933 0.82531 0.53705 0.0
C118 C 0.92029 0.87312 0.55498 0.0
C119 C 0.97639 0.89677 0.56447 0.0
C120 C 0.12734 0.96156 0.5543 0.0
C121 C 0.19017 0.97549 0.5543 0.0
C122 C 0.20876 0.02517 0.54291 0.0
C123 C 0.16452 0.06242 0.53206 0.0
C124 C 0.10144 0.04859 0.53232 0.0
C125 C 0.083 -0.00157 0.54332 0.0
C126 C 0.09317 0.9136 0.60901 0.0
C127 C 0.08884 0.86938 0.62749 0.0
C128 C 0.07476 0.87898 0.65624 0.0
C129 C 0.06441 0.93309 0.66693 0.0
C130 C 0.06908 0.97733 0.64828 0.0
C131 C 0.08302 0.96764 0.61954 0.0
P132 P 0.60147 0.58025 0.93727 0.0
H133 H 0.60135 0.68195 0.97271 0.0
H134 H 0.51751 0.73801 0.99233 0.0
H135 H 0.38422 0.61688 0.95963 0.0
H136 H 0.46805 0.56154 0.93957 0.0
H137 H 0.72066 0.53111 0.95196 0.0
H138 H 0.75047 0.44414 0.97344 0.0
H139 H 0.55765 0.40388 0.98281 0.0
H140 H 0.528 0.4919 0.96181 0.0
H141 H 0.54894 0.64759 0.89204 0.0
H142 H 0.60079 0.47683 0.90194 0.0
O143 O 0.66354 0.62106 0.93628 0.0
H144 H 0.51956 0.6278 0.84168 0.0
H145 H 0.56993 0.45641 0.85202 0.0
C146 C 0.54086 0.61754 0.95482 0.0
C147 C 0.55424 0.66696 0.9702 0.0
C148 C 0.50639 0.69898 0.98135 0.0
C149 C 0.44455 0.68161 0.97751 0.0
C150 C 0.43159 0.63077 0.96324 0.0
C151 C 0.47942 0.59917 0.95177 0.0
C152 C 0.62224 0.51878 0.95599 0.0
C153 C 0.68477 0.50444 0.95937 0.0
C154 C 0.70175 0.45464 0.97161 0.0
C155 C 0.65631 0.41753 0.97995 0.0
C156 C 0.59353 0.43186 0.97655 0.0
C157 C 0.57662 0.48229 0.96471 0.0
C158 C 0.57661 0.56374 0.90079 0.0
C159 C 0.55325 0.6057 0.88345 0.0
C160 C 0.53611 0.59422 0.85472 0.0
C161 C 0.54228 0.54045 0.84279 0.0
C162 C 0.56524 0.49838 0.86041 0.0
C163 C 0.5825 0.50998 0.88911 0.0
P164 P 0.60465 0.40155 0.07279 0.0
H165 H 0.57696 0.3108 0.03129 0.0
H166 H 0.47909 0.26978 0.01331 0.0
H167 H 0.37861 0.39647 0.05976 0.0
H168 H 0.47634 0.43612 0.07815 0.0
H169 H 0.72719 0.44717 0.06577 0.0
H170 H 0.76348 0.53115 0.04394 0.0
H171 H 0.57463 0.57414 0.0206 0.0
H172 H 0.53868 0.48965 0.04198 0.0
H173 H 0.58869 0.33139 0.12132 0.0
H174 H 0.5866 0.50609 0.10563 0.0
O175 O 0.65888 0.3525 0.07098 0.0
H176 H 0.56167 0.35066 0.17113 0.0
H177 H 0.55878 0.52564 0.15519 0.0
C178 C 0.53364 0.37567 0.05647 0.0
C179 C 0.53381 0.32995 0.03732 0.0
C180 C 0.47785 0.30686 0.02689 0.0
C181 C 0.42109 0.32947 0.03545 0.0
C182 C 0.42153 0.37741 0.05327 0.0
C183 C 0.47734 0.40017 0.06375 0.0
C184 C 0.63051 0.46151 0.05493 0.0
C185 C 0.69372 0.47411 0.05547 0.0
C186 C 0.71437 0.522 0.04296 0.0
C187 C 0.6718 0.55882 0.03042 0.0
C188 C 0.60833 0.54641 0.03017 0.0
C189 C 0.58783 0.49798 0.04229 0.0
C190 C 0.59086 0.41726 0.10996 0.0
C191 C 0.58308 0.37392 0.12871 0.0
C192 C 0.56696 0.38498 0.15707 0.0
C193 C 0.55799 0.43971 0.16712 0.0
C194 C 0.56618 0.48311 0.14824 0.0
C195 C 0.58214 0.47194 0.11984 0.0
H196 H 0.09364 0.13774 0.05452 0.0
H197 H 0.38253 0.2785 0.98424 0.0
H198 H 0.12806 0.12041 0.96405 0.0
H199 H 0.32573 0.31268 0.07086 0.0
H200 H 0.28835 0.22319 0.97524 0.0
H201 H 0.17685 0.20518 0.05984 0.0
C202 C 0.11855 0.14842 0.0357 0.0
C203 C 0.10426 0.12319 0.00884 0.0
C204 C 0.29628 0.24343 0.99607 0.0
C205 C 0.20023 0.20023 0.01481 0.0
C206 C 0.35008 0.27472 0.00126 0.0
C207 C 0.36204 0.30022 0.02834 0.0
C208 C 0.25465 0.23726 0.01824 0.0
C209 C 0.31817 0.29445 0.04954 0.0
C210 C 0.16605 0.18708 0.03874 0.0
C211 C 0.13773 0.13893 0.98516 0.0
N212 N 0.2668 0.26329 0.04409 0.0
N213 N 0.18477 0.17611 0.98874 0.0
H214 H 0.11069 0.84123 0.04006 0.0
H215 H 0.43056 0.78944 0.96427 0.0
H216 H 0.1578 0.91669 0.96105 0.0
H217 H 0.34167 0.65816 0.00787 0.0
H218 H 0.34054 0.84846 0.97256 0.0
H219 H 0.20462 0.78373 0.0371 0.0
C220 C 0.14078 0.84569 0.02218 0.0
C221 C 0.12643 0.88339 0.00066 0.0
C222 C 0.34104 0.80689 0.98053 0.0
C223 C 0.23363 0.81931 -0.0024 0.0
C224 C 0.39248 0.77344 0.97604 0.0
C225 C 0.3933 0.71897 0.98541 0.0
C226 C 0.29045 0.786 0.99482 0.0
C227 C 0.34242 0.69992 0.00021 0.0
C228 C 0.19404 0.81296 0.02051 0.0
C229 C 0.16685 0.88775 0.97795 0.0
N230 N 0.29282 0.7335 0.00453 0.0
N231 N 0.21884 0.85639 0.97713 0.0
H232 H 0.80205 0.88731 0.03847 0.0
H233 H 0.76904 0.57549 0.99572 0.0
H234 H 0.87989 0.82229 0.96042 0.0
H235 H 0.62552 0.66208 0.04093 0.0
H236 H 0.8116 0.66433 0.98237 0.0
H237 H 0.73754 0.80473 0.04027 0.0
C238 C 0.80502 0.85578 0.02156 0.0
C239 C 0.8466 0.86112 -0.00058 0.0
C240 C 0.77009 0.6638 0.99473 0.0
C241 C 0.77387 0.76653 0.00158 0.0
C242 C 0.74593 0.61323 0.0024 0.0
C243 C 0.6937 0.61159 0.01938 0.0
C244 C 0.74293 0.71295 0.00491 0.0
C245 C 0.66575 0.66162 0.02771 0.0
C246 C 0.76799 0.80892 0.0225 0.0
C247 C 0.8484 0.81947 0.97788 0.0
N248 N 0.6914 0.71041 0.02082 0.0
N249 N 0.81336 0.7732 0.97979 0.0
H250 H 0.79382 0.0937 0.96121 0.0
H251 H 0.7473 0.39282 0.01959 0.0
H252 H 0.85528 0.14151 0.04749 0.0
H253 H 0.60975 0.31703 0.96182 0.0
H254 H 0.7878 0.30135 0.03041 0.0
H255 H 0.72557 0.17458 0.96039 0.0
C256 C 0.79229 0.12082 0.9801 0.0
C257 C 0.8307 0.11139 0.00432 0.0
C258 C 0.74789 0.30464 0.01585 0.0
C259 C 0.75373 0.20392 0.00336 0.0
C260 C 0.7248 0.35681 0.00967 0.0
C261 C 0.67502 0.3624 0.9899 0.0
C262 C 0.72237 0.25791 0.00137 0.0
C263 C 0.64804 0.31438 0.97733 0.0
C264 C 0.75315 0.16668 0.97968 0.0
C265 C 0.82662 0.14748 0.02833 0.0
N266 N 0.67291 0.26404 0.98282 0.0
N267 N 0.78976 0.19288 0.02703 0.0
H268 H 0.6216 0.61861 0.4635 0.0
H269 H 0.827 0.80691 0.57394 0.0
H270 H 0.59641 0.63075 0.55494 0.0
H271 H 0.87777 0.77435 0.48629 0.0
H272 H 0.73345 0.75262 0.56497 0.0
H273 H 0.70742 0.68485 0.46934 0.0
C274 C 0.63376 0.63553 0.48473 0.0
C275 C 0.60213 0.61893 0.50881 0.0
C276 C 0.76476 0.75752 0.54759 0.0
C277 C 0.69968 0.69443 0.51557 0.0
C278 C 0.81803 0.78902 0.55263 0.0
C279 C 0.86032 0.79533 0.5308 0.0
C280 C 0.75346 0.73179 0.52054 0.0
C281 C 0.84671 0.77006 0.5038 0.0
C282 C 0.68278 0.67312 0.48804 0.0
C283 C 0.61979 0.64203 0.5358 0.0
N284 N 0.79443 0.73918 0.49943 0.0
N285 N 0.66738 0.67846 0.53843 0.0
H286 H 0.5893 0.36103 0.45115 0.0
H287 H 0.88645 0.21718 0.52293 0.0
H288 H 0.63293 0.37479 0.54216 0.0
H289 H 0.82407 0.19157 0.43456 0.0
H290 H 0.79354 0.27296 0.53147 0.0
H291 H 0.6744 0.29641 0.44568 0.0
C292 C 0.61674 0.35026 0.47006 0.0
C293 C 0.60426 0.37359 0.49714 0.0
C294 C 0.80004 0.25459 0.51032 0.0
C295 C 0.70246 0.2995 0.49098 0.0
C296 C 0.85311 0.22302 0.5054 0.0
C297 C 0.863 0.19962 0.478 0.0
C298 C 0.75703 0.26308 0.48759 0.0
C299 C 0.81806 0.20805 0.45613 0.0
C300 C 0.66537 0.31318 0.46692 0.0
C301 C 0.6411 0.35774 0.52089 0.0
N302 N 0.76737 0.23929 0.46137 0.0
N303 N 0.68904 0.32192 0.51723 0.0
H304 H 0.36083 0.33162 0.45801 0.0
H305 H 0.11497 0.16379 0.54472 0.0
H306 H 0.29074 0.39035 0.53896 0.0
H307 H 0.26004 0.08448 0.49718 0.0
H308 H 0.15499 0.25401 0.53163 0.0
H309 H 0.29839 0.24739 0.46122 0.0
C310 C 0.33128 0.32728 0.4761 0.0
C311 C 0.33126 0.36741 0.49844 0.0
C312 C 0.17726 0.21668 0.52373 0.0
C313 C 0.2599 0.27231 0.502 0.0
C314 C 0.15444 0.16534 0.53106 0.0
C315 C 0.18428 0.1167 0.52195 0.0
C316 C 0.22959 0.21917 0.50686 0.0
C317 C 0.23571 0.12102 0.5046 0.0
C318 C 0.29608 0.27929 0.47796 0.0
C319 C 0.29248 0.3599 0.52149 0.0
N320 N 0.25684 0.17145 0.4976 0.0
N321 N 0.2584 0.31305 0.52274 0.0
H322 H 0.35866 0.65042 0.54836 0.0
H323 H 0.10617 0.82781 0.46284 0.0
H324 H 0.28634 0.60251 0.46377 0.0
H325 H 0.25319 0.9011 0.51622 0.0
H326 H 0.14687 0.7359 0.47385 0.0
H327 H 0.29379 0.73362 0.54716 0.0
C328 C 0.32824 0.65687 0.5298 0.0
C329 C 0.32833 0.62013 0.50594 0.0
C330 C 0.1693 0.77225 0.48353 0.0
C331 C 0.25401 0.71419 0.50469 0.0
C332 C 0.14608 0.82452 0.4774 0.0
C333 C 0.17653 0.87202 0.48864 0.0
C334 C 0.2226 0.76768 0.50132 0.0
C335 C 0.22846 0.86552 0.50711 0.0
C336 C 0.29154 0.70427 0.52913 0.0
C337 C 0.28815 0.63033 0.48242 0.0
N338 N 0.25003 0.81423 0.51285 0.0
N339 N 0.25267 0.67667 0.48232 0.0
H340 H 0.06443 0.9369 0.16568 0.0
H341 H 0.97299 0.10812 0.30759 0.0
H342 H 0.92086 0.06103 0.16687 0.0
H343 H 0.11198 0.97984 0.30615 0.0
H344 H 0.95086 0.08989 0.25638 0.0
H345 H 0.07939 0.94966 0.21758 0.0
C346 C 0.03594 0.96678 0.17691 0.0
C347 C 0.99164 -0.00176 0.16191 0.0
C348 C 0.98604 0.0656 0.26729 0.0
C349 C 0.00845 0.01309 0.22138 0.0
C350 C -0.001 0.07625 0.29648 0.0
C351 C 0.04457 0.04558 0.31116 0.0
C352 C 0.01907 0.02414 0.25263 0.0
C353 C 0.07607 0.00414 0.29578 0.0
C354 C 0.04435 0.97394 0.20656 0.0
C355 C 0.95527 0.03568 0.17761 0.0
N356 N 0.0629 -0.00519 0.26736 0.0
N357 N 0.9648 0.04237 0.20648 0.0
H358 H 0.04968 0.05852 0.84221 0.0
H359 H 0.98523 0.87385 0.69894 0.0
H360 H 0.92754 0.91734 0.83762 0.0
H361 H 0.10618 0.0159 0.70409 0.0
H362 H 0.96013 0.89101 0.74914 0.0
H363 H 0.06647 0.04626 0.79092 0.0
C364 C 0.02623 0.02501 0.83036 0.0
C365 C 0.98754 0.98862 0.84426 0.0
C366 C 0.99201 0.91852 0.73927 0.0
C367 C 0.0065 0.97431 0.78546 0.0
C368 C 0.00673 0.90851 0.71066 0.0
C369 C 0.04813 0.94334 0.69731 0.0
C370 C 0.01901 0.96361 0.7547 0.0
C371 C 0.07363 0.98826 0.71341 0.0
C372 C 0.0357 0.01811 0.80105 0.0
C373 C 0.95748 0.94653 0.82775 0.0
N374 N 0.05885 -0.00305 0.74126 0.0
N375 N 0.96797 0.94025 0.79925 0.0
H376 H 0.55503 0.43165 0.66471 0.0
H377 H 0.44489 0.58044 0.81 0.0
H378 H 0.40692 0.55143 0.66749 0.0
H379 H 0.60507 0.47412 0.80494 0.0
H380 H 0.42419 0.56423 0.75855 0.0
H381 H 0.56749 0.44016 0.71686 0.0
C382 C 0.52508 0.45975 0.67629 0.0
C383 C 0.48024 0.49127 0.66164 0.0
C384 C 0.46368 0.54426 0.76875 0.0
C385 C 0.49398 0.50094 0.72149 0.0
C386 C 0.47573 0.55371 0.7981 0.0
C387 C 0.52698 0.5288 0.81186 0.0
C388 C 0.50314 0.50963 0.75298 0.0
C389 C 0.56464 0.49374 0.79539 0.0
C390 C 0.53206 0.46443 0.7061 0.0
C391 C 0.44185 0.52609 0.67787 0.0
N392 N 0.5521 0.48541 0.76685 0.0
N393 N 0.44986 0.53025 0.70691 0.0
H394 H 0.54306 0.56325 0.3427 0.0
H395 H 0.47355 0.38424 0.19808 0.0
H396 H 0.41165 0.42896 0.33613 0.0
H397 H 0.60064 0.52188 0.20452 0.0
H398 H 0.44658 0.40245 0.24795 0.0
H399 H 0.56015 0.55199 0.29138 0.0
C400 C 0.51758 0.53151 0.3304 0.0
C401 C 0.47625 0.49667 0.34376 0.0
C402 C 0.48017 0.42883 0.23843 0.0
C403 C 0.49561 0.48347 0.28493 0.0
C404 C 0.49593 0.41821 0.21001 0.0
C405 C 0.53977 0.45136 0.19714 0.0
C406 C 0.5086 0.47281 0.25419 0.0
C407 C 0.56631 0.49549 0.21348 0.0
C408 C 0.52724 0.52519 0.30108 0.0
C409 C 0.44371 0.45689 0.32669 0.0
N410 N 0.55057 0.50472 0.24118 0.0
N411 N 0.4545 0.45104 0.2982 0.0
loop_
_geom_bond_atom_site_label_1
_geom_bond_atom_site_label_2
_geom_bond_distance
_geom_bond_site_symmetry_2
_ccdc_geom_bond_type
C0 O16 1.251 . S
C0 O18 1.254 1_554 S
N1 C2 1.333 1_445 S
N1 C6 1.307 . S
N1 Zn7 2.020 . S
C2 N1 1.333 1_665 S
C2 C3 1.379 . S
C2 H20 0.952 . S
C3 C2 1.379 . S
C3 C4 1.390 1_665 S
C3 H30 0.949 . S
C4 C3 1.390 1_445 S
C4 C5 1.357 . S
C5 C4 1.357 . S
C5 C6 1.370 . S
C5 H31 0.950 . S
C6 N1 1.307 . S
C6 C5 1.370 . S
C6 H24 0.948 . S
Zn7 N1 2.020 . S
Zn7 O16 2.039 1_445 S
Zn7 O22 2.034 1_455 S
Zn7 O26 2.025 . S
Zn7 O28 2.024 1_545 S
C8 O27 1.246 1_554 S
C8 O28 1.249 . S
N9 C10 1.307 1_445 S
N9 C11 1.333 . S
N9 Zn15 2.020 . S
C10 N9 1.307 1_665 S
C10 C14 1.370 . S
C10 H21 0.948 . S
C11 N9 1.333 . S
C11 C12 1.379 . S
C11 H19 0.952 . S
C12 C11 1.379 . S
C12 C13 1.390 . S
C12 H32 0.949 . S
C13 C12 1.390 . S
C13 C14 1.357 1_445 S
C14 C10 1.370 . S
C14 C13 1.357 1_665 S
C14 H33 0.950 . S
Zn15 N9 2.020 . S
Zn15 O18 2.025 1_445 S
Zn15 O23 2.024 1_455 S
Zn15 O25 2.039 . S
Zn15 O27 2.034 1_545 S
O16 C0 1.251 . S
O16 Zn7 2.039 1_665 S
C17 O22 1.246 . S
C17 O23 1.249 1_554 S
O18 C0 1.254 1_556 S
O18 Zn15 2.025 1_665 S
H19 C11 0.952 . S
H20 C2 0.952 . S
H21 C10 0.948 . S
O22 Zn7 2.034 1_655 S
O22 C17 1.246 . S
O23 Zn15 2.024 1_655 S
O23 C17 1.249 1_556 S
H24 C6 0.948 . S
O25 Zn15 2.039 . S
O25 C29 1.251 1_556 S
O26 Zn7 2.025 . S
O26 C29 1.254 . S
O27 C8 1.246 1_556 S
O27 Zn15 2.034 1_565 S
O28 Zn7 2.024 1_565 S
O28 C8 1.249 . S
C29 O25 1.251 1_554 S
C29 O26 1.254 . S
H30 C3 0.949 . S
H31 C5 0.950 . S
H32 C12 0.949 . S
H33 C14 0.950 . S
C34 O50 1.251 . S
C34 O52 1.254 . S
N35 C36 1.333 . S
N35 C40 1.307 . S
N35 Zn41 2.020 . S
C36 N35 1.333 . S
C36 C37 1.379 . S
C36 H54 0.952 . S
C37 C36 1.379 . S
C37 C38 1.390 . S
C37 H64 0.949 . S
C38 C37 1.390 . S
C38 C39 1.357 . S
C39 C38 1.357 . S
C39 C40 1.370 . S
C39 H65 0.950 . S
C40 N35 1.307 . S
C40 C39 1.370 . S
C40 H58 0.948 . S
Zn41 N35 2.020 . S
Zn41 O50 2.039 . S
Zn41 O56 2.034 . S
Zn41 O60 2.025 . S
Zn41 O62 2.024 . S
C42 O61 1.246 . S
C42 O62 1.249 . S
N43 C44 1.307 . S
N43 C45 1.333 . S
N43 Zn49 2.020 . S
C44 N43 1.307 . S
C44 C48 1.370 . S
C44 H55 0.948 . S
C45 N43 1.333 . S
C45 C46 1.379 . S
C45 H53 0.952 . S
C46 C45 1.379 . S
C46 C47 1.390 . S
C46 H66 0.949 . S
C47 C46 1.390 . S
C47 C48 1.357 . S
C48 C44 1.370 . S
C48 C47 1.357 . S
C48 H67 0.950 . S
Zn49 N43 2.020 . S
Zn49 O52 2.025 . S
Zn49 O57 2.024 . S
Zn49 O59 2.039 . S
Zn49 O61 2.034 . S
O50 C34 1.251 . S
O50 Zn41 2.039 . S
C51 O56 1.246 . S
C51 O57 1.249 . S
O52 C34 1.254 . S
O52 Zn49 2.025 . S
H53 C45 0.952 . S
H54 C36 0.952 . S
H55 C44 0.948 . S
O56 Zn41 2.034 . S
O56 C51 1.246 . S
O57 Zn49 2.024 . S
O57 C51 1.249 . S
H58 C40 0.948 . S
O59 Zn49 2.039 . S
O59 C63 1.251 . S
O60 Zn41 2.025 . S
O60 C63 1.254 . S
O61 C42 1.246 . S
O61 Zn49 2.034 . S
O62 Zn41 2.024 . S
O62 C42 1.249 . S
C63 O59 1.251 . S
C63 O60 1.254 . S
H64 C37 0.949 . S
H65 C39 0.950 . S
H66 C46 0.949 . S
H67 C48 0.950 . S
P68 O79 1.490 . S
P68 C82 1.812 1_455 S
P68 C88 1.803 1_545 S
P68 C94 1.819 . S
H69 C83 0.941 . S
H70 C84 0.939 . S
H71 C86 0.940 . S
H72 C87 0.940 . S
H73 C89 0.939 . S
H74 C90 0.942 . S
H75 C92 0.940 . S
H76 C93 0.939 . S
H77 C95 0.941 . S
H78 C99 0.939 . S
O79 P68 1.490 . S
H80 C96 0.939 . S
H81 C98 0.940 . S
C82 P68 1.812 1_655 S
C82 C83 1.389 1_655 S
C82 C87 1.391 . S
C83 H69 0.941 . S
C83 C82 1.389 1_455 S
C83 C84 1.397 1_455 S
C84 H70 0.939 . S
C84 C83 1.397 1_655 S
C84 C85 1.378 . S
C85 C84 1.378 . S
C85 C86 1.378 . S
C86 H71 0.940 . S
C86 C85 1.378 . S
C86 C87 1.396 . S
C87 H72 0.940 . S
C87 C82 1.391 . S
C87 C86 1.396 . S
C88 P68 1.803 1_565 S
C88 C89 1.378 . S
C88 C93 1.400 . S
C89 H73 0.939 . S
C89 C88 1.378 . S
C89 C90 1.361 . S
C90 H74 0.942 . S
C90 C89 1.361 . S
C90 C91 1.369 . S
C91 C90 1.369 . S
C91 C92 1.404 . S
C92 H75 0.940 . S
C92 C91 1.404 . S
C92 C93 1.389 . S
C93 H76 0.939 . S
C93 C88 1.400 . S
C93 C92 1.389 . S
C94 P68 1.819 . S
C94 C95 1.391 . S
C94 C99 1.391 1_545 S
C95 H77 0.941 . S
C95 C94 1.391 . S
C95 C96 1.396 . S
C96 H80 0.939 . S
C96 C95 1.396 . S
C96 C97 1.397 . S
C97 C96 1.397 . S
C97 C98 1.385 1_545 S
C98 H81 0.940 . S
C98 C97 1.385 1_565 S
C98 C99 1.388 . S
C99 H78 0.939 . S
C99 C94 1.391 1_565 S
C99 C98 1.388 . S
P100 O111 1.490 . S
P100 C114 1.812 . S
P100 C120 1.803 1_565 S
P100 C126 1.819 . S
H101 C115 0.941 . S
H102 C116 0.939 . S
H103 C118 0.940 . S
H104 C119 0.940 . S
H105 C121 0.939 . S
H106 C122 0.942 . S
H107 C124 0.940 . S
H108 C125 0.939 . S
H109 C127 0.941 . S
H110 C131 0.939 . S
O111 P100 1.490 . S
H112 C128 0.939 . S
H113 C130 0.940 . S
C114 P100 1.812 . S
C114 C115 1.389 . S
C114 C119 1.391 1_455 S
C115 H101 0.941 . S
C115 C114 1.389 . S
C115 C116 1.397 1_455 S
C116 H102 0.939 . S
C116 C115 1.397 1_655 S
C116 C117 1.378 . S
C117 C116 1.378 . S
C117 C118 1.378 . S
C118 H103 0.940 . S
C118 C117 1.378 . S
C118 C119 1.396 . S
C119 H104 0.940 . S
C119 C114 1.391 1_655 S
C119 C118 1.396 . S
C120 P100 1.803 1_545 S
C120 C121 1.378 . S
C120 C125 1.400 . S
C121 H105 0.939 . S
C121 C120 1.378 . S
C121 C122 1.361 . S
C122 H106 0.942 . S
C122 C121 1.361 . S
C122 C123 1.369 . S
C123 C122 1.369 . S
C123 C124 1.404 . S
C124 H107 0.940 . S
C124 C123 1.404 . S
C124 C125 1.389 . S
C125 H108 0.939 . S
C125 C120 1.400 . S
C125 C124 1.389 . S
C126 P100 1.819 . S
C126 C127 1.391 . S
C126 C131 1.391 1_565 S
C127 H109 0.941 . S
C127 C126 1.391 . S
C127 C128 1.396 . S
C128 H112 0.939 . S
C128 C127 1.396 . S
C128 C129 1.397 . S
C129 C128 1.397 . S
C129 C130 1.385 1_565 S
C130 H113 0.940 . S
C130 C129 1.385 1_545 S
C130 C131 1.388 . S
C131 H110 0.939 . S
C131 C126 1.391 1_545 S
C131 C130 1.388 . S
P132 O143 1.490 . S
P132 C146 1.812 . S
P132 C152 1.803 . S
P132 C158 1.819 . S
H133 C147 0.941 . S
H134 C148 0.939 1_554 S
H135 C150 0.940 . S
H136 C151 0.940 . S
H137 C153 0.939 . S
H138 C154 0.942 . S
H139 C156 0.940 . S
H140 C157 0.939 . S
H141 C159 0.941 . S
H142 C163 0.939 . S
O143 P132 1.490 . S
H144 C160 0.939 . S
H145 C162 0.940 . S
C146 P132 1.812 . S
C146 C147 1.389 . S
C146 C151 1.391 . S
C147 H133 0.941 . S
C147 C146 1.389 . S
C147 C148 1.397 . S
C148 H134 0.939 1_556 S
C148 C147 1.397 . S
C148 C149 1.378 . S
C149 C148 1.378 . S
C149 C150 1.378 . S
C150 H135 0.940 . S
C150 C149 1.378 . S
C150 C151 1.396 . S
C151 H136 0.940 . S
C151 C146 1.391 . S
C151 C150 1.396 . S
C152 P132 1.803 . S
C152 C153 1.378 . S
C152 C157 1.400 . S
C153 H137 0.939 . S
C153 C152 1.378 . S
C153 C154 1.361 . S
C154 H138 0.942 . S
C154 C153 1.361 . S
C154 C155 1.369 . S
C155 C154 1.369 . S
C155 C156 1.404 . S
C156 H139 0.940 . S
C156 C155 1.404 . S
C156 C157 1.389 . S
C157 H140 0.939 . S
C157 C152 1.400 . S
C157 C156 1.389 . S
C158 P132 1.819 . S
C158 C159 1.391 . S
C158 C163 1.391 . S
C159 H141 0.941 . S
C159 C158 1.391 . S
C159 C160 1.396 . S
C160 H144 0.939 . S
C160 C159 1.396 . S
C160 C161 1.397 . S
C161 C160 1.397 . S
C161 C162 1.385 . S
C162 H145 0.940 . S
C162 C161 1.385 . S
C162 C163 1.388 . S
C163 H142 0.939 . S
C163 C158 1.391 . S
C163 C162 1.388 . S
P164 O175 1.490 . S
P164 C178 1.812 . S
P164 C184 1.803 . S
P164 C190 1.819 . S
H165 C179 0.941 . S
H166 C180 0.939 . S
H167 C182 0.940 . S
H168 C183 0.940 . S
H169 C185 0.939 . S
H170 C186 0.942 . S
H171 C188 0.940 . S
H172 C189 0.939 . S
H173 C191 0.941 . S
H174 C195 0.939 . S
O175 P164 1.490 . S
H176 C192 0.939 . S
H177 C194 0.940 . S
C178 P164 1.812 . S
C178 C179 1.389 . S
C178 C183 1.391 . S
C179 H165 0.941 . S
C179 C178 1.389 . S
C179 C180 1.397 . S
C180 H166 0.939 . S
C180 C179 1.397 . S
C180 C181 1.378 . S
C181 C180 1.378 . S
C181 C182 1.378 . S
C182 H167 0.940 . S
C182 C181 1.378 . S
C182 C183 1.396 . S
C183 H168 0.940 . S
C183 C178 1.391 . S
C183 C182 1.396 . S
C184 P164 1.803 . S
C184 C185 1.378 . S
C184 C189 1.400 . S
C185 H169 0.939 . S
C185 C184 1.378 . S
C185 C186 1.361 . S
C186 H170 0.942 . S
C186 C185 1.361 . S
C186 C187 1.369 . S
C187 C186 1.369 . S
C187 C188 1.404 . S
C188 H171 0.940 . S
C188 C187 1.404 . S
C188 C189 1.389 . S
C189 H172 0.939 . S
C189 C184 1.400 . S
C189 C188 1.389 . S
C190 P164 1.819 . S
C190 C191 1.391 . S
C190 C195 1.391 . S
C191 H173 0.941 . S
C191 C190 1.391 . S
C191 C192 1.396 . S
C192 H176 0.939 . S
C192 C191 1.396 . S
C192 C193 1.397 . S
C193 C192 1.397 . S
C193 C194 1.385 . S
C194 H177 0.940 . S
C194 C193 1.385 . S
C194 C195 1.388 . S
C195 H174 0.939 . S
C195 C190 1.391 . S
C195 C194 1.388 . S
H196 C202 0.930 . S
H197 C206 0.930 . S
H198 C211 0.929 . S
H199 C209 0.929 . S
H200 C204 0.929 . S
H201 C210 0.929 . S
C202 H196 0.930 . S
C202 C203 1.367 . S
C202 C210 1.378 . S
C203 C202 1.367 . S
C203 C211 1.433 1_554 S
C204 H200 0.929 . S
C204 C206 1.378 . S
C204 C208 1.350 1_556 S
C205 C208 1.463 . S
C205 C210 1.350 . S
C205 N213 1.427 1_554 S
C206 H197 0.930 . S
C206 C204 1.378 . S
C206 C207 1.367 1_556 S
C207 C206 1.367 1_554 S
C207 C209 1.433 . S
C208 C204 1.350 1_554 S
C208 C205 1.463 . S
C208 N212 1.427 . S
C209 H199 0.929 . S
C209 C207 1.433 . S
C209 N212 1.384 . S
C210 H201 0.929 . S
C210 C202 1.378 . S
C210 C205 1.350 . S
C211 H198 0.929 . S
C211 C203 1.433 1_556 S
C211 N213 1.384 . S
N212 C208 1.427 . S
N212 C209 1.384 . S
N213 C205 1.427 1_556 S
N213 C211 1.384 . S
H214 C220 0.930 . S
H215 C224 0.930 . S
H216 C229 0.929 . S
H217 C227 0.929 . S
H218 C222 0.929 . S
H219 C228 0.929 . S
C220 H214 0.930 . S
C220 C221 1.367 . S
C220 C228 1.378 . S
C221 C220 1.367 . S
C221 C229 1.433 1_554 S
C222 H218 0.929 . S
C222 C224 1.378 . S
C222 C226 1.358 . S
C223 C226 1.461 1_554 S
C223 C228 1.350 . S
C223 N231 1.427 1_554 S
C224 H215 0.930 . S
C224 C222 1.378 . S
C224 C225 1.367 . S
C225 C224 1.367 . S
C225 C227 1.433 1_556 S
C226 C222 1.358 . S
C226 C223 1.461 1_556 S
C226 N230 1.421 1_556 S
C227 H217 0.929 . S
C227 C225 1.433 1_554 S
C227 N230 1.384 . S
C228 H219 0.929 . S
C228 C220 1.378 . S
C228 C223 1.350 . S
C229 H216 0.929 . S
C229 C221 1.433 1_556 S
C229 N231 1.384 . S
N230 C226 1.421 1_554 S
N230 C227 1.384 . S
N231 C223 1.427 1_556 S
N231 C229 1.384 . S
H232 C238 0.930 . S
H233 C242 0.930 . S
H234 C247 0.929 . S
H235 C245 0.929 . S
H236 C240 0.929 . S
H237 C246 0.929 . S
C238 H232 0.930 . S
C238 C239 1.367 . S
C238 C246 1.378 . S
C239 C238 1.367 . S
C239 C247 1.433 1_554 S
C240 H236 0.929 . S
C240 C242 1.378 . S
C240 C244 1.350 1_556 S
C241 C244 1.463 . S
C241 C246 1.350 . S
C241 N249 1.427 1_554 S
C242 H233 0.930 . S
C242 C240 1.378 . S
C242 C243 1.367 1_556 S
C243 C242 1.367 1_554 S
C243 C245 1.433 . S
C244 C240 1.350 1_554 S
C244 C241 1.463 . S
C244 N248 1.427 . S
C245 H235 0.929 . S
C245 C243 1.433 . S
C245 N248 1.384 . S
C246 H237 0.929 . S
C246 C238 1.378 . S
C246 C241 1.350 . S
C247 H234 0.929 . S
C247 C239 1.433 1_556 S
C247 N249 1.384 . S
N248 C244 1.427 . S
N248 C245 1.384 . S
N249 C241 1.427 1_556 S
N249 C247 1.384 . S
H250 C256 0.930 . S
H251 C260 0.930 . S
H252 C265 0.929 . S
H253 C263 0.929 . S
H254 C258 0.929 . S
H255 C264 0.929 . S
C256 H250 0.930 . S
C256 C257 1.367 1_556 S
C256 C264 1.378 . S
C257 C256 1.367 1_554 S
C257 C265 1.433 . S
C258 H254 0.929 . S
C258 C260 1.378 . S
C258 C262 1.350 . S
C259 C262 1.463 . S
C259 C264 1.350 1_554 S
C259 N267 1.427 . S
C260 H251 0.930 . S
C260 C258 1.378 . S
C260 C261 1.341 1_554 S
C261 C260 1.341 1_556 S
C261 C263 1.458 . S
C262 C258 1.350 . S
C262 C259 1.463 . S
C262 N266 1.427 1_554 S
C263 H253 0.929 . S
C263 C261 1.458 . S
C263 N266 1.384 . S
C264 H255 0.929 . S
C264 C256 1.378 . S
C264 C259 1.350 1_556 S
C265 H252 0.929 . S
C265 C257 1.433 . S
C265 N267 1.384 . S
N266 C262 1.427 1_556 S
N266 C263 1.384 . S
N267 C259 1.427 . S
N267 C265 1.384 . S
H268 C274 0.930 . S
H269 C278 0.930 . S
H270 C283 0.929 . S
H271 C281 0.929 . S
H272 C276 0.929 . S
H273 C282 0.929 . S
C274 H268 0.930 . S
C274 C275 1.367 . S
C274 C282 1.378 . S
C275 C274 1.367 . S
C275 C283 1.433 . S
C276 H272 0.929 . S
C276 C278 1.378 . S
C276 C280 1.350 . S
C277 C280 1.463 . S
C277 C282 1.350 . S
C277 N285 1.427 . S
C278 H269 0.930 . S
C278 C276 1.378 . S
C278 C279 1.367 . S
C279 C278 1.367 . S
C279 C281 1.433 . S
C280 C276 1.350 . S
C280 C277 1.463 . S
C280 N284 1.427 . S
C281 H271 0.929 . S
C281 C279 1.433 . S
C281 N284 1.384 . S
C282 H273 0.929 . S
C282 C274 1.378 . S
C282 C277 1.350 . S
C283 H270 0.929 . S
C283 C275 1.433 . S
C283 N285 1.384 . S
N284 C280 1.427 . S
N284 C281 1.384 . S
N285 C277 1.427 . S
N285 C283 1.384 . S
H286 C292 0.930 . S
H287 C296 0.930 . S
H288 C301 0.929 . S
H289 C299 0.929 . S
H290 C294 0.929 . S
H291 C300 0.929 . S
C292 H286 0.930 . S
C292 C293 1.367 . S
C292 C300 1.378 . S
C293 C292 1.367 . S
C293 C301 1.433 . S
C294 H290 0.929 . S
C294 C296 1.378 . S
C294 C298 1.350 . S
C295 C298 1.463 . S
C295 C300 1.350 . S
C295 N303 1.427 . S
C296 H287 0.930 . S
C296 C294 1.378 . S
C296 C297 1.367 . S
C297 C296 1.367 . S
C297 C299 1.433 . S
C298 C294 1.350 . S
C298 C295 1.463 . S
C298 N302 1.427 . S
C299 H289 0.929 . S
C299 C297 1.433 . S
C299 N302 1.384 . S
C300 H291 0.929 . S
C300 C292 1.378 . S
C300 C295 1.350 . S
C301 H288 0.929 . S
C301 C293 1.433 . S
C301 N303 1.384 . S
N302 C298 1.427 . S
N302 C299 1.384 . S
N303 C295 1.427 . S
N303 C301 1.384 . S
H304 C310 0.930 . S
H305 C314 0.930 . S
H306 C319 0.929 . S
H307 C317 0.929 . S
H308 C312 0.929 . S
H309 C318 0.929 . S
C310 H304 0.930 . S
C310 C311 1.367 . S
C310 C318 1.378 . S
C311 C310 1.367 . S
C311 C319 1.433 . S
C312 H308 0.929 . S
C312 C314 1.378 . S
C312 C316 1.350 . S
C313 C316 1.463 . S
C313 C318 1.350 . S
C313 N321 1.427 . S
C314 H305 0.930 . S
C314 C312 1.378 . S
C314 C315 1.367 . S
C315 C314 1.367 . S
C315 C317 1.433 . S
C316 C312 1.350 . S
C316 C313 1.463 . S
C316 N320 1.427 . S
C317 H307 0.929 . S
C317 C315 1.433 . S
C317 N320 1.384 . S
C318 H309 0.929 . S
C318 C310 1.378 . S
C318 C313 1.350 . S
C319 H306 0.929 . S
C319 C311 1.433 . S
C319 N321 1.384 . S
N320 C316 1.427 . S
N320 C317 1.384 . S
N321 C313 1.427 . S
N321 C319 1.384 . S
H322 C328 0.930 . S
H323 C332 0.930 . S
H324 C337 0.929 . S
H325 C335 0.929 . S
H326 C330 0.929 . S
H327 C336 0.929 . S
C328 H322 0.930 . S
C328 C329 1.367 . S
C328 C336 1.378 . S
C329 C328 1.367 . S
C329 C337 1.433 . S
C330 H326 0.929 . S
C330 C332 1.378 . S
C330 C334 1.350 . S
C331 C334 1.463 . S
C331 C336 1.350 . S
C331 N339 1.427 . S
C332 H323 0.930 . S
C332 C330 1.378 . S
C332 C333 1.367 . S
C333 C332 1.367 . S
C333 C335 1.433 . S
C334 C330 1.350 . S
C334 C331 1.463 . S
C334 N338 1.427 . S
C335 H325 0.929 . S
C335 C333 1.433 . S
C335 N338 1.384 . S
C336 H327 0.929 . S
C336 C328 1.378 . S
C336 C331 1.350 . S
C337 H324 0.929 . S
C337 C329 1.433 . S
C337 N339 1.384 . S
N338 C334 1.427 . S
N338 C335 1.384 . S
N339 C331 1.427 . S
N339 C337 1.384 . S
H340 C346 0.930 . S
H341 C350 0.930 . S
H342 C355 0.929 . S
H343 C353 0.929 . S
H344 C348 0.929 . S
H345 C354 0.929 . S
C346 H340 0.930 . S
C346 C347 1.367 1_565 S
C346 C354 1.378 . S
C347 C346 1.367 1_545 S
C347 C355 1.433 1_455 S
C348 H344 0.929 . S
C348 C350 1.378 . S
C348 C352 1.350 . S
C349 C352 1.463 1_455 S
C349 C354 1.350 1_545 S
C349 N357 1.427 1_455 S
C350 H341 0.930 . S
C350 C348 1.378 . S
C350 C351 1.367 . S
C351 C350 1.367 . S
C351 C353 1.433 1_645 S
C352 C348 1.350 . S
C352 C349 1.463 1_655 S
C352 N356 1.427 1_645 S
C353 H343 0.929 . S
C353 C351 1.433 1_465 S
C353 N356 1.384 . S
C354 H345 0.929 . S
C354 C346 1.378 . S
C354 C349 1.350 1_565 S
C355 H342 0.929 . S
C355 C347 1.433 1_655 S
C355 N357 1.384 . S
N356 C352 1.427 1_465 S
N356 C353 1.384 . S
N357 C349 1.427 1_655 S
N357 C355 1.384 . S
H358 C364 0.930 . S
H359 C368 0.930 . S
H360 C373 0.929 . S
H361 C371 0.929 . S
H362 C366 0.929 . S
H363 C372 0.929 . S
C364 H358 0.930 . S
C364 C365 1.367 . S
C364 C372 1.378 . S
C365 C364 1.367 . S
C365 C373 1.433 1_445 S
C366 H362 0.929 . S
C366 C368 1.378 . S
C366 C370 1.350 1_665 S
C367 C370 1.463 . S
C367 C372 1.350 . S
C367 N375 1.427 1_445 S
C368 H359 0.930 . S
C368 C366 1.378 . S
C368 C369 1.367 1_665 S
C369 C368 1.367 1_445 S
C369 C371 1.433 . S
C370 C366 1.350 1_445 S
C370 C367 1.463 . S
C370 N374 1.427 . S
C371 H361 0.929 . S
C371 C369 1.433 . S
C371 N374 1.384 . S
C372 H363 0.929 . S
C372 C364 1.378 . S
C372 C367 1.350 . S
C373 H360 0.929 . S
C373 C365 1.433 1_665 S
C373 N375 1.384 . S
N374 C370 1.427 . S
N374 C371 1.384 . S
N375 C367 1.427 1_665 S
N375 C373 1.384 . S
H376 C382 0.930 . S
H377 C386 0.930 . S
H378 C391 0.929 . S
H379 C389 0.929 . S
H380 C384 0.929 . S
H381 C390 0.929 . S
C382 H376 0.930 . S
C382 C383 1.367 . S
C382 C390 1.378 . S
C383 C382 1.367 . S
C383 C391 1.433 . S
C384 H380 0.929 . S
C384 C386 1.378 . S
C384 C388 1.350 . S
C385 C388 1.463 . S
C385 C390 1.350 . S
C385 N393 1.427 . S
C386 H377 0.930 . S
C386 C384 1.378 . S
C386 C387 1.367 . S
C387 C386 1.367 . S
C387 C389 1.433 . S
C388 C384 1.350 . S
C388 C385 1.463 . S
C388 N392 1.427 . S
C389 H379 0.929 . S
C389 C387 1.433 . S
C389 N392 1.384 . S
C390 H381 0.929 . S
C390 C382 1.378 . S
C390 C385 1.350 . S
C391 H378 0.929 . S
C391 C383 1.433 . S
C391 N393 1.384 . S
N392 C388 1.427 . S
N392 C389 1.384 . S
N393 C385 1.427 . S
N393 C391 1.384 . S
H394 C400 0.930 . S
H395 C404 0.930 . S
H396 C409 0.929 . S
H397 C407 0.929 . S
H398 C402 0.929 . S
H399 C408 0.929 . S
C400 H394 0.930 . S
C400 C401 1.367 . S
C400 C408 1.378 . S
C401 C400 1.367 . S
C401 C409 1.433 . S
C402 H398 0.929 . S
C402 C404 1.378 . S
C402 C406 1.350 . S
C403 C406 1.463 . S
C403 C408 1.350 . S
C403 N411 1.427 . S
C404 H395 0.930 . S
C404 C402 1.378 . S
C404 C405 1.367 . S
C405 C404 1.367 . S
C405 C407 1.433 . S
C406 C402 1.350 . S
C406 C403 1.463 . S
C406 N410 1.427 . S
C407 H397 0.929 . S
C407 C405 1.433 . S
C407 N410 1.384 . S
C408 H399 0.929 . S
C408 C400 1.378 . S
C408 C403 1.350 . S
C409 H396 0.929 . S
C409 C401 1.433 . S
C409 N411 1.384 . S
N410 C406 1.427 . S
N410 C407 1.384 . S
N411 C403 1.427 . S
N411 C409 1.384 . S
C207 C181 1.417 . S
C203 C29 1.449 . S
C221 C8 1.443 . S
C225 C149 1.391 . S
C239 C0 1.439 . S
C243 C187 1.402 . S
C257 C17 1.444 . S
C261 C155 1.407 . S
C275 C63 1.451 . S
C279 C117 1.410 . S
C293 C42 1.441 . S
C297 C85 1.407 . S
C315 C123 1.398 . S
C311 C34 1.440 . S
C333 C91 1.398 . S
C329 C51 1.447 . S
C347 C4 1.488 . S
C351 C97 1.459 1_655 S
C365 C13 1.487 . S
C369 C129 1.460 1_545 S
C387 C161 1.457 . S
C383 C38 1.488 . S
C401 C47 1.487 . S
C405 C193 1.458 . S
