# Generated by pormake.
# Topology sit, (3,6)-cn, num edge types: 1
# Building blocks:
#     Node 0, Type 0, BuildingBlock: BELTOD_clean_linker_0, # of connection points: 3
#     Node 1, Type 0, BuildingBlock: BELTOD_clean_linker_0, # of connection points: 3
#     Node 2, Type 0, BuildingBlock: BELTOD_clean_linker_0, # of connection points: 3
#     Node 3, Type 0, BuildingBlock: BELTOD_clean_linker_0, # of connection points: 3
#     Node 4, Type 1, BuildingBlock: MIDCAF_clean_sbu_0, # of connection points: 6
#     Node 5, Type 1, BuildingBlock: MIDCAF_clean_sbu_0, # of connection points: 6
#     Edge 6, Type (0, 1), BuildingBlock: KIFKEQ_clean_linker_1, # of connection points: 2
#     Edge 7, Type (0, 1), BuildingBlock: KIFKEQ_clean_linker_1, # of connection points: 2
#     Edge 8, Type (0, 1), BuildingBlock: KIFKEQ_clean_linker_1, # of connection points: 2
#     Edge 9, Type (0, 1), BuildingBlock: KIFKEQ_clean_linker_1, # of connection points: 2
#     Edge 10, Type (0, 1), BuildingBlock: KIFKEQ_clean_linker_1, # of connection points: 2
#     Edge 11, Type (0, 1), BuildingBlock: KIFKEQ_clean_linker_1, # of connection points: 2
#     Edge 12, Type (0, 1), BuildingBlock: KIFKEQ_clean_linker_1, # of connection points: 2
#     Edge 13, Type (0, 1), BuildingBlock: KIFKEQ_clean_linker_1, # of connection points: 2
#     Edge 14, Type (0, 1), BuildingBlock: KIFKEQ_clean_linker_1, # of connection points: 2
#     Edge 15, Type (0, 1), BuildingBlock: KIFKEQ_clean_linker_1, # of connection points: 2
#     Edge 16, Type (0, 1), BuildingBlock: KIFKEQ_clean_linker_1, # of connection points: 2
#     Edge 17, Type (0, 1), BuildingBlock: KIFKEQ_clean_linker_1, # of connection points: 2
# Relax obj value: 0.105
# Max RMSD: 0.192
# Mean RMSD: 0.101
data_MOF--net-sit--node1-MIDCAF_clean_sbu_0--node2-BELTOD_clean_linker_0--edge1-KIFKEQ_clean_linker_1
_symmetry_space_group_name_H-M    P1
_symmetry_Int_Tables_number       1
_symmetry_cell_setting            triclinic
loop_
_symmetry_equiv_pos_as_xyz
'x, y, z'
_cell_length_a     26.873216
_cell_length_b     36.273012
_cell_length_c     41.025267
_cell_angle_alpha  89.326032
_cell_angle_beta   90.312593
_cell_angle_gamma 83.313156
loop_
_atom_site_label
_atom_site_type_symbol
_atom_site_fract_x
_atom_site_fract_y
_atom_site_fract_z
_atom_type_partial_charge
P0 P 0.09854 0.25479 0.96704 0.0
H1 H 0.19899 0.24757 -0.00372 0.0
H2 H 0.2642 0.28939 -0.00184 0.0
H3 H 0.16737 0.37213 0.94391 0.0
H4 H 0.10254 0.33124 0.94312 0.0
H5 H 0.06644 0.1822 0.98154 0.0
H6 H 0.05423 0.1491 0.03273 0.0
H7 H 0.10254 0.24062 0.0864 0.0
H8 H 0.11284 0.27383 0.03537 0.0
H9 H 0.05189 0.27361 0.90393 0.0
H10 H 0.01921 0.29642 0.00494 0.0
O11 O 0.11591 0.22416 0.93804 0.0
H12 H 0.98171 0.31864 0.88743 0.0
H13 H 0.94732 0.34037 0.98879 0.0
C14 C 0.14547 0.28633 0.9701 0.0
C15 C 0.19164 0.27497 0.98528 0.0
C16 C 0.22896 0.29884 0.98616 0.0
C17 C 0.22095 0.3343 0.97136 0.0
C18 C 0.1745 0.34547 0.95626 0.0
C19 C 0.13728 0.32175 0.95558 0.0
C20 C 0.09155 0.23008 0.0047 0.0
C21 C 0.07462 0.19496 0.00439 0.0
C22 C 0.06781 0.17603 0.03365 0.0
C23 C 0.07744 0.19213 0.06371 0.0
C24 C 0.09412 0.22754 0.06376 0.0
C25 C 0.10066 0.24643 0.03455 0.0
C26 C 0.04006 0.28106 0.95564 0.0
C27 C 0.02849 0.2874 0.92258 0.0
C28 C -0.0117 0.3133 0.9132 0.0
C29 C 0.95874 0.3333 0.93676 0.0
C30 C 0.96968 0.32596 0.96996 0.0
C31 C 0.0103 0.30031 0.97929 0.0
P32 P 0.02379 0.68099 0.09798 0.0
H33 H 0.10888 0.6246 0.11272 0.0
H34 H 0.17826 0.59657 0.07936 0.0
H35 H 0.12397 0.66753 -0.00167 0.0
H36 H 0.0548 0.69518 0.03168 0.0
H37 H 0.9475 0.73797 0.1211 0.0
H38 H 0.94952 0.80269 0.13609 0.0
H39 H 0.10349 0.7965 0.10455 0.0
H40 H 0.10155 0.73145 0.09064 0.0
H41 H 0.9675 0.61707 0.09763 0.0
H42 H 0.96261 0.72256 0.04749 0.0
O43 O 0.02441 0.6599 0.13437 0.0
H44 H 0.89921 0.60051 0.06313 0.0
H45 H 0.89512 0.706 0.01244 0.0
C46 C 0.07672 0.66186 0.07457 0.0
C47 C 0.11206 0.63419 0.08782 0.0
C48 C 0.1517 0.61822 0.06877 0.0
C49 C 0.15624 0.62958 0.03614 0.0
C50 C 0.12092 0.65766 0.02318 0.0
C51 C 0.08157 0.67367 0.04226 0.0
C52 C 0.02409 0.73 0.10444 0.0
C53 C 0.9814 0.75077 0.11692 0.0
C54 C 0.98255 0.78791 0.12524 0.0
C55 C 0.02666 0.80497 0.12143 0.0
C56 C 0.06903 0.78422 0.10804 0.0
C57 C 0.06784 0.747 0.09985 0.0
C58 C 0.96916 0.67139 0.07564 0.0
C59 C 0.95112 0.63691 0.07953 0.0
C60 C 0.91252 0.62731 0.05953 0.0
C61 C 0.89168 0.65193 0.03502 0.0
C62 C 0.90971 0.68665 0.03143 0.0
C63 C 0.94829 0.69619 0.05147 0.0
P64 P 0.60318 0.74778 0.46796 0.0
H65 H 0.69368 0.75049 0.42921 0.0
H66 H 0.7508 0.79769 0.42305 0.0
H67 H 0.6735 0.86162 0.49949 0.0
H68 H 0.6159 0.81427 0.50541 0.0
H69 H 0.54182 0.69042 0.48621 0.0
H70 H 0.52942 0.65784 0.53765 0.0
H71 H 0.63689 0.71972 0.58469 0.0
H72 H 0.64956 0.75181 0.53326 0.0
H73 H 0.56184 0.77418 0.40541 0.0
H74 H 0.52223 0.78678 0.50668 0.0
O75 O 0.61567 0.71587 0.43924 0.0
H76 H 0.49012 0.81857 0.38995 0.0
H77 H 0.44943 0.83073 0.4914 0.0
C78 C 0.65091 0.77867 0.46802 0.0
C79 C 0.68944 0.77428 0.44507 0.0
C80 C 0.7218 0.80144 0.44135 0.0
C81 C 0.71621 0.83345 0.46059 0.0
C82 C 0.67874 0.83714 0.48446 0.0
C83 C 0.646 0.81008 0.48792 0.0
C84 C 0.5963 0.72368 0.50595 0.0
C85 C 0.56293 0.69677 0.50759 0.0
C86 C 0.55607 0.67805 0.53689 0.0
C87 C 0.58216 0.68629 0.56515 0.0
C88 C 0.61594 0.71309 0.56333 0.0
C89 C 0.62315 0.73151 0.53392 0.0
C90 C 0.54639 0.7764 0.45705 0.0
C91 C 0.53693 0.78588 0.42426 0.0
C92 C 0.49595 0.81133 0.41549 0.0
C93 C 0.46381 0.82802 0.43944 0.0
C94 C 0.47361 0.81853 0.47239 0.0
C95 C 0.51477 0.79304 0.48113 0.0
P96 P 0.52876 0.1811 0.59691 0.0
H97 H 0.6228 0.13282 0.60873 0.0
H98 H 0.69113 0.1096 0.5727 0.0
H99 H 0.61992 0.17602 0.49347 0.0
H100 H 0.55099 0.19815 0.52951 0.0
H101 H 0.45525 0.22836 0.634 0.0
H102 H 0.44927 0.29344 0.64993 0.0
H103 H 0.58282 0.30671 0.59501 0.0
H104 H 0.58868 0.24173 0.5792 0.0
H105 H 0.51136 0.10896 0.5731 0.0
H106 H 0.43118 0.21924 0.57334 0.0
O107 O 0.53551 0.15851 0.63262 0.0
H108 H 0.4434 0.08698 0.54134 0.0
H109 H 0.36248 0.1969 0.54282 0.0
C110 C 0.58208 0.16732 0.57174 0.0
C111 C 0.62213 0.14259 0.58369 0.0
C112 C 0.66125 0.1294 0.56305 0.0
C113 C 0.66089 0.14077 0.53013 0.0
C114 C 0.62095 0.16615 0.51851 0.0
C115 C 0.58182 0.17916 0.53913 0.0
C116 C 0.52186 0.23021 0.60501 0.0
C117 C 0.48262 0.24549 0.62481 0.0
C118 C 0.47912 0.28275 0.63376 0.0
C119 C 0.51541 0.30529 0.62353 0.0
C120 C 0.5543 0.29004 0.60324 0.0
C121 C 0.5575 0.25282 0.59407 0.0
C122 C 0.47621 0.16563 0.57587 0.0
C123 C 0.47889 0.12833 0.56671 0.0
C124 C 0.44028 0.1158 0.54853 0.0
C125 C 0.39791 0.14029 0.53985 0.0
C126 C 0.39472 0.17749 0.54957 0.0
C127 C 0.43392 0.19021 0.56714 0.0
Zn128 Zn 0.03316 0.1013 0.35403 0.0
Zn129 Zn 0.05859 0.96498 0.35039 0.0
Zn130 Zn 0.05014 0.03132 0.35095 0.0
C131 C 0.03134 0.9851 0.28833 0.0
C132 C -0.01392 0.97749 0.3927 0.0
O133 O 0.11365 0.04869 0.37944 0.0
O134 O 0.08418 0.10719 0.38798 0.0
C135 C 0.05316 0.08671 0.28924 0.0
O136 O 0.04679 0.01512 0.29892 0.0
O137 O 0.02534 0.95905 0.30799 0.0
O138 O 0.02168 0.95196 0.38956 0.0
O139 O -0.01236 1.00881 0.37769 0.0
O140 O 0.0501 0.1133 0.30893 0.0
O141 O 0.05003 0.05342 0.29979 0.0
O142 O 0.97949 0.04805 0.37759 0.0
O143 O 0.96207 0.10815 0.36742 0.0
C144 C 0.95008 0.07861 0.38006 0.0
O145 O 0.1246 1.01065 0.37248 0.0
O146 O 0.13205 0.95447 0.35162 0.0
C147 C 0.11728 0.08006 0.39321 0.0
C148 C 0.15116 0.97954 0.36657 0.0
Zn149 Zn 0.52304 0.60661 0.85411 0.0
Zn150 Zn 0.56202 0.46714 0.85137 0.0
Zn151 Zn 0.54526 0.53335 0.85271 0.0
C152 C 0.52621 0.48495 0.79099 0.0
C153 C 0.49296 0.47564 0.89721 0.0
O154 O 0.6084 0.55504 0.87764 0.0
O155 O 0.58589 0.61577 0.87716 0.0
C156 C 0.52668 0.5878 0.78882 0.0
O157 O 0.53864 0.51619 0.80099 0.0
O158 O 0.52597 0.45812 0.81075 0.0
O159 O 0.53071 0.4524 0.89221 0.0
O160 O 0.48881 0.50734 0.8822 0.0
O161 O 0.51778 0.61574 0.80679 0.0
O162 O 0.53726 0.55508 0.80155 0.0
O163 O 0.47712 0.54643 0.88244 0.0
O164 O 0.46006 0.60758 0.87903 0.0
C165 C 0.4493 0.57662 0.88944 0.0
O166 O 0.62239 0.51686 0.87191 0.0
O167 O 0.63576 0.46152 0.84972 0.0
C168 C 0.61691 0.58817 0.88506 0.0
C169 C 0.65221 0.4877 0.86475 0.0
H170 H 0.03757 0.22196 0.11988 0.0
H171 H 0.09991 0.11774 0.07847 0.0
H172 H 0.0329 0.19163 0.17278 0.0
H173 H 0.09373 0.08715 0.13172 0.0
H174 H 0.01863 0.05331 0.23478 0.0
H175 H 0.02383 0.07463 0.17782 0.0
H176 H 0.10747 0.16252 0.2094 0.0
H177 H 0.10356 0.14087 0.26546 0.0
C178 C 0.05025 0.19257 0.12201 0.0
C179 C 0.07006 0.17248 0.09504 0.0
C180 C 0.04725 0.17518 0.15227 0.0
C181 C 0.06351 0.13719 0.15631 0.0
C182 C 0.08087 0.11647 0.12913 0.0
C183 C 0.08432 0.13402 0.09873 0.0
C184 C 0.03953 0.0763 0.22928 0.0
C185 C 0.06083 0.0953 0.25448 0.0
C186 C 0.04208 0.08871 0.19683 0.0
C187 C 0.0654 0.12054 0.18945 0.0
C188 C 0.08855 0.13832 0.21453 0.0
C189 C 0.08634 0.12585 0.2466 0.0
H190 H 0.95513 0.86571 0.11864 0.0
H191 H 0.10473 0.82987 0.15434 0.0
H192 H 0.95446 0.92312 0.14927 0.0
H193 H 0.10418 0.88703 0.18444 0.0
H194 H 0.09941 0.98878 0.23979 0.0
H195 H 0.09902 0.95528 0.18818 0.0
H196 H 0.9493 0.92929 0.20859 0.0
H197 H 0.9501 0.96255 0.25962 0.0
C198 C -0.01182 0.87032 0.13253 0.0
C199 C 0.02964 0.84283 0.13446 0.0
C200 C -0.01211 0.90331 0.1499 0.0
C201 C 0.02909 0.90957 0.16951 0.0
C202 C 0.07205 0.88344 0.16926 0.0
C203 C 0.07229 0.85045 0.152 0.0
C204 C 0.0657 0.97735 0.23232 0.0
C205 C 0.02479 0.97805 0.25348 0.0
C206 C 0.06559 0.95788 0.20301 0.0
C207 C 0.02444 0.9391 0.19452 0.0
C208 C 0.98149 0.94356 0.21415 0.0
C209 C 0.98186 0.96259 0.24346 0.0
H210 H 0.57739 0.61235 0.5778 0.0
H211 H 0.56485 0.71957 0.62364 0.0
H212 H 0.55934 0.58333 0.63014 0.0
H213 H 0.54722 0.69074 0.67559 0.0
H214 H 0.46537 0.63823 0.75415 0.0
H215 H 0.47615 0.65861 0.69807 0.0
H216 H 0.60146 0.57372 0.68744 0.0
H217 H 0.59102 0.55376 0.74413 0.0
C218 C 0.57072 0.62965 0.59904 0.0
C219 C 0.57256 0.66821 0.59672 0.0
C220 C 0.56066 0.61304 0.62892 0.0
C221 C 0.55144 0.63484 0.65679 0.0
C222 C 0.55349 0.67332 0.65439 0.0
C223 C 0.5641 0.68979 0.62475 0.0
C224 C 0.49452 0.62338 0.7396 0.0
C225 C 0.52714 0.59417 0.75328 0.0
C226 C 0.50083 0.63516 0.7076 0.0
C227 C 0.54004 0.61806 0.6886 0.0
C228 C 0.57071 0.58721 0.70152 0.0
C229 C 0.56446 0.57549 0.73377 0.0
H230 H 0.59463 0.33642 0.64843 0.0
H231 H 0.4359 0.35947 0.62928 0.0
H232 H 0.59241 0.39294 0.67959 0.0
H233 H 0.43364 0.41701 0.6599 0.0
H234 H 0.44324 0.46005 0.76705 0.0
H235 H 0.43777 0.42642 0.71666 0.0
H236 H 0.58142 0.45798 0.68733 0.0
H237 H 0.58755 0.49003 0.73899 0.0
C238 C 0.55952 0.35429 0.64994 0.0
C239 C 0.51531 0.34321 0.63682 0.0
C240 C 0.55822 0.38697 0.66773 0.0
C241 C 0.51268 0.40955 0.67266 0.0
C242 C 0.46918 0.39995 0.65719 0.0
C243 C 0.47042 0.36701 0.63964 0.0
C244 C 0.47255 0.46113 0.74913 0.0
C245 C 0.51547 0.478 0.75661 0.0
C246 C 0.46949 0.44186 0.7201 0.0
C247 C 0.50958 0.43886 0.698 0.0
C248 C 0.55022 0.45919 0.70404 0.0
C249 C 0.55333 0.47834 0.73329 0.0
H250 H 0.32054 0.31355 0.96089 0.0
H251 H 0.2137 0.41024 0.97663 0.0
H252 H 0.3855 0.3534 0.95083 0.0
H253 H 0.279 0.45031 0.96581 0.0
H254 H 0.39225 0.49478 0.88953 0.0
H255 H 0.3257 0.46451 0.91536 0.0
H256 H 0.43595 0.39861 0.97526 0.0
H257 H 0.50226 0.42881 0.94939 0.0
C258 C 0.31111 0.34326 0.96301 0.0
C259 C 0.26175 0.35862 0.96939 0.0
C260 C 0.34842 0.36618 0.95718 0.0
C261 C 0.33731 0.40502 0.95747 0.0
C262 C 0.28849 0.42047 0.9651 0.0
C263 C 0.25114 0.3975 0.97118 0.0
C264 C 0.40196 0.47472 0.90897 0.0
C265 C 0.45228 0.46401 0.91743 0.0
C266 C 0.36392 0.45736 0.92376 0.0
C267 C 0.37577 0.42878 0.94698 0.0
C268 C 0.42582 0.42008 0.95704 0.0
C269 C 0.46371 0.43745 0.94234 0.0
H270 H 0.88655 0.58446 0.0066 0.0
H271 H 0.80776 0.69497 0.01281 0.0
H272 H 0.8228 0.5673 0.96885 0.0
H273 H 0.74433 0.67789 0.97503 0.0
H274 H 0.66792 0.6485 0.88221 0.0
H275 H 0.73625 0.66262 0.9176 0.0
H276 H 0.7334 0.5574 0.96766 0.0
H277 H 0.66442 0.54375 0.93232 0.0
C278 C 0.85539 0.60498 0.00017 0.0
C279 C 0.85228 0.64113 0.01268 0.0
C280 C 0.81897 0.59516 0.97848 0.0
C281 C 0.77875 0.6213 0.96876 0.0
C282 C 0.77542 0.65731 0.98151 0.0
C283 C 0.81173 0.66711 0.00321 0.0
C284 C 0.68234 0.62823 0.90055 0.0
C285 C 0.66165 0.59464 0.90419 0.0
C286 C 0.72124 0.63639 0.92093 0.0
C287 C 0.74007 0.61122 0.94557 0.0
C288 C 0.72022 0.57714 0.94862 0.0
C289 C 0.68116 0.56906 0.92821 0.0
H290 H 0.89406 0.33172 0.88518 0.0
H291 H 0.92999 0.40065 0.96529 0.0
H292 H 0.8276 0.3792 0.86793 0.0
H293 H 0.86178 0.44774 0.94846 0.0
H294 H 0.68413 0.47991 0.92737 0.0
H295 H 0.76542 0.44916 0.94554 0.0
H296 H 0.81634 0.44538 0.84587 0.0
H297 H 0.73521 0.47684 0.82795 0.0
C298 C 0.88826 0.35714 0.89893 0.0
C299 C 0.91758 0.36226 0.92662 0.0
C300 C 0.85016 0.3844 0.88899 0.0
C301 C 0.84001 0.41734 0.90664 0.0
C302 C 0.86894 0.42259 0.93442 0.0
C303 C 0.90762 0.39544 0.94418 0.0
C304 C 0.71383 0.47473 0.90971 0.0
C305 C 0.70416 0.48165 0.87643 0.0
C306 C 0.76013 0.45663 0.92001 0.0
C307 C 0.79686 0.44453 0.89703 0.0
C308 C 0.78845 0.45414 0.86402 0.0
C309 C 0.74236 0.47244 0.8538 0.0
H310 H 0.2553 0.61421 0.05279 0.0
H311 H 0.15129 0.60711 0.9731 0.0
H312 H 0.32498 0.59358 0.01689 0.0
H313 H 0.22084 0.58637 0.93727 0.0
H314 H 0.3586 0.61493 0.87849 0.0
H315 H 0.28633 0.62037 0.91437 0.0
H316 H 0.36701 0.54324 0.98253 0.0
H317 H 0.44014 0.53862 0.94656 0.0
C318 C 0.24727 0.60749 0.02779 0.0
C319 C 0.19795 0.61285 0.01559 0.0
C320 C 0.28715 0.59556 0.00726 0.0
C321 C 0.2784 0.58873 0.97418 0.0
C322 C 0.2288 0.59208 0.96251 0.0
C323 C 0.18903 0.60404 0.98298 0.0
C324 C 0.36053 0.59875 0.90093 0.0
C325 C 0.40445 0.57601 0.90968 0.0
C326 C 0.31908 0.60161 0.92137 0.0
C327 C 0.32086 0.58207 0.95123 0.0
C328 C 0.36462 0.55868 0.95972 0.0
C329 C 0.40618 0.55572 0.93906 0.0
H330 H 0.7369 0.86444 0.40236 0.0
H331 H 0.76758 0.86993 0.50548 0.0
H332 H 0.79568 0.90928 0.39144 0.0
H333 H 0.82646 0.91536 0.49458 0.0
H334 H 0.98287 0.93367 0.4464 0.0
H335 H 0.91006 0.90717 0.46747 0.0
H336 H 0.81501 0.97432 0.39898 0.0
H337 H 0.88837 1.00055 0.37762 0.0
C338 C 0.75593 0.87559 0.42272 0.0
C339 C 0.74835 0.86333 0.4547 0.0
C340 C 0.78905 0.90167 0.41652 0.0
C341 C 0.81563 0.91589 0.44217 0.0
C342 C 0.80655 0.90477 0.47435 0.0
C343 C 0.77289 0.87888 0.48058 0.0
C344 C 0.94618 0.94353 0.43652 0.0
C345 C 0.94113 0.96899 0.41034 0.0
C346 C 0.90443 0.92854 0.4487 0.0
C347 C 0.85691 0.93838 0.43463 0.0
C348 C 0.85132 0.96597 0.41005 0.0
C349 C 0.89315 0.98118 0.398 0.0
H350 H 0.40634 0.10751 0.48057 0.0
H351 H 0.2991 0.14394 0.55463 0.0
H352 H 0.33897 0.09016 0.4459 0.0
H353 H 0.23179 0.1246 0.52116 0.0
H354 H 0.11796 0.13265 0.43951 0.0
H355 H 0.18597 0.14447 0.47523 0.0
H356 H 0.27858 0.0505 0.43508 0.0
H357 H 0.21128 0.04128 0.3969 0.0
C358 C 0.36827 0.11114 0.48956 0.0
C359 C 0.35757 0.12733 0.51999 0.0
C360 C 0.32965 0.10096 0.46986 0.0
C361 C 0.27961 0.10619 0.48049 0.0
C362 C 0.26953 0.12106 0.51167 0.0
C363 C 0.30802 0.13194 0.53101 0.0
C364 C 0.15284 0.11446 0.43824 0.0
C365 C 0.15884 0.0853 0.41585 0.0
C366 C 0.19181 0.12094 0.45914 0.0
C367 C 0.23783 0.09813 0.45861 0.0
C368 C 0.24381 0.06878 0.43624 0.0
C369 C 0.20486 0.06277 0.41483 0.0
H370 H 0.42919 0.89363 0.46898 0.0
H371 H 0.3999 0.82366 0.38823 0.0
H372 H 0.35816 0.93841 0.45203 0.0
H373 H 0.32978 0.86816 0.37132 0.0
H374 H 0.23268 0.96199 0.32974 0.0
H375 H 0.31335 0.93069 0.34823 0.0
H376 H 0.26484 0.94242 0.44822 0.0
H377 H 0.18435 0.97472 0.4294 0.0
C378 C 0.40751 0.88773 0.44773 0.0
C379 C 0.42037 0.85518 0.42982 0.0
C380 C 0.36704 0.91343 0.43798 0.0
C381 C 0.33888 0.90712 0.41006 0.0
C382 C 0.35156 0.8744 0.39242 0.0
C383 C 0.39172 0.84879 0.40217 0.0
C384 C 0.24013 0.95902 0.35569 0.0
C385 C 0.20287 0.97085 0.37823 0.0
C386 C 0.28597 0.94077 0.36629 0.0
C387 C 0.295 0.93337 0.39964 0.0
C388 C 0.25903 0.94778 0.42238 0.0
C389 C 0.21309 0.96631 0.41169 0.0
H390 H 0.76149 0.12847 0.5434 0.0
H391 H 0.6529 0.11992 0.46655 0.0
H392 H 0.82885 0.10713 0.50618 0.0
H393 H 0.7205 0.09914 0.42922 0.0
H394 H 0.86108 0.11977 0.36749 0.0
H395 H 0.78899 0.12982 0.40362 0.0
H396 H 0.86467 0.05262 0.47372 0.0
H397 H 0.93727 0.0433 0.43774 0.0
C398 C 0.7519 0.12155 0.51872 0.0
C399 C 0.70181 0.1262 0.5079 0.0
C400 C 0.79051 0.10926 0.49741 0.0
C401 C 0.7799 0.10152 0.46479 0.0
C402 C 0.72979 0.10532 0.45414 0.0
C403 C 0.69116 0.11742 0.47549 0.0
C404 C 0.86182 0.1045 0.39039 0.0
C405 C 0.90427 0.0804 0.39972 0.0
C406 C 0.82054 0.11008 0.41098 0.0
C407 C 0.82125 0.09203 0.4415 0.0
C408 C 0.86324 0.06706 0.45042 0.0
C409 C 0.90445 0.06136 0.4297 0.0
loop_
_geom_bond_atom_site_label_1
_geom_bond_atom_site_label_2
_geom_bond_distance
_geom_bond_site_symmetry_2
_ccdc_geom_bond_type
P0 O11 1.490 . S
P0 C14 1.812 . S
P0 C20 1.803 1_556 S
P0 C26 1.819 . S
H1 C15 0.941 . S
H2 C16 0.939 . S
H3 C18 0.940 1_554 S
H4 C19 0.941 1_554 S
H5 C21 0.939 . S
H6 C22 0.942 . S
H7 C24 0.940 . S
H8 C25 0.939 . S
H9 C27 0.941 . S
H10 C31 0.939 . S
O11 P0 1.490 . S
H12 C28 0.939 . S
H13 C30 0.941 . S
C14 P0 1.812 . S
C14 C15 1.389 . S
C14 C19 1.391 . S
C15 H1 0.941 . S
C15 C14 1.389 . S
C15 C16 1.397 . S
C16 H2 0.939 . S
C16 C15 1.397 . S
C16 C17 1.378 . S
C17 C16 1.378 . S
C17 C18 1.378 . S
C18 H3 0.940 1_556 S
C18 C17 1.378 . S
C18 C19 1.396 . S
C19 H4 0.941 1_556 S
C19 C14 1.391 . S
C19 C18 1.396 . S
C20 P0 1.803 1_554 S
C20 C21 1.378 . S
C20 C25 1.400 . S
C21 H5 0.939 . S
C21 C20 1.378 . S
C21 C22 1.361 . S
C22 H6 0.942 . S
C22 C21 1.361 . S
C22 C23 1.369 . S
C23 C22 1.369 . S
C23 C24 1.404 . S
C24 H7 0.940 . S
C24 C23 1.404 . S
C24 C25 1.389 . S
C25 H8 0.939 . S
C25 C20 1.400 . S
C25 C24 1.389 . S
C26 P0 1.819 . S
C26 C27 1.391 . S
C26 C31 1.391 1_556 S
C27 H9 0.941 . S
C27 C26 1.391 . S
C27 C28 1.396 . S
C28 H12 0.939 . S
C28 C27 1.396 . S
C28 C29 1.397 1_455 S
C29 C28 1.397 1_655 S
C29 C30 1.385 1_556 S
C30 H13 0.941 . S
C30 C29 1.385 1_554 S
C30 C31 1.387 1_655 S
C31 H10 0.939 . S
C31 C26 1.391 1_554 S
C31 C30 1.387 1_455 S
P32 O43 1.490 . S
P32 C46 1.812 . S
P32 C52 1.803 . S
P32 C58 1.819 1_455 S
H33 C47 0.941 . S
H34 C48 0.939 . S
H35 C50 0.940 . S
H36 C51 0.940 . S
H37 C53 0.939 . S
H38 C54 0.942 . S
H39 C56 0.940 . S
H40 C57 0.939 . S
H41 C59 0.941 . S
H42 C63 0.939 . S
O43 P32 1.490 . S
H44 C60 0.939 . S
H45 C62 0.940 . S
C46 P32 1.812 . S
C46 C47 1.389 . S
C46 C51 1.391 1_554 S
C47 H33 0.941 . S
C47 C46 1.389 . S
C47 C48 1.397 . S
C48 H34 0.939 . S
C48 C47 1.397 . S
C48 C49 1.378 1_554 S
C49 C48 1.378 1_556 S
C49 C50 1.378 . S
C50 H35 0.940 . S
C50 C49 1.378 . S
C50 C51 1.396 . S
C51 H36 0.940 . S
C51 C46 1.391 1_556 S
C51 C50 1.396 . S
C52 P32 1.803 . S
C52 C53 1.378 1_455 S
C52 C57 1.400 . S
C53 H37 0.939 . S
C53 C52 1.378 1_655 S
C53 C54 1.361 . S
C54 H38 0.942 . S
C54 C53 1.361 . S
C54 C55 1.364 1_655 S
C55 C54 1.364 1_455 S
C55 C56 1.409 . S
C56 H39 0.940 . S
C56 C55 1.409 . S
C56 C57 1.389 . S
C57 H40 0.939 . S
C57 C52 1.400 . S
C57 C56 1.389 . S
C58 P32 1.819 1_655 S
C58 C59 1.391 . S
C58 C63 1.391 . S
C59 H41 0.941 . S
C59 C58 1.391 . S
C59 C60 1.397 1_554 S
C60 H44 0.939 . S
C60 C59 1.397 1_556 S
C60 C61 1.397 . S
C61 C60 1.397 . S
C61 C62 1.385 1_556 S
C62 H45 0.940 . S
C62 C61 1.385 1_554 S
C62 C63 1.388 . S
C63 H42 0.939 . S
C63 C58 1.391 . S
C63 C62 1.388 . S
P64 O75 1.490 . S
P64 C78 1.812 . S
P64 C84 1.803 . S
P64 C90 1.819 . S
H65 C79 0.941 . S
H66 C80 0.939 . S
H67 C82 0.940 . S
H68 C83 0.940 . S
H69 C85 0.939 . S
H70 C86 0.942 . S
H71 C88 0.940 . S
H72 C89 0.939 . S
H73 C91 0.941 . S
H74 C95 0.939 . S
O75 P64 1.490 . S
H76 C92 0.939 . S
H77 C94 0.940 . S
C78 P64 1.812 . S
C78 C79 1.389 . S
C78 C83 1.391 . S
C79 H65 0.941 . S
C79 C78 1.389 . S
C79 C80 1.397 . S
C80 H66 0.939 . S
C80 C79 1.397 . S
C80 C81 1.378 . S
C81 C80 1.378 . S
C81 C82 1.378 . S
C82 H67 0.940 . S
C82 C81 1.378 . S
C82 C83 1.396 . S
C83 H68 0.940 . S
C83 C78 1.391 . S
C83 C82 1.396 . S
C84 P64 1.803 . S
C84 C85 1.378 . S
C84 C89 1.400 . S
C85 H69 0.939 . S
C85 C84 1.378 . S
C85 C86 1.361 . S
C86 H70 0.942 . S
C86 C85 1.361 . S
C86 C87 1.369 . S
C87 C86 1.369 . S
C87 C88 1.404 . S
C88 H71 0.940 . S
C88 C87 1.404 . S
C88 C89 1.389 . S
C89 H72 0.939 . S
C89 C84 1.400 . S
C89 C88 1.389 . S
C90 P64 1.819 . S
C90 C91 1.391 . S
C90 C95 1.391 . S
C91 H73 0.941 . S
C91 C90 1.391 . S
C91 C92 1.396 . S
C92 H76 0.939 . S
C92 C91 1.396 . S
C92 C93 1.397 . S
C93 C92 1.397 . S
C93 C94 1.385 . S
C94 H77 0.940 . S
C94 C93 1.385 . S
C94 C95 1.388 . S
C95 H74 0.939 . S
C95 C90 1.391 . S
C95 C94 1.388 . S
P96 O107 1.490 . S
P96 C110 1.812 . S
P96 C116 1.803 . S
P96 C122 1.819 . S
H97 C111 0.941 . S
H98 C112 0.939 . S
H99 C114 0.940 . S
H100 C115 0.940 . S
H101 C117 0.939 . S
H102 C118 0.942 . S
H103 C120 0.940 . S
H104 C121 0.939 . S
H105 C123 0.941 . S
H106 C127 0.939 . S
O107 P96 1.490 . S
H108 C124 0.939 . S
H109 C126 0.940 . S
C110 P96 1.812 . S
C110 C111 1.389 . S
C110 C115 1.391 . S
C111 H97 0.941 . S
C111 C110 1.389 . S
C111 C112 1.397 . S
C112 H98 0.939 . S
C112 C111 1.397 . S
C112 C113 1.378 . S
C113 C112 1.378 . S
C113 C114 1.378 . S
C114 H99 0.940 . S
C114 C113 1.378 . S
C114 C115 1.396 . S
C115 H100 0.940 . S
C115 C110 1.391 . S
C115 C114 1.396 . S
C116 P96 1.803 . S
C116 C117 1.378 . S
C116 C121 1.400 . S
C117 H101 0.939 . S
C117 C116 1.378 . S
C117 C118 1.361 . S
C118 H102 0.942 . S
C118 C117 1.361 . S
C118 C119 1.369 . S
C119 C118 1.369 . S
C119 C120 1.404 . S
C120 H103 0.940 . S
C120 C119 1.404 . S
C120 C121 1.389 . S
C121 H104 0.939 . S
C121 C116 1.400 . S
C121 C120 1.389 . S
C122 P96 1.819 . S
C122 C123 1.391 . S
C122 C127 1.391 . S
C123 H105 0.941 . S
C123 C122 1.391 . S
C123 C124 1.396 . S
C124 H108 0.939 . S
C124 C123 1.396 . S
C124 C125 1.397 . S
C125 C124 1.397 . S
C125 C126 1.385 . S
C126 H109 0.940 . S
C126 C125 1.385 . S
C126 C127 1.388 . S
C127 H106 0.939 . S
C127 C122 1.391 . S
C127 C126 1.388 . S
Zn128 O134 1.920 . S
Zn128 O140 1.898 . S
Zn128 O143 1.905 1_455 S
Zn129 O137 1.905 . S
Zn129 O138 1.898 . S
Zn129 O146 1.920 . S
Zn130 O133 2.080 . S
Zn130 O136 2.114 1_545 S
Zn130 O139 2.120 1_545 S
Zn130 O141 2.120 . S
Zn130 O142 2.114 1_455 S
Zn130 O145 2.080 1_545 S
C131 O136 1.166 . S
C131 O137 1.182 . S
C132 O138 1.167 . S
C132 O139 1.299 . S
O133 Zn130 2.080 . S
O133 C147 1.305 . S
O134 Zn128 1.920 . S
O134 C147 1.234 . S
C135 O140 1.167 . S
C135 O141 1.299 . S
O136 Zn130 2.114 1_565 S
O136 C131 1.166 . S
O137 Zn129 1.905 . S
O137 C131 1.182 . S
O138 Zn129 1.898 . S
O138 C132 1.167 . S
O139 Zn130 2.120 1_565 S
O139 C132 1.299 . S
O140 Zn128 1.898 . S
O140 C135 1.167 . S
O141 Zn130 2.120 . S
O141 C135 1.299 . S
O142 Zn130 2.114 1_655 S
O142 C144 1.166 . S
O143 Zn128 1.905 1_655 S
O143 C144 1.182 . S
C144 O142 1.166 . S
C144 O143 1.182 . S
O145 Zn130 2.080 1_565 S
O145 C148 1.305 . S
O146 Zn129 1.920 . S
O146 C148 1.234 . S
C147 O133 1.305 . S
C147 O134 1.234 . S
C148 O145 1.305 . S
C148 O146 1.234 . S
Zn149 O155 1.920 . S
Zn149 O161 1.898 . S
Zn149 O164 1.905 . S
Zn150 O158 1.905 . S
Zn150 O159 1.898 . S
Zn150 O167 1.920 . S
Zn151 O154 2.080 . S
Zn151 O157 2.114 . S
Zn151 O160 2.120 . S
Zn151 O162 2.120 . S
Zn151 O163 2.114 . S
Zn151 O166 2.080 . S
C152 O157 1.166 . S
C152 O158 1.182 . S
C153 O159 1.167 . S
C153 O160 1.299 . S
O154 Zn151 2.080 . S
O154 C168 1.305 . S
O155 Zn149 1.920 . S
O155 C168 1.234 . S
C156 O161 1.167 . S
C156 O162 1.299 . S
O157 Zn151 2.114 . S
O157 C152 1.166 . S
O158 Zn150 1.905 . S
O158 C152 1.182 . S
O159 Zn150 1.898 . S
O159 C153 1.167 . S
O160 Zn151 2.120 . S
O160 C153 1.299 . S
O161 Zn149 1.898 . S
O161 C156 1.167 . S
O162 Zn151 2.120 . S
O162 C156 1.299 . S
O163 Zn151 2.114 . S
O163 C165 1.166 . S
O164 Zn149 1.905 . S
O164 C165 1.182 . S
C165 O163 1.166 . S
C165 O164 1.182 . S
O166 Zn151 2.080 . S
O166 C169 1.305 . S
O167 Zn150 1.920 . S
O167 C169 1.234 . S
C168 O154 1.305 . S
C168 O155 1.234 . S
C169 O166 1.305 . S
C169 O167 1.234 . S
H170 C178 0.950 . S
H171 C183 0.950 . S
H172 C180 0.950 . S
H173 C182 0.950 . S
H174 C184 0.950 . S
H175 C186 0.950 . S
H176 C188 0.950 . S
H177 C189 0.950 . S
C178 H170 0.950 . S
C178 C179 1.386 . S
C178 C180 1.391 . S
C179 C178 1.386 . S
C179 C183 1.393 . S
C180 H172 0.950 . S
C180 C178 1.391 . S
C180 C181 1.400 . S
C181 C180 1.400 . S
C181 C182 1.398 . S
C181 C187 1.491 . S
C182 H173 0.950 . S
C182 C181 1.398 . S
C182 C183 1.391 . S
C183 H171 0.950 . S
C183 C179 1.393 . S
C183 C182 1.391 . S
C184 H174 0.950 . S
C184 C185 1.386 . S
C184 C186 1.391 . S
C185 C184 1.386 . S
C185 C189 1.393 . S
C186 H175 0.950 . S
C186 C184 1.391 . S
C186 C187 1.400 . S
C187 C181 1.491 . S
C187 C186 1.400 . S
C187 C188 1.398 . S
C188 H176 0.950 . S
C188 C187 1.398 . S
C188 C189 1.391 . S
C189 H177 0.950 . S
C189 C185 1.393 . S
C189 C188 1.391 . S
H190 C198 0.950 . S
H191 C203 0.950 . S
H192 C200 0.950 . S
H193 C202 0.950 . S
H194 C204 0.950 . S
H195 C206 0.950 . S
H196 C208 0.950 . S
H197 C209 0.950 . S
C198 H190 0.950 . S
C198 C199 1.386 1_655 S
C198 C200 1.391 . S
C199 C198 1.386 1_455 S
C199 C203 1.393 . S
C200 H192 0.950 . S
C200 C198 1.391 . S
C200 C201 1.400 1_655 S
C201 C200 1.400 1_455 S
C201 C202 1.398 . S
C201 C207 1.491 . S
C202 H193 0.950 . S
C202 C201 1.398 . S
C202 C203 1.391 . S
C203 H191 0.950 . S
C203 C199 1.393 . S
C203 C202 1.391 . S
C204 H194 0.950 . S
C204 C205 1.386 . S
C204 C206 1.391 . S
C205 C204 1.386 . S
C205 C209 1.393 1_455 S
C206 H195 0.950 . S
C206 C204 1.391 . S
C206 C207 1.400 . S
C207 C201 1.491 . S
C207 C206 1.400 . S
C207 C208 1.398 1_455 S
C208 H196 0.950 . S
C208 C207 1.398 1_655 S
C208 C209 1.391 . S
C209 H197 0.950 . S
C209 C205 1.393 1_655 S
C209 C208 1.391 . S
H210 C218 0.950 . S
H211 C223 0.950 . S
H212 C220 0.950 . S
H213 C222 0.950 . S
H214 C224 0.950 . S
H215 C226 0.950 . S
H216 C228 0.950 . S
H217 C229 0.950 . S
C218 H210 0.950 . S
C218 C219 1.386 . S
C218 C220 1.391 . S
C219 C218 1.386 . S
C219 C223 1.393 . S
C220 H212 0.950 . S
C220 C218 1.391 . S
C220 C221 1.400 . S
C221 C220 1.400 . S
C221 C222 1.398 . S
C221 C227 1.491 . S
C222 H213 0.950 . S
C222 C221 1.398 . S
C222 C223 1.391 . S
C223 H211 0.950 . S
C223 C219 1.393 . S
C223 C222 1.391 . S
C224 H214 0.950 . S
C224 C225 1.386 . S
C224 C226 1.391 . S
C225 C224 1.386 . S
C225 C229 1.393 . S
C226 H215 0.950 . S
C226 C224 1.391 . S
C226 C227 1.400 . S
C227 C221 1.491 . S
C227 C226 1.400 . S
C227 C228 1.398 . S
C228 H216 0.950 . S
C228 C227 1.398 . S
C228 C229 1.391 . S
C229 H217 0.950 . S
C229 C225 1.393 . S
C229 C228 1.391 . S
H230 C238 0.950 . S
H231 C243 0.950 . S
H232 C240 0.950 . S
H233 C242 0.950 . S
H234 C244 0.950 . S
H235 C246 0.950 . S
H236 C248 0.950 . S
H237 C249 0.950 . S
C238 H230 0.950 . S
C238 C239 1.386 . S
C238 C240 1.391 . S
C239 C238 1.386 . S
C239 C243 1.393 . S
C240 H232 0.950 . S
C240 C238 1.391 . S
C240 C241 1.400 . S
C241 C240 1.400 . S
C241 C242 1.398 . S
C241 C247 1.491 . S
C242 H233 0.950 . S
C242 C241 1.398 . S
C242 C243 1.391 . S
C243 H231 0.950 . S
C243 C239 1.393 . S
C243 C242 1.391 . S
C244 H234 0.950 . S
C244 C245 1.386 . S
C244 C246 1.391 . S
C245 C244 1.386 . S
C245 C249 1.393 . S
C246 H235 0.950 . S
C246 C244 1.391 . S
C246 C247 1.400 . S
C247 C241 1.491 . S
C247 C246 1.400 . S
C247 C248 1.398 . S
C248 H236 0.950 . S
C248 C247 1.398 . S
C248 C249 1.391 . S
C249 H237 0.950 . S
C249 C245 1.393 . S
C249 C248 1.391 . S
H250 C258 0.950 . S
H251 C263 0.950 . S
H252 C260 0.950 . S
H253 C262 0.950 . S
H254 C264 0.950 . S
H255 C266 0.950 . S
H256 C268 0.950 . S
H257 C269 0.950 . S
C258 H250 0.950 . S
C258 C259 1.386 . S
C258 C260 1.391 . S
C259 C258 1.386 . S
C259 C263 1.393 . S
C260 H252 0.950 . S
C260 C258 1.391 . S
C260 C261 1.400 . S
C261 C260 1.400 . S
C261 C262 1.398 . S
C261 C267 1.491 . S
C262 H253 0.950 . S
C262 C261 1.398 . S
C262 C263 1.391 . S
C263 H251 0.950 . S
C263 C259 1.393 . S
C263 C262 1.391 . S
C264 H254 0.950 . S
C264 C265 1.386 . S
C264 C266 1.391 . S
C265 C264 1.386 . S
C265 C269 1.393 . S
C266 H255 0.950 . S
C266 C264 1.391 . S
C266 C267 1.400 . S
C267 C261 1.491 . S
C267 C266 1.400 . S
C267 C268 1.398 . S
C268 H256 0.950 . S
C268 C267 1.398 . S
C268 C269 1.391 . S
C269 H257 0.950 . S
C269 C265 1.393 . S
C269 C268 1.391 . S
H270 C278 0.950 . S
H271 C283 0.950 1_554 S
H272 C280 0.950 . S
H273 C282 0.950 . S
H274 C284 0.950 . S
H275 C286 0.950 . S
H276 C288 0.950 . S
H277 C289 0.950 . S
C278 H270 0.950 . S
C278 C279 1.386 . S
C278 C280 1.391 . S
C279 C278 1.386 . S
C279 C283 1.393 . S
C280 H272 0.950 . S
C280 C278 1.391 . S
C280 C281 1.400 . S
C281 C280 1.400 . S
C281 C282 1.398 . S
C281 C287 1.491 . S
C282 H273 0.950 . S
C282 C281 1.398 . S
C282 C283 1.391 . S
C283 H271 0.950 1_556 S
C283 C279 1.393 . S
C283 C282 1.391 . S
C284 H274 0.950 . S
C284 C285 1.386 . S
C284 C286 1.391 . S
C285 C284 1.386 . S
C285 C289 1.393 . S
C286 H275 0.950 . S
C286 C284 1.391 . S
C286 C287 1.400 . S
C287 C281 1.491 . S
C287 C286 1.400 . S
C287 C288 1.398 . S
C288 H276 0.950 . S
C288 C287 1.398 . S
C288 C289 1.391 . S
C289 H277 0.950 . S
C289 C285 1.393 . S
C289 C288 1.391 . S
H290 C298 0.950 . S
H291 C303 0.950 1_554 S
H292 C300 0.950 . S
H293 C302 0.950 . S
H294 C304 0.950 . S
H295 C306 0.950 . S
H296 C308 0.950 . S
H297 C309 0.950 . S
C298 H290 0.950 . S
C298 C299 1.386 . S
C298 C300 1.391 . S
C299 C298 1.386 . S
C299 C303 1.393 . S
C300 H292 0.950 . S
C300 C298 1.391 . S
C300 C301 1.400 . S
C301 C300 1.400 . S
C301 C302 1.398 . S
C301 C307 1.491 . S
C302 H293 0.950 . S
C302 C301 1.398 . S
C302 C303 1.391 . S
C303 H291 0.950 1_556 S
C303 C299 1.393 . S
C303 C302 1.391 . S
C304 H294 0.950 . S
C304 C305 1.386 . S
C304 C306 1.391 . S
C305 C304 1.386 . S
C305 C309 1.393 . S
C306 H295 0.950 . S
C306 C304 1.391 . S
C306 C307 1.400 . S
C307 C301 1.491 . S
C307 C306 1.400 . S
C307 C308 1.398 . S
C308 H296 0.950 . S
C308 C307 1.398 . S
C308 C309 1.391 . S
C309 H297 0.950 . S
C309 C305 1.393 . S
C309 C308 1.391 . S
H310 C318 0.950 1_554 S
H311 C323 0.950 . S
H312 C320 0.950 . S
H313 C322 0.950 . S
H314 C324 0.950 . S
H315 C326 0.950 . S
H316 C328 0.950 . S
H317 C329 0.950 . S
C318 H310 0.950 1_556 S
C318 C319 1.386 . S
C318 C320 1.391 . S
C319 C318 1.386 . S
C319 C323 1.393 . S
C320 H312 0.950 . S
C320 C318 1.391 . S
C320 C321 1.400 . S
C321 C320 1.400 . S
C321 C322 1.398 . S
C321 C327 1.491 . S
C322 H313 0.950 . S
C322 C321 1.398 . S
C322 C323 1.391 . S
C323 H311 0.950 . S
C323 C319 1.393 . S
C323 C322 1.391 . S
C324 H314 0.950 . S
C324 C325 1.386 . S
C324 C326 1.391 . S
C325 C324 1.386 . S
C325 C329 1.393 . S
C326 H315 0.950 . S
C326 C324 1.391 . S
C326 C327 1.400 . S
C327 C321 1.491 . S
C327 C326 1.400 . S
C327 C328 1.398 . S
C328 H316 0.950 . S
C328 C327 1.398 . S
C328 C329 1.391 . S
C329 H317 0.950 . S
C329 C325 1.393 . S
C329 C328 1.391 . S
H330 C338 0.950 . S
H331 C343 0.950 . S
H332 C340 0.950 . S
H333 C342 0.950 . S
H334 C344 0.950 . S
H335 C346 0.950 . S
H336 C348 0.950 . S
H337 C349 0.950 . S
C338 H330 0.950 . S
C338 C339 1.386 . S
C338 C340 1.391 . S
C339 C338 1.386 . S
C339 C343 1.393 . S
C340 H332 0.950 . S
C340 C338 1.391 . S
C340 C341 1.400 . S
C341 C340 1.400 . S
C341 C342 1.398 . S
C341 C347 1.491 . S
C342 H333 0.950 . S
C342 C341 1.398 . S
C342 C343 1.391 . S
C343 H331 0.950 . S
C343 C339 1.393 . S
C343 C342 1.391 . S
C344 H334 0.950 . S
C344 C345 1.386 . S
C344 C346 1.391 . S
C345 C344 1.386 . S
C345 C349 1.393 . S
C346 H335 0.950 . S
C346 C344 1.391 . S
C346 C347 1.400 . S
C347 C341 1.491 . S
C347 C346 1.400 . S
C347 C348 1.398 . S
C348 H336 0.950 . S
C348 C347 1.398 . S
C348 C349 1.391 . S
C349 H337 0.950 . S
C349 C345 1.393 . S
C349 C348 1.391 . S
H350 C358 0.950 . S
H351 C363 0.950 . S
H352 C360 0.950 . S
H353 C362 0.950 . S
H354 C364 0.950 . S
H355 C366 0.950 . S
H356 C368 0.950 . S
H357 C369 0.950 . S
C358 H350 0.950 . S
C358 C359 1.386 . S
C358 C360 1.391 . S
C359 C358 1.386 . S
C359 C363 1.393 . S
C360 H352 0.950 . S
C360 C358 1.391 . S
C360 C361 1.400 . S
C361 C360 1.400 . S
C361 C362 1.398 . S
C361 C367 1.491 . S
C362 H353 0.950 . S
C362 C361 1.398 . S
C362 C363 1.391 . S
C363 H351 0.950 . S
C363 C359 1.393 . S
C363 C362 1.391 . S
C364 H354 0.950 . S
C364 C365 1.386 . S
C364 C366 1.391 . S
C365 C364 1.386 . S
C365 C369 1.393 . S
C366 H355 0.950 . S
C366 C364 1.391 . S
C366 C367 1.400 . S
C367 C361 1.491 . S
C367 C366 1.400 . S
C367 C368 1.398 . S
C368 H356 0.950 . S
C368 C367 1.398 . S
C368 C369 1.391 . S
C369 H357 0.950 . S
C369 C365 1.393 . S
C369 C368 1.391 . S
H370 C378 0.950 . S
H371 C383 0.950 . S
H372 C380 0.950 . S
H373 C382 0.950 . S
H374 C384 0.950 . S
H375 C386 0.950 . S
H376 C388 0.950 . S
H377 C389 0.950 . S
C378 H370 0.950 . S
C378 C379 1.386 . S
C378 C380 1.391 . S
C379 C378 1.386 . S
C379 C383 1.393 . S
C380 H372 0.950 . S
C380 C378 1.391 . S
C380 C381 1.400 . S
C381 C380 1.400 . S
C381 C382 1.398 . S
C381 C387 1.491 . S
C382 H373 0.950 . S
C382 C381 1.398 . S
C382 C383 1.391 . S
C383 H371 0.950 . S
C383 C379 1.393 . S
C383 C382 1.391 . S
C384 H374 0.950 . S
C384 C385 1.386 . S
C384 C386 1.391 . S
C385 C384 1.386 . S
C385 C389 1.393 . S
C386 H375 0.950 . S
C386 C384 1.391 . S
C386 C387 1.400 . S
C387 C381 1.491 . S
C387 C386 1.400 . S
C387 C388 1.398 . S
C388 H376 0.950 . S
C388 C387 1.398 . S
C388 C389 1.391 . S
C389 H377 0.950 . S
C389 C385 1.393 . S
C389 C388 1.391 . S
H390 C398 0.950 . S
H391 C403 0.950 . S
H392 C400 0.950 . S
H393 C402 0.950 . S
H394 C404 0.950 . S
H395 C406 0.950 . S
H396 C408 0.950 . S
H397 C409 0.950 . S
C398 H390 0.950 . S
C398 C399 1.386 . S
C398 C400 1.391 . S
C399 C398 1.386 . S
C399 C403 1.393 . S
C400 H392 0.950 . S
C400 C398 1.391 . S
C400 C401 1.400 . S
C401 C400 1.400 . S
C401 C402 1.398 . S
C401 C407 1.491 . S
C402 H393 0.950 . S
C402 C401 1.398 . S
C402 C403 1.391 . S
C403 H391 0.950 . S
C403 C399 1.393 . S
C403 C402 1.391 . S
C404 H394 0.950 . S
C404 C405 1.386 . S
C404 C406 1.391 . S
C405 C404 1.386 . S
C405 C409 1.393 . S
C406 H395 0.950 . S
C406 C404 1.391 . S
C406 C407 1.400 . S
C407 C401 1.491 . S
C407 C406 1.400 . S
C407 C408 1.398 . S
C408 H396 0.950 . S
C408 C407 1.398 . S
C408 C409 1.391 . S
C409 H397 0.950 . S
C409 C405 1.393 . S
C409 C408 1.391 . S
C185 C135 1.406 . S
C179 C23 1.515 . S
C205 C131 1.444 . S
C199 C55 1.443 . S
C225 C156 1.412 . S
C219 C87 1.520 . S
C239 C119 1.467 . S
C245 C152 1.416 . S
C259 C17 1.218 . S
C265 C153 1.074 . S
C285 C168 1.074 . S
C279 C61 1.161 . S
C299 C29 1.686 . S
C305 C169 1.570 . S
C325 C165 1.547 . S
C319 C49 1.638 . S
C345 C132 1.052 1_655 S
C339 C81 1.220 . S
C359 C125 1.164 . S
C365 C147 1.078 . S
C385 C148 1.538 . S
C379 C93 1.687 . S
C405 C144 1.546 . S
C399 C113 1.639 . S
