# Generated by pormake.
# Topology pyr, (3,6)-cn, num edge types: 1
# Building blocks:
#     Node 0, Type 0, BuildingBlock: ESEHIV_clean_linker_0, # of connection points: 3
#     Node 1, Type 0, BuildingBlock: ESEHIV_clean_linker_0, # of connection points: 3
#     Node 2, Type 0, BuildingBlock: ESEHIV_clean_linker_0, # of connection points: 3
#     Node 3, Type 0, BuildingBlock: ESEHIV_clean_linker_0, # of connection points: 3
#     Node 4, Type 0, BuildingBlock: ESEHIV_clean_linker_0, # of connection points: 3
#     Node 5, Type 0, BuildingBlock: ESEHIV_clean_linker_0, # of connection points: 3
#     Node 6, Type 0, BuildingBlock: ESEHIV_clean_linker_0, # of connection points: 3
#     Node 7, Type 0, BuildingBlock: ESEHIV_clean_linker_0, # of connection points: 3
#     Node 8, Type 1, BuildingBlock: FUNLAD_clean_sbu_0, # of connection points: 6
#     Node 9, Type 1, BuildingBlock: FUNLAD_clean_sbu_0, # of connection points: 6
#     Node 10, Type 1, BuildingBlock: FUNLAD_clean_sbu_0, # of connection points: 6
#     Node 11, Type 1, BuildingBlock: FUNLAD_clean_sbu_0, # of connection points: 6
#     Edge 12, Type (0, 1), BuildingBlock: MIFKUJ_clean_linker_0, # of connection points: 2
#     Edge 13, Type (0, 1), BuildingBlock: MIFKUJ_clean_linker_0, # of connection points: 2
#     Edge 14, Type (0, 1), BuildingBlock: MIFKUJ_clean_linker_0, # of connection points: 2
#     Edge 15, Type (0, 1), BuildingBlock: MIFKUJ_clean_linker_0, # of connection points: 2
#     Edge 16, Type (0, 1), BuildingBlock: MIFKUJ_clean_linker_0, # of connection points: 2
#     Edge 17, Type (0, 1), BuildingBlock: MIFKUJ_clean_linker_0, # of connection points: 2
#     Edge 18, Type (0, 1), BuildingBlock: MIFKUJ_clean_linker_0, # of connection points: 2
#     Edge 19, Type (0, 1), BuildingBlock: MIFKUJ_clean_linker_0, # of connection points: 2
#     Edge 20, Type (0, 1), BuildingBlock: MIFKUJ_clean_linker_0, # of connection points: 2
#     Edge 21, Type (0, 1), BuildingBlock: MIFKUJ_clean_linker_0, # of connection points: 2
#     Edge 22, Type (0, 1), BuildingBlock: MIFKUJ_clean_linker_0, # of connection points: 2
#     Edge 23, Type (0, 1), BuildingBlock: MIFKUJ_clean_linker_0, # of connection points: 2
#     Edge 24, Type (0, 1), BuildingBlock: MIFKUJ_clean_linker_0, # of connection points: 2
#     Edge 25, Type (0, 1), BuildingBlock: MIFKUJ_clean_linker_0, # of connection points: 2
#     Edge 26, Type (0, 1), BuildingBlock: MIFKUJ_clean_linker_0, # of connection points: 2
#     Edge 27, Type (0, 1), BuildingBlock: MIFKUJ_clean_linker_0, # of connection points: 2
#     Edge 28, Type (0, 1), BuildingBlock: MIFKUJ_clean_linker_0, # of connection points: 2
#     Edge 29, Type (0, 1), BuildingBlock: MIFKUJ_clean_linker_0, # of connection points: 2
#     Edge 30, Type (0, 1), BuildingBlock: MIFKUJ_clean_linker_0, # of connection points: 2
#     Edge 31, Type (0, 1), BuildingBlock: MIFKUJ_clean_linker_0, # of connection points: 2
#     Edge 32, Type (0, 1), BuildingBlock: MIFKUJ_clean_linker_0, # of connection points: 2
#     Edge 33, Type (0, 1), BuildingBlock: MIFKUJ_clean_linker_0, # of connection points: 2
#     Edge 34, Type (0, 1), BuildingBlock: MIFKUJ_clean_linker_0, # of connection points: 2
#     Edge 35, Type (0, 1), BuildingBlock: MIFKUJ_clean_linker_0, # of connection points: 2
# Relax obj value: 0.055
# Max RMSD: 0.061
# Mean RMSD: 0.029
data_MOF--net-pry--node1-FUNLAD_clean_sbu_0--node2-ESEHIV_clean_linker_0--edge1-MIFKUJ_clean_linker_0
_symmetry_space_group_name_H-M    P1
_symmetry_Int_Tables_number       1
_symmetry_cell_setting            triclinic
loop_
_symmetry_equiv_pos_as_xyz
'x, y, z'
_cell_length_a     44.93387
_cell_length_b     47.464254
_cell_length_c     47.812556
_cell_angle_alpha  90.235782
_cell_angle_beta   90.194549
_cell_angle_gamma 86.695239
loop_
_atom_site_label
_atom_site_type_symbol
_atom_site_fract_x
_atom_site_fract_y
_atom_site_fract_z
_atom_type_partial_charge
H0 H 0.11648 0.1996 0.20625 0.0
H1 H 0.18436 0.13145 0.20425 0.0
H2 H 0.18134 0.1945 0.13998 0.0
C3 C 0.13546 0.18876 0.19622 0.0
C4 C 0.14712 0.20032 0.17145 0.0
C5 C 0.14887 0.16401 0.20875 0.0
C6 C 0.17426 0.15076 0.19557 0.0
C7 C 0.18618 0.16146 0.17069 0.0
C8 C 0.17232 0.18616 0.15901 0.0
H9 H 0.33101 0.89354 0.7008 0.0
H10 H 0.39518 0.82297 0.70636 0.0
H11 H 0.33181 0.82814 0.63846 0.0
C12 C 0.34002 0.87348 0.69279 0.0
C13 C 0.32768 0.86225 0.66818 0.0
C14 C 0.36448 0.85969 0.7068 0.0
C15 C 0.37699 0.83405 0.69537 0.0
C16 C 0.36548 0.82215 0.67055 0.0
C17 C 0.34089 0.83675 0.65738 0.0
H18 H 0.6424 0.40749 0.98527 0.0
H19 H 0.63965 0.46008 0.91209 0.0
H20 H 0.56831 0.40616 0.92835 0.0
C21 C 0.63048 0.41612 0.9672 0.0
C22 C 0.60314 0.40541 0.95951 0.0
C23 C 0.64372 0.436 0.95025 0.0
C24 C 0.62898 0.44564 0.92584 0.0
C25 C 0.60178 0.43491 0.91789 0.0
C26 C 0.58868 0.41537 0.93516 0.0
H27 H 0.87149 0.6129 0.48337 0.0
H28 H 0.94087 0.61395 0.42185 0.0
H29 H 0.87115 0.55658 0.4126 0.0
C30 C 0.88246 0.60369 0.46505 0.0
C31 C 0.86896 0.58239 0.44992 0.0
C32 C 0.90856 0.61506 0.45512 0.0
C33 C 0.92159 0.60431 0.43041 0.0
C34 C 0.90809 0.58345 0.41488 0.0
C35 C 0.8822 0.57204 0.42506 0.0
H36 H 0.82814 0.89142 0.81788 0.0
H37 H 0.89642 0.82362 0.81441 0.0
H38 H 0.83144 0.82625 0.88021 0.0
C39 C 0.83853 0.87213 0.82626 0.0
C40 C 0.82615 0.86033 0.85046 0.0
C41 C 0.86401 0.85936 0.81273 0.0
C42 C 0.87733 0.83418 0.82451 0.0
C43 C 0.86546 0.82177 0.84866 0.0
C44 C 0.84002 0.83518 0.86127 0.0
H45 H 0.61299 0.19569 0.31748 0.0
H46 H 0.68069 0.12773 0.32012 0.0
H47 H 0.68129 0.19487 0.3808 0.0
C48 C 0.63293 0.1859 0.32689 0.0
C49 C 0.64506 0.19817 0.35119 0.0
C50 C 0.64566 0.16041 0.3153 0.0
C51 C 0.67103 0.14733 0.3286 0.0
C52 C 0.68409 0.15925 0.35255 0.0
C53 C 0.67092 0.18481 0.36323 0.0
H54 H 0.36986 0.61246 0.03776 0.0
H55 H 0.37081 0.55883 0.10987 0.0
H56 H 0.44479 0.61001 0.09377 0.0
C57 C 0.38153 0.60326 0.05571 0.0
C58 C 0.40915 0.61318 0.06364 0.0
C59 C 0.36781 0.58331 0.07212 0.0
C60 C 0.38214 0.57314 0.09653 0.0
C61 C 0.40986 0.58278 0.10474 0.0
C62 C 0.42367 0.60201 0.08748 0.0
H63 H 0.07531 0.41428 0.60352 0.0
H64 H 0.14062 0.40295 0.53863 0.0
H65 H 0.14634 0.471 0.59754 0.0
C66 C 0.09401 0.42209 0.59224 0.0
C67 C 0.10871 0.44519 0.60291 0.0
C68 C 0.10526 0.40683 0.56903 0.0
C69 C 0.13122 0.41517 0.55601 0.0
C70 C 0.14607 0.43829 0.56623 0.0
C71 C 0.13431 0.45367 0.58919 0.0
C72 C 0.03345 0.03264 0.46169 0.0
N73 N 0.014 0.06894 0.54099 0.0
C74 C 0.04062 0.08051 0.53716 0.0
C75 C 0.04458 0.10811 0.54563 0.0
C76 C 0.02096 0.12398 0.55839 0.0
C77 C 0.99416 0.111 0.56337 0.0
C78 C 0.99111 0.08328 0.55436 0.0
Zn79 Zn 0.00817 0.03128 0.52225 0.0
C80 C 0.95092 0.03285 0.48888 0.0
N81 N 0.99797 0.95389 0.4802 0.0
C82 C 0.02053 0.93856 0.46736 0.0
C83 C 0.97089 0.9432 0.48411 0.0
C84 C 0.96606 0.91561 0.47627 0.0
C85 C 0.98925 0.89873 0.46407 0.0
C86 C 0.0166 0.91075 0.459 0.0
Zn87 Zn 0.00426 0.99166 0.49867 0.0
O88 O 0.02958 0.04681 0.48426 0.0
C89 C 0.06152 0.99015 0.53197 0.0
O90 O 0.02518 0.00738 0.46121 0.0
H91 H 0.95336 0.95565 0.49462 0.0
H92 H 0.05844 0.06876 0.52633 0.0
H93 H 0.04191 0.94753 0.46457 0.0
O94 O 0.05066 0.01462 0.53871 0.0
O95 O 0.04713 0.9756 0.51466 0.0
H96 H 0.97012 0.07359 0.5571 0.0
O97 O 0.98331 0.97602 0.5368 0.0
O98 O 0.98693 0.01566 0.55958 0.0
O99 O 0.96167 0.00829 0.48237 0.0
O100 O 0.9654 0.04748 0.50602 0.0
C101 C 0.97913 0.99027 0.55927 0.0
H102 H 0.06546 0.11731 0.54084 0.0
H103 H 0.9755 0.12237 0.5734 0.0
H104 H 0.94479 0.90722 0.48114 0.0
H105 H 0.03498 0.89859 0.44937 0.0
C106 C 0.56086 0.98799 0.98923 0.0
N107 N 0.51492 0.06804 0.98264 0.0
C108 C 0.54213 0.07869 0.98616 0.0
C109 C 0.54647 0.10663 0.97938 0.0
C110 C 0.52253 0.12386 0.96901 0.0
C111 C 0.49506 0.11195 0.96424 0.0
C112 C 0.49174 0.08375 0.97119 0.0
Zn113 Zn 0.50848 0.02994 0.99997 0.0
C114 C 0.47837 0.99029 0.9615 0.0
N115 N 0.49618 0.95166 0.03913 0.0
C116 C 0.51904 0.93569 0.05079 0.0
C117 C 0.46903 0.94114 0.03486 0.0
C118 C 0.46453 0.91304 0.04077 0.0
C119 C 0.48815 0.89549 0.05132 0.0
C120 C 0.51547 0.90737 0.05716 0.0
Zn121 Zn 0.50282 0.98985 0.02195 0.0
O122 O 0.55127 0.01317 0.98382 0.0
C123 C 0.53285 0.02964 0.0604 0.0
O124 O 0.5453 0.97326 1.00518 0.0
H125 H 0.45127 0.95411 0.02527 0.0
H126 H 0.56012 0.06594 0.99565 0.0
H127 H 0.54047 0.94453 0.0539 0.0
O128 O 0.52929 0.04436 0.03829 0.0
O129 O 0.52446 1.0044 0.05997 0.0
H130 H 0.47029 0.07481 0.96866 0.0
O131 O 0.46031 0.00675 0.03851 0.0
O132 O 0.46577 0.04636 0.01643 0.0
O133 O 0.48141 0.9757 0.98374 0.0
O134 O 0.48743 0.01527 0.96179 0.0
C135 C 0.45048 0.03179 0.03277 0.0
H136 H 0.56789 0.11506 0.9838 0.0
H137 H 0.47614 0.12452 0.95606 0.0
H138 H 0.44324 0.90483 0.03546 0.0
H139 H 0.53415 0.8947 0.06564 0.0
C140 C 0.52839 0.45826 0.4883 0.0
N141 N 0.52456 0.48935 0.5716 0.0
C142 C 0.51465 0.46515 0.58242 0.0
C143 C 0.51958 0.45863 0.61061 0.0
C144 C 0.53495 0.47718 0.62766 0.0
C145 C 0.54591 0.50138 0.61554 0.0
C146 C 0.54026 0.50718 0.58747 0.0
Zn147 Zn 0.51353 0.502 0.53212 0.0
C148 C 0.56421 0.52968 0.50487 0.0
N149 N 0.4904 0.53236 0.45112 0.0
C150 C 0.47818 0.51264 0.43465 0.0
C151 C 0.49499 0.55861 0.44132 0.0
C152 C 0.48737 0.56571 0.41372 0.0
C153 C 0.47526 0.54546 0.39607 0.0
C154 C 0.4708 0.51861 0.40699 0.0
Zn155 Zn 0.50202 0.51989 0.49053 0.0
O156 O 0.52889 0.46118 0.51483 0.0
C157 C 0.45121 0.49252 0.51749 0.0
O158 O 0.51845 0.47913 0.47367 0.0
H159 H 0.50468 0.57397 0.45484 0.0
H160 H 0.50214 0.45133 0.56942 0.0
H161 H 0.47443 0.49197 0.44285 0.0
O162 O 0.46998 0.48768 0.53705 0.0
O163 O 0.4591 0.50523 0.49569 0.0
H164 H 0.54777 0.5264 0.57855 0.0
O165 O 0.48583 0.56028 0.50802 0.0
O166 O 0.49817 0.54306 0.54913 0.0
O167 O 0.54509 0.53479 0.48564 0.0
O168 O 0.55677 0.51635 0.5265 0.0
C169 C 0.48732 0.56357 0.53447 0.0
H170 H 0.51056 0.43983 0.61912 0.0
H171 H 0.55841 0.51597 0.62771 0.0
H172 H 0.49087 0.58681 0.4064 0.0
H173 H 0.46223 0.50201 0.39422 0.0
C174 C 0.98579 0.56282 0.98531 0.0
N175 N 0.9878 0.53073 0.06834 0.0
C176 C 0.99663 0.55498 0.08021 0.0
C177 C 0.99076 0.5607 0.10844 0.0
C178 C 0.97569 0.54123 0.12441 0.0
C179 C 0.96589 0.51698 0.11122 0.0
C180 C 0.97235 0.51205 0.08316 0.0
Zn181 Zn 1.00011 0.51877 0.02898 0.0
C182 C 0.95005 0.49104 0.99987 0.0
N183 N 0.02479 0.48913 0.94799 0.0
C184 C 0.04076 0.50754 0.93333 0.0
C185 C 0.01609 0.4648 0.93615 0.0
C186 C 0.02306 0.45852 0.90823 0.0
C187 C 0.0394 0.47733 0.8927 0.0
C188 C 0.04851 0.50194 0.90566 0.0
Zn189 Zn 0.01234 0.50121 0.98736 0.0
O190 O 0.98483 0.5597 0.01179 0.0
C191 C 0.06236 0.52897 0.01662 0.0
O192 O 0.9962 0.54211 0.97055 0.0
H193 H 0.00329 0.45054 0.94818 0.0
H194 H 0.00902 0.56945 0.06803 0.0
H195 H 0.04697 0.52703 0.9429 0.0
O196 O 0.04299 0.53333 0.03564 0.0
O197 O 0.05528 0.51629 0.99435 0.0
H198 H 0.96571 0.49278 0.07344 0.0
O199 O 0.02813 0.46031 1.00475 0.0
O200 O 0.01579 0.47787 0.04573 0.0
O201 O 0.96942 0.48627 0.98091 0.0
O202 O 0.95718 0.50407 0.02191 0.0
C203 C 0.02667 0.4572 0.03121 0.0
H204 H 0.99883 0.57961 0.11785 0.0
H205 H 0.95367 0.5017 0.12257 0.0
H206 H 0.01573 0.43928 0.89887 0.0
H207 H 0.0607 0.51719 0.89422 0.0
H208 H 0.17984 0.13837 0.25293 0.0
H209 H 0.16047 0.11696 0.29494 0.0
H210 H 0.07073 0.14036 0.26847 0.0
H211 H 0.09 0.1618 0.22614 0.0
H212 H 0.07409 0.14834 0.32306 0.0
H213 H 0.10299 0.07051 0.26289 0.0
H214 H 0.13712 0.04135 0.23287 0.0
H215 H 0.19705 0.02696 0.30215 0.0
H216 H 0.16345 0.05636 0.33251 0.0
H217 H 0.03833 0.01124 0.4079 0.0
H218 H 0.05702 0.03383 0.36597 0.0
H219 H 0.07759 0.10652 0.4152 0.0
H220 H 0.05801 0.08442 0.4569 0.0
H221 H 0.10679 0.05001 0.34791 0.0
H222 H 0.07638 0.16565 0.37761 0.0
H223 H 0.03944 0.1931 0.40636 0.0
H224 H 0.97666 0.12921 0.39436 0.0
H225 H 0.01317 0.10148 0.36542 0.0
C226 C 0.15592 0.13882 0.25571 0.0
C227 C 0.13667 0.15178 0.23549 0.0
C228 C 0.14478 0.12648 0.28002 0.0
C229 C 0.1139 0.12637 0.28512 0.0
C230 C 0.09462 0.13992 0.26538 0.0
C231 C 0.10577 0.15235 0.24101 0.0
C232 C 0.10187 0.11196 0.31072 0.0
C233 C 0.08138 0.12685 0.3284 0.0
C234 C 0.1107 0.08368 0.31804 0.0
C235 C 0.13083 0.06583 0.2999 0.0
C236 C 0.12354 0.06127 0.27168 0.0
C237 C 0.14278 0.04468 0.2546 0.0
C238 C 0.16927 0.03236 0.26558 0.0
C239 C 0.17654 0.03654 0.29367 0.0
C240 C 0.15739 0.05314 0.31083 0.0
C241 C 0.04681 0.03206 0.40988 0.0
C242 C 0.04636 0.0459 0.43606 0.0
C243 C 0.05763 0.04505 0.38572 0.0
C244 C 0.06846 0.07236 0.3868 0.0
C245 C 0.06876 0.08587 0.41315 0.0
C246 C 0.05769 0.07301 0.43724 0.0
C247 C 0.07934 0.08651 0.36052 0.0
C248 C 0.09959 0.07155 0.34266 0.0
C249 C 0.06997 0.11458 0.35285 0.0
C250 C 0.04757 0.13144 0.36953 0.0
C251 C 0.05462 0.15756 0.38098 0.0
C252 C 0.03379 0.17313 0.39736 0.0
C253 C 0.00574 0.16288 0.40223 0.0
C254 C 0.99842 0.13709 0.39064 0.0
C255 C 0.01918 0.12142 0.37428 0.0
H256 H 0.98967 0.17494 0.41495 0.0
H257 H 0.18414 0.01954 0.25233 0.0
H258 H 0.4232 0.86216 0.72434 0.0
H259 H 0.44236 0.884 0.76676 0.0
H260 H 0.35251 0.90764 0.79254 0.0
H261 H 0.33331 0.88609 0.75019 0.0
H262 H 0.38398 0.9497 0.80355 0.0
H263 H 0.39769 0.85101 0.82299 0.0
H264 H 0.41555 0.80158 0.81468 0.0
H265 H 0.50611 0.82594 0.81517 0.0
H266 H 0.48876 0.87559 0.82312 0.0
H267 H 0.45472 0.93843 0.95505 0.0
H268 H 0.43546 0.91694 0.91262 0.0
H269 H 0.45485 0.99099 0.86566 0.0
H270 H 0.47349 0.01289 0.90829 0.0
H271 H 0.45774 0.89969 0.86583 0.0
H272 H 0.40886 0.99962 0.80925 0.0
H273 H 0.3861 0.04677 0.82082 0.0
H274 H 0.35754 0.01608 0.90012 0.0
H275 H 0.3798 0.96869 0.88888 0.0
C276 C 0.40743 0.87173 0.73913 0.0
C277 C 0.37656 0.87223 0.73346 0.0
C278 C 0.41848 0.88432 0.76356 0.0
C279 C 0.39905 0.89751 0.78341 0.0
C280 C 0.36824 0.89792 0.77778 0.0
C281 C 0.35721 0.88551 0.75334 0.0
C282 C 0.41057 0.91101 0.80982 0.0
C283 C 0.40021 0.93868 0.81702 0.0
C284 C 0.4314 0.89686 0.82812 0.0
C285 C 0.44191 0.86705 0.82336 0.0
C286 C 0.4214 0.84585 0.82112 0.0
C287 C 0.43143 0.81779 0.81651 0.0
C288 C 0.46194 0.81064 0.81432 0.0
C289 C 0.48249 0.83152 0.81682 0.0
C290 C 0.47257 0.85962 0.8214 0.0
C291 C 0.45472 0.95033 0.93577 0.0
C292 C 0.46559 0.97763 0.93541 0.0
C293 C 0.44378 0.93786 0.91131 0.0
C294 C 0.44325 0.95219 0.88555 0.0
C295 C 0.45429 0.97943 0.8851 0.0
C296 C 0.46511 0.992 0.90964 0.0
C297 C 0.43142 0.9385 0.85937 0.0
C298 C 0.44169 0.91079 0.85223 0.0
C299 C 0.40997 0.95236 0.84147 0.0
C300 C 0.39629 0.98071 0.84833 0.0
C301 C 0.39764 1.00293 0.82912 0.0
C302 C 0.38484 0.02969 0.83562 0.0
C303 C 0.37048 0.03444 0.86123 0.0
C304 C 0.36878 0.01241 0.88035 0.0
C305 C 0.38151 0.9856 0.87393 0.0
H306 H 0.3606 0.05518 0.86623 0.0
H307 H 0.46967 0.7889 0.81076 0.0
H308 H 0.58656 0.3958 0.87992 0.0
H309 H 0.5711 0.40333 0.83141 0.0
H310 H 0.57594 0.49319 0.84252 0.0
H311 H 0.59132 0.4857 0.8915 0.0
H312 H 0.524 0.4748 0.81104 0.0
H313 H 0.6315 0.46238 0.81381 0.0
H314 H 0.67905 0.43752 0.8273 0.0
H315 H 0.6546 0.36382 0.7823 0.0
H316 H 0.60665 0.38811 0.76892 0.0
H317 H 0.53089 0.5161 0.66993 0.0
H318 H 0.53909 0.50833 0.7197 0.0
H319 H 0.55395 0.41893 0.70463 0.0
H320 H 0.54739 0.42675 0.65438 0.0
H321 H 0.59458 0.43635 0.73889 0.0
H322 H 0.48856 0.44741 0.73443 0.0
H323 H 0.43961 0.47002 0.72181 0.0
H324 H 0.45892 0.54323 0.77013 0.0
H325 H 0.50819 0.52122 0.78273 0.0
C326 C 0.58361 0.4172 0.87224 0.0
C327 C 0.58982 0.44021 0.88945 0.0
C328 C 0.57502 0.42144 0.84451 0.0
C329 C 0.57254 0.44878 0.83349 0.0
C330 C 0.57771 0.47195 0.85081 0.0
C331 C 0.58658 0.46767 0.87861 0.0
C332 C 0.5664 0.4528 0.80341 0.0
C333 C 0.53952 0.46678 0.79517 0.0
C334 C 0.58636 0.44146 0.78293 0.0
C335 C 0.61538 0.42698 0.79059 0.0
C336 C 0.63617 0.4408 0.80697 0.0
C337 C 0.6632 0.42683 0.81457 0.0
C338 C 0.66982 0.39909 0.80571 0.0
C339 C 0.64943 0.3853 0.78917 0.0
C340 C 0.62234 0.39917 0.78155 0.0
C341 C 0.53621 0.49479 0.6771 0.0
C342 C 0.53872 0.47206 0.65811 0.0
C343 C 0.54045 0.49034 0.70566 0.0
C344 C 0.54671 0.463 0.71595 0.0
C345 C 0.549 0.4402 0.69712 0.0
C346 C 0.54502 0.44467 0.66845 0.0
C347 C 0.55205 0.45849 0.74623 0.0
C348 C 0.57889 0.44438 0.7546 0.0
C349 C 0.53185 0.46945 0.7668 0.0
C350 C 0.50219 0.48275 0.75932 0.0
C351 C 0.48247 0.46842 0.74219 0.0
C352 C 0.45464 0.48111 0.73507 0.0
C353 C 0.44619 0.50807 0.7451 0.0
C354 C 0.46551 0.52236 0.76234 0.0
C355 C 0.49338 0.50978 0.76951 0.0
H356 H 0.42463 0.51786 0.73957 0.0
H357 H 0.69076 0.3883 0.81162 0.0
H358 H 0.92037 0.53209 0.38971 0.0
H359 H 0.93394 0.52345 0.34042 0.0
H360 H 0.92975 0.61319 0.32563 0.0
H361 H 0.9165 0.62188 0.37451 0.0
H362 H 0.8972 0.58124 0.28672 0.0
H363 H 0.99453 0.58245 0.32993 0.0
H364 H 0.03357 0.56688 0.36375 0.0
H365 H 0.03358 0.48251 0.33097 0.0
H366 H 0.99419 0.49752 0.2972 0.0
H367 H 0.95943 0.59039 0.15213 0.0
H368 H 0.94999 0.5965 0.20222 0.0
H369 H 0.97076 0.5076 0.2152 0.0
H370 H 0.98153 0.50159 0.16552 0.0
H371 H 0.99432 0.53707 0.25556 0.0
H372 H 0.8985 0.53439 0.21216 0.0
H373 H 0.85844 0.54815 0.17871 0.0
H374 H 0.85367 0.63242 0.21207 0.0
H375 H 0.89403 0.61925 0.24549 0.0
C376 C 0.92263 0.54986 0.37589 0.0
C377 C 0.9178 0.57761 0.38585 0.0
C378 C 0.93037 0.54495 0.3479 0.0
C379 C 0.93289 0.56774 0.32958 0.0
C380 C 0.92796 0.59539 0.33953 0.0
C381 C 0.92065 0.6003 0.36745 0.0
C382 C 0.93996 0.56303 0.29977 0.0
C383 C 0.91852 0.57183 0.27982 0.0
C384 C 0.96747 0.55007 0.29103 0.0
C385 C 0.99117 0.54104 0.31128 0.0
C386 C 1.00264 0.56052 0.33012 0.0
C387 C 0.02488 0.55181 0.34924 0.0
C388 C 0.03598 0.5237 0.34957 0.0
C389 C 0.02492 0.50426 0.33072 0.0
C390 C 1.00265 0.51287 0.31158 0.0
C391 C 0.96235 0.57224 0.16572 0.0
C392 C 0.97087 0.54546 0.15482 0.0
C393 C 0.95668 0.57569 0.19427 0.0
C394 C 0.95917 0.55238 0.21232 0.0
C395 C 0.96851 0.52582 0.20162 0.0
C396 C 0.97434 0.52239 0.17316 0.0
C397 C 0.95162 0.55554 0.24232 0.0
C398 C 0.97293 0.54639 0.26236 0.0
C399 C 0.92381 0.5679 0.25118 0.0
C400 C 0.8995 0.5759 0.23114 0.0
C401 C 0.88908 0.55591 0.21222 0.0
C402 C 0.86629 0.5636 0.19329 0.0
C403 C 0.85357 0.59116 0.19322 0.0
C404 C 0.86358 0.61109 0.21213 0.0
C405 C 0.88639 0.60352 0.23108 0.0
H406 H 0.83592 0.59707 0.17855 0.0
H407 H 0.05321 0.517 0.36437 0.0
H408 H 0.19649 0.15221 0.11438 0.0
H409 H 0.24061 0.12987 0.09176 0.0
H410 H 0.2815 0.11502 0.1724 0.0
H411 H 0.23754 0.13781 0.1952 0.0
H412 H 0.32205 0.1335 0.13622 0.0
H413 H 0.25182 0.06127 0.13506 0.0
H414 H 0.20366 0.04077 0.12526 0.0
H415 H 0.21478 0.05533 0.03743 0.0
H416 H 0.26285 0.07628 0.04676 0.0
H417 H 0.40911 1.00518 0.06416 0.0
H418 H 0.36461 0.02615 0.08758 0.0
H419 H 0.38352 0.10784 0.05538 0.0
H420 H 0.42794 0.08702 0.03184 0.0
H421 H 0.31358 0.05403 0.06949 0.0
H422 H 0.36247 0.15846 0.10476 0.0
H423 H 0.41126 0.17656 0.11697 0.0
H424 H 0.44383 0.09335 0.14114 0.0
H425 H 0.39513 0.07483 0.12945 0.0
C426 C 0.21488 0.14437 0.12741 0.0
C427 C 0.21316 0.14697 0.15678 0.0
C428 C 0.24015 0.13132 0.11437 0.0
C429 C 0.26463 0.12041 0.13021 0.0
C430 C 0.2631 0.12314 0.15953 0.0
C431 C 0.23771 0.13602 0.17261 0.0
C432 C 0.29167 0.10623 0.11624 0.0
C433 C 0.32006 0.11619 0.12158 0.0
C434 C 0.28961 0.08326 0.09732 0.0
C435 C 0.2608 0.07057 0.09164 0.0
C436 C 0.24389 0.06029 0.11368 0.0
C437 C 0.21663 0.04856 0.10821 0.0
C438 C 0.20613 0.04681 0.08075 0.0
C439 C 0.22292 0.05673 0.0587 0.0
C440 C 0.25019 0.06851 0.06406 0.0
C441 C 0.40378 0.0276 0.06191 0.0
C442 C 0.42236 0.0443 0.04601 0.0
C443 C 0.37817 0.0396 0.07532 0.0
C444 C 0.37057 0.06875 0.07363 0.0
C445 C 0.38886 0.0854 0.05743 0.0
C446 C 0.4143 0.07338 0.0438 0.0
C447 C 0.34382 0.08171 0.089 0.0
C448 C 0.31551 0.07148 0.08398 0.0
C449 C 0.34601 0.10424 0.10841 0.0
C450 C 0.37523 0.11523 0.11595 0.0
C451 C 0.38 0.14405 0.11279 0.0
C452 C 0.40765 0.15438 0.1196 0.0
C453 C 0.43066 0.1361 0.12974 0.0
C454 C 0.42603 0.10747 0.13319 0.0
C455 C 0.39842 0.09704 0.12644 0.0
H456 H 0.45205 0.14413 0.13497 0.0
H457 H 0.18502 0.03773 0.07655 0.0
H458 H 0.28085 0.89485 0.69182 0.0
H459 H 0.23771 0.91796 0.6689 0.0
H460 H 0.26804 0.88437 0.58938 0.0
H461 H 0.31278 0.86364 0.61163 0.0
H462 H 0.24551 0.9318 0.57879 0.0
H463 H 0.20721 0.85749 0.63237 0.0
H464 H 0.19815 0.82902 0.67419 0.0
H465 H 0.15445 0.90122 0.71411 0.0
H466 H 0.16358 0.93023 0.67264 0.0
H467 H 0.09927 0.9463 0.51339 0.0
H468 H 0.14478 0.92607 0.536 0.0
H469 H 0.13274 0.98572 0.60372 0.0
H470 H 0.08777 0.00661 0.58086 0.0
H471 H 0.14492 0.92538 0.61981 0.0
H472 H 0.18365 0.99823 0.56206 0.0
H473 H 0.19089 0.02281 0.51748 0.0
H474 H 0.2318 0.9469 0.48204 0.0
H475 H 0.22439 0.92175 0.52632 0.0
C476 C 0.27888 0.89269 0.66937 0.0
C477 C 0.3008 0.87686 0.65393 0.0
C478 C 0.25357 0.90559 0.65623 0.0
C479 C 0.24867 0.90247 0.62727 0.0
C480 C 0.27073 0.88712 0.61173 0.0
C481 C 0.29638 0.87476 0.62473 0.0
C482 C 0.22091 0.91528 0.61315 0.0
C483 C 0.22358 0.92992 0.58775 0.0
C484 C 0.19187 0.91345 0.62453 0.0
C485 C 0.18637 0.8961 0.64952 0.0
C486 C 0.19586 0.86735 0.65015 0.0
C487 C 0.19068 0.85111 0.67378 0.0
C488 C 0.17581 0.86332 0.69682 0.0
C489 C 0.16601 0.8918 0.69626 0.0
C490 C 0.17117 0.90815 0.6727 0.0
C491 C 0.10639 0.95526 0.533 0.0
C492 C 0.08981 0.97823 0.54517 0.0
C493 C 0.13246 0.94364 0.54593 0.0
C494 C 0.14232 0.95429 0.57164 0.0
C495 C 0.12568 0.97706 0.58394 0.0
C496 C 0.1 0.9891 0.57073 0.0
C497 C 0.16981 0.94162 0.58577 0.0
C498 C 0.16699 0.92707 0.61105 0.0
C499 C 0.19856 0.94289 0.57395 0.0
C500 C 0.20317 0.95803 0.5474 0.0
C501 C 0.19393 0.98671 0.54468 0.0
C502 C 0.19812 1.00076 0.51948 0.0
C503 C 0.21172 0.98641 0.49691 0.0
C504 C 0.22123 0.95799 0.49953 0.0
C505 C 0.21706 0.94383 0.52467 0.0
H506 H 0.21495 0.99732 0.47742 0.0
H507 H 0.17182 0.85071 0.7151 0.0
H508 H 0.66786 0.45244 0.99991 0.0
H509 H 0.72022 0.46144 0.00939 0.0
H510 H 0.74174 0.44438 0.92288 0.0
H511 H 0.6897 0.43521 0.91335 0.0
H512 H 0.78045 0.41596 0.96008 0.0
H513 H 0.73798 0.51003 0.94456 0.0
H514 H 0.70234 0.55075 0.95236 0.0
H515 H 0.73025 0.5554 0.03816 0.0
H516 H 0.76578 0.51442 0.03096 0.0
H517 H 0.92504 0.46874 0.95306 0.0
H518 H 0.87287 0.45834 0.94605 0.0
H519 H 0.85306 0.48408 0.03095 0.0
H520 H 0.90497 0.49501 0.03798 0.0
H521 H 0.8131 0.50746 0.99595 0.0
H522 H 0.85642 0.41448 0.01182 0.0
H523 H 0.89202 0.37361 1.00468 0.0
H524 H 0.86251 0.36619 0.91959 0.0
H525 H 0.82702 0.4073 0.92611 0.0
C526 C 0.68379 0.45081 0.98294 0.0
C527 C 0.67473 0.44343 0.95587 0.0
C528 C 0.71358 0.45599 0.98834 0.0
C529 C 0.73473 0.45364 0.96678 0.0
C530 C 0.72571 0.44632 0.93975 0.0
C531 C 0.69595 0.44139 0.9343 0.0
C532 C 0.76643 0.45834 0.97241 0.0
C533 C 0.7877 0.43604 0.96763 0.0
C534 C 0.77563 0.48432 0.98294 0.0
C535 C 0.7543 0.50896 0.9873 0.0
C536 C 0.73632 0.51957 0.96516 0.0
C537 C 0.71618 0.54273 0.96945 0.0
C538 C 0.71397 0.5556 0.99576 0.0
C539 C 0.73195 0.54538 0.0178 0.0
C540 C 0.75211 0.5222 0.01363 0.0
C541 C 0.90963 0.47194 0.97031 0.0
C542 C 0.91911 0.48274 0.99605 0.0
C543 C 0.87985 0.46592 0.9663 0.0
C544 C 0.85913 0.47028 0.98805 0.0
C545 C 0.86867 0.48063 0.01388 0.0
C546 C 0.89837 0.48678 0.01787 0.0
C547 C 0.82727 0.46507 0.98357 0.0
C548 C 0.80593 0.4873 0.98853 0.0
C549 C 0.818 0.43895 0.97336 0.0
C550 C 0.83925 0.41415 0.96939 0.0
C551 C 0.85768 0.40428 0.99152 0.0
C552 C 0.87782 0.38104 0.9876 0.0
C553 C 0.87958 0.36735 0.96168 0.0
C554 C 0.86115 0.37683 0.93965 0.0
C555 C 0.841 0.40009 0.94345 0.0
H556 H 0.89518 0.34937 0.95868 0.0
H557 H 0.69837 0.57353 0.99904 0.0
H558 H 0.82066 0.58145 0.41579 0.0
H559 H 0.76945 0.57277 0.42863 0.0
H560 H 0.79715 0.55786 0.514 0.0
H561 H 0.84879 0.56668 0.50124 0.0
H562 H 0.7564 0.51773 0.49002 0.0
H563 H 0.76603 0.61716 0.50312 0.0
H564 H 0.77996 0.6646 0.48929 0.0
H565 H 0.71875 0.66382 0.42017 0.0
H566 H 0.70482 0.61613 0.43331 0.0
H567 H 0.60946 0.52349 0.54297 0.0
H568 H 0.66168 0.53336 0.53641 0.0
H569 H 0.64175 0.56338 0.453 0.0
H570 H 0.58929 0.55395 0.4595 0.0
H571 H 0.67968 0.59656 0.47939 0.0
H572 H 0.67198 0.49748 0.46319 0.0
H573 H 0.65832 0.44925 0.47442 0.0
H574 H 0.71582 0.44836 0.54637 0.0
H575 H 0.72948 0.4968 0.53579 0.0
C576 C 0.81597 0.57581 0.4372 0.0
C577 C 0.83867 0.57452 0.45752 0.0
C578 C 0.78671 0.57109 0.44452 0.0
C579 C 0.77963 0.56489 0.47225 0.0
C580 C 0.80232 0.56266 0.49249 0.0
C581 C 0.83166 0.56775 0.48522 0.0
C582 C 0.74824 0.56166 0.48 0.0
C583 C 0.73965 0.53504 0.48824 0.0
C584 C 0.72646 0.58416 0.47689 0.0
C585 C 0.73459 0.61295 0.46907 0.0
C586 C 0.75573 0.62699 0.48483 0.0
C587 C 0.76359 0.65395 0.47713 0.0
C588 C 0.7503 0.66719 0.45383 0.0
C589 C 0.72905 0.65352 0.4382 0.0
C590 C 0.72115 0.62654 0.44578 0.0
C591 C 0.61611 0.53239 0.52328 0.0
C592 C 0.59528 0.53772 0.50164 0.0
C593 C 0.64599 0.53792 0.51956 0.0
C594 C 0.65564 0.54867 0.49407 0.0
C595 C 0.63474 0.555 0.4728 0.0
C596 C 0.6048 0.54954 0.47653 0.0
C597 C 0.68768 0.55252 0.48927 0.0
C598 C 0.69641 0.57927 0.4815 0.0
C599 C 0.70955 0.53005 0.49253 0.0
C600 C 0.70149 0.50088 0.49888 0.0
C601 C 0.68152 0.48709 0.48154 0.0
C602 C 0.67381 0.4597 0.48776 0.0
C603 C 0.68613 0.44578 0.51114 0.0
C604 C 0.70625 0.4592 0.5283 0.0
C605 C 0.714 0.48661 0.52219 0.0
H606 H 0.68013 0.42458 0.51592 0.0
H607 H 0.75641 0.68807 0.4479 0.0
H608 H 0.17586 0.24375 0.14683 0.0
H609 H 0.15449 0.28591 0.12362 0.0
H610 H 0.06613 0.26152 0.14338 0.0
H611 H 0.08746 0.21855 0.16601 0.0
H612 H 0.06581 0.28139 0.0915 0.0
H613 H 0.10051 0.31575 0.17914 0.0
H614 H 0.13672 0.32289 0.21702 0.0
H615 H 0.193 0.36451 0.15985 0.0
H616 H 0.15731 0.35727 0.12152 0.0
H617 H 0.02971 0.44597 0.08756 0.0
H618 H 0.04843 0.40292 0.11118 0.0
H619 H 0.06866 0.36398 0.03138 0.0
H620 H 0.04968 0.40713 0.00752 0.0
H621 H 0.10067 0.37589 0.11499 0.0
H622 H 0.06361 0.29182 0.03627 0.0
H623 H 0.0237 0.28561 1.00158 0.0
H624 H 0.96577 0.34489 0.04645 0.0
H625 H 0.00517 0.35114 0.08159 0.0
C626 C 0.15183 0.24706 0.14616 0.0
C627 C 0.13357 0.22726 0.15841 0.0
C628 C 0.13955 0.27157 0.133 0.0
C629 C 0.1085 0.27747 0.13172 0.0
C630 C 0.09013 0.25778 0.14392 0.0
C631 C 0.10244 0.2332 0.15718 0.0
C632 C 0.09543 0.30402 0.11769 0.0
C633 C 0.07357 0.30199 0.09667 0.0
C634 C 0.10487 0.33132 0.1244 0.0
C635 C 0.12637 0.33572 0.1474 0.0
C636 C 0.12072 0.32623 0.1746 0.0
C637 C 0.14113 0.33033 0.19616 0.0
C638 C 0.16718 0.34408 0.19083 0.0
C639 C 0.17283 0.35383 0.16394 0.0
C640 C 0.15251 0.34975 0.14229 0.0
C641 C 0.03802 0.42827 0.07488 0.0
C642 C 0.03795 0.43029 0.04543 0.0
C643 C 0.04891 0.40352 0.08855 0.0
C644 C 0.05993 0.37971 0.07333 0.0
C645 C 0.05998 0.38166 0.04387 0.0
C646 C 0.04917 0.40652 0.03015 0.0
C647 C 0.07151 0.35321 0.08839 0.0
C648 C 0.09305 0.35526 0.10966 0.0
C649 C 0.06144 0.32603 0.08219 0.0
C650 C 0.03747 0.32216 0.06138 0.0
C651 C 0.04232 0.30345 0.03878 0.0
C652 C 0.01979 0.29993 0.01903 0.0
C653 C 0.99226 0.31492 0.02176 0.0
C654 C 0.98714 0.33337 0.0443 0.0
C655 C 0.00958 0.33693 0.06412 0.0
H656 H 0.97486 0.31219 1.00643 0.0
H657 H 0.18295 0.34723 0.20755 0.0
H658 H 0.63585 0.35695 0.97044 0.0
H659 H 0.61645 0.31069 0.97818 0.0
H660 H 0.52734 0.34886 0.98465 0.0
H661 H 0.54664 0.3955 0.97666 0.0
H662 H 0.55054 0.2934 0.02206 0.0
H663 H 0.53092 0.33275 0.92847 0.0
H664 H 0.54659 0.3588 0.88702 0.0
H665 H 0.62085 0.29883 0.8755 0.0
H666 H 0.60576 0.27264 0.91717 0.0
H667 H 0.48327 0.16676 0.9854 0.0
H668 H 0.49176 0.21718 0.98679 0.0
H669 H 0.57801 0.20057 0.94884 0.0
H670 H 0.56928 0.15027 0.94657 0.0
H671 H 0.55091 0.24778 0.92833 0.0
H672 H 0.57107 0.20729 0.01915 0.0
H673 H 0.55908 0.18111 0.06172 0.0
H674 H 0.48752 0.24221 0.08002 0.0
H675 H 0.49883 0.26855 0.03729 0.0
C676 C 0.61232 0.35572 0.97481 0.0
C677 C 0.59268 0.37975 0.97283 0.0
C678 C 0.60127 0.32926 0.97911 0.0
C679 C 0.57053 0.32654 0.98175 0.0
C680 C 0.55117 0.35073 0.98274 0.0
C681 C 0.56217 0.37725 0.97812 0.0
C682 C 0.55866 0.29849 0.97812 0.0
C683 C 0.54996 0.28352 1.00158 0.0
C684 C 0.55865 0.28564 0.95142 0.0
C685 C 0.56738 0.30092 0.92603 0.0
C686 C 0.55071 0.32526 0.9172 0.0
C687 C 0.55946 0.34002 0.89366 0.0
C688 C 0.58476 0.33053 0.87867 0.0
C689 C 0.60128 0.30618 0.88714 0.0
C690 C 0.59261 0.29135 0.9107 0.0
C691 C 0.5037 0.17394 0.97667 0.0
C692 C 0.52571 0.15457 0.96602 0.0
C693 C 0.50865 0.2027 0.97778 0.0
C694 C 0.53573 0.21248 0.96841 0.0
C695 C 0.55703 0.1934 0.95635 0.0
C696 C 0.55209 0.16468 0.9552 0.0
C697 C 0.54267 0.24233 0.97232 0.0
C698 C 0.55076 0.25768 0.94883 0.0
C699 C 0.54224 0.25537 0.99907 0.0
C700 C 0.53557 0.2397 0.02487 0.0
C701 C 0.55263 0.21502 0.03214 0.0
C702 C 0.54598 0.20017 0.05631 0.0
C703 C 0.5225 0.20995 0.07352 0.0
C704 C 0.50567 0.23464 0.06664 0.0
C705 C 0.51219 0.24954 0.04245 0.0
H706 H 0.51739 0.19842 0.09223 0.0
H707 H 0.59152 0.342 0.86046 0.0
H708 H 0.96549 0.6282 0.46805 0.0
H709 H 0.98306 0.67597 0.47317 0.0
H710 H 0.89218 0.71043 0.47045 0.0
H711 H 0.87453 0.66297 0.46544 0.0
H712 H 0.93154 0.72846 0.42696 0.0
H713 H 0.92726 0.71788 0.52758 0.0
H714 H 0.93985 0.69434 0.5723 0.0
H715 H 0.03284 0.70485 0.558 0.0
H716 H 0.02082 0.72811 0.51297 0.0
H717 H 0.93938 0.87405 0.44517 0.0
H718 H 0.93006 0.82415 0.44542 0.0
H719 H 0.02112 0.80404 0.47067 0.0
H720 H 0.02999 0.8543 0.47256 0.0
H721 H 0.98682 0.77631 0.50161 0.0
H722 H 0.99361 0.78813 0.40337 0.0
H723 H 0.98395 0.80997 0.35729 0.0
H724 H 0.89103 0.79462 0.3642 0.0
H725 H 0.90004 0.77303 0.41051 0.0
C726 C 0.94929 0.64595 0.46956 0.0
C727 C 0.91869 0.64196 0.46634 0.0
C728 C 0.95931 0.67313 0.47243 0.0
C729 C 0.93886 0.69658 0.47193 0.0
C730 C 0.90823 0.69249 0.47085 0.0
C731 C 0.89819 0.66536 0.46828 0.0
C732 C 0.94932 0.72527 0.46876 0.0
C733 C 0.94333 0.73916 0.44336 0.0
C734 C 0.96596 0.73839 0.48967 0.0
C735 C 0.97316 0.72445 0.51675 0.0
C736 C 0.95041 0.71492 0.53383 0.0
C737 C 0.95744 0.70169 0.55927 0.0
C738 C 0.98713 0.69802 0.56795 0.0
C739 C 0.00985 0.70766 0.55124 0.0
C740 C 1.00294 0.72089 0.52577 0.0
C741 C 0.9575 0.85906 0.45072 0.0
C742 C 0.98535 0.86826 0.45913 0.0
C743 C 0.95224 0.83042 0.45049 0.0
C744 C 0.97496 0.81024 0.45783 0.0
C745 C 0.00324 0.81923 0.46494 0.0
C746 C 0.00838 0.84798 0.46564 0.0
C747 C 0.9684 0.78005 0.45993 0.0
C748 C 0.97525 0.7657 0.48502 0.0
C749 C 0.95303 0.7662 0.43846 0.0
C750 C 0.94749 0.77912 0.41053 0.0
C751 C 0.97108 0.78958 0.39516 0.0
C752 C 0.96572 0.80189 0.36898 0.0
C753 C 0.93689 0.80372 0.35785 0.0
C754 C 0.91336 0.79319 0.37285 0.0
C755 C 0.91858 0.78087 0.39906 0.0
H756 H 0.93279 0.81327 0.33757 0.0
H757 H 0.99253 0.68778 0.58765 0.0
H758 H 0.33738 0.78154 0.63952 0.0
H759 H 0.35891 0.73973 0.61664 0.0
H760 H 0.44472 0.75498 0.65241 0.0
H761 H 0.42396 0.79898 0.67297 0.0
H762 H 0.45617 0.73569 0.60534 0.0
H763 H 0.39351 0.70012 0.67523 0.0
H764 H 0.34762 0.6948 0.70239 0.0
H765 H 0.30283 0.66754 0.62845 0.0
H766 H 0.34835 0.67303 0.60077 0.0
H767 H 0.49959 0.58273 0.58743 0.0
H768 H 0.48032 0.62634 0.61052 0.0
H769 H 0.42918 0.64898 0.53686 0.0
H770 H 0.44906 0.60582 0.51324 0.0
H771 H 0.4022 0.64744 0.60438 0.0
H772 H 0.46962 0.68791 0.53544 0.0
H773 H 0.51907 0.68977 0.5135 0.0
H774 H 0.55867 0.70353 0.59391 0.0
H775 H 0.50946 0.70128 0.61635 0.0
C776 C 0.36101 0.77668 0.64226 0.0
C777 C 0.37869 0.79457 0.6582 0.0
C778 C 0.37331 0.75196 0.62949 0.0
C779 C 0.40357 0.74322 0.63303 0.0
C780 C 0.4213 0.76077 0.64917 0.0
C781 C 0.40916 0.786 0.66139 0.0
C782 C 0.41662 0.7163 0.61945 0.0
C783 C 0.44425 0.71647 0.60552 0.0
C784 C 0.40168 0.69061 0.61931 0.0
C785 C 0.37427 0.68724 0.63588 0.0
C786 C 0.37381 0.69317 0.66473 0.0
C787 C 0.34787 0.6901 0.68022 0.0
C788 C 0.3223 0.68091 0.66714 0.0
C789 C 0.32264 0.67469 0.63855 0.0
C790 C 0.34851 0.67775 0.62295 0.0
C791 C 0.48438 0.59703 0.576 0.0
C792 C 0.47603 0.59061 0.54832 0.0
C793 C 0.47336 0.62203 0.58929 0.0
C794 C 0.45331 0.64113 0.5755 0.0
C795 C 0.44472 0.63473 0.54797 0.0
C796 C 0.45619 0.61 0.53444 0.0
C797 C 0.44096 0.66742 0.59002 0.0
C798 C 0.41373 0.6669 0.60427 0.0
C799 C 0.45655 0.69248 0.59109 0.0
C800 C 0.48598 0.69404 0.57758 0.0
C801 C 0.48893 0.691 0.54846 0.0
C802 C 0.51689 0.69221 0.53593 0.0
C803 C 0.54202 0.69666 0.55231 0.0
C804 C 0.5392 0.70002 0.58125 0.0
C805 C 0.51129 0.69879 0.59388 0.0
H806 H 0.56365 0.6976 0.54257 0.0
H807 H 0.30224 0.67855 0.67917 0.0
H808 H 0.83346 0.88917 0.77051 0.0
H809 H 0.85301 0.91112 0.7291 0.0
H810 H 0.94184 0.87976 0.75121 0.0
H811 H 0.92268 0.85931 0.79392 0.0
H812 H 0.94723 0.92854 0.7312 0.0
H813 H 0.89622 0.85044 0.69604 0.0
H814 H 0.85426 0.81978 0.68935 0.0
H815 H 0.80172 0.88886 0.65319 0.0
H816 H 0.84326 0.92003 0.65999 0.0
H817 H 0.96319 0.93547 0.5664 0.0
H818 H 0.94485 0.91318 0.60856 0.0
H819 H 0.94725 0.99228 0.65288 0.0
H820 H 0.96631 0.0145 0.61092 0.0
H821 H 0.89828 0.91721 0.63908 0.0
H822 H 0.95868 0.98246 0.7226 0.0
H823 H 0.00529 0.00709 0.72777 0.0
H824 H 0.04685 0.95363 0.66473 0.0
H825 H 1.00065 0.92846 0.65945 0.0
C826 C 0.85727 0.88715 0.76706 0.0
C827 C 0.87624 0.87223 0.78625 0.0
C828 C 0.86848 0.89948 0.74278 0.0
C829 C 0.89908 0.89694 0.7362 0.0
C830 C 0.91815 0.88218 0.75532 0.0
C831 C 0.90698 0.87008 0.77983 0.0
C832 C 0.9111 0.90975 0.70968 0.0
C833 C 0.93635 0.92602 0.71115 0.0
C834 C 0.89775 0.9063 0.68294 0.0
C835 C 0.87275 0.88763 0.67877 0.0
C836 C 0.87565 0.85913 0.68683 0.0
C837 C 0.85195 0.84166 0.683 0.0
C838 C 0.82532 0.85239 0.67092 0.0
C839 C 0.82235 0.88059 0.66258 0.0
C840 C 0.84597 0.89817 0.6664 0.0
C841 C 0.95984 0.94823 0.58508 0.0
C842 C 0.96648 0.97694 0.58498 0.0
C843 C 0.94919 0.93537 0.60935 0.0
C844 C 0.94484 0.95067 0.6345 0.0
C845 C 0.95088 0.97953 0.63424 0.0
C846 C 0.96165 0.99238 0.60999 0.0
C847 C 0.93401 0.93646 0.66073 0.0
C848 C 0.90903 0.91987 0.65918 0.0
C849 C 0.94813 0.93894 0.68722 0.0
C850 C 0.97608 0.9538 0.69043 0.0
C851 C 0.9778 0.97591 0.70991 0.0
C852 C 0.00414 0.98997 0.71285 0.0
C853 C 0.02898 0.98199 0.69652 0.0
C854 C 0.02756 0.95987 0.67729 0.0
C855 C 1.00129 0.94572 0.67429 0.0
H856 H 0.04934 0.99292 0.69882 0.0
H857 H 0.807 0.83882 0.66797 0.0
H858 H 0.62336 0.18648 0.26728 0.0
H859 H 0.60434 0.16475 0.22478 0.0
H860 H 0.61908 0.08242 0.26174 0.0
H861 H 0.63843 0.10401 0.30405 0.0
H862 H 0.63587 0.07801 0.21061 0.0
H863 H 0.54682 0.11876 0.2526 0.0
H864 H 0.51337 0.1563 0.2731 0.0
H865 H 0.51515 0.20302 0.19647 0.0
H866 H 0.54897 0.16594 0.17563 0.0
H867 H 0.54909 1.00376 0.11045 0.0
H868 H 0.56786 0.02556 0.1532 0.0
H869 H 0.56306 0.1067 0.11283 0.0
H870 H 0.54449 0.08508 0.07012 0.0
H871 H 0.54093 0.11149 0.16542 0.0
H872 H 0.63006 0.07002 0.12376 0.0
H873 H 0.66253 0.03166 0.10341 0.0
H874 H 0.65921 0.98525 0.18013 0.0
H875 H 0.62634 0.02319 0.20082 0.0
C876 C 0.62227 0.16376 0.26656 0.0
C877 C 0.63261 0.14719 0.28942 0.0
C878 C 0.61129 0.15124 0.24207 0.0
C879 C 0.60976 0.1217 0.2397 0.0
C880 C 0.61997 0.10517 0.26258 0.0
C881 C 0.63115 0.11764 0.28695 0.0
C882 C 0.59809 0.10797 0.21345 0.0
C883 C 0.61485 0.08519 0.20109 0.0
C884 C 0.57094 0.11733 0.20018 0.0
C885 C 0.5507 0.13971 0.21267 0.0
C886 C 0.54028 0.13715 0.2402 0.0
C887 C 0.52122 0.15833 0.25186 0.0
C888 C 0.51222 0.18207 0.23612 0.0
C889 C 0.5222 0.18465 0.20865 0.0
C890 C 0.5413 0.16355 0.1969 0.0
C891 C 0.55217 0.02622 0.11057 0.0
C892 C 0.54531 0.04249 0.08653 0.0
C893 C 0.56301 0.03873 0.13513 0.0
C894 C 0.56719 0.06794 0.13652 0.0
C895 C 0.56014 0.0842 0.1126 0.0
C896 C 0.5496 0.07169 0.08799 0.0
C897 C 0.57867 0.0816 0.16278 0.0
C898 C 0.56189 0.10435 0.17506 0.0
C899 C 0.60568 0.07212 0.17608 0.0
C900 C 0.62548 0.04931 0.16373 0.0
C901 C 0.63605 0.05153 0.13621 0.0
C902 C 0.65456 0.02988 0.12463 0.0
C903 C 0.66286 0.006 0.14044 0.0
C904 C 0.65272 1.00375 0.1679 0.0
C905 C 0.63417 0.02532 0.17957 0.0
H906 H 0.6772 0.98926 0.13144 0.0
H907 H 0.49745 0.19844 0.24519 0.0
H908 H 0.43817 0.61793 0.14046 0.0
H909 H 0.45298 0.6091 0.18871 0.0
H910 H 0.42139 0.52527 0.18331 0.0
H911 H 0.40828 0.53299 0.13405 0.0
H912 H 0.39705 0.57289 0.2286 0.0
H913 H 0.4827 0.51768 0.1908 0.0
H914 H 0.52672 0.51122 0.16029 0.0
H915 H 0.56575 0.58169 0.19983 0.0
H916 H 0.52171 0.58883 0.2303 0.0
H917 H 0.42948 0.52593 0.36472 0.0
H918 H 0.42116 0.5312 0.31487 0.0
H919 H 0.49412 0.58628 0.30991 0.0
H920 H 0.50458 0.57878 0.3595 0.0
H921 H 0.49813 0.55311 0.26851 0.0
H922 H 0.41705 0.61011 0.30596 0.0
H923 H 0.37336 0.62236 0.33559 0.0
H924 H 0.3256 0.55697 0.29643 0.0
H925 H 0.36916 0.54408 0.2668 0.0
C926 C 0.43537 0.59715 0.14894 0.0
C927 C 0.42206 0.57611 0.1331 0.0
C928 C 0.4436 0.59232 0.17671 0.0
C929 C 0.43823 0.56661 0.18934 0.0
C930 C 0.42567 0.54526 0.17369 0.0
C931 C 0.41802 0.54982 0.14565 0.0
C932 C 0.44337 0.56323 0.21958 0.0
C933 C 0.419 0.56805 0.23748 0.0
C934 C 0.47225 0.55835 0.2308 0.0
C935 C 0.49876 0.55399 0.21258 0.0
C936 C 0.50051 0.53199 0.19277 0.0
C937 C 0.52551 0.52816 0.17554 0.0
C938 C 0.54898 0.54609 0.17806 0.0
C939 C 0.54753 0.56784 0.19787 0.0
C940 C 0.52257 0.57177 0.21514 0.0
C941 C 0.44408 0.53891 0.35309 0.0
C942 C 0.46798 0.55164 0.36626 0.0
C943 C 0.4389 0.54234 0.32454 0.0
C944 C 0.4567 0.55949 0.30859 0.0
C945 C 0.48004 0.57294 0.32176 0.0
C946 C 0.48574 0.56894 0.35027 0.0
C947 C 0.45163 0.5624 0.27802 0.0
C948 C 0.47603 0.55778 0.25991 0.0
C949 C 0.42278 0.56824 0.26659 0.0
C950 C 0.39649 0.57597 0.28433 0.0
C951 C 0.39731 0.59821 0.3038 0.0
C952 C 0.37255 0.60529 0.32057 0.0
C953 C 0.34674 0.59041 0.31794 0.0
C954 C 0.34561 0.56846 0.29847 0.0
C955 C 0.37032 0.56128 0.28165 0.0
H956 H 0.3276 0.59592 0.33095 0.0
H957 H 0.56831 0.54308 0.1647 0.0
H958 H 0.05247 0.45565 0.62433 0.0
H959 H 0.0395 0.46413 0.6733 0.0
H960 H 0.13255 0.47019 0.69369 0.0
H961 H 0.14583 0.45994 0.64533 0.0
H962 H 0.10944 0.43404 0.72635 0.0
H963 H 0.08041 0.528 0.697 0.0
H964 H 0.05417 0.56473 0.66834 0.0
H965 H 0.96983 0.53529 0.69367 0.0
H966 H 0.99558 0.49812 0.7222 0.0
H967 H 0.09267 0.48142 0.86656 0.0
H968 H 0.10276 0.47771 0.81641 0.0
H969 H 0.01136 0.45873 0.80114 0.0
H970 H 1.00106 0.4626 0.85146 0.0
H971 H 0.03196 0.50114 0.76613 0.0
H972 H 0.06232 0.40729 0.79588 0.0
H973 H 0.0895 0.37163 0.82511 0.0
H974 H 0.1729 0.40267 0.79917 0.0
H975 H 0.1462 0.4388 0.77007 0.0
C976 C 0.07015 0.45913 0.63919 0.0
C977 C 0.10021 0.45684 0.63086 0.0
C978 C 0.06267 0.46426 0.66715 0.0
C979 C 0.08507 0.46777 0.6872 0.0
C980 C 0.1149 0.46743 0.67859 0.0
C981 C 0.12243 0.46193 0.65076 0.0
C982 C 0.07784 0.46882 0.71744 0.0
C983 C 0.09284 0.44907 0.73507 0.0
C984 C 0.05549 0.48777 0.7287 0.0
C985 C 0.03994 0.51009 0.71153 0.0
C986 C 0.05627 0.5292 0.69627 0.0
C987 C 0.04149 0.55013 0.68009 0.0
C988 C 0.01036 0.55229 0.67912 0.0
C989 C 0.99395 0.53357 0.6944 0.0
C990 C 0.00862 0.51258 0.71061 0.0
C991 C 0.0748 0.47627 0.85251 0.0
C992 C 0.04611 0.47225 0.8628 0.0
C993 C 0.08059 0.47409 0.82394 0.0
C994 C 0.05779 0.46792 0.80517 0.0
C995 C 0.0292 0.46353 0.81538 0.0
C996 C 0.02344 0.46547 0.84405 0.0
C997 C 0.06386 0.46667 0.77482 0.0
C998 C 0.04857 0.48623 0.75725 0.0
C999 C 0.08612 0.44771 0.76358 0.0
C1000 C 0.10224 0.42592 0.78099 0.0
C1001 C 0.08645 0.40667 0.79659 0.0
C1002 C 0.10177 0.38634 0.8131 0.0
C1003 C 0.1329 0.38493 0.81405 0.0
C1004 C 0.14878 0.40381 0.79843 0.0
C1005 C 0.13357 0.4242 0.78191 0.0
H1006 H 0.14472 0.36917 0.82684 0.0
H1007 H 0.99895 0.56852 0.66658 0.0
H1008 H 0.7801 0.83479 0.87695 0.0
H1009 H 0.73679 0.85667 0.90072 0.0
H1010 H 0.76482 0.93904 0.87885 0.0
H1011 H 0.80932 0.91731 0.85642 0.0
H1012 H 0.74452 0.94235 0.9292 0.0
H1013 H 0.70463 0.90509 0.84497 0.0
H1014 H 0.69522 0.86903 0.80923 0.0
H1015 H 0.65278 0.81943 0.87073 0.0
H1016 H 0.66229 0.85503 0.90693 0.0
H1017 H 0.60288 0.01481 0.95878 0.0
H1018 H 0.64772 0.99397 0.93587 0.0
H1019 H 0.6276 0.91189 0.96624 0.0
H1020 H 0.58283 0.9326 0.98931 0.0
H1021 H 0.64352 0.90927 0.91116 0.0
H1022 H 0.68372 0.94795 0.99523 0.0
H1023 H 0.69238 0.98531 0.02982 0.0
H1024 H 0.73333 0.03398 0.96662 0.0
H1025 H 0.72453 0.99708 0.93154 0.0
C1026 C 0.77745 0.8576 0.87737 0.0
C1027 C 0.79871 0.87405 0.8645 0.0
C1028 C 0.75217 0.87018 0.89075 0.0
C1029 C 0.74679 0.89972 0.89138 0.0
C1030 C 0.76803 0.91625 0.87873 0.0
C1031 C 0.7935 0.90367 0.86551 0.0
C1032 C 0.71934 0.91325 0.9054 0.0
C1033 C 0.72244 0.9353 0.92483 0.0
C1034 C 0.69022 0.90404 0.90042 0.0
C1035 C 0.68444 0.8826 0.87871 0.0
C1036 C 0.69349 0.88639 0.85091 0.0
C1037 C 0.68811 0.86605 0.83057 0.0
C1038 C 0.67348 0.84192 0.83772 0.0
C1039 C 0.66414 0.83811 0.86523 0.0
C1040 C 0.6695 0.85838 0.88566 0.0
C1041 C 0.60804 0.99234 0.96078 0.0
C1042 C 0.58907 0.97551 0.97611 0.0
C1043 C 0.63384 0.9804 0.94765 0.0
C1044 C 0.64144 0.95123 0.9493 0.0
C1045 C 0.62246 0.93439 0.96452 0.0
C1046 C 0.59683 0.94635 0.97788 0.0
C1047 C 0.6688 0.93821 0.93491 0.0
C1048 C 0.66564 0.91629 0.91542 0.0
C1049 C 0.69777 0.94772 0.93963 0.0
C1050 C 0.70319 0.96988 0.9607 0.0
C1051 C 0.69435 0.96673 0.98865 0.0
C1052 C 0.69933 0.9878 0.00836 0.0
C1053 C 0.71332 0.01204 1.00041 0.0
C1054 C 0.72245 0.01521 0.97274 0.0
C1055 C 0.7175 0.99422 0.95295 0.0
H1056 H 0.71716 0.02832 0.01569 0.0
H1057 H 0.66933 0.8262 0.82194 0.0
H1058 H 0.69991 0.15924 0.40871 0.0
H1059 H 0.74473 0.13819 0.43096 0.0
H1060 H 0.77486 0.10432 0.35166 0.0
H1061 H 0.73098 0.12673 0.32868 0.0
H1062 H 0.77879 0.06443 0.39911 0.0
H1063 H 0.80761 0.15748 0.37379 0.0
H1064 H 0.8017 0.20944 0.37286 0.0
H1065 H 0.80503 0.21205 0.4626 0.0
H1066 H 0.81051 0.16004 0.46407 0.0
H1067 H 0.92535 0.01687 0.43957 0.0
H1068 H 0.88091 0.03772 0.41641 0.0
H1069 H 0.86709 0.09608 0.48523 0.0
H1070 H 0.91279 0.07635 0.50753 0.0
H1071 H 0.85373 0.1237 0.44272 0.0
H1072 H 0.82342 0.03337 0.47077 0.0
H1073 H 0.82606 0.98153 0.47507 0.0
H1074 H 0.82127 0.97321 0.38573 0.0
H1075 H 0.81898 0.02502 0.38088 0.0
C1076 C 0.71615 0.14783 0.39566 0.0
C1077 C 0.71139 0.14517 0.36654 0.0
C1078 C 0.74181 0.13549 0.40862 0.0
C1079 C 0.76338 0.11965 0.39308 0.0
C1080 C 0.75856 0.11632 0.36422 0.0
C1081 C 0.73315 0.1291 0.35109 0.0
C1082 C 0.791 0.10686 0.40694 0.0
C1083 C 0.79541 0.07736 0.40834 0.0
C1084 C 0.81225 0.1236 0.41992 0.0
C1085 C 0.80916 0.15486 0.41904 0.0
C1086 C 0.80682 0.16911 0.39334 0.0
C1087 C 0.8036 0.19858 0.39271 0.0
C1088 C 0.80291 0.21403 0.41766 0.0
C1089 C 0.80553 0.20005 0.44329 0.0
C1090 C 0.80871 0.17058 0.44403 0.0
C1091 C 0.91276 0.03404 0.44989 0.0
C1092 C 0.92267 0.04472 0.4756 0.0
C1093 C 0.88704 0.04592 0.43666 0.0
C1094 C 0.86972 0.06828 0.44913 0.0
C1095 C 0.87967 0.07892 0.4749 0.0
C1096 C 0.90585 0.06748 0.48781 0.0
C1097 C 0.84184 0.08094 0.43511 0.0
C1098 C 0.83726 0.11053 0.43364 0.0
C1099 C 0.82004 0.06423 0.42263 0.0
C1100 C 0.82133 0.03307 0.42546 0.0
C1101 C 0.82313 0.02048 0.45203 0.0
C1102 C 0.82454 0.9911 0.45457 0.0
C1103 C 0.82391 0.97408 0.43068 0.0
C1104 C 0.82179 0.98642 0.40421 0.0
C1105 C 0.82042 0.01579 0.40156 0.0
H1106 H 0.82501 0.95134 0.43269 0.0
H1107 H 0.80042 0.23684 0.41713 0.0
H1108 H 0.34472 0.56903 0.02131 0.0
H1109 H 0.2929 0.55943 0.01046 0.0
H1110 H 0.26959 0.57185 0.0973 0.0
H1111 H 0.32115 0.58133 0.10823 0.0
H1112 H 0.24377 0.52719 0.07635 0.0
H1113 H 0.25456 0.6234 0.04912 0.0
H1114 H 0.2774 0.66197 0.02408 0.0
H1115 H 0.25684 0.62366 0.94536 0.0
H1116 H 0.23427 0.58461 0.96997 0.0
H1117 H 0.08738 0.54847 0.0646 0.0
H1118 H 0.13968 0.55791 0.07249 0.0
H1119 H 0.15957 0.53708 0.98642 0.0
H1120 H 0.10732 0.52758 0.97827 0.0
H1121 H 0.18728 0.58491 1.00551 0.0
H1122 H 0.17519 0.48914 0.03364 0.0
H1123 H 0.15168 0.45143 0.05939 0.0
H1124 H 0.17415 0.49009 0.13742 0.0
H1125 H 0.19739 0.52831 0.11211 0.0
C1126 C 0.3285 0.56961 0.03804 0.0
C1127 C 0.33698 0.5758 0.06561 0.0
C1128 C 0.29896 0.56418 0.03184 0.0
C1129 C 0.27736 0.56522 0.05305 0.0
C1130 C 0.28592 0.57084 0.08065 0.0
C1131 C 0.31542 0.57614 0.08688 0.0
C1132 C 0.24568 0.56097 0.04655 0.0
C1133 C 0.23135 0.54001 0.06107 0.0
C1134 C 0.22964 0.57737 0.02624 0.0
C1135 C 0.24302 0.60093 0.01139 0.0
C1136 C 0.25512 0.62308 0.02647 0.0
C1137 C 0.26798 0.64505 0.01236 0.0
C1138 C 0.26864 0.64522 0.98315 0.0
C1139 C 0.25636 0.62347 0.96799 0.0
C1140 C 0.24351 0.60142 0.98201 0.0
C1141 C 0.10281 0.54616 0.04727 0.0
C1142 C 0.09329 0.53707 0.02087 0.0
C1143 C 0.13267 0.55147 0.05184 0.0
C1144 C 0.15346 0.54784 0.0301 0.0
C1145 C 0.14383 0.5399 1.00345 0.0
C1146 C 0.11401 0.5344 0.99889 0.0
C1147 C 0.18545 0.55132 0.03547 0.0
C1148 C 0.1998 0.57208 0.02072 0.0
C1149 C 0.20148 0.53485 0.05568 0.0
C1150 C 0.18778 0.51173 0.07096 0.0
C1151 C 0.17492 0.48972 0.05628 0.0
C1152 C 0.16167 0.46824 0.0708 0.0
C1153 C 0.16136 0.4684 0.10002 0.0
C1154 C 0.17437 0.49001 0.11478 0.0
C1155 C 0.1876 0.51158 0.10036 0.0
H1156 H 0.1511 0.45174 0.11123 0.0
H1157 H 0.27861 0.66225 0.97226 0.0
H1158 H 0.19299 0.40012 0.56173 0.0
H1159 H 0.24462 0.40918 0.55028 0.0
H1160 H 0.21907 0.49701 0.53672 0.0
H1161 H 0.16723 0.48821 0.54886 0.0
H1162 H 0.26441 0.45289 0.49421 0.0
H1163 H 0.24618 0.50292 0.58507 0.0
H1164 H 0.22635 0.50313 0.63314 0.0
H1165 H 0.28041 0.42793 0.65175 0.0
H1166 H 0.30014 0.42705 0.60358 0.0
H1167 H 0.40317 0.51411 0.48847 0.0
H1168 H 0.35118 0.50371 0.49444 0.0
H1169 H 0.37657 0.44283 0.55831 0.0
H1170 H 0.42877 0.45428 0.55334 0.0
H1171 H 0.33031 0.47168 0.57492 0.0
H1172 H 0.35473 0.42364 0.48976 0.0
H1173 H 0.37446 0.41746 0.44193 0.0
H1174 H 0.31007 0.48061 0.41183 0.0
H1175 H 0.2902 0.48747 0.45956 0.0
C1176 C 0.19828 0.42126 0.55579 0.0
C1177 C 0.17623 0.4435 0.55601 0.0
C1178 C 0.2277 0.42638 0.54937 0.0
C1179 C 0.23541 0.45371 0.54276 0.0
C1180 C 0.21332 0.47579 0.54181 0.0
C1181 C 0.18389 0.47078 0.54874 0.0
C1182 C 0.26698 0.45928 0.53866 0.0
C1183 C 0.27887 0.4575 0.51167 0.0
C1184 C 0.28578 0.46393 0.56171 0.0
C1185 C 0.27431 0.46473 0.59071 0.0
C1186 C 0.25358 0.48628 0.59935 0.0
C1187 C 0.24242 0.48656 0.62661 0.0
C1188 C 0.25204 0.4655 0.64547 0.0
C1189 C 0.27293 0.44419 0.63711 0.0
C1190 C 0.28411 0.4438 0.60985 0.0
C1191 C 0.39774 0.49835 0.50367 0.0
C1192 C 0.42003 0.48489 0.52037 0.0
C1193 C 0.36798 0.4923 0.50695 0.0
C1194 C 0.35994 0.47208 0.52644 0.0
C1195 C 0.38223 0.45847 0.54308 0.0
C1196 C 0.41203 0.46494 0.54019 0.0
C1197 C 0.32816 0.46603 0.53012 0.0
C1198 C 0.31611 0.46736 0.5572 0.0
C1199 C 0.30938 0.46041 0.50709 0.0
C1200 C 0.32115 0.45624 0.4783 0.0
C1201 C 0.34491 0.43636 0.47298 0.0
C1202 C 0.3561 0.43271 0.44588 0.0
C1203 C 0.34357 0.44868 0.42387 0.0
C1204 C 0.31977 0.46828 0.4289 0.0
C1205 C 0.30851 0.47203 0.45597 0.0
H1206 H 0.35227 0.44583 0.4029 0.0
H1207 H 0.24337 0.46575 0.66657 0.0
H1208 H 0.83711 0.77534 0.86672 0.0
H1209 H 0.85843 0.73253 0.88898 0.0
H1210 H 0.94628 0.76387 0.88211 0.0
H1211 H 0.92495 0.80642 0.85876 0.0
H1212 H 0.95276 0.71128 0.8741 0.0
H1213 H 0.90242 0.7639 0.9465 0.0
H1214 H 0.86048 0.7903 0.96971 0.0
H1215 H 0.80937 0.71662 0.96726 0.0
H1216 H 0.85087 0.68988 0.94368 0.0
H1217 H 0.96996 0.61453 0.00967 0.0
H1218 H 0.95192 0.65842 0.98674 0.0
H1219 H 0.95621 0.61618 0.90671 0.0
H1220 H 0.97541 0.57281 0.92938 0.0
H1221 H 0.90638 0.6765 0.96034 0.0
H1222 H 0.96492 0.66008 0.85289 0.0
H1223 H 0.01147 0.63773 0.83373 0.0
H1224 H 0.05441 0.64596 0.91348 0.0
H1225 H 0.00825 0.66868 0.93301 0.0
C1226 C 0.861 0.77319 0.86992 0.0
C1227 C 0.87917 0.7947 0.86103 0.0
C1228 C 0.87327 0.74859 0.88291 0.0
C1229 C 0.90414 0.74479 0.88819 0.0
C1230 C 0.92244 0.76593 0.87862 0.0
C1231 C 0.91018 0.79041 0.86517 0.0
C1232 C 0.91713 0.71897 0.90364 0.0
C1233 C 0.94248 0.70377 0.89293 0.0
C1234 C 0.9046 0.70903 0.9288 0.0
C1235 C 0.87966 0.72497 0.9431 0.0
C1236 C 0.88217 0.75339 0.95076 0.0
C1237 C 0.85848 0.7684 0.96399 0.0
C1238 C 0.83226 0.75517 0.96989 0.0
C1239 C 0.82969 0.72686 0.96264 0.0
C1240 C 0.85329 0.71175 0.94936 0.0
C1241 C 0.96727 0.61461 0.98715 0.0
C1242 C 0.9745 0.58993 0.9715 0.0
C1243 C 0.95677 0.63985 0.97395 0.0
C1244 C 0.95295 0.64128 0.94466 0.0
C1245 C 0.95961 0.61639 0.92913 0.0
C1246 C 0.97049 0.59131 0.94225 0.0
C1247 C 0.94165 0.66846 0.93049 0.0
C1248 C 0.91663 0.68395 0.94147 0.0
C1249 C 0.95506 0.67916 0.90611 0.0
C1250 C 0.98303 0.66582 0.89446 0.0
C1251 C 0.98433 0.65722 0.8663 0.0
C1252 C 0.01064 0.64447 0.85538 0.0
C1253 C 0.03585 0.64034 0.8724 0.0
C1254 C 0.03484 0.64907 0.90034 0.0
C1255 C 0.0086 0.66186 0.91135 0.0
H1256 H 0.05618 0.63044 0.86392 0.0
H1257 H 0.81394 0.76683 0.98013 0.0
H1258 H 0.37704 0.6621 0.05353 0.0
H1259 H 0.39617 0.70779 0.04372 0.0
H1260 H 0.48516 0.6691 0.03624 0.0
H1261 H 0.46596 0.62303 0.04695 0.0
H1262 H 0.48604 0.71068 0.07067 0.0
H1263 H 0.44712 0.7023 0.97918 0.0
H1264 H 0.41071 0.69196 0.9424 0.0
H1265 H 0.35015 0.75766 0.97408 0.0
H1266 H 0.38599 0.76815 0.01131 0.0
H1267 H 0.52936 0.8526 0.03836 0.0
H1268 H 0.52131 0.80213 0.03557 0.0
H1269 H 0.43111 0.81812 0.06442 0.0
H1270 H 0.43922 0.8684 0.06847 0.0
H1271 H 0.43839 0.78662 0.01201 0.0
H1272 H 0.47636 0.7889 0.10733 0.0
H1273 H 0.51389 0.79881 0.14325 0.0
H1274 H 0.57854 0.74378 0.10112 0.0
H1275 H 0.54146 0.73386 0.06471 0.0
C1276 C 0.40051 0.6631 0.04875 0.0
C1277 C 0.42002 0.639 0.05089 0.0
C1278 C 0.41148 0.68932 0.04313 0.0
C1279 C 0.44212 0.69194 0.03898 0.0
C1280 C 0.46144 0.66759 0.03938 0.0
C1281 C 0.45048 0.64131 0.04537 0.0
C1282 C 0.45401 0.72044 0.03784 0.0
C1283 C 0.47614 0.72707 0.05726 0.0
C1284 C 0.4409 0.74201 0.02065 0.0
C1285 C 0.41926 0.73593 0.99815 0.0
C1286 C 0.42597 0.71444 0.97843 0.0
C1287 C 0.40543 0.70856 0.95747 0.0
C1288 C 0.37813 0.72412 0.95592 0.0
C1289 C 0.37132 0.74563 0.97529 0.0
C1290 C 0.39178 0.75159 0.9963 0.0
C1291 C 0.50807 0.84534 0.04489 0.0
C1292 C 0.48484 0.86462 0.05346 0.0
C1293 C 0.50346 0.81653 0.04301 0.0
C1294 C 0.47554 0.80661 0.04948 0.0
C1295 C 0.45271 0.82554 0.05903 0.0
C1296 C 0.45738 0.85425 0.06127 0.0
C1297 C 0.46953 0.77666 0.04528 0.0
C1298 C 0.44862 0.76992 0.02485 0.0
C1299 C 0.48401 0.75496 0.06123 0.0
C1300 C 0.50627 0.76094 0.08311 0.0
C1301 C 0.49867 0.77915 0.10556 0.0
C1302 C 0.51984 0.78471 0.12605 0.0
C1303 C 0.54862 0.77201 0.12442 0.0
C1304 C 0.55626 0.75365 0.10233 0.0
C1305 C 0.53518 0.74804 0.08177 0.0
H1306 H 0.56497 0.77633 0.1403 0.0
H1307 H 0.36225 0.71953 0.93969 0.0
H1308 H 0.04649 0.39599 0.56232 0.0
H1309 H 0.02569 0.34958 0.55742 0.0
H1310 H 0.11469 0.31024 0.55541 0.0
H1311 H 0.13547 0.35634 0.55998 0.0
H1312 H 0.07972 0.28444 0.52004 0.0
H1313 H 0.07446 0.31626 0.61612 0.0
H1314 H 0.05949 0.34926 0.6542 0.0
H1315 H 0.96727 0.33994 0.63444 0.0
H1316 H 0.98174 0.30721 0.59593 0.0
H1317 H 0.06975 0.15005 0.57789 0.0
H1318 H 0.07725 0.20059 0.57771 0.0
H1319 H 0.98604 0.21782 0.55195 0.0
H1320 H 0.97856 0.16717 0.55071 0.0
H1321 H 0.0151 0.25589 0.59784 0.0
H1322 H 0.02255 0.22061 0.50263 0.0
H1323 H 0.04006 0.18604 0.46678 0.0
H1324 H 0.13094 0.20059 0.48764 0.0
H1325 H 0.11393 0.23496 0.52391 0.0
C1326 C 0.06154 0.37742 0.56035 0.0
C1327 C 0.09256 0.37972 0.56156 0.0
C1328 C 0.04967 0.35098 0.55763 0.0
C1329 C 0.06867 0.32647 0.55651 0.0
C1330 C 0.09963 0.32889 0.55619 0.0
C1331 C 0.11149 0.35527 0.5587 0.0
C1332 C 0.05667 0.29811 0.55763 0.0
C1333 C 0.06556 0.27827 0.53703 0.0
C1334 C 0.0379 0.29012 0.57965 0.0
C1335 C 0.02918 0.30958 0.60295 0.0
C1336 C 0.051 0.32142 0.61977 0.0
C1337 C 0.0426 0.34005 0.64144 0.0
C1338 C 0.01245 0.34676 0.64668 0.0
C1339 C 0.99062 0.33478 0.63031 0.0
C1340 C 0.9989 0.31619 0.60857 0.0
C1341 C 0.05118 0.16454 0.57235 0.0
C1342 C 0.02371 0.15452 0.56386 0.0
C1343 C 0.05547 0.19337 0.57246 0.0
C1344 C 0.03225 0.21267 0.56455 0.0
C1345 C 0.00414 0.20307 0.55814 0.0
C1346 C 0.99992 0.17413 0.5576 0.0
C1347 C 0.03848 0.24247 0.56047 0.0
C1348 C 0.02867 0.26241 0.58055 0.0
C1349 C 0.05665 0.25053 0.53817 0.0
C1350 C 0.06696 0.23017 0.51614 0.0
C1351 C 0.04626 0.21626 0.49973 0.0
C1352 C 0.05609 0.19674 0.4793 0.0
C1353 C 0.08659 0.19108 0.47498 0.0
C1354 C 0.10732 0.20499 0.49103 0.0
C1355 C 0.0976 0.22451 0.51149 0.0
H1356 H 0.09415 0.17596 0.45916 0.0
H1357 H 0.00599 0.36119 0.66347 0.0
H1358 H 0.61773 0.24562 0.32584 0.0
H1359 H 0.5966 0.28885 0.34809 0.0
H1360 H 0.61993 0.25485 0.42921 0.0
H1361 H 0.63979 0.21131 0.4073 0.0
H1362 H 0.56812 0.28102 0.43346 0.0
H1363 H 0.66091 0.30685 0.39412 0.0
H1364 H 0.69778 0.31236 0.35673 0.0
H1365 H 0.63471 0.3664 0.31157 0.0
H1366 H 0.59732 0.36092 0.34855 0.0
H1367 H 0.55377 0.40963 0.51233 0.0
H1368 H 0.57241 0.36606 0.48899 0.0
H1369 H 0.54673 0.40157 0.40904 0.0
H1370 H 0.52861 0.44527 0.43218 0.0
H1371 H 0.59891 0.37485 0.40353 0.0
H1372 H 0.50641 0.34961 0.44355 0.0
H1373 H 0.46987 0.34427 0.48125 0.0
H1374 H 0.53274 0.28916 0.52543 0.0
H1375 H 0.56981 0.29446 0.48815 0.0
C1376 C 0.61812 0.24713 0.34843 0.0
C1377 C 0.63097 0.22472 0.36455 0.0
C1378 C 0.60627 0.27218 0.36122 0.0
C1379 C 0.607 0.27573 0.39054 0.0
C1380 C 0.6191 0.25309 0.40663 0.0
C1381 C 0.63084 0.2281 0.39392 0.0
C1382 C 0.59532 0.3028 0.40459 0.0
C1383 C 0.57522 0.30146 0.42704 0.0
C1384 C 0.60379 0.32986 0.39616 0.0
C1385 C 0.62623 0.33323 0.37395 0.0
C1386 C 0.65484 0.31974 0.37612 0.0
C1387 C 0.67584 0.32288 0.35502 0.0
C1388 C 0.66856 0.33965 0.33175 0.0
C1389 C 0.6403 0.35338 0.32958 0.0
C1390 C 0.6192 0.35028 0.35061 0.0
C1391 C 0.55199 0.40819 0.48978 0.0
C1392 C 0.53948 0.43118 0.4743 0.0
C1393 C 0.56259 0.38307 0.47637 0.0
C1394 C 0.56079 0.38 0.44705 0.0
C1395 C 0.54851 0.40306 0.43159 0.0
C1396 C 0.53799 0.42816 0.44496 0.0
C1397 C 0.57181 0.35304 0.43245 0.0
C1398 C 0.59178 0.3544 0.40991 0.0
C1399 C 0.56326 0.32599 0.44082 0.0
C1400 C 0.54097 0.32265 0.46318 0.0
C1401 C 0.51251 0.33651 0.4614 0.0
C1402 C 0.49169 0.33346 0.48268 0.0
C1403 C 0.499 0.31644 0.50576 0.0
C1404 C 0.52712 0.30236 0.50756 0.0
C1405 C 0.54803 0.30536 0.48635 0.0
H1406 H 0.48286 0.31412 0.52221 0.0
H1407 H 0.68485 0.34206 0.31544 0.0
loop_
_geom_bond_atom_site_label_1
_geom_bond_atom_site_label_2
_geom_bond_distance
_geom_bond_site_symmetry_2
_ccdc_geom_bond_type
H0 C3 0.931 . S
H1 C6 0.928 . S
H2 C8 0.930 . S
C3 H0 0.931 . S
C3 C4 1.413 . S
C3 C5 1.360 . S
C4 C3 1.413 . S
C4 C8 1.429 . S
C5 C3 1.360 . S
C5 C6 1.372 . S
C6 H1 0.928 . S
C6 C5 1.372 . S
C6 C7 1.404 . S
C7 C6 1.404 . S
C7 C8 1.391 . S
C8 H2 0.930 . S
C8 C4 1.429 . S
C8 C7 1.391 . S
H9 C12 0.931 . S
H10 C15 0.928 . S
H11 C17 0.930 . S
C12 H9 0.931 . S
C12 C13 1.413 . S
C12 C14 1.360 . S
C13 C12 1.413 . S
C13 C17 1.429 . S
C14 C12 1.360 . S
C14 C15 1.372 . S
C15 H10 0.928 . S
C15 C14 1.372 . S
C15 C16 1.404 . S
C16 C15 1.404 . S
C16 C17 1.391 . S
C17 H11 0.930 . S
C17 C13 1.429 . S
C17 C16 1.391 . S
H18 C21 0.931 . S
H19 C24 0.928 . S
H20 C26 0.930 . S
C21 H18 0.931 . S
C21 C22 1.413 . S
C21 C23 1.360 . S
C22 C21 1.413 . S
C22 C26 1.429 . S
C23 C21 1.360 . S
C23 C24 1.372 . S
C24 H19 0.928 . S
C24 C23 1.372 . S
C24 C25 1.404 . S
C25 C24 1.404 . S
C25 C26 1.391 . S
C26 H20 0.930 . S
C26 C22 1.429 . S
C26 C25 1.391 . S
H27 C30 0.931 . S
H28 C33 0.928 . S
H29 C35 0.930 . S
C30 H27 0.931 . S
C30 C31 1.413 . S
C30 C32 1.360 . S
C31 C30 1.413 . S
C31 C35 1.429 . S
C32 C30 1.360 . S
C32 C33 1.372 . S
C33 H28 0.928 . S
C33 C32 1.372 . S
C33 C34 1.404 . S
C34 C33 1.404 . S
C34 C35 1.391 . S
C35 H29 0.930 . S
C35 C31 1.429 . S
C35 C34 1.391 . S
H36 C39 0.931 . S
H37 C42 0.928 . S
H38 C44 0.930 . S
C39 H36 0.931 . S
C39 C40 1.413 . S
C39 C41 1.360 . S
C40 C39 1.413 . S
C40 C44 1.429 . S
C41 C39 1.360 . S
C41 C42 1.372 . S
C42 H37 0.928 . S
C42 C41 1.372 . S
C42 C43 1.404 . S
C43 C42 1.404 . S
C43 C44 1.391 . S
C44 H38 0.930 . S
C44 C40 1.429 . S
C44 C43 1.391 . S
H45 C48 0.931 . S
H46 C51 0.928 . S
H47 C53 0.930 . S
C48 H45 0.931 . S
C48 C49 1.413 . S
C48 C50 1.360 . S
C49 C48 1.413 . S
C49 C53 1.429 . S
C50 C48 1.360 . S
C50 C51 1.372 . S
C51 H46 0.928 . S
C51 C50 1.372 . S
C51 C52 1.404 . S
C52 C51 1.404 . S
C52 C53 1.391 . S
C53 H47 0.930 . S
C53 C49 1.429 . S
C53 C52 1.391 . S
H54 C57 0.931 . S
H55 C60 0.928 . S
H56 C62 0.930 . S
C57 H54 0.931 . S
C57 C58 1.413 . S
C57 C59 1.360 . S
C58 C57 1.413 . S
C58 C62 1.429 . S
C59 C57 1.360 . S
C59 C60 1.372 . S
C60 H55 0.928 . S
C60 C59 1.372 . S
C60 C61 1.404 . S
C61 C60 1.404 . S
C61 C62 1.391 . S
C62 H56 0.930 . S
C62 C58 1.429 . S
C62 C61 1.391 . S
H63 C66 0.931 . S
H64 C69 0.928 . S
H65 C71 0.930 . S
C66 H63 0.931 . S
C66 C67 1.413 . S
C66 C68 1.360 . S
C67 C66 1.413 . S
C67 C71 1.429 . S
C68 C66 1.360 . S
C68 C69 1.372 . S
C69 H64 0.928 . S
C69 C68 1.372 . S
C69 C70 1.404 . S
C70 C69 1.404 . S
C70 C71 1.391 . S
C71 H65 0.930 . S
C71 C67 1.429 . S
C71 C70 1.391 . S
C72 O88 1.251 . S
C72 O90 1.254 1_545 S
N73 C74 1.333 . S
N73 C78 1.307 . S
N73 Zn79 2.020 . S
C74 N73 1.333 . S
C74 C75 1.379 . S
C74 H92 0.952 . S
C75 C74 1.379 . S
C75 C76 1.390 . S
C75 H102 0.949 . S
C76 C75 1.390 . S
C76 C77 1.357 . S
C77 C76 1.357 . S
C77 C78 1.370 . S
C77 H103 0.950 . S
C78 N73 1.307 . S
C78 C77 1.370 . S
C78 H96 0.948 1_455 S
Zn79 N73 2.020 . S
Zn79 O88 2.039 . S
Zn79 O94 2.034 . S
Zn79 O98 2.025 1_455 S
Zn79 O100 2.024 1_455 S
C80 O99 1.246 1_545 S
C80 O100 1.249 . S
N81 C82 1.307 . S
N81 C83 1.333 . S
N81 Zn87 2.020 . S
C82 N81 1.307 . S
C82 C86 1.370 . S
C82 H93 0.948 1_655 S
C83 N81 1.333 . S
C83 C84 1.379 . S
C83 H91 0.952 . S
C84 C83 1.379 . S
C84 C85 1.390 . S
C84 H104 0.949 . S
C85 C84 1.390 . S
C85 C86 1.357 . S
C86 C82 1.370 . S
C86 C85 1.357 . S
C86 H105 0.939 1_655 S
Zn87 N81 2.020 . S
Zn87 O90 2.025 1_655 S
Zn87 O95 2.024 1_655 S
Zn87 O97 2.039 . S
Zn87 O99 2.034 . S
O88 C72 1.251 . S
O88 Zn79 2.039 . S
C89 O94 1.246 1_565 S
C89 O95 1.249 . S
O90 C72 1.254 1_565 S
O90 Zn87 2.025 1_455 S
H91 C83 0.952 . S
H92 C74 0.952 . S
H93 C82 0.948 1_455 S
O94 Zn79 2.034 . S
O94 C89 1.246 1_545 S
O95 Zn87 2.024 1_455 S
O95 C89 1.249 . S
H96 C78 0.948 1_655 S
O97 Zn87 2.039 . S
O97 C101 1.251 . S
O98 Zn79 2.025 1_655 S
O98 C101 1.254 1_545 S
O99 C80 1.246 1_565 S
O99 Zn87 2.034 . S
O100 Zn79 2.024 1_655 S
O100 C80 1.249 . S
C101 O97 1.251 . S
C101 O98 1.254 1_565 S
H102 C75 0.949 . S
H103 C77 0.950 . S
H104 C84 0.949 . S
H105 C86 0.939 1_455 S
C106 O122 1.251 1_565 S
C106 O124 1.264 . S
N107 C108 1.333 . S
N107 C112 1.307 . S
N107 Zn113 2.020 . S
C108 N107 1.333 . S
C108 C109 1.379 . S
C108 H126 0.952 . S
C109 C108 1.379 . S
C109 C110 1.390 . S
C109 H136 0.949 . S
C110 C109 1.390 . S
C110 C111 1.357 . S
C111 C110 1.357 . S
C111 C112 1.370 . S
C111 H137 0.950 . S
C112 N107 1.307 . S
C112 C111 1.370 . S
C112 H130 0.948 . S
Zn113 N107 2.020 . S
Zn113 O122 2.039 . S
Zn113 O128 2.034 1_556 S
Zn113 O132 2.025 1_556 S
Zn113 O134 2.024 . S
C114 O133 1.246 . S
C114 O134 1.249 1_565 S
N115 C116 1.307 . S
N115 C117 1.333 . S
N115 Zn121 2.020 . S
C116 N115 1.307 . S
C116 C120 1.370 . S
C116 H127 0.948 . S
C117 N115 1.333 . S
C117 C118 1.379 . S
C117 H125 0.952 . S
C118 C117 1.379 . S
C118 C119 1.390 . S
C118 H138 0.949 . S
C119 C118 1.390 . S
C119 C120 1.357 . S
C120 C116 1.370 . S
C120 C119 1.357 . S
C120 H139 0.950 . S
Zn121 N115 2.020 . S
Zn121 O124 2.018 1_554 S
Zn121 O129 2.024 . S
Zn121 O131 2.039 . S
Zn121 O133 2.034 1_554 S
O122 C106 1.251 1_545 S
O122 Zn113 2.039 . S
C123 O128 1.246 . S
C123 O129 1.249 1_545 S
O124 C106 1.264 . S
O124 Zn121 2.018 1_556 S
H125 C117 0.952 . S
H126 C108 0.952 . S
H127 C116 0.948 . S
O128 Zn113 2.034 1_554 S
O128 C123 1.246 . S
O129 Zn121 2.024 . S
O129 C123 1.249 1_565 S
H130 C112 0.948 . S
O131 Zn121 2.039 . S
O131 C135 1.251 1_565 S
O132 Zn113 2.025 1_554 S
O132 C135 1.254 . S
O133 C114 1.246 . S
O133 Zn121 2.034 1_556 S
O134 Zn113 2.024 . S
O134 C114 1.249 1_545 S
C135 O131 1.251 1_545 S
C135 O132 1.254 . S
H136 C109 0.949 . S
H137 C111 0.950 . S
H138 C118 0.949 . S
H139 C120 0.950 . S
C140 O156 1.251 . S
C140 O158 1.254 . S
N141 C142 1.333 . S
N141 C146 1.307 . S
N141 Zn147 2.020 . S
C142 N141 1.333 . S
C142 C143 1.379 . S
C142 H160 0.952 . S
C143 C142 1.379 . S
C143 C144 1.390 . S
C143 H170 0.949 . S
C144 C143 1.390 . S
C144 C145 1.357 . S
C145 C144 1.357 . S
C145 C146 1.370 . S
C145 H171 0.950 . S
C146 N141 1.307 . S
C146 C145 1.370 . S
C146 H164 0.948 . S
Zn147 N141 2.020 . S
Zn147 O156 2.039 . S
Zn147 O162 2.034 . S
Zn147 O166 2.025 . S
Zn147 O168 2.024 . S
C148 O167 1.246 . S
C148 O168 1.249 . S
N149 C150 1.307 . S
N149 C151 1.333 . S
N149 Zn155 2.020 . S
C150 N149 1.307 . S
C150 C154 1.370 . S
C150 H161 0.948 . S
C151 N149 1.333 . S
C151 C152 1.379 . S
C151 H159 0.952 . S
C152 C151 1.379 . S
C152 C153 1.390 . S
C152 H172 0.949 . S
C153 C152 1.390 . S
C153 C154 1.357 . S
C154 C150 1.370 . S
C154 C153 1.357 . S
C154 H173 0.950 . S
Zn155 N149 2.020 . S
Zn155 O158 2.025 . S
Zn155 O163 2.024 . S
Zn155 O165 2.039 . S
Zn155 O167 2.034 . S
O156 C140 1.251 . S
O156 Zn147 2.039 . S
C157 O162 1.246 . S
C157 O163 1.249 . S
O158 C140 1.254 . S
O158 Zn155 2.025 . S
H159 C151 0.952 . S
H160 C142 0.952 . S
H161 C150 0.948 . S
O162 Zn147 2.034 . S
O162 C157 1.246 . S
O163 Zn155 2.024 . S
O163 C157 1.249 . S
H164 C146 0.948 . S
O165 Zn155 2.039 . S
O165 C169 1.251 . S
O166 Zn147 2.025 . S
O166 C169 1.254 . S
O167 C148 1.246 . S
O167 Zn155 2.034 . S
O168 Zn147 2.024 . S
O168 C148 1.249 . S
C169 O165 1.251 . S
C169 O166 1.254 . S
H170 C143 0.949 . S
H171 C145 0.950 . S
H172 C152 0.949 . S
H173 C154 0.950 . S
C174 O190 1.251 1_556 S
C174 O192 1.254 . S
N175 C176 1.333 . S
N175 C180 1.307 . S
N175 Zn181 2.020 . S
C176 N175 1.333 . S
C176 C177 1.379 . S
C176 H194 0.952 . S
C177 C176 1.379 . S
C177 C178 1.390 . S
C177 H204 0.949 . S
C178 C177 1.390 . S
C178 C179 1.357 . S
C179 C178 1.357 . S
C179 C180 1.370 . S
C179 H205 0.950 . S
C180 N175 1.307 . S
C180 C179 1.370 . S
C180 H198 0.948 . S
Zn181 N175 2.020 . S
Zn181 O190 2.039 . S
Zn181 O196 2.034 1_655 S
Zn181 O200 2.025 1_655 S
Zn181 O202 2.024 . S
C182 O201 1.246 . S
C182 O202 1.249 1_556 S
N183 C184 1.307 . S
N183 C185 1.333 . S
N183 Zn189 2.020 . S
C184 N183 1.307 . S
C184 C188 1.370 . S
C184 H195 0.948 . S
C185 N183 1.333 . S
C185 C186 1.379 . S
C185 H193 0.952 . S
C186 C185 1.379 . S
C186 C187 1.390 . S
C186 H206 0.949 . S
C187 C186 1.390 . S
C187 C188 1.357 . S
C188 C184 1.370 . S
C188 C187 1.357 . S
C188 H207 0.950 . S
Zn189 N183 2.020 . S
Zn189 O192 2.025 1_455 S
Zn189 O197 2.024 . S
Zn189 O199 2.039 . S
Zn189 O201 2.034 1_455 S
O190 C174 1.251 1_554 S
O190 Zn181 2.039 . S
C191 O196 1.246 . S
C191 O197 1.249 1_554 S
O192 C174 1.254 . S
O192 Zn189 2.025 1_655 S
H193 C185 0.952 . S
H194 C176 0.952 . S
H195 C184 0.948 . S
O196 Zn181 2.034 1_455 S
O196 C191 1.246 . S
O197 Zn189 2.024 . S
O197 C191 1.249 1_556 S
H198 C180 0.948 . S
O199 Zn189 2.039 . S
O199 C203 1.251 1_556 S
O200 Zn181 2.025 1_455 S
O200 C203 1.254 . S
O201 C182 1.246 . S
O201 Zn189 2.034 1_655 S
O202 Zn181 2.024 . S
O202 C182 1.249 1_554 S
C203 O199 1.251 1_554 S
C203 O200 1.254 . S
H204 C177 0.949 . S
H205 C179 0.950 . S
H206 C186 0.949 . S
H207 C188 0.950 . S
H208 C226 0.951 . S
H209 C228 0.951 . S
H210 C230 0.950 . S
H211 C231 0.950 . S
H212 C233 0.950 . S
H213 C236 0.950 . S
H214 C237 0.950 . S
H215 C239 0.950 . S
H216 C240 0.950 . S
H217 C241 0.951 1_655 S
H218 C243 0.951 . S
H219 C245 0.950 . S
H220 C246 0.950 . S
H221 C248 0.950 . S
H222 C251 0.950 . S
H223 C252 0.950 . S
H224 C254 0.950 . S
H225 C255 0.950 . S
C226 H208 0.951 . S
C226 C227 1.366 . S
C226 C228 1.388 . S
C227 C226 1.366 . S
C227 C231 1.385 . S
C228 H209 0.951 . S
C228 C226 1.388 . S
C228 C229 1.366 . S
C229 C228 1.366 . S
C229 C230 1.414 . S
C229 C232 1.499 . S
C230 H210 0.950 . S
C230 C229 1.414 . S
C230 C231 1.374 . S
C231 H211 0.950 . S
C231 C227 1.385 . S
C231 C230 1.374 . S
C232 C229 1.499 . S
C232 C233 1.373 . S
C232 C234 1.389 . S
C233 H212 0.950 . S
C233 C232 1.373 . S
C233 C249 1.377 . S
C234 C232 1.389 . S
C234 C235 1.524 . S
C234 C248 1.377 . S
C235 C234 1.524 . S
C235 C236 1.397 . S
C235 C240 1.363 . S
C236 H213 0.950 . S
C236 C235 1.397 . S
C236 C237 1.334 . S
C237 H214 0.950 . S
C237 C236 1.334 . S
C237 C238 1.287 . S
C238 C237 1.287 . S
C238 C239 1.524 . S
C238 H257 0.913 . S
C239 H215 0.950 . S
C239 C238 1.524 . S
C239 C240 1.415 . S
C240 H216 0.950 . S
C240 C235 1.363 . S
C240 C239 1.415 . S
C241 H217 0.951 1_455 S
C241 C242 1.366 . S
C241 C243 1.388 . S
C242 C241 1.366 . S
C242 C246 1.385 . S
C243 H218 0.951 . S
C243 C241 1.388 . S
C243 C244 1.366 . S
C244 C243 1.366 . S
C244 C245 1.414 . S
C244 C247 1.499 . S
C245 H219 0.950 . S
C245 C244 1.414 . S
C245 C246 1.374 . S
C246 H220 0.950 . S
C246 C242 1.385 . S
C246 C245 1.374 . S
C247 C244 1.499 . S
C247 C248 1.373 . S
C247 C249 1.389 . S
C248 H221 0.950 . S
C248 C234 1.377 . S
C248 C247 1.373 . S
C249 C233 1.377 . S
C249 C247 1.389 . S
C249 C250 1.524 . S
C250 C249 1.524 . S
C250 C251 1.397 . S
C250 C255 1.363 1_455 S
C251 H222 0.950 . S
C251 C250 1.397 . S
C251 C252 1.334 1_455 S
C252 H223 0.950 . S
C252 C251 1.334 1_655 S
C252 C253 1.287 . S
C253 C252 1.287 . S
C253 C254 1.524 . S
C253 H256 0.999 . S
C254 H224 0.950 . S
C254 C253 1.524 . S
C254 C255 1.415 . S
C255 H225 0.950 . S
C255 C250 1.363 1_655 S
C255 C254 1.415 . S
H256 C253 0.999 . S
H257 C238 0.913 . S
H258 C276 0.951 . S
H259 C278 0.951 . S
H260 C280 0.950 . S
H261 C281 0.950 . S
H262 C283 0.950 . S
H263 C286 0.950 . S
H264 C287 0.950 . S
H265 C289 0.950 . S
H266 C290 0.950 . S
H267 C291 0.951 . S
H268 C293 0.951 . S
H269 C295 0.950 . S
H270 C296 0.950 . S
H271 C298 0.950 . S
H272 C301 0.950 . S
H273 C302 0.950 . S
H274 C304 0.950 . S
H275 C305 0.950 1_565 S
C276 H258 0.951 . S
C276 C277 1.366 . S
C276 C278 1.388 . S
C277 C276 1.366 . S
C277 C281 1.385 . S
C278 H259 0.951 . S
C278 C276 1.388 . S
C278 C279 1.366 . S
C279 C278 1.366 . S
C279 C280 1.414 . S
C279 C282 1.499 . S
C280 H260 0.950 . S
C280 C279 1.414 . S
C280 C281 1.374 . S
C281 H261 0.950 . S
C281 C277 1.385 . S
C281 C280 1.374 . S
C282 C279 1.499 . S
C282 C283 1.373 . S
C282 C284 1.389 . S
C283 H262 0.950 . S
C283 C282 1.373 . S
C283 C299 1.377 . S
C284 C282 1.389 . S
C284 C285 1.524 . S
C284 C298 1.377 . S
C285 C284 1.524 . S
C285 C286 1.397 . S
C285 C290 1.363 . S
C286 H263 0.950 . S
C286 C285 1.397 . S
C286 C287 1.334 . S
C287 H264 0.950 . S
C287 C286 1.334 . S
C287 C288 1.287 . S
C288 C287 1.287 . S
C288 C289 1.524 . S
C288 H307 0.913 . S
C289 H265 0.950 . S
C289 C288 1.524 . S
C289 C290 1.415 . S
C290 H266 0.950 . S
C290 C285 1.363 . S
C290 C289 1.415 . S
C291 H267 0.951 . S
C291 C292 1.366 . S
C291 C293 1.388 . S
C292 C291 1.366 . S
C292 C296 1.385 . S
C293 H268 0.951 . S
C293 C291 1.388 . S
C293 C294 1.366 . S
C294 C293 1.366 . S
C294 C295 1.414 . S
C294 C297 1.499 . S
C295 H269 0.950 . S
C295 C294 1.414 . S
C295 C296 1.374 . S
C296 H270 0.950 . S
C296 C292 1.385 . S
C296 C295 1.374 . S
C297 C294 1.499 . S
C297 C298 1.373 . S
C297 C299 1.389 . S
C298 H271 0.950 . S
C298 C284 1.377 . S
C298 C297 1.373 . S
C299 C283 1.377 . S
C299 C297 1.389 . S
C299 C300 1.524 . S
C300 C299 1.524 . S
C300 C301 1.397 1_565 S
C300 C305 1.363 1_565 S
C301 H272 0.950 . S
C301 C300 1.397 1_545 S
C301 C302 1.334 . S
C302 H273 0.950 . S
C302 C301 1.334 . S
C302 C303 1.287 . S
C303 C302 1.287 . S
C303 C304 1.524 . S
C303 H306 0.999 . S
C304 H274 0.950 . S
C304 C303 1.524 . S
C304 C305 1.415 . S
C305 H275 0.950 1_545 S
C305 C300 1.363 1_545 S
C305 C304 1.415 . S
H306 C303 0.999 . S
H307 C288 0.913 . S
H308 C326 0.951 . S
H309 C328 0.951 . S
H310 C330 0.950 . S
H311 C331 0.950 . S
H312 C333 0.950 . S
H313 C336 0.950 . S
H314 C337 0.950 . S
H315 C339 0.950 . S
H316 C340 0.950 . S
H317 C341 0.951 . S
H318 C343 0.951 . S
H319 C345 0.950 . S
H320 C346 0.950 . S
H321 C348 0.950 . S
H322 C351 0.950 . S
H323 C352 0.950 . S
H324 C354 0.950 . S
H325 C355 0.950 . S
C326 H308 0.951 . S
C326 C327 1.366 . S
C326 C328 1.388 . S
C327 C326 1.366 . S
C327 C331 1.385 . S
C328 H309 0.951 . S
C328 C326 1.388 . S
C328 C329 1.366 . S
C329 C328 1.366 . S
C329 C330 1.414 . S
C329 C332 1.499 . S
C330 H310 0.950 . S
C330 C329 1.414 . S
C330 C331 1.374 . S
C331 H311 0.950 . S
C331 C327 1.385 . S
C331 C330 1.374 . S
C332 C329 1.499 . S
C332 C333 1.373 . S
C332 C334 1.389 . S
C333 H312 0.950 . S
C333 C332 1.373 . S
C333 C349 1.377 . S
C334 C332 1.389 . S
C334 C335 1.524 . S
C334 C348 1.377 . S
C335 C334 1.524 . S
C335 C336 1.397 . S
C335 C340 1.363 . S
C336 H313 0.950 . S
C336 C335 1.397 . S
C336 C337 1.334 . S
C337 H314 0.950 . S
C337 C336 1.334 . S
C337 C338 1.287 . S
C338 C337 1.287 . S
C338 C339 1.524 . S
C338 H357 0.913 . S
C339 H315 0.950 . S
C339 C338 1.524 . S
C339 C340 1.415 . S
C340 H316 0.950 . S
C340 C335 1.363 . S
C340 C339 1.415 . S
C341 H317 0.951 . S
C341 C342 1.366 . S
C341 C343 1.388 . S
C342 C341 1.366 . S
C342 C346 1.385 . S
C343 H318 0.951 . S
C343 C341 1.388 . S
C343 C344 1.366 . S
C344 C343 1.366 . S
C344 C345 1.414 . S
C344 C347 1.499 . S
C345 H319 0.950 . S
C345 C344 1.414 . S
C345 C346 1.374 . S
C346 H320 0.950 . S
C346 C342 1.385 . S
C346 C345 1.374 . S
C347 C344 1.499 . S
C347 C348 1.373 . S
C347 C349 1.389 . S
C348 H321 0.950 . S
C348 C334 1.377 . S
C348 C347 1.373 . S
C349 C333 1.377 . S
C349 C347 1.389 . S
C349 C350 1.524 . S
C350 C349 1.524 . S
C350 C351 1.397 . S
C350 C355 1.363 . S
C351 H322 0.950 . S
C351 C350 1.397 . S
C351 C352 1.334 . S
C352 H323 0.950 . S
C352 C351 1.334 . S
C352 C353 1.287 . S
C353 C352 1.287 . S
C353 C354 1.524 . S
C353 H356 0.999 . S
C354 H324 0.950 . S
C354 C353 1.524 . S
C354 C355 1.415 . S
C355 H325 0.950 . S
C355 C350 1.363 . S
C355 C354 1.415 . S
H356 C353 0.999 . S
H357 C338 0.913 . S
H358 C376 0.951 . S
H359 C378 0.951 . S
H360 C380 0.950 . S
H361 C381 0.950 . S
H362 C383 0.950 . S
H363 C386 0.950 . S
H364 C387 0.950 . S
H365 C389 0.950 . S
H366 C390 0.950 . S
H367 C391 0.951 . S
H368 C393 0.951 . S
H369 C395 0.950 . S
H370 C396 0.950 . S
H371 C398 0.950 . S
H372 C401 0.950 . S
H373 C402 0.950 . S
H374 C404 0.950 . S
H375 C405 0.950 . S
C376 H358 0.951 . S
C376 C377 1.366 . S
C376 C378 1.388 . S
C377 C376 1.366 . S
C377 C381 1.385 . S
C378 H359 0.951 . S
C378 C376 1.388 . S
C378 C379 1.366 . S
C379 C378 1.366 . S
C379 C380 1.414 . S
C379 C382 1.499 . S
C380 H360 0.950 . S
C380 C379 1.414 . S
C380 C381 1.374 . S
C381 H361 0.950 . S
C381 C377 1.385 . S
C381 C380 1.374 . S
C382 C379 1.499 . S
C382 C383 1.373 . S
C382 C384 1.389 . S
C383 H362 0.950 . S
C383 C382 1.373 . S
C383 C399 1.377 . S
C384 C382 1.389 . S
C384 C385 1.524 . S
C384 C398 1.377 . S
C385 C384 1.524 . S
C385 C386 1.397 . S
C385 C390 1.363 . S
C386 H363 0.950 . S
C386 C385 1.397 . S
C386 C387 1.334 . S
C387 H364 0.950 . S
C387 C386 1.334 . S
C387 C388 1.287 1_655 S
C388 C387 1.287 1_455 S
C388 C389 1.524 . S
C388 H407 0.913 . S
C389 H365 0.950 . S
C389 C388 1.524 . S
C389 C390 1.415 1_455 S
C390 H366 0.950 . S
C390 C385 1.363 . S
C390 C389 1.415 1_655 S
C391 H367 0.951 . S
C391 C392 1.366 . S
C391 C393 1.388 . S
C392 C391 1.366 . S
C392 C396 1.385 . S
C393 H368 0.951 . S
C393 C391 1.388 . S
C393 C394 1.366 . S
C394 C393 1.366 . S
C394 C395 1.414 . S
C394 C397 1.499 . S
C395 H369 0.950 . S
C395 C394 1.414 . S
C395 C396 1.374 . S
C396 H370 0.950 . S
C396 C392 1.385 . S
C396 C395 1.374 . S
C397 C394 1.499 . S
C397 C398 1.373 . S
C397 C399 1.389 . S
C398 H371 0.950 . S
C398 C384 1.377 . S
C398 C397 1.373 . S
C399 C383 1.377 . S
C399 C397 1.389 . S
C399 C400 1.524 . S
C400 C399 1.524 . S
C400 C401 1.397 . S
C400 C405 1.363 . S
C401 H372 0.950 . S
C401 C400 1.397 . S
C401 C402 1.334 . S
C402 H373 0.950 . S
C402 C401 1.334 . S
C402 C403 1.287 . S
C403 C402 1.287 . S
C403 C404 1.524 . S
C403 H406 0.999 . S
C404 H374 0.950 . S
C404 C403 1.524 . S
C404 C405 1.415 . S
C405 H375 0.950 . S
C405 C400 1.363 . S
C405 C404 1.415 . S
H406 C403 0.999 . S
H407 C388 0.913 . S
H408 C426 0.951 . S
H409 C428 0.951 . S
H410 C430 0.950 . S
H411 C431 0.950 . S
H412 C433 0.950 . S
H413 C436 0.950 . S
H414 C437 0.950 1_565 S
H415 C439 0.921 1_556 S
H416 C440 0.950 . S
H417 C441 0.951 . S
H418 C443 0.951 . S
H419 C445 0.950 . S
H420 C446 0.950 1_556 S
H421 C448 0.950 . S
H422 C451 0.950 . S
H423 C452 0.950 . S
H424 C454 0.950 . S
H425 C455 0.950 . S
C426 H408 0.951 . S
C426 C427 1.366 . S
C426 C428 1.388 . S
C427 C426 1.366 . S
C427 C431 1.385 . S
C428 H409 0.951 . S
C428 C426 1.388 . S
C428 C429 1.366 . S
C429 C428 1.366 . S
C429 C430 1.414 . S
C429 C432 1.499 . S
C430 H410 0.950 . S
C430 C429 1.414 . S
C430 C431 1.374 . S
C431 H411 0.950 . S
C431 C427 1.385 . S
C431 C430 1.374 . S
C432 C429 1.499 . S
C432 C433 1.373 . S
C432 C434 1.389 . S
C433 H412 0.950 . S
C433 C432 1.373 . S
C433 C449 1.377 . S
C434 C432 1.389 . S
C434 C435 1.524 . S
C434 C448 1.377 . S
C435 C434 1.524 . S
C435 C436 1.397 . S
C435 C440 1.363 . S
C436 H413 0.950 . S
C436 C435 1.397 . S
C436 C437 1.334 . S
C437 H414 0.950 1_545 S
C437 C436 1.334 . S
C437 C438 1.287 1_545 S
C438 C437 1.287 1_565 S
C438 C439 1.524 1_565 S
C438 H457 0.913 . S
C439 H415 0.921 1_554 S
C439 C438 1.524 1_545 S
C439 C440 1.415 . S
C440 H416 0.950 . S
C440 C435 1.363 . S
C440 C439 1.415 . S
C441 H417 0.951 . S
C441 C442 1.366 . S
C441 C443 1.388 . S
C442 C441 1.366 . S
C442 C446 1.385 . S
C443 H418 0.951 . S
C443 C441 1.388 . S
C443 C444 1.366 . S
C444 C443 1.366 . S
C444 C445 1.414 . S
C444 C447 1.499 . S
C445 H419 0.950 . S
C445 C444 1.414 . S
C445 C446 1.374 . S
C446 H420 0.950 1_554 S
C446 C442 1.385 . S
C446 C445 1.374 . S
C447 C444 1.499 . S
C447 C448 1.373 . S
C447 C449 1.389 . S
C448 H421 0.950 . S
C448 C434 1.377 . S
C448 C447 1.373 . S
C449 C433 1.377 . S
C449 C447 1.389 . S
C449 C450 1.524 . S
C450 C449 1.524 . S
C450 C451 1.397 . S
C450 C455 1.363 . S
C451 H422 0.950 . S
C451 C450 1.397 . S
C451 C452 1.334 . S
C452 H423 0.950 . S
C452 C451 1.334 . S
C452 C453 1.287 . S
C453 C452 1.287 . S
C453 C454 1.524 . S
C453 H456 0.999 . S
C454 H424 0.950 . S
C454 C453 1.524 . S
C454 C455 1.415 . S
C455 H425 0.950 . S
C455 C450 1.363 . S
C455 C454 1.415 . S
H456 C453 0.999 . S
H457 C438 0.913 . S
H458 C476 0.951 . S
H459 C478 0.951 . S
H460 C480 0.950 . S
H461 C481 0.950 . S
H462 C483 0.950 . S
H463 C486 0.950 . S
H464 C487 0.950 . S
H465 C489 0.950 . S
H466 C490 0.950 . S
H467 C491 0.951 . S
H468 C493 0.951 . S
H469 C495 0.950 . S
H470 C496 0.950 . S
H471 C498 0.950 . S
H472 C501 0.950 . S
H473 C502 0.950 . S
H474 C504 0.950 . S
H475 C505 0.950 . S
C476 H458 0.951 . S
C476 C477 1.366 . S
C476 C478 1.388 . S
C477 C476 1.366 . S
C477 C481 1.385 . S
C478 H459 0.951 . S
C478 C476 1.388 . S
C478 C479 1.366 . S
C479 C478 1.366 . S
C479 C480 1.414 . S
C479 C482 1.499 . S
C480 H460 0.950 . S
C480 C479 1.414 . S
C480 C481 1.374 . S
C481 H461 0.950 . S
C481 C477 1.385 . S
C481 C480 1.374 . S
C482 C479 1.499 . S
C482 C483 1.373 . S
C482 C484 1.389 . S
C483 H462 0.950 . S
C483 C482 1.373 . S
C483 C499 1.377 . S
C484 C482 1.389 . S
C484 C485 1.524 . S
C484 C498 1.377 . S
C485 C484 1.524 . S
C485 C486 1.397 . S
C485 C490 1.363 . S
C486 H463 0.950 . S
C486 C485 1.397 . S
C486 C487 1.334 . S
C487 H464 0.950 . S
C487 C486 1.334 . S
C487 C488 1.287 . S
C488 C487 1.287 . S
C488 C489 1.524 . S
C488 H507 0.913 . S
C489 H465 0.950 . S
C489 C488 1.524 . S
C489 C490 1.415 . S
C490 H466 0.950 . S
C490 C485 1.363 . S
C490 C489 1.415 . S
C491 H467 0.951 . S
C491 C492 1.366 . S
C491 C493 1.388 . S
C492 C491 1.366 . S
C492 C496 1.385 . S
C493 H468 0.951 . S
C493 C491 1.388 . S
C493 C494 1.366 . S
C494 C493 1.366 . S
C494 C495 1.414 . S
C494 C497 1.499 . S
C495 H469 0.950 . S
C495 C494 1.414 . S
C495 C496 1.374 . S
C496 H470 0.950 . S
C496 C492 1.385 . S
C496 C495 1.374 . S
C497 C494 1.499 . S
C497 C498 1.373 . S
C497 C499 1.389 . S
C498 H471 0.950 . S
C498 C484 1.377 . S
C498 C497 1.373 . S
C499 C483 1.377 . S
C499 C497 1.389 . S
C499 C500 1.524 . S
C500 C499 1.524 . S
C500 C501 1.397 1_565 S
C500 C505 1.363 . S
C501 H472 0.950 . S
C501 C500 1.397 1_545 S
C501 C502 1.334 . S
C502 H473 0.950 . S
C502 C501 1.334 . S
C502 C503 1.287 . S
C503 C502 1.287 . S
C503 C504 1.524 1_545 S
C503 H506 0.999 . S
C504 H474 0.950 . S
C504 C503 1.524 1_565 S
C504 C505 1.415 . S
C505 H475 0.950 . S
C505 C500 1.363 . S
C505 C504 1.415 . S
H506 C503 0.999 . S
H507 C488 0.913 . S
H508 C526 0.951 . S
H509 C528 0.951 . S
H510 C530 0.950 . S
H511 C531 0.950 . S
H512 C533 0.950 . S
H513 C536 0.950 . S
H514 C537 0.950 . S
H515 C539 0.950 . S
H516 C540 0.950 . S
H517 C541 0.951 . S
H518 C543 0.951 . S
H519 C545 0.955 . S
H520 C546 0.950 1_554 S
H521 C548 0.950 . S
H522 C551 0.925 1_554 S
H523 C552 0.950 1_554 S
H524 C554 0.950 . S
H525 C555 0.950 . S
C526 H508 0.951 . S
C526 C527 1.366 . S
C526 C528 1.388 . S
C527 C526 1.366 . S
C527 C531 1.385 . S
C528 H509 0.951 . S
C528 C526 1.388 . S
C528 C529 1.366 . S
C529 C528 1.366 . S
C529 C530 1.414 . S
C529 C532 1.499 . S
C530 H510 0.950 . S
C530 C529 1.414 . S
C530 C531 1.374 . S
C531 H511 0.950 . S
C531 C527 1.385 . S
C531 C530 1.374 . S
C532 C529 1.499 . S
C532 C533 1.373 . S
C532 C534 1.389 . S
C533 H512 0.950 . S
C533 C532 1.373 . S
C533 C549 1.377 . S
C534 C532 1.389 . S
C534 C535 1.524 . S
C534 C548 1.377 . S
C535 C534 1.524 . S
C535 C536 1.397 . S
C535 C540 1.363 . S
C536 H513 0.950 . S
C536 C535 1.397 . S
C536 C537 1.334 . S
C537 H514 0.950 . S
C537 C536 1.334 . S
C537 C538 1.287 . S
C538 C537 1.287 . S
C538 C539 1.524 . S
C538 H557 0.913 . S
C539 H515 0.950 . S
C539 C538 1.524 . S
C539 C540 1.415 . S
C540 H516 0.950 . S
C540 C535 1.363 . S
C540 C539 1.415 . S
C541 H517 0.951 . S
C541 C542 1.366 . S
C541 C543 1.388 . S
C542 C541 1.366 . S
C542 C546 1.385 . S
C543 H518 0.951 . S
C543 C541 1.388 . S
C543 C544 1.366 . S
C544 C543 1.366 . S
C544 C545 1.414 . S
C544 C547 1.499 . S
C545 H519 0.955 . S
C545 C544 1.414 . S
C545 C546 1.374 . S
C546 H520 0.950 1_556 S
C546 C542 1.385 . S
C546 C545 1.374 . S
C547 C544 1.499 . S
C547 C548 1.373 . S
C547 C549 1.389 . S
C548 H521 0.950 . S
C548 C534 1.377 . S
C548 C547 1.373 . S
C549 C533 1.377 . S
C549 C547 1.389 . S
C549 C550 1.524 . S
C550 C549 1.524 . S
C550 C551 1.397 . S
C550 C555 1.363 . S
C551 H522 0.925 1_556 S
C551 C550 1.397 . S
C551 C552 1.334 . S
C552 H523 0.950 1_556 S
C552 C551 1.334 . S
C552 C553 1.287 . S
C553 C552 1.287 . S
C553 C554 1.524 . S
C553 H556 0.999 . S
C554 H524 0.950 . S
C554 C553 1.524 . S
C554 C555 1.415 . S
C555 H525 0.950 . S
C555 C550 1.363 . S
C555 C554 1.415 . S
H556 C553 0.999 . S
H557 C538 0.913 . S
H558 C576 0.951 . S
H559 C578 0.951 . S
H560 C580 0.950 . S
H561 C581 0.950 . S
H562 C583 0.950 . S
H563 C586 0.950 . S
H564 C587 0.950 . S
H565 C589 0.950 . S
H566 C590 0.950 . S
H567 C591 0.951 . S
H568 C593 0.951 . S
H569 C595 0.950 . S
H570 C596 0.950 . S
H571 C598 0.950 . S
H572 C601 0.950 . S
H573 C602 0.950 . S
H574 C604 0.950 . S
H575 C605 0.950 . S
C576 H558 0.951 . S
C576 C577 1.366 . S
C576 C578 1.388 . S
C577 C576 1.366 . S
C577 C581 1.385 . S
C578 H559 0.951 . S
C578 C576 1.388 . S
C578 C579 1.366 . S
C579 C578 1.366 . S
C579 C580 1.414 . S
C579 C582 1.499 . S
C580 H560 0.950 . S
C580 C579 1.414 . S
C580 C581 1.374 . S
C581 H561 0.950 . S
C581 C577 1.385 . S
C581 C580 1.374 . S
C582 C579 1.499 . S
C582 C583 1.373 . S
C582 C584 1.389 . S
C583 H562 0.950 . S
C583 C582 1.373 . S
C583 C599 1.377 . S
C584 C582 1.389 . S
C584 C585 1.524 . S
C584 C598 1.377 . S
C585 C584 1.524 . S
C585 C586 1.397 . S
C585 C590 1.363 . S
C586 H563 0.950 . S
C586 C585 1.397 . S
C586 C587 1.334 . S
C587 H564 0.950 . S
C587 C586 1.334 . S
C587 C588 1.287 . S
C588 C587 1.287 . S
C588 C589 1.524 . S
C588 H607 0.913 . S
C589 H565 0.950 . S
C589 C588 1.524 . S
C589 C590 1.415 . S
C590 H566 0.950 . S
C590 C585 1.363 . S
C590 C589 1.415 . S
C591 H567 0.951 . S
C591 C592 1.366 . S
C591 C593 1.388 . S
C592 C591 1.366 . S
C592 C596 1.385 . S
C593 H568 0.951 . S
C593 C591 1.388 . S
C593 C594 1.366 . S
C594 C593 1.366 . S
C594 C595 1.414 . S
C594 C597 1.499 . S
C595 H569 0.950 . S
C595 C594 1.414 . S
C595 C596 1.374 . S
C596 H570 0.950 . S
C596 C592 1.385 . S
C596 C595 1.374 . S
C597 C594 1.499 . S
C597 C598 1.373 . S
C597 C599 1.389 . S
C598 H571 0.950 . S
C598 C584 1.377 . S
C598 C597 1.373 . S
C599 C583 1.377 . S
C599 C597 1.389 . S
C599 C600 1.524 . S
C600 C599 1.524 . S
C600 C601 1.397 . S
C600 C605 1.363 . S
C601 H572 0.950 . S
C601 C600 1.397 . S
C601 C602 1.334 . S
C602 H573 0.950 . S
C602 C601 1.334 . S
C602 C603 1.287 . S
C603 C602 1.287 . S
C603 C604 1.524 . S
C603 H606 0.999 . S
C604 H574 0.950 . S
C604 C603 1.524 . S
C604 C605 1.415 . S
C605 H575 0.950 . S
C605 C600 1.363 . S
C605 C604 1.415 . S
H606 C603 0.999 . S
H607 C588 0.913 . S
H608 C626 0.951 . S
H609 C628 0.951 . S
H610 C630 0.950 . S
H611 C631 0.950 . S
H612 C633 0.950 . S
H613 C636 0.950 . S
H614 C637 0.950 . S
H615 C639 0.950 . S
H616 C640 0.950 . S
H617 C641 0.951 1_655 S
H618 C643 0.951 . S
H619 C645 0.950 . S
H620 C646 0.950 . S
H621 C648 0.950 . S
H622 C651 0.951 . S
H623 C652 0.950 . S
H624 C654 0.950 . S
H625 C655 0.950 . S
C626 H608 0.951 . S
C626 C627 1.366 . S
C626 C628 1.388 . S
C627 C626 1.366 . S
C627 C631 1.385 . S
C628 H609 0.951 . S
C628 C626 1.388 . S
C628 C629 1.366 . S
C629 C628 1.366 . S
C629 C630 1.414 . S
C629 C632 1.499 . S
C630 H610 0.950 . S
C630 C629 1.414 . S
C630 C631 1.374 . S
C631 H611 0.950 . S
C631 C627 1.385 . S
C631 C630 1.374 . S
C632 C629 1.499 . S
C632 C633 1.373 . S
C632 C634 1.389 . S
C633 H612 0.950 . S
C633 C632 1.373 . S
C633 C649 1.377 . S
C634 C632 1.389 . S
C634 C635 1.524 . S
C634 C648 1.377 . S
C635 C634 1.524 . S
C635 C636 1.397 . S
C635 C640 1.363 . S
C636 H613 0.950 . S
C636 C635 1.397 . S
C636 C637 1.334 . S
C637 H614 0.950 . S
C637 C636 1.334 . S
C637 C638 1.287 . S
C638 C637 1.287 . S
C638 C639 1.524 . S
C638 H657 0.913 . S
C639 H615 0.950 . S
C639 C638 1.524 . S
C639 C640 1.415 . S
C640 H616 0.950 . S
C640 C635 1.363 . S
C640 C639 1.415 . S
C641 H617 0.951 1_455 S
C641 C642 1.366 . S
C641 C643 1.388 . S
C642 C641 1.366 . S
C642 C646 1.385 . S
C643 H618 0.951 . S
C643 C641 1.388 . S
C643 C644 1.366 . S
C644 C643 1.366 . S
C644 C645 1.414 . S
C644 C647 1.499 . S
C645 H619 0.950 . S
C645 C644 1.414 . S
C645 C646 1.374 . S
C646 H620 0.950 . S
C646 C642 1.385 . S
C646 C645 1.374 . S
C647 C644 1.499 . S
C647 C648 1.373 . S
C647 C649 1.389 . S
C648 H621 0.950 . S
C648 C634 1.377 . S
C648 C647 1.373 . S
C649 C633 1.377 . S
C649 C647 1.389 . S
C649 C650 1.524 . S
C650 C649 1.524 . S
C650 C651 1.397 . S
C650 C655 1.363 1_455 S
C651 H622 0.951 . S
C651 C650 1.397 . S
C651 C652 1.334 1_554 S
C652 H623 0.950 . S
C652 C651 1.334 1_556 S
C652 C653 1.287 1_455 S
C653 C652 1.287 1_655 S
C653 C654 1.524 1_556 S
C653 H656 0.999 . S
C654 H624 0.950 . S
C654 C653 1.524 1_554 S
C654 C655 1.415 . S
C655 H625 0.950 . S
C655 C650 1.363 1_655 S
C655 C654 1.415 . S
H656 C653 0.999 . S
H657 C638 0.913 . S
H658 C676 0.951 . S
H659 C678 0.951 . S
H660 C680 0.950 . S
H661 C681 0.950 . S
H662 C683 0.950 . S
H663 C686 0.950 . S
H664 C687 0.950 . S
H665 C689 0.950 . S
H666 C690 0.950 . S
H667 C691 0.951 . S
H668 C693 0.951 . S
H669 C695 0.950 . S
H670 C696 0.950 . S
H671 C698 0.950 . S
H672 C701 0.950 . S
H673 C702 0.950 . S
H674 C704 0.950 . S
H675 C705 0.950 . S
C676 H658 0.951 . S
C676 C677 1.366 . S
C676 C678 1.388 . S
C677 C676 1.366 . S
C677 C681 1.385 . S
C678 H659 0.951 . S
C678 C676 1.388 . S
C678 C679 1.366 . S
C679 C678 1.366 . S
C679 C680 1.414 . S
C679 C682 1.499 . S
C680 H660 0.950 . S
C680 C679 1.414 . S
C680 C681 1.374 . S
C681 H661 0.950 . S
C681 C677 1.385 . S
C681 C680 1.374 . S
C682 C679 1.499 . S
C682 C683 1.373 . S
C682 C684 1.389 . S
C683 H662 0.950 . S
C683 C682 1.373 . S
C683 C699 1.377 . S
C684 C682 1.389 . S
C684 C685 1.524 . S
C684 C698 1.377 . S
C685 C684 1.524 . S
C685 C686 1.397 . S
C685 C690 1.363 . S
C686 H663 0.950 . S
C686 C685 1.397 . S
C686 C687 1.334 . S
C687 H664 0.950 . S
C687 C686 1.334 . S
C687 C688 1.287 . S
C688 C687 1.287 . S
C688 C689 1.524 . S
C688 H707 0.913 . S
C689 H665 0.950 . S
C689 C688 1.524 . S
C689 C690 1.415 . S
C690 H666 0.950 . S
C690 C685 1.363 . S
C690 C689 1.415 . S
C691 H667 0.951 . S
C691 C692 1.366 . S
C691 C693 1.388 . S
C692 C691 1.366 . S
C692 C696 1.385 . S
C693 H668 0.951 . S
C693 C691 1.388 . S
C693 C694 1.366 . S
C694 C693 1.366 . S
C694 C695 1.414 . S
C694 C697 1.499 . S
C695 H669 0.950 . S
C695 C694 1.414 . S
C695 C696 1.374 . S
C696 H670 0.950 . S
C696 C692 1.385 . S
C696 C695 1.374 . S
C697 C694 1.499 . S
C697 C698 1.373 . S
C697 C699 1.389 . S
C698 H671 0.950 . S
C698 C684 1.377 . S
C698 C697 1.373 . S
C699 C683 1.377 . S
C699 C697 1.389 . S
C699 C700 1.524 . S
C700 C699 1.524 . S
C700 C701 1.397 . S
C700 C705 1.363 1_556 S
C701 H672 0.950 . S
C701 C700 1.397 . S
C701 C702 1.334 1_556 S
C702 H673 0.950 . S
C702 C701 1.334 1_554 S
C702 C703 1.287 . S
C703 C702 1.287 . S
C703 C704 1.524 . S
C703 H706 0.999 . S
C704 H674 0.950 . S
C704 C703 1.524 . S
C704 C705 1.415 . S
C705 H675 0.950 . S
C705 C700 1.363 1_554 S
C705 C704 1.415 . S
H706 C703 0.999 . S
H707 C688 0.913 . S
H708 C726 0.951 . S
H709 C728 0.951 . S
H710 C730 0.950 . S
H711 C731 0.950 . S
H712 C733 0.950 . S
H713 C736 0.950 . S
H714 C737 0.950 . S
H715 C739 0.950 . S
H716 C740 0.950 . S
H717 C741 0.951 . S
H718 C743 0.951 . S
H719 C745 0.950 . S
H720 C746 0.950 . S
H721 C748 0.950 . S
H722 C751 0.950 . S
H723 C752 0.950 . S
H724 C754 0.950 . S
H725 C755 0.950 . S
C726 H708 0.951 . S
C726 C727 1.366 . S
C726 C728 1.388 . S
C727 C726 1.366 . S
C727 C731 1.385 . S
C728 H709 0.951 . S
C728 C726 1.388 . S
C728 C729 1.366 . S
C729 C728 1.366 . S
C729 C730 1.414 . S
C729 C732 1.499 . S
C730 H710 0.950 . S
C730 C729 1.414 . S
C730 C731 1.374 . S
C731 H711 0.950 . S
C731 C727 1.385 . S
C731 C730 1.374 . S
C732 C729 1.499 . S
C732 C733 1.373 . S
C732 C734 1.389 . S
C733 H712 0.950 . S
C733 C732 1.373 . S
C733 C749 1.377 . S
C734 C732 1.389 . S
C734 C735 1.524 . S
C734 C748 1.377 . S
C735 C734 1.524 . S
C735 C736 1.397 . S
C735 C740 1.363 . S
C736 H713 0.950 . S
C736 C735 1.397 . S
C736 C737 1.334 . S
C737 H714 0.950 . S
C737 C736 1.334 . S
C737 C738 1.287 1_655 S
C738 C737 1.287 1_455 S
C738 C739 1.524 . S
C738 H757 0.913 . S
C739 H715 0.950 . S
C739 C738 1.524 . S
C739 C740 1.415 1_455 S
C740 H716 0.950 . S
C740 C735 1.363 . S
C740 C739 1.415 1_655 S
C741 H717 0.951 . S
C741 C742 1.366 . S
C741 C743 1.388 . S
C742 C741 1.366 . S
C742 C746 1.385 . S
C743 H718 0.951 . S
C743 C741 1.388 . S
C743 C744 1.366 . S
C744 C743 1.366 . S
C744 C745 1.414 . S
C744 C747 1.499 . S
C745 H719 0.950 . S
C745 C744 1.414 . S
C745 C746 1.374 . S
C746 H720 0.950 . S
C746 C742 1.385 . S
C746 C745 1.374 . S
C747 C744 1.499 . S
C747 C748 1.373 . S
C747 C749 1.389 . S
C748 H721 0.950 . S
C748 C734 1.377 . S
C748 C747 1.373 . S
C749 C733 1.377 . S
C749 C747 1.389 . S
C749 C750 1.524 . S
C750 C749 1.524 . S
C750 C751 1.397 . S
C750 C755 1.363 . S
C751 H722 0.950 . S
C751 C750 1.397 . S
C751 C752 1.334 . S
C752 H723 0.950 . S
C752 C751 1.334 . S
C752 C753 1.287 . S
C753 C752 1.287 . S
C753 C754 1.524 . S
C753 H756 0.999 . S
C754 H724 0.950 . S
C754 C753 1.524 . S
C754 C755 1.415 . S
C755 H725 0.950 . S
C755 C750 1.363 . S
C755 C754 1.415 . S
H756 C753 0.999 . S
H757 C738 0.913 . S
H758 C776 0.951 . S
H759 C778 0.951 . S
H760 C780 0.950 . S
H761 C781 0.950 . S
H762 C783 0.950 . S
H763 C786 0.950 . S
H764 C787 0.950 . S
H765 C789 0.950 . S
H766 C790 0.950 . S
H767 C791 0.951 . S
H768 C793 0.951 . S
H769 C795 0.950 . S
H770 C796 0.950 . S
H771 C798 0.950 . S
H772 C801 0.950 . S
H773 C802 0.950 . S
H774 C804 0.950 . S
H775 C805 0.950 . S
C776 H758 0.951 . S
C776 C777 1.366 . S
C776 C778 1.388 . S
C777 C776 1.366 . S
C777 C781 1.385 . S
C778 H759 0.951 . S
C778 C776 1.388 . S
C778 C779 1.366 . S
C779 C778 1.366 . S
C779 C780 1.414 . S
C779 C782 1.499 . S
C780 H760 0.950 . S
C780 C779 1.414 . S
C780 C781 1.374 . S
C781 H761 0.950 . S
C781 C777 1.385 . S
C781 C780 1.374 . S
C782 C779 1.499 . S
C782 C783 1.373 . S
C782 C784 1.389 . S
C783 H762 0.950 . S
C783 C782 1.373 . S
C783 C799 1.377 . S
C784 C782 1.389 . S
C784 C785 1.524 . S
C784 C798 1.377 . S
C785 C784 1.524 . S
C785 C786 1.397 . S
C785 C790 1.363 . S
C786 H763 0.950 . S
C786 C785 1.397 . S
C786 C787 1.334 . S
C787 H764 0.950 . S
C787 C786 1.334 . S
C787 C788 1.287 . S
C788 C787 1.287 . S
C788 C789 1.524 . S
C788 H807 0.913 . S
C789 H765 0.950 . S
C789 C788 1.524 . S
C789 C790 1.415 . S
C790 H766 0.950 . S
C790 C785 1.363 . S
C790 C789 1.415 . S
C791 H767 0.951 . S
C791 C792 1.366 . S
C791 C793 1.388 . S
C792 C791 1.366 . S
C792 C796 1.385 . S
C793 H768 0.951 . S
C793 C791 1.388 . S
C793 C794 1.366 . S
C794 C793 1.366 . S
C794 C795 1.414 . S
C794 C797 1.499 . S
C795 H769 0.950 . S
C795 C794 1.414 . S
C795 C796 1.374 . S
C796 H770 0.950 . S
C796 C792 1.385 . S
C796 C795 1.374 . S
C797 C794 1.499 . S
C797 C798 1.373 . S
C797 C799 1.389 . S
C798 H771 0.950 . S
C798 C784 1.377 . S
C798 C797 1.373 . S
C799 C783 1.377 . S
C799 C797 1.389 . S
C799 C800 1.524 . S
C800 C799 1.524 . S
C800 C801 1.397 . S
C800 C805 1.363 . S
C801 H772 0.950 . S
C801 C800 1.397 . S
C801 C802 1.334 . S
C802 H773 0.950 . S
C802 C801 1.334 . S
C802 C803 1.287 . S
C803 C802 1.287 . S
C803 C804 1.524 . S
C803 H806 0.999 . S
C804 H774 0.950 . S
C804 C803 1.524 . S
C804 C805 1.415 . S
C805 H775 0.950 . S
C805 C800 1.363 . S
C805 C804 1.415 . S
H806 C803 0.999 . S
H807 C788 0.913 . S
H808 C826 0.951 . S
H809 C828 0.951 . S
H810 C830 0.950 . S
H811 C831 0.950 . S
H812 C833 0.950 . S
H813 C836 0.950 . S
H814 C837 0.950 . S
H815 C839 0.950 . S
H816 C840 0.950 . S
H817 C841 0.951 1_455 S
H818 C843 0.951 . S
H819 C845 0.950 . S
H820 C846 0.950 1_545 S
H821 C848 0.950 . S
H822 C851 0.946 1_655 S
H823 C852 0.983 . S
H824 C854 0.950 . S
H825 C855 0.950 . S
C826 H808 0.951 . S
C826 C827 1.366 . S
C826 C828 1.388 . S
C827 C826 1.366 . S
C827 C831 1.385 . S
C828 H809 0.951 . S
C828 C826 1.388 . S
C828 C829 1.366 . S
C829 C828 1.366 . S
C829 C830 1.414 . S
C829 C832 1.499 . S
C830 H810 0.950 . S
C830 C829 1.414 . S
C830 C831 1.374 . S
C831 H811 0.950 . S
C831 C827 1.385 . S
C831 C830 1.374 . S
C832 C829 1.499 . S
C832 C833 1.373 . S
C832 C834 1.389 . S
C833 H812 0.950 . S
C833 C832 1.373 . S
C833 C849 1.377 . S
C834 C832 1.389 . S
C834 C835 1.524 . S
C834 C848 1.377 . S
C835 C834 1.524 . S
C835 C836 1.397 . S
C835 C840 1.363 . S
C836 H813 0.950 . S
C836 C835 1.397 . S
C836 C837 1.334 . S
C837 H814 0.950 . S
C837 C836 1.334 . S
C837 C838 1.287 . S
C838 C837 1.287 . S
C838 C839 1.524 . S
C838 H857 0.913 . S
C839 H815 0.950 . S
C839 C838 1.524 . S
C839 C840 1.415 . S
C840 H816 0.950 . S
C840 C835 1.363 . S
C840 C839 1.415 . S
C841 H817 0.951 1_655 S
C841 C842 1.366 . S
C841 C843 1.388 . S
C842 C841 1.366 . S
C842 C846 1.385 . S
C843 H818 0.951 . S
C843 C841 1.388 . S
C843 C844 1.366 . S
C844 C843 1.366 . S
C844 C845 1.414 . S
C844 C847 1.499 . S
C845 H819 0.950 . S
C845 C844 1.414 . S
C845 C846 1.374 . S
C846 H820 0.950 1_565 S
C846 C842 1.385 . S
C846 C845 1.374 . S
C847 C844 1.499 . S
C847 C848 1.373 . S
C847 C849 1.389 . S
C848 H821 0.950 . S
C848 C834 1.377 . S
C848 C847 1.373 . S
C849 C833 1.377 . S
C849 C847 1.389 . S
C849 C850 1.524 . S
C850 C849 1.524 . S
C850 C851 1.395 1_655 S
C850 C855 1.363 1_655 S
C851 H822 0.946 1_455 S
C851 C850 1.395 1_455 S
C851 C852 1.330 1_565 S
C852 H823 0.983 . S
C852 C851 1.330 1_545 S
C852 C853 1.269 1_545 S
C853 C852 1.269 1_565 S
C853 C854 1.524 . S
C853 H856 0.999 . S
C854 H824 0.950 . S
C854 C853 1.524 . S
C854 C855 1.415 . S
C855 H825 0.950 . S
C855 C850 1.363 1_455 S
C855 C854 1.415 . S
H856 C853 0.999 . S
H857 C838 0.913 . S
H858 C876 0.951 . S
H859 C878 0.951 . S
H860 C880 0.950 . S
H861 C881 0.950 . S
H862 C883 0.950 . S
H863 C886 0.950 . S
H864 C887 0.950 . S
H865 C889 0.950 . S
H866 C890 0.950 . S
H867 C891 0.951 1_565 S
H868 C893 0.951 . S
H869 C895 0.950 . S
H870 C896 0.950 . S
H871 C898 0.950 . S
H872 C901 0.950 . S
H873 C902 0.950 . S
H874 C904 0.950 . S
H875 C905 0.950 . S
C876 H858 0.951 . S
C876 C877 1.366 . S
C876 C878 1.388 . S
C877 C876 1.366 . S
C877 C881 1.385 . S
C878 H859 0.951 . S
C878 C876 1.388 . S
C878 C879 1.366 . S
C879 C878 1.366 . S
C879 C880 1.414 . S
C879 C882 1.499 . S
C880 H860 0.950 . S
C880 C879 1.414 . S
C880 C881 1.374 . S
C881 H861 0.950 . S
C881 C877 1.385 . S
C881 C880 1.374 . S
C882 C879 1.499 . S
C882 C883 1.373 . S
C882 C884 1.389 . S
C883 H862 0.950 . S
C883 C882 1.373 . S
C883 C899 1.377 . S
C884 C882 1.389 . S
C884 C885 1.524 . S
C884 C898 1.377 . S
C885 C884 1.524 . S
C885 C886 1.397 . S
C885 C890 1.363 . S
C886 H863 0.950 . S
C886 C885 1.397 . S
C886 C887 1.334 . S
C887 H864 0.950 . S
C887 C886 1.334 . S
C887 C888 1.287 . S
C888 C887 1.287 . S
C888 C889 1.524 . S
C888 H907 0.913 . S
C889 H865 0.950 . S
C889 C888 1.524 . S
C889 C890 1.415 . S
C890 H866 0.950 . S
C890 C885 1.363 . S
C890 C889 1.415 . S
C891 H867 0.951 1_545 S
C891 C892 1.366 . S
C891 C893 1.388 . S
C892 C891 1.366 . S
C892 C896 1.385 . S
C893 H868 0.951 . S
C893 C891 1.388 . S
C893 C894 1.366 . S
C894 C893 1.366 . S
C894 C895 1.414 . S
C894 C897 1.499 . S
C895 H869 0.950 . S
C895 C894 1.414 . S
C895 C896 1.374 . S
C896 H870 0.950 . S
C896 C892 1.385 . S
C896 C895 1.374 . S
C897 C894 1.499 . S
C897 C898 1.373 . S
C897 C899 1.389 . S
C898 H871 0.950 . S
C898 C884 1.377 . S
C898 C897 1.373 . S
C899 C883 1.377 . S
C899 C897 1.389 . S
C899 C900 1.524 . S
C900 C899 1.524 . S
C900 C901 1.397 . S
C900 C905 1.363 . S
C901 H872 0.950 . S
C901 C900 1.397 . S
C901 C902 1.334 . S
C902 H873 0.950 . S
C902 C901 1.334 . S
C902 C903 1.287 . S
C903 C902 1.287 . S
C903 C904 1.524 . S
C903 H906 0.999 . S
C904 H874 0.950 . S
C904 C903 1.524 . S
C904 C905 1.415 . S
C905 H875 0.950 . S
C905 C900 1.363 . S
C905 C904 1.415 . S
H906 C903 0.999 . S
H907 C888 0.913 . S
H908 C926 0.951 . S
H909 C928 0.951 . S
H910 C930 0.950 . S
H911 C931 0.950 . S
H912 C933 0.950 . S
H913 C936 0.950 . S
H914 C937 0.950 . S
H915 C939 0.950 . S
H916 C940 0.950 . S
H917 C941 0.951 . S
H918 C943 0.951 . S
H919 C945 0.950 . S
H920 C946 0.950 . S
H921 C948 0.950 . S
H922 C951 0.950 . S
H923 C952 0.950 . S
H924 C954 0.950 . S
H925 C955 0.950 . S
C926 H908 0.951 . S
C926 C927 1.366 . S
C926 C928 1.388 . S
C927 C926 1.366 . S
C927 C931 1.385 . S
C928 H909 0.951 . S
C928 C926 1.388 . S
C928 C929 1.366 . S
C929 C928 1.366 . S
C929 C930 1.414 . S
C929 C932 1.499 . S
C930 H910 0.950 . S
C930 C929 1.414 . S
C930 C931 1.374 . S
C931 H911 0.950 . S
C931 C927 1.385 . S
C931 C930 1.374 . S
C932 C929 1.499 . S
C932 C933 1.373 . S
C932 C934 1.389 . S
C933 H912 0.950 . S
C933 C932 1.373 . S
C933 C949 1.377 . S
C934 C932 1.389 . S
C934 C935 1.524 . S
C934 C948 1.377 . S
C935 C934 1.524 . S
C935 C936 1.397 . S
C935 C940 1.363 . S
C936 H913 0.950 . S
C936 C935 1.397 . S
C936 C937 1.334 . S
C937 H914 0.950 . S
C937 C936 1.334 . S
C937 C938 1.287 . S
C938 C937 1.287 . S
C938 C939 1.524 . S
C938 H957 0.913 . S
C939 H915 0.950 . S
C939 C938 1.524 . S
C939 C940 1.415 . S
C940 H916 0.950 . S
C940 C935 1.363 . S
C940 C939 1.415 . S
C941 H917 0.951 . S
C941 C942 1.366 . S
C941 C943 1.388 . S
C942 C941 1.366 . S
C942 C946 1.385 . S
C943 H918 0.951 . S
C943 C941 1.388 . S
C943 C944 1.366 . S
C944 C943 1.366 . S
C944 C945 1.414 . S
C944 C947 1.499 . S
C945 H919 0.950 . S
C945 C944 1.414 . S
C945 C946 1.374 . S
C946 H920 0.950 . S
C946 C942 1.385 . S
C946 C945 1.374 . S
C947 C944 1.499 . S
C947 C948 1.373 . S
C947 C949 1.389 . S
C948 H921 0.950 . S
C948 C934 1.377 . S
C948 C947 1.373 . S
C949 C933 1.377 . S
C949 C947 1.389 . S
C949 C950 1.524 . S
C950 C949 1.524 . S
C950 C951 1.397 . S
C950 C955 1.363 . S
C951 H922 0.950 . S
C951 C950 1.397 . S
C951 C952 1.334 . S
C952 H923 0.950 . S
C952 C951 1.334 . S
C952 C953 1.287 . S
C953 C952 1.287 . S
C953 C954 1.524 . S
C953 H956 0.999 . S
C954 H924 0.950 . S
C954 C953 1.524 . S
C954 C955 1.415 . S
C955 H925 0.950 . S
C955 C950 1.363 . S
C955 C954 1.415 . S
H956 C953 0.999 . S
H957 C938 0.913 . S
H958 C976 0.951 . S
H959 C978 0.951 . S
H960 C980 0.950 . S
H961 C981 0.950 . S
H962 C983 0.950 . S
H963 C986 0.950 . S
H964 C987 0.950 . S
H965 C989 0.950 1_655 S
H966 C990 0.950 . S
H967 C991 0.951 . S
H968 C993 0.951 . S
H969 C995 0.950 . S
H970 C996 0.950 . S
H971 C998 0.950 . S
H972 C1001 0.950 . S
H973 C1002 0.950 . S
H974 C1004 0.950 . S
H975 C1005 0.950 . S
C976 H958 0.951 . S
C976 C977 1.366 . S
C976 C978 1.388 . S
C977 C976 1.366 . S
C977 C981 1.385 . S
C978 H959 0.951 . S
C978 C976 1.388 . S
C978 C979 1.366 . S
C979 C978 1.366 . S
C979 C980 1.414 . S
C979 C982 1.499 . S
C980 H960 0.950 . S
C980 C979 1.414 . S
C980 C981 1.374 . S
C981 H961 0.950 . S
C981 C977 1.385 . S
C981 C980 1.374 . S
C982 C979 1.499 . S
C982 C983 1.373 . S
C982 C984 1.389 . S
C983 H962 0.950 . S
C983 C982 1.373 . S
C983 C999 1.377 . S
C984 C982 1.389 . S
C984 C985 1.524 . S
C984 C998 1.377 . S
C985 C984 1.524 . S
C985 C986 1.397 . S
C985 C990 1.363 . S
C986 H963 0.950 . S
C986 C985 1.397 . S
C986 C987 1.334 . S
C987 H964 0.950 . S
C987 C986 1.334 . S
C987 C988 1.287 . S
C988 C987 1.287 . S
C988 C989 1.524 . S
C988 H1007 0.913 . S
C989 H965 0.950 1_455 S
C989 C988 1.524 . S
C989 C990 1.415 . S
C990 H966 0.950 . S
C990 C985 1.363 . S
C990 C989 1.415 . S
C991 H967 0.951 . S
C991 C992 1.366 . S
C991 C993 1.388 . S
C992 C991 1.366 . S
C992 C996 1.385 . S
C993 H968 0.951 . S
C993 C991 1.388 . S
C993 C994 1.366 . S
C994 C993 1.366 . S
C994 C995 1.414 . S
C994 C997 1.499 . S
C995 H969 0.950 . S
C995 C994 1.414 . S
C995 C996 1.374 . S
C996 H970 0.950 . S
C996 C992 1.385 . S
C996 C995 1.374 . S
C997 C994 1.499 . S
C997 C998 1.373 . S
C997 C999 1.389 . S
C998 H971 0.950 . S
C998 C984 1.377 . S
C998 C997 1.373 . S
C999 C983 1.377 . S
C999 C997 1.389 . S
C999 C1000 1.524 . S
C1000 C999 1.524 . S
C1000 C1001 1.397 . S
C1000 C1005 1.363 . S
C1001 H972 0.950 . S
C1001 C1000 1.397 . S
C1001 C1002 1.334 . S
C1002 H973 0.950 . S
C1002 C1001 1.334 . S
C1002 C1003 1.287 . S
C1003 C1002 1.287 . S
C1003 C1004 1.524 . S
C1003 H1006 0.999 . S
C1004 H974 0.950 . S
C1004 C1003 1.524 . S
C1004 C1005 1.415 . S
C1005 H975 0.950 . S
C1005 C1000 1.363 . S
C1005 C1004 1.415 . S
H1006 C1003 0.999 . S
H1007 C988 0.913 . S
H1008 C1026 0.951 . S
H1009 C1028 0.951 . S
H1010 C1030 0.950 . S
H1011 C1031 0.950 . S
H1012 C1033 0.950 . S
H1013 C1036 0.950 . S
H1014 C1037 0.950 . S
H1015 C1039 0.950 . S
H1016 C1040 0.950 . S
H1017 C1041 0.951 1_545 S
H1018 C1043 0.951 . S
H1019 C1045 0.950 . S
H1020 C1046 0.950 . S
H1021 C1048 0.950 . S
H1022 C1051 0.950 . S
H1023 C1052 0.950 . S
H1024 C1054 0.950 1_545 S
H1025 C1055 0.936 1_556 S
C1026 H1008 0.951 . S
C1026 C1027 1.366 . S
C1026 C1028 1.388 . S
C1027 C1026 1.366 . S
C1027 C1031 1.385 . S
C1028 H1009 0.951 . S
C1028 C1026 1.388 . S
C1028 C1029 1.366 . S
C1029 C1028 1.366 . S
C1029 C1030 1.414 . S
C1029 C1032 1.499 . S
C1030 H1010 0.950 . S
C1030 C1029 1.414 . S
C1030 C1031 1.374 . S
C1031 H1011 0.950 . S
C1031 C1027 1.385 . S
C1031 C1030 1.374 . S
C1032 C1029 1.499 . S
C1032 C1033 1.373 . S
C1032 C1034 1.389 . S
C1033 H1012 0.950 . S
C1033 C1032 1.373 . S
C1033 C1049 1.377 . S
C1034 C1032 1.389 . S
C1034 C1035 1.524 . S
C1034 C1048 1.377 . S
C1035 C1034 1.524 . S
C1035 C1036 1.397 . S
C1035 C1040 1.363 . S
C1036 H1013 0.950 . S
C1036 C1035 1.397 . S
C1036 C1037 1.334 . S
C1037 H1014 0.950 . S
C1037 C1036 1.334 . S
C1037 C1038 1.287 . S
C1038 C1037 1.287 . S
C1038 C1039 1.524 . S
C1038 H1057 0.913 . S
C1039 H1015 0.950 . S
C1039 C1038 1.524 . S
C1039 C1040 1.415 . S
C1040 H1016 0.950 . S
C1040 C1035 1.363 . S
C1040 C1039 1.415 . S
C1041 H1017 0.951 1_565 S
C1041 C1042 1.366 . S
C1041 C1043 1.388 . S
C1042 C1041 1.366 . S
C1042 C1046 1.385 . S
C1043 H1018 0.951 . S
C1043 C1041 1.388 . S
C1043 C1044 1.366 . S
C1044 C1043 1.366 . S
C1044 C1045 1.414 . S
C1044 C1047 1.499 . S
C1045 H1019 0.950 . S
C1045 C1044 1.414 . S
C1045 C1046 1.374 . S
C1046 H1020 0.950 . S
C1046 C1042 1.385 . S
C1046 C1045 1.374 . S
C1047 C1044 1.499 . S
C1047 C1048 1.373 . S
C1047 C1049 1.389 . S
C1048 H1021 0.950 . S
C1048 C1034 1.377 . S
C1048 C1047 1.373 . S
C1049 C1033 1.377 . S
C1049 C1047 1.389 . S
C1049 C1050 1.524 . S
C1050 C1049 1.524 . S
C1050 C1051 1.397 1_556 S
C1050 C1055 1.357 1_556 S
C1051 H1022 0.950 . S
C1051 C1050 1.397 1_554 S
C1051 C1052 1.334 . S
C1052 H1023 0.950 . S
C1052 C1051 1.334 . S
C1052 C1053 1.287 . S
C1053 C1052 1.287 . S
C1053 C1054 1.524 . S
C1053 H1056 0.999 . S
C1054 H1024 0.950 1_565 S
C1054 C1053 1.524 . S
C1054 C1055 1.435 . S
C1055 H1025 0.936 1_554 S
C1055 C1050 1.357 1_554 S
C1055 C1054 1.435 . S
H1056 C1053 0.999 . S
H1057 C1038 0.913 . S
H1058 C1076 0.951 . S
H1059 C1078 0.951 . S
H1060 C1080 0.950 . S
H1061 C1081 0.950 . S
H1062 C1083 0.950 . S
H1063 C1086 0.950 . S
H1064 C1087 0.950 . S
H1065 C1089 0.950 . S
H1066 C1090 0.950 . S
H1067 C1091 0.951 . S
H1068 C1093 0.951 . S
H1069 C1095 0.950 . S
H1070 C1096 0.950 . S
H1071 C1098 0.950 . S
H1072 C1101 0.950 1_545 S
H1073 C1102 0.950 . S
H1074 C1104 0.950 . S
H1075 C1105 0.950 . S
C1076 H1058 0.951 . S
C1076 C1077 1.366 . S
C1076 C1078 1.388 . S
C1077 C1076 1.366 . S
C1077 C1081 1.385 . S
C1078 H1059 0.951 . S
C1078 C1076 1.388 . S
C1078 C1079 1.366 . S
C1079 C1078 1.366 . S
C1079 C1080 1.414 . S
C1079 C1082 1.499 . S
C1080 H1060 0.950 . S
C1080 C1079 1.414 . S
C1080 C1081 1.374 . S
C1081 H1061 0.950 . S
C1081 C1077 1.385 . S
C1081 C1080 1.374 . S
C1082 C1079 1.499 . S
C1082 C1083 1.373 . S
C1082 C1084 1.389 . S
C1083 H1062 0.950 . S
C1083 C1082 1.373 . S
C1083 C1099 1.377 . S
C1084 C1082 1.389 . S
C1084 C1085 1.524 . S
C1084 C1098 1.377 . S
C1085 C1084 1.524 . S
C1085 C1086 1.397 . S
C1085 C1090 1.363 . S
C1086 H1063 0.950 . S
C1086 C1085 1.397 . S
C1086 C1087 1.334 . S
C1087 H1064 0.950 . S
C1087 C1086 1.334 . S
C1087 C1088 1.287 . S
C1088 C1087 1.287 . S
C1088 C1089 1.524 . S
C1088 H1107 0.913 . S
C1089 H1065 0.950 . S
C1089 C1088 1.524 . S
C1089 C1090 1.415 . S
C1090 H1066 0.950 . S
C1090 C1085 1.363 . S
C1090 C1089 1.415 . S
C1091 H1067 0.951 . S
C1091 C1092 1.366 . S
C1091 C1093 1.388 . S
C1092 C1091 1.366 . S
C1092 C1096 1.385 . S
C1093 H1068 0.951 . S
C1093 C1091 1.388 . S
C1093 C1094 1.366 . S
C1094 C1093 1.366 . S
C1094 C1095 1.414 . S
C1094 C1097 1.499 . S
C1095 H1069 0.950 . S
C1095 C1094 1.414 . S
C1095 C1096 1.374 . S
C1096 H1070 0.950 . S
C1096 C1092 1.385 . S
C1096 C1095 1.374 . S
C1097 C1094 1.499 . S
C1097 C1098 1.373 . S
C1097 C1099 1.389 . S
C1098 H1071 0.950 . S
C1098 C1084 1.377 . S
C1098 C1097 1.373 . S
C1099 C1083 1.377 . S
C1099 C1097 1.389 . S
C1099 C1100 1.524 . S
C1100 C1099 1.524 . S
C1100 C1101 1.397 1_545 S
C1100 C1105 1.363 . S
C1101 H1072 0.950 1_565 S
C1101 C1100 1.397 1_565 S
C1101 C1102 1.334 . S
C1102 H1073 0.950 . S
C1102 C1101 1.334 . S
C1102 C1103 1.287 . S
C1103 C1102 1.287 . S
C1103 C1104 1.524 . S
C1103 H1106 0.999 . S
C1104 H1074 0.950 . S
C1104 C1103 1.524 . S
C1104 C1105 1.415 1_565 S
C1105 H1075 0.950 . S
C1105 C1100 1.363 . S
C1105 C1104 1.415 1_545 S
H1106 C1103 0.999 . S
H1107 C1088 0.913 . S
H1108 C1126 0.951 . S
H1109 C1128 0.951 . S
H1110 C1130 0.950 . S
H1111 C1131 0.950 . S
H1112 C1133 0.950 . S
H1113 C1136 0.950 . S
H1114 C1137 0.950 . S
H1115 C1139 0.950 . S
H1116 C1140 0.950 . S
H1117 C1141 0.951 . S
H1118 C1143 0.951 . S
H1119 C1145 0.950 . S
H1120 C1146 0.950 1_556 S
H1121 C1148 0.950 . S
H1122 C1151 0.950 . S
H1123 C1152 0.950 . S
H1124 C1154 0.950 . S
H1125 C1155 0.950 . S
C1126 H1108 0.951 . S
C1126 C1127 1.366 . S
C1126 C1128 1.388 . S
C1127 C1126 1.366 . S
C1127 C1131 1.385 . S
C1128 H1109 0.951 . S
C1128 C1126 1.388 . S
C1128 C1129 1.366 . S
C1129 C1128 1.366 . S
C1129 C1130 1.414 . S
C1129 C1132 1.499 . S
C1130 H1110 0.950 . S
C1130 C1129 1.414 . S
C1130 C1131 1.374 . S
C1131 H1111 0.950 . S
C1131 C1127 1.385 . S
C1131 C1130 1.374 . S
C1132 C1129 1.499 . S
C1132 C1133 1.373 . S
C1132 C1134 1.389 . S
C1133 H1112 0.950 . S
C1133 C1132 1.373 . S
C1133 C1149 1.377 . S
C1134 C1132 1.389 . S
C1134 C1135 1.524 . S
C1134 C1148 1.377 . S
C1135 C1134 1.524 . S
C1135 C1136 1.397 . S
C1135 C1140 1.363 1_554 S
C1136 H1113 0.950 . S
C1136 C1135 1.397 . S
C1136 C1137 1.334 . S
C1137 H1114 0.950 . S
C1137 C1136 1.334 . S
C1137 C1138 1.287 1_554 S
C1138 C1137 1.287 1_556 S
C1138 C1139 1.524 . S
C1138 H1157 0.913 . S
C1139 H1115 0.950 . S
C1139 C1138 1.524 . S
C1139 C1140 1.415 . S
C1140 H1116 0.950 . S
C1140 C1135 1.363 1_556 S
C1140 C1139 1.415 . S
C1141 H1117 0.951 . S
C1141 C1142 1.366 . S
C1141 C1143 1.388 . S
C1142 C1141 1.366 . S
C1142 C1146 1.385 . S
C1143 H1118 0.951 . S
C1143 C1141 1.388 . S
C1143 C1144 1.366 . S
C1144 C1143 1.366 . S
C1144 C1145 1.414 . S
C1144 C1147 1.499 . S
C1145 H1119 0.950 . S
C1145 C1144 1.414 . S
C1145 C1146 1.374 . S
C1146 H1120 0.950 1_554 S
C1146 C1142 1.385 . S
C1146 C1145 1.374 . S
C1147 C1144 1.499 . S
C1147 C1148 1.373 . S
C1147 C1149 1.389 . S
C1148 H1121 0.950 . S
C1148 C1134 1.377 . S
C1148 C1147 1.373 . S
C1149 C1133 1.377 . S
C1149 C1147 1.389 . S
C1149 C1150 1.524 . S
C1150 C1149 1.524 . S
C1150 C1151 1.397 . S
C1150 C1155 1.363 . S
C1151 H1122 0.950 . S
C1151 C1150 1.397 . S
C1151 C1152 1.334 . S
C1152 H1123 0.950 . S
C1152 C1151 1.334 . S
C1152 C1153 1.287 . S
C1153 C1152 1.287 . S
C1153 C1154 1.524 . S
C1153 H1156 0.999 . S
C1154 H1124 0.950 . S
C1154 C1153 1.524 . S
C1154 C1155 1.415 . S
C1155 H1125 0.950 . S
C1155 C1150 1.363 . S
C1155 C1154 1.415 . S
H1156 C1153 0.999 . S
H1157 C1138 0.913 . S
H1158 C1176 0.951 . S
H1159 C1178 0.951 . S
H1160 C1180 0.950 . S
H1161 C1181 0.950 . S
H1162 C1183 0.950 . S
H1163 C1186 0.950 . S
H1164 C1187 0.950 . S
H1165 C1189 0.950 . S
H1166 C1190 0.950 . S
H1167 C1191 0.951 . S
H1168 C1193 0.951 . S
H1169 C1195 0.950 . S
H1170 C1196 0.950 . S
H1171 C1198 0.950 . S
H1172 C1201 0.950 . S
H1173 C1202 0.950 . S
H1174 C1204 0.950 . S
H1175 C1205 0.950 . S
C1176 H1158 0.951 . S
C1176 C1177 1.366 . S
C1176 C1178 1.388 . S
C1177 C1176 1.366 . S
C1177 C1181 1.385 . S
C1178 H1159 0.951 . S
C1178 C1176 1.388 . S
C1178 C1179 1.366 . S
C1179 C1178 1.366 . S
C1179 C1180 1.414 . S
C1179 C1182 1.499 . S
C1180 H1160 0.950 . S
C1180 C1179 1.414 . S
C1180 C1181 1.374 . S
C1181 H1161 0.950 . S
C1181 C1177 1.385 . S
C1181 C1180 1.374 . S
C1182 C1179 1.499 . S
C1182 C1183 1.373 . S
C1182 C1184 1.389 . S
C1183 H1162 0.950 . S
C1183 C1182 1.373 . S
C1183 C1199 1.377 . S
C1184 C1182 1.389 . S
C1184 C1185 1.524 . S
C1184 C1198 1.377 . S
C1185 C1184 1.524 . S
C1185 C1186 1.397 . S
C1185 C1190 1.363 . S
C1186 H1163 0.950 . S
C1186 C1185 1.397 . S
C1186 C1187 1.334 . S
C1187 H1164 0.950 . S
C1187 C1186 1.334 . S
C1187 C1188 1.287 . S
C1188 C1187 1.287 . S
C1188 C1189 1.524 . S
C1188 H1207 0.913 . S
C1189 H1165 0.950 . S
C1189 C1188 1.524 . S
C1189 C1190 1.415 . S
C1190 H1166 0.950 . S
C1190 C1185 1.363 . S
C1190 C1189 1.415 . S
C1191 H1167 0.951 . S
C1191 C1192 1.366 . S
C1191 C1193 1.388 . S
C1192 C1191 1.366 . S
C1192 C1196 1.385 . S
C1193 H1168 0.951 . S
C1193 C1191 1.388 . S
C1193 C1194 1.366 . S
C1194 C1193 1.366 . S
C1194 C1195 1.414 . S
C1194 C1197 1.499 . S
C1195 H1169 0.950 . S
C1195 C1194 1.414 . S
C1195 C1196 1.374 . S
C1196 H1170 0.950 . S
C1196 C1192 1.385 . S
C1196 C1195 1.374 . S
C1197 C1194 1.499 . S
C1197 C1198 1.373 . S
C1197 C1199 1.389 . S
C1198 H1171 0.950 . S
C1198 C1184 1.377 . S
C1198 C1197 1.373 . S
C1199 C1183 1.377 . S
C1199 C1197 1.389 . S
C1199 C1200 1.524 . S
C1200 C1199 1.524 . S
C1200 C1201 1.397 . S
C1200 C1205 1.363 . S
C1201 H1172 0.950 . S
C1201 C1200 1.397 . S
C1201 C1202 1.334 . S
C1202 H1173 0.950 . S
C1202 C1201 1.334 . S
C1202 C1203 1.287 . S
C1203 C1202 1.287 . S
C1203 C1204 1.524 . S
C1203 H1206 0.999 . S
C1204 H1174 0.950 . S
C1204 C1203 1.524 . S
C1204 C1205 1.415 . S
C1205 H1175 0.950 . S
C1205 C1200 1.363 . S
C1205 C1204 1.415 . S
H1206 C1203 0.999 . S
H1207 C1188 0.913 . S
H1208 C1226 0.951 . S
H1209 C1228 0.951 . S
H1210 C1230 0.950 . S
H1211 C1231 0.950 . S
H1212 C1233 0.950 . S
H1213 C1236 0.950 . S
H1214 C1237 0.950 . S
H1215 C1239 0.950 . S
H1216 C1240 0.950 . S
H1217 C1241 0.951 1_455 S
H1218 C1243 0.951 . S
H1219 C1245 0.950 . S
H1220 C1246 0.950 . S
H1221 C1248 0.950 . S
H1222 C1251 0.950 1_655 S
H1223 C1252 0.950 . S
H1224 C1254 0.950 . S
H1225 C1255 0.950 . S
C1226 H1208 0.951 . S
C1226 C1227 1.366 . S
C1226 C1228 1.388 . S
C1227 C1226 1.366 . S
C1227 C1231 1.385 . S
C1228 H1209 0.951 . S
C1228 C1226 1.388 . S
C1228 C1229 1.366 . S
C1229 C1228 1.366 . S
C1229 C1230 1.414 . S
C1229 C1232 1.499 . S
C1230 H1210 0.950 . S
C1230 C1229 1.414 . S
C1230 C1231 1.374 . S
C1231 H1211 0.950 . S
C1231 C1227 1.385 . S
C1231 C1230 1.374 . S
C1232 C1229 1.499 . S
C1232 C1233 1.373 . S
C1232 C1234 1.389 . S
C1233 H1212 0.950 . S
C1233 C1232 1.373 . S
C1233 C1249 1.377 . S
C1234 C1232 1.389 . S
C1234 C1235 1.524 . S
C1234 C1248 1.377 . S
C1235 C1234 1.524 . S
C1235 C1236 1.397 . S
C1235 C1240 1.363 . S
C1236 H1213 0.950 . S
C1236 C1235 1.397 . S
C1236 C1237 1.334 . S
C1237 H1214 0.950 . S
C1237 C1236 1.334 . S
C1237 C1238 1.287 . S
C1238 C1237 1.287 . S
C1238 C1239 1.524 . S
C1238 H1257 0.913 . S
C1239 H1215 0.950 . S
C1239 C1238 1.524 . S
C1239 C1240 1.415 . S
C1240 H1216 0.950 . S
C1240 C1235 1.363 . S
C1240 C1239 1.415 . S
C1241 H1217 0.951 1_655 S
C1241 C1242 1.366 . S
C1241 C1243 1.388 . S
C1242 C1241 1.366 . S
C1242 C1246 1.385 . S
C1243 H1218 0.951 . S
C1243 C1241 1.388 . S
C1243 C1244 1.366 . S
C1244 C1243 1.366 . S
C1244 C1245 1.414 . S
C1244 C1247 1.499 . S
C1245 H1219 0.950 . S
C1245 C1244 1.414 . S
C1245 C1246 1.374 . S
C1246 H1220 0.950 . S
C1246 C1242 1.385 . S
C1246 C1245 1.374 . S
C1247 C1244 1.499 . S
C1247 C1248 1.373 . S
C1247 C1249 1.389 . S
C1248 H1221 0.950 . S
C1248 C1234 1.377 . S
C1248 C1247 1.373 . S
C1249 C1233 1.377 . S
C1249 C1247 1.389 . S
C1249 C1250 1.561 . S
C1250 C1249 1.561 . S
C1250 C1251 1.395 1_655 S
C1250 C1255 1.331 1_655 S
C1251 H1222 0.950 1_455 S
C1251 C1250 1.395 1_455 S
C1251 C1252 1.334 . S
C1252 H1223 0.950 . S
C1252 C1251 1.334 . S
C1252 C1253 1.287 . S
C1253 C1252 1.287 . S
C1253 C1254 1.524 . S
C1253 H1256 0.999 . S
C1254 H1224 0.950 . S
C1254 C1253 1.524 . S
C1254 C1255 1.415 . S
C1255 H1225 0.950 . S
C1255 C1250 1.331 1_455 S
C1255 C1254 1.415 . S
H1256 C1253 0.999 . S
H1257 C1238 0.913 . S
H1258 C1276 0.951 . S
H1259 C1278 0.951 . S
H1260 C1280 0.950 . S
H1261 C1281 0.950 . S
H1262 C1283 0.950 . S
H1263 C1286 0.950 . S
H1264 C1287 0.950 1_556 S
H1265 C1289 0.950 . S
H1266 C1290 0.950 . S
H1267 C1291 0.951 . S
H1268 C1293 0.951 . S
H1269 C1295 0.950 . S
H1270 C1296 0.950 . S
H1271 C1298 0.950 . S
H1272 C1301 0.950 . S
H1273 C1302 0.950 . S
H1274 C1304 0.950 . S
H1275 C1305 0.950 . S
C1276 H1258 0.951 . S
C1276 C1277 1.366 . S
C1276 C1278 1.388 . S
C1277 C1276 1.366 . S
C1277 C1281 1.385 . S
C1278 H1259 0.951 . S
C1278 C1276 1.388 . S
C1278 C1279 1.366 . S
C1279 C1278 1.366 . S
C1279 C1280 1.414 . S
C1279 C1282 1.499 . S
C1280 H1260 0.950 . S
C1280 C1279 1.414 . S
C1280 C1281 1.374 . S
C1281 H1261 0.950 . S
C1281 C1277 1.385 . S
C1281 C1280 1.374 . S
C1282 C1279 1.499 . S
C1282 C1283 1.373 . S
C1282 C1284 1.389 . S
C1283 H1262 0.950 . S
C1283 C1282 1.373 . S
C1283 C1299 1.377 . S
C1284 C1282 1.389 . S
C1284 C1285 1.524 . S
C1284 C1298 1.377 . S
C1285 C1284 1.524 . S
C1285 C1286 1.397 . S
C1285 C1290 1.363 . S
C1286 H1263 0.950 . S
C1286 C1285 1.397 . S
C1286 C1287 1.334 . S
C1287 H1264 0.950 1_554 S
C1287 C1286 1.334 . S
C1287 C1288 1.287 . S
C1288 C1287 1.287 . S
C1288 C1289 1.524 . S
C1288 H1307 0.913 1_554 S
C1289 H1265 0.950 . S
C1289 C1288 1.524 . S
C1289 C1290 1.415 . S
C1290 H1266 0.950 . S
C1290 C1285 1.363 . S
C1290 C1289 1.415 . S
C1291 H1267 0.951 . S
C1291 C1292 1.366 . S
C1291 C1293 1.388 . S
C1292 C1291 1.366 . S
C1292 C1296 1.385 . S
C1293 H1268 0.951 . S
C1293 C1291 1.388 . S
C1293 C1294 1.366 . S
C1294 C1293 1.366 . S
C1294 C1295 1.414 . S
C1294 C1297 1.499 . S
C1295 H1269 0.950 . S
C1295 C1294 1.414 . S
C1295 C1296 1.374 . S
C1296 H1270 0.950 . S
C1296 C1292 1.385 . S
C1296 C1295 1.374 . S
C1297 C1294 1.499 . S
C1297 C1298 1.373 . S
C1297 C1299 1.389 . S
C1298 H1271 0.950 . S
C1298 C1284 1.377 . S
C1298 C1297 1.373 . S
C1299 C1283 1.377 . S
C1299 C1297 1.389 . S
C1299 C1300 1.524 . S
C1300 C1299 1.524 . S
C1300 C1301 1.397 . S
C1300 C1305 1.363 . S
C1301 H1272 0.950 . S
C1301 C1300 1.397 . S
C1301 C1302 1.334 . S
C1302 H1273 0.950 . S
C1302 C1301 1.334 . S
C1302 C1303 1.287 . S
C1303 C1302 1.287 . S
C1303 C1304 1.524 . S
C1303 H1306 0.999 . S
C1304 H1274 0.950 . S
C1304 C1303 1.524 . S
C1304 C1305 1.415 . S
C1305 H1275 0.950 . S
C1305 C1300 1.363 . S
C1305 C1304 1.415 . S
H1306 C1303 0.999 . S
H1307 C1288 0.913 1_556 S
H1308 C1326 0.951 . S
H1309 C1328 0.951 . S
H1310 C1330 0.950 . S
H1311 C1331 0.950 . S
H1312 C1333 0.950 . S
H1313 C1336 0.950 . S
H1314 C1337 0.950 . S
H1315 C1339 0.950 . S
H1316 C1340 0.950 . S
H1317 C1341 0.951 . S
H1318 C1343 0.951 . S
H1319 C1345 0.950 . S
H1320 C1346 0.950 . S
H1321 C1348 0.950 . S
H1322 C1351 0.950 . S
H1323 C1352 0.950 . S
H1324 C1354 0.950 . S
H1325 C1355 0.950 . S
C1326 H1308 0.951 . S
C1326 C1327 1.366 . S
C1326 C1328 1.388 . S
C1327 C1326 1.366 . S
C1327 C1331 1.385 . S
C1328 H1309 0.951 . S
C1328 C1326 1.388 . S
C1328 C1329 1.366 . S
C1329 C1328 1.366 . S
C1329 C1330 1.414 . S
C1329 C1332 1.499 . S
C1330 H1310 0.950 . S
C1330 C1329 1.414 . S
C1330 C1331 1.374 . S
C1331 H1311 0.950 . S
C1331 C1327 1.385 . S
C1331 C1330 1.374 . S
C1332 C1329 1.499 . S
C1332 C1333 1.373 . S
C1332 C1334 1.389 . S
C1333 H1312 0.950 . S
C1333 C1332 1.373 . S
C1333 C1349 1.377 . S
C1334 C1332 1.389 . S
C1334 C1335 1.524 . S
C1334 C1348 1.377 . S
C1335 C1334 1.524 . S
C1335 C1336 1.397 . S
C1335 C1340 1.363 . S
C1336 H1313 0.950 . S
C1336 C1335 1.397 . S
C1336 C1337 1.334 . S
C1337 H1314 0.950 . S
C1337 C1336 1.334 . S
C1337 C1338 1.287 . S
C1338 C1337 1.287 . S
C1338 C1339 1.524 1_455 S
C1338 H1357 0.913 . S
C1339 H1315 0.950 . S
C1339 C1338 1.524 1_655 S
C1339 C1340 1.415 1_655 S
C1340 H1316 0.950 . S
C1340 C1335 1.363 . S
C1340 C1339 1.415 1_455 S
C1341 H1317 0.951 . S
C1341 C1342 1.366 . S
C1341 C1343 1.388 . S
C1342 C1341 1.366 . S
C1342 C1346 1.385 . S
C1343 H1318 0.951 . S
C1343 C1341 1.388 . S
C1343 C1344 1.366 . S
C1344 C1343 1.366 . S
C1344 C1345 1.414 . S
C1344 C1347 1.499 . S
C1345 H1319 0.950 . S
C1345 C1344 1.414 . S
C1345 C1346 1.374 . S
C1346 H1320 0.950 . S
C1346 C1342 1.385 . S
C1346 C1345 1.374 . S
C1347 C1344 1.499 . S
C1347 C1348 1.373 . S
C1347 C1349 1.389 . S
C1348 H1321 0.950 . S
C1348 C1334 1.377 . S
C1348 C1347 1.373 . S
C1349 C1333 1.377 . S
C1349 C1347 1.389 . S
C1349 C1350 1.524 . S
C1350 C1349 1.524 . S
C1350 C1351 1.397 . S
C1350 C1355 1.363 . S
C1351 H1322 0.950 . S
C1351 C1350 1.397 . S
C1351 C1352 1.334 . S
C1352 H1323 0.950 . S
C1352 C1351 1.334 . S
C1352 C1353 1.287 . S
C1353 C1352 1.287 . S
C1353 C1354 1.524 . S
C1353 H1356 0.999 . S
C1354 H1324 0.950 . S
C1354 C1353 1.524 . S
C1354 C1355 1.415 . S
C1355 H1325 0.950 . S
C1355 C1350 1.363 . S
C1355 C1354 1.415 . S
H1356 C1353 0.999 . S
H1357 C1338 0.913 . S
H1358 C1376 0.951 . S
H1359 C1378 0.951 . S
H1360 C1380 0.950 . S
H1361 C1381 0.950 . S
H1362 C1383 0.950 . S
H1363 C1386 0.950 . S
H1364 C1387 0.950 . S
H1365 C1389 0.950 . S
H1366 C1390 0.950 . S
H1367 C1391 0.951 . S
H1368 C1393 0.951 . S
H1369 C1395 0.950 . S
H1370 C1396 0.950 . S
H1371 C1398 0.950 . S
H1372 C1401 0.950 . S
H1373 C1402 0.950 . S
H1374 C1404 0.950 . S
H1375 C1405 0.950 . S
C1376 H1358 0.951 . S
C1376 C1377 1.366 . S
C1376 C1378 1.388 . S
C1377 C1376 1.366 . S
C1377 C1381 1.385 . S
C1378 H1359 0.951 . S
C1378 C1376 1.388 . S
C1378 C1379 1.366 . S
C1379 C1378 1.366 . S
C1379 C1380 1.414 . S
C1379 C1382 1.499 . S
C1380 H1360 0.950 . S
C1380 C1379 1.414 . S
C1380 C1381 1.374 . S
C1381 H1361 0.950 . S
C1381 C1377 1.385 . S
C1381 C1380 1.374 . S
C1382 C1379 1.499 . S
C1382 C1383 1.373 . S
C1382 C1384 1.389 . S
C1383 H1362 0.950 . S
C1383 C1382 1.373 . S
C1383 C1399 1.377 . S
C1384 C1382 1.389 . S
C1384 C1385 1.524 . S
C1384 C1398 1.377 . S
C1385 C1384 1.524 . S
C1385 C1386 1.397 . S
C1385 C1390 1.363 . S
C1386 H1363 0.950 . S
C1386 C1385 1.397 . S
C1386 C1387 1.334 . S
C1387 H1364 0.950 . S
C1387 C1386 1.334 . S
C1387 C1388 1.287 . S
C1388 C1387 1.287 . S
C1388 C1389 1.524 . S
C1388 H1407 0.913 . S
C1389 H1365 0.950 . S
C1389 C1388 1.524 . S
C1389 C1390 1.415 . S
C1390 H1366 0.950 . S
C1390 C1385 1.363 . S
C1390 C1389 1.415 . S
C1391 H1367 0.951 . S
C1391 C1392 1.366 . S
C1391 C1393 1.388 . S
C1392 C1391 1.366 . S
C1392 C1396 1.385 . S
C1393 H1368 0.951 . S
C1393 C1391 1.388 . S
C1393 C1394 1.366 . S
C1394 C1393 1.366 . S
C1394 C1395 1.414 . S
C1394 C1397 1.499 . S
C1395 H1369 0.950 . S
C1395 C1394 1.414 . S
C1395 C1396 1.374 . S
C1396 H1370 0.950 . S
C1396 C1392 1.385 . S
C1396 C1395 1.374 . S
C1397 C1394 1.499 . S
C1397 C1398 1.373 . S
C1397 C1399 1.389 . S
C1398 H1371 0.950 . S
C1398 C1384 1.377 . S
C1398 C1397 1.373 . S
C1399 C1383 1.377 . S
C1399 C1397 1.389 . S
C1399 C1400 1.524 . S
C1400 C1399 1.524 . S
C1400 C1401 1.397 . S
C1400 C1405 1.363 . S
C1401 H1372 0.950 . S
C1401 C1400 1.397 . S
C1401 C1402 1.334 . S
C1402 H1373 0.950 . S
C1402 C1401 1.334 . S
C1402 C1403 1.287 . S
C1403 C1402 1.287 . S
C1403 C1404 1.524 . S
C1403 H1406 0.999 . S
C1404 H1374 0.950 . S
C1404 C1403 1.524 . S
C1404 C1405 1.415 . S
C1405 H1375 0.950 . S
C1405 C1400 1.363 . S
C1405 C1404 1.415 . S
H1406 C1403 0.999 . S
H1407 C1388 0.913 . S
C227 C5 2.294 . S
C242 C72 2.305 . S
C277 C14 2.244 . S
C292 C114 2.249 . S
C342 C144 0.907 . S
C327 C25 0.906 . S
C377 C34 0.947 . S
C392 C178 0.950 . S
C442 C135 1.813 . S
C427 C7 1.802 . S
C492 C89 1.830 . S
C477 C13 1.824 . S
C542 C182 1.272 . S
C527 C23 1.265 . S
C592 C148 1.312 . S
C577 C31 1.301 . S
C627 C4 2.168 . S
C642 C203 2.178 . S
C692 C110 1.051 . S
C677 C22 1.047 . S
C727 C32 1.045 . S
C742 C85 1.055 . S
C777 C16 2.131 . S
C792 C169 2.137 . S
C842 C101 2.289 . S
C827 C41 2.279 . S
C877 C50 2.252 . S
C892 C123 2.257 . S
C927 C61 0.899 . S
C942 C153 0.901 . S
C977 C67 0.960 . S
C992 C187 0.964 . S
C1027 C40 1.821 . S
C1042 C106 1.831 . S
C1092 C80 1.808 . S
C1077 C52 1.804 . S
C1142 C191 1.280 . S
C1127 C59 1.269 . S
C1192 C157 1.307 . S
C1177 C70 1.295 . S
C1227 C43 2.168 . S
C1242 C174 2.177 . S
C1292 C119 1.057 . S
C1277 C58 1.052 . S
C1342 C76 1.046 . S
C1327 C68 1.038 . S
C1377 C49 2.140 . S
C1392 C140 2.147 . S
