# Generated by pormake.
# Topology sqc, (4,8)-cn, num edge types: 1
# Building blocks:
#     Node 0, Type 0, BuildingBlock: MIFKUJ_clean_linker_1, # of connection points: 4
#     Node 1, Type 0, BuildingBlock: MIFKUJ_clean_linker_1, # of connection points: 4
#     Node 2, Type 0, BuildingBlock: MIFKUJ_clean_linker_1, # of connection points: 4
#     Node 3, Type 0, BuildingBlock: MIFKUJ_clean_linker_1, # of connection points: 4
#     Node 4, Type 0, BuildingBlock: MIFKUJ_clean_linker_1, # of connection points: 4
#     Node 5, Type 0, BuildingBlock: MIFKUJ_clean_linker_1, # of connection points: 4
#     Node 6, Type 0, BuildingBlock: MIFKUJ_clean_linker_1, # of connection points: 4
#     Node 7, Type 0, BuildingBlock: MIFKUJ_clean_linker_1, # of connection points: 4
#     Node 8, Type 1, BuildingBlock: VETTIZ_charged_sbu_0, # of connection points: 8
#     Node 9, Type 1, BuildingBlock: VETTIZ_charged_sbu_0, # of connection points: 8
#     Node 10, Type 1, BuildingBlock: VETTIZ_charged_sbu_0, # of connection points: 8
#     Node 11, Type 1, BuildingBlock: VETTIZ_charged_sbu_0, # of connection points: 8
#     Edge 12, Type (0, 1), BuildingBlock: OJICUG_clean_linker_0, # of connection points: 2
#     Edge 13, Type (0, 1), BuildingBlock: OJICUG_clean_linker_0, # of connection points: 2
#     Edge 14, Type (0, 1), BuildingBlock: OJICUG_clean_linker_0, # of connection points: 2
#     Edge 15, Type (0, 1), BuildingBlock: OJICUG_clean_linker_0, # of connection points: 2
#     Edge 16, Type (0, 1), BuildingBlock: OJICUG_clean_linker_0, # of connection points: 2
#     Edge 17, Type (0, 1), BuildingBlock: OJICUG_clean_linker_0, # of connection points: 2
#     Edge 18, Type (0, 1), BuildingBlock: OJICUG_clean_linker_0, # of connection points: 2
#     Edge 19, Type (0, 1), BuildingBlock: OJICUG_clean_linker_0, # of connection points: 2
#     Edge 20, Type (0, 1), BuildingBlock: OJICUG_clean_linker_0, # of connection points: 2
#     Edge 21, Type (0, 1), BuildingBlock: OJICUG_clean_linker_0, # of connection points: 2
#     Edge 22, Type (0, 1), BuildingBlock: OJICUG_clean_linker_0, # of connection points: 2
#     Edge 23, Type (0, 1), BuildingBlock: OJICUG_clean_linker_0, # of connection points: 2
#     Edge 24, Type (0, 1), BuildingBlock: OJICUG_clean_linker_0, # of connection points: 2
#     Edge 25, Type (0, 1), BuildingBlock: OJICUG_clean_linker_0, # of connection points: 2
#     Edge 26, Type (0, 1), BuildingBlock: OJICUG_clean_linker_0, # of connection points: 2
#     Edge 27, Type (0, 1), BuildingBlock: OJICUG_clean_linker_0, # of connection points: 2
#     Edge 28, Type (0, 1), BuildingBlock: OJICUG_clean_linker_0, # of connection points: 2
#     Edge 29, Type (0, 1), BuildingBlock: OJICUG_clean_linker_0, # of connection points: 2
#     Edge 30, Type (0, 1), BuildingBlock: OJICUG_clean_linker_0, # of connection points: 2
#     Edge 31, Type (0, 1), BuildingBlock: OJICUG_clean_linker_0, # of connection points: 2
#     Edge 32, Type (0, 1), BuildingBlock: OJICUG_clean_linker_0, # of connection points: 2
#     Edge 33, Type (0, 1), BuildingBlock: OJICUG_clean_linker_0, # of connection points: 2
#     Edge 34, Type (0, 1), BuildingBlock: OJICUG_clean_linker_0, # of connection points: 2
#     Edge 35, Type (0, 1), BuildingBlock: OJICUG_clean_linker_0, # of connection points: 2
#     Edge 36, Type (0, 1), BuildingBlock: OJICUG_clean_linker_0, # of connection points: 2
#     Edge 37, Type (0, 1), BuildingBlock: OJICUG_clean_linker_0, # of connection points: 2
#     Edge 38, Type (0, 1), BuildingBlock: OJICUG_clean_linker_0, # of connection points: 2
#     Edge 39, Type (0, 1), BuildingBlock: OJICUG_clean_linker_0, # of connection points: 2
#     Edge 40, Type (0, 1), BuildingBlock: OJICUG_clean_linker_0, # of connection points: 2
#     Edge 41, Type (0, 1), BuildingBlock: OJICUG_clean_linker_0, # of connection points: 2
#     Edge 42, Type (0, 1), BuildingBlock: OJICUG_clean_linker_0, # of connection points: 2
#     Edge 43, Type (0, 1), BuildingBlock: OJICUG_clean_linker_0, # of connection points: 2
# Relax obj value: 0.137
# Max RMSD: 0.270
# Mean RMSD: 0.176
data_MOF--net-sqc--node1-VETTIZ_charged_sbu_0--node2-MIFKUJ_clean_linker_1--edge1-OJICUG_clean_linker_0
_symmetry_space_group_name_H-M    P1
_symmetry_Int_Tables_number       1
_symmetry_cell_setting            triclinic
loop_
_symmetry_equiv_pos_as_xyz
'x, y, z'
_cell_length_a     22.274337
_cell_length_b     22.343017
_cell_length_c     64.630552
_cell_angle_alpha  89.876265
_cell_angle_beta   89.655179
_cell_angle_gamma 89.58376
loop_
_atom_site_label
_atom_site_type_symbol
_atom_site_fract_x
_atom_site_fract_y
_atom_site_fract_z
_atom_type_partial_charge
H0 H 0.95077 0.93982 0.47645 0.0
H1 H 0.85855 0.90766 0.45972 0.0
H2 H 0.79289 0.08975 0.4594 0.0
H3 H 0.88618 0.12241 0.47625 0.0
H4 H 0.03985 0.01521 0.46733 0.0
H5 H 0.88115 0.99718 0.5182 0.0
H6 H 0.78281 0.01995 0.53337 0.0
H7 H 0.8332 0.20558 0.53922 0.0
H8 H 0.93077 0.1827 0.52341 0.0
H9 H 0.18267 0.13298 0.50795 0.0
H10 H 0.26792 0.14707 0.53102 0.0
H11 H 0.18748 0.02532 0.57511 0.0
H12 H 0.1013 0.01393 0.55232 0.0
H13 H 0.02038 0.10111 0.53778 0.0
H14 H 0.14477 0.07612 0.4594 0.0
H15 H 0.23472 0.03105 0.44388 0.0
H16 H 0.24653 0.90759 0.49533 0.0
H17 H 0.15731 0.95354 0.51085 0.0
C18 C 0.92525 0.03342 0.47776 0.0
C19 C 0.91727 0.97321 0.47242 0.0
C20 C 0.86457 0.95483 0.46292 0.0
C21 C 0.81889 0.99631 0.45836 0.0
C22 C 0.8278 0.05715 0.46268 0.0
C23 C 0.88074 0.07563 0.47238 0.0
C24 C 0.97849 0.05004 0.4902 0.0
C25 C 0.03571 0.03512 0.48258 0.0
C26 C 0.97287 0.07454 0.51031 0.0
C27 C 0.9132 0.08834 0.51957 0.0
C28 C 0.87069 0.04293 0.52251 0.0
C29 C 0.81453 0.05598 0.53124 0.0
C30 C 0.79987 0.11466 0.53742 0.0
C31 C 0.84245 0.16013 0.53428 0.0
C32 C 0.8986 0.14703 0.52551 0.0
C33 C 0.13519 0.07296 0.52849 0.0
C34 C 0.1836 0.10923 0.52257 0.0
C35 C 0.23278 0.11666 0.53574 0.0
C36 C 0.23503 0.08749 0.5551 0.0
C37 C 0.18716 0.04955 0.56059 0.0
C38 C 0.13768 0.04286 0.54755 0.0
C39 C 0.082 0.06615 0.51484 0.0
C40 C 0.02477 0.08294 0.52229 0.0
C41 C 0.08729 0.04212 0.49468 0.0
C42 C 0.14488 0.01868 0.48638 0.0
C43 C 0.16729 0.03983 0.46742 0.0
C44 C 0.21837 0.0137 0.45851 0.0
C45 C 0.2477 0.96554 0.46832 0.0
C46 C 0.22562 0.94516 0.48751 0.0
C47 C 0.17464 0.97143 0.49643 0.0
H48 H 0.26646 0.85622 0.81355 0.0
H49 H 0.2386 0.94434 0.83315 0.0
H50 H 0.17768 0.03002 0.77681 0.0
H51 H 0.19811 0.93855 0.75796 0.0
H52 H 0.20575 0.77819 0.79558 0.0
H53 H 0.36304 0.91749 0.76383 0.0
H54 H 0.39244 1.00599 0.74358 0.0
H55 H 0.26386 0.95946 0.69666 0.0
H56 H 0.23547 0.87077 0.71675 0.0
H57 H 0.2766 0.68602 0.71361 0.0
H58 H 0.31902 0.59534 0.69821 0.0
H59 H 0.38466 0.5395 0.75798 0.0
H60 H 0.34327 0.63131 0.77334 0.0
H61 H 0.32318 0.77709 0.73021 0.0
H62 H 0.18084 0.63613 0.75281 0.0
H63 H 0.14414 0.54185 0.76741 0.0
H64 H 0.21937 0.58926 0.82656 0.0
H65 H 0.25708 0.68246 0.81177 0.0
C66 C 0.23547 0.8901 0.78404 0.0
C67 C 0.24661 0.89378 0.80539 0.0
C68 C 0.23155 0.94535 0.81662 0.0
C69 C 0.20601 0.9959 0.80682 0.0
C70 C 0.19624 0.9925 0.78528 0.0
C71 C 0.20944 0.94006 0.7742 0.0
C72 C 0.24974 0.83328 0.7726 0.0
C73 C 0.23219 0.77811 0.78143 0.0
C74 C 0.28064 0.83244 0.75331 0.0
C75 C 0.29698 0.88771 0.74182 0.0
C76 C 0.34105 0.92661 0.74924 0.0
C77 C 0.35784 0.97697 0.73764 0.0
C78 C 0.33027 0.98972 0.71856 0.0
C79 C 0.28541 0.95119 0.71139 0.0
C80 C 0.26944 0.90037 0.72279 0.0
C81 C 0.30622 0.6657 0.74469 0.0
C82 C 0.30029 0.65454 0.72344 0.0
C83 C 0.32467 0.60263 0.71465 0.0
C84 C 0.35555 0.56038 0.72687 0.0
C85 C 0.3608 0.57097 0.7482 0.0
C86 C 0.33692 0.6234 0.75698 0.0
C87 C 0.28211 0.72241 0.75383 0.0
C88 C 0.297 0.77722 0.74442 0.0
C89 C 0.24651 0.72286 0.77205 0.0
C90 C 0.22235 0.66636 0.78113 0.0
C91 C 0.18979 0.626 0.7689 0.0
C92 C 0.16851 0.57218 0.77729 0.0
C93 C 0.17936 0.55742 0.7981 0.0
C94 C 0.21126 0.59838 0.81035 0.0
C95 C 0.2323 0.65219 0.80199 0.0
H96 H 0.40097 0.03367 0.06254 0.0
H97 H 0.3068 0.9958 0.07651 0.0
H98 H 0.27182 0.90687 0.01853 0.0
H99 H 0.36772 0.94318 0.0049 0.0
H100 H 0.49886 0.97325 0.05007 0.0
H101 H 0.36022 0.11762 0.01679 0.0
H102 H 0.2746 0.14793 0.99531 0.0
H103 H 0.34505 0.04154 0.94492 0.0
H104 H 0.43074 0.01195 0.96636 0.0
H105 H 0.60734 0.0244 0.97189 0.0
H106 H 0.70398 0.05105 0.95703 0.0
H107 H 0.7509 0.14216 0.01355 0.0
H108 H 0.65214 0.11695 0.0282 0.0
H109 H 0.51556 0.08832 0.98465 0.0
H110 H 0.66232 0.95955 0.01404 0.0
H111 H 0.75261 0.93302 0.03261 0.0
H112 H 0.66836 0.99066 0.08981 0.0
H113 H 0.58105 0.02432 0.07049 0.0
C114 C 0.39135 0.99178 0.03262 0.0
C115 C 0.37297 1.00621 0.05279 0.0
C116 C 0.31858 0.98505 0.06067 0.0
C117 C 0.2811 0.9488 0.04856 0.0
C118 C 0.29947 0.9346 0.02828 0.0
C119 C 0.35411 0.95576 0.02041 0.0
C120 C 0.45024 0.01311 0.02468 0.0
C121 C 0.50272 0.99931 0.03596 0.0
C122 C 0.45507 0.04537 0.00589 0.0
C123 C 0.40179 0.06226 0.99323 0.0
C124 C 0.35706 0.10064 1.00115 0.0
C125 C 0.30838 0.11822 0.98882 0.0
C126 C 0.30304 0.09714 0.9684 0.0
C127 C 0.3476 0.0582 0.96061 0.0
C128 C 0.3967 0.04144 0.97283 0.0
C129 C 0.6227 0.06818 1.0012 0.0
C130 C 0.6381 0.05056 0.98106 0.0
C131 C 0.6938 0.06517 0.97269 0.0
C132 C 0.73568 0.09762 0.98429 0.0
C133 C 0.71968 0.11689 1.00429 0.0
C134 C 0.66348 0.10233 0.01268 0.0
C135 C 0.56437 0.04904 0.01007 0.0
C136 C 0.51199 0.06291 0.99892 0.0
C137 C 0.5602 0.0159 0.02879 0.0
C138 C 0.6148 0.9959 0.0406 0.0
C139 C 0.66379 0.96835 0.03049 0.0
C140 C 0.71555 0.95179 0.04138 0.0
C141 C 0.71917 0.95926 0.06302 0.0
C142 C 0.66912 0.98533 0.07319 0.0
C143 C 0.6181 1.0038 0.06213 0.0
H144 H 0.19043 0.17336 0.32156 0.0
H145 H 0.24362 0.09929 0.34296 0.0
H146 H 0.37579 0.07616 0.29444 0.0
H147 H 0.32216 0.14936 0.27304 0.0
H148 H 0.25001 0.27741 0.30863 0.0
H149 H 0.13311 0.12352 0.27796 0.0
H150 H 0.10645 0.03082 0.26005 0.0
H151 H 0.2281 0.07706 0.21025 0.0
H152 H 0.25291 0.16993 0.22786 0.0
H153 H 0.25949 0.35275 0.22502 0.0
H154 H 0.24099 0.44071 0.20303 0.0
H155 H 0.10179 0.49968 0.2452 0.0
H156 H 0.12117 0.41235 0.26733 0.0
H157 H 0.17848 0.26164 0.23641 0.0
H158 H 0.29673 0.41241 0.26726 0.0
H159 H 0.33623 0.49714 0.28646 0.0
H160 H 0.22547 0.45046 0.33899 0.0
H161 H 0.18335 0.36706 0.31936 0.0
C162 C 0.25191 0.16605 0.29562 0.0
C163 C 0.23015 0.15131 0.3154 0.0
C164 C 0.2607 0.10949 0.32763 0.0
C165 C 0.3142 0.08293 0.32042 0.0
C166 C 0.33514 0.09679 0.30045 0.0
C167 C 0.30406 0.13778 0.28811 0.0
C168 C 0.2265 0.21758 0.28417 0.0
C169 C 0.23218 0.27412 0.29308 0.0
C170 C 0.20565 0.21278 0.2637 0.0
C171 C 0.1945 0.15384 0.2541 0.0
C172 C 0.15448 0.11316 0.26328 0.0
C173 C 0.13941 0.06015 0.25308 0.0
C174 C 0.16434 0.04706 0.23357 0.0
C175 C 0.20682 0.08655 0.22501 0.0
C176 C 0.22132 0.13957 0.23507 0.0
C177 C 0.19163 0.37597 0.2478 0.0
C178 C 0.22517 0.3848 0.22956 0.0
C179 C 0.21495 0.4352 0.21711 0.0
C180 C 0.17005 0.47696 0.22244 0.0
C181 C 0.13661 0.46808 0.24072 0.0
C182 C 0.14763 0.41832 0.25337 0.0
C183 C 0.20248 0.32219 0.26087 0.0
C184 C 0.19422 0.2652 0.25221 0.0
C185 C 0.22083 0.32652 0.28174 0.0
C186 C 0.23619 0.38392 0.2917 0.0
C187 C 0.27878 0.42175 0.28253 0.0
C188 C 0.30194 0.46968 0.2936 0.0
C189 C 0.28398 0.47964 0.31417 0.0
C190 C 0.2401 0.44314 0.32318 0.0
C191 C 0.21592 0.39594 0.31193 0.0
H192 H 0.78491 0.34723 0.22732 0.0
H193 H 0.80849 0.44181 0.21053 0.0
H194 H 0.90086 0.50013 0.26543 0.0
H195 H 0.87857 0.40383 0.28207 0.0
H196 H 0.84463 0.25818 0.24065 0.0
H197 H 0.71603 0.39849 0.26813 0.0
H198 H 0.67711 0.48924 0.28353 0.0
H199 H 0.74749 0.43428 0.34291 0.0
H200 H 0.79254 0.34583 0.32662 0.0
H201 H 0.82552 0.15337 0.32111 0.0
H202 H 0.79529 0.06025 0.3382 0.0
H203 H 0.67125 0.02629 0.28843 0.0
H204 H 0.70287 0.1182 0.27134 0.0
H205 H 0.74977 0.25223 0.31022 0.0
H206 H 0.88241 0.10571 0.27279 0.0
H207 H 0.90194 0.01819 0.25081 0.0
H208 H 0.77674 0.08682 0.20571 0.0
H209 H 0.75766 0.17429 0.22768 0.0
C210 C 0.82951 0.36835 0.25604 0.0
C211 C 0.8108 0.37995 0.23572 0.0
C212 C 0.82373 0.4345 0.22622 0.0
C213 C 0.8557 0.47904 0.23677 0.0
C214 C 0.87608 0.46684 0.2569 0.0
C215 C 0.86305 0.41197 0.26646 0.0
C216 C 0.81233 0.31119 0.26633 0.0
C217 C 0.82374 0.2571 0.25585 0.0
C218 C 0.78338 0.30982 0.28597 0.0
C219 C 0.75895 0.36546 0.29596 0.0
C220 C 0.72496 0.40654 0.28433 0.0
C221 C 0.70125 0.45828 0.29339 0.0
C222 C 0.70809 0.46956 0.31469 0.0
C223 C 0.74172 0.42807 0.32644 0.0
C224 C 0.767 0.37682 0.31717 0.0
C225 C 0.76693 0.14243 0.29484 0.0
C226 C 0.79215 0.12545 0.31385 0.0
C227 C 0.77464 0.07227 0.32363 0.0
C228 C 0.73104 0.03521 0.31469 0.0
C229 C 0.70602 0.0526 0.29559 0.0
C230 C 0.72379 0.10549 0.2858 0.0
C231 C 0.78416 0.19974 0.2848 0.0
C232 C 0.77189 0.25384 0.29524 0.0
C233 C 0.80871 0.20153 0.26455 0.0
C234 C 0.81858 0.14661 0.2519 0.0
C235 C 0.85882 0.10165 0.25826 0.0
C236 C 0.87011 0.05182 0.24563 0.0
C237 C 0.84091 0.04558 0.22648 0.0
C238 C 0.79955 0.08998 0.22041 0.0
C239 C 0.78892 0.14018 0.2329 0.0
H240 H 0.6223 0.8444 0.74611 0.0
H241 H 0.59386 0.94013 0.7303 0.0
H242 H 0.7802 0.99335 0.73048 0.0
H243 H 0.80839 0.89627 0.74441 0.0
H244 H 0.69344 0.75361 0.73243 0.0
H245 H 0.7006 0.89505 0.7895 0.0
H246 H 0.7344 0.99079 0.80313 0.0
H247 H 0.9187 0.9305 0.79777 0.0
H248 H 0.88447 0.83592 0.78316 0.0
H249 H 0.87775 0.64366 0.78106 0.0
H250 H 0.90098 0.55105 0.79992 0.0
H251 H 0.71183 0.52143 0.81001 0.0
H252 H 0.68862 0.61337 0.79047 0.0
H253 H 0.81124 0.74482 0.79727 0.0
H254 H 0.80972 0.60242 0.74351 0.0
H255 H 0.7852 0.51417 0.72321 0.0
H256 H 0.60324 0.58019 0.71668 0.0
H257 H 0.62683 0.66535 0.73838 0.0
C258 C 0.71749 0.86309 0.74661 0.0
C259 C 0.65699 0.8766 0.74251 0.0
C260 C 0.64067 0.93186 0.73379 0.0
C261 C 0.68457 0.97492 0.72907 0.0
C262 C 0.74502 0.96126 0.7335 0.0
C263 C 0.76132 0.90574 0.74173 0.0
C264 C 0.73482 0.8051 0.75643 0.0
C265 C 0.71807 0.75142 0.74684 0.0
C266 C 0.76978 0.8027 0.77468 0.0
C267 C 0.78997 0.85828 0.78518 0.0
C268 C 0.74831 0.90249 0.79124 0.0
C269 C 0.76778 0.95731 0.79906 0.0
C270 C 0.82944 0.96891 0.8014 0.0
C271 C 0.87099 0.92391 0.79574 0.0
C272 C 0.85145 0.86923 0.78775 0.0
C273 C 0.7815 0.63532 0.7843 0.0
C274 C 0.84126 0.61688 0.7871 0.0
C275 C 0.85441 0.5638 0.79775 0.0
C276 C 0.80812 0.52888 0.80628 0.0
C277 C 0.74826 0.54735 0.80348 0.0
C278 C 0.73505 0.59976 0.79236 0.0
C279 C 0.76774 0.69288 0.77366 0.0
C280 C 0.78577 0.74663 0.78303 0.0
C281 C 0.73489 0.69519 0.75495 0.0
C282 C 0.71983 0.64023 0.74301 0.0
C283 C 0.76405 0.59704 0.73824 0.0
C284 C 0.75022 0.54697 0.7262 0.0
C285 C 0.69206 0.53938 0.71825 0.0
C286 C 0.64818 0.58326 0.72284 0.0
C287 C 0.66178 0.63266 0.73515 0.0
H288 H 0.40196 0.37235 1.00131 0.0
H289 H 0.30597 0.34646 0.98554 0.0
H290 H 0.25056 0.53212 0.9888 0.0
H291 H 0.34767 0.55806 1.00304 0.0
H292 H 0.48723 0.44292 0.98547 0.0
H293 H 0.37275 0.44388 0.05089 0.0
H294 H 0.28151 0.47107 0.07049 0.0
H295 H 0.31158 0.65724 0.05628 0.0
H296 H 0.40344 0.63014 0.03725 0.0
H297 H 0.59352 0.63616 0.03016 0.0
H298 H 0.68885 0.66915 0.04461 0.0
H299 H 0.74965 0.48532 0.0479 0.0
H300 H 0.65362 0.45249 0.03367 0.0
H301 H 0.51065 0.56416 0.04905 0.0
H302 H 0.64202 0.55881 0.99021 0.0
H303 H 0.72876 0.52964 0.96963 0.0
H304 H 0.6591 0.34968 0.96554 0.0
H305 H 0.57671 0.37765 0.98826 0.0
C306 C 0.38188 0.46705 1.00352 0.0
C307 C 0.36891 0.40732 0.99869 0.0
C308 C 0.31372 0.3925 0.98993 0.0
C309 C 0.27057 0.43725 0.98588 0.0
C310 C 0.28301 0.49664 0.99148 0.0
C311 C 0.33835 0.51148 0.99989 0.0
C312 C 0.44184 0.48373 0.0114 0.0
C313 C 0.49298 0.46817 0.99963 0.0
C314 C 0.44816 0.51846 0.0295 0.0
C315 C 0.39517 0.535 0.04264 0.0
C316 C 0.36 0.49061 0.05218 0.0
C317 C 0.30779 0.50611 0.0633 0.0
C318 C 0.28897 0.56618 0.06468 0.0
C319 C 0.32449 0.6105 0.05523 0.0
C320 C 0.37735 0.59515 0.04455 0.0
C321 C 0.61641 0.54191 0.0309 0.0
C322 C 0.62759 0.60302 0.03384 0.0
C323 C 0.68242 0.62185 0.04183 0.0
C324 C 0.72695 0.57985 0.04728 0.0
C325 C 0.71619 0.5187 0.04386 0.0
C326 C 0.66141 0.4999 0.03574 0.0
C327 C 0.55701 0.52223 0.02334 0.0
C328 C 0.50565 0.53779 0.0351 0.0
C329 C 0.55083 0.48701 0.00521 0.0
C330 C 0.60311 0.47022 0.99155 0.0
C331 C 0.64624 0.51256 0.98544 0.0
C332 C 0.69561 0.4959 0.97311 0.0
C333 C 0.70233 0.43677 0.96575 0.0
C334 C 0.65754 0.39515 0.97123 0.0
C335 C 0.60928 0.41143 0.98409 0.0
H336 H 0.91856 0.44637 0.45831 0.0
H337 H 0.82399 0.456 0.43924 0.0
H338 H 0.75552 0.57518 0.4865 0.0
H339 H 0.84986 0.56622 0.50518 0.0
H340 H 0.99876 0.53579 0.46888 0.0
H341 H 0.86293 0.39682 0.5093 0.0
H342 H 0.77492 0.37788 0.53122 0.0
H343 H 0.82816 0.52151 0.57174 0.0
H344 H 0.91672 0.53858 0.55016 0.0
H345 H 0.09739 0.51242 0.55321 0.0
H346 H 0.1908 0.48435 0.57004 0.0
H347 H 0.25271 0.39999 0.51358 0.0
H348 H 0.15728 0.42539 0.49716 0.0
H349 H 0.0103 0.45401 0.54011 0.0
H350 H 0.14399 0.58477 0.51104 0.0
H351 H 0.23316 0.62516 0.49501 0.0
H352 H 0.17843 0.55178 0.43616 0.0
H353 H 0.09312 0.50484 0.45308 0.0
C354 C 0.89099 0.50489 0.48333 0.0
C355 C 0.88295 0.47435 0.46457 0.0
C356 C 0.82893 0.47967 0.45373 0.0
C357 C 0.7819 0.51545 0.46153 0.0
C358 C 0.79018 0.54586 0.48035 0.0
C359 C 0.84425 0.541 0.49104 0.0
C360 C 0.94875 0.49973 0.49456 0.0
C361 C 1.00191 0.51677 0.48429 0.0
C362 C 0.95157 0.4801 0.51537 0.0
C363 C 0.89674 0.46888 0.52814 0.0
C364 C 0.8554 0.42433 0.52287 0.0
C365 C 0.80467 0.41401 0.53535 0.0
C366 C 0.79404 0.44814 0.55336 0.0
C367 C 0.83503 0.49363 0.55824 0.0
C368 C 0.88584 0.50353 0.54588 0.0
C369 C 0.12005 0.47127 0.52386 0.0
C370 C 0.13091 0.48771 0.54444 0.0
C371 C 0.18501 0.47235 0.55396 0.0
C372 C 0.22996 0.44036 0.54314 0.0
C373 C 0.21918 0.42431 0.52245 0.0
C374 C 0.16472 0.4393 0.51297 0.0
C375 C 0.06159 0.48638 0.51395 0.0
C376 C 1.00807 0.47232 0.52457 0.0
C377 C 0.05831 0.51271 0.49396 0.0
C378 C 0.11208 0.53982 0.48356 0.0
C379 C 0.15191 0.57569 0.4948 0.0
C380 C 0.2027 0.60035 0.48535 0.0
C381 C 0.21412 0.5924 0.46405 0.0
C382 C 0.17288 0.55813 0.45265 0.0
C383 C 0.12304 0.53176 0.4623 0.0
Fe384 Fe 1.0049 0.763 0.16618 0.0
O385 O 0.05343 0.79453 0.1426 0.0
Fe386 Fe 0.86554 0.73957 0.14476 0.0
Fe387 Fe 0.14116 0.78559 0.1422 0.0
O388 O 0.95306 0.73059 0.14389 0.0
O389 O 0.95341 0.72952 0.14169 0.0
O390 O 0.05313 0.79491 0.14036 0.0
Fe391 Fe 1.00227 0.7608 0.11778 0.0
C392 C 0.10443 0.8454 0.18232 0.0
O393 O 0.05215 0.68488 0.16592 0.0
O394 O 0.14448 0.72072 0.16573 0.0
O395 O 0.94016 0.71859 0.098 0.0
O396 O 0.86857 0.67942 0.12049 0.0
O397 O 0.87377 0.67984 0.16875 0.0
O398 O 0.94847 0.72179 0.18834 0.0
O399 O 0.14612 0.71911 0.12075 0.0
O400 O 0.05392 0.68239 0.11635 0.0
C401 C 0.90471 0.68419 0.1856 0.0
O402 O 0.95073 0.8391 0.11601 0.0
O403 O 0.85889 0.80336 0.12222 0.0
O404 O 0.06467 0.80482 0.18683 0.0
O405 O 0.1339 0.84824 0.16502 0.0
C406 C 0.10719 0.67948 0.17026 0.0
C407 C 0.11103 0.67903 0.11422 0.0
C408 C 0.10794 0.8361 0.09961 0.0
O409 O 0.13578 0.84271 0.1171 0.0
O410 O 0.06246 0.80056 0.09633 0.0
C411 C 0.8949 0.68364 0.10249 0.0
O412 O 0.86458 0.80674 0.16742 0.0
O413 O 0.9576 0.8413 0.16703 0.0
C414 C 0.89355 0.84232 0.11447 0.0
C415 C 0.90288 0.84668 0.17213 0.0
Fe416 Fe 0.54955 0.75419 0.43816 0.0
O417 O 0.55572 0.75348 0.40768 0.0
Fe418 Fe 0.52826 0.83264 0.39229 0.0
Fe419 Fe 0.51334 0.69355 0.39003 0.0
O420 O 0.55683 0.76013 0.40773 0.0
O421 O 0.48649 0.77237 0.37478 0.0
O422 O 0.48552 0.76628 0.37473 0.0
Fe423 Fe 0.48787 0.77282 0.34453 0.0
C424 C 0.58912 0.62966 0.42391 0.0
O425 O 0.4754 0.6992 0.43981 0.0
O426 O 0.43713 0.69724 0.40808 0.0
O427 O 0.43636 0.84849 0.34916 0.0
O428 O 0.48959 0.90063 0.37385 0.0
O429 O 0.45242 0.83835 0.41045 0.0
O430 O 0.4933 0.82713 0.44138 0.0
O431 O 0.46232 0.64138 0.36948 0.0
O432 O 0.42093 0.71097 0.34718 0.0
C433 C 0.45073 0.84514 0.42992 0.0
O434 O 0.55977 0.82976 0.34249 0.0
O435 O 0.60345 0.83204 0.37347 0.0
O436 O 0.59956 0.67751 0.4346 0.0
O437 O 0.55104 0.62535 0.4087 0.0
C438 C 0.43223 0.68976 0.42748 0.0
C439 C 0.42369 0.65802 0.3554 0.0
C440 C 0.58426 0.67431 0.35179 0.0
O441 O 0.5881 0.68421 0.37114 0.0
O442 O 0.54436 0.69989 0.34074 0.0
C443 C 0.44845 0.89636 0.35964 0.0
O444 O 0.57885 0.88539 0.4132 0.0
O445 O 0.61701 0.81575 0.43628 0.0
C446 C 0.60347 0.84346 0.35412 0.0
C447 C 0.61574 0.8686 0.42786 0.0
Fe448 Fe 0.51782 0.26405 0.6616 0.0
O449 O 0.5644 0.22932 0.63798 0.0
Fe450 Fe 0.38034 0.29831 0.64032 0.0
Fe451 Fe 0.65258 0.23385 0.63702 0.0
O452 O 0.46811 0.30023 0.63922 0.0
O453 O 0.4682 0.30088 0.63697 0.0
O454 O 0.56433 0.22967 0.63567 0.0
Fe455 Fe 0.51452 0.26623 0.61301 0.0
C456 C 0.62424 0.33998 0.6659 0.0
O457 O 0.57605 0.21729 0.68216 0.0
O458 O 0.64446 0.17227 0.66016 0.0
O459 O 0.45956 0.19121 0.61173 0.0
O460 O 0.36983 0.23259 0.61884 0.0
O461 O 0.37588 0.23322 0.66365 0.0
O462 O 0.46554 0.18961 0.66253 0.0
O463 O 0.64418 0.17701 0.61205 0.0
O464 O 0.5729 0.22401 0.59149 0.0
C465 C 0.41066 0.18913 0.66776 0.0
O466 O 0.45365 0.31017 0.59305 0.0
O467 O 0.38558 0.35623 0.61532 0.0
O468 O 0.56919 0.33868 0.66139 0.0
O469 O 0.65997 0.29791 0.6605 0.0
C470 C 0.61756 0.17733 0.6779 0.0
C471 C 0.61795 0.18704 0.59442 0.0
C472 C 0.62576 0.34193 0.60883 0.0
O473 O 0.65928 0.30015 0.61551 0.0
O474 O 0.56868 0.34175 0.61106 0.0
C475 C 0.40211 0.19123 0.611 0.0
O476 O 0.39403 0.35946 0.66333 0.0
O477 O 0.46361 0.31023 0.68361 0.0
C478 C 0.40971 0.34752 0.59717 0.0
C479 C 0.42506 0.35339 0.6801 0.0
Fe480 Fe 1.00609 0.26697 0.91429 0.0
O481 O 0.97705 0.21383 0.89175 0.0
Fe482 Fe 0.02024 0.40422 0.88994 0.0
Fe483 Fe 0.99116 0.1272 0.89191 0.0
O484 O 0.03455 0.31749 0.89073 0.0
O485 O 0.03516 0.3171 0.88839 0.0
O486 O 0.97615 0.21409 0.88945 0.0
Fe487 Fe 1.00467 0.26456 0.86558 0.0
C488 C 0.09754 0.16925 0.91873 0.0
O489 O 0.96991 0.2076 0.93629 0.0
O490 O 0.93278 0.1307 0.91658 0.0
O491 O 0.9233 0.31053 0.86439 0.0
O492 O 0.95585 0.40425 0.86763 0.0
O493 O 0.95273 0.4042 0.91244 0.0
O494 O 0.92409 0.30939 0.91483 0.0
O495 O 0.92928 0.12762 0.86845 0.0
O496 O 0.96552 0.19966 0.84566 0.0
C497 C 0.91437 0.36482 0.91774 0.0
O498 O 0.04181 0.32773 0.84429 0.0
O499 O 0.08027 0.40173 0.8656 0.0
O500 O 0.08814 0.22448 0.9152 0.0
O501 O 0.05971 0.12943 0.91361 0.0
C502 C 0.93624 0.16089 0.93363 0.0
C503 C 0.93219 0.15325 0.85037 0.0
C504 C 0.09149 0.16193 0.86139 0.0
O505 O 0.05377 0.12508 0.86868 0.0
O506 O 0.08596 0.21841 0.86381 0.0
C507 C 0.91743 0.36679 0.86147 0.0
O508 O 0.08048 0.40261 0.91381 0.0
O509 O 0.04272 0.32889 0.93501 0.0
C510 C 0.07532 0.37469 0.84789 0.0
C511 C 0.07774 0.37409 0.93127 0.0
C512 C 0.30105 0.92485 0.43692 0.0
C513 C 0.30015 0.9356 0.45837 0.0
H514 H 0.34904 0.88785 0.4111 0.0
C515 C 0.34925 0.91654 0.47029 0.0
H516 H 0.26353 0.93812 0.42733 0.0
C517 C 0.39796 0.8872 0.46103 0.0
C518 C 0.39889 0.87637 0.4396 0.0
H519 H 0.35036 0.92476 0.48679 0.0
H520 H 0.43498 0.87317 0.47074 0.0
C521 C 0.34991 0.89563 0.42763 0.0
C522 C 0.3082 0.08108 0.69676 0.0
C523 C 0.3501 0.04139 0.70569 0.0
H524 H 0.29417 0.15933 0.67795 0.0
C525 C 0.41144 0.05028 0.70179 0.0
H526 H 0.26058 0.07529 0.69952 0.0
C527 C 0.43053 0.09745 0.68919 0.0
C528 C 0.38892 0.13788 0.68046 0.0
H529 H 0.44475 0.02004 0.70821 0.0
H530 H 0.47821 0.10237 0.68642 0.0
C531 C 0.32743 0.12919 0.68443 0.0
C532 C 0.2194 0.07337 0.94372 0.0
C533 C 0.25137 0.11583 0.95522 0.0
H534 H 0.14587 0.05664 0.92331 0.0
C535 C 0.23363 0.17627 0.95402 0.0
H536 H 0.23179 0.02644 0.94437 0.0
C537 C 0.18495 0.19376 0.9417 0.0
C538 C 0.152 0.15112 0.93056 0.0
H539 H 0.25771 0.21018 0.9625 0.0
H540 H 0.17249 0.24066 0.94122 0.0
C541 C 0.17005 0.09071 0.93168 0.0
C542 C 0.13479 1.00196 0.19999 0.0
C543 C 0.1438 0.99492 0.22132 0.0
H544 H 0.11503 0.96027 0.17126 0.0
C545 C 0.13401 0.93828 0.23036 0.0
H546 H 0.13962 0.04526 0.19261 0.0
C547 C 0.11864 0.88908 0.21799 0.0
C548 C 0.11356 0.8961 0.19648 0.0
H549 H 0.14021 0.9316 0.24681 0.0
H550 H 0.11323 0.84543 0.22505 0.0
C551 C 0.12033 0.95324 0.18775 0.0
C552 C 0.27039 0.106 0.59145 0.0
C553 C 0.28395 0.10101 0.57022 0.0
H554 H 0.29867 0.13635 0.62117 0.0
C555 C 0.34283 0.11469 0.5636 0.0
H556 H 0.22578 0.09667 0.59729 0.0
C557 C 0.38505 0.13771 0.57753 0.0
C558 C 0.36915 0.14742 0.59832 0.0
H559 H 0.3555 0.11031 0.54748 0.0
H560 H 0.42811 0.1526 0.57167 0.0
C561 C 0.31239 0.12876 0.60526 0.0
C562 C 0.13683 0.08528 0.81268 0.0
C563 C 0.18563 0.04949 0.81927 0.0
H564 H 0.07144 0.15227 0.8207 0.0
C565 C 0.21089 0.06246 0.83877 0.0
H566 H 0.11487 0.07725 0.79809 0.0
C567 C 0.1841 0.10471 0.85204 0.0
C568 C 0.13316 0.13701 0.8458 0.0
H569 H 0.24968 0.03808 0.84435 0.0
H570 H 0.20087 0.10933 0.86766 0.0
C571 C 0.11156 0.12881 0.82569 0.0
C572 C 0.21036 0.86267 0.05454 0.0
C573 C 0.22541 0.92308 0.05779 0.0
H574 H 0.15885 0.78757 0.06515 0.0
C575 C 0.1908 0.9568 0.07189 0.0
H576 H 0.23618 0.83522 0.04389 0.0
C577 C 0.14695 0.92933 0.08408 0.0
C578 C 0.13583 0.8679 0.08213 0.0
H579 H 0.20004 1.00374 0.07442 0.0
H580 H 0.12474 0.95516 0.09611 0.0
C581 C 0.16574 0.83533 0.06661 0.0
C582 C 0.31829 0.99042 0.34207 0.0
C583 C 0.34779 0.03987 0.33345 0.0
H584 H 0.32794 0.90581 0.35737 0.0
C585 C 0.41012 0.04566 0.33617 0.0
H586 H 0.27037 0.98491 0.34013 0.0
C587 C 0.44286 1.00106 0.34646 0.0
C588 C 0.41372 0.94975 0.35378 0.0
H589 H 0.43369 0.08377 0.32978 0.0
H590 H 0.49124 1.00477 0.34746 0.0
C591 C 0.35112 0.9454 0.35194 0.0
C592 C 0.72394 0.08842 0.56467 0.0
C593 C 0.7431 0.12754 0.54893 0.0
H594 H 0.6675 0.0763 0.59123 0.0
C595 C 0.71129 0.18156 0.54594 0.0
H596 H 0.74748 0.04667 0.56754 0.0
C597 C 0.66475 0.19827 0.55948 0.0
C598 C 0.64972 0.16146 0.57635 0.0
H599 H 0.72437 0.21228 0.53376 0.0
H600 H 0.64435 0.24219 0.55783 0.0
C601 C 0.67795 0.10532 0.57826 0.0
C602 C 0.70036 0.97994 0.3472 0.0
C603 C 0.70896 0.98043 0.32557 0.0
H604 H 0.66116 0.9351 0.3733 0.0
C605 C 0.69147 0.92984 0.31422 0.0
H606 H 0.7128 0.01809 0.35649 0.0
C607 C 0.66143 0.88263 0.3239 0.0
C608 C 0.64897 0.88428 0.34523 0.0
H609 H 0.69885 0.92767 0.29767 0.0
H610 H 0.64526 0.84612 0.31449 0.0
C611 C 0.67094 0.93218 0.35692 0.0
C612 C 0.80825 0.88867 0.06755 0.0
C613 C 0.77304 0.93695 0.07498 0.0
H614 H 0.87674 0.8235 0.074 0.0
C615 C 0.78779 0.96071 0.09456 0.0
H616 H 0.79868 0.86755 0.05292 0.0
C617 C 0.8322 0.93374 0.10692 0.0
C618 C 0.86471 0.88391 0.09971 0.0
H619 H 0.7636 0.99877 0.10082 0.0
H620 H 0.83868 0.9497 0.12256 0.0
C621 C 0.85365 0.86308 0.07966 0.0
C622 C 0.90422 0.05327 0.80479 0.0
C623 C 0.85022 0.02578 0.81106 0.0
H624 H 0.97204 0.11775 0.81203 0.0
C625 C 0.81846 0.05031 0.82792 0.0
H626 H 0.92927 0.03641 0.7916 0.0
C627 C 0.8425 0.09732 0.83929 0.0
C628 C 0.89888 0.12117 0.83416 0.0
H629 H 0.77704 0.03046 0.83334 0.0
H630 H 0.81907 0.11197 0.85315 0.0
C631 C 0.92828 0.10069 0.81623 0.0
C632 C 0.73775 0.98644 0.4315 0.0
C633 C 0.76026 0.9737 0.45132 0.0
H634 H 0.67277 0.96344 0.40835 0.0
C635 C 0.72962 0.93328 0.46406 0.0
H636 H 0.7608 0.01773 0.42145 0.0
C637 C 0.68009 0.90264 0.45669 0.0
C638 C 0.65999 0.91127 0.43629 0.0
H639 H 0.74572 0.92342 0.4795 0.0
H640 H 0.65907 0.87 0.46677 0.0
C641 C 0.68759 0.95541 0.42402 0.0
C642 C 0.81051 0.96207 0.20238 0.0
C643 C 0.85576 0.99451 0.21246 0.0
H644 H 0.7895 0.88957 0.18187 0.0
C645 C 0.91596 0.97857 0.20879 0.0
H646 H 0.76366 0.97323 0.20494 0.0
C647 C 0.9307 0.93152 0.19545 0.0
C648 C 0.88566 0.89834 0.18553 0.0
H649 H 0.95193 1.00305 0.21607 0.0
H650 H 0.97774 0.92072 0.19314 0.0
C651 C 0.82528 0.91413 0.1892 0.0
C652 C 0.82454 0.06792 0.9629 0.0
C653 C 0.79516 0.11133 0.97503 0.0
H654 H 0.8928 0.04955 0.94048 0.0
C655 C 0.82024 0.16881 0.97645 0.0
H656 H 0.80769 0.02263 0.96207 0.0
C657 C 0.87043 0.18392 0.96438 0.0
C658 C 0.89513 0.14218 0.95043 0.0
H659 H 0.79896 0.20309 0.98584 0.0
H660 H 0.88713 0.22925 0.96493 0.0
C661 C 0.87361 0.08326 0.95063 0.0
C662 C 0.70797 0.0541 0.70285 0.0
C663 C 0.66863 0.03162 0.71799 0.0
H664 H 0.72372 0.11832 0.6792 0.0
C665 C 0.61377 0.06219 0.72148 0.0
H666 H 0.75008 0.03178 0.69933 0.0
C667 C 0.5979 0.11243 0.70945 0.0
C668 C 0.63643 0.13253 0.69364 0.0
H669 H 0.58267 0.04676 0.73324 0.0
H670 H 0.55465 0.13374 0.71193 0.0
C671 C 0.69239 0.10384 0.69105 0.0
C672 C 0.78693 0.46 0.94025 0.0
C673 C 0.7558 0.41835 0.95274 0.0
H674 H 0.86118 0.47632 0.91967 0.0
C675 C 0.77691 0.35866 0.95284 0.0
H676 H 0.77189 0.506 0.9391 0.0
C677 C 0.82675 0.34135 0.94093 0.0
C678 C 0.85879 0.38332 0.9291 0.0
H679 H 0.75594 0.32491 0.96241 0.0
H680 H 0.841 0.29503 0.94139 0.0
C681 C 0.83809 0.44289 0.92883 0.0
C682 C 0.92303 0.56587 0.22734 0.0
C683 C 0.86665 0.5378 0.22654 0.0
H684 H 0.97918 0.63588 0.21534 0.0
C685 C 0.82103 0.56439 0.21468 0.0
H686 H 0.95909 0.54665 0.23641 0.0
C687 C 0.8327 0.61458 0.20252 0.0
C688 C 0.89019 0.64007 0.20202 0.0
H689 H 0.77656 0.54514 0.21423 0.0
H690 H 0.79709 0.63202 0.19283 0.0
C691 C 0.93458 0.61692 0.21526 0.0
C692 C 0.72934 0.54126 0.42839 0.0
C693 C 0.72615 0.52589 0.4495 0.0
H694 H 0.68529 0.58531 0.40308 0.0
C695 C 0.67046 0.52991 0.45976 0.0
H696 H 0.77163 0.53876 0.42007 0.0
C697 C 0.62115 0.55612 0.44996 0.0
C698 C 0.62656 0.57819 0.42971 0.0
H699 H 0.66635 0.51733 0.4759 0.0
H700 H 0.58078 0.5649 0.45893 0.0
C701 C 0.67974 0.56736 0.41856 0.0
C702 C 0.71874 0.46017 0.69147 0.0
C703 C 0.6767 0.48628 0.70527 0.0
H704 H 0.73556 0.393 0.66824 0.0
C705 C 0.61881 0.46173 0.70636 0.0
H706 H 0.76359 0.47804 0.68999 0.0
C707 C 0.6027 0.41432 0.69362 0.0
C708 C 0.64416 0.38896 0.67963 0.0
H709 H 0.58557 0.47891 0.71715 0.0
H710 H 0.5575 0.39711 0.69489 0.0
C711 C 0.70274 0.41162 0.6789 0.0
C712 C 0.81131 0.65229 0.05328 0.0
C713 C 0.78081 0.59957 0.0588 0.0
H714 H 0.87384 0.71956 0.06262 0.0
C715 C 0.7972 0.56962 0.07706 0.0
H716 H 0.80009 0.67593 0.03915 0.0
C717 C 0.83893 0.59468 0.09044 0.0
C718 C 0.86569 0.64987 0.08577 0.0
H719 H 0.77446 0.52915 0.08183 0.0
H720 H 0.84741 0.57273 0.10511 0.0
C721 C 0.85389 0.677 0.06659 0.0
C722 C 0.70233 0.55251 0.34176 0.0
C723 C 0.67791 0.52293 0.32447 0.0
H724 H 0.69225 0.62351 0.36407 0.0
C725 C 0.62322 0.54461 0.3165 0.0
H726 H 0.7445 0.53779 0.34834 0.0
C727 C 0.59466 0.59452 0.32507 0.0
C728 C 0.61873 0.62395 0.34231 0.0
H729 H 0.60125 0.52239 0.30379 0.0
H730 H 0.55234 0.60891 0.31847 0.0
C731 C 0.67273 0.60209 0.35071 0.0
C732 C 0.7527 0.43482 0.58943 0.0
C733 C 0.74357 0.43313 0.5679 0.0
H734 H 0.72067 0.40897 0.61943 0.0
C735 C 0.68794 0.4122 0.56063 0.0
H736 H 0.7949 0.44979 0.59575 0.0
C737 C 0.64479 0.38921 0.57443 0.0
C738 C 0.65652 0.38663 0.59574 0.0
H739 H 0.67881 0.41101 0.5442 0.0
H740 H 0.60479 0.36869 0.56826 0.0
C741 C 0.70986 0.41173 0.60312 0.0
C742 C 0.80464 0.47411 0.84016 0.0
C743 C 0.82333 0.47613 0.81936 0.0
H744 H 0.81983 0.43577 0.8702 0.0
C745 C 0.86316 0.43182 0.81203 0.0
H746 H 0.77444 0.50807 0.84624 0.0
C747 C 0.88738 0.38915 0.82559 0.0
C748 C 0.87309 0.39078 0.84678 0.0
H749 H 0.87833 0.43245 0.79607 0.0
H750 H 0.92194 0.35889 0.81991 0.0
C751 C 0.83002 0.43233 0.85382 0.0
C752 C 0.19045 0.62158 0.06744 0.0
C753 C 0.23364 0.58348 0.07642 0.0
H754 H 0.11424 0.67918 0.07251 0.0
C755 C 0.22657 0.56707 0.09731 0.0
H756 H 0.19462 0.63483 0.05137 0.0
C757 C 0.18065 0.59274 0.10942 0.0
C758 C 0.13983 0.63385 0.10074 0.0
H759 H 0.25934 0.53813 0.10467 0.0
H760 H 0.18 0.58423 0.12593 0.0
C761 C 0.14375 0.64609 0.07944 0.0
C762 C 0.19123 0.46892 0.82186 0.0
C763 C 0.15632 0.50067 0.80741 0.0
H764 H 0.19292 0.40207 0.84564 0.0
C765 C 0.09765 0.48055 0.80342 0.0
H766 H 0.23698 0.48213 0.82499 0.0
C767 C 0.07283 0.4334 0.815 0.0
C768 C 0.1063 0.40563 0.83072 0.0
H769 H 0.06939 0.504 0.79244 0.0
H770 H 0.02592 0.4225 0.81296 0.0
C771 C 0.1664 0.42228 0.83344 0.0
C772 C 0.31129 0.4576 0.56927 0.0
C773 C 0.28592 0.42109 0.55396 0.0
H774 H 0.37153 0.46285 0.5949 0.0
C775 C 0.31104 0.36381 0.55059 0.0
H776 H 0.29448 0.50254 0.57193 0.0
C777 C 0.35678 0.34186 0.56339 0.0
C778 C 0.37766 0.37652 0.57991 0.0
H779 H 0.2926 0.33419 0.53906 0.0
H780 H 0.37191 0.29597 0.56151 0.0
C781 C 0.35611 0.43529 0.58225 0.0
C782 C 0.31628 0.58468 0.31851 0.0
C783 C 0.31358 0.5264 0.32633 0.0
H784 H 0.3521 0.6719 0.32168 0.0
C785 C 0.34351 0.51209 0.34479 0.0
H786 H 0.29325 0.5966 0.30435 0.0
C787 C 0.37826 0.55513 0.35477 0.0
C788 C 0.38282 0.61314 0.34649 0.0
H789 H 0.34208 0.46702 0.35098 0.0
H790 H 0.40255 0.54259 0.3686 0.0
C791 C 0.3501 0.62769 0.32854 0.0
C792 C 0.18437 0.36962 0.97678 0.0
C793 C 0.21581 0.42343 0.97386 0.0
H794 H 0.11483 0.312 0.96583 0.0
C795 C 0.19714 0.46291 0.95819 0.0
H796 H 0.19726 0.33856 0.98888 0.0
C797 C 0.15008 0.44801 0.94519 0.0
C798 C 0.12049 0.393 0.94738 0.0
H799 H 0.22069 0.50432 0.95525 0.0
H800 H 0.13841 0.47894 0.9329 0.0
C801 C 0.13686 0.35464 0.96371 0.0
C802 C 0.41403 0.51194 0.69826 0.0
C803 C 0.38258 0.50622 0.71704 0.0
H804 H 0.4533 0.46722 0.67222 0.0
C805 C 0.37377 0.44848 0.72533 0.0
H806 H 0.4227 0.5557 0.69169 0.0
C807 C 0.39204 0.39742 0.71417 0.0
C808 C 0.4196 0.40374 0.69471 0.0
H809 H 0.34968 0.44274 0.73979 0.0
H810 H 0.3812 0.35339 0.72008 0.0
C811 C 0.4321 0.46134 0.68722 0.0
C812 C 0.2959 0.67101 0.46211 0.0
C813 C 0.26884 0.61922 0.45395 0.0
H814 H 0.36905 0.73301 0.46037 0.0
C815 C 0.29557 0.59277 0.4363 0.0
H816 H 0.27639 0.69447 0.47516 0.0
C817 C 0.34743 0.61695 0.42729 0.0
C818 C 0.37511 0.66697 0.43605 0.0
H819 H 0.27762 0.5524 0.42961 0.0
H820 H 0.36715 0.5952 0.41387 0.0
C821 C 0.34888 0.69383 0.4535 0.0
C822 C 0.20049 0.56683 0.20113 0.0
C823 C 0.15566 0.52794 0.20847 0.0
H824 H 0.22065 0.64592 0.18344 0.0
C825 C 0.09612 0.53775 0.20237 0.0
H826 H 0.24685 0.56007 0.20559 0.0
C827 C 0.0814 0.58564 0.18945 0.0
C828 C 0.12555 0.62615 0.18262 0.0
H829 H 0.06079 0.50801 0.20751 0.0
H830 H 0.03486 0.59127 0.18507 0.0
C831 C 0.18551 0.61588 0.18847 0.0
loop_
_geom_bond_atom_site_label_1
_geom_bond_atom_site_label_2
_geom_bond_distance
_geom_bond_site_symmetry_2
_ccdc_geom_bond_type
H0 C19 0.949 . S
H1 C20 0.950 . S
H2 C22 0.950 1_545 S
H3 C23 0.950 . S
H4 C25 0.950 . S
H5 C28 0.950 1_565 S
H6 C29 0.950 . S
H7 C31 0.951 . S
H8 C32 0.949 . S
H9 C34 0.949 . S
H10 C35 0.950 . S
H11 C37 0.950 . S
H12 C38 0.950 1_565 S
H13 C40 0.950 . S
H14 C43 0.950 . S
H15 C44 0.950 1_545 S
H16 C46 0.951 . S
H17 C47 0.949 . S
C18 C19 1.376 . S
C18 C23 1.386 1_565 S
C18 C24 1.483 . S
C19 H0 0.949 . S
C19 C18 1.376 . S
C19 C20 1.397 . S
C20 H1 0.950 . S
C20 C19 1.397 . S
C20 C21 1.391 . S
C21 C20 1.391 . S
C21 C22 1.405 . S
C22 H2 0.950 1_565 S
C22 C21 1.405 . S
C22 C23 1.367 1_565 S
C23 H3 0.950 . S
C23 C18 1.386 1_545 S
C23 C22 1.367 1_545 S
C24 C18 1.483 . S
C24 C25 1.382 . S
C24 C26 1.403 1_565 S
C25 H4 0.950 . S
C25 C24 1.382 . S
C25 C41 1.411 1_655 S
C26 C24 1.403 1_545 S
C26 C27 1.489 . S
C26 C40 1.411 1_655 S
C27 C26 1.489 . S
C27 C28 1.383 . S
C27 C32 1.382 . S
C28 H5 0.950 1_545 S
C28 C27 1.383 . S
C28 C29 1.395 . S
C29 H6 0.950 . S
C29 C28 1.395 . S
C29 C30 1.288 . S
C30 C29 1.288 . S
C30 C31 1.392 . S
C31 H7 0.951 . S
C31 C30 1.392 . S
C31 C32 1.392 . S
C32 H8 0.949 . S
C32 C27 1.382 . S
C32 C31 1.392 . S
C33 C34 1.376 . S
C33 C38 1.386 . S
C33 C39 1.483 . S
C34 H9 0.949 . S
C34 C33 1.376 . S
C34 C35 1.397 . S
C35 H10 0.950 . S
C35 C34 1.397 . S
C35 C36 1.391 . S
C36 C35 1.391 . S
C36 C37 1.405 . S
C37 H11 0.950 . S
C37 C36 1.405 . S
C37 C38 1.367 . S
C38 H12 0.950 1_545 S
C38 C33 1.386 . S
C38 C37 1.367 . S
C39 C33 1.483 . S
C39 C40 1.382 . S
C39 C41 1.403 1_545 S
C40 H13 0.950 . S
C40 C26 1.411 1_455 S
C40 C39 1.382 . S
C41 C25 1.411 1_455 S
C41 C39 1.403 1_565 S
C41 C42 1.489 . S
C42 C41 1.489 . S
C42 C43 1.383 1_565 S
C42 C47 1.382 . S
C43 H14 0.950 . S
C43 C42 1.383 1_545 S
C43 C44 1.395 1_545 S
C44 H15 0.950 1_565 S
C44 C43 1.395 1_565 S
C44 C45 1.288 . S
C45 C44 1.288 . S
C45 C46 1.392 . S
C46 H16 0.951 . S
C46 C45 1.392 . S
C46 C47 1.392 . S
C47 H17 0.949 . S
C47 C42 1.382 . S
C47 C46 1.392 . S
H48 C67 0.949 . S
H49 C68 0.950 . S
H50 C70 0.950 . S
H51 C71 0.950 . S
H52 C73 0.950 . S
H53 C76 0.950 . S
H54 C77 0.950 . S
H55 C79 0.951 . S
H56 C80 0.949 . S
H57 C82 0.949 . S
H58 C83 0.950 . S
H59 C85 0.950 . S
H60 C86 0.950 . S
H61 C88 0.950 . S
H62 C91 0.950 . S
H63 C92 0.950 . S
H64 C94 0.951 . S
H65 C95 0.949 . S
C66 C67 1.376 . S
C66 C71 1.386 . S
C66 C72 1.483 . S
C67 H48 0.949 . S
C67 C66 1.376 . S
C67 C68 1.397 . S
C68 H49 0.950 . S
C68 C67 1.397 . S
C68 C69 1.391 . S
C69 C68 1.391 . S
C69 C70 1.405 . S
C70 H50 0.950 . S
C70 C69 1.405 . S
C70 C71 1.367 . S
C71 H51 0.950 . S
C71 C66 1.386 . S
C71 C70 1.367 . S
C72 C66 1.483 . S
C72 C73 1.382 . S
C72 C74 1.403 . S
C73 H52 0.950 . S
C73 C72 1.382 . S
C73 C89 1.411 . S
C74 C72 1.403 . S
C74 C75 1.489 . S
C74 C88 1.411 . S
C75 C74 1.489 . S
C75 C76 1.383 . S
C75 C80 1.382 . S
C76 H53 0.950 . S
C76 C75 1.383 . S
C76 C77 1.395 . S
C77 H54 0.950 . S
C77 C76 1.395 . S
C77 C78 1.288 . S
C78 C77 1.288 . S
C78 C79 1.392 . S
C79 H55 0.951 . S
C79 C78 1.392 . S
C79 C80 1.392 . S
C80 H56 0.949 . S
C80 C75 1.382 . S
C80 C79 1.392 . S
C81 C82 1.376 . S
C81 C86 1.386 . S
C81 C87 1.483 . S
C82 H57 0.949 . S
C82 C81 1.376 . S
C82 C83 1.397 . S
C83 H58 0.950 . S
C83 C82 1.397 . S
C83 C84 1.391 . S
C84 C83 1.391 . S
C84 C85 1.405 . S
C85 H59 0.950 . S
C85 C84 1.405 . S
C85 C86 1.367 . S
C86 H60 0.950 . S
C86 C81 1.386 . S
C86 C85 1.367 . S
C87 C81 1.483 . S
C87 C88 1.382 . S
C87 C89 1.403 . S
C88 H61 0.950 . S
C88 C74 1.411 . S
C88 C87 1.382 . S
C89 C73 1.411 . S
C89 C87 1.403 . S
C89 C90 1.489 . S
C90 C89 1.489 . S
C90 C91 1.383 . S
C90 C95 1.382 . S
C91 H62 0.950 . S
C91 C90 1.383 . S
C91 C92 1.395 . S
C92 H63 0.950 . S
C92 C91 1.395 . S
C92 C93 1.288 . S
C93 C92 1.288 . S
C93 C94 1.392 . S
C94 H64 0.951 . S
C94 C93 1.392 . S
C94 C95 1.392 . S
C95 H65 0.949 . S
C95 C90 1.382 . S
C95 C94 1.392 . S
H96 C115 0.949 1_545 S
H97 C116 0.950 . S
H98 C118 0.950 . S
H99 C119 0.950 . S
H100 C121 0.950 . S
H101 C124 0.892 1_554 S
H102 C125 0.950 . S
H103 C127 0.951 . S
H104 C128 0.949 . S
H105 C130 0.949 1_565 S
H106 C131 0.950 . S
H107 C133 0.950 . S
H108 C134 0.972 . S
H109 C136 0.950 . S
H110 C139 0.950 . S
H111 C140 0.950 . S
H112 C142 0.951 . S
H113 C143 0.956 . S
C114 C115 1.376 . S
C114 C119 1.386 . S
C114 C120 1.483 . S
C115 H96 0.949 1_565 S
C115 C114 1.376 . S
C115 C116 1.397 . S
C116 H97 0.950 . S
C116 C115 1.397 . S
C116 C117 1.391 . S
C117 C116 1.391 . S
C117 C118 1.405 . S
C118 H98 0.950 . S
C118 C117 1.405 . S
C118 C119 1.367 . S
C119 H99 0.950 . S
C119 C114 1.386 . S
C119 C118 1.367 . S
C120 C114 1.483 . S
C120 C121 1.382 . S
C120 C122 1.395 1_564 S
C121 H100 0.950 . S
C121 C120 1.382 . S
C121 C137 1.411 . S
C122 C120 1.395 1_546 S
C122 C123 1.493 . S
C122 C136 1.415 . S
C123 C122 1.493 . S
C123 C124 1.412 . S
C123 C128 1.382 . S
C124 H101 0.892 1_556 S
C124 C123 1.412 . S
C124 C125 1.426 . S
C125 H102 0.950 . S
C125 C124 1.426 . S
C125 C126 1.288 . S
C126 C125 1.288 . S
C126 C127 1.392 . S
C127 H103 0.951 . S
C127 C126 1.392 . S
C127 C128 1.392 . S
C128 H104 0.949 . S
C128 C123 1.382 . S
C128 C127 1.392 . S
C129 C130 1.376 . S
C129 C134 1.375 1_556 S
C129 C135 1.473 1_556 S
C130 H105 0.949 1_545 S
C130 C129 1.376 . S
C130 C131 1.397 . S
C131 H106 0.950 . S
C131 C130 1.397 . S
C131 C132 1.391 . S
C132 C131 1.391 . S
C132 C133 1.405 . S
C133 H107 0.950 . S
C133 C132 1.405 . S
C133 C134 1.356 1_556 S
C134 H108 0.972 . S
C134 C129 1.375 1_554 S
C134 C133 1.356 1_554 S
C135 C129 1.473 1_554 S
C135 C136 1.371 1_554 S
C135 C137 1.424 1_545 S
C136 H109 0.950 . S
C136 C122 1.415 . S
C136 C135 1.371 1_556 S
C137 C121 1.411 . S
C137 C135 1.424 1_565 S
C137 C138 1.489 . S
C138 C137 1.489 . S
C138 C139 1.383 . S
C138 C143 1.382 . S
C139 H110 0.950 . S
C139 C138 1.383 . S
C139 C140 1.395 . S
C140 H111 0.950 . S
C140 C139 1.395 . S
C140 C141 1.288 . S
C141 C140 1.288 . S
C141 C142 1.392 . S
C142 H112 0.951 . S
C142 C141 1.392 . S
C142 C143 1.392 . S
C143 H113 0.956 . S
C143 C138 1.382 . S
C143 C142 1.392 . S
H144 C163 0.949 . S
H145 C164 0.950 . S
H146 C166 0.950 . S
H147 C167 0.950 . S
H148 C169 0.950 . S
H149 C172 0.950 . S
H150 C173 0.950 . S
H151 C175 0.951 . S
H152 C176 0.949 . S
H153 C178 0.949 . S
H154 C179 0.950 . S
H155 C181 0.950 . S
H156 C182 0.950 . S
H157 C184 0.950 . S
H158 C187 0.950 . S
H159 C188 0.950 . S
H160 C190 0.951 . S
H161 C191 0.949 . S
C162 C163 1.376 . S
C162 C167 1.386 . S
C162 C168 1.483 . S
C163 H144 0.949 . S
C163 C162 1.376 . S
C163 C164 1.397 . S
C164 H145 0.950 . S
C164 C163 1.397 . S
C164 C165 1.391 . S
C165 C164 1.391 . S
C165 C166 1.405 . S
C166 H146 0.950 . S
C166 C165 1.405 . S
C166 C167 1.367 . S
C167 H147 0.950 . S
C167 C162 1.386 . S
C167 C166 1.367 . S
C168 C162 1.483 . S
C168 C169 1.382 . S
C168 C170 1.403 . S
C169 H148 0.950 . S
C169 C168 1.382 . S
C169 C185 1.411 . S
C170 C168 1.403 . S
C170 C171 1.489 . S
C170 C184 1.411 . S
C171 C170 1.489 . S
C171 C172 1.383 . S
C171 C176 1.382 . S
C172 H149 0.950 . S
C172 C171 1.383 . S
C172 C173 1.395 . S
C173 H150 0.950 . S
C173 C172 1.395 . S
C173 C174 1.288 . S
C174 C173 1.288 . S
C174 C175 1.392 . S
C175 H151 0.951 . S
C175 C174 1.392 . S
C175 C176 1.392 . S
C176 H152 0.949 . S
C176 C171 1.382 . S
C176 C175 1.392 . S
C177 C178 1.376 . S
C177 C182 1.386 . S
C177 C183 1.483 . S
C178 H153 0.949 . S
C178 C177 1.376 . S
C178 C179 1.397 . S
C179 H154 0.950 . S
C179 C178 1.397 . S
C179 C180 1.391 . S
C180 C179 1.391 . S
C180 C181 1.405 . S
C181 H155 0.950 . S
C181 C180 1.405 . S
C181 C182 1.367 . S
C182 H156 0.950 . S
C182 C177 1.386 . S
C182 C181 1.367 . S
C183 C177 1.483 . S
C183 C184 1.382 . S
C183 C185 1.403 . S
C184 H157 0.950 . S
C184 C170 1.411 . S
C184 C183 1.382 . S
C185 C169 1.411 . S
C185 C183 1.403 . S
C185 C186 1.489 . S
C186 C185 1.489 . S
C186 C187 1.383 . S
C186 C191 1.382 . S
C187 H158 0.950 . S
C187 C186 1.383 . S
C187 C188 1.395 . S
C188 H159 0.950 . S
C188 C187 1.395 . S
C188 C189 1.288 . S
C189 C188 1.288 . S
C189 C190 1.392 . S
C190 H160 0.951 . S
C190 C189 1.392 . S
C190 C191 1.392 . S
C191 H161 0.949 . S
C191 C186 1.382 . S
C191 C190 1.392 . S
H192 C211 0.949 . S
H193 C212 0.950 . S
H194 C214 0.950 . S
H195 C215 0.950 . S
H196 C217 0.950 . S
H197 C220 0.950 . S
H198 C221 0.950 . S
H199 C223 0.951 . S
H200 C224 0.949 . S
H201 C226 0.949 . S
H202 C227 0.950 . S
H203 C229 0.950 . S
H204 C230 0.950 . S
H205 C232 0.950 . S
H206 C235 0.950 . S
H207 C236 0.950 . S
H208 C238 0.951 . S
H209 C239 0.949 . S
C210 C211 1.376 . S
C210 C215 1.386 . S
C210 C216 1.483 . S
C211 H192 0.949 . S
C211 C210 1.376 . S
C211 C212 1.397 . S
C212 H193 0.950 . S
C212 C211 1.397 . S
C212 C213 1.391 . S
C213 C212 1.391 . S
C213 C214 1.405 . S
C214 H194 0.950 . S
C214 C213 1.405 . S
C214 C215 1.367 . S
C215 H195 0.950 . S
C215 C210 1.386 . S
C215 C214 1.367 . S
C216 C210 1.483 . S
C216 C217 1.382 . S
C216 C218 1.403 . S
C217 H196 0.950 . S
C217 C216 1.382 . S
C217 C233 1.411 . S
C218 C216 1.403 . S
C218 C219 1.489 . S
C218 C232 1.411 . S
C219 C218 1.489 . S
C219 C220 1.383 . S
C219 C224 1.382 . S
C220 H197 0.950 . S
C220 C219 1.383 . S
C220 C221 1.395 . S
C221 H198 0.950 . S
C221 C220 1.395 . S
C221 C222 1.288 . S
C222 C221 1.288 . S
C222 C223 1.392 . S
C223 H199 0.951 . S
C223 C222 1.392 . S
C223 C224 1.392 . S
C224 H200 0.949 . S
C224 C219 1.382 . S
C224 C223 1.392 . S
C225 C226 1.376 . S
C225 C230 1.386 . S
C225 C231 1.483 . S
C226 H201 0.949 . S
C226 C225 1.376 . S
C226 C227 1.397 . S
C227 H202 0.950 . S
C227 C226 1.397 . S
C227 C228 1.391 . S
C228 C227 1.391 . S
C228 C229 1.405 . S
C229 H203 0.950 . S
C229 C228 1.405 . S
C229 C230 1.367 . S
C230 H204 0.950 . S
C230 C225 1.386 . S
C230 C229 1.367 . S
C231 C225 1.483 . S
C231 C232 1.382 . S
C231 C233 1.403 . S
C232 H205 0.950 . S
C232 C218 1.411 . S
C232 C231 1.382 . S
C233 C217 1.411 . S
C233 C231 1.403 . S
C233 C234 1.489 . S
C234 C233 1.489 . S
C234 C235 1.383 . S
C234 C239 1.382 . S
C235 H206 0.950 . S
C235 C234 1.383 . S
C235 C236 1.395 . S
C236 H207 0.950 . S
C236 C235 1.395 . S
C236 C237 1.288 . S
C237 C236 1.288 . S
C237 C238 1.392 . S
C238 H208 0.951 . S
C238 C237 1.392 . S
C238 C239 1.392 . S
C239 H209 0.949 . S
C239 C234 1.382 . S
C239 C238 1.392 . S
H240 C259 0.949 . S
H241 C260 0.950 . S
H242 C262 0.950 . S
H243 C263 0.950 . S
H244 C265 0.950 . S
H245 C268 0.950 . S
H246 C269 0.950 . S
H247 C271 0.951 . S
H248 C272 0.949 . S
H249 C274 0.949 . S
H250 C275 0.950 . S
H251 C277 0.950 . S
H252 C278 0.950 . S
H253 C280 0.950 . S
H254 C283 0.950 . S
H255 C284 0.950 . S
H256 C286 0.951 . S
H257 C287 0.949 . S
C258 C259 1.376 . S
C258 C263 1.386 . S
C258 C264 1.483 . S
C259 H240 0.949 . S
C259 C258 1.376 . S
C259 C260 1.397 . S
C260 H241 0.950 . S
C260 C259 1.397 . S
C260 C261 1.391 . S
C261 C260 1.391 . S
C261 C262 1.405 . S
C262 H242 0.950 . S
C262 C261 1.405 . S
C262 C263 1.367 . S
C263 H243 0.950 . S
C263 C258 1.386 . S
C263 C262 1.367 . S
C264 C258 1.483 . S
C264 C265 1.382 . S
C264 C266 1.403 . S
C265 H244 0.950 . S
C265 C264 1.382 . S
C265 C281 1.411 . S
C266 C264 1.403 . S
C266 C267 1.489 . S
C266 C280 1.411 . S
C267 C266 1.489 . S
C267 C268 1.383 . S
C267 C272 1.382 . S
C268 H245 0.950 . S
C268 C267 1.383 . S
C268 C269 1.395 . S
C269 H246 0.950 . S
C269 C268 1.395 . S
C269 C270 1.288 . S
C270 C269 1.288 . S
C270 C271 1.392 . S
C271 H247 0.951 . S
C271 C270 1.392 . S
C271 C272 1.392 . S
C272 H248 0.949 . S
C272 C267 1.382 . S
C272 C271 1.392 . S
C273 C274 1.376 . S
C273 C278 1.386 . S
C273 C279 1.483 . S
C274 H249 0.949 . S
C274 C273 1.376 . S
C274 C275 1.397 . S
C275 H250 0.950 . S
C275 C274 1.397 . S
C275 C276 1.391 . S
C276 C275 1.391 . S
C276 C277 1.405 . S
C277 H251 0.950 . S
C277 C276 1.405 . S
C277 C278 1.367 . S
C278 H252 0.950 . S
C278 C273 1.386 . S
C278 C277 1.367 . S
C279 C273 1.483 . S
C279 C280 1.382 . S
C279 C281 1.403 . S
C280 H253 0.950 . S
C280 C266 1.411 . S
C280 C279 1.382 . S
C281 C265 1.411 . S
C281 C279 1.403 . S
C281 C282 1.489 . S
C282 C281 1.489 . S
C282 C283 1.383 . S
C282 C287 1.382 . S
C283 H254 0.950 . S
C283 C282 1.383 . S
C283 C284 1.395 . S
C284 H255 0.950 . S
C284 C283 1.395 . S
C284 C285 1.288 . S
C285 C284 1.288 . S
C285 C286 1.392 . S
C286 H256 0.951 . S
C286 C285 1.392 . S
C286 C287 1.392 . S
C287 H257 0.949 . S
C287 C282 1.382 . S
C287 C286 1.392 . S
H288 C307 0.949 . S
H289 C308 0.950 . S
H290 C310 0.950 . S
H291 C311 0.950 . S
H292 C313 0.950 . S
H293 C316 0.950 . S
H294 C317 0.950 . S
H295 C319 0.951 . S
H296 C320 0.949 . S
H297 C322 0.949 . S
H298 C323 0.950 . S
H299 C325 0.950 . S
H300 C326 0.950 . S
H301 C328 0.950 . S
H302 C331 0.950 . S
H303 C332 0.950 . S
H304 C334 0.951 . S
H305 C335 0.949 . S
C306 C307 1.376 . S
C306 C311 1.386 . S
C306 C312 1.483 1_556 S
C307 H288 0.949 . S
C307 C306 1.376 . S
C307 C308 1.397 . S
C308 H289 0.950 . S
C308 C307 1.397 . S
C308 C309 1.391 . S
C309 C308 1.391 . S
C309 C310 1.405 . S
C310 H290 0.950 . S
C310 C309 1.405 . S
C310 C311 1.367 . S
C311 H291 0.950 . S
C311 C306 1.386 . S
C311 C310 1.367 . S
C312 C306 1.483 1_554 S
C312 C313 1.382 1_554 S
C312 C314 1.403 . S
C313 H292 0.950 . S
C313 C312 1.382 1_556 S
C313 C329 1.411 1_556 S
C314 C312 1.403 . S
C314 C315 1.489 . S
C314 C328 1.411 . S
C315 C314 1.489 . S
C315 C316 1.383 . S
C315 C320 1.382 . S
C316 H293 0.950 . S
C316 C315 1.383 . S
C316 C317 1.395 . S
C317 H294 0.950 . S
C317 C316 1.395 . S
C317 C318 1.288 . S
C318 C317 1.288 . S
C318 C319 1.392 . S
C319 H295 0.951 . S
C319 C318 1.392 . S
C319 C320 1.392 . S
C320 H296 0.949 . S
C320 C315 1.382 . S
C320 C319 1.392 . S
C321 C322 1.376 . S
C321 C326 1.386 . S
C321 C327 1.483 . S
C322 H297 0.949 . S
C322 C321 1.376 . S
C322 C323 1.397 . S
C323 H298 0.950 . S
C323 C322 1.397 . S
C323 C324 1.391 . S
C324 C323 1.391 . S
C324 C325 1.405 . S
C325 H299 0.950 . S
C325 C324 1.405 . S
C325 C326 1.367 . S
C326 H300 0.950 . S
C326 C321 1.386 . S
C326 C325 1.367 . S
C327 C321 1.483 . S
C327 C328 1.382 . S
C327 C329 1.403 . S
C328 H301 0.950 . S
C328 C314 1.411 . S
C328 C327 1.382 . S
C329 C313 1.411 1_554 S
C329 C327 1.403 . S
C329 C330 1.489 1_554 S
C330 C329 1.489 1_556 S
C330 C331 1.383 . S
C330 C335 1.382 . S
C331 H302 0.950 . S
C331 C330 1.383 . S
C331 C332 1.395 . S
C332 H303 0.950 . S
C332 C331 1.395 . S
C332 C333 1.288 . S
C333 C332 1.288 . S
C333 C334 1.392 . S
C334 H304 0.951 . S
C334 C333 1.392 . S
C334 C335 1.392 . S
C335 H305 0.949 . S
C335 C330 1.382 . S
C335 C334 1.392 . S
H336 C355 0.949 . S
H337 C356 0.950 . S
H338 C358 0.950 . S
H339 C359 0.950 . S
H340 C361 0.950 . S
H341 C364 0.950 . S
H342 C365 0.950 . S
H343 C367 0.951 . S
H344 C368 0.949 . S
H345 C370 0.949 . S
H346 C371 0.950 . S
H347 C373 0.950 . S
H348 C374 0.950 . S
H349 C376 0.950 . S
H350 C379 0.950 . S
H351 C380 0.950 . S
H352 C382 0.951 . S
H353 C383 0.949 . S
C354 C355 1.376 . S
C354 C359 1.386 . S
C354 C360 1.483 . S
C355 H336 0.949 . S
C355 C354 1.376 . S
C355 C356 1.397 . S
C356 H337 0.950 . S
C356 C355 1.397 . S
C356 C357 1.391 . S
C357 C356 1.391 . S
C357 C358 1.405 . S
C358 H338 0.950 . S
C358 C357 1.405 . S
C358 C359 1.367 . S
C359 H339 0.950 . S
C359 C354 1.386 . S
C359 C358 1.367 . S
C360 C354 1.483 . S
C360 C361 1.382 . S
C360 C362 1.403 . S
C361 H340 0.950 . S
C361 C360 1.382 . S
C361 C377 1.411 1_655 S
C362 C360 1.403 . S
C362 C363 1.489 . S
C362 C376 1.411 1_655 S
C363 C362 1.489 . S
C363 C364 1.383 . S
C363 C368 1.382 . S
C364 H341 0.950 . S
C364 C363 1.383 . S
C364 C365 1.395 . S
C365 H342 0.950 . S
C365 C364 1.395 . S
C365 C366 1.288 . S
C366 C365 1.288 . S
C366 C367 1.392 . S
C367 H343 0.951 . S
C367 C366 1.392 . S
C367 C368 1.392 . S
C368 H344 0.949 . S
C368 C363 1.382 . S
C368 C367 1.392 . S
C369 C370 1.376 . S
C369 C374 1.386 . S
C369 C375 1.483 . S
C370 H345 0.949 . S
C370 C369 1.376 . S
C370 C371 1.397 . S
C371 H346 0.950 . S
C371 C370 1.397 . S
C371 C372 1.391 . S
C372 C371 1.391 . S
C372 C373 1.405 . S
C373 H347 0.950 . S
C373 C372 1.405 . S
C373 C374 1.367 . S
C374 H348 0.950 . S
C374 C369 1.386 . S
C374 C373 1.367 . S
C375 C369 1.483 . S
C375 C376 1.382 . S
C375 C377 1.403 . S
C376 H349 0.950 . S
C376 C362 1.411 1_455 S
C376 C375 1.382 . S
C377 C361 1.411 1_455 S
C377 C375 1.403 . S
C377 C378 1.489 . S
C378 C377 1.489 . S
C378 C379 1.383 . S
C378 C383 1.382 . S
C379 H350 0.950 . S
C379 C378 1.383 . S
C379 C380 1.395 . S
C380 H351 0.950 . S
C380 C379 1.395 . S
C380 C381 1.288 . S
C381 C380 1.288 . S
C381 C382 1.392 . S
C382 H352 0.951 . S
C382 C381 1.392 . S
C382 C383 1.392 . S
C383 H353 0.949 . S
C383 C378 1.382 . S
C383 C382 1.392 . S
Fe384 O385 1.886 . S
Fe384 O388 1.715 1_455 S
Fe384 O393 2.077 . S
Fe384 O398 1.935 1_455 S
Fe384 O404 2.077 . S
Fe384 O413 1.935 1_455 S
O385 Fe384 1.886 . S
O385 Fe387 1.715 . S
Fe386 O388 1.886 . S
Fe386 O389 1.715 . S
Fe386 O396 1.935 . S
Fe386 O397 2.077 . S
Fe386 O403 1.935 . S
Fe386 O412 2.077 . S
Fe387 O385 1.715 . S
Fe387 O390 1.886 . S
Fe387 O394 1.935 . S
Fe387 O399 2.077 . S
Fe387 O405 1.935 . S
Fe387 O409 2.077 . S
O388 Fe384 1.715 1_655 S
O388 Fe386 1.886 . S
O389 Fe386 1.715 . S
O389 Fe391 1.886 . S
O390 Fe387 1.886 . S
O390 Fe391 1.715 1_455 S
Fe391 O389 1.886 . S
Fe391 O390 1.715 1_655 S
Fe391 O395 2.077 . S
Fe391 O400 1.935 1_655 S
Fe391 O402 2.077 . S
Fe391 O410 1.935 1_655 S
C392 O404 1.381 . S
C392 O405 1.421 . S
O393 Fe384 2.077 . S
O393 C406 1.381 . S
O394 Fe387 1.935 . S
O394 C406 1.421 . S
O395 Fe391 2.077 . S
O395 C411 1.381 . S
O396 Fe386 1.935 . S
O396 C411 1.421 . S
O397 Fe386 2.077 . S
O397 C401 1.381 . S
O398 Fe384 1.935 1_655 S
O398 C401 1.421 . S
O399 Fe387 2.077 . S
O399 C407 1.381 . S
O400 Fe391 1.935 1_455 S
O400 C407 1.421 . S
C401 O397 1.381 . S
C401 O398 1.421 . S
O402 Fe391 2.077 . S
O402 C414 1.381 . S
O403 Fe386 1.935 . S
O403 C414 1.421 . S
O404 Fe384 2.077 . S
O404 C392 1.381 . S
O405 Fe387 1.935 . S
O405 C392 1.421 . S
C406 O393 1.381 . S
C406 O394 1.421 . S
C407 O399 1.381 . S
C407 O400 1.421 . S
C408 O409 1.381 . S
C408 O410 1.421 . S
O409 Fe387 2.077 . S
O409 C408 1.381 . S
O410 Fe391 1.935 1_455 S
O410 C408 1.421 . S
C411 O395 1.381 . S
C411 O396 1.421 . S
O412 Fe386 2.077 . S
O412 C415 1.381 . S
O413 Fe384 1.935 1_655 S
O413 C415 1.421 . S
C414 O402 1.381 . S
C414 O403 1.421 . S
C415 O412 1.381 . S
C415 O413 1.421 . S
Fe416 O417 1.886 . S
Fe416 O420 1.715 . S
Fe416 O425 2.077 . S
Fe416 O430 1.935 . S
Fe416 O436 2.077 . S
Fe416 O445 1.935 . S
O417 Fe416 1.886 . S
O417 Fe419 1.715 . S
Fe418 O420 1.886 . S
Fe418 O421 1.715 . S
Fe418 O428 1.935 . S
Fe418 O429 2.077 . S
Fe418 O435 1.935 . S
Fe418 O444 2.077 . S
Fe419 O417 1.715 . S
Fe419 O422 1.886 . S
Fe419 O426 1.935 . S
Fe419 O431 2.077 . S
Fe419 O437 1.935 . S
Fe419 O441 2.077 . S
O420 Fe416 1.715 . S
O420 Fe418 1.886 . S
O421 Fe418 1.715 . S
O421 Fe423 1.886 . S
O422 Fe419 1.886 . S
O422 Fe423 1.715 . S
Fe423 O421 1.886 . S
Fe423 O422 1.715 . S
Fe423 O427 2.077 . S
Fe423 O432 1.935 . S
Fe423 O434 2.077 . S
Fe423 O442 1.935 . S
C424 O436 1.381 . S
C424 O437 1.421 . S
O425 Fe416 2.077 . S
O425 C438 1.381 . S
O426 Fe419 1.935 . S
O426 C438 1.421 . S
O427 Fe423 2.077 . S
O427 C443 1.381 . S
O428 Fe418 1.935 . S
O428 C443 1.421 . S
O429 Fe418 2.077 . S
O429 C433 1.381 . S
O430 Fe416 1.935 . S
O430 C433 1.421 . S
O431 Fe419 2.077 . S
O431 C439 1.381 . S
O432 Fe423 1.935 . S
O432 C439 1.421 . S
C433 O429 1.381 . S
C433 O430 1.421 . S
O434 Fe423 2.077 . S
O434 C446 1.381 . S
O435 Fe418 1.935 . S
O435 C446 1.421 . S
O436 Fe416 2.077 . S
O436 C424 1.381 . S
O437 Fe419 1.935 . S
O437 C424 1.421 . S
C438 O425 1.381 . S
C438 O426 1.421 . S
C439 O431 1.381 . S
C439 O432 1.421 . S
C440 O441 1.381 . S
C440 O442 1.421 . S
O441 Fe419 2.077 . S
O441 C440 1.381 . S
O442 Fe423 1.935 . S
O442 C440 1.421 . S
C443 O427 1.381 . S
C443 O428 1.421 . S
O444 Fe418 2.077 . S
O444 C447 1.381 . S
O445 Fe416 1.935 . S
O445 C447 1.421 . S
C446 O434 1.381 . S
C446 O435 1.421 . S
C447 O444 1.381 . S
C447 O445 1.421 . S
Fe448 O449 1.886 . S
Fe448 O452 1.715 . S
Fe448 O457 2.077 . S
Fe448 O462 1.935 . S
Fe448 O468 2.077 . S
Fe448 O477 1.935 . S
O449 Fe448 1.886 . S
O449 Fe451 1.715 . S
Fe450 O452 1.886 . S
Fe450 O453 1.715 . S
Fe450 O460 1.935 . S
Fe450 O461 2.077 . S
Fe450 O467 1.935 . S
Fe450 O476 2.077 . S
Fe451 O449 1.715 . S
Fe451 O454 1.886 . S
Fe451 O458 1.935 . S
Fe451 O463 2.077 . S
Fe451 O469 1.935 . S
Fe451 O473 2.077 . S
O452 Fe448 1.715 . S
O452 Fe450 1.886 . S
O453 Fe450 1.715 . S
O453 Fe455 1.886 . S
O454 Fe451 1.886 . S
O454 Fe455 1.715 . S
Fe455 O453 1.886 . S
Fe455 O454 1.715 . S
Fe455 O459 2.077 . S
Fe455 O464 1.935 . S
Fe455 O466 2.077 . S
Fe455 O474 1.935 . S
C456 O468 1.381 . S
C456 O469 1.421 . S
O457 Fe448 2.077 . S
O457 C470 1.381 . S
O458 Fe451 1.935 . S
O458 C470 1.421 . S
O459 Fe455 2.077 . S
O459 C475 1.381 . S
O460 Fe450 1.935 . S
O460 C475 1.421 . S
O461 Fe450 2.077 . S
O461 C465 1.381 . S
O462 Fe448 1.935 . S
O462 C465 1.421 . S
O463 Fe451 2.077 . S
O463 C471 1.381 . S
O464 Fe455 1.935 . S
O464 C471 1.421 . S
C465 O461 1.381 . S
C465 O462 1.421 . S
O466 Fe455 2.077 . S
O466 C478 1.381 . S
O467 Fe450 1.935 . S
O467 C478 1.421 . S
O468 Fe448 2.077 . S
O468 C456 1.381 . S
O469 Fe451 1.935 . S
O469 C456 1.421 . S
C470 O457 1.381 . S
C470 O458 1.421 . S
C471 O463 1.381 . S
C471 O464 1.421 . S
C472 O473 1.381 . S
C472 O474 1.421 . S
O473 Fe451 2.077 . S
O473 C472 1.381 . S
O474 Fe455 1.935 . S
O474 C472 1.421 . S
C475 O459 1.381 . S
C475 O460 1.421 . S
O476 Fe450 2.077 . S
O476 C479 1.381 . S
O477 Fe448 1.935 . S
O477 C479 1.421 . S
C478 O466 1.381 . S
C478 O467 1.421 . S
C479 O476 1.381 . S
C479 O477 1.421 . S
Fe480 O481 1.886 . S
Fe480 O484 1.715 . S
Fe480 O489 2.076 1_455 S
Fe480 O494 1.934 1_455 S
Fe480 O500 2.079 . S
Fe480 O509 1.937 . S
O481 Fe480 1.886 . S
O481 Fe483 1.715 . S
Fe482 O484 1.886 . S
Fe482 O485 1.715 . S
Fe482 O492 1.934 1_455 S
Fe482 O493 2.076 1_455 S
Fe482 O499 1.936 . S
Fe482 O508 2.078 . S
Fe483 O481 1.715 . S
Fe483 O486 1.886 . S
Fe483 O490 1.934 1_455 S
Fe483 O495 2.076 1_455 S
Fe483 O501 1.936 . S
Fe483 O505 2.078 . S
O484 Fe480 1.715 . S
O484 Fe482 1.886 . S
O485 Fe482 1.715 . S
O485 Fe487 1.886 . S
O486 Fe483 1.886 . S
O486 Fe487 1.715 . S
Fe487 O485 1.886 . S
Fe487 O486 1.715 . S
Fe487 O491 2.077 1_455 S
Fe487 O496 1.935 1_455 S
Fe487 O498 2.077 . S
Fe487 O506 1.936 . S
C488 O500 1.381 . S
C488 O501 1.421 . S
O489 Fe480 2.076 1_655 S
O489 C502 1.381 . S
O490 Fe483 1.934 1_655 S
O490 C502 1.421 . S
O491 Fe487 2.077 1_655 S
O491 C507 1.381 . S
O492 Fe482 1.934 1_655 S
O492 C507 1.421 . S
O493 Fe482 2.076 1_655 S
O493 C497 1.381 . S
O494 Fe480 1.934 1_655 S
O494 C497 1.421 . S
O495 Fe483 2.076 1_655 S
O495 C503 1.381 . S
O496 Fe487 1.935 1_655 S
O496 C503 1.421 . S
C497 O493 1.381 . S
C497 O494 1.421 . S
O498 Fe487 2.077 . S
O498 C510 1.381 . S
O499 Fe482 1.936 . S
O499 C510 1.421 . S
O500 Fe480 2.079 . S
O500 C488 1.381 . S
O501 Fe483 1.936 . S
O501 C488 1.421 . S
C502 O489 1.381 . S
C502 O490 1.421 . S
C503 O495 1.381 . S
C503 O496 1.421 . S
C504 O505 1.381 . S
C504 O506 1.421 . S
O505 Fe483 2.078 . S
O505 C504 1.381 . S
O506 Fe487 1.936 . S
O506 C504 1.421 . S
C507 O491 1.381 . S
C507 O492 1.421 . S
O508 Fe482 2.078 . S
O508 C511 1.381 . S
O509 Fe480 1.937 . S
O509 C511 1.421 . S
C510 O498 1.381 . S
C510 O499 1.421 . S
C511 O508 1.381 . S
C511 O509 1.421 . S
C512 C513 1.387 . S
C512 H516 0.950 . S
C512 C521 1.390 . S
C513 C512 1.387 . S
C513 C515 1.387 . S
H514 C521 0.950 . S
C515 C513 1.387 . S
C515 C517 1.390 . S
C515 H519 0.950 . S
H516 C512 0.950 . S
C517 C515 1.390 . S
C517 C518 1.387 . S
C517 H520 0.950 . S
C518 C517 1.387 . S
C518 C521 1.387 . S
H519 C515 0.950 . S
H520 C517 0.950 . S
C521 C512 1.390 . S
C521 H514 0.950 . S
C521 C518 1.387 . S
C522 C523 1.387 . S
C522 H526 0.950 . S
C522 C531 1.390 . S
C523 C522 1.387 . S
C523 C525 1.387 . S
H524 C531 0.950 . S
C525 C523 1.387 . S
C525 C527 1.390 . S
C525 H529 0.950 1_545 S
H526 C522 0.950 . S
C527 C525 1.390 . S
C527 C528 1.387 . S
C527 H530 0.950 . S
C528 C527 1.387 . S
C528 C531 1.387 . S
H529 C525 0.950 1_565 S
H530 C527 0.950 . S
C531 C522 1.390 . S
C531 H524 0.950 . S
C531 C528 1.387 . S
C532 C533 1.387 . S
C532 H536 0.950 . S
C532 C541 1.390 . S
C533 C532 1.387 . S
C533 C535 1.387 . S
H534 C541 0.950 . S
C535 C533 1.387 . S
C535 C537 1.390 . S
C535 H539 0.950 . S
H536 C532 0.950 . S
C537 C535 1.390 . S
C537 C538 1.387 . S
C537 H540 0.950 . S
C538 C537 1.387 . S
C538 C541 1.387 . S
H539 C535 0.950 . S
H540 C537 0.950 . S
C541 C532 1.390 . S
C541 H534 0.950 . S
C541 C538 1.387 . S
C542 C543 1.387 . S
C542 H546 0.950 1_565 S
C542 C551 1.390 . S
C543 C542 1.387 . S
C543 C545 1.387 . S
H544 C551 0.950 . S
C545 C543 1.387 . S
C545 C547 1.390 . S
C545 H549 0.950 . S
H546 C542 0.950 1_545 S
C547 C545 1.390 . S
C547 C548 1.387 . S
C547 H550 0.950 . S
C548 C547 1.387 . S
C548 C551 1.387 . S
H549 C545 0.950 . S
H550 C547 0.950 . S
C551 C542 1.390 . S
C551 H544 0.950 . S
C551 C548 1.387 . S
C552 C553 1.387 . S
C552 H556 0.950 . S
C552 C561 1.390 . S
C553 C552 1.387 . S
C553 C555 1.387 . S
H554 C561 0.950 . S
C555 C553 1.387 . S
C555 C557 1.390 . S
C555 H559 0.950 . S
H556 C552 0.950 . S
C557 C555 1.390 . S
C557 C558 1.387 . S
C557 H560 0.950 . S
C558 C557 1.387 . S
C558 C561 1.387 . S
H559 C555 0.950 . S
H560 C557 0.950 . S
C561 C552 1.390 . S
C561 H554 0.950 . S
C561 C558 1.387 . S
C562 C563 1.387 . S
C562 H566 0.950 . S
C562 C571 1.390 . S
C563 C562 1.387 . S
C563 C565 1.387 . S
H564 C571 0.950 . S
C565 C563 1.387 . S
C565 C567 1.390 . S
C565 H569 0.950 . S
H566 C562 0.950 . S
C567 C565 1.390 . S
C567 C568 1.387 . S
C567 H570 0.950 . S
C568 C567 1.387 . S
C568 C571 1.387 . S
H569 C565 0.950 . S
H570 C567 0.950 . S
C571 C562 1.390 . S
C571 H564 0.950 . S
C571 C568 1.387 . S
C572 C573 1.387 . S
C572 H576 0.950 . S
C572 C581 1.390 . S
C573 C572 1.387 . S
C573 C575 1.387 . S
H574 C581 0.950 . S
C575 C573 1.387 . S
C575 C577 1.390 . S
C575 H579 0.950 . S
H576 C572 0.950 . S
C577 C575 1.390 . S
C577 C578 1.387 . S
C577 H580 0.950 . S
C578 C577 1.387 . S
C578 C581 1.387 . S
H579 C575 0.950 . S
H580 C577 0.950 . S
C581 C572 1.390 . S
C581 H574 0.950 . S
C581 C578 1.387 . S
C582 C583 1.387 . S
C582 H586 0.950 . S
C582 C591 1.390 . S
C583 C582 1.387 . S
C583 C585 1.387 . S
H584 C591 0.950 . S
C585 C583 1.387 . S
C585 C587 1.390 . S
C585 H589 0.950 1_565 S
H586 C582 0.950 . S
C587 C585 1.390 . S
C587 C588 1.387 . S
C587 H590 0.950 . S
C588 C587 1.387 . S
C588 C591 1.387 . S
H589 C585 0.950 1_545 S
H590 C587 0.950 . S
C591 C582 1.390 . S
C591 H584 0.950 . S
C591 C588 1.387 . S
C592 C593 1.387 . S
C592 H596 0.950 . S
C592 C601 1.390 . S
C593 C592 1.387 . S
C593 C595 1.387 . S
H594 C601 0.950 . S
C595 C593 1.387 . S
C595 C597 1.390 . S
C595 H599 0.950 . S
H596 C592 0.950 . S
C597 C595 1.390 . S
C597 C598 1.387 . S
C597 H600 0.950 . S
C598 C597 1.387 . S
C598 C601 1.387 . S
H599 C595 0.950 . S
H600 C597 0.950 . S
C601 C592 1.390 . S
C601 H594 0.950 . S
C601 C598 1.387 . S
C602 C603 1.387 1_545 S
C602 H606 0.950 . S
C602 C611 1.390 1_545 S
C603 C602 1.387 1_565 S
C603 C605 1.387 . S
H604 C611 0.950 . S
C605 C603 1.387 . S
C605 C607 1.390 . S
C605 H609 0.950 . S
H606 C602 0.950 . S
C607 C605 1.390 . S
C607 C608 1.387 . S
C607 H610 0.950 . S
C608 C607 1.387 . S
C608 C611 1.387 . S
H609 C605 0.950 . S
H610 C607 0.950 . S
C611 C602 1.390 1_565 S
C611 H604 0.950 . S
C611 C608 1.387 . S
C612 C613 1.387 . S
C612 H616 0.950 . S
C612 C621 1.390 . S
C613 C612 1.387 . S
C613 C615 1.387 . S
H614 C621 0.950 . S
C615 C613 1.387 . S
C615 C617 1.390 . S
C615 H619 0.950 . S
H616 C612 0.950 . S
C617 C615 1.390 . S
C617 C618 1.387 . S
C617 H620 0.950 . S
C618 C617 1.387 . S
C618 C621 1.387 . S
H619 C615 0.950 . S
H620 C617 0.950 . S
C621 C612 1.390 . S
C621 H614 0.950 . S
C621 C618 1.387 . S
C622 C623 1.387 . S
C622 H626 0.950 . S
C622 C631 1.390 . S
C623 C622 1.387 . S
C623 C625 1.387 . S
H624 C631 0.950 . S
C625 C623 1.387 . S
C625 C627 1.390 . S
C625 H629 0.950 . S
H626 C622 0.950 . S
C627 C625 1.390 . S
C627 C628 1.387 . S
C627 H630 0.950 . S
C628 C627 1.387 . S
C628 C631 1.387 . S
H629 C625 0.950 . S
H630 C627 0.950 . S
C631 C622 1.390 . S
C631 H624 0.950 . S
C631 C628 1.387 . S
C632 C633 1.387 . S
C632 H636 0.950 . S
C632 C641 1.390 . S
C633 C632 1.387 . S
C633 C635 1.387 . S
H634 C641 0.950 . S
C635 C633 1.387 . S
C635 C637 1.390 . S
C635 H639 0.950 . S
H636 C632 0.950 . S
C637 C635 1.390 . S
C637 C638 1.387 . S
C637 H640 0.950 . S
C638 C637 1.387 . S
C638 C641 1.387 . S
H639 C635 0.950 . S
H640 C637 0.950 . S
C641 C632 1.390 . S
C641 H634 0.950 . S
C641 C638 1.387 . S
C642 C643 1.387 . S
C642 H646 0.950 . S
C642 C651 1.390 . S
C643 C642 1.387 . S
C643 C645 1.387 . S
H644 C651 0.950 . S
C645 C643 1.387 . S
C645 C647 1.390 . S
C645 H649 0.950 . S
H646 C642 0.950 . S
C647 C645 1.390 . S
C647 C648 1.387 . S
C647 H650 0.950 . S
C648 C647 1.387 . S
C648 C651 1.387 . S
H649 C645 0.950 . S
H650 C647 0.950 . S
C651 C642 1.390 . S
C651 H644 0.950 . S
C651 C648 1.387 . S
C652 C653 1.387 . S
C652 H656 0.950 . S
C652 C661 1.390 . S
C653 C652 1.387 . S
C653 C655 1.387 . S
H654 C661 0.950 . S
C655 C653 1.387 . S
C655 C657 1.390 . S
C655 H659 0.950 . S
H656 C652 0.950 . S
C657 C655 1.390 . S
C657 C658 1.387 . S
C657 H660 0.950 . S
C658 C657 1.387 . S
C658 C661 1.387 . S
H659 C655 0.950 . S
H660 C657 0.950 . S
C661 C652 1.390 . S
C661 H654 0.950 . S
C661 C658 1.387 . S
C662 C663 1.387 . S
C662 H666 0.950 . S
C662 C671 1.390 . S
C663 C662 1.387 . S
C663 C665 1.387 . S
H664 C671 0.950 . S
C665 C663 1.387 . S
C665 C667 1.390 . S
C665 H669 0.950 . S
H666 C662 0.950 . S
C667 C665 1.390 . S
C667 C668 1.387 . S
C667 H670 0.950 . S
C668 C667 1.387 . S
C668 C671 1.387 . S
H669 C665 0.950 . S
H670 C667 0.950 . S
C671 C662 1.390 . S
C671 H664 0.950 . S
C671 C668 1.387 . S
C672 C673 1.387 . S
C672 H676 0.950 . S
C672 C681 1.390 . S
C673 C672 1.387 . S
C673 C675 1.387 . S
H674 C681 0.950 . S
C675 C673 1.387 . S
C675 C677 1.390 . S
C675 H679 0.950 . S
H676 C672 0.950 . S
C677 C675 1.390 . S
C677 C678 1.387 . S
C677 H680 0.950 . S
C678 C677 1.387 . S
C678 C681 1.387 . S
H679 C675 0.950 . S
H680 C677 0.950 . S
C681 C672 1.390 . S
C681 H674 0.950 . S
C681 C678 1.387 . S
C682 C683 1.387 . S
C682 H686 0.950 . S
C682 C691 1.390 . S
C683 C682 1.387 . S
C683 C685 1.387 . S
H684 C691 0.950 . S
C685 C683 1.387 . S
C685 C687 1.390 . S
C685 H689 0.950 . S
H686 C682 0.950 . S
C687 C685 1.390 . S
C687 C688 1.387 . S
C687 H690 0.950 . S
C688 C687 1.387 . S
C688 C691 1.387 . S
H689 C685 0.950 . S
H690 C687 0.950 . S
C691 C682 1.390 . S
C691 H684 0.950 . S
C691 C688 1.387 . S
C692 C693 1.387 . S
C692 H696 0.950 . S
C692 C701 1.390 . S
C693 C692 1.387 . S
C693 C695 1.387 . S
H694 C701 0.950 . S
C695 C693 1.387 . S
C695 C697 1.390 . S
C695 H699 0.950 . S
H696 C692 0.950 . S
C697 C695 1.390 . S
C697 C698 1.387 . S
C697 H700 0.950 . S
C698 C697 1.387 . S
C698 C701 1.387 . S
H699 C695 0.950 . S
H700 C697 0.950 . S
C701 C692 1.390 . S
C701 H694 0.950 . S
C701 C698 1.387 . S
C702 C703 1.387 . S
C702 H706 0.950 . S
C702 C711 1.390 . S
C703 C702 1.387 . S
C703 C705 1.387 . S
H704 C711 0.950 . S
C705 C703 1.387 . S
C705 C707 1.390 . S
C705 H709 0.950 . S
H706 C702 0.950 . S
C707 C705 1.390 . S
C707 C708 1.387 . S
C707 H710 0.950 . S
C708 C707 1.387 . S
C708 C711 1.387 . S
H709 C705 0.950 . S
H710 C707 0.950 . S
C711 C702 1.390 . S
C711 H704 0.950 . S
C711 C708 1.387 . S
C712 C713 1.387 . S
C712 H716 0.950 . S
C712 C721 1.390 . S
C713 C712 1.387 . S
C713 C715 1.387 . S
H714 C721 0.950 . S
C715 C713 1.387 . S
C715 C717 1.390 . S
C715 H719 0.950 . S
H716 C712 0.950 . S
C717 C715 1.390 . S
C717 C718 1.387 . S
C717 H720 0.950 . S
C718 C717 1.387 . S
C718 C721 1.387 . S
H719 C715 0.950 . S
H720 C717 0.950 . S
C721 C712 1.390 . S
C721 H714 0.950 . S
C721 C718 1.387 . S
C722 C723 1.387 . S
C722 H726 0.950 . S
C722 C731 1.390 . S
C723 C722 1.387 . S
C723 C725 1.387 . S
H724 C731 0.950 . S
C725 C723 1.387 . S
C725 C727 1.390 . S
C725 H729 0.950 . S
H726 C722 0.950 . S
C727 C725 1.390 . S
C727 C728 1.387 . S
C727 H730 0.950 . S
C728 C727 1.387 . S
C728 C731 1.387 . S
H729 C725 0.950 . S
H730 C727 0.950 . S
C731 C722 1.390 . S
C731 H724 0.950 . S
C731 C728 1.387 . S
C732 C733 1.387 . S
C732 H736 0.950 . S
C732 C741 1.390 . S
C733 C732 1.387 . S
C733 C735 1.387 . S
H734 C741 0.950 . S
C735 C733 1.387 . S
C735 C737 1.390 . S
C735 H739 0.950 . S
H736 C732 0.950 . S
C737 C735 1.390 . S
C737 C738 1.387 . S
C737 H740 0.950 . S
C738 C737 1.387 . S
C738 C741 1.387 . S
H739 C735 0.950 . S
H740 C737 0.950 . S
C741 C732 1.390 . S
C741 H734 0.950 . S
C741 C738 1.387 . S
C742 C743 1.387 . S
C742 H746 0.950 . S
C742 C751 1.390 . S
C743 C742 1.387 . S
C743 C745 1.387 . S
H744 C751 0.950 . S
C745 C743 1.387 . S
C745 C747 1.390 . S
C745 H749 0.950 . S
H746 C742 0.950 . S
C747 C745 1.390 . S
C747 C748 1.387 . S
C747 H750 0.950 . S
C748 C747 1.387 . S
C748 C751 1.387 . S
H749 C745 0.950 . S
H750 C747 0.950 . S
C751 C742 1.390 . S
C751 H744 0.950 . S
C751 C748 1.387 . S
C752 C753 1.387 . S
C752 H756 0.950 . S
C752 C761 1.390 . S
C753 C752 1.387 . S
C753 C755 1.387 . S
H754 C761 0.950 . S
C755 C753 1.387 . S
C755 C757 1.390 . S
C755 H759 0.950 . S
H756 C752 0.950 . S
C757 C755 1.390 . S
C757 C758 1.387 . S
C757 H760 0.950 . S
C758 C757 1.387 . S
C758 C761 1.387 . S
H759 C755 0.950 . S
H760 C757 0.950 . S
C761 C752 1.390 . S
C761 H754 0.950 . S
C761 C758 1.387 . S
C762 C763 1.387 . S
C762 H766 0.950 . S
C762 C771 1.390 . S
C763 C762 1.387 . S
C763 C765 1.387 . S
H764 C771 0.950 . S
C765 C763 1.387 . S
C765 C767 1.390 . S
C765 H769 0.950 . S
H766 C762 0.950 . S
C767 C765 1.390 . S
C767 C768 1.387 . S
C767 H770 0.950 . S
C768 C767 1.387 . S
C768 C771 1.387 . S
H769 C765 0.950 . S
H770 C767 0.950 . S
C771 C762 1.390 . S
C771 H764 0.950 . S
C771 C768 1.387 . S
C772 C773 1.387 . S
C772 H776 0.950 . S
C772 C781 1.390 . S
C773 C772 1.387 . S
C773 C775 1.387 . S
H774 C781 0.950 . S
C775 C773 1.387 . S
C775 C777 1.390 . S
C775 H779 0.950 . S
H776 C772 0.950 . S
C777 C775 1.390 . S
C777 C778 1.387 . S
C777 H780 0.950 . S
C778 C777 1.387 . S
C778 C781 1.387 . S
H779 C775 0.950 . S
H780 C777 0.950 . S
C781 C772 1.390 . S
C781 H774 0.950 . S
C781 C778 1.387 . S
C782 C783 1.387 . S
C782 H786 0.950 . S
C782 C791 1.390 . S
C783 C782 1.387 . S
C783 C785 1.387 . S
H784 C791 0.950 . S
C785 C783 1.387 . S
C785 C787 1.390 . S
C785 H789 0.950 . S
H786 C782 0.950 . S
C787 C785 1.390 . S
C787 C788 1.387 . S
C787 H790 0.950 . S
C788 C787 1.387 . S
C788 C791 1.387 . S
H789 C785 0.950 . S
H790 C787 0.950 . S
C791 C782 1.390 . S
C791 H784 0.950 . S
C791 C788 1.387 . S
C792 C793 1.387 . S
C792 H796 0.950 . S
C792 C801 1.390 . S
C793 C792 1.387 . S
C793 C795 1.387 . S
H794 C801 0.950 . S
C795 C793 1.387 . S
C795 C797 1.390 . S
C795 H799 0.950 . S
H796 C792 0.950 . S
C797 C795 1.390 . S
C797 C798 1.387 . S
C797 H800 0.950 . S
C798 C797 1.387 . S
C798 C801 1.387 . S
H799 C795 0.950 . S
H800 C797 0.950 . S
C801 C792 1.390 . S
C801 H794 0.950 . S
C801 C798 1.387 . S
C802 C803 1.387 . S
C802 H806 0.950 . S
C802 C811 1.390 . S
C803 C802 1.387 . S
C803 C805 1.387 . S
H804 C811 0.950 . S
C805 C803 1.387 . S
C805 C807 1.390 . S
C805 H809 0.950 . S
H806 C802 0.950 . S
C807 C805 1.390 . S
C807 C808 1.387 . S
C807 H810 0.950 . S
C808 C807 1.387 . S
C808 C811 1.387 . S
H809 C805 0.950 . S
H810 C807 0.950 . S
C811 C802 1.390 . S
C811 H804 0.950 . S
C811 C808 1.387 . S
C812 C813 1.387 . S
C812 H816 0.950 . S
C812 C821 1.390 . S
C813 C812 1.387 . S
C813 C815 1.387 . S
H814 C821 0.950 . S
C815 C813 1.387 . S
C815 C817 1.390 . S
C815 H819 0.950 . S
H816 C812 0.950 . S
C817 C815 1.390 . S
C817 C818 1.387 . S
C817 H820 0.950 . S
C818 C817 1.387 . S
C818 C821 1.387 . S
H819 C815 0.950 . S
H820 C817 0.950 . S
C821 C812 1.390 . S
C821 H814 0.950 . S
C821 C818 1.387 . S
C822 C823 1.387 . S
C822 H826 0.950 . S
C822 C831 1.390 . S
C823 C822 1.387 . S
C823 C825 1.387 . S
H824 C831 0.950 . S
C825 C823 1.387 . S
C825 C827 1.390 . S
C825 H829 0.950 . S
H826 C822 0.950 . S
C827 C825 1.390 . S
C827 C828 1.387 . S
C827 H830 0.950 . S
C828 C827 1.387 . S
C828 C831 1.387 . S
H829 C825 0.950 . S
H830 C827 0.950 . S
C831 C822 1.390 . S
C831 H824 0.950 . S
C831 C828 1.387 . S
C518 C433 1.536 . S
C513 C45 1.560 . S
C523 C78 1.544 1_545 S
C528 C465 1.535 . S
C533 C126 1.543 . S
C538 C488 1.550 . S
C548 C392 1.552 . S
C543 C174 1.546 1_565 S
C558 C475 1.381 . S
C553 C36 1.542 . S
C568 C504 1.393 . S
C563 C69 1.537 1_545 S
C578 C408 1.394 . S
C573 C117 1.537 . S
C588 C443 1.379 . S
C583 C165 1.533 1_565 S
C593 C30 1.542 . S
C598 C471 1.388 . S
C603 C228 1.533 1_565 S
C608 C446 1.378 . S
C613 C141 1.516 . S
C618 C414 1.378 . S
C628 C503 1.388 . S
C623 C270 1.539 1_545 S
C638 C447 1.538 . S
C633 C21 1.563 . S
C643 C237 1.546 1_565 S
C648 C415 1.538 . S
C653 C132 1.561 . S
C658 C502 1.557 . S
C668 C470 1.557 . S
C663 C261 1.566 1_545 S
C673 C333 1.558 . S
C678 C497 1.533 . S
C683 C213 1.558 . S
C688 C401 1.538 . S
C693 C357 1.558 . S
C698 C424 1.554 . S
C703 C285 1.558 . S
C708 C456 1.550 . S
C718 C411 1.382 . S
C713 C324 1.544 . S
C723 C222 1.519 . S
C728 C440 1.390 . S
C733 C366 1.520 . S
C738 C472 1.392 . S
C748 C507 1.384 . S
C743 C276 1.544 . S
C753 C318 1.539 . S
C758 C407 1.388 . S
C763 C93 1.518 . S
C768 C510 1.379 . S
C773 C372 1.534 . S
C778 C478 1.380 . S
C788 C439 1.392 . S
C783 C189 1.520 . S
C798 C511 1.540 . S
C793 C309 1.566 . S
C808 C479 1.539 . S
C803 C84 1.560 . S
C818 C438 1.552 . S
C813 C381 1.545 . S
C828 C406 1.554 . S
C823 C180 1.558 . S
