# Generated by pormake.
# Topology cml, (3,6)-cn, num edge types: 1
# Building blocks:
#     Node 0, Type 0, BuildingBlock: KAKCAD_clean_linker_0, # of connection points: 3
#     Node 1, Type 0, BuildingBlock: KAKCAD_clean_linker_0, # of connection points: 3
#     Node 2, Type 0, BuildingBlock: KAKCAD_clean_linker_0, # of connection points: 3
#     Node 3, Type 0, BuildingBlock: KAKCAD_clean_linker_0, # of connection points: 3
#     Node 4, Type 0, BuildingBlock: KAKCAD_clean_linker_0, # of connection points: 3
#     Node 5, Type 0, BuildingBlock: KAKCAD_clean_linker_0, # of connection points: 3
#     Node 6, Type 0, BuildingBlock: KAKCAD_clean_linker_0, # of connection points: 3
#     Node 7, Type 0, BuildingBlock: KAKCAD_clean_linker_0, # of connection points: 3
#     Node 8, Type 1, BuildingBlock: OJICUG_clean_sbu_0, # of connection points: 6
#     Node 9, Type 1, BuildingBlock: OJICUG_clean_sbu_0, # of connection points: 6
#     Node 10, Type 1, BuildingBlock: OJICUG_clean_sbu_0, # of connection points: 6
#     Node 11, Type 1, BuildingBlock: OJICUG_clean_sbu_0, # of connection points: 6
#     Edge 12, Type (0, 1), BuildingBlock: EZIPEK_clean_linker_0, # of connection points: 2
#     Edge 13, Type (0, 1), BuildingBlock: EZIPEK_clean_linker_0, # of connection points: 2
#     Edge 14, Type (0, 1), BuildingBlock: EZIPEK_clean_linker_0, # of connection points: 2
#     Edge 15, Type (0, 1), BuildingBlock: EZIPEK_clean_linker_0, # of connection points: 2
#     Edge 16, Type (0, 1), BuildingBlock: EZIPEK_clean_linker_0, # of connection points: 2
#     Edge 17, Type (0, 1), BuildingBlock: EZIPEK_clean_linker_0, # of connection points: 2
#     Edge 18, Type (0, 1), BuildingBlock: EZIPEK_clean_linker_0, # of connection points: 2
#     Edge 19, Type (0, 1), BuildingBlock: EZIPEK_clean_linker_0, # of connection points: 2
#     Edge 20, Type (0, 1), BuildingBlock: EZIPEK_clean_linker_0, # of connection points: 2
#     Edge 21, Type (0, 1), BuildingBlock: EZIPEK_clean_linker_0, # of connection points: 2
#     Edge 22, Type (0, 1), BuildingBlock: EZIPEK_clean_linker_0, # of connection points: 2
#     Edge 23, Type (0, 1), BuildingBlock: EZIPEK_clean_linker_0, # of connection points: 2
#     Edge 24, Type (0, 1), BuildingBlock: EZIPEK_clean_linker_0, # of connection points: 2
#     Edge 25, Type (0, 1), BuildingBlock: EZIPEK_clean_linker_0, # of connection points: 2
#     Edge 26, Type (0, 1), BuildingBlock: EZIPEK_clean_linker_0, # of connection points: 2
#     Edge 27, Type (0, 1), BuildingBlock: EZIPEK_clean_linker_0, # of connection points: 2
#     Edge 28, Type (0, 1), BuildingBlock: EZIPEK_clean_linker_0, # of connection points: 2
#     Edge 29, Type (0, 1), BuildingBlock: EZIPEK_clean_linker_0, # of connection points: 2
#     Edge 30, Type (0, 1), BuildingBlock: EZIPEK_clean_linker_0, # of connection points: 2
#     Edge 31, Type (0, 1), BuildingBlock: EZIPEK_clean_linker_0, # of connection points: 2
#     Edge 32, Type (0, 1), BuildingBlock: EZIPEK_clean_linker_0, # of connection points: 2
#     Edge 33, Type (0, 1), BuildingBlock: EZIPEK_clean_linker_0, # of connection points: 2
#     Edge 34, Type (0, 1), BuildingBlock: EZIPEK_clean_linker_0, # of connection points: 2
#     Edge 35, Type (0, 1), BuildingBlock: EZIPEK_clean_linker_0, # of connection points: 2
# Relax obj value: 0.072
# Max RMSD: 0.085
# Mean RMSD: 0.080
data_MOF--net-cml--node1-OJICUG_clean_sbu_0--node2-KAKCAD_clean_linker_0--edge1-EZIPEK_clean_linker_0
_symmetry_space_group_name_H-M    P1
_symmetry_Int_Tables_number       1
_symmetry_cell_setting            triclinic
loop_
_symmetry_equiv_pos_as_xyz
'x, y, z'
_cell_length_a     37.371957
_cell_length_b     37.623058
_cell_length_c     35.540289
_cell_angle_alpha  89.852755
_cell_angle_beta   90.084498
_cell_angle_gamma 90.192785
loop_
_atom_site_label
_atom_site_type_symbol
_atom_site_fract_x
_atom_site_fract_y
_atom_site_fract_z
_atom_type_partial_charge
C0 C 0.30073 0.52498 0.9461 0.0
C1 C 0.3381 0.52707 0.9491 0.0
C2 C 0.2817 0.49964 0.96698 0.0
C3 C 0.29982 0.47555 0.99065 0.0
C4 C 0.3373 0.47821 0.99373 0.0
C5 C 0.35615 0.50385 0.97342 0.0
C6 C 0.28036 0.44622 0.01018 0.0
C7 C 0.2523 0.42816 0.992 0.0
C8 C 0.23676 0.39764 0.0081 0.0
C9 C 0.24955 0.38521 0.0429 0.0
C10 C 0.27729 0.40308 0.06163 0.0
C11 C 0.29197 0.43394 0.04553 0.0
C12 C 0.29406 0.38747 0.09561 0.0
C13 C 0.30301 0.40902 0.1265 0.0
C14 C 0.30492 0.35171 0.09548 0.0
C15 C 0.32632 0.33842 0.12448 0.0
C16 C 0.3368 0.36058 0.15416 0.0
C17 C 0.20875 0.37745 0.98753 0.0
C18 C 0.21162 0.37205 0.94847 0.0
C19 C 0.17938 0.36273 0.00687 0.0
C20 C 0.15364 0.34283 0.98761 0.0
C21 C 0.1568 0.33754 0.94875 0.0
C22 C 0.18576 0.35236 0.92923 0.0
C23 C 0.32413 0.39559 0.15569 0.0
H24 H 0.28642 0.5427 0.92735 0.0
H25 H 0.25285 0.49872 0.96424 0.0
H26 H 0.35239 0.4597 0.01082 0.0
H27 H 0.38504 0.50495 0.97584 0.0
H28 H 0.24323 0.43714 0.96464 0.0
H29 H 0.31369 0.44746 0.05985 0.0
H30 H 0.23875 0.36094 0.05491 0.0
H31 H 0.29481 0.43659 0.12733 0.0
H32 H 0.29874 0.33465 0.07183 0.0
H33 H 0.33618 0.31142 0.12284 0.0
H34 H 0.23423 0.38244 0.93284 0.0
H35 H 0.17622 0.36672 0.03685 0.0
H36 H 0.33224 0.41303 0.17839 0.0
H37 H 0.18852 0.34828 0.89921 0.0
H38 H 0.13127 0.33155 0.00294 0.0
C39 C 0.68906 0.46881 0.44795 0.0
C40 C 0.65177 0.46509 0.44574 0.0
C41 C 0.70415 0.49938 0.46373 0.0
C42 C 0.68215 0.52653 0.47777 0.0
C43 C 0.64476 0.52242 0.47585 0.0
C44 C 0.62971 0.49196 0.45987 0.0
C45 C 0.6981 0.55921 0.49409 0.0
C46 C 0.72627 0.57679 0.47566 0.0
C47 C 0.74107 0.60823 0.49045 0.0
C48 C 0.72719 0.62195 0.52423 0.0
C49 C 0.69889 0.60474 0.54291 0.0
C50 C 0.68461 0.57335 0.52765 0.0
C51 C 0.6831 0.62003 0.57757 0.0
C52 C 0.67374 0.59784 0.60793 0.0
C53 C 0.6749 0.65646 0.57947 0.0
C54 C 0.65605 0.67 0.61021 0.0
C55 C 0.64532 0.64733 0.6395 0.0
C56 C 0.7707 0.62683 0.4704 0.0
C57 C 0.79774 0.60736 0.45221 0.0
C58 C 0.77221 0.66421 0.46924 0.0
C59 C 0.80036 0.68164 0.45101 0.0
C60 C 0.82733 0.66207 0.43324 0.0
C61 C 0.82565 0.62484 0.43359 0.0
C62 C 0.655 0.61139 0.63864 0.0
H63 H 0.70639 0.44821 0.43713 0.0
H64 H 0.73302 0.50169 0.46517 0.0
H65 H 0.62716 0.54306 0.48607 0.0
H66 H 0.60086 0.48945 0.4582 0.0
H67 H 0.73587 0.56652 0.44908 0.0
H68 H 0.66259 0.56005 0.54173 0.0
H69 H 0.73873 0.64575 0.53641 0.0
H70 H 0.68015 0.56978 0.6075 0.0
H71 H 0.68153 0.67414 0.55639 0.0
H72 H 0.64853 0.69778 0.61043 0.0
H73 H 0.79777 0.57859 0.45292 0.0
H74 H 0.75154 0.68009 0.48224 0.0
H75 H 0.64682 0.59358 0.66106 0.0
H76 H 0.84636 0.60935 0.42011 0.0
H77 H 0.80124 0.71043 0.45092 0.0
C78 C 0.65798 0.49459 0.91979 0.0
C79 C 0.64246 0.52118 0.94184 0.0
C80 C 0.67878 0.4682 0.93663 0.0
C81 C 0.68439 0.46808 0.9758 0.0
C82 C 0.66988 0.4957 0.99753 0.0
C83 C 0.64898 0.52201 0.98066 0.0
C84 C 0.70316 0.4379 0.99409 0.0
C85 C 0.73322 0.4225 0.97714 0.0
C86 C 0.74894 0.39179 0.99237 0.0
C87 C 0.73481 0.37704 0.02557 0.0
C88 C 0.70501 0.39232 0.04317 0.0
C89 C 0.68939 0.42274 0.02722 0.0
C90 C 0.68855 0.37533 0.07673 0.0
C91 C 0.68393 0.3382 0.07843 0.0
C92 C 0.67543 0.39632 0.10632 0.0
C93 C 0.65676 0.38071 0.13609 0.0
C94 C 0.651 0.3439 0.13684 0.0
C95 C 0.77876 0.37395 0.97249 0.0
C96 C 0.77822 0.37072 0.93304 0.0
C97 C 0.80723 0.3588 0.99282 0.0
C98 C 0.83412 0.3402 0.97418 0.0
C99 C 0.83309 0.33663 0.93494 0.0
C100 C 0.80527 0.35234 0.91441 0.0
C101 C 0.66536 0.3226 0.10834 0.0
H102 H 0.6529 0.49356 0.88979 0.0
H103 H 0.68915 0.44708 0.91916 0.0
H104 H 0.67411 0.49658 0.02767 0.0
H105 H 0.63708 0.54245 0.99798 0.0
H106 H 0.74431 0.43437 0.95189 0.0
H107 H 0.66531 0.43359 0.03958 0.0
H108 H 0.74649 0.35313 0.03729 0.0
H109 H 0.69336 0.32133 0.05591 0.0
H110 H 0.67904 0.4249 0.10609 0.0
H111 H 0.6459 0.39745 0.15802 0.0
H112 H 0.75642 0.3816 0.91659 0.0
H113 H 0.8087 0.36126 0.02314 0.0
H114 H 0.661 0.29412 0.10858 0.0
H115 H 0.8042 0.34978 0.88407 0.0
H116 H 0.85561 0.32834 0.99034 0.0
C117 C 0.31134 0.66118 0.62825 0.0
C118 C 0.3486 0.66057 0.6332 0.0
C119 C 0.29589 0.64583 0.59623 0.0
C120 C 0.31755 0.63029 0.56838 0.0
C121 C 0.35496 0.63155 0.57277 0.0
C122 C 0.37025 0.64623 0.60495 0.0
C123 C 0.30154 0.61197 0.53529 0.0
C124 C 0.27084 0.62537 0.51739 0.0
C125 C 0.25661 0.60854 0.48534 0.0
C126 C 0.27331 0.57793 0.47128 0.0
C127 C 0.30414 0.56455 0.4886 0.0
C128 C 0.31772 0.58128 0.52077 0.0
C129 C 0.32372 0.5344 0.47199 0.0
C130 C 0.30632 0.50211 0.46411 0.0
C131 C 0.36041 0.53793 0.46436 0.0
C132 C 0.37952 0.50961 0.44935 0.0
C133 C 0.36238 0.47712 0.44215 0.0
C134 C 0.22554 0.62417 0.46539 0.0
C135 C 0.19611 0.63716 0.48569 0.0
C136 C 0.22573 0.6274 0.42593 0.0
C137 C 0.19742 0.64399 0.40726 0.0
C138 C 0.16854 0.65749 0.42775 0.0
C139 C 0.16778 0.65367 0.46697 0.0
C140 C 0.32566 0.47345 0.44961 0.0
H141 H 0.29427 0.67246 0.6497 0.0
H142 H 0.267 0.64525 0.59387 0.0
H143 H 0.37258 0.62095 0.55143 0.0
H144 H 0.3991 0.64598 0.60808 0.0
H145 H 0.25883 0.64973 0.52745 0.0
H146 H 0.34106 0.57013 0.53449 0.0
H147 H 0.26285 0.56497 0.44635 0.0
H148 H 0.27806 0.49884 0.46992 0.0
H149 H 0.37427 0.56272 0.46992 0.0
H150 H 0.40783 0.51284 0.44375 0.0
H151 H 0.1951 0.63472 0.51604 0.0
H152 H 0.24823 0.61805 0.40958 0.0
H153 H 0.31212 0.44845 0.44436 0.0
H154 H 0.14556 0.66402 0.48308 0.0
H155 H 0.19834 0.64694 0.37694 0.0
C156 C 0.81506 0.01213 0.92238 0.0
C157 C 0.85244 0.01564 0.9232 0.0
C158 C 0.7984 0.98379 0.94109 0.0
C159 C 0.81893 0.95814 0.96032 0.0
C160 C 0.85644 0.96162 0.96033 0.0
C161 C 0.87293 0.9902 0.94231 0.0
C162 C 0.80163 0.92781 0.98035 0.0
C163 C 0.77099 0.91103 0.96555 0.0
C164 C 0.75557 0.88161 0.98396 0.0
C165 C 0.77089 0.86912 0.01761 0.0
C166 C 0.80155 0.88527 0.03233 0.0
C167 C 0.81655 0.91468 0.01396 0.0
C168 C 0.81923 0.87054 0.06596 0.0
C169 C 0.80229 0.87123 0.10117 0.0
C170 C 0.85405 0.85709 0.06301 0.0
C171 C 0.87216 0.84535 0.095 0.0
C172 C 0.85597 0.84759 0.13053 0.0
C173 C 0.72403 0.86311 0.96787 0.0
C174 C 0.69497 0.88215 0.95336 0.0
C175 C 0.72296 0.82596 0.96674 0.0
C176 C 0.69231 0.80826 0.95444 0.0
C177 C 0.6607 0.82696 0.94504 0.0
C178 C 0.66421 0.86431 0.9411 0.0
C179 C 0.82073 0.86013 0.13342 0.0
H180 H 0.79887 0.03141 0.90746 0.0
H181 H 0.76947 0.9822 0.94077 0.0
H182 H 0.87327 0.942 0.97386 0.0
H183 H 0.90186 0.99224 0.94282 0.0
H184 H 0.75988 0.91995 0.939 0.0
H185 H 0.83988 0.92737 0.02621 0.0
H186 H 0.75932 0.84644 0.0321 0.0
H187 H 0.77541 0.88159 0.10387 0.0
H188 H 0.86742 0.85622 0.03599 0.0
H189 H 0.89937 0.83585 0.09231 0.0
H190 H 0.69572 0.91091 0.95195 0.0
H191 H 0.74603 0.81046 0.97515 0.0
H192 H 0.80798 0.86226 0.16066 0.0
H193 H 0.64389 0.88048 0.92817 0.0
H194 H 0.69414 0.77972 0.95222 0.0
C195 C 0.19009 0.97034 0.44538 0.0
C196 C 0.15333 0.96572 0.4518 0.0
C197 C 0.20873 0.99803 0.46307 0.0
C198 C 0.1907 0.02194 0.48687 0.0
C199 C 0.15393 0.01652 0.49355 0.0
C200 C 0.13564 0.98854 0.47658 0.0
C201 C 0.20901 0.0538 0.50293 0.0
C202 C 0.23503 0.0725 0.4822 0.0
C203 C 0.24906 0.10479 0.49558 0.0
C204 C 0.23586 0.11916 0.52922 0.0
C205 C 0.20969 0.10108 0.5502 0.0
C206 C 0.19796 0.06759 0.53773 0.0
C207 C 0.19198 0.11837 0.58291 0.0
C208 C 0.21084 0.14147 0.60709 0.0
C209 C 0.15513 0.11307 0.58901 0.0
C210 C 0.13775 0.12985 0.61861 0.0
C211 C 0.1565 0.15293 0.64244 0.0
C212 C 0.27649 0.12448 0.4738 0.0
C213 C 0.30666 0.13858 0.49216 0.0
C214 C 0.27247 0.12984 0.43484 0.0
C215 C 0.29808 0.14924 0.41471 0.0
C216 C 0.32812 0.16317 0.43325 0.0
C217 C 0.33235 0.15767 0.47199 0.0
C218 C 0.19312 0.15893 0.63638 0.0
H219 H 0.20411 0.95299 0.42615 0.0
H220 H 0.23707 0.00098 0.45763 0.0
H221 H 0.13867 0.0347 0.51074 0.0
H222 H 0.10718 0.98557 0.48156 0.0
H223 H 0.24392 0.06247 0.45527 0.0
H224 H 0.1792 0.05263 0.55476 0.0
H225 H 0.24487 0.14526 0.53798 0.0
H226 H 0.23924 0.14606 0.60346 0.0
H227 H 0.1393 0.09653 0.57043 0.0
H228 H 0.10937 0.12522 0.62262 0.0
H229 H 0.3105 0.13461 0.5221 0.0
H230 H 0.24926 0.11959 0.4201 0.0
H231 H 0.20793 0.17689 0.65444 0.0
H232 H 0.35549 0.16829 0.4866 0.0
H233 H 0.29452 0.1534 0.38477 0.0
C234 C 0.15502 0.99362 0.91662 0.0
C235 C 0.14316 0.02295 0.93728 0.0
C236 C 0.17481 0.96693 0.93424 0.0
C237 C 0.1827 0.96907 0.97288 0.0
C238 C 0.17151 -0.001 0.99325 0.0
C239 C 0.152 0.02587 0.9755 0.0
C240 C 0.20074 0.93911 0.99212 0.0
C241 C 0.23049 0.92276 0.97565 0.0
C242 C 0.2458 0.89235 0.99193 0.0
C243 C 0.23127 0.87865 0.02545 0.0
C244 C 0.20161 0.89483 0.04246 0.0
C245 C 0.18666 0.92521 0.02567 0.0
C246 C 0.18466 0.87882 0.0763 0.0
C247 C 0.17944 0.84181 0.07881 0.0
C248 C 0.17182 0.90058 0.10539 0.0
C249 C 0.15306 0.88582 0.1356 0.0
C250 C 0.14689 0.84908 0.13726 0.0
C251 C 0.2758 0.8739 0.97297 0.0
C252 C 0.27589 0.86996 0.93359 0.0
C253 C 0.304 0.85919 0.99408 0.0
C254 C 0.33124 0.84036 0.97628 0.0
C255 C 0.33086 0.83614 0.9371 0.0
C256 C 0.3033 0.85138 0.9158 0.0
C257 C 0.16075 0.82705 0.10912 0.0
H258 H 0.14816 0.99099 0.88712 0.0
H259 H 0.18276 0.94398 0.91797 0.0
H260 H 0.17746 0.00137 0.02298 0.0
H261 H 0.14285 0.04838 0.99177 0.0
H262 H 0.24166 0.93379 0.95 0.0
H263 H 0.16286 0.93703 0.03767 0.0
H264 H 0.24256 0.85489 0.03793 0.0
H265 H 0.1886 0.82435 0.05667 0.0
H266 H 0.17584 0.9291 0.10453 0.0
H267 H 0.14256 0.90312 0.15723 0.0
H268 H 0.25432 0.88047 0.91654 0.0
H269 H 0.305 0.8622 0.02436 0.0
H270 H 0.15605 0.79863 0.11002 0.0
H271 H 0.30269 0.84826 0.88551 0.0
H272 H 0.3525 0.82882 0.99304 0.0
C273 C 0.81792 0.1686 0.62207 0.0
C274 C 0.85532 0.16806 0.62558 0.0
C275 C 0.80137 0.15297 0.59083 0.0
C276 C 0.82206 0.13711 0.56239 0.0
C277 C 0.8596 0.13856 0.56521 0.0
C278 C 0.87601 0.15364 0.59659 0.0
C279 C 0.80492 0.11786 0.53055 0.0
C280 C 0.77378 0.13086 0.5132 0.0
C281 C 0.75823 0.11286 0.48251 0.0
C282 C 0.77403 0.08135 0.46953 0.0
C283 C 0.80513 0.06818 0.48651 0.0
C284 C 0.82016 0.08629 0.5171 0.0
C285 C 0.8232 0.0365 0.47124 0.0
C286 C 0.80423 0.00473 0.46501 0.0
C287 C 0.85993 0.03799 0.46314 0.0
C288 C 0.87749 0.00822 0.44919 0.0
C289 C 0.85872 0.97636 0.44347 0.0
C290 C 0.72638 0.12764 0.46306 0.0
C291 C 0.72368 0.16442 0.45654 0.0
C292 C 0.69875 0.10513 0.45032 0.0
C293 C 0.66897 0.11918 0.43175 0.0
C294 C 0.66624 0.15595 0.42598 0.0
C295 C 0.69384 0.17842 0.43824 0.0
C296 C 0.822 0.97467 0.45153 0.0
H297 H 0.80159 0.17986 0.64417 0.0
H298 H 0.77242 0.15223 0.58964 0.0
H299 H 0.8764 0.12758 0.54337 0.0
H300 H 0.90494 0.1534 0.59865 0.0
H301 H 0.76185 0.15524 0.52328 0.0
H302 H 0.84374 0.07542 0.53063 0.0
H303 H 0.76307 0.06782 0.44519 0.0
H304 H 0.77592 0.00301 0.47125 0.0
H305 H 0.87501 0.06229 0.4674 0.0
H306 H 0.90585 0.0099 0.44312 0.0
H307 H 0.7448 0.1824 0.46524 0.0
H308 H 0.6999 0.07673 0.45515 0.0
H309 H 0.80723 0.95016 0.44745 0.0
H310 H 0.69216 0.20687 0.43381 0.0
H311 H 0.64783 0.10152 0.42239 0.0
Sc312 Sc 0.99743 0.76334 0.3031 0.0
Sc313 Sc 0.00202 0.85625 0.31298 0.0
Sc314 Sc 0.00182 0.80241 0.39334 0.0
O315 O 0.00036 0.80726 0.33641 0.0
C316 C 0.94566 0.74189 0.3701 0.0
C317 C 0.94687 0.81823 0.25893 0.0
C318 C 0.95106 0.86837 0.38411 0.0
C319 C 0.05124 0.81151 0.25699 0.0
C320 C 0.05223 0.73963 0.36773 0.0
C321 C 0.05626 0.86709 0.37993 0.0
O322 O 0.95335 0.74139 0.3352 0.0
O323 O 0.95704 0.84532 0.27738 0.0
O324 O 0.95908 0.83968 0.401 0.0
O325 O 0.04104 0.7809 0.26786 0.0
O326 O 0.04464 0.76465 0.39029 0.0
O327 O 0.04747 0.87215 0.34584 0.0
O328 O 0.03615 0.73461 0.3366 0.0
O329 O 0.03852 0.84034 0.26961 0.0
O330 O 0.04099 0.84424 0.40094 0.0
O331 O 0.95964 0.78726 0.2642 0.0
O332 O 0.96227 0.76087 0.39393 0.0
O333 O 0.96561 0.87836 0.35355 0.0
Sc334 Sc 0.00106 0.2387 0.80252 0.0
Sc335 Sc -0.00086 0.14566 0.79816 0.0
Sc336 Sc 0.99536 0.18791 0.88547 0.0
O337 O -0.00136 0.1908 0.8287 0.0
C338 C 0.04969 0.25302 0.87279 0.0
C339 C 0.05557 0.19187 0.75404 0.0
C340 C 0.04815 0.1254 0.86933 0.0
C341 C 0.94945 0.19675 0.74837 0.0
C342 C 0.94424 0.25171 0.86854 0.0
C343 C 0.94377 0.12396 0.86001 0.0
O344 O 0.04459 0.2558 0.83758 0.0
O345 O 0.04563 0.16225 0.76774 0.0
O346 O 0.0398 0.15216 0.88914 0.0
O347 O 0.95742 0.22541 0.76532 0.0
O348 O 0.95051 0.22304 0.88623 0.0
O349 O 0.95228 0.12527 0.82551 0.0
O350 O 0.96215 0.26216 0.84011 0.0
O351 O 0.9643 0.16713 0.75555 0.0
O352 O 0.9587 0.14319 0.88495 0.0
O353 O 0.04065 0.22128 0.76198 0.0
O354 O 0.03188 0.23198 0.89376 0.0
O355 O 0.0339 0.1184 0.83762 0.0
Sc356 Sc 0.49593 0.26301 0.30043 0.0
Sc357 Sc 0.50768 0.35563 0.31133 0.0
Sc358 Sc 0.50265 0.30079 0.39112 0.0
O359 O 0.50201 0.30639 0.33422 0.0
C360 C 0.44256 0.24464 0.36718 0.0
C361 C 0.44756 0.32153 0.25946 0.0
C362 C 0.45726 0.37111 0.38192 0.0
C363 C 0.55296 0.30814 0.25429 0.0
C364 C 0.54879 0.23471 0.36443 0.0
C365 C 0.56468 0.35866 0.37792 0.0
O366 O 0.45231 0.24204 0.33311 0.0
O367 O 0.46298 0.34806 0.27445 0.0
O368 O 0.46467 0.34267 0.3995 0.0
O369 O 0.5389 0.27863 0.26351 0.0
O370 O 0.54039 0.25829 0.3883 0.0
O371 O 0.5532 0.36814 0.34579 0.0
O372 O 0.53445 0.23214 0.33204 0.0
O373 O 0.5442 0.33765 0.26881 0.0
O374 O 0.5475 0.33661 0.39823 0.0
O375 O 0.45675 0.28942 0.26529 0.0
O376 O 0.45829 0.26421 0.39115 0.0
O377 O 0.47153 0.37977 0.35078 0.0
Sc378 Sc 0.49651 0.73109 0.80725 0.0
Sc379 Sc 0.49007 0.63767 0.80738 0.0
Sc380 Sc 0.49083 0.68399 0.89248 0.0
O381 O 0.49262 0.68426 0.8356 0.0
C382 C 0.54722 0.74635 0.87568 0.0
C383 C 0.54648 0.67974 0.75842 0.0
C384 C 0.5415 0.61939 0.87695 0.0
C385 C 0.44107 0.68894 0.75704 0.0
C386 C 0.44184 0.74906 0.87379 0.0
C387 C 0.4361 0.62118 0.87292 0.0
O388 O 0.54165 0.74849 0.84046 0.0
O389 O 0.53531 0.651 0.77309 0.0
O390 O 0.53399 0.64676 0.89619 0.0
O391 O 0.4515 0.71795 0.77178 0.0
O392 O 0.44752 0.72099 0.89273 0.0
O393 O 0.44404 0.6195 0.83827 0.0
O394 O 0.45944 0.75767 0.84449 0.0
O395 O 0.45399 0.65879 0.7658 0.0
O396 O 0.45229 0.64142 0.8959 0.0
O397 O 0.53378 0.71018 0.76624 0.0
O398 O 0.52911 0.72641 0.89741 0.0
O399 O 0.52609 0.61139 0.84613 0.0
C400 C 0.13503 0.27887 0.92473 0.0
C401 C 0.12985 0.31601 0.92841 0.0
C402 C 0.07462 0.31251 0.89136 0.0
C403 C 0.07809 0.27489 0.89041 0.0
N404 N 0.11037 0.22161 0.90704 0.0
N405 N 0.09378 0.36826 0.91921 0.0
C406 C 0.10797 0.25788 0.90741 0.0
C407 C 0.09944 0.33289 0.9127 0.0
N408 N 0.16627 0.2639 0.93703 0.0
N409 N 0.04781 0.32882 0.87163 0.0
H410 H 0.11194 0.3843 0.93371 0.0
H411 H 0.07009 0.38134 0.91262 0.0
H412 H 0.02804 0.31504 0.85696 0.0
H413 H 0.04635 0.35617 0.86753 0.0
H414 H 0.1737 0.23781 0.93152 0.0
H415 H 0.18621 0.27828 0.9509 0.0
H416 H 0.12877 0.20719 0.92284 0.0
H417 H 0.09277 0.20546 0.89202 0.0
C418 C 0.8526 0.70187 0.38288 0.0
C419 C 0.85808 0.68075 0.41549 0.0
C420 C 0.92201 0.6952 0.41413 0.0
C421 C 0.91573 0.71964 0.38432 0.0
N422 N 0.8734 0.75201 0.34613 0.0
N423 N 0.89676 0.66231 0.46636 0.0
C424 C 0.88059 0.72444 0.37004 0.0
C425 C 0.89249 0.67865 0.43224 0.0
N426 N 0.82085 0.69999 0.36386 0.0
N427 N 0.95624 0.68723 0.42473 0.0
H428 H 0.87576 0.65033 0.48099 0.0
H429 H 0.92043 0.66347 0.48183 0.0
H430 H 0.97864 0.69905 0.41253 0.0
H431 H 0.9625 0.66666 0.44326 0.0
H432 H 0.81671 0.71214 0.33784 0.0
H433 H 0.7998 0.68354 0.37232 0.0
H434 H 0.8476 0.75883 0.33772 0.0
H435 H 0.89277 0.77046 0.33794 0.0
C436 C 0.89634 0.32966 0.91324 0.0
C437 C 0.86106 0.31588 0.91548 0.0
C438 C 0.87951 0.26276 0.88099 0.0
C439 C 0.91548 0.27463 0.88292 0.0
N440 N 0.95927 0.31625 0.90662 0.0
N441 N 0.81968 0.26716 0.90654 0.0
C442 C 0.92427 0.30736 0.90042 0.0
C443 C 0.85271 0.28186 0.90059 0.0
N444 N 0.90303 0.36425 0.92274 0.0
N445 N 0.87091 0.2337 0.85973 0.0
H446 H 0.79932 0.2802 0.92098 0.0
H447 H 0.8134 0.24091 0.89997 0.0
H448 H 0.88995 0.21926 0.84477 0.0
H449 H 0.84469 0.22584 0.85419 0.0
H450 H 0.92752 0.37676 0.91801 0.0
H451 H 0.88313 0.38145 0.93214 0.0
H452 H 0.96721 0.338 0.92271 0.0
H453 H 0.98047 0.29997 0.89872 0.0
C454 C 0.14489 0.71364 0.39941 0.0
C455 C 0.1397 0.67724 0.40837 0.0
C456 C 0.07759 0.68023 0.3864 0.0
C457 C 0.08291 0.71666 0.37746 0.0
N458 N 0.12367 0.76487 0.36468 0.0
N459 N 0.10436 0.62376 0.40382 0.0
C460 C 0.11725 0.73241 0.38071 0.0
C461 C 0.107 0.65983 0.39976 0.0
N462 N 0.17569 0.73062 0.41001 0.0
N463 N 0.04423 0.6655 0.38339 0.0
H464 H 0.12532 0.60818 0.41399 0.0
H465 H 0.08259 0.60887 0.3945 0.0
H466 H 0.0226 0.67894 0.37161 0.0
H467 H 0.03747 0.64058 0.39405 0.0
H468 H 0.17916 0.75805 0.40825 0.0
H469 H 0.19694 0.71767 0.42321 0.0
H470 H 0.14904 0.77627 0.36275 0.0
H471 H 0.10407 0.77895 0.35 0.0
C472 C 0.59572 0.82422 0.92039 0.0
C473 C 0.62625 0.80705 0.93561 0.0
C474 C 0.60196 0.74982 0.91549 0.0
C475 C 0.57597 0.76765 0.89335 0.0
N476 N 0.54794 0.82288 0.87459 0.0
N477 N 0.63724 0.75408 0.97194 0.0
C478 C 0.57292 0.80521 0.89549 0.0
C479 C 0.6237 0.76971 0.94033 0.0
N480 N 0.5844 0.85546 0.93558 0.0
N481 N 0.60655 0.71395 0.91232 0.0
H482 H 0.6481 0.76918 0.99381 0.0
H483 H 0.63318 0.72734 0.97849 0.0
H484 H 0.59187 0.69843 0.89349 0.0
H485 H 0.62733 0.70048 0.92575 0.0
H486 H 0.56044 0.86769 0.92806 0.0
H487 H 0.59608 0.86572 0.95998 0.0
H488 H 0.54729 0.85054 0.87279 0.0
H489 H 0.52965 0.8101 0.85704 0.0
C490 C 0.35289 0.22134 0.41048 0.0
C491 C 0.35546 0.18376 0.41231 0.0
C492 C 0.41448 0.18584 0.38254 0.0
C493 C 0.41162 0.22339 0.38003 0.0
N494 N 0.37585 0.27642 0.38404 0.0
N495 N 0.38476 0.12947 0.39427 0.0
C496 C 0.38009 0.24104 0.39177 0.0
C497 C 0.38502 0.16576 0.39636 0.0
N498 N 0.32493 0.2382 0.42756 0.0
N499 N 0.446 0.16955 0.37356 0.0
H500 H 0.36404 0.11386 0.40506 0.0
H501 H 0.40358 0.11488 0.3793 0.0
H502 H 0.46806 0.18316 0.36273 0.0
H503 H 0.45133 0.14292 0.3792 0.0
H504 H 0.32367 0.26561 0.43121 0.0
H505 H 0.30374 0.22458 0.44019 0.0
H506 H 0.35208 0.29014 0.38836 0.0
H507 H 0.39524 0.29158 0.37019 0.0
C508 C 0.3505 0.78082 0.90391 0.0
C509 C 0.359 0.81491 0.9185 0.0
C510 C 0.42225 0.80591 0.90367 0.0
C511 C 0.4133 0.77291 0.88687 0.0
N512 N 0.36848 0.73249 0.86326 0.0
N513 N 0.40122 0.8631 0.92549 0.0
C514 C 0.37724 0.76142 0.88462 0.0
C515 C 0.3944 0.82847 0.91629 0.0
N516 N 0.31739 0.76632 0.90987 0.0
N517 N 0.45734 0.81496 0.90908 0.0
H518 H 0.38137 0.88044 0.93473 0.0
H519 H 0.42577 0.87549 0.9208 0.0
H520 H 0.47848 0.79891 0.90049 0.0
H521 H 0.46551 0.83686 0.92482 0.0
H522 H 0.31104 0.74003 0.9035 0.0
H523 H 0.29706 0.77951 0.92419 0.0
H524 H 0.34221 0.72489 0.85755 0.0
H525 H 0.38746 0.71799 0.84827 0.0
C526 C 0.60101 0.17254 0.42681 0.0
C527 C 0.63422 0.1715 0.40769 0.0
C528 C 0.61025 0.20874 0.35703 0.0
C529 C 0.57671 0.20913 0.37579 0.0
N530 N 0.53744 0.18444 0.42292 0.0
N531 N 0.66897 0.18061 0.35274 0.0
C532 C 0.57124 0.18867 0.4089 0.0
C533 C 0.63813 0.18718 0.37185 0.0
N534 N 0.5984 0.15996 0.46283 0.0
N535 N 0.61615 0.23063 0.32688 0.0
H536 H 0.67395 0.18868 0.32515 0.0
H537 H 0.67395 0.18868 0.32515 0.0
H538 H 0.59638 0.24667 0.31513 0.0
H539 H 0.64127 0.23504 0.31512 0.0
H540 H 0.57596 0.16367 0.47968 0.0
H541 H 0.61975 0.14828 0.4771 0.0
H542 H 0.53121 0.16701 0.44477 0.0
H543 H 0.515 0.19583 0.41029 0.0
C544 C 0.35811 0.58919 0.93224 0.0
C545 C 0.35914 0.55208 0.92544 0.0
C546 C 0.40987 0.56016 0.8828 0.0
C547 C 0.40772 0.59753 0.88799 0.0
N548 N 0.3739 0.64798 0.90971 0.0
N549 N 0.37889 0.50368 0.88636 0.0
C550 C 0.37992 0.61218 0.91024 0.0
C551 C 0.38269 0.53807 0.89804 0.0
N552 N 0.3377 0.60237 0.96083 0.0
N553 N 0.43895 0.54535 0.86567 0.0
H554 H 0.35886 0.48686 0.89658 0.0
H555 H 0.39313 0.49312 0.86384 0.0
H556 H 0.4604 0.5601 0.85525 0.0
H557 H 0.44352 0.51805 0.86514 0.0
H558 H 0.33907 0.62871 0.96968 0.0
H559 H 0.3215 0.58641 0.97779 0.0
H560 H 0.3519 0.65979 0.92253 0.0
H561 H 0.38887 0.66547 0.89319 0.0
C562 C 0.62255 0.40504 0.4503 0.0
C563 C 0.63566 0.43337 0.42771 0.0
C564 C 0.61607 0.40212 0.37099 0.0
C565 C 0.59672 0.37778 0.39385 0.0
N566 N 0.60034 0.34448 0.45182 0.0
N567 N 0.64528 0.45946 0.3664 0.0
C568 C 0.60536 0.37565 0.43272 0.0
C569 C 0.63309 0.4318 0.38793 0.0
N570 N 0.62565 0.4067 0.48858 0.0
N571 N 0.62042 0.39525 0.33356 0.0
H572 H 0.65842 0.48152 0.37765 0.0
H573 H 0.64012 0.46173 0.33769 0.0
H574 H 0.61185 0.37146 0.32151 0.0
H575 H 0.63667 0.41037 0.31588 0.0
H576 H 0.61262 0.38923 0.50679 0.0
H577 H 0.63963 0.42692 0.50232 0.0
H578 H 0.60826 0.34052 0.4796 0.0
H579 H 0.59357 0.32089 0.43821 0.0
C580 C 0.62951 0.57744 0.90629 0.0
C581 C 0.61681 0.54639 0.92472 0.0
C582 C 0.5548 0.56437 0.91344 0.0
C583 C 0.56751 0.59411 0.89278 0.0
N584 N 0.61607 0.62694 0.86467 0.0
N585 N 0.56813 0.50698 0.94107 0.0
C586 C 0.60467 0.60012 0.88781 0.0
C587 C 0.57963 0.53889 0.92693 0.0
N588 N 0.66518 0.58559 0.90729 0.0
N589 N 0.51907 0.5611 0.92114 0.0
H590 H 0.58546 0.48782 0.9519 0.0
H591 H 0.54172 0.49823 0.93946 0.0
H592 H 0.49997 0.57904 0.91135 0.0
H593 H 0.50855 0.54225 0.93958 0.0
H594 H 0.67574 0.60966 0.89794 0.0
H595 H 0.68415 0.56917 0.92002 0.0
H596 H 0.64262 0.6306 0.85674 0.0
H597 H 0.59846 0.64415 0.851 0.0
C598 C 0.37903 0.43449 0.39056 0.0
C599 C 0.38372 0.44683 0.42795 0.0
C600 C 0.43697 0.40977 0.43511 0.0
C601 C 0.43099 0.39571 0.39862 0.0
N602 N 0.39141 0.38793 0.34551 0.0
N603 N 0.41123 0.4395 0.48891 0.0
C604 C 0.40047 0.40601 0.37748 0.0
C605 C 0.41081 0.43225 0.45124 0.0
N606 N 0.35533 0.45094 0.367 0.0
N607 N 0.46845 0.40341 0.45356 0.0
H608 H 0.39208 0.45548 0.50181 0.0
H609 H 0.42829 0.42683 0.50784 0.0
H610 H 0.48899 0.38807 0.44234 0.0
H611 H 0.47565 0.4162 0.47843 0.0
H612 H 0.35375 0.44554 0.33831 0.0
H613 H 0.33927 0.4721 0.37535 0.0
H614 H 0.36752 0.39205 0.33101 0.0
H615 H 0.406 0.36631 0.33557 0.0
C616 C 0.86872 0.08049 0.91563 0.0
C617 C 0.871 0.04486 0.90286 0.0
C618 C 0.92042 0.06104 0.86122 0.0
C619 C 0.91692 0.0972 0.87227 0.0
N620 N 0.88106 0.14242 0.90191 0.0
N621 N 0.89124 0.00382 0.85556 0.0
C622 C 0.88892 0.1073 0.89697 0.0
C623 C 0.89424 0.03608 0.8729 0.0
N624 N 0.84875 0.08855 0.9466 0.0
N625 N 0.9499 0.04972 0.84195 0.0
H626 H 0.8719 0.98505 0.86315 0.0
H627 H 0.9053 0.99736 0.83123 0.0
H628 H 0.97111 0.06624 0.83438 0.0
H629 H 0.95521 0.02296 0.83704 0.0
H630 H 0.84938 0.11339 0.95948 0.0
H631 H 0.83378 0.06968 0.96132 0.0
H632 H 0.85882 0.15114 0.91688 0.0
H633 H 0.89453 0.16271 0.88769 0.0
C634 C 0.13499 0.90244 0.4375 0.0
C635 C 0.13195 0.93941 0.43021 0.0
C636 C 0.07825 0.92886 0.39263 0.0
C637 C 0.08292 0.8916 0.39687 0.0
N638 N 0.11988 0.84272 0.41743 0.0
N639 N 0.10681 0.98653 0.39248 0.0
C640 C 0.11257 0.87826 0.41758 0.0
C641 C 0.10559 0.95215 0.40495 0.0
N642 N 0.15815 0.89052 0.46447 0.0
N643 N 0.04672 0.94232 0.37927 0.0
H644 H 0.12696 0.00428 0.40037 0.0
H645 H 0.09009 0.99615 0.3713 0.0
H646 H 0.02469 0.92654 0.37245 0.0
H647 H 0.04095 0.9694 0.37922 0.0
H648 H 0.15863 0.86428 0.47388 0.0
H649 H 0.17503 0.9074 0.47956 0.0
H650 H 0.14318 0.83194 0.42878 0.0
H651 H 0.10422 0.82432 0.40297 0.0
C652 C 0.08148 0.04472 0.92306 0.0
C653 C 0.11905 0.04925 0.9195 0.0
C654 C 0.11027 0.1045 0.88396 0.0
C655 C 0.07275 0.09907 0.88599 0.0
N656 N 0.02197 0.06325 0.90422 0.0
N657 N 0.16986 0.08055 0.89392 0.0
C658 C 0.05817 0.0689 0.9046 0.0
C659 C 0.13366 0.07837 0.89918 0.0
N660 N 0.06819 0.01771 0.94488 0.0
N661 N 0.12337 0.13499 0.86807 0.0
H662 H 0.1878 0.06252 0.90579 0.0
H663 H 0.18216 0.09884 0.8761 0.0
H664 H 0.10691 0.15387 0.85544 0.0
H665 H 0.1501 0.14273 0.86914 0.0
H666 H 0.04142 0.01524 0.95244 0.0
H667 H 0.0843 0.99848 0.95751 0.0
H668 H 0.00975 0.03977 0.91297 0.0
H669 H 0.00385 0.0815 0.89315 0.0
C670 C 0.90487 0.9295 0.45364 0.0
C671 C 0.87841 0.94471 0.43004 0.0
C672 C 0.89421 0.90304 0.38003 0.0
C673 C 0.92443 0.89224 0.40133 0.0
N674 N 0.96177 0.89935 0.45651 0.0
N675 N 0.85001 0.94881 0.3691 0.0
C676 C 0.93051 0.90625 0.43784 0.0
C677 C 0.87336 0.93207 0.39282 0.0
N678 N 0.90532 0.93713 0.49122 0.0
N679 N 0.88508 0.88511 0.34799 0.0
H680 H 0.8343 0.97028 0.37729 0.0
H681 H 0.84829 0.94323 0.34046 0.0
H682 H 0.89941 0.86322 0.33826 0.0
H683 H 0.86142 0.88965 0.33325 0.0
H684 H 0.92188 0.92413 0.51039 0.0
H685 H 0.88659 0.95383 0.50378 0.0
H686 H 0.96911 0.91216 0.48132 0.0
H687 H 0.98203 0.88348 0.44558 0.0
C688 C 0.40126 0.35693 0.17231 0.0
C689 C 0.36501 0.34879 0.18067 0.0
C690 C 0.38277 0.3221 0.24086 0.0
C691 C 0.4191 0.32901 0.23176 0.0
N692 N 0.4639 0.34791 0.18715 0.0
N693 N 0.32098 0.31975 0.21958 0.0
C694 C 0.42861 0.345 0.19698 0.0
C695 C 0.35568 0.33011 0.21397 0.0
N696 N 0.40945 0.37685 0.14119 0.0
N697 N 0.37418 0.30937 0.2758 0.0
H698 H 0.30038 0.32617 0.20095 0.0
H699 H 0.3129 0.30287 0.24122 0.0
H700 H 0.3934 0.30279 0.29594 0.0
H701 H 0.34811 0.30748 0.28588 0.0
H702 H 0.43467 0.38759 0.13604 0.0
H703 H 0.39048 0.38468 0.1213 0.0
H704 H 0.47266 0.35524 0.16045 0.0
H705 H 0.48477 0.34044 0.20494 0.0
C706 C 0.58328 0.66071 0.66159 0.0
C707 C 0.62059 0.66006 0.66912 0.0
C708 C 0.60967 0.67546 0.73515 0.0
C709 C 0.57247 0.67668 0.72736 0.0
N710 N 0.52389 0.67698 0.68267 0.0
N711 N 0.6702 0.67234 0.71042 0.0
C712 C 0.55934 0.6715 0.69032 0.0
C713 C 0.63408 0.66921 0.70517 0.0
N714 N 0.57062 0.64932 0.62751 0.0
N715 N 0.62141 0.6793 0.77138 0.0
H716 H 0.68866 0.6676 0.68902 0.0
H717 H 0.68187 0.68208 0.73493 0.0
H718 H 0.60429 0.68555 0.79355 0.0
H719 H 0.64763 0.67466 0.77991 0.0
H720 H 0.54365 0.64492 0.62181 0.0
H721 H 0.58723 0.64182 0.60538 0.0
H722 H 0.51326 0.67766 0.65559 0.0
H723 H 0.50531 0.68361 0.70331 0.0
C724 C 0.64072 0.3243 0.20343 0.0
C725 C 0.6276 0.32828 0.1662 0.0
C726 C 0.56855 0.3071 0.18612 0.0
C727 C 0.58003 0.30899 0.22407 0.0
N728 N 0.62677 0.31756 0.26984 0.0
N729 N 0.57857 0.32615 0.1219 0.0
C730 C 0.61621 0.31677 0.23301 0.0
C731 C 0.59151 0.31988 0.15732 0.0
N732 N 0.67662 0.32739 0.21021 0.0
N733 N 0.53568 0.29321 0.17763 0.0
H734 H 0.59445 0.33536 0.09982 0.0
H735 H 0.55152 0.32482 0.11498 0.0
H736 H 0.51793 0.28394 0.19804 0.0
H737 H 0.52724 0.28787 0.15028 0.0
H738 H 0.68852 0.32184 0.23604 0.0
H739 H 0.69509 0.33289 0.18897 0.0
H740 H 0.65157 0.32695 0.27882 0.0
H741 H 0.60992 0.30999 0.29185 0.0
C742 C 0.38964 0.70325 0.66563 0.0
C743 C 0.36576 0.67399 0.66811 0.0
C744 C 0.38271 0.66562 0.73401 0.0
C745 C 0.41192 0.68924 0.72875 0.0
N746 N 0.44438 0.73004 0.68843 0.0
N747 N 0.34118 0.62514 0.70427 0.0
C748 C 0.4154 0.70855 0.69453 0.0
C749 C 0.3622 0.65489 0.70241 0.0
N750 N 0.38768 0.7258 0.63551 0.0
N751 N 0.37462 0.65358 0.76931 0.0
H752 H 0.32604 0.61582 0.68171 0.0
H753 H 0.34101 0.60803 0.72737 0.0
H754 H 0.38876 0.66177 0.79314 0.0
H755 H 0.35175 0.63873 0.77536 0.0
H756 H 0.40216 0.74944 0.63372 0.0
H757 H 0.3688 0.72258 0.6141 0.0
H758 H 0.45043 0.74104 0.66227 0.0
H759 H 0.46397 0.73496 0.70863 0.0
C760 C 0.87009 0.81037 0.18794 0.0
C761 C 0.8776 0.84022 0.16472 0.0
C762 C 0.93253 0.85154 0.19994 0.0
C763 C 0.92301 0.82455 0.22616 0.0
N764 N 0.87993 0.78127 0.24801 0.0
N765 N 0.9112 0.89435 0.1546 0.0
C766 C 0.89098 0.80469 0.22098 0.0
C767 C 0.90735 0.8624 0.1726 0.0
N768 N 0.8439 0.78683 0.17781 0.0
N769 N 0.96637 0.86551 0.19963 0.0
H770 H 0.89275 0.90386 0.13499 0.0
H771 H 0.93063 0.91297 0.16213 0.0
H772 H 0.98666 0.85683 0.21753 0.0
H773 H 0.97547 0.88264 0.1786 0.0
H774 H 0.83976 0.76263 0.19146 0.0
H775 H 0.82816 0.79012 0.15381 0.0
H776 H 0.85494 0.76893 0.24771 0.0
H777 H 0.89461 0.77636 0.27237 0.0
C778 C 0.14169 0.16114 0.71106 0.0
C779 C 0.1366 0.1711 0.67291 0.0
C780 C 0.08094 0.20148 0.68912 0.0
C781 C 0.08583 0.19117 0.72722 0.0
N782 N 0.12613 0.17238 0.77613 0.0
N783 N 0.10839 0.21001 0.62798 0.0
C784 C 0.11812 0.17475 0.73871 0.0
C785 C 0.1086 0.19462 0.66284 0.0
N786 N 0.16741 0.13702 0.72066 0.0
N787 N 0.04907 0.21534 0.67735 0.0
H788 H 0.1286 0.20557 0.60832 0.0
H789 H 0.09037 0.22977 0.62012 0.0
H790 H 0.02787 0.22042 0.69547 0.0
H791 H 0.04267 0.2193 0.64911 0.0
H792 H 0.16944 0.12582 0.74741 0.0
H793 H 0.18516 0.12616 0.70128 0.0
H794 H 0.1506 0.16322 0.78628 0.0
H795 H 0.10966 0.18337 0.7967 0.0
C796 C 0.13754 0.83049 0.20434 0.0
C797 C 0.12379 0.83421 0.16733 0.0
C798 C 0.06498 0.81336 0.18855 0.0
C799 C 0.07748 0.81439 0.2262 0.0
N800 N 0.12461 0.82523 0.27106 0.0
N801 N 0.0739 0.83252 0.12411 0.0
C802 C 0.1136 0.82305 0.23443 0.0
C803 C 0.08744 0.82612 0.15926 0.0
N804 N 0.17354 0.83365 0.21048 0.0
N805 N 0.03152 0.8004 0.1809 0.0
H806 H 0.08945 0.84167 0.10174 0.0
H807 H 0.04675 0.83132 0.11765 0.0
H808 H 0.01402 0.79159 0.2018 0.0
H809 H 0.02212 0.79559 0.15379 0.0
H810 H 0.18579 0.82797 0.2361 0.0
H811 H 0.19168 0.83921 0.18895 0.0
H812 H 0.14934 0.83539 0.27926 0.0
H813 H 0.10806 0.81854 0.29363 0.0
C814 C 0.8966 0.21086 0.6578 0.0
C815 C 0.8735 0.18095 0.66015 0.0
C816 C 0.89184 0.17166 0.7255 0.0
C817 C 0.92004 0.19645 0.72038 0.0
N818 N 0.9501 0.23981 0.68124 0.0
N819 N 0.85101 0.13063 0.69554 0.0
C820 C 0.92233 0.21667 0.68668 0.0
C821 C 0.87113 0.16101 0.69402 0.0
N822 N 0.89376 0.23367 0.62797 0.0
N823 N 0.88478 0.15851 0.76062 0.0
H824 H 0.83574 0.12136 0.67304 0.0
H825 H 0.85177 0.11299 0.71817 0.0
H826 H 0.89901 0.16664 0.78441 0.0
H827 H 0.86255 0.14274 0.76671 0.0
H828 H 0.90754 0.25772 0.62628 0.0
H829 H 0.87491 0.2301 0.60659 0.0
H830 H 0.95567 0.25176 0.65543 0.0
H831 H 0.969 0.24556 0.70191 0.0
loop_
_geom_bond_atom_site_label_1
_geom_bond_atom_site_label_2
_geom_bond_distance
_geom_bond_site_symmetry_2
_ccdc_geom_bond_type
C0 C1 1.386 . S
C0 C2 1.397 . S
C0 H24 0.931 . S
C1 C0 1.386 . S
C1 C5 1.397 . S
C2 C0 1.397 . S
C2 C3 1.384 . S
C2 H25 0.930 . S
C3 C2 1.384 . S
C3 C4 1.377 . S
C3 C6 1.481 . S
C4 C3 1.377 . S
C4 C5 1.389 . S
C4 H26 0.929 . S
C5 C1 1.397 . S
C5 C4 1.389 . S
C5 H27 0.931 . S
C6 C3 1.481 . S
C6 C7 1.387 . S
C6 C11 1.390 1_556 S
C7 C6 1.387 . S
C7 C8 1.401 . S
C7 H28 0.930 . S
C8 C7 1.401 . S
C8 C9 1.376 1_556 S
C8 C17 1.511 . S
C9 C8 1.376 1_554 S
C9 C10 1.392 . S
C9 H30 0.931 . S
C10 C9 1.392 . S
C10 C11 1.361 . S
C10 C12 1.500 . S
C11 C6 1.390 1_554 S
C11 C10 1.361 . S
C11 H29 0.931 . S
C12 C10 1.500 . S
C12 C13 1.371 . S
C12 C14 1.365 . S
C13 C12 1.371 . S
C13 C23 1.386 . S
C13 H31 0.931 . S
C14 C12 1.365 . S
C14 C15 1.409 . S
C14 H32 0.929 . S
C15 C14 1.409 . S
C15 C16 1.380 . S
C15 H33 0.930 . S
C16 C15 1.380 . S
C16 C23 1.357 . S
C17 C8 1.511 . S
C17 C18 1.341 . S
C17 C19 1.371 . S
C18 C17 1.341 . S
C18 C22 1.394 . S
C18 H34 0.930 . S
C19 C17 1.371 . S
C19 C20 1.392 . S
C19 H35 0.931 1_556 S
C20 C19 1.392 . S
C20 C21 1.331 . S
C20 H38 0.932 . S
C21 C20 1.331 . S
C21 C22 1.336 . S
C22 C18 1.394 . S
C22 C21 1.336 . S
C22 H37 0.929 . S
C23 C13 1.386 . S
C23 C16 1.357 . S
C23 H36 0.928 . S
H24 C0 0.931 . S
H25 C2 0.930 . S
H26 C4 0.929 . S
H27 C5 0.931 . S
H28 C7 0.930 . S
H29 C11 0.931 . S
H30 C9 0.931 . S
H31 C13 0.931 . S
H32 C14 0.929 . S
H33 C15 0.930 . S
H34 C18 0.930 . S
H35 C19 0.931 1_554 S
H36 C23 0.928 . S
H37 C22 0.929 . S
H38 C20 0.932 . S
C39 C40 1.386 . S
C39 C41 1.397 . S
C39 H63 0.931 . S
C40 C39 1.386 . S
C40 C44 1.397 . S
C41 C39 1.397 . S
C41 C42 1.384 . S
C41 H64 0.930 . S
C42 C41 1.384 . S
C42 C43 1.377 . S
C42 C45 1.481 . S
C43 C42 1.377 . S
C43 C44 1.389 . S
C43 H65 0.929 . S
C44 C40 1.397 . S
C44 C43 1.389 . S
C44 H66 0.931 . S
C45 C42 1.481 . S
C45 C46 1.387 . S
C45 C50 1.390 . S
C46 C45 1.387 . S
C46 C47 1.401 . S
C46 H67 0.930 . S
C47 C46 1.401 . S
C47 C48 1.376 . S
C47 C56 1.511 . S
C48 C47 1.376 . S
C48 C49 1.392 . S
C48 H69 0.931 . S
C49 C48 1.392 . S
C49 C50 1.361 . S
C49 C51 1.500 . S
C50 C45 1.390 . S
C50 C49 1.361 . S
C50 H68 0.931 . S
C51 C49 1.500 . S
C51 C52 1.371 . S
C51 C53 1.365 . S
C52 C51 1.371 . S
C52 C62 1.386 . S
C52 H70 0.931 . S
C53 C51 1.365 . S
C53 C54 1.409 . S
C53 H71 0.929 . S
C54 C53 1.409 . S
C54 C55 1.380 . S
C54 H72 0.930 . S
C55 C54 1.380 . S
C55 C62 1.357 . S
C56 C47 1.511 . S
C56 C57 1.341 . S
C56 C58 1.371 . S
C57 C56 1.341 . S
C57 C61 1.394 . S
C57 H73 0.930 . S
C58 C56 1.371 . S
C58 C59 1.392 . S
C58 H74 0.931 . S
C59 C58 1.392 . S
C59 C60 1.331 . S
C59 H77 0.932 . S
C60 C59 1.331 . S
C60 C61 1.336 . S
C61 C57 1.394 . S
C61 C60 1.336 . S
C61 H76 0.929 . S
C62 C52 1.386 . S
C62 C55 1.357 . S
C62 H75 0.928 . S
H63 C39 0.931 . S
H64 C41 0.930 . S
H65 C43 0.929 . S
H66 C44 0.931 . S
H67 C46 0.930 . S
H68 C50 0.931 . S
H69 C48 0.931 . S
H70 C52 0.931 . S
H71 C53 0.929 . S
H72 C54 0.930 . S
H73 C57 0.930 . S
H74 C58 0.931 . S
H75 C62 0.928 . S
H76 C61 0.929 . S
H77 C59 0.932 . S
C78 C79 1.386 . S
C78 C80 1.397 . S
C78 H102 0.931 . S
C79 C78 1.386 . S
C79 C83 1.397 . S
C80 C78 1.397 . S
C80 C81 1.384 . S
C80 H103 0.930 . S
C81 C80 1.384 . S
C81 C82 1.377 . S
C81 C84 1.481 . S
C82 C81 1.377 . S
C82 C83 1.389 . S
C82 H104 0.929 1_556 S
C83 C79 1.397 . S
C83 C82 1.389 . S
C83 H105 0.931 . S
C84 C81 1.481 . S
C84 C85 1.387 . S
C84 C89 1.390 1_556 S
C85 C84 1.387 . S
C85 C86 1.401 . S
C85 H106 0.930 . S
C86 C85 1.401 . S
C86 C87 1.376 1_556 S
C86 C95 1.511 . S
C87 C86 1.376 1_554 S
C87 C88 1.392 . S
C87 H108 0.931 . S
C88 C87 1.392 . S
C88 C89 1.361 . S
C88 C90 1.500 . S
C89 C84 1.390 1_554 S
C89 C88 1.361 . S
C89 H107 0.931 . S
C90 C88 1.500 . S
C90 C91 1.371 . S
C90 C92 1.365 . S
C91 C90 1.371 . S
C91 C101 1.386 . S
C91 H109 0.931 . S
C92 C90 1.365 . S
C92 C93 1.409 . S
C92 H110 0.929 . S
C93 C92 1.409 . S
C93 C94 1.380 . S
C93 H111 0.930 . S
C94 C93 1.380 . S
C94 C101 1.357 . S
C95 C86 1.511 . S
C95 C96 1.341 . S
C95 C97 1.371 1_556 S
C96 C95 1.341 . S
C96 C100 1.394 . S
C96 H112 0.930 . S
C97 C95 1.371 1_554 S
C97 C98 1.392 1_554 S
C97 H113 0.931 . S
C98 C97 1.392 1_556 S
C98 C99 1.331 . S
C98 H116 0.932 1_556 S
C99 C98 1.331 . S
C99 C100 1.336 . S
C100 C96 1.394 . S
C100 C99 1.336 . S
C100 H115 0.929 . S
C101 C91 1.386 . S
C101 C94 1.357 . S
C101 H114 0.928 . S
H102 C78 0.931 . S
H103 C80 0.930 . S
H104 C82 0.929 1_554 S
H105 C83 0.931 . S
H106 C85 0.930 . S
H107 C89 0.931 . S
H108 C87 0.931 . S
H109 C91 0.931 . S
H110 C92 0.929 . S
H111 C93 0.930 . S
H112 C96 0.930 . S
H113 C97 0.931 . S
H114 C101 0.928 . S
H115 C100 0.929 . S
H116 C98 0.932 1_554 S
C117 C118 1.386 . S
C117 C119 1.397 . S
C117 H141 0.931 . S
C118 C117 1.386 . S
C118 C122 1.397 . S
C119 C117 1.397 . S
C119 C120 1.384 . S
C119 H142 0.930 . S
C120 C119 1.384 . S
C120 C121 1.377 . S
C120 C123 1.481 . S
C121 C120 1.377 . S
C121 C122 1.389 . S
C121 H143 0.929 . S
C122 C118 1.397 . S
C122 C121 1.389 . S
C122 H144 0.931 . S
C123 C120 1.481 . S
C123 C124 1.387 . S
C123 C128 1.390 . S
C124 C123 1.387 . S
C124 C125 1.401 . S
C124 H145 0.930 . S
C125 C124 1.401 . S
C125 C126 1.376 . S
C125 C134 1.511 . S
C126 C125 1.376 . S
C126 C127 1.392 . S
C126 H147 0.931 . S
C127 C126 1.392 . S
C127 C128 1.361 . S
C127 C129 1.500 . S
C128 C123 1.390 . S
C128 C127 1.361 . S
C128 H146 0.931 . S
C129 C127 1.500 . S
C129 C130 1.371 . S
C129 C131 1.365 . S
C130 C129 1.371 . S
C130 C140 1.386 . S
C130 H148 0.931 . S
C131 C129 1.365 . S
C131 C132 1.409 . S
C131 H149 0.929 . S
C132 C131 1.409 . S
C132 C133 1.380 . S
C132 H150 0.930 . S
C133 C132 1.380 . S
C133 C140 1.357 . S
C134 C125 1.511 . S
C134 C135 1.341 . S
C134 C136 1.371 . S
C135 C134 1.341 . S
C135 C139 1.394 . S
C135 H151 0.930 . S
C136 C134 1.371 . S
C136 C137 1.392 . S
C136 H152 0.931 . S
C137 C136 1.392 . S
C137 C138 1.331 . S
C137 H155 0.932 . S
C138 C137 1.331 . S
C138 C139 1.336 . S
C139 C135 1.394 . S
C139 C138 1.336 . S
C139 H154 0.929 . S
C140 C130 1.386 . S
C140 C133 1.357 . S
C140 H153 0.928 . S
H141 C117 0.931 . S
H142 C119 0.930 . S
H143 C121 0.929 . S
H144 C122 0.931 . S
H145 C124 0.930 . S
H146 C128 0.931 . S
H147 C126 0.931 . S
H148 C130 0.931 . S
H149 C131 0.929 . S
H150 C132 0.930 . S
H151 C135 0.930 . S
H152 C136 0.931 . S
H153 C140 0.928 . S
H154 C139 0.929 . S
H155 C137 0.932 . S
C156 C157 1.386 . S
C156 C158 1.397 1_545 S
C156 H180 0.931 . S
C157 C156 1.386 . S
C157 C161 1.397 1_545 S
C158 C156 1.397 1_565 S
C158 C159 1.384 . S
C158 H181 0.930 . S
C159 C158 1.384 . S
C159 C160 1.377 . S
C159 C162 1.481 . S
C160 C159 1.377 . S
C160 C161 1.389 . S
C160 H182 0.929 . S
C161 C157 1.397 1_565 S
C161 C160 1.389 . S
C161 H183 0.931 . S
C162 C159 1.481 . S
C162 C163 1.387 . S
C162 C167 1.390 1_556 S
C163 C162 1.387 . S
C163 C164 1.401 . S
C163 H184 0.930 . S
C164 C163 1.401 . S
C164 C165 1.376 1_556 S
C164 C173 1.511 . S
C165 C164 1.376 1_554 S
C165 C166 1.392 . S
C165 H186 0.931 . S
C166 C165 1.392 . S
C166 C167 1.361 . S
C166 C168 1.500 . S
C167 C162 1.390 1_554 S
C167 C166 1.361 . S
C167 H185 0.931 . S
C168 C166 1.500 . S
C168 C169 1.371 . S
C168 C170 1.365 . S
C169 C168 1.371 . S
C169 C179 1.386 . S
C169 H187 0.931 . S
C170 C168 1.365 . S
C170 C171 1.409 . S
C170 H188 0.929 . S
C171 C170 1.409 . S
C171 C172 1.380 . S
C171 H189 0.930 . S
C172 C171 1.380 . S
C172 C179 1.357 . S
C173 C164 1.511 . S
C173 C174 1.341 . S
C173 C175 1.371 . S
C174 C173 1.341 . S
C174 C178 1.394 . S
C174 H190 0.930 . S
C175 C173 1.371 . S
C175 C176 1.392 . S
C175 H191 0.931 1_556 S
C176 C175 1.392 . S
C176 C177 1.331 . S
C176 H194 0.932 . S
C177 C176 1.331 . S
C177 C178 1.336 . S
C178 C174 1.394 . S
C178 C177 1.336 . S
C178 H193 0.929 . S
C179 C169 1.386 . S
C179 C172 1.357 . S
C179 H192 0.928 . S
H180 C156 0.931 . S
H181 C158 0.930 . S
H182 C160 0.929 . S
H183 C161 0.931 . S
H184 C163 0.930 . S
H185 C167 0.931 . S
H186 C165 0.931 . S
H187 C169 0.931 . S
H188 C170 0.929 . S
H189 C171 0.930 . S
H190 C174 0.930 . S
H191 C175 0.931 1_554 S
H192 C179 0.928 . S
H193 C178 0.929 . S
H194 C176 0.932 . S
C195 C196 1.386 . S
C195 C197 1.397 1_565 S
C195 H219 0.931 . S
C196 C195 1.386 . S
C196 C200 1.397 1_565 S
C197 C195 1.397 1_545 S
C197 C198 1.384 . S
C197 H220 0.930 . S
C198 C197 1.384 . S
C198 C199 1.377 . S
C198 C201 1.481 . S
C199 C198 1.377 . S
C199 C200 1.389 . S
C199 H221 0.929 . S
C200 C196 1.397 1_545 S
C200 C199 1.389 . S
C200 H222 0.931 . S
C201 C198 1.481 . S
C201 C202 1.387 . S
C201 C206 1.390 . S
C202 C201 1.387 . S
C202 C203 1.401 . S
C202 H223 0.930 . S
C203 C202 1.401 . S
C203 C204 1.376 . S
C203 C212 1.511 . S
C204 C203 1.376 . S
C204 C205 1.392 . S
C204 H225 0.931 . S
C205 C204 1.392 . S
C205 C206 1.361 . S
C205 C207 1.500 . S
C206 C201 1.390 . S
C206 C205 1.361 . S
C206 H224 0.931 . S
C207 C205 1.500 . S
C207 C208 1.371 . S
C207 C209 1.365 . S
C208 C207 1.371 . S
C208 C218 1.386 . S
C208 H226 0.931 . S
C209 C207 1.365 . S
C209 C210 1.409 . S
C209 H227 0.929 . S
C210 C209 1.409 . S
C210 C211 1.380 . S
C210 H228 0.930 . S
C211 C210 1.380 . S
C211 C218 1.357 . S
C212 C203 1.511 . S
C212 C213 1.341 . S
C212 C214 1.371 . S
C213 C212 1.341 . S
C213 C217 1.394 . S
C213 H229 0.930 . S
C214 C212 1.371 . S
C214 C215 1.392 . S
C214 H230 0.931 . S
C215 C214 1.392 . S
C215 C216 1.331 . S
C215 H233 0.932 . S
C216 C215 1.331 . S
C216 C217 1.336 . S
C217 C213 1.394 . S
C217 C216 1.336 . S
C217 H232 0.929 . S
C218 C208 1.386 . S
C218 C211 1.357 . S
C218 H231 0.928 . S
H219 C195 0.931 . S
H220 C197 0.930 . S
H221 C199 0.929 . S
H222 C200 0.931 . S
H223 C202 0.930 . S
H224 C206 0.931 . S
H225 C204 0.931 . S
H226 C208 0.931 . S
H227 C209 0.929 . S
H228 C210 0.930 . S
H229 C213 0.930 . S
H230 C214 0.931 . S
H231 C218 0.928 . S
H232 C217 0.929 . S
H233 C215 0.932 . S
C234 C235 1.386 1_565 S
C234 C236 1.397 . S
C234 H258 0.931 . S
C235 C234 1.386 1_545 S
C235 C239 1.397 . S
C236 C234 1.397 . S
C236 C237 1.384 . S
C236 H259 0.930 . S
C237 C236 1.384 . S
C237 C238 1.377 . S
C237 C240 1.481 . S
C238 C237 1.377 . S
C238 C239 1.389 1_565 S
C238 H260 0.929 1_556 S
C239 C235 1.397 . S
C239 C238 1.389 1_545 S
C239 H261 0.931 . S
C240 C237 1.481 . S
C240 C241 1.387 . S
C240 C245 1.390 1_556 S
C241 C240 1.387 . S
C241 C242 1.401 . S
C241 H262 0.930 . S
C242 C241 1.401 . S
C242 C243 1.376 1_556 S
C242 C251 1.511 . S
C243 C242 1.376 1_554 S
C243 C244 1.392 . S
C243 H264 0.931 . S
C244 C243 1.392 . S
C244 C245 1.361 . S
C244 C246 1.500 . S
C245 C240 1.390 1_554 S
C245 C244 1.361 . S
C245 H263 0.931 . S
C246 C244 1.500 . S
C246 C247 1.371 . S
C246 C248 1.365 . S
C247 C246 1.371 . S
C247 C257 1.386 . S
C247 H265 0.931 . S
C248 C246 1.365 . S
C248 C249 1.409 . S
C248 H266 0.929 . S
C249 C248 1.409 . S
C249 C250 1.380 . S
C249 H267 0.930 . S
C250 C249 1.380 . S
C250 C257 1.357 . S
C251 C242 1.511 . S
C251 C252 1.341 . S
C251 C253 1.371 1_556 S
C252 C251 1.341 . S
C252 C256 1.394 . S
C252 H268 0.930 . S
C253 C251 1.371 1_554 S
C253 C254 1.392 1_554 S
C253 H269 0.931 . S
C254 C253 1.392 1_556 S
C254 C255 1.331 . S
C254 H272 0.932 1_556 S
C255 C254 1.331 . S
C255 C256 1.336 . S
C256 C252 1.394 . S
C256 C255 1.336 . S
C256 H271 0.929 . S
C257 C247 1.386 . S
C257 C250 1.357 . S
C257 H270 0.928 . S
H258 C234 0.931 . S
H259 C236 0.930 . S
H260 C238 0.929 1_554 S
H261 C239 0.931 . S
H262 C241 0.930 . S
H263 C245 0.931 . S
H264 C243 0.931 . S
H265 C247 0.931 . S
H266 C248 0.929 . S
H267 C249 0.930 . S
H268 C252 0.930 . S
H269 C253 0.931 . S
H270 C257 0.928 . S
H271 C256 0.929 . S
H272 C254 0.932 1_554 S
C273 C274 1.386 . S
C273 C275 1.397 . S
C273 H297 0.931 . S
C274 C273 1.386 . S
C274 C278 1.397 . S
C275 C273 1.397 . S
C275 C276 1.384 . S
C275 H298 0.930 . S
C276 C275 1.384 . S
C276 C277 1.377 . S
C276 C279 1.481 . S
C277 C276 1.377 . S
C277 C278 1.389 . S
C277 H299 0.929 . S
C278 C274 1.397 . S
C278 C277 1.389 . S
C278 H300 0.931 . S
C279 C276 1.481 . S
C279 C280 1.387 . S
C279 C284 1.390 . S
C280 C279 1.387 . S
C280 C281 1.401 . S
C280 H301 0.930 . S
C281 C280 1.401 . S
C281 C282 1.376 . S
C281 C290 1.511 . S
C282 C281 1.376 . S
C282 C283 1.392 . S
C282 H303 0.931 . S
C283 C282 1.392 . S
C283 C284 1.361 . S
C283 C285 1.500 . S
C284 C279 1.390 . S
C284 C283 1.361 . S
C284 H302 0.931 . S
C285 C283 1.500 . S
C285 C286 1.371 . S
C285 C287 1.365 . S
C286 C285 1.371 . S
C286 C296 1.386 1_545 S
C286 H304 0.931 . S
C287 C285 1.365 . S
C287 C288 1.409 1_545 S
C287 H305 0.929 . S
C288 C287 1.409 1_565 S
C288 C289 1.380 . S
C288 H306 0.930 . S
C289 C288 1.380 . S
C289 C296 1.357 . S
C290 C281 1.511 . S
C290 C291 1.341 . S
C290 C292 1.371 . S
C291 C290 1.341 . S
C291 C295 1.394 . S
C291 H307 0.930 . S
C292 C290 1.371 . S
C292 C293 1.392 . S
C292 H308 0.931 . S
C293 C292 1.392 . S
C293 C294 1.331 . S
C293 H311 0.932 . S
C294 C293 1.331 . S
C294 C295 1.336 . S
C295 C291 1.394 . S
C295 C294 1.336 . S
C295 H310 0.929 . S
C296 C286 1.386 1_565 S
C296 C289 1.357 . S
C296 H309 0.928 . S
H297 C273 0.931 . S
H298 C275 0.930 . S
H299 C277 0.929 . S
H300 C278 0.931 . S
H301 C280 0.930 . S
H302 C284 0.931 . S
H303 C282 0.931 . S
H304 C286 0.931 . S
H305 C287 0.929 . S
H306 C288 0.930 . S
H307 C291 0.930 . S
H308 C292 0.931 . S
H309 C296 0.928 . S
H310 C295 0.929 . S
H311 C293 0.932 . S
Sc312 O315 2.025 . S
Sc312 O322 2.105 1_455 S
Sc312 O325 2.105 . S
Sc312 O328 2.105 . S
Sc312 O331 2.105 1_455 S
Sc313 O315 2.025 . S
Sc313 O323 2.105 1_455 S
Sc313 O327 2.105 . S
Sc313 O329 2.105 . S
Sc313 O333 2.105 1_455 S
Sc314 O315 2.025 . S
Sc314 O324 2.105 1_455 S
Sc314 O326 2.105 . S
Sc314 O330 2.105 . S
Sc314 O332 2.105 1_455 S
O315 Sc312 2.025 . S
O315 Sc313 2.025 . S
O315 Sc314 2.025 . S
C316 O322 1.268 . S
C316 O332 1.268 . S
C317 O323 1.268 . S
C317 O331 1.268 . S
C318 O324 1.268 . S
C318 O333 1.268 . S
C319 O325 1.268 . S
C319 O329 1.268 . S
C320 O326 1.268 . S
C320 O328 1.268 . S
C321 O327 1.268 . S
C321 O330 1.268 . S
O322 Sc312 2.105 1_655 S
O322 C316 1.268 . S
O323 Sc313 2.105 1_655 S
O323 C317 1.268 . S
O324 Sc314 2.105 1_655 S
O324 C318 1.268 . S
O325 Sc312 2.105 . S
O325 C319 1.268 . S
O326 Sc314 2.105 . S
O326 C320 1.268 . S
O327 Sc313 2.105 . S
O327 C321 1.268 . S
O328 Sc312 2.105 . S
O328 C320 1.268 . S
O329 Sc313 2.105 . S
O329 C319 1.268 . S
O330 Sc314 2.105 . S
O330 C321 1.268 . S
O331 Sc312 2.105 1_655 S
O331 C317 1.268 . S
O332 Sc314 2.105 1_655 S
O332 C316 1.268 . S
O333 Sc313 2.105 1_655 S
O333 C318 1.268 . S
Sc334 O337 2.025 . S
Sc334 O344 2.122 . S
Sc334 O347 2.088 1_455 S
Sc334 O350 2.088 1_455 S
Sc334 O353 2.122 . S
Sc335 O337 2.025 . S
Sc335 O345 2.121 . S
Sc335 O349 2.089 1_455 S
Sc335 O351 2.089 1_455 S
Sc335 O355 2.121 . S
Sc336 O337 2.025 . S
Sc336 O346 2.122 . S
Sc336 O348 2.087 1_455 S
Sc336 O352 2.087 1_455 S
Sc336 O354 2.122 . S
O337 Sc334 2.025 . S
O337 Sc335 2.025 . S
O337 Sc336 2.025 . S
C338 O344 1.268 . S
C338 O354 1.268 . S
C339 O345 1.268 . S
C339 O353 1.268 . S
C340 O346 1.268 . S
C340 O355 1.268 . S
C341 O347 1.268 . S
C341 O351 1.268 . S
C342 O348 1.268 . S
C342 O350 1.268 . S
C343 O349 1.268 . S
C343 O352 1.268 . S
O344 Sc334 2.122 . S
O344 C338 1.268 . S
O345 Sc335 2.121 . S
O345 C339 1.268 . S
O346 Sc336 2.122 . S
O346 C340 1.268 . S
O347 Sc334 2.088 1_655 S
O347 C341 1.268 . S
O348 Sc336 2.087 1_655 S
O348 C342 1.268 . S
O349 Sc335 2.089 1_655 S
O349 C343 1.268 . S
O350 Sc334 2.088 1_655 S
O350 C342 1.268 . S
O351 Sc335 2.089 1_655 S
O351 C341 1.268 . S
O352 Sc336 2.087 1_655 S
O352 C343 1.268 . S
O353 Sc334 2.122 . S
O353 C339 1.268 . S
O354 Sc336 2.122 . S
O354 C338 1.268 . S
O355 Sc335 2.121 . S
O355 C340 1.268 . S
Sc356 O359 2.025 . S
Sc356 O366 2.105 . S
Sc356 O369 2.105 . S
Sc356 O372 2.105 . S
Sc356 O375 2.105 . S
Sc357 O359 2.025 . S
Sc357 O367 2.105 . S
Sc357 O371 2.105 . S
Sc357 O373 2.105 . S
Sc357 O377 2.105 . S
Sc358 O359 2.025 . S
Sc358 O368 2.105 . S
Sc358 O370 2.105 . S
Sc358 O374 2.105 . S
Sc358 O376 2.105 . S
O359 Sc356 2.025 . S
O359 Sc357 2.025 . S
O359 Sc358 2.025 . S
C360 O366 1.268 . S
C360 O376 1.268 . S
C361 O367 1.268 . S
C361 O375 1.268 . S
C362 O368 1.268 . S
C362 O377 1.268 . S
C363 O369 1.268 . S
C363 O373 1.268 . S
C364 O370 1.268 . S
C364 O372 1.268 . S
C365 O371 1.268 . S
C365 O374 1.268 . S
O366 Sc356 2.105 . S
O366 C360 1.268 . S
O367 Sc357 2.105 . S
O367 C361 1.268 . S
O368 Sc358 2.105 . S
O368 C362 1.268 . S
O369 Sc356 2.105 . S
O369 C363 1.268 . S
O370 Sc358 2.105 . S
O370 C364 1.268 . S
O371 Sc357 2.105 . S
O371 C365 1.268 . S
O372 Sc356 2.105 . S
O372 C364 1.268 . S
O373 Sc357 2.105 . S
O373 C363 1.268 . S
O374 Sc358 2.105 . S
O374 C365 1.268 . S
O375 Sc356 2.105 . S
O375 C361 1.268 . S
O376 Sc358 2.105 . S
O376 C360 1.268 . S
O377 Sc357 2.105 . S
O377 C362 1.268 . S
Sc378 O381 2.025 . S
Sc378 O388 2.105 . S
Sc378 O391 2.105 . S
Sc378 O394 2.105 . S
Sc378 O397 2.105 . S
Sc379 O381 2.025 . S
Sc379 O389 2.105 . S
Sc379 O393 2.105 . S
Sc379 O395 2.105 . S
Sc379 O399 2.105 . S
Sc380 O381 2.025 . S
Sc380 O390 2.105 . S
Sc380 O392 2.105 . S
Sc380 O396 2.105 . S
Sc380 O398 2.105 . S
O381 Sc378 2.025 . S
O381 Sc379 2.025 . S
O381 Sc380 2.025 . S
C382 O388 1.268 . S
C382 O398 1.268 . S
C383 O389 1.268 . S
C383 O397 1.268 . S
C384 O390 1.268 . S
C384 O399 1.268 . S
C385 O391 1.268 . S
C385 O395 1.268 . S
C386 O392 1.268 . S
C386 O394 1.268 . S
C387 O393 1.268 . S
C387 O396 1.268 . S
O388 Sc378 2.105 . S
O388 C382 1.268 . S
O389 Sc379 2.105 . S
O389 C383 1.268 . S
O390 Sc380 2.105 . S
O390 C384 1.268 . S
O391 Sc378 2.105 . S
O391 C385 1.268 . S
O392 Sc380 2.105 . S
O392 C386 1.268 . S
O393 Sc379 2.105 . S
O393 C387 1.268 . S
O394 Sc378 2.105 . S
O394 C386 1.268 . S
O395 Sc379 2.105 . S
O395 C385 1.268 . S
O396 Sc380 2.105 . S
O396 C387 1.268 . S
O397 Sc378 2.105 . S
O397 C383 1.268 . S
O398 Sc380 2.105 . S
O398 C382 1.268 . S
O399 Sc379 2.105 . S
O399 C384 1.268 . S
C400 C401 1.363 . S
C400 C406 1.379 . S
C400 N408 1.356 . S
C401 C400 1.363 . S
C401 C407 1.363 . S
C402 C403 1.363 . S
C402 C407 1.379 . S
C402 N409 1.356 . S
C403 C402 1.363 . S
C403 C406 1.363 . S
N404 C406 1.356 . S
N404 H416 0.984 . S
N404 H417 0.985 . S
N405 C407 1.356 . S
N405 H410 0.984 . S
N405 H411 0.985 . S
C406 C400 1.379 . S
C406 C403 1.363 . S
C406 N404 1.356 . S
C407 C401 1.363 . S
C407 C402 1.379 . S
C407 N405 1.356 . S
N408 C400 1.356 . S
N408 H414 0.984 . S
N408 H415 0.984 . S
N409 C402 1.356 . S
N409 H412 0.984 . S
N409 H413 0.985 . S
H410 N405 0.984 . S
H411 N405 0.985 . S
H412 N409 0.984 . S
H413 N409 0.985 . S
H414 N408 0.984 . S
H415 N408 0.984 . S
H416 N404 0.984 . S
H417 N404 0.985 . S
C418 C419 1.363 . S
C418 C424 1.379 . S
C418 N426 1.356 . S
C419 C418 1.363 . S
C419 C425 1.363 . S
C420 C421 1.363 . S
C420 C425 1.379 . S
C420 N427 1.356 . S
C421 C420 1.363 . S
C421 C424 1.363 . S
N422 C424 1.356 . S
N422 H434 0.984 . S
N422 H435 0.985 . S
N423 C425 1.356 . S
N423 H428 0.984 . S
N423 H429 0.985 . S
C424 C418 1.379 . S
C424 C421 1.363 . S
C424 N422 1.356 . S
C425 C419 1.363 . S
C425 C420 1.379 . S
C425 N423 1.356 . S
N426 C418 1.356 . S
N426 H432 0.984 . S
N426 H433 0.984 . S
N427 C420 1.356 . S
N427 H430 0.984 . S
N427 H431 0.985 . S
H428 N423 0.984 . S
H429 N423 0.985 . S
H430 N427 0.984 . S
H431 N427 0.985 . S
H432 N426 0.984 . S
H433 N426 0.984 . S
H434 N422 0.984 . S
H435 N422 0.985 . S
C436 C437 1.363 . S
C436 C442 1.379 . S
C436 N444 1.356 . S
C437 C436 1.363 . S
C437 C443 1.363 . S
C438 C439 1.363 . S
C438 C443 1.379 . S
C438 N445 1.356 . S
C439 C438 1.363 . S
C439 C442 1.363 . S
N440 C442 1.356 . S
N440 H452 0.984 . S
N440 H453 0.985 . S
N441 C443 1.356 . S
N441 H446 0.984 . S
N441 H447 0.985 . S
C442 C436 1.379 . S
C442 C439 1.363 . S
C442 N440 1.356 . S
C443 C437 1.363 . S
C443 C438 1.379 . S
C443 N441 1.356 . S
N444 C436 1.356 . S
N444 H450 0.984 . S
N444 H451 0.984 . S
N445 C438 1.356 . S
N445 H448 0.984 . S
N445 H449 0.985 . S
H446 N441 0.984 . S
H447 N441 0.985 . S
H448 N445 0.984 . S
H449 N445 0.985 . S
H450 N444 0.984 . S
H451 N444 0.984 . S
H452 N440 0.984 . S
H453 N440 0.985 . S
C454 C455 1.363 . S
C454 C460 1.379 . S
C454 N462 1.356 . S
C455 C454 1.363 . S
C455 C461 1.363 . S
C456 C457 1.363 . S
C456 C461 1.379 . S
C456 N463 1.356 . S
C457 C456 1.363 . S
C457 C460 1.363 . S
N458 C460 1.356 . S
N458 H470 0.984 . S
N458 H471 0.985 . S
N459 C461 1.356 . S
N459 H464 0.984 . S
N459 H465 0.985 . S
C460 C454 1.379 . S
C460 C457 1.363 . S
C460 N458 1.356 . S
C461 C455 1.363 . S
C461 C456 1.379 . S
C461 N459 1.356 . S
N462 C454 1.356 . S
N462 H468 0.984 . S
N462 H469 0.984 . S
N463 C456 1.356 . S
N463 H466 0.984 . S
N463 H467 0.985 . S
H464 N459 0.984 . S
H465 N459 0.985 . S
H466 N463 0.984 . S
H467 N463 0.985 . S
H468 N462 0.984 . S
H469 N462 0.984 . S
H470 N458 0.984 . S
H471 N458 0.985 . S
C472 C473 1.363 . S
C472 C478 1.379 . S
C472 N480 1.356 . S
C473 C472 1.363 . S
C473 C479 1.363 . S
C474 C475 1.363 . S
C474 C479 1.379 . S
C474 N481 1.356 . S
C475 C474 1.363 . S
C475 C478 1.363 . S
N476 C478 1.356 . S
N476 H488 0.984 . S
N476 H489 0.985 . S
N477 C479 1.356 . S
N477 H482 0.984 . S
N477 H483 0.985 . S
C478 C472 1.379 . S
C478 C475 1.363 . S
C478 N476 1.356 . S
C479 C473 1.363 . S
C479 C474 1.379 . S
C479 N477 1.356 . S
N480 C472 1.356 . S
N480 H486 0.984 . S
N480 H487 0.984 . S
N481 C474 1.356 . S
N481 H484 0.984 . S
N481 H485 0.985 . S
H482 N477 0.984 . S
H483 N477 0.985 . S
H484 N481 0.984 . S
H485 N481 0.985 . S
H486 N480 0.984 . S
H487 N480 0.984 . S
H488 N476 0.984 . S
H489 N476 0.985 . S
C490 C491 1.363 . S
C490 C496 1.379 . S
C490 N498 1.356 . S
C491 C490 1.363 . S
C491 C497 1.363 . S
C492 C493 1.363 . S
C492 C497 1.379 . S
C492 N499 1.356 . S
C493 C492 1.363 . S
C493 C496 1.363 . S
N494 C496 1.356 . S
N494 H506 0.984 . S
N494 H507 0.985 . S
N495 C497 1.356 . S
N495 H500 0.984 . S
N495 H501 0.985 . S
C496 C490 1.379 . S
C496 C493 1.363 . S
C496 N494 1.356 . S
C497 C491 1.363 . S
C497 C492 1.379 . S
C497 N495 1.356 . S
N498 C490 1.356 . S
N498 H504 0.984 . S
N498 H505 0.984 . S
N499 C492 1.356 . S
N499 H502 0.984 . S
N499 H503 0.985 . S
H500 N495 0.984 . S
H501 N495 0.985 . S
H502 N499 0.984 . S
H503 N499 0.985 . S
H504 N498 0.984 . S
H505 N498 0.984 . S
H506 N494 0.984 . S
H507 N494 0.985 . S
C508 C509 1.363 . S
C508 C514 1.379 . S
C508 N516 1.356 . S
C509 C508 1.363 . S
C509 C515 1.363 . S
C510 C511 1.363 . S
C510 C515 1.379 . S
C510 N517 1.356 . S
C511 C510 1.363 . S
C511 C514 1.363 . S
N512 C514 1.356 . S
N512 H524 0.984 . S
N512 H525 0.985 . S
N513 C515 1.356 . S
N513 H518 0.984 . S
N513 H519 0.985 . S
C514 C508 1.379 . S
C514 C511 1.363 . S
C514 N512 1.356 . S
C515 C509 1.363 . S
C515 C510 1.379 . S
C515 N513 1.356 . S
N516 C508 1.356 . S
N516 H522 0.984 . S
N516 H523 0.984 . S
N517 C510 1.356 . S
N517 H520 0.984 . S
N517 H521 0.985 . S
H518 N513 0.984 . S
H519 N513 0.985 . S
H520 N517 0.984 . S
H521 N517 0.985 . S
H522 N516 0.984 . S
H523 N516 0.984 . S
H524 N512 0.984 . S
H525 N512 0.985 . S
C526 C527 1.363 . S
C526 C532 1.379 . S
C526 N534 1.356 . S
C527 C526 1.363 . S
C527 C533 1.363 . S
C528 C529 1.363 . S
C528 C533 1.379 . S
C528 N535 1.356 . S
C529 C528 1.363 . S
C529 C532 1.363 . S
N530 C532 1.356 . S
N530 H542 0.984 . S
N530 H543 0.985 . S
N531 C533 1.356 . S
N531 H536 0.984 . S
N531 H537 0.985 . S
C532 C526 1.379 . S
C532 C529 1.363 . S
C532 N530 1.356 . S
C533 C527 1.363 . S
C533 C528 1.379 . S
C533 N531 1.356 . S
N534 C526 1.356 . S
N534 H540 0.984 . S
N534 H541 0.984 . S
N535 C528 1.356 . S
N535 H538 0.984 . S
N535 H539 0.985 . S
H536 N531 0.984 . S
H537 N531 0.985 . S
H538 N535 0.984 . S
H539 N535 0.985 . S
H540 N534 0.984 . S
H541 N534 0.984 . S
H542 N530 0.984 . S
H543 N530 0.985 . S
C544 C545 1.363 . S
C544 C550 1.379 . S
C544 N552 1.356 . S
C545 C544 1.363 . S
C545 C551 1.363 . S
C546 C547 1.363 . S
C546 C551 1.379 . S
C546 N553 1.356 . S
C547 C546 1.363 . S
C547 C550 1.363 . S
N548 C550 1.356 . S
N548 H560 0.984 . S
N548 H561 0.985 . S
N549 C551 1.356 . S
N549 H554 0.984 . S
N549 H555 0.985 . S
C550 C544 1.379 . S
C550 C547 1.363 . S
C550 N548 1.356 . S
C551 C545 1.363 . S
C551 C546 1.379 . S
C551 N549 1.356 . S
N552 C544 1.356 . S
N552 H558 0.984 . S
N552 H559 0.984 . S
N553 C546 1.356 . S
N553 H556 0.984 . S
N553 H557 0.985 . S
H554 N549 0.984 . S
H555 N549 0.985 . S
H556 N553 0.984 . S
H557 N553 0.985 . S
H558 N552 0.984 . S
H559 N552 0.984 . S
H560 N548 0.984 . S
H561 N548 0.985 . S
C562 C563 1.363 . S
C562 C568 1.379 . S
C562 N570 1.356 . S
C563 C562 1.363 . S
C563 C569 1.363 . S
C564 C565 1.363 . S
C564 C569 1.379 . S
C564 N571 1.356 . S
C565 C564 1.363 . S
C565 C568 1.363 . S
N566 C568 1.356 . S
N566 H578 0.984 . S
N566 H579 0.985 . S
N567 C569 1.356 . S
N567 H572 0.984 . S
N567 H573 0.985 . S
C568 C562 1.379 . S
C568 C565 1.363 . S
C568 N566 1.356 . S
C569 C563 1.363 . S
C569 C564 1.379 . S
C569 N567 1.356 . S
N570 C562 1.356 . S
N570 H576 0.984 . S
N570 H577 0.984 . S
N571 C564 1.356 . S
N571 H574 0.984 . S
N571 H575 0.985 . S
H572 N567 0.984 . S
H573 N567 0.985 . S
H574 N571 0.984 . S
H575 N571 0.985 . S
H576 N570 0.984 . S
H577 N570 0.984 . S
H578 N566 0.984 . S
H579 N566 0.985 . S
C580 C581 1.363 . S
C580 C586 1.379 . S
C580 N588 1.356 . S
C581 C580 1.363 . S
C581 C587 1.363 . S
C582 C583 1.363 . S
C582 C587 1.379 . S
C582 N589 1.356 . S
C583 C582 1.363 . S
C583 C586 1.363 . S
N584 C586 1.356 . S
N584 H596 0.984 . S
N584 H597 0.985 . S
N585 C587 1.356 . S
N585 H590 0.984 . S
N585 H591 0.985 . S
C586 C580 1.379 . S
C586 C583 1.363 . S
C586 N584 1.356 . S
C587 C581 1.363 . S
C587 C582 1.379 . S
C587 N585 1.356 . S
N588 C580 1.356 . S
N588 H594 0.984 . S
N588 H595 0.984 . S
N589 C582 1.356 . S
N589 H592 0.984 . S
N589 H593 0.985 . S
H590 N585 0.984 . S
H591 N585 0.985 . S
H592 N589 0.984 . S
H593 N589 0.985 . S
H594 N588 0.984 . S
H595 N588 0.984 . S
H596 N584 0.984 . S
H597 N584 0.985 . S
C598 C599 1.363 . S
C598 C604 1.379 . S
C598 N606 1.356 . S
C599 C598 1.363 . S
C599 C605 1.363 . S
C600 C601 1.363 . S
C600 C605 1.379 . S
C600 N607 1.356 . S
C601 C600 1.363 . S
C601 C604 1.363 . S
N602 C604 1.356 . S
N602 H614 0.984 . S
N602 H615 0.985 . S
N603 C605 1.356 . S
N603 H608 0.984 . S
N603 H609 0.985 . S
C604 C598 1.379 . S
C604 C601 1.363 . S
C604 N602 1.356 . S
C605 C599 1.363 . S
C605 C600 1.379 . S
C605 N603 1.356 . S
N606 C598 1.356 . S
N606 H612 0.984 . S
N606 H613 0.984 . S
N607 C600 1.356 . S
N607 H610 0.984 . S
N607 H611 0.985 . S
H608 N603 0.984 . S
H609 N603 0.985 . S
H610 N607 0.984 . S
H611 N607 0.985 . S
H612 N606 0.984 . S
H613 N606 0.984 . S
H614 N602 0.984 . S
H615 N602 0.985 . S
C616 C617 1.363 . S
C616 C622 1.379 . S
C616 N624 1.356 . S
C617 C616 1.363 . S
C617 C623 1.363 . S
C618 C619 1.363 . S
C618 C623 1.379 . S
C618 N625 1.356 . S
C619 C618 1.363 . S
C619 C622 1.363 . S
N620 C622 1.356 . S
N620 H632 0.984 . S
N620 H633 0.985 . S
N621 C623 1.334 1_565 S
N621 H626 0.990 . S
N621 H627 1.001 . S
C622 C616 1.379 . S
C622 C619 1.363 . S
C622 N620 1.356 . S
C623 C617 1.363 . S
C623 C618 1.379 . S
C623 N621 1.334 1_545 S
N624 C616 1.356 . S
N624 H630 0.984 . S
N624 H631 0.984 . S
N625 C618 1.356 . S
N625 H628 0.984 . S
N625 H629 0.985 . S
H626 N621 0.990 . S
H627 N621 1.001 . S
H628 N625 0.984 . S
H629 N625 0.985 . S
H630 N624 0.984 . S
H631 N624 0.984 . S
H632 N620 0.984 . S
H633 N620 0.985 . S
C634 C635 1.363 . S
C634 C640 1.379 . S
C634 N642 1.356 . S
C635 C634 1.363 . S
C635 C641 1.363 . S
C636 C637 1.363 . S
C636 C641 1.379 . S
C636 N643 1.356 . S
C637 C636 1.363 . S
C637 C640 1.363 . S
N638 C640 1.356 . S
N638 H650 0.984 . S
N638 H651 0.985 . S
N639 C641 1.356 . S
N639 H644 0.984 1_565 S
N639 H645 0.985 1_565 S
C640 C634 1.379 . S
C640 C637 1.363 . S
C640 N638 1.356 . S
C641 C635 1.363 . S
C641 C636 1.379 . S
C641 N639 1.356 . S
N642 C634 1.356 . S
N642 H648 0.984 . S
N642 H649 0.984 . S
N643 C636 1.356 . S
N643 H646 0.984 . S
N643 H647 0.985 . S
H644 N639 0.984 1_545 S
H645 N639 0.985 1_545 S
H646 N643 0.984 . S
H647 N643 0.985 . S
H648 N642 0.984 . S
H649 N642 0.984 . S
H650 N638 0.984 . S
H651 N638 0.985 . S
C652 C653 1.363 . S
C652 C658 1.379 . S
C652 N660 1.356 . S
C653 C652 1.363 . S
C653 C659 1.363 . S
C654 C655 1.363 . S
C654 C659 1.379 . S
C654 N661 1.356 . S
C655 C654 1.363 . S
C655 C658 1.363 . S
N656 C658 1.356 . S
N656 H668 0.984 . S
N656 H669 0.985 . S
N657 C659 1.356 . S
N657 H662 0.984 . S
N657 H663 0.985 . S
C658 C652 1.379 . S
C658 C655 1.363 . S
C658 N656 1.356 . S
C659 C653 1.363 . S
C659 C654 1.379 . S
C659 N657 1.356 . S
N660 C652 1.356 . S
N660 H666 0.984 . S
N660 H667 0.984 . S
N661 C654 1.356 . S
N661 H664 0.984 . S
N661 H665 0.985 . S
H662 N657 0.984 . S
H663 N657 0.985 . S
H664 N661 0.984 . S
H665 N661 0.985 . S
H666 N660 0.984 . S
H667 N660 0.984 . S
H668 N656 0.984 . S
H669 N656 0.985 . S
C670 C671 1.363 . S
C670 C676 1.379 . S
C670 N678 1.356 . S
C671 C670 1.363 . S
C671 C677 1.363 . S
C672 C673 1.363 . S
C672 C677 1.379 . S
C672 N679 1.356 . S
C673 C672 1.363 . S
C673 C676 1.363 . S
N674 C676 1.356 . S
N674 H686 0.984 . S
N674 H687 0.985 . S
N675 C677 1.356 . S
N675 H680 0.984 . S
N675 H681 0.985 . S
C676 C670 1.379 . S
C676 C673 1.363 . S
C676 N674 1.356 . S
C677 C671 1.363 . S
C677 C672 1.379 . S
C677 N675 1.356 . S
N678 C670 1.356 . S
N678 H684 0.984 . S
N678 H685 0.984 . S
N679 C672 1.356 . S
N679 H682 0.984 . S
N679 H683 0.985 . S
H680 N675 0.984 . S
H681 N675 0.985 . S
H682 N679 0.984 . S
H683 N679 0.985 . S
H684 N678 0.984 . S
H685 N678 0.984 . S
H686 N674 0.984 . S
H687 N674 0.985 . S
C688 C689 1.363 . S
C688 C694 1.379 . S
C688 N696 1.356 . S
C689 C688 1.363 . S
C689 C695 1.363 . S
C690 C691 1.363 . S
C690 C695 1.379 . S
C690 N697 1.356 . S
C691 C690 1.363 . S
C691 C694 1.363 . S
N692 C694 1.356 . S
N692 H704 0.984 . S
N692 H705 0.985 . S
N693 C695 1.356 . S
N693 H698 0.984 . S
N693 H699 0.985 . S
C694 C688 1.379 . S
C694 C691 1.363 . S
C694 N692 1.356 . S
C695 C689 1.363 . S
C695 C690 1.379 . S
C695 N693 1.356 . S
N696 C688 1.356 . S
N696 H702 0.984 . S
N696 H703 0.984 . S
N697 C690 1.356 . S
N697 H700 0.984 . S
N697 H701 0.985 . S
H698 N693 0.984 . S
H699 N693 0.985 . S
H700 N697 0.984 . S
H701 N697 0.985 . S
H702 N696 0.984 . S
H703 N696 0.984 . S
H704 N692 0.984 . S
H705 N692 0.985 . S
C706 C707 1.363 . S
C706 C712 1.379 . S
C706 N714 1.356 . S
C707 C706 1.363 . S
C707 C713 1.363 . S
C708 C709 1.363 . S
C708 C713 1.379 . S
C708 N715 1.356 . S
C709 C708 1.363 . S
C709 C712 1.363 . S
N710 C712 1.356 . S
N710 H722 0.984 . S
N710 H723 0.985 . S
N711 C713 1.356 . S
N711 H716 0.984 . S
N711 H717 0.985 . S
C712 C706 1.379 . S
C712 C709 1.363 . S
C712 N710 1.356 . S
C713 C707 1.363 . S
C713 C708 1.379 . S
C713 N711 1.356 . S
N714 C706 1.356 . S
N714 H720 0.984 . S
N714 H721 0.984 . S
N715 C708 1.356 . S
N715 H718 0.984 . S
N715 H719 0.985 . S
H716 N711 0.984 . S
H717 N711 0.985 . S
H718 N715 0.984 . S
H719 N715 0.985 . S
H720 N714 0.984 . S
H721 N714 0.984 . S
H722 N710 0.984 . S
H723 N710 0.985 . S
C724 C725 1.363 . S
C724 C730 1.379 . S
C724 N732 1.356 . S
C725 C724 1.363 . S
C725 C731 1.363 . S
C726 C727 1.363 . S
C726 C731 1.379 . S
C726 N733 1.356 . S
C727 C726 1.363 . S
C727 C730 1.363 . S
N728 C730 1.356 . S
N728 H740 0.984 . S
N728 H741 0.985 . S
N729 C731 1.356 . S
N729 H734 0.984 . S
N729 H735 0.985 . S
C730 C724 1.379 . S
C730 C727 1.363 . S
C730 N728 1.356 . S
C731 C725 1.363 . S
C731 C726 1.379 . S
C731 N729 1.356 . S
N732 C724 1.356 . S
N732 H738 0.984 . S
N732 H739 0.984 . S
N733 C726 1.356 . S
N733 H736 0.984 . S
N733 H737 0.985 . S
H734 N729 0.984 . S
H735 N729 0.985 . S
H736 N733 0.984 . S
H737 N733 0.985 . S
H738 N732 0.984 . S
H739 N732 0.984 . S
H740 N728 0.984 . S
H741 N728 0.985 . S
C742 C743 1.363 . S
C742 C748 1.379 . S
C742 N750 1.356 . S
C743 C742 1.363 . S
C743 C749 1.363 . S
C744 C745 1.363 . S
C744 C749 1.379 . S
C744 N751 1.356 . S
C745 C744 1.363 . S
C745 C748 1.363 . S
N746 C748 1.356 . S
N746 H758 0.984 . S
N746 H759 0.985 . S
N747 C749 1.356 . S
N747 H752 0.984 . S
N747 H753 0.985 . S
C748 C742 1.379 . S
C748 C745 1.363 . S
C748 N746 1.356 . S
C749 C743 1.363 . S
C749 C744 1.379 . S
C749 N747 1.356 . S
N750 C742 1.356 . S
N750 H756 0.984 . S
N750 H757 0.984 . S
N751 C744 1.356 . S
N751 H754 0.984 . S
N751 H755 0.985 . S
H752 N747 0.984 . S
H753 N747 0.985 . S
H754 N751 0.984 . S
H755 N751 0.985 . S
H756 N750 0.984 . S
H757 N750 0.984 . S
H758 N746 0.984 . S
H759 N746 0.985 . S
C760 C761 1.363 . S
C760 C766 1.379 . S
C760 N768 1.356 . S
C761 C760 1.363 . S
C761 C767 1.363 . S
C762 C763 1.363 . S
C762 C767 1.379 . S
C762 N769 1.356 . S
C763 C762 1.363 . S
C763 C766 1.363 . S
N764 C766 1.356 . S
N764 H776 0.984 . S
N764 H777 0.985 . S
N765 C767 1.356 . S
N765 H770 0.984 . S
N765 H771 0.985 . S
C766 C760 1.379 . S
C766 C763 1.363 . S
C766 N764 1.356 . S
C767 C761 1.363 . S
C767 C762 1.379 . S
C767 N765 1.356 . S
N768 C760 1.356 . S
N768 H774 0.984 . S
N768 H775 0.984 . S
N769 C762 1.356 . S
N769 H772 0.984 . S
N769 H773 0.985 . S
H770 N765 0.984 . S
H771 N765 0.985 . S
H772 N769 0.984 . S
H773 N769 0.985 . S
H774 N768 0.984 . S
H775 N768 0.984 . S
H776 N764 0.984 . S
H777 N764 0.985 . S
C778 C779 1.363 . S
C778 C784 1.379 . S
C778 N786 1.356 . S
C779 C778 1.363 . S
C779 C785 1.363 . S
C780 C781 1.363 . S
C780 C785 1.379 . S
C780 N787 1.356 . S
C781 C780 1.363 . S
C781 C784 1.363 . S
N782 C784 1.356 . S
N782 H794 0.984 . S
N782 H795 0.985 . S
N783 C785 1.356 . S
N783 H788 0.984 . S
N783 H789 0.985 . S
C784 C778 1.379 . S
C784 C781 1.363 . S
C784 N782 1.356 . S
C785 C779 1.363 . S
C785 C780 1.379 . S
C785 N783 1.356 . S
N786 C778 1.356 . S
N786 H792 0.984 . S
N786 H793 0.984 . S
N787 C780 1.356 . S
N787 H790 0.984 . S
N787 H791 0.985 . S
H788 N783 0.984 . S
H789 N783 0.985 . S
H790 N787 0.984 . S
H791 N787 0.985 . S
H792 N786 0.984 . S
H793 N786 0.984 . S
H794 N782 0.984 . S
H795 N782 0.985 . S
C796 C797 1.363 . S
C796 C802 1.379 . S
C796 N804 1.356 . S
C797 C796 1.363 . S
C797 C803 1.363 . S
C798 C799 1.363 . S
C798 C803 1.379 . S
C798 N805 1.356 . S
C799 C798 1.363 . S
C799 C802 1.363 . S
N800 C802 1.356 . S
N800 H812 0.984 . S
N800 H813 0.985 . S
N801 C803 1.356 . S
N801 H806 0.984 . S
N801 H807 0.985 . S
C802 C796 1.379 . S
C802 C799 1.363 . S
C802 N800 1.356 . S
C803 C797 1.363 . S
C803 C798 1.379 . S
C803 N801 1.356 . S
N804 C796 1.356 . S
N804 H810 0.984 . S
N804 H811 0.984 . S
N805 C798 1.356 . S
N805 H808 0.984 . S
N805 H809 0.985 . S
H806 N801 0.984 . S
H807 N801 0.985 . S
H808 N805 0.984 . S
H809 N805 0.985 . S
H810 N804 0.984 . S
H811 N804 0.984 . S
H812 N800 0.984 . S
H813 N800 0.985 . S
C814 C815 1.363 . S
C814 C820 1.379 . S
C814 N822 1.356 . S
C815 C814 1.363 . S
C815 C821 1.363 . S
C816 C817 1.363 . S
C816 C821 1.379 . S
C816 N823 1.356 . S
C817 C816 1.363 . S
C817 C820 1.363 . S
N818 C820 1.356 . S
N818 H830 0.984 . S
N818 H831 0.985 . S
N819 C821 1.356 . S
N819 H824 0.984 . S
N819 H825 0.985 . S
C820 C814 1.379 . S
C820 C817 1.363 . S
C820 N818 1.356 . S
C821 C815 1.363 . S
C821 C816 1.379 . S
C821 N819 1.356 . S
N822 C814 1.356 . S
N822 H828 0.984 . S
N822 H829 0.984 . S
N823 C816 1.356 . S
N823 H826 0.984 . S
N823 H827 0.985 . S
H824 N819 0.984 . S
H825 N819 0.985 . S
H826 N823 0.984 . S
H827 N823 0.985 . S
H828 N822 0.984 . S
H829 N822 0.984 . S
H830 N818 0.984 . S
H831 N818 0.985 . S
C401 C21 1.581 . S
C403 C338 1.536 . S
C421 C316 1.536 . S
C419 C60 1.581 . S
C439 C342 1.540 . S
C437 C99 1.573 . S
C457 C320 1.534 . S
C455 C138 1.576 . S
C475 C382 1.536 . S
C473 C177 1.581 . S
C493 C360 1.536 . S
C491 C216 1.581 . S
C509 C255 1.573 . S
C511 C386 1.540 . S
C529 C364 1.534 . S
C527 C294 1.576 . S
C545 C1 1.587 . S
C547 C387 1.629 . S
C565 C365 1.628 . S
C563 C40 1.586 . S
C581 C79 1.586 . S
C583 C384 1.633 . S
C599 C133 1.575 . S
C601 C362 1.622 . S
C619 C343 1.629 . S
C617 C157 1.587 . S
C635 C196 1.586 . S
C637 C321 1.628 . S
C655 C340 1.633 . S
C653 C235 1.586 . S
C673 C318 1.622 . S
C671 C289 1.575 . S
C691 C361 1.611 . S
C689 C16 1.567 . S
C709 C383 1.611 . S
C707 C55 1.567 . S
C725 C94 1.571 . S
C727 C363 1.611 . S
C745 C385 1.613 . S
C743 C118 1.575 . S
C763 C317 1.611 . S
C761 C172 1.567 . S
C779 C211 1.567 . S
C781 C339 1.612 . S
C797 C250 1.571 . S
C799 C319 1.611 . S
C815 C274 1.575 . S
C817 C341 1.612 . S
