# Generated by pormake.
# Topology nom, (4,4)-cn, num edge types: 1
# Building blocks:
#     Node 0, Type 0, BuildingBlock: MUDLON_clean_linker_0, # of connection points: 4
#     Node 1, Type 0, BuildingBlock: MUDLON_clean_linker_0, # of connection points: 4
#     Node 2, Type 0, BuildingBlock: MUDLON_clean_linker_0, # of connection points: 4
#     Node 3, Type 0, BuildingBlock: MUDLON_clean_linker_0, # of connection points: 4
#     Node 4, Type 0, BuildingBlock: MUDLON_clean_linker_0, # of connection points: 4
#     Node 5, Type 0, BuildingBlock: MUDLON_clean_linker_0, # of connection points: 4
#     Node 6, Type 1, BuildingBlock: NAHDIM_clean_sbu_0, # of connection points: 4
#     Node 7, Type 1, BuildingBlock: NAHDIM_clean_sbu_0, # of connection points: 4
#     Node 8, Type 1, BuildingBlock: NAHDIM_clean_sbu_0, # of connection points: 4
#     Node 9, Type 1, BuildingBlock: NAHDIM_clean_sbu_0, # of connection points: 4
#     Node 10, Type 1, BuildingBlock: NAHDIM_clean_sbu_0, # of connection points: 4
#     Node 11, Type 1, BuildingBlock: NAHDIM_clean_sbu_0, # of connection points: 4
#     Edge 12, Type (0, 1), BuildingBlock: XUDNAN_clean_linker_2, # of connection points: 2
#     Edge 13, Type (0, 1), BuildingBlock: XUDNAN_clean_linker_2, # of connection points: 2
#     Edge 14, Type (0, 1), BuildingBlock: XUDNAN_clean_linker_2, # of connection points: 2
#     Edge 15, Type (0, 1), BuildingBlock: XUDNAN_clean_linker_2, # of connection points: 2
#     Edge 16, Type (0, 1), BuildingBlock: XUDNAN_clean_linker_2, # of connection points: 2
#     Edge 17, Type (0, 1), BuildingBlock: XUDNAN_clean_linker_2, # of connection points: 2
#     Edge 18, Type (0, 1), BuildingBlock: XUDNAN_clean_linker_2, # of connection points: 2
#     Edge 19, Type (0, 1), BuildingBlock: XUDNAN_clean_linker_2, # of connection points: 2
#     Edge 20, Type (0, 1), BuildingBlock: XUDNAN_clean_linker_2, # of connection points: 2
#     Edge 21, Type (0, 1), BuildingBlock: XUDNAN_clean_linker_2, # of connection points: 2
#     Edge 22, Type (0, 1), BuildingBlock: XUDNAN_clean_linker_2, # of connection points: 2
#     Edge 23, Type (0, 1), BuildingBlock: XUDNAN_clean_linker_2, # of connection points: 2
#     Edge 24, Type (0, 1), BuildingBlock: XUDNAN_clean_linker_2, # of connection points: 2
#     Edge 25, Type (0, 1), BuildingBlock: XUDNAN_clean_linker_2, # of connection points: 2
#     Edge 26, Type (0, 1), BuildingBlock: XUDNAN_clean_linker_2, # of connection points: 2
#     Edge 27, Type (0, 1), BuildingBlock: XUDNAN_clean_linker_2, # of connection points: 2
#     Edge 28, Type (0, 1), BuildingBlock: XUDNAN_clean_linker_2, # of connection points: 2
#     Edge 29, Type (0, 1), BuildingBlock: XUDNAN_clean_linker_2, # of connection points: 2
#     Edge 30, Type (0, 1), BuildingBlock: XUDNAN_clean_linker_2, # of connection points: 2
#     Edge 31, Type (0, 1), BuildingBlock: XUDNAN_clean_linker_2, # of connection points: 2
#     Edge 32, Type (0, 1), BuildingBlock: XUDNAN_clean_linker_2, # of connection points: 2
#     Edge 33, Type (0, 1), BuildingBlock: XUDNAN_clean_linker_2, # of connection points: 2
#     Edge 34, Type (0, 1), BuildingBlock: XUDNAN_clean_linker_2, # of connection points: 2
#     Edge 35, Type (0, 1), BuildingBlock: XUDNAN_clean_linker_2, # of connection points: 2
# Relax obj value: 0.025
# Max RMSD: 0.122
# Mean RMSD: 0.105
data_MOF--net-nom--node1-NAHDIM_clean_sbu_0--node2-MUDLON_clean_linker_0--edge1-XUDNAN_clean_linker_2
_symmetry_space_group_name_H-M    P1
_symmetry_Int_Tables_number       1
_symmetry_cell_setting            triclinic
loop_
_symmetry_equiv_pos_as_xyz
'x, y, z'
_cell_length_a     59.56469
_cell_length_b     62.005735
_cell_length_c     60.627806
_cell_angle_alpha  90.359635
_cell_angle_beta   90.381877
_cell_angle_gamma 121.35542
loop_
_atom_site_label
_atom_site_type_symbol
_atom_site_fract_x
_atom_site_fract_y
_atom_site_fract_z
_atom_type_partial_charge
H0 H 0.14832 0.56221 0.31245 0.0
N1 N 0.10385 0.5541 0.32956 0.0
H2 H 0.18092 0.59907 0.29224 0.0
H3 H 0.09871 0.59363 0.31614 0.0
H4 H 0.13049 0.62998 0.29494 0.0
H5 H 0.1165 0.59453 0.35672 0.0
H6 H 0.13103 0.59967 0.39523 0.0
H7 H 0.10794 0.5211 0.35426 0.0
H8 H 0.12239 0.52606 0.39289 0.0
H9 H 0.07674 0.51574 0.30177 0.0
H10 H 0.0684 0.56512 0.34682 0.0
H11 H 0.0294 0.49291 0.29398 0.0
H12 H 0.02113 0.54248 0.33912 0.0
H13 H 0.88484 0.41253 0.27585 0.0
H14 H 0.8638 0.40703 0.23974 0.0
H15 H 0.89114 0.48671 0.23909 0.0
H16 H 0.91168 0.49183 0.27535 0.0
H17 H 0.90995 0.49663 0.31489 0.0
H18 H 0.87615 0.49725 0.33738 0.0
H19 H 0.8347 0.41603 0.3418 0.0
H20 H 0.86881 0.41551 0.31978 0.0
H21 H 0.94893 0.47279 0.26973 0.0
H22 H 0.99575 0.49891 0.27643 0.0
H23 H 0.98235 0.49933 0.34621 0.0
N24 N 0.90951 0.4543 0.30048 0.0
H25 H 0.93525 0.47327 0.33975 0.0
C26 C 0.12107 0.57499 0.31569 0.0
C27 C 0.14424 0.57684 0.30841 0.0
C28 C 0.16274 0.59787 0.2967 0.0
C29 C 0.15835 0.61756 0.29182 0.0
C30 C 0.13469 0.61535 0.29861 0.0
C31 C 0.11631 0.59438 0.31058 0.0
C32 C 0.11133 0.5574 0.35257 0.0
C33 C 0.11771 0.57949 0.36446 0.0
C34 C 0.12609 0.58246 0.38645 0.0
C35 C 0.12791 0.5633 0.39703 0.0
C36 C 0.12096 0.54105 0.38523 0.0
C37 C 0.11281 0.5382 0.3632 0.0
C38 C 0.07607 0.54191 0.32493 0.0
C39 C 0.06467 0.5217 0.30986 0.0
C40 C 0.0377 0.50881 0.30537 0.0
C41 C 0.02155 0.5159 0.31597 0.0
C42 C 0.03304 0.53642 0.3309 0.0
C43 C 0.06009 0.54941 0.33528 0.0
C44 C 0.89972 0.45245 0.27826 0.0
C45 C 0.88651 0.4288 0.26773 0.0
C46 C 0.87462 0.42576 0.24708 0.0
C47 C 0.87572 0.44644 0.23655 0.0
C48 C 0.88959 0.47034 0.2469 0.0
C49 C 0.90142 0.47333 0.26759 0.0
C50 C 0.89197 0.45592 0.31584 0.0
C51 C 0.89388 0.47901 0.32106 0.0
C52 C 0.87464 0.47938 0.33389 0.0
C53 C 0.85291 0.45668 0.34118 0.0
C54 C 0.85128 0.43375 0.33629 0.0
C55 C 0.87074 0.43343 0.32387 0.0
C56 C 0.9376 0.47204 0.30401 0.0
C57 C 0.95557 0.47903 0.28649 0.0
C58 C 0.98265 0.49377 0.29032 0.0
C59 C 0.99274 0.5015 0.3118 0.0
C60 C 0.97513 0.49427 0.32939 0.0
C61 C 0.94802 0.47939 0.3256 0.0
H62 H 0.49243 0.89716 0.47991 0.0
N63 N 0.47965 0.92802 0.46128 0.0
H64 H 0.46515 0.86157 0.50415 0.0
H65 H 0.43441 0.91887 0.48213 0.0
H66 H 0.40729 0.88351 0.50597 0.0
H67 H 0.42966 0.90378 0.44358 0.0
H68 H 0.41531 0.87921 0.40952 0.0
H69 H 0.50995 0.92617 0.43016 0.0
H70 H 0.49546 0.90139 0.39561 0.0
H71 H 0.52465 0.96753 0.47544 0.0
H72 H 0.44711 0.9462 0.4524 0.0
H73 H 0.53526 0.01093 0.48101 0.0
H74 H 0.45649 0.9885 0.45959 0.0
H75 H 0.55889 0.12862 0.51251 0.0
H76 H 0.5691 0.14766 0.54938 0.0
H77 H 0.48609 0.10788 0.56388 0.0
H78 H 0.47612 0.08985 0.52652 0.0
H79 H 0.49085 0.12866 0.48353 0.0
H80 H 0.51162 0.1667 0.46131 0.0
H81 H 0.57525 0.15447 0.44689 0.0
H82 H 0.55482 0.11712 0.47029 0.0
H83 H 0.53481 0.07728 0.51336 0.0
H84 H 0.52815 0.03638 0.50398 0.0
H85 H 0.47788 0.02984 0.44924 0.0
N86 N 0.50979 0.09971 0.49407 0.0
H87 H 0.48286 0.07001 0.46002 0.0
C88 C 0.46567 0.91076 0.479 0.0
C89 C 0.47423 0.8947 0.48608 0.0
C90 C 0.45862 0.87439 0.49988 0.0
C91 C 0.43398 0.86966 0.50671 0.0
C92 C 0.42607 0.88657 0.50071 0.0
C93 C 0.44178 0.90699 0.4871 0.0
C94 C 0.47104 0.91677 0.43961 0.0
C95 C 0.44437 0.90391 0.43316 0.0
C96 C 0.43608 0.88969 0.41368 0.0
C97 C 0.45424 0.88818 0.40013 0.0
C98 C 0.48108 0.90232 0.40578 0.0
C99 C 0.48936 0.91641 0.42544 0.0
C100 C 0.48506 0.95345 0.46385 0.0
C101 C 0.50985 0.97219 0.47179 0.0
C102 C 0.51575 0.99695 0.47514 0.0
C103 C 0.49671 0.00344 0.47098 0.0
C104 C 0.47193 0.98458 0.46268 0.0
C105 C 0.46631 0.96002 0.45885 0.0
C106 C 0.51662 0.10815 0.51669 0.0
C107 C 0.54293 0.1239 0.52368 0.0
C108 C 0.54874 0.13458 0.54487 0.0
C109 C 0.5284 0.1296 0.55952 0.0
C110 C 0.50221 0.11259 0.55286 0.0
C111 C 0.49644 0.10209 0.53163 0.0
C112 C 0.52115 0.12006 0.47846 0.0
C113 C 0.50909 0.13407 0.47528 0.0
C114 C 0.52098 0.15573 0.46242 0.0
C115 C 0.54519 0.16377 0.45218 0.0
C116 C 0.55682 0.14911 0.45475 0.0
C117 C 0.54504 0.12757 0.46793 0.0
C118 C 0.50892 0.07677 0.48758 0.0
C119 C 0.52227 0.06719 0.49937 0.0
C120 C 0.51866 0.04366 0.49377 0.0
C121 C 0.50219 0.02939 0.47593 0.0
C122 C 0.49006 0.03973 0.4635 0.0
C123 C 0.49313 0.06291 0.46945 0.0
H124 H 0.48999 0.6316 0.62919 0.0
N125 N 0.48971 0.59451 0.6508 0.0
H126 H 0.45456 0.62918 0.60654 0.0
H127 H 0.44448 0.55096 0.63793 0.0
H128 H 0.4088 0.54839 0.61554 0.0
H129 H 0.44617 0.56691 0.67635 0.0
H130 H 0.43792 0.57969 0.71191 0.0
H131 H 0.52367 0.63371 0.67558 0.0
H132 H 0.51596 0.64633 0.71176 0.0
H133 H 0.52919 0.60361 0.6249 0.0
H134 H 0.47283 0.54822 0.66937 0.0
H135 H 0.548 0.57726 0.61871 0.0
H136 H 0.49215 0.52225 0.66409 0.0
H137 H 0.61301 0.49691 0.6066 0.0
H138 H 0.61625 0.48264 0.56964 0.0
H139 H 0.53343 0.45313 0.55871 0.0
H140 H 0.5303 0.46699 0.59561 0.0
H141 H 0.52957 0.43954 0.62582 0.0
H142 H 0.52567 0.40594 0.64927 0.0
H143 H 0.59497 0.46046 0.68585 0.0
H144 H 0.59891 0.49412 0.66211 0.0
H145 H 0.59394 0.53878 0.6306 0.0
H146 H 0.57407 0.56416 0.63715 0.0
H147 H 0.49717 0.49601 0.63802 0.0
N148 N 0.57002 0.48909 0.62671 0.0
H149 H 0.51739 0.47087 0.63241 0.0
C150 C 0.46991 0.5916 0.63524 0.0
C151 C 0.4725 0.61334 0.62589 0.0
C152 C 0.4522 0.61192 0.61313 0.0
C153 C 0.42881 0.58862 0.60948 0.0
C154 C 0.42667 0.56658 0.61796 0.0
C155 C 0.44703 0.56804 0.63082 0.0
C156 C 0.48557 0.59956 0.67318 0.0
C157 C 0.46165 0.5841 0.68402 0.0
C158 C 0.457 0.5914 0.70451 0.0
C159 C 0.47618 0.61419 0.71464 0.0
C160 C 0.50056 0.62892 0.70423 0.0
C161 C 0.50513 0.62166 0.68369 0.0
C162 C 0.4999 0.57813 0.64772 0.0
C163 C 0.52104 0.58582 0.63344 0.0
C164 C 0.53185 0.57081 0.63008 0.0
C165 C 0.5218 0.54772 0.64109 0.0
C166 C 0.50027 0.53981 0.65521 0.0
C167 C 0.48932 0.5548 0.65841 0.0
C168 C 0.57156 0.48311 0.60395 0.0
C169 C 0.5957 0.48773 0.59604 0.0
C170 C 0.5975 0.47963 0.57492 0.0
C171 C 0.57505 0.46664 0.56129 0.0
C172 C 0.55101 0.4628 0.56893 0.0
C173 C 0.54924 0.47092 0.59004 0.0
C174 C 0.56484 0.46941 0.64207 0.0
C175 C 0.54374 0.44442 0.63903 0.0
C176 C 0.54152 0.42518 0.65244 0.0
C177 C 0.56012 0.43058 0.66927 0.0
C178 C 0.58024 0.45578 0.67311 0.0
C179 C 0.58259 0.47498 0.65956 0.0
C180 C 0.55728 0.50306 0.63091 0.0
C181 C 0.57282 0.5294 0.63231 0.0
C182 C 0.56137 0.54383 0.63587 0.0
C183 C 0.53395 0.53216 0.63793 0.0
C184 C 0.51835 0.50563 0.63673 0.0
C185 C 0.5299 0.49119 0.63334 0.0
H186 H 0.12323 0.56355 0.8059 0.0
N187 N 0.09211 0.5136 0.79419 0.0
H188 H 0.16021 0.58138 0.83198 0.0
H189 H 0.1043 0.4884 0.8224 0.0
H190 H 0.14112 0.50623 0.84898 0.0
H191 H 0.12202 0.50493 0.76793 0.0
H192 H 0.14473 0.52774 0.73485 0.0
H193 H 0.08632 0.54988 0.7737 0.0
H194 H 0.10752 0.57172 0.73981 0.0
H195 H 0.07604 0.53963 0.82023 0.0
H196 H 0.04837 0.47387 0.77843 0.0
H197 H 0.03099 0.52739 0.82791 0.0
H198 H 0.00302 0.46227 0.78479 0.0
H199 H 0.871 0.47135 0.84778 0.0
H200 H 0.85237 0.45598 0.88416 0.0
H201 H 0.9089 0.43332 0.89547 0.0
H202 H 0.92613 0.44703 0.85903 0.0
H203 H 0.87505 0.41401 0.83041 0.0
H204 H 0.8367 0.38683 0.80758 0.0
H205 H 0.85624 0.44994 0.76505 0.0
H206 H 0.89334 0.47746 0.78932 0.0
H207 H 0.9481 0.51202 0.82284 0.0
H208 H 0.99319 0.52454 0.81373 0.0
H209 H 0.96982 0.44578 0.81071 0.0
N210 N 0.90685 0.46553 0.82718 0.0
H211 H 0.92469 0.43366 0.8185 0.0
C212 C 0.11118 0.52453 0.81199 0.0
C213 C 0.12675 0.55085 0.81539 0.0
C214 C 0.1479 0.56105 0.83026 0.0
C215 C 0.15362 0.54517 0.84229 0.0
C216 C 0.13705 0.51887 0.83995 0.0
C217 C 0.11609 0.50868 0.82482 0.0
C218 C 0.10229 0.5254 0.77318 0.0
C219 C 0.11855 0.51928 0.76165 0.0
C220 C 0.1314 0.53231 0.74265 0.0
C221 C 0.12799 0.55164 0.73448 0.0
C222 C 0.11099 0.55726 0.74573 0.0
C223 C 0.09849 0.54448 0.765 0.0
C224 C 0.06566 0.50731 0.79903 0.0
C225 C 0.06031 0.52254 0.81264 0.0
C226 C 0.03435 0.51564 0.81679 0.0
C227 C 0.01313 0.49372 0.80705 0.0
C228 C 0.01867 0.47892 0.79305 0.0
C229 C 0.0446 0.48559 0.78924 0.0
C230 C 0.89978 0.46025 0.85022 0.0
C231 C 0.87956 0.46335 0.85827 0.0
C232 C 0.86901 0.45464 0.87915 0.0
C233 C 0.87879 0.44296 0.8927 0.0
C234 C 0.90027 0.44147 0.88526 0.0
C235 C 0.91042 0.44966 0.86423 0.0
C236 C 0.88662 0.44807 0.81195 0.0
C237 C 0.87109 0.42202 0.81617 0.0
C238 C 0.84922 0.40634 0.80284 0.0
C239 C 0.84282 0.41615 0.78457 0.0
C240 C 0.85984 0.44179 0.77938 0.0
C241 C 0.88128 0.45757 0.79306 0.0
C242 C 0.93312 0.47204 0.82143 0.0
C243 C 0.95281 0.49755 0.82003 0.0
C244 C 0.97862 0.50462 0.81503 0.0
C245 C 0.98539 0.48622 0.81161 0.0
C246 C 0.96543 0.46054 0.81284 0.0
C247 C 0.93954 0.45352 0.81744 0.0
H248 H 0.51989 0.12485 0.01201 0.0
N249 N 0.52524 0.1072 0.97368 0.0
H250 H 0.55496 0.1554 0.03683 0.0
H251 H 0.57797 0.12482 0.96995 0.0
H252 H 0.61293 0.15552 0.99438 0.0
H253 H 0.55144 0.10157 0.93919 0.0
H254 H 0.55843 0.12093 0.90289 0.0
H255 H 0.50592 0.13432 0.95844 0.0
H256 H 0.5124 0.15337 0.92192 0.0
H257 H 0.47444 0.07506 0.97945 0.0
H258 H 0.54834 0.0788 0.97265 0.0
H259 H 0.45183 0.02918 0.98346 0.0
H260 H 0.526 0.03297 0.97688 0.0
H261 H 0.39093 0.88486 0.01502 0.0
H262 H 0.38882 0.86785 0.05166 0.0
H263 H 0.47168 0.92228 0.06155 0.0
H264 H 0.47372 0.93838 0.0245 0.0
H265 H 0.48059 0.9224 0.98977 0.0
H266 H 0.48737 0.89084 0.97227 0.0
H267 H 0.40502 0.84788 0.95347 0.0
H268 H 0.39917 0.8807 0.96952 0.0
H269 H 0.42649 0.95363 0.01565 0.0
H270 H 0.44926 0.99908 0.01054 0.0
H271 H 0.49359 0.99308 0.95738 0.0
N272 N 0.43343 0.91974 0.99416 0.0
H273 H 0.47103 0.94784 0.96228 0.0
C274 C 0.5462 0.12281 0.98901 0.0
C275 C 0.54015 0.13116 0.00833 0.0
C276 C 0.56016 0.14848 0.02249 0.0
C277 C 0.58664 0.15791 0.01741 0.0
C278 C 0.59267 0.14871 0.99854 0.0
C279 C 0.57264 0.13115 0.98455 0.0
C280 C 0.52824 0.11669 0.9516 0.0
C281 C 0.54285 0.11282 0.93562 0.0
C282 C 0.54688 0.12392 0.91488 0.0
C283 C 0.536 0.13867 0.90965 0.0
C284 C 0.52084 0.14193 0.92546 0.0
C285 C 0.51716 0.13114 0.94627 0.0
C286 C 0.51295 0.0803 0.97585 0.0
C287 C 0.48574 0.06591 0.97887 0.0
C288 C 0.47293 0.03977 0.98126 0.0
C289 C 0.48716 0.02746 0.9806 0.0
C290 C 0.51447 0.04189 0.97726 0.0
C291 C 0.5273 0.06812 0.97495 0.0
C292 C 0.43234 0.91282 0.01703 0.0
C293 C 0.40849 0.89332 0.02528 0.0
C294 C 0.40735 0.88373 0.04628 0.0
C295 C 0.43012 0.89362 0.0596 0.0
C296 C 0.45387 0.91391 0.05162 0.0
C297 C 0.45503 0.9233 0.0305 0.0
C298 C 0.43937 0.90411 0.98061 0.0
C299 C 0.46424 0.9066 0.98123 0.0
C300 C 0.46795 0.88823 0.97147 0.0
C301 C 0.44668 0.8664 0.96166 0.0
C302 C 0.42207 0.86448 0.96045 0.0
C303 C 0.41859 0.88323 0.96968 0.0
C304 C 0.44774 0.94687 0.99038 0.0
C305 C 0.4414 0.96202 0.00309 0.0
C306 C 0.45426 0.98805 1e-05 0.0
C307 C 0.47352 0.99973 0.98377 0.0
C308 C 0.47935 0.98469 0.97045 0.0
C309 C 0.46639 0.95856 0.97346 0.0
H310 H 0.53297 0.43885 0.13964 0.0
N311 N 0.56561 0.48717 0.15504 0.0
H312 H 0.54573 0.41405 0.11783 0.0
H313 H 0.6117 0.50336 0.13618 0.0
H314 H 0.62554 0.47813 0.11615 0.0
H315 H 0.60515 0.5033 0.18372 0.0
H316 H 0.60522 0.48456 0.21902 0.0
H317 H 0.52243 0.44891 0.1754 0.0
H318 H 0.52207 0.43027 0.21099 0.0
H319 H 0.53079 0.47143 0.11894 0.0
H320 H 0.55627 0.51862 0.17768 0.0
H321 H 0.49872 0.48314 0.11146 0.0
H322 H 0.52388 0.53049 0.16986 0.0
H323 H 0.39228 0.52661 0.0936 0.0
H324 H 0.39111 0.54079 0.05637 0.0
H325 H 0.47489 0.57223 0.05126 0.0
H326 H 0.47612 0.55945 0.08872 0.0
H327 H 0.46415 0.58871 0.11507 0.0
H328 H 0.45825 0.61868 0.13661 0.0
H329 H 0.39588 0.55703 0.17278 0.0
H330 H 0.40196 0.52693 0.15104 0.0
H331 H 0.42611 0.49057 0.11705 0.0
H332 H 0.45729 0.47744 0.12661 0.0
H333 H 0.51637 0.55497 0.14199 0.0
N334 N 0.43442 0.53702 0.11742 0.0
H335 H 0.48538 0.56789 0.13252 0.0
C336 C 0.57133 0.47322 0.13918 0.0
C337 C 0.55298 0.4478 0.1339 0.0
C338 C 0.56051 0.43348 0.12167 0.0
C339 C 0.58689 0.44377 0.11542 0.0
C340 C 0.60498 0.46946 0.1202 0.0
C341 C 0.59716 0.484 0.13178 0.0
C342 C 0.56391 0.47757 0.17699 0.0
C343 C 0.5869 0.48762 0.1898 0.0
C344 C 0.58682 0.47691 0.21 0.0
C345 C 0.56363 0.45585 0.21785 0.0
C346 C 0.54033 0.44625 0.20528 0.0
C347 C 0.54046 0.45697 0.18501 0.0
C348 C 0.54574 0.49328 0.14962 0.0
C349 C 0.52935 0.48378 0.13068 0.0
C350 C 0.51084 0.49062 0.12621 0.0
C351 C 0.50852 0.50749 0.14019 0.0
C352 C 0.52518 0.51744 0.15875 0.0
C353 C 0.54359 0.51051 0.16331 0.0
C354 C 0.43412 0.54183 0.09413 0.0
C355 C 0.41028 0.53618 0.08425 0.0
C356 C 0.40967 0.54422 0.06289 0.0
C357 C 0.43298 0.55792 0.05081 0.0
C358 C 0.45664 0.56224 0.06023 0.0
C359 C 0.4573 0.55458 0.08171 0.0
C360 C 0.43326 0.55542 0.13135 0.0
C361 C 0.44934 0.58156 0.12773 0.0
C362 C 0.44588 0.59871 0.13999 0.0
C363 C 0.42644 0.59018 0.15623 0.0
C364 C 0.41112 0.56417 0.16046 0.0
C365 C 0.4145 0.54697 0.14806 0.0
C366 C 0.4531 0.53006 0.12424 0.0
C367 C 0.44573 0.50465 0.12266 0.0
C368 C 0.4636 0.49723 0.12798 0.0
C369 C 0.48927 0.51518 0.13509 0.0
C370 C 0.49661 0.54064 0.13688 0.0
C371 C 0.4788 0.54806 0.13144 0.0
C372 C 0.59856 0.32967 0.39267 0.0
O373 O 0.57767 0.33034 0.38678 0.0
O374 O 0.66567 0.40746 0.38437 0.0
Zn375 Zn 0.62675 0.38481 0.38913 0.0
O376 O 0.6135 0.39455 0.41563 0.0
C377 C 0.6122 0.40647 0.35497 0.0
O378 O 0.62937 0.42702 0.36582 0.0
O379 O 0.62065 0.35017 0.39427 0.0
C380 C 0.62237 0.41666 0.42342 0.0
O381 O 0.64252 0.43604 0.41403 0.0
C382 C 0.68317 0.41722 0.39948 0.0
O383 O 0.67612 0.41417 0.42024 0.0
O384 O 0.60737 0.38518 0.36188 0.0
C385 C 0.29396 0.69987 0.54847 0.0
O386 O 0.2746 0.69133 0.534 0.0
O387 O 0.28902 0.63137 0.5684 0.0
Zn388 Zn 0.26749 0.64769 0.56512 0.0
O389 O 0.24338 0.63392 0.53827 0.0
C390 C 0.23875 0.62159 0.6039 0.0
O391 O 0.24562 0.60555 0.59753 0.0
O392 O 0.294 0.68493 0.56269 0.0
C393 C 0.2225 0.61226 0.53932 0.0
O394 O 0.21732 0.59951 0.55769 0.0
C395 C 0.28786 0.61362 0.55686 0.0
O396 O 0.2706 0.60345 0.54064 0.0
O397 O 0.24604 0.6414 0.5927 0.0
C398 C 0.58825 0.29552 0.71405 0.0
O399 O 0.5928 0.28687 0.69586 0.0
O400 O 0.64622 0.28897 0.73419 0.0
Zn401 Zn 0.60677 0.26544 0.73328 0.0
O402 O 0.59306 0.24352 0.70594 0.0
C403 C 0.60401 0.24131 0.77633 0.0
O404 O 0.62979 0.25504 0.7772 0.0
O405 O 0.59237 0.2886 0.73257 0.0
C406 C 0.60087 0.23065 0.69581 0.0
O407 O 0.62169 0.23064 0.70304 0.0
C408 C 0.66557 0.28578 0.73618 0.0
O409 O 0.66138 0.26288 0.73795 0.0
O410 O 0.59179 0.24321 0.75991 0.0
C411 C 0.42323 0.7058 0.90876 0.0
O412 O 0.43723 0.69531 0.91226 0.0
O413 O 0.34995 0.63783 0.88466 0.0
Zn414 Zn 0.38936 0.65764 0.88873 0.0
O415 O 0.4013 0.64254 0.91198 0.0
C416 C 0.40535 0.63928 0.85191 0.0
O417 O 0.39163 0.61769 0.86216 0.0
O418 O 0.4014 0.69328 0.89844 0.0
C419 C 0.39063 0.6197 0.91798 0.0
O420 O 0.36858 0.60228 0.90853 0.0
C421 C 0.33416 0.62903 0.90074 0.0
O422 O 0.34362 0.63264 0.92095 0.0
O423 O 0.40688 0.65893 0.86011 0.0
C424 C 0.69281 0.37291 0.07233 0.0
O425 O 0.69347 0.35562 0.08419 0.0
O426 O 0.72174 0.33902 0.05909 0.0
Zn427 Zn 0.74006 0.37722 0.0599 0.0
O428 O 0.76099 0.39236 0.08796 0.0
C429 C 0.77481 0.37819 0.02801 0.0
O430 O 0.76997 0.35853 0.03976 0.0
O431 O 0.7117 0.3861 0.05933 0.0
C432 C 0.77872 0.38888 0.09573 0.0
O433 O 0.78454 0.37386 0.08523 0.0
C434 C 0.71751 0.32418 0.07504 0.0
O435 O 0.72575 0.3335 0.09498 0.0
O436 O 0.76406 0.39057 0.03346 0.0
C437 C 0.39006 0.72083 0.20337 0.0
O438 O 0.38765 0.73187 0.18585 0.0
O439 O 0.338 0.73696 0.22681 0.0
Zn440 Zn 0.37752 0.75423 0.22622 0.0
O441 O 0.39366 0.77992 0.20195 0.0
C442 C 0.40791 0.79361 0.25991 0.0
O443 O 0.41995 0.80886 0.24341 0.0
O444 O 0.38681 0.72751 0.22236 0.0
C445 C 0.38179 0.78909 0.19184 0.0
O446 O 0.35755 0.7818 0.19719 0.0
C447 C 0.32745 0.7475 0.2368 0.0
O448 O 0.34258 0.77039 0.24498 0.0
O449 O 0.39057 0.77063 0.256 0.0
H450 H 0.19228 0.62154 0.25925 0.0
H451 H 0.17246 0.66661 0.30057 0.0
H452 H 0.21031 0.7054 0.286 0.0
H453 H 0.25873 0.65691 0.26976 0.0
H454 H 0.26885 0.65382 0.24256 0.0
H455 H 0.23738 0.6298 0.25267 0.0
H456 H 0.21445 0.63534 0.21857 0.0
H457 H 0.24596 0.65943 0.2083 0.0
H458 H 0.22024 0.66619 0.21222 0.0
H459 H 0.25352 0.73896 0.27124 0.0
H460 H 0.29909 0.76447 0.25809 0.0
H461 H 0.29183 0.69759 0.22751 0.0
C462 C 0.19562 0.63955 0.26502 0.0
C463 C 0.17918 0.6409 0.281 0.0
C464 C 0.18431 0.66493 0.288 0.0
C465 C 0.20587 0.68715 0.27987 0.0
C466 C 0.22212 0.68507 0.26468 0.0
C467 C 0.21719 0.66187 0.25725 0.0
C468 C 0.2392 0.66468 0.24283 0.0
C469 C 0.25178 0.65047 0.25255 0.0
C470 C 0.22937 0.65589 0.21907 0.0
C471 C 0.25783 0.69301 0.2441 0.0
C472 C 0.24738 0.70448 0.25641 0.0
C473 C 0.26174 0.73026 0.26126 0.0
C474 C 0.28765 0.74459 0.25376 0.0
C475 C 0.29903 0.73305 0.24173 0.0
C476 C 0.28361 0.70704 0.23642 0.0
H477 H 0.52323 0.18497 0.42668 0.0
H478 H 0.59826 0.1986 0.45133 0.0
H479 H 0.62051 0.24092 0.43497 0.0
H480 H 0.54742 0.22197 0.37562 0.0
H481 H 0.52565 0.23388 0.37819 0.0
H482 H 0.51606 0.20318 0.38878 0.0
H483 H 0.50863 0.21669 0.42726 0.0
H484 H 0.51827 0.2474 0.41685 0.0
H485 H 0.53505 0.24462 0.44051 0.0
H486 H 0.63414 0.28322 0.41948 0.0
H487 H 0.6381 0.32257 0.40635 0.0
H488 H 0.55396 0.28231 0.39344 0.0
C489 C 0.54438 0.19669 0.4285 0.0
C490 C 0.55892 0.18821 0.44024 0.0
C491 C 0.58662 0.20427 0.44203 0.0
C492 C 0.59948 0.22847 0.43289 0.0
C493 C 0.58442 0.23642 0.422 0.0
C494 C 0.55748 0.221 0.41972 0.0
C495 C 0.54559 0.23485 0.40897 0.0
C496 C 0.53294 0.22275 0.38656 0.0
C497 C 0.52573 0.23596 0.42432 0.0
C498 C 0.56999 0.26069 0.40615 0.0
C499 C 0.59222 0.26107 0.41347 0.0
C500 C 0.61692 0.28309 0.41348 0.0
C501 C 0.61894 0.30537 0.40602 0.0
C502 C 0.59634 0.30556 0.39884 0.0
C503 C 0.57163 0.28278 0.39867 0.0
H504 H 0.41032 0.62 0.61663 0.0
H505 H 0.39574 0.55499 0.57761 0.0
H506 H 0.35755 0.55379 0.55969 0.0
H507 H 0.34307 0.59981 0.62583 0.0
H508 H 0.34851 0.63118 0.62408 0.0
H509 H 0.3746 0.62681 0.63345 0.0
H510 H 0.405 0.65678 0.60301 0.0
H511 H 0.37903 0.66131 0.59359 0.0
H512 H 0.39418 0.65032 0.5746 0.0
H513 H 0.32111 0.56056 0.54576 0.0
H514 H 0.28938 0.574 0.53774 0.0
H515 H 0.32856 0.63418 0.58659 0.0
C516 C 0.39931 0.60568 0.60412 0.0
C517 C 0.40611 0.58773 0.59832 0.0
C518 C 0.39079 0.56889 0.58229 0.0
C519 C 0.36916 0.56813 0.57201 0.0
C520 C 0.36307 0.58622 0.5781 0.0
C521 C 0.37771 0.60458 0.59385 0.0
C522 C 0.36707 0.62168 0.5978 0.0
C523 C 0.35775 0.61974 0.62171 0.0
C524 C 0.38754 0.64914 0.59189 0.0
C525 C 0.34418 0.61023 0.58171 0.0
C526 C 0.34213 0.58982 0.57043 0.0
C527 C 0.32252 0.57648 0.55455 0.0
C528 C 0.30461 0.58425 0.55009 0.0
C529 C 0.30643 0.6051 0.56156 0.0
C530 C 0.3265 0.61811 0.57758 0.0
H531 H 0.8156 0.36445 0.77606 0.0
H532 H 0.81152 0.43171 0.76588 0.0
H533 H 0.76819 0.40578 0.74833 0.0
H534 H 0.77845 0.32916 0.72612 0.0
H535 H 0.76149 0.29945 0.74032 0.0
H536 H 0.79416 0.32356 0.74902 0.0
H537 H 0.77741 0.32203 0.78865 0.0
H538 H 0.74474 0.29797 0.78008 0.0
H539 H 0.75029 0.3267 0.79285 0.0
H540 H 0.72381 0.37287 0.73533 0.0
H541 H 0.68046 0.33473 0.72859 0.0
H542 H 0.71135 0.28797 0.74892 0.0
C543 C 0.80579 0.37386 0.77001 0.0
C544 C 0.81749 0.40038 0.77219 0.0
C545 C 0.80369 0.41167 0.7639 0.0
C546 C 0.77883 0.39703 0.754 0.0
C547 C 0.76777 0.37102 0.75256 0.0
C548 C 0.78072 0.35946 0.76034 0.0
C549 C 0.76334 0.33092 0.75854 0.0
C550 C 0.77506 0.32014 0.74254 0.0
C551 C 0.75867 0.3187 0.78139 0.0
C552 C 0.73837 0.32831 0.74911 0.0
C553 C 0.74159 0.35173 0.74549 0.0
C554 C 0.72109 0.3544 0.73788 0.0
C555 C 0.69649 0.33257 0.73417 0.0
C556 C 0.69245 0.3083 0.73821 0.0
C557 C 0.71386 0.3062 0.74545 0.0
H558 H 0.42066 0.832 0.92755 0.0
H559 H 0.47839 0.85102 0.98001 0.0
H560 H 0.48109 0.81405 0.96998 0.0
H561 H 0.38552 0.76649 0.93794 0.0
H562 H 0.37768 0.75707 0.90938 0.0
H563 H 0.3827 0.78694 0.91858 0.0
H564 H 0.41873 0.81 0.88918 0.0
H565 H 0.41378 0.78016 0.87985 0.0
H566 H 0.44609 0.80521 0.88836 0.0
H567 H 0.476 0.77385 0.95582 0.0
H568 H 0.46197 0.73213 0.93948 0.0
H569 H 0.40486 0.73708 0.89838 0.0
C570 C 0.43397 0.82856 0.93696 0.0
C571 C 0.44957 0.84491 0.95444 0.0
C572 C 0.46678 0.83948 0.96611 0.0
C573 C 0.46832 0.8183 0.96067 0.0
C574 C 0.45235 0.80246 0.94366 0.0
C575 C 0.4354 0.80722 0.93203 0.0
C576 C 0.41894 0.78616 0.9156 0.0
C577 C 0.38947 0.77341 0.92069 0.0
C578 C 0.42475 0.79597 0.89184 0.0
C579 C 0.42902 0.76864 0.92008 0.0
C580 C 0.44857 0.77862 0.93609 0.0
C581 C 0.46078 0.76586 0.94321 0.0
C582 C 0.45267 0.74218 0.93381 0.0
C583 C 0.4323 0.73133 0.91769 0.0
C584 C 0.42044 0.74486 0.91071 0.0
H585 H 0.62788 0.45642 0.08649 0.0
H586 H 0.56753 0.39369 0.12413 0.0
H587 H 0.58463 0.36735 0.11197 0.0
H588 H 0.63334 0.41875 0.04114 0.0
H589 H 0.66861 0.4389 0.04021 0.0
H590 H 0.6488 0.4518 0.04818 0.0
H591 H 0.6755 0.46863 0.08468 0.0
H592 H 0.69532 0.4558 0.07685 0.0
H593 H 0.67814 0.447 0.10269 0.0
H594 H 0.61076 0.34919 0.1002 0.0
H595 H 0.64546 0.34073 0.0904 0.0
H596 H 0.6911 0.41539 0.06198 0.0
C597 C 0.61799 0.43708 0.09201 0.0
C598 C 0.59592 0.42724 0.10606 0.0
C599 C 0.58379 0.4017 0.1128 0.0
C600 C 0.59351 0.3865 0.10609 0.0
C601 C 0.61554 0.39699 0.09274 0.0
C602 C 0.62773 0.42169 0.08577 0.0
C603 C 0.65288 0.42907 0.07357 0.0
C604 C 0.65077 0.43497 0.04933 0.0
C605 C 0.67687 0.45144 0.08515 0.0
C606 C 0.65335 0.40493 0.07553 0.0
C607 C 0.63131 0.38657 0.0863 0.0
C608 C 0.62794 0.36326 0.09148 0.0
C609 C 0.64784 0.35869 0.08592 0.0
C610 C 0.67095 0.37738 0.07538 0.0
C611 C 0.67346 0.40061 0.0697 0.0
H612 H 0.38242 0.83647 0.49644 0.0
H613 H 0.44436 0.84897 0.54231 0.0
H614 H 0.41413 0.80783 0.55968 0.0
H615 H 0.32721 0.80396 0.53445 0.0
H616 H 0.30555 0.78225 0.51343 0.0
H617 H 0.33137 0.81355 0.50602 0.0
H618 H 0.34924 0.79437 0.47816 0.0
H619 H 0.32358 0.76305 0.48552 0.0
H620 H 0.35751 0.77181 0.4876 0.0
H621 H 0.37773 0.76458 0.57078 0.0
H622 H 0.33866 0.72182 0.57407 0.0
H623 H 0.30081 0.73732 0.52022 0.0
C624 C 0.38943 0.8308 0.51048 0.0
C625 C 0.41559 0.84599 0.51827 0.0
C626 C 0.42434 0.8376 0.53619 0.0
C627 C 0.40729 0.81436 0.54617 0.0
C628 C 0.38166 0.79973 0.53794 0.0
C629 C 0.37278 0.80761 0.52047 0.0
C630 C 0.34493 0.78769 0.51379 0.0
C631 C 0.32616 0.79745 0.51713 0.0
C632 C 0.34377 0.7787 0.48985 0.0
C633 C 0.33958 0.76719 0.53007 0.0
C634 C 0.36091 0.77461 0.544 0.0
C635 C 0.36087 0.75863 0.56005 0.0
C636 C 0.33855 0.73435 0.56177 0.0
C637 C 0.31661 0.72616 0.54741 0.0
C638 C 0.31717 0.74299 0.5315 0.0
H639 H 0.55545 0.38801 0.65152 0.0
H640 H 0.56613 0.42708 0.71383 0.0
H641 H 0.57049 0.39421 0.73297 0.0
H642 H 0.51906 0.32289 0.6728 0.0
H643 H 0.5354 0.31267 0.65434 0.0
H644 H 0.52988 0.33748 0.64625 0.0
H645 H 0.57972 0.36693 0.63914 0.0
H646 H 0.58543 0.34233 0.6473 0.0
H647 H 0.60298 0.37272 0.66097 0.0
H648 H 0.57682 0.35857 0.74468 0.0
H649 H 0.5864 0.32437 0.74776 0.0
H650 H 0.57257 0.30977 0.67737 0.0
C651 C 0.55793 0.38925 0.66928 0.0
C652 C 0.56009 0.40984 0.68128 0.0
C653 C 0.56431 0.41134 0.7044 0.0
C654 C 0.56668 0.39273 0.71538 0.0
C655 C 0.56486 0.37285 0.70297 0.0
C656 C 0.56058 0.37103 0.68041 0.0
C657 C 0.56165 0.34914 0.67053 0.0
C658 C 0.5349 0.32937 0.66039 0.0
C659 C 0.58376 0.35834 0.65349 0.0
C660 C 0.56778 0.3392 0.69096 0.0
C661 C 0.56918 0.35284 0.70957 0.0
C662 C 0.57555 0.34762 0.73024 0.0
C663 C 0.58095 0.32817 0.73183 0.0
C664 C 0.58026 0.31442 0.71281 0.0
C665 C 0.57323 0.31989 0.69223 0.0
H666 H 0.20314 0.58031 0.82961 0.0
H667 H 0.15917 0.53388 0.88494 0.0
H668 H 0.20061 0.55116 0.9066 0.0
H669 H 0.25759 0.57212 0.83584 0.0
H670 H 0.28164 0.60381 0.82769 0.0
H671 H 0.24844 0.58892 0.81725 0.0
H672 H 0.24483 0.62627 0.83217 0.0
H673 H 0.27808 0.64134 0.84259 0.0
H674 H 0.2517 0.63511 0.86092 0.0
H675 H 0.24725 0.5738 0.922 0.0
H676 H 0.29522 0.59808 0.92925 0.0
H677 H 0.30822 0.62795 0.86294 0.0
C678 C 0.20222 0.57409 0.84642 0.0
C679 C 0.17802 0.55604 0.85578 0.0
C680 C 0.17758 0.54779 0.87757 0.0
C681 C 0.20096 0.55754 0.88996 0.0
C682 C 0.22456 0.57528 0.88018 0.0
C683 C 0.22532 0.58334 0.85885 0.0
C684 C 0.25322 0.60162 0.85172 0.0
C685 C 0.26065 0.59097 0.83196 0.0
C686 C 0.25718 0.62762 0.84655 0.0
C687 C 0.26812 0.60262 0.87237 0.0
C688 C 0.25128 0.58751 0.8887 0.0
C689 C 0.26061 0.58564 0.90931 0.0
C690 C 0.28786 0.59953 0.91329 0.0
C691 C 0.30544 0.61481 0.89663 0.0
C692 C 0.29531 0.6163 0.87596 0.0
H693 H 0.62754 0.2019 0.002 0.0
H694 H 0.59263 0.16178 0.06247 0.0
H695 H 0.62583 0.19892 0.08424 0.0
H696 H 0.69677 0.23768 0.02153 0.0
H697 H 0.70358 0.2655 0.00667 0.0
H698 H 0.67941 0.23464 0.99612 0.0
H699 H 0.64462 0.2478 0.99512 0.0
H700 H 0.66859 0.2786 0.00571 0.0
H701 H 0.63803 0.25962 0.01996 0.0
H702 H 0.6609 0.24176 0.09919 0.0
H703 H 0.69298 0.28714 0.10605 0.0
H704 H 0.70359 0.29903 0.03548 0.0
C705 C 0.62738 0.20068 0.01982 0.0
C706 C 0.60783 0.17891 0.03061 0.0
C707 C 0.6076 0.17829 0.05395 0.0
C708 C 0.62643 0.19921 0.0664 0.0
C709 C 0.64523 0.22058 0.05522 0.0
C710 C 0.64579 0.22142 0.03243 0.0
C711 C 0.66629 0.24732 0.02435 0.0
C712 C 0.68779 0.24621 0.01141 0.0
C713 C 0.65362 0.25901 0.01048 0.0
C714 C 0.67681 0.26113 0.04612 0.0
C715 C 0.66478 0.24534 0.06377 0.0
C716 C 0.67062 0.25423 0.08549 0.0
C717 C 0.68888 0.28002 0.08923 0.0
C718 C 0.70075 0.29661 0.0713 0.0
C719 C 0.69489 0.28683 0.04954 0.0
H720 H 0.42282 0.62858 0.13823 0.0
H721 H 0.41824 0.59246 0.20048 0.0
H722 H 0.40909 0.62244 0.2196 0.0
H723 H 0.45458 0.69257 0.15927 0.0
H724 H 0.43639 0.70119 0.14125 0.0
H725 H 0.44308 0.67722 0.13274 0.0
H726 H 0.39323 0.64576 0.12631 0.0
H727 H 0.38638 0.66961 0.13483 0.0
H728 H 0.37068 0.63954 0.14847 0.0
H729 H 0.40045 0.65652 0.23175 0.0
H730 H 0.39168 0.69113 0.23592 0.0
H731 H 0.40154 0.70437 0.16543 0.0
C732 C 0.42022 0.62717 0.15593 0.0
C733 C 0.42141 0.60832 0.16793 0.0
C734 C 0.4173 0.60671 0.19099 0.0
C735 C 0.41222 0.6237 0.20198 0.0
C736 C 0.41119 0.64207 0.18962 0.0
C737 C 0.41499 0.64383 0.16709 0.0
C738 C 0.41223 0.66482 0.1575 0.0
C739 C 0.43811 0.68515 0.14708 0.0
C740 C 0.38926 0.65429 0.1408 0.0
C741 C 0.40626 0.67465 0.17816 0.0
C742 C 0.40585 0.66137 0.19653 0.0
C743 C 0.40072 0.66705 0.21748 0.0
C744 C 0.39579 0.68675 0.21967 0.0
C745 C 0.39589 0.70046 0.201 0.0
C746 C 0.40128 0.69426 0.18003 0.0
H747 H 0.80154 0.43126 0.3287 0.0
H748 H 0.85519 0.48175 0.37931 0.0
H749 H 0.81764 0.47926 0.39931 0.0
H750 H 0.75805 0.45648 0.32886 0.0
H751 H 0.72902 0.42589 0.32397 0.0
H752 H 0.76026 0.43264 0.31356 0.0
H753 H 0.75508 0.39371 0.334 0.0
H754 H 0.72386 0.38685 0.34446 0.0
H755 H 0.74939 0.391 0.3633 0.0
H756 H 0.77324 0.46765 0.41521 0.0
H757 H 0.72645 0.45041 0.42435 0.0
H758 H 0.70303 0.40994 0.36174 0.0
C759 C 0.80533 0.44188 0.34394 0.0
C760 C 0.83105 0.45654 0.35266 0.0
C761 C 0.8355 0.47045 0.37247 0.0
C762 C 0.81434 0.4691 0.38388 0.0
C763 C 0.78907 0.45417 0.37496 0.0
C764 C 0.7846 0.4411 0.35526 0.0
C765 C 0.75571 0.42623 0.34918 0.0
C766 C 0.75046 0.4359 0.32762 0.0
C767 C 0.74542 0.39777 0.34766 0.0
C768 C 0.74444 0.43243 0.36877 0.0
C769 C 0.76391 0.4485 0.38354 0.0
C770 C 0.7579 0.45541 0.40358 0.0
C771 C 0.73131 0.4455 0.40866 0.0
C772 C 0.71118 0.42913 0.39364 0.0
C773 C 0.71799 0.42284 0.37337 0.0
H774 H 0.17052 0.60498 0.41592 0.0
H775 H 0.10698 0.52895 0.43028 0.0
H776 H 0.12379 0.53371 0.46847 0.0
H777 H 0.21995 0.60245 0.44698 0.0
H778 H 0.23602 0.63475 0.45659 0.0
H779 H 0.21838 0.62586 0.43067 0.0
H780 H 0.19 0.64381 0.44399 0.0
H781 H 0.20763 0.65285 0.46994 0.0
H782 H 0.17231 0.63282 0.46948 0.0
H783 H 0.14785 0.5463 0.50463 0.0
H784 H 0.17787 0.5656 0.53652 0.0
H785 H 0.22619 0.63353 0.49871 0.0
C786 C 0.15995 0.58948 0.42721 0.0
C787 C 0.13741 0.5666 0.42019 0.0
C788 C 0.12439 0.54656 0.4353 0.0
C789 C 0.13371 0.54914 0.45702 0.0
C790 C 0.15609 0.57185 0.46335 0.0
C791 C 0.16907 0.59168 0.44892 0.0
C792 C 0.19317 0.61378 0.45974 0.0
C793 C 0.21837 0.61953 0.44778 0.0
C794 C 0.19061 0.6372 0.46085 0.0
C795 C 0.19179 0.6032 0.48248 0.0
C796 C 0.17017 0.57904 0.48421 0.0
C797 C 0.16481 0.56523 0.50351 0.0
C798 C 0.18202 0.57639 0.52153 0.0
C799 C 0.20441 0.60109 0.52014 0.0
C800 C 0.20925 0.61464 0.50031 0.0
H801 H 0.56947 0.1425 0.58877 0.0
H802 H 0.5011 0.14915 0.57825 0.0
H803 H 0.51157 0.17423 0.61248 0.0
H804 H 0.56572 0.13844 0.64868 0.0
H805 H 0.60085 0.15722 0.65269 0.0
H806 H 0.58725 0.13842 0.62793 0.0
H807 H 0.61469 0.17827 0.60425 0.0
H808 H 0.62831 0.19721 0.62891 0.0
H809 H 0.6118 0.2055 0.60872 0.0
H810 H 0.53017 0.20014 0.64646 0.0
H811 H 0.55541 0.22485 0.67907 0.0
H812 H 0.61249 0.20242 0.66791 0.0
C813 C 0.55666 0.14916 0.59369 0.0
C814 C 0.53426 0.14356 0.58087 0.0
C815 C 0.51799 0.15262 0.58799 0.0
C816 C 0.52388 0.16708 0.60734 0.0
C817 C 0.54615 0.1724 0.61945 0.0
C818 C 0.56228 0.16371 0.61301 0.0
C819 C 0.5854 0.17279 0.62884 0.0
C820 C 0.58475 0.15038 0.64021 0.0
C821 C 0.6116 0.18943 0.61697 0.0
C822 C 0.57982 0.18814 0.64501 0.0
C823 C 0.55704 0.18757 0.63924 0.0
C824 C 0.54797 0.20064 0.65126 0.0
C825 C 0.56253 0.21467 0.66976 0.0
C826 C 0.58595 0.21557 0.67613 0.0
C827 C 0.59464 0.20204 0.66355 0.0
H828 H 0.44821 0.58632 0.75056 0.0
H829 H 0.48975 0.66262 0.72499 0.0
H830 H 0.47754 0.67754 0.75794 0.0
H831 H 0.39399 0.58857 0.77176 0.0
H832 H 0.3903 0.57007 0.79579 0.0
H833 H 0.40388 0.5656 0.77096 0.0
H834 H 0.44547 0.5744 0.79273 0.0
H835 H 0.43197 0.57881 0.81766 0.0
H836 H 0.46391 0.60329 0.80853 0.0
H837 H 0.459 0.68389 0.79267 0.0
H838 H 0.43608 0.6813 0.82721 0.0
H839 H 0.40576 0.60073 0.82976 0.0
C840 C 0.45481 0.60619 0.75188 0.0
C841 C 0.47013 0.62331 0.7352 0.0
C842 C 0.47848 0.64919 0.73772 0.0
C843 C 0.47148 0.65784 0.75631 0.0
C844 C 0.4561 0.6404 0.77227 0.0
C845 C 0.44794 0.61514 0.7703 0.0
C846 C 0.43088 0.6002 0.78949 0.0
C847 C 0.40312 0.57992 0.78151 0.0
C848 C 0.44384 0.58849 0.8029 0.0
C849 C 0.43051 0.62098 0.80242 0.0
C850 C 0.44525 0.64404 0.79224 0.0
C851 C 0.4475 0.66596 0.80087 0.0
C852 C 0.43436 0.66428 0.82048 0.0
C853 C 0.41912 0.64082 0.83122 0.0
C854 C 0.41728 0.61895 0.822 0.0
H855 H 0.85526 0.45853 0.92304 0.0
H856 H 0.87121 0.39882 0.9096 0.0
H857 H 0.84832 0.37742 0.94345 0.0
H858 H 0.86085 0.45893 0.98274 0.0
H859 H 0.83386 0.4637 0.9873 0.0
H860 H 0.85322 0.47563 0.96272 0.0
H861 H 0.81101 0.45097 0.93864 0.0
H862 H 0.79153 0.43896 0.96313 0.0
H863 H 0.7898 0.41738 0.94217 0.0
H864 H 0.82291 0.36161 0.97778 0.0
H865 H 0.79518 0.35159 0.0105 0.0
H866 H 0.79311 0.41999 0.00134 0.0
C867 C 0.85397 0.44096 0.92717 0.0
C868 C 0.86554 0.43068 0.91368 0.0
C869 C 0.86333 0.40762 0.91987 0.0
C870 C 0.85012 0.39513 0.93901 0.0
C871 C 0.83894 0.40573 0.95181 0.0
C872 C 0.84057 0.42804 0.94618 0.0
C873 C 0.82578 0.43468 0.96245 0.0
C874 C 0.84456 0.45972 0.97452 0.0
C875 C 0.80319 0.43554 0.95091 0.0
C876 C 0.81544 0.41247 0.97796 0.0
C877 C 0.8235 0.39615 0.97153 0.0
C878 C 0.81648 0.37423 0.98304 0.0
C879 C 0.80071 0.36873 0.00163 0.0
C880 C 0.79192 0.38498 0.00851 0.0
C881 C 0.79947 0.40718 0.99648 0.0
H882 H 0.39052 0.87394 0.09026 0.0
H883 H 0.46761 0.88543 0.07718 0.0
H884 H 0.46497 0.86271 0.11116 0.0
H885 H 0.3962 0.87836 0.15052 0.0
H886 H 0.36242 0.85364 0.15426 0.0
H887 H 0.37161 0.87326 0.13021 0.0
H888 H 0.35128 0.83337 0.10508 0.0
H889 H 0.34212 0.81364 0.12901 0.0
H890 H 0.36214 0.81128 0.10811 0.0
H891 H 0.45262 0.83595 0.14494 0.0
H892 H 0.43143 0.80715 0.17615 0.0
H893 H 0.36175 0.81179 0.16644 0.0
C894 C 0.40695 0.87184 0.09456 0.0
C895 C 0.42937 0.8817 0.08103 0.0
C896 C 0.45046 0.8786 0.08744 0.0
C897 C 0.44908 0.86555 0.10667 0.0
C898 C 0.42649 0.85569 0.11935 0.0
C899 C 0.40583 0.85872 0.1136 0.0
C900 C 0.38313 0.84499 0.12935 0.0
C901 C 0.37805 0.86368 0.14183 0.0
C902 C 0.35821 0.82461 0.11716 0.0
C903 C 0.39408 0.83335 0.14459 0.0
C904 C 0.41921 0.83994 0.13867 0.0
C905 C 0.43303 0.83082 0.14986 0.0
C906 C 0.4208 0.81443 0.16754 0.0
C907 C 0.39493 0.80722 0.17376 0.0
C908 C 0.38157 0.81701 0.16217 0.0
H909 H 0.59062 0.47822 0.25639 0.0
H910 H 0.53876 0.40497 0.2257 0.0
H911 H 0.54302 0.38411 0.25863 0.0
H912 H 0.635 0.46313 0.27916 0.0
H913 H 0.64112 0.48136 0.30415 0.0
H914 H 0.63169 0.49042 0.27926 0.0
H915 H 0.5924 0.48839 0.29943 0.0
H916 H 0.60179 0.47941 0.32445 0.0
H917 H 0.56901 0.45982 0.31328 0.0
H918 H 0.55592 0.37134 0.29372 0.0
H919 H 0.57581 0.36778 0.32838 0.0
H920 H 0.61987 0.44947 0.33549 0.0
C921 C 0.57999 0.45778 0.25662 0.0
C922 C 0.56427 0.44326 0.23845 0.0
C923 C 0.55055 0.41653 0.23954 0.0
C924 C 0.55297 0.40449 0.25814 0.0
C925 C 0.56909 0.41942 0.27554 0.0
C926 C 0.58224 0.44548 0.27498 0.0
C927 C 0.5994 0.45724 0.2953 0.0
C928 C 0.62852 0.47402 0.28909 0.0
C929 C 0.59008 0.47209 0.30892 0.0
C930 C 0.5943 0.43374 0.30718 0.0
C931 C 0.57661 0.41209 0.29562 0.0
C932 C 0.5696 0.38816 0.30301 0.0
C933 C 0.58105 0.38633 0.32269 0.0
C934 C 0.59937 0.40833 0.33468 0.0
C935 C 0.60584 0.43227 0.3268 0.0
H936 H 0.47179 0.89681 0.35731 0.0
H937 H 0.41537 0.8388 0.40075 0.0
H938 H 0.39886 0.80806 0.36988 0.0
H939 H 0.42888 0.87802 0.31014 0.0
H940 H 0.45418 0.88485 0.2904 0.0
H941 H 0.46254 0.90214 0.31613 0.0
H942 H 0.49655 0.88913 0.32463 0.0
H943 H 0.48826 0.87176 0.29894 0.0
H944 H 0.48616 0.85614 0.32449 0.0
H945 H 0.38813 0.78383 0.33478 0.0
H946 H 0.38207 0.76767 0.2967 0.0
H947 H 0.44462 0.84137 0.27518 0.0
C948 C 0.4561 0.87758 0.36027 0.0
C949 C 0.44475 0.87012 0.38134 0.0
C950 C 0.42409 0.8449 0.38464 0.0
C951 C 0.41471 0.82729 0.36727 0.0
C952 C 0.42615 0.83522 0.34668 0.0
C953 C 0.44628 0.85975 0.343 0.0
C954 C 0.4543 0.86346 0.31898 0.0
C955 C 0.44969 0.88329 0.30829 0.0
C956 C 0.48303 0.87054 0.31663 0.0
C957 C 0.43542 0.83722 0.30979 0.0
C958 C 0.41957 0.82123 0.32614 0.0
C959 C 0.40043 0.79613 0.3218 0.0
C960 C 0.39718 0.78713 0.30009 0.0
C961 C 0.41286 0.80324 0.28291 0.0
C962 C 0.43235 0.82858 0.28793 0.0
H963 H 0.61361 0.48845 0.52988 0.0
H964 H 0.53979 0.41981 0.54444 0.0
H965 H 0.54295 0.40041 0.50989 0.0
H966 H 0.60376 0.48631 0.47017 0.0
H967 H 0.63783 0.49801 0.46436 0.0
H968 H 0.62899 0.50713 0.4896 0.0
H969 H 0.65401 0.49061 0.51215 0.0
H970 H 0.66286 0.4814 0.48701 0.0
H971 H 0.64576 0.45844 0.50822 0.0
H972 H 0.55543 0.3874 0.47527 0.0
H973 H 0.57568 0.38209 0.44197 0.0
H974 H 0.64137 0.45921 0.44954 0.0
C975 C 0.59805 0.46939 0.52574 0.0
C976 C 0.57636 0.45571 0.53981 0.0
C977 C 0.55635 0.43083 0.53375 0.0
C978 C 0.55804 0.41958 0.51422 0.0
C979 C 0.5798 0.43348 0.50086 0.0
C980 C 0.59938 0.45789 0.50625 0.0
C981 C 0.621 0.46842 0.48927 0.0
C982 C 0.623 0.49132 0.47766 0.0
C983 C 0.64747 0.4751 0.49979 0.0
C984 C 0.61071 0.44595 0.47369 0.0
C985 C 0.5869 0.42603 0.48069 0.0
C986 C 0.57396 0.40293 0.4695 0.0
C987 C 0.58568 0.40009 0.45064 0.0
C988 C 0.61007 0.42026 0.44309 0.0
C989 C 0.6226 0.44352 0.45476 0.0
H990 H 0.14186 0.5348 0.69786 0.0
H991 H 0.14885 0.60234 0.72685 0.0
H992 H 0.17575 0.62719 0.69546 0.0
H993 H 0.20811 0.56465 0.68095 0.0
H994 H 0.20074 0.5461 0.65599 0.0
H995 H 0.17965 0.53312 0.67947 0.0
H996 H 0.13954 0.5244 0.65544 0.0
H997 H 0.16052 0.53731 0.63185 0.0
H998 H 0.14064 0.54992 0.64041 0.0
H999 H 0.20349 0.64509 0.66134 0.0
H1000 H 0.231 0.65461 0.62817 0.0
H1001 H 0.20843 0.57594 0.62357 0.0
C1002 C 0.14901 0.55481 0.69774 0.0
C1003 C 0.14297 0.56646 0.71491 0.0
C1004 C 0.15259 0.59272 0.71375 0.0
C1005 C 0.1681 0.60709 0.69603 0.0
C1006 C 0.17401 0.59502 0.67965 0.0
C1007 C 0.16483 0.56949 0.68042 0.0
C1008 C 0.17521 0.56128 0.66149 0.0
C1009 C 0.19192 0.55067 0.66999 0.0
C1010 C 0.15263 0.54209 0.6464 0.0
C1011 C 0.19195 0.58625 0.65009 0.0
C1012 C 0.19075 0.60546 0.66061 0.0
C1013 C 0.20458 0.6302 0.65297 0.0
C1014 C 0.22012 0.63542 0.63414 0.0
C1015 C 0.22196 0.61605 0.62341 0.0
C1016 C 0.2076 0.59119 0.63153 0.0
H1017 H 0.58318 0.16698 0.88893 0.0
H1018 H 0.49985 0.13884 0.88181 0.0
H1019 H 0.50812 0.16112 0.84635 0.0
H1020 H 0.60542 0.22827 0.86796 0.0
H1021 H 0.6334 0.23102 0.85399 0.0
H1022 H 0.62079 0.21171 0.87813 0.0
H1023 H 0.61527 0.17325 0.8561 0.0
H1024 H 0.62797 0.19248 0.8319 0.0
H1025 H 0.59629 0.16363 0.8308 0.0
H1026 H 0.52547 0.18686 0.81218 0.0
H1027 H 0.55076 0.21539 0.78191 0.0
H1028 H 0.62317 0.22785 0.81169 0.0
C1029 C 0.56666 0.16524 0.87972 0.0
C1030 C 0.54085 0.15111 0.88797 0.0
C1031 C 0.51977 0.14966 0.87575 0.0
C1032 C 0.52427 0.16215 0.85559 0.0
C1033 C 0.54998 0.17611 0.848 0.0
C1034 C 0.57084 0.1778 0.85968 0.0
C1035 C 0.59669 0.19491 0.84829 0.0
C1036 C 0.61515 0.21783 0.86297 0.0
C1037 C 0.60982 0.18018 0.84136 0.0
C1038 C 0.5871 0.20267 0.82841 0.0
C1039 C 0.56007 0.19145 0.8285 0.0
C1040 C 0.54664 0.19574 0.81191 0.0
C1041 C 0.56121 0.21199 0.79478 0.0
C1042 C 0.58897 0.22392 0.79442 0.0
C1043 C 0.602 0.2191 0.8115 0.0
H1044 H 0.3949 0.53851 0.01781 0.0
H1045 H 0.4706 0.60436 0.03565 0.0
H1046 H 0.46949 0.62537 0.00182 0.0
H1047 H 0.40401 0.54244 0.95765 0.0
H1048 H 0.3704 0.53319 0.95201 0.0
H1049 H 0.37842 0.52183 0.97631 0.0
H1050 H 0.3562 0.53978 0.00069 0.0
H1051 H 0.34817 0.55123 0.97652 0.0
H1052 H 0.36674 0.57273 0.9988 0.0
H1053 H 0.4588 0.64097 0.96823 0.0
H1054 H 0.43911 0.65018 0.93662 0.0
H1055 H 0.3696 0.575 0.94064 0.0
C1056 C 0.41137 0.55725 0.01454 0.0
C1057 C 0.43301 0.56956 0.02939 0.0
C1058 C 0.45412 0.59414 0.02436 0.0
C1059 C 0.45361 0.60637 0.00521 0.0
C1060 C 0.43185 0.59387 0.9912 0.0
C1061 C 0.41112 0.56986 0.99554 0.0
C1062 C 0.38931 0.5614 0.97847 0.0
C1063 C 0.38531 0.53835 0.96533 0.0
C1064 C 0.36359 0.55597 0.98927 0.0
C1065 C 0.40082 0.58468 0.96418 0.0
C1066 C 0.42548 0.60305 0.97175 0.0
C1067 C 0.43962 0.62665 0.96198 0.0
C1068 C 0.4282 0.63172 0.94407 0.0
C1069 C 0.40282 0.61329 0.9361 0.0
C1070 C 0.38913 0.58937 0.94619 0.0
H1071 H 0.87167 0.41679 0.20095 0.0
H1072 H 0.84674 0.46728 0.22452 0.0
H1073 H 0.82082 0.45944 0.19032 0.0
H1074 H 0.87626 0.43307 0.14287 0.0
H1075 H 0.86368 0.4011 0.13348 0.0
H1076 H 0.88166 0.41194 0.15921 0.0
H1077 H 0.84247 0.375 0.1795 0.0
H1078 H 0.82436 0.36408 0.15387 0.0
H1079 H 0.81031 0.37096 0.17712 0.0
H1080 H 0.79564 0.44432 0.1547 0.0
H1081 H 0.77362 0.42367 0.11957 0.0
H1082 H 0.81451 0.3826 0.11926 0.0
C1083 C 0.86082 0.42626 0.19891 0.0
C1084 C 0.86137 0.44277 0.2154 0.0
C1085 C 0.84702 0.45491 0.21198 0.0
C1086 C 0.8321 0.45046 0.19267 0.0
C1087 C 0.83176 0.43386 0.1769 0.0
C1088 C 0.84581 0.42203 0.17974 0.0
C1089 C 0.84147 0.40448 0.16052 0.0
C1090 C 0.86731 0.41318 0.1483 0.0
C1091 C 0.8289 0.37701 0.16822 0.0
C1092 C 0.82248 0.40804 0.14658 0.0
C1093 C 0.81721 0.42513 0.1563 0.0
C1094 C 0.79974 0.43103 0.14684 0.0
C1095 C 0.78729 0.41914 0.1269 0.0
C1096 C 0.79237 0.40154 0.11661 0.0
C1097 C 0.8103 0.39606 0.12662 0.0
loop_
_geom_bond_atom_site_label_1
_geom_bond_atom_site_label_2
_geom_bond_distance
_geom_bond_site_symmetry_2
_ccdc_geom_bond_type
H0 C27 0.929 . S
N1 C26 1.433 . S
N1 C32 1.435 . S
N1 C38 1.423 . S
H2 C28 0.930 . S
H3 C31 0.931 . S
H4 C30 0.929 . S
H5 C33 0.930 . S
H6 C34 0.932 . S
H7 C37 0.929 . S
H8 C36 0.931 . S
H9 C39 0.929 . S
H10 C43 0.932 . S
H11 C40 0.931 . S
H12 C42 0.929 . S
H13 C45 0.929 . S
H14 C46 0.930 . S
H15 C48 0.929 . S
H16 C49 0.931 . S
H17 C51 0.930 . S
H18 C52 0.932 . S
H19 C54 0.931 . S
H20 C55 0.929 . S
H21 C57 0.929 . S
H22 C58 0.931 . S
H23 C60 0.929 . S
N24 C44 1.433 . S
N24 C50 1.435 . S
N24 C56 1.423 . S
H25 C61 0.932 . S
C26 N1 1.433 . S
C26 C27 1.363 . S
C26 C31 1.370 . S
C27 H0 0.929 . S
C27 C26 1.363 . S
C27 C28 1.385 . S
C28 H2 0.930 . S
C28 C27 1.385 . S
C28 C29 1.357 . S
C29 C28 1.357 . S
C29 C30 1.406 . S
C30 H4 0.929 . S
C30 C29 1.406 . S
C30 C31 1.391 . S
C31 H3 0.931 . S
C31 C26 1.370 . S
C31 C30 1.391 . S
C32 N1 1.435 . S
C32 C33 1.358 . S
C32 C37 1.371 . S
C33 H5 0.930 . S
C33 C32 1.358 . S
C33 C34 1.405 . S
C34 H6 0.932 . S
C34 C33 1.405 . S
C34 C35 1.383 . S
C35 C34 1.383 . S
C35 C36 1.393 . S
C36 H8 0.931 . S
C36 C35 1.393 . S
C36 C37 1.382 . S
C37 H7 0.929 . S
C37 C32 1.371 . S
C37 C36 1.382 . S
C38 N1 1.423 . S
C38 C39 1.362 . S
C38 C43 1.388 . S
C39 H9 0.929 . S
C39 C38 1.362 . S
C39 C40 1.376 . S
C40 H11 0.931 . S
C40 C39 1.376 . S
C40 C41 1.396 . S
C41 C40 1.396 . S
C41 C42 1.348 . S
C41 C59 1.472 1_455 S
C42 H12 0.929 . S
C42 C41 1.348 . S
C42 C43 1.443 . S
C43 H10 0.932 . S
C43 C38 1.388 . S
C43 C42 1.443 . S
C44 N24 1.433 . S
C44 C45 1.363 . S
C44 C49 1.370 . S
C45 H13 0.929 . S
C45 C44 1.363 . S
C45 C46 1.385 . S
C46 H14 0.930 . S
C46 C45 1.385 . S
C46 C47 1.357 . S
C47 C46 1.357 . S
C47 C48 1.406 . S
C48 H15 0.929 . S
C48 C47 1.406 . S
C48 C49 1.391 . S
C49 H16 0.931 . S
C49 C44 1.370 . S
C49 C48 1.391 . S
C50 N24 1.435 . S
C50 C51 1.358 . S
C50 C55 1.371 . S
C51 H17 0.930 . S
C51 C50 1.358 . S
C51 C52 1.405 . S
C52 H18 0.932 . S
C52 C51 1.405 . S
C52 C53 1.383 . S
C53 C52 1.383 . S
C53 C54 1.393 . S
C54 H19 0.931 . S
C54 C53 1.393 . S
C54 C55 1.382 . S
C55 H20 0.929 . S
C55 C50 1.371 . S
C55 C54 1.382 . S
C56 N24 1.423 . S
C56 C57 1.362 . S
C56 C61 1.388 . S
C57 H21 0.929 . S
C57 C56 1.362 . S
C57 C58 1.376 . S
C58 H22 0.931 . S
C58 C57 1.376 . S
C58 C59 1.396 . S
C59 C41 1.472 1_655 S
C59 C58 1.396 . S
C59 C60 1.348 . S
C60 H23 0.929 . S
C60 C59 1.348 . S
C60 C61 1.443 . S
C61 H25 0.932 . S
C61 C56 1.388 . S
C61 C60 1.443 . S
H62 C89 0.929 . S
N63 C88 1.433 . S
N63 C94 1.435 . S
N63 C100 1.423 . S
H64 C90 0.930 . S
H65 C93 0.931 . S
H66 C92 0.929 . S
H67 C95 0.930 . S
H68 C96 0.932 . S
H69 C99 0.929 . S
H70 C98 0.931 . S
H71 C101 0.929 . S
H72 C105 0.932 . S
H73 C102 0.931 . S
H74 C104 0.929 1_545 S
H75 C107 0.929 . S
H76 C108 0.930 . S
H77 C110 0.929 . S
H78 C111 0.931 . S
H79 C113 0.930 . S
H80 C114 0.932 . S
H81 C116 0.931 . S
H82 C117 0.929 . S
H83 C119 0.929 . S
H84 C120 0.931 . S
H85 C122 0.929 . S
N86 C106 1.433 . S
N86 C112 1.435 . S
N86 C118 1.423 . S
H87 C123 0.932 . S
C88 N63 1.433 . S
C88 C89 1.363 . S
C88 C93 1.370 . S
C89 H62 0.929 . S
C89 C88 1.363 . S
C89 C90 1.385 . S
C90 H64 0.930 . S
C90 C89 1.385 . S
C90 C91 1.357 . S
C91 C90 1.357 . S
C91 C92 1.406 . S
C92 H66 0.929 . S
C92 C91 1.406 . S
C92 C93 1.391 . S
C93 H65 0.931 . S
C93 C88 1.370 . S
C93 C92 1.391 . S
C94 N63 1.435 . S
C94 C95 1.358 . S
C94 C99 1.371 . S
C95 H67 0.930 . S
C95 C94 1.358 . S
C95 C96 1.405 . S
C96 H68 0.932 . S
C96 C95 1.405 . S
C96 C97 1.383 . S
C97 C96 1.383 . S
C97 C98 1.393 . S
C98 H70 0.931 . S
C98 C97 1.393 . S
C98 C99 1.382 . S
C99 H69 0.929 . S
C99 C94 1.371 . S
C99 C98 1.382 . S
C100 N63 1.423 . S
C100 C101 1.362 . S
C100 C105 1.388 . S
C101 H71 0.929 . S
C101 C100 1.362 . S
C101 C102 1.376 . S
C102 H73 0.931 . S
C102 C101 1.376 . S
C102 C103 1.396 1_565 S
C103 C102 1.396 1_545 S
C103 C104 1.348 1_545 S
C103 C121 1.472 . S
C104 H74 0.929 1_565 S
C104 C103 1.348 1_565 S
C104 C105 1.443 . S
C105 H72 0.932 . S
C105 C100 1.388 . S
C105 C104 1.443 . S
C106 N86 1.433 . S
C106 C107 1.363 . S
C106 C111 1.370 . S
C107 H75 0.929 . S
C107 C106 1.363 . S
C107 C108 1.385 . S
C108 H76 0.930 . S
C108 C107 1.385 . S
C108 C109 1.357 . S
C109 C108 1.357 . S
C109 C110 1.406 . S
C110 H77 0.929 . S
C110 C109 1.406 . S
C110 C111 1.391 . S
C111 H78 0.931 . S
C111 C106 1.370 . S
C111 C110 1.391 . S
C112 N86 1.435 . S
C112 C113 1.358 . S
C112 C117 1.371 . S
C113 H79 0.930 . S
C113 C112 1.358 . S
C113 C114 1.405 . S
C114 H80 0.932 . S
C114 C113 1.405 . S
C114 C115 1.383 . S
C115 C114 1.383 . S
C115 C116 1.393 . S
C116 H81 0.931 . S
C116 C115 1.393 . S
C116 C117 1.382 . S
C117 H82 0.929 . S
C117 C112 1.371 . S
C117 C116 1.382 . S
C118 N86 1.423 . S
C118 C119 1.362 . S
C118 C123 1.388 . S
C119 H83 0.929 . S
C119 C118 1.362 . S
C119 C120 1.376 . S
C120 H84 0.931 . S
C120 C119 1.376 . S
C120 C121 1.396 . S
C121 C103 1.472 . S
C121 C120 1.396 . S
C121 C122 1.348 . S
C122 H85 0.929 . S
C122 C121 1.348 . S
C122 C123 1.443 . S
C123 H87 0.932 . S
C123 C118 1.388 . S
C123 C122 1.443 . S
H124 C151 0.929 . S
N125 C150 1.433 . S
N125 C156 1.435 . S
N125 C162 1.423 . S
H126 C152 0.930 . S
H127 C155 0.931 . S
H128 C154 0.929 . S
H129 C157 0.930 . S
H130 C158 0.932 . S
H131 C161 0.929 . S
H132 C160 0.931 . S
H133 C163 0.929 . S
H134 C167 0.932 . S
H135 C164 0.931 . S
H136 C166 0.929 . S
H137 C169 0.929 . S
H138 C170 0.930 . S
H139 C172 0.929 . S
H140 C173 0.931 . S
H141 C175 0.930 . S
H142 C176 0.932 . S
H143 C178 0.931 . S
H144 C179 0.929 . S
H145 C181 0.929 . S
H146 C182 0.931 . S
H147 C184 0.929 . S
N148 C168 1.433 . S
N148 C174 1.435 . S
N148 C180 1.423 . S
H149 C185 0.932 . S
C150 N125 1.433 . S
C150 C151 1.363 . S
C150 C155 1.370 . S
C151 H124 0.929 . S
C151 C150 1.363 . S
C151 C152 1.385 . S
C152 H126 0.930 . S
C152 C151 1.385 . S
C152 C153 1.357 . S
C153 C152 1.357 . S
C153 C154 1.406 . S
C154 H128 0.929 . S
C154 C153 1.406 . S
C154 C155 1.391 . S
C155 H127 0.931 . S
C155 C150 1.370 . S
C155 C154 1.391 . S
C156 N125 1.435 . S
C156 C157 1.358 . S
C156 C161 1.371 . S
C157 H129 0.930 . S
C157 C156 1.358 . S
C157 C158 1.405 . S
C158 H130 0.932 . S
C158 C157 1.405 . S
C158 C159 1.383 . S
C159 C158 1.383 . S
C159 C160 1.393 . S
C160 H132 0.931 . S
C160 C159 1.393 . S
C160 C161 1.382 . S
C161 H131 0.929 . S
C161 C156 1.371 . S
C161 C160 1.382 . S
C162 N125 1.423 . S
C162 C163 1.362 . S
C162 C167 1.388 . S
C163 H133 0.929 . S
C163 C162 1.362 . S
C163 C164 1.376 . S
C164 H135 0.931 . S
C164 C163 1.376 . S
C164 C165 1.396 . S
C165 C164 1.396 . S
C165 C166 1.348 . S
C165 C183 1.472 . S
C166 H136 0.929 . S
C166 C165 1.348 . S
C166 C167 1.443 . S
C167 H134 0.932 . S
C167 C162 1.388 . S
C167 C166 1.443 . S
C168 N148 1.433 . S
C168 C169 1.363 . S
C168 C173 1.370 . S
C169 H137 0.929 . S
C169 C168 1.363 . S
C169 C170 1.385 . S
C170 H138 0.930 . S
C170 C169 1.385 . S
C170 C171 1.357 . S
C171 C170 1.357 . S
C171 C172 1.406 . S
C172 H139 0.929 . S
C172 C171 1.406 . S
C172 C173 1.391 . S
C173 H140 0.931 . S
C173 C168 1.370 . S
C173 C172 1.391 . S
C174 N148 1.435 . S
C174 C175 1.358 . S
C174 C179 1.371 . S
C175 H141 0.930 . S
C175 C174 1.358 . S
C175 C176 1.405 . S
C176 H142 0.932 . S
C176 C175 1.405 . S
C176 C177 1.383 . S
C177 C176 1.383 . S
C177 C178 1.393 . S
C178 H143 0.931 . S
C178 C177 1.393 . S
C178 C179 1.382 . S
C179 H144 0.929 . S
C179 C174 1.371 . S
C179 C178 1.382 . S
C180 N148 1.423 . S
C180 C181 1.362 . S
C180 C185 1.388 . S
C181 H145 0.929 . S
C181 C180 1.362 . S
C181 C182 1.376 . S
C182 H146 0.931 . S
C182 C181 1.376 . S
C182 C183 1.396 . S
C183 C165 1.472 . S
C183 C182 1.396 . S
C183 C184 1.348 . S
C184 H147 0.929 . S
C184 C183 1.348 . S
C184 C185 1.443 . S
C185 H149 0.932 . S
C185 C180 1.388 . S
C185 C184 1.443 . S
H186 C213 0.929 . S
N187 C212 1.433 . S
N187 C218 1.435 . S
N187 C224 1.423 . S
H188 C214 0.930 . S
H189 C217 0.931 . S
H190 C216 0.929 . S
H191 C219 0.930 . S
H192 C220 0.932 . S
H193 C223 0.929 . S
H194 C222 0.931 . S
H195 C225 0.929 . S
H196 C229 0.932 . S
H197 C226 0.931 . S
H198 C228 0.929 . S
H199 C231 0.929 . S
H200 C232 0.930 . S
H201 C234 0.929 . S
H202 C235 0.931 . S
H203 C237 0.930 . S
H204 C238 0.932 . S
H205 C240 0.931 . S
H206 C241 0.929 . S
H207 C243 0.929 . S
H208 C244 0.931 . S
H209 C246 0.929 . S
N210 C230 1.433 . S
N210 C236 1.435 . S
N210 C242 1.423 . S
H211 C247 0.932 . S
C212 N187 1.433 . S
C212 C213 1.363 . S
C212 C217 1.370 . S
C213 H186 0.929 . S
C213 C212 1.363 . S
C213 C214 1.385 . S
C214 H188 0.930 . S
C214 C213 1.385 . S
C214 C215 1.357 . S
C215 C214 1.357 . S
C215 C216 1.406 . S
C216 H190 0.929 . S
C216 C215 1.406 . S
C216 C217 1.391 . S
C217 H189 0.931 . S
C217 C212 1.370 . S
C217 C216 1.391 . S
C218 N187 1.435 . S
C218 C219 1.358 . S
C218 C223 1.371 . S
C219 H191 0.930 . S
C219 C218 1.358 . S
C219 C220 1.405 . S
C220 H192 0.932 . S
C220 C219 1.405 . S
C220 C221 1.383 . S
C221 C220 1.383 . S
C221 C222 1.393 . S
C222 H194 0.931 . S
C222 C221 1.393 . S
C222 C223 1.382 . S
C223 H193 0.929 . S
C223 C218 1.371 . S
C223 C222 1.382 . S
C224 N187 1.423 . S
C224 C225 1.362 . S
C224 C229 1.388 . S
C225 H195 0.929 . S
C225 C224 1.362 . S
C225 C226 1.376 . S
C226 H197 0.931 . S
C226 C225 1.376 . S
C226 C227 1.396 . S
C227 C226 1.396 . S
C227 C228 1.348 . S
C227 C245 1.472 1_455 S
C228 H198 0.929 . S
C228 C227 1.348 . S
C228 C229 1.443 . S
C229 H196 0.932 . S
C229 C224 1.388 . S
C229 C228 1.443 . S
C230 N210 1.433 . S
C230 C231 1.363 . S
C230 C235 1.370 . S
C231 H199 0.929 . S
C231 C230 1.363 . S
C231 C232 1.385 . S
C232 H200 0.930 . S
C232 C231 1.385 . S
C232 C233 1.357 . S
C233 C232 1.357 . S
C233 C234 1.406 . S
C234 H201 0.929 . S
C234 C233 1.406 . S
C234 C235 1.391 . S
C235 H202 0.931 . S
C235 C230 1.370 . S
C235 C234 1.391 . S
C236 N210 1.435 . S
C236 C237 1.358 . S
C236 C241 1.371 . S
C237 H203 0.930 . S
C237 C236 1.358 . S
C237 C238 1.405 . S
C238 H204 0.932 . S
C238 C237 1.405 . S
C238 C239 1.383 . S
C239 C238 1.383 . S
C239 C240 1.393 . S
C240 H205 0.931 . S
C240 C239 1.393 . S
C240 C241 1.382 . S
C241 H206 0.929 . S
C241 C236 1.371 . S
C241 C240 1.382 . S
C242 N210 1.423 . S
C242 C243 1.362 . S
C242 C247 1.388 . S
C243 H207 0.929 . S
C243 C242 1.362 . S
C243 C244 1.376 . S
C244 H208 0.931 . S
C244 C243 1.376 . S
C244 C245 1.396 . S
C245 C227 1.472 1_655 S
C245 C244 1.396 . S
C245 C246 1.348 . S
C246 H209 0.929 . S
C246 C245 1.348 . S
C246 C247 1.443 . S
C247 H211 0.932 . S
C247 C242 1.388 . S
C247 C246 1.443 . S
H248 C275 0.929 . S
N249 C274 1.433 . S
N249 C280 1.435 . S
N249 C286 1.423 . S
H250 C276 0.930 . S
H251 C279 0.931 . S
H252 C278 0.929 . S
H253 C281 0.930 . S
H254 C282 0.932 . S
H255 C285 0.929 . S
H256 C284 0.931 . S
H257 C287 0.929 . S
H258 C291 0.932 . S
H259 C288 0.931 . S
H260 C290 0.929 . S
H261 C293 0.929 . S
H262 C294 0.930 . S
H263 C296 0.929 . S
H264 C297 0.931 . S
H265 C299 0.930 1_554 S
H266 C300 0.932 . S
H267 C302 0.931 . S
H268 C303 0.929 . S
H269 C305 0.929 . S
H270 C306 0.931 1_554 S
H271 C308 0.929 . S
N272 C292 1.433 . S
N272 C298 1.435 1_554 S
N272 C304 1.423 1_554 S
H273 C309 0.932 . S
C274 N249 1.433 . S
C274 C275 1.363 . S
C274 C279 1.370 . S
C275 H248 0.929 . S
C275 C274 1.363 . S
C275 C276 1.385 . S
C276 H250 0.930 . S
C276 C275 1.385 . S
C276 C277 1.357 1_556 S
C277 C276 1.357 1_554 S
C277 C278 1.406 . S
C278 H252 0.929 . S
C278 C277 1.406 . S
C278 C279 1.391 1_554 S
C279 H251 0.931 . S
C279 C274 1.370 . S
C279 C278 1.391 1_556 S
C280 N249 1.435 . S
C280 C281 1.358 . S
C280 C285 1.371 . S
C281 H253 0.930 . S
C281 C280 1.358 . S
C281 C282 1.405 . S
C282 H254 0.932 . S
C282 C281 1.405 . S
C282 C283 1.383 . S
C283 C282 1.383 . S
C283 C284 1.393 . S
C284 H256 0.931 . S
C284 C283 1.393 . S
C284 C285 1.382 . S
C285 H255 0.929 . S
C285 C280 1.371 . S
C285 C284 1.382 . S
C286 N249 1.423 . S
C286 C287 1.362 . S
C286 C291 1.388 . S
C287 H257 0.929 . S
C287 C286 1.362 . S
C287 C288 1.376 . S
C288 H259 0.931 . S
C288 C287 1.376 . S
C288 C289 1.396 . S
C289 C288 1.396 . S
C289 C290 1.348 . S
C289 C307 1.472 1_545 S
C290 H260 0.929 . S
C290 C289 1.348 . S
C290 C291 1.443 . S
C291 H258 0.932 . S
C291 C286 1.388 . S
C291 C290 1.443 . S
C292 N272 1.433 . S
C292 C293 1.363 . S
C292 C297 1.370 . S
C293 H261 0.929 . S
C293 C292 1.363 . S
C293 C294 1.385 . S
C294 H262 0.930 . S
C294 C293 1.385 . S
C294 C295 1.357 . S
C295 C294 1.357 . S
C295 C296 1.406 . S
C296 H263 0.929 . S
C296 C295 1.406 . S
C296 C297 1.391 . S
C297 H264 0.931 . S
C297 C292 1.370 . S
C297 C296 1.391 . S
C298 N272 1.435 1_556 S
C298 C299 1.358 . S
C298 C303 1.371 . S
C299 H265 0.930 1_556 S
C299 C298 1.358 . S
C299 C300 1.405 . S
C300 H266 0.932 . S
C300 C299 1.405 . S
C300 C301 1.383 . S
C301 C300 1.383 . S
C301 C302 1.393 . S
C302 H267 0.931 . S
C302 C301 1.393 . S
C302 C303 1.382 . S
C303 H268 0.929 . S
C303 C298 1.371 . S
C303 C302 1.382 . S
C304 N272 1.423 1_556 S
C304 C305 1.362 1_556 S
C304 C309 1.388 . S
C305 H269 0.929 . S
C305 C304 1.362 1_554 S
C305 C306 1.376 1_554 S
C306 H270 0.931 1_556 S
C306 C305 1.376 1_556 S
C306 C307 1.396 . S
C307 C289 1.472 1_565 S
C307 C306 1.396 . S
C307 C308 1.348 . S
C308 H271 0.929 . S
C308 C307 1.348 . S
C308 C309 1.443 . S
C309 H273 0.932 . S
C309 C304 1.388 . S
C309 C308 1.443 . S
H310 C337 0.929 . S
N311 C336 1.433 . S
N311 C342 1.435 . S
N311 C348 1.423 . S
H312 C338 0.930 . S
H313 C341 0.931 . S
H314 C340 0.929 . S
H315 C343 0.930 . S
H316 C344 0.932 . S
H317 C347 0.929 . S
H318 C346 0.931 . S
H319 C349 0.929 . S
H320 C353 0.932 . S
H321 C350 0.931 . S
H322 C352 0.929 . S
H323 C355 0.929 . S
H324 C356 0.930 . S
H325 C358 0.929 . S
H326 C359 0.931 . S
H327 C361 0.930 . S
H328 C362 0.932 . S
H329 C364 0.931 . S
H330 C365 0.929 . S
H331 C367 0.929 . S
H332 C368 0.931 . S
H333 C370 0.929 . S
N334 C354 1.433 . S
N334 C360 1.435 . S
N334 C366 1.423 . S
H335 C371 0.932 . S
C336 N311 1.433 . S
C336 C337 1.363 . S
C336 C341 1.370 . S
C337 H310 0.929 . S
C337 C336 1.363 . S
C337 C338 1.385 . S
C338 H312 0.930 . S
C338 C337 1.385 . S
C338 C339 1.357 . S
C339 C338 1.357 . S
C339 C340 1.406 . S
C340 H314 0.929 . S
C340 C339 1.406 . S
C340 C341 1.391 . S
C341 H313 0.931 . S
C341 C336 1.370 . S
C341 C340 1.391 . S
C342 N311 1.435 . S
C342 C343 1.358 . S
C342 C347 1.371 . S
C343 H315 0.930 . S
C343 C342 1.358 . S
C343 C344 1.405 . S
C344 H316 0.932 . S
C344 C343 1.405 . S
C344 C345 1.383 . S
C345 C344 1.383 . S
C345 C346 1.393 . S
C346 H318 0.931 . S
C346 C345 1.393 . S
C346 C347 1.382 . S
C347 H317 0.929 . S
C347 C342 1.371 . S
C347 C346 1.382 . S
C348 N311 1.423 . S
C348 C349 1.362 . S
C348 C353 1.388 . S
C349 H319 0.929 . S
C349 C348 1.362 . S
C349 C350 1.376 . S
C350 H321 0.931 . S
C350 C349 1.376 . S
C350 C351 1.396 . S
C351 C350 1.396 . S
C351 C352 1.348 . S
C351 C369 1.472 . S
C352 H322 0.929 . S
C352 C351 1.348 . S
C352 C353 1.443 . S
C353 H320 0.932 . S
C353 C348 1.388 . S
C353 C352 1.443 . S
C354 N334 1.433 . S
C354 C355 1.363 . S
C354 C359 1.370 . S
C355 H323 0.929 . S
C355 C354 1.363 . S
C355 C356 1.385 . S
C356 H324 0.930 . S
C356 C355 1.385 . S
C356 C357 1.357 . S
C357 C356 1.357 . S
C357 C358 1.406 . S
C358 H325 0.929 . S
C358 C357 1.406 . S
C358 C359 1.391 . S
C359 H326 0.931 . S
C359 C354 1.370 . S
C359 C358 1.391 . S
C360 N334 1.435 . S
C360 C361 1.358 . S
C360 C365 1.371 . S
C361 H327 0.930 . S
C361 C360 1.358 . S
C361 C362 1.405 . S
C362 H328 0.932 . S
C362 C361 1.405 . S
C362 C363 1.383 . S
C363 C362 1.383 . S
C363 C364 1.393 . S
C364 H329 0.931 . S
C364 C363 1.393 . S
C364 C365 1.382 . S
C365 H330 0.929 . S
C365 C360 1.371 . S
C365 C364 1.382 . S
C366 N334 1.423 . S
C366 C367 1.362 . S
C366 C371 1.388 . S
C367 H331 0.929 . S
C367 C366 1.362 . S
C367 C368 1.376 . S
C368 H332 0.931 . S
C368 C367 1.376 . S
C368 C369 1.396 . S
C369 C351 1.472 . S
C369 C368 1.396 . S
C369 C370 1.348 . S
C370 H333 0.929 . S
C370 C369 1.348 . S
C370 C371 1.443 . S
C371 H335 0.932 . S
C371 C366 1.388 . S
C371 C370 1.443 . S
C372 O373 1.160 . S
C372 O379 1.185 . S
O373 C372 1.160 . S
O374 Zn375 1.899 . S
O374 C382 1.284 . S
Zn375 O374 1.899 . S
Zn375 O376 2.032 . S
Zn375 O379 2.086 . S
Zn375 O384 1.977 . S
O376 Zn375 2.032 . S
O376 C380 1.278 . S
C377 O378 1.203 . S
C377 O384 1.267 . S
O378 C377 1.203 . S
O379 C372 1.185 . S
O379 Zn375 2.086 . S
C380 O376 1.278 . S
C380 O381 1.211 . S
O381 C380 1.211 . S
C382 O374 1.284 . S
C382 O383 1.273 . S
O383 C382 1.273 . S
O384 Zn375 1.977 . S
O384 C377 1.267 . S
C385 O386 1.160 . S
C385 O392 1.185 . S
O386 C385 1.160 . S
O387 Zn388 1.899 . S
O387 C395 1.284 . S
Zn388 O387 1.899 . S
Zn388 O389 2.032 . S
Zn388 O392 2.086 . S
Zn388 O397 1.977 . S
O389 Zn388 2.032 . S
O389 C393 1.278 . S
C390 O391 1.203 . S
C390 O397 1.267 . S
O391 C390 1.203 . S
O392 C385 1.185 . S
O392 Zn388 2.086 . S
C393 O389 1.278 . S
C393 O394 1.211 . S
O394 C393 1.211 . S
C395 O387 1.284 . S
C395 O396 1.273 . S
O396 C395 1.273 . S
O397 Zn388 1.977 . S
O397 C390 1.267 . S
C398 O399 1.160 . S
C398 O405 1.185 . S
O399 C398 1.160 . S
O400 Zn401 1.899 . S
O400 C408 1.284 . S
Zn401 O400 1.899 . S
Zn401 O402 2.032 . S
Zn401 O405 2.086 . S
Zn401 O410 1.977 . S
O402 Zn401 2.032 . S
O402 C406 1.278 . S
C403 O404 1.203 . S
C403 O410 1.267 . S
O404 C403 1.203 . S
O405 C398 1.185 . S
O405 Zn401 2.086 . S
C406 O402 1.278 . S
C406 O407 1.211 . S
O407 C406 1.211 . S
C408 O400 1.284 . S
C408 O409 1.273 . S
O409 C408 1.273 . S
O410 Zn401 1.977 . S
O410 C403 1.267 . S
C411 O412 1.160 . S
C411 O418 1.185 . S
O412 C411 1.160 . S
O413 Zn414 1.899 . S
O413 C421 1.284 . S
Zn414 O413 1.899 . S
Zn414 O415 2.032 . S
Zn414 O418 2.086 . S
Zn414 O423 1.977 . S
O415 Zn414 2.032 . S
O415 C419 1.278 . S
C416 O417 1.203 . S
C416 O423 1.267 . S
O417 C416 1.203 . S
O418 C411 1.185 . S
O418 Zn414 2.086 . S
C419 O415 1.278 . S
C419 O420 1.211 . S
O420 C419 1.211 . S
C421 O413 1.284 . S
C421 O422 1.273 . S
O422 C421 1.273 . S
O423 Zn414 1.977 . S
O423 C416 1.267 . S
C424 O425 1.160 . S
C424 O431 1.185 . S
O425 C424 1.160 . S
O426 Zn427 1.899 . S
O426 C434 1.284 . S
Zn427 O426 1.899 . S
Zn427 O428 2.032 . S
Zn427 O431 2.086 . S
Zn427 O436 1.977 . S
O428 Zn427 2.032 . S
O428 C432 1.278 . S
C429 O430 1.203 . S
C429 O436 1.267 . S
O430 C429 1.203 . S
O431 C424 1.185 . S
O431 Zn427 2.086 . S
C432 O428 1.278 . S
C432 O433 1.211 . S
O433 C432 1.211 . S
C434 O426 1.284 . S
C434 O435 1.273 . S
O435 C434 1.273 . S
O436 Zn427 1.977 . S
O436 C429 1.267 . S
C437 O438 1.160 . S
C437 O444 1.185 . S
O438 C437 1.160 . S
O439 Zn440 1.899 . S
O439 C447 1.284 . S
Zn440 O439 1.899 . S
Zn440 O441 2.032 . S
Zn440 O444 2.086 . S
Zn440 O449 1.977 . S
O441 Zn440 2.032 . S
O441 C445 1.278 . S
C442 O443 1.203 . S
C442 O449 1.267 . S
O443 C442 1.203 . S
O444 C437 1.185 . S
O444 Zn440 2.086 . S
C445 O441 1.278 . S
C445 O446 1.211 . S
O446 C445 1.211 . S
C447 O439 1.284 . S
C447 O448 1.273 . S
O448 C447 1.273 . S
O449 Zn440 1.977 . S
O449 C442 1.267 . S
H450 C462 0.930 . S
H451 C464 0.930 . S
H452 C465 0.930 . S
H453 C469 0.959 . S
H454 C469 0.959 . S
H455 C469 0.961 . S
H456 C470 0.960 . S
H457 C470 0.961 . S
H458 C470 0.959 . S
H459 C473 0.929 . S
H460 C474 0.931 . S
H461 C476 0.930 . S
C462 H450 0.930 . S
C462 C463 1.399 . S
C462 C467 1.399 . S
C463 C462 1.399 . S
C463 C464 1.376 . S
C464 H451 0.930 . S
C464 C463 1.376 . S
C464 C465 1.388 . S
C465 H452 0.930 . S
C465 C464 1.388 . S
C465 C466 1.390 . S
C466 C465 1.390 . S
C466 C467 1.394 . S
C466 C472 1.465 . S
C467 C462 1.399 . S
C467 C466 1.394 . S
C467 C468 1.516 . S
C468 C467 1.516 . S
C468 C469 1.502 . S
C468 C470 1.561 . S
C468 C471 1.526 . S
C469 H453 0.959 . S
C469 H454 0.959 . S
C469 H455 0.961 . S
C469 C468 1.502 . S
C470 H456 0.960 . S
C470 H457 0.961 . S
C470 H458 0.959 . S
C470 C468 1.561 . S
C471 C468 1.526 . S
C471 C472 1.396 . S
C471 C476 1.390 . S
C472 C466 1.465 . S
C472 C471 1.396 . S
C472 C473 1.399 . S
C473 H459 0.929 . S
C473 C472 1.399 . S
C473 C474 1.385 . S
C474 H460 0.931 . S
C474 C473 1.385 . S
C474 C475 1.389 . S
C475 C474 1.389 . S
C475 C476 1.387 . S
C476 H461 0.930 . S
C476 C471 1.390 . S
C476 C475 1.387 . S
H477 C489 0.930 . S
H478 C491 0.930 . S
H479 C492 0.930 . S
H480 C496 0.959 . S
H481 C496 0.959 . S
H482 C496 0.961 . S
H483 C497 0.960 . S
H484 C497 0.961 . S
H485 C497 0.959 . S
H486 C500 0.929 . S
H487 C501 0.931 . S
H488 C503 0.930 . S
C489 H477 0.930 . S
C489 C490 1.399 . S
C489 C494 1.399 . S
C490 C489 1.399 . S
C490 C491 1.376 . S
C491 H478 0.930 . S
C491 C490 1.376 . S
C491 C492 1.388 . S
C492 H479 0.930 . S
C492 C491 1.388 . S
C492 C493 1.390 . S
C493 C492 1.390 . S
C493 C494 1.394 . S
C493 C499 1.465 . S
C494 C489 1.399 . S
C494 C493 1.394 . S
C494 C495 1.516 . S
C495 C494 1.516 . S
C495 C496 1.502 . S
C495 C497 1.561 . S
C495 C498 1.526 . S
C496 H480 0.959 . S
C496 H481 0.959 . S
C496 H482 0.961 . S
C496 C495 1.502 . S
C497 H483 0.960 . S
C497 H484 0.961 . S
C497 H485 0.959 . S
C497 C495 1.561 . S
C498 C495 1.526 . S
C498 C499 1.396 . S
C498 C503 1.390 . S
C499 C493 1.465 . S
C499 C498 1.396 . S
C499 C500 1.399 . S
C500 H486 0.929 . S
C500 C499 1.399 . S
C500 C501 1.385 . S
C501 H487 0.931 . S
C501 C500 1.385 . S
C501 C502 1.389 . S
C502 C501 1.389 . S
C502 C503 1.387 . S
C503 H488 0.930 . S
C503 C498 1.390 . S
C503 C502 1.387 . S
H504 C516 0.930 . S
H505 C518 0.930 . S
H506 C519 0.930 . S
H507 C523 0.959 . S
H508 C523 0.959 . S
H509 C523 0.961 . S
H510 C524 0.960 . S
H511 C524 0.961 . S
H512 C524 0.959 . S
H513 C527 0.929 . S
H514 C528 0.931 . S
H515 C530 0.930 . S
C516 H504 0.930 . S
C516 C517 1.399 . S
C516 C521 1.399 . S
C517 C516 1.399 . S
C517 C518 1.376 . S
C518 H505 0.930 . S
C518 C517 1.376 . S
C518 C519 1.388 . S
C519 H506 0.930 . S
C519 C518 1.388 . S
C519 C520 1.390 . S
C520 C519 1.390 . S
C520 C521 1.394 . S
C520 C526 1.465 . S
C521 C516 1.399 . S
C521 C520 1.394 . S
C521 C522 1.516 . S
C522 C521 1.516 . S
C522 C523 1.502 . S
C522 C524 1.561 . S
C522 C525 1.526 . S
C523 H507 0.959 . S
C523 H508 0.959 . S
C523 H509 0.961 . S
C523 C522 1.502 . S
C524 H510 0.960 . S
C524 H511 0.961 . S
C524 H512 0.959 . S
C524 C522 1.561 . S
C525 C522 1.526 . S
C525 C526 1.396 . S
C525 C530 1.390 . S
C526 C520 1.465 . S
C526 C525 1.396 . S
C526 C527 1.399 . S
C527 H513 0.929 . S
C527 C526 1.399 . S
C527 C528 1.385 . S
C528 H514 0.931 . S
C528 C527 1.385 . S
C528 C529 1.389 . S
C529 C528 1.389 . S
C529 C530 1.387 . S
C530 H515 0.930 . S
C530 C525 1.390 . S
C530 C529 1.387 . S
H531 C543 0.930 . S
H532 C545 0.930 . S
H533 C546 0.930 . S
H534 C550 0.959 . S
H535 C550 0.959 . S
H536 C550 0.961 . S
H537 C551 0.960 . S
H538 C551 0.961 . S
H539 C551 0.959 . S
H540 C554 0.929 . S
H541 C555 0.931 . S
H542 C557 0.930 . S
C543 H531 0.930 . S
C543 C544 1.399 . S
C543 C548 1.399 . S
C544 C543 1.399 . S
C544 C545 1.376 . S
C545 H532 0.930 . S
C545 C544 1.376 . S
C545 C546 1.388 . S
C546 H533 0.930 . S
C546 C545 1.388 . S
C546 C547 1.390 . S
C547 C546 1.390 . S
C547 C548 1.394 . S
C547 C553 1.465 . S
C548 C543 1.399 . S
C548 C547 1.394 . S
C548 C549 1.516 . S
C549 C548 1.516 . S
C549 C550 1.502 . S
C549 C551 1.561 . S
C549 C552 1.526 . S
C550 H534 0.959 . S
C550 H535 0.959 . S
C550 H536 0.961 . S
C550 C549 1.502 . S
C551 H537 0.960 . S
C551 H538 0.961 . S
C551 H539 0.959 . S
C551 C549 1.561 . S
C552 C549 1.526 . S
C552 C553 1.396 . S
C552 C557 1.390 . S
C553 C547 1.465 . S
C553 C552 1.396 . S
C553 C554 1.399 . S
C554 H540 0.929 . S
C554 C553 1.399 . S
C554 C555 1.385 . S
C555 H541 0.931 . S
C555 C554 1.385 . S
C555 C556 1.389 . S
C556 C555 1.389 . S
C556 C557 1.387 . S
C557 H542 0.930 . S
C557 C552 1.390 . S
C557 C556 1.387 . S
H558 C570 0.930 . S
H559 C572 0.930 . S
H560 C573 0.930 . S
H561 C577 0.959 . S
H562 C577 0.959 . S
H563 C577 0.961 . S
H564 C578 0.960 . S
H565 C578 0.961 . S
H566 C578 0.959 . S
H567 C581 0.929 . S
H568 C582 0.931 . S
H569 C584 0.930 . S
C570 H558 0.930 . S
C570 C571 1.399 . S
C570 C575 1.399 . S
C571 C570 1.399 . S
C571 C572 1.376 . S
C572 H559 0.930 . S
C572 C571 1.376 . S
C572 C573 1.388 . S
C573 H560 0.930 . S
C573 C572 1.388 . S
C573 C574 1.390 . S
C574 C573 1.390 . S
C574 C575 1.394 . S
C574 C580 1.465 . S
C575 C570 1.399 . S
C575 C574 1.394 . S
C575 C576 1.516 . S
C576 C575 1.516 . S
C576 C577 1.502 . S
C576 C578 1.561 . S
C576 C579 1.526 . S
C577 H561 0.959 . S
C577 H562 0.959 . S
C577 H563 0.961 . S
C577 C576 1.502 . S
C578 H564 0.960 . S
C578 H565 0.961 . S
C578 H566 0.959 . S
C578 C576 1.561 . S
C579 C576 1.526 . S
C579 C580 1.396 . S
C579 C584 1.390 . S
C580 C574 1.465 . S
C580 C579 1.396 . S
C580 C581 1.399 . S
C581 H567 0.929 . S
C581 C580 1.399 . S
C581 C582 1.385 . S
C582 H568 0.931 . S
C582 C581 1.385 . S
C582 C583 1.389 . S
C583 C582 1.389 . S
C583 C584 1.387 . S
C584 H569 0.930 . S
C584 C579 1.390 . S
C584 C583 1.387 . S
H585 C597 0.930 . S
H586 C599 0.930 . S
H587 C600 0.930 . S
H588 C604 0.959 . S
H589 C604 0.959 . S
H590 C604 0.961 . S
H591 C605 0.960 . S
H592 C605 0.961 . S
H593 C605 0.959 . S
H594 C608 0.929 . S
H595 C609 0.931 . S
H596 C611 0.930 . S
C597 H585 0.930 . S
C597 C598 1.399 . S
C597 C602 1.399 . S
C598 C597 1.399 . S
C598 C599 1.376 . S
C599 H586 0.930 . S
C599 C598 1.376 . S
C599 C600 1.388 . S
C600 H587 0.930 . S
C600 C599 1.388 . S
C600 C601 1.390 . S
C601 C600 1.390 . S
C601 C602 1.394 . S
C601 C607 1.465 . S
C602 C597 1.399 . S
C602 C601 1.394 . S
C602 C603 1.516 . S
C603 C602 1.516 . S
C603 C604 1.502 . S
C603 C605 1.561 . S
C603 C606 1.526 . S
C604 H588 0.959 . S
C604 H589 0.959 . S
C604 H590 0.961 . S
C604 C603 1.502 . S
C605 H591 0.960 . S
C605 H592 0.961 . S
C605 H593 0.959 . S
C605 C603 1.561 . S
C606 C603 1.526 . S
C606 C607 1.396 . S
C606 C611 1.390 . S
C607 C601 1.465 . S
C607 C606 1.396 . S
C607 C608 1.399 . S
C608 H594 0.929 . S
C608 C607 1.399 . S
C608 C609 1.385 . S
C609 H595 0.931 . S
C609 C608 1.385 . S
C609 C610 1.389 . S
C610 C609 1.389 . S
C610 C611 1.387 . S
C611 H596 0.930 . S
C611 C606 1.390 . S
C611 C610 1.387 . S
H612 C624 0.930 . S
H613 C626 0.930 . S
H614 C627 0.930 . S
H615 C631 0.959 . S
H616 C631 0.959 . S
H617 C631 0.961 . S
H618 C632 0.960 . S
H619 C632 0.961 . S
H620 C632 0.959 . S
H621 C635 0.929 . S
H622 C636 0.931 . S
H623 C638 0.930 . S
C624 H612 0.930 . S
C624 C625 1.399 . S
C624 C629 1.399 . S
C625 C624 1.399 . S
C625 C626 1.376 . S
C626 H613 0.930 . S
C626 C625 1.376 . S
C626 C627 1.388 . S
C627 H614 0.930 . S
C627 C626 1.388 . S
C627 C628 1.390 . S
C628 C627 1.390 . S
C628 C629 1.394 . S
C628 C634 1.465 . S
C629 C624 1.399 . S
C629 C628 1.394 . S
C629 C630 1.516 . S
C630 C629 1.516 . S
C630 C631 1.502 . S
C630 C632 1.561 . S
C630 C633 1.526 . S
C631 H615 0.959 . S
C631 H616 0.959 . S
C631 H617 0.961 . S
C631 C630 1.502 . S
C632 H618 0.960 . S
C632 H619 0.961 . S
C632 H620 0.959 . S
C632 C630 1.561 . S
C633 C630 1.526 . S
C633 C634 1.396 . S
C633 C638 1.390 . S
C634 C628 1.465 . S
C634 C633 1.396 . S
C634 C635 1.399 . S
C635 H621 0.929 . S
C635 C634 1.399 . S
C635 C636 1.385 . S
C636 H622 0.931 . S
C636 C635 1.385 . S
C636 C637 1.389 . S
C637 C636 1.389 . S
C637 C638 1.387 . S
C638 H623 0.930 . S
C638 C633 1.390 . S
C638 C637 1.387 . S
H639 C651 0.930 . S
H640 C653 0.930 . S
H641 C654 0.930 . S
H642 C658 0.959 . S
H643 C658 0.959 . S
H644 C658 0.961 . S
H645 C659 0.960 . S
H646 C659 0.961 . S
H647 C659 0.959 . S
H648 C662 0.929 . S
H649 C663 0.931 . S
H650 C665 0.930 . S
C651 H639 0.930 . S
C651 C652 1.399 . S
C651 C656 1.399 . S
C652 C651 1.399 . S
C652 C653 1.376 . S
C653 H640 0.930 . S
C653 C652 1.376 . S
C653 C654 1.388 . S
C654 H641 0.930 . S
C654 C653 1.388 . S
C654 C655 1.390 . S
C655 C654 1.390 . S
C655 C656 1.394 . S
C655 C661 1.465 . S
C656 C651 1.399 . S
C656 C655 1.394 . S
C656 C657 1.516 . S
C657 C656 1.516 . S
C657 C658 1.502 . S
C657 C659 1.561 . S
C657 C660 1.526 . S
C658 H642 0.959 . S
C658 H643 0.959 . S
C658 H644 0.961 . S
C658 C657 1.502 . S
C659 H645 0.960 . S
C659 H646 0.961 . S
C659 H647 0.959 . S
C659 C657 1.561 . S
C660 C657 1.526 . S
C660 C661 1.396 . S
C660 C665 1.390 . S
C661 C655 1.465 . S
C661 C660 1.396 . S
C661 C662 1.399 . S
C662 H648 0.929 . S
C662 C661 1.399 . S
C662 C663 1.385 . S
C663 H649 0.931 . S
C663 C662 1.385 . S
C663 C664 1.389 . S
C664 C663 1.389 . S
C664 C665 1.387 . S
C665 H650 0.930 . S
C665 C660 1.390 . S
C665 C664 1.387 . S
H666 C678 0.930 . S
H667 C680 0.930 . S
H668 C681 0.930 . S
H669 C685 0.959 . S
H670 C685 0.959 . S
H671 C685 0.961 . S
H672 C686 0.960 . S
H673 C686 0.961 . S
H674 C686 0.959 . S
H675 C689 0.929 . S
H676 C690 0.931 . S
H677 C692 0.930 . S
C678 H666 0.930 . S
C678 C679 1.399 . S
C678 C683 1.399 . S
C679 C678 1.399 . S
C679 C680 1.376 . S
C680 H667 0.930 . S
C680 C679 1.376 . S
C680 C681 1.388 . S
C681 H668 0.930 . S
C681 C680 1.388 . S
C681 C682 1.390 . S
C682 C681 1.390 . S
C682 C683 1.394 . S
C682 C688 1.465 . S
C683 C678 1.399 . S
C683 C682 1.394 . S
C683 C684 1.516 . S
C684 C683 1.516 . S
C684 C685 1.502 . S
C684 C686 1.561 . S
C684 C687 1.526 . S
C685 H669 0.959 . S
C685 H670 0.959 . S
C685 H671 0.961 . S
C685 C684 1.502 . S
C686 H672 0.960 . S
C686 H673 0.961 . S
C686 H674 0.959 . S
C686 C684 1.561 . S
C687 C684 1.526 . S
C687 C688 1.396 . S
C687 C692 1.390 . S
C688 C682 1.465 . S
C688 C687 1.396 . S
C688 C689 1.399 . S
C689 H675 0.929 . S
C689 C688 1.399 . S
C689 C690 1.385 . S
C690 H676 0.931 . S
C690 C689 1.385 . S
C690 C691 1.389 . S
C691 C690 1.389 . S
C691 C692 1.387 . S
C692 H677 0.930 . S
C692 C687 1.390 . S
C692 C691 1.387 . S
H693 C705 0.930 . S
H694 C707 0.930 . S
H695 C708 0.930 . S
H696 C712 0.959 . S
H697 C712 0.981 . S
H698 C712 0.961 1_556 S
H699 C713 0.960 . S
H700 C713 0.961 . S
H701 C713 0.959 . S
H702 C716 0.929 . S
H703 C717 0.931 . S
H704 C719 0.930 . S
C705 H693 0.930 . S
C705 C706 1.399 . S
C705 C710 1.399 . S
C706 C705 1.399 . S
C706 C707 1.376 . S
C707 H694 0.930 . S
C707 C706 1.376 . S
C707 C708 1.388 . S
C708 H695 0.930 . S
C708 C707 1.388 . S
C708 C709 1.390 . S
C709 C708 1.390 . S
C709 C710 1.394 . S
C709 C715 1.465 . S
C710 C705 1.399 . S
C710 C709 1.394 . S
C710 C711 1.516 . S
C711 C710 1.516 . S
C711 C712 1.502 . S
C711 C713 1.561 1_554 S
C711 C714 1.526 . S
C712 H696 0.959 . S
C712 H697 0.981 . S
C712 H698 0.961 1_554 S
C712 C711 1.502 . S
C713 H699 0.960 . S
C713 H700 0.961 . S
C713 H701 0.959 . S
C713 C711 1.561 1_556 S
C714 C711 1.526 . S
C714 C715 1.396 . S
C714 C719 1.390 . S
C715 C709 1.465 . S
C715 C714 1.396 . S
C715 C716 1.399 . S
C716 H702 0.929 . S
C716 C715 1.399 . S
C716 C717 1.385 . S
C717 H703 0.931 . S
C717 C716 1.385 . S
C717 C718 1.389 . S
C718 C717 1.389 . S
C718 C719 1.387 . S
C719 H704 0.930 . S
C719 C714 1.390 . S
C719 C718 1.387 . S
H720 C732 0.930 . S
H721 C734 0.930 . S
H722 C735 0.930 . S
H723 C739 0.959 . S
H724 C739 0.959 . S
H725 C739 0.961 . S
H726 C740 0.960 . S
H727 C740 0.961 . S
H728 C740 0.959 . S
H729 C743 0.929 . S
H730 C744 0.931 . S
H731 C746 0.930 . S
C732 H720 0.930 . S
C732 C733 1.399 . S
C732 C737 1.399 . S
C733 C732 1.399 . S
C733 C734 1.376 . S
C734 H721 0.930 . S
C734 C733 1.376 . S
C734 C735 1.388 . S
C735 H722 0.930 . S
C735 C734 1.388 . S
C735 C736 1.390 . S
C736 C735 1.390 . S
C736 C737 1.394 . S
C736 C742 1.465 . S
C737 C732 1.399 . S
C737 C736 1.394 . S
C737 C738 1.516 . S
C738 C737 1.516 . S
C738 C739 1.502 . S
C738 C740 1.561 . S
C738 C741 1.526 . S
C739 H723 0.959 . S
C739 H724 0.959 . S
C739 H725 0.961 . S
C739 C738 1.502 . S
C740 H726 0.960 . S
C740 H727 0.961 . S
C740 H728 0.959 . S
C740 C738 1.561 . S
C741 C738 1.526 . S
C741 C742 1.396 . S
C741 C746 1.390 . S
C742 C736 1.465 . S
C742 C741 1.396 . S
C742 C743 1.399 . S
C743 H729 0.929 . S
C743 C742 1.399 . S
C743 C744 1.385 . S
C744 H730 0.931 . S
C744 C743 1.385 . S
C744 C745 1.389 . S
C745 C744 1.389 . S
C745 C746 1.387 . S
C746 H731 0.930 . S
C746 C741 1.390 . S
C746 C745 1.387 . S
H747 C759 0.930 . S
H748 C761 0.930 . S
H749 C762 0.930 . S
H750 C766 0.959 . S
H751 C766 0.959 . S
H752 C766 0.961 . S
H753 C767 0.960 . S
H754 C767 0.961 . S
H755 C767 0.959 . S
H756 C770 0.929 . S
H757 C771 0.931 . S
H758 C773 0.930 . S
C759 H747 0.930 . S
C759 C760 1.399 . S
C759 C764 1.399 . S
C760 C759 1.399 . S
C760 C761 1.376 . S
C761 H748 0.930 . S
C761 C760 1.376 . S
C761 C762 1.388 . S
C762 H749 0.930 . S
C762 C761 1.388 . S
C762 C763 1.390 . S
C763 C762 1.390 . S
C763 C764 1.394 . S
C763 C769 1.465 . S
C764 C759 1.399 . S
C764 C763 1.394 . S
C764 C765 1.516 . S
C765 C764 1.516 . S
C765 C766 1.502 . S
C765 C767 1.561 . S
C765 C768 1.526 . S
C766 H750 0.959 . S
C766 H751 0.959 . S
C766 H752 0.961 . S
C766 C765 1.502 . S
C767 H753 0.960 . S
C767 H754 0.961 . S
C767 H755 0.959 . S
C767 C765 1.561 . S
C768 C765 1.526 . S
C768 C769 1.396 . S
C768 C773 1.390 . S
C769 C763 1.465 . S
C769 C768 1.396 . S
C769 C770 1.399 . S
C770 H756 0.929 . S
C770 C769 1.399 . S
C770 C771 1.385 . S
C771 H757 0.931 . S
C771 C770 1.385 . S
C771 C772 1.389 . S
C772 C771 1.389 . S
C772 C773 1.387 . S
C773 H758 0.930 . S
C773 C768 1.390 . S
C773 C772 1.387 . S
H774 C786 0.930 . S
H775 C788 0.930 . S
H776 C789 0.930 . S
H777 C793 0.959 . S
H778 C793 0.959 . S
H779 C793 0.961 . S
H780 C794 0.960 . S
H781 C794 0.961 . S
H782 C794 0.959 . S
H783 C797 0.929 . S
H784 C798 0.931 . S
H785 C800 0.930 . S
C786 H774 0.930 . S
C786 C787 1.399 . S
C786 C791 1.399 . S
C787 C786 1.399 . S
C787 C788 1.376 . S
C788 H775 0.930 . S
C788 C787 1.376 . S
C788 C789 1.388 . S
C789 H776 0.930 . S
C789 C788 1.388 . S
C789 C790 1.390 . S
C790 C789 1.390 . S
C790 C791 1.394 . S
C790 C796 1.465 . S
C791 C786 1.399 . S
C791 C790 1.394 . S
C791 C792 1.516 . S
C792 C791 1.516 . S
C792 C793 1.502 . S
C792 C794 1.561 . S
C792 C795 1.526 . S
C793 H777 0.959 . S
C793 H778 0.959 . S
C793 H779 0.961 . S
C793 C792 1.502 . S
C794 H780 0.960 . S
C794 H781 0.961 . S
C794 H782 0.959 . S
C794 C792 1.561 . S
C795 C792 1.526 . S
C795 C796 1.396 . S
C795 C800 1.390 . S
C796 C790 1.465 . S
C796 C795 1.396 . S
C796 C797 1.399 . S
C797 H783 0.929 . S
C797 C796 1.399 . S
C797 C798 1.385 . S
C798 H784 0.931 . S
C798 C797 1.385 . S
C798 C799 1.389 . S
C799 C798 1.389 . S
C799 C800 1.387 . S
C800 H785 0.930 . S
C800 C795 1.390 . S
C800 C799 1.387 . S
H801 C813 0.930 . S
H802 C815 0.930 . S
H803 C816 0.930 . S
H804 C820 0.959 . S
H805 C820 0.959 . S
H806 C820 0.961 . S
H807 C821 0.960 . S
H808 C821 0.961 . S
H809 C821 0.959 . S
H810 C824 0.929 . S
H811 C825 0.931 . S
H812 C827 0.930 . S
C813 H801 0.930 . S
C813 C814 1.399 . S
C813 C818 1.399 . S
C814 C813 1.399 . S
C814 C815 1.376 . S
C815 H802 0.930 . S
C815 C814 1.376 . S
C815 C816 1.388 . S
C816 H803 0.930 . S
C816 C815 1.388 . S
C816 C817 1.390 . S
C817 C816 1.390 . S
C817 C818 1.394 . S
C817 C823 1.465 . S
C818 C813 1.399 . S
C818 C817 1.394 . S
C818 C819 1.516 . S
C819 C818 1.516 . S
C819 C820 1.502 . S
C819 C821 1.561 . S
C819 C822 1.526 . S
C820 H804 0.959 . S
C820 H805 0.959 . S
C820 H806 0.961 . S
C820 C819 1.502 . S
C821 H807 0.960 . S
C821 H808 0.961 . S
C821 H809 0.959 . S
C821 C819 1.561 . S
C822 C819 1.526 . S
C822 C823 1.396 . S
C822 C827 1.390 . S
C823 C817 1.465 . S
C823 C822 1.396 . S
C823 C824 1.399 . S
C824 H810 0.929 . S
C824 C823 1.399 . S
C824 C825 1.385 . S
C825 H811 0.931 . S
C825 C824 1.385 . S
C825 C826 1.389 . S
C826 C825 1.389 . S
C826 C827 1.387 . S
C827 H812 0.930 . S
C827 C822 1.390 . S
C827 C826 1.387 . S
H828 C840 0.930 . S
H829 C842 0.930 . S
H830 C843 0.930 . S
H831 C847 0.959 . S
H832 C847 0.959 . S
H833 C847 0.961 . S
H834 C848 0.960 . S
H835 C848 0.961 . S
H836 C848 0.959 . S
H837 C851 0.929 . S
H838 C852 0.931 . S
H839 C854 0.930 . S
C840 H828 0.930 . S
C840 C841 1.399 . S
C840 C845 1.399 . S
C841 C840 1.399 . S
C841 C842 1.376 . S
C842 H829 0.930 . S
C842 C841 1.376 . S
C842 C843 1.388 . S
C843 H830 0.930 . S
C843 C842 1.388 . S
C843 C844 1.390 . S
C844 C843 1.390 . S
C844 C845 1.394 . S
C844 C850 1.465 . S
C845 C840 1.399 . S
C845 C844 1.394 . S
C845 C846 1.516 . S
C846 C845 1.516 . S
C846 C847 1.502 . S
C846 C848 1.561 . S
C846 C849 1.526 . S
C847 H831 0.959 . S
C847 H832 0.959 . S
C847 H833 0.961 . S
C847 C846 1.502 . S
C848 H834 0.960 . S
C848 H835 0.961 . S
C848 H836 0.959 . S
C848 C846 1.561 . S
C849 C846 1.526 . S
C849 C850 1.396 . S
C849 C854 1.390 . S
C850 C844 1.465 . S
C850 C849 1.396 . S
C850 C851 1.399 . S
C851 H837 0.929 . S
C851 C850 1.399 . S
C851 C852 1.385 . S
C852 H838 0.931 . S
C852 C851 1.385 . S
C852 C853 1.389 . S
C853 C852 1.389 . S
C853 C854 1.387 . S
C854 H839 0.930 . S
C854 C849 1.390 . S
C854 C853 1.387 . S
H855 C867 0.930 . S
H856 C869 0.930 . S
H857 C870 0.930 . S
H858 C874 0.959 . S
H859 C874 0.959 1_554 S
H860 C874 0.961 . S
H861 C875 0.960 . S
H862 C875 0.961 . S
H863 C875 0.959 . S
H864 C878 0.929 . S
H865 C879 0.931 . S
H866 C881 0.898 1_554 S
C867 H855 0.930 . S
C867 C868 1.399 . S
C867 C872 1.399 . S
C868 C867 1.399 . S
C868 C869 1.376 . S
C869 H856 0.930 . S
C869 C868 1.376 . S
C869 C870 1.388 . S
C870 H857 0.930 . S
C870 C869 1.388 . S
C870 C871 1.390 . S
C871 C870 1.390 . S
C871 C872 1.394 . S
C871 C877 1.465 . S
C872 C867 1.399 . S
C872 C871 1.394 . S
C872 C873 1.516 . S
C873 C872 1.516 . S
C873 C874 1.502 . S
C873 C875 1.561 . S
C873 C876 1.526 . S
C874 H858 0.959 . S
C874 H859 0.959 1_556 S
C874 H860 0.961 . S
C874 C873 1.502 . S
C875 H861 0.960 . S
C875 H862 0.961 . S
C875 H863 0.959 . S
C875 C873 1.561 . S
C876 C873 1.526 . S
C876 C877 1.396 . S
C876 C881 1.433 . S
C877 C871 1.465 . S
C877 C876 1.396 . S
C877 C878 1.399 . S
C878 H864 0.929 . S
C878 C877 1.399 . S
C878 C879 1.385 . S
C879 H865 0.931 . S
C879 C878 1.385 . S
C879 C880 1.389 1_556 S
C880 C879 1.389 1_554 S
C880 C881 1.378 1_554 S
C881 H866 0.898 1_556 S
C881 C876 1.433 . S
C881 C880 1.378 1_556 S
H882 C894 0.930 . S
H883 C896 0.930 . S
H884 C897 0.930 . S
H885 C901 0.959 . S
H886 C901 0.959 . S
H887 C901 0.961 . S
H888 C902 0.960 . S
H889 C902 0.961 . S
H890 C902 0.959 . S
H891 C905 0.929 . S
H892 C906 0.931 . S
H893 C908 0.930 . S
C894 H882 0.930 . S
C894 C895 1.399 . S
C894 C899 1.399 . S
C895 C894 1.399 . S
C895 C896 1.376 . S
C896 H883 0.930 . S
C896 C895 1.376 . S
C896 C897 1.388 . S
C897 H884 0.930 . S
C897 C896 1.388 . S
C897 C898 1.390 . S
C898 C897 1.390 . S
C898 C899 1.394 . S
C898 C904 1.465 . S
C899 C894 1.399 . S
C899 C898 1.394 . S
C899 C900 1.516 . S
C900 C899 1.516 . S
C900 C901 1.502 . S
C900 C902 1.561 . S
C900 C903 1.526 . S
C901 H885 0.959 . S
C901 H886 0.959 . S
C901 H887 0.961 . S
C901 C900 1.502 . S
C902 H888 0.960 . S
C902 H889 0.961 . S
C902 H890 0.959 . S
C902 C900 1.561 . S
C903 C900 1.526 . S
C903 C904 1.396 . S
C903 C908 1.390 . S
C904 C898 1.465 . S
C904 C903 1.396 . S
C904 C905 1.399 . S
C905 H891 0.929 . S
C905 C904 1.399 . S
C905 C906 1.385 . S
C906 H892 0.931 . S
C906 C905 1.385 . S
C906 C907 1.389 . S
C907 C906 1.389 . S
C907 C908 1.387 . S
C908 H893 0.930 . S
C908 C903 1.390 . S
C908 C907 1.387 . S
H909 C921 0.930 . S
H910 C923 0.930 . S
H911 C924 0.930 . S
H912 C928 0.959 . S
H913 C928 0.959 . S
H914 C928 0.961 . S
H915 C929 0.960 . S
H916 C929 0.961 . S
H917 C929 0.959 . S
H918 C932 0.929 . S
H919 C933 0.931 . S
H920 C935 0.930 . S
C921 H909 0.930 . S
C921 C922 1.399 . S
C921 C926 1.399 . S
C922 C921 1.399 . S
C922 C923 1.376 . S
C923 H910 0.930 . S
C923 C922 1.376 . S
C923 C924 1.388 . S
C924 H911 0.930 . S
C924 C923 1.388 . S
C924 C925 1.390 . S
C925 C924 1.390 . S
C925 C926 1.394 . S
C925 C931 1.465 . S
C926 C921 1.399 . S
C926 C925 1.394 . S
C926 C927 1.516 . S
C927 C926 1.516 . S
C927 C928 1.502 . S
C927 C929 1.561 . S
C927 C930 1.526 . S
C928 H912 0.959 . S
C928 H913 0.959 . S
C928 H914 0.961 . S
C928 C927 1.502 . S
C929 H915 0.960 . S
C929 H916 0.961 . S
C929 H917 0.959 . S
C929 C927 1.561 . S
C930 C927 1.526 . S
C930 C931 1.396 . S
C930 C935 1.390 . S
C931 C925 1.465 . S
C931 C930 1.396 . S
C931 C932 1.399 . S
C932 H918 0.929 . S
C932 C931 1.399 . S
C932 C933 1.385 . S
C933 H919 0.931 . S
C933 C932 1.385 . S
C933 C934 1.389 . S
C934 C933 1.389 . S
C934 C935 1.387 . S
C935 H920 0.930 . S
C935 C930 1.390 . S
C935 C934 1.387 . S
H936 C948 0.930 . S
H937 C950 0.930 . S
H938 C951 0.930 . S
H939 C955 0.959 . S
H940 C955 0.959 . S
H941 C955 0.961 . S
H942 C956 0.960 . S
H943 C956 0.961 . S
H944 C956 0.959 . S
H945 C959 0.929 . S
H946 C960 0.931 . S
H947 C962 0.930 . S
C948 H936 0.930 . S
C948 C949 1.399 . S
C948 C953 1.399 . S
C949 C948 1.399 . S
C949 C950 1.376 . S
C950 H937 0.930 . S
C950 C949 1.376 . S
C950 C951 1.388 . S
C951 H938 0.930 . S
C951 C950 1.388 . S
C951 C952 1.390 . S
C952 C951 1.390 . S
C952 C953 1.394 . S
C952 C958 1.465 . S
C953 C948 1.399 . S
C953 C952 1.394 . S
C953 C954 1.516 . S
C954 C953 1.516 . S
C954 C955 1.502 . S
C954 C956 1.561 . S
C954 C957 1.526 . S
C955 H939 0.959 . S
C955 H940 0.959 . S
C955 H941 0.961 . S
C955 C954 1.502 . S
C956 H942 0.960 . S
C956 H943 0.961 . S
C956 H944 0.959 . S
C956 C954 1.561 . S
C957 C954 1.526 . S
C957 C958 1.396 . S
C957 C962 1.390 . S
C958 C952 1.465 . S
C958 C957 1.396 . S
C958 C959 1.399 . S
C959 H945 0.929 . S
C959 C958 1.399 . S
C959 C960 1.385 . S
C960 H946 0.931 . S
C960 C959 1.385 . S
C960 C961 1.389 . S
C961 C960 1.389 . S
C961 C962 1.387 . S
C962 H947 0.930 . S
C962 C957 1.390 . S
C962 C961 1.387 . S
H963 C975 0.930 . S
H964 C977 0.930 . S
H965 C978 0.930 . S
H966 C982 0.959 . S
H967 C982 0.959 . S
H968 C982 0.961 . S
H969 C983 0.960 . S
H970 C983 0.961 . S
H971 C983 0.959 . S
H972 C986 0.929 . S
H973 C987 0.931 . S
H974 C989 0.930 . S
C975 H963 0.930 . S
C975 C976 1.399 . S
C975 C980 1.399 . S
C976 C975 1.399 . S
C976 C977 1.376 . S
C977 H964 0.930 . S
C977 C976 1.376 . S
C977 C978 1.388 . S
C978 H965 0.930 . S
C978 C977 1.388 . S
C978 C979 1.390 . S
C979 C978 1.390 . S
C979 C980 1.394 . S
C979 C985 1.465 . S
C980 C975 1.399 . S
C980 C979 1.394 . S
C980 C981 1.516 . S
C981 C980 1.516 . S
C981 C982 1.502 . S
C981 C983 1.561 . S
C981 C984 1.526 . S
C982 H966 0.959 . S
C982 H967 0.959 . S
C982 H968 0.961 . S
C982 C981 1.502 . S
C983 H969 0.960 . S
C983 H970 0.961 . S
C983 H971 0.959 . S
C983 C981 1.561 . S
C984 C981 1.526 . S
C984 C985 1.396 . S
C984 C989 1.390 . S
C985 C979 1.465 . S
C985 C984 1.396 . S
C985 C986 1.399 . S
C986 H972 0.929 . S
C986 C985 1.399 . S
C986 C987 1.385 . S
C987 H973 0.931 . S
C987 C986 1.385 . S
C987 C988 1.389 . S
C988 C987 1.389 . S
C988 C989 1.387 . S
C989 H974 0.930 . S
C989 C984 1.390 . S
C989 C988 1.387 . S
H990 C1002 0.930 . S
H991 C1004 0.930 . S
H992 C1005 0.930 . S
H993 C1009 0.959 . S
H994 C1009 0.959 . S
H995 C1009 0.961 . S
H996 C1010 0.960 . S
H997 C1010 0.961 . S
H998 C1010 0.959 . S
H999 C1013 0.929 . S
H1000 C1014 0.931 . S
H1001 C1016 0.930 . S
C1002 H990 0.930 . S
C1002 C1003 1.399 . S
C1002 C1007 1.399 . S
C1003 C1002 1.399 . S
C1003 C1004 1.376 . S
C1004 H991 0.930 . S
C1004 C1003 1.376 . S
C1004 C1005 1.388 . S
C1005 H992 0.930 . S
C1005 C1004 1.388 . S
C1005 C1006 1.390 . S
C1006 C1005 1.390 . S
C1006 C1007 1.394 . S
C1006 C1012 1.465 . S
C1007 C1002 1.399 . S
C1007 C1006 1.394 . S
C1007 C1008 1.516 . S
C1008 C1007 1.516 . S
C1008 C1009 1.502 . S
C1008 C1010 1.561 . S
C1008 C1011 1.526 . S
C1009 H993 0.959 . S
C1009 H994 0.959 . S
C1009 H995 0.961 . S
C1009 C1008 1.502 . S
C1010 H996 0.960 . S
C1010 H997 0.961 . S
C1010 H998 0.959 . S
C1010 C1008 1.561 . S
C1011 C1008 1.526 . S
C1011 C1012 1.396 . S
C1011 C1016 1.390 . S
C1012 C1006 1.465 . S
C1012 C1011 1.396 . S
C1012 C1013 1.399 . S
C1013 H999 0.929 . S
C1013 C1012 1.399 . S
C1013 C1014 1.385 . S
C1014 H1000 0.931 . S
C1014 C1013 1.385 . S
C1014 C1015 1.389 . S
C1015 C1014 1.389 . S
C1015 C1016 1.387 . S
C1016 H1001 0.930 . S
C1016 C1011 1.390 . S
C1016 C1015 1.387 . S
H1017 C1029 0.930 . S
H1018 C1031 0.930 . S
H1019 C1032 0.930 . S
H1020 C1036 0.959 . S
H1021 C1036 0.959 . S
H1022 C1036 0.961 . S
H1023 C1037 0.960 . S
H1024 C1037 0.961 . S
H1025 C1037 0.959 . S
H1026 C1040 0.929 . S
H1027 C1041 0.931 . S
H1028 C1043 0.930 . S
C1029 H1017 0.930 . S
C1029 C1030 1.399 . S
C1029 C1034 1.399 . S
C1030 C1029 1.399 . S
C1030 C1031 1.376 . S
C1031 H1018 0.930 . S
C1031 C1030 1.376 . S
C1031 C1032 1.388 . S
C1032 H1019 0.930 . S
C1032 C1031 1.388 . S
C1032 C1033 1.390 . S
C1033 C1032 1.390 . S
C1033 C1034 1.394 . S
C1033 C1039 1.465 . S
C1034 C1029 1.399 . S
C1034 C1033 1.394 . S
C1034 C1035 1.516 . S
C1035 C1034 1.516 . S
C1035 C1036 1.502 . S
C1035 C1037 1.561 . S
C1035 C1038 1.526 . S
C1036 H1020 0.959 . S
C1036 H1021 0.959 . S
C1036 H1022 0.961 . S
C1036 C1035 1.502 . S
C1037 H1023 0.960 . S
C1037 H1024 0.961 . S
C1037 H1025 0.959 . S
C1037 C1035 1.561 . S
C1038 C1035 1.526 . S
C1038 C1039 1.396 . S
C1038 C1043 1.390 . S
C1039 C1033 1.465 . S
C1039 C1038 1.396 . S
C1039 C1040 1.399 . S
C1040 H1026 0.929 . S
C1040 C1039 1.399 . S
C1040 C1041 1.385 . S
C1041 H1027 0.931 . S
C1041 C1040 1.385 . S
C1041 C1042 1.389 . S
C1042 C1041 1.389 . S
C1042 C1043 1.387 . S
C1043 H1028 0.930 . S
C1043 C1038 1.390 . S
C1043 C1042 1.387 . S
H1044 C1056 0.930 . S
H1045 C1058 0.930 . S
H1046 C1059 0.930 . S
H1047 C1063 0.959 . S
H1048 C1063 0.959 . S
H1049 C1063 0.961 . S
H1050 C1064 0.960 . S
H1051 C1064 0.961 . S
H1052 C1064 0.981 . S
H1053 C1067 0.929 . S
H1054 C1068 0.931 . S
H1055 C1070 0.930 . S
C1056 H1044 0.930 . S
C1056 C1057 1.399 . S
C1056 C1061 1.388 1_554 S
C1057 C1056 1.399 . S
C1057 C1058 1.376 . S
C1058 H1045 0.930 . S
C1058 C1057 1.376 . S
C1058 C1059 1.388 . S
C1059 H1046 0.930 . S
C1059 C1058 1.388 . S
C1059 C1060 1.390 . S
C1060 C1059 1.390 . S
C1060 C1061 1.389 1_554 S
C1060 C1066 1.465 1_554 S
C1061 C1056 1.388 1_556 S
C1061 C1060 1.389 1_556 S
C1061 C1062 1.532 . S
C1062 C1061 1.532 . S
C1062 C1063 1.502 . S
C1062 C1064 1.561 . S
C1062 C1065 1.526 . S
C1063 H1047 0.959 . S
C1063 H1048 0.959 . S
C1063 H1049 0.961 . S
C1063 C1062 1.502 . S
C1064 H1050 0.960 . S
C1064 H1051 0.961 . S
C1064 H1052 0.981 . S
C1064 C1062 1.561 . S
C1065 C1062 1.526 . S
C1065 C1066 1.396 . S
C1065 C1070 1.390 . S
C1066 C1060 1.465 1_556 S
C1066 C1065 1.396 . S
C1066 C1067 1.399 . S
C1067 H1053 0.929 . S
C1067 C1066 1.399 . S
C1067 C1068 1.385 . S
C1068 H1054 0.931 . S
C1068 C1067 1.385 . S
C1068 C1069 1.389 . S
C1069 C1068 1.389 . S
C1069 C1070 1.387 . S
C1070 H1055 0.930 . S
C1070 C1065 1.390 . S
C1070 C1069 1.387 . S
H1071 C1083 0.930 . S
H1072 C1085 0.930 . S
H1073 C1086 0.930 . S
H1074 C1090 0.959 . S
H1075 C1090 0.959 . S
H1076 C1090 0.961 . S
H1077 C1091 0.960 . S
H1078 C1091 0.961 . S
H1079 C1091 0.959 . S
H1080 C1094 0.929 . S
H1081 C1095 0.931 . S
H1082 C1097 0.930 . S
C1083 H1071 0.930 . S
C1083 C1084 1.399 . S
C1083 C1088 1.399 . S
C1084 C1083 1.399 . S
C1084 C1085 1.376 . S
C1085 H1072 0.930 . S
C1085 C1084 1.376 . S
C1085 C1086 1.388 . S
C1086 H1073 0.930 . S
C1086 C1085 1.388 . S
C1086 C1087 1.390 . S
C1087 C1086 1.390 . S
C1087 C1088 1.394 . S
C1087 C1093 1.465 . S
C1088 C1083 1.399 . S
C1088 C1087 1.394 . S
C1088 C1089 1.516 . S
C1089 C1088 1.516 . S
C1089 C1090 1.502 . S
C1089 C1091 1.561 . S
C1089 C1092 1.526 . S
C1090 H1074 0.959 . S
C1090 H1075 0.959 . S
C1090 H1076 0.961 . S
C1090 C1089 1.502 . S
C1091 H1077 0.960 . S
C1091 H1078 0.961 . S
C1091 H1079 0.959 . S
C1091 C1089 1.561 . S
C1092 C1089 1.526 . S
C1092 C1093 1.396 . S
C1092 C1097 1.390 . S
C1093 C1087 1.465 . S
C1093 C1092 1.396 . S
C1093 C1094 1.399 . S
C1094 H1080 0.929 . S
C1094 C1093 1.399 . S
C1094 C1095 1.385 . S
C1095 H1081 0.931 . S
C1095 C1094 1.385 . S
C1095 C1096 1.389 . S
C1096 C1095 1.389 . S
C1096 C1097 1.387 . S
C1097 H1082 0.930 . S
C1097 C1092 1.390 . S
C1097 C1096 1.387 . S
C475 C447 1.648 . S
C463 C29 1.548 . S
C490 C115 1.544 . S
C502 C372 1.425 . S
C517 C153 1.607 . S
C529 C395 1.661 . S
C544 C239 1.382 . S
C556 C408 1.418 . S
C583 C411 1.555 . S
C571 C301 1.568 . S
C598 C339 1.672 . S
C610 C424 1.743 . S
C625 C91 1.511 . S
C637 C385 1.501 . S
C652 C177 1.588 . S
C664 C398 1.499 . S
C679 C215 1.465 . S
C691 C421 1.500 . S
C718 C434 1.928 . S
C706 C277 1.843 . S
C745 C437 1.489 . S
C733 C363 1.585 . S
C772 C382 1.559 . S
C760 C53 1.549 . S
C787 C35 1.551 . S
C799 C393 1.490 . S
C814 C109 1.390 . S
C826 C406 1.397 . S
C853 C416 1.445 . S
C841 C159 1.421 . S
C868 C233 1.532 . S
C880 C429 1.637 . S
C907 C445 1.502 . S
C895 C295 1.398 . S
C934 C377 1.340 . S
C922 C345 1.311 . S
C961 C442 1.397 . S
C949 C97 1.369 . S
C976 C171 1.340 . S
C988 C380 1.499 . S
C1015 C390 1.540 . S
C1003 C221 1.508 . S
C1030 C283 1.388 . S
C1042 C403 1.350 . S
C1057 C357 1.329 . S
C1069 C419 1.473 . S
C1084 C47 1.596 . S
C1096 C432 1.644 . S
