# Generated by pormake.
# Topology rtl, (3,6)-cn, num edge types: 1
# Building blocks:
#     Node 0, Type 0, BuildingBlock: QEWDON_clean_linker_0, # of connection points: 3
#     Node 1, Type 0, BuildingBlock: QEWDON_clean_linker_0, # of connection points: 3
#     Node 2, Type 0, BuildingBlock: QEWDON_clean_linker_0, # of connection points: 3
#     Node 3, Type 0, BuildingBlock: QEWDON_clean_linker_0, # of connection points: 3
#     Node 4, Type 1, BuildingBlock: VOLQOD_clean_sbu_1, # of connection points: 6
#     Node 5, Type 1, BuildingBlock: VOLQOD_clean_sbu_1, # of connection points: 6
#     Edge 6, Type (0, 1), BuildingBlock: XUDNAN_clean_linker_2, # of connection points: 2
#     Edge 7, Type (0, 1), BuildingBlock: XUDNAN_clean_linker_2, # of connection points: 2
#     Edge 8, Type (0, 1), BuildingBlock: XUDNAN_clean_linker_2, # of connection points: 2
#     Edge 9, Type (0, 1), BuildingBlock: XUDNAN_clean_linker_2, # of connection points: 2
#     Edge 10, Type (0, 1), BuildingBlock: XUDNAN_clean_linker_2, # of connection points: 2
#     Edge 11, Type (0, 1), BuildingBlock: XUDNAN_clean_linker_2, # of connection points: 2
#     Edge 12, Type (0, 1), BuildingBlock: XUDNAN_clean_linker_2, # of connection points: 2
#     Edge 13, Type (0, 1), BuildingBlock: XUDNAN_clean_linker_2, # of connection points: 2
#     Edge 14, Type (0, 1), BuildingBlock: XUDNAN_clean_linker_2, # of connection points: 2
#     Edge 15, Type (0, 1), BuildingBlock: XUDNAN_clean_linker_2, # of connection points: 2
#     Edge 16, Type (0, 1), BuildingBlock: XUDNAN_clean_linker_2, # of connection points: 2
#     Edge 17, Type (0, 1), BuildingBlock: XUDNAN_clean_linker_2, # of connection points: 2
# Relax obj value: 0.048
# Max RMSD: 0.148
# Mean RMSD: 0.136
data_MOF--net-rtl--node1-VOLQOD_clean_sbu_1--node2-QEWDON_clean_linker_0--edge1-XUDNAN_clean_linker_2
_symmetry_space_group_name_H-M    P1
_symmetry_Int_Tables_number       1
_symmetry_cell_setting            triclinic
loop_
_symmetry_equiv_pos_as_xyz
'x, y, z'
_cell_length_a     39.655422
_cell_length_b     40.120229
_cell_length_c     21.573952
_cell_angle_alpha  91.417154
_cell_angle_beta   92.073857
_cell_angle_gamma 89.855462
loop_
_atom_site_label
_atom_site_type_symbol
_atom_site_fract_x
_atom_site_fract_y
_atom_site_fract_z
_atom_type_partial_charge
H0 H 0.25194 0.85083 0.0808 0.0
C1 C 0.23865 0.85685 0.0377 0.0
C2 C 0.20729 0.8733 0.03888 0.0
C3 C 0.25355 0.84949 0.98078 0.0
H4 H 0.16574 0.89261 0.98338 0.0
C5 C 0.19057 0.88123 0.98274 0.0
C6 C 0.20483 0.87357 0.92574 0.0
C7 C 0.23643 0.85781 0.92505 0.0
C8 C 0.28773 0.8347 0.97865 0.0
H9 H 0.24784 0.85215 0.88108 0.0
C10 C 0.29518 0.80371 0.00538 0.0
C11 C 0.32703 0.78879 -0.00219 0.0
C12 C 0.31274 0.85112 0.94654 0.0
H13 H 0.30757 0.87504 0.9259 0.0
C14 C 0.34456 0.83686 0.94059 0.0
H15 H 0.27584 0.79062 0.02935 0.0
C16 C 0.35164 0.80582 0.96561 0.0
H17 H 0.37645 0.79504 0.9598 0.0
H18 H 0.36369 0.84973 0.91586 0.0
H19 H 0.7158 0.70186 0.50441 0.0
C20 C 0.69878 0.69868 0.54196 0.0
C21 C 0.66677 0.68435 0.52954 0.0
C22 C 0.70969 0.70704 0.60317 0.0
H23 H 0.62097 0.66806 0.57013 0.0
C24 C 0.64536 0.67959 0.579 0.0
C25 C 0.65586 0.68732 0.6404 0.0
C26 C 0.68782 0.70163 0.65186 0.0
C27 C 0.74504 0.71804 0.61737 0.0
H28 H 0.6964 0.70723 0.69918 0.0
C29 C 0.76127 0.7409 0.57975 0.0
C30 C 0.79496 0.75015 0.59343 0.0
C31 C 0.76319 0.70473 0.66843 0.0
H32 H 0.75189 0.68646 0.69738 0.0
C33 C 0.7965 0.71418 0.68206 0.0
H34 H 0.7479 0.75145 0.54015 0.0
C35 C 0.81236 0.73674 0.64476 0.0
H36 H 0.83835 0.74362 0.65567 0.0
H37 H 0.81016 0.70371 0.72135 0.0
H38 H 0.78801 0.19237 0.0652 0.0
C39 C 0.80145 0.18654 0.02343 0.0
C40 C 0.83113 0.16713 0.02652 0.0
C41 C 0.78752 0.19612 0.96589 0.0
H42 H 0.86826 0.14122 0.97282 0.0
C43 C 0.84698 0.1582 0.9712 0.0
C44 C 0.83342 0.16785 0.91336 0.0
C45 C 0.80417 0.18766 0.91151 0.0
C46 C 0.75236 0.20832 0.96052 0.0
H47 H 0.79294 0.19486 0.86726 0.0
C48 C 0.74278 0.23989 0.98382 0.0
C49 C 0.70903 0.25081 0.97603 0.0
C50 C 0.72809 0.18764 0.93028 0.0
H51 H 0.735 0.16321 0.91225 0.0
C52 C 0.69478 0.19818 0.92297 0.0
H53 H 0.76148 0.25585 0.00723 0.0
C54 C 0.68528 0.22954 0.94532 0.0
H55 H 0.65937 0.23739 0.93735 0.0
H56 H 0.67629 0.18212 0.89931 0.0
H57 H 0.30673 0.2991 0.64811 0.0
C58 C 0.31486 0.31094 0.60659 0.0
C59 C 0.33323 0.34089 0.61118 0.0
C60 C 0.3093 0.29437 0.54924 0.0
H61 H 0.36014 0.377 0.55964 0.0
C62 C 0.34418 0.35511 0.55651 0.0
C63 C 0.33805 0.33929 0.4983 0.0
C64 C 0.32023 0.30891 0.49511 0.0
C65 C 0.29995 0.25878 0.54864 0.0
H66 H 0.31667 0.29549 0.45116 0.0
C67 C 0.26714 0.24774 0.53193 0.0
C68 C 0.25893 0.21367 0.5361 0.0
C69 C 0.32455 0.23567 0.56793 0.0
H70 H 0.34992 0.24383 0.58096 0.0
C71 C 0.31667 0.20197 0.57094 0.0
H72 H 0.248 0.26558 0.51762 0.0
C73 C 0.28409 0.191 0.5554 0.0
H74 H 0.27861 0.16464 0.55801 0.0
H75 H 0.33583 0.18432 0.58572 0.0
O76 O 0.93111 0.9556 0.47329 0.0
Zn77 Zn 0.95341 1.00073 0.47072 0.0
O78 O 1.00232 0.99894 0.47173 0.0
Zn79 Zn 0.02107 0.02099 0.54838 0.0
Zn80 Zn 0.01451 0.95209 0.47011 0.0
Zn81 Zn 0.01911 0.02032 0.39745 0.0
O82 O 0.05317 0.05765 0.52626 0.0
O83 O 0.04946 0.05902 0.42323 0.0
O84 O 0.93822 0.02767 0.54265 0.0
O85 O 0.98387 0.04258 0.59899 0.0
O86 O 0.04781 0.98808 0.60143 0.0
O87 O 0.04207 0.94105 0.54569 0.0
O88 O 0.0439 0.94143 0.39998 0.0
O89 O 0.93562 0.0241 0.39586 0.0
O90 O 0.04779 0.98786 0.34695 0.0
O91 O 0.98033 0.0389 0.34399 0.0
C92 C 0.94301 0.92622 0.46835 0.0
C93 C 0.06128 0.07035 0.47528 0.0
C94 C 0.05386 0.95706 0.5932 0.0
C95 C 0.95194 0.0429 0.58932 0.0
C96 C 0.05548 0.95733 0.35525 0.0
C97 C 0.94846 0.03836 0.3503 0.0
O98 O 0.97455 0.92118 0.46441 0.0
O99 O 0.58028 0.48159 0.05063 0.0
Zn100 Zn 0.55035 0.52187 0.06519 0.0
O101 O 0.50276 0.51118 0.07043 0.0
Zn102 Zn 0.478 0.52851 -0.00254 0.0
Zn103 Zn 0.49958 0.46324 0.06864 0.0
Zn104 Zn 0.48449 0.5295 0.14863 0.0
O105 O 0.44427 0.56255 0.02591 0.0
O106 O 0.44887 0.5648 0.12899 0.0
O107 O 0.55709 0.55476 -0.00108 0.0
O108 O 0.50891 0.55398 0.94272 0.0
O109 O 0.45329 0.49204 0.9467 0.0
O110 O 0.46983 0.44729 -0.00203 0.0
O111 O 0.47818 0.44764 0.14391 0.0
O112 O 0.5669 0.54398 0.14341 0.0
O113 O 0.46328 0.49243 0.1989 0.0
O114 O 0.52228 0.55226 0.20137 0.0
C115 C 0.57404 0.45055 0.05311 0.0
C116 C 0.43568 0.57496 0.07797 0.0
C117 C 0.45291 0.46059 0.95392 0.0
C118 C 0.53911 0.56406 0.95253 0.0
C119 C 0.46409 0.46079 0.19049 0.0
C120 C 0.5538 0.55529 0.19253 0.0
O121 O 0.5443 0.44025 0.06163 0.0
H122 H 0.22152 0.17223 0.60452 0.0
H123 H 0.21916 0.22576 0.43233 0.0
H124 H 0.16515 0.19811 0.40086 0.0
H125 H 0.19323 0.09636 0.54286 0.0
H126 H 0.1682 0.0858 0.60763 0.0
H127 H 0.20414 0.11275 0.61952 0.0
H128 H 0.16631 0.15822 0.66885 0.0
H129 H 0.13021 0.13127 0.65755 0.0
H130 H 0.12927 0.17256 0.62643 0.0
H131 H 0.11549 0.15892 0.38307 0.0
H132 H 0.07221 0.11468 0.38333 0.0
H133 H 0.10671 0.08815 0.56886 0.0
C134 C 0.20931 0.17856 0.56064 0.0
C135 C 0.22443 0.20107 0.52072 0.0
C136 C 0.20776 0.20882 0.46377 0.0
C137 C 0.17719 0.19314 0.4455 0.0
C138 C 0.16349 0.17022 0.48522 0.0
C139 C 0.1788 0.16338 0.54206 0.0
C140 C 0.16003 0.1366 0.57495 0.0
C141 C 0.18276 0.10608 0.5869 0.0
C142 C 0.14559 0.1505 0.63553 0.0
C143 C 0.13226 0.12866 0.52701 0.0
C144 C 0.13458 0.14834 0.47561 0.0
C145 C 0.11309 0.14381 0.42354 0.0
C146 C 0.08869 0.11851 0.424 0.0
C147 C 0.08587 0.09814 0.47632 0.0
C148 C 0.10779 0.10367 0.52861 0.0
H149 H 0.3526 0.73635 0.93246 0.0
H150 H 0.31978 0.76554 0.11535 0.0
H151 H 0.33949 0.71112 0.15558 0.0
H152 H 0.33103 0.64693 0.94112 0.0
H153 H 0.36738 0.63437 0.89845 0.0
H154 H 0.34741 0.67394 0.88386 0.0
H155 H 0.40458 0.70392 0.90615 0.0
H156 H 0.42465 0.66455 0.92101 0.0
H157 H 0.4271 0.69763 0.97904 0.0
H158 H 0.36967 0.65593 0.17738 0.0
H159 H 0.40432 0.60447 0.17755 0.0
H160 H 0.41491 0.61174 0.97881 0.0
C161 C 0.34909 0.73104 0.9808 0.0
C162 C 0.3348 0.75504 0.02098 0.0
C163 C 0.33048 0.74729 0.08384 0.0
C164 C 0.34167 0.71653 0.107 0.0
C165 C 0.35652 0.69368 0.06632 0.0
C166 C 0.35973 0.70049 0.00429 0.0
C167 C 0.37788 0.6727 0.97051 0.0
C168 C 0.35452 0.656 0.92054 0.0
C169 C 0.41048 0.68547 0.94258 0.0
C170 C 0.38546 0.64958 0.02351 0.0
C171 C 0.37288 0.66189 0.07845 0.0
C172 C 0.37907 0.6458 0.13437 0.0
C173 C 0.39885 0.61661 0.13406 0.0
C174 C 0.41212 0.6038 0.07815 0.0
C175 C 0.40473 0.62041 0.02225 0.0
H176 H 0.79543 0.81804 0.60086 0.0
H177 H 0.83702 0.7332 0.50185 0.0
H178 H 0.87587 0.77058 0.44925 0.0
H179 H 0.80378 0.88005 0.47393 0.0
H180 H 0.81529 0.91303 0.52885 0.0
H181 H 0.78723 0.8804 0.55069 0.0
H182 H 0.82705 0.8678 0.64508 0.0
H183 H 0.85538 0.90005 0.62325 0.0
H184 H 0.87075 0.8581 0.6327 0.0
H185 H 0.91572 0.81525 0.42103 0.0
H186 H 0.95174 0.86502 0.41328 0.0
H187 H 0.88337 0.92177 0.52781 0.0
C188 C 0.81187 0.80771 0.56624 0.0
C189 C 0.81299 0.77306 0.55397 0.0
C190 C 0.83555 0.75988 0.51048 0.0
C191 C 0.85767 0.78088 0.48065 0.0
C192 C 0.8567 0.81496 0.49484 0.0
C193 C 0.83408 0.82841 0.53597 0.0
C194 C 0.84025 0.86538 0.54716 0.0
C195 C 0.80983 0.88593 0.52374 0.0
C196 C 0.84888 0.87327 0.61612 0.0
C197 C 0.87053 0.87038 0.50753 0.0
C198 C 0.87952 0.84099 0.47757 0.0
C199 C 0.90849 0.83859 0.44305 0.0
C200 C 0.92889 0.8669 0.43919 0.0
C201 C 0.92008 0.89728 0.46928 0.0
C202 C 0.89025 0.89907 0.5031 0.0
H203 H 0.65058 0.26773 0.03254 0.0
H204 H 0.74225 0.3104 0.96491 0.0
H205 H 0.71974 0.36705 0.98567 0.0
H206 H 0.59558 0.32298 0.96084 0.0
H207 H 0.56613 0.32503 0.02253 0.0
H208 H 0.59153 0.28831 0.01164 0.0
H209 H 0.61469 0.29374 0.12536 0.0
H210 H 0.58905 0.33037 0.13686 0.0
H211 H 0.63396 0.33228 0.15266 0.0
H212 H 0.68405 0.41913 0.00359 0.0
H213 H 0.63936 0.46141 0.01902 0.0
H214 H 0.57089 0.38337 0.07067 0.0
C215 C 0.66619 0.28896 0.02289 0.0
C216 C 0.69818 0.28462 -0.00295 0.0
C217 C 0.71787 0.31309 0.98551 0.0
C218 C 0.70519 0.34536 -0.00316 0.0
C219 C 0.67293 0.34867 0.02009 0.0
C220 C 0.65387 0.32114 0.03347 0.0
C221 C 0.61906 0.33105 0.05369 0.0
C222 C 0.59147 0.31595 0.00953 0.0
C223 C 0.6139 0.32128 0.12116 0.0
C224 C 0.62105 0.36845 0.04798 0.0
C225 C 0.6524 0.3783 0.02932 0.0
C226 C 0.65955 0.41168 0.01885 0.0
C227 C 0.63398 0.43551 0.02761 0.0
C228 C 0.60155 0.42577 0.04599 0.0
C229 C 0.59533 0.39176 0.05662 0.0
H230 H 0.17686 0.93218 0.07037 0.0
H231 H 0.19996 0.83373 0.13924 0.0
H232 H 0.16542 0.84573 0.23046 0.0
H233 H 0.17503 0.97597 0.22274 0.0
H234 H 0.14047 1.00239 0.19821 0.0
H235 H 0.17007 0.98729 0.14257 0.0
H236 H 0.12062 0.96236 0.07476 0.0
H237 H 0.09092 0.97695 0.13048 0.0
H238 H 0.0922 0.93338 0.10822 0.0
H239 H 0.12384 0.86615 0.30724 0.0
H240 H 0.08161 0.89486 0.36989 0.0
H241 H 0.0851 0.98038 0.25049 0.0
C242 C 0.17505 0.91333 0.10517 0.0
C243 C 0.19101 0.88198 0.09788 0.0
C244 C 0.18824 0.858 0.14439 0.0
C245 C 0.16852 0.86454 0.19604 0.0
C246 C 0.1521 0.89526 0.20053 0.0
C247 C 0.15553 0.91945 0.1568 0.0
C248 C 0.13405 0.9498 0.17091 0.0
C249 C 0.15623 0.98069 0.18443 0.0
C250 C 0.1079 0.95596 0.11794 0.0
C251 C 0.1173 0.93862 0.22877 0.0
C252 C 0.12818 0.90714 0.24507 0.0
C253 C 0.11544 0.89095 0.29537 0.0
C254 C 0.09126 0.9075 0.33046 0.0
C255 C 0.07996 0.94001 0.31526 0.0
C256 C 0.09324 0.95566 0.26353 0.0
H257 H 0.61758 0.63056 0.64729 0.0
H258 H 0.64752 0.71998 0.75291 0.0
H259 H 0.6177 0.69942 0.84283 0.0
H260 H 0.53236 0.62504 0.71143 0.0
H261 H 0.53361 0.58011 0.70996 0.0
H262 H 0.55565 0.60295 0.65305 0.0
H263 H 0.61109 0.57247 0.68464 0.0
H264 H 0.58941 0.54983 0.74203 0.0
H265 H 0.6261 0.57429 0.76454 0.0
H266 H 0.59078 0.66597 0.92424 0.0
H267 H 0.56413 0.62415 0.98913 0.0
H268 H 0.54653 0.55971 0.82715 0.0
C269 C 0.61704 0.64655 0.68839 0.0
C270 C 0.63501 0.67703 0.69268 0.0
C271 C 0.63442 0.69635 0.74854 0.0
C272 C 0.6173 0.68502 0.79973 0.0
C273 C 0.60032 0.65467 0.7939 0.0
C274 C 0.59954 0.636 0.73929 0.0
C275 C 0.58034 0.60375 0.74554 0.0
C276 C 0.5486 0.60293 0.70244 0.0
C277 C 0.6031 0.57331 0.73349 0.0
C278 C 0.57127 0.60668 0.81292 0.0
C279 C 0.58315 0.63621 0.84003 0.0
C280 C 0.58066 0.64317 0.90325 0.0
C281 C 0.56568 0.61931 0.93968 0.0
C282 C 0.55299 0.58922 0.91254 0.0
C283 C 0.55539 0.58298 0.84836 0.0
H284 H 0.89653 0.15716 0.06966 0.0
H285 H 0.79221 0.14017 0.11485 0.0
H286 H 0.81131 0.10718 0.2042 0.0
H287 H 0.92497 0.07615 0.10018 0.0
H288 H 0.96564 0.08842 0.13302 0.0
H289 H 0.94433 0.11423 0.0768 0.0
H290 H 0.94787 0.1648 0.1538 0.0
H291 H 0.96964 0.13926 0.21003 0.0
H292 H 0.93164 0.16107 0.23031 0.0
H293 H 0.84099 0.07198 0.28219 0.0
H294 H 0.8796 0.03978 0.3494 0.0
H295 H 0.96517 0.07796 0.25287 0.0
C296 C 0.87771 0.14692 0.09891 0.0
C297 C 0.84283 0.15159 0.08541 0.0
C298 C 0.81904 0.1377 0.12486 0.0
C299 C 0.82964 0.11859 0.17544 0.0
C300 C 0.8641 0.1136 0.18609 0.0
C301 C 0.88784 0.12761 0.14944 0.0
C302 C 0.92328 0.11706 0.16938 0.0
C303 C 0.94056 0.09782 0.11671 0.0
C304 C 0.94435 0.14735 0.19225 0.0
C305 C 0.91565 0.09443 0.22229 0.0
C306 C 0.88135 0.09293 0.23112 0.0
C307 C 0.86793 0.07318 0.27616 0.0
C308 C 0.89016 0.05486 0.31397 0.0
C309 C 0.92554 0.05629 0.30663 0.0
C310 C 0.93832 0.07624 0.25972 0.0
H311 H 0.34399 0.4068 0.64825 0.0
H312 H 0.35291 0.30528 0.71325 0.0
H313 H 0.37915 0.3262 0.81092 0.0
H314 H 0.42435 0.43148 0.70367 0.0
H315 H 0.41265 0.47346 0.72571 0.0
H316 H 0.38933 0.45165 0.6642 0.0
H317 H 0.33381 0.46142 0.72171 0.0
H318 H 0.35693 0.4835 0.78332 0.0
H319 H 0.33096 0.44837 0.80072 0.0
H320 H 0.40943 0.35622 0.89627 0.0
H321 H 0.44201 0.39413 0.96614 0.0
H322 H 0.41716 0.47677 0.84596 0.0
C323 C 0.35101 0.38897 0.68329 0.0
C324 C 0.34561 0.35433 0.67291 0.0
C325 C 0.35547 0.33197 0.72023 0.0
C326 C 0.37079 0.34358 0.77597 0.0
C327 C 0.37642 0.37763 0.78388 0.0
C328 C 0.36685 0.40009 0.7391 0.0
C329 C 0.37854 0.43508 0.75755 0.0
C330 C 0.40265 0.4487 0.70995 0.0
C331 C 0.34825 0.45847 0.76636 0.0
C332 C 0.3969 0.42846 0.81895 0.0
C333 C 0.39493 0.39517 0.83329 0.0
C334 C 0.41091 0.38243 0.88598 0.0
C335 C 0.42952 0.40425 0.92525 0.0
C336 C 0.43224 0.43854 0.91167 0.0
C337 C 0.41543 0.45078 0.85788 0.0
H338 H 0.60367 0.68251 0.47118 0.0
H339 H 0.7076 0.65125 0.44838 0.0
H340 H 0.68991 0.61777 0.35594 0.0
H341 H 0.56914 0.6042 0.44109 0.0
H342 H 0.53142 0.61842 0.40067 0.0
H343 H 0.55243 0.64511 0.45807 0.0
H344 H 0.55756 0.69152 0.37755 0.0
H345 H 0.53598 0.66521 0.32006 0.0
H346 H 0.57684 0.6821 0.30475 0.0
H347 H 0.66072 0.58279 0.27409 0.0
H348 H 0.62217 0.55067 0.20371 0.0
H349 H 0.5363 0.60096 0.2838 0.0
C350 C 0.62287 0.66907 0.44627 0.0
C351 C 0.65713 0.66975 0.46728 0.0
C352 C 0.68135 0.6519 0.43281 0.0
C353 C 0.67149 0.63246 0.38046 0.0
C354 C 0.63733 0.63102 0.36321 0.0
C355 C 0.61338 0.64905 0.39466 0.0
C356 C 0.57802 0.6409 0.36976 0.0
C357 C 0.5565 0.62629 0.42042 0.0
C358 C 0.56111 0.67177 0.34132 0.0
C359 C 0.58582 0.61485 0.32031 0.0
C360 C 0.62023 0.60988 0.31697 0.0
C361 C 0.63375 0.5867 0.27581 0.0
C362 C 0.61158 0.56849 0.23619 0.0
C363 C 0.57618 0.57328 0.23827 0.0
C364 C 0.56318 0.5966 0.28139 0.0
H365 H 0.89973 0.15451 0.88458 0.0
H366 H 0.79644 0.14507 0.81162 0.0
H367 H 0.8166 0.11536 0.71954 0.0
H368 H 0.94 0.16312 0.73462 0.0
H369 H 0.97597 0.13805 0.75719 0.0
H370 H 0.95413 0.16212 0.81493 0.0
H371 H 0.9453 0.10863 0.87711 0.0
H372 H 0.96685 0.08435 0.8194 0.0
H373 H 0.9247 0.07316 0.83953 0.0
H374 H 0.84607 0.08313 0.64028 0.0
H375 H 0.88401 0.051 0.57453 0.0
H376 H 0.96914 0.07856 0.69786 0.0
C377 C 0.8814 0.14654 0.84891 0.0
C378 C 0.84648 0.1528 0.85519 0.0
C379 C 0.82336 0.1417 0.80742 0.0
C380 C 0.83452 0.12443 0.75501 0.0
C381 C 0.86887 0.11819 0.75092 0.0
C382 C 0.89208 0.12893 0.79623 0.0
C383 C 0.92739 0.11712 0.78145 0.0
C384 C 0.95075 0.14688 0.77144 0.0
C385 C 0.9419 0.09447 0.8324 0.0
C386 C 0.92012 0.09761 0.7213 0.0
C387 C 0.88617 0.09883 0.70473 0.0
C388 C 0.87278 0.08217 0.65235 0.0
C389 C 0.89466 0.06383 0.61541 0.0
C390 C 0.92971 0.06217 0.63084 0.0
C391 C 0.94255 0.07938 0.68466 0.0
H392 H 0.34553 0.40461 0.46343 0.0
H393 H 0.37057 0.30262 0.41007 0.0
H394 H 0.40418 0.32321 0.32555 0.0
H395 H 0.34105 0.43777 0.30624 0.0
H396 H 0.36015 0.47695 0.3302 0.0
H397 H 0.33559 0.45427 0.38373 0.0
H398 H 0.38638 0.45494 0.46271 0.0
H399 H 0.41121 0.47729 0.40921 0.0
H400 H 0.42644 0.43836 0.43955 0.0
H401 H 0.438 0.35389 0.25249 0.0
H402 H 0.46772 0.39308 0.18865 0.0
H403 H 0.42243 0.47643 0.28824 0.0
C404 C 0.35779 0.38661 0.4335 0.0
C405 C 0.35499 0.35191 0.4431 0.0
C406 C 0.37151 0.32922 0.40293 0.0
C407 C 0.391 0.34069 0.3551 0.0
C408 C 0.39381 0.37493 0.34791 0.0
C409 C 0.3775 0.39765 0.38546 0.0
C410 C 0.3857 0.43318 0.36847 0.0
C411 C 0.35372 0.45162 0.3458 0.0
C412 C 0.40349 0.45205 0.42325 0.0
C413 C 0.40951 0.42678 0.31596 0.0
C414 C 0.4137 0.39294 0.30518 0.0
C415 C 0.43473 0.38046 0.26005 0.0
C416 C 0.45158 0.40308 0.22405 0.0
C417 C 0.44739 0.43802 0.23303 0.0
C418 C 0.42622 0.44996 0.28017 0.0
H419 H 0.1716 0.93153 0.89736 0.0
H420 H 0.19479 0.8329 0.82323 0.0
H421 H 0.15901 0.84399 0.72977 0.0
H422 H 0.08555 0.93294 0.84687 0.0
H423 H 0.08513 0.97645 0.82794 0.0
H424 H 0.11403 0.96161 0.88743 0.0
H425 H 0.16437 0.98577 0.82987 0.0
H426 H 0.13561 1.00094 0.77043 0.0
H427 H 0.17006 0.97397 0.74974 0.0
H428 H 0.11821 0.86425 0.64844 0.0
H429 H 0.07818 0.89369 0.57949 0.0
H430 H 0.0816 0.97985 0.70575 0.0
C431 C 0.16929 0.91235 0.86124 0.0
C432 C 0.18594 0.88133 0.86737 0.0
C433 C 0.18255 0.85695 0.81903 0.0
C434 C 0.16213 0.86295 0.76608 0.0
C435 C 0.14552 0.89352 0.76213 0.0
C436 C 0.14915 0.91798 0.80802 0.0
C437 C 0.12823 0.94855 0.79259 0.0
C438 C 0.10166 0.95526 0.84162 0.0
C439 C 0.15093 0.97911 0.7852 0.0
C440 C 0.11193 0.93729 0.73108 0.0
C441 C 0.12223 0.90544 0.71459 0.0
C442 C 0.11015 0.88929 0.66057 0.0
C443 C 0.08726 0.90626 0.62183 0.0
C444 C 0.0767 0.9392 0.63703 0.0
C445 C 0.0892 0.95478 0.69266 0.0
loop_
_geom_bond_atom_site_label_1
_geom_bond_atom_site_label_2
_geom_bond_distance
_geom_bond_site_symmetry_2
_ccdc_geom_bond_type
H0 C1 0.949 . S
C1 H0 0.949 . S
C1 C2 1.395 . S
C1 C3 1.391 . S
C2 C1 1.395 . S
C2 C5 1.390 . S
C3 C1 1.391 . S
C3 C7 1.387 1_554 S
C3 C8 1.491 1_554 S
H4 C5 0.950 . S
C5 C2 1.390 . S
C5 H4 0.950 . S
C5 C6 1.378 1_554 S
C6 C5 1.378 1_556 S
C6 C7 1.409 . S
C7 C3 1.387 1_556 S
C7 C6 1.409 . S
C7 H9 0.951 . S
C8 C3 1.491 1_556 S
C8 C10 1.382 1_556 S
C8 C12 1.404 . S
H9 C7 0.951 . S
C10 C8 1.382 1_554 S
C10 C11 1.390 . S
C10 H15 0.949 . S
C11 C10 1.390 . S
C11 C16 1.399 1_554 S
C12 C8 1.404 . S
C12 H13 0.950 . S
C12 C14 1.375 . S
H13 C12 0.950 . S
C14 C12 1.375 . S
C14 C16 1.382 . S
C14 H18 0.950 . S
H15 C10 0.949 . S
C16 C11 1.399 1_556 S
C16 C14 1.382 . S
C16 H17 0.952 . S
H17 C16 0.952 . S
H18 C14 0.950 . S
H19 C20 0.949 . S
C20 H19 0.949 . S
C20 C21 1.395 . S
C20 C22 1.391 . S
C21 C20 1.395 . S
C21 C24 1.390 . S
C22 C20 1.391 . S
C22 C26 1.387 . S
C22 C27 1.491 . S
H23 C24 0.950 . S
C24 C21 1.390 . S
C24 H23 0.950 . S
C24 C25 1.378 . S
C25 C24 1.378 . S
C25 C26 1.409 . S
C26 C22 1.387 . S
C26 C25 1.409 . S
C26 H28 0.951 . S
C27 C22 1.491 . S
C27 C29 1.382 . S
C27 C31 1.404 . S
H28 C26 0.951 . S
C29 C27 1.382 . S
C29 C30 1.390 . S
C29 H34 0.949 . S
C30 C29 1.390 . S
C30 C35 1.399 . S
C31 C27 1.404 . S
C31 H32 0.950 . S
C31 C33 1.375 . S
H32 C31 0.950 . S
C33 C31 1.375 . S
C33 C35 1.382 . S
C33 H37 0.950 . S
H34 C29 0.949 . S
C35 C30 1.399 . S
C35 C33 1.382 . S
C35 H36 0.952 . S
H36 C35 0.952 . S
H37 C33 0.950 . S
H38 C39 0.949 . S
C39 H38 0.949 . S
C39 C40 1.395 . S
C39 C41 1.391 . S
C40 C39 1.395 . S
C40 C43 1.390 . S
C41 C39 1.391 . S
C41 C45 1.387 1_554 S
C41 C46 1.491 1_554 S
H42 C43 0.950 . S
C43 C40 1.390 . S
C43 H42 0.950 . S
C43 C44 1.378 1_554 S
C44 C43 1.378 1_556 S
C44 C45 1.409 . S
C45 C41 1.387 1_556 S
C45 C44 1.409 . S
C45 H47 0.951 . S
C46 C41 1.491 1_556 S
C46 C48 1.382 1_556 S
C46 C50 1.404 . S
H47 C45 0.951 . S
C48 C46 1.382 1_554 S
C48 C49 1.390 . S
C48 H53 0.949 . S
C49 C48 1.390 . S
C49 C54 1.399 1_554 S
C50 C46 1.404 . S
C50 H51 0.950 . S
C50 C52 1.375 . S
H51 C50 0.950 . S
C52 C50 1.375 . S
C52 C54 1.382 . S
C52 H56 0.950 . S
H53 C48 0.949 . S
C54 C49 1.399 1_556 S
C54 C52 1.382 . S
C54 H55 0.952 . S
H55 C54 0.952 . S
H56 C52 0.950 . S
H57 C58 0.949 . S
C58 H57 0.949 . S
C58 C59 1.395 . S
C58 C60 1.391 . S
C59 C58 1.395 . S
C59 C62 1.390 . S
C60 C58 1.391 . S
C60 C64 1.387 . S
C60 C65 1.491 . S
H61 C62 0.950 . S
C62 C59 1.390 . S
C62 H61 0.950 . S
C62 C63 1.378 . S
C63 C62 1.378 . S
C63 C64 1.409 . S
C64 C60 1.387 . S
C64 C63 1.409 . S
C64 H66 0.951 . S
C65 C60 1.491 . S
C65 C67 1.382 . S
C65 C69 1.404 . S
H66 C64 0.951 . S
C67 C65 1.382 . S
C67 C68 1.390 . S
C67 H72 0.949 . S
C68 C67 1.390 . S
C68 C73 1.399 . S
C69 C65 1.404 . S
C69 H70 0.950 . S
C69 C71 1.375 . S
H70 C69 0.950 . S
C71 C69 1.375 . S
C71 C73 1.382 . S
C71 H75 0.950 . S
H72 C67 0.949 . S
C73 C68 1.399 . S
C73 C71 1.382 . S
C73 H74 0.952 . S
H74 C73 0.952 . S
H75 C71 0.950 . S
O76 Zn77 1.953 1_565 S
O76 C92 1.225 . S
Zn77 O76 1.953 1_545 S
Zn77 O78 1.949 1_655 S
Zn77 O84 1.919 . S
Zn77 O89 1.924 . S
O78 Zn77 1.949 1_455 S
O78 Zn79 1.923 . S
O78 Zn80 1.950 1_545 S
O78 Zn81 1.945 . S
Zn79 O78 1.923 . S
Zn79 O82 1.933 . S
Zn79 O85 1.941 1_455 S
Zn79 O86 1.965 1_545 S
Zn80 O78 1.950 1_565 S
Zn80 O87 1.938 . S
Zn80 O88 1.906 . S
Zn80 O98 1.953 1_455 S
Zn81 O78 1.945 . S
Zn81 O83 1.932 . S
Zn81 O90 1.977 1_545 S
Zn81 O91 1.910 1_455 S
O82 Zn79 1.933 . S
O82 C93 1.226 . S
O83 Zn81 1.932 . S
O83 C93 1.307 . S
O84 Zn77 1.919 . S
O84 C95 1.253 . S
O85 Zn79 1.941 1_655 S
O85 C95 1.283 . S
O86 Zn79 1.965 1_565 S
O86 C94 1.303 . S
O87 Zn80 1.938 . S
O87 C94 1.247 . S
O88 Zn80 1.906 . S
O88 C96 1.304 . S
O89 Zn77 1.924 . S
O89 C97 1.311 . S
O90 Zn81 1.977 1_565 S
O90 C96 1.272 . S
O91 Zn81 1.910 1_655 S
O91 C97 1.231 . S
C92 O76 1.225 . S
C92 O98 1.298 . S
C93 O82 1.226 . S
C93 O83 1.307 . S
C94 O86 1.303 . S
C94 O87 1.247 . S
C95 O84 1.253 . S
C95 O85 1.283 . S
C96 O88 1.304 . S
C96 O90 1.272 . S
C97 O89 1.311 . S
C97 O91 1.231 . S
O98 Zn80 1.953 1_655 S
O98 C92 1.298 . S
O99 Zn100 1.953 . S
O99 C115 1.225 . S
Zn100 O99 1.953 . S
Zn100 O101 1.949 . S
Zn100 O107 1.919 1_554 S
Zn100 O112 1.924 . S
O101 Zn100 1.949 . S
O101 Zn102 1.923 1_554 S
O101 Zn103 1.950 . S
O101 Zn104 1.945 . S
Zn102 O101 1.923 1_556 S
Zn102 O105 1.933 . S
Zn102 O108 1.941 . S
Zn102 O109 1.965 . S
Zn103 O101 1.950 . S
Zn103 O110 1.938 1_554 S
Zn103 O111 1.906 . S
Zn103 O121 1.953 . S
Zn104 O101 1.945 . S
Zn104 O106 1.932 . S
Zn104 O113 1.977 . S
Zn104 O114 1.910 . S
O105 Zn102 1.933 . S
O105 C116 1.226 1_556 S
O106 Zn104 1.932 . S
O106 C116 1.307 . S
O107 Zn100 1.919 1_556 S
O107 C118 1.253 . S
O108 Zn102 1.941 . S
O108 C118 1.283 . S
O109 Zn102 1.965 . S
O109 C117 1.303 . S
O110 Zn103 1.938 1_556 S
O110 C117 1.247 . S
O111 Zn103 1.906 . S
O111 C119 1.304 . S
O112 Zn100 1.924 . S
O112 C120 1.311 . S
O113 Zn104 1.977 . S
O113 C119 1.272 . S
O114 Zn104 1.910 . S
O114 C120 1.231 . S
C115 O99 1.225 . S
C115 O121 1.298 . S
C116 O105 1.226 1_554 S
C116 O106 1.307 . S
C117 O109 1.303 . S
C117 O110 1.247 . S
C118 O107 1.253 . S
C118 O108 1.283 . S
C119 O111 1.304 . S
C119 O113 1.272 . S
C120 O112 1.311 . S
C120 O114 1.231 . S
O121 Zn103 1.953 . S
O121 C115 1.298 . S
H122 C134 0.930 . S
H123 C136 0.930 . S
H124 C137 0.930 . S
H125 C141 0.959 . S
H126 C141 0.959 . S
H127 C141 0.961 . S
H128 C142 0.960 . S
H129 C142 0.961 . S
H130 C142 0.959 . S
H131 C145 0.929 . S
H132 C146 0.931 . S
H133 C148 0.930 . S
C134 H122 0.930 . S
C134 C135 1.399 . S
C134 C139 1.399 . S
C135 C134 1.399 . S
C135 C136 1.376 . S
C136 H123 0.930 . S
C136 C135 1.376 . S
C136 C137 1.388 . S
C137 H124 0.930 . S
C137 C136 1.388 . S
C137 C138 1.390 . S
C138 C137 1.390 . S
C138 C139 1.394 . S
C138 C144 1.465 . S
C139 C134 1.399 . S
C139 C138 1.394 . S
C139 C140 1.516 . S
C140 C139 1.516 . S
C140 C141 1.502 . S
C140 C142 1.561 . S
C140 C143 1.526 . S
C141 H125 0.959 . S
C141 H126 0.959 . S
C141 H127 0.961 . S
C141 C140 1.502 . S
C142 H128 0.960 . S
C142 H129 0.961 . S
C142 H130 0.959 . S
C142 C140 1.561 . S
C143 C140 1.526 . S
C143 C144 1.396 . S
C143 C148 1.390 . S
C144 C138 1.465 . S
C144 C143 1.396 . S
C144 C145 1.399 . S
C145 H131 0.929 . S
C145 C144 1.399 . S
C145 C146 1.385 . S
C146 H132 0.931 . S
C146 C145 1.385 . S
C146 C147 1.389 . S
C147 C146 1.389 . S
C147 C148 1.387 . S
C148 H133 0.930 . S
C148 C143 1.390 . S
C148 C147 1.387 . S
H149 C161 0.930 1_556 S
H150 C163 0.930 . S
H151 C164 0.930 . S
H152 C168 0.959 . S
H153 C168 0.959 . S
H154 C168 0.961 . S
H155 C169 0.960 . S
H156 C169 0.961 . S
H157 C169 0.959 . S
H158 C172 0.929 . S
H159 C173 0.931 . S
H160 C175 0.930 1_556 S
C161 H149 0.930 1_554 S
C161 C162 1.399 . S
C161 C166 1.399 . S
C162 C161 1.399 . S
C162 C163 1.376 . S
C163 H150 0.930 . S
C163 C162 1.376 . S
C163 C164 1.388 . S
C164 H151 0.930 . S
C164 C163 1.388 . S
C164 C165 1.390 . S
C165 C164 1.390 . S
C165 C166 1.394 . S
C165 C171 1.465 . S
C166 C161 1.399 . S
C166 C165 1.394 . S
C166 C167 1.516 1_554 S
C167 C166 1.516 1_556 S
C167 C168 1.502 . S
C167 C169 1.561 . S
C167 C170 1.526 1_556 S
C168 H152 0.959 . S
C168 H153 0.959 . S
C168 H154 0.961 . S
C168 C167 1.502 . S
C169 H155 0.960 . S
C169 H156 0.961 . S
C169 H157 0.959 . S
C169 C167 1.561 . S
C170 C167 1.526 1_554 S
C170 C171 1.396 . S
C170 C175 1.390 . S
C171 C165 1.465 . S
C171 C170 1.396 . S
C171 C172 1.399 . S
C172 H158 0.929 . S
C172 C171 1.399 . S
C172 C173 1.385 . S
C173 H159 0.931 . S
C173 C172 1.385 . S
C173 C174 1.389 . S
C174 C173 1.389 . S
C174 C175 1.387 . S
C175 H160 0.930 1_554 S
C175 C170 1.390 . S
C175 C174 1.387 . S
H176 C188 0.930 . S
H177 C190 0.930 . S
H178 C191 0.930 . S
H179 C195 0.959 . S
H180 C195 0.959 . S
H181 C195 0.961 . S
H182 C196 0.960 . S
H183 C196 0.961 . S
H184 C196 0.959 . S
H185 C199 0.929 . S
H186 C200 0.931 . S
H187 C202 0.930 . S
C188 H176 0.930 . S
C188 C189 1.399 . S
C188 C193 1.399 . S
C189 C188 1.399 . S
C189 C190 1.376 . S
C190 H177 0.930 . S
C190 C189 1.376 . S
C190 C191 1.388 . S
C191 H178 0.930 . S
C191 C190 1.388 . S
C191 C192 1.390 . S
C192 C191 1.390 . S
C192 C193 1.394 . S
C192 C198 1.465 . S
C193 C188 1.399 . S
C193 C192 1.394 . S
C193 C194 1.516 . S
C194 C193 1.516 . S
C194 C195 1.502 . S
C194 C196 1.561 . S
C194 C197 1.526 . S
C195 H179 0.959 . S
C195 H180 0.959 . S
C195 H181 0.961 . S
C195 C194 1.502 . S
C196 H182 0.960 . S
C196 H183 0.961 . S
C196 H184 0.959 . S
C196 C194 1.561 . S
C197 C194 1.526 . S
C197 C198 1.396 . S
C197 C202 1.390 . S
C198 C192 1.465 . S
C198 C197 1.396 . S
C198 C199 1.399 . S
C199 H185 0.929 . S
C199 C198 1.399 . S
C199 C200 1.385 . S
C200 H186 0.931 . S
C200 C199 1.385 . S
C200 C201 1.389 . S
C201 C200 1.389 . S
C201 C202 1.387 . S
C202 H187 0.930 . S
C202 C197 1.390 . S
C202 C201 1.387 . S
H203 C215 0.930 . S
H204 C217 0.930 . S
H205 C218 0.930 . S
H206 C222 0.959 . S
H207 C222 0.959 . S
H208 C222 0.961 . S
H209 C223 0.960 . S
H210 C223 0.961 . S
H211 C223 0.959 . S
H212 C226 0.929 . S
H213 C227 0.931 . S
H214 C229 0.930 . S
C215 H203 0.930 . S
C215 C216 1.399 . S
C215 C220 1.399 . S
C216 C215 1.399 . S
C216 C217 1.376 1_554 S
C217 H204 0.930 . S
C217 C216 1.376 1_556 S
C217 C218 1.388 . S
C218 H205 0.930 . S
C218 C217 1.388 . S
C218 C219 1.390 1_556 S
C219 C218 1.390 1_554 S
C219 C220 1.394 . S
C219 C225 1.465 . S
C220 C215 1.399 . S
C220 C219 1.394 . S
C220 C221 1.516 . S
C221 C220 1.516 . S
C221 C222 1.502 . S
C221 C223 1.561 . S
C221 C224 1.526 . S
C222 H206 0.959 . S
C222 H207 0.959 . S
C222 H208 0.961 . S
C222 C221 1.502 . S
C223 H209 0.960 . S
C223 H210 0.961 . S
C223 H211 0.959 . S
C223 C221 1.561 . S
C224 C221 1.526 . S
C224 C225 1.396 . S
C224 C229 1.390 . S
C225 C219 1.465 . S
C225 C224 1.396 . S
C225 C226 1.399 1_554 S
C226 H212 0.929 . S
C226 C225 1.399 1_556 S
C226 C227 1.385 . S
C227 H213 0.931 . S
C227 C226 1.385 . S
C227 C228 1.389 1_556 S
C228 C227 1.389 1_554 S
C228 C229 1.387 . S
C229 H214 0.930 . S
C229 C224 1.390 . S
C229 C228 1.387 . S
H230 C242 0.930 . S
H231 C244 0.930 . S
H232 C245 0.930 . S
H233 C249 0.959 . S
H234 C249 0.959 . S
H235 C249 0.961 . S
H236 C250 0.960 . S
H237 C250 0.961 . S
H238 C250 0.959 . S
H239 C253 0.929 . S
H240 C254 0.931 . S
H241 C256 0.930 . S
C242 H230 0.930 . S
C242 C243 1.399 . S
C242 C247 1.399 . S
C243 C242 1.399 . S
C243 C244 1.376 . S
C244 H231 0.930 . S
C244 C243 1.376 . S
C244 C245 1.388 . S
C245 H232 0.930 . S
C245 C244 1.388 . S
C245 C246 1.390 . S
C246 C245 1.390 . S
C246 C247 1.394 . S
C246 C252 1.465 . S
C247 C242 1.399 . S
C247 C246 1.394 . S
C247 C248 1.516 . S
C248 C247 1.516 . S
C248 C249 1.502 . S
C248 C250 1.561 . S
C248 C251 1.526 . S
C249 H233 0.959 . S
C249 H234 0.959 . S
C249 H235 0.961 . S
C249 C248 1.502 . S
C250 H236 0.960 . S
C250 H237 0.961 . S
C250 H238 0.959 . S
C250 C248 1.561 . S
C251 C248 1.526 . S
C251 C252 1.396 . S
C251 C256 1.390 . S
C252 C246 1.465 . S
C252 C251 1.396 . S
C252 C253 1.399 . S
C253 H239 0.929 . S
C253 C252 1.399 . S
C253 C254 1.385 . S
C254 H240 0.931 . S
C254 C253 1.385 . S
C254 C255 1.389 . S
C255 C254 1.389 . S
C255 C256 1.387 . S
C256 H241 0.930 . S
C256 C251 1.390 . S
C256 C255 1.387 . S
H257 C269 0.930 . S
H258 C271 0.930 . S
H259 C272 0.930 . S
H260 C276 0.959 . S
H261 C276 0.959 . S
H262 C276 0.961 . S
H263 C277 0.960 . S
H264 C277 0.961 . S
H265 C277 0.959 . S
H266 C280 0.929 . S
H267 C281 0.931 . S
H268 C283 0.930 . S
C269 H257 0.930 . S
C269 C270 1.399 . S
C269 C274 1.399 . S
C270 C269 1.399 . S
C270 C271 1.376 . S
C271 H258 0.930 . S
C271 C270 1.376 . S
C271 C272 1.388 . S
C272 H259 0.930 . S
C272 C271 1.388 . S
C272 C273 1.390 . S
C273 C272 1.390 . S
C273 C274 1.394 . S
C273 C279 1.465 . S
C274 C269 1.399 . S
C274 C273 1.394 . S
C274 C275 1.516 . S
C275 C274 1.516 . S
C275 C276 1.502 . S
C275 C277 1.561 . S
C275 C278 1.526 . S
C276 H260 0.959 . S
C276 H261 0.959 . S
C276 H262 0.961 . S
C276 C275 1.502 . S
C277 H263 0.960 . S
C277 H264 0.961 . S
C277 H265 0.959 . S
C277 C275 1.561 . S
C278 C275 1.526 . S
C278 C279 1.396 . S
C278 C283 1.390 . S
C279 C273 1.465 . S
C279 C278 1.396 . S
C279 C280 1.399 . S
C280 H266 0.929 . S
C280 C279 1.399 . S
C280 C281 1.385 . S
C281 H267 0.931 . S
C281 C280 1.385 . S
C281 C282 1.389 . S
C282 C281 1.389 . S
C282 C283 1.387 . S
C283 H268 0.930 . S
C283 C278 1.390 . S
C283 C282 1.387 . S
H284 C296 0.930 . S
H285 C298 0.930 . S
H286 C299 0.930 . S
H287 C303 0.959 . S
H288 C303 0.959 . S
H289 C303 0.961 . S
H290 C304 0.960 . S
H291 C304 0.961 . S
H292 C304 0.959 . S
H293 C307 0.929 . S
H294 C308 0.931 . S
H295 C310 0.930 . S
C296 H284 0.930 . S
C296 C297 1.399 . S
C296 C301 1.399 . S
C297 C296 1.399 . S
C297 C298 1.376 . S
C298 H285 0.930 . S
C298 C297 1.376 . S
C298 C299 1.388 . S
C299 H286 0.930 . S
C299 C298 1.388 . S
C299 C300 1.390 . S
C300 C299 1.390 . S
C300 C301 1.394 . S
C300 C306 1.465 . S
C301 C296 1.399 . S
C301 C300 1.394 . S
C301 C302 1.516 . S
C302 C301 1.516 . S
C302 C303 1.502 . S
C302 C304 1.561 . S
C302 C305 1.526 . S
C303 H287 0.959 . S
C303 H288 0.959 . S
C303 H289 0.961 . S
C303 C302 1.502 . S
C304 H290 0.960 . S
C304 H291 0.961 . S
C304 H292 0.959 . S
C304 C302 1.561 . S
C305 C302 1.526 . S
C305 C306 1.396 . S
C305 C310 1.390 . S
C306 C300 1.465 . S
C306 C305 1.396 . S
C306 C307 1.399 . S
C307 H293 0.929 . S
C307 C306 1.399 . S
C307 C308 1.385 . S
C308 H294 0.931 . S
C308 C307 1.385 . S
C308 C309 1.389 . S
C309 C308 1.389 . S
C309 C310 1.387 . S
C310 H295 0.930 . S
C310 C305 1.390 . S
C310 C309 1.387 . S
H311 C323 0.930 . S
H312 C325 0.930 . S
H313 C326 0.930 . S
H314 C330 0.959 . S
H315 C330 0.959 . S
H316 C330 0.961 . S
H317 C331 0.960 . S
H318 C331 0.961 . S
H319 C331 0.959 . S
H320 C334 0.929 . S
H321 C335 0.931 . S
H322 C337 0.930 . S
C323 H311 0.930 . S
C323 C324 1.399 . S
C323 C328 1.399 . S
C324 C323 1.399 . S
C324 C325 1.376 . S
C325 H312 0.930 . S
C325 C324 1.376 . S
C325 C326 1.388 . S
C326 H313 0.930 . S
C326 C325 1.388 . S
C326 C327 1.390 . S
C327 C326 1.390 . S
C327 C328 1.394 . S
C327 C333 1.465 . S
C328 C323 1.399 . S
C328 C327 1.394 . S
C328 C329 1.516 . S
C329 C328 1.516 . S
C329 C330 1.502 . S
C329 C331 1.561 . S
C329 C332 1.526 . S
C330 H314 0.959 . S
C330 H315 0.959 . S
C330 H316 0.961 . S
C330 C329 1.502 . S
C331 H317 0.960 . S
C331 H318 0.961 . S
C331 H319 0.959 . S
C331 C329 1.561 . S
C332 C329 1.526 . S
C332 C333 1.396 . S
C332 C337 1.390 . S
C333 C327 1.465 . S
C333 C332 1.396 . S
C333 C334 1.399 . S
C334 H320 0.929 . S
C334 C333 1.399 . S
C334 C335 1.385 . S
C335 H321 0.931 . S
C335 C334 1.385 . S
C335 C336 1.389 . S
C336 C335 1.389 . S
C336 C337 1.387 . S
C337 H322 0.930 . S
C337 C332 1.390 . S
C337 C336 1.387 . S
H338 C350 0.930 . S
H339 C352 0.930 . S
H340 C353 0.930 . S
H341 C357 0.959 . S
H342 C357 0.959 . S
H343 C357 0.961 . S
H344 C358 0.960 . S
H345 C358 0.961 . S
H346 C358 0.959 . S
H347 C361 0.929 . S
H348 C362 0.931 . S
H349 C364 0.930 . S
C350 H338 0.930 . S
C350 C351 1.399 . S
C350 C355 1.399 . S
C351 C350 1.399 . S
C351 C352 1.376 . S
C352 H339 0.930 . S
C352 C351 1.376 . S
C352 C353 1.388 . S
C353 H340 0.930 . S
C353 C352 1.388 . S
C353 C354 1.390 . S
C354 C353 1.390 . S
C354 C355 1.394 . S
C354 C360 1.465 . S
C355 C350 1.399 . S
C355 C354 1.394 . S
C355 C356 1.516 . S
C356 C355 1.516 . S
C356 C357 1.502 . S
C356 C358 1.561 . S
C356 C359 1.526 . S
C357 H341 0.959 . S
C357 H342 0.959 . S
C357 H343 0.961 . S
C357 C356 1.502 . S
C358 H344 0.960 . S
C358 H345 0.961 . S
C358 H346 0.959 . S
C358 C356 1.561 . S
C359 C356 1.526 . S
C359 C360 1.396 . S
C359 C364 1.390 . S
C360 C354 1.465 . S
C360 C359 1.396 . S
C360 C361 1.399 . S
C361 H347 0.929 . S
C361 C360 1.399 . S
C361 C362 1.385 . S
C362 H348 0.931 . S
C362 C361 1.385 . S
C362 C363 1.389 . S
C363 C362 1.389 . S
C363 C364 1.387 . S
C364 H349 0.930 . S
C364 C359 1.390 . S
C364 C363 1.387 . S
H365 C377 0.930 . S
H366 C379 0.930 . S
H367 C380 0.930 . S
H368 C384 0.959 . S
H369 C384 0.959 . S
H370 C384 0.961 . S
H371 C385 0.960 . S
H372 C385 0.961 . S
H373 C385 0.959 . S
H374 C388 0.929 . S
H375 C389 0.931 . S
H376 C391 0.930 . S
C377 H365 0.930 . S
C377 C378 1.399 . S
C377 C382 1.399 . S
C378 C377 1.399 . S
C378 C379 1.376 . S
C379 H366 0.930 . S
C379 C378 1.376 . S
C379 C380 1.388 . S
C380 H367 0.930 . S
C380 C379 1.388 . S
C380 C381 1.390 . S
C381 C380 1.390 . S
C381 C382 1.394 . S
C381 C387 1.465 . S
C382 C377 1.399 . S
C382 C381 1.394 . S
C382 C383 1.516 . S
C383 C382 1.516 . S
C383 C384 1.502 . S
C383 C385 1.561 . S
C383 C386 1.526 . S
C384 H368 0.959 . S
C384 H369 0.959 . S
C384 H370 0.961 . S
C384 C383 1.502 . S
C385 H371 0.960 . S
C385 H372 0.961 . S
C385 H373 0.959 . S
C385 C383 1.561 . S
C386 C383 1.526 . S
C386 C387 1.396 . S
C386 C391 1.390 . S
C387 C381 1.465 . S
C387 C386 1.396 . S
C387 C388 1.399 . S
C388 H374 0.929 . S
C388 C387 1.399 . S
C388 C389 1.385 . S
C389 H375 0.931 . S
C389 C388 1.385 . S
C389 C390 1.389 . S
C390 C389 1.389 . S
C390 C391 1.387 . S
C391 H376 0.930 . S
C391 C386 1.390 . S
C391 C390 1.387 . S
H392 C404 0.930 . S
H393 C406 0.930 . S
H394 C407 0.930 . S
H395 C411 0.959 . S
H396 C411 0.959 . S
H397 C411 0.961 . S
H398 C412 0.960 . S
H399 C412 0.961 . S
H400 C412 0.959 . S
H401 C415 0.929 . S
H402 C416 0.931 . S
H403 C418 0.930 . S
C404 H392 0.930 . S
C404 C405 1.399 . S
C404 C409 1.399 . S
C405 C404 1.399 . S
C405 C406 1.376 . S
C406 H393 0.930 . S
C406 C405 1.376 . S
C406 C407 1.388 . S
C407 H394 0.930 . S
C407 C406 1.388 . S
C407 C408 1.390 . S
C408 C407 1.390 . S
C408 C409 1.394 . S
C408 C414 1.465 . S
C409 C404 1.399 . S
C409 C408 1.394 . S
C409 C410 1.516 . S
C410 C409 1.516 . S
C410 C411 1.502 . S
C410 C412 1.561 . S
C410 C413 1.526 . S
C411 H395 0.959 . S
C411 H396 0.959 . S
C411 H397 0.961 . S
C411 C410 1.502 . S
C412 H398 0.960 . S
C412 H399 0.961 . S
C412 H400 0.959 . S
C412 C410 1.561 . S
C413 C410 1.526 . S
C413 C414 1.396 . S
C413 C418 1.390 . S
C414 C408 1.465 . S
C414 C413 1.396 . S
C414 C415 1.399 . S
C415 H401 0.929 . S
C415 C414 1.399 . S
C415 C416 1.385 . S
C416 H402 0.931 . S
C416 C415 1.385 . S
C416 C417 1.389 . S
C417 C416 1.389 . S
C417 C418 1.387 . S
C418 H403 0.930 . S
C418 C413 1.390 . S
C418 C417 1.387 . S
H419 C431 0.930 . S
H420 C433 0.930 . S
H421 C434 0.930 . S
H422 C438 0.959 . S
H423 C438 0.959 . S
H424 C438 0.961 . S
H425 C439 0.960 . S
H426 C439 0.961 . S
H427 C439 0.959 . S
H428 C442 0.929 . S
H429 C443 0.931 . S
H430 C445 0.930 . S
C431 H419 0.930 . S
C431 C432 1.399 . S
C431 C436 1.399 . S
C432 C431 1.399 . S
C432 C433 1.376 . S
C433 H420 0.930 . S
C433 C432 1.376 . S
C433 C434 1.388 . S
C434 H421 0.930 . S
C434 C433 1.388 . S
C434 C435 1.390 . S
C435 C434 1.390 . S
C435 C436 1.394 . S
C435 C441 1.465 . S
C436 C431 1.399 . S
C436 C435 1.394 . S
C436 C437 1.516 . S
C437 C436 1.516 . S
C437 C438 1.502 . S
C437 C439 1.561 . S
C437 C440 1.526 . S
C438 H422 0.959 . S
C438 H423 0.959 . S
C438 H424 0.961 . S
C438 C437 1.502 . S
C439 H425 0.960 . S
C439 H426 0.961 . S
C439 H427 0.959 . S
C439 C437 1.561 . S
C440 C437 1.526 . S
C440 C441 1.396 . S
C440 C445 1.390 . S
C441 C435 1.465 . S
C441 C440 1.396 . S
C441 C442 1.399 . S
C442 H428 0.929 . S
C442 C441 1.399 . S
C442 C443 1.385 . S
C443 H429 0.931 . S
C443 C442 1.385 . S
C443 C444 1.389 . S
C444 C443 1.389 . S
C444 C445 1.387 . S
C445 H430 0.930 . S
C445 C440 1.390 . S
C445 C444 1.387 . S
C147 C93 1.529 . S
C135 C68 1.395 . S
C162 C11 1.390 . S
C174 C116 1.530 . S
C189 C30 1.436 . S
C201 C92 1.560 . S
C216 C49 1.426 . S
C228 C115 1.552 . S
C255 C96 1.493 . S
C243 C2 1.512 . S
C282 C118 1.543 . S
C270 C25 1.599 . S
C297 C40 1.522 . S
C309 C97 1.556 . S
C324 C59 1.574 . S
C336 C117 1.516 . S
C363 C120 1.440 . S
C351 C21 1.403 . S
C390 C95 1.400 . S
C378 C44 1.495 . S
C417 C119 1.406 . S
C405 C63 1.467 . S
C432 C6 1.483 . S
C444 C94 1.394 . S
