# Generated by pormake.
# Topology anh, (6,3)-cn, num edge types: 1
# Building blocks:
#     Node 0, Type 0, BuildingBlock: HISSIN_clean_sbu_0, # of connection points: 6
#     Node 1, Type 0, BuildingBlock: HISSIN_clean_sbu_0, # of connection points: 6
#     Node 2, Type 0, BuildingBlock: HISSIN_clean_sbu_0, # of connection points: 6
#     Node 3, Type 1, BuildingBlock: BELTOD_clean_linker_0, # of connection points: 3
#     Node 4, Type 1, BuildingBlock: BELTOD_clean_linker_0, # of connection points: 3
#     Node 5, Type 1, BuildingBlock: BELTOD_clean_linker_0, # of connection points: 3
#     Node 6, Type 1, BuildingBlock: BELTOD_clean_linker_0, # of connection points: 3
#     Node 7, Type 1, BuildingBlock: BELTOD_clean_linker_0, # of connection points: 3
#     Node 8, Type 1, BuildingBlock: BELTOD_clean_linker_0, # of connection points: 3
#     Edge 9, Type (0, 1), BuildingBlock: AJUNOK_clean_linker_0, # of connection points: 2
#     Edge 10, Type (0, 1), BuildingBlock: AJUNOK_clean_linker_0, # of connection points: 2
#     Edge 11, Type (0, 1), BuildingBlock: AJUNOK_clean_linker_0, # of connection points: 2
#     Edge 12, Type (0, 1), BuildingBlock: AJUNOK_clean_linker_0, # of connection points: 2
#     Edge 13, Type (0, 1), BuildingBlock: AJUNOK_clean_linker_0, # of connection points: 2
#     Edge 14, Type (0, 1), BuildingBlock: AJUNOK_clean_linker_0, # of connection points: 2
#     Edge 15, Type (0, 1), BuildingBlock: AJUNOK_clean_linker_0, # of connection points: 2
#     Edge 16, Type (0, 1), BuildingBlock: AJUNOK_clean_linker_0, # of connection points: 2
#     Edge 17, Type (0, 1), BuildingBlock: AJUNOK_clean_linker_0, # of connection points: 2
#     Edge 18, Type (0, 1), BuildingBlock: AJUNOK_clean_linker_0, # of connection points: 2
#     Edge 19, Type (0, 1), BuildingBlock: AJUNOK_clean_linker_0, # of connection points: 2
#     Edge 20, Type (0, 1), BuildingBlock: AJUNOK_clean_linker_0, # of connection points: 2
#     Edge 21, Type (0, 1), BuildingBlock: AJUNOK_clean_linker_0, # of connection points: 2
#     Edge 22, Type (0, 1), BuildingBlock: AJUNOK_clean_linker_0, # of connection points: 2
#     Edge 23, Type (0, 1), BuildingBlock: AJUNOK_clean_linker_0, # of connection points: 2
#     Edge 24, Type (0, 1), BuildingBlock: AJUNOK_clean_linker_0, # of connection points: 2
#     Edge 25, Type (0, 1), BuildingBlock: AJUNOK_clean_linker_0, # of connection points: 2
#     Edge 26, Type (0, 1), BuildingBlock: AJUNOK_clean_linker_0, # of connection points: 2
# Relax obj value: 0.320
# Max RMSD: 0.194
# Mean RMSD: 0.157
data_MOF--net-anh--node1-HISSIN_clean_sbu_0--node2-BELTOD_clean_linker_0--edge1-AJUNOK_clean_linker_0
_symmetry_space_group_name_H-M    P1
_symmetry_Int_Tables_number       1
_symmetry_cell_setting            triclinic
loop_
_symmetry_equiv_pos_as_xyz
'x, y, z'
_cell_length_a     26.105289
_cell_length_b     25.947082
_cell_length_c     47.402023
_cell_angle_alpha  92.940972
_cell_angle_beta   87.391105
_cell_angle_gamma 120.44313
loop_
_atom_site_label
_atom_site_type_symbol
_atom_site_fract_x
_atom_site_fract_y
_atom_site_fract_z
_atom_type_partial_charge
Eu0 Eu 1.04363 0.60499 0.14389 0.0
Eu1 Eu 1.10386 0.73856 0.17208 0.0
C2 C 1.0547 0.62734 0.21075 0.0
C3 C 0.97207 0.43585 0.12711 0.0
C4 C 0.91652 0.38792 0.11934 0.0
C5 C 0.99266 0.3672 0.15039 0.0
C6 C 0.89838 0.33034 0.12767 0.0
C7 C 1.01067 0.42525 0.14226 0.0
C8 C 0.93576 0.31976 0.14372 0.0
C9 C 0.98526 0.49655 0.12173 0.0
O10 O 0.18037 0.7181 0.16983 0.0
O11 O 1.13788 0.62453 0.14779 0.0
C12 C 0.18417 0.67217 0.15866 0.0
O13 O 1.07369 0.66898 0.10747 0.0
O14 O 1.13582 0.79383 0.21047 0.0
O15 O 1.13858 0.83503 0.17143 0.0
O16 O 0.14935 0.74907 0.13026 0.0
C17 C 1.12405 0.72046 0.10688 0.0
O18 O 0.96876 0.62384 0.15494 0.0
O19 O 1.01855 0.72533 0.15356 0.0
O20 O 1.04906 0.67314 0.20547 0.0
O21 O 0.96241 0.51868 0.14015 0.0
O22 O 1.03941 0.53583 0.11404 0.0
O23 O 1.06113 0.59631 0.18953 0.0
C24 C 0.22537 0.87908 0.19897 0.0
C25 C 0.26128 0.89373 0.17422 0.0
C26 C 0.30519 0.88265 0.22478 0.0
C27 C 0.3167 0.89791 0.17443 0.0
C28 C 0.2504 0.87978 0.22472 0.0
C29 C 0.33612 0.88666 0.19923 0.0
C30 C 0.16011 0.84347 0.19673 0.0
C31 C 0.96822 0.67382 0.15257 0.0
H32 H 0.88608 0.39545 0.10783 0.0
H33 H 1.02176 0.35986 0.16306 0.0
H34 H 0.85423 0.29427 0.12244 0.0
H35 H 1.05352 0.46198 0.14871 0.0
H36 H 0.24399 0.89484 0.15406 0.0
H37 H 0.32061 0.87595 0.24435 0.0
H38 H 0.34108 0.90344 0.15467 0.0
H39 H 0.22415 0.86962 0.24418 0.0
Eu40 Eu 0.6541 1.03114 0.48672 0.0
Eu41 Eu 0.574 1.09148 0.48373 0.0
C42 C 0.60531 1.05979 0.54344 0.0
C43 C 0.74027 0.94635 0.49649 0.0
C44 C 0.7133 0.91583 0.52134 0.0
C45 C 0.80869 0.90925 0.49572 0.0
C46 C 0.73473 0.88273 0.53358 0.0
C47 C 0.78707 0.94186 0.48346 0.0
C48 C 0.7837 0.88056 0.52123 0.0
C49 C 0.72628 0.98927 0.48562 0.0
O50 O 0.66766 0.16646 0.47353 0.0
O51 O 0.71829 0.13074 0.49546 0.0
C52 C 0.7174 0.17518 0.48379 0.0
O53 O 0.66649 1.06942 0.44411 0.0
O54 O 0.51376 0.11943 0.50296 0.0
O55 O 0.54783 0.14449 0.46038 0.0
O56 O 0.57133 1.04693 0.441 0.0
C57 C 0.62068 1.05486 0.42879 0.0
O58 O 0.56056 0.95186 0.47696 0.0
O59 O 0.50247 0.99428 0.48672 0.0
O60 O 0.60386 0.10141 0.52928 0.0
O61 O 0.68225 0.96994 0.46833 0.0
O62 O 0.72956 1.03063 0.50352 0.0
O63 O 0.6113 1.01795 0.52981 0.0
C64 C 0.5626 0.22222 0.49258 0.0
C65 C 0.59725 0.26517 0.47236 0.0
C66 C 0.63079 0.28723 0.52879 0.0
C67 C 0.65063 0.3163 0.48001 0.0
C68 C 0.57741 0.23652 0.52123 0.0
C69 C 0.66931 0.32532 0.50798 0.0
C70 C 0.52741 0.15844 0.48337 0.0
C71 C 0.50751 0.94702 0.4802 0.0
H72 H 0.67716 0.9192 0.53166 0.0
H73 H 0.8465 0.90842 0.48581 0.0
H74 H 0.71378 0.85978 0.5529 0.0
H75 H 0.80861 0.96572 0.46439 0.0
H76 H 0.58682 0.25587 0.45015 0.0
H77 H 0.64392 0.29449 0.55066 0.0
H78 H 0.67953 0.34583 0.46373 0.0
H79 H 0.55143 0.20525 0.53753 0.0
Eu80 Eu 0.53916 0.53531 0.82429 0.0
Eu81 Eu 0.67814 0.61044 0.83941 0.0
C82 C 0.5818 0.57445 0.8877 0.0
C83 C 0.40126 0.52947 0.81046 0.0
C84 C 0.36231 0.52999 0.83176 0.0
C85 C 0.4258 0.62917 0.7978 0.0
C86 C 0.35922 0.58171 0.83754 0.0
C87 C 0.42911 0.57768 0.79207 0.0
C88 C 0.39442 0.63298 0.82178 0.0
C89 C 0.4277 0.4916 0.81375 0.0
O90 O 0.65504 0.51192 0.839 0.0
O91 O 0.56131 0.46146 0.82029 0.0
C92 C 0.60938 0.46228 0.82837 0.0
O93 O 0.59079 0.56117 0.78231 0.0
O94 O 0.74811 0.62624 0.86833 0.0
O95 O 0.76605 0.6873 0.83441 0.0
O96 O 0.68001 0.57487 0.79628 0.0
C97 C 0.6426 0.56542 0.77666 0.0
O98 O 0.5613 0.6325 0.82696 0.0
O99 O 0.66197 0.67919 0.81976 0.0
O100 O 0.62624 0.62025 0.87581 0.0
O101 O 0.46637 0.49518 0.79435 0.0
O102 O 0.44681 0.49459 0.83905 0.0
O103 O 0.54603 0.52811 0.87173 0.0
C104 C 0.84789 0.68217 0.8504 0.0
C105 C 0.87975 0.70455 0.82489 0.0
C106 C 0.9379 0.6989 0.87167 0.0
C107 C 0.9408 0.72633 0.82325 0.0
C108 C 0.87703 0.67757 0.8734 0.0
C109 C 0.97054 0.7254 0.84692 0.0
C110 C 0.78798 0.67339 0.85495 0.0
C111 C 0.61222 0.68051 0.82071 0.0
H112 H 0.34034 0.49351 0.84621 0.0
H113 H 0.45209 0.66793 0.78506 0.0
H114 H 0.33454 0.58366 0.85617 0.0
H115 H 0.45909 0.57872 0.77524 0.0
H116 H 0.85842 0.70862 0.80676 0.0
H117 H 0.96011 0.69868 0.89038 0.0
H118 H 0.96529 0.74667 0.804 0.0
H119 H 0.85352 0.66111 0.89333 0.0
P120 P 0.70752 0.90748 0.23526 0.0
H121 H 0.66083 0.87356 0.17733 0.0
H122 H 0.56249 0.84839 0.16138 0.0
H123 H 0.4941 0.80907 0.24709 0.0
H124 H 0.59109 0.83413 0.2627 0.0
H125 H 0.83639 0.98282 0.22617 0.0
H126 H 0.89682 1.07967 0.20369 0.0
H127 H 0.73695 1.06837 0.17467 0.0
H128 H 0.67749 0.97504 0.19824 0.0
H129 H 0.69655 0.8697 0.29375 0.0
H130 H 0.69167 1.00963 0.2506 0.0
O131 O 0.74062 0.86772 0.23914 0.0
H132 H 0.66879 0.90325 0.33829 0.0
H133 H 0.66576 1.04356 0.29473 0.0
C134 C 0.6341 0.86026 0.22151 0.0
C135 C 0.62411 0.85755 0.19249 0.0
C136 C 0.56799 0.84308 0.18336 0.0
C137 C 0.52135 0.82877 0.20316 0.0
C138 C 0.52927 0.82051 0.23133 0.0
C139 C 0.5853 0.83571 0.24039 0.0
C140 C 0.75237 0.97025 0.21309 0.0
C141 C 0.8146 1.00045 0.21424 0.0
C142 C 0.84907 1.05567 0.20138 0.0
C143 C 0.82147 1.08129 0.18738 0.0
C144 C 0.7594 1.04963 0.1853 0.0
C145 C 0.72527 0.99526 0.19833 0.0
C146 C 0.69792 0.93802 0.26886 0.0
C147 C 0.69093 0.90829 0.2939 0.0
C148 C 0.67426 0.92686 0.31917 0.0
C149 C 0.66479 0.97562 0.31969 0.0
C150 C 0.67287 1.00588 0.29479 0.0
C151 C 0.68846 0.98676 0.26956 0.0
P152 P 0.95169 0.65048 0.61888 0.0
H153 H 0.98869 0.64691 0.55991 0.0
H154 H 0.94062 0.56465 0.52505 0.0
H155 H 0.85693 0.44106 0.59268 0.0
H156 H 0.90689 0.52284 0.62722 0.0
H157 H 0.99886 0.78023 0.61734 0.0
H158 H 0.9635 0.83829 0.59383 0.0
H159 H 0.82553 0.67539 0.55458 0.0
H160 H 0.86158 0.61849 0.57727 0.0
H161 H 0.946 0.69317 0.67654 0.0
H162 H 0.82679 0.55424 0.61855 0.0
O163 O 1.01887 0.69067 0.63284 0.0
H164 H 0.86225 0.66805 0.70972 0.0
H165 H 0.74403 0.52801 0.652 0.0
C166 C 0.94759 0.59106 0.59598 0.0
C167 C 0.9623 0.60166 0.5672 0.0
C168 C 0.93455 0.55473 0.54728 0.0
C169 C 0.89241 0.4973 0.55624 0.0
C170 C 0.88801 0.48524 0.58513 0.0
C171 C 0.91632 0.53212 0.60498 0.0
C172 C 0.93379 0.69538 0.5985 0.0
C173 C 0.96192 0.75744 0.60316 0.0
C174 C 0.9412 0.79031 0.59005 0.0
C175 C 0.89147 0.76112 0.57259 0.0
C176 C 0.86425 0.69912 0.56769 0.0
C177 C 0.88502 0.66659 0.58063 0.0
C178 C 0.89344 0.62384 0.64562 0.0
C179 C 0.90242 0.65613 0.67131 0.0
C180 C 0.85456 0.64233 0.69003 0.0
C181 C 0.7971 0.59603 0.68327 0.0
C182 C 0.78814 0.56342 0.65771 0.0
C183 C 0.83574 0.57791 0.63882 0.0
P184 P 0.37494 0.95155 0.93043 0.0
H185 H 0.4608 0.98454 0.88327 0.0
H186 H 0.48141 0.91617 0.85393 0.0
H187 H 0.4188 0.79273 0.92188 0.0
H188 H 0.39914 0.86074 0.95117 0.0
H189 H 0.28287 0.98169 0.92412 0.0
H190 H 0.19209 0.93191 0.89655 0.0
H191 H 0.25757 0.82882 0.85006 0.0
H192 H 0.34477 0.87459 0.87844 0.0
H193 H 0.36327 0.98741 0.98927 0.0
H194 H 0.2855 0.82599 0.93694 0.0
O195 O 0.41197 1.02514 0.93734 0.0
H196 H 0.29911 0.93124 0.02898 0.0
H197 H 0.22342 0.76907 0.97679 0.0
C198 C 0.42524 0.92604 0.91873 0.0
C199 C 0.4551 0.9446 0.89252 0.0
C200 C 0.46638 0.90535 0.87565 0.0
C201 C 0.44956 0.8488 0.88556 0.0
C202 C 0.43084 0.83585 0.91378 0.0
C203 C 0.41926 0.87471 0.93045 0.0
C204 C 0.32151 0.93283 0.90333 0.0
C205 C 0.27865 0.94998 0.9073 0.0
C206 C 0.22685 0.92154 0.89155 0.0
C207 C 0.21769 0.87583 0.87159 0.0
C208 C 0.26325 0.86321 0.86567 0.0
C209 C 0.31407 0.89051 0.88178 0.0
C210 C 0.32957 0.91081 0.96029 0.0
C211 C 0.3327 0.93988 0.98637 0.0
C212 C 0.29596 0.90763 0.00902 0.0
C213 C 0.25574 0.84564 0.00601 0.0
C214 C 0.25267 0.81686 0.9797 0.0
C215 C 0.2888 0.84928 0.95701 0.0
P216 P 1.12093 0.54601 0.41766 0.0
H217 H 0.21157 0.5692 0.45922 0.0
H218 H 0.30091 0.6605 0.47523 0.0
H219 H 0.2477 0.76652 0.43112 0.0
H220 H 0.15817 0.67507 0.41533 0.0
H221 H 1.07629 0.51288 0.47727 0.0
H222 H 0.98196 0.43149 0.49674 0.0
H223 H 0.91252 0.38183 0.41265 0.0
H224 H 1.00519 0.46146 0.39364 0.0
H225 H 0.17662 0.54722 0.3621 0.0
H226 H 1.04264 0.58522 0.39572 0.0
O227 O 0.1516 0.50323 0.41267 0.0
H228 H 0.15863 0.56525 0.31439 0.0
H229 H 1.0229 0.60131 0.34789 0.0
C230 C 0.17743 0.61443 0.4359 0.0
C231 C 0.21827 0.61203 0.4534 0.0
C232 C 0.27016 0.66455 0.46223 0.0
C233 C 0.28288 0.72138 0.45394 0.0
C234 C 0.24 0.72386 0.43786 0.0
C235 C 0.18824 0.67122 0.42888 0.0
C236 C 1.04791 0.49583 0.43396 0.0
C237 C 1.04015 0.48556 0.46314 0.0
C238 C 0.98628 0.43822 0.47422 0.0
C239 C 0.93904 0.39951 0.45631 0.0
C240 C 0.94696 0.41087 0.42728 0.0
C241 C 1.00046 0.45742 0.41633 0.0
C242 C 1.11049 0.56414 0.38257 0.0
C243 C 1.14321 0.55937 0.35927 0.0
C244 C 1.13262 0.56932 0.33189 0.0
C245 C 1.08929 0.58473 0.32715 0.0
C246 C 1.0573 0.59051 0.35068 0.0
C247 C 1.06829 0.581 0.37809 0.0
P248 P 0.64995 1.08841 0.76372 0.0
H249 H 0.68742 0.16273 0.81654 0.0
H250 H 0.67737 0.24777 0.83418 0.0
H251 H 0.55626 0.2139 0.76737 0.0
H252 H 0.56505 0.12814 0.75045 0.0
H253 H 0.64657 0.98517 0.73406 0.0
H254 H 0.6345 0.89128 0.74864 0.0
H255 H 0.59898 0.93077 0.83433 0.0
H256 H 0.61152 1.02637 0.81936 0.0
H257 H 0.71704 0.16726 0.71709 0.0
H258 H 0.54964 1.00391 0.72784 0.0
O259 O 0.72381 0.12532 0.7661 0.0
H260 H 0.70172 0.16041 0.66613 0.0
H261 H 0.53407 0.99681 0.67673 0.0
C262 C 0.62706 0.13809 0.78205 0.0
C263 C 0.65734 0.17241 0.8061 0.0
C264 C 0.65246 0.22217 0.81588 0.0
C265 C 0.61731 0.23959 0.80182 0.0
C266 C 0.58406 0.20268 0.77883 0.0
C267 C 0.5889 0.15294 0.76911 0.0
C268 C 0.62763 1.01285 0.77522 0.0
C269 C 0.63416 0.97334 0.75588 0.0
C270 C 0.62774 0.91921 0.76435 0.0
C271 C 0.61595 0.90263 0.79276 0.0
C272 C 0.60886 0.9419 0.8123 0.0
C273 C 0.61507 0.99644 0.80367 0.0
C274 C 0.63541 1.08508 0.72626 0.0
C275 C 0.67693 0.12985 0.70852 0.0
C276 C 0.66798 0.12612 0.67936 0.0
C277 C 0.61723 1.07748 0.66725 0.0
C278 C 0.5743 1.03412 0.68528 0.0
C279 C 0.58308 1.03819 0.71452 0.0
P280 P 0.54815 0.61434 0.10881 0.0
H281 H 0.59475 0.59685 0.16077 0.0
H282 H 0.69252 0.61419 0.17299 0.0
H283 H 0.76821 0.71199 0.09686 0.0
H284 H 0.67095 0.69547 0.08492 0.0
H285 H 0.4943 0.61793 0.16454 0.0
H286 H 0.41335 0.63667 0.17913 0.0
H287 H 0.41456 0.69508 0.09552 0.0
H288 H 0.49412 0.67629 0.08107 0.0
H289 H 0.59263 0.70112 0.063 0.0
H290 H 0.50438 0.50946 0.06937 0.0
O291 O 0.51059 0.54465 0.12038 0.0
H292 H 0.59657 0.68996 0.01148 0.0
H293 H 0.50903 0.49837 0.01797 0.0
C294 C 0.62402 0.644 0.12165 0.0
C295 C 0.63241 0.62325 0.14692 0.0
C296 C 0.6886 0.63254 0.15373 0.0
C297 C 0.73853 0.6631 0.13553 0.0
C298 C 0.73106 0.68783 0.11134 0.0
C299 C 0.67474 0.67829 0.10447 0.0
C300 C 0.5021 0.64634 0.12168 0.0
C301 C 0.47859 0.63661 0.14953 0.0
C302 C 0.43157 0.64668 0.15782 0.0
C303 C 0.40703 0.66754 0.13858 0.0
C304 C 0.4326 0.68002 0.11116 0.0
C305 C 0.47897 0.66931 0.10283 0.0
C306 C 0.54846 0.60635 0.07035 0.0
C307 C 0.57402 0.65665 0.05341 0.0
C308 C 0.57641 0.6502 0.02392 0.0
C309 C 0.5537 0.59322 0.01061 0.0
C310 C 0.52673 0.5428 0.02752 0.0
C311 C 0.52438 0.54931 0.05704 0.0
C312 C 0.24754 0.62442 0.16259 0.0
C313 C 0.24322 0.67474 0.15647 0.0
C314 C 0.30107 0.62353 0.158 0.0
C315 C 0.35248 0.67219 0.14619 0.0
H316 H 0.20892 0.58502 0.17079 0.0
H317 H 0.30146 0.58334 0.16275 0.0
S318 S 0.36446 0.81391 0.12536 0.0
N319 N 0.29565 0.77452 0.13792 0.0
N320 N 0.39495 0.77225 0.12855 0.0
C321 C 0.34874 0.72281 0.1401 0.0
C322 C 0.29468 0.72424 0.14541 0.0
C323 C 0.774 0.27852 0.46332 0.0
C324 C 0.7739 0.23472 0.47988 0.0
C325 C 0.82677 0.33228 0.45692 0.0
C326 C 0.88251 0.34561 0.46685 0.0
H327 H 0.73303 0.27071 0.45446 0.0
H328 H 0.82396 0.36334 0.44357 0.0
S329 S 0.90727 0.24865 0.51267 0.0
N330 N 0.83498 0.2107 0.50743 0.0
N331 N 0.93353 0.31101 0.49531 0.0
C332 C 0.88285 0.30352 0.48443 0.0
C333 C 0.829 0.24846 0.49088 0.0
C334 C 0.58284 0.73944 0.79104 0.0
C335 C 0.61325 0.73725 0.81432 0.0
C336 C 0.58298 0.79223 0.78466 0.0
C337 C 0.61321 0.84559 0.80138 0.0
H338 H 0.55917 0.70004 0.77741 0.0
H339 H 0.55895 0.79111 0.76639 0.0
S340 S 0.70018 0.86341 0.86481 0.0
N341 N 0.67467 0.79313 0.85413 0.0
N342 N 0.67507 0.89178 0.84242 0.0
C343 C 0.64352 0.84361 0.82488 0.0
C344 C 0.64376 0.7899 0.83118 0.0
C345 C 0.90675 0.72234 0.14268 0.0
C346 C 0.90932 0.67105 0.14908 0.0
C347 C 0.852 0.71973 0.13844 0.0
C348 C 0.79686 0.66593 0.14078 0.0
H349 H 0.94745 0.7649 0.14059 0.0
H350 H 0.85292 0.76048 0.13343 0.0
S351 S 0.77775 0.51816 0.1563 0.0
N352 N 0.85028 0.56416 0.15704 0.0
N353 N 0.74899 0.55971 0.14913 0.0
C354 C 0.79878 0.61446 0.14719 0.0
C355 C 0.85431 0.61691 0.15129 0.0
C356 C 0.39488 0.88314 0.47834 0.0
C357 C 0.45114 0.88771 0.47461 0.0
C358 C 0.34138 0.82976 0.47184 0.0
C359 C 0.34085 0.7776 0.46144 0.0
H360 H 0.39184 0.92145 0.48615 0.0
H361 H 0.29984 0.82937 0.47514 0.0
S362 S 0.47525 0.76497 0.44657 0.0
N363 N 0.50213 0.8343 0.45903 0.0
N364 N 0.40231 0.73481 0.44689 0.0
C365 C 0.39662 0.78126 0.45764 0.0
C366 C 0.45127 0.83581 0.46416 0.0
C367 C 0.56089 0.35039 0.81735 0.0
C368 C 0.61261 0.40563 0.82374 0.0
C369 C 0.56268 0.29746 0.81086 0.0
C370 C 0.61634 0.29651 0.81031 0.0
H371 H 0.51819 0.34784 0.81712 0.0
H372 H 0.52133 0.25676 0.80618 0.0
S373 S 0.76548 0.42929 0.8238 0.0
N374 N 0.71979 0.45567 0.82828 0.0
N375 N 0.7233 0.3573 0.81581 0.0
C376 C 0.66849 0.35141 0.81668 0.0
C377 C 0.66662 0.40538 0.82341 0.0
C378 C 0.82418 0.81154 0.51901 0.0
C379 C 0.81041 0.85019 0.53507 0.0
C380 C 0.85151 0.78397 0.53122 0.0
C381 C 0.86617 0.79407 0.55994 0.0
H382 H 0.8134 0.80222 0.49684 0.0
H383 H 0.8612 0.75441 0.51807 0.0
S384 S 0.84011 0.89191 0.61111 0.0
N385 N 0.81475 0.89842 0.581 0.0
N386 N 0.86447 0.84488 0.60423 0.0
C387 C 0.85287 0.83276 0.57625 0.0
C388 C 0.82517 0.86104 0.56378 0.0
C389 C 1.06565 0.82167 0.84245 0.0
C390 C 1.03594 0.76014 0.84768 0.0
C391 C 1.12563 0.85879 0.84892 0.0
C392 C 0.15777 0.83534 0.86053 0.0
H393 H 1.0415 0.84189 0.83495 0.0
H394 H 0.14637 0.9064 0.84585 0.0
S395 S 1.10125 0.67616 0.87582 0.0
N396 N 1.04371 0.6766 0.863 0.0
N397 N 0.15639 0.74622 0.87555 0.0
C398 C 1.12933 0.77326 0.86433 0.0
C399 C 1.06834 0.73565 0.85781 0.0
C400 C 0.43859 0.90704 0.18625 0.0
C401 C 0.38176 0.86897 0.19768 0.0
C402 C 0.48255 0.89115 0.18587 0.0
C403 C 0.4708 0.83649 0.19668 0.0
H404 H 0.44969 0.95018 0.17856 0.0
H405 H 0.52698 0.92349 0.17865 0.0
S406 S 0.32581 0.71699 0.2242 0.0
N407 N 0.31363 0.77127 0.21668 0.0
N408 N 0.39635 0.74143 0.21581 0.0
C409 C 0.41289 0.79635 0.20624 0.0
C410 C 0.36835 0.81263 0.20682 0.0
C411 C 0.76703 0.35178 0.52725 0.0
C412 C 0.73082 0.37031 0.51536 0.0
C413 C 0.82259 0.39352 0.53807 0.0
C414 C 0.84346 0.45517 0.53761 0.0
H415 H 0.75123 0.30458 0.52914 0.0
H416 H 0.84786 0.37742 0.5483 0.0
S417 S 0.76624 0.526 0.50711 0.0
N418 N 0.72075 0.45349 0.50186 0.0
N419 N 0.82442 0.53253 0.5229 0.0
C420 C 0.80895 0.47416 0.52419 0.0
C421 C 0.75267 0.43152 0.51292 0.0
C422 C 0.4676 0.73423 0.84077 0.0
C423 C 0.40839 0.69219 0.8338 0.0
C424 C 0.48181 0.787 0.85634 0.0
C425 C 0.43694 0.79876 0.86558 0.0
H426 H 0.50263 0.7245 0.83562 0.0
H427 H 0.52743 0.81718 0.86229 0.0
S428 S 0.27585 0.70522 0.85164 0.0
N429 N 0.30542 0.6676 0.83609 0.0
N430 N 0.33173 0.76635 0.86578 0.0
C431 C 0.37796 0.75828 0.85794 0.0
C432 C 0.36367 0.70489 0.842 0.0
C433 C 0.86243 0.24043 0.1747 0.0
C434 C 0.91178 0.26071 0.15614 0.0
C435 C 0.83498 0.18301 0.18527 0.0
C436 C 0.85546 0.14338 0.17746 0.0
H437 H 0.84444 0.26906 0.18081 0.0
H438 H 0.79679 0.1692 0.19943 0.0
S439 S 0.9841 0.17578 0.12973 0.0
N440 N 0.98142 0.23815 0.13086 0.0
N441 N 0.92896 0.12898 0.15044 0.0
C442 C 0.90589 0.16369 0.15948 0.0
C443 C 0.93422 0.22269 0.14884 0.0
C444 C 0.21621 0.79177 0.08093 0.0
C445 C 0.15534 0.74814 0.08006 0.0
C446 C 0.24787 0.82211 0.05691 0.0
C447 C 0.22011 0.81097 0.03082 0.0
H448 H 0.24004 0.80315 0.10047 0.0
H449 H 0.29474 0.85464 0.05886 0.0
S450 S 1.06115 0.7022 0.01698 0.0
N451 N 1.0683 0.69514 0.05079 0.0
N452 N 1.12758 0.75364 0.00546 0.0
C453 C 0.15926 0.76716 0.02941 0.0
C454 C 1.12695 0.73549 0.05403 0.0
C455 C 0.67426 1.07535 0.38265 0.0
C456 C 0.62381 1.03776 0.39905 0.0
C457 C 0.68597 1.05539 0.3565 0.0
C458 C 0.64848 0.9966 0.34629 0.0
H459 H 0.706 0.11983 0.39058 0.0
H460 H 0.72598 1.08532 0.34474 0.0
S461 S 0.50981 0.8812 0.38093 0.0
N462 N 0.53492 0.93998 0.40295 0.0
N463 N 0.55764 0.90175 0.35391 0.0
C464 C 0.597 0.95903 0.36213 0.0
C465 C 0.5844 0.97986 0.3885 0.0
C466 C 0.69107 0.61737 0.73277 0.0
C467 C 0.66376 0.56421 0.7477 0.0
C468 C 0.73225 0.62631 0.71077 0.0
C469 C 0.74676 0.5821 0.70303 0.0
H470 H 0.68453 0.65413 0.73971 0.0
H471 H 0.75511 0.66912 0.70072 0.0
S472 S 0.68413 0.43373 0.73457 0.0
N473 N 0.65148 0.46591 0.75251 0.0
N474 N 0.72782 0.48201 0.71069 0.0
C475 C 0.71657 0.52721 0.71651 0.0
C476 C 0.67524 0.51845 0.73903 0.0
C477 C 0.61491 0.11468 0.59032 0.0
C478 C 0.6047 1.06228 0.5751 0.0
C479 C 0.61827 0.11913 0.62002 0.0
C480 C 0.61063 1.07108 0.63584 0.0
H481 H 0.62165 0.15317 0.5792 0.0
H482 H 0.62705 0.16063 0.63071 0.0
S483 S 0.5822 0.92368 0.60662 0.0
N484 N 0.58626 0.96087 0.57858 0.0
N485 N 0.59248 0.96951 0.63404 0.0
C486 C 0.59943 1.01818 0.62099 0.0
C487 C 0.59653 1.01373 0.59079 0.0
C488 C 0.51941 0.54127 0.93294 0.0
C489 C 0.57466 0.57655 0.91913 0.0
C490 C 0.51273 0.54632 0.96253 0.0
C491 C 0.56101 0.58684 0.97937 0.0
H492 H 0.48087 0.51051 0.92079 0.0
H493 H 0.46921 0.51914 0.97223 0.0
S494 S 0.71664 0.68339 0.95418 0.0
N495 N 0.67969 0.64953 0.92525 0.0
N496 N 0.66686 0.65838 0.98027 0.0
C497 C 0.61674 0.62058 0.96591 0.0
C498 C 0.62361 0.61558 0.936 0.0
C499 C 1.0639 0.56495 0.24731 0.0
C500 C 1.05922 0.61477 0.24079 0.0
C501 C 1.07299 0.55524 0.27518 0.0
C502 C 1.07795 0.59497 0.29778 0.0
H503 H 1.06119 0.53341 0.23073 0.0
H504 H 1.07617 0.51619 0.27904 0.0
S505 S 1.07164 0.7338 0.29221 0.0
N506 N 1.0612 0.70494 0.25971 0.0
N507 N 1.07954 0.68721 0.31148 0.0
C508 C 1.07332 0.64487 0.29159 0.0
C509 C 1.0637 0.65463 0.26333 0.0
loop_
_geom_bond_atom_site_label_1
_geom_bond_atom_site_label_2
_geom_bond_distance
_geom_bond_site_symmetry_2
_ccdc_geom_bond_type
Eu0 C9 2.828 . S
Eu0 O11 2.392 1_655 S
Eu0 O13 2.418 . S
Eu0 O18 2.373 . S
Eu0 O21 2.488 . S
Eu0 O22 2.471 . S
Eu0 O23 2.349 . S
Eu1 O10 2.373 . S
Eu1 O14 2.488 . S
Eu1 O15 2.471 . S
Eu1 O16 2.349 . S
Eu1 O19 2.392 1_455 S
Eu1 O20 2.418 . S
Eu1 C30 2.828 . S
C2 O20 1.244 . S
C2 O23 1.265 1_455 S
C3 C4 1.379 . S
C3 C7 1.373 . S
C3 C9 1.505 . S
C4 C3 1.379 . S
C4 C6 1.369 . S
C4 H32 0.930 . S
C5 C7 1.383 . S
C5 C8 1.382 . S
C5 H33 0.930 . S
C6 C4 1.369 . S
C6 C8 1.392 . S
C6 H34 0.930 . S
C7 C3 1.373 . S
C7 C5 1.383 . S
C7 H35 0.931 . S
C8 C5 1.382 . S
C8 C6 1.392 . S
C9 Eu0 2.828 . S
C9 C3 1.505 . S
C9 O21 1.249 . S
C9 O22 1.244 . S
O10 Eu1 2.373 . S
O10 C12 1.258 . S
O11 Eu0 2.392 1_455 S
O11 C12 1.242 . S
C12 O10 1.258 . S
C12 O11 1.242 . S
O13 Eu0 2.418 . S
O13 C17 1.244 . S
O14 Eu1 2.488 . S
O14 C30 1.249 . S
O15 Eu1 2.471 . S
O15 C30 1.244 . S
O16 Eu1 2.349 . S
O16 C17 1.265 1_455 S
C17 O13 1.244 . S
C17 O16 1.265 1_655 S
O18 Eu0 2.373 . S
O18 C31 1.258 . S
O19 Eu1 2.392 1_655 S
O19 C31 1.242 . S
O20 Eu1 2.418 . S
O20 C2 1.244 . S
O21 Eu0 2.488 . S
O21 C9 1.249 . S
O22 Eu0 2.471 . S
O22 C9 1.244 . S
O23 Eu0 2.349 . S
O23 C2 1.265 1_655 S
C24 C25 1.379 . S
C24 C28 1.373 . S
C24 C30 1.505 . S
C25 C24 1.379 . S
C25 C27 1.369 . S
C25 H36 0.930 . S
C26 C28 1.383 . S
C26 C29 1.382 . S
C26 H37 0.930 . S
C27 C25 1.369 . S
C27 C29 1.392 . S
C27 H38 0.930 . S
C28 C24 1.373 . S
C28 C26 1.383 . S
C28 H39 0.931 . S
C29 C26 1.382 . S
C29 C27 1.392 . S
C30 Eu1 2.828 . S
C30 O14 1.249 . S
C30 O15 1.244 . S
C30 C24 1.505 . S
C31 O18 1.258 . S
C31 O19 1.242 . S
H32 C4 0.930 . S
H33 C5 0.930 . S
H34 C6 0.930 . S
H35 C7 0.931 . S
H36 C25 0.930 . S
H37 C26 0.930 . S
H38 C27 0.930 . S
H39 C28 0.931 . S
Eu40 C49 2.828 . S
Eu40 O51 2.392 1_565 S
Eu40 O53 2.418 . S
Eu40 O58 2.373 . S
Eu40 O61 2.488 . S
Eu40 O62 2.471 . S
Eu40 O63 2.349 . S
Eu41 O50 2.373 . S
Eu41 O54 2.488 . S
Eu41 O55 2.471 . S
Eu41 O56 2.349 . S
Eu41 O59 2.392 1_545 S
Eu41 O60 2.418 . S
Eu41 C70 2.828 . S
C42 O60 1.244 . S
C42 O63 1.265 1_545 S
C43 C44 1.379 . S
C43 C47 1.373 . S
C43 C49 1.505 . S
C44 C43 1.379 . S
C44 C46 1.369 . S
C44 H72 0.930 . S
C45 C47 1.383 . S
C45 C48 1.382 . S
C45 H73 0.930 . S
C46 C44 1.369 . S
C46 C48 1.392 . S
C46 H74 0.930 . S
C47 C43 1.373 . S
C47 C45 1.383 . S
C47 H75 0.931 . S
C48 C45 1.382 . S
C48 C46 1.392 . S
C49 Eu40 2.828 . S
C49 C43 1.505 . S
C49 O61 1.249 . S
C49 O62 1.244 . S
O50 Eu41 2.373 . S
O50 C52 1.258 . S
O51 Eu40 2.392 1_545 S
O51 C52 1.242 . S
C52 O50 1.258 . S
C52 O51 1.242 . S
O53 Eu40 2.418 . S
O53 C57 1.244 1_565 S
O54 Eu41 2.488 . S
O54 C70 1.249 . S
O55 Eu41 2.471 . S
O55 C70 1.244 . S
O56 Eu41 2.349 . S
O56 C57 1.265 . S
C57 O53 1.244 1_545 S
C57 O56 1.265 . S
O58 Eu40 2.373 . S
O58 C71 1.258 . S
O59 Eu41 2.392 1_565 S
O59 C71 1.242 . S
O60 Eu41 2.418 . S
O60 C42 1.244 . S
O61 Eu40 2.488 . S
O61 C49 1.249 . S
O62 Eu40 2.471 . S
O62 C49 1.244 . S
O63 Eu40 2.349 . S
O63 C42 1.265 1_565 S
C64 C65 1.379 . S
C64 C68 1.373 . S
C64 C70 1.505 . S
C65 C64 1.379 . S
C65 C67 1.369 . S
C65 H76 0.930 . S
C66 C68 1.383 . S
C66 C69 1.382 . S
C66 H77 0.930 . S
C67 C65 1.369 . S
C67 C69 1.392 . S
C67 H78 0.930 . S
C68 C64 1.373 . S
C68 C66 1.383 . S
C68 H79 0.931 . S
C69 C66 1.382 . S
C69 C67 1.392 . S
C70 Eu41 2.828 . S
C70 O54 1.249 . S
C70 O55 1.244 . S
C70 C64 1.505 . S
C71 O58 1.258 . S
C71 O59 1.242 . S
H72 C44 0.930 . S
H73 C45 0.930 . S
H74 C46 0.930 . S
H75 C47 0.931 . S
H76 C65 0.930 . S
H77 C66 0.930 . S
H78 C67 0.930 . S
H79 C68 0.931 . S
Eu80 C89 2.828 . S
Eu80 O91 2.392 . S
Eu80 O93 2.418 . S
Eu80 O98 2.373 . S
Eu80 O101 2.488 . S
Eu80 O102 2.471 . S
Eu80 O103 2.349 . S
Eu81 O90 2.373 . S
Eu81 O94 2.488 . S
Eu81 O95 2.471 . S
Eu81 O96 2.349 . S
Eu81 O99 2.392 . S
Eu81 O100 2.418 . S
Eu81 C110 2.828 . S
C82 O100 1.244 . S
C82 O103 1.265 . S
C83 C84 1.379 . S
C83 C87 1.373 . S
C83 C89 1.505 . S
C84 C83 1.379 . S
C84 C86 1.369 . S
C84 H112 0.930 . S
C85 C87 1.383 . S
C85 C88 1.382 . S
C85 H113 0.930 . S
C86 C84 1.369 . S
C86 C88 1.392 . S
C86 H114 0.930 . S
C87 C83 1.373 . S
C87 C85 1.383 . S
C87 H115 0.931 . S
C88 C85 1.382 . S
C88 C86 1.392 . S
C89 Eu80 2.828 . S
C89 C83 1.505 . S
C89 O101 1.249 . S
C89 O102 1.244 . S
O90 Eu81 2.373 . S
O90 C92 1.258 . S
O91 Eu80 2.392 . S
O91 C92 1.242 . S
C92 O90 1.258 . S
C92 O91 1.242 . S
O93 Eu80 2.418 . S
O93 C97 1.244 . S
O94 Eu81 2.488 . S
O94 C110 1.249 . S
O95 Eu81 2.471 . S
O95 C110 1.244 . S
O96 Eu81 2.349 . S
O96 C97 1.265 . S
C97 O93 1.244 . S
C97 O96 1.265 . S
O98 Eu80 2.373 . S
O98 C111 1.258 . S
O99 Eu81 2.392 . S
O99 C111 1.242 . S
O100 Eu81 2.418 . S
O100 C82 1.244 . S
O101 Eu80 2.488 . S
O101 C89 1.249 . S
O102 Eu80 2.471 . S
O102 C89 1.244 . S
O103 Eu80 2.349 . S
O103 C82 1.265 . S
C104 C105 1.379 . S
C104 C108 1.373 . S
C104 C110 1.505 . S
C105 C104 1.379 . S
C105 C107 1.369 . S
C105 H116 0.930 . S
C106 C108 1.383 . S
C106 C109 1.382 . S
C106 H117 0.930 . S
C107 C105 1.369 . S
C107 C109 1.392 . S
C107 H118 0.930 . S
C108 C104 1.373 . S
C108 C106 1.383 . S
C108 H119 0.931 . S
C109 C106 1.382 . S
C109 C107 1.392 . S
C110 Eu81 2.828 . S
C110 O94 1.249 . S
C110 O95 1.244 . S
C110 C104 1.505 . S
C111 O98 1.258 . S
C111 O99 1.242 . S
H112 C84 0.930 . S
H113 C85 0.930 . S
H114 C86 0.930 . S
H115 C87 0.931 . S
H116 C105 0.930 . S
H117 C106 0.930 . S
H118 C107 0.930 . S
H119 C108 0.931 . S
P120 O131 1.490 . S
P120 C134 1.812 . S
P120 C140 1.803 1_565 S
P120 C146 1.819 1_565 S
H121 C135 0.941 . S
H122 C136 0.939 . S
H123 C138 0.940 . S
H124 C139 0.940 . S
H125 C141 0.939 . S
H126 C142 0.942 . S
H127 C144 0.940 . S
H128 C145 0.939 . S
H129 C147 0.941 . S
H130 C151 0.939 . S
O131 P120 1.490 . S
H132 C148 0.939 . S
H133 C150 0.940 . S
C134 P120 1.812 . S
C134 C135 1.389 . S
C134 C139 1.391 . S
C135 H121 0.941 . S
C135 C134 1.389 . S
C135 C136 1.397 . S
C136 H122 0.939 . S
C136 C135 1.397 . S
C136 C137 1.378 . S
C137 C136 1.378 . S
C137 C138 1.378 . S
C138 H123 0.940 . S
C138 C137 1.378 . S
C138 C139 1.396 . S
C139 H124 0.940 . S
C139 C134 1.391 . S
C139 C138 1.396 . S
C140 P120 1.803 1_545 S
C140 C141 1.378 . S
C140 C145 1.400 . S
C141 H125 0.939 . S
C141 C140 1.378 . S
C141 C142 1.361 . S
C142 H126 0.942 . S
C142 C141 1.361 . S
C142 C143 1.369 . S
C143 C142 1.369 . S
C143 C144 1.404 . S
C144 H127 0.940 . S
C144 C143 1.404 . S
C144 C145 1.389 . S
C145 H128 0.939 . S
C145 C140 1.400 . S
C145 C144 1.389 . S
C146 P120 1.819 1_545 S
C146 C147 1.391 1_545 S
C146 C151 1.391 . S
C147 H129 0.941 . S
C147 C146 1.391 1_565 S
C147 C148 1.396 . S
C148 H132 0.939 . S
C148 C147 1.396 . S
C148 C149 1.397 1_565 S
C149 C148 1.397 1_545 S
C149 C150 1.385 . S
C150 H133 0.940 . S
C150 C149 1.385 . S
C150 C151 1.388 . S
C151 H130 0.939 . S
C151 C146 1.391 . S
C151 C150 1.388 . S
P152 O163 1.490 . S
P152 C166 1.812 . S
P152 C172 1.803 . S
P152 C178 1.819 . S
H153 C167 0.941 . S
H154 C168 0.939 . S
H155 C170 0.940 . S
H156 C171 0.940 . S
H157 C173 0.939 . S
H158 C174 0.942 . S
H159 C176 0.940 . S
H160 C177 0.939 . S
H161 C179 0.941 . S
H162 C183 0.939 . S
O163 P152 1.490 . S
H164 C180 0.939 . S
H165 C182 0.940 . S
C166 P152 1.812 . S
C166 C167 1.389 . S
C166 C171 1.391 . S
C167 H153 0.941 . S
C167 C166 1.389 . S
C167 C168 1.397 . S
C168 H154 0.939 . S
C168 C167 1.397 . S
C168 C169 1.378 . S
C169 C168 1.378 . S
C169 C170 1.378 . S
C170 H155 0.940 . S
C170 C169 1.378 . S
C170 C171 1.396 . S
C171 H156 0.940 . S
C171 C166 1.391 . S
C171 C170 1.396 . S
C172 P152 1.803 . S
C172 C173 1.378 . S
C172 C177 1.400 . S
C173 H157 0.939 . S
C173 C172 1.378 . S
C173 C174 1.361 . S
C174 H158 0.942 . S
C174 C173 1.361 . S
C174 C175 1.369 . S
C175 C174 1.369 . S
C175 C176 1.404 . S
C176 H159 0.940 . S
C176 C175 1.404 . S
C176 C177 1.389 . S
C177 H160 0.939 . S
C177 C172 1.400 . S
C177 C176 1.389 . S
C178 P152 1.819 . S
C178 C179 1.391 . S
C178 C183 1.391 . S
C179 H161 0.941 . S
C179 C178 1.391 . S
C179 C180 1.396 . S
C180 H164 0.939 . S
C180 C179 1.396 . S
C180 C181 1.397 . S
C181 C180 1.397 . S
C181 C182 1.385 . S
C182 H165 0.940 . S
C182 C181 1.385 . S
C182 C183 1.388 . S
C183 H162 0.939 . S
C183 C178 1.391 . S
C183 C182 1.388 . S
P184 O195 1.490 . S
P184 C198 1.812 . S
P184 C204 1.803 . S
P184 C210 1.819 . S
H185 C199 0.941 . S
H186 C200 0.939 . S
H187 C202 0.940 . S
H188 C203 0.940 . S
H189 C205 0.939 1_455 S
H190 C206 0.942 . S
H191 C208 0.940 . S
H192 C209 0.929 1_455 S
H193 C211 0.941 . S
H194 C215 0.939 1_655 S
O195 P184 1.490 . S
H196 C212 0.951 . S
H197 C214 0.940 1_655 S
C198 P184 1.812 . S
C198 C199 1.389 . S
C198 C203 1.391 . S
C199 H185 0.941 . S
C199 C198 1.389 . S
C199 C200 1.397 . S
C200 H186 0.939 . S
C200 C199 1.397 . S
C200 C201 1.378 . S
C201 C200 1.378 . S
C201 C202 1.378 . S
C202 H187 0.940 . S
C202 C201 1.378 . S
C202 C203 1.396 . S
C203 H188 0.940 . S
C203 C198 1.391 . S
C203 C202 1.396 . S
C204 P184 1.803 . S
C204 C205 1.378 1_455 S
C204 C209 1.400 1_455 S
C205 H189 0.939 1_655 S
C205 C204 1.378 1_655 S
C205 C206 1.361 . S
C206 H190 0.942 . S
C206 C205 1.361 . S
C206 C207 1.369 . S
C207 C206 1.369 . S
C207 C208 1.404 . S
C208 H191 0.940 . S
C208 C207 1.404 . S
C208 C209 1.389 . S
C209 H192 0.929 1_655 S
C209 C204 1.400 1_655 S
C209 C208 1.389 . S
C210 P184 1.819 . S
C210 C211 1.391 . S
C210 C215 1.391 . S
C211 H193 0.941 . S
C211 C210 1.391 . S
C211 C212 1.380 1_556 S
C212 H196 0.951 . S
C212 C211 1.380 1_554 S
C212 C213 1.402 . S
C213 C212 1.402 . S
C213 C214 1.385 1_554 S
C214 H197 0.940 1_455 S
C214 C213 1.385 1_556 S
C214 C215 1.388 . S
C215 H194 0.939 1_455 S
C215 C210 1.391 . S
C215 C214 1.388 . S
P216 O227 1.490 . S
P216 C230 1.812 . S
P216 C236 1.803 1_455 S
P216 C242 1.819 . S
H217 C231 0.941 . S
H218 C232 0.939 . S
H219 C234 0.940 . S
H220 C235 0.940 . S
H221 C237 0.939 . S
H222 C238 0.942 . S
H223 C240 0.940 . S
H224 C241 0.939 . S
H225 C243 0.941 . S
H226 C247 0.939 . S
O227 P216 1.490 . S
H228 C244 0.939 . S
H229 C246 0.940 . S
C230 P216 1.812 . S
C230 C231 1.389 . S
C230 C235 1.391 . S
C231 H217 0.941 . S
C231 C230 1.389 . S
C231 C232 1.397 . S
C232 H218 0.939 . S
C232 C231 1.397 . S
C232 C233 1.378 . S
C233 C232 1.378 . S
C233 C234 1.378 . S
C234 H219 0.940 . S
C234 C233 1.378 . S
C234 C235 1.396 . S
C235 H220 0.940 . S
C235 C230 1.391 . S
C235 C234 1.396 . S
C236 P216 1.803 1_655 S
C236 C237 1.378 . S
C236 C241 1.400 . S
C237 H221 0.939 . S
C237 C236 1.378 . S
C237 C238 1.361 . S
C238 H222 0.942 . S
C238 C237 1.361 . S
C238 C239 1.369 . S
C239 C238 1.369 . S
C239 C240 1.404 . S
C240 H223 0.940 . S
C240 C239 1.404 . S
C240 C241 1.389 . S
C241 H224 0.939 . S
C241 C236 1.400 . S
C241 C240 1.389 . S
C242 P216 1.819 . S
C242 C243 1.391 . S
C242 C247 1.391 1_455 S
C243 H225 0.941 . S
C243 C242 1.391 . S
C243 C244 1.396 . S
C244 H228 0.939 . S
C244 C243 1.396 . S
C244 C245 1.397 . S
C245 C244 1.397 . S
C245 C246 1.385 1_455 S
C246 H229 0.940 . S
C246 C245 1.385 1_655 S
C246 C247 1.388 . S
C247 H226 0.939 . S
C247 C242 1.391 1_655 S
C247 C246 1.388 . S
P248 O259 1.490 . S
P248 C262 1.812 . S
P248 C268 1.803 1_545 S
P248 C274 1.819 . S
H249 C263 0.941 . S
H250 C264 0.939 . S
H251 C266 0.940 . S
H252 C267 0.940 . S
H253 C269 0.939 . S
H254 C270 0.942 . S
H255 C272 0.940 . S
H256 C273 0.939 . S
H257 C275 0.941 . S
H258 C279 0.939 . S
O259 P248 1.490 . S
H260 C276 0.939 . S
H261 C278 0.940 . S
C262 P248 1.812 . S
C262 C263 1.389 . S
C262 C267 1.391 . S
C263 H249 0.941 . S
C263 C262 1.389 . S
C263 C264 1.397 . S
C264 H250 0.939 . S
C264 C263 1.397 . S
C264 C265 1.378 . S
C265 C264 1.378 . S
C265 C266 1.378 . S
C266 H251 0.940 . S
C266 C265 1.378 . S
C266 C267 1.396 . S
C267 H252 0.940 . S
C267 C262 1.391 . S
C267 C266 1.396 . S
C268 P248 1.803 1_565 S
C268 C269 1.378 . S
C268 C273 1.400 . S
C269 H253 0.939 . S
C269 C268 1.378 . S
C269 C270 1.361 . S
C270 H254 0.942 . S
C270 C269 1.361 . S
C270 C271 1.369 . S
C271 C270 1.369 . S
C271 C272 1.404 . S
C272 H255 0.940 . S
C272 C271 1.404 . S
C272 C273 1.389 . S
C273 H256 0.939 . S
C273 C268 1.400 . S
C273 C272 1.389 . S
C274 P248 1.819 . S
C274 C275 1.391 . S
C274 C279 1.391 1_545 S
C275 H257 0.941 . S
C275 C274 1.391 . S
C275 C276 1.396 . S
C276 H260 0.939 . S
C276 C275 1.396 . S
C276 C277 1.397 . S
C277 C276 1.397 . S
C277 C278 1.385 1_545 S
C278 H261 0.940 . S
C278 C277 1.385 1_565 S
C278 C279 1.388 . S
C279 H258 0.939 . S
C279 C274 1.391 1_565 S
C279 C278 1.388 . S
P280 O291 1.490 . S
P280 C294 1.812 . S
P280 C300 1.803 . S
P280 C306 1.819 . S
H281 C295 0.941 . S
H282 C296 0.939 . S
H283 C298 0.940 . S
H284 C299 0.940 . S
H285 C301 0.939 . S
H286 C302 0.942 . S
H287 C304 0.940 . S
H288 C305 0.939 . S
H289 C307 0.941 . S
H290 C311 0.939 . S
O291 P280 1.490 . S
H292 C308 0.939 . S
H293 C310 0.940 . S
C294 P280 1.812 . S
C294 C295 1.389 . S
C294 C299 1.391 . S
C295 H281 0.941 . S
C295 C294 1.389 . S
C295 C296 1.397 . S
C296 H282 0.939 . S
C296 C295 1.397 . S
C296 C297 1.378 . S
C297 C296 1.378 . S
C297 C298 1.378 . S
C298 H283 0.940 . S
C298 C297 1.378 . S
C298 C299 1.396 . S
C299 H284 0.940 . S
C299 C294 1.391 . S
C299 C298 1.396 . S
C300 P280 1.803 . S
C300 C301 1.378 . S
C300 C305 1.400 . S
C301 H285 0.939 . S
C301 C300 1.378 . S
C301 C302 1.361 . S
C302 H286 0.942 . S
C302 C301 1.361 . S
C302 C303 1.369 . S
C303 C302 1.369 . S
C303 C304 1.404 . S
C304 H287 0.940 . S
C304 C303 1.404 . S
C304 C305 1.389 . S
C305 H288 0.939 . S
C305 C300 1.400 . S
C305 C304 1.389 . S
C306 P280 1.819 . S
C306 C307 1.391 . S
C306 C311 1.391 . S
C307 H289 0.941 . S
C307 C306 1.391 . S
C307 C308 1.396 . S
C308 H292 0.939 . S
C308 C307 1.396 . S
C308 C309 1.397 . S
C309 C308 1.397 . S
C309 C310 1.385 . S
C310 H293 0.940 . S
C310 C309 1.385 . S
C310 C311 1.388 . S
C311 H290 0.939 . S
C311 C306 1.391 . S
C311 C310 1.388 . S
C312 C313 1.369 . S
C312 C314 1.419 . S
C312 H316 0.930 . S
C313 C312 1.369 . S
C313 C322 1.429 . S
C314 C312 1.419 . S
C314 C315 1.363 . S
C314 H317 0.929 . S
C315 C314 1.363 . S
C315 C321 1.428 . S
H316 C312 0.930 . S
H317 C314 0.929 . S
S318 N319 1.613 . S
S318 N320 1.610 . S
N319 S318 1.613 . S
N319 C322 1.350 . S
N320 S318 1.610 . S
N320 C321 1.351 . S
C321 C315 1.428 . S
C321 N320 1.351 . S
C321 C322 1.434 . S
C322 C313 1.429 . S
C322 N319 1.350 . S
C322 C321 1.434 . S
C323 C324 1.369 . S
C323 C325 1.419 . S
C323 H327 0.930 . S
C324 C323 1.369 . S
C324 C333 1.429 . S
C325 C323 1.419 . S
C325 C326 1.363 . S
C325 H328 0.929 . S
C326 C325 1.363 . S
C326 C332 1.428 . S
H327 C323 0.930 . S
H328 C325 0.929 . S
S329 N330 1.613 . S
S329 N331 1.610 . S
N330 S329 1.613 . S
N330 C333 1.350 . S
N331 S329 1.610 . S
N331 C332 1.351 . S
C332 C326 1.428 . S
C332 N331 1.351 . S
C332 C333 1.434 . S
C333 C324 1.429 . S
C333 N330 1.350 . S
C333 C332 1.434 . S
C334 C335 1.369 . S
C334 C336 1.419 . S
C334 H338 0.930 . S
C335 C334 1.369 . S
C335 C344 1.429 . S
C336 C334 1.419 . S
C336 C337 1.363 . S
C336 H339 0.929 . S
C337 C336 1.363 . S
C337 C343 1.428 . S
H338 C334 0.930 . S
H339 C336 0.929 . S
S340 N341 1.613 . S
S340 N342 1.610 . S
N341 S340 1.613 . S
N341 C344 1.350 . S
N342 S340 1.610 . S
N342 C343 1.351 . S
C343 C337 1.428 . S
C343 N342 1.351 . S
C343 C344 1.434 . S
C344 C335 1.429 . S
C344 N341 1.350 . S
C344 C343 1.434 . S
C345 C346 1.369 . S
C345 C347 1.419 . S
C345 H349 0.930 . S
C346 C345 1.369 . S
C346 C355 1.429 . S
C347 C345 1.419 . S
C347 C348 1.363 . S
C347 H350 0.929 . S
C348 C347 1.363 . S
C348 C354 1.428 . S
H349 C345 0.930 . S
H350 C347 0.929 . S
S351 N352 1.613 . S
S351 N353 1.610 . S
N352 S351 1.613 . S
N352 C355 1.350 . S
N353 S351 1.610 . S
N353 C354 1.351 . S
C354 C348 1.428 . S
C354 N353 1.351 . S
C354 C355 1.434 . S
C355 C346 1.429 . S
C355 N352 1.350 . S
C355 C354 1.434 . S
C356 C357 1.369 . S
C356 C358 1.419 . S
C356 H360 0.930 . S
C357 C356 1.369 . S
C357 C366 1.429 . S
C358 C356 1.419 . S
C358 C359 1.363 . S
C358 H361 0.929 . S
C359 C358 1.363 . S
C359 C365 1.428 . S
H360 C356 0.930 . S
H361 C358 0.929 . S
S362 N363 1.613 . S
S362 N364 1.610 . S
N363 S362 1.613 . S
N363 C366 1.350 . S
N364 S362 1.610 . S
N364 C365 1.351 . S
C365 C359 1.428 . S
C365 N364 1.351 . S
C365 C366 1.434 . S
C366 C357 1.429 . S
C366 N363 1.350 . S
C366 C365 1.434 . S
C367 C368 1.369 . S
C367 C369 1.419 . S
C367 H371 0.930 . S
C368 C367 1.369 . S
C368 C377 1.429 . S
C369 C367 1.419 . S
C369 C370 1.363 . S
C369 H372 0.929 . S
C370 C369 1.363 . S
C370 C376 1.428 . S
H371 C367 0.930 . S
H372 C369 0.929 . S
S373 N374 1.613 . S
S373 N375 1.610 . S
N374 S373 1.613 . S
N374 C377 1.350 . S
N375 S373 1.610 . S
N375 C376 1.351 . S
C376 C370 1.428 . S
C376 N375 1.351 . S
C376 C377 1.434 . S
C377 C368 1.429 . S
C377 N374 1.350 . S
C377 C376 1.434 . S
C378 C379 1.369 . S
C378 C380 1.419 . S
C378 H382 0.930 . S
C379 C378 1.369 . S
C379 C388 1.429 . S
C380 C378 1.419 . S
C380 C381 1.363 . S
C380 H383 0.929 . S
C381 C380 1.363 . S
C381 C387 1.428 . S
H382 C378 0.930 . S
H383 C380 0.929 . S
S384 N385 1.613 . S
S384 N386 1.610 . S
N385 S384 1.613 . S
N385 C388 1.350 . S
N386 S384 1.610 . S
N386 C387 1.351 . S
C387 C381 1.428 . S
C387 N386 1.351 . S
C387 C388 1.434 . S
C388 C379 1.429 . S
C388 N385 1.350 . S
C388 C387 1.434 . S
C389 C390 1.369 . S
C389 C391 1.419 . S
C389 H393 0.930 . S
C390 C389 1.369 . S
C390 C399 1.429 . S
C391 C389 1.419 . S
C391 C392 1.363 . S
C391 H394 0.929 . S
C392 C391 1.363 . S
C392 C398 1.428 . S
H393 C389 0.930 . S
H394 C391 0.929 . S
S395 N396 1.613 . S
S395 N397 1.610 . S
N396 S395 1.613 . S
N396 C399 1.350 . S
N397 S395 1.610 . S
N397 C398 1.351 . S
C398 C392 1.428 . S
C398 N397 1.351 . S
C398 C399 1.434 . S
C399 C390 1.429 . S
C399 N396 1.350 . S
C399 C398 1.434 . S
C400 C401 1.369 . S
C400 C402 1.419 . S
C400 H404 0.930 . S
C401 C400 1.369 . S
C401 C410 1.429 . S
C402 C400 1.419 . S
C402 C403 1.363 . S
C402 H405 0.929 . S
C403 C402 1.363 . S
C403 C409 1.428 . S
H404 C400 0.930 . S
H405 C402 0.929 . S
S406 N407 1.613 . S
S406 N408 1.610 . S
N407 S406 1.613 . S
N407 C410 1.350 . S
N408 S406 1.610 . S
N408 C409 1.351 . S
C409 C403 1.428 . S
C409 N408 1.351 . S
C409 C410 1.434 . S
C410 C401 1.429 . S
C410 N407 1.350 . S
C410 C409 1.434 . S
C411 C412 1.369 . S
C411 C413 1.419 . S
C411 H415 0.930 . S
C412 C411 1.369 . S
C412 C421 1.429 . S
C413 C411 1.419 . S
C413 C414 1.363 . S
C413 H416 0.929 . S
C414 C413 1.363 . S
C414 C420 1.428 . S
H415 C411 0.930 . S
H416 C413 0.929 . S
S417 N418 1.613 . S
S417 N419 1.610 . S
N418 S417 1.613 . S
N418 C421 1.350 . S
N419 S417 1.610 . S
N419 C420 1.351 . S
C420 C414 1.428 . S
C420 N419 1.351 . S
C420 C421 1.434 . S
C421 C412 1.429 . S
C421 N418 1.350 . S
C421 C420 1.434 . S
C422 C423 1.369 . S
C422 C424 1.419 . S
C422 H426 0.930 . S
C423 C422 1.369 . S
C423 C432 1.429 . S
C424 C422 1.419 . S
C424 C425 1.363 . S
C424 H427 0.929 . S
C425 C424 1.363 . S
C425 C431 1.428 . S
H426 C422 0.930 . S
H427 C424 0.929 . S
S428 N429 1.613 . S
S428 N430 1.610 . S
N429 S428 1.613 . S
N429 C432 1.350 . S
N430 S428 1.610 . S
N430 C431 1.351 . S
C431 C425 1.428 . S
C431 N430 1.351 . S
C431 C432 1.434 . S
C432 C423 1.429 . S
C432 N429 1.350 . S
C432 C431 1.434 . S
C433 C434 1.369 . S
C433 C435 1.419 . S
C433 H437 0.930 . S
C434 C433 1.369 . S
C434 C443 1.429 . S
C435 C433 1.419 . S
C435 C436 1.363 . S
C435 H438 0.929 . S
C436 C435 1.363 . S
C436 C442 1.428 . S
H437 C433 0.930 . S
H438 C435 0.929 . S
S439 N440 1.613 . S
S439 N441 1.610 . S
N440 S439 1.613 . S
N440 C443 1.350 . S
N441 S439 1.610 . S
N441 C442 1.351 . S
C442 C436 1.428 . S
C442 N441 1.351 . S
C442 C443 1.434 . S
C443 C434 1.429 . S
C443 N440 1.350 . S
C443 C442 1.434 . S
C444 C445 1.369 . S
C444 C446 1.419 . S
C444 H448 0.930 . S
C445 C444 1.369 . S
C445 C454 1.429 1_455 S
C446 C444 1.419 . S
C446 C447 1.363 . S
C446 H449 0.929 . S
C447 C446 1.363 . S
C447 C453 1.428 1_455 S
H448 C444 0.930 . S
H449 C446 0.929 . S
S450 N451 1.613 . S
S450 N452 1.610 . S
N451 S450 1.613 . S
N451 C454 1.350 . S
N452 S450 1.610 . S
N452 C453 1.351 . S
C453 C447 1.428 1_655 S
C453 N452 1.351 . S
C453 C454 1.434 . S
C454 C445 1.429 1_655 S
C454 N451 1.350 . S
C454 C453 1.434 . S
C455 C456 1.369 . S
C455 C457 1.419 . S
C455 H459 0.930 . S
C456 C455 1.369 . S
C456 C465 1.429 1_545 S
C457 C455 1.419 . S
C457 C458 1.363 . S
C457 H460 0.929 . S
C458 C457 1.363 . S
C458 C464 1.424 1_545 S
H459 C455 0.930 . S
H460 C457 0.929 . S
S461 N462 1.613 . S
S461 N463 1.610 . S
N462 S461 1.613 . S
N462 C465 1.350 . S
N463 S461 1.610 . S
N463 C464 1.351 . S
C464 C458 1.424 1_565 S
C464 N463 1.351 . S
C464 C465 1.440 . S
C465 C456 1.429 1_565 S
C465 N462 1.350 . S
C465 C464 1.440 . S
C466 C467 1.369 . S
C466 C468 1.419 . S
C466 H470 0.930 . S
C467 C466 1.369 . S
C467 C476 1.429 . S
C468 C466 1.419 . S
C468 C469 1.363 . S
C468 H471 0.929 . S
C469 C468 1.363 . S
C469 C475 1.428 . S
H470 C466 0.930 . S
H471 C468 0.929 . S
S472 N473 1.613 . S
S472 N474 1.610 . S
N473 S472 1.613 . S
N473 C476 1.350 . S
N474 S472 1.610 . S
N474 C475 1.351 . S
C475 C469 1.428 . S
C475 N474 1.351 . S
C475 C476 1.434 . S
C476 C467 1.429 . S
C476 N473 1.350 . S
C476 C475 1.434 . S
C477 C478 1.369 . S
C477 C479 1.419 . S
C477 H481 0.930 . S
C478 C477 1.369 . S
C478 C487 1.429 1_545 S
C479 C477 1.419 . S
C479 C480 1.363 . S
C479 H482 0.929 . S
C480 C479 1.363 . S
C480 C486 1.428 1_545 S
H481 C477 0.930 . S
H482 C479 0.929 . S
S483 N484 1.613 . S
S483 N485 1.610 . S
N484 S483 1.613 . S
N484 C487 1.350 . S
N485 S483 1.610 . S
N485 C486 1.351 . S
C486 C480 1.428 1_565 S
C486 N485 1.351 . S
C486 C487 1.434 . S
C487 C478 1.429 1_565 S
C487 N484 1.350 . S
C487 C486 1.434 . S
C488 C489 1.369 . S
C488 C490 1.419 . S
C488 H492 0.930 . S
C489 C488 1.369 . S
C489 C498 1.429 . S
C490 C488 1.419 . S
C490 C491 1.363 . S
C490 H493 0.929 . S
C491 C490 1.363 . S
C491 C497 1.428 . S
H492 C488 0.930 . S
H493 C490 0.929 . S
S494 N495 1.613 . S
S494 N496 1.610 . S
N495 S494 1.613 . S
N495 C498 1.350 . S
N496 S494 1.610 . S
N496 C497 1.351 . S
C497 C491 1.428 . S
C497 N496 1.351 . S
C497 C498 1.434 . S
C498 C489 1.429 . S
C498 N495 1.350 . S
C498 C497 1.434 . S
C499 C500 1.369 1_455 S
C499 C501 1.419 . S
C499 H503 0.930 . S
C500 C499 1.369 1_655 S
C500 C509 1.429 . S
C501 C499 1.419 . S
C501 C502 1.363 . S
C501 H504 0.929 . S
C502 C501 1.363 . S
C502 C508 1.428 1_455 S
H503 C499 0.930 . S
H504 C501 0.929 . S
S505 N506 1.613 . S
S505 N507 1.610 . S
N506 S505 1.613 . S
N506 C509 1.350 . S
N507 S505 1.610 . S
N507 C508 1.351 . S
C508 C502 1.428 1_655 S
C508 N507 1.351 . S
C508 C509 1.434 . S
C509 C500 1.429 . S
C509 N506 1.350 . S
C509 C508 1.434 . S
C313 C12 2.988 . S
C315 C303 2.915 . S
C324 C52 3.014 . S
C326 C239 2.951 . S
C335 C111 3.052 . S
C337 C271 2.982 . S
C346 C31 3.164 . S
C348 C297 3.086 . S
C359 C233 3.056 . S
C357 C71 3.139 . S
C370 C265 3.021 . S
C368 C92 3.097 . S
C379 C48 0.749 . S
C381 C175 0.778 . S
C390 C109 0.791 . S
C392 C207 0.812 . S
C401 C29 0.740 . S
C403 C137 0.745 . S
C414 C169 0.695 . S
C412 C69 0.717 . S
C425 C201 0.576 . S
C423 C88 0.613 . S
C434 C8 0.602 . S
C436 C143 0.600 . S
C447 C213 1.039 . S
C445 C17 1.037 1_455 S
C456 C57 1.017 . S
C458 C149 0.984 . S
C467 C97 1.049 . S
C469 C181 1.052 . S
C480 C277 1.766 . S
C478 C42 1.743 . S
C491 C309 1.768 1_556 S
C489 C82 1.747 . S
C500 C2 1.756 1_655 S
C502 C245 1.778 . S
