# Generated by pormake.
# Topology eea, (3,6)-cn, num edge types: 1
# Building blocks:
#     Node 0, Type 0, BuildingBlock: BETDAH_clean_linker_0, # of connection points: 3
#     Node 1, Type 0, BuildingBlock: BETDAH_clean_linker_0, # of connection points: 3
#     Node 2, Type 0, BuildingBlock: BETDAH_clean_linker_0, # of connection points: 3
#     Node 3, Type 0, BuildingBlock: BETDAH_clean_linker_0, # of connection points: 3
#     Node 4, Type 0, BuildingBlock: BETDAH_clean_linker_0, # of connection points: 3
#     Node 5, Type 0, BuildingBlock: BETDAH_clean_linker_0, # of connection points: 3
#     Node 6, Type 0, BuildingBlock: BETDAH_clean_linker_0, # of connection points: 3
#     Node 7, Type 0, BuildingBlock: BETDAH_clean_linker_0, # of connection points: 3
#     Node 8, Type 0, BuildingBlock: BETDAH_clean_linker_0, # of connection points: 3
#     Node 9, Type 0, BuildingBlock: BETDAH_clean_linker_0, # of connection points: 3
#     Node 10, Type 0, BuildingBlock: BETDAH_clean_linker_0, # of connection points: 3
#     Node 11, Type 0, BuildingBlock: BETDAH_clean_linker_0, # of connection points: 3
#     Node 12, Type 0, BuildingBlock: BETDAH_clean_linker_0, # of connection points: 3
#     Node 13, Type 0, BuildingBlock: BETDAH_clean_linker_0, # of connection points: 3
#     Node 14, Type 0, BuildingBlock: BETDAH_clean_linker_0, # of connection points: 3
#     Node 15, Type 0, BuildingBlock: BETDAH_clean_linker_0, # of connection points: 3
#     Node 16, Type 0, BuildingBlock: BETDAH_clean_linker_0, # of connection points: 3
#     Node 17, Type 0, BuildingBlock: BETDAH_clean_linker_0, # of connection points: 3
#     Node 18, Type 1, BuildingBlock: KUMBUR_clean_sbu_0, # of connection points: 6
#     Node 19, Type 1, BuildingBlock: KUMBUR_clean_sbu_0, # of connection points: 6
#     Node 20, Type 1, BuildingBlock: KUMBUR_clean_sbu_0, # of connection points: 6
#     Node 21, Type 1, BuildingBlock: KUMBUR_clean_sbu_0, # of connection points: 6
#     Node 22, Type 1, BuildingBlock: KUMBUR_clean_sbu_0, # of connection points: 6
#     Node 23, Type 1, BuildingBlock: KUMBUR_clean_sbu_0, # of connection points: 6
#     Node 24, Type 1, BuildingBlock: KUMBUR_clean_sbu_0, # of connection points: 6
#     Node 25, Type 1, BuildingBlock: KUMBUR_clean_sbu_0, # of connection points: 6
#     Node 26, Type 1, BuildingBlock: KUMBUR_clean_sbu_0, # of connection points: 6
#     Edge 27, Type (0, 1), None
#     Edge 28, Type (0, 1), None
#     Edge 29, Type (0, 1), None
#     Edge 30, Type (0, 1), None
#     Edge 31, Type (0, 1), None
#     Edge 32, Type (0, 1), None
#     Edge 33, Type (0, 1), None
#     Edge 34, Type (0, 1), None
#     Edge 35, Type (0, 1), None
#     Edge 36, Type (0, 1), None
#     Edge 37, Type (0, 1), None
#     Edge 38, Type (0, 1), None
#     Edge 39, Type (0, 1), None
#     Edge 40, Type (0, 1), None
#     Edge 41, Type (0, 1), None
#     Edge 42, Type (0, 1), None
#     Edge 43, Type (0, 1), None
#     Edge 44, Type (0, 1), None
#     Edge 45, Type (0, 1), None
#     Edge 46, Type (0, 1), None
#     Edge 47, Type (0, 1), None
#     Edge 48, Type (0, 1), None
#     Edge 49, Type (0, 1), None
#     Edge 50, Type (0, 1), None
#     Edge 51, Type (0, 1), None
#     Edge 52, Type (0, 1), None
#     Edge 53, Type (0, 1), None
#     Edge 54, Type (0, 1), None
#     Edge 55, Type (0, 1), None
#     Edge 56, Type (0, 1), None
#     Edge 57, Type (0, 1), None
#     Edge 58, Type (0, 1), None
#     Edge 59, Type (0, 1), None
#     Edge 60, Type (0, 1), None
#     Edge 61, Type (0, 1), None
#     Edge 62, Type (0, 1), None
#     Edge 63, Type (0, 1), None
#     Edge 64, Type (0, 1), None
#     Edge 65, Type (0, 1), None
#     Edge 66, Type (0, 1), None
#     Edge 67, Type (0, 1), None
#     Edge 68, Type (0, 1), None
#     Edge 69, Type (0, 1), None
#     Edge 70, Type (0, 1), None
#     Edge 71, Type (0, 1), None
#     Edge 72, Type (0, 1), None
#     Edge 73, Type (0, 1), None
#     Edge 74, Type (0, 1), None
#     Edge 75, Type (0, 1), None
#     Edge 76, Type (0, 1), None
#     Edge 77, Type (0, 1), None
#     Edge 78, Type (0, 1), None
#     Edge 79, Type (0, 1), None
#     Edge 80, Type (0, 1), None
# Relax obj value: 0.026
# Max RMSD: 0.236
# Mean RMSD: 0.162
data_MOF--net-eea--node1-KUMBUR_clean_sbu_0--node2-BETDAH_clean_linker_0--edge1-none
_symmetry_space_group_name_H-M    P1
_symmetry_Int_Tables_number       1
_symmetry_cell_setting            triclinic
loop_
_symmetry_equiv_pos_as_xyz
'x, y, z'
_cell_length_a     23.797431
_cell_length_b     24.882479
_cell_length_c     36.165676
_cell_angle_alpha  90.18619
_cell_angle_beta   90.200247
_cell_angle_gamma 120.68425
loop_
_atom_site_label
_atom_site_type_symbol
_atom_site_fract_x
_atom_site_fract_y
_atom_site_fract_z
_atom_type_partial_charge
H0 H 0.29445 0.04392 0.44079 0.0
H1 H 0.24321 0.18555 0.42835 0.0
H2 H 0.15472 0.02354 0.35785 0.0
C3 C 0.26622 0.06101 0.4269 0.0
C4 C 0.22502 0.02741 0.3968 0.0
C5 C 0.27284 0.11792 0.43857 0.0
C6 C 0.23761 0.14123 0.41995 0.0
C7 C 0.19501 0.10668 0.39068 0.0
C8 C 0.18894 0.05024 0.37967 0.0
N9 N 0.15633 0.12573 0.3714 0.0
C10 C 0.15891 0.18237 0.37499 0.0
H11 H 0.95516 0.26746 0.44255 0.0
H12 H 0.83057 0.06807 0.43651 0.0
H13 H 0.97657 0.1651 0.35293 0.0
C14 C 0.94101 0.22388 0.42838 0.0
C15 C 0.97195 0.2242 0.39494 0.0
C16 C 0.89238 0.1681 0.44458 0.0
C17 C 0.87018 0.11106 0.42533 0.0
C18 C 0.89965 0.11028 0.3915 0.0
C19 C 0.95188 0.16659 0.3776 0.0
N20 N 0.88039 0.05465 0.37056 0.0
C21 C 0.82388 -0.00432 0.37356 0.0
H22 H 0.74586 0.71388 0.43556 0.0
H23 H 0.94711 0.76962 0.43732 0.0
H24 H 0.87133 0.83216 0.34857 0.0
C25 C 0.79341 0.74212 0.42311 0.0
C26 C 0.80019 0.77443 0.38968 0.0
C27 C 0.84571 0.74207 0.44093 0.0
C28 C 0.90754 0.77247 0.42445 0.0
C29 C 0.91794 0.80503 0.39099 0.0
C30 C 0.86406 0.80713 0.37413 0.0
N31 N 0.98147 0.83559 0.3739 0.0
C32 C 0.03431 0.82576 0.38089 0.0
H33 H 0.02856 0.27253 0.61208 0.0
H34 H 0.17831 0.22684 0.61337 0.0
H35 H 0.0422 0.17123 0.70461 0.0
C36 C 0.0492 0.24792 0.62577 0.0
C37 C 0.02572 0.22048 0.66087 0.0
C38 C 0.10253 0.24952 0.60818 0.0
C39 C 0.13521 0.223 0.62598 0.0
C40 C 0.11369 0.19376 0.66069 0.0
C41 C 0.05829 0.19223 0.67777 0.0
N42 N 0.14693 0.16668 0.67942 0.0
C43 C 0.20782 0.17215 0.67108 0.0
H44 H 0.76817 0.77428 0.60295 0.0
H45 H 0.71779 0.9146 0.61777 0.0
H46 H 0.79731 0.86425 0.70901 0.0
C47 C 0.76889 0.80997 0.62022 0.0
C48 C 0.78732 0.81514 0.65805 0.0
C49 C 0.74255 0.84438 0.60535 0.0
C50 C 0.74111 0.88969 0.62783 0.0
C51 C 0.76323 0.89815 0.66472 0.0
C52 C 0.78562 0.8606 0.67981 0.0
N53 N 0.75251 0.93652 0.68878 0.0
C54 C 0.78542 0.0007 0.68497 0.0
H55 H 0.23192 0.96537 0.60753 0.0
H56 H 0.04866 0.79834 0.62607 0.0
H57 H 0.11205 0.95608 0.69926 0.0
C58 C 0.18746 0.94112 0.62354 0.0
C59 C 0.17926 0.96926 0.65553 0.0
C60 C 0.14091 0.87994 0.61296 0.0
C61 C 0.08367 0.84618 0.63384 0.0
C62 C 0.07263 0.87309 0.66518 0.0
C63 C 0.12071 0.93482 0.6757 0.0
N64 N 0.01521 0.83862 0.68724 0.0
C65 C 0.96053 0.78049 0.6777 0.0
H66 H 0.96421 0.38006 0.7744 0.0
H67 H 0.91303 0.52164 0.76082 0.0
H68 H 0.82324 0.35797 0.69176 0.0
C69 C 0.93599 0.397 0.76035 0.0
C70 C 0.89408 0.36254 0.73057 0.0
C71 C 0.94311 0.45448 0.77148 0.0
C72 C 0.90744 0.47719 0.75274 0.0
C73 C 0.86423 0.44186 0.72387 0.0
C74 C 0.85791 0.38516 0.7133 0.0
N75 N 0.82504 0.46032 0.70463 0.0
C76 C 0.82689 0.51659 0.70829 0.0
H77 H 0.62107 0.60086 0.77565 0.0
H78 H 0.49695 0.40143 0.76955 0.0
H79 H 0.6438 0.49865 0.68643 0.0
C80 C 0.60712 0.5573 0.7615 0.0
C81 C 0.63848 0.55768 0.72825 0.0
C82 C 0.55843 0.50148 0.77759 0.0
C83 C 0.53658 0.44447 0.75842 0.0
C84 C 0.56643 0.44376 0.72475 0.0
C85 C 0.61875 0.5001 0.71095 0.0
N86 N 0.54745 0.38812 0.7039 0.0
C87 C 0.49084 0.32925 0.70686 0.0
H88 H 0.4134 0.048 0.76919 0.0
H89 H 0.61533 0.10573 0.77043 0.0
H90 H 0.53741 0.16642 0.68187 0.0
C91 C 0.46082 0.07645 0.75664 0.0
C92 C 0.46704 0.1085 0.72319 0.0
C93 C 0.51357 0.077 0.77433 0.0
C94 C 0.57537 0.10808 0.75771 0.0
C95 C 0.58507 0.14051 0.72422 0.0
C96 C 0.53065 0.14164 0.70747 0.0
N97 N 0.64821 0.17168 0.70672 0.0
C98 C 0.70358 0.16642 0.7148 0.0
H99 H 0.69473 0.60496 0.94573 0.0
H100 H 0.84205 0.55596 0.94678 0.0
H101 H 0.70411 0.49937 0.03717 0.0
C102 C 0.71453 0.57944 0.95924 0.0
C103 C 0.69005 0.55112 0.99403 0.0
C104 C 0.76758 0.58045 0.94168 0.0
C105 C 0.79913 0.55262 0.95932 0.0
C106 C 0.77653 0.52242 0.99374 0.0
C107 C 0.72127 0.52136 1.01068 0.0
N108 N 0.80837 0.49366 1.01223 0.0
C109 C 0.86936 0.49903 1.00425 0.0
H110 H 0.43433 0.10792 0.93604 0.0
H111 H 0.38424 0.24827 0.952 0.0
H112 H 0.46352 0.19641 0.04258 0.0
C113 C 0.43521 0.14349 0.95351 0.0
C114 C 0.45369 0.1482 0.99132 0.0
C115 C 0.40906 0.17829 0.93897 0.0
C116 C 0.40755 0.22321 0.9618 0.0
C117 C 0.4293 0.2308 0.99873 0.0
C118 C 0.45187 0.19321 1.0134 0.0
N119 N 0.41803 0.26816 0.02328 0.0
C120 C 0.4468 0.33189 1.01871 0.0
H121 H 0.90037 0.2945 0.94219 0.0
H122 H 0.71559 0.12903 0.95969 0.0
H123 H 0.7781 0.28785 0.03199 0.0
C124 C 0.85556 0.27078 0.95792 0.0
C125 C 0.84678 0.29964 0.9894 0.0
C126 C 0.8088 0.20976 0.94728 0.0
C127 C 0.75091 0.17669 0.96762 0.0
C128 C 0.73922 0.2043 0.99837 0.0
C129 C 0.78738 0.26602 1.00894 0.0
N130 N 0.68059 0.17076 0.01954 0.0
C131 C 0.62789 0.11081 1.01109 0.0
H132 H 0.62896 0.71121 0.10655 0.0
H133 H 0.57585 0.85166 0.09535 0.0
H134 H 0.48682 0.68957 0.02482 0.0
C135 C 0.60027 0.72805 0.09293 0.0
C136 C 0.55837 0.69409 0.0631 0.0
C137 C 0.6067 0.78477 0.10483 0.0
C138 C 0.57069 0.80763 0.08666 0.0
C139 C 0.52739 0.77276 0.0577 0.0
C140 C 0.52155 0.71652 0.04641 0.0
N141 N 0.48707 0.79093 0.03948 0.0
C142 C 0.49259 0.84901 0.04149 0.0
H143 H 0.2889 0.93272 0.1097 0.0
H144 H 0.16212 0.73379 0.10156 0.0
H145 H 0.30932 0.83199 0.01881 0.0
C146 C 0.27437 0.88943 0.09508 0.0
C147 C 0.30516 0.89031 0.06147 0.0
C148 C 0.22517 0.83342 0.11079 0.0
C149 C 0.20235 0.77686 0.09085 0.0
C150 C 0.23184 0.77673 0.05689 0.0
C151 C 0.28463 0.83311 0.04354 0.0
N152 N 0.21166 0.72187 0.03499 0.0
C153 C 0.15599 0.66246 0.03833 0.0
H154 H 0.07837 0.37973 0.10188 0.0
H155 H 0.28079 0.43892 0.10328 0.0
H156 H 0.20221 0.49901 1.01477 0.0
C157 C 0.12584 0.40842 0.0894 0.0
C158 C 0.13199 0.44059 0.05601 0.0
C159 C 0.17879 0.40943 0.10716 0.0
C160 C 0.24063 0.44092 0.09055 0.0
C161 C 0.25012 0.47336 0.05706 0.0
C162 C 0.19556 0.47412 0.04033 0.0
N163 N 0.31319 0.50501 0.03953 0.0
C164 C 0.36883 0.50024 0.04755 0.0
H165 H 0.36165 0.93858 0.27821 0.0
H166 H 0.51173 0.89334 0.28012 0.0
H167 H 0.37493 0.83754 0.37104 0.0
C168 C 0.38236 0.91415 0.29206 0.0
C169 C 0.35868 0.88674 0.32712 0.0
C170 C 0.43591 0.91589 0.27469 0.0
C171 C 0.46851 0.88943 0.29261 0.0
C172 C 0.44676 0.86013 0.32728 0.0
C173 C 0.39121 0.85857 0.34421 0.0
N174 N 0.47995 0.83307 0.34611 0.0
C175 C 0.54072 0.83829 0.33771 0.0
H176 H 0.10109 0.44085 0.26925 0.0
H177 H 0.05099 0.58134 0.2844 0.0
H178 H 0.13073 0.5307 0.37538 0.0
C179 C 0.10193 0.47656 0.28655 0.0
C180 C 0.12046 0.48166 0.32437 0.0
C181 C 0.07573 0.51115 0.27176 0.0
C182 C 0.07428 0.55637 0.29437 0.0
C183 C 0.09646 0.56469 0.33127 0.0
C184 C 0.11891 0.52711 0.34621 0.0
N185 N 0.08581 0.60297 0.35547 0.0
C186 C 0.11957 0.66725 0.35214 0.0
H187 H 0.56585 0.63083 0.27439 0.0
H188 H 0.38273 0.46377 0.29322 0.0
H189 H 0.44498 0.6227 0.36527 0.0
C190 C 0.52135 0.60668 0.29036 0.0
C191 C 0.51277 0.63528 0.32201 0.0
C192 C 0.47504 0.54523 0.28009 0.0
C193 C 0.41762 0.51173 0.30082 0.0
C194 C 0.40615 0.53911 0.33175 0.0
C195 C 0.45401 0.60106 0.34204 0.0
N196 N 0.34842 0.50493 0.3536 0.0
C197 C 0.29387 0.44671 0.34406 0.0
Tb198 Tb 0.44648 0.9718 0.97624 0.0
C199 C 0.57339 0.1433 0.11849 0.0
C200 C 0.67069 0.14021 0.13393 0.0
C201 C 0.64572 0.20998 0.16773 0.0
C202 C 0.61281 0.11841 0.11307 0.0
C203 C 0.58944 0.18959 0.14585 0.0
C204 C 0.68635 0.18534 0.16175 0.0
C205 C 0.48653 0.18326 0.13301 0.0
N206 N 0.5152 0.11646 0.10036 0.0
C207 C 0.47151 0.13547 0.10742 0.0
C208 C 0.54515 0.20936 0.15292 0.0
Tb209 Tb 0.48344 0.02218 0.07321 0.0
N210 N 0.59209 0.06995 0.08905 0.0
C211 C 0.63077 0.04508 0.08199 0.0
C212 C 0.71 0.11458 0.12701 0.0
C213 C 0.69067 0.06785 0.10025 0.0
H214 H 0.42374 0.11169 0.09449 0.0
H215 H 0.72087 0.04787 0.09452 0.0
H216 H 0.7299 0.20175 0.17859 0.0
H217 H 0.45135 0.19742 0.13886 0.0
H218 H 0.61606 0.00733 0.0625 0.0
H219 H 0.20018 0.93638 0.97713 0.0
H220 H 0.75522 0.13048 0.14215 0.0
H221 H 0.50541 0.88982 0.94032 0.0
H222 H 0.31479 0.99054 0.993 0.0
H223 H 0.46671 0.80136 0.89647 0.0
H224 H 0.65806 0.24448 0.1894 0.0
H225 H 0.15096 0.8392 0.94025 0.0
H226 H 0.16647 0.7631 0.90346 0.0
H227 H 0.55444 0.24238 0.17502 0.0
H228 H 0.23947 0.72958 0.87942 0.0
N229 N 0.33436 0.92299 0.96796 0.0
C230 C 0.29609 0.94755 0.97772 0.0
C231 C 0.20205 0.86187 0.94816 0.0
C232 C 0.24108 0.83788 0.93704 0.0
C233 C 0.22969 0.91679 0.96877 0.0
C234 C 0.30733 0.86867 0.94841 0.0
H235 H 0.35064 0.74056 0.87854 0.0
N236 N 0.41086 0.87698 0.94873 0.0
C237 C 0.43213 0.81165 0.90914 0.0
C238 C 0.34696 0.84547 0.938 0.0
C239 C 0.45376 0.86138 0.93415 0.0
C240 C 0.36643 0.77768 0.89885 0.0
C241 C 0.32295 0.79466 0.91295 0.0
O242 O 0.51141 0.00646 0.93118 0.0
O243 O 0.51491 0.02975 1.01814 0.0
O244 O 0.49129 0.10153 0.03947 0.0
O245 O 0.4251 0.04344 0.99006 0.0
O246 O 0.55558 0.02342 0.97142 0.0
O247 O 0.42101 0.00519 0.92886 0.0
O248 O 0.42077 -0.00399 0.11945 0.0
O249 O 0.41274 0.9548 0.03424 0.0
O250 O 0.45688 0.89976 1.00279 0.0
O251 O 0.50185 0.94469 0.06104 0.0
O252 O 0.38213 -0.00205 0.07006 0.0
O253 O 0.49437 0.97138 0.11691 0.0
C254 C 0.56942 0.05043 1.00325 0.0
C255 C 0.47011 0.00338 0.87093 0.0
C256 C 0.49846 0.03317 0.80569 0.0
C257 C 0.4975 0.05005 0.84318 0.0
C258 C 0.47357 0.97015 0.79665 0.0
C259 C 0.44188 0.94085 0.86001 0.0
C260 C 0.44495 0.92434 0.82358 0.0
C261 C 0.45943 0.09659 1.00778 0.0
C262 C 0.47458 0.01966 0.91113 0.0
C263 C 0.25797 0.76606 0.90026 0.0
C264 C 0.21657 0.78609 0.91332 0.0
C265 C 0.36163 0.95091 0.04783 0.0
C266 C 0.46371 0.98648 0.17732 0.0
C267 C 0.44948 0.94101 0.2052 0.0
C268 C 0.46512 0.95968 0.24293 0.0
C269 C 0.49757 0.02358 0.2518 0.0
C270 C 0.48952 0.0486 0.18852 0.0
C271 C 0.50879 0.06753 0.22486 0.0
C272 C 0.48514 0.90152 0.03464 0.0
C273 C 0.44846 0.96999 0.13714 0.0
H274 H 0.51682 0.09866 0.85052 0.0
H275 H 0.47322 0.95608 0.76821 0.0
H276 H 0.41703 0.90447 0.87951 0.0
H277 H 0.42372 0.87559 0.81608 0.0
H278 H 0.42398 0.89184 0.19793 0.0
H279 H 0.5094 0.03904 0.28031 0.0
H280 H 0.49217 0.08224 0.16944 0.0
H281 H 0.52969 0.1162 0.23247 0.0
Tb282 Tb 0.03076 0.48584 0.97074 0.0
C283 C 0.84162 0.41009 0.09165 0.0
C284 C 0.81683 0.49276 0.09104 0.0
C285 C 0.72977 0.38477 0.0989 0.0
C286 C 0.86178 0.47241 0.08763 0.0
C287 C 0.77601 0.36588 0.0988 0.0
C288 C 0.75032 0.44804 0.09449 0.0
C289 C 0.80751 0.28813 0.10536 0.0
N290 N 0.88642 0.39248 0.08759 0.0
C291 C 0.872 0.33371 0.09767 0.0
C292 C 0.75882 0.30384 0.10416 0.0
Tb293 Tb 0.98557 0.46765 0.0661 0.0
N294 N 0.9247 0.51252 0.07831 0.0
C295 C 0.94764 0.57523 0.07572 0.0
C296 C 0.83935 0.55656 0.08721 0.0
C297 C 0.90539 0.59818 0.08045 0.0
H298 H 0.90921 0.32107 0.09661 0.0
H299 H 0.92326 0.64759 0.07744 0.0
H300 H 0.71438 0.46162 0.09227 0.0
H301 H 0.79528 0.24062 0.11017 0.0
H302 H -0.00219 0.60789 0.06899 0.0
H303 H 0.01445 0.25647 0.97334 0.0
H304 H 0.80596 0.57377 0.08791 0.0
H305 H 0.16475 0.6252 0.94808 0.0
H306 H -0.00639 0.33496 0.9983 0.0
H307 H 0.25548 0.65821 0.90568 0.0
H308 H 0.67826 0.3509 0.10204 0.0
H309 H 0.09062 0.28132 0.92134 0.0
H310 H 0.17275 0.36158 0.87873 0.0
H311 H 0.70818 0.26805 0.10661 0.0
H312 H 0.23647 0.47086 0.85916 0.0
N313 N 0.05695 0.40784 0.96077 0.0
C314 C 0.02748 0.34873 0.97573 0.0
C315 C 0.08205 0.31704 0.93239 0.0
C316 C 0.11536 0.3778 0.91872 0.0
C317 C 0.03921 0.30296 0.9617 0.0
C318 C 0.103 0.42291 0.93439 0.0
H319 H 0.26838 0.58205 0.86945 0.0
N320 N 0.13119 0.52731 0.94271 0.0
C321 C 0.22223 0.60949 0.90994 0.0
C322 C 0.14073 0.48471 0.9246 0.0
C323 C 0.1721 0.58974 0.93579 0.0
C324 C 0.22957 0.56607 0.88961 0.0
C325 C 0.18961 0.5028 0.89739 0.0
O326 O 0.03802 0.54989 0.93028 0.0
O327 O 0.97635 0.5014 1.01354 0.0
O328 O 0.90416 0.38776 0.03412 0.0
O329 O 0.94755 0.39244 0.97575 0.0
O330 O 0.94119 0.49011 0.96156 0.0
O331 O 0.98911 0.45026 0.91842 0.0
O332 O 0.01644 0.43671 0.11199 0.0
O333 O 0.06251 0.47877 0.02752 0.0
O334 O 0.09638 0.57692 0.99732 0.0
O335 O 0.0658 0.56572 0.0596 0.0
O336 O 0.01741 0.40083 0.05885 0.0
O337 O 0.02031 0.52385 0.11456 0.0
C338 C 0.93011 0.4998 0.99454 0.0
C339 C 0.02394 0.51798 0.86597 0.0
C340 C 0.9913 0.49319 0.80067 0.0
C341 C 0.97946 0.4779 0.83853 0.0
C342 C 0.04888 0.54776 0.79046 0.0
C343 C 0.08055 0.57285 0.85482 0.0
C344 C 0.09335 0.58694 0.81735 0.0
C345 C 0.90149 0.36378 1.00066 0.0
C346 C 0.00605 0.50557 0.90565 0.0
C347 C 0.19911 0.45766 0.88 0.0
C348 C 0.16249 0.39533 0.89094 0.0
C349 C 0.06931 0.43424 0.03961 0.0
C350 C 0.00845 0.47187 0.17186 0.0
C351 C 0.05338 0.49972 0.20175 0.0
C352 C 0.03154 0.48564 0.23882 0.0
C353 C 0.96532 0.44253 0.24542 0.0
C354 C 0.94245 0.43006 0.17977 0.0
C355 C 0.92129 0.41507 0.21617 0.0
C356 C 0.10212 0.59927 0.03139 0.0
C357 C 0.03062 0.48472 0.1327 0.0
H358 H 0.93448 0.43635 0.84665 0.0
H359 H 0.05907 0.56039 0.76159 0.0
H360 H 0.11409 0.60595 0.87493 0.0
H361 H 0.13722 0.62935 0.80915 0.0
H362 H 0.10466 0.53165 0.19623 0.0
H363 H 0.94767 0.42968 0.27346 0.0
H364 H 0.90694 0.4085 0.15794 0.0
H365 H 0.87038 0.38186 0.22174 0.0
Tb366 Tb 0.5429 0.51031 0.08114 0.0
C367 C 0.44113 0.59683 0.96056 0.0
C368 C 0.32642 0.51902 0.96106 0.0
C369 C 0.36115 0.62884 0.95434 0.0
C370 C 0.39213 0.53554 0.9644 0.0
C371 C 0.4265 0.64388 0.95372 0.0
C372 C 0.31138 0.56648 0.95885 0.0
C373 C 0.54227 0.71657 0.94673 0.0
N374 N 0.50364 0.61031 0.96371 0.0
C375 C 0.55428 0.66827 0.95438 0.0
C376 C 0.47823 0.70468 0.94779 0.0
Tb377 Tb 0.51763 0.53148 0.98484 0.0
N378 N 0.40896 0.49229 0.97197 0.0
C379 C 0.36193 0.43005 0.97214 0.0
C380 C 0.27804 0.45583 0.96286 0.0
C381 C 0.29601 0.41102 0.96747 0.0
H382 H 0.60406 0.6781 0.95544 0.0
H383 H 0.25897 0.36194 0.96861 0.0
H384 H 0.26156 0.55537 0.96132 0.0
H385 H 0.58243 0.76329 0.94139 0.0
H386 H 0.37362 0.39413 0.97646 0.0
H387 H 0.78206 0.7265 0.08571 0.0
H388 H 0.22693 0.44138 0.96172 0.0
H389 H 0.50813 0.36251 0.10234 0.0
H390 H 0.67662 0.65616 0.05746 0.0
H391 H 0.55143 0.31842 0.1442 0.0
H392 H 0.34869 0.66486 0.95147 0.0
H393 H 0.82234 0.69156 0.13797 0.0
H394 H 0.80765 0.60405 0.17871 0.0
H395 H 0.46937 0.74263 0.94441 0.0
H396 H 0.74473 0.49301 0.19491 0.0
N397 N 0.65354 0.57847 0.09308 0.0
C398 C 0.69211 0.63824 0.07991 0.0
C399 C 0.77537 0.6595 0.12547 0.0
C400 C 0.73825 0.59775 0.13741 0.0
C401 C 0.75292 0.67926 0.09592 0.0
C402 C 0.67777 0.55765 0.11981 0.0
H403 H 0.65132 0.38554 0.18092 0.0
N404 N 0.58791 0.45729 0.10852 0.0
C405 C 0.57894 0.36785 0.13959 0.0
C406 C 0.64323 0.49492 0.12818 0.0
C407 C 0.55547 0.3939 0.11428 0.0
C408 C 0.63421 0.40619 0.16078 0.0
C409 C 0.66729 0.47064 0.15521 0.0
O410 O 0.48191 0.45584 0.12417 0.0
O411 O 0.47676 0.50598 0.03839 0.0
O412 O 0.52319 0.60928 1.01826 0.0
O413 O 0.56764 0.60575 0.0752 0.0
O414 O 0.44114 0.48958 0.08968 0.0
O415 O 0.54555 0.55613 0.1312 0.0
O416 O 0.57508 0.56293 0.93631 0.0
O417 O 0.58111 0.51671 0.02355 0.0
O418 O 0.50588 0.4204 0.05489 0.0
O419 O 0.47996 0.43162 0.99399 0.0
O420 O 0.62161 0.59473 0.99234 0.0
O421 O 0.49566 0.46956 0.93962 0.0
C422 C 0.42643 0.49503 0.0566 0.0
C423 C 0.507 0.49382 0.18649 0.0
C424 C 0.49096 0.51271 0.25119 0.0
C425 C 0.49535 0.52841 0.21335 0.0
C426 C 0.50098 0.46416 0.26202 0.0
C427 C 0.51516 0.44455 0.19833 0.0
C428 C 0.51347 0.43067 0.23573 0.0
C429 C 0.55026 0.63367 0.05097 0.0
C430 C 0.50134 0.50381 0.14645 0.0
C431 C 0.7255 0.51089 0.17423 0.0
C432 C 0.76117 0.57425 0.16514 0.0
C433 C 0.6363 0.55995 1.01143 0.0
C434 C 0.52003 0.5149 0.87973 0.0
C435 C 0.54724 0.50244 0.84814 0.0
C436 C 0.5259 0.50593 0.81187 0.0
C437 C 0.47806 0.52254 0.80786 0.0
C438 C 0.47219 0.53112 0.8743 0.0
C439 C 0.45154 0.53498 0.83877 0.0
C440 C 0.48022 0.39811 0.02218 0.0
C441 C 0.54065 0.51083 0.91824 0.0
H442 H 0.48688 0.56541 0.20477 0.0
H443 H 0.49851 0.45181 0.29092 0.0
H444 H 0.52033 0.41503 0.17875 0.0
H445 H 0.52005 0.39257 0.24428 0.0
H446 H 0.58532 0.49119 0.85168 0.0
H447 H 0.46222 0.52728 0.78056 0.0
H448 H 0.45061 0.5409 0.89754 0.0
H449 H 0.41506 0.54826 0.83517 0.0
Tb450 Tb 0.11304 0.30528 0.30947 0.0
C451 C 0.24069 0.47675 0.4518 0.0
C452 C 0.33761 0.47288 0.46707 0.0
C453 C 0.31323 0.54285 0.50113 0.0
C454 C 0.27982 0.45161 0.44622 0.0
C455 C 0.25705 0.52298 0.47923 0.0
C456 C 0.35347 0.51778 0.49507 0.0
C457 C 0.1546 0.51757 0.46637 0.0
N458 N 0.18256 0.45033 0.43364 0.0
C459 C 0.13921 0.46973 0.44074 0.0
C460 C 0.2132 0.54328 0.48629 0.0
Tb461 Tb 0.15025 0.35593 0.40649 0.0
N462 N 0.25899 0.40354 0.42192 0.0
C463 C 0.29762 0.37881 0.41438 0.0
C464 C 0.37669 0.44709 0.45986 0.0
C465 C 0.3574 0.40099 0.43268 0.0
H466 H 0.09143 0.44622 0.42781 0.0
H467 H 0.38753 0.38104 0.42665 0.0
H468 H 0.39696 0.53381 0.51191 0.0
H469 H 0.11968 0.53205 0.47225 0.0
H470 H 0.2829 0.34157 0.39451 0.0
H471 H 0.86654 0.26933 0.31016 0.0
H472 H 0.42182 0.46256 0.475 0.0
H473 H 0.17238 0.22327 0.27395 0.0
H474 H 0.9811 0.32371 0.32615 0.0
H475 H 0.13398 0.13488 0.23007 0.0
H476 H 0.32579 0.57727 0.52287 0.0
H477 H 0.81768 0.17222 0.27324 0.0
H478 H 0.83361 0.09644 0.23643 0.0
H479 H 0.22279 0.57636 0.50839 0.0
H480 H 0.90689 0.06318 0.21248 0.0
N481 N 0.00094 0.25624 0.30125 0.0
C482 C 0.96253 0.28069 0.31093 0.0
C483 C 0.86872 0.19493 0.28126 0.0
C484 C 0.90791 0.17107 0.27022 0.0
C485 C 0.89617 0.24982 0.30188 0.0
C486 C 0.97409 0.20189 0.28173 0.0
H487 H 0.01815 0.07437 0.21175 0.0
N488 N 0.07775 0.21036 0.2822 0.0
C489 C 0.09931 0.14514 0.24267 0.0
C490 C 0.01389 0.17881 0.27136 0.0
C491 C 0.12076 0.19481 0.2677 0.0
C492 C 0.03373 0.1113 0.23217 0.0
C493 C 0.9901 0.12815 0.24622 0.0
O494 O 0.17742 0.33902 0.26416 0.0
O495 O 0.18171 0.36228 0.35154 0.0
O496 O 0.158 0.43518 0.37271 0.0
O497 O 0.09142 0.3767 0.32353 0.0
O498 O 0.22205 0.36016 0.30365 0.0
O499 O 0.08714 0.33814 0.26199 0.0
O500 O 0.08757 0.32968 0.45275 0.0
O501 O 0.07944 0.28853 0.36751 0.0
O502 O 0.12397 0.23357 0.33613 0.0
O503 O 0.16856 0.27831 0.39449 0.0
O504 O 0.04899 0.3319 0.40323 0.0
O505 O 0.16132 0.30532 0.45028 0.0
C506 C 0.23579 0.38628 0.33569 0.0
C507 C 0.13598 0.33601 0.20393 0.0
C508 C 0.164 0.36577 0.13861 0.0
C509 C 0.16281 0.38263 0.1761 0.0
C510 C 0.13986 0.30284 0.12966 0.0
C511 C 0.10854 0.27354 0.19307 0.0
C512 C 0.1118 0.25708 0.15666 0.0
C513 C 0.12614 0.43007 0.34101 0.0
C514 C 0.14057 0.35231 0.24415 0.0
C515 C 0.92522 0.09958 0.23337 0.0
C516 C 0.88364 0.11943 0.2464 0.0
C517 C 0.02835 0.28471 0.38109 0.0
C518 C 0.13039 0.32017 0.51071 0.0
C519 C 0.11606 0.27467 0.53862 0.0
C520 C 0.13158 0.29332 0.57637 0.0
C521 C 0.16397 0.35722 0.58522 0.0
C522 C 0.1562 0.38228 0.5219 0.0
C523 C 0.1753 0.40118 0.55826 0.0
C524 C 0.15175 0.23507 0.36812 0.0
C525 C 0.1153 0.30374 0.47048 0.0
H526 H 0.18163 0.43117 0.18339 0.0
H527 H 0.13972 0.28877 0.10125 0.0
H528 H 0.08425 0.23718 0.21264 0.0
H529 H 0.09121 0.20838 0.14922 0.0
H530 H 0.09062 0.22551 0.53134 0.0
H531 H 0.17576 0.3727 0.61373 0.0
H532 H 0.15903 0.41597 0.50279 0.0
H533 H 0.19621 0.44986 0.56587 0.0
Tb534 Tb 0.69938 0.82172 0.30449 0.0
C535 C 0.50809 0.74153 0.42522 0.0
C536 C 0.48263 0.82372 0.42474 0.0
C537 C 0.39581 0.71546 0.43178 0.0
C538 C 0.52798 0.80379 0.42146 0.0
C539 C 0.4424 0.69696 0.43193 0.0
C540 C 0.41607 0.77868 0.42754 0.0
C541 C 0.47441 0.61955 0.43834 0.0
N542 N 0.55329 0.72436 0.42136 0.0
C543 C 0.53894 0.66546 0.43101 0.0
C544 C 0.4255 0.63496 0.43709 0.0
Tb545 Tb 0.65252 0.79992 0.40009 0.0
N546 N 0.59122 0.84442 0.41296 0.0
C547 C 0.61399 0.90724 0.4115 0.0
C548 C 0.50501 0.88758 0.42172 0.0
C549 C 0.57129 0.9297 0.41611 0.0
H550 H 0.57629 0.65299 0.42988 0.0
H551 H 0.58906 0.9792 0.41381 0.0
H552 H 0.37988 0.792 0.42519 0.0
H553 H 0.46234 0.57203 0.44285 0.0
H554 H 0.66436 0.94059 0.40571 0.0
H555 H 0.67709 0.59041 0.3057 0.0
H556 H 0.47141 0.90451 0.42211 0.0
H557 H 0.83254 0.9604 0.2813 0.0
H558 H 0.65778 0.66999 0.33073 0.0
H559 H 0.92427 0.99299 0.23946 0.0
H560 H 0.34429 0.68137 0.43465 0.0
H561 H 0.75508 0.61513 0.25466 0.0
H562 H 0.83929 0.69542 0.21282 0.0
H563 H 0.37488 0.59892 0.43916 0.0
H564 H 0.90487 0.80493 0.1938 0.0
N565 N 0.72372 0.74294 0.2942 0.0
C566 C 0.69226 0.68346 0.30854 0.0
C567 C 0.74716 0.65124 0.26576 0.0
C568 C 0.7821 0.71231 0.25261 0.0
C569 C 0.70324 0.6372 0.29451 0.0
C570 C 0.7705 0.75787 0.26833 0.0
H571 H 0.93759 0.91641 0.20398 0.0
N572 N 0.79978 0.86269 0.27672 0.0
C573 C 0.89103 0.94438 0.24391 0.0
C574 C 0.80917 0.81976 0.25884 0.0
C575 C 0.84049 0.92497 0.26947 0.0
C576 C 0.89859 0.90069 0.224 0.0
C577 C 0.85828 0.83749 0.23182 0.0
O578 O 0.7044 0.88181 0.2624 0.0
O579 O 0.64022 0.82859 0.34717 0.0
O580 O 0.57122 0.72109 0.36771 0.0
O581 O 0.61286 0.72941 0.30836 0.0
O582 O 0.62615 0.85122 0.29652 0.0
O583 O 0.65429 0.78123 0.25326 0.0
O584 O 0.68163 0.76726 0.44584 0.0
O585 O 0.73027 0.81278 0.36141 0.0
O586 O 0.76815 0.91028 0.33217 0.0
O587 O 0.73078 0.89915 0.39316 0.0
O588 O 0.68544 0.73407 0.39204 0.0
O589 O 0.68951 0.85633 0.4483 0.0
C590 C 0.60417 0.84357 0.32929 0.0
C591 C 0.68882 0.84644 0.19917 0.0
C592 C 0.65516 0.82265 0.13399 0.0
C593 C 0.64302 0.80761 0.17189 0.0
C594 C 0.71411 0.87548 0.12355 0.0
C595 C 0.74687 0.89971 0.18774 0.0
C596 C 0.75979 0.91341 0.15027 0.0
C597 C 0.5674 0.69933 0.33348 0.0
C598 C 0.67123 0.83573 0.23898 0.0
C599 C 0.86732 0.79199 0.21449 0.0
C600 C 0.8297 0.72956 0.22514 0.0
C601 C 0.73752 0.76819 0.37305 0.0
C602 C 0.67532 0.80377 0.50559 0.0
C603 C 0.72022 0.83196 0.53543 0.0
C604 C 0.6983 0.81864 0.5725 0.0
C605 C 0.63197 0.77598 0.57917 0.0
C606 C 0.60923 0.76232 0.51353 0.0
C607 C 0.58796 0.74814 0.54996 0.0
C608 C 0.77024 0.93263 0.36583 0.0
C609 C 0.69766 0.81584 0.46648 0.0
H610 H 0.59706 0.76733 0.18015 0.0
H611 H 0.72453 0.88767 0.09464 0.0
H612 H 0.78148 0.9322 0.20764 0.0
H613 H 0.80477 0.9546 0.14194 0.0
H614 H 0.77157 0.86357 0.52989 0.0
H615 H 0.61427 0.76372 0.60725 0.0
H616 H 0.57377 0.74037 0.49171 0.0
H617 H 0.53699 0.71521 0.55558 0.0
Tb618 Tb 0.2113 0.84338 0.41393 0.0
C619 C 0.10881 0.93148 0.29412 0.0
C620 C -0.00595 0.85411 0.29508 0.0
C621 C 0.02918 0.96411 0.28901 0.0
C622 C 0.05971 0.87029 0.29788 0.0
C623 C 0.09441 0.97881 0.28778 0.0
C624 C 0.97927 0.90182 0.29358 0.0
C625 C 0.21016 0.05109 0.28033 0.0
N626 N 0.17123 0.94457 0.29684 0.0
C627 C 0.22195 0.00254 0.28761 0.0
C628 C 0.14626 0.03952 0.28178 0.0
Tb629 Tb 0.18507 0.86566 0.31804 0.0
N630 N 0.07648 0.82668 0.30426 0.0
C631 C 0.02938 0.76443 0.30293 0.0
C632 C 0.94554 0.79091 0.2962 0.0
C633 C 0.96341 0.74577 0.29903 0.0
H634 H 0.27167 0.01219 0.28849 0.0
H635 H 0.92631 0.69665 0.29926 0.0
H636 H 0.92955 0.89092 0.29629 0.0
H637 H 0.25042 0.09778 0.27504 0.0
H638 H 0.04094 0.72807 0.30537 0.0
H639 H 0.44944 0.06 0.41981 0.0
H640 H 0.89446 0.77661 0.29549 0.0
H641 H 0.17346 0.69722 0.43692 0.0
H642 H 0.34389 0.98965 0.39153 0.0
H643 H 0.21601 0.6518 0.47928 0.0
H644 H 0.01692 0.00032 0.28652 0.0
H645 H 0.49011 0.02463 0.47167 0.0
H646 H 0.47565 0.93677 0.51208 0.0
H647 H 0.13763 0.07769 0.27878 0.0
H648 H 0.41261 0.82561 0.52814 0.0
N649 N 0.3214 0.91169 0.4267 0.0
C650 C 0.35963 0.97165 0.41381 0.0
C651 C 0.44312 0.99262 0.45918 0.0
C652 C 0.40612 0.93074 0.47095 0.0
C653 C 0.42045 0.01262 0.42985 0.0
C654 C 0.34567 0.89069 0.45331 0.0
H655 H 0.31783 0.71831 0.51478 0.0
N656 N 0.25515 0.79054 0.44239 0.0
C657 C 0.24452 0.70103 0.47408 0.0
C658 C 0.31095 0.82796 0.46171 0.0
C659 C 0.22133 0.72742 0.44878 0.0
C660 C 0.30089 0.73908 0.49462 0.0
C661 C 0.33487 0.80351 0.48868 0.0
O662 O 0.1482 0.79166 0.45696 0.0
O663 O 0.14717 0.84525 0.37233 0.0
O664 O 0.19058 0.94329 0.35161 0.0
O665 O 0.23431 0.93878 0.40861 0.0
O666 O 0.10342 0.80285 0.41906 0.0
O667 O 0.21501 0.89134 0.46342 0.0
O668 O 0.24204 0.89682 0.26935 0.0
O669 O 0.24944 0.85157 0.35628 0.0
O670 O 0.18937 0.75838 0.38506 0.0
O671 O 0.14261 0.76559 0.32985 0.0
O672 O 0.28925 0.92929 0.32506 0.0
O673 O 0.16467 0.80266 0.2735 0.0
C674 C 0.09178 0.8189 0.38775 0.0
C675 C 0.17424 0.82989 0.51913 0.0
C676 C 0.1569 0.84772 0.58388 0.0
C677 C 0.16199 0.86404 0.54606 0.0
C678 C 0.16686 0.79912 0.59463 0.0
C679 C 0.18224 0.78053 0.53099 0.0
C680 C 0.1799 0.76609 0.56833 0.0
C681 C 0.2174 0.96731 0.38446 0.0
C682 C 0.16923 0.84015 0.47895 0.0
C683 C 0.3934 0.8436 0.50751 0.0
C684 C 0.42913 0.90703 0.49852 0.0
C685 C 0.30451 0.8951 0.3443 0.0
C686 C 0.18713 0.84686 0.21316 0.0
C687 C 0.21458 0.83477 0.1815 0.0
C688 C 0.19259 0.83748 0.14523 0.0
C689 C 0.14394 0.85303 0.14132 0.0
C690 C 0.13862 0.86223 0.20776 0.0
C691 C 0.11735 0.86532 0.17226 0.0
C692 C 0.15326 0.73366 0.35523 0.0
C693 C 0.20865 0.84412 0.25172 0.0
H694 H 0.15368 0.90115 0.53756 0.0
H695 H 0.16399 0.78639 0.62349 0.0
H696 H 0.18768 0.75122 0.51148 0.0
H697 H 0.1864 0.72792 0.57681 0.0
H698 H 0.25333 0.82443 0.18499 0.0
H699 H 0.12758 0.85722 0.11404 0.0
H700 H 0.11711 0.87209 0.23103 0.0
H701 H 0.08037 0.87796 0.1687 0.0
Tb702 Tb 0.77971 0.63877 0.6431 0.0
C703 C 0.90684 0.81008 0.78564 0.0
C704 C 0.00402 0.80666 0.80089 0.0
C705 C 0.97915 0.87623 0.83502 0.0
C706 C 0.94624 0.78526 0.78 0.0
C707 C 0.92292 0.85615 0.81314 0.0
C708 C 0.01963 0.85143 0.82894 0.0
C709 C 0.82014 0.85013 0.80033 0.0
N710 N 0.8487 0.78343 0.76748 0.0
C711 C 0.80507 0.80248 0.77462 0.0
C712 C 0.87871 0.87601 0.82028 0.0
Tb713 Tb 0.81693 0.68926 0.74018 0.0
N714 N 0.92567 0.73731 0.75564 0.0
C715 C 0.96456 0.71287 0.74805 0.0
C716 C 0.04333 0.78112 0.79366 0.0
C717 C 0.0243 0.73517 0.76641 0.0
H718 H 0.75735 0.77888 0.76163 0.0
H719 H 0.05461 0.71543 0.76036 0.0
H720 H 0.06311 0.86756 0.8458 0.0
H721 H 0.78504 0.86437 0.80623 0.0
H722 H 0.95005 0.67575 0.72812 0.0
H723 H 0.53339 0.60324 0.64352 0.0
H724 H 0.08844 0.79667 0.80884 0.0
H725 H 0.83898 0.55682 0.60744 0.0
H726 H 0.64788 0.65745 0.65961 0.0
H727 H 0.80051 0.46844 0.56358 0.0
H728 H 0.99151 0.91054 0.85681 0.0
H729 H 0.48443 0.50602 0.6067 0.0
H730 H 0.50022 0.43001 0.57008 0.0
H731 H 0.88804 0.90898 0.84242 0.0
H732 H 0.57338 0.39659 0.54621 0.0
N733 N 0.66762 0.58982 0.63485 0.0
C734 C 0.62928 0.61439 0.64443 0.0
C735 C 0.53545 0.52866 0.61477 0.0
C736 C 0.57454 0.50463 0.60385 0.0
C737 C 0.56295 0.58361 0.63533 0.0
C738 C 0.6407 0.53539 0.6154 0.0
H739 H 0.68462 0.40776 0.54543 0.0
N740 N 0.74434 0.54377 0.61588 0.0
C741 C 0.76584 0.47862 0.57625 0.0
C742 C 0.68043 0.51218 0.60511 0.0
C743 C 0.78733 0.52829 0.60128 0.0
C744 C 0.70021 0.44466 0.56587 0.0
C745 C 0.65659 0.46147 0.57998 0.0
O746 O 0.84396 0.67214 0.59774 0.0
O747 O 0.84847 0.69554 0.68523 0.0
O748 O 0.82469 0.76861 0.70648 0.0
O749 O 0.75815 0.71017 0.65728 0.0
O750 O 0.88864 0.69439 0.63707 0.0
O751 O 0.75382 0.67162 0.59565 0.0
O752 O 0.75415 0.6624 0.78646 0.0
O753 O 0.74617 0.62199 0.70111 0.0
O754 O 0.79098 0.56723 0.66968 0.0
O755 O 0.83581 0.6121 0.72798 0.0
O756 O 0.71568 0.66524 0.73689 0.0
O757 O 0.82815 0.63845 0.78379 0.0
C758 C 0.90246 0.72013 0.66921 0.0
C759 C 0.80221 0.66894 0.53761 0.0
C760 C 0.83016 0.69829 0.47232 0.0
C761 C 0.82943 0.71543 0.50977 0.0
C762 C 0.80527 0.63525 0.46337 0.0
C763 C 0.77402 0.60636 0.52681 0.0
C764 C 0.77686 0.58961 0.49041 0.0
C765 C 0.79293 0.76355 0.67475 0.0
C766 C 0.80713 0.6855 0.57776 0.0
C767 C 0.59172 0.43295 0.56713 0.0
C768 C 0.55022 0.45292 0.58009 0.0
C769 C 0.69508 0.6182 0.71464 0.0
C770 C 0.79684 0.65229 0.84437 0.0
C771 C 0.78193 0.60639 0.87214 0.0
C772 C 0.7973 0.62456 0.90999 0.0
C773 C 0.83006 0.68839 0.91906 0.0
C774 C 0.8231 0.71435 0.85579 0.0
C775 C 0.84196 0.73275 0.89224 0.0
C776 C 0.81904 0.56891 0.70159 0.0
C777 C 0.78196 0.6364 0.80405 0.0
H778 H 0.84891 0.76409 0.51702 0.0
H779 H 0.80488 0.62104 0.43496 0.0
H780 H 0.74944 0.57014 0.54641 0.0
H781 H 0.7557 0.54083 0.483 0.0
H782 H 0.75617 0.5573 0.86467 0.0
H783 H 0.8417 0.70355 0.94763 0.0
H784 H 0.8265 0.74841 0.83678 0.0
H785 H 0.86316 0.78139 0.90004 0.0
Tb786 Tb 0.36621 0.15524 0.63805 0.0
C787 C 0.17485 0.07496 0.75877 0.0
C788 C 0.14888 0.15678 0.75804 0.0
C789 C 0.06241 0.04838 0.76508 0.0
C790 C 0.19445 0.13712 0.75489 0.0
C791 C 0.10924 0.03021 0.7655 0.0
C792 C 0.08236 0.11151 0.76071 0.0
C793 C 0.14186 0.95333 0.77243 0.0
N794 N 0.22029 0.05807 0.75508 0.0
C795 C 0.20629 -0.00062 0.76498 0.0
C796 C 0.09269 0.96838 0.77097 0.0
Tb797 Tb 0.31933 0.13375 0.73369 0.0
N798 N 0.25769 0.17792 0.74648 0.0
C799 C 0.28024 0.2407 0.74506 0.0
C800 C 0.17103 0.2206 0.75504 0.0
C801 C 0.23731 0.26293 0.74957 0.0
H802 H 0.24383 0.98717 0.764 0.0
H803 H 0.25491 0.31239 0.74729 0.0
H804 H 0.04597 0.12455 0.75822 0.0
H805 H 0.13007 0.90595 0.77722 0.0
H806 H 0.33062 0.27418 0.73937 0.0
H807 H 0.34345 0.92376 0.63963 0.0
H808 H 0.13726 0.23733 0.75534 0.0
H809 H 0.49921 0.29364 0.61448 0.0
H810 H 0.32432 0.00358 0.66449 0.0
H811 H 0.59059 0.32591 0.57237 0.0
H812 H 0.01094 0.0141 0.76788 0.0
H813 H 0.42134 0.94813 0.58858 0.0
H814 H 0.50537 0.02807 0.54651 0.0
H815 H 0.04214 0.93221 0.77314 0.0
H816 H 0.57092 0.13746 0.52721 0.0
N817 N 0.39034 0.07631 0.62786 0.0
C818 C 0.35878 0.01688 0.64229 0.0
C819 C 0.41352 0.98434 0.59961 0.0
C820 C 0.44851 0.04533 0.58634 0.0
C821 C 0.36965 0.9705 0.62836 0.0
C822 C 0.43705 0.09103 0.60198 0.0
H823 H 0.60366 0.24903 0.53707 0.0
N824 N 0.46645 0.19593 0.61013 0.0
C825 C 0.55742 0.27734 0.57702 0.0
C826 C 0.47569 0.15285 0.59233 0.0
C827 C 0.50711 0.25815 0.60271 0.0
C828 C 0.56483 0.23348 0.55718 0.0
C829 C 0.5246 0.17035 0.56521 0.0
O830 O 0.37089 0.2151 0.59595 0.0
O831 O 0.30697 0.16204 0.68067 0.0
O832 O 0.238 0.05474 0.70142 0.0
O833 O 0.27954 0.06313 0.64202 0.0
O834 O 0.29376 0.18571 0.63012 0.0
O835 O 0.32097 0.11449 0.5869 0.0
O836 O 0.34865 0.1015 0.77958 0.0
O837 O 0.39688 0.14639 0.695 0.0
O838 O 0.43548 0.24358 0.66567 0.0
O839 O 0.39727 0.23307 0.72645 0.0
O840 O 0.35233 0.06792 0.72588 0.0
O841 O 0.35671 0.19067 0.78165 0.0
C842 C 0.27139 0.17763 0.66282 0.0
C843 C 0.3552 0.17963 0.53278 0.0
C844 C 0.3213 0.15585 0.46768 0.0
C845 C 0.30937 0.14071 0.50556 0.0
C846 C 0.38012 0.20878 0.45718 0.0
C847 C 0.41311 0.23302 0.52132 0.0
C848 C 0.42585 0.24676 0.48384 0.0
C849 C 0.2341 0.03308 0.66715 0.0
C850 C 0.33772 0.16894 0.57259 0.0
C851 C 0.53352 0.1247 0.54797 0.0
C852 C 0.49594 0.06235 0.55879 0.0
C853 C 0.4042 0.10192 0.70672 0.0
C854 C 0.34227 0.13864 0.83911 0.0
C855 C 0.38721 0.16584 0.86901 0.0
C856 C 0.36492 0.15334 0.90603 0.0
C857 C 0.29815 0.11246 0.9126 0.0
C858 C 0.27579 0.09889 0.84693 0.0
C859 C 0.25411 0.0855 0.88332 0.0
C860 C 0.43717 0.26624 0.69918 0.0
C861 C 0.36478 0.1503 0.80003 0.0
H862 H 0.26352 0.10033 0.51386 0.0
H863 H 0.39038 0.22099 0.42826 0.0
H864 H 0.44771 0.26559 0.54119 0.0
H865 H 0.47072 0.28804 0.47548 0.0
H866 H 0.43882 0.19616 0.86355 0.0
H867 H 0.2801 0.10089 0.94065 0.0
H868 H 0.24031 0.07775 0.82504 0.0
H869 H 0.2028 0.05394 0.88886 0.0
Tb870 Tb 0.87852 0.17793 0.74808 0.0
C871 C 0.77597 0.26523 0.62799 0.0
C872 C 0.66133 0.18729 0.62841 0.0
C873 C 0.69583 0.29711 0.62209 0.0
C874 C 0.72708 0.20391 0.63168 0.0
C875 C 0.76121 0.31225 0.62134 0.0
C876 C 0.64616 0.2347 0.6265 0.0
C877 C 0.8769 0.38508 0.61422 0.0
N878 N 0.8385 0.27876 0.63101 0.0
C879 C 0.88903 0.33681 0.62173 0.0
C880 C 0.81284 0.37309 0.61542 0.0
Tb881 Tb 0.85286 0.20006 0.65193 0.0
N882 N 0.74408 0.16067 0.63888 0.0
C883 C 0.69713 0.09836 0.63858 0.0
C884 C 0.61304 0.12403 0.62989 0.0
C885 C 0.63116 0.07927 0.63403 0.0
H886 H 0.93885 0.34673 0.62271 0.0
H887 H 0.59422 0.03013 0.63486 0.0
H888 H 0.59633 0.22351 0.62903 0.0
H889 H 0.917 0.43184 0.60892 0.0
H890 H 0.7088 0.06233 0.64235 0.0
H891 H 0.11713 0.39456 0.75316 0.0
H892 H 0.56189 0.10947 0.62879 0.0
H893 H 0.84297 0.03061 0.76983 0.0
H894 H 0.01152 0.32428 0.72506 0.0
H895 H 0.88681 0.98605 0.81133 0.0
H896 H 0.68328 0.33308 0.61938 0.0
H897 H 0.15797 0.35929 0.80497 0.0
H898 H 0.14386 0.27146 0.84524 0.0
H899 H 0.8039 0.41102 0.61221 0.0
H900 H 0.08114 0.16042 0.86129 0.0
N901 N 0.98887 0.2464 0.76038 0.0
C902 C 0.02721 0.30628 0.74736 0.0
C903 C 0.11087 0.3273 0.79259 0.0
C904 C 0.07389 0.26548 0.80443 0.0
C905 C 0.08811 0.34724 0.76329 0.0
C906 C 0.01333 0.22541 0.7869 0.0
H907 H 0.98735 0.05307 0.84757 0.0
N908 N 0.92336 0.12499 0.77567 0.0
C909 C 0.91436 0.03548 0.80666 0.0
C910 C 0.97895 0.16259 0.79514 0.0
C911 C 0.89064 0.06165 0.78159 0.0
C912 C 0.97004 0.07376 0.82758 0.0
C913 C 0.00324 0.13822 0.82197 0.0
O914 O 0.81628 0.1231 0.79062 0.0
O915 O 0.81268 0.17482 0.70556 0.0
O916 O 0.85889 0.27777 0.6857 0.0
O917 O 0.90246 0.27346 0.74285 0.0
O918 O 0.77495 0.1525 0.75616 0.0
O919 O 0.88127 0.22306 0.79847 0.0
O920 O 0.90975 0.23177 0.60322 0.0
O921 O 0.91678 0.18563 0.69041 0.0
O922 O 0.84777 0.08982 0.72061 0.0
O923 O 0.81377 0.10006 0.66164 0.0
O924 O 0.95689 0.26362 0.65932 0.0
O925 O 0.83193 0.1378 0.60697 0.0
C926 C 0.76118 0.16084 0.72343 0.0
C927 C 0.84089 0.15951 0.8533 0.0
C928 C 0.82436 0.17732 0.91815 0.0
C929 C 0.82962 0.194 0.88043 0.0
C930 C 0.83319 0.12792 0.92862 0.0
C931 C 0.8477 0.10929 0.8648 0.0
C932 C 0.84526 0.09448 0.90209 0.0
C933 C 0.88559 0.30181 0.71858 0.0
C934 C 0.83619 0.17068 0.81329 0.0
C935 C 0.06166 0.17838 0.84082 0.0
C936 C 0.09717 0.24179 0.83186 0.0
C937 C 0.97191 0.22907 0.67838 0.0
C938 C 0.85487 0.18246 0.54684 0.0
C939 C 0.882 0.16992 0.51522 0.0
C940 C 0.86006 0.17267 0.47897 0.0
C941 C 0.81173 0.18863 0.47501 0.0
C942 C 0.8066 0.19813 0.54144 0.0
C943 C 0.78535 0.20123 0.50594 0.0
C944 C 0.81841 0.06697 0.68871 0.0
C945 C 0.87617 0.17933 0.58536 0.0
H946 H 0.82211 0.23172 0.87214 0.0
H947 H 0.8301 0.11484 0.95742 0.0
H948 H 0.8523 0.07969 0.84504 0.0
H949 H 0.85088 0.05569 0.91035 0.0
H950 H 0.92045 0.15918 0.51873 0.0
H951 H 0.7954 0.19281 0.44773 0.0
H952 H 0.7852 0.20813 0.56471 0.0
H953 H 0.74854 0.21408 0.50236 0.0
loop_
_geom_bond_atom_site_label_1
_geom_bond_atom_site_label_2
_geom_bond_distance
_geom_bond_site_symmetry_2
_ccdc_geom_bond_type
H0 C3 0.929 . S
H1 C6 0.929 . S
H2 C8 0.930 . S
C3 H0 0.929 . S
C3 C4 1.398 . S
C3 C5 1.396 . S
C4 C3 1.398 . S
C4 C8 1.407 . S
C5 C3 1.396 . S
C5 C6 1.394 . S
C6 H1 0.929 . S
C6 C5 1.394 . S
C6 C7 1.382 . S
C7 C6 1.382 . S
C7 C8 1.392 . S
C7 N9 1.420 . S
C8 H2 0.930 . S
C8 C4 1.407 . S
C8 C7 1.392 . S
N9 C7 1.420 . S
N9 C10 1.244 . S
C10 N9 1.244 . S
H11 C14 0.929 . S
H12 C17 0.929 . S
H13 C19 0.930 . S
C14 H11 0.929 . S
C14 C15 1.398 . S
C14 C16 1.396 . S
C15 C14 1.398 . S
C15 C19 1.407 . S
C16 C14 1.396 . S
C16 C17 1.394 . S
C17 H12 0.929 . S
C17 C16 1.394 . S
C17 C18 1.382 . S
C18 C17 1.382 . S
C18 C19 1.392 . S
C18 N20 1.420 . S
C19 H13 0.930 . S
C19 C15 1.407 . S
C19 C18 1.392 . S
N20 C18 1.420 . S
N20 C21 1.244 1_545 S
C21 N20 1.244 1_565 S
H22 C25 0.929 . S
H23 C28 0.929 . S
H24 C30 0.930 . S
C25 H22 0.929 . S
C25 C26 1.398 . S
C25 C27 1.396 . S
C26 C25 1.398 . S
C26 C30 1.407 . S
C27 C25 1.396 . S
C27 C28 1.394 . S
C28 H23 0.929 . S
C28 C27 1.394 . S
C28 C29 1.382 . S
C29 C28 1.382 . S
C29 C30 1.392 . S
C29 N31 1.420 . S
C30 H24 0.930 . S
C30 C26 1.407 . S
C30 C29 1.392 . S
N31 C29 1.420 . S
N31 C32 1.244 1_655 S
C32 N31 1.244 1_455 S
H33 C36 0.929 . S
H34 C39 0.929 . S
H35 C41 0.930 . S
C36 H33 0.929 . S
C36 C37 1.398 . S
C36 C38 1.396 . S
C37 C36 1.398 . S
C37 C41 1.407 . S
C38 C36 1.396 . S
C38 C39 1.394 . S
C39 H34 0.929 . S
C39 C38 1.394 . S
C39 C40 1.382 . S
C40 C39 1.382 . S
C40 C41 1.392 . S
C40 N42 1.420 . S
C41 H35 0.930 . S
C41 C37 1.407 . S
C41 C40 1.392 . S
N42 C40 1.420 . S
N42 C43 1.244 . S
C43 N42 1.244 . S
H44 C47 0.929 . S
H45 C50 0.929 . S
H46 C52 0.930 . S
C47 H44 0.929 . S
C47 C48 1.398 . S
C47 C49 1.396 . S
C48 C47 1.398 . S
C48 C52 1.407 . S
C49 C47 1.396 . S
C49 C50 1.394 . S
C50 H45 0.929 . S
C50 C49 1.394 . S
C50 C51 1.382 . S
C51 C50 1.382 . S
C51 C52 1.392 . S
C51 N53 1.420 . S
C52 H46 0.930 . S
C52 C48 1.407 . S
C52 C51 1.392 . S
N53 C51 1.420 . S
N53 C54 1.244 1_565 S
C54 N53 1.244 1_545 S
H55 C58 0.929 . S
H56 C61 0.929 . S
H57 C63 0.930 . S
C58 H55 0.929 . S
C58 C59 1.398 . S
C58 C60 1.396 . S
C59 C58 1.398 . S
C59 C63 1.407 . S
C60 C58 1.396 . S
C60 C61 1.394 . S
C61 H56 0.929 . S
C61 C60 1.394 . S
C61 C62 1.382 . S
C62 C61 1.382 . S
C62 C63 1.392 . S
C62 N64 1.420 . S
C63 H57 0.930 . S
C63 C59 1.407 . S
C63 C62 1.392 . S
N64 C62 1.420 . S
N64 C65 1.244 1_455 S
C65 N64 1.244 1_655 S
H66 C69 0.929 . S
H67 C72 0.929 . S
H68 C74 0.930 . S
C69 H66 0.929 . S
C69 C70 1.398 . S
C69 C71 1.396 . S
C70 C69 1.398 . S
C70 C74 1.407 . S
C71 C69 1.396 . S
C71 C72 1.394 . S
C72 H67 0.929 . S
C72 C71 1.394 . S
C72 C73 1.382 . S
C73 C72 1.382 . S
C73 C74 1.392 . S
C73 N75 1.420 . S
C74 H68 0.930 . S
C74 C70 1.407 . S
C74 C73 1.392 . S
N75 C73 1.420 . S
N75 C76 1.244 . S
C76 N75 1.244 . S
H77 C80 0.929 . S
H78 C83 0.929 . S
H79 C85 0.930 . S
C80 H77 0.929 . S
C80 C81 1.398 . S
C80 C82 1.396 . S
C81 C80 1.398 . S
C81 C85 1.407 . S
C82 C80 1.396 . S
C82 C83 1.394 . S
C83 H78 0.929 . S
C83 C82 1.394 . S
C83 C84 1.382 . S
C84 C83 1.382 . S
C84 C85 1.392 . S
C84 N86 1.420 . S
C85 H79 0.930 . S
C85 C81 1.407 . S
C85 C84 1.392 . S
N86 C84 1.420 . S
N86 C87 1.244 . S
C87 N86 1.244 . S
H88 C91 0.929 . S
H89 C94 0.929 . S
H90 C96 0.930 . S
C91 H88 0.929 . S
C91 C92 1.398 . S
C91 C93 1.396 . S
C92 C91 1.398 . S
C92 C96 1.407 . S
C93 C91 1.396 . S
C93 C94 1.394 . S
C94 H89 0.929 . S
C94 C93 1.394 . S
C94 C95 1.382 . S
C95 C94 1.382 . S
C95 C96 1.392 . S
C95 N97 1.420 . S
C96 H90 0.930 . S
C96 C92 1.407 . S
C96 C95 1.392 . S
N97 C95 1.420 . S
N97 C98 1.244 . S
C98 N97 1.244 . S
H99 C102 0.929 . S
H100 C105 0.929 . S
H101 C107 0.930 1_554 S
C102 H99 0.929 . S
C102 C103 1.398 . S
C102 C104 1.396 . S
C103 C102 1.398 . S
C103 C107 1.407 . S
C104 C102 1.396 . S
C104 C105 1.394 . S
C105 H100 0.929 . S
C105 C104 1.394 . S
C105 C106 1.382 . S
C106 C105 1.382 . S
C106 C107 1.392 . S
C106 N108 1.420 . S
C107 H101 0.930 1_556 S
C107 C103 1.407 . S
C107 C106 1.392 . S
N108 C106 1.420 . S
N108 C109 1.244 . S
C109 N108 1.244 . S
H110 C113 0.929 . S
H111 C116 0.929 . S
H112 C118 0.930 1_554 S
C113 H110 0.929 . S
C113 C114 1.398 . S
C113 C115 1.396 . S
C114 C113 1.398 . S
C114 C118 1.407 . S
C115 C113 1.396 . S
C115 C116 1.394 . S
C116 H111 0.929 . S
C116 C115 1.394 . S
C116 C117 1.382 . S
C117 C116 1.382 . S
C117 C118 1.392 . S
C117 N119 1.420 . S
C118 H112 0.930 1_556 S
C118 C114 1.407 . S
C118 C117 1.392 . S
N119 C117 1.420 . S
N119 C120 1.244 . S
C120 N119 1.244 . S
H121 C124 0.929 . S
H122 C127 0.929 . S
H123 C129 0.930 1_554 S
C124 H121 0.929 . S
C124 C125 1.398 . S
C124 C126 1.396 . S
C125 C124 1.398 . S
C125 C129 1.407 . S
C126 C124 1.396 . S
C126 C127 1.394 . S
C127 H122 0.929 . S
C127 C126 1.394 . S
C127 C128 1.382 . S
C128 C127 1.382 . S
C128 C129 1.392 . S
C128 N130 1.420 . S
C129 H123 0.930 1_556 S
C129 C125 1.407 . S
C129 C128 1.392 . S
N130 C128 1.420 . S
N130 C131 1.244 . S
C131 N130 1.244 . S
H132 C135 0.929 . S
H133 C138 0.929 . S
H134 C140 0.900 1_556 S
C135 H132 0.929 . S
C135 C136 1.398 . S
C135 C137 1.396 . S
C136 C135 1.398 . S
C136 C140 1.407 . S
C137 C135 1.396 . S
C137 C138 1.394 . S
C138 H133 0.929 . S
C138 C137 1.394 . S
C138 C139 1.382 . S
C139 C138 1.382 . S
C139 C140 1.392 . S
C139 N141 1.420 . S
C140 H134 0.900 1_554 S
C140 C136 1.407 . S
C140 C139 1.392 . S
N141 C139 1.420 . S
N141 C142 1.244 . S
C142 N141 1.244 . S
H143 C146 0.929 . S
H144 C149 0.929 . S
H145 C151 0.930 . S
C146 H143 0.929 . S
C146 C147 1.398 . S
C146 C148 1.396 . S
C147 C146 1.398 . S
C147 C151 1.407 . S
C148 C146 1.396 . S
C148 C149 1.394 . S
C149 H144 0.929 . S
C149 C148 1.394 . S
C149 C150 1.382 . S
C150 C149 1.382 . S
C150 C151 1.392 . S
C150 N152 1.420 . S
C151 H145 0.930 . S
C151 C147 1.407 . S
C151 C150 1.392 . S
N152 C150 1.420 . S
N152 C153 1.244 . S
C153 N152 1.244 . S
H154 C157 0.929 . S
H155 C160 0.929 . S
H156 C162 0.930 . S
C157 H154 0.929 . S
C157 C158 1.398 . S
C157 C159 1.396 . S
C158 C157 1.398 . S
C158 C162 1.407 . S
C159 C157 1.396 . S
C159 C160 1.394 . S
C160 H155 0.929 . S
C160 C159 1.394 . S
C160 C161 1.382 . S
C161 C160 1.382 . S
C161 C162 1.392 . S
C161 N163 1.420 . S
C162 H156 0.930 . S
C162 C158 1.407 . S
C162 C161 1.392 . S
N163 C161 1.420 . S
N163 C164 1.244 . S
C164 N163 1.244 . S
H165 C168 0.929 . S
H166 C171 0.929 . S
H167 C173 0.930 . S
C168 H165 0.929 . S
C168 C169 1.398 . S
C168 C170 1.396 . S
C169 C168 1.398 . S
C169 C173 1.407 . S
C170 C168 1.396 . S
C170 C171 1.394 . S
C171 H166 0.929 . S
C171 C170 1.394 . S
C171 C172 1.382 . S
C172 C171 1.382 . S
C172 C173 1.392 . S
C172 N174 1.420 . S
C173 H167 0.930 . S
C173 C169 1.407 . S
C173 C172 1.392 . S
N174 C172 1.420 . S
N174 C175 1.244 . S
C175 N174 1.244 . S
H176 C179 0.929 . S
H177 C182 0.929 . S
H178 C184 0.930 . S
C179 H176 0.929 . S
C179 C180 1.398 . S
C179 C181 1.396 . S
C180 C179 1.398 . S
C180 C184 1.407 . S
C181 C179 1.396 . S
C181 C182 1.394 . S
C182 H177 0.929 . S
C182 C181 1.394 . S
C182 C183 1.382 . S
C183 C182 1.382 . S
C183 C184 1.392 . S
C183 N185 1.420 . S
C184 H178 0.930 . S
C184 C180 1.407 . S
C184 C183 1.392 . S
N185 C183 1.420 . S
N185 C186 1.244 . S
C186 N185 1.244 . S
H187 C190 0.929 . S
H188 C193 0.929 . S
H189 C195 0.930 . S
C190 H187 0.929 . S
C190 C191 1.398 . S
C190 C192 1.396 . S
C191 C190 1.398 . S
C191 C195 1.407 . S
C192 C190 1.396 . S
C192 C193 1.394 . S
C193 H188 0.929 . S
C193 C192 1.394 . S
C193 C194 1.382 . S
C194 C193 1.382 . S
C194 C195 1.392 . S
C194 N196 1.420 . S
C195 H189 0.930 . S
C195 C191 1.407 . S
C195 C194 1.392 . S
N196 C194 1.420 . S
N196 C197 1.244 . S
C197 N196 1.244 . S
Tb198 N229 2.660 . S
Tb198 N236 2.600 . S
Tb198 O242 2.546 . S
Tb198 O243 2.590 1_566 S
Tb198 O245 2.320 1_565 S
Tb198 O246 2.552 1_565 S
Tb198 O247 2.413 1_565 S
Tb198 O249 2.362 1_556 S
Tb198 O250 2.421 . S
Tb198 C262 2.833 . S
C199 C202 1.432 . S
C199 C203 1.414 . S
C199 N206 1.359 . S
C200 C202 1.417 . S
C200 C204 1.432 . S
C200 C212 1.410 . S
C201 C203 1.444 . S
C201 C204 1.317 . S
C201 H224 0.929 . S
C202 C199 1.432 . S
C202 C200 1.417 . S
C202 N210 1.360 . S
C203 C199 1.414 . S
C203 C201 1.444 . S
C203 C208 1.385 . S
C204 C200 1.432 . S
C204 C201 1.317 . S
C204 H216 0.930 . S
C205 C207 1.392 . S
C205 C208 1.370 . S
C205 H217 0.931 . S
N206 C199 1.359 . S
N206 C207 1.327 . S
N206 Tb209 2.600 . S
C207 C205 1.392 . S
C207 N206 1.327 . S
C207 H214 0.930 . S
C208 C203 1.385 . S
C208 C205 1.370 . S
C208 H227 0.930 . S
Tb209 N206 2.600 . S
Tb209 N210 2.660 . S
Tb209 O243 2.390 . S
Tb209 O244 2.421 . S
Tb209 O248 2.546 . S
Tb209 O249 2.610 1_545 S
Tb209 O251 2.320 1_545 S
Tb209 O252 2.552 1_545 S
Tb209 O253 2.413 1_545 S
Tb209 C273 2.833 . S
N210 C202 1.360 . S
N210 Tb209 2.660 . S
N210 C211 1.305 . S
C211 N210 1.305 . S
C211 C213 1.407 . S
C211 H218 0.930 . S
C212 C200 1.410 . S
C212 C213 1.345 . S
C212 H220 0.930 . S
C213 C211 1.407 . S
C213 C212 1.345 . S
C213 H215 0.930 . S
H214 C207 0.930 . S
H215 C213 0.930 . S
H216 C204 0.930 . S
H217 C205 0.931 . S
H218 C211 0.930 . S
H219 C233 0.930 . S
H220 C212 0.930 . S
H221 C239 0.930 . S
H222 C230 0.930 . S
H223 C237 0.931 . S
H224 C201 0.929 . S
H225 C231 0.930 . S
H226 C264 0.930 . S
H227 C208 0.930 . S
H228 C263 0.929 . S
N229 Tb198 2.660 . S
N229 C230 1.305 . S
N229 C234 1.360 . S
C230 H222 0.930 . S
C230 N229 1.305 . S
C230 C233 1.407 . S
C231 H225 0.930 . S
C231 C232 1.410 . S
C231 C233 1.345 . S
C232 C231 1.410 . S
C232 C234 1.417 . S
C232 C264 1.432 . S
C233 H219 0.930 . S
C233 C230 1.407 . S
C233 C231 1.345 . S
C234 N229 1.360 . S
C234 C232 1.417 . S
C234 C238 1.432 . S
H235 C240 0.930 . S
N236 Tb198 2.600 . S
N236 C238 1.359 . S
N236 C239 1.327 . S
C237 H223 0.931 . S
C237 C239 1.392 . S
C237 C240 1.370 . S
C238 C234 1.432 . S
C238 N236 1.359 . S
C238 C241 1.414 . S
C239 H221 0.930 . S
C239 N236 1.327 . S
C239 C237 1.392 . S
C240 H235 0.930 . S
C240 C237 1.370 . S
C240 C241 1.385 . S
C241 C238 1.414 . S
C241 C240 1.385 . S
C241 C263 1.444 . S
O242 Tb198 2.546 . S
O242 C262 1.251 . S
O243 Tb198 2.590 1_544 S
O243 Tb209 2.390 . S
O243 C254 1.261 1_554 S
O244 Tb209 2.421 . S
O244 C261 1.262 1_554 S
O245 Tb198 2.320 1_545 S
O245 C261 1.260 . S
O246 Tb198 2.552 1_545 S
O246 C254 1.243 . S
O247 Tb198 2.413 1_545 S
O247 C262 1.256 1_545 S
O248 Tb209 2.546 . S
O248 C273 1.251 . S
O249 Tb198 2.362 1_554 S
O249 Tb209 2.610 1_565 S
O249 C265 1.283 . S
O250 Tb198 2.421 . S
O250 C272 1.262 1_556 S
O251 Tb209 2.320 1_565 S
O251 C272 1.260 . S
O252 Tb209 2.552 1_565 S
O252 C265 1.243 . S
O253 Tb209 2.413 1_565 S
O253 C273 1.256 1_565 S
C254 O243 1.261 1_556 S
C254 O246 1.243 . S
C255 C257 1.382 1_565 S
C255 C259 1.393 . S
C255 C262 1.500 . S
C256 C257 1.400 . S
C256 C258 1.384 . S
C257 C255 1.382 1_545 S
C257 C256 1.400 . S
C257 H274 0.930 . S
C258 C256 1.384 . S
C258 C260 1.392 1_545 S
C258 H275 0.931 . S
C259 C255 1.393 . S
C259 C260 1.401 . S
C259 H276 0.930 . S
C260 C258 1.392 1_565 S
C260 C259 1.401 . S
C260 H277 0.930 . S
C261 O244 1.262 1_556 S
C261 O245 1.260 . S
C262 Tb198 2.833 . S
C262 O242 1.251 . S
C262 O247 1.256 1_565 S
C262 C255 1.500 . S
C263 H228 0.929 . S
C263 C241 1.444 . S
C263 C264 1.317 . S
C264 H226 0.930 . S
C264 C232 1.432 . S
C264 C263 1.317 . S
C265 O249 1.283 . S
C265 O252 1.243 . S
C266 C267 1.382 1_545 S
C266 C270 1.393 . S
C266 C273 1.500 . S
C267 C266 1.382 1_565 S
C267 C268 1.400 . S
C267 H278 0.930 . S
C268 C267 1.400 . S
C268 C269 1.384 . S
C269 C268 1.384 . S
C269 C271 1.392 1_565 S
C269 H279 0.931 . S
C270 C266 1.393 . S
C270 C271 1.401 . S
C270 H280 0.930 . S
C271 C269 1.392 1_545 S
C271 C270 1.401 . S
C271 H281 0.930 . S
C272 O250 1.262 1_554 S
C272 O251 1.260 . S
C273 Tb209 2.833 . S
C273 O248 1.251 . S
C273 O253 1.256 1_545 S
C273 C266 1.500 . S
H274 C257 0.930 . S
H275 C258 0.931 . S
H276 C259 0.930 . S
H277 C260 0.930 . S
H278 C267 0.930 . S
H279 C269 0.931 . S
H280 C270 0.930 . S
H281 C271 0.930 . S
Tb282 N313 2.660 . S
Tb282 N320 2.600 . S
Tb282 O326 2.546 . S
Tb282 O327 2.610 1_455 S
Tb282 O329 2.320 1_455 S
Tb282 O330 2.552 1_455 S
Tb282 O331 2.413 . S
Tb282 O333 2.362 1_556 S
Tb282 O334 2.421 . S
Tb282 C346 2.833 . S
C283 C286 1.432 . S
C283 C287 1.414 . S
C283 N290 1.359 . S
C284 C286 1.417 . S
C284 C288 1.432 . S
C284 C296 1.410 . S
C285 C287 1.444 . S
C285 C288 1.317 . S
C285 H308 0.929 . S
C286 C283 1.432 . S
C286 C284 1.417 . S
C286 N294 1.360 . S
C287 C283 1.414 . S
C287 C285 1.444 . S
C287 C292 1.385 . S
C288 C284 1.432 . S
C288 C285 1.317 . S
C288 H300 0.930 . S
C289 C291 1.392 . S
C289 C292 1.370 . S
C289 H301 0.931 . S
N290 C283 1.359 . S
N290 C291 1.327 . S
N290 Tb293 2.600 . S
C291 C289 1.392 . S
C291 N290 1.327 . S
C291 H298 0.930 . S
C292 C287 1.385 . S
C292 C289 1.370 . S
C292 H311 0.930 . S
Tb293 N290 2.600 . S
Tb293 N294 2.660 . S
Tb293 O327 2.361 1_554 S
Tb293 O328 2.421 . S
Tb293 O332 2.546 . S
Tb293 O333 2.610 1_655 S
Tb293 O335 2.320 1_655 S
Tb293 O336 2.552 1_655 S
Tb293 O337 2.413 1_655 S
Tb293 C357 2.833 . S
N294 C286 1.360 . S
N294 Tb293 2.660 . S
N294 C295 1.305 . S
C295 N294 1.305 . S
C295 C297 1.407 . S
C295 H302 0.930 . S
C296 C284 1.410 . S
C296 C297 1.345 . S
C296 H304 0.930 . S
C297 C295 1.407 . S
C297 C296 1.345 . S
C297 H299 0.930 . S
H298 C291 0.930 . S
H299 C297 0.930 . S
H300 C288 0.930 . S
H301 C289 0.931 . S
H302 C295 0.930 . S
H303 C317 0.930 . S
H304 C296 0.930 . S
H305 C323 0.930 . S
H306 C314 0.930 . S
H307 C321 0.931 . S
H308 C285 0.929 . S
H309 C315 0.930 . S
H310 C348 0.930 . S
H311 C292 0.930 . S
H312 C347 0.929 . S
N313 Tb282 2.660 . S
N313 C314 1.305 . S
N313 C318 1.360 . S
C314 H306 0.930 . S
C314 N313 1.305 . S
C314 C317 1.407 . S
C315 H309 0.930 . S
C315 C316 1.410 . S
C315 C317 1.345 . S
C316 C315 1.410 . S
C316 C318 1.417 . S
C316 C348 1.432 . S
C317 H303 0.930 . S
C317 C314 1.407 . S
C317 C315 1.345 . S
C318 N313 1.360 . S
C318 C316 1.417 . S
C318 C322 1.432 . S
H319 C324 0.930 . S
N320 Tb282 2.600 . S
N320 C322 1.359 . S
N320 C323 1.327 . S
C321 H307 0.931 . S
C321 C323 1.392 . S
C321 C324 1.370 . S
C322 C318 1.432 . S
C322 N320 1.359 . S
C322 C325 1.414 . S
C323 H305 0.930 . S
C323 N320 1.327 . S
C323 C321 1.392 . S
C324 H319 0.930 . S
C324 C321 1.370 . S
C324 C325 1.385 . S
C325 C322 1.414 . S
C325 C324 1.385 . S
C325 C347 1.444 . S
O326 Tb282 2.546 . S
O326 C346 1.251 . S
O327 Tb282 2.610 1_655 S
O327 Tb293 2.361 1_556 S
O327 C338 1.284 . S
O328 Tb293 2.421 . S
O328 C345 1.262 1_554 S
O329 Tb282 2.320 1_655 S
O329 C345 1.260 . S
O330 Tb282 2.552 1_655 S
O330 C338 1.243 . S
O331 Tb282 2.413 . S
O331 C346 1.256 . S
O332 Tb293 2.546 . S
O332 C357 1.251 . S
O333 Tb282 2.362 1_554 S
O333 Tb293 2.610 1_455 S
O333 C349 1.283 . S
O334 Tb282 2.421 . S
O334 C356 1.262 1_556 S
O335 Tb293 2.320 1_455 S
O335 C356 1.260 . S
O336 Tb293 2.552 1_455 S
O336 C349 1.243 . S
O337 Tb293 2.413 1_455 S
O337 C357 1.256 1_455 S
C338 O327 1.284 . S
C338 O330 1.243 . S
C339 C341 1.382 1_455 S
C339 C343 1.393 . S
C339 C346 1.500 . S
C340 C341 1.400 . S
C340 C342 1.384 . S
C341 C339 1.382 1_655 S
C341 C340 1.400 . S
C341 H358 0.930 . S
C342 C340 1.384 . S
C342 C344 1.392 1_655 S
C342 H359 0.931 . S
C343 C339 1.393 . S
C343 C344 1.401 . S
C343 H360 0.930 . S
C344 C342 1.392 1_455 S
C344 C343 1.401 . S
C344 H361 0.930 . S
C345 O328 1.262 1_556 S
C345 O329 1.260 . S
C346 Tb282 2.833 . S
C346 O326 1.251 . S
C346 O331 1.256 . S
C346 C339 1.500 . S
C347 H312 0.929 . S
C347 C325 1.444 . S
C347 C348 1.317 . S
C348 H310 0.930 . S
C348 C316 1.432 . S
C348 C347 1.317 . S
C349 O333 1.283 . S
C349 O336 1.243 . S
C350 C351 1.382 1_655 S
C350 C354 1.393 . S
C350 C357 1.500 . S
C351 C350 1.382 1_455 S
C351 C352 1.400 . S
C351 H362 0.930 . S
C352 C351 1.400 . S
C352 C353 1.384 . S
C353 C352 1.384 . S
C353 C355 1.392 1_455 S
C353 H363 0.931 . S
C354 C350 1.393 . S
C354 C355 1.401 . S
C354 H364 0.930 . S
C355 C353 1.392 1_655 S
C355 C354 1.401 . S
C355 H365 0.930 . S
C356 O334 1.262 1_554 S
C356 O335 1.260 . S
C357 Tb293 2.833 . S
C357 O332 1.251 . S
C357 O337 1.256 1_655 S
C357 C350 1.500 . S
H358 C341 0.930 . S
H359 C342 0.931 . S
H360 C343 0.930 . S
H361 C344 0.930 . S
H362 C351 0.930 . S
H363 C353 0.931 . S
H364 C354 0.930 . S
H365 C355 0.930 . S
Tb366 N397 2.660 . S
Tb366 N404 2.600 . S
Tb366 O410 2.546 . S
Tb366 O411 2.610 . S
Tb366 O413 2.320 . S
Tb366 O414 2.552 . S
Tb366 O415 2.413 . S
Tb366 O417 2.362 . S
Tb366 O418 2.421 . S
Tb366 C430 2.833 . S
C367 C370 1.432 . S
C367 C371 1.414 . S
C367 N374 1.359 . S
C368 C370 1.417 . S
C368 C372 1.432 . S
C368 C380 1.410 . S
C369 C371 1.444 . S
C369 C372 1.317 . S
C369 H392 0.929 . S
C370 C367 1.432 . S
C370 C368 1.417 . S
C370 N378 1.360 . S
C371 C367 1.414 . S
C371 C369 1.444 . S
C371 C376 1.385 . S
C372 C368 1.432 . S
C372 C369 1.317 . S
C372 H384 0.930 . S
C373 C375 1.392 . S
C373 C376 1.370 . S
C373 H385 0.931 . S
N374 C367 1.359 . S
N374 C375 1.327 . S
N374 Tb377 2.600 . S
C375 C373 1.392 . S
C375 N374 1.327 . S
C375 H382 0.930 . S
C376 C371 1.385 . S
C376 C373 1.370 . S
C376 H395 0.930 . S
Tb377 N374 2.600 . S
Tb377 N378 2.660 . S
Tb377 O411 2.362 1_556 S
Tb377 O412 2.421 . S
Tb377 O416 2.546 . S
Tb377 O417 2.610 1_556 S
Tb377 O419 2.320 . S
Tb377 O420 2.552 . S
Tb377 O421 2.413 . S
Tb377 C441 2.833 . S
N378 C370 1.360 . S
N378 Tb377 2.660 . S
N378 C379 1.305 . S
C379 N378 1.305 . S
C379 C381 1.407 . S
C379 H386 0.930 . S
C380 C368 1.410 . S
C380 C381 1.345 . S
C380 H388 0.930 . S
C381 C379 1.407 . S
C381 C380 1.345 . S
C381 H383 0.930 . S
H382 C375 0.930 . S
H383 C381 0.930 . S
H384 C372 0.930 . S
H385 C373 0.931 . S
H386 C379 0.930 . S
H387 C401 0.930 . S
H388 C380 0.930 . S
H389 C407 0.930 . S
H390 C398 0.930 . S
H391 C405 0.931 . S
H392 C369 0.929 . S
H393 C399 0.930 . S
H394 C432 0.930 . S
H395 C376 0.930 . S
H396 C431 0.929 . S
N397 Tb366 2.660 . S
N397 C398 1.305 . S
N397 C402 1.360 . S
C398 H390 0.930 . S
C398 N397 1.305 . S
C398 C401 1.407 . S
C399 H393 0.930 . S
C399 C400 1.410 . S
C399 C401 1.345 . S
C400 C399 1.410 . S
C400 C402 1.417 . S
C400 C432 1.432 . S
C401 H387 0.930 . S
C401 C398 1.407 . S
C401 C399 1.345 . S
C402 N397 1.360 . S
C402 C400 1.417 . S
C402 C406 1.432 . S
H403 C408 0.930 . S
N404 Tb366 2.600 . S
N404 C406 1.359 . S
N404 C407 1.327 . S
C405 H391 0.931 . S
C405 C407 1.392 . S
C405 C408 1.370 . S
C406 C402 1.432 . S
C406 N404 1.359 . S
C406 C409 1.414 . S
C407 H389 0.930 . S
C407 N404 1.327 . S
C407 C405 1.392 . S
C408 H403 0.930 . S
C408 C405 1.370 . S
C408 C409 1.385 . S
C409 C406 1.414 . S
C409 C408 1.385 . S
C409 C431 1.444 . S
O410 Tb366 2.546 . S
O410 C430 1.251 . S
O411 Tb366 2.610 . S
O411 Tb377 2.362 1_554 S
O411 C422 1.283 . S
O412 Tb377 2.421 . S
O412 C429 1.262 1_556 S
O413 Tb366 2.320 . S
O413 C429 1.260 . S
O414 Tb366 2.552 . S
O414 C422 1.243 . S
O415 Tb366 2.413 . S
O415 C430 1.256 . S
O416 Tb377 2.546 . S
O416 C441 1.251 . S
O417 Tb366 2.362 . S
O417 Tb377 2.610 1_554 S
O417 C433 1.283 1_554 S
O418 Tb366 2.421 . S
O418 C440 1.262 1_554 S
O419 Tb377 2.320 . S
O419 C440 1.260 . S
O420 Tb377 2.552 . S
O420 C433 1.243 . S
O421 Tb377 2.413 . S
O421 C441 1.256 . S
C422 O411 1.283 . S
C422 O414 1.243 . S
C423 C425 1.382 . S
C423 C427 1.393 . S
C423 C430 1.500 . S
C424 C425 1.400 . S
C424 C426 1.384 . S
C425 C423 1.382 . S
C425 C424 1.400 . S
C425 H442 0.930 . S
C426 C424 1.384 . S
C426 C428 1.392 . S
C426 H443 0.931 . S
C427 C423 1.393 . S
C427 C428 1.401 . S
C427 H444 0.930 . S
C428 C426 1.392 . S
C428 C427 1.401 . S
C428 H445 0.930 . S
C429 O412 1.262 1_554 S
C429 O413 1.260 . S
C430 Tb366 2.833 . S
C430 O410 1.251 . S
C430 O415 1.256 . S
C430 C423 1.500 . S
C431 H396 0.929 . S
C431 C409 1.444 . S
C431 C432 1.317 . S
C432 H394 0.930 . S
C432 C400 1.432 . S
C432 C431 1.317 . S
C433 O417 1.283 1_556 S
C433 O420 1.243 . S
C434 C435 1.382 . S
C434 C438 1.393 . S
C434 C441 1.500 . S
C435 C434 1.382 . S
C435 C436 1.400 . S
C435 H446 0.930 . S
C436 C435 1.400 . S
C436 C437 1.384 . S
C437 C436 1.384 . S
C437 C439 1.392 . S
C437 H447 0.931 . S
C438 C434 1.393 . S
C438 C439 1.401 . S
C438 H448 0.930 . S
C439 C437 1.392 . S
C439 C438 1.401 . S
C439 H449 0.930 . S
C440 O418 1.262 1_556 S
C440 O419 1.260 . S
C441 Tb377 2.833 . S
C441 O416 1.251 . S
C441 O421 1.256 . S
C441 C434 1.500 . S
H442 C425 0.930 . S
H443 C426 0.931 . S
H444 C427 0.930 . S
H445 C428 0.930 . S
H446 C435 0.930 . S
H447 C437 0.931 . S
H448 C438 0.930 . S
H449 C439 0.930 . S
Tb450 N481 2.660 1_455 S
Tb450 N488 2.600 . S
Tb450 O494 2.546 . S
Tb450 O495 2.610 . S
Tb450 O497 2.320 . S
Tb450 O498 2.552 . S
Tb450 O499 2.413 . S
Tb450 O501 2.362 . S
Tb450 O502 2.421 . S
Tb450 C514 2.833 . S
C451 C454 1.432 . S
C451 C455 1.414 . S
C451 N458 1.359 . S
C452 C454 1.417 . S
C452 C456 1.432 . S
C452 C464 1.410 . S
C453 C455 1.444 . S
C453 C456 1.317 . S
C453 H476 0.929 . S
C454 C451 1.432 . S
C454 C452 1.417 . S
C454 N462 1.360 . S
C455 C451 1.414 . S
C455 C453 1.444 . S
C455 C460 1.385 . S
C456 C452 1.432 . S
C456 C453 1.317 . S
C456 H468 0.930 . S
C457 C459 1.392 . S
C457 C460 1.370 . S
C457 H469 0.931 . S
N458 C451 1.359 . S
N458 C459 1.327 . S
N458 Tb461 2.600 . S
C459 C457 1.392 . S
C459 N458 1.327 . S
C459 H466 0.930 . S
C460 C455 1.385 . S
C460 C457 1.370 . S
C460 H479 0.930 . S
Tb461 N458 2.600 . S
Tb461 N462 2.660 . S
Tb461 O495 2.362 . S
Tb461 O496 2.421 . S
Tb461 O500 2.546 . S
Tb461 O501 2.610 . S
Tb461 O503 2.320 . S
Tb461 O504 2.552 . S
Tb461 O505 2.413 . S
Tb461 C525 2.833 . S
N462 C454 1.360 . S
N462 Tb461 2.660 . S
N462 C463 1.305 . S
C463 N462 1.305 . S
C463 C465 1.407 . S
C463 H470 0.930 . S
C464 C452 1.410 . S
C464 C465 1.345 . S
C464 H472 0.930 . S
C465 C463 1.407 . S
C465 C464 1.345 . S
C465 H467 0.930 . S
H466 C459 0.930 . S
H467 C465 0.930 . S
H468 C456 0.930 . S
H469 C457 0.931 . S
H470 C463 0.930 . S
H471 C485 0.930 . S
H472 C464 0.930 . S
H473 C491 0.930 . S
H474 C482 0.930 . S
H475 C489 0.931 . S
H476 C453 0.929 . S
H477 C483 0.930 . S
H478 C516 0.930 . S
H479 C460 0.930 . S
H480 C515 0.929 . S
N481 Tb450 2.660 1_655 S
N481 C482 1.305 . S
N481 C486 1.360 . S
C482 H474 0.930 . S
C482 N481 1.305 . S
C482 C485 1.407 . S
C483 H477 0.930 . S
C483 C484 1.410 . S
C483 C485 1.345 . S
C484 C483 1.410 . S
C484 C486 1.417 . S
C484 C516 1.432 . S
C485 H471 0.930 . S
C485 C482 1.407 . S
C485 C483 1.345 . S
C486 N481 1.360 . S
C486 C484 1.417 . S
C486 C490 1.432 . S
H487 C492 0.930 . S
N488 Tb450 2.600 . S
N488 C490 1.359 1_455 S
N488 C491 1.327 . S
C489 H475 0.931 . S
C489 C491 1.392 . S
C489 C492 1.370 1_455 S
C490 C486 1.432 . S
C490 N488 1.359 1_655 S
C490 C493 1.414 . S
C491 H473 0.930 . S
C491 N488 1.327 . S
C491 C489 1.392 . S
C492 H487 0.930 . S
C492 C489 1.370 1_655 S
C492 C493 1.385 . S
C493 C490 1.414 . S
C493 C492 1.385 . S
C493 C515 1.444 . S
O494 Tb450 2.546 . S
O494 C514 1.251 . S
O495 Tb450 2.610 . S
O495 Tb461 2.362 . S
O495 C506 1.283 . S
O496 Tb461 2.421 . S
O496 C513 1.262 . S
O497 Tb450 2.320 . S
O497 C513 1.260 . S
O498 Tb450 2.552 . S
O498 C506 1.243 . S
O499 Tb450 2.413 . S
O499 C514 1.256 . S
O500 Tb461 2.546 . S
O500 C525 1.251 . S
O501 Tb450 2.362 . S
O501 Tb461 2.610 . S
O501 C517 1.283 . S
O502 Tb450 2.421 . S
O502 C524 1.262 . S
O503 Tb461 2.320 . S
O503 C524 1.260 . S
O504 Tb461 2.552 . S
O504 C517 1.243 . S
O505 Tb461 2.413 . S
O505 C525 1.256 . S
C506 O495 1.283 . S
C506 O498 1.243 . S
C507 C509 1.382 . S
C507 C511 1.393 . S
C507 C514 1.500 . S
C508 C509 1.400 . S
C508 C510 1.384 . S
C509 C507 1.382 . S
C509 C508 1.400 . S
C509 H526 0.930 . S
C510 C508 1.384 . S
C510 C512 1.392 . S
C510 H527 0.931 . S
C511 C507 1.393 . S
C511 C512 1.401 . S
C511 H528 0.930 . S
C512 C510 1.392 . S
C512 C511 1.401 . S
C512 H529 0.930 . S
C513 O496 1.262 . S
C513 O497 1.260 . S
C514 Tb450 2.833 . S
C514 O494 1.251 . S
C514 O499 1.256 . S
C514 C507 1.500 . S
C515 H480 0.929 . S
C515 C493 1.444 . S
C515 C516 1.317 . S
C516 H478 0.930 . S
C516 C484 1.432 . S
C516 C515 1.317 . S
C517 O501 1.283 . S
C517 O504 1.243 . S
C518 C519 1.382 . S
C518 C522 1.393 . S
C518 C525 1.500 . S
C519 C518 1.382 . S
C519 C520 1.400 . S
C519 H530 0.930 . S
C520 C519 1.400 . S
C520 C521 1.384 . S
C521 C520 1.384 . S
C521 C523 1.392 . S
C521 H531 0.931 . S
C522 C518 1.393 . S
C522 C523 1.401 . S
C522 H532 0.930 . S
C523 C521 1.392 . S
C523 C522 1.401 . S
C523 H533 0.930 . S
C524 O502 1.262 . S
C524 O503 1.260 . S
C525 Tb461 2.833 . S
C525 O500 1.251 . S
C525 O505 1.256 . S
C525 C518 1.500 . S
H526 C509 0.930 . S
H527 C510 0.931 . S
H528 C511 0.930 . S
H529 C512 0.930 . S
H530 C519 0.930 . S
H531 C521 0.931 . S
H532 C522 0.930 . S
H533 C523 0.930 . S
Tb534 N565 2.660 . S
Tb534 N572 2.600 . S
Tb534 O578 2.546 . S
Tb534 O579 2.610 . S
Tb534 O581 2.320 . S
Tb534 O582 2.552 . S
Tb534 O583 2.413 . S
Tb534 O585 2.362 . S
Tb534 O586 2.421 . S
Tb534 C598 2.833 . S
C535 C538 1.432 . S
C535 C539 1.414 . S
C535 N542 1.359 . S
C536 C538 1.417 . S
C536 C540 1.432 . S
C536 C548 1.410 . S
C537 C539 1.444 . S
C537 C540 1.317 . S
C537 H560 0.929 . S
C538 C535 1.432 . S
C538 C536 1.417 . S
C538 N546 1.360 . S
C539 C535 1.414 . S
C539 C537 1.444 . S
C539 C544 1.385 . S
C540 C536 1.432 . S
C540 C537 1.317 . S
C540 H552 0.930 . S
C541 C543 1.392 . S
C541 C544 1.370 . S
C541 H553 0.931 . S
N542 C535 1.359 . S
N542 C543 1.327 . S
N542 Tb545 2.600 . S
C543 C541 1.392 . S
C543 N542 1.327 . S
C543 H550 0.930 . S
C544 C539 1.385 . S
C544 C541 1.370 . S
C544 H563 0.930 . S
Tb545 N542 2.600 . S
Tb545 N546 2.660 . S
Tb545 O579 2.362 . S
Tb545 O580 2.421 . S
Tb545 O584 2.546 . S
Tb545 O585 2.610 . S
Tb545 O587 2.320 . S
Tb545 O588 2.552 . S
Tb545 O589 2.413 . S
Tb545 C609 2.833 . S
N546 C538 1.360 . S
N546 Tb545 2.660 . S
N546 C547 1.305 . S
C547 N546 1.305 . S
C547 C549 1.407 . S
C547 H554 0.930 . S
C548 C536 1.410 . S
C548 C549 1.345 . S
C548 H556 0.930 . S
C549 C547 1.407 . S
C549 C548 1.345 . S
C549 H551 0.930 . S
H550 C543 0.930 . S
H551 C549 0.930 . S
H552 C540 0.930 . S
H553 C541 0.931 . S
H554 C547 0.930 . S
H555 C569 0.930 . S
H556 C548 0.930 . S
H557 C575 0.930 . S
H558 C566 0.930 . S
H559 C573 0.931 1_545 S
H560 C537 0.929 . S
H561 C567 0.930 . S
H562 C600 0.930 . S
H563 C544 0.930 . S
H564 C599 0.929 . S
N565 Tb534 2.660 . S
N565 C566 1.305 . S
N565 C570 1.360 . S
C566 H558 0.930 . S
C566 N565 1.305 . S
C566 C569 1.407 . S
C567 H561 0.930 . S
C567 C568 1.410 . S
C567 C569 1.345 . S
C568 C567 1.410 . S
C568 C570 1.417 . S
C568 C600 1.432 . S
C569 H555 0.930 . S
C569 C566 1.407 . S
C569 C567 1.345 . S
C570 N565 1.360 . S
C570 C568 1.417 . S
C570 C574 1.432 . S
H571 C576 0.930 . S
N572 Tb534 2.600 . S
N572 C574 1.359 . S
N572 C575 1.327 . S
C573 H559 0.931 1_565 S
C573 C575 1.392 . S
C573 C576 1.370 . S
C574 C570 1.432 . S
C574 N572 1.359 . S
C574 C577 1.414 . S
C575 H557 0.930 . S
C575 N572 1.327 . S
C575 C573 1.392 . S
C576 H571 0.930 . S
C576 C573 1.370 . S
C576 C577 1.385 . S
C577 C574 1.414 . S
C577 C576 1.385 . S
C577 C599 1.444 . S
O578 Tb534 2.546 . S
O578 C598 1.251 . S
O579 Tb534 2.610 . S
O579 Tb545 2.362 . S
O579 C590 1.283 . S
O580 Tb545 2.421 . S
O580 C597 1.262 . S
O581 Tb534 2.320 . S
O581 C597 1.260 . S
O582 Tb534 2.552 . S
O582 C590 1.243 . S
O583 Tb534 2.413 . S
O583 C598 1.256 . S
O584 Tb545 2.546 . S
O584 C609 1.251 . S
O585 Tb534 2.362 . S
O585 Tb545 2.610 . S
O585 C601 1.283 . S
O586 Tb534 2.421 . S
O586 C608 1.262 . S
O587 Tb545 2.320 . S
O587 C608 1.260 . S
O588 Tb545 2.552 . S
O588 C601 1.243 . S
O589 Tb545 2.413 . S
O589 C609 1.256 . S
C590 O579 1.283 . S
C590 O582 1.243 . S
C591 C593 1.382 . S
C591 C595 1.393 . S
C591 C598 1.500 . S
C592 C593 1.400 . S
C592 C594 1.384 . S
C593 C591 1.382 . S
C593 C592 1.400 . S
C593 H610 0.930 . S
C594 C592 1.384 . S
C594 C596 1.392 . S
C594 H611 0.931 . S
C595 C591 1.393 . S
C595 C596 1.401 . S
C595 H612 0.930 . S
C596 C594 1.392 . S
C596 C595 1.401 . S
C596 H613 0.930 . S
C597 O580 1.262 . S
C597 O581 1.260 . S
C598 Tb534 2.833 . S
C598 O578 1.251 . S
C598 O583 1.256 . S
C598 C591 1.500 . S
C599 H564 0.929 . S
C599 C577 1.444 . S
C599 C600 1.317 . S
C600 H562 0.930 . S
C600 C568 1.432 . S
C600 C599 1.317 . S
C601 O585 1.283 . S
C601 O588 1.243 . S
C602 C603 1.382 . S
C602 C606 1.393 . S
C602 C609 1.500 . S
C603 C602 1.382 . S
C603 C604 1.400 . S
C603 H614 0.930 . S
C604 C603 1.400 . S
C604 C605 1.384 . S
C605 C604 1.384 . S
C605 C607 1.392 . S
C605 H615 0.931 . S
C606 C602 1.393 . S
C606 C607 1.401 . S
C606 H616 0.930 . S
C607 C605 1.392 . S
C607 C606 1.401 . S
C607 H617 0.930 . S
C608 O586 1.262 . S
C608 O587 1.260 . S
C609 Tb545 2.833 . S
C609 O584 1.251 . S
C609 O589 1.256 . S
C609 C602 1.500 . S
H610 C593 0.930 . S
H611 C594 0.931 . S
H612 C595 0.930 . S
H613 C596 0.930 . S
H614 C603 0.930 . S
H615 C605 0.931 . S
H616 C606 0.930 . S
H617 C607 0.930 . S
Tb618 N649 2.660 . S
Tb618 N656 2.600 . S
Tb618 O662 2.546 . S
Tb618 O663 2.610 . S
Tb618 O665 2.320 . S
Tb618 O666 2.552 . S
Tb618 O667 2.413 . S
Tb618 O669 2.362 . S
Tb618 O670 2.421 . S
Tb618 C682 2.833 . S
C619 C622 1.432 . S
C619 C623 1.414 . S
C619 N626 1.359 . S
C620 C622 1.417 1_655 S
C620 C624 1.432 . S
C620 C632 1.410 . S
C621 C623 1.444 1_655 S
C621 C624 1.317 . S
C621 H644 0.929 . S
C622 C619 1.432 . S
C622 C620 1.417 1_455 S
C622 N630 1.360 . S
C623 C619 1.414 . S
C623 C621 1.444 1_455 S
C623 C628 1.385 1_565 S
C624 C620 1.432 . S
C624 C621 1.317 . S
C624 H636 0.930 . S
C625 C627 1.392 . S
C625 C628 1.370 . S
C625 H637 0.931 . S
N626 C619 1.359 . S
N626 C627 1.327 1_565 S
N626 Tb629 2.600 . S
C627 C625 1.392 . S
C627 N626 1.327 1_545 S
C627 H634 0.930 . S
C628 C623 1.385 1_545 S
C628 C625 1.370 . S
C628 H647 0.930 . S
Tb629 N626 2.600 . S
Tb629 N630 2.660 . S
Tb629 O663 2.362 . S
Tb629 O664 2.421 . S
Tb629 O668 2.546 . S
Tb629 O669 2.610 . S
Tb629 O671 2.320 . S
Tb629 O672 2.552 . S
Tb629 O673 2.413 . S
Tb629 C693 2.833 . S
N630 C622 1.360 . S
N630 Tb629 2.660 . S
N630 C631 1.305 . S
C631 N630 1.305 . S
C631 C633 1.407 1_455 S
C631 H638 0.930 . S
C632 C620 1.410 . S
C632 C633 1.345 . S
C632 H640 0.930 . S
C633 C631 1.407 1_655 S
C633 C632 1.345 . S
C633 H635 0.930 . S
H634 C627 0.930 . S
H635 C633 0.930 . S
H636 C624 0.930 . S
H637 C625 0.931 . S
H638 C631 0.930 . S
H639 C653 0.930 . S
H640 C632 0.930 . S
H641 C659 0.930 . S
H642 C650 0.930 1_545 S
H643 C657 0.931 . S
H644 C621 0.929 . S
H645 C651 0.930 . S
H646 C684 0.930 . S
H647 C628 0.930 . S
H648 C683 0.929 . S
N649 Tb618 2.660 . S
N649 C650 1.305 . S
N649 C654 1.360 . S
C650 H642 0.930 1_565 S
C650 N649 1.305 . S
C650 C653 1.407 1_565 S
C651 H645 0.930 . S
C651 C652 1.410 1_545 S
C651 C653 1.345 . S
C652 C651 1.410 1_565 S
C652 C654 1.417 . S
C652 C684 1.432 . S
C653 H639 0.930 . S
C653 C650 1.407 1_545 S
C653 C651 1.345 . S
C654 N649 1.360 . S
C654 C652 1.417 . S
C654 C658 1.432 . S
H655 C660 0.930 . S
N656 Tb618 2.600 . S
N656 C658 1.359 . S
N656 C659 1.327 . S
C657 H643 0.931 . S
C657 C659 1.392 . S
C657 C660 1.370 . S
C658 C654 1.432 . S
C658 N656 1.359 . S
C658 C661 1.414 . S
C659 H641 0.930 . S
C659 N656 1.327 . S
C659 C657 1.392 . S
C660 H655 0.930 . S
C660 C657 1.370 . S
C660 C661 1.385 . S
C661 C658 1.414 . S
C661 C660 1.385 . S
C661 C683 1.444 . S
O662 Tb618 2.546 . S
O662 C682 1.251 . S
O663 Tb618 2.610 . S
O663 Tb629 2.362 . S
O663 C674 1.283 . S
O664 Tb629 2.421 . S
O664 C681 1.262 1_565 S
O665 Tb618 2.320 . S
O665 C681 1.260 1_565 S
O666 Tb618 2.552 . S
O666 C674 1.243 . S
O667 Tb618 2.413 . S
O667 C682 1.256 . S
O668 Tb629 2.546 . S
O668 C693 1.251 . S
O669 Tb618 2.362 . S
O669 Tb629 2.610 . S
O669 C685 1.283 . S
O670 Tb618 2.421 . S
O670 C692 1.262 . S
O671 Tb629 2.320 . S
O671 C692 1.260 . S
O672 Tb629 2.552 . S
O672 C685 1.243 . S
O673 Tb629 2.413 . S
O673 C693 1.256 . S
C674 O663 1.283 . S
C674 O666 1.243 . S
C675 C677 1.382 . S
C675 C679 1.393 . S
C675 C682 1.500 . S
C676 C677 1.400 . S
C676 C678 1.384 . S
C677 C675 1.382 . S
C677 C676 1.400 . S
C677 H694 0.930 . S
C678 C676 1.384 . S
C678 C680 1.392 . S
C678 H695 0.931 . S
C679 C675 1.393 . S
C679 C680 1.401 . S
C679 H696 0.930 . S
C680 C678 1.392 . S
C680 C679 1.401 . S
C680 H697 0.930 . S
C681 O664 1.262 1_545 S
C681 O665 1.260 1_545 S
C682 Tb618 2.833 . S
C682 O662 1.251 . S
C682 O667 1.256 . S
C682 C675 1.500 . S
C683 H648 0.929 . S
C683 C661 1.444 . S
C683 C684 1.317 . S
C684 H646 0.930 . S
C684 C652 1.432 . S
C684 C683 1.317 . S
C685 O669 1.283 . S
C685 O672 1.243 . S
C686 C687 1.382 . S
C686 C690 1.393 . S
C686 C693 1.500 . S
C687 C686 1.382 . S
C687 C688 1.400 . S
C687 H698 0.930 . S
C688 C687 1.400 . S
C688 C689 1.384 . S
C689 C688 1.384 . S
C689 C691 1.392 . S
C689 H699 0.931 . S
C690 C686 1.393 . S
C690 C691 1.401 . S
C690 H700 0.930 . S
C691 C689 1.392 . S
C691 C690 1.401 . S
C691 H701 0.930 . S
C692 O670 1.262 . S
C692 O671 1.260 . S
C693 Tb629 2.833 . S
C693 O668 1.251 . S
C693 O673 1.256 . S
C693 C686 1.500 . S
H694 C677 0.930 . S
H695 C678 0.931 . S
H696 C679 0.930 . S
H697 C680 0.930 . S
H698 C687 0.930 . S
H699 C689 0.931 . S
H700 C690 0.930 . S
H701 C691 0.930 . S
Tb702 N733 2.660 . S
Tb702 N740 2.600 . S
Tb702 O746 2.546 . S
Tb702 O747 2.610 . S
Tb702 O749 2.320 . S
Tb702 O750 2.552 . S
Tb702 O751 2.413 . S
Tb702 O753 2.362 . S
Tb702 O754 2.421 . S
Tb702 C766 2.833 . S
C703 C706 1.432 . S
C703 C707 1.414 . S
C703 N710 1.359 . S
C704 C706 1.417 1_455 S
C704 C708 1.432 . S
C704 C716 1.410 . S
C705 C707 1.444 1_455 S
C705 C708 1.317 . S
C705 H728 0.929 . S
C706 C703 1.432 . S
C706 C704 1.417 1_655 S
C706 N714 1.360 . S
C707 C703 1.414 . S
C707 C705 1.444 1_655 S
C707 C712 1.385 . S
C708 C704 1.432 . S
C708 C705 1.317 . S
C708 H720 0.930 . S
C709 C711 1.392 . S
C709 C712 1.370 . S
C709 H721 0.931 . S
N710 C703 1.359 . S
N710 C711 1.327 . S
N710 Tb713 2.600 . S
C711 C709 1.392 . S
C711 N710 1.327 . S
C711 H718 0.930 . S
C712 C707 1.385 . S
C712 C709 1.370 . S
C712 H731 0.930 . S
Tb713 N710 2.600 . S
Tb713 N714 2.660 . S
Tb713 O747 2.362 . S
Tb713 O748 2.421 . S
Tb713 O752 2.546 . S
Tb713 O753 2.610 . S
Tb713 O755 2.320 . S
Tb713 O756 2.552 . S
Tb713 O757 2.413 . S
Tb713 C777 2.833 . S
N714 C706 1.360 . S
N714 Tb713 2.660 . S
N714 C715 1.305 . S
C715 N714 1.305 . S
C715 C717 1.407 1_655 S
C715 H722 0.930 . S
C716 C704 1.410 . S
C716 C717 1.345 . S
C716 H724 0.930 . S
C717 C715 1.407 1_455 S
C717 C716 1.345 . S
C717 H719 0.930 . S
H718 C711 0.930 . S
H719 C717 0.930 . S
H720 C708 0.930 . S
H721 C709 0.931 . S
H722 C715 0.930 . S
H723 C737 0.930 . S
H724 C716 0.930 . S
H725 C743 0.930 . S
H726 C734 0.930 . S
H727 C741 0.931 . S
H728 C705 0.929 . S
H729 C735 0.930 . S
H730 C768 0.930 . S
H731 C712 0.930 . S
H732 C767 0.929 . S
N733 Tb702 2.660 . S
N733 C734 1.305 . S
N733 C738 1.360 . S
C734 H726 0.930 . S
C734 N733 1.305 . S
C734 C737 1.407 . S
C735 H729 0.930 . S
C735 C736 1.410 . S
C735 C737 1.345 . S
C736 C735 1.410 . S
C736 C738 1.417 . S
C736 C768 1.432 . S
C737 H723 0.930 . S
C737 C734 1.407 . S
C737 C735 1.345 . S
C738 N733 1.360 . S
C738 C736 1.417 . S
C738 C742 1.432 . S
H739 C744 0.930 . S
N740 Tb702 2.600 . S
N740 C742 1.359 . S
N740 C743 1.327 . S
C741 H727 0.931 . S
C741 C743 1.392 . S
C741 C744 1.370 . S
C742 C738 1.432 . S
C742 N740 1.359 . S
C742 C745 1.414 . S
C743 H725 0.930 . S
C743 N740 1.327 . S
C743 C741 1.392 . S
C744 H739 0.930 . S
C744 C741 1.370 . S
C744 C745 1.385 . S
C745 C742 1.414 . S
C745 C744 1.385 . S
C745 C767 1.444 . S
O746 Tb702 2.546 . S
O746 C766 1.251 . S
O747 Tb702 2.610 . S
O747 Tb713 2.362 . S
O747 C758 1.283 . S
O748 Tb713 2.421 . S
O748 C765 1.262 . S
O749 Tb702 2.320 . S
O749 C765 1.260 . S
O750 Tb702 2.552 . S
O750 C758 1.243 . S
O751 Tb702 2.413 . S
O751 C766 1.256 . S
O752 Tb713 2.546 . S
O752 C777 1.251 . S
O753 Tb702 2.362 . S
O753 Tb713 2.610 . S
O753 C769 1.283 . S
O754 Tb702 2.421 . S
O754 C776 1.262 . S
O755 Tb713 2.320 . S
O755 C776 1.260 . S
O756 Tb713 2.552 . S
O756 C769 1.243 . S
O757 Tb713 2.413 . S
O757 C777 1.256 . S
C758 O747 1.283 . S
C758 O750 1.243 . S
C759 C761 1.382 . S
C759 C763 1.393 . S
C759 C766 1.500 . S
C760 C761 1.400 . S
C760 C762 1.384 . S
C761 C759 1.382 . S
C761 C760 1.400 . S
C761 H778 0.930 . S
C762 C760 1.384 . S
C762 C764 1.392 . S
C762 H779 0.931 . S
C763 C759 1.393 . S
C763 C764 1.401 . S
C763 H780 0.930 . S
C764 C762 1.392 . S
C764 C763 1.401 . S
C764 H781 0.930 . S
C765 O748 1.262 . S
C765 O749 1.260 . S
C766 Tb702 2.833 . S
C766 O746 1.251 . S
C766 O751 1.256 . S
C766 C759 1.500 . S
C767 H732 0.929 . S
C767 C745 1.444 . S
C767 C768 1.317 . S
C768 H730 0.930 . S
C768 C736 1.432 . S
C768 C767 1.317 . S
C769 O753 1.283 . S
C769 O756 1.243 . S
C770 C771 1.382 . S
C770 C774 1.393 . S
C770 C777 1.500 . S
C771 C770 1.382 . S
C771 C772 1.400 . S
C771 H782 0.930 . S
C772 C771 1.400 . S
C772 C773 1.384 . S
C773 C772 1.384 . S
C773 C775 1.392 . S
C773 H783 0.931 . S
C774 C770 1.393 . S
C774 C775 1.401 . S
C774 H784 0.930 . S
C775 C773 1.392 . S
C775 C774 1.401 . S
C775 H785 0.930 . S
C776 O754 1.262 . S
C776 O755 1.260 . S
C777 Tb713 2.833 . S
C777 O752 1.251 . S
C777 O757 1.256 . S
C777 C770 1.500 . S
H778 C761 0.930 . S
H779 C762 0.931 . S
H780 C763 0.930 . S
H781 C764 0.930 . S
H782 C771 0.930 . S
H783 C773 0.931 . S
H784 C774 0.930 . S
H785 C775 0.930 . S
Tb786 N817 2.660 . S
Tb786 N824 2.600 . S
Tb786 O830 2.546 . S
Tb786 O831 2.610 . S
Tb786 O833 2.320 . S
Tb786 O834 2.552 . S
Tb786 O835 2.413 . S
Tb786 O837 2.362 . S
Tb786 O838 2.421 . S
Tb786 C850 2.833 . S
C787 C790 1.432 . S
C787 C791 1.414 . S
C787 N794 1.359 . S
C788 C790 1.417 . S
C788 C792 1.432 . S
C788 C800 1.410 . S
C789 C791 1.444 . S
C789 C792 1.317 . S
C789 H812 0.929 . S
C790 C787 1.432 . S
C790 C788 1.417 . S
C790 N798 1.360 . S
C791 C787 1.414 . S
C791 C789 1.444 . S
C791 C796 1.385 1_545 S
C792 C788 1.432 . S
C792 C789 1.317 . S
C792 H804 0.930 . S
C793 C795 1.392 . S
C793 C796 1.370 . S
C793 H805 0.931 . S
N794 C787 1.359 . S
N794 C795 1.327 1_545 S
N794 Tb797 2.600 . S
C795 C793 1.392 . S
C795 N794 1.327 1_565 S
C795 H802 0.930 . S
C796 C791 1.385 1_565 S
C796 C793 1.370 . S
C796 H815 0.930 . S
Tb797 N794 2.600 . S
Tb797 N798 2.660 . S
Tb797 O831 2.362 . S
Tb797 O832 2.421 . S
Tb797 O836 2.546 . S
Tb797 O837 2.610 . S
Tb797 O839 2.320 . S
Tb797 O840 2.552 . S
Tb797 O841 2.413 . S
Tb797 C861 2.833 . S
N798 C790 1.360 . S
N798 Tb797 2.660 . S
N798 C799 1.305 . S
C799 N798 1.305 . S
C799 C801 1.407 . S
C799 H806 0.930 . S
C800 C788 1.410 . S
C800 C801 1.345 . S
C800 H808 0.930 . S
C801 C799 1.407 . S
C801 C800 1.345 . S
C801 H803 0.930 . S
H802 C795 0.930 . S
H803 C801 0.930 . S
H804 C792 0.930 . S
H805 C793 0.931 . S
H806 C799 0.930 . S
H807 C821 0.930 . S
H808 C800 0.930 . S
H809 C827 0.930 . S
H810 C818 0.930 1_565 S
H811 C825 0.931 . S
H812 C789 0.929 . S
H813 C819 0.930 1_565 S
H814 C852 0.930 . S
H815 C796 0.930 . S
H816 C851 0.929 . S
N817 Tb786 2.660 . S
N817 C818 1.305 . S
N817 C822 1.360 . S
C818 H810 0.930 1_545 S
C818 N817 1.305 . S
C818 C821 1.407 1_545 S
C819 H813 0.930 1_545 S
C819 C820 1.410 . S
C819 C821 1.345 1_545 S
C820 C819 1.410 . S
C820 C822 1.417 . S
C820 C852 1.432 . S
C821 H807 0.930 . S
C821 C818 1.407 1_565 S
C821 C819 1.345 1_565 S
C822 N817 1.360 . S
C822 C820 1.417 . S
C822 C826 1.432 . S
H823 C828 0.930 . S
N824 Tb786 2.600 . S
N824 C826 1.359 . S
N824 C827 1.327 . S
C825 H811 0.931 . S
C825 C827 1.392 . S
C825 C828 1.370 . S
C826 C822 1.432 . S
C826 N824 1.359 . S
C826 C829 1.414 . S
C827 H809 0.930 . S
C827 N824 1.327 . S
C827 C825 1.392 . S
C828 H823 0.930 . S
C828 C825 1.370 . S
C828 C829 1.385 . S
C829 C826 1.414 . S
C829 C828 1.385 . S
C829 C851 1.444 . S
O830 Tb786 2.546 . S
O830 C850 1.251 . S
O831 Tb786 2.610 . S
O831 Tb797 2.362 . S
O831 C842 1.283 . S
O832 Tb797 2.421 . S
O832 C849 1.262 . S
O833 Tb786 2.320 . S
O833 C849 1.260 . S
O834 Tb786 2.552 . S
O834 C842 1.243 . S
O835 Tb786 2.413 . S
O835 C850 1.256 . S
O836 Tb797 2.546 . S
O836 C861 1.251 . S
O837 Tb786 2.362 . S
O837 Tb797 2.610 . S
O837 C853 1.283 . S
O838 Tb786 2.421 . S
O838 C860 1.262 . S
O839 Tb797 2.320 . S
O839 C860 1.260 . S
O840 Tb797 2.552 . S
O840 C853 1.243 . S
O841 Tb797 2.413 . S
O841 C861 1.256 . S
C842 O831 1.283 . S
C842 O834 1.243 . S
C843 C845 1.382 . S
C843 C847 1.393 . S
C843 C850 1.500 . S
C844 C845 1.400 . S
C844 C846 1.384 . S
C845 C843 1.382 . S
C845 C844 1.400 . S
C845 H862 0.930 . S
C846 C844 1.384 . S
C846 C848 1.392 . S
C846 H863 0.931 . S
C847 C843 1.393 . S
C847 C848 1.401 . S
C847 H864 0.930 . S
C848 C846 1.392 . S
C848 C847 1.401 . S
C848 H865 0.930 . S
C849 O832 1.262 . S
C849 O833 1.260 . S
C850 Tb786 2.833 . S
C850 O830 1.251 . S
C850 O835 1.256 . S
C850 C843 1.500 . S
C851 H816 0.929 . S
C851 C829 1.444 . S
C851 C852 1.317 . S
C852 H814 0.930 . S
C852 C820 1.432 . S
C852 C851 1.317 . S
C853 O837 1.283 . S
C853 O840 1.243 . S
C854 C855 1.382 . S
C854 C858 1.393 . S
C854 C861 1.500 . S
C855 C854 1.382 . S
C855 C856 1.400 . S
C855 H866 0.930 . S
C856 C855 1.400 . S
C856 C857 1.384 . S
C857 C856 1.384 . S
C857 C859 1.392 . S
C857 H867 0.931 . S
C858 C854 1.393 . S
C858 C859 1.401 . S
C858 H868 0.930 . S
C859 C857 1.392 . S
C859 C858 1.401 . S
C859 H869 0.930 . S
C860 O838 1.262 . S
C860 O839 1.260 . S
C861 Tb797 2.833 . S
C861 O836 1.251 . S
C861 O841 1.256 . S
C861 C854 1.500 . S
H862 C845 0.930 . S
H863 C846 0.931 . S
H864 C847 0.930 . S
H865 C848 0.930 . S
H866 C855 0.930 . S
H867 C857 0.931 . S
H868 C858 0.930 . S
H869 C859 0.930 . S
Tb870 N901 2.660 1_655 S
Tb870 N908 2.600 . S
Tb870 O914 2.546 . S
Tb870 O915 2.610 . S
Tb870 O917 2.320 . S
Tb870 O918 2.552 . S
Tb870 O919 2.413 . S
Tb870 O921 2.362 . S
Tb870 O922 2.421 . S
Tb870 C934 2.833 . S
C871 C874 1.432 . S
C871 C875 1.414 . S
C871 N878 1.359 . S
C872 C874 1.417 . S
C872 C876 1.432 . S
C872 C884 1.410 . S
C873 C875 1.444 . S
C873 C876 1.317 . S
C873 H896 0.929 . S
C874 C871 1.432 . S
C874 C872 1.417 . S
C874 N882 1.360 . S
C875 C871 1.414 . S
C875 C873 1.444 . S
C875 C880 1.385 . S
C876 C872 1.432 . S
C876 C873 1.317 . S
C876 H888 0.930 . S
C877 C879 1.392 . S
C877 C880 1.370 . S
C877 H889 0.931 . S
N878 C871 1.359 . S
N878 C879 1.327 . S
N878 Tb881 2.600 . S
C879 C877 1.392 . S
C879 N878 1.327 . S
C879 H886 0.930 . S
C880 C875 1.385 . S
C880 C877 1.370 . S
C880 H899 0.930 . S
Tb881 N878 2.600 . S
Tb881 N882 2.660 . S
Tb881 O915 2.362 . S
Tb881 O916 2.421 . S
Tb881 O920 2.546 . S
Tb881 O921 2.610 . S
Tb881 O923 2.320 . S
Tb881 O924 2.552 . S
Tb881 O925 2.413 . S
Tb881 C945 2.833 . S
N882 C874 1.360 . S
N882 Tb881 2.660 . S
N882 C883 1.305 . S
C883 N882 1.305 . S
C883 C885 1.407 . S
C883 H890 0.930 . S
C884 C872 1.410 . S
C884 C885 1.345 . S
C884 H892 0.930 . S
C885 C883 1.407 . S
C885 C884 1.345 . S
C885 H887 0.930 . S
H886 C879 0.930 . S
H887 C885 0.930 . S
H888 C876 0.930 . S
H889 C877 0.931 . S
H890 C883 0.930 . S
H891 C905 0.930 . S
H892 C884 0.930 . S
H893 C911 0.930 . S
H894 C902 0.930 . S
H895 C909 0.931 . S
H896 C873 0.929 . S
H897 C903 0.930 . S
H898 C936 0.930 . S
H899 C880 0.930 . S
H900 C935 0.929 . S
N901 Tb870 2.660 1_455 S
N901 C902 1.305 . S
N901 C906 1.360 . S
C902 H894 0.930 . S
C902 N901 1.305 . S
C902 C905 1.407 . S
C903 H897 0.930 . S
C903 C904 1.410 . S
C903 C905 1.345 . S
C904 C903 1.410 . S
C904 C906 1.417 . S
C904 C936 1.432 . S
C905 H891 0.930 . S
C905 C902 1.407 . S
C905 C903 1.345 . S
C906 N901 1.360 . S
C906 C904 1.417 . S
C906 C910 1.432 . S
H907 C912 0.930 . S
N908 Tb870 2.600 . S
N908 C910 1.359 1_655 S
N908 C911 1.327 . S
C909 H895 0.931 . S
C909 C911 1.392 . S
C909 C912 1.370 1_655 S
C910 C906 1.432 . S
C910 N908 1.359 1_455 S
C910 C913 1.414 . S
C911 H893 0.930 . S
C911 N908 1.327 . S
C911 C909 1.392 . S
C912 H907 0.930 . S
C912 C909 1.370 1_455 S
C912 C913 1.385 . S
C913 C910 1.414 . S
C913 C912 1.385 . S
C913 C935 1.444 . S
O914 Tb870 2.546 . S
O914 C934 1.251 . S
O915 Tb870 2.610 . S
O915 Tb881 2.362 . S
O915 C926 1.283 . S
O916 Tb881 2.421 . S
O916 C933 1.262 . S
O917 Tb870 2.320 . S
O917 C933 1.260 . S
O918 Tb870 2.552 . S
O918 C926 1.243 . S
O919 Tb870 2.413 . S
O919 C934 1.256 . S
O920 Tb881 2.546 . S
O920 C945 1.251 . S
O921 Tb870 2.362 . S
O921 Tb881 2.610 . S
O921 C937 1.283 . S
O922 Tb870 2.421 . S
O922 C944 1.262 . S
O923 Tb881 2.320 . S
O923 C944 1.260 . S
O924 Tb881 2.552 . S
O924 C937 1.243 . S
O925 Tb881 2.413 . S
O925 C945 1.256 . S
C926 O915 1.283 . S
C926 O918 1.243 . S
C927 C929 1.382 . S
C927 C931 1.393 . S
C927 C934 1.500 . S
C928 C929 1.400 . S
C928 C930 1.384 . S
C929 C927 1.382 . S
C929 C928 1.400 . S
C929 H946 0.930 . S
C930 C928 1.384 . S
C930 C932 1.392 . S
C930 H947 0.931 . S
C931 C927 1.393 . S
C931 C932 1.401 . S
C931 H948 0.930 . S
C932 C930 1.392 . S
C932 C931 1.401 . S
C932 H949 0.930 . S
C933 O916 1.262 . S
C933 O917 1.260 . S
C934 Tb870 2.833 . S
C934 O914 1.251 . S
C934 O919 1.256 . S
C934 C927 1.500 . S
C935 H900 0.929 . S
C935 C913 1.444 . S
C935 C936 1.317 . S
C936 H898 0.930 . S
C936 C904 1.432 . S
C936 C935 1.317 . S
C937 O921 1.283 . S
C937 O924 1.243 . S
C938 C939 1.382 . S
C938 C942 1.393 . S
C938 C945 1.500 . S
C939 C938 1.382 . S
C939 C940 1.400 . S
C939 H950 0.930 . S
C940 C939 1.400 . S
C940 C941 1.384 . S
C941 C940 1.384 . S
C941 C943 1.392 . S
C941 H951 0.931 . S
C942 C938 1.393 . S
C942 C943 1.401 . S
C942 H952 0.930 . S
C943 C941 1.392 . S
C943 C942 1.401 . S
C943 H953 0.930 . S
C944 O922 1.262 . S
C944 O923 1.260 . S
C945 Tb881 2.833 . S
C945 O920 1.251 . S
C945 O925 1.256 . S
C945 C938 1.500 . S
H946 C929 0.930 . S
H947 C930 0.931 . S
H948 C931 0.930 . S
H949 C932 0.930 . S
H950 C939 0.930 . S
H951 C941 0.931 . S
H952 C942 0.930 . S
H953 C943 0.930 . S
C147 C265 1.446 . S
C158 C349 1.527 . S
C136 C429 1.579 . S
C125 C345 1.615 . S
C433 C103 1.464 . S
C114 C261 1.541 . S
C254 C131 1.487 . S
C338 C109 1.525 . S
C120 C440 1.469 . S
C153 C356 1.438 . S
C164 C422 1.446 . S
C272 C142 1.407 . S
C517 C15 1.445 1_455 S
C26 C601 1.527 . S
C4 C681 1.579 . S
C191 C597 1.615 . S
C169 C685 1.464 . S
C180 C513 1.542 . S
C197 C506 1.487 . S
C175 C590 1.525 . S
C692 C186 1.469 . S
C21 C608 1.438 . S
C674 C32 1.446 . S
C10 C524 1.407 . S
C769 C81 1.445 . S
C92 C853 1.527 . S
C933 C70 1.579 . S
C849 C59 1.615 1_545 S
C937 C37 1.464 1_655 S
C48 C765 1.542 . S
C65 C758 1.487 . S
C43 C842 1.525 . S
C944 C54 1.469 . S
C87 C860 1.437 . S
C98 C926 1.446 . S
C76 C776 1.407 . S
C170 C268 1.695 . S
C352 C181 1.654 . S
C192 C424 1.430 . S
C71 C340 1.359 . S
C82 C436 1.600 . S
C256 C93 1.429 . S
C38 C520 1.696 . S
C49 C604 1.654 . S
C60 C676 1.429 . S
C137 C592 1.359 . S
C688 C148 1.599 . S
C159 C508 1.429 . S
C104 C772 1.696 . S
C115 C856 1.654 . S
C928 C126 1.429 . S
C5 C844 1.359 . S
C16 C940 1.600 . S
C27 C760 1.428 . S
