# Generated by pormake.
# Topology dag, (6,3)-cn, num edge types: 1
# Building blocks:
#     Node 0, Type 0, BuildingBlock: MIDCAF_clean_sbu_0, # of connection points: 6
#     Node 1, Type 0, BuildingBlock: MIDCAF_clean_sbu_0, # of connection points: 6
#     Node 2, Type 0, BuildingBlock: MIDCAF_clean_sbu_0, # of connection points: 6
#     Node 3, Type 0, BuildingBlock: MIDCAF_clean_sbu_0, # of connection points: 6
#     Node 4, Type 1, BuildingBlock: KAKCAD_clean_linker_0, # of connection points: 3
#     Node 5, Type 1, BuildingBlock: KAKCAD_clean_linker_0, # of connection points: 3
#     Node 6, Type 1, BuildingBlock: KAKCAD_clean_linker_0, # of connection points: 3
#     Node 7, Type 1, BuildingBlock: KAKCAD_clean_linker_0, # of connection points: 3
#     Node 8, Type 1, BuildingBlock: KAKCAD_clean_linker_0, # of connection points: 3
#     Node 9, Type 1, BuildingBlock: KAKCAD_clean_linker_0, # of connection points: 3
#     Node 10, Type 1, BuildingBlock: KAKCAD_clean_linker_0, # of connection points: 3
#     Node 11, Type 1, BuildingBlock: KAKCAD_clean_linker_0, # of connection points: 3
#     Edge 12, Type (0, 1), BuildingBlock: KIFKEQ_clean_linker_1, # of connection points: 2
#     Edge 13, Type (0, 1), BuildingBlock: KIFKEQ_clean_linker_1, # of connection points: 2
#     Edge 14, Type (0, 1), BuildingBlock: KIFKEQ_clean_linker_1, # of connection points: 2
#     Edge 15, Type (0, 1), BuildingBlock: KIFKEQ_clean_linker_1, # of connection points: 2
#     Edge 16, Type (0, 1), BuildingBlock: KIFKEQ_clean_linker_1, # of connection points: 2
#     Edge 17, Type (0, 1), BuildingBlock: KIFKEQ_clean_linker_1, # of connection points: 2
#     Edge 18, Type (0, 1), BuildingBlock: KIFKEQ_clean_linker_1, # of connection points: 2
#     Edge 19, Type (0, 1), BuildingBlock: KIFKEQ_clean_linker_1, # of connection points: 2
#     Edge 20, Type (0, 1), BuildingBlock: KIFKEQ_clean_linker_1, # of connection points: 2
#     Edge 21, Type (0, 1), BuildingBlock: KIFKEQ_clean_linker_1, # of connection points: 2
#     Edge 22, Type (0, 1), BuildingBlock: KIFKEQ_clean_linker_1, # of connection points: 2
#     Edge 23, Type (0, 1), BuildingBlock: KIFKEQ_clean_linker_1, # of connection points: 2
#     Edge 24, Type (0, 1), BuildingBlock: KIFKEQ_clean_linker_1, # of connection points: 2
#     Edge 25, Type (0, 1), BuildingBlock: KIFKEQ_clean_linker_1, # of connection points: 2
#     Edge 26, Type (0, 1), BuildingBlock: KIFKEQ_clean_linker_1, # of connection points: 2
#     Edge 27, Type (0, 1), BuildingBlock: KIFKEQ_clean_linker_1, # of connection points: 2
#     Edge 28, Type (0, 1), BuildingBlock: KIFKEQ_clean_linker_1, # of connection points: 2
#     Edge 29, Type (0, 1), BuildingBlock: KIFKEQ_clean_linker_1, # of connection points: 2
#     Edge 30, Type (0, 1), BuildingBlock: KIFKEQ_clean_linker_1, # of connection points: 2
#     Edge 31, Type (0, 1), BuildingBlock: KIFKEQ_clean_linker_1, # of connection points: 2
#     Edge 32, Type (0, 1), BuildingBlock: KIFKEQ_clean_linker_1, # of connection points: 2
#     Edge 33, Type (0, 1), BuildingBlock: KIFKEQ_clean_linker_1, # of connection points: 2
#     Edge 34, Type (0, 1), BuildingBlock: KIFKEQ_clean_linker_1, # of connection points: 2
#     Edge 35, Type (0, 1), BuildingBlock: KIFKEQ_clean_linker_1, # of connection points: 2
# Relax obj value: 0.304
# Max RMSD: 0.191
# Mean RMSD: 0.180
data_MOF--net-dag--node1-MIDCAF_clean_sbu_0--node2-KAKCAD_clean_linker_0--edge1-KIFKEQ_clean_linker_1
_symmetry_space_group_name_H-M    P1
_symmetry_Int_Tables_number       1
_symmetry_cell_setting            triclinic
loop_
_symmetry_equiv_pos_as_xyz
'x, y, z'
_cell_length_a     48.906266
_cell_length_b     50.287889
_cell_length_c     37.490479
_cell_angle_alpha  93.956609
_cell_angle_beta   90.280053
_cell_angle_gamma 90.085778
loop_
_atom_site_label
_atom_site_type_symbol
_atom_site_fract_x
_atom_site_fract_y
_atom_site_fract_z
_atom_type_partial_charge
Zn0 Zn 0.12365 0.83865 0.11465 0.0
Zn1 Zn 0.14177 0.86128 1.00029 0.0
Zn2 Zn 0.13825 0.84861 0.05692 0.0
C3 C 0.14821 0.90681 0.03198 0.0
C4 C 0.123 0.81058 0.99542 0.0
O5 O 0.15713 0.80907 0.06462 0.0
O6 O 0.13494 0.80087 0.11381 0.0
C7 C 0.16347 0.88009 0.12241 0.0
O8 O 0.15681 0.88915 0.05272 0.0
O9 O 0.13217 0.89983 0.00652 0.0
O10 O 0.11523 0.83235 0.98371 0.0
O11 O 0.13973 0.81117 0.02207 0.0
O12 O 0.14915 0.8649 0.14035 0.0
O13 O 0.16143 0.87863 0.08822 0.0
O14 O 0.09443 0.85047 0.05172 0.0
O15 O 0.08398 0.84561 0.10789 0.0
C16 C 0.0766 0.84902 0.0762 0.0
O17 O 0.16859 0.82086 0.03394 0.0
O18 O 0.18328 0.85166 0.99981 0.0
C19 C 0.15169 0.79355 0.08963 0.0
C20 C 0.18787 0.83044 0.01521 0.0
Zn21 Zn 0.62873 0.64966 0.44644 0.0
Zn22 Zn 0.68073 0.65259 0.60359 0.0
Zn23 Zn 0.64621 0.65383 0.50322 0.0
C24 C 0.6785 0.60393 0.55043 0.0
C25 C 0.6232 0.66889 0.56999 0.0
O26 O 0.66567 0.68465 0.47224 0.0
O27 O 0.63211 0.68727 0.43327 0.0
C28 C 0.66554 0.6088 0.4527 0.0
O29 O 0.66574 0.61657 0.52594 0.0
O30 O 0.68596 0.615 0.58085 0.0
O31 O 0.64765 0.66101 0.57266 0.0
O32 O 0.61327 0.66744 0.53847 0.0
O33 O 0.65779 0.6242 0.4295 0.0
O34 O 0.65919 0.61398 0.4856 0.0
O35 O 0.60057 0.65895 0.50623 0.0
O36 O 0.59156 0.63582 0.4556 0.0
C37 C 0.58316 0.64723 0.48451 0.0
O38 O 0.67829 0.6842 0.5051 0.0
O39 O 0.67559 0.66925 0.55695 0.0
C40 C 0.65404 0.69656 0.44691 0.0
C41 C 0.68829 0.68374 0.5364 0.0
Zn42 Zn 0.87648 0.1511 0.9111 0.0
Zn43 Zn 0.82558 0.14697 0.051 0.0
Zn44 Zn 0.85122 0.14662 0.99588 0.0
C45 C 0.87722 0.14165 0.07526 0.0
C46 C 0.80767 0.10365 0.00718 0.0
O47 O 0.83244 0.1772 0.96208 0.0
O48 O 0.84783 0.17767 0.90568 0.0
C49 C 0.90456 0.16614 0.98621 0.0
O50 O 0.88062 0.14918 0.04325 0.0
O51 O 0.85351 0.13563 0.08518 0.0
O52 O 0.79839 0.12033 0.03078 0.0
O53 O 0.83098 0.10781 0.99286 0.0
O54 O 0.89347 0.1602 0.95669 0.0
O55 O 0.89206 0.1592 0.0138 0.0
O56 O 0.84969 0.10809 0.96207 0.0
O57 O 0.86426 0.11354 0.90632 0.0
C58 C 0.85463 0.09901 0.92958 0.0
O59 O 0.82175 0.17971 0.997 0.0
O60 O 0.81497 0.18512 0.0551 0.0
C61 C 0.83223 0.18645 0.93063 0.0
C62 C 0.81227 0.19346 0.02435 0.0
Zn63 Zn 0.38595 0.36693 0.59941 0.0
Zn64 Zn 0.3282 0.35439 0.50078 0.0
Zn65 Zn 0.35299 0.3594 0.55704 0.0
C66 C 0.38364 0.363 0.48533 0.0
C67 C 0.30326 0.39641 0.54333 0.0
O68 O 0.34401 0.32937 0.5951 0.0
O69 O 0.35897 0.3569 0.63894 0.0
C70 C 0.39406 0.31699 0.5694 0.0
O71 O 0.38531 0.36249 0.5192 0.0
O72 O 0.36065 0.36097 0.46984 0.0
O73 O 0.30079 0.38304 0.51366 0.0
O74 O 0.32284 0.39128 0.56472 0.0
O75 O 0.40855 0.33765 0.57569 0.0
O76 O 0.36782 0.31922 0.56987 0.0
O77 O 0.34746 0.39822 0.5888 0.0
O78 O 0.39174 0.40525 0.5919 0.0
C79 C 0.36773 0.41416 0.59584 0.0
O80 O 0.33398 0.31959 0.56037 0.0
O81 O 0.31647 0.31685 0.50566 0.0
C82 C 0.34435 0.33697 0.62869 0.0
C83 C 0.3205 0.30666 0.5351 0.0
C84 C 0.0504 0.15767 0.26462 0.0
C85 C 0.02494 0.14481 0.26591 0.0
C86 C 0.07038 0.15379 0.29065 0.0
C87 C 0.06534 0.1366 0.31784 0.0
C88 C 0.03967 0.12427 0.31959 0.0
C89 C 0.0195 0.12861 0.29409 0.0
C90 C 0.08812 0.128 0.34033 0.0
C91 C 0.10089 0.14556 0.3661 0.0
C92 C 0.12378 0.13708 0.38531 0.0
C93 C 0.13425 0.11133 0.37739 0.0
C94 C 0.12207 0.09403 0.35115 0.0
C95 C 0.09858 0.10225 0.33341 0.0
C96 C 0.13571 0.06891 0.33857 0.0
C97 C 0.16334 0.06922 0.32836 0.0
C98 C 0.1204 0.04547 0.33199 0.0
C99 C 0.13179 0.02353 0.31274 0.0
C100 C 0.15858 0.02477 0.29949 0.0
C101 C 0.13883 0.15537 0.41125 0.0
C102 C 0.14644 0.18092 0.40207 0.0
C103 C 0.14892 0.14596 0.44324 0.0
C104 C 0.16793 0.16088 0.46415 0.0
C105 C 0.1772 0.18554 0.4535 0.0
C106 C 0.16546 0.19586 0.423 0.0
C107 C 0.17471 0.04728 0.30893 0.0
H108 H 0.05499 0.17023 0.24308 0.0
H109 H 0.09025 0.16309 0.28847 0.0
H110 H 0.03559 0.11055 0.33999 0.0
H111 H 9e-05 0.11832 0.29541 0.0
H112 H 0.09311 0.16563 0.37105 0.0
H113 H 0.08943 0.08922 0.31235 0.0
H114 H 0.15271 0.10509 0.39059 0.0
H115 H 0.17554 0.08714 0.33296 0.0
H116 H 0.09919 0.04464 0.34006 0.0
H117 H 0.11911 0.00615 0.30633 0.0
H118 H 0.13906 0.18867 0.37755 0.0
H119 H 0.14312 0.12643 0.45117 0.0
H120 H 0.19536 0.04876 0.29892 0.0
H121 H 0.17179 0.21508 0.41451 0.0
H122 H 0.17654 0.15236 0.48745 0.0
C123 C 0.37049 0.58953 0.78422 0.0
C124 C 0.38931 0.5722 0.76684 0.0
C125 C 0.3796 0.61016 0.80835 0.0
C126 C 0.40771 0.61357 0.81599 0.0
C127 C 0.42629 0.59513 0.79981 0.0
C128 C 0.4172 0.57486 0.77519 0.0
C129 C 0.41768 0.63769 0.83774 0.0
C130 C 0.40193 0.64947 0.86586 0.0
C131 C 0.4086 0.67485 0.8819 0.0
C132 C 0.43235 0.68774 0.87083 0.0
C133 C 0.44902 0.67563 0.84419 0.0
C134 C 0.44157 0.65076 0.82774 0.0
C135 C 0.47237 0.69005 0.82974 0.0
C136 C 0.46804 0.71425 0.81402 0.0
C137 C 0.49796 0.67762 0.8264 0.0
C138 C 0.51816 0.68799 0.80515 0.0
C139 C 0.51285 0.71069 0.78638 0.0
C140 C 0.38922 0.6892 0.90696 0.0
C141 C 0.36083 0.68676 0.90112 0.0
C142 C 0.3987 0.70713 0.9349 0.0
C143 C 0.3803 0.7231 0.95523 0.0
C144 C 0.35217 0.72099 0.94836 0.0
C145 C 0.34254 0.70238 0.92176 0.0
C146 C 0.4881 0.72441 0.79223 0.0
H147 H 0.34888 0.58782 0.77796 0.0
H148 H 0.36464 0.62413 0.81966 0.0
H149 H 0.44798 0.59669 0.8055 0.0
H150 H 0.432 0.56147 0.7622 0.0
H151 H 0.38394 0.6392 0.87453 0.0
H152 H 0.45353 0.64259 0.80533 0.0
H153 H 0.43739 0.70767 0.88174 0.0
H154 H 0.44837 0.7241 0.81616 0.0
H155 H 0.50169 0.65894 0.83837 0.0
H156 H 0.53694 0.67686 0.80084 0.0
H157 H 0.35266 0.67372 0.87946 0.0
H158 H 0.42036 0.70929 0.94052 0.0
H159 H 0.48357 0.74194 0.77802 0.0
H160 H 0.32085 0.70079 0.91589 0.0
H161 H 0.38802 0.73751 0.97565 0.0
C162 C 0.85896 0.81961 0.1043 0.0
C163 C 0.8739 0.84238 0.09645 0.0
C164 C 0.83121 0.82161 0.11308 0.0
C165 C 0.81797 0.84646 0.11431 0.0
C166 C 0.83314 0.86923 0.10707 0.0
C167 C 0.86071 0.86719 0.09811 0.0
C168 C 0.78849 0.84897 0.12323 0.0
C169 C 0.77729 0.83578 0.15154 0.0
C170 C 0.7499 0.84008 0.16201 0.0
C171 C 0.73384 0.85816 0.14394 0.0
C172 C 0.74485 0.87116 0.11547 0.0
C173 C 0.77185 0.86614 0.10488 0.0
C174 C 0.73021 0.89281 0.09922 0.0
C175 C 0.72322 0.89012 0.06285 0.0
C176 C 0.72998 0.9181 0.11736 0.0
C177 C 0.7258 0.94074 0.09852 0.0
C178 C 0.72162 0.93836 0.06123 0.0
C179 C 0.73887 0.82673 0.19303 0.0
C180 C 0.74671 0.80052 0.19893 0.0
C181 C 0.72152 0.84038 0.21785 0.0
C182 C 0.71278 0.82829 0.24825 0.0
C183 C 0.72147 0.80242 0.25479 0.0
C184 C 0.73837 0.78863 0.22956 0.0
C185 C 0.71866 0.91274 0.04403 0.0
H186 H 0.86864 0.80021 0.10315 0.0
H187 H 0.82005 0.80371 0.11838 0.0
H188 H 0.82376 0.88877 0.10874 0.0
H189 H 0.87187 0.88516 0.09303 0.0
H190 H 0.79035 0.82318 0.16656 0.0
H191 H 0.78024 0.87659 0.08304 0.0
H192 H 0.71293 0.86229 0.15195 0.0
H193 H 0.72349 0.87069 0.04844 0.0
H194 H 0.73581 0.92055 0.14533 0.0
H195 H 0.72852 0.96007 0.11268 0.0
H196 H 0.75963 0.78921 0.18006 0.0
H197 H 0.71524 0.86068 0.21438 0.0
H198 H 0.71491 0.91022 0.01551 0.0
H199 H 0.74577 0.7688 0.23376 0.0
H200 H 0.69931 0.83933 0.26669 0.0
C201 C 0.57397 0.2761 0.62076 0.0
C202 C 0.56841 0.25765 0.59157 0.0
C203 C 0.60024 0.28624 0.62688 0.0
C204 C 0.62159 0.27859 0.60372 0.0
C205 C 0.61656 0.26006 0.57476 0.0
C206 C 0.5902 0.24956 0.5688 0.0
C207 C 0.64907 0.28985 0.61086 0.0
C208 C 0.66485 0.28009 0.63819 0.0
C209 C 0.68908 0.29297 0.64955 0.0
C210 C 0.69799 0.31542 0.63255 0.0
C211 C 0.68177 0.32636 0.60595 0.0
C212 C 0.6574 0.31298 0.59497 0.0
C213 C 0.68812 0.35334 0.59327 0.0
C214 C 0.70055 0.37309 0.61645 0.0
C215 C 0.67973 0.36048 0.55921 0.0
C216 C 0.68191 0.38688 0.54968 0.0
C217 C 0.69306 0.40684 0.57368 0.0
C218 C 0.70265 0.28522 0.68255 0.0
C219 C 0.68732 0.28444 0.71399 0.0
C220 C 0.73056 0.27894 0.68323 0.0
C221 C 0.74276 0.27128 0.7148 0.0
C222 C 0.72735 0.27033 0.7464 0.0
C223 C 0.69954 0.27732 0.74557 0.0
C224 C 0.70333 0.39924 0.6066 0.0
H225 H 0.55787 0.28356 0.63843 0.0
H226 H 0.60383 0.30049 0.64944 0.0
H227 H 0.63298 0.25374 0.55684 0.0
H228 H 0.58695 0.23523 0.54628 0.0
H229 H 0.65757 0.26311 0.6518 0.0
H230 H 0.64378 0.3214 0.57588 0.0
H231 H 0.71675 0.32517 0.64172 0.0
H232 H 0.70713 0.36887 0.64306 0.0
H233 H 0.67072 0.34584 0.54011 0.0
H234 H 0.67379 0.39173 0.52403 0.0
H235 H 0.66584 0.28971 0.71423 0.0
H236 H 0.74274 0.27944 0.65924 0.0
H237 H 0.71294 0.41367 0.62545 0.0
H238 H 0.68712 0.27758 0.76942 0.0
H239 H 0.76412 0.26567 0.71417 0.0
C240 C 0.66826 0.4676 0.23942 0.0
C241 C 0.67747 0.46386 0.27442 0.0
C242 C 0.65408 0.44723 0.21971 0.0
C243 C 0.64879 0.42306 0.23493 0.0
C244 C 0.65958 0.41873 0.26875 0.0
C245 C 0.67379 0.43886 0.28826 0.0
C246 C 0.63018 0.40291 0.21767 0.0
C247 C 0.63685 0.38928 0.18513 0.0
C248 C 0.62173 0.36666 0.17243 0.0
C249 C 0.59903 0.35857 0.19217 0.0
C250 C 0.59222 0.37235 0.22476 0.0
C251 C 0.60758 0.39474 0.23682 0.0
C252 C 0.57105 0.3624 0.24862 0.0
C253 C 0.54405 0.358 0.23682 0.0
C254 C 0.57751 0.35971 0.28475 0.0
C255 C 0.55711 0.3546 0.30917 0.0
C256 C 0.52974 0.35202 0.29803 0.0
C257 C 0.63314 0.34904 0.1428 0.0
C258 C 0.64494 0.35985 0.11281 0.0
C259 C 0.63662 0.32177 0.14748 0.0
C260 C 0.65369 0.30631 0.12477 0.0
C261 C 0.66757 0.31776 0.09689 0.0
C262 C 0.66199 0.34428 0.08994 0.0
C263 C 0.52349 0.35297 0.26141 0.0
H264 H 0.67099 0.4866 0.22795 0.0
H265 H 0.64602 0.45085 0.19352 0.0
H266 H 0.65592 0.40007 0.28078 0.0
H267 H 0.68018 0.43533 0.31522 0.0
H268 H 0.65526 0.39487 0.17148 0.0
H269 H 0.60263 0.40529 0.26219 0.0
H270 H 0.58775 0.34073 0.18332 0.0
H271 H 0.53863 0.35984 0.20905 0.0
H272 H 0.59829 0.36264 0.29442 0.0
H273 H 0.56265 0.35418 0.33713 0.0
H274 H 0.64238 0.38076 0.1084 0.0
H275 H 0.62803 0.31284 0.1704 0.0
H276 H 0.50259 0.35066 0.25199 0.0
H277 H 0.67243 0.35354 0.06858 0.0
H278 H 0.65746 0.28579 0.13042 0.0
C279 C 0.10592 0.24277 0.93922 0.0
C280 C 0.09355 0.23843 0.97202 0.0
C281 C 0.13351 0.23702 0.93388 0.0
C282 C 0.14937 0.22711 0.96143 0.0
C283 C 0.13774 0.22613 0.99559 0.0
C284 C 0.10999 0.23168 0.00082 0.0
C285 C 0.17597 0.21392 0.95278 0.0
C286 C 0.19302 0.22357 0.92671 0.0
C287 C 0.21471 0.20819 0.9123 0.0
C288 C 0.22091 0.18367 0.9264 0.0
C289 C 0.20444 0.17379 0.95338 0.0
C290 C 0.18197 0.18914 0.96606 0.0
C291 C 0.20817 0.1463 0.96567 0.0
C292 C 0.21626 0.12499 0.94178 0.0
C293 C 0.20091 0.14064 1.00065 0.0
C294 C 0.19952 0.11437 0.01052 0.0
C295 C 0.20614 0.09287 0.98606 0.0
C296 C 0.22833 0.21672 0.87974 0.0
C297 C 0.21217 0.22441 0.8511 0.0
C298 C 0.2569 0.21841 0.87734 0.0
C299 C 0.26899 0.22886 0.84746 0.0
C300 C 0.25267 0.23765 0.81956 0.0
C301 C 0.22417 0.23476 0.82142 0.0
C302 C 0.21555 0.09871 0.95196 0.0
H303 H 0.09368 0.24825 0.9167 0.0
H304 H 0.14158 0.23803 0.90717 0.0
H305 H 0.14957 0.21919 0.01759 0.0
H306 H 0.10094 0.22824 0.02642 0.0
H307 H 0.18854 0.24262 0.9161 0.0
H308 H 0.16776 0.18082 0.98436 0.0
H309 H 0.23773 0.1719 0.91523 0.0
H310 H 0.22195 0.12832 0.91459 0.0
H311 H 0.19526 0.15649 0.02024 0.0
H312 H 0.19204 0.11106 0.03696 0.0
H313 H 0.19009 0.22275 0.85192 0.0
H314 H 0.26977 0.21259 0.89906 0.0
H315 H 0.22172 0.08294 0.93259 0.0
H316 H 0.21109 0.24081 0.80004 0.0
H317 H 0.29102 0.23097 0.8468 0.0
C318 C 0.36597 0.68473 0.44297 0.0
C319 C 0.38275 0.66199 0.44024 0.0
C320 C 0.33822 0.6828 0.4333 0.0
C321 C 0.32688 0.65802 0.42159 0.0
C322 C 0.34367 0.6354 0.41898 0.0
C323 C 0.3713 0.63738 0.42802 0.0
C324 C 0.29747 0.65503 0.41287 0.0
C325 C 0.2859 0.66758 0.38414 0.0
C326 C 0.25896 0.66146 0.37245 0.0
C327 C 0.2437 0.64279 0.39066 0.0
C328 C 0.25522 0.63035 0.41947 0.0
C329 C 0.2819 0.63672 0.43059 0.0
C330 C 0.2416 0.60775 0.43505 0.0
C331 C 0.23158 0.6104 0.47008 0.0
C332 C 0.24386 0.58232 0.41761 0.0
C333 C 0.2382 0.55967 0.43584 0.0
C334 C 0.22996 0.56204 0.47189 0.0
C335 C 0.24782 0.67283 0.33959 0.0
C336 C 0.25532 0.6986 0.33063 0.0
C337 C 0.23057 0.65752 0.31594 0.0
C338 C 0.22132 0.66758 0.28423 0.0
C339 C 0.22958 0.69289 0.275 0.0
C340 C 0.24655 0.70839 0.29848 0.0
C341 C 0.2255 0.58773 0.48824 0.0
H342 H 0.37435 0.70395 0.45219 0.0
H343 H 0.32555 0.70048 0.43555 0.0
H344 H 0.33537 0.6161 0.40989 0.0
H345 H 0.38367 0.61949 0.42593 0.0
H346 H 0.2986 0.68073 0.36956 0.0
H347 H 0.29109 0.62634 0.45206 0.0
H348 H 0.22309 0.63743 0.38221 0.0
H349 H 0.22994 0.62992 0.48402 0.0
H350 H 0.25208 0.5799 0.39079 0.0
H351 H 0.24236 0.54037 0.4224 0.0
H352 H 0.26805 0.71126 0.34837 0.0
H353 H 0.22475 0.63741 0.32125 0.0
H354 H 0.21872 0.59033 0.51571 0.0
H355 H 0.25283 0.72816 0.29207 0.0
H356 H 0.2083 0.65527 0.26639 0.0
C357 C 0.0211 0.77808 0.7621 0.0
C358 C 0.0172 0.77439 0.79861 0.0
C359 C 0.001 0.79081 0.74254 0.0
C360 C 0.97716 0.80055 0.75958 0.0
C361 C 0.9731 0.79631 0.79574 0.0
C362 C 0.99279 0.78329 0.81498 0.0
C363 C 0.95641 0.81584 0.74083 0.0
C364 C 0.94079 0.80352 0.71287 0.0
C365 C 0.91711 0.81599 0.70081 0.0
C366 C 0.90981 0.84133 0.71598 0.0
C367 C 0.92544 0.8541 0.74367 0.0
C368 C 0.94905 0.84131 0.75538 0.0
C369 C 0.91535 0.87906 0.76307 0.0
C370 C 0.902 0.89887 0.7448 0.0
C371 C 0.9177 0.88258 0.80053 0.0
C372 C 0.90703 0.90519 0.81919 0.0
C373 C 0.89337 0.92484 0.80105 0.0
C374 C 0.89742 0.80087 0.67717 0.0
C375 C 0.90525 0.78876 0.64385 0.0
C376 C 0.87044 0.79789 0.68886 0.0
C377 C 0.85164 0.78294 0.66792 0.0
C378 C 0.8593 0.77093 0.63464 0.0
C379 C 0.88614 0.7741 0.62244 0.0
C380 C 0.89108 0.92143 0.76354 0.0
H381 H 0.03981 0.77151 0.74893 0.0
H382 H 0.00444 0.79382 0.71458 0.0
H383 H 0.95476 0.80349 0.80934 0.0
H384 H 0.98939 0.78122 0.84319 0.0
H385 H 0.94563 0.78335 0.7028 0.0
H386 H 0.96121 0.85059 0.77707 0.0
H387 H 0.89089 0.85029 0.70763 0.0
H388 H 0.89993 0.89695 0.71596 0.0
H389 H 0.9273 0.86757 0.81572 0.0
H390 H 0.90966 0.90727 0.84794 0.0
H391 H 0.926 0.79077 0.63441 0.0
H392 H 0.86401 0.80672 0.71464 0.0
H393 H 0.88049 0.93599 0.74862 0.0
H394 H 0.89237 0.76487 0.59682 0.0
H395 H 0.83101 0.78072 0.67773 0.0
H396 H 0.17343 0.93026 0.1024 0.0
H397 H 0.18812 0.87842 0.18727 0.0
H398 H 0.18281 0.96897 0.14336 0.0
H399 H 0.19794 0.91708 0.22827 0.0
H400 H 0.20791 0.99831 0.29423 0.0
H401 H 0.22201 0.96521 0.24624 0.0
H402 H 0.14433 0.97462 0.19341 0.0
H403 H 0.13031 0.00697 0.24074 0.0
C404 C 0.17993 0.92707 0.12924 0.0
C405 C 0.17907 0.90155 0.14199 0.0
C406 C 0.18537 0.9492 0.15272 0.0
C407 C 0.19045 0.94589 0.18907 0.0
C408 C 0.19394 0.92012 0.2004 0.0
C409 C 0.18808 0.89804 0.17701 0.0
C410 C 0.19404 0.99327 0.27218 0.0
C411 C 0.16785 0.00476 0.27143 0.0
C412 C 0.20215 0.97459 0.24478 0.0
C413 C 0.18443 0.96788 0.21593 0.0
C414 C 0.15862 0.97993 0.21492 0.0
C415 C 0.1504 0.99805 0.24237 0.0
H416 H 0.58026 0.70344 0.57138 0.0
H417 H 0.6322 0.65919 0.63928 0.0
H418 H 0.55625 0.72273 0.62388 0.0
H419 H 0.60734 0.67688 0.6915 0.0
H420 H 0.56861 0.71619 0.78498 0.0
H421 H 0.59726 0.71262 0.73169 0.0
H422 H 0.52454 0.71078 0.6653 0.0
H423 H 0.49646 0.71588 0.71827 0.0
C424 C 0.58626 0.6976 0.59757 0.0
C425 C 0.60784 0.67966 0.60137 0.0
C426 C 0.57256 0.70865 0.6277 0.0
C427 C 0.57976 0.70147 0.66217 0.0
C428 C 0.60154 0.68353 0.66567 0.0
C429 C 0.61558 0.673 0.63566 0.0
C430 C 0.55897 0.71596 0.75888 0.0
C431 C 0.53038 0.71609 0.75568 0.0
C432 C 0.57529 0.71355 0.72832 0.0
C433 C 0.56325 0.71053 0.69403 0.0
C434 C 0.53471 0.71312 0.69103 0.0
C435 C 0.51849 0.71608 0.72153 0.0
H436 H 0.75266 0.09928 0.00256 0.0
H437 H 0.82677 0.053 0.99418 0.0
H438 H 0.72571 0.05848 0.00314 0.0
H439 H 0.80004 0.01207 0.9951 0.0
H440 H 0.74921 0.94069 0.99828 0.0
H441 H 0.76563 0.98045 0.9718 0.0
H442 H 0.72174 0.02948 0.05146 0.0
H443 H 0.70424 0.98974 0.07691 0.0
C444 C 0.7631 0.08026 0.99986 0.0
C445 C 0.79178 0.07916 0.99849 0.0
C446 C 0.7477 0.05693 1.00032 0.0
C447 C 0.76071 0.03205 0.99984 0.0
C448 C 0.78929 0.03089 0.99522 0.0
C449 C 0.8047 0.05431 0.99455 0.0
C450 C 0.74208 0.9599 0.0093 0.0
C451 C 0.72564 0.962 0.0401 0.0
C452 C 0.75184 0.98272 0.99432 0.0
C453 C 0.74545 0.00813 0.00985 0.0
C454 C 0.72703 0.01023 0.03865 0.0
C455 C 0.71718 0.98741 0.05354 0.0
H456 H 0.42729 0.30662 0.51455 0.0
H457 H 0.39566 0.2725 0.60801 0.0
H458 H 0.46599 0.27752 0.51406 0.0
H459 H 0.43464 0.24189 0.60758 0.0
H460 H 0.52697 0.2493 0.63911 0.0
H461 H 0.47857 0.25 0.62662 0.0
H462 H 0.49533 0.24301 0.51318 0.0
H463 H 0.54387 0.24575 0.52585 0.0
C464 C 0.42778 0.29146 0.53362 0.0
C465 C 0.40851 0.29175 0.5611 0.0
C466 C 0.4503 0.27461 0.53364 0.0
C467 C 0.45431 0.25763 0.56153 0.0
C468 C 0.43286 0.25529 0.58631 0.0
C469 C 0.41018 0.27245 0.58627 0.0
C470 C 0.52041 0.24802 0.61143 0.0
C471 C 0.53954 0.24915 0.58363 0.0
C472 C 0.49235 0.24778 0.60414 0.0
C473 C 0.48265 0.24788 0.56873 0.0
C474 C 0.50187 0.24439 0.54087 0.0
C475 C 0.52996 0.24554 0.54818 0.0
H476 H 0.71415 0.60411 0.41927 0.0
H477 H 0.64462 0.55912 0.45194 0.0
H478 H 0.72618 0.56755 0.37547 0.0
H479 H 0.65713 0.52241 0.40922 0.0
H480 H 0.65627 0.51399 0.28041 0.0
H481 H 0.66273 0.54721 0.33013 0.0
H482 H 0.72441 0.49825 0.37525 0.0
H483 H 0.71871 0.46494 0.3247 0.0
C484 C 0.70256 0.5857 0.41871 0.0
C485 C 0.67892 0.58402 0.43962 0.0
C486 C 0.70937 0.56495 0.39362 0.0
C487 C 0.69259 0.54237 0.38937 0.0
C488 C 0.67056 0.53957 0.41267 0.0
C489 C 0.66365 0.56037 0.43753 0.0
C490 C 0.67205 0.51068 0.29997 0.0
C491 C 0.68675 0.48664 0.2988 0.0
C492 C 0.67553 0.5296 0.32857 0.0
C493 C 0.69377 0.52489 0.35639 0.0
C494 C 0.71016 0.50207 0.354 0.0
C495 C 0.7068 0.4831 0.3252 0.0
H496 H 0.92935 0.18455 0.92892 0.0
H497 H 0.936 0.18621 0.04402 0.0
H498 H 0.97133 0.20899 0.92624 0.0
H499 H 0.98059 0.2082 0.04095 0.0
H500 H 0.05722 0.25794 0.02348 0.0
H501 H 0.00882 0.2455 0.02829 0.0
H502 H 0.01602 0.19537 0.93024 0.0
H503 H 0.06297 0.20865 0.92485 0.0
C504 C 0.9401 0.18957 0.95383 0.0
C505 C 0.93005 0.18191 0.98669 0.0
C506 C 0.96439 0.20359 0.95218 0.0
C507 C 0.98004 0.20956 0.98313 0.0
C508 C 0.96925 0.20352 0.01644 0.0
C509 C 0.94412 0.1902 0.01822 0.0
C510 C 0.04801 0.24478 0.00269 0.0
C511 C 0.06364 0.23461 0.9735 0.0
C512 C 0.02048 0.23747 0.00557 0.0
C513 C 0.0084 0.21955 0.97959 0.0
C514 C 0.02417 0.20985 0.95025 0.0
C515 C 0.05126 0.21746 0.9471 0.0
H516 H 0.24856 0.39951 0.53186 0.0
H517 H 0.31881 0.44656 0.56597 0.0
H518 H 0.22226 0.44019 0.52546 0.0
H519 H 0.29307 0.48714 0.55932 0.0
H520 H 0.24714 0.55871 0.54122 0.0
H521 H 0.25723 0.51852 0.57117 0.0
H522 H 0.22553 0.4707 0.47999 0.0
H523 H 0.2138 0.51086 0.45106 0.0
C524 C 0.25805 0.4186 0.53924 0.0
C525 C 0.28563 0.41997 0.54981 0.0
C526 C 0.24309 0.4419 0.5353 0.0
C527 C 0.25562 0.46702 0.54126 0.0
C528 C 0.28253 0.46825 0.55491 0.0
C529 C 0.29737 0.44493 0.55908 0.0
C530 C 0.24126 0.5397 0.52807 0.0
C531 C 0.23012 0.53811 0.49328 0.0
C532 C 0.24741 0.51658 0.54516 0.0
C533 C 0.24281 0.49129 0.52776 0.0
C534 C 0.22936 0.48975 0.49439 0.0
C535 C 0.22297 0.51287 0.47746 0.0
H536 H 0.07481 0.78508 0.99722 0.0
H537 H 0.15251 0.78401 0.94363 0.0
H538 H 0.05363 0.76275 0.94474 0.0
H539 H 0.13153 0.76116 0.89062 0.0
H540 H 0.07058 0.78993 0.80191 0.0
H541 H 0.10216 0.78406 0.85094 0.0
H542 H 0.04512 0.73014 0.8963 0.0
H543 H 0.01326 0.73656 0.8473 0.0
C544 C 0.08772 0.77837 0.97496 0.0
C545 C 0.11523 0.7861 0.97439 0.0
C546 C 0.07557 0.76567 0.94459 0.0
C547 C 0.09074 0.76071 0.91298 0.0
C548 C 0.11917 0.76515 0.91428 0.0
C549 C 0.13132 0.77781 0.94482 0.0
C550 C 0.06527 0.77598 0.82154 0.0
C551 C 0.03925 0.76416 0.82125 0.0
C552 C 0.08344 0.7725 0.84974 0.0
C553 C 0.07597 0.75703 0.87811 0.0
C554 C 0.05128 0.74264 0.87534 0.0
C555 C 0.03305 0.74627 0.84727 0.0
H556 H 0.87225 0.05457 0.96087 0.0
H557 H 0.82834 0.08071 0.86964 0.0
H558 H 0.87644 0.00987 0.93073 0.0
H559 H 0.83254 0.03637 0.83951 0.0
H560 H 0.89258 0.97632 0.78118 0.0
H561 H 0.87613 0.01593 0.81526 0.0
H562 H 0.85276 0.96815 0.90148 0.0
H563 H 0.86845 0.92812 0.8669 0.0
C564 C 0.86247 0.05039 0.9351 0.0
C565 C 0.84988 0.0709 0.91759 0.0
C566 C 0.86501 0.02492 0.91772 0.0
C567 C 0.85524 0.01982 0.8825 0.0
C568 C 0.84065 0.03984 0.86638 0.0
C569 C 0.83804 0.06511 0.88373 0.0
C570 C 0.88341 0.97404 0.80703 0.0
C571 C 0.882 0.94892 0.82123 0.0
C572 C 0.87399 0.9968 0.82662 0.0
C573 C 0.86309 0.99511 0.86103 0.0
C574 C 0.86126 0.97005 0.87514 0.0
C575 C 0.87041 0.94718 0.85536 0.0
H576 H 0.40978 0.31873 0.46062 0.0
H577 H 0.41051 0.4042 0.4576 0.0
H578 H 0.44637 0.31502 0.41643 0.0
H579 H 0.44684 0.40069 0.41249 0.0
H580 H 0.48163 0.37946 0.30049 0.0
H581 H 0.44812 0.38229 0.34855 0.0
H582 H 0.49543 0.32665 0.40613 0.0
H583 H 0.5287 0.32327 0.35758 0.0
C584 C 0.41861 0.33675 0.45137 0.0
C585 C 0.40823 0.36176 0.46319 0.0
C586 C 0.43929 0.33465 0.42583 0.0
C587 C 0.44941 0.35755 0.41096 0.0
C588 C 0.43926 0.3827 0.42334 0.0
C589 C 0.41877 0.38478 0.4493 0.0
C590 C 0.48464 0.36743 0.32306 0.0
C591 C 0.50783 0.35113 0.32521 0.0
C592 C 0.46569 0.36941 0.35086 0.0
C593 C 0.46942 0.35504 0.38133 0.0
C594 C 0.49208 0.33802 0.38299 0.0
C595 C 0.51114 0.33615 0.35526 0.0
H596 H 0.12886 0.95348 0.06378 0.0
H597 H 0.19442 0.91998 0.99879 0.0
H598 H 0.14634 0.99863 0.05568 0.0
H599 H 0.21131 0.96498 0.98961 0.0
H600 H 0.19138 0.04951 0.94103 0.0
H601 H 0.18121 0.00437 0.95635 0.0
H602 H 0.19742 0.02673 0.06744 0.0
H603 H 0.20974 0.07166 0.05226 0.0
C604 C 0.14731 0.95585 0.04843 0.0
C605 C 0.16065 0.93347 0.03237 0.0
C606 C 0.15726 0.98154 0.04377 0.0
C607 C 0.18015 0.98514 0.02205 0.0
C608 C 0.19371 0.96266 0.00655 0.0
C609 C 0.18415 0.93703 0.01192 0.0
C610 C 0.19369 0.04489 0.96864 0.0
C611 C 0.20151 0.06465 0.99528 0.0
C612 C 0.18755 0.01897 0.97738 0.0
C613 C 0.18844 0.01221 0.01304 0.0
C614 C 0.1964 0.03159 0.03976 0.0
C615 C 0.20323 0.05741 0.03095 0.0
H616 H 0.54621 0.60851 0.46781 0.0
H617 H 0.55298 0.68967 0.51242 0.0
H618 H 0.49705 0.61373 0.46156 0.0
H619 H 0.50337 0.69528 0.50521 0.0
H620 H 0.40674 0.68473 0.50146 0.0
H621 H 0.45496 0.68143 0.51958 0.0
H622 H 0.4729 0.63919 0.41815 0.0
H623 H 0.42517 0.64218 0.40056 0.0
C624 C 0.53701 0.62733 0.47702 0.0
C625 C 0.55336 0.64876 0.49027 0.0
C626 C 0.50889 0.63043 0.47309 0.0
C627 C 0.49644 0.65519 0.48179 0.0
C628 C 0.51241 0.67602 0.49805 0.0
C629 C 0.54075 0.67279 0.50236 0.0
C630 C 0.42119 0.67507 0.483 0.0
C631 C 0.41222 0.66336 0.44982 0.0
C632 C 0.44871 0.67312 0.49338 0.0
C633 C 0.4676 0.65944 0.47069 0.0
C634 C 0.45872 0.64908 0.43678 0.0
C635 C 0.43141 0.65093 0.42655 0.0
H636 H 0.32486 0.43429 0.63658 0.0
H637 H 0.4036 0.45502 0.59491 0.0
H638 H 0.32469 0.47609 0.67435 0.0
H639 H 0.40418 0.49563 0.63325 0.0
H640 H 0.3999 0.57227 0.69618 0.0
H641 H 0.3881 0.53813 0.6492 0.0
H642 H 0.34772 0.49255 0.72743 0.0
H643 H 0.35832 0.52775 0.77382 0.0
C644 C 0.34182 0.44803 0.63494 0.0
C645 C 0.3643 0.44135 0.61295 0.0
C646 C 0.34192 0.47181 0.65688 0.0
C647 C 0.36457 0.48922 0.65731 0.0
C648 C 0.38618 0.4831 0.63354 0.0
C649 C 0.38598 0.45958 0.61162 0.0
C650 C 0.38817 0.55506 0.70302 0.0
C651 C 0.38024 0.55232 0.73844 0.0
C652 C 0.38148 0.53543 0.67623 0.0
C653 C 0.36729 0.51224 0.68446 0.0
C654 C 0.35838 0.51017 0.71987 0.0
C655 C 0.36465 0.53015 0.74657 0.0
H656 H 0.04088 0.88761 0.05765 0.0
H657 H 0.04695 0.80449 0.0779 0.0
H658 H 0.99081 0.88407 0.05749 0.0
H659 H 0.99726 0.8005 0.07674 0.0
H660 H 0.91392 0.81592 0.13039 0.0
H661 H 0.96285 0.8161 0.11856 0.0
H662 H 0.94928 0.86511 0.02987 0.0
H663 H 0.90026 0.86522 0.04222 0.0
C664 C 0.03141 0.86844 0.06084 0.0
C665 C 0.04743 0.8463 0.06771 0.0
C666 C 0.00283 0.86634 0.06082 0.0
C667 C 0.99004 0.84207 0.06768 0.0
C668 C 0.0064 0.8196 0.07217 0.0
C669 C 0.0348 0.82177 0.07244 0.0
C670 C 0.92136 0.82636 0.10804 0.0
C671 C 0.90333 0.84063 0.08732 0.0
C672 C 0.9494 0.82645 0.10116 0.0
C673 C 0.96001 0.84064 0.0732 0.0
C674 C 0.94183 0.85431 0.05188 0.0
C675 C 0.91379 0.85434 0.05891 0.0
H676 H 0.64684 0.56561 0.51463 0.0
H677 H 0.72129 0.5766 0.57607 0.0
H678 H 0.65263 0.51701 0.51399 0.0
H679 H 0.72616 0.52835 0.57712 0.0
H680 H 0.68601 0.45043 0.62088 0.0
H681 H 0.68542 0.49722 0.60884 0.0
H682 H 0.69566 0.47638 0.4963 0.0
H683 H 0.69808 0.42906 0.50824 0.0
C684 C 0.66493 0.55768 0.52673 0.0
C685 C 0.68384 0.57492 0.54476 0.0
C686 C 0.66808 0.52993 0.52673 0.0
C687 C 0.68985 0.51907 0.54552 0.0
C688 C 0.70926 0.53628 0.56238 0.0
C689 C 0.7064 0.56386 0.56182 0.0
C690 C 0.68887 0.45554 0.59358 0.0
C691 C 0.69255 0.43563 0.56567 0.0
C692 C 0.68821 0.48245 0.58672 0.0
C693 C 0.69058 0.4903 0.55172 0.0
C694 C 0.69371 0.47071 0.52353 0.0
C695 C 0.69495 0.44363 0.53046 0.0
H696 H 0.87335 0.13572 0.1467 0.0
H697 H 0.93276 0.14528 0.06392 0.0
H698 H 0.90937 0.13671 0.19101 0.0
H699 H 0.96896 0.14956 0.10898 0.0
H700 H 0.03135 0.13033 0.19521 0.0
H701 H 0.99655 0.12893 0.14828 0.0
H702 H 0.93828 0.16381 0.22444 0.0
H703 H 0.97275 0.16319 0.27147 0.0
C704 C 0.89415 0.1386 0.13794 0.0
C705 C 0.9 0.14148 0.1017 0.0
C706 C 0.91493 0.1396 0.16364 0.0
C707 C 0.94229 0.14405 0.15415 0.0
C708 C 0.94825 0.14622 0.11766 0.0
C709 C 0.9274 0.14447 0.09174 0.0
C710 C 0.01107 0.13781 0.20162 0.0
C711 C 0.0046 0.14678 0.23684 0.0
C712 C 0.99107 0.13716 0.1747 0.0
C713 C 0.96424 0.14598 0.18228 0.0
C714 C 0.95831 0.15602 0.21749 0.0
C715 C 0.97813 0.15602 0.2445 0.0
H716 H 0.20611 0.79271 0.10091 0.0
H717 H 0.13413 0.74314 0.09713 0.0
H718 H 0.22776 0.76371 0.14182 0.0
H719 H 0.15633 0.71267 0.13586 0.0
H720 H 0.17746 0.69899 0.25192 0.0
H721 H 0.16217 0.71729 0.19693 0.0
H722 H 0.24643 0.7264 0.16492 0.0
H723 H 0.26142 0.70954 0.22141 0.0
C724 C 0.19566 0.77455 0.10698 0.0
C725 C 0.16845 0.77019 0.09616 0.0
C726 C 0.20797 0.75792 0.13081 0.0
C727 C 0.19341 0.73629 0.1435 0.0
C728 C 0.16775 0.72977 0.12803 0.0
C729 C 0.15522 0.74681 0.10503 0.0
C730 C 0.1926 0.70482 0.23293 0.0
C731 C 0.22053 0.70305 0.24082 0.0
C732 C 0.18393 0.71502 0.20108 0.0
C733 C 0.20301 0.72316 0.17588 0.0
C734 C 0.23107 0.7207 0.18364 0.0
C735 C 0.23972 0.71101 0.21594 0.0
H736 H 0.72889 0.70182 0.49379 0.0
H737 H 0.70627 0.69536 0.60401 0.0
H738 H 0.77329 0.72054 0.51325 0.0
H739 H 0.74983 0.71449 0.62342 0.0
H740 H 0.83654 0.72477 0.65226 0.0
H741 H 0.79682 0.70223 0.62463 0.0
H742 H 0.79499 0.75957 0.54386 0.0
H743 H 0.83565 0.78143 0.57109 0.0
C744 C 0.73332 0.70463 0.52212 0.0
C745 C 0.7143 0.69685 0.5474 0.0
C746 C 0.75871 0.71533 0.53327 0.0
C747 C 0.76537 0.71855 0.56989 0.0
C748 C 0.74583 0.71151 0.59499 0.0
C749 C 0.72072 0.70069 0.58388 0.0
C750 C 0.82798 0.73207 0.62808 0.0
C751 C 0.83892 0.75475 0.61373 0.0
C752 C 0.80508 0.71941 0.61246 0.0
C753 C 0.79228 0.72949 0.58253 0.0
C754 C 0.80434 0.75127 0.56684 0.0
C755 C 0.82757 0.76378 0.58234 0.0
H756 H 0.76699 0.20036 0.98359 0.0
H757 H 0.82227 0.24131 0.05867 0.0
H758 H 0.73347 0.23621 0.99408 0.0
H759 H 0.78945 0.27755 0.06827 0.0
H760 H 0.70938 0.29439 0.12961 0.0
H761 H 0.74773 0.2702 0.10281 0.0
H762 H 0.71755 0.28486 0.99744 0.0
H763 H 0.67846 0.30937 0.02485 0.0
C764 C 0.77244 0.2177 0.00093 0.0
C765 C 0.79686 0.21813 0.02074 0.0
C766 C 0.7533 0.2382 0.00697 0.0
C767 C 0.75859 0.25929 0.03275 0.0
C768 C 0.78458 0.2612 0.04892 0.0
C769 C 0.80341 0.2406 0.04333 0.0
C770 C 0.71083 0.29243 0.10072 0.0
C771 C 0.69076 0.30336 0.07928 0.0
C772 C 0.73307 0.27894 0.08531 0.0
C773 C 0.73588 0.27591 0.04797 0.0
C774 C 0.71593 0.28701 0.0263 0.0
C775 C 0.69364 0.30094 0.04189 0.0
H776 H 0.32963 0.28438 0.62261 0.0
H777 H 0.32567 0.35553 0.69382 0.0
H778 H 0.30621 0.25926 0.66727 0.0
H779 H 0.30193 0.33058 0.73803 0.0
H780 H 0.2351 0.28298 0.79087 0.0
H781 H 0.25575 0.30609 0.74256 0.0
H782 H 0.31882 0.24617 0.73199 0.0
H783 H 0.29804 0.2228 0.78037 0.0
C784 C 0.32359 0.29465 0.64769 0.0
C785 C 0.32959 0.32183 0.65493 0.0
C786 C 0.31034 0.28027 0.67322 0.0
C787 C 0.30234 0.29301 0.70606 0.0
C788 C 0.30778 0.32032 0.71287 0.0
C789 C 0.3215 0.33453 0.6877 0.0
C790 C 0.2532 0.27454 0.77799 0.0
C791 C 0.26498 0.25107 0.78943 0.0
C792 C 0.26508 0.28788 0.75052 0.0
C793 C 0.28886 0.27791 0.73364 0.0
C794 C 0.30036 0.25415 0.74445 0.0
C795 C 0.28864 0.24094 0.77229 0.0
H796 H 0.70789 0.70154 0.43184 0.0
H797 H 0.6297 0.74036 0.42313 0.0
H798 H 0.72736 0.73129 0.3894 0.0
H799 H 0.64943 0.77056 0.38159 0.0
H800 H 0.71473 0.82659 0.3223 0.0
H801 H 0.70111 0.80561 0.37653 0.0
H802 H 0.69793 0.72911 0.3173 0.0
H803 H 0.70971 0.74985 0.26265 0.0
C804 C 0.69528 0.71724 0.42217 0.0
C805 C 0.66737 0.71875 0.43047 0.0
C806 C 0.70635 0.73409 0.39788 0.0
C807 C 0.68975 0.75301 0.38255 0.0
C808 C 0.66254 0.75619 0.39346 0.0
C809 C 0.65131 0.73895 0.41705 0.0
C810 C 0.71079 0.80535 0.32063 0.0
C811 C 0.71338 0.78993 0.28796 0.0
C812 C 0.70337 0.79342 0.35176 0.0
C813 C 0.69907 0.76586 0.35082 0.0
C814 C 0.70177 0.75039 0.31853 0.0
C815 C 0.7086 0.76231 0.28733 0.0
H816 H 0.78169 0.17212 0.91017 0.0
H817 H 0.83566 0.2398 0.92432 0.0
H818 H 0.75329 0.19585 0.86987 0.0
H819 H 0.80621 0.26481 0.8858 0.0
H820 H 0.77973 0.27936 0.77141 0.0
H821 H 0.80082 0.26305 0.82424 0.0
H822 H 0.72382 0.2279 0.85261 0.0
H823 H 0.70358 0.24178 0.79792 0.0
C824 C 0.78646 0.19276 0.90619 0.0
C825 C 0.81055 0.20433 0.92034 0.0
C826 C 0.77025 0.20646 0.88292 0.0
C827 C 0.77768 0.23219 0.87378 0.0
C828 C 0.80028 0.24476 0.89131 0.0
C829 C 0.81685 0.23074 0.91399 0.0
C830 C 0.76736 0.26786 0.78862 0.0
C831 C 0.73995 0.26178 0.78001 0.0
C832 C 0.77932 0.25898 0.81954 0.0
C833 C 0.76406 0.24419 0.84309 0.0
C834 C 0.7364 0.23891 0.83504 0.0
C835 C 0.72462 0.24727 0.80376 0.0
H836 H 0.27831 0.2959 0.57826 0.0
H837 H 0.33312 0.26004 0.49929 0.0
H838 H 0.245 0.26044 0.56405 0.0
H839 H 0.30054 0.2239 0.48595 0.0
H840 H 0.22066 0.20859 0.42282 0.0
H841 H 0.2595 0.23095 0.45187 0.0
H842 H 0.22735 0.21452 0.55526 0.0
H843 H 0.18758 0.19266 0.52583 0.0
C844 C 0.28386 0.2795 0.55944 0.0
C845 C 0.30802 0.28063 0.53962 0.0
C846 C 0.26475 0.25923 0.5511 0.0
C847 C 0.26977 0.23987 0.52298 0.0
C848 C 0.29575 0.239 0.507 0.0
C849 C 0.3146 0.25942 0.51498 0.0
C850 C 0.22168 0.20989 0.45176 0.0
C851 C 0.2008 0.19919 0.472 0.0
C852 C 0.24429 0.22225 0.46847 0.0
C853 C 0.24679 0.22419 0.50596 0.0
C854 C 0.22606 0.21327 0.52634 0.0
C855 C 0.20334 0.20075 0.50951 0.0
H856 H 0.23798 0.85088 0.00123 0.0
H857 H 0.19601 0.77718 0.01749 0.0
H858 H 0.28086 0.82662 0.99255 0.0
H859 H 0.23825 0.75262 0.00676 0.0
H860 H 0.31916 0.71299 0.00481 0.0
H861 H 0.28154 0.74153 0.02687 0.0
H862 H 0.30252 0.7985 0.94989 0.0
H863 H 0.34081 0.77053 0.92977 0.0
C864 C 0.23795 0.82943 0.00259 0.0
C865 C 0.21375 0.81585 0.00976 0.0
C866 C 0.26249 0.81548 0.99755 0.0
C867 C 0.26318 0.78755 0.99877 0.0
C868 C 0.23881 0.77411 0.00634 0.0
C869 C 0.21446 0.78814 0.01212 0.0
C870 C 0.316 0.73202 0.99354 0.0
C871 C 0.33273 0.73984 0.96592 0.0
C872 C 0.2943 0.74823 0.00573 0.0
C873 C 0.28861 0.77224 0.98985 0.0
C874 C 0.30633 0.78043 0.9632 0.0
C875 C 0.32824 0.76442 0.95149 0.0
loop_
_geom_bond_atom_site_label_1
_geom_bond_atom_site_label_2
_geom_bond_distance
_geom_bond_site_symmetry_2
_ccdc_geom_bond_type
Zn0 O6 1.920 . S
Zn0 O12 1.898 . S
Zn0 O15 1.905 . S
Zn1 O9 1.905 . S
Zn1 O10 1.898 . S
Zn1 O18 1.920 . S
Zn2 O5 2.080 . S
Zn2 O8 2.114 . S
Zn2 O11 2.120 . S
Zn2 O13 2.120 . S
Zn2 O14 2.114 . S
Zn2 O17 2.080 . S
C3 O8 1.166 . S
C3 O9 1.182 1_554 S
C4 O10 1.167 . S
C4 O11 1.299 1_556 S
O5 Zn2 2.080 . S
O5 C19 1.305 . S
O6 Zn0 1.920 . S
O6 C19 1.234 . S
C7 O12 1.167 . S
C7 O13 1.299 . S
O8 Zn2 2.114 . S
O8 C3 1.166 . S
O9 Zn1 1.905 . S
O9 C3 1.182 1_556 S
O10 Zn1 1.898 . S
O10 C4 1.167 . S
O11 Zn2 2.120 . S
O11 C4 1.299 1_554 S
O12 Zn0 1.898 . S
O12 C7 1.167 . S
O13 Zn2 2.120 . S
O13 C7 1.299 . S
O14 Zn2 2.114 . S
O14 C16 1.166 . S
O15 Zn0 1.905 . S
O15 C16 1.182 . S
C16 O14 1.166 . S
C16 O15 1.182 . S
O17 Zn2 2.080 . S
O17 C20 1.305 . S
O18 Zn1 1.920 . S
O18 C20 1.234 1_556 S
C19 O5 1.305 . S
C19 O6 1.234 . S
C20 O17 1.305 . S
C20 O18 1.234 1_554 S
Zn21 O27 1.920 . S
Zn21 O33 1.898 . S
Zn21 O36 1.905 . S
Zn22 O30 1.905 . S
Zn22 O31 1.898 . S
Zn22 O39 1.920 . S
Zn23 O26 2.080 . S
Zn23 O29 2.114 . S
Zn23 O32 2.120 . S
Zn23 O34 2.120 . S
Zn23 O35 2.114 . S
Zn23 O38 2.080 . S
C24 O29 1.166 . S
C24 O30 1.182 . S
C25 O31 1.167 . S
C25 O32 1.299 . S
O26 Zn23 2.080 . S
O26 C40 1.305 . S
O27 Zn21 1.920 . S
O27 C40 1.234 . S
C28 O33 1.167 . S
C28 O34 1.299 . S
O29 Zn23 2.114 . S
O29 C24 1.166 . S
O30 Zn22 1.905 . S
O30 C24 1.182 . S
O31 Zn22 1.898 . S
O31 C25 1.167 . S
O32 Zn23 2.120 . S
O32 C25 1.299 . S
O33 Zn21 1.898 . S
O33 C28 1.167 . S
O34 Zn23 2.120 . S
O34 C28 1.299 . S
O35 Zn23 2.114 . S
O35 C37 1.166 . S
O36 Zn21 1.905 . S
O36 C37 1.182 . S
C37 O35 1.166 . S
C37 O36 1.182 . S
O38 Zn23 2.080 . S
O38 C41 1.305 . S
O39 Zn22 1.920 . S
O39 C41 1.234 . S
C40 O26 1.305 . S
C40 O27 1.234 . S
C41 O38 1.305 . S
C41 O39 1.234 . S
Zn42 O48 1.920 . S
Zn42 O54 1.898 . S
Zn42 O57 1.905 . S
Zn43 O51 1.905 . S
Zn43 O52 1.898 . S
Zn43 O60 1.920 . S
Zn44 O47 2.080 1_554 S
Zn44 O50 2.114 . S
Zn44 O53 2.120 . S
Zn44 O55 2.120 1_554 S
Zn44 O56 2.114 1_554 S
Zn44 O59 2.080 . S
C45 O50 1.166 . S
C45 O51 1.182 . S
C46 O52 1.167 . S
C46 O53 1.299 . S
O47 Zn44 2.080 1_556 S
O47 C61 1.305 . S
O48 Zn42 1.920 . S
O48 C61 1.234 . S
C49 O54 1.167 . S
C49 O55 1.299 . S
O50 Zn44 2.114 . S
O50 C45 1.166 . S
O51 Zn43 1.905 . S
O51 C45 1.182 . S
O52 Zn43 1.898 . S
O52 C46 1.167 . S
O53 Zn44 2.120 . S
O53 C46 1.299 . S
O54 Zn42 1.898 . S
O54 C49 1.167 . S
O55 Zn44 2.120 1_556 S
O55 C49 1.299 . S
O56 Zn44 2.114 1_556 S
O56 C58 1.166 . S
O57 Zn42 1.905 . S
O57 C58 1.182 . S
C58 O56 1.166 . S
C58 O57 1.182 . S
O59 Zn44 2.080 . S
O59 C62 1.305 . S
O60 Zn43 1.920 . S
O60 C62 1.234 . S
C61 O47 1.305 . S
C61 O48 1.234 . S
C62 O59 1.305 . S
C62 O60 1.234 . S
Zn63 O69 1.920 . S
Zn63 O75 1.898 . S
Zn63 O78 1.905 . S
Zn64 O72 1.905 . S
Zn64 O73 1.898 . S
Zn64 O81 1.920 . S
Zn65 O68 2.080 . S
Zn65 O71 2.114 . S
Zn65 O74 2.120 . S
Zn65 O76 2.120 . S
Zn65 O77 2.114 . S
Zn65 O80 2.080 . S
C66 O71 1.166 . S
C66 O72 1.182 . S
C67 O73 1.167 . S
C67 O74 1.299 . S
O68 Zn65 2.080 . S
O68 C82 1.305 . S
O69 Zn63 1.920 . S
O69 C82 1.234 . S
C70 O75 1.167 . S
C70 O76 1.299 . S
O71 Zn65 2.114 . S
O71 C66 1.166 . S
O72 Zn64 1.905 . S
O72 C66 1.182 . S
O73 Zn64 1.898 . S
O73 C67 1.167 . S
O74 Zn65 2.120 . S
O74 C67 1.299 . S
O75 Zn63 1.898 . S
O75 C70 1.167 . S
O76 Zn65 2.120 . S
O76 C70 1.299 . S
O77 Zn65 2.114 . S
O77 C79 1.166 . S
O78 Zn63 1.905 . S
O78 C79 1.182 . S
C79 O77 1.166 . S
C79 O78 1.182 . S
O80 Zn65 2.080 . S
O80 C83 1.305 . S
O81 Zn64 1.920 . S
O81 C83 1.234 . S
C82 O68 1.305 . S
C82 O69 1.234 . S
C83 O80 1.305 . S
C83 O81 1.234 . S
C84 C85 1.386 . S
C84 C86 1.397 . S
C84 H108 0.931 . S
C85 C84 1.386 . S
C85 C89 1.397 . S
C86 C84 1.397 . S
C86 C87 1.384 . S
C86 H109 0.930 . S
C87 C86 1.384 . S
C87 C88 1.377 . S
C87 C90 1.481 . S
C88 C87 1.377 . S
C88 C89 1.389 . S
C88 H110 0.929 . S
C89 C85 1.397 . S
C89 C88 1.389 . S
C89 H111 0.931 . S
C90 C87 1.481 . S
C90 C91 1.387 . S
C90 C95 1.390 . S
C91 C90 1.387 . S
C91 C92 1.401 . S
C91 H112 0.930 . S
C92 C91 1.401 . S
C92 C93 1.376 . S
C92 C101 1.511 . S
C93 C92 1.376 . S
C93 C94 1.392 . S
C93 H114 0.931 . S
C94 C93 1.392 . S
C94 C95 1.361 . S
C94 C96 1.500 . S
C95 C90 1.390 . S
C95 C94 1.361 . S
C95 H113 0.931 . S
C96 C94 1.500 . S
C96 C97 1.371 . S
C96 C98 1.365 . S
C97 C96 1.371 . S
C97 C107 1.386 . S
C97 H115 0.931 . S
C98 C96 1.365 . S
C98 C99 1.409 . S
C98 H116 0.929 . S
C99 C98 1.409 . S
C99 C100 1.380 . S
C99 H117 0.924 1_545 S
C100 C99 1.380 . S
C100 C107 1.357 . S
C101 C92 1.511 . S
C101 C102 1.341 . S
C101 C103 1.371 . S
C102 C101 1.341 . S
C102 C106 1.394 . S
C102 H118 0.930 . S
C103 C101 1.371 . S
C103 C104 1.392 . S
C103 H119 0.931 . S
C104 C103 1.392 . S
C104 C105 1.331 . S
C104 H122 0.932 . S
C105 C104 1.331 . S
C105 C106 1.336 . S
C106 C102 1.394 . S
C106 C105 1.336 . S
C106 H121 0.929 . S
C107 C97 1.386 . S
C107 C100 1.357 . S
C107 H120 0.928 . S
H108 C84 0.931 . S
H109 C86 0.930 . S
H110 C88 0.929 . S
H111 C89 0.931 . S
H112 C91 0.930 . S
H113 C95 0.931 . S
H114 C93 0.931 . S
H115 C97 0.931 . S
H116 C98 0.929 . S
H117 C99 0.924 1_565 S
H118 C102 0.930 . S
H119 C103 0.931 . S
H120 C107 0.928 . S
H121 C106 0.929 . S
H122 C104 0.932 . S
C123 C124 1.386 . S
C123 C125 1.397 . S
C123 H147 0.931 . S
C124 C123 1.386 . S
C124 C128 1.397 . S
C125 C123 1.397 . S
C125 C126 1.384 . S
C125 H148 0.930 . S
C126 C125 1.384 . S
C126 C127 1.377 . S
C126 C129 1.481 . S
C127 C126 1.377 . S
C127 C128 1.389 . S
C127 H149 0.929 . S
C128 C124 1.397 . S
C128 C127 1.389 . S
C128 H150 0.931 . S
C129 C126 1.481 . S
C129 C130 1.387 . S
C129 C134 1.390 . S
C130 C129 1.387 . S
C130 C131 1.401 . S
C130 H151 0.930 . S
C131 C130 1.401 . S
C131 C132 1.376 . S
C131 C140 1.511 . S
C132 C131 1.376 . S
C132 C133 1.392 . S
C132 H153 0.931 . S
C133 C132 1.392 . S
C133 C134 1.361 . S
C133 C135 1.500 . S
C134 C129 1.390 . S
C134 C133 1.361 . S
C134 H152 0.931 . S
C135 C133 1.500 . S
C135 C136 1.371 . S
C135 C137 1.365 . S
C136 C135 1.371 . S
C136 C146 1.386 . S
C136 H154 0.931 . S
C137 C135 1.365 . S
C137 C138 1.409 . S
C137 H155 0.929 . S
C138 C137 1.409 . S
C138 C139 1.380 . S
C138 H156 0.930 . S
C139 C138 1.380 . S
C139 C146 1.357 . S
C140 C131 1.511 . S
C140 C141 1.341 . S
C140 C142 1.371 . S
C141 C140 1.341 . S
C141 C145 1.394 . S
C141 H157 0.930 . S
C142 C140 1.371 . S
C142 C143 1.392 . S
C142 H158 0.931 . S
C143 C142 1.392 . S
C143 C144 1.331 . S
C143 H161 0.932 . S
C144 C143 1.331 . S
C144 C145 1.336 . S
C145 C141 1.394 . S
C145 C144 1.336 . S
C145 H160 0.929 . S
C146 C136 1.386 . S
C146 C139 1.357 . S
C146 H159 0.928 . S
H147 C123 0.931 . S
H148 C125 0.930 . S
H149 C127 0.929 . S
H150 C128 0.931 . S
H151 C130 0.930 . S
H152 C134 0.931 . S
H153 C132 0.931 . S
H154 C136 0.931 . S
H155 C137 0.929 . S
H156 C138 0.930 . S
H157 C141 0.930 . S
H158 C142 0.931 . S
H159 C146 0.928 . S
H160 C145 0.929 . S
H161 C143 0.932 . S
C162 C163 1.386 . S
C162 C164 1.397 . S
C162 H186 0.931 . S
C163 C162 1.386 . S
C163 C167 1.397 . S
C164 C162 1.397 . S
C164 C165 1.384 . S
C164 H187 0.930 . S
C165 C164 1.384 . S
C165 C166 1.377 . S
C165 C168 1.481 . S
C166 C165 1.377 . S
C166 C167 1.389 . S
C166 H188 0.929 . S
C167 C163 1.397 . S
C167 C166 1.389 . S
C167 H189 0.931 . S
C168 C165 1.481 . S
C168 C169 1.387 . S
C168 C173 1.390 . S
C169 C168 1.387 . S
C169 C170 1.401 . S
C169 H190 0.930 . S
C170 C169 1.401 . S
C170 C171 1.376 . S
C170 C179 1.511 . S
C171 C170 1.376 . S
C171 C172 1.392 . S
C171 H192 0.931 . S
C172 C171 1.392 . S
C172 C173 1.361 . S
C172 C174 1.500 . S
C173 C168 1.390 . S
C173 C172 1.361 . S
C173 H191 0.931 . S
C174 C172 1.500 . S
C174 C175 1.371 . S
C174 C176 1.365 . S
C175 C174 1.371 . S
C175 C185 1.386 . S
C175 H193 0.931 . S
C176 C174 1.365 . S
C176 C177 1.409 . S
C176 H194 0.929 . S
C177 C176 1.409 . S
C177 C178 1.380 . S
C177 H195 0.930 . S
C178 C177 1.380 . S
C178 C185 1.357 . S
C179 C170 1.511 . S
C179 C180 1.341 . S
C179 C181 1.371 . S
C180 C179 1.341 . S
C180 C184 1.394 . S
C180 H196 0.930 . S
C181 C179 1.371 . S
C181 C182 1.392 . S
C181 H197 0.931 . S
C182 C181 1.392 . S
C182 C183 1.331 . S
C182 H200 0.932 . S
C183 C182 1.331 . S
C183 C184 1.336 . S
C184 C180 1.394 . S
C184 C183 1.336 . S
C184 H199 0.929 . S
C185 C175 1.386 . S
C185 C178 1.357 . S
C185 H198 0.928 . S
H186 C162 0.931 . S
H187 C164 0.930 . S
H188 C166 0.929 . S
H189 C167 0.931 . S
H190 C169 0.930 . S
H191 C173 0.931 . S
H192 C171 0.931 . S
H193 C175 0.931 . S
H194 C176 0.929 . S
H195 C177 0.930 . S
H196 C180 0.930 . S
H197 C181 0.931 . S
H198 C185 0.928 . S
H199 C184 0.929 . S
H200 C182 0.932 . S
C201 C202 1.386 . S
C201 C203 1.397 . S
C201 H225 0.931 . S
C202 C201 1.386 . S
C202 C206 1.397 . S
C203 C201 1.397 . S
C203 C204 1.384 . S
C203 H226 0.930 . S
C204 C203 1.384 . S
C204 C205 1.377 . S
C204 C207 1.481 . S
C205 C204 1.377 . S
C205 C206 1.389 . S
C205 H227 0.929 . S
C206 C202 1.397 . S
C206 C205 1.389 . S
C206 H228 0.931 . S
C207 C204 1.481 . S
C207 C208 1.387 . S
C207 C212 1.390 . S
C208 C207 1.387 . S
C208 C209 1.401 . S
C208 H229 0.930 . S
C209 C208 1.401 . S
C209 C210 1.376 . S
C209 C218 1.511 . S
C210 C209 1.376 . S
C210 C211 1.392 . S
C210 H231 0.931 . S
C211 C210 1.392 . S
C211 C212 1.361 . S
C211 C213 1.500 . S
C212 C207 1.390 . S
C212 C211 1.361 . S
C212 H230 0.931 . S
C213 C211 1.500 . S
C213 C214 1.371 . S
C213 C215 1.365 . S
C214 C213 1.371 . S
C214 C224 1.386 . S
C214 H232 0.931 . S
C215 C213 1.365 . S
C215 C216 1.409 . S
C215 H233 0.929 . S
C216 C215 1.409 . S
C216 C217 1.380 . S
C216 H234 0.930 . S
C217 C216 1.380 . S
C217 C224 1.357 . S
C218 C209 1.511 . S
C218 C219 1.341 . S
C218 C220 1.371 . S
C219 C218 1.341 . S
C219 C223 1.394 . S
C219 H235 0.930 . S
C220 C218 1.371 . S
C220 C221 1.392 . S
C220 H236 0.931 . S
C221 C220 1.392 . S
C221 C222 1.331 . S
C221 H239 0.932 . S
C222 C221 1.331 . S
C222 C223 1.336 . S
C223 C219 1.394 . S
C223 C222 1.336 . S
C223 H238 0.929 . S
C224 C214 1.386 . S
C224 C217 1.357 . S
C224 H237 0.928 . S
H225 C201 0.931 . S
H226 C203 0.930 . S
H227 C205 0.929 . S
H228 C206 0.931 . S
H229 C208 0.930 . S
H230 C212 0.931 . S
H231 C210 0.931 . S
H232 C214 0.931 . S
H233 C215 0.929 . S
H234 C216 0.930 . S
H235 C219 0.930 . S
H236 C220 0.931 . S
H237 C224 0.928 . S
H238 C223 0.929 . S
H239 C221 0.932 . S
C240 C241 1.386 . S
C240 C242 1.397 . S
C240 H264 0.931 . S
C241 C240 1.386 . S
C241 C245 1.397 . S
C242 C240 1.397 . S
C242 C243 1.384 . S
C242 H265 0.930 . S
C243 C242 1.384 . S
C243 C244 1.377 . S
C243 C246 1.481 . S
C244 C243 1.377 . S
C244 C245 1.389 . S
C244 H266 0.929 . S
C245 C241 1.397 . S
C245 C244 1.389 . S
C245 H267 0.931 . S
C246 C243 1.481 . S
C246 C247 1.387 . S
C246 C251 1.390 . S
C247 C246 1.387 . S
C247 C248 1.401 . S
C247 H268 0.930 . S
C248 C247 1.401 . S
C248 C249 1.376 . S
C248 C257 1.511 . S
C249 C248 1.376 . S
C249 C250 1.392 . S
C249 H270 0.931 . S
C250 C249 1.392 . S
C250 C251 1.361 . S
C250 C252 1.500 . S
C251 C246 1.390 . S
C251 C250 1.361 . S
C251 H269 0.931 . S
C252 C250 1.500 . S
C252 C253 1.371 . S
C252 C254 1.365 . S
C253 C252 1.371 . S
C253 C263 1.386 . S
C253 H271 0.931 . S
C254 C252 1.365 . S
C254 C255 1.409 . S
C254 H272 0.929 . S
C255 C254 1.409 . S
C255 C256 1.380 . S
C255 H273 0.930 . S
C256 C255 1.380 . S
C256 C263 1.357 . S
C257 C248 1.511 . S
C257 C258 1.341 . S
C257 C259 1.371 . S
C258 C257 1.341 . S
C258 C262 1.394 . S
C258 H274 0.930 . S
C259 C257 1.371 . S
C259 C260 1.392 . S
C259 H275 0.931 . S
C260 C259 1.392 . S
C260 C261 1.331 . S
C260 H278 0.932 . S
C261 C260 1.331 . S
C261 C262 1.336 . S
C262 C258 1.394 . S
C262 C261 1.336 . S
C262 H277 0.929 . S
C263 C253 1.386 . S
C263 C256 1.357 . S
C263 H276 0.928 . S
H264 C240 0.931 . S
H265 C242 0.930 . S
H266 C244 0.929 . S
H267 C245 0.931 . S
H268 C247 0.930 . S
H269 C251 0.931 . S
H270 C249 0.931 . S
H271 C253 0.931 . S
H272 C254 0.929 . S
H273 C255 0.930 . S
H274 C258 0.930 . S
H275 C259 0.931 . S
H276 C263 0.928 . S
H277 C262 0.929 . S
H278 C260 0.932 . S
C279 C280 1.386 . S
C279 C281 1.397 . S
C279 H303 0.931 . S
C280 C279 1.386 . S
C280 C284 1.397 . S
C281 C279 1.397 . S
C281 C282 1.384 . S
C281 H304 0.930 . S
C282 C281 1.384 . S
C282 C283 1.377 . S
C282 C285 1.481 . S
C283 C282 1.377 . S
C283 C284 1.389 . S
C283 H305 0.929 . S
C284 C280 1.397 . S
C284 C283 1.389 . S
C284 H306 0.931 1_556 S
C285 C282 1.481 . S
C285 C286 1.387 . S
C285 C290 1.390 . S
C286 C285 1.387 . S
C286 C287 1.401 . S
C286 H307 0.930 . S
C287 C286 1.401 . S
C287 C288 1.376 . S
C287 C296 1.511 . S
C288 C287 1.376 . S
C288 C289 1.392 . S
C288 H309 0.931 . S
C289 C288 1.392 . S
C289 C290 1.361 . S
C289 C291 1.500 . S
C290 C285 1.390 . S
C290 C289 1.361 . S
C290 H308 0.931 . S
C291 C289 1.500 . S
C291 C292 1.371 . S
C291 C293 1.365 . S
C292 C291 1.371 . S
C292 C302 1.386 . S
C292 H310 0.931 . S
C293 C291 1.365 . S
C293 C294 1.409 . S
C293 H311 0.929 . S
C294 C293 1.409 . S
C294 C295 1.380 . S
C294 H312 0.930 1_556 S
C295 C294 1.380 . S
C295 C302 1.357 . S
C296 C287 1.511 . S
C296 C297 1.341 . S
C296 C298 1.371 . S
C297 C296 1.341 . S
C297 C301 1.394 . S
C297 H313 0.930 . S
C298 C296 1.371 . S
C298 C299 1.392 . S
C298 H314 0.931 . S
C299 C298 1.392 . S
C299 C300 1.331 . S
C299 H317 0.932 . S
C300 C299 1.331 . S
C300 C301 1.336 . S
C301 C297 1.394 . S
C301 C300 1.336 . S
C301 H316 0.929 . S
C302 C292 1.386 . S
C302 C295 1.357 . S
C302 H315 0.928 . S
H303 C279 0.931 . S
H304 C281 0.930 . S
H305 C283 0.929 . S
H306 C284 0.931 1_554 S
H307 C286 0.930 . S
H308 C290 0.931 . S
H309 C288 0.931 . S
H310 C292 0.931 . S
H311 C293 0.929 . S
H312 C294 0.930 1_554 S
H313 C297 0.930 . S
H314 C298 0.931 . S
H315 C302 0.928 . S
H316 C301 0.929 . S
H317 C299 0.932 . S
C318 C319 1.386 . S
C318 C320 1.397 . S
C318 H342 0.931 . S
C319 C318 1.386 . S
C319 C323 1.397 . S
C320 C318 1.397 . S
C320 C321 1.384 . S
C320 H343 0.930 . S
C321 C320 1.384 . S
C321 C322 1.377 . S
C321 C324 1.481 . S
C322 C321 1.377 . S
C322 C323 1.389 . S
C322 H344 0.929 . S
C323 C319 1.397 . S
C323 C322 1.389 . S
C323 H345 0.931 . S
C324 C321 1.481 . S
C324 C325 1.387 . S
C324 C329 1.390 . S
C325 C324 1.387 . S
C325 C326 1.401 . S
C325 H346 0.930 . S
C326 C325 1.401 . S
C326 C327 1.376 . S
C326 C335 1.511 . S
C327 C326 1.376 . S
C327 C328 1.392 . S
C327 H348 0.931 . S
C328 C327 1.392 . S
C328 C329 1.361 . S
C328 C330 1.500 . S
C329 C324 1.390 . S
C329 C328 1.361 . S
C329 H347 0.931 . S
C330 C328 1.500 . S
C330 C331 1.371 . S
C330 C332 1.365 . S
C331 C330 1.371 . S
C331 C341 1.386 . S
C331 H349 0.931 . S
C332 C330 1.365 . S
C332 C333 1.409 . S
C332 H350 0.929 . S
C333 C332 1.409 . S
C333 C334 1.380 . S
C333 H351 0.930 . S
C334 C333 1.380 . S
C334 C341 1.357 . S
C335 C326 1.511 . S
C335 C336 1.341 . S
C335 C337 1.371 . S
C336 C335 1.341 . S
C336 C340 1.394 . S
C336 H352 0.930 . S
C337 C335 1.371 . S
C337 C338 1.392 . S
C337 H353 0.931 . S
C338 C337 1.392 . S
C338 C339 1.331 . S
C338 H356 0.932 . S
C339 C338 1.331 . S
C339 C340 1.336 . S
C340 C336 1.394 . S
C340 C339 1.336 . S
C340 H355 0.929 . S
C341 C331 1.386 . S
C341 C334 1.357 . S
C341 H354 0.928 . S
H342 C318 0.931 . S
H343 C320 0.930 . S
H344 C322 0.929 . S
H345 C323 0.931 . S
H346 C325 0.930 . S
H347 C329 0.931 . S
H348 C327 0.931 . S
H349 C331 0.931 . S
H350 C332 0.929 . S
H351 C333 0.930 . S
H352 C336 0.930 . S
H353 C337 0.931 . S
H354 C341 0.928 . S
H355 C340 0.929 . S
H356 C338 0.932 . S
C357 C358 1.386 . S
C357 C359 1.395 1_455 S
C357 H381 0.931 . S
C358 C357 1.386 . S
C358 C362 1.397 . S
C359 C357 1.395 1_655 S
C359 C360 1.386 . S
C359 H382 0.931 . S
C360 C359 1.386 . S
C360 C361 1.377 . S
C360 C363 1.481 . S
C361 C360 1.377 . S
C361 C362 1.389 1_655 S
C361 H383 0.929 . S
C362 C358 1.397 . S
C362 C361 1.389 1_455 S
C362 H384 0.931 . S
C363 C360 1.481 . S
C363 C364 1.387 . S
C363 C368 1.390 . S
C364 C363 1.387 . S
C364 C365 1.401 . S
C364 H385 0.930 . S
C365 C364 1.401 . S
C365 C366 1.376 . S
C365 C374 1.511 . S
C366 C365 1.376 . S
C366 C367 1.392 . S
C366 H387 0.931 . S
C367 C366 1.392 . S
C367 C368 1.361 . S
C367 C369 1.500 . S
C368 C363 1.390 . S
C368 C367 1.361 . S
C368 H386 0.931 . S
C369 C367 1.500 . S
C369 C370 1.371 . S
C369 C371 1.365 . S
C370 C369 1.371 . S
C370 C380 1.386 . S
C370 H388 0.931 . S
C371 C369 1.365 . S
C371 C372 1.409 . S
C371 H389 0.929 . S
C372 C371 1.409 . S
C372 C373 1.380 . S
C372 H390 0.930 . S
C373 C372 1.380 . S
C373 C380 1.357 . S
C374 C365 1.511 . S
C374 C375 1.341 . S
C374 C376 1.371 . S
C375 C374 1.341 . S
C375 C379 1.394 . S
C375 H391 0.930 . S
C376 C374 1.371 . S
C376 C377 1.392 . S
C376 H392 0.931 . S
C377 C376 1.392 . S
C377 C378 1.331 . S
C377 H395 0.932 . S
C378 C377 1.331 . S
C378 C379 1.336 . S
C379 C375 1.394 . S
C379 C378 1.336 . S
C379 H394 0.929 . S
C380 C370 1.386 . S
C380 C373 1.357 . S
C380 H393 0.928 . S
H381 C357 0.931 . S
H382 C359 0.931 . S
H383 C361 0.929 . S
H384 C362 0.931 . S
H385 C364 0.930 . S
H386 C368 0.931 . S
H387 C366 0.931 . S
H388 C370 0.931 . S
H389 C371 0.929 . S
H390 C372 0.930 . S
H391 C375 0.930 . S
H392 C376 0.931 . S
H393 C380 0.928 . S
H394 C379 0.929 . S
H395 C377 0.932 . S
H396 C404 0.950 . S
H397 C409 0.950 . S
H398 C406 0.950 . S
H399 C408 0.950 . S
H400 C410 0.950 . S
H401 C412 0.950 . S
H402 C414 0.950 . S
H403 C415 0.950 . S
C404 H396 0.950 . S
C404 C405 1.386 . S
C404 C406 1.391 . S
C405 C404 1.386 . S
C405 C409 1.393 . S
C406 H398 0.950 . S
C406 C404 1.391 . S
C406 C407 1.400 . S
C407 C406 1.400 . S
C407 C408 1.398 . S
C407 C413 1.491 . S
C408 H399 0.950 . S
C408 C407 1.398 . S
C408 C409 1.391 . S
C409 H397 0.950 . S
C409 C405 1.393 . S
C409 C408 1.391 . S
C410 H400 0.950 . S
C410 C411 1.386 . S
C410 C412 1.391 . S
C411 C410 1.386 . S
C411 C415 1.393 . S
C412 H401 0.950 . S
C412 C410 1.391 . S
C412 C413 1.400 . S
C413 C407 1.491 . S
C413 C412 1.400 . S
C413 C414 1.398 . S
C414 H402 0.950 . S
C414 C413 1.398 . S
C414 C415 1.391 . S
C415 H403 0.950 . S
C415 C411 1.393 . S
C415 C414 1.391 . S
H416 C424 0.950 . S
H417 C429 0.950 . S
H418 C426 0.950 . S
H419 C428 0.950 . S
H420 C430 0.950 . S
H421 C432 0.950 . S
H422 C434 0.950 . S
H423 C435 0.950 . S
C424 H416 0.950 . S
C424 C425 1.386 . S
C424 C426 1.391 . S
C425 C424 1.386 . S
C425 C429 1.393 . S
C426 H418 0.950 . S
C426 C424 1.391 . S
C426 C427 1.400 . S
C427 C426 1.400 . S
C427 C428 1.398 . S
C427 C433 1.491 . S
C428 H419 0.950 . S
C428 C427 1.398 . S
C428 C429 1.391 . S
C429 H417 0.950 . S
C429 C425 1.393 . S
C429 C428 1.391 . S
C430 H420 0.950 . S
C430 C431 1.386 . S
C430 C432 1.391 . S
C431 C430 1.386 . S
C431 C435 1.393 . S
C432 H421 0.950 . S
C432 C430 1.391 . S
C432 C433 1.400 . S
C433 C427 1.491 . S
C433 C432 1.400 . S
C433 C434 1.398 . S
C434 H422 0.950 . S
C434 C433 1.398 . S
C434 C435 1.391 . S
C435 H423 0.950 . S
C435 C431 1.393 . S
C435 C434 1.391 . S
H436 C444 0.950 . S
H437 C449 0.950 . S
H438 C446 0.950 . S
H439 C448 0.950 . S
H440 C450 0.950 . S
H441 C452 0.950 . S
H442 C454 0.950 . S
H443 C455 0.950 . S
C444 H436 0.950 . S
C444 C445 1.386 . S
C444 C446 1.391 . S
C445 C444 1.386 . S
C445 C449 1.393 . S
C446 H438 0.950 . S
C446 C444 1.391 . S
C446 C447 1.400 . S
C447 C446 1.400 . S
C447 C448 1.398 . S
C447 C453 1.491 . S
C448 H439 0.950 . S
C448 C447 1.398 . S
C448 C449 1.391 . S
C449 H437 0.950 . S
C449 C445 1.393 . S
C449 C448 1.391 . S
C450 H440 0.950 . S
C450 C451 1.386 . S
C450 C452 1.391 . S
C451 C450 1.386 . S
C451 C455 1.393 1_565 S
C452 H441 0.950 . S
C452 C450 1.391 . S
C452 C453 1.400 1_565 S
C453 C447 1.491 . S
C453 C452 1.400 1_545 S
C453 C454 1.398 . S
C454 H442 0.950 . S
C454 C453 1.398 . S
C454 C455 1.391 . S
C455 H443 0.950 . S
C455 C451 1.393 1_545 S
C455 C454 1.391 . S
H456 C464 0.950 . S
H457 C469 0.950 . S
H458 C466 0.950 . S
H459 C468 0.950 . S
H460 C470 0.950 . S
H461 C472 0.950 . S
H462 C474 0.950 . S
H463 C475 0.950 . S
C464 H456 0.950 . S
C464 C465 1.386 . S
C464 C466 1.391 . S
C465 C464 1.386 . S
C465 C469 1.393 . S
C466 H458 0.950 . S
C466 C464 1.391 . S
C466 C467 1.400 . S
C467 C466 1.400 . S
C467 C468 1.398 . S
C467 C473 1.491 . S
C468 H459 0.950 . S
C468 C467 1.398 . S
C468 C469 1.391 . S
C469 H457 0.950 . S
C469 C465 1.393 . S
C469 C468 1.391 . S
C470 H460 0.950 . S
C470 C471 1.386 . S
C470 C472 1.391 . S
C471 C470 1.386 . S
C471 C475 1.393 . S
C472 H461 0.950 . S
C472 C470 1.391 . S
C472 C473 1.400 . S
C473 C467 1.491 . S
C473 C472 1.400 . S
C473 C474 1.398 . S
C474 H462 0.950 . S
C474 C473 1.398 . S
C474 C475 1.391 . S
C475 H463 0.950 . S
C475 C471 1.393 . S
C475 C474 1.391 . S
H476 C484 0.950 . S
H477 C489 0.950 . S
H478 C486 0.950 . S
H479 C488 0.950 . S
H480 C490 0.950 . S
H481 C492 0.950 . S
H482 C494 0.950 . S
H483 C495 0.950 . S
C484 H476 0.950 . S
C484 C485 1.386 . S
C484 C486 1.391 . S
C485 C484 1.386 . S
C485 C489 1.393 . S
C486 H478 0.950 . S
C486 C484 1.391 . S
C486 C487 1.400 . S
C487 C486 1.400 . S
C487 C488 1.398 . S
C487 C493 1.491 . S
C488 H479 0.950 . S
C488 C487 1.398 . S
C488 C489 1.391 . S
C489 H477 0.950 . S
C489 C485 1.393 . S
C489 C488 1.391 . S
C490 H480 0.950 . S
C490 C491 1.386 . S
C490 C492 1.391 . S
C491 C490 1.386 . S
C491 C495 1.393 . S
C492 H481 0.950 . S
C492 C490 1.391 . S
C492 C493 1.400 . S
C493 C487 1.491 . S
C493 C492 1.400 . S
C493 C494 1.398 . S
C494 H482 0.950 . S
C494 C493 1.398 . S
C494 C495 1.391 . S
C495 H483 0.950 . S
C495 C491 1.393 . S
C495 C494 1.391 . S
H496 C504 0.950 . S
H497 C509 0.932 1_554 S
H498 C506 0.950 . S
H499 C508 0.950 1_554 S
H500 C510 0.950 1_554 S
H501 C512 0.950 1_654 S
H502 C514 0.950 . S
H503 C515 0.950 . S
C504 H496 0.950 . S
C504 C505 1.386 . S
C504 C506 1.391 . S
C505 C504 1.386 . S
C505 C509 1.409 . S
C506 H498 0.950 . S
C506 C504 1.391 . S
C506 C507 1.400 . S
C507 C506 1.400 . S
C507 C508 1.398 . S
C507 C513 1.491 . S
C508 H499 0.950 1_556 S
C508 C507 1.398 . S
C508 C509 1.393 . S
C509 H497 0.932 1_556 S
C509 C505 1.409 . S
C509 C508 1.393 . S
C510 H500 0.950 1_556 S
C510 C511 1.386 . S
C510 C512 1.391 . S
C511 C510 1.386 . S
C511 C515 1.393 . S
C512 H501 0.950 1_456 S
C512 C510 1.391 . S
C512 C513 1.400 1_455 S
C513 C507 1.491 . S
C513 C512 1.400 1_655 S
C513 C514 1.398 1_655 S
C514 H502 0.950 . S
C514 C513 1.398 1_455 S
C514 C515 1.391 . S
C515 H503 0.950 . S
C515 C511 1.393 . S
C515 C514 1.391 . S
H516 C524 0.950 . S
H517 C529 0.950 . S
H518 C526 0.950 . S
H519 C528 0.950 . S
H520 C530 0.950 . S
H521 C532 0.950 . S
H522 C534 0.950 . S
H523 C535 0.950 . S
C524 H516 0.950 . S
C524 C525 1.386 . S
C524 C526 1.391 . S
C525 C524 1.386 . S
C525 C529 1.393 . S
C526 H518 0.950 . S
C526 C524 1.391 . S
C526 C527 1.400 . S
C527 C526 1.400 . S
C527 C528 1.398 . S
C527 C533 1.491 . S
C528 H519 0.950 . S
C528 C527 1.398 . S
C528 C529 1.391 . S
C529 H517 0.950 . S
C529 C525 1.393 . S
C529 C528 1.391 . S
C530 H520 0.950 . S
C530 C531 1.386 . S
C530 C532 1.391 . S
C531 C530 1.386 . S
C531 C535 1.393 . S
C532 H521 0.950 . S
C532 C530 1.391 . S
C532 C533 1.400 . S
C533 C527 1.491 . S
C533 C532 1.400 . S
C533 C534 1.398 . S
C534 H522 0.950 . S
C534 C533 1.398 . S
C534 C535 1.391 . S
C535 H523 0.950 . S
C535 C531 1.393 . S
C535 C534 1.391 . S
H536 C544 0.950 . S
H537 C549 0.950 . S
H538 C546 0.950 . S
H539 C548 0.950 . S
H540 C550 0.950 . S
H541 C552 0.950 . S
H542 C554 0.950 . S
H543 C555 0.950 . S
C544 H536 0.950 . S
C544 C545 1.386 . S
C544 C546 1.391 . S
C545 C544 1.386 . S
C545 C549 1.393 . S
C546 H538 0.950 . S
C546 C544 1.391 . S
C546 C547 1.400 . S
C547 C546 1.400 . S
C547 C548 1.398 . S
C547 C553 1.491 . S
C548 H539 0.950 . S
C548 C547 1.398 . S
C548 C549 1.391 . S
C549 H537 0.950 . S
C549 C545 1.393 . S
C549 C548 1.391 . S
C550 H540 0.950 . S
C550 C551 1.386 . S
C550 C552 1.391 . S
C551 C550 1.386 . S
C551 C555 1.393 . S
C552 H541 0.950 . S
C552 C550 1.391 . S
C552 C553 1.400 . S
C553 C547 1.491 . S
C553 C552 1.400 . S
C553 C554 1.398 . S
C554 H542 0.950 . S
C554 C553 1.398 . S
C554 C555 1.391 . S
C555 H543 0.950 . S
C555 C551 1.393 . S
C555 C554 1.391 . S
H556 C564 0.950 . S
H557 C569 0.950 . S
H558 C566 0.950 . S
H559 C568 0.950 . S
H560 C570 0.950 . S
H561 C572 0.950 . S
H562 C574 0.950 . S
H563 C575 0.950 . S
C564 H556 0.950 . S
C564 C565 1.386 . S
C564 C566 1.391 . S
C565 C564 1.386 . S
C565 C569 1.393 . S
C566 H558 0.950 . S
C566 C564 1.391 . S
C566 C567 1.400 . S
C567 C566 1.400 . S
C567 C568 1.398 . S
C567 C573 1.491 . S
C568 H559 0.950 . S
C568 C567 1.398 . S
C568 C569 1.391 . S
C569 H557 0.950 . S
C569 C565 1.393 . S
C569 C568 1.391 . S
C570 H560 0.950 . S
C570 C571 1.386 . S
C570 C572 1.391 1_565 S
C571 C570 1.386 . S
C571 C575 1.393 . S
C572 H561 0.950 . S
C572 C570 1.391 1_545 S
C572 C573 1.400 . S
C573 C567 1.491 . S
C573 C572 1.400 . S
C573 C574 1.398 1_545 S
C574 H562 0.950 . S
C574 C573 1.398 1_565 S
C574 C575 1.391 . S
C575 H563 0.950 . S
C575 C571 1.393 . S
C575 C574 1.391 . S
H576 C584 0.950 . S
H577 C589 0.950 . S
H578 C586 0.950 . S
H579 C588 0.950 . S
H580 C590 0.950 . S
H581 C592 0.950 . S
H582 C594 0.950 . S
H583 C595 0.950 . S
C584 H576 0.950 . S
C584 C585 1.386 . S
C584 C586 1.391 . S
C585 C584 1.386 . S
C585 C589 1.393 . S
C586 H578 0.950 . S
C586 C584 1.391 . S
C586 C587 1.400 . S
C587 C586 1.400 . S
C587 C588 1.398 . S
C587 C593 1.491 . S
C588 H579 0.950 . S
C588 C587 1.398 . S
C588 C589 1.391 . S
C589 H577 0.950 . S
C589 C585 1.393 . S
C589 C588 1.391 . S
C590 H580 0.950 . S
C590 C591 1.386 . S
C590 C592 1.391 . S
C591 C590 1.386 . S
C591 C595 1.393 . S
C592 H581 0.950 . S
C592 C590 1.391 . S
C592 C593 1.400 . S
C593 C587 1.491 . S
C593 C592 1.400 . S
C593 C594 1.398 . S
C594 H582 0.950 . S
C594 C593 1.398 . S
C594 C595 1.391 . S
C595 H583 0.950 . S
C595 C591 1.393 . S
C595 C594 1.391 . S
H596 C604 0.950 . S
H597 C609 0.950 . S
H598 C606 0.950 . S
H599 C608 0.950 . S
H600 C610 0.950 . S
H601 C612 0.950 . S
H602 C614 0.950 . S
H603 C615 0.950 . S
C604 H596 0.950 . S
C604 C605 1.386 . S
C604 C606 1.391 . S
C605 C604 1.386 . S
C605 C609 1.393 1_554 S
C606 H598 0.950 . S
C606 C604 1.391 . S
C606 C607 1.389 1_554 S
C607 C606 1.389 1_556 S
C607 C608 1.407 . S
C607 C613 1.494 1_565 S
C608 H599 0.950 . S
C608 C607 1.407 . S
C608 C609 1.391 . S
C609 H597 0.950 . S
C609 C605 1.393 1_556 S
C609 C608 1.391 . S
C610 H600 0.950 . S
C610 C611 1.386 . S
C610 C612 1.391 . S
C611 C610 1.386 . S
C611 C615 1.393 1_556 S
C612 H601 0.950 . S
C612 C610 1.391 . S
C612 C613 1.400 . S
C613 C607 1.494 1_545 S
C613 C612 1.400 . S
C613 C614 1.398 1_556 S
C614 H602 0.950 . S
C614 C613 1.398 1_554 S
C614 C615 1.391 . S
C615 H603 0.950 . S
C615 C611 1.393 1_554 S
C615 C614 1.391 . S
H616 C624 0.950 . S
H617 C629 0.950 . S
H618 C626 0.950 . S
H619 C628 0.950 . S
H620 C630 0.950 . S
H621 C632 0.950 . S
H622 C634 0.950 . S
H623 C635 0.950 . S
C624 H616 0.950 . S
C624 C625 1.386 . S
C624 C626 1.391 . S
C625 C624 1.386 . S
C625 C629 1.393 . S
C626 H618 0.950 . S
C626 C624 1.391 . S
C626 C627 1.400 . S
C627 C626 1.400 . S
C627 C628 1.398 . S
C627 C633 1.491 . S
C628 H619 0.950 . S
C628 C627 1.398 . S
C628 C629 1.391 . S
C629 H617 0.950 . S
C629 C625 1.393 . S
C629 C628 1.391 . S
C630 H620 0.950 . S
C630 C631 1.386 . S
C630 C632 1.391 . S
C631 C630 1.386 . S
C631 C635 1.393 . S
C632 H621 0.950 . S
C632 C630 1.391 . S
C632 C633 1.400 . S
C633 C627 1.491 . S
C633 C632 1.400 . S
C633 C634 1.398 . S
C634 H622 0.950 . S
C634 C633 1.398 . S
C634 C635 1.391 . S
C635 H623 0.950 . S
C635 C631 1.393 . S
C635 C634 1.391 . S
H636 C644 0.950 . S
H637 C649 0.950 . S
H638 C646 0.950 . S
H639 C648 0.950 . S
H640 C650 0.950 . S
H641 C652 0.950 . S
H642 C654 0.950 . S
H643 C655 0.950 . S
C644 H636 0.950 . S
C644 C645 1.386 . S
C644 C646 1.391 . S
C645 C644 1.386 . S
C645 C649 1.393 . S
C646 H638 0.950 . S
C646 C644 1.391 . S
C646 C647 1.400 . S
C647 C646 1.400 . S
C647 C648 1.398 . S
C647 C653 1.491 . S
C648 H639 0.950 . S
C648 C647 1.398 . S
C648 C649 1.391 . S
C649 H637 0.950 . S
C649 C645 1.393 . S
C649 C648 1.391 . S
C650 H640 0.950 . S
C650 C651 1.386 . S
C650 C652 1.391 . S
C651 C650 1.386 . S
C651 C655 1.393 . S
C652 H641 0.950 . S
C652 C650 1.391 . S
C652 C653 1.400 . S
C653 C647 1.491 . S
C653 C652 1.400 . S
C653 C654 1.398 . S
C654 H642 0.950 . S
C654 C653 1.398 . S
C654 C655 1.391 . S
C655 H643 0.950 . S
C655 C651 1.393 . S
C655 C654 1.391 . S
H656 C664 0.950 . S
H657 C669 0.950 . S
H658 C666 0.950 1_655 S
H659 C668 0.950 . S
H660 C670 0.950 . S
H661 C672 0.950 . S
H662 C674 0.950 . S
H663 C675 0.950 . S
C664 H656 0.950 . S
C664 C665 1.386 . S
C664 C666 1.391 . S
C665 C664 1.386 . S
C665 C669 1.393 . S
C666 H658 0.950 1_455 S
C666 C664 1.391 . S
C666 C667 1.395 1_455 S
C667 C666 1.395 1_655 S
C667 C668 1.388 1_655 S
C667 C673 1.506 . S
C668 H659 0.950 . S
C668 C667 1.388 1_455 S
C668 C669 1.391 . S
C669 H657 0.950 . S
C669 C665 1.393 . S
C669 C668 1.391 . S
C670 H660 0.950 . S
C670 C671 1.386 . S
C670 C672 1.391 . S
C671 C670 1.386 . S
C671 C675 1.393 . S
C672 H661 0.950 . S
C672 C670 1.391 . S
C672 C673 1.400 . S
C673 C667 1.506 . S
C673 C672 1.400 . S
C673 C674 1.398 . S
C674 H662 0.950 . S
C674 C673 1.398 . S
C674 C675 1.391 . S
C675 H663 0.950 . S
C675 C671 1.393 . S
C675 C674 1.391 . S
H676 C684 0.950 . S
H677 C689 0.950 . S
H678 C686 0.950 . S
H679 C688 0.950 . S
H680 C690 0.950 . S
H681 C692 0.950 . S
H682 C694 0.950 . S
H683 C695 0.950 . S
C684 H676 0.950 . S
C684 C685 1.386 . S
C684 C686 1.391 . S
C685 C684 1.386 . S
C685 C689 1.393 . S
C686 H678 0.950 . S
C686 C684 1.391 . S
C686 C687 1.400 . S
C687 C686 1.400 . S
C687 C688 1.398 . S
C687 C693 1.491 . S
C688 H679 0.950 . S
C688 C687 1.398 . S
C688 C689 1.391 . S
C689 H677 0.950 . S
C689 C685 1.393 . S
C689 C688 1.391 . S
C690 H680 0.950 . S
C690 C691 1.386 . S
C690 C692 1.391 . S
C691 C690 1.386 . S
C691 C695 1.393 . S
C692 H681 0.950 . S
C692 C690 1.391 . S
C692 C693 1.400 . S
C693 C687 1.491 . S
C693 C692 1.400 . S
C693 C694 1.398 . S
C694 H682 0.950 . S
C694 C693 1.398 . S
C694 C695 1.391 . S
C695 H683 0.950 . S
C695 C691 1.393 . S
C695 C694 1.391 . S
H696 C704 0.950 . S
H697 C709 0.950 . S
H698 C706 0.950 . S
H699 C708 0.950 . S
H700 C710 0.950 . S
H701 C712 0.959 . S
H702 C714 0.950 . S
H703 C715 0.950 . S
C704 H696 0.950 . S
C704 C705 1.386 . S
C704 C706 1.391 . S
C705 C704 1.386 . S
C705 C709 1.393 . S
C706 H698 0.950 . S
C706 C704 1.391 . S
C706 C707 1.400 . S
C707 C706 1.400 . S
C707 C708 1.398 . S
C707 C713 1.491 . S
C708 H699 0.950 . S
C708 C707 1.398 . S
C708 C709 1.391 . S
C709 H697 0.950 . S
C709 C705 1.393 . S
C709 C708 1.391 . S
C710 H700 0.950 . S
C710 C711 1.386 . S
C710 C712 1.391 1_455 S
C711 C710 1.386 . S
C711 C715 1.393 1_455 S
C712 H701 0.959 . S
C712 C710 1.391 1_655 S
C712 C713 1.400 . S
C713 C707 1.491 . S
C713 C712 1.400 . S
C713 C714 1.398 . S
C714 H702 0.950 . S
C714 C713 1.398 . S
C714 C715 1.391 . S
C715 H703 0.950 . S
C715 C711 1.393 1_655 S
C715 C714 1.391 . S
H716 C724 0.950 . S
H717 C729 0.950 . S
H718 C726 0.950 . S
H719 C728 0.950 . S
H720 C730 0.950 . S
H721 C732 0.950 . S
H722 C734 0.950 . S
H723 C735 0.950 . S
C724 H716 0.950 . S
C724 C725 1.386 . S
C724 C726 1.391 . S
C725 C724 1.386 . S
C725 C729 1.393 . S
C726 H718 0.950 . S
C726 C724 1.391 . S
C726 C727 1.400 . S
C727 C726 1.400 . S
C727 C728 1.398 . S
C727 C733 1.491 . S
C728 H719 0.950 . S
C728 C727 1.398 . S
C728 C729 1.391 . S
C729 H717 0.950 . S
C729 C725 1.393 . S
C729 C728 1.391 . S
C730 H720 0.950 . S
C730 C731 1.386 . S
C730 C732 1.391 . S
C731 C730 1.386 . S
C731 C735 1.393 . S
C732 H721 0.950 . S
C732 C730 1.391 . S
C732 C733 1.400 . S
C733 C727 1.491 . S
C733 C732 1.400 . S
C733 C734 1.398 . S
C734 H722 0.950 . S
C734 C733 1.398 . S
C734 C735 1.391 . S
C735 H723 0.950 . S
C735 C731 1.393 . S
C735 C734 1.391 . S
H736 C744 0.950 . S
H737 C749 0.950 . S
H738 C746 0.950 . S
H739 C748 0.950 . S
H740 C750 0.950 . S
H741 C752 0.950 . S
H742 C754 0.950 . S
H743 C755 0.950 . S
C744 H736 0.950 . S
C744 C745 1.386 . S
C744 C746 1.391 . S
C745 C744 1.386 . S
C745 C749 1.393 . S
C746 H738 0.950 . S
C746 C744 1.391 . S
C746 C747 1.400 . S
C747 C746 1.400 . S
C747 C748 1.398 . S
C747 C753 1.491 . S
C748 H739 0.950 . S
C748 C747 1.398 . S
C748 C749 1.391 . S
C749 H737 0.950 . S
C749 C745 1.393 . S
C749 C748 1.391 . S
C750 H740 0.950 . S
C750 C751 1.386 . S
C750 C752 1.391 . S
C751 C750 1.386 . S
C751 C755 1.393 . S
C752 H741 0.950 . S
C752 C750 1.391 . S
C752 C753 1.400 . S
C753 C747 1.491 . S
C753 C752 1.400 . S
C753 C754 1.398 . S
C754 H742 0.950 . S
C754 C753 1.398 . S
C754 C755 1.391 . S
C755 H743 0.950 . S
C755 C751 1.393 . S
C755 C754 1.391 . S
H756 C764 0.950 . S
H757 C769 0.950 . S
H758 C766 0.950 . S
H759 C768 0.950 . S
H760 C770 0.950 . S
H761 C772 0.950 . S
H762 C774 0.950 . S
H763 C775 0.950 . S
C764 H756 0.950 . S
C764 C765 1.386 . S
C764 C766 1.391 . S
C765 C764 1.386 . S
C765 C769 1.393 . S
C766 H758 0.950 . S
C766 C764 1.391 . S
C766 C767 1.400 . S
C767 C766 1.400 . S
C767 C768 1.398 . S
C767 C773 1.491 . S
C768 H759 0.950 . S
C768 C767 1.398 . S
C768 C769 1.391 . S
C769 H757 0.950 . S
C769 C765 1.393 . S
C769 C768 1.391 . S
C770 H760 0.950 . S
C770 C771 1.386 . S
C770 C772 1.391 . S
C771 C770 1.386 . S
C771 C775 1.393 . S
C772 H761 0.950 . S
C772 C770 1.391 . S
C772 C773 1.400 . S
C773 C767 1.491 . S
C773 C772 1.400 . S
C773 C774 1.398 . S
C774 H762 0.950 . S
C774 C773 1.398 . S
C774 C775 1.391 . S
C775 H763 0.950 . S
C775 C771 1.393 . S
C775 C774 1.391 . S
H776 C784 0.950 . S
H777 C789 0.950 . S
H778 C786 0.950 . S
H779 C788 0.950 . S
H780 C790 0.950 . S
H781 C792 0.950 . S
H782 C794 0.950 . S
H783 C795 0.950 . S
C784 H776 0.950 . S
C784 C785 1.386 . S
C784 C786 1.391 . S
C785 C784 1.386 . S
C785 C789 1.393 . S
C786 H778 0.950 . S
C786 C784 1.391 . S
C786 C787 1.400 . S
C787 C786 1.400 . S
C787 C788 1.398 . S
C787 C793 1.491 . S
C788 H779 0.950 . S
C788 C787 1.398 . S
C788 C789 1.391 . S
C789 H777 0.950 . S
C789 C785 1.393 . S
C789 C788 1.391 . S
C790 H780 0.950 . S
C790 C791 1.386 . S
C790 C792 1.391 . S
C791 C790 1.386 . S
C791 C795 1.393 . S
C792 H781 0.950 . S
C792 C790 1.391 . S
C792 C793 1.400 . S
C793 C787 1.491 . S
C793 C792 1.400 . S
C793 C794 1.398 . S
C794 H782 0.950 . S
C794 C793 1.398 . S
C794 C795 1.391 . S
C795 H783 0.950 . S
C795 C791 1.393 . S
C795 C794 1.391 . S
H796 C804 0.950 . S
H797 C809 0.950 . S
H798 C806 0.950 . S
H799 C808 0.950 . S
H800 C810 0.950 . S
H801 C812 0.950 . S
H802 C814 0.950 . S
H803 C815 0.950 . S
C804 H796 0.950 . S
C804 C805 1.386 . S
C804 C806 1.391 . S
C805 C804 1.386 . S
C805 C809 1.393 . S
C806 H798 0.950 . S
C806 C804 1.391 . S
C806 C807 1.400 . S
C807 C806 1.400 . S
C807 C808 1.398 . S
C807 C813 1.491 . S
C808 H799 0.950 . S
C808 C807 1.398 . S
C808 C809 1.391 . S
C809 H797 0.950 . S
C809 C805 1.393 . S
C809 C808 1.391 . S
C810 H800 0.950 . S
C810 C811 1.386 . S
C810 C812 1.391 . S
C811 C810 1.386 . S
C811 C815 1.393 . S
C812 H801 0.950 . S
C812 C810 1.391 . S
C812 C813 1.400 . S
C813 C807 1.491 . S
C813 C812 1.400 . S
C813 C814 1.398 . S
C814 H802 0.950 . S
C814 C813 1.398 . S
C814 C815 1.391 . S
C815 H803 0.950 . S
C815 C811 1.393 . S
C815 C814 1.391 . S
H816 C824 0.950 . S
H817 C829 0.950 . S
H818 C826 0.950 . S
H819 C828 0.950 . S
H820 C830 0.950 . S
H821 C832 0.950 . S
H822 C834 0.950 . S
H823 C835 0.950 . S
C824 H816 0.950 . S
C824 C825 1.386 . S
C824 C826 1.391 . S
C825 C824 1.386 . S
C825 C829 1.393 . S
C826 H818 0.950 . S
C826 C824 1.391 . S
C826 C827 1.400 . S
C827 C826 1.400 . S
C827 C828 1.398 . S
C827 C833 1.491 . S
C828 H819 0.950 . S
C828 C827 1.398 . S
C828 C829 1.391 . S
C829 H817 0.950 . S
C829 C825 1.393 . S
C829 C828 1.391 . S
C830 H820 0.950 . S
C830 C831 1.386 . S
C830 C832 1.391 . S
C831 C830 1.386 . S
C831 C835 1.393 . S
C832 H821 0.950 . S
C832 C830 1.391 . S
C832 C833 1.400 . S
C833 C827 1.491 . S
C833 C832 1.400 . S
C833 C834 1.398 . S
C834 H822 0.950 . S
C834 C833 1.398 . S
C834 C835 1.391 . S
C835 H823 0.950 . S
C835 C831 1.393 . S
C835 C834 1.391 . S
H836 C844 0.950 . S
H837 C849 0.950 . S
H838 C846 0.950 . S
H839 C848 0.950 . S
H840 C850 0.950 . S
H841 C852 0.950 . S
H842 C854 0.950 . S
H843 C855 0.950 . S
C844 H836 0.950 . S
C844 C845 1.386 . S
C844 C846 1.391 . S
C845 C844 1.386 . S
C845 C849 1.393 . S
C846 H838 0.950 . S
C846 C844 1.391 . S
C846 C847 1.400 . S
C847 C846 1.400 . S
C847 C848 1.398 . S
C847 C853 1.491 . S
C848 H839 0.950 . S
C848 C847 1.398 . S
C848 C849 1.391 . S
C849 H837 0.950 . S
C849 C845 1.393 . S
C849 C848 1.391 . S
C850 H840 0.950 . S
C850 C851 1.386 . S
C850 C852 1.391 . S
C851 C850 1.386 . S
C851 C855 1.393 . S
C852 H841 0.950 . S
C852 C850 1.391 . S
C852 C853 1.400 . S
C853 C847 1.491 . S
C853 C852 1.400 . S
C853 C854 1.398 . S
C854 H842 0.950 . S
C854 C853 1.398 . S
C854 C855 1.391 . S
C855 H843 0.950 . S
C855 C851 1.393 . S
C855 C854 1.391 . S
H856 C864 0.950 . S
H857 C869 0.950 . S
H858 C866 0.950 . S
H859 C868 0.950 . S
H860 C870 0.950 . S
H861 C872 0.950 . S
H862 C874 0.950 . S
H863 C875 0.950 . S
C864 H856 0.950 . S
C864 C865 1.386 . S
C864 C866 1.391 . S
C865 C864 1.386 . S
C865 C869 1.393 . S
C866 H858 0.950 . S
C866 C864 1.391 . S
C866 C867 1.400 1_554 S
C867 C866 1.400 1_556 S
C867 C868 1.398 . S
C867 C873 1.491 . S
C868 H859 0.950 . S
C868 C867 1.398 . S
C868 C869 1.391 1_556 S
C869 H857 0.950 . S
C869 C865 1.393 . S
C869 C868 1.391 1_554 S
C870 H860 0.950 . S
C870 C871 1.386 . S
C870 C872 1.391 . S
C871 C870 1.386 . S
C871 C875 1.393 . S
C872 H861 0.950 . S
C872 C870 1.391 . S
C872 C873 1.400 . S
C873 C867 1.491 . S
C873 C872 1.400 . S
C873 C874 1.398 . S
C874 H862 0.950 . S
C874 C873 1.398 . S
C874 C875 1.391 . S
C875 H863 0.950 . S
C875 C871 1.393 . S
C875 C874 1.391 . S
C405 C7 0.760 . S
C411 C100 0.782 1_565 S
C425 C25 0.963 . S
C431 C139 1.016 . S
C445 C46 1.124 . S
C451 C178 1.073 . S
C471 C202 0.960 . S
C465 C70 0.924 . S
C491 C241 0.823 . S
C485 C28 0.786 . S
C505 C49 0.942 . S
C511 C280 0.925 . S
C525 C67 1.114 . S
C531 C334 1.066 . S
C545 C4 0.928 . S
C551 C358 0.997 . S
C565 C58 1.761 . S
C571 C373 1.886 . S
C591 C256 1.639 . S
C585 C66 1.566 . S
C611 C295 1.960 . S
C605 C3 1.978 . S
C625 C37 1.834 . S
C631 C319 1.893 . S
C651 C124 1.886 . S
C645 C79 1.742 . S
C665 C16 1.831 . S
C671 C163 1.886 . S
C691 C217 1.947 . S
C685 C24 1.967 . S
C711 C85 1.667 . S
C705 C45 1.585 . S
C731 C339 1.516 . S
C725 C19 1.263 . S
C751 C378 1.353 . S
C745 C41 1.259 . S
C765 C62 1.051 . S
C771 C261 1.132 . S
C791 C300 1.341 . S
C785 C82 1.154 . S
C811 C183 1.515 . S
C805 C40 1.269 . S
C825 C61 1.191 . S
C831 C222 1.353 . S
C851 C105 1.133 . S
C845 C83 1.062 . S
C871 C144 1.331 . S
C865 C20 1.275 . S
