# Generated by pormake.
# Topology tsx, (6,3)-cn, num edge types: 1
# Building blocks:
#     Node 0, Type 0, BuildingBlock: CIFDUS_clean_sbu_1, # of connection points: 6
#     Node 1, Type 0, BuildingBlock: CIFDUS_clean_sbu_1, # of connection points: 6
#     Node 2, Type 1, BuildingBlock: VETTIZ_charged_linker_0, # of connection points: 3
#     Node 3, Type 1, BuildingBlock: VETTIZ_charged_linker_0, # of connection points: 3
#     Node 4, Type 1, BuildingBlock: VETTIZ_charged_linker_0, # of connection points: 3
#     Node 5, Type 1, BuildingBlock: VETTIZ_charged_linker_0, # of connection points: 3
#     Edge 6, Type (0, 1), BuildingBlock: CIFDUS_clean_linker_0, # of connection points: 2
#     Edge 7, Type (0, 1), BuildingBlock: CIFDUS_clean_linker_0, # of connection points: 2
#     Edge 8, Type (0, 1), BuildingBlock: CIFDUS_clean_linker_0, # of connection points: 2
#     Edge 9, Type (0, 1), BuildingBlock: CIFDUS_clean_linker_0, # of connection points: 2
#     Edge 10, Type (0, 1), BuildingBlock: CIFDUS_clean_linker_0, # of connection points: 2
#     Edge 11, Type (0, 1), BuildingBlock: CIFDUS_clean_linker_0, # of connection points: 2
#     Edge 12, Type (0, 1), BuildingBlock: CIFDUS_clean_linker_0, # of connection points: 2
#     Edge 13, Type (0, 1), BuildingBlock: CIFDUS_clean_linker_0, # of connection points: 2
#     Edge 14, Type (0, 1), BuildingBlock: CIFDUS_clean_linker_0, # of connection points: 2
#     Edge 15, Type (0, 1), BuildingBlock: CIFDUS_clean_linker_0, # of connection points: 2
#     Edge 16, Type (0, 1), BuildingBlock: CIFDUS_clean_linker_0, # of connection points: 2
#     Edge 17, Type (0, 1), BuildingBlock: CIFDUS_clean_linker_0, # of connection points: 2
# Relax obj value: 0.132
# Max RMSD: 0.158
# Mean RMSD: 0.121
data_MOF--net-tsx--node1-CIFDUS_clean_sbu_1--node2-VETTIZ_charged_linker_0--edge1-CIFDUS_clean_linker_0
_symmetry_space_group_name_H-M    P1
_symmetry_Int_Tables_number       1
_symmetry_cell_setting            triclinic
loop_
_symmetry_equiv_pos_as_xyz
'x, y, z'
_cell_length_a     19.512986
_cell_length_b     23.761987
_cell_length_c     42.06485
_cell_angle_alpha  95.988622
_cell_angle_beta   91.879954
_cell_angle_gamma 91.243868
loop_
_atom_site_label
_atom_site_type_symbol
_atom_site_fract_x
_atom_site_fract_y
_atom_site_fract_z
_atom_type_partial_charge
O0 O 1.00592 0.11207 -0.00841 0.0
Mn1 Mn 0.06271 0.03628 -0.01505 0.0
O2 O 0.89915 0.08907 0.97397 0.0
Mn3 Mn 0.92856 0.02581 0.95036 0.0
O4 O 0.11933 0.96093 0.97641 0.0
O5 O 0.14835 0.08846 -0.00422 0.0
Mn6 Mn 0.20479 0.04531 0.01601 0.0
O7 O 0.05384 0.02441 0.03251 0.0
O8 O 0.22911 0.98405 -0.01125 0.0
O9 O 0.07656 0.0483 0.93773 0.0
O10 O 0.97261 0.03872 0.91383 0.0
O11 O 0.25265 0.11147 0.01551 0.0
O12 O 0.16217 0.02943 0.05288 0.0
C13 C 0.9209 0.94912 0.96845 0.0
C14 C 0.9425 0.12471 -0.01242 0.0
C15 C 0.18347 0.94942 0.97608 0.0
C16 C 0.19765 0.12706 0.00112 0.0
C17 C 0.09772 0.02228 0.0557 0.0
C18 C 0.0366 0.04852 0.91323 0.0
O19 O 0.97583 0.98263 0.97493 0.0
O20 O 0.87412 0.96455 0.94875 0.0
O21 O 0.50926 0.62027 0.48919 0.0
Mn22 Mn 0.56795 0.54701 0.48393 0.0
O23 O 0.43479 0.6051 0.44694 0.0
Mn24 Mn 0.45622 0.53028 0.4351 0.0
O25 O 0.62347 0.47131 0.47681 0.0
O26 O 0.6535 0.59452 0.499 0.0
Mn27 Mn 0.70262 0.55284 0.52348 0.0
O28 O 0.5472 0.53254 0.5306 0.0
O29 O 0.72864 0.48861 0.49881 0.0
O30 O 0.5954 0.56397 0.43811 0.0
O31 O 0.52077 0.51511 0.4051 0.0
O32 O 0.75209 0.61921 0.52335 0.0
O33 O 0.64943 0.53944 0.55761 0.0
C34 C 0.42364 0.46804 0.4629 0.0
C35 C 0.45951 0.63582 0.47147 0.0
C36 C 0.68556 0.45631 0.482 0.0
C37 C 0.70215 0.63295 0.50491 0.0
C38 C 0.58467 0.53088 0.55612 0.0
C39 C 0.57825 0.54005 0.41038 0.0
O40 O 0.47944 0.49926 0.47038 0.0
O41 O 0.39029 0.47718 0.43685 0.0
C42 C 0.16553 0.90369 0.44296 0.0
C43 C 0.20909 0.86184 0.42924 0.0
C44 C 0.19775 0.84037 0.39703 0.0
C45 C 0.10799 0.90722 0.39104 0.0
C46 C 0.11471 0.92558 0.42325 0.0
C47 C 0.06486 0.972 0.43239 0.0
H48 H 0.84984 0.1711 0.38295 0.0
C49 C 0.05711 0.94215 0.37613 0.0
C50 C 0.02917 0.97918 0.40024 0.0
H51 H 0.90161 0.14071 0.4797 0.0
H52 H 0.96724 0.05857 0.46047 0.0
H53 H 0.99996 0.1419 0.35515 0.0
H54 H 0.81048 0.04798 0.35813 0.0
H55 H 0.84983 0.01697 0.32387 0.0
H56 H 0.82644 0.09048 0.32626 0.0
H57 H 0.92181 0.15645 0.33411 0.0
H58 H 0.98162 0.10697 0.31682 0.0
C59 C 0.10705 0.02567 0.44511 0.0
C60 C 0.01468 0.9508 0.45656 0.0
C61 C 0.05935 0.94803 0.25648 0.0
C62 C 0.02484 0.98162 0.23604 0.0
C63 C 0.97025 0.01486 0.24733 0.0
C64 C 0.95357 0.01781 0.27946 0.0
C65 C 0.99257 0.9878 0.30037 0.0
C66 C 0.04213 0.95156 0.28852 0.0
C67 C 0.07633 0.92127 0.314 0.0
C68 C 0.04166 0.948 0.34352 0.0
C69 C 0.99406 0.98789 0.33532 0.0
C70 C 0.15417 0.93633 0.31456 0.0
C71 C 0.05863 0.85705 0.30693 0.0
C72 C 0.87396 0.14613 0.40011 0.0
C73 C 0.87266 0.16339 0.43299 0.0
C74 C 0.90474 0.12948 0.45439 0.0
C75 C 0.94158 0.08159 0.44333 0.0
C76 C 0.94532 0.06644 0.41045 0.0
C77 C 0.91023 0.09767 0.38949 0.0
C78 C 0.91949 0.07532 0.35534 0.0
C79 C 0.96466 0.02497 0.35936 0.0
C80 C 0.98131 0.02044 0.39172 0.0
C81 C 0.95732 0.12234 0.33921 0.0
C82 C 0.84808 0.05698 0.33988 0.0
H83 H 0.14233 0.84487 0.35357 0.0
H84 H 0.17251 0.9202 0.46786 0.0
H85 H 0.96304 0.96845 0.45424 0.0
H86 H 0.03491 0.96066 0.48155 0.0
H87 H 1.0061 0.90415 0.45224 0.0
H88 H 0.0761 0.06394 0.44612 0.0
H89 H 0.14951 0.03313 0.42891 0.0
H90 H 0.13028 0.0213 0.46913 0.0
H91 H 0.10042 0.92116 0.24788 0.0
H92 H 0.94286 0.04078 0.23168 0.0
H93 H 0.91313 0.04533 0.287 0.0
H94 H 0.16259 0.98276 0.31437 0.0
H95 H 0.17867 0.91483 0.29328 0.0
H96 H 0.18249 0.92499 0.33591 0.0
H97 H 0.01456 0.84851 0.2895 0.0
H98 H 0.04246 0.83825 0.32864 0.0
H99 H 0.10276 0.83343 0.29678 0.0
H100 H 0.22974 0.80737 0.38625 0.0
C101 C 0.14711 0.86229 0.37805 0.0
C102 C 0.13008 0.21835 0.53421 0.0
C103 C 0.18456 0.25406 0.54816 0.0
C104 C 0.20264 0.25144 0.58066 0.0
C105 C 0.11607 0.17785 0.58421 0.0
C106 C 0.09639 0.18096 0.55277 0.0
C107 C 0.03909 0.13859 0.54198 0.0
H108 H 0.84528 0.90992 0.57752 0.0
C109 C 0.07496 0.13212 0.59611 0.0
C110 C 0.03115 0.10687 0.5712 0.0
H111 H 0.84187 0.98095 0.48722 0.0
H112 H 0.92331 0.05606 0.50995 0.0
H113 H 1.00679 0.91955 0.59254 0.0
H114 H 0.83579 0.02286 0.618 0.0
H115 H 0.89346 0.03554 0.65086 0.0
H116 H 0.85867 0.96489 0.63987 0.0
H117 H 0.94291 0.90164 0.6198 0.0
H118 H 0.01858 0.94328 0.63341 0.0
C119 C 0.0627 0.1004 0.51293 0.0
C120 C 0.97398 0.17154 0.53561 0.0
C121 C 0.09366 0.10799 0.71355 0.0
C122 C 0.05893 0.07215 0.7321 0.0
C123 C 0.01653 0.02761 0.71758 0.0
C124 C 1.0062 0.02041 0.68442 0.0
C125 C 0.03816 0.05865 0.66596 0.0
C126 C 0.08241 0.10053 0.6805 0.0
C127 C 0.11102 0.13766 0.6573 0.0
C128 C 0.07392 0.11287 0.62667 0.0
C129 C 0.03132 0.06691 0.63188 0.0
C130 C 0.18968 0.1291 0.65641 0.0
C131 C 0.08961 0.19931 0.66746 0.0
C132 C 0.86282 0.9409 0.56223 0.0
C133 C 0.83759 0.93914 0.53056 0.0
C134 C 0.86138 0.9808 0.51161 0.0
C135 C 0.90927 0.02363 0.52452 0.0
C136 C 0.93564 0.0234 0.5561 0.0
C137 C 0.91107 0.98265 0.57433 0.0
C138 C 0.93953 0.98998 0.60797 0.0
C139 C 0.98792 0.04028 0.60688 0.0
C140 C 0.98647 0.06028 0.57655 0.0
C141 C 0.97873 0.93583 0.61407 0.0
C142 C 0.87916 0.00367 0.63052 0.0
H143 H 0.18622 0.2138 0.62302 0.0
H144 H 0.11475 0.21856 0.50926 0.0
H145 H 0.92774 0.14361 0.53282 0.0
H146 H 0.97955 0.19428 0.5141 0.0
H147 H 0.96492 0.20372 0.55612 0.0
H148 H 0.11716 0.08889 0.51648 0.0
H149 H 0.05852 0.12298 0.49118 0.0
H150 H 0.03358 0.05998 0.509 0.0
H151 H 0.12603 0.14268 0.72466 0.0
H152 H 0.98927 0.99997 0.73206 0.0
H153 H 0.97205 0.98657 0.67466 0.0
H154 H 0.20451 0.08824 0.66508 0.0
H155 H 0.21828 0.16335 0.67167 0.0
H156 H 0.20872 0.12683 0.63179 0.0
H157 H 0.03587 0.20008 0.67555 0.0
H158 H 0.09022 0.22658 0.64779 0.0
H159 H 0.12316 0.21932 0.68753 0.0
H160 H 0.24231 0.2793 0.59259 0.0
C161 C 0.16933 0.21344 0.59854 0.0
C162 C 0.66134 0.39941 0.94603 0.0
C163 C 0.71268 0.36284 0.93412 0.0
C164 C 0.72398 0.35735 0.90103 0.0
C165 C 0.63141 0.42122 0.89211 0.0
C166 C 0.6223 0.42889 0.92469 0.0
C167 C 0.56774 0.47147 0.93321 0.0
H168 H 0.33911 0.65918 0.88184 0.0
C169 C 0.58003 0.45517 0.87635 0.0
C170 C 0.5423 0.48506 0.90033 0.0
H171 H 0.38356 0.62715 0.97926 0.0
H172 H 0.4605 0.55166 0.96022 0.0
H173 H 0.49223 0.6442 0.85286 0.0
H174 H 0.31443 0.53781 0.85909 0.0
H175 H 0.35811 0.50331 0.82713 0.0
H176 H 0.32684 0.5739 0.82444 0.0
H177 H 0.40968 0.65203 0.83381 0.0
H178 H 0.47255 0.60749 0.81484 0.0
C179 C 0.60362 0.52326 0.95241 0.0
C180 C 0.51112 0.44326 0.95141 0.0
C181 C 0.56339 0.44876 0.75461 0.0
C182 C 0.51662 0.47281 0.73385 0.0
C183 C 0.46042 0.5021 0.74703 0.0
C184 C 0.45404 0.51167 0.77997 0.0
C185 C 0.50285 0.49029 0.80034 0.0
C186 C 0.55462 0.45723 0.78775 0.0
C187 C 0.5973 0.43363 0.81358 0.0
C188 C 0.56367 0.46 0.84357 0.0
C189 C 0.50954 0.49409 0.83537 0.0
C190 C 0.67249 0.45493 0.81162 0.0
C191 C 0.58763 0.3684 0.80916 0.0
C192 C 0.3665 0.63712 0.89939 0.0
C193 C 0.3578 0.65137 0.93222 0.0
C194 C 0.39121 0.61858 0.95394 0.0
C195 C 0.43586 0.57523 0.94311 0.0
C196 C 0.44647 0.56366 0.91035 0.0
C197 C 0.41014 0.59333 0.88914 0.0
C198 C 0.42109 0.57161 0.8551 0.0
C199 C 0.47418 0.52688 0.85928 0.0
C200 C 0.48969 0.52226 0.8917 0.0
C201 C 0.45016 0.62122 0.838 0.0
C202 C 0.35177 0.54555 0.84049 0.0
H203 H 0.69426 0.37926 0.85508 0.0
H204 H 0.65182 0.40485 0.97138 0.0
H205 H 0.46032 0.4608 0.9467 0.0
H206 H 0.52293 0.44789 0.97758 0.0
H207 H 0.50536 0.39726 0.9433 0.0
H208 H 0.56931 0.55891 0.95774 0.0
H209 H 0.64642 0.53945 0.93878 0.0
H210 H 0.62584 0.51112 0.97526 0.0
H211 H 0.60681 0.42531 0.74555 0.0
H212 H 0.42146 0.51871 0.73192 0.0
H213 H 0.4118 0.53637 0.78814 0.0
H214 H 0.67457 0.49823 0.8038 0.0
H215 H 0.70098 0.42673 0.79423 0.0
H216 H 0.70052 0.45892 0.83503 0.0
H217 H 0.53317 0.35614 0.80274 0.0
H218 H 0.59953 0.3484 0.83112 0.0
H219 H 0.61954 0.34929 0.78967 0.0
H220 H 0.76274 0.32921 0.89122 0.0
C221 C 0.68357 0.386 0.88002 0.0
C222 C 0.6523 0.70892 0.04645 0.0
C223 C 0.68556 0.75742 0.06381 0.0
C224 C 0.65927 0.77625 0.09406 0.0
C225 C 0.58802 0.69209 0.09294 0.0
C226 C 0.60178 0.67806 0.06138 0.0
C227 C 0.55293 0.63062 0.04691 0.0
H228 H 0.33357 0.41305 0.07535 0.0
C229 C 0.54076 0.64972 0.10337 0.0
C230 C 0.5156 0.6149 0.07639 0.0
H231 H 0.37568 0.46964 -0.01637 0.0
H232 H 0.44726 0.54833 0.0106 0.0
H233 H 0.46956 0.42014 0.10189 0.0
H234 H 0.31282 0.54138 0.1138 0.0
H235 H 0.35319 0.53701 0.15163 0.0
H236 H 0.31494 0.47418 0.12977 0.0
H237 H 0.4183 0.42387 0.1364 0.0
H238 H 0.49901 0.46248 0.13647 0.0
C239 C 0.59478 0.58098 0.03222 0.0
C240 C 0.50335 0.6545 0.02252 0.0
C241 C 0.58071 0.60167 0.21636 0.0
C242 C 0.55707 0.5563 0.2322 0.0
C243 C 0.50242 0.52144 0.21824 0.0
C244 C 0.47467 0.52949 0.18809 0.0
C245 C 0.50233 0.57234 0.17149 0.0
C246 C 0.55273 0.6089 0.18603 0.0
C247 C 0.5748 0.65282 0.16497 0.0
C248 C 0.53282 0.63313 0.13437 0.0
C249 C 0.49139 0.58563 0.13838 0.0
C250 C 0.65295 0.64831 0.16034 0.0
C251 C 0.55441 0.71208 0.18038 0.0
C252 C 0.35646 0.44292 0.06078 0.0
C253 C 0.34931 0.43453 0.02724 0.0
C254 C 0.38166 0.47424 0.00941 0.0
C255 C 0.42245 0.5197 0.02469 0.0
C256 C 0.43105 0.52592 0.05801 0.0
C257 C 0.39721 0.48846 0.07549 0.0
C258 C 0.41307 0.50072 0.11068 0.0
C259 C 0.45879 0.55361 0.1115 0.0
C260 C 0.47049 0.56799 0.08052 0.0
C261 C 0.45162 0.44938 0.12215 0.0
C262 C 0.34506 0.51373 0.12761 0.0
H263 H 0.59181 0.76037 0.13109 0.0
H264 H 0.66481 0.69474 0.02217 0.0
H265 H 0.44999 0.63944 0.02515 0.0
H266 H 0.51896 0.64303 -0.00243 0.0
H267 H 0.50132 0.70146 0.02634 0.0
H268 H 0.63012 0.56583 0.0506 0.0
H269 H 0.62619 0.59457 0.01273 0.0
H270 H 0.56123 0.54481 0.02237 0.0
H271 H 0.62154 0.62984 0.22692 0.0
H272 H 0.48124 0.48764 0.23061 0.0
H273 H 0.43371 0.50133 0.17859 0.0
H274 H 0.66556 0.60524 0.14949 0.0
H275 H 0.68196 0.65686 0.18356 0.0
H276 H 0.67268 0.67922 0.14486 0.0
H277 H 0.53618 0.71115 0.2051 0.0
H278 H 0.51209 0.72964 0.16642 0.0
H279 H 0.59866 0.74259 0.18243 0.0
H280 H 0.67491 0.81637 0.10695 0.0
C281 C 0.611 0.74394 0.1085 0.0
H282 H 0.28173 0.18552 0.96656 0.0
H283 H 0.11001 0.20493 0.028 0.0
H284 H 0.13853 0.30622 0.03988 0.0
H285 H 0.2258 0.38462 0.04045 0.0
H286 H 0.39734 0.36336 0.97855 0.0
H287 H 0.35537 0.26815 0.95901 0.0
C288 C 0.24853 0.21256 -0.01871 0.0
C289 C 0.19332 0.18776 -0.00392 0.0
C290 C 0.26667 0.27033 -0.0113 0.0
C291 C 0.15175 0.22305 0.01573 0.0
C292 C 0.16906 0.28085 0.02304 0.0
C293 C 0.2532 0.35951 0.02221 0.0
C294 C 0.31531 0.3812 0.0113 0.0
C295 C 0.22853 0.30429 0.01094 0.0
C296 C 0.34954 0.34818 -0.01264 0.0
C297 C 0.32569 0.29341 0.97627 0.0
H298 H 0.1679 0.84391 -0.00431 0.0
H299 H 0.2584 0.93487 0.92356 0.0
H300 H 0.31926 0.85045 0.90324 0.0
H301 H 0.35346 0.75338 0.90838 0.0
H302 H 0.26682 0.66141 -0.01876 0.0
H303 H 0.19889 0.74351 -0.00077 0.0
C304 C 0.19946 0.84447 0.97498 0.0
C305 C 0.2075 0.89502 0.96058 0.0
C306 C 0.23618 0.79597 0.96403 0.0
C307 C 0.25041 0.89604 0.9345 0.0
C308 C 0.28571 0.84796 0.92311 0.0
C309 C 0.31893 0.75077 0.92789 0.0
C310 C 0.31534 0.70093 0.94331 0.0
C311 C 0.28001 0.79804 0.93803 0.0
C312 C 0.27138 0.69923 0.96908 0.0
C313 C 0.23205 0.74612 0.97924 0.0
H314 H 0.91561 0.93468 0.03173 0.0
H315 H 0.88226 0.84803 0.93745 0.0
H316 H 0.80655 0.77865 0.95833 0.0
H317 H 0.73468 0.75326 0.00167 0.0
H318 H 0.77962 0.8332 0.09766 0.0
H319 H 0.8635 0.89471 0.07759 0.0
C320 C 0.89494 0.89888 0.01616 0.0
C321 C 0.90522 0.89652 -0.01681 0.0
C322 C 0.85005 0.85945 0.0283 0.0
C323 C 0.87593 0.85055 0.96306 0.0
C324 C 0.83145 0.81135 0.97491 0.0
C325 C 0.76284 0.78314 0.01866 0.0
C326 C 0.74521 0.78984 0.05119 0.0
C327 C 0.81533 0.81707 0.00731 0.0
C328 C 0.78594 0.82873 0.07214 0.0
C329 C 0.83612 0.86371 0.06081 0.0
H330 H 0.81958 0.16295 0.00677 0.0
H331 H 0.01251 0.21835 0.97222 0.0
H332 H 0.95861 0.3028 0.95506 0.0
H333 H 0.8515 0.35012 0.94036 0.0
H334 H 0.65883 0.2932 0.97466 0.0
H335 H 0.71736 0.22024 0.00133 0.0
C336 C 0.85046 0.19477 -0.00329 0.0
C337 C 0.9199 0.18417 -0.00938 0.0
C338 C 0.8185 0.24212 -0.01408 0.0
C339 C 0.95926 0.22564 0.97749 0.0
C340 C 0.928 0.27346 0.96709 0.0
C341 C 0.82271 0.32246 0.95428 0.0
C342 C 0.75074 0.32662 0.95522 0.0
C343 C 0.8569 0.28045 0.96962 0.0
C344 C 0.71412 0.29095 0.97359 0.0
C345 C 0.74759 0.24904 -0.01126 0.0
H346 H 0.64133 0.72854 0.5291 0.0
H347 H 0.7778 0.66343 0.4567 0.0
H348 H 0.82644 0.75844 0.45384 0.0
H349 H 0.84765 0.85547 0.48096 0.0
H350 H 0.71414 0.91866 0.55533 0.0
H351 H 0.6464 0.83035 0.54811 0.0
C352 C 0.679 0.73581 0.51147 0.0
C353 C 0.70512 0.68913 0.49277 0.0
C354 C 0.70884 0.79042 0.51102 0.0
C355 C 0.75575 0.69885 0.47082 0.0
C356 C 0.7845 0.75316 0.46961 0.0
C357 C 0.80215 0.85061 0.49465 0.0
C358 C 0.78632 0.89345 0.51884 0.0
C359 C 0.76416 0.79874 0.49091 0.0
C360 C 0.72758 0.88623 0.53667 0.0
C361 C 0.68899 0.83552 0.53268 0.0
H362 H 0.80722 0.40871 0.49481 0.0
H363 H 0.6163 0.37429 0.44081 0.0
H364 H 0.65662 0.28049 0.42076 0.0
H365 H 0.74746 0.20792 0.4186 0.0
H366 H 0.9368 0.24545 0.47319 0.0
H367 H 0.8955 0.33803 0.49312 0.0
C368 C 0.77407 0.381 0.4786 0.0
C369 C 0.7087 0.39904 0.4693 0.0
C370 C 0.7973 0.32726 0.4674 0.0
C371 C 0.66683 0.36184 0.4484 0.0
C372 C 0.68992 0.30811 0.43691 0.0
C373 C 0.77938 0.23646 0.43491 0.0
C374 C 0.84471 0.21925 0.44494 0.0
C375 C 0.7552 0.2903 0.44624 0.0
C376 C 0.88566 0.25681 0.46593 0.0
C377 C 0.86232 0.31008 0.47706 0.0
H378 H 0.29252 0.43208 0.45934 0.0
H379 H 0.482 0.41519 0.51295 0.0
H380 H 0.42478 0.34598 0.54371 0.0
H381 H 0.32102 0.28863 0.55362 0.0
H382 H 0.13179 0.31272 0.50077 0.0
H383 H 0.19023 0.37972 0.47053 0.0
C384 C 0.32195 0.41333 0.47767 0.0
C385 C 0.39188 0.42839 0.48357 0.0
C386 C 0.28889 0.37432 0.49503 0.0
C387 C 0.42828 0.40429 0.50788 0.0
C388 C 0.39553 0.36461 0.52531 0.0
C389 C 0.29211 0.30896 0.5358 0.0
C390 C 0.22162 0.29479 0.5295 0.0
C391 C 0.32581 0.34907 0.5189 0.0
C392 C 0.186 0.32124 0.5058 0.0
C393 C 0.21928 0.36022 0.48867 0.0
H394 H 0.48056 0.73918 0.45156 0.0
H395 H 0.34989 0.64528 0.50857 0.0
H396 H 0.26049 0.7153 0.50549 0.0
H397 H 0.21132 0.79159 0.4766 0.0
H398 H 0.34178 0.88348 0.41835 0.0
H399 H 0.43964 0.82746 0.4324 0.0
C400 C 0.43389 0.73584 0.46465 0.0
C401 C 0.42201 0.68779 0.48064 0.0
C402 C 0.38199 0.77555 0.46197 0.0
C403 C 0.36057 0.68272 0.49672 0.0
C404 C 0.30901 0.72232 0.49453 0.0
C405 C 0.26189 0.8008 0.46819 0.0
C406 C 0.26957 0.84145 0.4465 0.0
C407 C 0.31779 0.76734 0.47582 0.0
C408 C 0.335 0.85248 0.43522 0.0
C409 C 0.39081 0.82011 0.44302 0.0
H410 H 0.17265 0.02664 0.11117 0.0
H411 H 0.96737 0.99401 0.07109 0.0
H412 H 0.92767 0.97348 0.12306 0.0
H413 H 0.95059 0.96902 0.18046 0.0
H414 H 0.15461 0.00645 0.22069 0.0
H415 H 0.19572 0.02165 0.16794 0.0
C416 C 0.11923 0.01485 0.11368 0.0
C417 C 0.07316 0.01098 0.08715 0.0
C418 C 0.0966 0.00446 0.14368 0.0
C419 C 1.00403 0.9963 0.09099 0.0
C420 C 0.98122 0.98492 0.12074 0.0
C421 C 1.00404 0.98015 0.17744 0.0
C422 C 0.0498 0.98628 0.20396 0.0
C423 C 0.02697 0.98932 0.14726 0.0
C424 C 0.119 1.00066 0.20022 0.0
C425 C 0.14232 0.0097 0.17024 0.0
H426 H 0.9807 0.11546 0.87351 0.0
H427 H 0.15382 0.00942 0.88604 0.0
H428 H 0.18335 0.01427 0.83006 0.0
H429 H 0.14643 0.03551 0.77579 0.0
H430 H 0.96993 0.13822 0.76414 0.0
H431 H 0.95475 0.14854 0.82189 0.0
C432 C 0.0256 0.09433 0.864 0.0
C433 C 0.06424 0.06107 0.88301 0.0
C434 C 0.04086 0.09635 0.83211 0.0
C435 C 0.1233 0.03483 0.87128 0.0
C436 C 0.13973 0.03728 0.83939 0.0
C437 C 0.10586 0.06104 0.78628 0.0
C438 C 0.05871 0.08565 0.76653 0.0
C439 C 0.09692 0.0658 0.81928 0.0
C440 C 1.00615 0.11891 0.77953 0.0
C441 C 0.99751 0.12466 0.8123 0.0
H442 H 0.59919 0.44084 0.58911 0.0
H443 H 0.50271 0.60231 0.59007 0.0
H444 H 0.47237 0.5981 0.64581 0.0
H445 H 0.48549 0.5538 0.69496 0.0
H446 H 0.57317 0.38805 0.6938 0.0
H447 H 0.59694 0.38932 0.63722 0.0
C448 C 0.56979 0.47413 0.60144 0.0
C449 C 0.55249 0.52162 0.58595 0.0
C450 C 0.55273 0.47129 0.63334 0.0
C451 C 0.51525 0.5651 0.60173 0.0
C452 C 0.49875 0.56293 0.63357 0.0
C453 C 0.50767 0.51683 0.68236 0.0
C454 C 0.52745 0.47086 0.69892 0.0
C455 C 0.51885 0.51691 0.64976 0.0
C456 C 0.55856 0.42456 0.682 0.0
C457 C 0.57154 0.42496 0.64954 0.0
H458 H 0.61673 0.46566 0.36288 0.0
H459 H 0.61556 0.64383 0.39454 0.0
H460 H 0.62096 0.66618 0.33917 0.0
H461 H 0.59454 0.63338 0.28258 0.0
H462 H 0.59036 0.45432 0.25146 0.0
H463 H 0.61836 0.43366 0.30584 0.0
C464 C 0.62113 0.50933 0.35759 0.0
C465 C 0.61474 0.55309 0.38222 0.0
C466 C 0.62058 0.52148 0.32582 0.0
C467 C 0.6206 0.60962 0.37566 0.0
C468 C 0.62234 0.62229 0.344 0.0
C469 C 0.60191 0.58999 0.28752 0.0
C470 C 0.58799 0.54528 0.26339 0.0
C471 C 0.61734 0.57839 0.31891 0.0
C472 C 0.59826 0.48927 0.27001 0.0
C473 C 0.6148 0.47744 0.30099 0.0
loop_
_geom_bond_atom_site_label_1
_geom_bond_atom_site_label_2
_geom_bond_distance
_geom_bond_site_symmetry_2
_ccdc_geom_bond_type
O0 Mn1 2.163 1_655 S
O0 C14 1.244 1_554 S
Mn1 O0 2.163 1_455 S
Mn1 O4 2.160 1_544 S
Mn1 O5 2.222 . S
Mn1 O7 2.167 . S
Mn1 O9 2.156 1_554 S
Mn1 O19 2.221 1_444 S
O2 Mn3 2.087 . S
O2 C14 1.256 . S
Mn3 O2 2.087 . S
Mn3 O10 2.089 . S
Mn3 O19 2.290 1_545 S
Mn3 O20 2.251 1_545 S
O4 Mn1 2.160 1_566 S
O4 C15 1.239 1_556 S
O5 Mn1 2.222 . S
O5 Mn6 2.290 . S
O5 C16 1.278 . S
Mn6 O5 2.290 . S
Mn6 O8 2.089 1_545 S
Mn6 O11 2.251 . S
Mn6 O12 2.087 . S
O7 Mn1 2.167 . S
O7 C17 1.244 . S
O8 Mn6 2.089 1_565 S
O8 C15 1.256 . S
O9 Mn1 2.156 1_556 S
O9 C18 1.239 . S
O10 Mn3 2.089 . S
O10 C18 1.256 1_655 S
O11 Mn6 2.251 . S
O11 C16 1.241 . S
O12 Mn6 2.087 . S
O12 C17 1.256 . S
C13 O19 1.278 1_554 S
C13 O20 1.241 1_554 S
C14 O0 1.244 1_556 S
C14 O2 1.256 . S
C15 O4 1.239 1_554 S
C15 O8 1.256 . S
C16 O5 1.278 . S
C16 O11 1.241 . S
C17 O7 1.244 . S
C17 O12 1.256 . S
C18 O9 1.239 . S
C18 O10 1.256 1_455 S
O19 Mn1 2.221 1_666 S
O19 Mn3 2.290 1_565 S
O19 C13 1.278 1_556 S
O20 Mn3 2.251 1_565 S
O20 C13 1.241 1_556 S
O21 Mn22 2.163 . S
O21 C35 1.244 . S
Mn22 O21 2.163 . S
Mn22 O25 2.160 . S
Mn22 O26 2.221 . S
Mn22 O28 2.163 . S
Mn22 O30 2.160 . S
Mn22 O40 2.221 . S
O23 Mn24 2.087 . S
O23 C35 1.256 . S
Mn24 O23 2.087 . S
Mn24 O31 2.089 . S
Mn24 O40 2.290 . S
Mn24 O41 2.251 . S
O25 Mn22 2.160 . S
O25 C36 1.239 . S
O26 Mn22 2.221 . S
O26 Mn27 2.290 . S
O26 C37 1.278 . S
Mn27 O26 2.290 . S
Mn27 O29 2.089 . S
Mn27 O32 2.251 . S
Mn27 O33 2.087 . S
O28 Mn22 2.163 . S
O28 C38 1.244 . S
O29 Mn27 2.089 . S
O29 C36 1.256 . S
O30 Mn22 2.160 . S
O30 C39 1.239 . S
O31 Mn24 2.089 . S
O31 C39 1.256 . S
O32 Mn27 2.251 . S
O32 C37 1.241 . S
O33 Mn27 2.087 . S
O33 C38 1.256 . S
C34 O40 1.278 . S
C34 O41 1.241 . S
C35 O21 1.244 . S
C35 O23 1.256 . S
C36 O25 1.239 . S
C36 O29 1.256 . S
C37 O26 1.278 . S
C37 O32 1.241 . S
C38 O28 1.244 . S
C38 O33 1.256 . S
C39 O30 1.239 . S
C39 O31 1.256 . S
O40 Mn22 2.221 . S
O40 Mn24 2.290 . S
O40 C34 1.278 . S
O41 Mn24 2.251 . S
O41 C34 1.241 . S
C42 C43 1.391 . S
C42 C46 1.391 . S
C42 H84 0.948 . S
C43 C42 1.391 . S
C43 C44 1.391 . S
C44 C43 1.391 . S
C44 H100 0.947 . S
C44 C101 1.392 . S
C45 C46 1.391 . S
C45 C49 1.397 . S
C45 C101 1.419 . S
C46 C42 1.391 . S
C46 C45 1.391 . S
C46 C47 1.399 . S
C47 C46 1.399 . S
C47 C50 1.396 . S
C47 C59 1.453 1_565 S
C47 C60 1.684 . S
H48 C72 0.948 . S
C49 C45 1.397 . S
C49 C50 1.394 . S
C49 C68 1.723 . S
C50 C47 1.396 . S
C50 C49 1.394 . S
C50 C80 1.723 1_565 S
H51 C74 0.947 . S
H52 C75 0.948 . S
H53 C81 0.982 1_455 S
H54 C82 0.979 . S
H55 C82 0.980 . S
H56 C82 0.983 . S
H57 C81 0.979 . S
H58 C81 0.977 . S
C59 C47 1.453 1_545 S
C59 H88 0.982 . S
C59 H89 0.979 1_545 S
C59 H90 0.977 . S
C60 C47 1.684 . S
C60 H85 0.979 1_455 S
C60 H86 0.980 1_455 S
C60 H87 0.983 . S
C61 C62 1.391 . S
C61 C66 1.391 . S
C61 H91 0.948 . S
C62 C61 1.391 . S
C62 C63 1.391 1_465 S
C63 C62 1.391 1_645 S
C63 C64 1.392 . S
C63 H92 0.947 . S
C64 C63 1.392 . S
C64 C65 1.419 1_655 S
C64 H93 0.948 . S
C65 C64 1.419 1_455 S
C65 C66 1.391 1_545 S
C65 C69 1.397 . S
C66 C61 1.391 . S
C66 C65 1.391 1_565 S
C66 C67 1.399 . S
C67 C66 1.399 . S
C67 C68 1.396 . S
C67 C70 1.453 . S
C67 C71 1.684 . S
C68 C49 1.723 . S
C68 C67 1.396 . S
C68 C69 1.394 1_565 S
C69 C65 1.397 . S
C69 C68 1.394 1_545 S
C69 C79 1.723 1_455 S
C70 C67 1.453 . S
C70 H94 0.982 . S
C70 H95 0.979 . S
C70 H96 0.977 . S
C71 C67 1.684 . S
C71 H97 0.979 . S
C71 H98 0.980 . S
C71 H99 0.983 . S
C72 H48 0.948 . S
C72 C73 1.391 . S
C72 C77 1.391 . S
C73 C72 1.391 . S
C73 C74 1.391 . S
C74 H51 0.947 . S
C74 C73 1.391 . S
C74 C75 1.392 . S
C75 H52 0.948 . S
C75 C74 1.392 . S
C75 C76 1.419 . S
C76 C75 1.419 . S
C76 C77 1.391 . S
C76 C80 1.397 1_655 S
C77 C72 1.391 . S
C77 C76 1.391 . S
C77 C78 1.399 . S
C78 C77 1.399 . S
C78 C79 1.396 . S
C78 C81 1.453 . S
C78 C82 1.684 . S
C79 C69 1.723 1_655 S
C79 C78 1.396 . S
C79 C80 1.394 1_655 S
C80 C50 1.723 1_545 S
C80 C76 1.397 1_455 S
C80 C79 1.394 1_455 S
C81 H53 0.982 1_655 S
C81 H57 0.979 . S
C81 H58 0.977 . S
C81 C78 1.453 . S
C82 H54 0.979 . S
C82 H55 0.980 . S
C82 H56 0.983 . S
C82 C78 1.684 . S
H83 C101 0.948 . S
H84 C42 0.948 . S
H85 C60 0.979 1_655 S
H86 C60 0.980 1_655 S
H87 C60 0.983 . S
H88 C59 0.982 . S
H89 C59 0.979 1_565 S
H90 C59 0.977 . S
H91 C61 0.948 . S
H92 C63 0.947 . S
H93 C64 0.948 . S
H94 C70 0.982 . S
H95 C70 0.979 . S
H96 C70 0.977 . S
H97 C71 0.979 . S
H98 C71 0.980 . S
H99 C71 0.983 . S
H100 C44 0.947 . S
C101 C44 1.392 . S
C101 C45 1.419 . S
C101 H83 0.948 . S
C102 C103 1.391 . S
C102 C106 1.391 . S
C102 H144 0.948 . S
C103 C102 1.391 . S
C103 C104 1.391 . S
C104 C103 1.391 . S
C104 H160 0.947 . S
C104 C161 1.392 . S
C105 C106 1.391 . S
C105 C109 1.397 . S
C105 C161 1.419 . S
C106 C102 1.391 . S
C106 C105 1.391 . S
C106 C107 1.399 . S
C107 C106 1.399 . S
C107 C110 1.396 . S
C107 C119 1.453 . S
C107 C120 1.684 1_455 S
H108 C132 0.948 . S
C109 C105 1.397 . S
C109 C110 1.394 . S
C109 C128 1.723 . S
C110 C107 1.396 . S
C110 C109 1.394 . S
C110 C140 1.723 1_455 S
H111 C134 0.947 . S
H112 C135 0.948 . S
H113 C141 0.982 . S
H114 C142 0.979 1_545 S
H115 C142 0.979 1_545 S
H116 C142 0.983 . S
H117 C141 0.979 . S
H118 C141 0.977 . S
C119 C107 1.453 . S
C119 H148 0.982 . S
C119 H149 0.979 . S
C119 H150 0.977 . S
C120 C107 1.684 1_655 S
C120 H145 0.979 . S
C120 H146 0.980 . S
C120 H147 0.983 . S
C121 C122 1.391 1_455 S
C121 C126 1.391 . S
C121 H151 0.948 . S
C122 C121 1.391 1_655 S
C122 C123 1.391 . S
C123 C122 1.391 . S
C123 C124 1.392 . S
C123 H152 0.947 . S
C124 C123 1.392 . S
C124 C125 1.419 . S
C124 H153 0.948 . S
C125 C124 1.419 . S
C125 C126 1.391 1_655 S
C125 C129 1.397 . S
C126 C121 1.391 . S
C126 C125 1.391 1_455 S
C126 C127 1.399 . S
C127 C126 1.399 . S
C127 C128 1.396 . S
C127 C130 1.453 . S
C127 C131 1.684 . S
C128 C109 1.723 . S
C128 C127 1.396 . S
C128 C129 1.394 1_455 S
C129 C125 1.397 . S
C129 C128 1.394 1_655 S
C129 C139 1.723 . S
C130 C127 1.453 . S
C130 H154 0.982 . S
C130 H155 0.979 . S
C130 H156 0.977 . S
C131 C127 1.684 . S
C131 H157 0.979 . S
C131 H158 0.980 . S
C131 H159 0.983 . S
C132 H108 0.948 . S
C132 C133 1.391 . S
C132 C137 1.391 . S
C133 C132 1.391 . S
C133 C134 1.391 . S
C134 H111 0.947 . S
C134 C133 1.391 . S
C134 C135 1.392 1_565 S
C135 H112 0.948 . S
C135 C134 1.392 1_545 S
C135 C136 1.419 . S
C136 C135 1.419 . S
C136 C137 1.391 1_545 S
C136 C140 1.397 . S
C137 C132 1.391 . S
C137 C136 1.391 1_565 S
C137 C138 1.399 . S
C138 C137 1.399 . S
C138 C139 1.396 1_565 S
C138 C141 1.453 . S
C138 C142 1.684 . S
C139 C129 1.723 . S
C139 C138 1.396 1_545 S
C139 C140 1.394 . S
C140 C110 1.723 1_655 S
C140 C136 1.397 . S
C140 C139 1.394 . S
C141 H113 0.982 . S
C141 H117 0.979 . S
C141 H118 0.977 . S
C141 C138 1.453 . S
C142 H114 0.979 1_565 S
C142 H115 0.979 1_565 S
C142 H116 0.983 . S
C142 C138 1.684 . S
H143 C161 0.948 . S
H144 C102 0.948 . S
H145 C120 0.979 . S
H146 C120 0.980 . S
H147 C120 0.983 . S
H148 C119 0.982 . S
H149 C119 0.979 . S
H150 C119 0.977 . S
H151 C121 0.948 . S
H152 C123 0.947 . S
H153 C124 0.948 . S
H154 C130 0.982 . S
H155 C130 0.979 . S
H156 C130 0.977 . S
H157 C131 0.979 . S
H158 C131 0.980 . S
H159 C131 0.983 . S
H160 C104 0.947 . S
C161 C104 1.392 . S
C161 C105 1.419 . S
C161 H143 0.948 . S
C162 C163 1.391 . S
C162 C166 1.391 . S
C162 H204 0.948 1_556 S
C163 C162 1.391 . S
C163 C164 1.391 . S
C164 C163 1.391 . S
C164 H220 0.947 . S
C164 C221 1.392 . S
C165 C166 1.391 . S
C165 C169 1.397 . S
C165 C221 1.419 . S
C166 C162 1.391 . S
C166 C165 1.391 . S
C166 C167 1.399 . S
C167 C166 1.399 . S
C167 C170 1.396 . S
C167 C179 1.453 1_556 S
C167 C180 1.684 1_556 S
H168 C192 0.948 . S
C169 C165 1.397 . S
C169 C170 1.394 . S
C169 C188 1.723 . S
C170 C167 1.396 . S
C170 C169 1.394 . S
C170 C200 1.723 . S
H171 C194 0.947 . S
H172 C195 0.948 1_554 S
H173 C201 0.982 . S
H174 C202 0.979 . S
H175 C202 0.980 . S
H176 C202 0.983 . S
H177 C201 0.979 . S
H178 C201 0.977 . S
C179 C167 1.453 1_554 S
C179 H208 0.982 1_554 S
C179 H209 0.979 . S
C179 H210 0.977 . S
C180 C167 1.684 1_554 S
C180 H205 0.977 1_554 S
C180 H206 0.980 . S
C180 H207 0.983 . S
C181 C182 1.391 . S
C181 C186 1.391 . S
C181 H211 0.948 . S
C182 C181 1.391 . S
C182 C183 1.391 . S
C183 C182 1.391 . S
C183 C184 1.392 . S
C183 H212 0.947 . S
C184 C183 1.392 . S
C184 C185 1.419 . S
C184 H213 0.948 . S
C185 C184 1.419 . S
C185 C186 1.391 . S
C185 C189 1.397 . S
C186 C181 1.391 . S
C186 C185 1.391 . S
C186 C187 1.399 . S
C187 C186 1.399 . S
C187 C188 1.396 . S
C187 C190 1.453 . S
C187 C191 1.684 . S
C188 C169 1.723 . S
C188 C187 1.396 . S
C188 C189 1.394 . S
C189 C185 1.397 . S
C189 C188 1.394 . S
C189 C199 1.723 . S
C190 C187 1.453 . S
C190 H214 0.982 . S
C190 H215 0.979 . S
C190 H216 0.977 . S
C191 C187 1.684 . S
C191 H217 0.979 . S
C191 H218 0.980 . S
C191 H219 0.983 . S
C192 H168 0.948 . S
C192 C193 1.391 . S
C192 C197 1.391 . S
C193 C192 1.391 . S
C193 C194 1.391 1_556 S
C194 H171 0.947 . S
C194 C193 1.391 1_554 S
C194 C195 1.392 1_554 S
C195 H172 0.948 1_556 S
C195 C194 1.392 1_556 S
C195 C196 1.419 . S
C196 C195 1.419 . S
C196 C197 1.391 . S
C196 C200 1.397 . S
C197 C192 1.391 . S
C197 C196 1.391 . S
C197 C198 1.399 . S
C198 C197 1.399 . S
C198 C199 1.396 . S
C198 C201 1.453 . S
C198 C202 1.684 . S
C199 C189 1.723 . S
C199 C198 1.396 . S
C199 C200 1.394 . S
C200 C170 1.723 . S
C200 C196 1.397 . S
C200 C199 1.394 . S
C201 H173 0.982 . S
C201 H177 0.979 . S
C201 H178 0.977 . S
C201 C198 1.453 . S
C202 H174 0.979 . S
C202 H175 0.980 . S
C202 H176 0.983 . S
C202 C198 1.684 . S
H203 C221 0.948 . S
H204 C162 0.948 1_554 S
H205 C180 0.977 1_556 S
H206 C180 0.980 . S
H207 C180 0.983 . S
H208 C179 0.982 1_556 S
H209 C179 0.979 . S
H210 C179 0.977 . S
H211 C181 0.948 . S
H212 C183 0.947 . S
H213 C184 0.948 . S
H214 C190 0.982 . S
H215 C190 0.979 . S
H216 C190 0.977 . S
H217 C191 0.979 . S
H218 C191 0.980 . S
H219 C191 0.983 . S
H220 C164 0.947 . S
C221 C164 1.392 . S
C221 C165 1.419 . S
C221 H203 0.948 . S
C222 C223 1.391 . S
C222 C226 1.391 . S
C222 H264 0.947 1_554 S
C223 C222 1.391 . S
C223 C224 1.391 . S
C224 C223 1.391 . S
C224 H280 0.947 . S
C224 C281 1.392 . S
C225 C226 1.391 . S
C225 C229 1.397 . S
C225 C281 1.419 . S
C226 C222 1.391 . S
C226 C225 1.391 . S
C226 C227 1.399 . S
C227 C226 1.399 . S
C227 C230 1.396 . S
C227 C239 1.453 . S
C227 C240 1.684 . S
H228 C252 0.948 . S
C229 C225 1.397 . S
C229 C230 1.394 . S
C229 C248 1.723 . S
C230 C227 1.396 . S
C230 C229 1.394 . S
C230 C260 1.723 . S
H231 C254 0.947 1_556 S
H232 C255 0.948 . S
H233 C261 0.982 . S
H234 C262 0.979 . S
H235 C262 0.980 . S
H236 C262 0.983 . S
H237 C261 0.979 . S
H238 C261 0.977 . S
C239 C227 1.453 . S
C239 H268 0.982 . S
C239 H269 0.979 1_554 S
C239 H270 0.977 . S
C240 C227 1.684 . S
C240 H265 0.979 . S
C240 H266 0.980 1_554 S
C240 H267 0.983 1_554 S
C241 C242 1.391 . S
C241 C246 1.391 . S
C241 H271 0.948 . S
C242 C241 1.391 . S
C242 C243 1.391 . S
C243 C242 1.391 . S
C243 C244 1.392 . S
C243 H272 0.947 . S
C244 C243 1.392 . S
C244 C245 1.419 . S
C244 H273 0.948 . S
C245 C244 1.419 . S
C245 C246 1.391 . S
C245 C249 1.397 . S
C246 C241 1.391 . S
C246 C245 1.391 . S
C246 C247 1.399 . S
C247 C246 1.399 . S
C247 C248 1.396 . S
C247 C250 1.453 . S
C247 C251 1.684 . S
C248 C229 1.723 . S
C248 C247 1.396 . S
C248 C249 1.394 . S
C249 C245 1.397 . S
C249 C248 1.394 . S
C249 C259 1.723 . S
C250 C247 1.453 . S
C250 H274 0.982 . S
C250 H275 0.979 . S
C250 H276 0.977 . S
C251 C247 1.684 . S
C251 H277 0.979 . S
C251 H278 0.980 . S
C251 H279 0.983 . S
C252 H228 0.948 . S
C252 C253 1.391 . S
C252 C257 1.391 . S
C253 C252 1.391 . S
C253 C254 1.391 . S
C254 H231 0.947 1_554 S
C254 C253 1.391 . S
C254 C255 1.392 . S
C255 H232 0.948 . S
C255 C254 1.392 . S
C255 C256 1.419 . S
C256 C255 1.419 . S
C256 C257 1.391 . S
C256 C260 1.397 . S
C257 C252 1.391 . S
C257 C256 1.391 . S
C257 C258 1.399 . S
C258 C257 1.399 . S
C258 C259 1.396 . S
C258 C261 1.453 . S
C258 C262 1.684 . S
C259 C249 1.723 . S
C259 C258 1.396 . S
C259 C260 1.394 . S
C260 C230 1.723 . S
C260 C256 1.397 . S
C260 C259 1.394 . S
C261 H233 0.982 . S
C261 H237 0.979 . S
C261 H238 0.977 . S
C261 C258 1.453 . S
C262 H234 0.979 . S
C262 H235 0.980 . S
C262 H236 0.983 . S
C262 C258 1.684 . S
H263 C281 0.948 . S
H264 C222 0.947 1_556 S
H265 C240 0.979 . S
H266 C240 0.980 1_556 S
H267 C240 0.983 1_556 S
H268 C239 0.982 . S
H269 C239 0.979 1_556 S
H270 C239 0.977 . S
H271 C241 0.948 . S
H272 C243 0.947 . S
H273 C244 0.948 . S
H274 C250 0.982 . S
H275 C250 0.979 . S
H276 C250 0.977 . S
H277 C251 0.979 . S
H278 C251 0.980 . S
H279 C251 0.983 . S
H280 C224 0.947 . S
C281 C224 1.392 . S
C281 C225 1.419 . S
C281 H263 0.948 . S
H282 C288 0.930 . S
H283 C291 0.930 . S
H284 C292 0.930 . S
H285 C293 0.930 . S
H286 C296 0.930 . S
H287 C297 0.930 . S
C288 H282 0.930 . S
C288 C289 1.355 . S
C288 C290 1.415 . S
C289 C288 1.355 . S
C289 C291 1.419 1_554 S
C290 C288 1.415 . S
C290 C295 1.425 . S
C290 C297 1.409 . S
C291 H283 0.930 . S
C291 C289 1.419 1_556 S
C291 C292 1.362 . S
C292 H284 0.930 . S
C292 C291 1.362 . S
C292 C295 1.409 1_556 S
C293 H285 0.930 . S
C293 C294 1.355 1_556 S
C293 C295 1.415 1_556 S
C294 C293 1.355 1_554 S
C294 C296 1.419 . S
C295 C290 1.425 . S
C295 C292 1.409 1_554 S
C295 C293 1.415 1_554 S
C296 H286 0.930 . S
C296 C294 1.419 . S
C296 C297 1.362 . S
C297 H287 0.930 . S
C297 C290 1.409 . S
C297 C296 1.362 . S
H298 C304 0.930 . S
H299 C307 0.930 . S
H300 C308 0.930 . S
H301 C309 0.930 . S
H302 C312 0.930 . S
H303 C313 0.930 . S
C304 H298 0.930 . S
C304 C305 1.355 . S
C304 C306 1.415 . S
C305 C304 1.355 . S
C305 C307 1.419 1_554 S
C306 C304 1.415 . S
C306 C311 1.425 1_554 S
C306 C313 1.409 . S
C307 H299 0.930 . S
C307 C305 1.419 1_556 S
C307 C308 1.362 . S
C308 H300 0.930 . S
C308 C307 1.362 . S
C308 C311 1.409 . S
C309 H301 0.930 . S
C309 C310 1.355 . S
C309 C311 1.415 . S
C310 C309 1.355 . S
C310 C312 1.419 1_556 S
C311 C306 1.425 1_556 S
C311 C308 1.409 . S
C311 C309 1.415 . S
C312 H302 0.930 . S
C312 C310 1.419 1_554 S
C312 C313 1.362 . S
C313 H303 0.930 . S
C313 C306 1.409 . S
C313 C312 1.362 . S
H314 C320 0.930 . S
H315 C323 0.930 . S
H316 C324 0.930 . S
H317 C325 0.930 1_556 S
H318 C328 0.930 . S
H319 C329 0.930 . S
C320 H314 0.930 . S
C320 C321 1.355 . S
C320 C322 1.415 . S
C321 C320 1.355 . S
C321 C323 1.419 1_554 S
C322 C320 1.415 . S
C322 C327 1.425 . S
C322 C329 1.409 . S
C323 H315 0.930 . S
C323 C321 1.419 1_556 S
C323 C324 1.362 . S
C324 H316 0.930 . S
C324 C323 1.362 . S
C324 C327 1.409 1_556 S
C325 H317 0.930 1_554 S
C325 C326 1.355 . S
C325 C327 1.415 . S
C326 C325 1.355 . S
C326 C328 1.419 . S
C327 C322 1.425 . S
C327 C324 1.409 1_554 S
C327 C325 1.415 . S
C328 H318 0.930 . S
C328 C326 1.419 . S
C328 C329 1.362 . S
C329 H319 0.930 . S
C329 C322 1.409 . S
C329 C328 1.362 . S
H330 C336 0.930 . S
H331 C339 0.930 . S
H332 C340 0.930 . S
H333 C341 0.930 . S
H334 C344 0.931 . S
H335 C345 0.930 . S
C336 H330 0.930 . S
C336 C337 1.355 1_554 S
C336 C338 1.415 1_554 S
C337 C336 1.355 1_556 S
C337 C339 1.419 . S
C338 C336 1.415 1_556 S
C338 C343 1.425 . S
C338 C345 1.409 1_556 S
C339 H331 0.930 . S
C339 C337 1.419 . S
C339 C340 1.362 . S
C340 H332 0.930 . S
C340 C339 1.362 . S
C340 C343 1.409 . S
C341 H333 0.930 . S
C341 C342 1.355 . S
C341 C343 1.415 . S
C342 C341 1.355 . S
C342 C344 1.417 1_556 S
C343 C338 1.425 . S
C343 C340 1.409 . S
C343 C341 1.415 . S
C344 H334 0.931 . S
C344 C342 1.417 1_554 S
C344 C345 1.364 . S
C345 H335 0.930 . S
C345 C338 1.409 1_554 S
C345 C344 1.364 . S
H346 C352 0.930 . S
H347 C355 0.930 . S
H348 C356 0.930 . S
H349 C357 0.930 . S
H350 C360 0.930 . S
H351 C361 0.930 . S
C352 H346 0.930 . S
C352 C353 1.355 . S
C352 C354 1.415 . S
C353 C352 1.355 . S
C353 C355 1.419 . S
C354 C352 1.415 . S
C354 C359 1.425 . S
C354 C361 1.409 . S
C355 H347 0.930 . S
C355 C353 1.419 . S
C355 C356 1.362 . S
C356 H348 0.930 . S
C356 C355 1.362 . S
C356 C359 1.409 . S
C357 H349 0.930 . S
C357 C358 1.355 . S
C357 C359 1.415 . S
C358 C357 1.355 . S
C358 C360 1.419 . S
C359 C354 1.425 . S
C359 C356 1.409 . S
C359 C357 1.415 . S
C360 H350 0.930 . S
C360 C358 1.419 . S
C360 C361 1.362 . S
C361 H351 0.930 . S
C361 C354 1.409 . S
C361 C360 1.362 . S
H362 C368 0.930 . S
H363 C371 0.930 . S
H364 C372 0.930 . S
H365 C373 0.930 . S
H366 C376 0.930 . S
H367 C377 0.930 . S
C368 H362 0.930 . S
C368 C369 1.355 . S
C368 C370 1.415 . S
C369 C368 1.355 . S
C369 C371 1.419 . S
C370 C368 1.415 . S
C370 C375 1.425 . S
C370 C377 1.409 . S
C371 H363 0.930 . S
C371 C369 1.419 . S
C371 C372 1.362 . S
C372 H364 0.930 . S
C372 C371 1.362 . S
C372 C375 1.409 . S
C373 H365 0.930 . S
C373 C374 1.355 . S
C373 C375 1.415 . S
C374 C373 1.355 . S
C374 C376 1.419 . S
C375 C370 1.425 . S
C375 C372 1.409 . S
C375 C373 1.415 . S
C376 H366 0.930 . S
C376 C374 1.419 . S
C376 C377 1.362 . S
C377 H367 0.930 . S
C377 C370 1.409 . S
C377 C376 1.362 . S
H378 C384 0.930 . S
H379 C387 0.930 . S
H380 C388 0.930 . S
H381 C389 0.930 . S
H382 C392 0.930 . S
H383 C393 0.930 . S
C384 H378 0.930 . S
C384 C385 1.355 . S
C384 C386 1.415 . S
C385 C384 1.355 . S
C385 C387 1.419 . S
C386 C384 1.415 . S
C386 C391 1.425 . S
C386 C393 1.409 . S
C387 H379 0.930 . S
C387 C385 1.419 . S
C387 C388 1.362 . S
C388 H380 0.930 . S
C388 C387 1.362 . S
C388 C391 1.409 . S
C389 H381 0.930 . S
C389 C390 1.355 . S
C389 C391 1.415 . S
C390 C389 1.355 . S
C390 C392 1.419 . S
C391 C386 1.425 . S
C391 C388 1.409 . S
C391 C389 1.415 . S
C392 H382 0.930 . S
C392 C390 1.419 . S
C392 C393 1.362 . S
C393 H383 0.930 . S
C393 C386 1.409 . S
C393 C392 1.362 . S
H394 C400 0.930 . S
H395 C403 0.930 . S
H396 C404 0.930 . S
H397 C405 0.930 . S
H398 C408 0.930 . S
H399 C409 0.930 . S
C400 H394 0.930 . S
C400 C401 1.355 . S
C400 C402 1.415 . S
C401 C400 1.355 . S
C401 C403 1.419 . S
C402 C400 1.415 . S
C402 C407 1.425 . S
C402 C409 1.409 . S
C403 H395 0.930 . S
C403 C401 1.419 . S
C403 C404 1.362 . S
C404 H396 0.930 . S
C404 C403 1.362 . S
C404 C407 1.409 . S
C405 H397 0.930 . S
C405 C406 1.355 . S
C405 C407 1.415 . S
C406 C405 1.355 . S
C406 C408 1.419 . S
C407 C402 1.425 . S
C407 C404 1.409 . S
C407 C405 1.415 . S
C408 H398 0.930 . S
C408 C406 1.419 . S
C408 C409 1.362 . S
C409 H399 0.930 . S
C409 C402 1.409 . S
C409 C408 1.362 . S
H410 C416 0.930 . S
H411 C419 0.930 . S
H412 C420 0.930 . S
H413 C421 0.930 . S
H414 C424 0.930 . S
H415 C425 0.930 . S
C416 H410 0.930 . S
C416 C417 1.355 . S
C416 C418 1.415 . S
C417 C416 1.355 . S
C417 C419 1.419 1_545 S
C418 C416 1.415 . S
C418 C423 1.425 1_545 S
C418 C425 1.409 . S
C419 H411 0.930 . S
C419 C417 1.419 1_565 S
C419 C420 1.362 . S
C420 H412 0.930 . S
C420 C419 1.362 . S
C420 C423 1.409 . S
C421 H413 0.930 . S
C421 C422 1.346 1_565 S
C421 C423 1.415 . S
C422 C421 1.346 1_545 S
C422 C424 1.434 . S
C423 C418 1.425 1_565 S
C423 C420 1.409 . S
C423 C421 1.415 . S
C424 H414 0.930 . S
C424 C422 1.434 . S
C424 C425 1.362 . S
C425 H415 0.930 . S
C425 C418 1.409 . S
C425 C424 1.362 . S
H426 C432 0.930 . S
H427 C435 0.930 . S
H428 C436 0.930 . S
H429 C437 0.930 . S
H430 C440 0.930 . S
H431 C441 0.930 . S
C432 H426 0.930 . S
C432 C433 1.355 1_655 S
C432 C434 1.415 . S
C433 C432 1.355 1_455 S
C433 C435 1.419 . S
C434 C432 1.415 . S
C434 C439 1.412 1_655 S
C434 C441 1.422 . S
C435 H427 0.930 . S
C435 C433 1.419 . S
C435 C436 1.362 . S
C436 H428 0.930 . S
C436 C435 1.362 . S
C436 C439 1.409 . S
C437 H429 0.930 . S
C437 C438 1.355 . S
C437 C439 1.415 . S
C438 C437 1.355 . S
C438 C440 1.419 1_455 S
C439 C434 1.412 1_455 S
C439 C436 1.409 . S
C439 C437 1.415 . S
C440 H430 0.930 . S
C440 C438 1.419 1_655 S
C440 C441 1.362 . S
C441 H431 0.930 . S
C441 C434 1.422 . S
C441 C440 1.362 . S
H442 C448 0.930 . S
H443 C451 0.930 . S
H444 C452 0.930 . S
H445 C453 0.930 . S
H446 C456 0.930 . S
H447 C457 0.930 . S
C448 H442 0.930 . S
C448 C449 1.355 . S
C448 C450 1.415 . S
C449 C448 1.355 . S
C449 C451 1.419 . S
C450 C448 1.415 . S
C450 C455 1.425 . S
C450 C457 1.409 . S
C451 H443 0.930 . S
C451 C449 1.419 . S
C451 C452 1.362 . S
C452 H444 0.930 . S
C452 C451 1.362 . S
C452 C455 1.409 . S
C453 H445 0.930 . S
C453 C454 1.355 . S
C453 C455 1.415 . S
C454 C453 1.355 . S
C454 C456 1.419 . S
C455 C450 1.425 . S
C455 C452 1.409 . S
C455 C453 1.415 . S
C456 H446 0.930 . S
C456 C454 1.419 . S
C456 C457 1.362 . S
C457 H447 0.930 . S
C457 C450 1.409 . S
C457 C456 1.362 . S
H458 C464 0.930 . S
H459 C467 0.930 . S
H460 C468 0.930 . S
H461 C469 0.930 . S
H462 C472 0.930 . S
H463 C473 0.930 . S
C464 H458 0.930 . S
C464 C465 1.355 . S
C464 C466 1.415 . S
C465 C464 1.355 . S
C465 C467 1.419 . S
C466 C464 1.415 . S
C466 C471 1.425 . S
C466 C473 1.409 . S
C467 H459 0.930 . S
C467 C465 1.419 . S
C467 C468 1.362 . S
C468 H460 0.930 . S
C468 C467 1.362 . S
C468 C471 1.409 . S
C469 H461 0.930 . S
C469 C470 1.355 . S
C469 C471 1.415 . S
C470 C469 1.355 . S
C470 C472 1.419 . S
C471 C466 1.425 . S
C471 C468 1.409 . S
C471 C469 1.415 . S
C472 H462 0.930 . S
C472 C470 1.419 . S
C472 C473 1.362 . S
C473 H463 0.930 . S
C473 C466 1.409 . S
C473 C472 1.362 . S
C294 C253 1.542 . S
C289 C16 1.448 . S
C305 C15 1.547 . S
C310 C193 1.579 . S
C321 C13 1.257 . S
C326 C223 1.391 . S
C337 C14 1.389 . S
C342 C163 1.368 . S
C353 C37 1.342 . S
C358 C133 1.558 . S
C369 C36 1.584 . S
C374 C73 1.588 . S
C390 C103 1.451 . S
C385 C34 1.364 . S
C406 C43 1.326 . S
C401 C35 1.339 . S
C417 C17 1.511 . S
C422 C62 1.491 1_545 S
C433 C18 1.430 . S
C438 C122 1.395 1_455 S
C454 C182 1.533 . S
C449 C38 1.494 . S
C465 C39 1.369 . S
C470 C242 1.408 . S
