# Generated by pormake.
# Topology zzz, (3,6)-cn, num edge types: 1
# Building blocks:
#     Node 0, Type 0, BuildingBlock: BELTOD_clean_linker_0, # of connection points: 3
#     Node 1, Type 0, BuildingBlock: BELTOD_clean_linker_0, # of connection points: 3
#     Node 2, Type 0, BuildingBlock: BELTOD_clean_linker_0, # of connection points: 3
#     Node 3, Type 0, BuildingBlock: BELTOD_clean_linker_0, # of connection points: 3
#     Node 4, Type 0, BuildingBlock: BELTOD_clean_linker_0, # of connection points: 3
#     Node 5, Type 0, BuildingBlock: BELTOD_clean_linker_0, # of connection points: 3
#     Node 6, Type 0, BuildingBlock: BELTOD_clean_linker_0, # of connection points: 3
#     Node 7, Type 0, BuildingBlock: BELTOD_clean_linker_0, # of connection points: 3
#     Node 8, Type 1, BuildingBlock: BETDEL_clean_sbu_0, # of connection points: 6
#     Node 9, Type 1, BuildingBlock: BETDEL_clean_sbu_0, # of connection points: 6
#     Node 10, Type 1, BuildingBlock: BETDEL_clean_sbu_0, # of connection points: 6
#     Node 11, Type 1, BuildingBlock: BETDEL_clean_sbu_0, # of connection points: 6
#     Edge 12, Type (0, 1), BuildingBlock: CIFDUS_clean_linker_0, # of connection points: 2
#     Edge 13, Type (0, 1), BuildingBlock: CIFDUS_clean_linker_0, # of connection points: 2
#     Edge 14, Type (0, 1), BuildingBlock: CIFDUS_clean_linker_0, # of connection points: 2
#     Edge 15, Type (0, 1), BuildingBlock: CIFDUS_clean_linker_0, # of connection points: 2
#     Edge 16, Type (0, 1), BuildingBlock: CIFDUS_clean_linker_0, # of connection points: 2
#     Edge 17, Type (0, 1), BuildingBlock: CIFDUS_clean_linker_0, # of connection points: 2
#     Edge 18, Type (0, 1), BuildingBlock: CIFDUS_clean_linker_0, # of connection points: 2
#     Edge 19, Type (0, 1), BuildingBlock: CIFDUS_clean_linker_0, # of connection points: 2
#     Edge 20, Type (0, 1), BuildingBlock: CIFDUS_clean_linker_0, # of connection points: 2
#     Edge 21, Type (0, 1), BuildingBlock: CIFDUS_clean_linker_0, # of connection points: 2
#     Edge 22, Type (0, 1), BuildingBlock: CIFDUS_clean_linker_0, # of connection points: 2
#     Edge 23, Type (0, 1), BuildingBlock: CIFDUS_clean_linker_0, # of connection points: 2
#     Edge 24, Type (0, 1), BuildingBlock: CIFDUS_clean_linker_0, # of connection points: 2
#     Edge 25, Type (0, 1), BuildingBlock: CIFDUS_clean_linker_0, # of connection points: 2
#     Edge 26, Type (0, 1), BuildingBlock: CIFDUS_clean_linker_0, # of connection points: 2
#     Edge 27, Type (0, 1), BuildingBlock: CIFDUS_clean_linker_0, # of connection points: 2
#     Edge 28, Type (0, 1), BuildingBlock: CIFDUS_clean_linker_0, # of connection points: 2
#     Edge 29, Type (0, 1), BuildingBlock: CIFDUS_clean_linker_0, # of connection points: 2
#     Edge 30, Type (0, 1), BuildingBlock: CIFDUS_clean_linker_0, # of connection points: 2
#     Edge 31, Type (0, 1), BuildingBlock: CIFDUS_clean_linker_0, # of connection points: 2
#     Edge 32, Type (0, 1), BuildingBlock: CIFDUS_clean_linker_0, # of connection points: 2
#     Edge 33, Type (0, 1), BuildingBlock: CIFDUS_clean_linker_0, # of connection points: 2
#     Edge 34, Type (0, 1), BuildingBlock: CIFDUS_clean_linker_0, # of connection points: 2
#     Edge 35, Type (0, 1), BuildingBlock: CIFDUS_clean_linker_0, # of connection points: 2
# Relax obj value: 0.320
# Max RMSD: 0.215
# Mean RMSD: 0.201
data_MOF--net-zzz--node1-BETDEL_clean_sbu_0--node2-BELTOD_clean_linker_0--edge1-CIFDUS_clean_linker_0
_symmetry_space_group_name_H-M    P1
_symmetry_Int_Tables_number       1
_symmetry_cell_setting            triclinic
loop_
_symmetry_equiv_pos_as_xyz
'x, y, z'
_cell_length_a     47.093549
_cell_length_b     47.096675
_cell_length_c     16.397697
_cell_angle_alpha  91.314685
_cell_angle_beta   89.116723
_cell_angle_gamma 95.701478
loop_
_atom_site_label
_atom_site_type_symbol
_atom_site_fract_x
_atom_site_fract_y
_atom_site_fract_z
_atom_type_partial_charge
P0 P 0.73561 0.47458 0.13508 0.0
H1 H 0.74228 0.49785 0.30225 0.0
H2 H 0.78608 0.51574 0.37107 0.0
H3 H 0.82893 0.52632 0.13699 0.0
H4 H 0.78456 0.51062 0.06918 0.0
H5 H 0.67808 0.45072 0.09833 0.0
H6 H 0.6428 0.46213 0.00072 0.0
H7 H 0.70061 0.53243 0.91498 0.0
H8 H 0.73623 0.52074 0.01411 0.0
H9 H 0.77583 0.43951 0.20299 0.0
H10 H 0.7508 0.46253 0.96326 0.0
O11 O 0.7182 0.4563 0.2097 0.0
H12 H 0.82157 0.42727 0.14715 0.0
H13 H 0.79612 0.44935 0.90704 0.0
C14 C 0.76017 0.50225 0.18042 0.0
C15 C 0.76067 0.50546 0.26558 0.0
C16 C 0.78607 0.51514 0.30503 0.0
C17 C 0.81162 0.5212 0.26003 0.0
C18 C 0.80996 0.52171 0.17435 0.0
C19 C 0.78432 0.5128 0.13505 0.0
C20 C 0.70958 0.48526 0.065 0.0
C21 C 0.68313 0.46889 0.05958 0.0
C22 C 0.66289 0.47547 0.00358 0.0
C23 C 0.66868 0.49844 0.95061 0.0
C24 C 0.69547 0.51463 0.95502 0.0
C25 C 0.71575 0.50811 0.01199 0.0
C26 C 0.75986 0.45191 0.08736 0.0
C27 C 0.77942 0.44031 0.13763 0.0
C28 C 0.80568 0.43361 0.106 0.0
C29 C 0.81229 0.43766 0.02321 0.0
C30 C 0.79134 0.44595 0.97112 0.0
C31 C 0.76532 0.45332 0.00318 0.0
P32 P 0.03603 0.72648 0.13241 0.0
H33 H 0.03381 0.74537 0.30321 0.0
H34 H 0.01433 0.787 0.36309 0.0
H35 H 0.96516 0.79491 0.14598 0.0
H36 H 0.98518 0.75342 0.08563 0.0
H37 H 0.063 0.6744 0.10462 0.0
H38 H 0.04971 0.63094 0.02548 0.0
H39 H 0.96761 0.66006 0.97781 0.0
H40 H 0.98082 0.70356 0.05946 0.0
H41 H 0.07844 0.77582 0.13193 0.0
H42 H 0.01859 0.73258 0.96323 0.0
O43 O 0.0636 0.72174 0.19174 0.0
H44 H 0.08544 0.81642 0.04128 0.0
H45 H 0.02409 0.77324 0.87522 0.0
C46 C 0.01118 0.74621 0.18955 0.0
C47 C 0.01788 0.75518 0.26966 0.0
C48 C 0.00669 0.77918 0.30398 0.0
C49 C 0.98861 0.7947 0.2586 0.0
C50 C 0.97944 0.78374 0.18193 0.0
C51 C 0.99057 0.75964 0.14781 0.0
C52 C 0.02287 0.69225 0.08869 0.0
C53 C 0.04178 0.67118 0.07944 0.0
C54 C 0.03415 0.64625 0.03406 0.0
C55 C 0.00761 0.64208 0.99544 0.0
C56 C 0.98824 0.66277 0.00682 0.0
C57 C 0.99574 0.68758 0.05375 0.0
C58 C 0.04836 0.75091 0.05388 0.0
C59 C 0.0675 0.77465 0.07415 0.0
C60 C 0.07106 0.7981 0.02293 0.0
C61 C 0.05507 0.79839 0.95123 0.0
C62 C 0.03717 0.77378 0.92906 0.0
C63 C 0.03395 0.75028 0.97972 0.0
P64 P 0.77508 0.02694 0.12442 0.0
H65 H 0.76198 0.02118 0.29855 0.0
H66 H 0.71805 0.00283 0.36808 0.0
H67 H 0.68661 0.96335 0.14278 0.0
H68 H 0.7305 0.98216 0.07271 0.0
H69 H 0.83289 0.04947 0.08365 0.0
H70 H 0.8679 0.03524 0.9843 0.0
H71 H 0.81304 0.95862 0.92687 0.0
H72 H 0.77792 0.97296 0.02804 0.0
H73 H 0.73891 0.07264 0.1568 0.0
H74 H 0.76035 0.01978 0.95114 0.0
O75 O 0.79084 0.05091 0.19013 0.0
H76 H 0.70036 0.08974 0.07894 0.0
H77 H 0.72171 0.03591 0.87445 0.0
C78 C 0.74978 0.00303 0.18017 0.0
C79 C 0.74625 0.00764 0.2644 0.0
C80 C 0.72096 0.99732 0.30418 0.0
C81 C 0.69875 0.982 0.26061 0.0
C82 C 0.70342 0.97496 0.17802 0.0
C83 C 0.72869 0.98554 0.13801 0.0
C84 C 0.80284 0.01215 0.06437 0.0
C85 C 0.82865 0.02914 0.05174 0.0
C86 C 0.84875 0.02097 0.99464 0.0
C87 C 0.84334 0.99577 0.94754 0.0
C88 C 0.81781 0.97822 0.96199 0.0
C89 C 0.79779 0.98629 0.02027 0.0
C90 C 0.75284 0.04528 0.0595 0.0
C91 C 0.73592 0.0654 0.09406 0.0
C92 C 0.71368 0.0749 0.04983 0.0
C93 C 0.70781 0.06413 0.97051 0.0
C94 C 0.72585 0.0451 0.93474 0.0
C95 C 0.74808 0.03573 0.97889 0.0
P96 P 0.49822 0.78169 0.18672 0.0
H97 H 0.50148 0.77528 0.3631 0.0
H98 H 0.52228 0.7388 0.43762 0.0
H99 H 0.57298 0.71973 0.22506 0.0
H100 H 0.55105 0.75573 0.14962 0.0
H101 H 0.46552 0.82404 0.12066 0.0
H102 H 0.4766 0.86188 0.02308 0.0
H103 H 0.56522 0.84574 0.02179 0.0
H104 H 0.55394 0.80742 0.12042 0.0
H105 H 0.47745 0.72282 0.21824 0.0
H106 H 0.49562 0.77489 0.00678 0.0
O107 O 0.47005 0.78836 0.24448 0.0
H108 H 0.46938 0.68037 0.12947 0.0
H109 H 0.48701 0.73266 0.91832 0.0
C110 C 0.52445 0.76813 0.2504 0.0
C111 C 0.51802 0.76423 0.33337 0.0
C112 C 0.53001 0.74317 0.37621 0.0
C113 C 0.54877 0.72567 0.33674 0.0
C114 C 0.55806 0.73231 0.25675 0.0
C115 C 0.54593 0.75335 0.21387 0.0
C116 C 0.50893 0.81314 0.1288 0.0
C117 C 0.4875 0.829 0.10116 0.0
C118 C 0.49378 0.85047 0.04475 0.0
C119 C 0.52171 0.85656 0.01444 0.0
C120 C 0.54354 0.84151 0.04455 0.0
C121 C 0.53712 0.81967 0.10089 0.0
C122 C 0.48719 0.75204 0.11936 0.0
C123 C 0.47915 0.72522 0.15275 0.0
C124 C 0.47471 0.70098 0.1022 0.0
C125 C 0.47769 0.7033 0.01726 0.0
C126 C 0.48439 0.73037 0.98367 0.0
C127 C 0.48932 0.75455 0.03437 0.0
P128 P 0.27534 0.44662 0.98987 0.0
H129 H 0.26714 0.43091 0.81692 0.0
H130 H 0.23005 0.44428 0.7273 0.0
H131 H 0.21699 0.51602 0.88687 0.0
H132 H 0.2548 0.50307 0.97539 0.0
H133 H 0.31275 0.41662 0.08708 0.0
H134 H 0.35309 0.43204 0.17408 0.0
H135 H 0.35065 0.51866 0.09591 0.0
H136 H 0.30979 0.50292 0.00813 0.0
H137 H 0.21483 0.43121 0.97295 0.0
H138 H 0.27105 0.46786 0.16113 0.0
O139 O 0.27631 0.41241 0.9621 0.0
H140 H 0.17437 0.44737 0.046 0.0
H141 H 0.23026 0.48128 0.23998 0.0
C142 C 0.26367 0.46574 0.90378 0.0
C143 C 0.25756 0.45047 0.83052 0.0
C144 C 0.23601 0.45796 0.77952 0.0
C145 C 0.22005 0.48072 0.80135 0.0
C146 C 0.22863 0.49809 0.86923 0.0
C147 C 0.25068 0.49098 0.9191 0.0
C148 C 0.30859 0.45848 0.0396 0.0
C149 C 0.32124 0.43885 0.08692 0.0
C150 C 0.34413 0.44774 0.13755 0.0
C151 C 0.35498 0.47659 0.1424 0.0
C152 C 0.34288 0.49623 0.09302 0.0
C153 C 0.31962 0.48728 0.04262 0.0
C154 C 0.24603 0.44864 0.06072 0.0
C155 C 0.21831 0.44165 0.03204 0.0
C156 C 0.19501 0.45092 0.07453 0.0
C157 C 0.19877 0.46628 0.14896 0.0
C158 C 0.22645 0.4706 0.18148 0.0
C159 C 0.24993 0.46234 0.13705 0.0
P160 P 0.09393 0.26847 0.01085 0.0
H161 H 0.12686 0.24935 0.87156 0.0
H162 H 0.11359 0.21223 0.76944 0.0
H163 H 0.02473 0.21637 0.8308 0.0
H164 H 0.03803 0.25303 0.93511 0.0
H165 H 0.12375 0.31238 0.11248 0.0
H166 H 0.10785 0.35231 0.19067 0.0
H167 H 0.02595 0.33943 0.07325 0.0
H168 H 0.04268 0.30006 0.99139 0.0
H169 H 0.11194 0.21412 0.05964 0.0
H170 H 0.03977 0.26231 0.10417 0.0
O171 O 0.12935 0.26906 0.01732 0.0
H172 H 0.08757 0.17408 0.13346 0.0
H173 H 0.01517 0.22238 0.17593 0.0
C174 C 0.08349 0.25424 0.91139 0.0
C175 C 0.10441 0.24335 0.86103 0.0
C176 C 0.09687 0.22189 0.80289 0.0
C177 C 0.0682 0.21123 0.79318 0.0
C178 C 0.04699 0.22435 0.83692 0.0
C179 C 0.05461 0.24561 0.89605 0.0
C180 C 0.08443 0.303 0.04595 0.0
C181 C 0.10269 0.31865 0.10103 0.0
C182 C 0.09341 0.34134 0.14684 0.0
C183 C 0.06534 0.3486 0.14009 0.0
C184 C 0.04771 0.33439 0.08016 0.0
C185 C 0.05726 0.31181 0.03318 0.0
C186 C 0.07813 0.24159 0.07835 0.0
C187 C 0.09114 0.21635 0.08674 0.0
C188 C 0.07698 0.19331 0.12777 0.0
C189 C 0.04937 0.19503 0.16024 0.0
C190 C 0.03657 0.22052 0.15265 0.0
C191 C 0.05077 0.24351 0.11173 0.0
P192 P 0.24892 0.04854 0.98566 0.0
H193 H 0.26477 0.07188 0.8251 0.0
H194 H 0.30294 0.06057 0.73156 0.0
H195 H 0.30988 0.98228 0.85889 0.0
H196 H 0.27075 0.99317 0.94963 0.0
H197 H 0.19989 0.07981 0.02471 0.0
H198 H 0.15614 0.06626 0.10027 0.0
H199 H 0.17307 0.97784 0.08316 0.0
H200 H 0.21734 0.99174 0.00676 0.0
H201 H 0.3104 0.0542 0.00421 0.0
H202 H 0.2368 0.02593 0.15241 0.0
O203 O 0.2522 0.084 0.9779 0.0
H204 H 0.34148 0.03629 0.10457 0.0
H205 H 0.26781 0.0075 0.25176 0.0
C206 C 0.26514 0.03365 0.89552 0.0
C207 C 0.27359 0.05165 0.83076 0.0
C208 C 0.29588 0.04536 0.77797 0.0
C209 C 0.31042 0.02104 0.7894 0.0
C210 C 0.29946 0.0013 0.84809 0.0
C211 C 0.27682 0.00743 0.90008 0.0
C212 C 0.21203 0.03681 0.00982 0.0
C213 C 0.19378 0.05734 0.03407 0.0
C214 C 0.1686 0.04954 0.07771 0.0
C215 C 0.16121 0.02099 0.09902 0.0
C216 C 0.17832 1.00008 0.06869 0.0
C217 C 0.20345 0.00793 0.02392 0.0
C218 C 0.27118 0.04041 0.0688 0.0
C219 C 0.30089 0.04422 0.05832 0.0
C220 C 0.31862 0.03375 0.1153 0.0
C221 C 0.30695 0.01971 0.1846 0.0
C222 C 0.27732 0.01785 0.19822 0.0
C223 C 0.25955 0.02823 0.14082 0.0
P224 P 0.43604 0.23762 0.95304 0.0
H225 H 0.41995 0.24549 0.78346 0.0
H226 H 0.43678 0.2842 0.69298 0.0
H227 H 0.5108 0.30417 0.84318 0.0
H228 H 0.49409 0.26534 0.93311 0.0
H229 H 0.40511 0.18453 0.00557 0.0
H230 H 0.41859 0.14537 0.08563 0.0
H231 H 0.50644 0.18182 0.08015 0.0
H232 H 0.49267 0.22137 0.99951 0.0
H233 H 0.42634 0.29702 0.9407 0.0
H234 H 0.45381 0.24277 0.12652 0.0
O235 O 0.4016 0.23138 0.92948 0.0
H236 H 0.44505 0.33886 0.01818 0.0
H237 H 0.47074 0.28469 0.20796 0.0
C238 C 0.45561 0.25246 0.86568 0.0
C239 C 0.44057 0.2571 0.79471 0.0
C240 C 0.45011 0.27947 0.74317 0.0
C241 C 0.47471 0.29762 0.76236 0.0
C242 C 0.49154 0.29072 0.82768 0.0
C243 C 0.48224 0.26807 0.87831 0.0
C244 C 0.4479 0.20578 0.99524 0.0
C245 C 0.42743 0.18385 0.01947 0.0
C246 C 0.43518 0.16138 0.06561 0.0
C247 C 0.46361 0.16044 0.08946 0.0
C248 C 0.48433 0.18204 0.06323 0.0
C249 C 0.47654 0.20447 0.01617 0.0
C250 C 0.43954 0.26676 0.02629 0.0
C251 C 0.43551 0.29412 0.99977 0.0
C252 C 0.44621 0.31817 0.04464 0.0
C253 C 0.4602 0.31531 0.1188 0.0
C254 C 0.4612 0.28775 0.14957 0.0
C255 C 0.45116 0.26364 0.10333 0.0
Dy256 Dy 0.03041 0.9824 0.63151 0.0
C257 C 0.99551 0.04816 0.36013 0.0
C258 C 0.03431 0.94871 0.76236 0.0
Dy259 Dy 1.00246 0.01282 0.48587 0.0
O260 O 0.05278 0.97017 0.74424 0.0
O261 O 0.01364 0.94648 0.71049 0.0
O262 O 0.07241 0.97517 0.56795 0.0
O263 O 0.04168 0.99491 0.50916 0.0
C264 C 0.06612 0.98668 0.50012 0.0
C265 C 0.96764 0.99698 0.61159 0.0
O266 O 0.99685 0.96754 0.43974 0.0
O267 O 0.00405 0.94723 0.56508 0.0
O268 O 0.9855 0.05122 0.43371 0.0
O269 O 0.00822 0.02493 0.35444 0.0
O270 O 0.9588 0.99851 0.53696 0.0
O271 O 0.99364 0.00636 0.61529 0.0
O272 O 0.03835 0.02773 0.67483 0.0
O273 O 0.0287 0.04879 0.55175 0.0
C274 C 0.9961 0.94515 0.48778 0.0
C275 C 0.03824 0.05036 0.62787 0.0
Dy276 Dy 0.48709 0.99065 0.49313 0.0
C277 C 0.57629 0.05356 0.67603 0.0
C278 C 0.43767 0.97159 0.41671 0.0
Dy279 Dy 0.52852 0.02985 0.59865 0.0
O280 O 0.46309 0.96814 0.38849 0.0
O281 O 0.43953 0.98455 0.4872 0.0
O282 O 0.52363 0.96705 0.44479 0.0
O283 O 0.5302 0.0105 0.47788 0.0
C284 C 0.54247 0.98905 0.45493 0.0
C285 C 0.47325 0.03377 0.6316 0.0
O286 O 0.52313 0.06053 0.4985 0.0
O287 O 0.48523 0.03337 0.43623 0.0
O288 O 0.55093 0.05034 0.70895 0.0
O289 O 0.57539 0.04395 0.60137 0.0
O290 O 0.49291 0.05509 0.64007 0.0
O291 O 0.48454 0.01114 0.61325 0.0
O292 O 0.49177 0.96046 0.59239 0.0
O293 O 0.53104 0.98615 0.65259 0.0
C294 C 0.50265 0.0572 0.44332 0.0
C295 C 0.51275 0.96278 0.64571 0.0
Dy296 Dy 0.50436 0.52768 0.61934 0.0
C297 C 0.51817 0.46261 0.33039 0.0
C298 C 0.49615 0.56376 0.74818 0.0
Dy299 Dy 0.52423 0.49658 0.46668 0.0
O300 O 0.48109 0.56132 0.68246 0.0
O301 O 0.51569 0.5461 0.74443 0.0
O302 O 0.45929 0.51008 0.59119 0.0
O303 O 0.4884 0.52067 0.49594 0.0
C304 C 0.46343 0.51007 0.51267 0.0
C305 C 0.56588 0.51186 0.57317 0.0
O306 O 0.53279 0.54075 0.42166 0.0
O307 O 0.52921 0.56291 0.54894 0.0
O308 O 0.53711 0.46048 0.38632 0.0
O309 O 0.50378 0.48406 0.34753 0.0
O310 O 0.57044 0.50935 0.49463 0.0
O311 O 0.54022 0.50336 0.58991 0.0
O312 O 0.50079 0.48365 0.66906 0.0
O313 O 0.50273 0.46092 0.54227 0.0
C314 C 0.53548 0.56382 0.46968 0.0
C315 C 0.49845 0.46013 0.62246 0.0
Dy316 Dy 0.99163 0.47059 0.64152 0.0
C317 C 0.05497 0.50604 0.36038 0.0
C318 C 0.95399 0.44864 0.75744 0.0
Dy319 Dy 0.02165 0.50147 0.49737 0.0
O320 O 0.96002 0.43614 0.6891 0.0
O321 O 0.96921 0.47321 0.76403 0.0
O322 O 0.01315 0.43171 0.60481 0.0
O323 O 1.00074 0.45904 0.51534 0.0
C324 C 0.0133 0.43715 0.5275 0.0
C325 C 1.00245 0.53659 0.61089 0.0
O326 O 0.97718 0.50145 0.45224 0.0
O327 O 0.95535 0.48699 0.57451 0.0
O328 O 0.05913 0.52203 0.42578 0.0
O329 O 0.03189 0.48895 0.36916 0.0
O330 O 0.00579 0.54329 0.53421 0.0
O331 O 0.01274 0.51332 0.62335 0.0
O332 O 0.03501 0.47823 0.69599 0.0
O333 O 0.05812 0.48813 0.57207 0.0
C334 C 0.95413 0.49616 0.49881 0.0
C335 C 0.05875 0.4827 0.65132 0.0
H336 H 0.16254 0.98639 0.22892 0.0
H337 H 0.10825 0.04089 0.11021 0.0
H338 H 0.0735 0.03474 0.22255 0.0
H339 H 0.06001 0.01608 0.35958 0.0
H340 H 0.11494 0.96194 0.4766 0.0
H341 H 0.14783 0.96568 0.36026 0.0
C342 C 0.1428 0.99638 0.22646 0.0
C343 C 0.13807 0.01401 0.16085 0.0
C344 C 0.1231 0.99306 0.29173 0.0
C345 C 0.11258 0.02732 0.16005 0.0
C346 C 0.09268 0.02383 0.22439 0.0
C347 C 0.07892 0.00481 0.35886 0.0
C348 C 0.0849 0.9887 0.4266 0.0
C349 C 0.09793 0.00714 0.29137 0.0
C350 C 0.10982 0.97456 0.4254 0.0
C351 C 0.12866 0.97663 0.35875 0.0
H352 H 0.49782 0.16568 0.22364 0.0
H353 H 0.44554 0.1037 0.07909 0.0
H354 H 0.45301 0.06672 0.17586 0.0
H355 H 0.4728 0.05225 0.30299 0.0
H356 H 0.52598 0.11318 0.44834 0.0
H357 H 0.51993 0.15026 0.34932 0.0
C358 C 0.48846 0.14398 0.21268 0.0
C359 C 0.47095 0.13756 0.14436 0.0
C360 C 0.49282 0.12269 0.26894 0.0
C361 C 0.45875 0.10936 0.13164 0.0
C362 C 0.46305 0.08816 0.18689 0.0
C363 C 0.48308 0.07364 0.31349 0.0
C364 C 0.4996 0.07994 0.38367 0.0
C365 C 0.47968 0.09468 0.25626 0.0
C366 C 0.51305 0.10773 0.39512 0.0
C367 C 0.5096 0.12894 0.33845 0.0
H368 H 0.35727 0.4626 0.30171 0.0
H369 H 0.40422 0.51168 0.11626 0.0
H370 H 0.44245 0.52575 0.21336 0.0
H371 H 0.46245 0.52412 0.35198 0.0
H372 H 0.4142 0.47623 0.53756 0.0
H373 H 0.3767 0.46152 0.43954 0.0
C374 C 0.37595 0.47627 0.28239 0.0
C375 C 0.37795 0.48595 0.20165 0.0
C376 C 0.39764 0.48444 0.33869 0.0
C377 C 0.40207 0.50406 0.17808 0.0
C378 C 0.42398 0.51199 0.23352 0.0
C379 C 0.44378 0.51033 0.37064 0.0
C380 C 0.44116 0.50111 0.45183 0.0
C381 C 0.42202 0.5023 0.31406 0.0
C382 C 0.4167 0.4836 0.47551 0.0
C383 C 0.39525 0.47517 0.41946 0.0
H384 H 0.07483 0.35136 0.30282 0.0
H385 H 0.02945 0.39036 0.11551 0.0
H386 H 0.0094 0.42146 0.21865 0.0
H387 H 0.00416 0.43686 0.36326 0.0
H388 H 0.05029 0.39758 0.54827 0.0
H389 H 0.0709 0.36747 0.44454 0.0
C390 C 0.06099 0.36702 0.284 0.0
C391 C 0.05389 0.36864 0.2012 0.0
C392 C 0.04963 0.38475 0.34338 0.0
C393 C 0.03519 0.38853 0.17874 0.0
C394 C 0.02379 0.40637 0.23769 0.0
C395 C 0.01902 0.42196 0.38052 0.0
C396 C 0.02589 0.41957 0.46322 0.0
C397 C 0.03078 0.4046 0.32032 0.0
C398 C 0.04467 0.39977 0.48506 0.0
C399 C 0.0565 0.38259 0.42577 0.0
H400 H 0.90158 0.99974 0.94878 0.0
H401 H 0.82961 0.97842 0.79169 0.0
H402 H 0.86182 0.97471 0.6745 0.0
H403 H 0.9103 0.98189 0.61431 0.0
H404 H 0.98219 0.00352 0.77147 0.0
H405 H 0.95027 0.00277 0.89054 0.0
C406 C 0.89297 0.99406 0.88898 0.0
C407 C 0.86318 0.98954 0.87911 0.0
C408 C 0.91163 0.99228 0.82158 0.0
C409 C 0.85241 0.98177 0.80134 0.0
C410 C 0.87083 0.9799 0.73405 0.0
C411 C 0.91897 0.98612 0.67476 0.0
C412 C 0.94852 0.9931 0.68394 0.0
C413 C 0.90044 0.98574 0.74309 0.0
C414 C 0.9595 0.9983 0.76268 0.0
C415 C 0.94124 0.99792 0.83083 0.0
H416 H 0.49362 0.85634 0.87288 0.0
H417 H 0.56176 0.90304 0.00674 0.0
H418 H 0.56653 0.93962 0.90149 0.0
H419 H 0.54854 0.95985 0.77589 0.0
H420 H 0.48021 0.91171 0.64431 0.0
H421 H 0.47841 0.87427 0.74394 0.0
C422 C 0.5096 0.87449 0.87876 0.0
C423 C 0.52705 0.87727 0.94775 0.0
C424 C 0.51208 0.89527 0.81856 0.0
C425 C 0.54806 0.90054 0.95408 0.0
C426 C 0.55067 0.92147 0.89414 0.0
C427 C 0.53347 0.94105 0.76855 0.0
C428 C 0.51432 0.93893 0.70282 0.0
C429 C 0.5324 0.91933 0.82671 0.0
C430 C 0.49505 0.91424 0.69434 0.0
C431 C 0.49395 0.8927 0.75144 0.0
H432 H 0.67606 0.51092 0.78865 0.0
H433 H 0.61164 0.50003 0.97838 0.0
H434 H 0.57442 0.50493 0.87934 0.0
H435 H 0.55972 0.50894 0.73757 0.0
H436 H 0.62358 0.51969 0.5466 0.0
H437 H 0.66137 0.5186 0.64715 0.0
C438 C 0.65392 0.51011 0.80848 0.0
C439 C 0.64669 0.50478 0.89084 0.0
C440 C 0.63246 0.51276 0.75082 0.0
C441 C 0.61782 0.5036 0.91525 0.0
C442 C 0.59649 0.50648 0.85866 0.0
C443 C 0.58192 0.5114 0.71804 0.0
C444 C 0.58882 0.51423 0.63466 0.0
C445 C 0.60349 0.5105 0.77607 0.0
C446 C 0.61769 0.51739 0.6104 0.0
C447 C 0.63932 0.5167 0.66789 0.0
H448 H 0.98822 0.64326 0.84071 0.0
H449 H 0.01488 0.58609 0.01973 0.0
H450 H 0.01296 0.5473 0.91754 0.0
H451 H 0.00842 0.5311 0.77419 0.0
H452 H 0.98384 0.58896 0.59396 0.0
H453 H 0.97981 0.62586 0.6997 0.0
C454 C 0.99293 0.62212 0.85774 0.0
C455 C 1.00175 0.61755 0.93754 0.0
C456 C 0.99245 0.60013 0.79817 0.0
C457 C 0.00823 0.59016 0.95849 0.0
C458 C 0.00718 0.56801 0.90008 0.0
C459 C 1.00183 0.55167 0.75831 0.0
C460 C 0.99674 0.55745 0.67634 0.0
C461 C 1.0001 0.57296 0.8192 0.0
C462 C 0.98812 0.58413 0.6566 0.0
C463 C 0.98583 0.60524 0.71701 0.0
H464 H 0.04671 0.13912 0.1124 0.0
H465 H 0.01693 0.19534 0.29966 0.0
H466 H 0.9932 0.15448 0.37078 0.0
H467 H 0.98509 0.10282 0.38702 0.0
H468 H 0.01801 0.04627 0.20624 0.0
H469 H 0.03604 0.08721 0.12454 0.0
C470 C 0.0351 0.14241 0.16891 0.0
C471 C 0.03385 0.17022 0.20112 0.0
C472 C 0.02195 0.11878 0.2103 0.0
C473 C 0.01813 0.17419 0.27334 0.0
C474 C 0.00463 0.15083 0.31421 0.0
C475 C 0.9956 0.09943 0.32875 0.0
C476 C 1.00026 0.07167 0.30247 0.0
C477 C 0.00685 0.12304 0.28404 0.0
C478 C 0.01412 0.06752 0.22736 0.0
C479 C 0.02463 0.09091 0.18111 0.0
H480 H 0.34968 0.98721 0.14577 0.0
H481 H 0.30623 0.02322 0.35111 0.0
H482 H 0.34059 0.00614 0.44403 0.0
H483 H 0.38627 0.98682 0.46416 0.0
H484 H 0.43161 0.95377 0.25791 0.0
H485 H 0.39283 0.96326 0.1679 0.0
C486 C 0.34772 0.99121 0.21094 0.0
C487 C 0.32584 0.00689 0.24159 0.0
C488 C 0.36779 0.98179 0.26358 0.0
C489 C 0.32298 0.01128 0.32619 0.0
C490 C 0.34265 0.00161 0.37921 0.0
C491 C 0.38733 0.98105 0.39979 0.0
C492 C 0.41179 0.96992 0.36724 0.0
C493 C 0.36558 0.9876 0.34827 0.0
C494 C 0.41295 0.96242 0.28406 0.0
C495 C 0.39094 0.96809 0.23258 0.0
H496 H 0.44489 0.36983 0.12633 0.0
H497 H 0.51024 0.31841 0.20366 0.0
H498 H 0.53546 0.36006 0.26992 0.0
H499 H 0.53822 0.41089 0.30989 0.0
H500 H 0.47424 0.46247 0.22568 0.0
H501 H 0.45017 0.42118 0.15403 0.0
C502 C 0.46489 0.36767 0.15626 0.0
C503 C 0.4753 0.34075 0.16049 0.0
C504 C 0.47991 0.39189 0.19176 0.0
C505 C 0.50109 0.33856 0.20123 0.0
C506 C 0.51585 0.3625 0.23821 0.0
C507 C 0.5194 0.41317 0.27421 0.0
C508 C 0.50799 0.43956 0.273 0.0
C509 C 0.50539 0.38924 0.23419 0.0
C510 C 0.4835 0.44232 0.22712 0.0
C511 C 0.46955 0.41867 0.18685 0.0
H512 H 0.1421 0.4462 0.14614 0.0
H513 H 0.19974 0.51565 0.24306 0.0
H514 H 0.15995 0.53572 0.31152 0.0
H515 H 0.1089 0.53235 0.34935 0.0
H516 H 0.05132 0.46576 0.23996 0.0
H517 H 0.09094 0.44686 0.16669 0.0
C518 C 0.14618 0.46612 0.18025 0.0
C519 C 0.17428 0.47892 0.18987 0.0
C520 C 0.12306 0.47844 0.21627 0.0
C521 C 0.17866 0.50449 0.23644 0.0
C522 C 0.1558 0.51638 0.27473 0.0
C523 C 0.105 0.5142 0.30767 0.0
C524 C 0.07737 0.50025 0.30066 0.0
C525 C 0.12793 0.50339 0.26567 0.0
C526 C 0.07249 0.47676 0.24657 0.0
C527 C 0.09516 0.46579 0.20519 0.0
H528 H 0.0582 0.85369 0.00878 0.0
H529 H 0.05115 0.80286 0.78572 0.0
H530 H 0.04333 0.84503 0.70949 0.0
H531 H 0.03623 0.89565 0.70667 0.0
H532 H 0.0478 0.94807 0.92453 0.0
H533 H 0.05667 0.90587 0.00281 0.0
C534 C 0.0557 0.85185 0.94322 0.0
C535 C 0.05481 0.82487 0.90348 0.0
C536 C 0.05181 0.87638 0.89915 0.0
C537 C 0.05119 0.82309 0.81846 0.0
C538 C 0.04685 0.84724 0.77461 0.0
C539 C 0.04076 0.89775 0.77139 0.0
C540 C 0.04091 0.9245 0.81074 0.0
C541 C 0.04656 0.8738 0.81459 0.0
C542 C 0.04738 0.92743 0.89377 0.0
C543 C 0.05244 0.90338 0.93813 0.0
H544 H 0.70084 0.07317 0.8088 0.0
H545 H 0.65468 0.06685 0.03822 0.0
H546 H 0.60966 0.06718 0.9672 0.0
H547 H 0.58303 0.0624 0.83888 0.0
H548 H 0.62915 0.06463 0.60946 0.0
H549 H 0.67441 0.07254 0.6812 0.0
C550 C 0.68094 0.07208 0.84332 0.0
C551 C 0.68121 0.06968 0.92863 0.0
C552 C 0.65503 0.07116 0.8019 0.0
C553 C 0.65524 0.06896 0.97258 0.0
C554 C 0.62939 0.06882 0.93192 0.0
C555 C 0.603 0.06515 0.80478 0.0
C556 C 0.60289 0.06272 0.7193 0.0
C557 C 0.62897 0.06892 0.84648 0.0
C558 C 0.62881 0.06626 0.67549 0.0
C559 C 0.65467 0.07072 0.71642 0.0
H560 H 0.50463 0.65561 0.03458 0.0
H561 H 0.44628 0.69358 0.87972 0.0
H562 H 0.44526 0.65239 0.78579 0.0
H563 H 0.463 0.60706 0.74421 0.0
H564 H 0.52355 0.57011 0.8941 0.0
H565 H 0.52146 0.60928 0.99447 0.0
C566 C 0.49139 0.65459 0.98081 0.0
C567 C 0.47549 0.67746 0.96388 0.0
C568 C 0.49141 0.63114 0.92639 0.0
C569 C 0.45877 0.67622 0.89352 0.0
C570 C 0.45817 0.65271 0.84002 0.0
C571 C 0.47552 0.60743 0.79929 0.0
C572 C 0.49338 0.58582 0.81209 0.0
C573 C 0.47471 0.63027 0.85529 0.0
C574 C 0.50964 0.58659 0.88322 0.0
C575 C 0.50849 0.60897 0.94037 0.0
H576 H 0.83316 0.4064 0.89917 0.0
H577 H 0.85768 0.4714 0.08077 0.0
H578 H 0.90537 0.47918 0.01903 0.0
H579 H 0.93818 0.47105 0.90388 0.0
H580 H 0.91395 0.40473 0.7253 0.0
H581 H 0.86838 0.39359 0.79568 0.0
C582 C 0.84922 0.42181 0.92586 0.0
C583 C 0.84212 0.43835 0.9939 0.0
C584 C 0.87656 0.42608 0.89025 0.0
C585 C 0.86292 0.45829 0.02854 0.0
C586 C 0.89008 0.46288 0.99299 0.0
C587 C 0.92311 0.45382 0.8815 0.0
C588 C 0.92919 0.43899 0.80914 0.0
C589 C 0.89689 0.44743 0.92249 0.0
C590 C 0.90965 0.41656 0.78083 0.0
C591 C 0.88351 0.41023 0.82077 0.0
H592 H 0.08845 0.16102 0.82173 0.0
H593 H 0.03108 0.20004 0.66665 0.0
H594 H 0.01797 0.15378 0.59794 0.0
H595 H 0.02179 0.10187 0.58588 0.0
H596 H 0.07654 0.06274 0.74949 0.0
H597 H 0.09183 0.1094 0.81097 0.0
C598 C 0.07333 0.15939 0.77216 0.0
C599 C 0.06101 0.18385 0.74824 0.0
C600 C 0.06537 0.1327 0.73496 0.0
C601 C 0.04093 0.18146 0.68549 0.0
C602 C 0.03345 0.15505 0.64644 0.0
C603 C 0.03725 0.10361 0.63454 0.0
C604 C 0.04813 0.07886 0.66285 0.0
C605 C 0.04539 0.13047 0.67112 0.0
C606 C 0.0678 0.08142 0.72676 0.0
C607 C 0.07658 0.1081 0.76187 0.0
H608 H 0.35225 0.06355 0.75592 0.0
H609 H 0.33309 0.97221 0.73266 0.0
H610 H 0.38147 0.96786 0.68038 0.0
H611 H 0.43036 0.99001 0.64822 0.0
H612 H 0.44792 0.08156 0.66844 0.0
H613 H 0.39902 0.08572 0.71425 0.0
C614 C 0.35823 0.04267 0.73763 0.0
C615 C 0.33874 0.01827 0.74839 0.0
C616 C 0.38605 0.04032 0.7076 0.0
C617 C 0.34755 0.9914 0.72607 0.0
C618 C 0.37527 0.98889 0.69593 0.0
C619 C 0.42332 0.01087 0.66143 0.0
C620 C 0.44284 0.03545 0.65479 0.0
C621 C 0.39489 0.01318 0.68758 0.0
C622 C 0.43344 0.06229 0.67326 0.0
C623 C 0.40542 0.06471 0.69943 0.0
H624 H 0.48362 0.3495 0.83676 0.0
H625 H 0.47696 0.30865 0.59892 0.0
H626 H 0.48304 0.35541 0.53463 0.0
H627 H 0.48997 0.40781 0.54654 0.0
H628 H 0.49531 0.4485 0.78536 0.0
H629 H 0.48979 0.40186 0.84873 0.0
C630 C 0.48394 0.35085 0.77078 0.0
C631 C 0.48033 0.32567 0.72248 0.0
C632 C 0.48687 0.37776 0.73455 0.0
C633 C 0.47992 0.32774 0.63722 0.0
C634 C 0.48331 0.35445 0.60058 0.0
C635 C 0.48983 0.40656 0.6125 0.0
C636 C 0.49308 0.43179 0.66097 0.0
C637 C 0.48667 0.37961 0.64869 0.0
C638 C 0.49275 0.42958 0.74637 0.0
C639 C 0.48973 0.40286 0.78276 0.0
H640 H 0.1681 0.48378 0.87289 0.0
H641 H 0.21004 0.48298 0.63751 0.0
H642 H 0.16399 0.4838 0.57025 0.0
H643 H 0.11158 0.48346 0.57851 0.0
H644 H 0.06967 0.48212 0.81468 0.0
H645 H 0.1158 0.48329 0.88117 0.0
C646 C 0.16718 0.48426 0.80686 0.0
C647 C 0.19252 0.48374 0.76023 0.0
C648 C 0.14056 0.48401 0.76871 0.0
C649 C 0.19089 0.48356 0.67471 0.0
C650 C 0.16455 0.48394 0.63631 0.0
C651 C 0.11248 0.48345 0.64455 0.0
C652 C 0.08699 0.48267 0.6913 0.0
C653 C 0.13918 0.48391 0.68266 0.0
C654 C 0.08877 0.48254 0.77687 0.0
C655 C 0.11521 0.48333 0.81511 0.0
H656 H 0.97578 0.81332 0.41229 0.0
H657 H 0.99039 0.84244 0.16623 0.0
H658 H 0.99051 0.89187 0.21393 0.0
H659 H 0.99271 0.92711 0.32792 0.0
H660 H 0.98036 0.89746 0.57441 0.0
H661 H 0.97331 0.84833 0.52425 0.0
C662 C 0.97866 0.83047 0.36899 0.0
C663 C 0.98322 0.82408 0.28596 0.0
C664 C 0.97954 0.85894 0.39707 0.0
C665 C 0.9865 0.8466 0.23046 0.0
C666 C 0.9869 0.87498 0.2578 0.0
C667 C 0.98795 0.90994 0.37047 0.0
C668 C 0.98748 0.91604 0.45483 0.0
C669 C 0.98433 0.88146 0.34132 0.0
C670 C 0.98127 0.89346 0.50914 0.0
C671 C 0.9772 0.86526 0.48058 0.0
H672 H 0.66939 0.02132 0.33653 0.0
H673 H 0.6626 0.93236 0.26501 0.0
H674 H 0.6138 0.92603 0.32176 0.0
H675 H 0.57253 0.94655 0.38981 0.0
H676 H 0.57939 0.03676 0.44786 0.0
H677 H 0.62866 0.04175 0.39999 0.0
C678 C 0.65738 1.00043 0.33443 0.0
C679 C 0.66971 0.97724 0.29788 0.0
C680 C 0.6293 0.9972 0.36519 0.0
C681 C 0.65359 0.95049 0.29338 0.0
C682 C 0.62572 0.94691 0.32576 0.0
C683 C 0.58492 0.96721 0.39228 0.0
C684 C 0.57247 0.9911 0.42483 0.0
C685 C 0.61324 0.97019 0.3615 0.0
C686 C 0.58865 0.01784 0.42608 0.0
C687 C 0.61681 0.02081 0.39775 0.0
H688 H 0.54998 0.67417 0.25904 0.0
H689 H 0.5587 0.71459 0.49752 0.0
H690 H 0.55735 0.66781 0.55979 0.0
H691 H 0.54862 0.61541 0.54724 0.0
H692 H 0.5405 0.57563 0.3076 0.0
H693 H 0.54741 0.62227 0.24527 0.0
C694 C 0.55254 0.67296 0.32443 0.0
C695 C 0.55422 0.69803 0.3734 0.0
C696 C 0.55156 0.64601 0.35986 0.0
C697 C 0.55695 0.69571 0.45829 0.0
C698 C 0.55618 0.66893 0.494 0.0
C699 C 0.54871 0.61689 0.48133 0.0
C700 C 0.54364 0.59195 0.43242 0.0
C701 C 0.55258 0.6439 0.44555 0.0
C702 C 0.54418 0.59436 0.34703 0.0
C703 C 0.54807 0.62109 0.31115 0.0
H704 H 0.82579 0.49206 0.39291 0.0
H705 H 0.86205 0.55325 0.21842 0.0
H706 H 0.90933 0.55059 0.27532 0.0
H707 H 0.94083 0.52952 0.37243 0.0
H708 H 0.90305 0.47069 0.55094 0.0
H709 H 0.85594 0.47441 0.4956 0.0
C710 C 0.84373 0.50554 0.36833 0.0
C711 C 0.83999 0.52285 0.30102 0.0
C712 C 0.87081 0.50422 0.40195 0.0
C713 C 0.86406 0.53939 0.26932 0.0
C714 C 0.8912 0.53796 0.30206 0.0
C715 C 0.92225 0.51759 0.39922 0.0
C716 C 0.92558 0.49971 0.4655 0.0
C717 C 0.89492 0.52012 0.36772 0.0
C718 C 0.90122 0.48465 0.50009 0.0
C719 C 0.8742 0.48671 0.46837 0.0
loop_
_geom_bond_atom_site_label_1
_geom_bond_atom_site_label_2
_geom_bond_distance
_geom_bond_site_symmetry_2
_ccdc_geom_bond_type
P0 O11 1.490 . S
P0 C14 1.812 . S
P0 C20 1.803 . S
P0 C26 1.819 1_554 S
H1 C15 0.941 . S
H2 C16 0.939 . S
H3 C18 0.940 . S
H4 C19 0.940 . S
H5 C21 0.939 . S
H6 C22 0.942 . S
H7 C24 0.940 . S
H8 C25 0.939 . S
H9 C27 0.941 . S
H10 C31 0.939 . S
O11 P0 1.490 . S
H12 C28 0.939 . S
H13 C30 0.940 . S
C14 P0 1.812 . S
C14 C15 1.389 . S
C14 C19 1.391 . S
C15 H1 0.941 . S
C15 C14 1.389 . S
C15 C16 1.397 . S
C16 H2 0.939 . S
C16 C15 1.397 . S
C16 C17 1.378 . S
C17 C16 1.378 . S
C17 C18 1.378 . S
C18 H3 0.940 . S
C18 C17 1.378 . S
C18 C19 1.396 . S
C19 H4 0.940 . S
C19 C14 1.391 . S
C19 C18 1.396 . S
C20 P0 1.803 . S
C20 C21 1.378 1_554 S
C20 C25 1.400 . S
C21 H5 0.939 . S
C21 C20 1.378 1_556 S
C21 C22 1.361 . S
C22 H6 0.942 . S
C22 C21 1.361 . S
C22 C23 1.369 . S
C23 C22 1.369 . S
C23 C24 1.404 1_556 S
C24 H7 0.940 . S
C24 C23 1.404 1_554 S
C24 C25 1.389 . S
C25 H8 0.939 . S
C25 C20 1.400 . S
C25 C24 1.389 . S
C26 P0 1.819 1_556 S
C26 C27 1.391 . S
C26 C31 1.391 . S
C27 H9 0.941 . S
C27 C26 1.391 . S
C27 C28 1.396 . S
C28 H12 0.939 . S
C28 C27 1.396 . S
C28 C29 1.397 . S
C29 C28 1.397 . S
C29 C30 1.385 . S
C30 H13 0.940 . S
C30 C29 1.385 . S
C30 C31 1.388 . S
C31 H10 0.939 . S
C31 C26 1.391 . S
C31 C30 1.388 . S
P32 O43 1.490 1_655 S
P32 C46 1.812 . S
P32 C52 1.803 1_554 S
P32 C58 1.819 1_554 S
H33 C47 0.941 . S
H34 C48 0.939 . S
H35 C50 0.940 . S
H36 C51 0.940 . S
H37 C53 0.939 . S
H38 C54 0.942 . S
H39 C56 0.938 1_554 S
H40 C57 0.939 . S
H41 C59 0.941 . S
H42 C63 0.939 . S
O43 P32 1.490 1_455 S
H44 C60 0.939 . S
H45 C62 0.940 . S
C46 P32 1.812 . S
C46 C47 1.389 . S
C46 C51 1.391 . S
C47 H33 0.941 . S
C47 C46 1.389 . S
C47 C48 1.397 . S
C48 H34 0.939 . S
C48 C47 1.397 . S
C48 C49 1.378 . S
C49 C48 1.378 . S
C49 C50 1.378 . S
C50 H35 0.940 . S
C50 C49 1.378 . S
C50 C51 1.396 . S
C51 H36 0.940 . S
C51 C46 1.391 . S
C51 C50 1.396 . S
C52 P32 1.803 1_556 S
C52 C53 1.378 . S
C52 C57 1.400 1_556 S
C53 H37 0.939 . S
C53 C52 1.378 . S
C53 C54 1.361 . S
C54 H38 0.942 . S
C54 C53 1.361 . S
C54 C55 1.369 . S
C55 C54 1.369 . S
C55 C56 1.408 . S
C56 H39 0.938 1_556 S
C56 C55 1.408 . S
C56 C57 1.387 1_556 S
C57 H40 0.939 . S
C57 C52 1.400 1_554 S
C57 C56 1.387 1_554 S
C58 P32 1.819 1_556 S
C58 C59 1.391 . S
C58 C63 1.391 . S
C59 H41 0.941 . S
C59 C58 1.391 . S
C59 C60 1.396 . S
C60 H44 0.939 . S
C60 C59 1.396 . S
C60 C61 1.397 . S
C61 C60 1.397 . S
C61 C62 1.385 . S
C62 H45 0.940 . S
C62 C61 1.385 . S
C62 C63 1.388 . S
C63 H42 0.939 . S
C63 C58 1.391 . S
C63 C62 1.388 . S
P64 O75 1.490 . S
P64 C78 1.812 . S
P64 C84 1.803 . S
P64 C90 1.819 1_554 S
H65 C79 0.941 . S
H66 C80 0.939 . S
H67 C82 0.940 . S
H68 C83 0.950 . S
H69 C85 0.939 . S
H70 C86 0.942 . S
H71 C88 0.940 . S
H72 C89 0.958 . S
H73 C91 0.941 1_554 S
H74 C95 0.926 1_565 S
O75 P64 1.490 . S
H76 C92 0.939 . S
H77 C94 0.940 . S
C78 P64 1.812 . S
C78 C79 1.389 . S
C78 C83 1.376 1_545 S
C79 H65 0.941 . S
C79 C78 1.389 . S
C79 C80 1.397 . S
C80 H66 0.939 . S
C80 C79 1.397 . S
C80 C81 1.378 . S
C81 C80 1.378 . S
C81 C82 1.378 1_545 S
C82 H67 0.940 . S
C82 C81 1.378 1_565 S
C82 C83 1.402 . S
C83 H68 0.950 . S
C83 C78 1.376 1_565 S
C83 C82 1.402 . S
C84 P64 1.803 . S
C84 C85 1.378 1_554 S
C84 C89 1.367 1_545 S
C85 H69 0.939 . S
C85 C84 1.378 1_556 S
C85 C86 1.361 . S
C86 H70 0.942 . S
C86 C85 1.361 . S
C86 C87 1.369 . S
C87 C86 1.369 . S
C87 C88 1.404 1_546 S
C88 H71 0.940 . S
C88 C87 1.404 1_564 S
C88 C89 1.405 . S
C89 H72 0.958 . S
C89 C84 1.367 1_565 S
C89 C88 1.405 . S
C90 P64 1.819 1_556 S
C90 C91 1.391 . S
C90 C95 1.391 . S
C91 H73 0.941 1_556 S
C91 C90 1.391 . S
C91 C92 1.396 . S
C92 H76 0.939 . S
C92 C91 1.396 . S
C92 C93 1.397 . S
C93 C92 1.397 . S
C93 C94 1.385 1_545 S
C94 H77 0.940 . S
C94 C93 1.385 1_565 S
C94 C95 1.388 1_565 S
C95 H74 0.926 1_545 S
C95 C90 1.391 . S
C95 C94 1.388 1_545 S
P96 O107 1.490 . S
P96 C110 1.812 . S
P96 C116 1.803 . S
P96 C122 1.819 1_554 S
H97 C111 0.941 . S
H98 C112 0.939 . S
H99 C114 0.940 . S
H100 C115 0.940 . S
H101 C117 0.939 1_556 S
H102 C118 0.942 . S
H103 C120 0.940 . S
H104 C121 0.939 . S
H105 C123 0.941 1_554 S
H106 C127 0.939 . S
O107 P96 1.490 . S
H108 C124 0.939 . S
H109 C126 0.940 . S
C110 P96 1.812 . S
C110 C111 1.389 . S
C110 C115 1.391 . S
C111 H97 0.941 . S
C111 C110 1.389 . S
C111 C112 1.397 . S
C112 H98 0.939 . S
C112 C111 1.397 . S
C112 C113 1.378 . S
C113 C112 1.378 . S
C113 C114 1.378 . S
C114 H99 0.940 . S
C114 C113 1.378 . S
C114 C115 1.396 . S
C115 H100 0.940 . S
C115 C110 1.391 . S
C115 C114 1.396 . S
C116 P96 1.803 . S
C116 C117 1.378 . S
C116 C121 1.400 . S
C117 H101 0.939 1_554 S
C117 C116 1.378 . S
C117 C118 1.361 1_554 S
C118 H102 0.942 . S
C118 C117 1.361 1_556 S
C118 C119 1.369 1_556 S
C119 C118 1.369 1_554 S
C119 C120 1.404 . S
C120 H103 0.940 . S
C120 C119 1.404 . S
C120 C121 1.389 . S
C121 H104 0.939 . S
C121 C116 1.400 . S
C121 C120 1.389 . S
C122 P96 1.819 1_556 S
C122 C123 1.391 . S
C122 C127 1.391 . S
C123 H105 0.941 1_556 S
C123 C122 1.391 . S
C123 C124 1.396 . S
C124 H108 0.939 . S
C124 C123 1.396 . S
C124 C125 1.397 . S
C125 C124 1.397 . S
C125 C126 1.385 . S
C126 H109 0.940 . S
C126 C125 1.385 . S
C126 C127 1.388 . S
C127 H106 0.939 . S
C127 C122 1.391 . S
C127 C126 1.388 . S
P128 O139 1.490 . S
P128 C142 1.812 1_554 S
P128 C148 1.803 . S
P128 C154 1.819 . S
H129 C143 0.941 . S
H130 C144 0.939 . S
H131 C146 0.940 . S
H132 C147 0.940 1_554 S
H133 C149 0.939 . S
H134 C150 0.942 . S
H135 C152 0.940 . S
H136 C153 0.939 . S
H137 C155 0.941 . S
H138 C159 0.939 . S
O139 P128 1.490 . S
H140 C156 0.939 . S
H141 C158 0.940 . S
C142 P128 1.812 1_556 S
C142 C143 1.389 . S
C142 C147 1.391 . S
C143 H129 0.941 . S
C143 C142 1.389 . S
C143 C144 1.397 . S
C144 H130 0.939 . S
C144 C143 1.397 . S
C144 C145 1.378 . S
C145 C144 1.378 . S
C145 C146 1.378 . S
C146 H131 0.940 . S
C146 C145 1.378 . S
C146 C147 1.396 . S
C147 H132 0.940 1_556 S
C147 C142 1.391 . S
C147 C146 1.396 . S
C148 P128 1.803 . S
C148 C149 1.378 . S
C148 C153 1.400 . S
C149 H133 0.939 . S
C149 C148 1.378 . S
C149 C150 1.361 . S
C150 H134 0.942 . S
C150 C149 1.361 . S
C150 C151 1.369 . S
C151 C150 1.369 . S
C151 C152 1.404 . S
C152 H135 0.940 . S
C152 C151 1.404 . S
C152 C153 1.389 . S
C153 H136 0.939 . S
C153 C148 1.400 . S
C153 C152 1.389 . S
C154 P128 1.819 . S
C154 C155 1.391 . S
C154 C159 1.391 . S
C155 H137 0.941 . S
C155 C154 1.391 . S
C155 C156 1.396 . S
C156 H140 0.939 . S
C156 C155 1.396 . S
C156 C157 1.397 . S
C157 C156 1.397 . S
C157 C158 1.385 . S
C158 H141 0.940 . S
C158 C157 1.385 . S
C158 C159 1.388 . S
C159 H138 0.939 . S
C159 C154 1.391 . S
C159 C158 1.388 . S
P160 O171 1.490 . S
P160 C174 1.812 1_554 S
P160 C180 1.803 . S
P160 C186 1.819 . S
H161 C175 0.941 . S
H162 C176 0.939 . S
H163 C178 0.940 . S
H164 C179 0.940 1_554 S
H165 C181 0.939 . S
H166 C182 0.942 . S
H167 C184 0.940 . S
H168 C185 0.939 . S
H169 C187 0.941 . S
H170 C191 0.939 . S
O171 P160 1.490 . S
H172 C188 0.939 . S
H173 C190 0.940 . S
C174 P160 1.812 1_556 S
C174 C175 1.389 . S
C174 C179 1.391 . S
C175 H161 0.941 . S
C175 C174 1.389 . S
C175 C176 1.397 . S
C176 H162 0.939 . S
C176 C175 1.397 . S
C176 C177 1.378 . S
C177 C176 1.378 . S
C177 C178 1.378 . S
C178 H163 0.940 . S
C178 C177 1.378 . S
C178 C179 1.396 . S
C179 H164 0.940 1_556 S
C179 C174 1.391 . S
C179 C178 1.396 . S
C180 P160 1.803 . S
C180 C181 1.378 . S
C180 C185 1.400 . S
C181 H165 0.939 . S
C181 C180 1.378 . S
C181 C182 1.361 . S
C182 H166 0.942 . S
C182 C181 1.361 . S
C182 C183 1.369 . S
C183 C182 1.369 . S
C183 C184 1.404 . S
C184 H167 0.940 . S
C184 C183 1.404 . S
C184 C185 1.389 . S
C185 H168 0.939 . S
C185 C180 1.400 . S
C185 C184 1.389 . S
C186 P160 1.819 . S
C186 C187 1.391 . S
C186 C191 1.391 . S
C187 H169 0.941 . S
C187 C186 1.391 . S
C187 C188 1.396 . S
C188 H172 0.939 . S
C188 C187 1.396 . S
C188 C189 1.397 . S
C189 C188 1.397 . S
C189 C190 1.385 . S
C190 H173 0.940 . S
C190 C189 1.385 . S
C190 C191 1.388 . S
C191 H170 0.939 . S
C191 C186 1.391 . S
C191 C190 1.388 . S
P192 O203 1.490 . S
P192 C206 1.812 1_554 S
P192 C212 1.803 . S
P192 C218 1.819 . S
H193 C207 0.941 . S
H194 C208 0.939 . S
H195 C210 0.940 . S
H196 C211 0.945 1_554 S
H197 C213 0.939 . S
H198 C214 0.942 . S
H199 C216 0.940 . S
H200 C217 0.955 . S
H201 C219 0.941 . S
H202 C223 0.934 1_565 S
O203 P192 1.490 . S
H204 C220 0.939 . S
H205 C222 0.940 . S
C206 P192 1.812 1_556 S
C206 C207 1.389 . S
C206 C211 1.383 1_545 S
C207 H193 0.941 . S
C207 C206 1.389 . S
C207 C208 1.397 . S
C208 H194 0.939 . S
C208 C207 1.397 . S
C208 C209 1.378 . S
C209 C208 1.378 . S
C209 C210 1.378 1_545 S
C210 H195 0.940 . S
C210 C209 1.378 1_565 S
C210 C211 1.399 . S
C211 H196 0.945 1_556 S
C211 C206 1.383 1_565 S
C211 C210 1.399 . S
C212 P192 1.803 . S
C212 C213 1.378 . S
C212 C217 1.378 1_545 S
C213 H197 0.939 . S
C213 C212 1.378 . S
C213 C214 1.361 . S
C214 H198 0.942 . S
C214 C213 1.361 . S
C214 C215 1.369 . S
C215 C214 1.369 . S
C215 C216 1.404 1_545 S
C216 H199 0.940 . S
C216 C215 1.404 1_565 S
C216 C217 1.396 . S
C217 H200 0.955 . S
C217 C212 1.378 1_565 S
C217 C216 1.396 . S
C218 P192 1.819 . S
C218 C219 1.391 . S
C218 C223 1.391 . S
C219 H201 0.941 . S
C219 C218 1.391 . S
C219 C220 1.396 . S
C220 H204 0.939 . S
C220 C219 1.396 . S
C220 C221 1.397 . S
C221 C220 1.397 . S
C221 C222 1.385 1_545 S
C222 H205 0.940 . S
C222 C221 1.385 1_565 S
C222 C223 1.388 1_565 S
C223 H202 0.934 1_545 S
C223 C218 1.391 . S
C223 C222 1.388 1_545 S
P224 O235 1.490 . S
P224 C238 1.812 1_554 S
P224 C244 1.803 . S
P224 C250 1.819 . S
H225 C239 0.941 . S
H226 C240 0.939 . S
H227 C242 0.940 . S
H228 C243 0.940 . S
H229 C245 0.939 . S
H230 C246 0.942 . S
H231 C248 0.940 . S
H232 C249 0.942 . S
H233 C251 0.941 . S
H234 C255 0.939 . S
O235 P224 1.490 . S
H236 C252 0.939 . S
H237 C254 0.940 . S
C238 P224 1.812 1_556 S
C238 C239 1.389 . S
C238 C243 1.391 . S
C239 H225 0.941 . S
C239 C238 1.389 . S
C239 C240 1.397 . S
C240 H226 0.939 . S
C240 C239 1.397 . S
C240 C241 1.378 . S
C241 C240 1.378 . S
C241 C242 1.378 . S
C242 H227 0.940 . S
C242 C241 1.378 . S
C242 C243 1.396 . S
C243 H228 0.940 . S
C243 C238 1.391 . S
C243 C242 1.396 . S
C244 P224 1.803 . S
C244 C245 1.378 . S
C244 C249 1.400 . S
C245 H229 0.939 . S
C245 C244 1.378 . S
C245 C246 1.361 . S
C246 H230 0.942 . S
C246 C245 1.361 . S
C246 C247 1.369 . S
C247 C246 1.369 . S
C247 C248 1.404 . S
C248 H231 0.940 . S
C248 C247 1.404 . S
C248 C249 1.389 . S
C249 H232 0.942 . S
C249 C244 1.400 . S
C249 C248 1.389 . S
C250 P224 1.819 . S
C250 C251 1.391 . S
C250 C255 1.391 . S
C251 H233 0.941 . S
C251 C250 1.391 . S
C251 C252 1.396 . S
C252 H236 0.939 . S
C252 C251 1.396 . S
C252 C253 1.397 . S
C253 C252 1.397 . S
C253 C254 1.385 . S
C254 H237 0.940 . S
C254 C253 1.385 . S
C254 C255 1.388 . S
C255 H234 0.939 . S
C255 C250 1.391 . S
C255 C254 1.388 . S
Dy256 O260 2.398 . S
Dy256 O261 2.491 1_455 S
Dy256 O262 2.403 . S
Dy256 O263 2.664 1_565 S
Dy256 O267 2.326 . S
Dy256 O271 2.310 1_455 S
Dy256 O272 2.351 1_565 S
C257 O268 1.185 1_455 S
C257 O269 1.355 . S
C258 O260 1.185 . S
C258 O261 1.355 1_455 S
Dy259 O263 2.310 1_655 S
Dy259 O266 2.351 1_545 S
Dy259 O268 2.398 . S
Dy259 O269 2.491 1_655 S
Dy259 O270 2.403 . S
Dy259 O271 2.664 1_545 S
Dy259 O273 2.326 1_655 S
O260 Dy256 2.398 . S
O260 C258 1.185 . S
O261 Dy256 2.491 1_655 S
O261 C258 1.355 1_655 S
O262 Dy256 2.403 . S
O262 C264 1.254 . S
O263 Dy256 2.664 1_545 S
O263 Dy259 2.310 1_455 S
O263 C264 1.268 1_545 S
C264 O262 1.254 . S
C264 O263 1.268 1_565 S
C265 O270 1.254 . S
C265 O271 1.268 1_545 S
O266 Dy259 2.351 1_565 S
O266 C274 1.249 . S
O267 Dy256 2.326 . S
O267 C274 1.267 1_455 S
O268 C257 1.185 1_655 S
O268 Dy259 2.398 . S
O269 C257 1.355 . S
O269 Dy259 2.491 1_455 S
O270 Dy259 2.403 . S
O270 C265 1.254 . S
O271 Dy256 2.310 1_655 S
O271 Dy259 2.664 1_565 S
O271 C265 1.268 1_565 S
O272 Dy256 2.351 1_545 S
O272 C275 1.249 . S
O273 Dy259 2.326 1_455 S
O273 C275 1.267 . S
C274 O266 1.249 . S
C274 O267 1.267 1_655 S
C275 O272 1.249 . S
C275 O273 1.267 . S
Dy276 O280 2.398 . S
Dy276 O281 2.491 . S
Dy276 O282 2.403 . S
Dy276 O283 2.664 . S
Dy276 O287 2.326 1_565 S
Dy276 O291 2.310 1_565 S
Dy276 O292 2.351 . S
C277 O288 1.185 . S
C277 O289 1.355 . S
C278 O280 1.185 . S
C278 O281 1.355 . S
Dy279 O283 2.310 1_545 S
Dy279 O286 2.351 . S
Dy279 O288 2.398 . S
Dy279 O289 2.491 . S
Dy279 O290 2.403 . S
Dy279 O291 2.664 . S
Dy279 O293 2.326 1_545 S
O280 Dy276 2.398 . S
O280 C278 1.185 . S
O281 Dy276 2.491 . S
O281 C278 1.355 . S
O282 Dy276 2.403 . S
O282 C284 1.254 . S
O283 Dy276 2.664 . S
O283 Dy279 2.310 1_565 S
O283 C284 1.268 . S
C284 O282 1.254 . S
C284 O283 1.268 . S
C285 O290 1.254 . S
C285 O291 1.268 . S
O286 Dy279 2.351 . S
O286 C294 1.249 . S
O287 Dy276 2.326 1_545 S
O287 C294 1.267 . S
O288 C277 1.185 . S
O288 Dy279 2.398 . S
O289 C277 1.355 . S
O289 Dy279 2.491 . S
O290 Dy279 2.403 . S
O290 C285 1.254 . S
O291 Dy276 2.310 1_545 S
O291 Dy279 2.664 . S
O291 C285 1.268 . S
O292 Dy276 2.351 . S
O292 C295 1.249 . S
O293 Dy279 2.326 1_565 S
O293 C295 1.267 . S
C294 O286 1.249 . S
C294 O287 1.267 . S
C295 O292 1.249 . S
C295 O293 1.267 . S
Dy296 O300 2.398 . S
Dy296 O301 2.491 . S
Dy296 O302 2.403 . S
Dy296 O303 2.664 . S
Dy296 O307 2.326 . S
Dy296 O311 2.310 . S
Dy296 O312 2.351 . S
C297 O308 1.185 . S
C297 O309 1.355 . S
C298 O300 1.185 . S
C298 O301 1.355 . S
Dy299 O303 2.310 . S
Dy299 O306 2.351 . S
Dy299 O308 2.398 . S
Dy299 O309 2.491 . S
Dy299 O310 2.403 . S
Dy299 O311 2.664 . S
Dy299 O313 2.326 . S
O300 Dy296 2.398 . S
O300 C298 1.185 . S
O301 Dy296 2.491 . S
O301 C298 1.355 . S
O302 Dy296 2.403 . S
O302 C304 1.254 . S
O303 Dy296 2.664 . S
O303 Dy299 2.310 . S
O303 C304 1.268 . S
C304 O302 1.254 . S
C304 O303 1.268 . S
C305 O310 1.254 . S
C305 O311 1.268 . S
O306 Dy299 2.351 . S
O306 C314 1.249 . S
O307 Dy296 2.326 . S
O307 C314 1.267 . S
O308 C297 1.185 . S
O308 Dy299 2.398 . S
O309 C297 1.355 . S
O309 Dy299 2.491 . S
O310 Dy299 2.403 . S
O310 C305 1.254 . S
O311 Dy296 2.310 . S
O311 Dy299 2.664 . S
O311 C305 1.268 . S
O312 Dy296 2.351 . S
O312 C315 1.249 . S
O313 Dy299 2.326 . S
O313 C315 1.267 . S
C314 O306 1.249 . S
C314 O307 1.267 . S
C315 O312 1.249 . S
C315 O313 1.267 . S
Dy316 O320 2.398 . S
Dy316 O321 2.491 . S
Dy316 O322 2.403 1_655 S
Dy316 O323 2.664 1_655 S
Dy316 O327 2.326 . S
Dy316 O331 2.310 . S
Dy316 O332 2.351 1_655 S
C317 O328 1.185 . S
C317 O329 1.355 . S
C318 O320 1.185 . S
C318 O321 1.355 . S
Dy319 O323 2.310 . S
Dy319 O326 2.351 1_455 S
Dy319 O328 2.398 . S
Dy319 O329 2.491 . S
Dy319 O330 2.403 . S
Dy319 O331 2.664 1_455 S
Dy319 O333 2.326 . S
O320 Dy316 2.398 . S
O320 C318 1.185 . S
O321 Dy316 2.491 . S
O321 C318 1.355 . S
O322 Dy316 2.403 1_455 S
O322 C324 1.254 . S
O323 Dy316 2.664 1_455 S
O323 Dy319 2.310 . S
O323 C324 1.268 . S
C324 O322 1.254 . S
C324 O323 1.268 . S
C325 O330 1.254 1_655 S
C325 O331 1.268 . S
O326 Dy319 2.351 1_655 S
O326 C334 1.249 . S
O327 Dy316 2.326 . S
O327 C334 1.267 . S
O328 C317 1.185 . S
O328 Dy319 2.398 . S
O329 C317 1.355 . S
O329 Dy319 2.491 . S
O330 Dy319 2.403 . S
O330 C325 1.254 1_455 S
O331 Dy316 2.310 . S
O331 Dy319 2.664 1_655 S
O331 C325 1.268 . S
O332 Dy316 2.351 1_455 S
O332 C335 1.249 . S
O333 Dy319 2.326 . S
O333 C335 1.267 . S
C334 O326 1.249 . S
C334 O327 1.267 . S
C335 O332 1.249 . S
C335 O333 1.267 . S
H336 C342 0.930 . S
H337 C345 0.930 . S
H338 C346 0.930 . S
H339 C347 0.930 . S
H340 C350 0.930 . S
H341 C351 0.930 . S
C342 H336 0.930 . S
C342 C343 1.357 . S
C342 C344 1.415 . S
C343 C342 1.357 . S
C343 C345 1.416 1_565 S
C344 C342 1.415 . S
C344 C349 1.425 1_565 S
C344 C351 1.409 . S
C345 H337 0.930 . S
C345 C343 1.416 1_545 S
C345 C346 1.362 . S
C346 H338 0.930 . S
C346 C345 1.362 . S
C346 C349 1.409 . S
C347 H339 0.930 . S
C347 C348 1.355 1_545 S
C347 C349 1.415 . S
C348 C347 1.355 1_565 S
C348 C350 1.419 . S
C349 C344 1.425 1_545 S
C349 C346 1.409 . S
C349 C347 1.415 . S
C350 H340 0.930 . S
C350 C348 1.419 . S
C350 C351 1.362 . S
C351 H341 0.930 . S
C351 C344 1.409 . S
C351 C350 1.362 . S
H352 C358 0.930 . S
H353 C361 0.930 . S
H354 C362 0.930 . S
H355 C363 0.930 . S
H356 C366 0.930 . S
H357 C367 0.930 . S
C358 H352 0.930 . S
C358 C359 1.355 . S
C358 C360 1.415 . S
C359 C358 1.355 . S
C359 C361 1.419 . S
C360 C358 1.415 . S
C360 C365 1.425 . S
C360 C367 1.409 . S
C361 H353 0.930 . S
C361 C359 1.419 . S
C361 C362 1.362 . S
C362 H354 0.930 . S
C362 C361 1.362 . S
C362 C365 1.409 . S
C363 H355 0.930 . S
C363 C364 1.355 . S
C363 C365 1.415 . S
C364 C363 1.355 . S
C364 C366 1.419 . S
C365 C360 1.425 . S
C365 C362 1.409 . S
C365 C363 1.415 . S
C366 H356 0.930 . S
C366 C364 1.419 . S
C366 C367 1.362 . S
C367 H357 0.930 . S
C367 C360 1.409 . S
C367 C366 1.362 . S
H368 C374 0.930 . S
H369 C377 0.930 . S
H370 C378 0.930 . S
H371 C379 0.930 . S
H372 C382 0.930 . S
H373 C383 0.930 . S
C374 H368 0.930 . S
C374 C375 1.355 . S
C374 C376 1.415 . S
C375 C374 1.355 . S
C375 C377 1.419 . S
C376 C374 1.415 . S
C376 C381 1.425 . S
C376 C383 1.409 . S
C377 H369 0.930 . S
C377 C375 1.419 . S
C377 C378 1.362 . S
C378 H370 0.930 . S
C378 C377 1.362 . S
C378 C381 1.409 . S
C379 H371 0.930 . S
C379 C380 1.355 . S
C379 C381 1.415 . S
C380 C379 1.355 . S
C380 C382 1.419 . S
C381 C376 1.425 . S
C381 C378 1.409 . S
C381 C379 1.415 . S
C382 H372 0.930 . S
C382 C380 1.419 . S
C382 C383 1.362 . S
C383 H373 0.930 . S
C383 C376 1.409 . S
C383 C382 1.362 . S
H384 C390 0.930 . S
H385 C393 0.930 . S
H386 C394 0.930 . S
H387 C395 0.930 . S
H388 C398 0.930 . S
H389 C399 0.930 . S
C390 H384 0.930 . S
C390 C391 1.355 . S
C390 C392 1.415 . S
C391 C390 1.355 . S
C391 C393 1.419 . S
C392 C390 1.415 . S
C392 C397 1.425 . S
C392 C399 1.409 . S
C393 H385 0.930 . S
C393 C391 1.419 . S
C393 C394 1.362 . S
C394 H386 0.930 . S
C394 C393 1.362 . S
C394 C397 1.409 . S
C395 H387 0.930 . S
C395 C396 1.355 . S
C395 C397 1.415 . S
C396 C395 1.355 . S
C396 C398 1.419 . S
C397 C392 1.425 . S
C397 C394 1.409 . S
C397 C395 1.415 . S
C398 H388 0.930 . S
C398 C396 1.419 . S
C398 C399 1.362 . S
C399 H389 0.930 . S
C399 C392 1.409 . S
C399 C398 1.362 . S
H400 C406 0.930 . S
H401 C409 0.930 . S
H402 C410 0.930 . S
H403 C411 0.930 . S
H404 C414 0.930 . S
H405 C415 0.930 . S
C406 H400 0.930 . S
C406 C407 1.351 1_545 S
C406 C408 1.415 . S
C407 C406 1.351 1_565 S
C407 C409 1.424 . S
C408 C406 1.415 . S
C408 C413 1.425 1_545 S
C408 C415 1.409 . S
C409 H401 0.930 . S
C409 C407 1.424 . S
C409 C410 1.362 . S
C410 H402 0.930 . S
C410 C409 1.362 . S
C410 C413 1.409 . S
C411 H403 0.930 . S
C411 C412 1.355 1_565 S
C411 C413 1.415 . S
C412 C411 1.355 1_545 S
C412 C414 1.419 . S
C413 C408 1.425 1_565 S
C413 C410 1.409 . S
C413 C411 1.415 . S
C414 H404 0.930 . S
C414 C412 1.419 . S
C414 C415 1.362 . S
C415 H405 0.930 . S
C415 C408 1.409 . S
C415 C414 1.362 . S
H416 C422 0.930 . S
H417 C425 0.940 . S
H418 C426 0.930 . S
H419 C427 0.930 . S
H420 C430 0.930 . S
H421 C431 0.930 . S
C422 H416 0.930 . S
C422 C423 1.355 . S
C422 C424 1.415 . S
C423 C422 1.355 . S
C423 C425 1.419 . S
C424 C422 1.415 . S
C424 C429 1.425 . S
C424 C431 1.409 . S
C425 H417 0.940 . S
C425 C423 1.419 . S
C425 C426 1.362 . S
C426 H418 0.930 . S
C426 C425 1.362 . S
C426 C429 1.409 . S
C427 H419 0.930 . S
C427 C428 1.355 . S
C427 C429 1.415 . S
C428 C427 1.355 . S
C428 C430 1.419 . S
C429 C424 1.425 . S
C429 C426 1.409 . S
C429 C427 1.415 . S
C430 H420 0.930 . S
C430 C428 1.419 . S
C430 C431 1.362 . S
C431 H421 0.930 . S
C431 C424 1.409 . S
C431 C430 1.362 . S
H432 C438 0.930 . S
H433 C441 0.930 . S
H434 C442 0.930 . S
H435 C443 0.930 . S
H436 C446 0.930 . S
H437 C447 0.930 . S
C438 H432 0.930 . S
C438 C439 1.355 . S
C438 C440 1.415 . S
C439 C438 1.355 . S
C439 C441 1.419 . S
C440 C438 1.415 . S
C440 C445 1.425 . S
C440 C447 1.409 . S
C441 H433 0.930 . S
C441 C439 1.419 . S
C441 C442 1.362 . S
C442 H434 0.930 . S
C442 C441 1.362 . S
C442 C445 1.409 . S
C443 H435 0.930 . S
C443 C444 1.355 . S
C443 C445 1.415 . S
C444 C443 1.355 . S
C444 C446 1.419 . S
C445 C440 1.425 . S
C445 C442 1.409 . S
C445 C443 1.415 . S
C446 H436 0.930 . S
C446 C444 1.419 . S
C446 C447 1.362 . S
C447 H437 0.930 . S
C447 C440 1.409 . S
C447 C446 1.362 . S
H448 C454 0.930 . S
H449 C457 0.930 . S
H450 C458 0.930 . S
H451 C459 0.930 . S
H452 C462 0.930 . S
H453 C463 0.930 1_455 S
C454 H448 0.930 . S
C454 C455 1.355 . S
C454 C456 1.415 . S
C455 C454 1.355 . S
C455 C457 1.419 . S
C456 C454 1.415 . S
C456 C461 1.425 . S
C456 C463 1.409 . S
C457 H449 0.930 . S
C457 C455 1.419 . S
C457 C458 1.362 . S
C458 H450 0.930 . S
C458 C457 1.362 . S
C458 C461 1.409 . S
C459 H451 0.930 . S
C459 C460 1.355 . S
C459 C461 1.415 . S
C460 C459 1.355 . S
C460 C462 1.419 1_655 S
C461 C456 1.425 . S
C461 C458 1.409 . S
C461 C459 1.415 . S
C462 H452 0.930 . S
C462 C460 1.419 1_455 S
C462 C463 1.362 1_455 S
C463 H453 0.930 1_655 S
C463 C456 1.409 . S
C463 C462 1.362 1_655 S
H464 C470 0.930 . S
H465 C473 0.930 . S
H466 C474 0.930 . S
H467 C475 0.930 . S
H468 C478 0.930 . S
H469 C479 0.930 . S
C470 H464 0.930 . S
C470 C471 1.355 . S
C470 C472 1.415 . S
C471 C470 1.355 . S
C471 C473 1.419 . S
C472 C470 1.415 . S
C472 C477 1.425 . S
C472 C479 1.409 . S
C473 H465 0.930 . S
C473 C471 1.419 . S
C473 C474 1.362 . S
C474 H466 0.930 . S
C474 C473 1.362 . S
C474 C477 1.409 . S
C475 H467 0.930 . S
C475 C476 1.355 . S
C475 C477 1.415 . S
C476 C475 1.355 . S
C476 C478 1.419 . S
C477 C472 1.425 . S
C477 C474 1.409 . S
C477 C475 1.415 . S
C478 H468 0.930 . S
C478 C476 1.419 . S
C478 C479 1.362 . S
C479 H469 0.930 . S
C479 C472 1.409 . S
C479 C478 1.362 . S
H480 C486 0.930 . S
H481 C489 0.930 . S
H482 C490 0.930 . S
H483 C491 0.930 . S
H484 C494 0.930 . S
H485 C495 0.930 . S
C486 H480 0.930 . S
C486 C487 1.355 1_545 S
C486 C488 1.415 . S
C487 C486 1.355 1_565 S
C487 C489 1.419 . S
C488 C486 1.415 . S
C488 C493 1.425 1_545 S
C488 C495 1.409 . S
C489 H481 0.930 . S
C489 C487 1.419 . S
C489 C490 1.362 . S
C490 H482 0.930 . S
C490 C489 1.362 . S
C490 C493 1.409 . S
C491 H483 0.930 . S
C491 C492 1.355 . S
C491 C493 1.415 . S
C492 C491 1.355 . S
C492 C494 1.419 1_565 S
C493 C488 1.425 1_565 S
C493 C490 1.409 . S
C493 C491 1.415 . S
C494 H484 0.930 . S
C494 C492 1.419 1_545 S
C494 C495 1.362 . S
C495 H485 0.930 . S
C495 C488 1.409 . S
C495 C494 1.362 . S
H496 C502 0.930 . S
H497 C505 0.930 . S
H498 C506 0.930 . S
H499 C507 0.930 . S
H500 C510 0.930 . S
H501 C511 0.930 . S
C502 H496 0.930 . S
C502 C503 1.355 . S
C502 C504 1.415 . S
C503 C502 1.355 . S
C503 C505 1.419 . S
C504 C502 1.415 . S
C504 C509 1.425 . S
C504 C511 1.409 . S
C505 H497 0.930 . S
C505 C503 1.419 . S
C505 C506 1.362 . S
C506 H498 0.930 . S
C506 C505 1.362 . S
C506 C509 1.409 . S
C507 H499 0.930 . S
C507 C508 1.355 . S
C507 C509 1.415 . S
C508 C507 1.355 . S
C508 C510 1.419 . S
C509 C504 1.425 . S
C509 C506 1.409 . S
C509 C507 1.415 . S
C510 H500 0.930 . S
C510 C508 1.419 . S
C510 C511 1.362 . S
C511 H501 0.930 . S
C511 C504 1.409 . S
C511 C510 1.362 . S
H512 C518 0.930 . S
H513 C521 0.930 . S
H514 C522 0.930 . S
H515 C523 0.930 . S
H516 C526 0.930 . S
H517 C527 0.930 . S
C518 H512 0.930 . S
C518 C519 1.355 . S
C518 C520 1.415 . S
C519 C518 1.355 . S
C519 C521 1.419 . S
C520 C518 1.415 . S
C520 C525 1.425 . S
C520 C527 1.409 . S
C521 H513 0.930 . S
C521 C519 1.419 . S
C521 C522 1.362 . S
C522 H514 0.930 . S
C522 C521 1.362 . S
C522 C525 1.409 . S
C523 H515 0.930 . S
C523 C524 1.355 . S
C523 C525 1.415 . S
C524 C523 1.355 . S
C524 C526 1.419 . S
C525 C520 1.425 . S
C525 C522 1.409 . S
C525 C523 1.415 . S
C526 H516 0.930 . S
C526 C524 1.419 . S
C526 C527 1.362 . S
C527 H517 0.930 . S
C527 C520 1.409 . S
C527 C526 1.362 . S
H528 C534 0.930 . S
H529 C537 0.930 . S
H530 C538 0.930 . S
H531 C539 0.930 . S
H532 C542 0.930 . S
H533 C543 0.930 . S
C534 H528 0.930 . S
C534 C535 1.355 . S
C534 C536 1.415 . S
C535 C534 1.355 . S
C535 C537 1.419 . S
C536 C534 1.415 . S
C536 C541 1.425 . S
C536 C543 1.409 . S
C537 H529 0.930 . S
C537 C535 1.419 . S
C537 C538 1.362 . S
C538 H530 0.930 . S
C538 C537 1.362 . S
C538 C541 1.409 . S
C539 H531 0.930 . S
C539 C540 1.355 1_655 S
C539 C541 1.415 . S
C540 C539 1.355 1_455 S
C540 C542 1.419 . S
C541 C536 1.425 . S
C541 C538 1.409 . S
C541 C539 1.415 . S
C542 H532 0.930 . S
C542 C540 1.419 . S
C542 C543 1.362 1_455 S
C543 H533 0.930 . S
C543 C536 1.409 . S
C543 C542 1.362 1_655 S
H544 C550 0.930 . S
H545 C553 0.930 . S
H546 C554 0.930 . S
H547 C555 0.930 . S
H548 C558 0.930 . S
H549 C559 0.930 . S
C550 H544 0.930 . S
C550 C551 1.355 1_545 S
C550 C552 1.415 . S
C551 C550 1.355 1_565 S
C551 C553 1.419 . S
C552 C550 1.415 . S
C552 C557 1.425 1_545 S
C552 C559 1.409 . S
C553 H545 0.930 . S
C553 C551 1.419 . S
C553 C554 1.362 . S
C554 H546 0.930 . S
C554 C553 1.362 . S
C554 C557 1.409 . S
C555 H547 0.930 . S
C555 C556 1.355 1_565 S
C555 C557 1.415 . S
C556 C555 1.355 1_545 S
C556 C558 1.419 . S
C557 C552 1.425 1_565 S
C557 C554 1.409 . S
C557 C555 1.415 . S
C558 H548 0.930 . S
C558 C556 1.419 . S
C558 C559 1.362 . S
C559 H549 0.930 . S
C559 C552 1.409 . S
C559 C558 1.362 . S
H560 C566 0.930 . S
H561 C569 0.930 . S
H562 C570 0.930 . S
H563 C571 0.930 . S
H564 C574 0.930 . S
H565 C575 0.930 . S
C566 H560 0.930 . S
C566 C567 1.355 . S
C566 C568 1.415 . S
C567 C566 1.355 . S
C567 C569 1.419 . S
C568 C566 1.415 . S
C568 C573 1.425 . S
C568 C575 1.409 . S
C569 H561 0.930 . S
C569 C567 1.419 . S
C569 C570 1.362 . S
C570 H562 0.930 . S
C570 C569 1.362 . S
C570 C573 1.409 . S
C571 H563 0.930 . S
C571 C572 1.355 . S
C571 C573 1.415 . S
C572 C571 1.355 . S
C572 C574 1.419 . S
C573 C568 1.425 . S
C573 C570 1.409 . S
C573 C571 1.415 . S
C574 H564 0.930 . S
C574 C572 1.419 . S
C574 C575 1.362 . S
C575 H565 0.930 . S
C575 C568 1.409 . S
C575 C574 1.362 . S
H576 C582 0.930 . S
H577 C585 0.930 . S
H578 C586 0.930 . S
H579 C587 0.930 . S
H580 C590 0.930 . S
H581 C591 0.930 . S
C582 H576 0.930 . S
C582 C583 1.355 . S
C582 C584 1.415 . S
C583 C582 1.355 . S
C583 C585 1.419 . S
C584 C582 1.415 . S
C584 C589 1.425 . S
C584 C591 1.409 . S
C585 H577 0.930 . S
C585 C583 1.419 . S
C585 C586 1.362 . S
C586 H578 0.930 . S
C586 C585 1.362 . S
C586 C589 1.409 . S
C587 H579 0.930 . S
C587 C588 1.355 . S
C587 C589 1.415 . S
C588 C587 1.355 . S
C588 C590 1.419 . S
C589 C584 1.425 . S
C589 C586 1.409 . S
C589 C587 1.415 . S
C590 H580 0.930 . S
C590 C588 1.419 . S
C590 C591 1.362 . S
C591 H581 0.930 . S
C591 C584 1.409 . S
C591 C590 1.362 . S
H592 C598 0.930 . S
H593 C601 0.930 . S
H594 C602 0.930 . S
H595 C603 0.930 . S
H596 C606 0.930 . S
H597 C607 0.930 . S
C598 H592 0.930 . S
C598 C599 1.355 . S
C598 C600 1.415 . S
C599 C598 1.355 . S
C599 C601 1.419 . S
C600 C598 1.415 . S
C600 C605 1.425 . S
C600 C607 1.409 . S
C601 H593 0.930 . S
C601 C599 1.419 . S
C601 C602 1.362 . S
C602 H594 0.930 . S
C602 C601 1.362 . S
C602 C605 1.409 . S
C603 H595 0.930 . S
C603 C604 1.355 . S
C603 C605 1.415 . S
C604 C603 1.355 . S
C604 C606 1.419 . S
C605 C600 1.425 . S
C605 C602 1.409 . S
C605 C603 1.415 . S
C606 H596 0.930 . S
C606 C604 1.419 . S
C606 C607 1.362 . S
C607 H597 0.930 . S
C607 C600 1.409 . S
C607 C606 1.362 . S
H608 C614 0.930 . S
H609 C617 0.930 . S
H610 C618 0.930 . S
H611 C619 0.930 . S
H612 C622 0.930 . S
H613 C623 0.930 . S
C614 H608 0.930 . S
C614 C615 1.331 1_545 S
C614 C616 1.415 . S
C615 C614 1.331 1_565 S
C615 C617 1.451 . S
C616 C614 1.415 . S
C616 C621 1.425 1_545 S
C616 C623 1.409 . S
C617 H609 0.930 . S
C617 C615 1.451 . S
C617 C618 1.362 . S
C618 H610 0.930 . S
C618 C617 1.362 . S
C618 C621 1.409 . S
C619 H611 0.930 . S
C619 C620 1.355 1_565 S
C619 C621 1.415 . S
C620 C619 1.355 1_545 S
C620 C622 1.419 . S
C621 C616 1.425 1_565 S
C621 C618 1.409 . S
C621 C619 1.415 . S
C622 H612 0.930 . S
C622 C620 1.419 . S
C622 C623 1.362 . S
C623 H613 0.930 . S
C623 C616 1.409 . S
C623 C622 1.362 . S
H624 C630 0.930 . S
H625 C633 0.930 . S
H626 C634 0.930 . S
H627 C635 0.930 . S
H628 C638 0.930 . S
H629 C639 0.930 . S
C630 H624 0.930 . S
C630 C631 1.355 . S
C630 C632 1.415 . S
C631 C630 1.355 . S
C631 C633 1.419 . S
C632 C630 1.415 . S
C632 C637 1.425 . S
C632 C639 1.409 . S
C633 H625 0.930 . S
C633 C631 1.419 . S
C633 C634 1.362 . S
C634 H626 0.930 . S
C634 C633 1.362 . S
C634 C637 1.409 . S
C635 H627 0.930 . S
C635 C636 1.355 . S
C635 C637 1.415 . S
C636 C635 1.355 . S
C636 C638 1.419 . S
C637 C632 1.425 . S
C637 C634 1.409 . S
C637 C635 1.415 . S
C638 H628 0.930 . S
C638 C636 1.419 . S
C638 C639 1.362 . S
C639 H629 0.930 . S
C639 C632 1.409 . S
C639 C638 1.362 . S
H640 C646 0.930 . S
H641 C649 0.930 . S
H642 C650 0.930 . S
H643 C651 0.930 . S
H644 C654 0.930 . S
H645 C655 0.930 . S
C646 H640 0.930 . S
C646 C647 1.355 . S
C646 C648 1.415 . S
C647 C646 1.355 . S
C647 C649 1.419 . S
C648 C646 1.415 . S
C648 C653 1.425 . S
C648 C655 1.409 . S
C649 H641 0.930 . S
C649 C647 1.419 . S
C649 C650 1.362 . S
C650 H642 0.930 . S
C650 C649 1.362 . S
C650 C653 1.409 . S
C651 H643 0.930 . S
C651 C652 1.355 . S
C651 C653 1.415 . S
C652 C651 1.355 . S
C652 C654 1.419 . S
C653 C648 1.425 . S
C653 C650 1.409 . S
C653 C651 1.415 . S
C654 H644 0.930 . S
C654 C652 1.419 . S
C654 C655 1.362 . S
C655 H645 0.930 . S
C655 C648 1.409 . S
C655 C654 1.362 . S
H656 C662 0.930 . S
H657 C665 0.930 . S
H658 C666 0.930 1_455 S
H659 C667 0.930 1_455 S
H660 C670 0.930 . S
H661 C671 0.930 . S
C662 H656 0.930 . S
C662 C663 1.355 . S
C662 C664 1.415 . S
C663 C662 1.355 . S
C663 C665 1.419 . S
C664 C662 1.415 . S
C664 C669 1.425 . S
C664 C671 1.409 . S
C665 H657 0.930 . S
C665 C663 1.419 . S
C665 C666 1.362 . S
C666 H658 0.930 1_655 S
C666 C665 1.362 . S
C666 C669 1.409 . S
C667 H659 0.930 1_655 S
C667 C668 1.355 . S
C667 C669 1.415 . S
C668 C667 1.355 . S
C668 C670 1.419 . S
C669 C664 1.425 . S
C669 C666 1.409 . S
C669 C667 1.415 . S
C670 H660 0.930 . S
C670 C668 1.419 . S
C670 C671 1.362 . S
C671 H661 0.930 . S
C671 C664 1.409 . S
C671 C670 1.362 . S
H672 C678 0.930 . S
H673 C681 0.930 . S
H674 C682 0.930 . S
H675 C683 0.930 . S
H676 C686 0.930 . S
H677 C687 0.930 . S
C678 H672 0.930 . S
C678 C679 1.349 1_545 S
C678 C680 1.416 . S
C679 C678 1.349 1_565 S
C679 C681 1.426 . S
C680 C678 1.416 . S
C680 C685 1.415 1_545 S
C680 C687 1.419 . S
C681 H673 0.930 . S
C681 C679 1.426 . S
C681 C682 1.362 . S
C682 H674 0.930 . S
C682 C681 1.362 . S
C682 C685 1.409 . S
C683 H675 0.930 . S
C683 C684 1.355 . S
C683 C685 1.415 . S
C684 C683 1.355 . S
C684 C686 1.419 1_565 S
C685 C680 1.415 1_565 S
C685 C682 1.409 . S
C685 C683 1.415 . S
C686 H676 0.930 . S
C686 C684 1.419 1_545 S
C686 C687 1.362 . S
C687 H677 0.930 . S
C687 C680 1.419 . S
C687 C686 1.362 . S
H688 C694 0.930 . S
H689 C697 0.930 . S
H690 C698 0.930 . S
H691 C699 0.930 . S
H692 C702 0.930 . S
H693 C703 0.930 . S
C694 H688 0.930 . S
C694 C695 1.355 . S
C694 C696 1.415 . S
C695 C694 1.355 . S
C695 C697 1.419 . S
C696 C694 1.415 . S
C696 C701 1.425 . S
C696 C703 1.409 . S
C697 H689 0.930 . S
C697 C695 1.419 . S
C697 C698 1.362 . S
C698 H690 0.930 . S
C698 C697 1.362 . S
C698 C701 1.409 . S
C699 H691 0.930 . S
C699 C700 1.355 . S
C699 C701 1.415 . S
C700 C699 1.355 . S
C700 C702 1.419 . S
C701 C696 1.425 . S
C701 C698 1.409 . S
C701 C699 1.415 . S
C702 H692 0.930 . S
C702 C700 1.419 . S
C702 C703 1.362 . S
C703 H693 0.930 . S
C703 C696 1.409 . S
C703 C702 1.362 . S
H704 C710 0.930 . S
H705 C713 0.930 . S
H706 C714 0.930 . S
H707 C715 0.930 . S
H708 C718 0.930 . S
H709 C719 0.930 . S
C710 H704 0.930 . S
C710 C711 1.355 . S
C710 C712 1.415 . S
C711 C710 1.355 . S
C711 C713 1.419 . S
C712 C710 1.415 . S
C712 C717 1.425 . S
C712 C719 1.409 . S
C713 H705 0.930 . S
C713 C711 1.419 . S
C713 C714 1.362 . S
C714 H706 0.930 . S
C714 C713 1.362 . S
C714 C717 1.409 . S
C715 H707 0.930 . S
C715 C716 1.355 . S
C715 C717 1.415 . S
C716 C715 1.355 . S
C716 C718 1.419 . S
C717 C712 1.425 . S
C717 C714 1.409 . S
C717 C715 1.415 . S
C718 H708 0.930 . S
C718 C716 1.419 . S
C718 C719 1.362 . S
C719 H709 0.930 . S
C719 C712 1.409 . S
C719 C718 1.362 . S
C343 C215 1.702 1_565 S
C348 C264 1.766 . S
C364 C294 2.222 . S
C359 C247 2.194 . S
C380 C304 1.831 . S
C375 C151 1.696 . S
C396 C324 1.715 . S
C391 C183 1.665 . S
C412 C265 1.753 . S
C407 C87 1.638 1_565 S
C423 C119 1.983 1_556 S
C428 C295 2.219 . S
C439 C23 1.788 . S
C444 C305 1.828 . S
C455 C55 1.568 . S
C460 C325 1.714 . S
C476 C257 0.863 . S
C471 C189 0.909 . S
C492 C278 0.545 . S
C487 C221 0.594 1_565 S
C508 C297 1.113 . S
C503 C253 1.124 . S
C519 C157 0.647 . S
C524 C317 0.715 . S
C535 C61 0.938 . S
C540 C258 0.924 . S
C556 C277 0.425 . S
C551 C93 0.592 1_565 S
C572 C298 1.119 . S
C567 C125 0.908 . S
C583 C29 0.638 . S
C588 C318 0.703 . S
C599 C177 2.106 . S
C604 C275 2.227 . S
C615 C209 1.719 1_565 S
C620 C285 1.887 . S
C636 C315 2.413 . S
C631 C241 2.263 . S
C652 C335 2.288 . S
C647 C145 2.052 . S
C663 C49 1.936 . S
C668 C274 2.226 . S
C684 C284 1.895 . S
C679 C81 1.734 1_565 S
C700 C314 2.406 . S
C695 C113 2.136 . S
C711 C17 2.207 . S
C716 C334 2.287 . S
