# Generated by pormake.
# Topology pyr, (3,6)-cn, num edge types: 1
# Building blocks:
#     Node 0, Type 0, BuildingBlock: PAMTOO_clean_linker_0, # of connection points: 3
#     Node 1, Type 0, BuildingBlock: PAMTOO_clean_linker_0, # of connection points: 3
#     Node 2, Type 0, BuildingBlock: PAMTOO_clean_linker_0, # of connection points: 3
#     Node 3, Type 0, BuildingBlock: PAMTOO_clean_linker_0, # of connection points: 3
#     Node 4, Type 0, BuildingBlock: PAMTOO_clean_linker_0, # of connection points: 3
#     Node 5, Type 0, BuildingBlock: PAMTOO_clean_linker_0, # of connection points: 3
#     Node 6, Type 0, BuildingBlock: PAMTOO_clean_linker_0, # of connection points: 3
#     Node 7, Type 0, BuildingBlock: PAMTOO_clean_linker_0, # of connection points: 3
#     Node 8, Type 1, BuildingBlock: MIFKUJ_clean_sbu_0, # of connection points: 6
#     Node 9, Type 1, BuildingBlock: MIFKUJ_clean_sbu_0, # of connection points: 6
#     Node 10, Type 1, BuildingBlock: MIFKUJ_clean_sbu_0, # of connection points: 6
#     Node 11, Type 1, BuildingBlock: MIFKUJ_clean_sbu_0, # of connection points: 6
#     Edge 12, Type (0, 1), BuildingBlock: XIVTED_clean_linker_0, # of connection points: 2
#     Edge 13, Type (0, 1), BuildingBlock: XIVTED_clean_linker_0, # of connection points: 2
#     Edge 14, Type (0, 1), BuildingBlock: XIVTED_clean_linker_0, # of connection points: 2
#     Edge 15, Type (0, 1), BuildingBlock: XIVTED_clean_linker_0, # of connection points: 2
#     Edge 16, Type (0, 1), BuildingBlock: XIVTED_clean_linker_0, # of connection points: 2
#     Edge 17, Type (0, 1), BuildingBlock: XIVTED_clean_linker_0, # of connection points: 2
#     Edge 18, Type (0, 1), BuildingBlock: XIVTED_clean_linker_0, # of connection points: 2
#     Edge 19, Type (0, 1), BuildingBlock: XIVTED_clean_linker_0, # of connection points: 2
#     Edge 20, Type (0, 1), BuildingBlock: XIVTED_clean_linker_0, # of connection points: 2
#     Edge 21, Type (0, 1), BuildingBlock: XIVTED_clean_linker_0, # of connection points: 2
#     Edge 22, Type (0, 1), BuildingBlock: XIVTED_clean_linker_0, # of connection points: 2
#     Edge 23, Type (0, 1), BuildingBlock: XIVTED_clean_linker_0, # of connection points: 2
#     Edge 24, Type (0, 1), BuildingBlock: XIVTED_clean_linker_0, # of connection points: 2
#     Edge 25, Type (0, 1), BuildingBlock: XIVTED_clean_linker_0, # of connection points: 2
#     Edge 26, Type (0, 1), BuildingBlock: XIVTED_clean_linker_0, # of connection points: 2
#     Edge 27, Type (0, 1), BuildingBlock: XIVTED_clean_linker_0, # of connection points: 2
#     Edge 28, Type (0, 1), BuildingBlock: XIVTED_clean_linker_0, # of connection points: 2
#     Edge 29, Type (0, 1), BuildingBlock: XIVTED_clean_linker_0, # of connection points: 2
#     Edge 30, Type (0, 1), BuildingBlock: XIVTED_clean_linker_0, # of connection points: 2
#     Edge 31, Type (0, 1), BuildingBlock: XIVTED_clean_linker_0, # of connection points: 2
#     Edge 32, Type (0, 1), BuildingBlock: XIVTED_clean_linker_0, # of connection points: 2
#     Edge 33, Type (0, 1), BuildingBlock: XIVTED_clean_linker_0, # of connection points: 2
#     Edge 34, Type (0, 1), BuildingBlock: XIVTED_clean_linker_0, # of connection points: 2
#     Edge 35, Type (0, 1), BuildingBlock: XIVTED_clean_linker_0, # of connection points: 2
# Relax obj value: 0.086
# Max RMSD: 0.215
# Mean RMSD: 0.139
data_MOF--net-pyr--node1-MIFKUJ_clean_sbu_0--node2-PAMTOO_clean_linker_0--edge1-XIVTED_clean_linker_0
_symmetry_space_group_name_H-M    P1
_symmetry_Int_Tables_number       1
_symmetry_cell_setting            triclinic
loop_
_symmetry_equiv_pos_as_xyz
'x, y, z'
_cell_length_a     38.662617
_cell_length_b     36.036832
_cell_length_c     37.913176
_cell_angle_alpha  85.342418
_cell_angle_beta   89.433395
_cell_angle_gamma 101.74455
loop_
_atom_site_label
_atom_site_type_symbol
_atom_site_fract_x
_atom_site_fract_y
_atom_site_fract_z
_atom_type_partial_charge
H0 H 0.16905 0.20984 0.26169 0.0
H1 H 0.24596 0.13863 0.27041 0.0
H2 H 0.2497 0.21921 0.18026 0.0
H3 H 0.2577 0.14426 0.16559 0.0
C4 C 0.27376 0.13714 0.18843 0.0
O5 O 0.27903 0.16628 0.2105 0.0
H6 H 0.25878 0.11059 0.20303 0.0
C7 C 0.1918 0.20083 0.25098 0.0
C8 C 0.20744 0.21824 0.21856 0.0
C9 C 0.20523 0.17196 0.26991 0.0
C10 C 0.23549 0.16128 0.2566 0.0
C11 C 0.25141 0.17848 0.22437 0.0
C12 C 0.23759 0.207 0.20558 0.0
H13 H 0.32985 0.90617 0.73817 0.0
H14 H 0.32166 0.83971 0.64766 0.0
H15 H 0.40414 0.83473 0.72107 0.0
H16 H 0.42335 0.8458 0.64509 0.0
C17 C 0.40247 0.82248 0.63637 0.0
O18 O 0.37683 0.81049 0.66276 0.0
H19 H 0.39033 0.83369 0.61239 0.0
C20 C 0.33928 0.88622 0.72252 0.0
C21 C 0.36882 0.8716 0.7337 0.0
C22 C 0.32175 0.87493 0.6915 0.0
C23 C 0.33477 0.84929 0.67138 0.0
C24 C 0.36449 0.83515 0.68208 0.0
C25 C 0.38117 0.84599 0.71321 0.0
H26 H 0.7485 0.29835 0.88513 0.0
H27 H 0.67357 0.31501 0.80526 0.0
H28 H 0.77114 0.39627 0.80888 0.0
H29 H 0.71281 0.43141 0.79444 0.0
C30 C 0.69454 0.40868 0.7817 0.0
O31 O 0.71158 0.37936 0.77644 0.0
H32 H 0.67097 0.39819 0.79958 0.0
C33 C 0.74109 0.31515 0.8625 0.0
C34 C 0.76411 0.34879 0.84901 0.0
C35 C 0.70862 0.30274 0.84669 0.0
C36 C 0.69881 0.32419 0.81738 0.0
C37 C 0.72144 0.35794 0.80392 0.0
C38 C 0.75412 0.36989 0.8194 0.0
H39 H 0.83022 0.72409 0.34408 0.0
H40 H 0.83913 0.62562 0.29079 0.0
H41 H 0.92204 0.72548 0.2781 0.0
H42 H 0.89866 0.68762 0.21137 0.0
C43 C 0.89185 0.65771 0.22334 0.0
O44 O 0.89942 0.65654 0.2588 0.0
H45 H 0.86307 0.64697 0.21989 0.0
C46 C 0.84466 0.71045 0.3261 0.0
C47 C 0.87785 0.72959 0.31205 0.0
C48 C 0.83068 0.673 0.31879 0.0
C49 C 0.84979 0.65455 0.29682 0.0
C50 C 0.88228 0.6738 0.28162 0.0
C51 C 0.8966 0.71106 0.28959 0.0
H52 H 0.81444 0.88367 0.78711 0.0
H53 H 0.8034 0.79679 0.87415 0.0
H54 H 0.88724 0.80771 0.79712 0.0
H55 H 0.84956 0.73057 0.82005 0.0
C56 C 0.84851 0.7335 0.84904 0.0
O57 O 0.85877 0.77115 0.85566 0.0
H58 H 0.82083 0.72242 0.85886 0.0
C59 C 0.82278 0.8595 0.80075 0.0
C60 C 0.85267 0.84764 0.78785 0.0
C61 C 0.80477 0.84169 0.83211 0.0
C62 C 0.81683 0.81125 0.85013 0.0
C63 C 0.84646 0.79926 0.8374 0.0
C64 C 0.86433 0.81743 0.80653 0.0
H65 H 0.76166 0.13736 0.28504 0.0
H66 H 0.68523 0.20851 0.2904 0.0
H67 H 0.75183 0.19663 0.37809 0.0
H68 H 0.67763 0.19622 0.39614 0.0
C69 C 0.67208 0.21642 0.37416 0.0
O70 O 0.70206 0.22945 0.35309 0.0
H71 H 0.65056 0.20094 0.35832 0.0
C72 C 0.74911 0.15587 0.29963 0.0
C73 C 0.76061 0.16481 0.33373 0.0
C74 C 0.72184 0.17126 0.28372 0.0
C75 C 0.70655 0.19659 0.3019 0.0
C76 C 0.71757 0.20564 0.33569 0.0
C77 C 0.74436 0.18981 0.35157 0.0
H78 H 0.33547 0.71356 0.13715 0.0
H79 H 0.31916 0.62502 0.22294 0.0
H80 H 0.41259 0.71277 0.21831 0.0
H81 H 0.42128 0.63289 0.23032 0.0
C82 C 0.39849 0.62193 0.24911 0.0
O83 O 0.37902 0.6496 0.25255 0.0
H84 H 0.38164 0.59685 0.2382 0.0
C85 C 0.34421 0.70049 0.1613 0.0
C86 C 0.37639 0.71732 0.17577 0.0
C87 C 0.32288 0.66751 0.17845 0.0
C88 C 0.33457 0.65109 0.20984 0.0
C89 C 0.36696 0.66718 0.22384 0.0
C90 C 0.38749 0.70059 0.20724 0.0
H91 H 0.13807 0.31577 0.76697 0.0
H92 H 0.2315 0.40143 0.7811 0.0
H93 H 0.2311 0.32562 0.70024 0.0
H94 H 0.29401 0.34116 0.74286 0.0
C95 C 0.29771 0.37274 0.74068 0.0
O96 O 0.26731 0.38361 0.72899 0.0
H97 H 0.30391 0.38317 0.76715 0.0
C98 C 0.16525 0.32904 0.75985 0.0
C99 C 0.18238 0.31656 0.73151 0.0
C100 C 0.1826 0.3601 0.77765 0.0
C101 C 0.21755 0.37762 0.76765 0.0
C102 C 0.23469 0.36503 0.7399 0.0
C103 C 0.21725 0.33478 0.72187 0.0
Zn104 Zn 0.0717 0.0222 0.56864 0.0
Zn105 Zn 0.98807 0.00724 0.49256 0.0
C106 C 0.10344 0.09543 0.58907 0.0
O107 O 0.12322 0.09437 0.56097 0.0
C108 C 0.94804 0.95089 0.45331 0.0
O109 O 0.92246 0.96396 0.4679 0.0
O110 O 0.10298 0.98678 0.58702 0.0
O111 O 0.01969 0.99714 0.57007 0.0
O112 O 0.97004 0.98416 0.54122 0.0
C113 C 0.11012 0.9827 0.61959 0.0
O114 O 0.0943 -0.00053 0.64261 0.0
O115 O 0.07887 0.06702 0.59845 0.0
C116 C 0.9557 0.05025 0.44083 0.0
O117 O 0.97371 0.03331 0.41993 0.0
O118 O 0.95906 0.04549 0.47415 0.0
O119 O 0.04004 0.02972 0.49153 0.0
O120 O 0.08996 0.04232 0.51934 0.0
O121 O 0.97983 0.96469 0.46053 0.0
C122 C 0.98699 0.98184 0.56965 0.0
C123 C 0.07292 0.0439 0.49103 0.0
Zn124 Zn 0.56921 0.98156 0.98366 0.0
Zn125 Zn 0.53115 0.03732 0.03873 0.0
C126 C 0.51591 0.93954 0.94405 0.0
O127 O 0.52645 0.91221 0.96342 0.0
C128 C 0.5866 0.08588 0.07177 0.0
O129 O 0.57355 0.11141 0.05239 0.0
O130 O 0.60698 0.95607 0.96512 0.0
O131 O 0.59149 0.03745 0.98216 0.0
O132 O 0.5434 0.06054 0.98895 0.0
C133 C 0.61428 0.95871 0.9321 0.0
O134 O 0.59742 0.9787 0.9104 0.0
O135 O 0.53008 0.97388 0.94835 0.0
C136 C 0.48668 0.05706 0.09117 0.0
O137 O 0.50317 0.0347 0.11071 0.0
O138 O 0.49438 0.0633 0.05823 0.0
O139 O 0.51008 0.98165 0.04797 0.0
O140 O 0.55002 0.95093 0.02912 0.0
O141 O 0.57358 0.05082 0.06939 0.0
C142 C 0.57426 0.06363 0.9757 0.0
C143 C 0.52246 0.95165 0.04741 0.0
Zn144 Zn 0.56044 0.49354 0.49284 0.0
Zn145 Zn 0.54485 0.55667 0.5372 0.0
C146 C 0.60256 0.54363 0.43962 0.0
O147 O 0.57569 0.53043 0.42008 0.0
C148 C 0.50639 0.5061 0.59064 0.0
O149 O 0.53224 0.5244 0.6088 0.0
O150 O 0.56668 0.44625 0.47063 0.0
O151 O 0.56803 0.48345 0.54458 0.0
O152 O 0.59061 0.54282 0.5542 0.0
C153 C 0.59607 0.43675 0.47712 0.0
O154 O 0.61819 0.45719 0.49762 0.0
O155 O 0.60145 0.53315 0.47249 0.0
C156 C 0.50269 0.6059 0.55575 0.0
O157 O 0.48178 0.58086 0.53811 0.0
O158 O 0.5347 0.60276 0.55959 0.0
O159 O 0.53774 0.5675 0.48507 0.0
O160 O 0.51503 0.50795 0.47686 0.0
O161 O 0.50582 0.51423 0.55743 0.0
C162 C 0.58891 0.50733 0.56143 0.0
C163 C 0.51665 0.54321 0.46888 0.0
Zn164 Zn 0.03424 0.51768 0.9978 0.0
Zn165 Zn 0.05687 0.45973 0.05229 0.0
C166 C 0.9894 0.47161 0.95595 0.0
O167 O 0.01385 0.49152 0.93375 0.0
C168 C 0.1019 0.51034 0.09171 0.0
O169 O 0.07962 0.49031 0.11589 0.0
O170 O 0.02263 0.56332 0.96938 0.0
O171 O 0.03575 0.53107 0.04812 0.0
O172 O 0.01288 0.47379 0.07225 0.0
C173 C 0.99644 0.57439 0.98255 0.0
O174 O 0.98198 0.55729 0.01262 0.0
O175 O 0.99212 0.47641 0.98879 0.0
C176 C 0.10061 0.41113 0.07533 0.0
O177 O 0.11951 0.43333 0.04989 0.0
O178 O 0.06954 0.41578 0.08213 0.0
O179 O 0.05745 0.44483 0.00236 0.0
O180 O 0.07701 0.50266 0.97738 0.0
O181 O 0.09779 0.50326 0.05951 0.0
C182 C 0.01677 0.50967 0.0722 0.0
C183 C 0.07477 0.46695 0.9776 0.0
H184 H 0.23356 0.15166 0.33299 0.0
H185 H 0.04554 0.05582 0.42542 0.0
H186 H 0.13411 0.14655 0.28105 0.0
H187 H 0.14375 0.07263 0.48089 0.0
H188 H 0.07785 0.08609 0.37133 0.0
H189 H 0.20147 0.11944 0.38663 0.0
C190 C 0.20501 0.14361 0.33285 0.0
C191 C 0.18647 0.152 0.3026 0.0
C192 C 0.09231 0.08312 0.39535 0.0
C193 C 0.14956 0.11525 0.3638 0.0
C194 C 0.07386 0.06578 0.42623 0.0
C195 C 0.09189 0.06164 0.45777 0.0
C196 C 0.12911 0.0963 0.39596 0.0
C197 C 0.12868 0.07518 0.45722 0.0
C198 C 0.18667 0.1254 0.36349 0.0
C199 C 0.14943 0.14117 0.30395 0.0
N200 N 0.14603 0.09185 0.42685 0.0
N201 N 0.13222 0.12336 0.33399 0.0
H202 H 0.38822 0.94304 0.75685 0.0
H203 H 0.48124 0.86904 0.929 0.0
H204 H 0.3904 0.82529 0.78582 0.0
H205 H 0.49212 0.98813 0.89462 0.0
H206 H 0.4424 0.85295 0.87993 0.0
H207 H 0.42082 0.96046 0.81029 0.0
C208 C 0.39528 0.92085 0.77462 0.0
C209 C 0.38684 0.88269 0.76678 0.0
C210 C 0.45313 0.88264 0.88313 0.0
C211 C 0.42413 0.90236 0.82775 0.0
C212 C 0.47532 0.89188 0.91124 0.0
C213 C 0.4902 0.93001 0.91583 0.0
C214 C 0.44566 0.91169 0.85928 0.0
C215 C 0.48134 0.95834 0.89202 0.0
C216 C 0.41402 0.93081 0.80499 0.0
C217 C 0.39684 0.85511 0.79056 0.0
N218 N 0.45977 0.9486 0.86463 0.0
N219 N 0.41497 0.86549 0.81987 0.0
H220 H 0.71022 0.48214 0.7505 0.0
H221 H 0.5879 0.4335 0.58454 0.0
H222 H 0.65085 0.3701 0.7347 0.0
H223 H 0.63283 0.54852 0.60763 0.0
H224 H 0.61603 0.40971 0.63622 0.0
H225 H 0.68726 0.50676 0.69526 0.0
C226 C 0.69253 0.46273 0.7352 0.0
C227 C 0.68243 0.42404 0.74694 0.0
C228 C 0.61986 0.44016 0.63002 0.0
C229 C 0.656 0.4519 0.68404 0.0
C230 C 0.60381 0.45385 0.60041 0.0
C231 C 0.60778 0.49316 0.5918 0.0
C232 C 0.64022 0.46585 0.65133 0.0
C233 C 0.62894 0.51801 0.61333 0.0
C234 C 0.67938 0.47677 0.70378 0.0
C235 C 0.65934 0.40007 0.72635 0.0
N236 N 0.6443 0.50393 0.64221 0.0
N237 N 0.64688 0.41439 0.69591 0.0
H238 H 0.95872 0.67879 0.19471 0.0
H239 H 0.95981 0.47855 0.11703 0.0
H240 H 0.87244 0.58204 0.21196 0.0
H241 H 0.03749 0.58171 0.09066 0.0
H242 H 0.93096 0.51252 0.15853 0.0
H243 H 0.99172 0.64015 0.16297 0.0
C244 C 0.94681 0.64933 0.19168 0.0
C245 C 0.91262 0.63371 0.20497 0.0
C246 C 0.95449 0.52752 0.14381 0.0
C247 C 0.95007 0.58915 0.16914 0.0
C248 C 0.97099 0.50812 0.12029 0.0
C249 C 0.00076 0.5275 0.10011 0.0
C250 C 0.96818 0.56631 0.14719 0.0
C251 C 0.01425 0.56579 0.10529 0.0
C252 C 0.96557 0.62724 0.17367 0.0
C253 C 0.89853 0.59519 0.20129 0.0
N254 N 0.99779 0.58392 0.12814 0.0
N255 N 0.91721 0.57421 0.18337 0.0
H256 H 0.30899 0.16399 0.12525 0.0
H257 H 0.46178 0.0459 0.15981 0.0
H258 H 0.31778 0.096 0.22231 0.0
H259 H 0.44714 0.10478 0.05902 0.0
H260 H 0.41304 0.06964 0.18507 0.0
H261 H 0.36361 0.14866 0.10265 0.0
C262 C 0.3226 0.14593 0.1418 0.0
C263 C 0.30865 0.1305 0.17532 0.0
C264 C 0.42056 0.07753 0.15747 0.0
C265 C 0.37105 0.11299 0.1499 0.0
C266 C 0.44845 0.06399 0.14299 0.0
C267 C 0.45843 0.07311 0.10712 0.0
C268 C 0.40245 0.10043 0.13598 0.0
C269 C 0.44023 0.09682 0.08673 0.0
C270 C 0.3537 0.13716 0.12893 0.0
C271 C 0.32751 0.10788 0.19608 0.0
N272 N 0.41302 0.10951 0.1014 0.0
N273 N 0.3576 0.09953 0.18292 0.0
H274 H 0.30261 0.8954 0.62412 0.0
H275 H 0.13047 0.9659 0.68707 0.0
H276 H 0.26759 0.88757 0.73348 0.0
H277 H 0.15585 0.95546 0.57765 0.0
H278 H 0.18109 0.93828 0.70467 0.0
H279 H 0.24969 0.91866 0.60662 0.0
C280 C 0.28374 0.89832 0.64448 0.0
C281 C 0.28973 0.88947 0.68039 0.0
C282 C 0.17545 0.94181 0.67682 0.0
C283 C 0.22913 0.91666 0.66046 0.0
C284 C 0.14651 0.95756 0.66674 0.0
C285 C 0.13887 0.96308 0.63081 0.0
C286 C 0.19715 0.93176 0.65079 0.0
C287 C 0.16065 0.9517 0.60566 0.0
C288 C 0.25355 0.91177 0.63444 0.0
C289 C 0.2645 0.89456 0.70554 0.0
N290 N 0.1889 0.93683 0.61611 0.0
N291 N 0.23541 0.90786 0.69511 0.0
H292 H 0.77669 0.35079 0.91996 0.0
H293 H 0.98024 0.45123 0.88862 0.0
H294 H 0.82896 0.3776 0.81724 0.0
H295 H 0.92707 0.4366 0.99099 0.0
H296 H 0.92653 0.4172 0.86349 0.0
H297 H 0.83273 0.37544 0.94759 0.0
C298 C 0.80004 0.36153 0.90324 0.0
C299 C 0.79814 0.3623 0.86622 0.0
C300 C 0.92656 0.4212 0.89149 0.0
C301 C 0.86223 0.39072 0.89764 0.0
C302 C 0.9573 0.44061 0.90592 0.0
C303 C 0.95804 0.44715 0.94192 0.0
C304 C 0.89615 0.40822 0.91312 0.0
C305 C 0.92759 0.43233 0.96307 0.0
C306 C 0.83196 0.37576 0.91902 0.0
C307 C 0.8291 0.37695 0.84584 0.0
N308 N 0.89773 0.41379 0.94827 0.0
N309 N 0.85982 0.39062 0.86181 0.0
H310 H 0.81717 0.60713 0.36164 0.0
H311 H 0.61009 0.58897 0.37756 0.0
H312 H 0.76728 0.69455 0.31351 0.0
H313 H 0.66965 0.54857 0.46286 0.0
H314 H 0.66582 0.6214 0.34731 0.0
H315 H 0.76093 0.57709 0.39223 0.0
C316 C 0.7942 0.61965 0.3573 0.0
C317 C 0.79653 0.65315 0.33516 0.0
C318 C 0.66653 0.60562 0.37277 0.0
C319 C 0.73267 0.61925 0.36966 0.0
C320 C 0.63489 0.58716 0.38997 0.0
C321 C 0.63541 0.56618 0.4227 0.0
C322 C 0.69873 0.60212 0.38805 0.0
C323 C 0.66815 0.56469 0.43774 0.0
C324 C 0.76236 0.6028 0.37489 0.0
C325 C 0.76629 0.66868 0.3305 0.0
N326 N 0.69859 0.58203 0.42006 0.0
N327 N 0.7354 0.65144 0.34748 0.0
H328 H 0.137 0.21813 0.2102 0.0
H329 H 0.16914 0.40291 0.07365 0.0
H330 H 0.24085 0.28337 0.17901 0.0
H331 H 0.06797 0.35471 0.125 0.0
H332 H 0.19525 0.35645 0.1087 0.0
H333 H 0.11081 0.26528 0.17625 0.0
C334 C 0.15437 0.24254 0.19651 0.0
C335 C 0.19129 0.24684 0.19776 0.0
C336 C 0.16735 0.35603 0.11235 0.0
C337 C 0.16126 0.30057 0.15807 0.0
C338 C 0.15234 0.38247 0.09224 0.0
C339 C 0.11625 0.38265 0.09635 0.0
C340 C 0.1461 0.32928 0.13658 0.0
C341 C 0.09589 0.35559 0.12099 0.0
C342 C 0.13932 0.26934 0.17694 0.0
C343 C 0.2123 0.2786 0.17859 0.0
N344 N 0.11109 0.32987 0.1401 0.0
N345 N 0.19698 0.3042 0.1595 0.0
H346 H 0.70496 0.23117 0.82717 0.0
H347 H 0.55721 0.13385 0.97428 0.0
H348 H 0.65978 0.29486 0.90017 0.0
H349 H 0.6294 0.07341 0.92784 0.0
H350 H 0.58701 0.19227 0.93986 0.0
H351 H 0.66938 0.17193 0.85615 0.0
C352 C 0.68717 0.23251 0.84908 0.0
C353 C 0.68498 0.26751 0.86146 0.0
C354 C 0.5962 0.16616 0.93714 0.0
C355 C 0.64469 0.20053 0.89469 0.0
C356 C 0.57916 0.13281 0.95666 0.0
C357 C 0.59102 0.0988 0.95407 0.0
C358 C 0.62492 0.16535 0.91447 0.0
C359 C 0.61963 0.09912 0.93089 0.0
C360 C 0.66709 0.19888 0.86568 0.0
C361 C 0.66188 0.26818 0.88995 0.0
N362 N 0.63558 0.13187 0.91192 0.0
N363 N 0.64259 0.2351 0.90571 0.0
H364 H 0.9447 0.756 0.33484 0.0
H365 H 0.88548 0.92762 0.42128 0.0
H366 H 0.84536 0.78979 0.31513 0.0
H367 H 0.99212 0.90876 0.42634 0.0
H368 H 0.87175 0.87896 0.37969 0.0
H369 H 0.96489 0.81437 0.36423 0.0
C370 C 0.92748 0.77614 0.33598 0.0
C371 C 0.89311 0.76785 0.32309 0.0
C372 C 0.89825 0.88556 0.38967 0.0
C373 C 0.91564 0.83404 0.35718 0.0
C374 C 0.90603 0.9132 0.41364 0.0
C375 C 0.93989 0.92195 0.42757 0.0
C376 C 0.92437 0.86611 0.37983 0.0
C377 C 0.96561 0.9027 0.41636 0.0
C378 C 0.93889 0.80929 0.35297 0.0
C379 C 0.87178 0.79477 0.32541 0.0
N380 N 0.95722 0.87537 0.39338 0.0
N381 N 0.88321 0.82638 0.34258 0.0
H382 H 0.47232 0.81585 0.63791 0.0
H383 H 0.43381 0.61161 0.56066 0.0
H384 H 0.36864 0.75476 0.61362 0.0
H385 H 0.53873 0.67024 0.58452 0.0
H386 H 0.4098 0.66295 0.58248 0.0
H387 H 0.49741 0.76243 0.62074 0.0
C388 C 0.45486 0.79104 0.62913 0.0
C389 C 0.41836 0.78952 0.62722 0.0
C390 C 0.43808 0.66472 0.58304 0.0
C391 C 0.44677 0.72849 0.6075 0.0
C392 C 0.45189 0.63535 0.5705 0.0
C393 C 0.48843 0.63672 0.57049 0.0
C394 C 0.46089 0.69604 0.59558 0.0
C395 C 0.51041 0.66807 0.58397 0.0
C396 C 0.46916 0.7606 0.61934 0.0
C397 C 0.39689 0.7569 0.61553 0.0
N398 N 0.49631 0.69665 0.59581 0.0
N399 N 0.41141 0.72772 0.60609 0.0
H400 H 0.82556 0.87026 0.72506 0.0
H401 H 0.01442 0.96605 0.63459 0.0
H402 H 0.92437 0.86985 0.77684 0.0
H403 H 0.91621 0.95232 0.57911 0.0
H404 H 0.98197 0.93312 0.68777 0.0
H405 H 0.85836 0.90287 0.67208 0.0
C406 C 0.85416 0.87719 0.72532 0.0
C407 C 0.87224 0.86732 0.75542 0.0
C408 C 0.96757 0.93732 0.66392 0.0
C409 C 0.91004 0.90455 0.69482 0.0
C410 C 0.98607 0.9562 0.63357 0.0
C411 C 0.96805 0.96207 0.60229 0.0
C412 C 0.93075 0.92441 0.66308 0.0
C413 C 0.93128 0.9485 0.60256 0.0
C414 C 0.8729 0.89562 0.69501 0.0
C415 C 0.90936 0.87656 0.7541 0.0
N416 N 0.9139 0.93044 0.63243 0.0
N417 N 0.92702 0.89475 0.72437 0.0
H418 H 0.70471 0.21645 0.2276 0.0
H419 H 0.61533 0.04098 0.12049 0.0
H420 H 0.70733 0.09968 0.26072 0.0
H421 H 0.61729 0.15843 0.08549 0.0
H422 H 0.65338 0.062 0.16926 0.0
H423 H 0.67683 0.19596 0.17293 0.0
C424 C 0.69955 0.1865 0.22328 0.0
C425 C 0.70811 0.15971 0.24891 0.0
C426 C 0.64574 0.08318 0.15072 0.0
C427 C 0.67613 0.13596 0.18631 0.0
C428 C 0.62405 0.07119 0.12281 0.0
C429 C 0.6128 0.09796 0.09901 0.0
C430 C 0.65617 0.12223 0.15498 0.0
C431 C 0.62504 0.13674 0.10331 0.0
C432 C 0.68374 0.17481 0.19199 0.0
C433 C 0.70134 0.12133 0.24163 0.0
N434 N 0.64578 0.14766 0.1309 0.0
N435 N 0.68545 0.11057 0.21118 0.0
H436 H 0.38084 0.55358 0.2896 0.0
H437 H 0.52062 0.61582 0.4392 0.0
H438 H 0.44762 0.66515 0.28832 0.0
H439 H 0.46685 0.49973 0.43016 0.0
H440 H 0.48914 0.63601 0.38796 0.0
H441 H 0.40692 0.53506 0.34526 0.0
C442 C 0.40092 0.57419 0.30122 0.0
C443 C 0.41246 0.61079 0.28438 0.0
C444 C 0.48415 0.60614 0.39726 0.0
C445 C 0.44234 0.58996 0.34783 0.0
C446 C 0.50207 0.59457 0.42656 0.0
C447 C 0.49654 0.55595 0.43887 0.0
C448 C 0.46037 0.57896 0.3802 0.0
C449 C 0.47211 0.52975 0.42146 0.0
C450 C 0.41582 0.56364 0.3329 0.0
C451 C 0.43828 0.63659 0.30054 0.0
N452 N 0.45499 0.54173 0.39296 0.0
N453 N 0.4525 0.62564 0.33133 0.0
H454 H 0.182 0.4345 0.78527 0.0
H455 H 0.07329 0.39196 0.96949 0.0
H456 H 0.14142 0.32115 0.83354 0.0
H457 H 0.11025 0.50471 0.91802 0.0
H458 H 0.09748 0.36533 0.91994 0.0
H459 H 0.15498 0.46047 0.83342 0.0
C460 C 0.1674 0.41507 0.80611 0.0
C461 C 0.16423 0.37563 0.80567 0.0
C462 C 0.10025 0.39588 0.91945 0.0
C463 C 0.13301 0.40517 0.86082 0.0
C464 C 0.08651 0.41116 0.94777 0.0
C465 C 0.0898 0.45068 0.94793 0.0
C466 C 0.11749 0.42028 0.89108 0.0
C467 C 0.10717 0.4741 0.91906 0.0
C468 C 0.15186 0.42991 0.83352 0.0
C469 C 0.1444 0.35172 0.83289 0.0
N470 N 0.1204 0.45853 0.89182 0.0
N471 N 0.1297 0.3669 0.85955 0.0
H472 H 0.75146 0.86687 0.79597 0.0
H473 H 0.65808 0.91969 0.96941 0.0
H474 H 0.78896 0.84929 0.90167 0.0
H475 H 0.63176 0.95344 0.86281 0.0
H476 H 0.7028 0.88869 0.94539 0.0
H477 H 0.70407 0.89363 0.82033 0.0
C478 C 0.74981 0.86867 0.82429 0.0
C479 C 0.77449 0.85597 0.84672 0.0
C480 C 0.68721 0.90286 0.92727 0.0
C481 C 0.71993 0.88629 0.87488 0.0
C482 C 0.66165 0.92055 0.94096 0.0
C483 C 0.64122 0.93938 0.91811 0.0
C484 C 0.6923 0.9038 0.89042 0.0
C485 C 0.64699 0.93946 0.88146 0.0
C486 C 0.72262 0.88382 0.8382 0.0
C487 C 0.77043 0.85831 0.88332 0.0
N488 N 0.67196 0.92198 0.86879 0.0
N489 N 0.7438 0.87328 0.89621 0.0
H490 H 0.77479 0.09367 0.32758 0.0
H491 H 0.9243 0.10306 0.4701 0.0
H492 H 0.81165 0.19649 0.37931 0.0
H493 H 0.92364 0.04026 0.37783 0.0
H494 H 0.87637 0.13173 0.4449 0.0
H495 H 0.82276 0.06723 0.35377 0.0
C496 C 0.793 0.11094 0.34415 0.0
C497 C 0.78915 0.14776 0.35071 0.0
C498 C 0.88698 0.1118 0.43023 0.0
C499 C 0.84357 0.11676 0.38185 0.0
C500 C 0.9142 0.09545 0.44455 0.0
C501 C 0.92813 0.0695 0.42588 0.0
C502 C 0.87312 0.10126 0.39755 0.0
C503 C 0.91399 0.06045 0.39296 0.0
C504 C 0.82025 0.0956 0.35931 0.0
C505 C 0.8131 0.16791 0.37365 0.0
N506 N 0.88706 0.07602 0.38002 0.0
N507 N 0.83921 0.1521 0.38848 0.0
H508 H 0.30827 0.65516 0.1091 0.0
H509 H 0.11242 0.5374 0.15654 0.0
H510 H 0.2599 0.63898 0.21377 0.0
H511 H 0.1602 0.54818 0.05184 0.0
H512 H 0.16442 0.5801 0.17618 0.0
H513 H 0.25265 0.62163 0.08597 0.0
C514 C 0.28584 0.64494 0.12714 0.0
C515 C 0.2888 0.64959 0.16347 0.0
C516 C 0.16357 0.57335 0.14884 0.0
C517 C 0.22527 0.61101 0.13728 0.0
C518 C 0.13383 0.54891 0.13759 0.0
C519 C 0.13213 0.53888 0.10258 0.0
C520 C 0.19205 0.58781 0.12501 0.0
C521 C 0.16051 0.55505 0.07912 0.0
C522 C 0.25417 0.62564 0.11395 0.0
C523 C 0.25899 0.63547 0.18568 0.0
N524 N 0.18949 0.5785 0.09085 0.0
N525 N 0.22858 0.61672 0.17226 0.0
H526 H 0.3002 0.42278 0.67993 0.0
H527 H 0.50742 0.46534 0.65418 0.0
H528 H 0.36485 0.36063 0.7439 0.0
H529 H 0.43806 0.48739 0.57006 0.0
H530 H 0.45634 0.42815 0.68871 0.0
H531 H 0.35107 0.4493 0.64111 0.0
C532 C 0.32499 0.41438 0.68578 0.0
C533 C 0.32827 0.38919 0.71531 0.0
C534 C 0.4524 0.44072 0.66252 0.0
C535 C 0.38676 0.41992 0.67073 0.0
C536 C 0.48144 0.46198 0.64288 0.0
C537 C 0.47676 0.47961 0.60943 0.0
C538 C 0.41846 0.43788 0.64884 0.0
C539 C 0.44272 0.4742 0.59578 0.0
C540 C 0.35404 0.4295 0.66339 0.0
C541 C 0.36132 0.3799 0.72142 0.0
N542 N 0.41472 0.45428 0.61581 0.0
N543 N 0.38943 0.39548 0.69945 0.0
H544 H 0.90053 0.70156 0.82096 0.0
H545 H 0.95167 0.61454 0.00961 0.0
H546 H 0.8516 0.71603 0.92013 0.0
H547 H 0.00217 0.59854 0.91159 0.0
H548 H 0.91783 0.65544 0.97712 0.0
H549 H 0.9401 0.66633 0.85323 0.0
C550 C 0.89811 0.69713 0.84955 0.0
C551 C 0.87254 0.7111 0.86802 0.0
C552 C 0.93644 0.64324 0.96262 0.0
C553 C 0.91788 0.67157 0.90506 0.0
C554 C 0.95584 0.61991 0.9812 0.0
C555 C 0.9796 0.60294 0.96323 0.0
C556 C 0.94049 0.64947 0.92565 0.0
C557 C 0.98416 0.61115 0.92645 0.0
C558 C 0.92074 0.67722 0.86794 0.0
C559 C 0.87073 0.70521 0.90501 0.0
N560 N 0.96448 0.63359 0.90878 0.0
N561 N 0.89301 0.6858 0.92231 0.0
H562 H 0.40291 0.78434 0.2038 0.0
H563 H 0.52206 0.87785 0.03463 0.0
H564 H 0.40078 0.7287 0.10715 0.0
H565 H 0.47937 0.94555 0.10604 0.0
H566 H 0.48707 0.82018 0.06642 0.0
H567 H 0.44027 0.84159 0.17344 0.0
C568 C 0.41045 0.78425 0.17621 0.0
C569 C 0.39874 0.75202 0.15779 0.0
C570 C 0.48554 0.84772 0.07511 0.0
C571 C 0.44166 0.81676 0.12328 0.0
C572 C 0.5056 0.88056 0.05717 0.0
C573 C 0.50347 0.91651 0.06765 0.0
C574 C 0.46386 0.85087 0.10417 0.0
C575 C 0.48159 0.91839 0.09696 0.0
C576 C 0.43158 0.81682 0.15894 0.0
C577 C 0.40909 0.75319 0.12209 0.0
N578 N 0.46275 0.886 0.11434 0.0
N579 N 0.43021 0.785 0.106 0.0
H580 H 0.14117 0.2476 0.75628 0.0
H581 H 0.14204 0.16553 0.56757 0.0
H582 H 0.18196 0.31484 0.65984 0.0
H583 H 0.08057 0.1024 0.65668 0.0
H584 H 0.15608 0.22061 0.60177 0.0
H585 H 0.11699 0.19433 0.72119 0.0
C586 C 0.14462 0.25129 0.72773 0.0
C587 C 0.1641 0.28541 0.71096 0.0
C588 C 0.13932 0.19486 0.61389 0.0
C589 C 0.13696 0.22482 0.6709 0.0
C590 C 0.13141 0.1633 0.59438 0.0
C591 C 0.11031 0.12927 0.6094 0.0
C592 C 0.12644 0.19238 0.64895 0.0
C593 C 0.09699 0.12814 0.64415 0.0
C594 C 0.13096 0.2209 0.70777 0.0
C595 C 0.16788 0.28872 0.67393 0.0
N596 N 0.10558 0.1592 0.66295 0.0
N597 N 0.15475 0.25874 0.65524 0.0
H598 H 0.70071 0.25566 0.42915 0.0
H599 H 0.56219 0.39398 0.42594 0.0
H600 H 0.61869 0.25262 0.35269 0.0
H601 H 0.65301 0.40509 0.49256 0.0
H602 H 0.58069 0.3407 0.40005 0.0
H603 H 0.68217 0.30942 0.454 0.0
C604 C 0.67869 0.26637 0.41775 0.0
C605 C 0.66078 0.24948 0.38933 0.0
C606 C 0.59653 0.35484 0.42035 0.0
C607 C 0.63949 0.31097 0.41725 0.0
C608 C 0.58591 0.38514 0.43521 0.0
C609 C 0.60604 0.40398 0.4615 0.0
C610 C 0.62735 0.34318 0.43204 0.0
C611 C 0.63666 0.39147 0.47235 0.0
C612 C 0.66814 0.29703 0.43182 0.0
C613 C 0.63279 0.26462 0.375 0.0
N614 N 0.6463 0.36186 0.45765 0.0
N615 N 0.62285 0.29442 0.38923 0.0
loop_
_geom_bond_atom_site_label_1
_geom_bond_atom_site_label_2
_geom_bond_distance
_geom_bond_site_symmetry_2
_ccdc_geom_bond_type
H0 C7 0.929 . S
H1 C10 0.930 . S
H2 C12 0.929 . S
H3 C4 0.969 . S
C4 H3 0.969 . S
C4 O5 1.550 . S
C4 H6 0.973 . S
O5 C4 1.550 . S
O5 C11 1.412 . S
H6 C4 0.973 . S
C7 H0 0.929 . S
C7 C8 1.400 . S
C7 C9 1.364 . S
C8 C7 1.400 . S
C8 C12 1.377 . S
C9 C7 1.364 . S
C9 C10 1.374 . S
C10 H1 0.930 . S
C10 C9 1.374 . S
C10 C11 1.383 . S
C11 O5 1.412 . S
C11 C10 1.383 . S
C11 C12 1.394 . S
C12 H2 0.929 . S
C12 C8 1.377 . S
C12 C11 1.394 . S
H13 C20 0.929 . S
H14 C23 0.930 . S
H15 C25 0.929 . S
H16 C17 0.969 . S
C17 H16 0.969 . S
C17 O18 1.550 . S
C17 H19 0.973 . S
O18 C17 1.550 . S
O18 C24 1.412 . S
H19 C17 0.973 . S
C20 H13 0.929 . S
C20 C21 1.400 . S
C20 C22 1.364 . S
C21 C20 1.400 . S
C21 C25 1.377 . S
C22 C20 1.364 . S
C22 C23 1.374 . S
C23 H14 0.930 . S
C23 C22 1.374 . S
C23 C24 1.383 . S
C24 O18 1.412 . S
C24 C23 1.383 . S
C24 C25 1.394 . S
C25 H15 0.929 . S
C25 C21 1.377 . S
C25 C24 1.394 . S
H26 C33 0.929 . S
H27 C36 0.930 . S
H28 C38 0.929 . S
H29 C30 0.969 . S
C30 H29 0.969 . S
C30 O31 1.550 . S
C30 H32 0.973 . S
O31 C30 1.550 . S
O31 C37 1.412 . S
H32 C30 0.973 . S
C33 H26 0.929 . S
C33 C34 1.400 . S
C33 C35 1.364 . S
C34 C33 1.400 . S
C34 C38 1.377 . S
C35 C33 1.364 . S
C35 C36 1.374 . S
C36 H27 0.930 . S
C36 C35 1.374 . S
C36 C37 1.383 . S
C37 O31 1.412 . S
C37 C36 1.383 . S
C37 C38 1.394 . S
C38 H28 0.929 . S
C38 C34 1.377 . S
C38 C37 1.394 . S
H39 C46 0.929 . S
H40 C49 0.930 . S
H41 C51 0.929 . S
H42 C43 0.969 . S
C43 H42 0.969 . S
C43 O44 1.550 . S
C43 H45 0.973 . S
O44 C43 1.550 . S
O44 C50 1.412 . S
H45 C43 0.973 . S
C46 H39 0.929 . S
C46 C47 1.400 . S
C46 C48 1.364 . S
C47 C46 1.400 . S
C47 C51 1.377 . S
C48 C46 1.364 . S
C48 C49 1.374 . S
C49 H40 0.930 . S
C49 C48 1.374 . S
C49 C50 1.383 . S
C50 O44 1.412 . S
C50 C49 1.383 . S
C50 C51 1.394 . S
C51 H41 0.929 . S
C51 C47 1.377 . S
C51 C50 1.394 . S
H52 C59 0.929 . S
H53 C62 0.930 . S
H54 C64 0.929 . S
H55 C56 0.969 . S
C56 H55 0.969 . S
C56 O57 1.550 . S
C56 H58 0.973 . S
O57 C56 1.550 . S
O57 C63 1.412 . S
H58 C56 0.973 . S
C59 H52 0.929 . S
C59 C60 1.400 . S
C59 C61 1.364 . S
C60 C59 1.400 . S
C60 C64 1.377 . S
C61 C59 1.364 . S
C61 C62 1.374 . S
C62 H53 0.930 . S
C62 C61 1.374 . S
C62 C63 1.383 . S
C63 O57 1.412 . S
C63 C62 1.383 . S
C63 C64 1.394 . S
C64 H54 0.929 . S
C64 C60 1.377 . S
C64 C63 1.394 . S
H65 C72 0.929 . S
H66 C75 0.930 . S
H67 C77 0.929 . S
H68 C69 0.969 . S
C69 H68 0.969 . S
C69 O70 1.550 . S
C69 H71 0.973 . S
O70 C69 1.550 . S
O70 C76 1.412 . S
H71 C69 0.973 . S
C72 H65 0.929 . S
C72 C73 1.400 . S
C72 C74 1.364 . S
C73 C72 1.400 . S
C73 C77 1.377 . S
C74 C72 1.364 . S
C74 C75 1.374 . S
C75 H66 0.930 . S
C75 C74 1.374 . S
C75 C76 1.383 . S
C76 O70 1.412 . S
C76 C75 1.383 . S
C76 C77 1.394 . S
C77 H67 0.929 . S
C77 C73 1.377 . S
C77 C76 1.394 . S
H78 C85 0.929 . S
H79 C88 0.930 . S
H80 C90 0.929 . S
H81 C82 0.969 . S
C82 H81 0.969 . S
C82 O83 1.550 . S
C82 H84 0.973 . S
O83 C82 1.550 . S
O83 C89 1.412 . S
H84 C82 0.973 . S
C85 H78 0.929 . S
C85 C86 1.400 . S
C85 C87 1.364 . S
C86 C85 1.400 . S
C86 C90 1.377 . S
C87 C85 1.364 . S
C87 C88 1.374 . S
C88 H79 0.930 . S
C88 C87 1.374 . S
C88 C89 1.383 . S
C89 O83 1.412 . S
C89 C88 1.383 . S
C89 C90 1.394 . S
C90 H80 0.929 . S
C90 C86 1.377 . S
C90 C89 1.394 . S
H91 C98 0.929 . S
H92 C101 0.930 . S
H93 C103 0.929 . S
H94 C95 0.969 . S
C95 H94 0.969 . S
C95 O96 1.550 . S
C95 H97 0.973 . S
O96 C95 1.550 . S
O96 C102 1.412 . S
H97 C95 0.973 . S
C98 H91 0.929 . S
C98 C99 1.400 . S
C98 C100 1.364 . S
C99 C98 1.400 . S
C99 C103 1.377 . S
C100 C98 1.364 . S
C100 C101 1.374 . S
C101 H92 0.930 . S
C101 C100 1.374 . S
C101 C102 1.383 . S
C102 O96 1.412 . S
C102 C101 1.383 . S
C102 C103 1.394 . S
C103 H93 0.929 . S
C103 C99 1.377 . S
C103 C102 1.394 . S
Zn104 O110 1.969 1_545 S
Zn104 O111 1.965 1_545 S
Zn104 O115 2.024 . S
Zn104 O120 1.969 . S
Zn105 O112 1.969 1_545 S
Zn105 O118 1.969 . S
Zn105 O119 1.965 1_655 S
Zn105 O121 2.024 1_545 S
C106 O107 1.229 . S
C106 O115 1.058 . S
O107 C106 1.229 . S
C108 O109 1.229 . S
C108 O121 1.058 . S
O109 C108 1.229 . S
O110 Zn104 1.969 1_565 S
O110 C113 1.267 . S
O111 Zn104 1.965 1_565 S
O111 C122 1.260 1_455 S
O112 Zn105 1.969 1_565 S
O112 C122 1.258 . S
C113 O110 1.267 . S
C113 O114 1.228 . S
O114 C113 1.228 . S
O115 Zn104 2.024 . S
O115 C106 1.058 . S
C116 O117 1.228 . S
C116 O118 1.267 . S
O117 C116 1.228 . S
O118 Zn105 1.969 . S
O118 C116 1.267 . S
O119 Zn105 1.965 1_455 S
O119 C123 1.260 . S
O120 Zn104 1.969 . S
O120 C123 1.258 . S
O121 Zn105 2.024 1_565 S
O121 C108 1.058 . S
C122 O111 1.260 1_655 S
C122 O112 1.258 . S
C123 O119 1.260 . S
C123 O120 1.258 . S
Zn124 O130 1.969 . S
Zn124 O131 1.965 1_565 S
Zn124 O135 2.024 . S
Zn124 O140 1.969 1_556 S
Zn125 O132 1.969 . S
Zn125 O138 1.969 . S
Zn125 O139 1.965 1_545 S
Zn125 O141 2.024 . S
C126 O127 1.229 . S
C126 O135 1.058 . S
O127 C126 1.229 . S
C128 O129 1.229 . S
C128 O141 1.058 . S
O129 C128 1.229 . S
O130 Zn124 1.969 . S
O130 C133 1.267 . S
O131 Zn124 1.965 1_545 S
O131 C142 1.260 . S
O132 Zn125 1.969 . S
O132 C142 1.258 1_554 S
C133 O130 1.267 . S
C133 O134 1.228 . S
O134 C133 1.228 . S
O135 Zn124 2.024 . S
O135 C126 1.058 . S
C136 O137 1.228 . S
C136 O138 1.267 . S
O137 C136 1.228 . S
O138 Zn125 1.969 . S
O138 C136 1.267 . S
O139 Zn125 1.965 1_565 S
O139 C143 1.260 . S
O140 Zn124 1.969 1_554 S
O140 C143 1.258 . S
O141 Zn125 2.024 . S
O141 C128 1.058 . S
C142 O131 1.260 . S
C142 O132 1.258 1_556 S
C143 O139 1.260 . S
C143 O140 1.258 . S
Zn144 O150 1.969 . S
Zn144 O151 1.965 . S
Zn144 O155 2.024 . S
Zn144 O160 1.969 . S
Zn145 O152 1.969 . S
Zn145 O158 1.969 . S
Zn145 O159 1.965 . S
Zn145 O161 2.024 . S
C146 O147 1.229 . S
C146 O155 1.058 . S
O147 C146 1.229 . S
C148 O149 1.229 . S
C148 O161 1.058 . S
O149 C148 1.229 . S
O150 Zn144 1.969 . S
O150 C153 1.267 . S
O151 Zn144 1.965 . S
O151 C162 1.260 . S
O152 Zn145 1.969 . S
O152 C162 1.258 . S
C153 O150 1.267 . S
C153 O154 1.228 . S
O154 C153 1.228 . S
O155 Zn144 2.024 . S
O155 C146 1.058 . S
C156 O157 1.228 . S
C156 O158 1.267 . S
O157 C156 1.228 . S
O158 Zn145 1.969 . S
O158 C156 1.267 . S
O159 Zn145 1.965 . S
O159 C163 1.260 . S
O160 Zn144 1.969 . S
O160 C163 1.258 . S
O161 Zn145 2.024 . S
O161 C148 1.058 . S
C162 O151 1.260 . S
C162 O152 1.258 . S
C163 O159 1.260 . S
C163 O160 1.258 . S
Zn164 O170 1.969 1_655 S
Zn164 O171 1.965 1_656 S
Zn164 O175 2.024 1_556 S
Zn164 O180 1.969 1_655 S
Zn165 O172 1.969 . S
Zn165 O178 1.969 . S
Zn165 O179 1.965 . S
Zn165 O181 2.024 . S
C166 O167 1.229 . S
C166 O175 1.058 1_556 S
O167 C166 1.229 . S
C168 O169 1.229 . S
C168 O181 1.058 . S
O169 C168 1.229 . S
O170 Zn164 1.969 1_455 S
O170 C173 1.267 1_455 S
O171 Zn164 1.965 1_454 S
O171 C182 1.260 . S
O172 Zn165 1.969 . S
O172 C182 1.258 . S
C173 O170 1.267 1_655 S
C173 O174 1.228 . S
O174 C173 1.228 . S
O175 Zn164 2.024 1_554 S
O175 C166 1.058 1_554 S
C176 O177 1.228 . S
C176 O178 1.267 . S
O177 C176 1.228 . S
O178 Zn165 1.969 . S
O178 C176 1.267 . S
O179 Zn165 1.965 . S
O179 C183 1.260 1_554 S
O180 Zn164 1.969 1_455 S
O180 C183 1.258 . S
O181 Zn165 2.024 . S
O181 C168 1.058 . S
C182 O171 1.260 . S
C182 O172 1.258 . S
C183 O179 1.260 1_556 S
C183 O180 1.258 . S
H184 C190 0.930 . S
H185 C194 0.930 . S
H186 C199 0.929 . S
H187 C197 0.929 . S
H188 C192 0.929 . S
H189 C198 0.929 . S
C190 H184 0.930 . S
C190 C191 1.367 . S
C190 C198 1.378 . S
C191 C190 1.367 . S
C191 C199 1.433 . S
C192 H188 0.929 . S
C192 C194 1.378 . S
C192 C196 1.350 . S
C193 C196 1.463 . S
C193 C198 1.350 . S
C193 N201 1.427 . S
C194 H185 0.930 . S
C194 C192 1.378 . S
C194 C195 1.367 . S
C195 C194 1.367 . S
C195 C197 1.433 . S
C196 C192 1.350 . S
C196 C193 1.463 . S
C196 N200 1.427 . S
C197 H187 0.929 . S
C197 C195 1.433 . S
C197 N200 1.384 . S
C198 H189 0.929 . S
C198 C190 1.378 . S
C198 C193 1.350 . S
C199 H186 0.929 . S
C199 C191 1.433 . S
C199 N201 1.384 . S
N200 C196 1.427 . S
N200 C197 1.384 . S
N201 C193 1.427 . S
N201 C199 1.384 . S
H202 C208 0.930 . S
H203 C212 0.930 . S
H204 C217 0.929 . S
H205 C215 0.929 1_545 S
H206 C210 0.929 . S
H207 C216 0.929 . S
C208 H202 0.930 . S
C208 C209 1.367 . S
C208 C216 1.378 . S
C209 C208 1.367 . S
C209 C217 1.433 . S
C210 H206 0.929 . S
C210 C212 1.378 . S
C210 C214 1.350 . S
C211 C214 1.463 . S
C211 C216 1.350 . S
C211 N219 1.427 . S
C212 H203 0.930 . S
C212 C210 1.378 . S
C212 C213 1.367 . S
C213 C212 1.367 . S
C213 C215 1.433 . S
C214 C210 1.350 . S
C214 C211 1.463 . S
C214 N218 1.427 . S
C215 H205 0.929 1_565 S
C215 C213 1.433 . S
C215 N218 1.384 . S
C216 H207 0.929 . S
C216 C208 1.378 . S
C216 C211 1.350 . S
C217 H204 0.929 . S
C217 C209 1.433 . S
C217 N219 1.384 . S
N218 C214 1.427 . S
N218 C215 1.384 . S
N219 C211 1.427 . S
N219 C217 1.384 . S
H220 C226 0.930 . S
H221 C230 0.930 . S
H222 C235 0.929 . S
H223 C233 0.929 . S
H224 C228 0.929 . S
H225 C234 0.929 . S
C226 H220 0.930 . S
C226 C227 1.367 . S
C226 C234 1.378 . S
C227 C226 1.367 . S
C227 C235 1.433 . S
C228 H224 0.929 . S
C228 C230 1.378 . S
C228 C232 1.350 . S
C229 C232 1.463 . S
C229 C234 1.350 . S
C229 N237 1.427 . S
C230 H221 0.930 . S
C230 C228 1.378 . S
C230 C231 1.367 . S
C231 C230 1.367 . S
C231 C233 1.433 . S
C232 C228 1.350 . S
C232 C229 1.463 . S
C232 N236 1.427 . S
C233 H223 0.929 . S
C233 C231 1.433 . S
C233 N236 1.384 . S
C234 H225 0.929 . S
C234 C226 1.378 . S
C234 C229 1.350 . S
C235 H222 0.929 . S
C235 C227 1.433 . S
C235 N237 1.384 . S
N236 C232 1.427 . S
N236 C233 1.384 . S
N237 C229 1.427 . S
N237 C235 1.384 . S
H238 C244 0.930 . S
H239 C248 0.930 . S
H240 C253 0.929 . S
H241 C251 0.929 . S
H242 C246 0.929 . S
H243 C252 0.929 . S
C244 H238 0.930 . S
C244 C245 1.367 . S
C244 C252 1.378 . S
C245 C244 1.367 . S
C245 C253 1.433 . S
C246 H242 0.929 . S
C246 C248 1.378 . S
C246 C250 1.350 . S
C247 C250 1.463 . S
C247 C252 1.350 . S
C247 N255 1.427 . S
C248 H239 0.930 . S
C248 C246 1.378 . S
C248 C249 1.367 . S
C249 C248 1.367 . S
C249 C251 1.433 1_655 S
C250 C246 1.350 . S
C250 C247 1.463 . S
C250 N254 1.427 . S
C251 H241 0.929 . S
C251 C249 1.433 1_455 S
C251 N254 1.384 1_455 S
C252 H243 0.929 . S
C252 C244 1.378 . S
C252 C247 1.350 . S
C253 H240 0.929 . S
C253 C245 1.433 . S
C253 N255 1.384 . S
N254 C250 1.427 . S
N254 C251 1.384 1_655 S
N255 C247 1.427 . S
N255 C253 1.384 . S
H256 C262 0.930 . S
H257 C266 0.930 . S
H258 C271 0.929 . S
H259 C269 0.929 . S
H260 C264 0.929 . S
H261 C270 0.929 . S
C262 H256 0.930 . S
C262 C263 1.367 . S
C262 C270 1.378 . S
C263 C262 1.367 . S
C263 C271 1.433 . S
C264 H260 0.929 . S
C264 C266 1.378 . S
C264 C268 1.350 . S
C265 C268 1.463 . S
C265 C270 1.350 . S
C265 N273 1.427 . S
C266 H257 0.930 . S
C266 C264 1.378 . S
C266 C267 1.367 . S
C267 C266 1.367 . S
C267 C269 1.433 . S
C268 C264 1.350 . S
C268 C265 1.463 . S
C268 N272 1.427 . S
C269 H259 0.929 . S
C269 C267 1.433 . S
C269 N272 1.384 . S
C270 H261 0.929 . S
C270 C262 1.378 . S
C270 C265 1.350 . S
C271 H258 0.929 . S
C271 C263 1.433 . S
C271 N273 1.384 . S
N272 C268 1.427 . S
N272 C269 1.384 . S
N273 C265 1.427 . S
N273 C271 1.384 . S
H274 C280 0.930 . S
H275 C284 0.930 . S
H276 C289 0.929 . S
H277 C287 0.929 . S
H278 C282 0.929 . S
H279 C288 0.929 . S
C280 H274 0.930 . S
C280 C281 1.367 . S
C280 C288 1.378 . S
C281 C280 1.367 . S
C281 C289 1.433 . S
C282 H278 0.929 . S
C282 C284 1.378 . S
C282 C286 1.350 . S
C283 C286 1.463 . S
C283 C288 1.350 . S
C283 N291 1.427 . S
C284 H275 0.930 . S
C284 C282 1.378 . S
C284 C285 1.367 . S
C285 C284 1.367 . S
C285 C287 1.433 . S
C286 C282 1.350 . S
C286 C283 1.463 . S
C286 N290 1.427 . S
C287 H277 0.929 . S
C287 C285 1.433 . S
C287 N290 1.384 . S
C288 H279 0.929 . S
C288 C280 1.378 . S
C288 C283 1.350 . S
C289 H276 0.929 . S
C289 C281 1.433 . S
C289 N291 1.384 . S
N290 C286 1.427 . S
N290 C287 1.384 . S
N291 C283 1.427 . S
N291 C289 1.384 . S
H292 C298 0.930 . S
H293 C302 0.930 . S
H294 C307 0.929 . S
H295 C305 0.929 1_554 S
H296 C300 0.929 . S
H297 C306 0.929 . S
C298 H292 0.930 . S
C298 C299 1.367 . S
C298 C306 1.378 . S
C299 C298 1.367 . S
C299 C307 1.433 . S
C300 H296 0.929 . S
C300 C302 1.378 . S
C300 C304 1.350 . S
C301 C304 1.463 . S
C301 C306 1.350 . S
C301 N309 1.427 . S
C302 H293 0.930 . S
C302 C300 1.378 . S
C302 C303 1.367 . S
C303 C302 1.367 . S
C303 C305 1.433 . S
C304 C300 1.350 . S
C304 C301 1.463 . S
C304 N308 1.427 . S
C305 H295 0.929 1_556 S
C305 C303 1.433 . S
C305 N308 1.384 . S
C306 H297 0.929 . S
C306 C298 1.378 . S
C306 C301 1.350 . S
C307 H294 0.929 . S
C307 C299 1.433 . S
C307 N309 1.384 . S
N308 C304 1.427 . S
N308 C305 1.384 . S
N309 C301 1.427 . S
N309 C307 1.384 . S
H310 C316 0.930 . S
H311 C320 0.930 . S
H312 C325 0.929 . S
H313 C323 0.929 . S
H314 C318 0.929 . S
H315 C324 0.929 . S
C316 H310 0.930 . S
C316 C317 1.367 . S
C316 C324 1.378 . S
C317 C316 1.367 . S
C317 C325 1.433 . S
C318 H314 0.929 . S
C318 C320 1.378 . S
C318 C322 1.350 . S
C319 C322 1.463 . S
C319 C324 1.350 . S
C319 N327 1.427 . S
C320 H311 0.930 . S
C320 C318 1.378 . S
C320 C321 1.367 . S
C321 C320 1.367 . S
C321 C323 1.433 . S
C322 C318 1.350 . S
C322 C319 1.463 . S
C322 N326 1.427 . S
C323 H313 0.929 . S
C323 C321 1.433 . S
C323 N326 1.384 . S
C324 H315 0.929 . S
C324 C316 1.378 . S
C324 C319 1.350 . S
C325 H312 0.929 . S
C325 C317 1.433 . S
C325 N327 1.384 . S
N326 C322 1.427 . S
N326 C323 1.384 . S
N327 C319 1.427 . S
N327 C325 1.384 . S
H328 C334 0.930 . S
H329 C338 0.930 . S
H330 C343 0.929 . S
H331 C341 0.929 . S
H332 C336 0.929 . S
H333 C342 0.929 . S
C334 H328 0.930 . S
C334 C335 1.367 . S
C334 C342 1.378 . S
C335 C334 1.367 . S
C335 C343 1.433 . S
C336 H332 0.929 . S
C336 C338 1.378 . S
C336 C340 1.350 . S
C337 C340 1.463 . S
C337 C342 1.350 . S
C337 N345 1.427 . S
C338 H329 0.930 . S
C338 C336 1.378 . S
C338 C339 1.367 . S
C339 C338 1.367 . S
C339 C341 1.433 . S
C340 C336 1.350 . S
C340 C337 1.463 . S
C340 N344 1.427 . S
C341 H331 0.929 . S
C341 C339 1.433 . S
C341 N344 1.384 . S
C342 H333 0.929 . S
C342 C334 1.378 . S
C342 C337 1.350 . S
C343 H330 0.929 . S
C343 C335 1.433 . S
C343 N345 1.384 . S
N344 C340 1.427 . S
N344 C341 1.384 . S
N345 C337 1.427 . S
N345 C343 1.384 . S
H346 C352 0.930 . S
H347 C356 0.930 . S
H348 C361 0.929 . S
H349 C359 0.929 . S
H350 C354 0.929 . S
H351 C360 0.929 . S
C352 H346 0.930 . S
C352 C353 1.367 . S
C352 C360 1.378 . S
C353 C352 1.367 . S
C353 C361 1.433 . S
C354 H350 0.929 . S
C354 C356 1.378 . S
C354 C358 1.350 . S
C355 C358 1.463 . S
C355 C360 1.350 . S
C355 N363 1.427 . S
C356 H347 0.930 . S
C356 C354 1.378 . S
C356 C357 1.367 . S
C357 C356 1.367 . S
C357 C359 1.433 . S
C358 C354 1.350 . S
C358 C355 1.463 . S
C358 N362 1.427 . S
C359 H349 0.929 . S
C359 C357 1.433 . S
C359 N362 1.384 . S
C360 H351 0.929 . S
C360 C352 1.378 . S
C360 C355 1.350 . S
C361 H348 0.929 . S
C361 C353 1.433 . S
C361 N363 1.384 . S
N362 C358 1.427 . S
N362 C359 1.384 . S
N363 C355 1.427 . S
N363 C361 1.384 . S
H364 C370 0.930 . S
H365 C374 0.930 . S
H366 C379 0.929 . S
H367 C377 0.929 . S
H368 C372 0.929 . S
H369 C378 0.929 . S
C370 H364 0.930 . S
C370 C371 1.367 . S
C370 C378 1.378 . S
C371 C370 1.367 . S
C371 C379 1.433 . S
C372 H368 0.929 . S
C372 C374 1.378 . S
C372 C376 1.350 . S
C373 C376 1.463 . S
C373 C378 1.350 . S
C373 N381 1.427 . S
C374 H365 0.930 . S
C374 C372 1.378 . S
C374 C375 1.367 . S
C375 C374 1.367 . S
C375 C377 1.433 . S
C376 C372 1.350 . S
C376 C373 1.463 . S
C376 N380 1.427 . S
C377 H367 0.929 . S
C377 C375 1.433 . S
C377 N380 1.384 . S
C378 H369 0.929 . S
C378 C370 1.378 . S
C378 C373 1.350 . S
C379 H366 0.929 . S
C379 C371 1.433 . S
C379 N381 1.384 . S
N380 C376 1.427 . S
N380 C377 1.384 . S
N381 C373 1.427 . S
N381 C379 1.384 . S
H382 C388 0.930 . S
H383 C392 0.930 . S
H384 C397 0.929 . S
H385 C395 0.929 . S
H386 C390 0.929 . S
H387 C396 0.929 . S
C388 H382 0.930 . S
C388 C389 1.367 . S
C388 C396 1.378 . S
C389 C388 1.367 . S
C389 C397 1.433 . S
C390 H386 0.929 . S
C390 C392 1.378 . S
C390 C394 1.350 . S
C391 C394 1.463 . S
C391 C396 1.350 . S
C391 N399 1.427 . S
C392 H383 0.930 . S
C392 C390 1.378 . S
C392 C393 1.367 . S
C393 C392 1.367 . S
C393 C395 1.433 . S
C394 C390 1.350 . S
C394 C391 1.463 . S
C394 N398 1.427 . S
C395 H385 0.929 . S
C395 C393 1.433 . S
C395 N398 1.384 . S
C396 H387 0.929 . S
C396 C388 1.378 . S
C396 C391 1.350 . S
C397 H384 0.929 . S
C397 C389 1.433 . S
C397 N399 1.384 . S
N398 C394 1.427 . S
N398 C395 1.384 . S
N399 C391 1.427 . S
N399 C397 1.384 . S
H400 C406 0.930 . S
H401 C410 0.907 1_455 S
H402 C415 0.929 . S
H403 C413 0.929 . S
H404 C408 0.929 . S
H405 C414 0.929 . S
C406 H400 0.930 . S
C406 C407 1.367 . S
C406 C414 1.378 . S
C407 C406 1.367 . S
C407 C415 1.433 . S
C408 H404 0.929 . S
C408 C410 1.378 . S
C408 C412 1.350 . S
C409 C412 1.463 . S
C409 C414 1.350 . S
C409 N417 1.427 . S
C410 H401 0.907 1_655 S
C410 C408 1.378 . S
C410 C411 1.367 . S
C411 C410 1.367 . S
C411 C413 1.433 . S
C412 C408 1.350 . S
C412 C409 1.463 . S
C412 N416 1.427 . S
C413 H403 0.929 . S
C413 C411 1.433 . S
C413 N416 1.384 . S
C414 H405 0.929 . S
C414 C406 1.378 . S
C414 C409 1.350 . S
C415 H402 0.929 . S
C415 C407 1.433 . S
C415 N417 1.384 . S
N416 C412 1.427 . S
N416 C413 1.384 . S
N417 C409 1.427 . S
N417 C415 1.384 . S
H418 C424 0.930 . S
H419 C428 0.930 . S
H420 C433 0.929 . S
H421 C431 0.929 . S
H422 C426 0.929 . S
H423 C432 0.929 . S
C424 H418 0.930 . S
C424 C425 1.367 . S
C424 C432 1.378 . S
C425 C424 1.367 . S
C425 C433 1.433 . S
C426 H422 0.929 . S
C426 C428 1.378 . S
C426 C430 1.350 . S
C427 C430 1.463 . S
C427 C432 1.350 . S
C427 N435 1.427 . S
C428 H419 0.930 . S
C428 C426 1.378 . S
C428 C429 1.367 . S
C429 C428 1.367 . S
C429 C431 1.433 . S
C430 C426 1.350 . S
C430 C427 1.463 . S
C430 N434 1.427 . S
C431 H421 0.929 . S
C431 C429 1.433 . S
C431 N434 1.384 . S
C432 H423 0.929 . S
C432 C424 1.378 . S
C432 C427 1.350 . S
C433 H420 0.929 . S
C433 C425 1.433 . S
C433 N435 1.384 . S
N434 C430 1.427 . S
N434 C431 1.384 . S
N435 C427 1.427 . S
N435 C433 1.384 . S
H436 C442 0.930 . S
H437 C446 0.930 . S
H438 C451 0.929 . S
H439 C449 0.929 . S
H440 C444 0.929 . S
H441 C450 0.929 . S
C442 H436 0.930 . S
C442 C443 1.367 . S
C442 C450 1.378 . S
C443 C442 1.367 . S
C443 C451 1.433 . S
C444 H440 0.929 . S
C444 C446 1.378 . S
C444 C448 1.350 . S
C445 C448 1.463 . S
C445 C450 1.350 . S
C445 N453 1.427 . S
C446 H437 0.930 . S
C446 C444 1.378 . S
C446 C447 1.367 . S
C447 C446 1.367 . S
C447 C449 1.433 . S
C448 C444 1.350 . S
C448 C445 1.463 . S
C448 N452 1.427 . S
C449 H439 0.929 . S
C449 C447 1.433 . S
C449 N452 1.384 . S
C450 H441 0.929 . S
C450 C442 1.378 . S
C450 C445 1.350 . S
C451 H438 0.929 . S
C451 C443 1.433 . S
C451 N453 1.384 . S
N452 C448 1.427 . S
N452 C449 1.384 . S
N453 C445 1.427 . S
N453 C451 1.384 . S
H454 C460 0.930 . S
H455 C464 0.930 . S
H456 C469 0.929 . S
H457 C467 0.929 . S
H458 C462 0.929 . S
H459 C468 0.929 . S
C460 H454 0.930 . S
C460 C461 1.367 . S
C460 C468 1.378 . S
C461 C460 1.367 . S
C461 C469 1.433 . S
C462 H458 0.929 . S
C462 C464 1.378 . S
C462 C466 1.350 . S
C463 C466 1.463 . S
C463 C468 1.350 . S
C463 N471 1.427 . S
C464 H455 0.930 . S
C464 C462 1.378 . S
C464 C465 1.367 . S
C465 C464 1.367 . S
C465 C467 1.433 . S
C466 C462 1.350 . S
C466 C463 1.463 . S
C466 N470 1.427 . S
C467 H457 0.929 . S
C467 C465 1.433 . S
C467 N470 1.384 . S
C468 H459 0.929 . S
C468 C460 1.378 . S
C468 C463 1.350 . S
C469 H456 0.929 . S
C469 C461 1.433 . S
C469 N471 1.384 . S
N470 C466 1.427 . S
N470 C467 1.384 . S
N471 C463 1.427 . S
N471 C469 1.384 . S
H472 C478 0.930 . S
H473 C482 0.930 . S
H474 C487 0.929 . S
H475 C485 0.929 . S
H476 C480 0.929 . S
H477 C486 0.929 . S
C478 H472 0.930 . S
C478 C479 1.367 . S
C478 C486 1.378 . S
C479 C478 1.367 . S
C479 C487 1.433 . S
C480 H476 0.929 . S
C480 C482 1.378 . S
C480 C484 1.350 . S
C481 C484 1.463 . S
C481 C486 1.350 . S
C481 N489 1.427 . S
C482 H473 0.930 . S
C482 C480 1.378 . S
C482 C483 1.367 . S
C483 C482 1.367 . S
C483 C485 1.433 . S
C484 C480 1.350 . S
C484 C481 1.463 . S
C484 N488 1.427 . S
C485 H475 0.929 . S
C485 C483 1.433 . S
C485 N488 1.384 . S
C486 H477 0.929 . S
C486 C478 1.378 . S
C486 C481 1.350 . S
C487 H474 0.929 . S
C487 C479 1.433 . S
C487 N489 1.384 . S
N488 C484 1.427 . S
N488 C485 1.384 . S
N489 C481 1.427 . S
N489 C487 1.384 . S
H490 C496 0.930 . S
H491 C500 0.930 . S
H492 C505 0.929 . S
H493 C503 0.929 . S
H494 C498 0.929 . S
H495 C504 0.929 . S
C496 H490 0.930 . S
C496 C497 1.367 . S
C496 C504 1.378 . S
C497 C496 1.367 . S
C497 C505 1.433 . S
C498 H494 0.929 . S
C498 C500 1.378 . S
C498 C502 1.350 . S
C499 C502 1.463 . S
C499 C504 1.350 . S
C499 N507 1.427 . S
C500 H491 0.930 . S
C500 C498 1.378 . S
C500 C501 1.367 . S
C501 C500 1.367 . S
C501 C503 1.433 . S
C502 C498 1.350 . S
C502 C499 1.463 . S
C502 N506 1.427 . S
C503 H493 0.929 . S
C503 C501 1.433 . S
C503 N506 1.384 . S
C504 H495 0.929 . S
C504 C496 1.378 . S
C504 C499 1.350 . S
C505 H492 0.929 . S
C505 C497 1.433 . S
C505 N507 1.384 . S
N506 C502 1.427 . S
N506 C503 1.384 . S
N507 C499 1.427 . S
N507 C505 1.384 . S
H508 C514 0.930 . S
H509 C518 0.930 . S
H510 C523 0.929 . S
H511 C521 0.929 . S
H512 C516 0.929 . S
H513 C522 0.929 . S
C514 H508 0.930 . S
C514 C515 1.367 . S
C514 C522 1.378 . S
C515 C514 1.367 . S
C515 C523 1.433 . S
C516 H512 0.929 . S
C516 C518 1.378 . S
C516 C520 1.350 . S
C517 C520 1.463 . S
C517 C522 1.350 . S
C517 N525 1.427 . S
C518 H509 0.930 . S
C518 C516 1.378 . S
C518 C519 1.367 . S
C519 C518 1.367 . S
C519 C521 1.433 . S
C520 C516 1.350 . S
C520 C517 1.463 . S
C520 N524 1.427 . S
C521 H511 0.929 . S
C521 C519 1.433 . S
C521 N524 1.384 . S
C522 H513 0.929 . S
C522 C514 1.378 . S
C522 C517 1.350 . S
C523 H510 0.929 . S
C523 C515 1.433 . S
C523 N525 1.384 . S
N524 C520 1.427 . S
N524 C521 1.384 . S
N525 C517 1.427 . S
N525 C523 1.384 . S
H526 C532 0.930 . S
H527 C536 0.930 . S
H528 C541 0.929 . S
H529 C539 0.929 . S
H530 C534 0.929 . S
H531 C540 0.929 . S
C532 H526 0.930 . S
C532 C533 1.367 . S
C532 C540 1.378 . S
C533 C532 1.367 . S
C533 C541 1.433 . S
C534 H530 0.929 . S
C534 C536 1.378 . S
C534 C538 1.350 . S
C535 C538 1.463 . S
C535 C540 1.350 . S
C535 N543 1.427 . S
C536 H527 0.930 . S
C536 C534 1.378 . S
C536 C537 1.367 . S
C537 C536 1.367 . S
C537 C539 1.433 . S
C538 C534 1.350 . S
C538 C535 1.463 . S
C538 N542 1.427 . S
C539 H529 0.929 . S
C539 C537 1.433 . S
C539 N542 1.384 . S
C540 H531 0.929 . S
C540 C532 1.378 . S
C540 C535 1.350 . S
C541 H528 0.929 . S
C541 C533 1.433 . S
C541 N543 1.384 . S
N542 C538 1.427 . S
N542 C539 1.384 . S
N543 C535 1.427 . S
N543 C541 1.384 . S
H544 C550 0.930 . S
H545 C554 0.930 . S
H546 C559 0.929 . S
H547 C557 0.929 . S
H548 C552 0.929 . S
H549 C558 0.929 . S
C550 H544 0.930 . S
C550 C551 1.367 . S
C550 C558 1.378 . S
C551 C550 1.367 . S
C551 C559 1.433 . S
C552 H548 0.929 . S
C552 C554 1.378 . S
C552 C556 1.350 . S
C553 C556 1.463 . S
C553 C558 1.350 . S
C553 N561 1.427 . S
C554 H545 0.930 . S
C554 C552 1.378 . S
C554 C555 1.367 . S
C555 C554 1.367 . S
C555 C557 1.433 . S
C556 C552 1.350 . S
C556 C553 1.463 . S
C556 N560 1.427 . S
C557 H547 0.929 . S
C557 C555 1.433 . S
C557 N560 1.384 . S
C558 H549 0.929 . S
C558 C550 1.378 . S
C558 C553 1.350 . S
C559 H546 0.929 . S
C559 C551 1.433 . S
C559 N561 1.384 . S
N560 C556 1.427 . S
N560 C557 1.384 . S
N561 C553 1.427 . S
N561 C559 1.384 . S
H562 C568 0.930 . S
H563 C572 0.930 . S
H564 C577 0.929 . S
H565 C575 0.929 . S
H566 C570 0.929 . S
H567 C576 0.929 . S
C568 H562 0.930 . S
C568 C569 1.367 . S
C568 C576 1.378 . S
C569 C568 1.367 . S
C569 C577 1.433 . S
C570 H566 0.929 . S
C570 C572 1.378 . S
C570 C574 1.350 . S
C571 C574 1.463 . S
C571 C576 1.350 . S
C571 N579 1.427 . S
C572 H563 0.930 . S
C572 C570 1.378 . S
C572 C573 1.367 . S
C573 C572 1.367 . S
C573 C575 1.433 . S
C574 C570 1.350 . S
C574 C571 1.463 . S
C574 N578 1.427 . S
C575 H565 0.929 . S
C575 C573 1.433 . S
C575 N578 1.384 . S
C576 H567 0.929 . S
C576 C568 1.378 . S
C576 C571 1.350 . S
C577 H564 0.929 . S
C577 C569 1.433 . S
C577 N579 1.384 . S
N578 C574 1.427 . S
N578 C575 1.384 . S
N579 C571 1.427 . S
N579 C577 1.384 . S
H580 C586 0.930 . S
H581 C590 0.930 . S
H582 C595 0.929 . S
H583 C593 0.929 . S
H584 C588 0.929 . S
H585 C594 0.929 . S
C586 H580 0.930 . S
C586 C587 1.367 . S
C586 C594 1.378 . S
C587 C586 1.367 . S
C587 C595 1.433 . S
C588 H584 0.929 . S
C588 C590 1.378 . S
C588 C592 1.350 . S
C589 C592 1.463 . S
C589 C594 1.350 . S
C589 N597 1.427 . S
C590 H581 0.930 . S
C590 C588 1.378 . S
C590 C591 1.367 . S
C591 C590 1.367 . S
C591 C593 1.433 . S
C592 C588 1.350 . S
C592 C589 1.463 . S
C592 N596 1.427 . S
C593 H583 0.929 . S
C593 C591 1.433 . S
C593 N596 1.384 . S
C594 H585 0.929 . S
C594 C586 1.378 . S
C594 C589 1.350 . S
C595 H582 0.929 . S
C595 C587 1.433 . S
C595 N597 1.384 . S
N596 C592 1.427 . S
N596 C593 1.384 . S
N597 C589 1.427 . S
N597 C595 1.384 . S
H598 C604 0.930 . S
H599 C608 0.930 . S
H600 C613 0.929 . S
H601 C611 0.929 . S
H602 C606 0.929 . S
H603 C612 0.929 . S
C604 H598 0.930 . S
C604 C605 1.367 . S
C604 C612 1.378 . S
C605 C604 1.367 . S
C605 C613 1.433 . S
C606 H602 0.929 . S
C606 C608 1.378 . S
C606 C610 1.350 . S
C607 C610 1.463 . S
C607 C612 1.350 . S
C607 N615 1.427 . S
C608 H599 0.930 . S
C608 C606 1.378 . S
C608 C609 1.367 . S
C609 C608 1.367 . S
C609 C611 1.433 . S
C610 C606 1.350 . S
C610 C607 1.463 . S
C610 N614 1.427 . S
C611 H601 0.929 . S
C611 C609 1.433 . S
C611 N614 1.384 . S
C612 H603 0.929 . S
C612 C604 1.378 . S
C612 C607 1.350 . S
C613 H600 0.929 . S
C613 C605 1.433 . S
C613 N615 1.384 . S
N614 C610 1.427 . S
N614 C611 1.384 . S
N615 C607 1.427 . S
N615 C613 1.384 . S
C191 C9 1.868 . S
C195 C123 1.862 . S
C209 C21 1.310 . S
C213 C126 1.290 . S
C231 C162 1.417 . S
C227 C30 1.411 . S
C245 C43 1.492 . S
C249 C182 1.494 1_655 S
C267 C136 1.567 . S
C263 C4 1.564 . S
C285 C113 2.019 . S
C281 C22 2.034 . S
C303 C166 1.243 . S
C299 C34 1.369 . S
C321 C146 1.206 . S
C317 C48 1.269 . S
C335 C8 1.437 . S
C339 C176 1.373 . S
C357 C142 1.703 . S
C353 C35 1.720 . S
C371 C47 1.754 . S
C375 C108 1.712 . S
C389 C17 1.177 . S
C393 C156 1.143 . S
C411 C122 1.464 . S
C407 C60 1.483 . S
C425 C74 1.475 . S
C429 C128 1.415 . S
C443 C82 1.254 . S
C447 C163 1.279 . S
C461 C100 1.931 . S
C465 C183 1.904 . S
C479 C61 2.002 . S
C483 C133 1.979 . S
C501 C116 1.607 . S
C497 C73 1.634 . S
C519 C168 1.683 . S
C515 C87 1.754 . S
C537 C148 1.106 . S
C533 C95 1.178 . S
C551 C56 1.392 . S
C555 C173 1.345 . S
C573 C143 1.704 . S
C569 C86 1.739 . S
C591 C106 1.635 . S
C587 C99 1.682 . S
C605 C69 1.203 . S
C609 C153 1.211 . S
