# Generated by pormake.
# Topology ptr, (4,4)-cn, num edge types: 1
# Building blocks:
#     Node 0, Type 0, BuildingBlock: QUQFOY_clean_sbu_3, # of connection points: 4
#     Node 1, Type 0, BuildingBlock: QUQFOY_clean_sbu_3, # of connection points: 4
#     Node 2, Type 0, BuildingBlock: QUQFOY_clean_sbu_3, # of connection points: 4
#     Node 3, Type 0, BuildingBlock: QUQFOY_clean_sbu_3, # of connection points: 4
#     Node 4, Type 0, BuildingBlock: QUQFOY_clean_sbu_3, # of connection points: 4
#     Node 5, Type 0, BuildingBlock: QUQFOY_clean_sbu_3, # of connection points: 4
#     Node 6, Type 0, BuildingBlock: QUQFOY_clean_sbu_3, # of connection points: 4
#     Node 7, Type 0, BuildingBlock: QUQFOY_clean_sbu_3, # of connection points: 4
#     Node 8, Type 0, BuildingBlock: QUQFOY_clean_sbu_3, # of connection points: 4
#     Node 9, Type 0, BuildingBlock: QUQFOY_clean_sbu_3, # of connection points: 4
#     Node 10, Type 0, BuildingBlock: QUQFOY_clean_sbu_3, # of connection points: 4
#     Node 11, Type 0, BuildingBlock: QUQFOY_clean_sbu_3, # of connection points: 4
#     Node 12, Type 0, BuildingBlock: QUQFOY_clean_sbu_3, # of connection points: 4
#     Node 13, Type 0, BuildingBlock: QUQFOY_clean_sbu_3, # of connection points: 4
#     Node 14, Type 0, BuildingBlock: QUQFOY_clean_sbu_3, # of connection points: 4
#     Node 15, Type 0, BuildingBlock: QUQFOY_clean_sbu_3, # of connection points: 4
#     Node 16, Type 0, BuildingBlock: QUQFOY_clean_sbu_3, # of connection points: 4
#     Node 17, Type 0, BuildingBlock: QUQFOY_clean_sbu_3, # of connection points: 4
#     Node 18, Type 1, BuildingBlock: NAWXER_clean_linker_0, # of connection points: 4
#     Node 19, Type 1, BuildingBlock: NAWXER_clean_linker_0, # of connection points: 4
#     Node 20, Type 1, BuildingBlock: NAWXER_clean_linker_0, # of connection points: 4
#     Node 21, Type 1, BuildingBlock: NAWXER_clean_linker_0, # of connection points: 4
#     Node 22, Type 1, BuildingBlock: NAWXER_clean_linker_0, # of connection points: 4
#     Node 23, Type 1, BuildingBlock: NAWXER_clean_linker_0, # of connection points: 4
#     Node 24, Type 1, BuildingBlock: NAWXER_clean_linker_0, # of connection points: 4
#     Node 25, Type 1, BuildingBlock: NAWXER_clean_linker_0, # of connection points: 4
#     Node 26, Type 1, BuildingBlock: NAWXER_clean_linker_0, # of connection points: 4
#     Node 27, Type 1, BuildingBlock: NAWXER_clean_linker_0, # of connection points: 4
#     Node 28, Type 1, BuildingBlock: NAWXER_clean_linker_0, # of connection points: 4
#     Node 29, Type 1, BuildingBlock: NAWXER_clean_linker_0, # of connection points: 4
#     Node 30, Type 1, BuildingBlock: NAWXER_clean_linker_0, # of connection points: 4
#     Node 31, Type 1, BuildingBlock: NAWXER_clean_linker_0, # of connection points: 4
#     Node 32, Type 1, BuildingBlock: NAWXER_clean_linker_0, # of connection points: 4
#     Node 33, Type 1, BuildingBlock: NAWXER_clean_linker_0, # of connection points: 4
#     Node 34, Type 1, BuildingBlock: NAWXER_clean_linker_0, # of connection points: 4
#     Node 35, Type 1, BuildingBlock: NAWXER_clean_linker_0, # of connection points: 4
#     Edge 36, Type (0, 1), None
#     Edge 37, Type (0, 1), None
#     Edge 38, Type (0, 1), None
#     Edge 39, Type (0, 1), None
#     Edge 40, Type (0, 1), None
#     Edge 41, Type (0, 1), None
#     Edge 42, Type (0, 1), None
#     Edge 43, Type (0, 1), None
#     Edge 44, Type (0, 1), None
#     Edge 45, Type (0, 1), None
#     Edge 46, Type (0, 1), None
#     Edge 47, Type (0, 1), None
#     Edge 48, Type (0, 1), None
#     Edge 49, Type (0, 1), None
#     Edge 50, Type (0, 1), None
#     Edge 51, Type (0, 1), None
#     Edge 52, Type (0, 1), None
#     Edge 53, Type (0, 1), None
#     Edge 54, Type (0, 1), None
#     Edge 55, Type (0, 1), None
#     Edge 56, Type (0, 1), None
#     Edge 57, Type (0, 1), None
#     Edge 58, Type (0, 1), None
#     Edge 59, Type (0, 1), None
#     Edge 60, Type (0, 1), None
#     Edge 61, Type (0, 1), None
#     Edge 62, Type (0, 1), None
#     Edge 63, Type (0, 1), None
#     Edge 64, Type (0, 1), None
#     Edge 65, Type (0, 1), None
#     Edge 66, Type (0, 1), None
#     Edge 67, Type (0, 1), None
#     Edge 68, Type (0, 1), None
#     Edge 69, Type (0, 1), None
#     Edge 70, Type (0, 1), None
#     Edge 71, Type (0, 1), None
#     Edge 72, Type (0, 1), None
#     Edge 73, Type (0, 1), None
#     Edge 74, Type (0, 1), None
#     Edge 75, Type (0, 1), None
#     Edge 76, Type (0, 1), None
#     Edge 77, Type (0, 1), None
#     Edge 78, Type (0, 1), None
#     Edge 79, Type (0, 1), None
#     Edge 80, Type (0, 1), None
#     Edge 81, Type (0, 1), None
#     Edge 82, Type (0, 1), None
#     Edge 83, Type (0, 1), None
#     Edge 84, Type (0, 1), None
#     Edge 85, Type (0, 1), None
#     Edge 86, Type (0, 1), None
#     Edge 87, Type (0, 1), None
#     Edge 88, Type (0, 1), None
#     Edge 89, Type (0, 1), None
#     Edge 90, Type (0, 1), None
#     Edge 91, Type (0, 1), None
#     Edge 92, Type (0, 1), None
#     Edge 93, Type (0, 1), None
#     Edge 94, Type (0, 1), None
#     Edge 95, Type (0, 1), None
#     Edge 96, Type (0, 1), None
#     Edge 97, Type (0, 1), None
#     Edge 98, Type (0, 1), None
#     Edge 99, Type (0, 1), None
#     Edge 100, Type (0, 1), None
#     Edge 101, Type (0, 1), None
#     Edge 102, Type (0, 1), None
#     Edge 103, Type (0, 1), None
#     Edge 104, Type (0, 1), None
#     Edge 105, Type (0, 1), None
#     Edge 106, Type (0, 1), None
#     Edge 107, Type (0, 1), None
# Relax obj value: 0.029
# Max RMSD: 0.138
# Mean RMSD: 0.052
data_MOF--net-ptr--node1-QUQFOY_clean_sbu_3--node2-NAWXER_clean_linker_0--edge1-none
_symmetry_space_group_name_H-M    P1
_symmetry_Int_Tables_number       1
_symmetry_cell_setting            triclinic
loop_
_symmetry_equiv_pos_as_xyz
'x, y, z'
_cell_length_a     48.522929
_cell_length_b     48.783525
_cell_length_c     35.103152
_cell_angle_alpha  90.387832
_cell_angle_beta   89.318375
_cell_angle_gamma 120.54818
loop_
_atom_site_label
_atom_site_type_symbol
_atom_site_fract_x
_atom_site_fract_y
_atom_site_fract_z
_atom_type_partial_charge
C0 C 0.93025 0.28785 0.96758 0.0
O1 O 0.91468 0.30062 0.97998 0.0
Cd2 Cd 0.9365 0.34993 0.01356 0.0
O3 O 0.95982 0.29993 0.97481 0.0
Cd4 Cd 0.00177 0.34387 0.01219 0.0
C5 C 0.00011 0.39619 0.95124 0.0
O6 O 0.968 0.34675 0.06153 0.0
O7 O 0.01722 0.38484 0.06138 0.0
O8 O 0.00742 0.30231 0.04124 0.0
C9 C -0.01046 0.37237 0.07638 0.0
O10 O 0.9738 0.38842 0.96828 0.0
C11 C 0.03753 0.31589 0.03709 0.0
O12 O 0.01583 0.38242 0.95896 0.0
O13 O 0.05133 0.34241 0.01948 0.0
C14 C 0.63145 0.70242 0.05085 0.0
O15 O 0.60174 0.69038 0.04492 0.0
Cd16 Cd 0.56955 0.64121 0.01164 0.0
O17 O 0.64653 0.68955 0.03704 0.0
Cd18 Cd 0.63502 0.64266 0.99785 0.0
C19 C 0.5875 0.59548 0.06884 0.0
O20 O 0.5946 0.63945 0.95311 0.0
O21 O 0.60216 0.59943 0.95535 0.0
O22 O 0.68301 0.67643 0.96043 0.0
C23 C 0.58833 0.61257 0.9399 0.0
O24 O 0.56789 0.60367 0.05753 0.0
C25 C 0.69613 0.66007 0.96657 0.0
O26 O 0.6149 0.6065 0.05305 0.0
O27 O 0.68104 0.63588 0.98803 0.0
C28 C 0.27811 0.9256 0.05304 0.0
O29 O 0.28928 0.90744 0.04657 0.0
Cd30 Cd 0.33719 0.92246 0.01087 0.0
O31 O 0.29154 0.95358 0.03928 0.0
Cd32 Cd 0.33806 -0.01091 0.99936 0.0
C33 C 0.38647 0.98748 0.06665 0.0
O34 O 0.33535 0.94899 0.95495 0.0
O35 O 0.37599 -0.00327 0.94942 0.0
O36 O 0.3024 0.00268 0.96859 0.0
C37 C 0.36085 0.96834 0.93726 0.0
O38 O 0.37644 0.95911 0.05544 0.0
C39 C 0.32025 0.03254 0.97261 0.0
O40 O 0.37648 0.00456 0.05178 0.0
O41 O 0.34641 0.04236 0.99018 0.0
C42 C 0.92424 0.63007 0.97255 0.0
O43 O 0.90885 0.60065 0.9808 0.0
Cd44 Cd 0.93389 0.57353 0.00613 0.0
O45 O 0.95354 0.64749 0.9815 0.0
Cd46 Cd -0.00458 0.64418 0.01706 0.0
C47 C -0.00157 0.60169 0.94311 0.0
O48 O 0.96105 0.60208 0.06195 0.0
O49 O 0.01117 0.61649 0.06152 0.0
O50 O 0.00265 0.69077 0.05106 0.0
C51 C -0.01657 0.59905 0.07565 0.0
O52 O 0.97111 0.57993 0.95506 0.0
C53 C 0.03257 0.70742 0.04497 0.0
O54 O 0.01375 0.62834 0.96021 0.0
O55 O 0.0453 0.69469 0.02531 0.0
C56 C 0.27808 0.34581 0.05473 0.0
O57 O 0.28934 0.37536 0.04934 0.0
Cd58 Cd 0.33801 0.40886 0.01502 0.0
O59 O 0.29151 0.33163 0.04003 0.0
Cd60 Cd 0.33809 0.34376 -0.0002 0.0
C61 C 0.38533 0.39102 0.0699 0.0
O62 O 0.33864 0.38357 0.95674 0.0
O63 O 0.37941 0.37677 0.95491 0.0
O64 O 0.30361 0.29571 0.9642 0.0
C65 C 0.36527 0.39038 0.94156 0.0
O66 O 0.37625 0.41008 0.05939 0.0
C67 C 0.32082 0.28328 0.96878 0.0
O68 O 0.37492 0.36409 0.05381 0.0
O69 O 0.34593 0.29884 0.98857 0.0
C70 C 0.69426 0.05432 0.9706 0.0
O71 O 0.68143 0.06992 0.98253 0.0
Cd72 Cd 0.63194 0.04799 0.01711 0.0
O73 O 0.68222 0.02509 0.979 0.0
Cd74 Cd 0.63789 0.98477 0.01819 0.0
C75 C 0.58491 0.98453 0.95713 0.0
O76 O 0.63477 0.01831 0.06819 0.0
O77 O 0.59585 0.96963 0.06616 0.0
O78 O 0.678 0.97698 0.04804 0.0
C79 C 0.60857 -0.00338 0.08234 0.0
O80 O 0.59222 0.0108 0.97327 0.0
C81 C 0.66382 0.94715 0.04264 0.0
O82 O 0.59934 0.96962 0.96544 0.0
O83 O 0.63764 0.93462 0.02443 0.0
C84 C 0.58969 0.61805 0.30687 0.0
O85 O 0.573 0.6298 0.31856 0.0
Cd86 Cd 0.59344 0.67924 0.35191 0.0
O87 O 0.61911 0.63103 0.31526 0.0
Cd88 Cd 0.6585 0.67557 0.35377 0.0
C89 C 0.6567 0.72577 0.29012 0.0
O90 O 0.62403 0.67832 0.40312 0.0
O91 O 0.67296 0.71747 0.40033 0.0
O92 O 0.6667 0.63646 0.3852 0.0
C93 C 0.64579 0.70458 0.41668 0.0
O94 O 0.63007 0.71796 0.30632 0.0
C95 C 0.69674 0.65099 0.3798 0.0
O96 O 0.67269 0.7127 0.29953 0.0
O97 O 0.70909 0.67678 0.3608 0.0
C98 C 0.30148 0.03828 0.39015 0.0
O99 O 0.27187 0.02665 0.38404 0.0
Cd100 Cd 0.2399 0.9768 0.35296 0.0
O101 O 0.31628 0.02508 0.37659 0.0
Cd102 Cd 0.30377 0.97819 0.33723 0.0
C103 C 0.2612 0.93447 0.41184 0.0
O104 O 0.26221 0.9728 0.29313 0.0
O105 O 0.26612 0.93118 0.30289 0.0
O106 O 0.34963 0.01024 0.29582 0.0
C107 C 0.2538 0.94434 0.28415 0.0
O108 O 0.24064 0.9415 0.4008 0.0
C109 C 0.36281 -0.00613 0.30151 0.0
O110 O 0.28791 0.94514 0.39451 0.0
O111 O 0.34868 0.97053 0.32435 0.0
C112 C 0.93811 0.25284 0.3802 0.0
O113 O 0.94924 0.23451 0.37492 0.0
Cd114 Cd -0.00193 0.24936 0.34128 0.0
O115 O 0.952 0.28065 0.36596 0.0
Cd116 Cd -0.00015 0.31476 0.32699 0.0
C117 C 0.04618 0.31385 0.39749 0.0
O118 O -0.00087 0.27504 0.28276 0.0
O119 O 0.04035 0.32274 0.28082 0.0
O120 O 0.96738 0.33029 0.29186 0.0
C121 C 0.02553 0.29489 0.26701 0.0
O122 O 0.03655 0.28539 0.38704 0.0
C123 C -0.01443 0.35995 0.29729 0.0
O124 O 0.03656 0.33063 0.38107 0.0
O125 O 0.01017 0.36859 0.3176 0.0
C126 C 0.58722 0.96009 0.30612 0.0
O127 O 0.57164 0.9306 0.31403 0.0
Cd128 Cd 0.59666 0.90354 0.33948 0.0
O129 O 0.61644 0.97731 0.31544 0.0
Cd130 Cd 0.65787 0.97372 0.35134 0.0
C131 C 0.66161 0.93166 0.27716 0.0
O132 O 0.62285 0.93176 0.39599 0.0
O133 O 0.67291 0.94591 0.39633 0.0
O134 O 0.66434 0.02001 0.38553 0.0
C135 C 0.64507 0.92883 0.41036 0.0
O136 O 0.63413 0.90993 0.28867 0.0
C137 C 0.69435 0.03676 0.38016 0.0
O138 O 0.67687 0.95815 0.29463 0.0
O139 O 0.70744 0.02425 0.36076 0.0
C140 C 0.94686 0.67945 0.37809 0.0
O141 O 0.95882 0.70838 0.36842 0.0
Cd142 Cd 0.00728 0.73953 0.33331 0.0
O143 O 0.95978 0.66354 0.36757 0.0
Cd144 Cd 0.00563 0.67245 0.32797 0.0
C145 C 0.0569 0.72603 0.39034 0.0
O146 O 0.00406 0.7079 0.28052 0.0
O147 O 0.04549 0.7025 0.27891 0.0
O148 O 0.97029 0.62268 0.29673 0.0
C149 C 0.03018 0.71448 0.26441 0.0
O150 O 0.04856 0.74448 0.37562 0.0
C151 C -0.0119 0.61093 0.3013 0.0
O152 O 0.0436 0.69686 0.38059 0.0
O153 O 0.01361 0.62735 0.32017 0.0
C154 C 0.36047 0.38197 0.30607 0.0
O155 O 0.34773 0.39739 0.31893 0.0
Cd156 Cd 0.29732 0.3745 0.35158 0.0
O157 O 0.34794 0.35242 0.31287 0.0
Cd158 Cd 0.30308 0.31171 0.35102 0.0
C159 C 0.25144 0.3123 0.28899 0.0
O160 O 0.2974 0.34294 0.40218 0.0
O161 O 0.25751 0.29542 0.39315 0.0
O162 O 0.34265 0.30567 0.38465 0.0
C163 C 0.26975 0.32095 0.41245 0.0
O164 O 0.25843 0.33812 0.30614 0.0
C165 C 0.32986 0.27596 0.37927 0.0
O166 O 0.26595 0.29732 0.29668 0.0
O167 O 0.30462 0.26254 0.3592 0.0
C168 C 0.25345 0.94483 0.6486 0.0
O169 O 0.23655 0.95659 0.65943 0.0
Cd170 Cd 0.25801 0.00735 0.69048 0.0
O171 O 0.28308 0.95873 0.65626 0.0
Cd172 Cd 0.32352 0.0046 0.69225 0.0
C173 C 0.32117 0.05491 0.62891 0.0
O174 O 0.28937 0.00781 0.74182 0.0
O175 O 0.33839 0.04652 0.73946 0.0
O176 O 0.33227 0.96526 0.72198 0.0
C177 C 0.311 0.03419 0.7552 0.0
O178 O 0.29433 0.04667 0.64487 0.0
C179 C 0.36218 0.97945 0.71567 0.0
O180 O 0.33725 0.0419 0.63818 0.0
O181 O 0.37449 0.00565 0.69754 0.0
C182 C 0.96705 0.37403 0.71528 0.0
O183 O 0.93748 0.36268 0.7092 0.0
Cd184 Cd 0.90488 0.31319 0.67687 0.0
O185 O 0.98149 0.3604 0.70189 0.0
Cd186 Cd 0.96858 0.31314 0.66307 0.0
C187 C 0.92228 0.2672 0.73455 0.0
O188 O 0.92779 0.30845 0.61791 0.0
O189 O 0.93197 0.26692 0.62718 0.0
O190 O 0.01493 0.34483 0.62246 0.0
C191 C 0.91937 0.27998 0.60883 0.0
O192 O 0.90274 0.27546 0.72309 0.0
C193 C 0.02846 0.32902 0.62962 0.0
O194 O 0.94972 0.27818 0.71893 0.0
O195 O 0.01415 0.30589 0.65274 0.0
C196 C 0.61287 0.58999 0.71316 0.0
O197 O 0.62447 0.57253 0.70452 0.0
Cd198 Cd 0.67529 0.59095 0.67486 0.0
O199 O 0.62712 0.61914 0.70334 0.0
Cd200 Cd 0.67463 0.65694 0.66561 0.0
C201 C 0.72097 0.65486 0.73468 0.0
O202 O 0.67499 0.61901 0.62006 0.0
O203 O 0.7155 0.66699 0.61819 0.0
O204 O 0.63934 0.67031 0.63323 0.0
C205 C 0.70129 0.63906 0.60451 0.0
O206 O 0.71171 0.62682 0.72274 0.0
C207 C 0.65642 0.7001 0.63857 0.0
O208 O 0.71127 0.67203 0.71947 0.0
O209 O 0.68191 0.70994 0.65756 0.0
C210 C 0.2486 0.29315 0.63838 0.0
O211 O 0.23358 0.26334 0.64431 0.0
Cd212 Cd 0.25667 0.23582 0.67384 0.0
O213 O 0.27692 0.31076 0.65059 0.0
Cd214 Cd 0.31711 0.30568 0.68737 0.0
C215 C 0.3227 0.2632 0.6145 0.0
O216 O 0.28196 0.26291 0.73153 0.0
O217 O 0.33209 0.27719 0.73061 0.0
O218 O 0.32642 0.35224 0.72396 0.0
C219 C 0.30449 0.26003 0.74514 0.0
O220 O 0.29525 0.2411 0.62554 0.0
C221 C 0.35631 0.36797 0.71721 0.0
O222 O 0.33693 0.29002 0.63141 0.0
O223 O 0.3677 0.35487 0.69592 0.0
C224 C 0.60795 0.01176 0.72109 0.0
O225 O 0.61912 0.04118 0.71487 0.0
Cd226 Cd 0.66711 0.07436 0.67918 0.0
O227 O 0.62129 -0.00267 0.70679 0.0
Cd228 Cd 0.6679 0.00946 0.66635 0.0
C229 C 0.71624 0.05936 0.73431 0.0
O230 O 0.66677 0.04748 0.62182 0.0
O231 O 0.7079 0.04131 0.61935 0.0
O232 O 0.63409 0.96045 0.6323 0.0
C233 C 0.69302 0.05407 0.60576 0.0
O234 O 0.70668 0.07789 0.7232 0.0
C235 C 0.65204 0.94889 0.6372 0.0
O236 O 0.70574 0.03201 0.71931 0.0
O237 O 0.67711 0.96524 0.65682 0.0
C238 C 0.02773 0.72026 0.62803 0.0
O239 O 0.01545 0.73711 0.63665 0.0
Cd240 Cd 0.96649 0.71728 0.67242 0.0
O241 O 0.01555 0.69197 0.64048 0.0
Cd242 Cd 0.97086 0.65365 0.68114 0.0
C243 C 0.92116 0.65271 0.61376 0.0
O244 O 0.96756 0.68964 0.72783 0.0
O245 O 0.92911 0.64047 0.72812 0.0
O246 O 0.01062 0.64639 0.71322 0.0
C247 C 0.94161 0.66801 0.74279 0.0
O248 O 0.9292 0.68021 0.62665 0.0
C249 C -0.00357 0.61644 0.70879 0.0
O250 O 0.93281 0.63663 0.62748 0.0
O251 O 0.97027 0.60355 0.69052 0.0
C252 C 0.2422 0.34336 0.10757 0.0
C253 C 0.24935 0.32778 0.07875 0.0
C254 C 0.2141 0.32678 0.12898 0.0
C255 C 0.19258 0.29452 0.12156 0.0
C256 C 0.22854 0.29504 0.0727 0.0
C257 C 0.20001 0.27863 0.09357 0.0
C258 C 0.15995 0.28007 0.13692 0.0
C259 C 0.22332 0.28009 0.23032 0.0
C260 C 0.22542 0.30001 0.26072 0.0
C261 C 0.1995 0.27107 0.20261 0.0
C262 C 0.17736 0.28158 0.20534 0.0
C263 C 0.20271 0.30968 0.26361 0.0
C264 C 0.17899 0.30047 0.23649 0.0
C265 C 0.15274 0.27441 0.17611 0.0
C266 C 0.03582 0.25525 0.23405 0.0
C267 C 0.04 0.28591 0.2359 0.0
C268 C 0.0544 0.24888 0.20874 0.0
C269 C 0.0765 0.27277 0.18422 0.0
C270 C 0.06101 0.30926 0.21008 0.0
C271 C 0.07899 0.3027 0.18435 0.0
C272 C 0.10182 0.26935 0.16525 0.0
C273 C 0.08922 0.31951 0.05396 0.0
C274 C 0.05566 0.30277 0.05533 0.0
C275 C 0.10636 0.30951 0.07576 0.0
C276 C 0.09033 0.2827 0.09955 0.0
C277 C 0.0396 0.27479 0.0773 0.0
C278 C 0.05678 0.26479 0.09915 0.0
C279 C 0.10923 0.27529 0.12604 0.0
H280 H 0.25803 0.3685 0.11307 0.0
H281 H 0.20828 0.33956 0.14988 0.0
H282 H 0.23357 0.28252 0.05064 0.0
H283 H 0.18322 0.25391 0.08695 0.0
H284 H 0.24049 0.27224 0.22745 0.0
H285 H 0.19849 0.2561 0.17911 0.0
H286 H 0.20336 0.32472 0.28686 0.0
H287 H 0.16237 0.30903 0.23939 0.0
H288 H 0.01989 0.23694 0.25389 0.0
H289 H 0.0527 0.22588 0.20961 0.0
H290 H 0.06457 0.33305 0.21091 0.0
H291 H 0.09652 0.32175 0.16643 0.0
H292 H 0.10228 0.34106 0.03724 0.0
H293 H 0.13226 0.32372 0.07538 0.0
H294 H 0.0137 0.26118 0.07871 0.0
H295 H 0.04385 0.2436 0.11648 0.0
N296 N 0.13791 0.28009 0.11351 0.0
N297 N 0.12373 0.26889 0.18849 0.0
C298 C 0.6591 0.89459 0.05562 0.0
C299 C 0.67593 0.9278 0.05987 0.0
C300 C 0.66795 0.87599 0.0763 0.0
C301 C 0.69361 0.89021 0.10184 0.0
C302 C 0.70295 0.94216 0.08349 0.0
C303 C 0.71175 0.92352 0.10427 0.0
C304 C 0.69922 0.86974 0.12772 0.0
C305 C 0.70726 0.93099 0.24425 0.0
C306 C 0.67572 0.92489 0.24365 0.0
C307 C 0.71768 0.9173 0.21663 0.0
C308 C 0.69701 0.89829 0.18754 0.0
C309 C 0.65591 0.9078 0.21308 0.0
C310 C 0.66652 0.89479 0.18513 0.0
C311 C 0.70287 0.87505 0.16742 0.0
C312 C 0.69092 0.75428 0.23231 0.0
C313 C 0.66862 0.75089 0.26066 0.0
C314 C 0.70035 0.77772 0.20395 0.0
C315 C 0.68789 0.79819 0.20418 0.0
C316 C 0.65638 0.7715 0.26045 0.0
C317 C 0.66596 0.79482 0.23277 0.0
C318 C 0.69721 0.8239 0.17599 0.0
C319 C 0.63141 0.73732 0.10305 0.0
C320 C 0.64838 0.73099 0.07508 0.0
C321 C 0.64695 0.76483 0.12518 0.0
C322 C 0.6796 0.78666 0.11942 0.0
C323 C 0.68142 0.75223 0.07046 0.0
C324 C 0.69682 0.7802 0.09207 0.0
C325 C 0.69345 0.81853 0.1364 0.0
H326 H 0.63831 0.88285 0.03749 0.0
H327 H 0.6536 0.85032 0.07379 0.0
H328 H 0.71661 0.96776 0.0871 0.0
H329 H 0.73205 0.93508 0.12314 0.0
H330 H 0.72284 0.9439 0.26777 0.0
H331 H 0.74099 0.91964 0.21952 0.0
H332 H 0.63148 0.90284 0.21206 0.0
H333 H 0.64975 0.87946 0.16374 0.0
H334 H 0.70063 0.7386 0.23173 0.0
H335 H 0.71748 0.78006 0.18227 0.0
H336 H 0.63931 0.76974 0.28189 0.0
H337 H 0.65583 0.81015 0.23353 0.0
H338 H 0.60601 0.7212 0.10751 0.0
H339 H 0.63311 0.76986 0.14553 0.0
H340 H 0.69505 0.74787 0.0491 0.0
H341 H 0.72187 0.79721 0.08668 0.0
N342 N 0.69488 0.84174 0.11383 0.0
N343 N 0.70221 0.85213 0.18965 0.0
C344 C 0.08532 0.75628 0.05764 0.0
C345 C 0.0519 0.73928 0.06215 0.0
C346 C 0.10392 0.78452 0.0777 0.0
C347 C 0.08947 0.79617 0.10275 0.0
C348 C 0.03732 0.75206 0.08532 0.0
C349 C 0.05596 0.78036 0.10533 0.0
C350 C 0.10984 0.82301 0.12833 0.0
C351 C 0.03928 0.76482 0.23474 0.0
C352 C 0.04524 0.73947 0.23532 0.0
C353 C 0.05761 0.79113 0.21126 0.0
C354 C 0.08124 0.7918 0.18733 0.0
C355 C 0.06817 0.73979 0.21037 0.0
C356 C 0.08593 0.7657 0.18638 0.0
C357 C 0.10469 0.82134 0.16808 0.0
C358 C 0.22062 0.94088 0.22783 0.0
C359 C 0.22835 0.92586 0.25635 0.0
C360 C 0.1968 0.92265 0.20124 0.0
C361 C 0.18007 0.88928 0.20347 0.0
C362 C 0.21162 0.89249 0.25819 0.0
C363 C 0.18754 0.87443 0.2323 0.0
C364 C 0.15477 0.86911 0.17619 0.0
C365 C 0.24295 0.89192 0.10593 0.0
C366 C 0.24936 0.91422 0.07711 0.0
C367 C 0.21484 0.87957 0.12738 0.0
C368 C 0.19252 0.88899 0.11999 0.0
C369 C 0.2277 0.92481 0.07094 0.0
C370 C 0.1991 0.91179 0.09186 0.0
C371 C 0.16034 0.87033 0.1366 0.0
H372 H 0.09723 0.74717 0.03978 0.0
H373 H 0.12974 0.79634 0.07512 0.0
H374 H 0.01156 0.73968 0.089 0.0
H375 H 0.04424 0.78929 0.12383 0.0
H376 H 0.02186 0.76517 0.25401 0.0
H377 H 0.05414 0.81137 0.21271 0.0
H378 H 0.07313 0.7205 0.21034 0.0
H379 H 0.10455 0.76614 0.16859 0.0
H380 H 0.23325 0.9666 0.22577 0.0
H381 H 0.19126 0.93453 0.17925 0.0
H382 H 0.21693 0.88023 0.27993 0.0
H383 H 0.17504 0.84871 0.23442 0.0
H384 H 0.25943 0.88362 0.11145 0.0
H385 H 0.20973 0.8614 0.14844 0.0
H386 H 0.23217 0.94199 0.04881 0.0
H387 H 0.18173 0.91874 0.08534 0.0
N388 N 0.1376 0.84744 0.11414 0.0
N389 N 0.12714 0.84456 0.1904 0.0
C390 C 0.32856 0.07543 0.8059 0.0
C391 C 0.30387 0.05228 0.78342 0.0
C392 C 0.32294 0.09501 0.82986 0.0
C393 C 0.29265 0.09208 0.83135 0.0
C394 C 0.27321 0.04858 0.78591 0.0
C395 C 0.26777 0.06874 0.80934 0.0
C396 C 0.28824 0.11529 0.85366 0.0
C397 C 0.28428 0.04296 0.93283 0.0
C398 C 0.31179 0.05472 0.95537 0.0
C399 C 0.27778 0.06384 0.91339 0.0
C400 C 0.29872 0.0968 0.91607 0.0
C401 C 0.33195 0.08777 0.95934 0.0
C402 C 0.32535 0.10865 0.93998 0.0
C403 C 0.29354 0.11903 0.89325 0.0
C404 C 0.28576 0.23701 0.92695 0.0
C405 C 0.31263 0.25273 0.95061 0.0
C406 C 0.27906 0.20906 0.908 0.0
C407 C 0.29924 0.19651 0.9122 0.0
C408 C 0.3322 0.23957 0.95567 0.0
C409 C 0.32547 0.21164 0.93676 0.0
C410 C 0.29345 0.16771 0.8913 0.0
C411 C 0.32436 0.24101 0.79783 0.0
C412 C 0.2989 0.23647 0.7748 0.0
C413 C 0.32016 0.2178 0.824 0.0
C414 C 0.29055 0.1895 0.82729 0.0
C415 C 0.26893 0.20855 0.77894 0.0
C416 C 0.26493 0.18496 0.80465 0.0
C417 C 0.28765 0.16374 0.85175 0.0
H418 H 0.3524 0.07877 0.80444 0.0
H419 H 0.34255 0.1132 0.84632 0.0
H420 H 0.25386 0.0311 0.76853 0.0
H421 H 0.24433 0.06638 0.80996 0.0
H422 H 0.26815 0.0176 0.92943 0.0
H423 H 0.25666 0.05422 0.89581 0.0
H424 H 0.35323 0.09751 0.97665 0.0
H425 H 0.34167 0.13405 0.94262 0.0
H426 H 0.2701 0.24647 0.9227 0.0
H427 H 0.25819 0.19733 0.89001 0.0
H428 H 0.35299 0.25108 0.97381 0.0
H429 H 0.34125 0.20225 0.94061 0.0
H430 H 0.34769 0.26234 0.79523 0.0
H431 H 0.34034 0.22148 0.84084 0.0
H432 H 0.24901 0.20443 0.76129 0.0
H433 H 0.24202 0.16306 0.80659 0.0
N434 N 0.28535 0.1377 0.83435 0.0
N435 N 0.29616 0.14518 0.91057 0.0
C436 C 0.9304 0.24641 0.9248 0.0
C437 C 0.91343 0.25794 0.94574 0.0
C438 C 0.91393 0.21775 0.9046 0.0
C439 C 0.88039 0.2002 0.90559 0.0
C440 C 0.87989 0.24033 0.94627 0.0
C441 C 0.8636 0.21171 0.92664 0.0
C442 C 0.86173 0.17007 0.88459 0.0
C443 C 0.89074 0.24407 0.79369 0.0
C444 C 0.91212 0.24435 0.76623 0.0
C445 C 0.87708 0.22004 0.82081 0.0
C446 C 0.88448 0.19574 0.82112 0.0
C447 C 0.92082 0.22093 0.76751 0.0
C448 C 0.90663 0.1964 0.79453 0.0
C449 C 0.86463 0.16749 0.8449 0.0
C450 C 0.73862 0.09098 0.79308 0.0
C451 C 0.73923 0.07014 0.76579 0.0
C452 C 0.76226 0.1047 0.82052 0.0
C453 C 0.78705 0.09789 0.82136 0.0
C454 C 0.76317 0.06205 0.76756 0.0
C455 C 0.78732 0.07631 0.79491 0.0
C456 C 0.81507 0.11803 0.84512 0.0
C457 C 0.73552 0.05335 0.92743 0.0
C458 C 0.72403 0.07061 0.94774 0.0
C459 C 0.76412 0.06933 0.90636 0.0
C460 C 0.78167 0.1027 0.90588 0.0
C461 C 0.74154 0.10395 0.94657 0.0
C462 C 0.77009 0.11976 0.9261 0.0
C463 C 0.81216 0.12093 0.88476 0.0
H464 H 0.95631 0.25958 0.92387 0.0
H465 H 0.92727 0.20922 0.88851 0.0
H466 H 0.86611 0.24846 0.96217 0.0
H467 H 0.83767 0.19877 0.92744 0.0
H468 H 0.88367 0.26186 0.79337 0.0
H469 H 0.8593 0.21949 0.84027 0.0
H470 H 0.93706 0.22055 0.74636 0.0
H471 H 0.91207 0.17743 0.79386 0.0
H472 H 0.72036 0.0975 0.79247 0.0
H473 H 0.76213 0.12208 0.83979 0.0
H474 H 0.76419 0.04617 0.74663 0.0
H475 H 0.80671 0.07139 0.79462 0.0
H476 H 0.72241 0.02757 0.92774 0.0
H477 H 0.77268 0.05577 0.89093 0.0
H478 H 0.73343 0.11796 0.96187 0.0
H479 H 0.78304 0.14555 0.92576 0.0
N480 N 0.83587 0.14651 0.90283 0.0
N481 N 0.84138 0.14132 0.8268 0.0
C482 C 0.74202 0.69357 0.92249 0.0
C483 C 0.72686 0.66802 0.94824 0.0
C484 C 0.77005 0.69978 0.90337 0.0
C485 C 0.78329 0.68044 0.90953 0.0
C486 C 0.7407 0.64934 0.95521 0.0
C487 C 0.76868 0.65557 0.93616 0.0
C488 C 0.81208 0.68547 0.88834 0.0
C489 C 0.73896 0.64569 0.7964 0.0
C490 C 0.743 0.66681 0.76706 0.0
C491 C 0.7619 0.65478 0.82459 0.0
C492 C 0.78951 0.68511 0.82384 0.0
C493 C 0.7697 0.69781 0.76729 0.0
C494 C 0.79317 0.70674 0.79525 0.0
C495 C 0.81633 0.69127 0.84873 0.0
C496 C 0.902 0.64954 0.79626 0.0
C497 C 0.92497 0.67468 0.77374 0.0
C498 C 0.88361 0.65479 0.8229 0.0
C499 C 0.8877 0.68522 0.82739 0.0
C500 C 0.92999 0.70545 0.77932 0.0
C501 C 0.91111 0.71058 0.80562 0.0
C502 C 0.86437 0.68919 0.85051 0.0
C503 C 0.92575 0.67355 0.93314 0.0
C504 C 0.90803 0.64411 0.95199 0.0
C505 C 0.91011 0.68609 0.91264 0.0
C506 C 0.87659 0.66947 0.9111 0.0
C507 C 0.87451 0.62775 0.95047 0.0
C508 C 0.85897 0.64044 0.93049 0.0
C509 C 0.85903 0.68152 0.8896 0.0
H510 H 0.73202 0.70851 0.91669 0.0
H511 H 0.78125 0.71957 0.88366 0.0
H512 H 0.72965 0.62955 0.97495 0.0
H513 H 0.77843 0.64033 0.94154 0.0
H514 H 0.71854 0.62167 0.79678 0.0
H515 H 0.75895 0.63735 0.84569 0.0
H516 H 0.77336 0.71435 0.74466 0.0
H517 H 0.81463 0.73 0.7938 0.0
H518 H 0.89766 0.6256 0.7926 0.0
H519 H 0.86515 0.63474 0.83877 0.0
H520 H 0.94739 0.72519 0.76214 0.0
H521 H 0.9142 0.73412 0.80827 0.0
H522 H 0.95165 0.68667 0.93378 0.0
H523 H 0.9241 0.70869 0.89817 0.0
H524 H 0.86019 0.60512 0.96479 0.0
H525 H 0.83305 0.62721 0.92961 0.0
N526 N 0.83344 0.68051 0.90704 0.0
N527 N 0.84265 0.69354 0.83152 0.0
C528 C 0.70249 0.61262 0.42121 0.0
C529 C 0.71652 0.63951 0.39728 0.0
C530 C 0.72159 0.60367 0.44084 0.0
C531 C 0.75501 0.62157 0.43696 0.0
C532 C 0.74984 0.65655 0.39228 0.0
C533 C 0.76885 0.64762 0.41184 0.0
C534 C 0.77625 0.61439 0.45934 0.0
C535 C 0.73882 0.65315 0.54966 0.0
C536 C 0.71646 0.62987 0.5745 0.0
C537 C 0.75572 0.64554 0.52356 0.0
C538 C 0.75079 0.61461 0.52208 0.0
C539 C 0.71054 0.59854 0.57203 0.0
C540 C 0.72804 0.59108 0.54632 0.0
C541 C 0.77287 0.6089 0.499 0.0
C542 C 0.8993 0.66271 0.55556 0.0
C543 C 0.89876 0.64067 0.58153 0.0
C544 C 0.87598 0.65307 0.52778 0.0
C545 C 0.85156 0.62112 0.52517 0.0
C546 C 0.87519 0.60837 0.57803 0.0
C547 C 0.85137 0.59872 0.55029 0.0
C548 C 0.82401 0.61298 0.50049 0.0
C549 C 0.90635 0.63447 0.41882 0.0
C550 C 0.91699 0.6639 0.40065 0.0
C551 C 0.87744 0.61976 0.43932 0.0
C552 C 0.8588 0.63419 0.44126 0.0
C553 C 0.89844 0.6784 0.40351 0.0
C554 C 0.86958 0.66359 0.42336 0.0
C555 C 0.82768 0.61947 0.46108 0.0
H556 H 0.6768 0.59889 0.42547 0.0
H557 H 0.71029 0.58308 0.45936 0.0
H558 H 0.76134 0.67731 0.37403 0.0
H559 H 0.79459 0.66186 0.40824 0.0
H560 H 0.74376 0.67743 0.55099 0.0
H561 H 0.77371 0.6642 0.50561 0.0
H562 H 0.69354 0.58025 0.59115 0.0
H563 H 0.72439 0.56725 0.54594 0.0
H564 H 0.91724 0.68775 0.55751 0.0
H565 H 0.87609 0.67097 0.50957 0.0
H566 H 0.87415 0.59099 0.59794 0.0
H567 H 0.8323 0.57406 0.54919 0.0
H568 H 0.92033 0.62285 0.41718 0.0
H569 H 0.86941 0.59706 0.45301 0.0
H570 H 0.9059 0.701 0.38986 0.0
H571 H 0.85565 0.67527 0.42489 0.0
N572 N 0.80346 0.61928 0.44211 0.0
N573 N 0.79664 0.60789 0.51793 0.0
C574 C 0.327 0.22457 0.39439 0.0
C575 C 0.34239 0.25773 0.39845 0.0
C576 C 0.33622 0.20699 0.41651 0.0
C577 C 0.36084 0.22216 0.44331 0.0
C578 C 0.36836 0.27312 0.42356 0.0
C579 C 0.37754 0.25548 0.44577 0.0
C580 C 0.36687 0.20246 0.47001 0.0
C581 C 0.36969 0.26317 0.58462 0.0
C582 C 0.338 0.25647 0.58226 0.0
C583 C 0.38124 0.24952 0.5584 0.0
C584 C 0.36156 0.22996 0.52898 0.0
C585 C 0.31916 0.23871 0.55138 0.0
C586 C 0.33089 0.22571 0.52484 0.0
C587 C 0.36879 0.20731 0.50984 0.0
C588 C 0.35704 0.08564 0.57311 0.0
C589 C 0.33365 0.08097 0.60056 0.0
C590 C 0.36742 0.11021 0.5461 0.0
C591 C 0.35486 0.13062 0.54676 0.0
C592 C 0.3214 0.10159 0.60093 0.0
C593 C 0.33198 0.12611 0.57461 0.0
C594 C 0.36441 0.15673 0.51896 0.0
C595 C 0.30125 0.07148 0.44403 0.0
C596 C 0.31832 0.06618 0.41522 0.0
C597 C 0.31663 0.09825 0.46727 0.0
C598 C 0.34925 0.12035 0.46183 0.0
C599 C 0.35135 0.08754 0.41094 0.0
C600 C 0.36661 0.11483 0.4337 0.0
C601 C 0.3625 0.15194 0.47922 0.0
H602 H 0.30704 0.21206 0.3752 0.0
H603 H 0.32296 0.18128 0.41395 0.0
H604 H 0.38091 0.29872 0.42709 0.0
H605 H 0.39704 0.2678 0.46561 0.0
H606 H 0.3845 0.27658 0.60846 0.0
H607 H 0.40467 0.25244 0.56259 0.0
H608 H 0.29463 0.23324 0.54907 0.0
H609 H 0.31488 0.20994 0.50314 0.0
H610 H 0.3669 0.07009 0.57216 0.0
H611 H 0.38525 0.11336 0.52498 0.0
H612 H 0.30357 0.09893 0.62179 0.0
H613 H 0.32171 0.14131 0.57567 0.0
H614 H 0.27586 0.05515 0.44825 0.0
H615 H 0.30264 0.10263 0.4881 0.0
H616 H 0.36502 0.08386 0.38898 0.0
H617 H 0.39161 0.13214 0.4285 0.0
N618 N 0.36414 0.17508 0.4564 0.0
N619 N 0.36791 0.18446 0.53249 0.0
C620 C 0.74672 0.08588 0.39306 0.0
C621 C 0.71333 0.06858 0.39758 0.0
C622 C 0.76503 0.11443 0.41259 0.0
C623 C 0.75037 0.12621 0.43717 0.0
C624 C 0.69848 0.08119 0.42059 0.0
C625 C 0.71685 0.10985 0.44011 0.0
C626 C 0.77078 0.15435 0.46107 0.0
C627 C 0.70263 0.10357 0.57285 0.0
C628 C 0.70741 0.07753 0.57482 0.0
C629 C 0.72056 0.12832 0.54708 0.0
C630 C 0.74257 0.12669 0.52229 0.0
C631 C 0.72865 0.07552 0.54906 0.0
C632 C 0.74597 0.09982 0.52291 0.0
C633 C 0.76613 0.15491 0.50079 0.0
C634 C 0.88483 0.27554 0.55342 0.0
C635 C 0.89307 0.26109 0.58213 0.0
C636 C 0.86009 0.25677 0.52805 0.0
C637 C 0.84293 0.22348 0.5318 0.0
C638 C 0.87591 0.22779 0.58545 0.0
C639 C 0.85092 0.20925 0.56083 0.0
C640 C 0.81677 0.20269 0.50579 0.0
C641 C 0.90283 0.22027 0.43369 0.0
C642 C 0.90943 0.24217 0.40429 0.0
C643 C 0.87518 0.20912 0.45582 0.0
C644 C 0.85348 0.21936 0.44859 0.0
C645 C 0.88835 0.25349 0.39813 0.0
C646 C 0.86019 0.24167 0.41976 0.0
C647 C 0.82159 0.20189 0.46628 0.0
H648 H 0.75885 0.0769 0.37537 0.0
H649 H 0.79085 0.1266 0.40971 0.0
H650 H 0.67272 0.06852 0.42432 0.0
H651 H 0.70492 0.11882 0.45818 0.0
H652 H 0.68655 0.10571 0.59267 0.0
H653 H 0.71813 0.1492 0.54743 0.0
H654 H 0.73268 0.05563 0.55001 0.0
H655 H 0.7634 0.09848 0.50463 0.0
H656 H 0.89778 0.30118 0.55027 0.0
H657 H 0.85419 0.26817 0.50582 0.0
H658 H 0.88157 0.21596 0.60739 0.0
H659 H 0.83813 0.1836 0.56409 0.0
H660 H 0.91887 0.21145 0.4393 0.0
H661 H 0.86994 0.19131 0.47742 0.0
H662 H 0.89299 0.27042 0.37561 0.0
H663 H 0.84326 0.24921 0.41334 0.0
N664 N 0.79836 0.17796 0.44544 0.0
N665 N 0.78917 0.17917 0.5215 0.0
C666 C 0.94716 0.5465 0.10672 0.0
C667 C 0.97724 0.57452 0.10427 0.0
C668 C 0.94239 0.52198 0.13133 0.0
C669 C 0.9673 0.52562 0.15464 0.0
C670 C 0.002 0.57818 0.12799 0.0
C671 C -0.00302 0.55403 0.15321 0.0
C672 C 0.96364 0.49875 0.17755 0.0
C673 C 0.00084 0.56827 0.28767 0.0
C674 C 0.9808 0.58089 0.2826 0.0
C675 C -0.00415 0.54173 0.26682 0.0
C676 C 0.97101 0.52761 0.24029 0.0
C677 C 0.95508 0.56587 0.25719 0.0
C678 C 0.95021 0.53941 0.23621 0.0
C679 C 0.96702 0.50039 0.21751 0.0
C680 C -0.00038 0.41605 0.28532 0.0
C681 C 0.97932 0.38331 0.27894 0.0
C682 C -0.0049 0.43819 0.26564 0.0
C683 C 0.97045 0.42796 0.23899 0.0
C684 C 0.95387 0.3731 0.25333 0.0
C685 C 0.94945 0.39526 0.23357 0.0
C686 C 0.96704 0.45167 0.21695 0.0
C687 C 0.95118 0.38616 0.10642 0.0
C688 C 0.98188 0.3899 0.10476 0.0
C689 C 0.94508 0.40549 0.13043 0.0
C690 C 0.9693 0.428 0.15385 0.0
C691 C 0.00594 0.41225 0.12857 0.0
C692 C -0.00039 0.43099 0.15317 0.0
C693 C 0.9641 0.45023 0.177 0.0
H694 H 0.92775 0.54302 0.08853 0.0
H695 H 0.91946 0.50004 0.13182 0.0
H696 H 0.02538 0.59957 0.1267 0.0
H697 H 0.01662 0.55704 0.17064 0.0
H698 H 0.0208 0.5793 0.3071 0.0
H699 H 0.01198 0.53275 0.27065 0.0
H700 H 0.93915 0.575 0.25279 0.0
H701 H 0.93033 0.5283 0.21669 0.0
H702 H 0.01935 0.42461 0.305 0.0
H703 H 0.01141 0.46335 0.27045 0.0
H704 H 0.93771 0.34801 0.24799 0.0
H705 H 0.92974 0.38684 0.21389 0.0
H706 H 0.9323 0.36924 0.08808 0.0
H707 H 0.92164 0.40313 0.13049 0.0
H708 H 0.02978 0.41556 0.12778 0.0
H709 H 0.01867 0.44853 0.17084 0.0
N710 N 0.96239 0.47375 0.15871 0.0
N711 N 0.9686 0.47679 0.23572 0.0
C712 C 0.432 0.39327 0.10321 0.0
C713 C 0.40758 0.4007 0.10202 0.0
C714 C 0.45576 0.40711 0.13108 0.0
C715 C 0.45462 0.42758 0.15854 0.0
C716 C 0.40598 0.42024 0.13039 0.0
C717 C 0.42925 0.43356 0.15827 0.0
C718 C 0.48244 0.4479 0.1825 0.0
C719 C 0.4081 0.43217 0.28395 0.0
C720 C 0.39064 0.39882 0.28399 0.0
C721 C 0.43685 0.44851 0.264 0.0
C722 C 0.44877 0.43199 0.24319 0.0
C723 C 0.40252 0.38209 0.26325 0.0
C724 C 0.43137 0.39862 0.24274 0.0
C725 C 0.47923 0.45084 0.22209 0.0
C726 C 0.54116 0.57036 0.28208 0.0
C727 C 0.57459 0.58857 0.28408 0.0
C728 C 0.5265 0.54206 0.26167 0.0
C729 C 0.54485 0.53143 0.24239 0.0
C730 C 0.59314 0.57809 0.26456 0.0
C731 C 0.57832 0.54972 0.24359 0.0
C732 C 0.52778 0.50095 0.22175 0.0
C733 C 0.58673 0.5501 0.10344 0.0
C734 C 0.57773 0.57325 0.1012 0.0
C735 C 0.57303 0.52629 0.13141 0.0
C736 C 0.55108 0.5261 0.158 0.0
C737 C 0.55662 0.5735 0.12867 0.0
C738 C 0.54343 0.55019 0.1567 0.0
C739 C 0.53128 0.4981 0.18223 0.0
H740 H 0.43378 0.37841 0.08141 0.0
H741 H 0.47562 0.40288 0.1303 0.0
H742 H 0.38733 0.42624 0.13019 0.0
H743 H 0.42845 0.45019 0.17821 0.0
H744 H 0.39972 0.44579 0.29962 0.0
H745 H 0.44961 0.47429 0.2644 0.0
H746 H 0.38948 0.35632 0.26273 0.0
H747 H 0.44017 0.38545 0.22688 0.0
H748 H 0.52619 0.57773 0.29669 0.0
H749 H 0.50059 0.52852 0.2607 0.0
H750 H 0.61903 0.59179 0.26548 0.0
H751 H 0.59284 0.54187 0.22885 0.0
H752 H 0.6028 0.54932 0.08237 0.0
H753 H 0.57861 0.50742 0.13142 0.0
H754 H 0.54934 0.59113 0.12769 0.0
H755 H 0.52571 0.54995 0.17599 0.0
N756 N 0.50863 0.47144 0.16426 0.0
N757 N 0.50232 0.47696 0.24 0.0
C758 C 0.40734 0.02607 0.25515 0.0
C759 C 0.3927 0.00103 0.28165 0.0
C760 C 0.43498 0.03186 0.23537 0.0
C761 C 0.44826 0.01258 0.24166 0.0
C762 C 0.40643 0.98224 0.2884 0.0
C763 C 0.43394 0.98801 0.2687 0.0
C764 C 0.47708 0.01752 0.22071 0.0
C765 C 0.40415 0.97843 0.12856 0.0
C766 C 0.40878 -0.0006 0.09877 0.0
C767 C 0.42696 0.98725 0.15683 0.0
C768 C 0.45503 0.0172 0.1558 0.0
C769 C 0.43601 0.03004 0.09861 0.0
C770 C 0.45935 0.03871 0.12671 0.0
C771 C 0.48155 0.02295 0.18103 0.0
C772 C 0.56581 0.97834 0.13207 0.0
C773 C 0.59086 0.00346 0.11164 0.0
C774 C 0.54666 0.9841 0.15687 0.0
C775 C 0.55209 0.01504 0.16149 0.0
C776 C 0.59701 0.03465 0.11732 0.0
C777 C 0.57743 0.04032 0.14175 0.0
C778 C 0.52907 0.02 0.18375 0.0
C779 C 0.58945 0.00406 0.26718 0.0
C780 C 0.57136 0.97449 0.28564 0.0
C781 C 0.5742 0.017 0.24672 0.0
C782 C 0.54071 0.00067 0.24485 0.0
C783 C 0.53786 0.95843 0.28386 0.0
C784 C 0.5227 0.97154 0.26393 0.0
C785 C 0.52364 0.01298 0.22292 0.0
H786 H 0.39735 0.04105 0.24949 0.0
H787 H 0.44595 0.05139 0.21528 0.0
H788 H 0.39575 0.96281 0.30865 0.0
H789 H 0.44369 0.97277 0.27414 0.0
H790 H 0.38329 0.95468 0.1293 0.0
H791 H 0.42349 0.96987 0.17827 0.0
H792 H 0.44011 0.04646 0.07566 0.0
H793 H 0.48118 0.06167 0.12504 0.0
H794 H 0.56056 0.95412 0.12823 0.0
H795 H 0.52684 0.96421 0.17143 0.0
H796 H 0.61603 0.05442 0.10166 0.0
H797 H 0.58166 0.06428 0.14469 0.0
H798 H 0.61535 0.01694 0.26805 0.0
H799 H 0.58847 0.03966 0.23246 0.0
H800 H 0.52329 0.93572 0.29792 0.0
H801 H 0.49679 0.95853 0.26275 0.0
N802 N 0.4982 0.01252 0.23992 0.0
N803 N 0.50771 0.02453 0.1642 0.0
C804 C 0.5726 0.01045 0.77392 0.0
C805 C 0.57946 -0.00578 0.74566 0.0
C806 C 0.54477 -0.00564 0.79589 0.0
C807 C 0.52321 0.96192 0.78965 0.0
C808 C 0.55858 0.96136 0.7407 0.0
C809 C 0.5303 0.94541 0.76217 0.0
C810 C 0.49092 0.94763 0.80611 0.0
C811 C 0.5562 0.95072 0.89973 0.0
C812 C 0.55878 0.97172 0.92904 0.0
C813 C 0.53214 0.94095 0.8722 0.0
C814 C 0.51027 0.9518 0.8741 0.0
C815 C 0.53649 0.98195 0.93093 0.0
C816 C 0.51255 0.97203 0.90401 0.0
C817 C 0.48483 0.94318 0.84563 0.0
C818 C 0.36968 0.92703 0.90642 0.0
C819 C 0.37449 0.95797 0.90669 0.0
C820 C 0.38735 0.91927 0.88138 0.0
C821 C 0.40913 0.94203 0.8556 0.0
C822 C 0.39523 0.98019 0.87971 0.0
C823 C 0.41231 0.97225 0.85429 0.0
C824 C 0.43346 0.93729 0.83625 0.0
C825 C 0.41525 0.98442 0.7278 0.0
C826 C 0.38178 0.96703 0.73145 0.0
C827 C 0.43387 0.97486 0.74729 0.0
C828 C 0.41938 0.94789 0.77095 0.0
C829 C 0.36724 0.93876 0.75294 0.0
C830 C 0.38588 0.92922 0.77244 0.0
C831 C 0.43956 0.94173 0.7967 0.0
H832 H 0.58847 0.03571 0.77857 0.0
H833 H 0.53922 0.00762 0.8164 0.0
H834 H 0.56337 0.94832 0.71909 0.0
H835 H 0.51348 0.92052 0.75646 0.0
H836 H 0.57311 0.94249 0.89761 0.0
H837 H 0.53064 0.92504 0.84959 0.0
H838 H 0.53757 -0.0021 0.95327 0.0
H839 H 0.49615 0.9809 0.90619 0.0
H840 H 0.35394 0.90958 0.92719 0.0
H841 H 0.38515 0.89609 0.88332 0.0
H842 H 0.39926 0.00417 0.87933 0.0
H843 H 0.42966 -0.00954 0.83534 0.0
H844 H 0.42713 0.00615 0.71124 0.0
H845 H 0.4597 -0.01036 0.74559 0.0
H846 H 0.34145 0.92461 0.75594 0.0
H847 H 0.37415 0.90798 0.78988 0.0
N848 N 0.46802 0.94656 0.7832 0.0
N849 N 0.45613 0.93781 0.85892 0.0
C850 C -0.00765 0.56422 0.72247 0.0
C851 C 0.00884 0.59746 0.72641 0.0
C852 C 0.00209 0.54606 0.74261 0.0
C853 C 0.02832 0.56074 0.76732 0.0
C854 C 0.03623 0.61228 0.74941 0.0
C855 C 0.04592 0.59409 0.76963 0.0
C856 C 0.03522 0.54069 0.79241 0.0
C857 C 0.04408 0.60167 0.90931 0.0
C858 C 0.01226 0.59481 0.90946 0.0
C859 C 0.05453 0.58822 0.88143 0.0
C860 C 0.03359 0.5687 0.85285 0.0
C861 C -0.00792 0.57709 0.87946 0.0
C862 C 0.00269 0.56429 0.85129 0.0
C863 C 0.04002 0.54617 0.83197 0.0
C864 C 0.0319 0.42505 0.89202 0.0
C865 C 0.01192 0.42226 0.92299 0.0
C866 C 0.04026 0.44889 0.86439 0.0
C867 C 0.029 0.47032 0.86783 0.0
C868 C 0.00135 0.44414 0.92638 0.0
C869 C 0.00982 0.46779 0.89937 0.0
C870 C 0.03629 0.49574 0.83967 0.0
C871 C 0.96814 0.40916 0.76778 0.0
C872 C -0.01546 0.40258 0.73932 0.0
C873 C -0.01576 0.43664 0.78983 0.0
C874 C 0.01687 0.4582 0.78342 0.0
C875 C 0.01758 0.4235 0.73408 0.0
C876 C 0.03353 0.45147 0.75558 0.0
C877 C 0.03111 0.49011 0.80022 0.0
H878 H 0.9713 0.55212 0.70482 0.0
H879 H -0.0119 0.52037 0.74023 0.0
H880 H 0.04964 0.63791 0.75276 0.0
H881 H 0.06661 0.60602 0.78788 0.0
H882 H 0.05994 0.61509 0.9324 0.0
H883 H 0.07818 0.59126 0.88364 0.0
H884 H 0.96745 0.57155 0.87903 0.0
H885 H -0.01428 0.54854 0.83033 0.0
H886 H 0.04035 0.40844 0.88869 0.0
H887 H 0.05543 0.45059 0.84057 0.0
H888 H -0.01382 0.44292 0.94999 0.0
H889 H 0.00065 0.4838 0.90285 0.0
H890 H 0.94277 0.39324 0.7727 0.0
H891 H 0.97087 0.4419 0.81062 0.0
H892 H 0.03075 0.4189 0.71233 0.0
H893 H 0.05856 0.4683 0.74971 0.0
N894 N 0.03111 0.51289 0.77817 0.0
N895 N 0.04094 0.52377 0.85366 0.0
C896 C 0.57173 0.59532 0.75152 0.0
C897 C 0.58223 0.57601 0.7343 0.0
C898 C 0.54257 0.58152 0.77152 0.0
C899 C 0.52355 0.54829 0.77409 0.0
C900 C 0.5631 0.54282 0.73732 0.0
C901 C 0.53403 0.52915 0.75677 0.0
C902 C 0.49247 0.53234 0.79422 0.0
C903 C 0.56495 0.5713 0.88916 0.0
C904 C 0.56457 0.59593 0.90966 0.0
C905 C 0.54104 0.55329 0.86296 0.0
C906 C 0.5162 0.55945 0.85681 0.0
C907 C 0.54025 0.60282 0.90262 0.0
C908 C 0.51594 0.58437 0.87668 0.0
C909 C 0.48889 0.53728 0.83314 0.0
C910 C 0.40201 0.41229 0.88601 0.0
C911 C 0.38046 0.41429 0.9112 0.0
C912 C 0.41923 0.43629 0.85956 0.0
C913 C 0.41542 0.4629 0.85793 0.0
C914 C 0.37568 0.44034 0.90876 0.0
C915 C 0.39351 0.46484 0.8826 0.0
C916 C 0.43753 0.48989 0.83367 0.0
C917 C 0.36445 0.41326 0.75924 0.0
C918 C 0.37718 0.39936 0.73483 0.0
C919 C 0.38472 0.44189 0.77798 0.0
C920 C 0.41804 0.45686 0.77291 0.0
C921 C 0.41037 0.41504 0.72869 0.0
C922 C 0.43054 0.44346 0.74748 0.0
C923 C 0.44049 0.48598 0.79423 0.0
H924 H 0.58607 0.62102 0.74971 0.0
H925 H 0.53477 0.59665 0.78455 0.0
H926 H 0.57041 0.52727 0.72435 0.0
H927 H 0.51978 0.50343 0.75863 0.0
H928 H 0.5834 0.56547 0.89395 0.0
H929 H 0.54131 0.53373 0.84848 0.0
H930 H 0.53929 0.62155 0.91825 0.0
H931 H 0.49665 0.58911 0.87267 0.0
H932 H 0.4061 0.39245 0.88732 0.0
H933 H 0.43654 0.43469 0.84133 0.0
H934 H 0.35935 0.44247 0.92818 0.0
H935 H 0.39071 0.48549 0.88209 0.0
H936 H 0.33889 0.4018 0.76429 0.0
H937 H 0.37438 0.45211 0.79667 0.0
H938 H 0.42091 0.40501 0.71001 0.0
H939 H 0.45613 0.45446 0.74291 0.0
N940 N 0.46791 0.50734 0.77626 0.0
N941 N 0.46157 0.51571 0.85148 0.0
C942 C 0.66384 0.7439 0.46957 0.0
C943 C 0.63898 0.72176 0.44642 0.0
C944 C 0.65852 0.76283 0.49501 0.0
C945 C 0.62841 0.76024 0.49728 0.0
C946 C 0.60844 0.7182 0.44986 0.0
C947 C 0.60333 0.73774 0.47475 0.0
C948 C 0.62458 0.78354 0.52002 0.0
C949 C 0.62077 0.71058 0.59815 0.0
C950 C 0.64791 0.72228 0.62133 0.0
C951 C 0.61427 0.73153 0.57885 0.0
C952 C 0.63488 0.76452 0.58223 0.0
C953 C 0.6677 0.7553 0.62602 0.0
C954 C 0.66113 0.77625 0.60675 0.0
C955 C 0.62977 0.78694 0.55965 0.0
C956 C 0.61883 0.90282 0.59436 0.0
C957 C 0.64497 0.91869 0.61902 0.0
C958 C 0.6135 0.87556 0.57486 0.0
C959 C 0.6343 0.86381 0.57958 0.0
C960 C 0.66514 0.90628 0.62464 0.0
C961 C 0.65972 0.87896 0.60522 0.0
C962 C 0.62973 0.83568 0.5582 0.0
C963 C 0.66338 0.90977 0.4648 0.0
C964 C 0.6387 0.90535 0.44044 0.0
C965 C 0.65816 0.88661 0.49165 0.0
C966 C 0.62832 0.85845 0.49418 0.0
C967 C 0.60847 0.87764 0.44393 0.0
C968 C 0.60348 0.85409 0.47023 0.0
C969 C 0.62464 0.8323 0.51852 0.0
H970 H 0.68757 0.74705 0.4674 0.0
H971 H 0.67828 0.78043 0.51183 0.0
H972 H 0.58898 0.70146 0.43203 0.0
H973 H 0.58006 0.73575 0.47592 0.0
H974 H 0.6049 0.68524 0.59421 0.0
H975 H 0.59338 0.72196 0.56088 0.0
H976 H 0.68869 0.765 0.64383 0.0
H977 H 0.6772 0.80165 0.60997 0.0
H978 H 0.60275 0.91173 0.58962 0.0
H979 H 0.59319 0.86374 0.55603 0.0
H980 H 0.68541 0.91794 0.64355 0.0
H981 H 0.67591 0.87011 0.6095 0.0
H982 H 0.68687 0.93096 0.46274 0.0
H983 H 0.67779 0.89013 0.50946 0.0
H984 H 0.58911 0.87361 0.4253 0.0
H985 H 0.58045 0.83228 0.4715 0.0
N986 N 0.62219 0.80631 0.50091 0.0
N987 N 0.63222 0.81293 0.57727 0.0
C988 C 0.08524 0.72068 0.4472 0.0
C989 C 0.0825 0.73952 0.41898 0.0
C990 C 0.10845 0.73498 0.4757 0.0
C991 C 0.12932 0.76813 0.47579 0.0
C992 C 0.10386 0.77247 0.41899 0.0
C993 C 0.12697 0.78652 0.44686 0.0
C994 C 0.15349 0.78509 0.50561 0.0
C995 C 0.06288 0.75819 0.57765 0.0
C996 C 0.05638 0.73354 0.60319 0.0
C997 C 0.09097 0.77221 0.55588 0.0
C998 C 0.11314 0.76205 0.5596 0.0
C999 C 0.07785 0.72226 0.60537 0.0
C1000 C 0.10634 0.73681 0.58413 0.0
C1001 C 0.14571 0.78253 0.54472 0.0
C1002 C 0.20525 0.89557 0.62529 0.0
C1003 C 0.23867 0.91471 0.62692 0.0
C1004 C 0.19117 0.86775 0.60372 0.0
C1005 C 0.21016 0.8587 0.58286 0.0
C1006 C 0.25775 0.90499 0.60728 0.0
C1007 C 0.24359 0.87723 0.58527 0.0
C1008 C 0.19424 0.83132 0.5566 0.0
C1009 C 0.26145 0.88937 0.44515 0.0
C1010 C 0.25285 0.91284 0.44453 0.0
C1011 C 0.24733 0.86467 0.47187 0.0
C1012 C 0.22527 0.86378 0.49883 0.0
C1013 C 0.23254 0.91307 0.47314 0.0
C1014 C 0.2189 0.88881 0.50005 0.0
C1015 C 0.20242 0.83355 0.51758 0.0
H1016 H 0.06898 0.69518 0.44782 0.0
H1017 H 0.11003 0.72028 0.49754 0.0
H1018 H 0.10258 0.78764 0.39752 0.0
H1019 H 0.14258 0.81216 0.44628 0.0
H1020 H 0.04659 0.76711 0.5751 0.0
H1021 H 0.09627 0.79221 0.53769 0.0
H1022 H 0.07337 0.70325 0.62482 0.0
H1023 H 0.12361 0.72926 0.58798 0.0
H1024 H 0.18991 0.90223 0.64035 0.0
H1025 H 0.16529 0.85395 0.60213 0.0
H1026 H 0.28362 0.91921 0.60816 0.0
H1027 H 0.25868 0.87056 0.56964 0.0
H1028 H 0.27696 0.88866 0.4232 0.0
H1029 H 0.25191 0.84516 0.46985 0.0
H1030 H 0.22568 0.93103 0.47335 0.0
H1031 H 0.20112 0.88816 0.51957 0.0
N1032 N 0.18191 0.81013 0.49394 0.0
N1033 N 0.16645 0.80562 0.56861 0.0
C1034 C 0.264 0.35311 0.46475 0.0
C1035 C 0.25003 0.32702 0.43963 0.0
C1036 C 0.24469 0.35981 0.48839 0.0
C1037 C 0.21126 0.34084 0.48653 0.0
C1038 C 0.21657 0.30753 0.43897 0.0
C1039 C 0.19739 0.3146 0.4619 0.0
C1040 C 0.19014 0.34824 0.50919 0.0
C1041 C 0.20736 0.28762 0.59236 0.0
C1042 C 0.23366 0.30725 0.61542 0.0
C1043 C 0.19349 0.30072 0.56994 0.0
C1044 C 0.20548 0.33359 0.57039 0.0
C1045 C 0.24589 0.34034 0.61547 0.0
C1046 C 0.23161 0.3534 0.59333 0.0
C1047 C 0.18841 0.34609 0.54913 0.0
C1048 C 0.07324 0.31855 0.61925 0.0
C1049 C 0.05883 0.33646 0.61084 0.0
C1050 C 0.10081 0.32412 0.59978 0.0
C1051 C 0.11439 0.34753 0.57132 0.0
C1052 C 0.07312 0.36076 0.58337 0.0
C1053 C 0.10075 0.36631 0.56383 0.0
C1054 C 0.14202 0.35099 0.54901 0.0
C1055 C 0.09568 0.35739 0.4279 0.0
C1056 C 0.0685 0.32677 0.42951 0.0
C1057 C 0.11955 0.36692 0.45541 0.0
C1058 C 0.11583 0.34637 0.48539 0.0
C1059 C 0.06427 0.30687 0.46041 0.0
C1060 C 0.08764 0.31665 0.48823 0.0
C1061 C 0.14338 0.35247 0.50879 0.0
H1062 H 0.28975 0.36847 0.46582 0.0
H1063 H 0.25574 0.38017 0.50732 0.0
H1064 H 0.20507 0.28732 0.41987 0.0
H1065 H 0.1716 0.29959 0.46032 0.0
H1066 H 0.19757 0.26212 0.59142 0.0
H1067 H 0.17302 0.28513 0.55262 0.0
H1068 H 0.26615 0.35603 0.63296 0.0
H1069 H 0.2408 0.3788 0.59422 0.0
H1070 H 0.06289 0.29978 0.64038 0.0
H1071 H 0.1109 0.30933 0.60614 0.0
H1072 H 0.06267 0.37513 0.57649 0.0
H1073 H 0.11119 0.38497 0.54258 0.0
H1074 H 0.09946 0.37299 0.40411 0.0
H1075 H 0.14147 0.38968 0.45239 0.0
H1076 H 0.04342 0.28317 0.46223 0.0
H1077 H 0.08465 0.30008 0.51054 0.0
N1078 N 0.16751 0.35125 0.49051 0.0
N1079 N 0.16456 0.34769 0.5676 0.0
loop_
_geom_bond_atom_site_label_1
_geom_bond_atom_site_label_2
_geom_bond_distance
_geom_bond_site_symmetry_2
_ccdc_geom_bond_type
C0 O1 1.306 . S
C0 O3 1.160 . S
O1 C0 1.306 . S
O1 Cd2 2.228 1_556 S
Cd2 O1 2.228 1_554 S
Cd2 O6 2.273 . S
Cd2 O10 2.277 1_554 S
O3 C0 1.160 . S
O3 Cd4 2.203 1_656 S
Cd4 O3 2.203 1_454 S
Cd4 O6 2.411 1_455 S
Cd4 O7 2.333 . S
Cd4 O8 2.352 . S
Cd4 O12 2.277 1_554 S
Cd4 O13 2.356 . S
C5 O10 1.209 1_455 S
C5 O12 1.226 . S
O6 Cd2 2.273 . S
O6 Cd4 2.411 1_655 S
O6 C9 1.320 . S
O7 Cd4 2.333 . S
O7 C9 1.214 1_455 S
O8 Cd4 2.352 . S
O8 C11 1.258 . S
C9 O6 1.320 . S
C9 O7 1.214 1_655 S
O10 Cd2 2.277 1_556 S
O10 C5 1.209 1_655 S
C11 O8 1.258 . S
C11 O13 1.282 . S
O12 Cd4 2.277 1_556 S
O12 C5 1.226 . S
O13 Cd4 2.356 . S
O13 C11 1.282 . S
C14 O15 1.306 . S
C14 O17 1.160 . S
O15 C14 1.306 . S
O15 Cd16 2.228 . S
Cd16 O15 2.228 . S
Cd16 O20 2.273 1_554 S
Cd16 O24 2.277 . S
O17 C14 1.160 . S
O17 Cd18 2.203 . S
Cd18 O17 2.203 . S
Cd18 O20 2.411 1_554 S
Cd18 O21 2.333 1_554 S
Cd18 O22 2.352 1_554 S
Cd18 O26 2.277 . S
Cd18 O27 2.356 1_554 S
C19 O24 1.209 . S
C19 O26 1.226 . S
O20 Cd16 2.273 1_556 S
O20 Cd18 2.411 1_556 S
O20 C23 1.320 . S
O21 Cd18 2.333 1_556 S
O21 C23 1.214 . S
O22 Cd18 2.352 1_556 S
O22 C25 1.258 . S
C23 O20 1.320 . S
C23 O21 1.214 . S
O24 Cd16 2.277 . S
O24 C19 1.209 . S
C25 O22 1.258 . S
C25 O27 1.282 . S
O26 Cd18 2.277 . S
O26 C19 1.226 . S
O27 Cd18 2.356 1_556 S
O27 C25 1.282 . S
C28 O29 1.306 . S
C28 O31 1.160 . S
O29 C28 1.306 . S
O29 Cd30 2.228 . S
Cd30 O29 2.228 . S
Cd30 O34 2.273 1_554 S
Cd30 O38 2.277 . S
O31 C28 1.160 . S
O31 Cd32 2.203 1_565 S
Cd32 O31 2.203 1_545 S
Cd32 O34 2.411 1_544 S
Cd32 O35 2.333 1_554 S
Cd32 O36 2.352 1_554 S
Cd32 O40 2.277 . S
Cd32 O41 2.356 1_554 S
C33 O38 1.209 1_545 S
C33 O40 1.226 . S
O34 Cd30 2.273 1_556 S
O34 Cd32 2.411 1_566 S
O34 C37 1.320 . S
O35 Cd32 2.333 1_556 S
O35 C37 1.214 1_545 S
O36 Cd32 2.352 1_556 S
O36 C39 1.258 . S
C37 O34 1.320 . S
C37 O35 1.214 1_565 S
O38 Cd30 2.277 . S
O38 C33 1.209 1_565 S
C39 O36 1.258 . S
C39 O41 1.282 . S
O40 Cd32 2.277 . S
O40 C33 1.226 . S
O41 Cd32 2.356 1_556 S
O41 C39 1.282 . S
C42 O43 1.306 . S
C42 O45 1.160 . S
O43 C42 1.306 . S
O43 Cd44 2.228 1_556 S
Cd44 O43 2.228 1_554 S
Cd44 O48 2.273 . S
Cd44 O52 2.277 1_554 S
O45 C42 1.160 . S
O45 Cd46 2.203 1_656 S
Cd46 O45 2.203 1_454 S
Cd46 O48 2.411 1_455 S
Cd46 O49 2.333 . S
Cd46 O50 2.352 . S
Cd46 O54 2.277 1_554 S
Cd46 O55 2.356 . S
C47 O52 1.209 1_455 S
C47 O54 1.226 . S
O48 Cd44 2.273 . S
O48 Cd46 2.411 1_655 S
O48 C51 1.320 . S
O49 Cd46 2.333 . S
O49 C51 1.214 1_455 S
O50 Cd46 2.352 . S
O50 C53 1.258 . S
C51 O48 1.320 . S
C51 O49 1.214 1_655 S
O52 Cd44 2.277 1_556 S
O52 C47 1.209 1_655 S
C53 O50 1.258 . S
C53 O55 1.282 . S
O54 Cd46 2.277 1_556 S
O54 C47 1.226 . S
O55 Cd46 2.356 . S
O55 C53 1.282 . S
C56 O57 1.306 . S
C56 O59 1.160 . S
O57 C56 1.306 . S
O57 Cd58 2.228 . S
Cd58 O57 2.228 . S
Cd58 O62 2.273 1_554 S
Cd58 O66 2.277 . S
O59 C56 1.160 . S
O59 Cd60 2.203 . S
Cd60 O59 2.203 . S
Cd60 O62 2.411 1_554 S
Cd60 O63 2.333 1_554 S
Cd60 O64 2.352 1_554 S
Cd60 O68 2.277 . S
Cd60 O69 2.356 1_554 S
C61 O66 1.209 . S
C61 O68 1.226 . S
O62 Cd58 2.273 1_556 S
O62 Cd60 2.411 1_556 S
O62 C65 1.320 . S
O63 Cd60 2.333 1_556 S
O63 C65 1.214 . S
O64 Cd60 2.352 1_556 S
O64 C67 1.258 . S
C65 O62 1.320 . S
C65 O63 1.214 . S
O66 Cd58 2.277 . S
O66 C61 1.209 . S
C67 O64 1.258 . S
C67 O69 1.282 . S
O68 Cd60 2.277 . S
O68 C61 1.226 . S
O69 Cd60 2.356 1_556 S
O69 C67 1.282 . S
C70 O71 1.306 . S
C70 O73 1.160 . S
O71 C70 1.306 . S
O71 Cd72 2.228 1_556 S
Cd72 O71 2.228 1_554 S
Cd72 O76 2.273 . S
Cd72 O80 2.277 1_554 S
O73 C70 1.160 . S
O73 Cd74 2.203 1_546 S
Cd74 O73 2.203 1_564 S
Cd74 O76 2.411 1_565 S
Cd74 O77 2.333 . S
Cd74 O78 2.352 . S
Cd74 O82 2.277 1_554 S
Cd74 O83 2.356 . S
C75 O80 1.209 1_565 S
C75 O82 1.226 . S
O76 Cd72 2.273 . S
O76 Cd74 2.411 1_545 S
O76 C79 1.320 . S
O77 Cd74 2.333 . S
O77 C79 1.214 1_565 S
O78 Cd74 2.352 . S
O78 C81 1.258 . S
C79 O76 1.320 . S
C79 O77 1.214 1_545 S
O80 Cd72 2.277 1_556 S
O80 C75 1.209 1_545 S
C81 O78 1.258 . S
C81 O83 1.282 . S
O82 Cd74 2.277 1_556 S
O82 C75 1.226 . S
O83 Cd74 2.356 . S
O83 C81 1.282 . S
C84 O85 1.306 . S
C84 O87 1.160 . S
O85 C84 1.306 . S
O85 Cd86 2.228 . S
Cd86 O85 2.228 . S
Cd86 O90 2.273 . S
Cd86 O94 2.277 . S
O87 C84 1.160 . S
O87 Cd88 2.203 . S
Cd88 O87 2.203 . S
Cd88 O90 2.411 . S
Cd88 O91 2.333 . S
Cd88 O92 2.352 . S
Cd88 O96 2.277 . S
Cd88 O97 2.356 . S
C89 O94 1.209 . S
C89 O96 1.226 . S
O90 Cd86 2.273 . S
O90 Cd88 2.411 . S
O90 C93 1.320 . S
O91 Cd88 2.333 . S
O91 C93 1.214 . S
O92 Cd88 2.352 . S
O92 C95 1.258 . S
C93 O90 1.320 . S
C93 O91 1.214 . S
O94 Cd86 2.277 . S
O94 C89 1.209 . S
C95 O92 1.258 . S
C95 O97 1.282 . S
O96 Cd88 2.277 . S
O96 C89 1.226 . S
O97 Cd88 2.356 . S
O97 C95 1.282 . S
C98 O99 1.306 . S
C98 O101 1.160 . S
O99 C98 1.306 . S
O99 Cd100 2.228 1_545 S
Cd100 O99 2.228 1_565 S
Cd100 O104 2.273 . S
Cd100 O108 2.277 . S
O101 C98 1.160 . S
O101 Cd102 2.203 1_545 S
Cd102 O101 2.203 1_565 S
Cd102 O104 2.411 . S
Cd102 O105 2.333 . S
Cd102 O106 2.352 1_565 S
Cd102 O110 2.277 . S
Cd102 O111 2.356 . S
C103 O108 1.209 . S
C103 O110 1.226 . S
O104 Cd100 2.273 . S
O104 Cd102 2.411 . S
O104 C107 1.320 . S
O105 Cd102 2.333 . S
O105 C107 1.214 . S
O106 Cd102 2.352 1_545 S
O106 C109 1.258 1_545 S
C107 O104 1.320 . S
C107 O105 1.214 . S
O108 Cd100 2.277 . S
O108 C103 1.209 . S
C109 O106 1.258 1_565 S
C109 O111 1.282 . S
O110 Cd102 2.277 . S
O110 C103 1.226 . S
O111 Cd102 2.356 . S
O111 C109 1.282 . S
C112 O113 1.306 . S
C112 O115 1.160 . S
O113 C112 1.306 . S
O113 Cd114 2.228 1_655 S
Cd114 O113 2.228 1_455 S
Cd114 O118 2.273 . S
Cd114 O122 2.277 . S
O115 C112 1.160 . S
O115 Cd116 2.203 1_655 S
Cd116 O115 2.203 1_455 S
Cd116 O118 2.411 . S
Cd116 O119 2.333 . S
Cd116 O120 2.352 1_455 S
Cd116 O124 2.277 . S
Cd116 O125 2.356 . S
C117 O122 1.209 . S
C117 O124 1.226 . S
O118 Cd114 2.273 . S
O118 Cd116 2.411 . S
O118 C121 1.320 . S
O119 Cd116 2.333 . S
O119 C121 1.214 . S
O120 Cd116 2.352 1_655 S
O120 C123 1.258 1_655 S
C121 O118 1.320 . S
C121 O119 1.214 . S
O122 Cd114 2.277 . S
O122 C117 1.209 . S
C123 O120 1.258 1_455 S
C123 O125 1.282 . S
O124 Cd116 2.277 . S
O124 C117 1.226 . S
O125 Cd116 2.356 . S
O125 C123 1.282 . S
C126 O127 1.306 . S
C126 O129 1.160 1_565 S
O127 C126 1.306 . S
O127 Cd128 2.228 . S
Cd128 O127 2.228 . S
Cd128 O132 2.273 . S
Cd128 O136 2.277 . S
O129 C126 1.160 1_545 S
O129 Cd130 2.203 1_545 S
Cd130 O129 2.203 1_565 S
Cd130 O132 2.411 . S
Cd130 O133 2.333 . S
Cd130 O134 2.352 1_565 S
Cd130 O138 2.277 . S
Cd130 O139 2.356 1_565 S
C131 O136 1.209 . S
C131 O138 1.226 . S
O132 Cd128 2.273 . S
O132 Cd130 2.411 . S
O132 C135 1.320 . S
O133 Cd130 2.333 . S
O133 C135 1.214 . S
O134 Cd130 2.352 1_545 S
O134 C137 1.258 . S
C135 O132 1.320 . S
C135 O133 1.214 . S
O136 Cd128 2.277 . S
O136 C131 1.209 . S
C137 O134 1.258 . S
C137 O139 1.282 . S
O138 Cd130 2.277 . S
O138 C131 1.226 . S
O139 Cd130 2.356 1_545 S
O139 C137 1.282 . S
C140 O141 1.306 . S
C140 O143 1.160 . S
O141 C140 1.306 . S
O141 Cd142 2.228 1_655 S
Cd142 O141 2.228 1_455 S
Cd142 O146 2.273 . S
Cd142 O150 2.277 . S
O143 C140 1.160 . S
O143 Cd144 2.203 1_655 S
Cd144 O143 2.203 1_455 S
Cd144 O146 2.411 . S
Cd144 O147 2.333 . S
Cd144 O148 2.352 1_455 S
Cd144 O152 2.277 . S
Cd144 O153 2.356 . S
C145 O150 1.209 . S
C145 O152 1.226 . S
O146 Cd142 2.273 . S
O146 Cd144 2.411 . S
O146 C149 1.320 . S
O147 Cd144 2.333 . S
O147 C149 1.214 . S
O148 Cd144 2.352 1_655 S
O148 C151 1.258 1_655 S
C149 O146 1.320 . S
C149 O147 1.214 . S
O150 Cd142 2.277 . S
O150 C145 1.209 . S
C151 O148 1.258 1_455 S
C151 O153 1.282 . S
O152 Cd144 2.277 . S
O152 C145 1.226 . S
O153 Cd144 2.356 . S
O153 C151 1.282 . S
C154 O155 1.306 . S
C154 O157 1.160 . S
O155 C154 1.306 . S
O155 Cd156 2.228 . S
Cd156 O155 2.228 . S
Cd156 O160 2.273 . S
Cd156 O164 2.277 . S
O157 C154 1.160 . S
O157 Cd158 2.203 . S
Cd158 O157 2.203 . S
Cd158 O160 2.411 . S
Cd158 O161 2.333 . S
Cd158 O162 2.352 . S
Cd158 O166 2.277 . S
Cd158 O167 2.356 . S
C159 O164 1.209 . S
C159 O166 1.226 . S
O160 Cd156 2.273 . S
O160 Cd158 2.411 . S
O160 C163 1.320 . S
O161 Cd158 2.333 . S
O161 C163 1.214 . S
O162 Cd158 2.352 . S
O162 C165 1.258 . S
C163 O160 1.320 . S
C163 O161 1.214 . S
O164 Cd156 2.277 . S
O164 C159 1.209 . S
C165 O162 1.258 . S
C165 O167 1.282 . S
O166 Cd158 2.277 . S
O166 C159 1.226 . S
O167 Cd158 2.356 . S
O167 C165 1.282 . S
C168 O169 1.306 . S
C168 O171 1.160 . S
O169 C168 1.306 . S
O169 Cd170 2.228 1_565 S
Cd170 O169 2.228 1_545 S
Cd170 O174 2.273 . S
Cd170 O178 2.277 . S
O171 C168 1.160 . S
O171 Cd172 2.203 1_565 S
Cd172 O171 2.203 1_545 S
Cd172 O174 2.411 . S
Cd172 O175 2.333 . S
Cd172 O176 2.352 1_545 S
Cd172 O180 2.277 . S
Cd172 O181 2.356 . S
C173 O178 1.209 . S
C173 O180 1.226 . S
O174 Cd170 2.273 . S
O174 Cd172 2.411 . S
O174 C177 1.320 . S
O175 Cd172 2.333 . S
O175 C177 1.214 . S
O176 Cd172 2.352 1_565 S
O176 C179 1.258 1_565 S
C177 O174 1.320 . S
C177 O175 1.214 . S
O178 Cd170 2.277 . S
O178 C173 1.209 . S
C179 O176 1.258 1_545 S
C179 O181 1.282 . S
O180 Cd172 2.277 . S
O180 C173 1.226 . S
O181 Cd172 2.356 . S
O181 C179 1.282 . S
C182 O183 1.306 . S
C182 O185 1.160 1_655 S
O183 C182 1.306 . S
O183 Cd184 2.228 . S
Cd184 O183 2.228 . S
Cd184 O188 2.273 . S
Cd184 O192 2.277 . S
O185 C182 1.160 1_455 S
O185 Cd186 2.203 1_455 S
Cd186 O185 2.203 1_655 S
Cd186 O188 2.411 . S
Cd186 O189 2.333 . S
Cd186 O190 2.352 1_655 S
Cd186 O194 2.277 . S
Cd186 O195 2.356 1_655 S
C187 O192 1.209 . S
C187 O194 1.226 . S
O188 Cd184 2.273 . S
O188 Cd186 2.411 . S
O188 C191 1.320 . S
O189 Cd186 2.333 . S
O189 C191 1.214 . S
O190 Cd186 2.352 1_455 S
O190 C193 1.258 . S
C191 O188 1.320 . S
C191 O189 1.214 . S
O192 Cd184 2.277 . S
O192 C187 1.209 . S
C193 O190 1.258 . S
C193 O195 1.282 . S
O194 Cd186 2.277 . S
O194 C187 1.226 . S
O195 Cd186 2.356 1_455 S
O195 C193 1.282 . S
C196 O197 1.306 . S
C196 O199 1.160 . S
O197 C196 1.306 . S
O197 Cd198 2.228 . S
Cd198 O197 2.228 . S
Cd198 O202 2.273 . S
Cd198 O206 2.277 . S
O199 C196 1.160 . S
O199 Cd200 2.203 . S
Cd200 O199 2.203 . S
Cd200 O202 2.411 . S
Cd200 O203 2.333 . S
Cd200 O204 2.352 . S
Cd200 O208 2.277 . S
Cd200 O209 2.356 . S
C201 O206 1.209 . S
C201 O208 1.226 . S
O202 Cd198 2.273 . S
O202 Cd200 2.411 . S
O202 C205 1.320 . S
O203 Cd200 2.333 . S
O203 C205 1.214 . S
O204 Cd200 2.352 . S
O204 C207 1.258 . S
C205 O202 1.320 . S
C205 O203 1.214 . S
O206 Cd198 2.277 . S
O206 C201 1.209 . S
C207 O204 1.258 . S
C207 O209 1.282 . S
O208 Cd200 2.277 . S
O208 C201 1.226 . S
O209 Cd200 2.356 . S
O209 C207 1.282 . S
C210 O211 1.306 . S
C210 O213 1.160 . S
O211 C210 1.306 . S
O211 Cd212 2.228 . S
Cd212 O211 2.228 . S
Cd212 O216 2.273 . S
Cd212 O220 2.277 . S
O213 C210 1.160 . S
O213 Cd214 2.203 . S
Cd214 O213 2.203 . S
Cd214 O216 2.411 . S
Cd214 O217 2.333 . S
Cd214 O218 2.352 . S
Cd214 O222 2.277 . S
Cd214 O223 2.356 . S
C215 O220 1.209 . S
C215 O222 1.226 . S
O216 Cd212 2.273 . S
O216 Cd214 2.411 . S
O216 C219 1.320 . S
O217 Cd214 2.333 . S
O217 C219 1.214 . S
O218 Cd214 2.352 . S
O218 C221 1.258 . S
C219 O216 1.320 . S
C219 O217 1.214 . S
O220 Cd212 2.277 . S
O220 C215 1.209 . S
C221 O218 1.258 . S
C221 O223 1.282 . S
O222 Cd214 2.277 . S
O222 C215 1.226 . S
O223 Cd214 2.356 . S
O223 C221 1.282 . S
C224 O225 1.306 . S
C224 O227 1.160 1_545 S
O225 C224 1.306 . S
O225 Cd226 2.228 . S
Cd226 O225 2.228 . S
Cd226 O230 2.273 . S
Cd226 O234 2.277 . S
O227 C224 1.160 1_565 S
O227 Cd228 2.203 1_565 S
Cd228 O227 2.203 1_545 S
Cd228 O230 2.411 . S
Cd228 O231 2.333 . S
Cd228 O232 2.352 1_545 S
Cd228 O236 2.277 . S
Cd228 O237 2.356 1_545 S
C229 O234 1.209 . S
C229 O236 1.226 . S
O230 Cd226 2.273 . S
O230 Cd228 2.411 . S
O230 C233 1.320 . S
O231 Cd228 2.333 . S
O231 C233 1.214 . S
O232 Cd228 2.352 1_565 S
O232 C235 1.258 . S
C233 O230 1.320 . S
C233 O231 1.214 . S
O234 Cd226 2.277 . S
O234 C229 1.209 . S
C235 O232 1.258 . S
C235 O237 1.282 . S
O236 Cd228 2.277 . S
O236 C229 1.226 . S
O237 Cd228 2.356 1_565 S
O237 C235 1.282 . S
C238 O239 1.306 . S
C238 O241 1.160 . S
O239 C238 1.306 . S
O239 Cd240 2.228 1_455 S
Cd240 O239 2.228 1_655 S
Cd240 O244 2.273 . S
Cd240 O248 2.277 . S
O241 C238 1.160 . S
O241 Cd242 2.203 1_455 S
Cd242 O241 2.203 1_655 S
Cd242 O244 2.411 . S
Cd242 O245 2.333 . S
Cd242 O246 2.352 1_655 S
Cd242 O250 2.277 . S
Cd242 O251 2.356 . S
C243 O248 1.209 . S
C243 O250 1.226 . S
O244 Cd240 2.273 . S
O244 Cd242 2.411 . S
O244 C247 1.320 . S
O245 Cd242 2.333 . S
O245 C247 1.214 . S
O246 Cd242 2.352 1_455 S
O246 C249 1.258 1_455 S
C247 O244 1.320 . S
C247 O245 1.214 . S
O248 Cd240 2.277 . S
O248 C243 1.209 . S
C249 O246 1.258 1_655 S
C249 O251 1.282 . S
O250 Cd242 2.277 . S
O250 C243 1.226 . S
O251 Cd242 2.356 . S
O251 C249 1.282 . S
C252 C253 1.384 . S
C252 C254 1.384 . S
C252 H280 0.931 . S
C253 C252 1.384 . S
C253 C256 1.382 . S
C254 C252 1.384 . S
C254 C255 1.381 . S
C254 H281 0.930 . S
C255 C254 1.381 . S
C255 C257 1.381 . S
C255 C258 1.487 . S
C256 C253 1.382 . S
C256 C257 1.387 . S
C256 H282 0.930 . S
C257 C255 1.381 . S
C257 C256 1.387 . S
C257 H283 0.931 . S
C258 C255 1.487 . S
C258 C265 1.399 . S
C258 N296 1.343 . S
C259 C260 1.384 . S
C259 C261 1.384 . S
C259 H284 0.931 . S
C260 C259 1.384 . S
C260 C263 1.382 . S
C261 C259 1.384 . S
C261 C262 1.381 . S
C261 H285 0.930 . S
C262 C261 1.381 . S
C262 C264 1.381 . S
C262 C265 1.487 . S
C263 C260 1.382 . S
C263 C264 1.387 . S
C263 H286 0.930 . S
C264 C262 1.381 . S
C264 C263 1.387 . S
C264 H287 0.931 . S
C265 C258 1.399 . S
C265 C262 1.487 . S
C265 N297 1.343 . S
C266 C267 1.384 . S
C266 C268 1.384 . S
C266 H288 0.931 . S
C267 C266 1.384 . S
C267 C270 1.382 . S
C268 C266 1.384 . S
C268 C269 1.381 . S
C268 H289 0.930 . S
C269 C268 1.381 . S
C269 C271 1.381 . S
C269 C272 1.487 . S
C270 C267 1.382 . S
C270 C271 1.387 . S
C270 H290 0.930 . S
C271 C269 1.381 . S
C271 C270 1.387 . S
C271 H291 0.931 . S
C272 C269 1.487 . S
C272 C279 1.399 . S
C272 N297 1.343 . S
C273 C274 1.384 . S
C273 C275 1.384 . S
C273 H292 0.931 . S
C274 C273 1.384 . S
C274 C277 1.382 . S
C275 C273 1.384 . S
C275 C276 1.381 . S
C275 H293 0.930 . S
C276 C275 1.381 . S
C276 C278 1.381 . S
C276 C279 1.487 . S
C277 C274 1.382 . S
C277 C278 1.387 . S
C277 H294 0.930 . S
C278 C276 1.381 . S
C278 C277 1.387 . S
C278 H295 0.931 . S
C279 C272 1.399 . S
C279 C276 1.487 . S
C279 N296 1.343 . S
H280 C252 0.931 . S
H281 C254 0.930 . S
H282 C256 0.930 . S
H283 C257 0.931 . S
H284 C259 0.931 . S
H285 C261 0.930 . S
H286 C263 0.930 . S
H287 C264 0.931 . S
H288 C266 0.931 . S
H289 C268 0.930 . S
H290 C270 0.930 . S
H291 C271 0.931 . S
H292 C273 0.931 . S
H293 C275 0.930 . S
H294 C277 0.930 . S
H295 C278 0.931 . S
N296 C258 1.343 . S
N296 C279 1.343 . S
N297 C265 1.343 . S
N297 C272 1.343 . S
C298 C299 1.384 . S
C298 C300 1.384 . S
C298 H326 0.931 . S
C299 C298 1.384 . S
C299 C302 1.382 . S
C300 C298 1.384 . S
C300 C301 1.381 . S
C300 H327 0.930 . S
C301 C300 1.381 . S
C301 C303 1.381 . S
C301 C304 1.487 . S
C302 C299 1.382 . S
C302 C303 1.387 . S
C302 H328 0.930 . S
C303 C301 1.381 . S
C303 C302 1.387 . S
C303 H329 0.931 . S
C304 C301 1.487 . S
C304 C311 1.399 . S
C304 N342 1.343 . S
C305 C306 1.384 . S
C305 C307 1.384 . S
C305 H330 0.931 . S
C306 C305 1.384 . S
C306 C309 1.382 . S
C307 C305 1.384 . S
C307 C308 1.381 . S
C307 H331 0.930 . S
C308 C307 1.381 . S
C308 C310 1.381 . S
C308 C311 1.487 . S
C309 C306 1.382 . S
C309 C310 1.387 . S
C309 H332 0.930 . S
C310 C308 1.381 . S
C310 C309 1.387 . S
C310 H333 0.931 . S
C311 C304 1.399 . S
C311 C308 1.487 . S
C311 N343 1.343 . S
C312 C313 1.384 . S
C312 C314 1.384 . S
C312 H334 0.931 . S
C313 C312 1.384 . S
C313 C316 1.382 . S
C314 C312 1.384 . S
C314 C315 1.381 . S
C314 H335 0.930 . S
C315 C314 1.381 . S
C315 C317 1.381 . S
C315 C318 1.487 . S
C316 C313 1.382 . S
C316 C317 1.387 . S
C316 H336 0.930 . S
C317 C315 1.381 . S
C317 C316 1.387 . S
C317 H337 0.931 . S
C318 C315 1.487 . S
C318 C325 1.399 . S
C318 N343 1.343 . S
C319 C320 1.384 . S
C319 C321 1.384 . S
C319 H338 0.931 . S
C320 C319 1.384 . S
C320 C323 1.382 . S
C321 C319 1.384 . S
C321 C322 1.381 . S
C321 H339 0.930 . S
C322 C321 1.381 . S
C322 C324 1.381 . S
C322 C325 1.487 . S
C323 C320 1.382 . S
C323 C324 1.387 . S
C323 H340 0.930 . S
C324 C322 1.381 . S
C324 C323 1.387 . S
C324 H341 0.931 . S
C325 C318 1.399 . S
C325 C322 1.487 . S
C325 N342 1.343 . S
H326 C298 0.931 . S
H327 C300 0.930 . S
H328 C302 0.930 . S
H329 C303 0.931 . S
H330 C305 0.931 . S
H331 C307 0.930 . S
H332 C309 0.930 . S
H333 C310 0.931 . S
H334 C312 0.931 . S
H335 C314 0.930 . S
H336 C316 0.930 . S
H337 C317 0.931 . S
H338 C319 0.931 . S
H339 C321 0.930 . S
H340 C323 0.930 . S
H341 C324 0.931 . S
N342 C304 1.343 . S
N342 C325 1.343 . S
N343 C311 1.343 . S
N343 C318 1.343 . S
C344 C345 1.384 . S
C344 C346 1.384 . S
C344 H372 0.931 . S
C345 C344 1.384 . S
C345 C348 1.382 . S
C346 C344 1.384 . S
C346 C347 1.381 . S
C346 H373 0.930 . S
C347 C346 1.381 . S
C347 C349 1.381 . S
C347 C350 1.487 . S
C348 C345 1.382 . S
C348 C349 1.387 . S
C348 H374 0.930 . S
C349 C347 1.381 . S
C349 C348 1.387 . S
C349 H375 0.931 . S
C350 C347 1.487 . S
C350 C357 1.399 . S
C350 N388 1.343 . S
C351 C352 1.384 . S
C351 C353 1.384 . S
C351 H376 0.931 . S
C352 C351 1.384 . S
C352 C355 1.382 . S
C353 C351 1.384 . S
C353 C354 1.381 . S
C353 H377 0.930 . S
C354 C353 1.381 . S
C354 C356 1.381 . S
C354 C357 1.487 . S
C355 C352 1.382 . S
C355 C356 1.387 . S
C355 H378 0.930 . S
C356 C354 1.381 . S
C356 C355 1.387 . S
C356 H379 0.931 . S
C357 C350 1.399 . S
C357 C354 1.487 . S
C357 N389 1.343 . S
C358 C359 1.384 . S
C358 C360 1.384 . S
C358 H380 0.931 . S
C359 C358 1.384 . S
C359 C362 1.382 . S
C360 C358 1.384 . S
C360 C361 1.381 . S
C360 H381 0.930 . S
C361 C360 1.381 . S
C361 C363 1.381 . S
C361 C364 1.487 . S
C362 C359 1.382 . S
C362 C363 1.387 . S
C362 H382 0.930 . S
C363 C361 1.381 . S
C363 C362 1.387 . S
C363 H383 0.931 . S
C364 C361 1.487 . S
C364 C371 1.399 . S
C364 N389 1.343 . S
C365 C366 1.384 . S
C365 C367 1.384 . S
C365 H384 0.931 . S
C366 C365 1.384 . S
C366 C369 1.382 . S
C367 C365 1.384 . S
C367 C368 1.381 . S
C367 H385 0.930 . S
C368 C367 1.381 . S
C368 C370 1.381 . S
C368 C371 1.487 . S
C369 C366 1.382 . S
C369 C370 1.387 . S
C369 H386 0.930 . S
C370 C368 1.381 . S
C370 C369 1.387 . S
C370 H387 0.931 . S
C371 C364 1.399 . S
C371 C368 1.487 . S
C371 N388 1.343 . S
H372 C344 0.931 . S
H373 C346 0.930 . S
H374 C348 0.930 . S
H375 C349 0.931 . S
H376 C351 0.931 . S
H377 C353 0.930 . S
H378 C355 0.930 . S
H379 C356 0.931 . S
H380 C358 0.931 . S
H381 C360 0.930 . S
H382 C362 0.930 . S
H383 C363 0.931 . S
H384 C365 0.931 . S
H385 C367 0.930 . S
H386 C369 0.930 . S
H387 C370 0.931 . S
N388 C350 1.343 . S
N388 C371 1.343 . S
N389 C357 1.343 . S
N389 C364 1.343 . S
C390 C391 1.384 . S
C390 C392 1.384 . S
C390 H418 0.931 . S
C391 C390 1.384 . S
C391 C394 1.382 . S
C392 C390 1.384 . S
C392 C393 1.381 . S
C392 H419 0.930 . S
C393 C392 1.381 . S
C393 C395 1.381 . S
C393 C396 1.487 . S
C394 C391 1.382 . S
C394 C395 1.387 . S
C394 H420 0.930 . S
C395 C393 1.381 . S
C395 C394 1.387 . S
C395 H421 0.931 . S
C396 C393 1.487 . S
C396 C403 1.399 . S
C396 N434 1.343 . S
C397 C398 1.384 . S
C397 C399 1.384 . S
C397 H422 0.931 . S
C398 C397 1.384 . S
C398 C401 1.382 . S
C399 C397 1.384 . S
C399 C400 1.381 . S
C399 H423 0.930 . S
C400 C399 1.381 . S
C400 C402 1.381 . S
C400 C403 1.487 . S
C401 C398 1.382 . S
C401 C402 1.387 . S
C401 H424 0.930 . S
C402 C400 1.381 . S
C402 C401 1.387 . S
C402 H425 0.931 . S
C403 C396 1.399 . S
C403 C400 1.487 . S
C403 N435 1.343 . S
C404 C405 1.384 . S
C404 C406 1.384 . S
C404 H426 0.931 . S
C405 C404 1.384 . S
C405 C408 1.382 . S
C406 C404 1.384 . S
C406 C407 1.381 . S
C406 H427 0.930 . S
C407 C406 1.381 . S
C407 C409 1.381 . S
C407 C410 1.487 . S
C408 C405 1.382 . S
C408 C409 1.387 . S
C408 H428 0.930 . S
C409 C407 1.381 . S
C409 C408 1.387 . S
C409 H429 0.931 . S
C410 C407 1.487 . S
C410 C417 1.399 . S
C410 N435 1.343 . S
C411 C412 1.384 . S
C411 C413 1.384 . S
C411 H430 0.931 . S
C412 C411 1.384 . S
C412 C415 1.382 . S
C413 C411 1.384 . S
C413 C414 1.381 . S
C413 H431 0.930 . S
C414 C413 1.381 . S
C414 C416 1.381 . S
C414 C417 1.487 . S
C415 C412 1.382 . S
C415 C416 1.387 . S
C415 H432 0.930 . S
C416 C414 1.381 . S
C416 C415 1.387 . S
C416 H433 0.931 . S
C417 C410 1.399 . S
C417 C414 1.487 . S
C417 N434 1.343 . S
H418 C390 0.931 . S
H419 C392 0.930 . S
H420 C394 0.930 . S
H421 C395 0.931 . S
H422 C397 0.931 . S
H423 C399 0.930 . S
H424 C401 0.930 . S
H425 C402 0.931 . S
H426 C404 0.931 . S
H427 C406 0.930 . S
H428 C408 0.930 . S
H429 C409 0.931 . S
H430 C411 0.931 . S
H431 C413 0.930 . S
H432 C415 0.930 . S
H433 C416 0.931 . S
N434 C396 1.343 . S
N434 C417 1.343 . S
N435 C403 1.343 . S
N435 C410 1.343 . S
C436 C437 1.384 . S
C436 C438 1.384 . S
C436 H464 0.931 . S
C437 C436 1.384 . S
C437 C440 1.382 . S
C438 C436 1.384 . S
C438 C439 1.381 . S
C438 H465 0.930 . S
C439 C438 1.381 . S
C439 C441 1.381 . S
C439 C442 1.487 . S
C440 C437 1.382 . S
C440 C441 1.387 . S
C440 H466 0.930 . S
C441 C439 1.381 . S
C441 C440 1.387 . S
C441 H467 0.931 . S
C442 C439 1.487 . S
C442 C449 1.399 . S
C442 N480 1.343 . S
C443 C444 1.384 . S
C443 C445 1.384 . S
C443 H468 0.931 . S
C444 C443 1.384 . S
C444 C447 1.382 . S
C445 C443 1.384 . S
C445 C446 1.381 . S
C445 H469 0.930 . S
C446 C445 1.381 . S
C446 C448 1.381 . S
C446 C449 1.487 . S
C447 C444 1.382 . S
C447 C448 1.387 . S
C447 H470 0.930 . S
C448 C446 1.381 . S
C448 C447 1.387 . S
C448 H471 0.931 . S
C449 C442 1.399 . S
C449 C446 1.487 . S
C449 N481 1.343 . S
C450 C451 1.384 . S
C450 C452 1.384 . S
C450 H472 0.931 . S
C451 C450 1.384 . S
C451 C454 1.382 . S
C452 C450 1.384 . S
C452 C453 1.381 . S
C452 H473 0.930 . S
C453 C452 1.381 . S
C453 C455 1.381 . S
C453 C456 1.487 . S
C454 C451 1.382 . S
C454 C455 1.387 . S
C454 H474 0.930 . S
C455 C453 1.381 . S
C455 C454 1.387 . S
C455 H475 0.931 . S
C456 C453 1.487 . S
C456 C463 1.399 . S
C456 N481 1.343 . S
C457 C458 1.384 . S
C457 C459 1.384 . S
C457 H476 0.931 . S
C458 C457 1.384 . S
C458 C461 1.382 . S
C459 C457 1.384 . S
C459 C460 1.381 . S
C459 H477 0.930 . S
C460 C459 1.381 . S
C460 C462 1.381 . S
C460 C463 1.487 . S
C461 C458 1.382 . S
C461 C462 1.387 . S
C461 H478 0.930 . S
C462 C460 1.381 . S
C462 C461 1.387 . S
C462 H479 0.931 . S
C463 C456 1.399 . S
C463 C460 1.487 . S
C463 N480 1.343 . S
H464 C436 0.931 . S
H465 C438 0.930 . S
H466 C440 0.930 . S
H467 C441 0.931 . S
H468 C443 0.931 . S
H469 C445 0.930 . S
H470 C447 0.930 . S
H471 C448 0.931 . S
H472 C450 0.931 . S
H473 C452 0.930 . S
H474 C454 0.930 . S
H475 C455 0.931 . S
H476 C457 0.931 . S
H477 C459 0.930 . S
H478 C461 0.930 . S
H479 C462 0.931 . S
N480 C442 1.343 . S
N480 C463 1.343 . S
N481 C449 1.343 . S
N481 C456 1.343 . S
C482 C483 1.384 . S
C482 C484 1.384 . S
C482 H510 0.931 . S
C483 C482 1.384 . S
C483 C486 1.382 . S
C484 C482 1.384 . S
C484 C485 1.381 . S
C484 H511 0.930 . S
C485 C484 1.381 . S
C485 C487 1.381 . S
C485 C488 1.487 . S
C486 C483 1.382 . S
C486 C487 1.387 . S
C486 H512 0.930 . S
C487 C485 1.381 . S
C487 C486 1.387 . S
C487 H513 0.931 . S
C488 C485 1.487 . S
C488 C495 1.399 . S
C488 N526 1.343 . S
C489 C490 1.384 . S
C489 C491 1.384 . S
C489 H514 0.931 . S
C490 C489 1.384 . S
C490 C493 1.382 . S
C491 C489 1.384 . S
C491 C492 1.381 . S
C491 H515 0.930 . S
C492 C491 1.381 . S
C492 C494 1.381 . S
C492 C495 1.487 . S
C493 C490 1.382 . S
C493 C494 1.387 . S
C493 H516 0.930 . S
C494 C492 1.381 . S
C494 C493 1.387 . S
C494 H517 0.931 . S
C495 C488 1.399 . S
C495 C492 1.487 . S
C495 N527 1.343 . S
C496 C497 1.384 . S
C496 C498 1.384 . S
C496 H518 0.931 . S
C497 C496 1.384 . S
C497 C500 1.382 . S
C498 C496 1.384 . S
C498 C499 1.381 . S
C498 H519 0.930 . S
C499 C498 1.381 . S
C499 C501 1.381 . S
C499 C502 1.487 . S
C500 C497 1.382 . S
C500 C501 1.387 . S
C500 H520 0.930 . S
C501 C499 1.381 . S
C501 C500 1.387 . S
C501 H521 0.931 . S
C502 C499 1.487 . S
C502 C509 1.399 . S
C502 N527 1.343 . S
C503 C504 1.384 . S
C503 C505 1.384 . S
C503 H522 0.931 . S
C504 C503 1.384 . S
C504 C507 1.382 . S
C505 C503 1.384 . S
C505 C506 1.381 . S
C505 H523 0.930 . S
C506 C505 1.381 . S
C506 C508 1.381 . S
C506 C509 1.487 . S
C507 C504 1.382 . S
C507 C508 1.387 . S
C507 H524 0.930 . S
C508 C506 1.381 . S
C508 C507 1.387 . S
C508 H525 0.931 . S
C509 C502 1.399 . S
C509 C506 1.487 . S
C509 N526 1.343 . S
H510 C482 0.931 . S
H511 C484 0.930 . S
H512 C486 0.930 . S
H513 C487 0.931 . S
H514 C489 0.931 . S
H515 C491 0.930 . S
H516 C493 0.930 . S
H517 C494 0.931 . S
H518 C496 0.931 . S
H519 C498 0.930 . S
H520 C500 0.930 . S
H521 C501 0.931 . S
H522 C503 0.931 . S
H523 C505 0.930 . S
H524 C507 0.930 . S
H525 C508 0.931 . S
N526 C488 1.343 . S
N526 C509 1.343 . S
N527 C495 1.343 . S
N527 C502 1.343 . S
C528 C529 1.384 . S
C528 C530 1.384 . S
C528 H556 0.931 . S
C529 C528 1.384 . S
C529 C532 1.382 . S
C530 C528 1.384 . S
C530 C531 1.381 . S
C530 H557 0.930 . S
C531 C530 1.381 . S
C531 C533 1.381 . S
C531 C534 1.487 . S
C532 C529 1.382 . S
C532 C533 1.387 . S
C532 H558 0.930 . S
C533 C531 1.381 . S
C533 C532 1.387 . S
C533 H559 0.931 . S
C534 C531 1.487 . S
C534 C541 1.399 . S
C534 N572 1.343 . S
C535 C536 1.384 . S
C535 C537 1.384 . S
C535 H560 0.931 . S
C536 C535 1.384 . S
C536 C539 1.382 . S
C537 C535 1.384 . S
C537 C538 1.381 . S
C537 H561 0.930 . S
C538 C537 1.381 . S
C538 C540 1.381 . S
C538 C541 1.487 . S
C539 C536 1.382 . S
C539 C540 1.387 . S
C539 H562 0.930 . S
C540 C538 1.381 . S
C540 C539 1.387 . S
C540 H563 0.931 . S
C541 C534 1.399 . S
C541 C538 1.487 . S
C541 N573 1.343 . S
C542 C543 1.384 . S
C542 C544 1.384 . S
C542 H564 0.931 . S
C543 C542 1.384 . S
C543 C546 1.382 . S
C544 C542 1.384 . S
C544 C545 1.381 . S
C544 H565 0.930 . S
C545 C544 1.381 . S
C545 C547 1.381 . S
C545 C548 1.487 . S
C546 C543 1.382 . S
C546 C547 1.387 . S
C546 H566 0.930 . S
C547 C545 1.381 . S
C547 C546 1.387 . S
C547 H567 0.931 . S
C548 C545 1.487 . S
C548 C555 1.399 . S
C548 N573 1.343 . S
C549 C550 1.384 . S
C549 C551 1.384 . S
C549 H568 0.931 . S
C550 C549 1.384 . S
C550 C553 1.382 . S
C551 C549 1.384 . S
C551 C552 1.381 . S
C551 H569 0.930 . S
C552 C551 1.381 . S
C552 C554 1.381 . S
C552 C555 1.487 . S
C553 C550 1.382 . S
C553 C554 1.387 . S
C553 H570 0.930 . S
C554 C552 1.381 . S
C554 C553 1.387 . S
C554 H571 0.931 . S
C555 C548 1.399 . S
C555 C552 1.487 . S
C555 N572 1.343 . S
H556 C528 0.931 . S
H557 C530 0.930 . S
H558 C532 0.930 . S
H559 C533 0.931 . S
H560 C535 0.931 . S
H561 C537 0.930 . S
H562 C539 0.930 . S
H563 C540 0.931 . S
H564 C542 0.931 . S
H565 C544 0.930 . S
H566 C546 0.930 . S
H567 C547 0.931 . S
H568 C549 0.931 . S
H569 C551 0.930 . S
H570 C553 0.930 . S
H571 C554 0.931 . S
N572 C534 1.343 . S
N572 C555 1.343 . S
N573 C541 1.343 . S
N573 C548 1.343 . S
C574 C575 1.384 . S
C574 C576 1.384 . S
C574 H602 0.931 . S
C575 C574 1.384 . S
C575 C578 1.382 . S
C576 C574 1.384 . S
C576 C577 1.381 . S
C576 H603 0.930 . S
C577 C576 1.381 . S
C577 C579 1.381 . S
C577 C580 1.487 . S
C578 C575 1.382 . S
C578 C579 1.387 . S
C578 H604 0.930 . S
C579 C577 1.381 . S
C579 C578 1.387 . S
C579 H605 0.931 . S
C580 C577 1.487 . S
C580 C587 1.399 . S
C580 N618 1.343 . S
C581 C582 1.384 . S
C581 C583 1.384 . S
C581 H606 0.931 . S
C582 C581 1.384 . S
C582 C585 1.382 . S
C583 C581 1.384 . S
C583 C584 1.381 . S
C583 H607 0.930 . S
C584 C583 1.381 . S
C584 C586 1.381 . S
C584 C587 1.487 . S
C585 C582 1.382 . S
C585 C586 1.387 . S
C585 H608 0.930 . S
C586 C584 1.381 . S
C586 C585 1.387 . S
C586 H609 0.931 . S
C587 C580 1.399 . S
C587 C584 1.487 . S
C587 N619 1.343 . S
C588 C589 1.384 . S
C588 C590 1.384 . S
C588 H610 0.931 . S
C589 C588 1.384 . S
C589 C592 1.382 . S
C590 C588 1.384 . S
C590 C591 1.381 . S
C590 H611 0.930 . S
C591 C590 1.381 . S
C591 C593 1.381 . S
C591 C594 1.487 . S
C592 C589 1.382 . S
C592 C593 1.387 . S
C592 H612 0.930 . S
C593 C591 1.381 . S
C593 C592 1.387 . S
C593 H613 0.931 . S
C594 C591 1.487 . S
C594 C601 1.399 . S
C594 N619 1.343 . S
C595 C596 1.384 . S
C595 C597 1.384 . S
C595 H614 0.931 . S
C596 C595 1.384 . S
C596 C599 1.382 . S
C597 C595 1.384 . S
C597 C598 1.381 . S
C597 H615 0.930 . S
C598 C597 1.381 . S
C598 C600 1.381 . S
C598 C601 1.487 . S
C599 C596 1.382 . S
C599 C600 1.387 . S
C599 H616 0.930 . S
C600 C598 1.381 . S
C600 C599 1.387 . S
C600 H617 0.931 . S
C601 C594 1.399 . S
C601 C598 1.487 . S
C601 N618 1.343 . S
H602 C574 0.931 . S
H603 C576 0.930 . S
H604 C578 0.930 . S
H605 C579 0.931 . S
H606 C581 0.931 . S
H607 C583 0.930 . S
H608 C585 0.930 . S
H609 C586 0.931 . S
H610 C588 0.931 . S
H611 C590 0.930 . S
H612 C592 0.930 . S
H613 C593 0.931 . S
H614 C595 0.931 . S
H615 C597 0.930 . S
H616 C599 0.930 . S
H617 C600 0.931 . S
N618 C580 1.343 . S
N618 C601 1.343 . S
N619 C587 1.343 . S
N619 C594 1.343 . S
C620 C621 1.384 . S
C620 C622 1.384 . S
C620 H648 0.931 . S
C621 C620 1.384 . S
C621 C624 1.382 . S
C622 C620 1.384 . S
C622 C623 1.381 . S
C622 H649 0.930 . S
C623 C622 1.381 . S
C623 C625 1.381 . S
C623 C626 1.487 . S
C624 C621 1.382 . S
C624 C625 1.387 . S
C624 H650 0.930 . S
C625 C623 1.381 . S
C625 C624 1.387 . S
C625 H651 0.931 . S
C626 C623 1.487 . S
C626 C633 1.399 . S
C626 N664 1.343 . S
C627 C628 1.384 . S
C627 C629 1.384 . S
C627 H652 0.931 . S
C628 C627 1.384 . S
C628 C631 1.382 . S
C629 C627 1.384 . S
C629 C630 1.381 . S
C629 H653 0.930 . S
C630 C629 1.381 . S
C630 C632 1.381 . S
C630 C633 1.487 . S
C631 C628 1.382 . S
C631 C632 1.387 . S
C631 H654 0.930 . S
C632 C630 1.381 . S
C632 C631 1.387 . S
C632 H655 0.931 . S
C633 C626 1.399 . S
C633 C630 1.487 . S
C633 N665 1.343 . S
C634 C635 1.384 . S
C634 C636 1.384 . S
C634 H656 0.931 . S
C635 C634 1.384 . S
C635 C638 1.382 . S
C636 C634 1.384 . S
C636 C637 1.381 . S
C636 H657 0.930 . S
C637 C636 1.381 . S
C637 C639 1.381 . S
C637 C640 1.487 . S
C638 C635 1.382 . S
C638 C639 1.387 . S
C638 H658 0.930 . S
C639 C637 1.381 . S
C639 C638 1.387 . S
C639 H659 0.931 . S
C640 C637 1.487 . S
C640 C647 1.399 . S
C640 N665 1.343 . S
C641 C642 1.384 . S
C641 C643 1.384 . S
C641 H660 0.931 . S
C642 C641 1.384 . S
C642 C645 1.382 . S
C643 C641 1.384 . S
C643 C644 1.381 . S
C643 H661 0.930 . S
C644 C643 1.381 . S
C644 C646 1.381 . S
C644 C647 1.487 . S
C645 C642 1.382 . S
C645 C646 1.387 . S
C645 H662 0.930 . S
C646 C644 1.381 . S
C646 C645 1.387 . S
C646 H663 0.931 . S
C647 C640 1.399 . S
C647 C644 1.487 . S
C647 N664 1.343 . S
H648 C620 0.931 . S
H649 C622 0.930 . S
H650 C624 0.930 . S
H651 C625 0.931 . S
H652 C627 0.931 . S
H653 C629 0.930 . S
H654 C631 0.930 . S
H655 C632 0.931 . S
H656 C634 0.931 . S
H657 C636 0.930 . S
H658 C638 0.930 . S
H659 C639 0.931 . S
H660 C641 0.931 . S
H661 C643 0.930 . S
H662 C645 0.930 . S
H663 C646 0.931 . S
N664 C626 1.343 . S
N664 C647 1.343 . S
N665 C633 1.343 . S
N665 C640 1.343 . S
C666 C667 1.384 . S
C666 C668 1.384 . S
C666 H694 0.931 . S
C667 C666 1.384 . S
C667 C670 1.382 1_655 S
C668 C666 1.384 . S
C668 C669 1.421 . S
C668 H695 0.930 . S
C669 C668 1.421 . S
C669 C671 1.362 1_655 S
C669 C672 1.467 1_655 S
C670 C667 1.382 1_455 S
C670 C671 1.387 . S
C670 H696 0.930 . S
C671 C669 1.362 1_455 S
C671 C670 1.387 . S
C671 H697 0.931 . S
C672 C669 1.467 1_455 S
C672 C679 1.399 1_455 S
C672 N710 1.345 . S
C673 C674 1.384 . S
C673 C675 1.384 . S
C673 H698 0.931 . S
C674 C673 1.384 . S
C674 C677 1.382 1_455 S
C675 C673 1.384 . S
C675 C676 1.384 . S
C675 H699 0.930 . S
C676 C675 1.384 . S
C676 C678 1.372 1_455 S
C676 C679 1.498 1_455 S
C677 C674 1.382 1_655 S
C677 C678 1.387 . S
C677 H700 0.930 . S
C678 C676 1.372 1_655 S
C678 C677 1.387 . S
C678 H701 0.931 . S
C679 C672 1.399 1_655 S
C679 C676 1.498 1_655 S
C679 N711 1.338 . S
C680 C681 1.384 . S
C680 C682 1.384 . S
C680 H702 0.931 . S
C681 C680 1.384 . S
C681 C684 1.382 1_455 S
C682 C680 1.384 . S
C682 C683 1.381 . S
C682 H703 0.930 . S
C683 C682 1.381 . S
C683 C685 1.381 1_455 S
C683 C686 1.485 . S
C684 C681 1.382 1_655 S
C684 C685 1.387 . S
C684 H704 0.930 . S
C685 C683 1.381 1_655 S
C685 C684 1.387 . S
C685 H705 0.931 . S
C686 C683 1.485 . S
C686 C693 1.399 . S
C686 N711 1.345 1_455 S
C687 C688 1.384 . S
C687 C689 1.384 . S
C687 H706 0.931 . S
C688 C687 1.384 . S
C688 C691 1.382 1_655 S
C689 C687 1.384 . S
C689 C690 1.383 . S
C689 H707 0.930 . S
C690 C689 1.383 . S
C690 C692 1.377 1_655 S
C690 C693 1.498 1_655 S
C691 C688 1.382 1_455 S
C691 C692 1.387 . S
C691 H708 0.930 . S
C692 C690 1.377 1_455 S
C692 C691 1.387 . S
C692 H709 0.931 . S
C693 C686 1.399 . S
C693 C690 1.498 1_455 S
C693 N710 1.334 . S
H694 C666 0.931 . S
H695 C668 0.930 . S
H696 C670 0.930 . S
H697 C671 0.931 . S
H698 C673 0.931 . S
H699 C675 0.930 . S
H700 C677 0.930 . S
H701 C678 0.931 . S
H702 C680 0.931 . S
H703 C682 0.930 . S
H704 C684 0.930 . S
H705 C685 0.931 . S
H706 C687 0.931 . S
H707 C689 0.930 . S
H708 C691 0.930 . S
H709 C692 0.931 . S
N710 C672 1.345 . S
N710 C693 1.334 . S
N711 C679 1.338 . S
N711 C686 1.345 1_655 S
C712 C713 1.384 . S
C712 C714 1.384 . S
C712 H740 0.931 . S
C713 C712 1.384 . S
C713 C716 1.382 . S
C714 C712 1.384 . S
C714 C715 1.381 . S
C714 H741 0.930 . S
C715 C714 1.381 . S
C715 C717 1.381 . S
C715 C718 1.487 . S
C716 C713 1.382 . S
C716 C717 1.387 . S
C716 H742 0.930 . S
C717 C715 1.381 . S
C717 C716 1.387 . S
C717 H743 0.931 . S
C718 C715 1.487 . S
C718 C725 1.399 . S
C718 N756 1.343 . S
C719 C720 1.384 . S
C719 C721 1.384 . S
C719 H744 0.931 . S
C720 C719 1.384 . S
C720 C723 1.382 . S
C721 C719 1.384 . S
C721 C722 1.381 . S
C721 H745 0.930 . S
C722 C721 1.381 . S
C722 C724 1.381 . S
C722 C725 1.487 . S
C723 C720 1.382 . S
C723 C724 1.387 . S
C723 H746 0.930 . S
C724 C722 1.381 . S
C724 C723 1.387 . S
C724 H747 0.931 . S
C725 C718 1.399 . S
C725 C722 1.487 . S
C725 N757 1.343 . S
C726 C727 1.384 . S
C726 C728 1.384 . S
C726 H748 0.931 . S
C727 C726 1.384 . S
C727 C730 1.382 . S
C728 C726 1.384 . S
C728 C729 1.381 . S
C728 H749 0.930 . S
C729 C728 1.381 . S
C729 C731 1.381 . S
C729 C732 1.487 . S
C730 C727 1.382 . S
C730 C731 1.387 . S
C730 H750 0.930 . S
C731 C729 1.381 . S
C731 C730 1.387 . S
C731 H751 0.931 . S
C732 C729 1.487 . S
C732 C739 1.399 . S
C732 N757 1.343 . S
C733 C734 1.384 . S
C733 C735 1.384 . S
C733 H752 0.931 . S
C734 C733 1.384 . S
C734 C737 1.382 . S
C735 C733 1.384 . S
C735 C736 1.381 . S
C735 H753 0.930 . S
C736 C735 1.381 . S
C736 C738 1.381 . S
C736 C739 1.487 . S
C737 C734 1.382 . S
C737 C738 1.387 . S
C737 H754 0.930 . S
C738 C736 1.381 . S
C738 C737 1.387 . S
C738 H755 0.931 . S
C739 C732 1.399 . S
C739 C736 1.487 . S
C739 N756 1.343 . S
H740 C712 0.931 . S
H741 C714 0.930 . S
H742 C716 0.930 . S
H743 C717 0.931 . S
H744 C719 0.931 . S
H745 C721 0.930 . S
H746 C723 0.930 . S
H747 C724 0.931 . S
H748 C726 0.931 . S
H749 C728 0.930 . S
H750 C730 0.930 . S
H751 C731 0.931 . S
H752 C733 0.931 . S
H753 C735 0.930 . S
H754 C737 0.930 . S
H755 C738 0.931 . S
N756 C718 1.343 . S
N756 C739 1.343 . S
N757 C725 1.343 . S
N757 C732 1.343 . S
C758 C759 1.384 1_545 S
C758 C760 1.384 . S
C758 H786 0.931 . S
C759 C758 1.384 1_565 S
C759 C762 1.382 . S
C760 C758 1.384 . S
C760 C761 1.381 1_545 S
C760 H787 0.930 . S
C761 C760 1.381 1_565 S
C761 C763 1.381 . S
C761 C764 1.487 . S
C762 C759 1.382 . S
C762 C763 1.387 . S
C762 H788 0.930 . S
C763 C761 1.381 . S
C763 C762 1.387 . S
C763 H789 0.931 . S
C764 C761 1.487 . S
C764 C771 1.399 1_565 S
C764 N802 1.343 . S
C765 C766 1.384 1_565 S
C765 C767 1.384 . S
C765 H790 0.931 . S
C766 C765 1.384 1_545 S
C766 C769 1.382 . S
C767 C765 1.384 . S
C767 C768 1.381 1_565 S
C767 H791 0.930 . S
C768 C767 1.381 1_545 S
C768 C770 1.381 . S
C768 C771 1.487 . S
C769 C766 1.382 . S
C769 C770 1.387 . S
C769 H792 0.930 . S
C770 C768 1.381 . S
C770 C769 1.387 . S
C770 H793 0.931 . S
C771 C764 1.399 1_545 S
C771 C768 1.487 . S
C771 N803 1.343 . S
C772 C773 1.384 1_565 S
C772 C774 1.384 . S
C772 H794 0.931 . S
C773 C772 1.384 1_545 S
C773 C776 1.382 . S
C774 C772 1.384 . S
C774 C775 1.381 1_565 S
C774 H795 0.930 . S
C775 C774 1.381 1_545 S
C775 C777 1.381 . S
C775 C778 1.487 . S
C776 C773 1.382 . S
C776 C777 1.387 . S
C776 H796 0.930 . S
C777 C775 1.381 . S
C777 C776 1.387 . S
C777 H797 0.931 . S
C778 C775 1.487 . S
C778 C785 1.399 1_545 S
C778 N803 1.343 . S
C779 C780 1.384 1_545 S
C779 C781 1.384 . S
C779 H798 0.931 . S
C780 C779 1.384 1_565 S
C780 C783 1.382 . S
C781 C779 1.384 . S
C781 C782 1.381 1_545 S
C781 H799 0.930 . S
C782 C781 1.381 1_565 S
C782 C784 1.381 . S
C782 C785 1.487 . S
C783 C780 1.382 . S
C783 C784 1.387 . S
C783 H800 0.930 . S
C784 C782 1.381 . S
C784 C783 1.387 . S
C784 H801 0.931 . S
C785 C778 1.399 1_565 S
C785 C782 1.487 . S
C785 N802 1.343 . S
H786 C758 0.931 . S
H787 C760 0.930 . S
H788 C762 0.930 . S
H789 C763 0.931 . S
H790 C765 0.931 . S
H791 C767 0.930 . S
H792 C769 0.930 . S
H793 C770 0.931 . S
H794 C772 0.931 . S
H795 C774 0.930 . S
H796 C776 0.930 . S
H797 C777 0.931 . S
H798 C779 0.931 . S
H799 C781 0.930 . S
H800 C783 0.930 . S
H801 C784 0.931 . S
N802 C764 1.343 . S
N802 C785 1.343 . S
N803 C771 1.343 . S
N803 C778 1.343 . S
C804 C805 1.384 . S
C804 C806 1.384 . S
C804 H832 0.931 . S
C805 C804 1.384 . S
C805 C808 1.382 1_545 S
C806 C804 1.384 . S
C806 C807 1.384 . S
C806 H833 0.930 . S
C807 C806 1.384 . S
C807 C809 1.375 1_545 S
C807 C810 1.497 1_545 S
C808 C805 1.382 1_565 S
C808 C809 1.387 . S
C808 H834 0.930 . S
C809 C807 1.375 1_565 S
C809 C808 1.387 . S
C809 H835 0.931 . S
C810 C807 1.497 1_565 S
C810 C817 1.399 1_565 S
C810 N848 1.338 . S
C811 C812 1.384 . S
C811 C813 1.384 . S
C811 H836 0.931 . S
C812 C811 1.384 . S
C812 C815 1.382 1_565 S
C813 C811 1.384 . S
C813 C814 1.398 . S
C813 H837 0.930 . S
C814 C813 1.398 . S
C814 C816 1.373 1_565 S
C814 C817 1.473 1_565 S
C815 C812 1.382 1_545 S
C815 C816 1.387 . S
C815 H838 0.930 . S
C816 C814 1.373 1_545 S
C816 C815 1.387 . S
C816 H839 0.931 . S
C817 C810 1.399 1_545 S
C817 C814 1.473 1_545 S
C817 N849 1.350 . S
C818 C819 1.384 . S
C818 C820 1.384 . S
C818 H840 0.931 . S
C819 C818 1.384 . S
C819 C822 1.382 1_565 S
C820 C818 1.384 . S
C820 C821 1.382 . S
C820 H841 0.930 . S
C821 C820 1.382 . S
C821 C823 1.380 1_565 S
C821 C824 1.497 1_565 S
C822 C819 1.382 1_545 S
C822 C823 1.387 . S
C822 H842 0.930 . S
C823 C821 1.380 1_545 S
C823 C822 1.387 . S
C823 H843 0.931 . S
C824 C821 1.497 1_545 S
C824 C831 1.399 1_545 S
C824 N849 1.334 . S
C825 C826 1.384 . S
C825 C827 1.384 . S
C825 H844 0.931 . S
C826 C825 1.384 . S
C826 C829 1.382 1_545 S
C827 C825 1.384 . S
C827 C828 1.407 . S
C827 H845 0.930 . S
C828 C827 1.407 . S
C828 C830 1.368 1_545 S
C828 C831 1.473 1_545 S
C829 C826 1.382 1_565 S
C829 C830 1.387 . S
C829 H846 0.930 . S
C830 C828 1.368 1_565 S
C830 C829 1.387 . S
C830 H847 0.931 . S
C831 C824 1.399 1_565 S
C831 C828 1.473 1_565 S
C831 N848 1.345 . S
H832 C804 0.931 . S
H833 C806 0.930 . S
H834 C808 0.930 . S
H835 C809 0.931 . S
H836 C811 0.931 . S
H837 C813 0.930 . S
H838 C815 0.930 . S
H839 C816 0.931 . S
H840 C818 0.931 . S
H841 C820 0.930 . S
H842 C822 0.930 . S
H843 C823 0.931 . S
H844 C825 0.931 . S
H845 C827 0.930 . S
H846 C829 0.930 . S
H847 C830 0.931 . S
N848 C810 1.338 . S
N848 C831 1.345 . S
N849 C817 1.350 . S
N849 C824 1.334 . S
C850 C851 1.384 . S
C850 C852 1.384 . S
C850 H878 0.931 . S
C851 C850 1.384 . S
C851 C854 1.382 1_655 S
C852 C850 1.384 . S
C852 C853 1.400 . S
C852 H879 0.930 . S
C853 C852 1.400 . S
C853 C855 1.372 1_655 S
C853 C856 1.475 1_655 S
C854 C851 1.382 1_455 S
C854 C855 1.387 . S
C854 H880 0.930 . S
C855 C853 1.372 1_455 S
C855 C854 1.387 . S
C855 H881 0.931 . S
C856 C853 1.475 1_455 S
C856 C863 1.399 1_455 S
C856 N894 1.347 . S
C857 C858 1.384 . S
C857 C859 1.384 . S
C857 H882 0.931 . S
C858 C857 1.384 . S
C858 C861 1.382 1_455 S
C859 C857 1.384 . S
C859 C860 1.382 1_455 S
C859 H883 0.930 . S
C860 C859 1.382 1_655 S
C860 C862 1.380 . S
C860 C863 1.499 . S
C861 C858 1.382 1_655 S
C861 C862 1.387 . S
C861 H884 0.930 . S
C862 C860 1.380 . S
C862 C861 1.387 . S
C862 H885 0.931 . S
C863 C856 1.399 1_655 S
C863 C860 1.499 . S
C863 N895 1.332 . S
C864 C865 1.384 . S
C864 C866 1.384 . S
C864 H886 0.931 . S
C865 C864 1.384 . S
C865 C868 1.382 1_455 S
C866 C864 1.384 . S
C866 C867 1.391 . S
C866 H887 0.930 . S
C867 C866 1.391 . S
C867 C869 1.376 1_455 S
C867 C870 1.475 1_455 S
C868 C865 1.382 1_655 S
C868 C869 1.387 . S
C868 H888 0.930 . S
C869 C867 1.376 1_655 S
C869 C868 1.387 . S
C869 H889 0.931 . S
C870 C867 1.475 1_655 S
C870 C877 1.399 1_655 S
C870 N895 1.352 . S
C871 C872 1.384 . S
C871 C873 1.384 . S
C871 H890 0.931 . S
C872 C871 1.384 . S
C872 C875 1.382 1_655 S
C873 C871 1.384 . S
C873 C874 1.382 . S
C873 H891 0.930 . S
C874 C873 1.382 . S
C874 C876 1.380 1_655 S
C874 C877 1.495 1_655 S
C875 C872 1.382 1_455 S
C875 C876 1.387 . S
C875 H892 0.930 . S
C876 C874 1.380 1_455 S
C876 C875 1.387 . S
C876 H893 0.931 . S
C877 C870 1.399 1_455 S
C877 C874 1.495 1_455 S
C877 N894 1.336 . S
H878 C850 0.931 . S
H879 C852 0.930 . S
H880 C854 0.930 . S
H881 C855 0.931 . S
H882 C857 0.931 . S
H883 C859 0.930 . S
H884 C861 0.930 . S
H885 C862 0.931 . S
H886 C864 0.931 . S
H887 C866 0.930 . S
H888 C868 0.930 . S
H889 C869 0.931 . S
H890 C871 0.931 . S
H891 C873 0.930 . S
H892 C875 0.930 . S
H893 C876 0.931 . S
N894 C856 1.347 . S
N894 C877 1.336 . S
N895 C863 1.332 . S
N895 C870 1.352 . S
C896 C897 1.384 . S
C896 C898 1.384 . S
C896 H924 0.931 . S
C897 C896 1.384 . S
C897 C900 1.382 . S
C898 C896 1.384 . S
C898 C899 1.381 . S
C898 H925 0.930 . S
C899 C898 1.381 . S
C899 C901 1.381 . S
C899 C902 1.487 . S
C900 C897 1.382 . S
C900 C901 1.387 . S
C900 H926 0.930 . S
C901 C899 1.381 . S
C901 C900 1.387 . S
C901 H927 0.931 . S
C902 C899 1.487 . S
C902 C909 1.399 . S
C902 N940 1.343 . S
C903 C904 1.384 . S
C903 C905 1.384 . S
C903 H928 0.931 . S
C904 C903 1.384 . S
C904 C907 1.382 . S
C905 C903 1.384 . S
C905 C906 1.381 . S
C905 H929 0.930 . S
C906 C905 1.381 . S
C906 C908 1.381 . S
C906 C909 1.487 . S
C907 C904 1.382 . S
C907 C908 1.387 . S
C907 H930 0.930 . S
C908 C906 1.381 . S
C908 C907 1.387 . S
C908 H931 0.931 . S
C909 C902 1.399 . S
C909 C906 1.487 . S
C909 N941 1.343 . S
C910 C911 1.384 . S
C910 C912 1.384 . S
C910 H932 0.931 . S
C911 C910 1.384 . S
C911 C914 1.382 . S
C912 C910 1.384 . S
C912 C913 1.381 . S
C912 H933 0.930 . S
C913 C912 1.381 . S
C913 C915 1.381 . S
C913 C916 1.487 . S
C914 C911 1.382 . S
C914 C915 1.387 . S
C914 H934 0.930 . S
C915 C913 1.381 . S
C915 C914 1.387 . S
C915 H935 0.931 . S
C916 C913 1.487 . S
C916 C923 1.399 . S
C916 N941 1.343 . S
C917 C918 1.384 . S
C917 C919 1.384 . S
C917 H936 0.931 . S
C918 C917 1.384 . S
C918 C921 1.382 . S
C919 C917 1.384 . S
C919 C920 1.381 . S
C919 H937 0.930 . S
C920 C919 1.381 . S
C920 C922 1.381 . S
C920 C923 1.487 . S
C921 C918 1.382 . S
C921 C922 1.387 . S
C921 H938 0.930 . S
C922 C920 1.381 . S
C922 C921 1.387 . S
C922 H939 0.931 . S
C923 C916 1.399 . S
C923 C920 1.487 . S
C923 N940 1.343 . S
H924 C896 0.931 . S
H925 C898 0.930 . S
H926 C900 0.930 . S
H927 C901 0.931 . S
H928 C903 0.931 . S
H929 C905 0.930 . S
H930 C907 0.930 . S
H931 C908 0.931 . S
H932 C910 0.931 . S
H933 C912 0.930 . S
H934 C914 0.930 . S
H935 C915 0.931 . S
H936 C917 0.931 . S
H937 C919 0.930 . S
H938 C921 0.930 . S
H939 C922 0.931 . S
N940 C902 1.343 . S
N940 C923 1.343 . S
N941 C909 1.343 . S
N941 C916 1.343 . S
C942 C943 1.384 . S
C942 C944 1.384 . S
C942 H970 0.931 . S
C943 C942 1.384 . S
C943 C946 1.382 . S
C944 C942 1.384 . S
C944 C945 1.381 . S
C944 H971 0.930 . S
C945 C944 1.381 . S
C945 C947 1.381 . S
C945 C948 1.487 . S
C946 C943 1.382 . S
C946 C947 1.387 . S
C946 H972 0.930 . S
C947 C945 1.381 . S
C947 C946 1.387 . S
C947 H973 0.931 . S
C948 C945 1.487 . S
C948 C955 1.399 . S
C948 N986 1.343 . S
C949 C950 1.384 . S
C949 C951 1.384 . S
C949 H974 0.931 . S
C950 C949 1.384 . S
C950 C953 1.382 . S
C951 C949 1.384 . S
C951 C952 1.381 . S
C951 H975 0.930 . S
C952 C951 1.381 . S
C952 C954 1.381 . S
C952 C955 1.487 . S
C953 C950 1.382 . S
C953 C954 1.387 . S
C953 H976 0.930 . S
C954 C952 1.381 . S
C954 C953 1.387 . S
C954 H977 0.931 . S
C955 C948 1.399 . S
C955 C952 1.487 . S
C955 N987 1.343 . S
C956 C957 1.384 . S
C956 C958 1.384 . S
C956 H978 0.931 . S
C957 C956 1.384 . S
C957 C960 1.382 . S
C958 C956 1.384 . S
C958 C959 1.381 . S
C958 H979 0.930 . S
C959 C958 1.381 . S
C959 C961 1.381 . S
C959 C962 1.487 . S
C960 C957 1.382 . S
C960 C961 1.387 . S
C960 H980 0.930 . S
C961 C959 1.381 . S
C961 C960 1.387 . S
C961 H981 0.931 . S
C962 C959 1.487 . S
C962 C969 1.399 . S
C962 N987 1.343 . S
C963 C964 1.384 . S
C963 C965 1.384 . S
C963 H982 0.931 . S
C964 C963 1.384 . S
C964 C967 1.382 . S
C965 C963 1.384 . S
C965 C966 1.381 . S
C965 H983 0.930 . S
C966 C965 1.381 . S
C966 C968 1.381 . S
C966 C969 1.487 . S
C967 C964 1.382 . S
C967 C968 1.387 . S
C967 H984 0.930 . S
C968 C966 1.381 . S
C968 C967 1.387 . S
C968 H985 0.931 . S
C969 C962 1.399 . S
C969 C966 1.487 . S
C969 N986 1.343 . S
H970 C942 0.931 . S
H971 C944 0.930 . S
H972 C946 0.930 . S
H973 C947 0.931 . S
H974 C949 0.931 . S
H975 C951 0.930 . S
H976 C953 0.930 . S
H977 C954 0.931 . S
H978 C956 0.931 . S
H979 C958 0.930 . S
H980 C960 0.930 . S
H981 C961 0.931 . S
H982 C963 0.931 . S
H983 C965 0.930 . S
H984 C967 0.930 . S
H985 C968 0.931 . S
N986 C948 1.343 . S
N986 C969 1.343 . S
N987 C955 1.343 . S
N987 C962 1.343 . S
C988 C989 1.384 . S
C988 C990 1.384 . S
C988 H1016 0.931 . S
C989 C988 1.384 . S
C989 C992 1.382 . S
C990 C988 1.384 . S
C990 C991 1.381 . S
C990 H1017 0.930 . S
C991 C990 1.381 . S
C991 C993 1.381 . S
C991 C994 1.487 . S
C992 C989 1.382 . S
C992 C993 1.387 . S
C992 H1018 0.930 . S
C993 C991 1.381 . S
C993 C992 1.387 . S
C993 H1019 0.931 . S
C994 C991 1.487 . S
C994 C1001 1.399 . S
C994 N1032 1.343 . S
C995 C996 1.384 . S
C995 C997 1.384 . S
C995 H1020 0.931 . S
C996 C995 1.384 . S
C996 C999 1.382 . S
C997 C995 1.384 . S
C997 C998 1.381 . S
C997 H1021 0.930 . S
C998 C997 1.381 . S
C998 C1000 1.381 . S
C998 C1001 1.487 . S
C999 C996 1.382 . S
C999 C1000 1.387 . S
C999 H1022 0.930 . S
C1000 C998 1.381 . S
C1000 C999 1.387 . S
C1000 H1023 0.931 . S
C1001 C994 1.399 . S
C1001 C998 1.487 . S
C1001 N1033 1.343 . S
C1002 C1003 1.384 . S
C1002 C1004 1.384 . S
C1002 H1024 0.931 . S
C1003 C1002 1.384 . S
C1003 C1006 1.382 . S
C1004 C1002 1.384 . S
C1004 C1005 1.381 . S
C1004 H1025 0.930 . S
C1005 C1004 1.381 . S
C1005 C1007 1.381 . S
C1005 C1008 1.487 . S
C1006 C1003 1.382 . S
C1006 C1007 1.387 . S
C1006 H1026 0.930 . S
C1007 C1005 1.381 . S
C1007 C1006 1.387 . S
C1007 H1027 0.931 . S
C1008 C1005 1.487 . S
C1008 C1015 1.399 . S
C1008 N1033 1.343 . S
C1009 C1010 1.384 . S
C1009 C1011 1.384 . S
C1009 H1028 0.931 . S
C1010 C1009 1.384 . S
C1010 C1013 1.382 . S
C1011 C1009 1.384 . S
C1011 C1012 1.381 . S
C1011 H1029 0.930 . S
C1012 C1011 1.381 . S
C1012 C1014 1.381 . S
C1012 C1015 1.487 . S
C1013 C1010 1.382 . S
C1013 C1014 1.387 . S
C1013 H1030 0.930 . S
C1014 C1012 1.381 . S
C1014 C1013 1.387 . S
C1014 H1031 0.931 . S
C1015 C1008 1.399 . S
C1015 C1012 1.487 . S
C1015 N1032 1.343 . S
H1016 C988 0.931 . S
H1017 C990 0.930 . S
H1018 C992 0.930 . S
H1019 C993 0.931 . S
H1020 C995 0.931 . S
H1021 C997 0.930 . S
H1022 C999 0.930 . S
H1023 C1000 0.931 . S
H1024 C1002 0.931 . S
H1025 C1004 0.930 . S
H1026 C1006 0.930 . S
H1027 C1007 0.931 . S
H1028 C1009 0.931 . S
H1029 C1011 0.930 . S
H1030 C1013 0.930 . S
H1031 C1014 0.931 . S
N1032 C994 1.343 . S
N1032 C1015 1.343 . S
N1033 C1001 1.343 . S
N1033 C1008 1.343 . S
C1034 C1035 1.384 . S
C1034 C1036 1.384 . S
C1034 H1062 0.931 . S
C1035 C1034 1.384 . S
C1035 C1038 1.382 . S
C1036 C1034 1.384 . S
C1036 C1037 1.381 . S
C1036 H1063 0.930 . S
C1037 C1036 1.381 . S
C1037 C1039 1.381 . S
C1037 C1040 1.487 . S
C1038 C1035 1.382 . S
C1038 C1039 1.387 . S
C1038 H1064 0.930 . S
C1039 C1037 1.381 . S
C1039 C1038 1.387 . S
C1039 H1065 0.931 . S
C1040 C1037 1.487 . S
C1040 C1047 1.399 . S
C1040 N1078 1.343 . S
C1041 C1042 1.384 . S
C1041 C1043 1.384 . S
C1041 H1066 0.931 . S
C1042 C1041 1.384 . S
C1042 C1045 1.382 . S
C1043 C1041 1.384 . S
C1043 C1044 1.381 . S
C1043 H1067 0.930 . S
C1044 C1043 1.381 . S
C1044 C1046 1.381 . S
C1044 C1047 1.487 . S
C1045 C1042 1.382 . S
C1045 C1046 1.387 . S
C1045 H1068 0.930 . S
C1046 C1044 1.381 . S
C1046 C1045 1.387 . S
C1046 H1069 0.931 . S
C1047 C1040 1.399 . S
C1047 C1044 1.487 . S
C1047 N1079 1.343 . S
C1048 C1049 1.384 . S
C1048 C1050 1.384 . S
C1048 H1070 0.931 . S
C1049 C1048 1.384 . S
C1049 C1052 1.382 . S
C1050 C1048 1.384 . S
C1050 C1051 1.381 . S
C1050 H1071 0.930 . S
C1051 C1050 1.381 . S
C1051 C1053 1.381 . S
C1051 C1054 1.487 . S
C1052 C1049 1.382 . S
C1052 C1053 1.387 . S
C1052 H1072 0.930 . S
C1053 C1051 1.381 . S
C1053 C1052 1.387 . S
C1053 H1073 0.931 . S
C1054 C1051 1.487 . S
C1054 C1061 1.399 . S
C1054 N1079 1.343 . S
C1055 C1056 1.384 . S
C1055 C1057 1.384 . S
C1055 H1074 0.931 . S
C1056 C1055 1.384 . S
C1056 C1059 1.382 . S
C1057 C1055 1.384 . S
C1057 C1058 1.381 . S
C1057 H1075 0.930 . S
C1058 C1057 1.381 . S
C1058 C1060 1.381 . S
C1058 C1061 1.487 . S
C1059 C1056 1.382 . S
C1059 C1060 1.387 . S
C1059 H1076 0.930 . S
C1060 C1058 1.381 . S
C1060 C1059 1.387 . S
C1060 H1077 0.931 . S
C1061 C1054 1.399 . S
C1061 C1058 1.487 . S
C1061 N1078 1.343 . S
H1062 C1034 0.931 . S
H1063 C1036 0.930 . S
H1064 C1038 0.930 . S
H1065 C1039 0.931 . S
H1066 C1041 0.931 . S
H1067 C1043 0.930 . S
H1068 C1045 0.930 . S
H1069 C1046 0.931 . S
H1070 C1048 0.931 . S
H1071 C1050 0.930 . S
H1072 C1052 0.930 . S
H1073 C1053 0.931 . S
H1074 C1055 0.931 . S
H1075 C1057 0.930 . S
H1076 C1059 0.930 . S
H1077 C1060 0.931 . S
N1078 C1040 1.343 . S
N1078 C1061 1.343 . S
N1079 C1047 1.343 . S
N1079 C1054 1.343 . S
C9 C688 1.468 . S
C19 C734 1.818 . S
C766 C33 1.536 . S
C37 C819 1.497 . S
C5 C865 1.475 . S
C23 C904 1.978 . S
C47 C858 1.483 . S
C911 C65 1.963 . S
C812 C75 1.482 . S
C79 C773 1.425 . S
C667 C51 1.522 . S
C61 C713 1.868 . S
C93 C943 2.117 . S
C103 C1010 1.985 . S
C1056 C117 1.992 . S
C121 C267 1.960 . S
C89 C313 1.960 . S
C107 C359 2.055 . S
C131 C306 1.898 . S
C149 C352 2.029 . S
C260 C159 1.919 . S
C1035 C163 2.037 . S
C964 C135 2.150 . S
C989 C145 2.034 . S
C177 C391 2.015 . S
C187 C444 1.974 . S
C201 C490 2.006 . S
C205 C536 2.109 . S
C589 C173 2.000 . S
C635 C191 2.114 . S
C582 C215 2.009 . S
C628 C233 2.086 . S
C243 C543 2.004 . S
C497 C247 1.980 . S
C219 C412 2.103 . S
C451 C229 2.034 . S
C274 C11 1.933 . S
C14 C320 1.976 . S
C366 C28 2.184 . S
C398 C39 2.072 . S
C437 C0 2.017 . S
C483 C25 1.793 . S
C42 C504 2.096 . S
C67 C405 1.893 . S
C70 C458 1.920 . S
C81 C299 1.923 . S
C345 C53 2.080 . S
C56 C253 2.054 . S
C529 C95 1.803 . S
C98 C596 2.012 . S
C112 C642 2.116 . S
C681 C123 1.441 . S
C84 C727 1.946 . S
C109 C759 1.348 . S
C126 C780 1.460 . S
C151 C674 1.401 . S
C720 C154 1.854 . S
C165 C575 1.860 . S
C137 C621 1.988 . S
C550 C140 2.037 . S
C826 C179 1.388 . S
C182 C872 1.386 . S
C196 C897 1.993 . S
C950 C207 1.980 . S
C1003 C168 2.006 . S
C193 C1049 1.885 . S
C210 C1042 2.070 . S
C235 C957 1.942 . S
C996 C238 1.914 . S
C851 C249 1.347 . S
C918 C221 1.884 . S
C224 C805 1.449 . S
