# Generated by pormake.
# Topology ctn, (3,4)-cn, num edge types: 1
# Building blocks:
#     Node 0, Type 0, BuildingBlock: MIDCAF_clean_linker_0, # of connection points: 3
#     Node 1, Type 0, BuildingBlock: MIDCAF_clean_linker_0, # of connection points: 3
#     Node 2, Type 0, BuildingBlock: MIDCAF_clean_linker_0, # of connection points: 3
#     Node 3, Type 0, BuildingBlock: MIDCAF_clean_linker_0, # of connection points: 3
#     Node 4, Type 0, BuildingBlock: MIDCAF_clean_linker_0, # of connection points: 3
#     Node 5, Type 0, BuildingBlock: MIDCAF_clean_linker_0, # of connection points: 3
#     Node 6, Type 0, BuildingBlock: MIDCAF_clean_linker_0, # of connection points: 3
#     Node 7, Type 0, BuildingBlock: MIDCAF_clean_linker_0, # of connection points: 3
#     Node 8, Type 0, BuildingBlock: MIDCAF_clean_linker_0, # of connection points: 3
#     Node 9, Type 0, BuildingBlock: MIDCAF_clean_linker_0, # of connection points: 3
#     Node 10, Type 0, BuildingBlock: MIDCAF_clean_linker_0, # of connection points: 3
#     Node 11, Type 0, BuildingBlock: MIDCAF_clean_linker_0, # of connection points: 3
#     Node 12, Type 0, BuildingBlock: MIDCAF_clean_linker_0, # of connection points: 3
#     Node 13, Type 0, BuildingBlock: MIDCAF_clean_linker_0, # of connection points: 3
#     Node 14, Type 0, BuildingBlock: MIDCAF_clean_linker_0, # of connection points: 3
#     Node 15, Type 0, BuildingBlock: MIDCAF_clean_linker_0, # of connection points: 3
#     Node 16, Type 1, BuildingBlock: KUFVIS_clean_sbu_0, # of connection points: 4
#     Node 17, Type 1, BuildingBlock: KUFVIS_clean_sbu_0, # of connection points: 4
#     Node 18, Type 1, BuildingBlock: KUFVIS_clean_sbu_0, # of connection points: 4
#     Node 19, Type 1, BuildingBlock: KUFVIS_clean_sbu_0, # of connection points: 4
#     Node 20, Type 1, BuildingBlock: KUFVIS_clean_sbu_0, # of connection points: 4
#     Node 21, Type 1, BuildingBlock: KUFVIS_clean_sbu_0, # of connection points: 4
#     Node 22, Type 1, BuildingBlock: KUFVIS_clean_sbu_0, # of connection points: 4
#     Node 23, Type 1, BuildingBlock: KUFVIS_clean_sbu_0, # of connection points: 4
#     Node 24, Type 1, BuildingBlock: KUFVIS_clean_sbu_0, # of connection points: 4
#     Node 25, Type 1, BuildingBlock: KUFVIS_clean_sbu_0, # of connection points: 4
#     Node 26, Type 1, BuildingBlock: KUFVIS_clean_sbu_0, # of connection points: 4
#     Node 27, Type 1, BuildingBlock: KUFVIS_clean_sbu_0, # of connection points: 4
#     Edge 28, Type (0, 1), BuildingBlock: XUDNAN_clean_linker_2, # of connection points: 2
#     Edge 29, Type (0, 1), BuildingBlock: XUDNAN_clean_linker_2, # of connection points: 2
#     Edge 30, Type (0, 1), BuildingBlock: XUDNAN_clean_linker_2, # of connection points: 2
#     Edge 31, Type (0, 1), BuildingBlock: XUDNAN_clean_linker_2, # of connection points: 2
#     Edge 32, Type (0, 1), BuildingBlock: XUDNAN_clean_linker_2, # of connection points: 2
#     Edge 33, Type (0, 1), BuildingBlock: XUDNAN_clean_linker_2, # of connection points: 2
#     Edge 34, Type (0, 1), BuildingBlock: XUDNAN_clean_linker_2, # of connection points: 2
#     Edge 35, Type (0, 1), BuildingBlock: XUDNAN_clean_linker_2, # of connection points: 2
#     Edge 36, Type (0, 1), BuildingBlock: XUDNAN_clean_linker_2, # of connection points: 2
#     Edge 37, Type (0, 1), BuildingBlock: XUDNAN_clean_linker_2, # of connection points: 2
#     Edge 38, Type (0, 1), BuildingBlock: XUDNAN_clean_linker_2, # of connection points: 2
#     Edge 39, Type (0, 1), BuildingBlock: XUDNAN_clean_linker_2, # of connection points: 2
#     Edge 40, Type (0, 1), BuildingBlock: XUDNAN_clean_linker_2, # of connection points: 2
#     Edge 41, Type (0, 1), BuildingBlock: XUDNAN_clean_linker_2, # of connection points: 2
#     Edge 42, Type (0, 1), BuildingBlock: XUDNAN_clean_linker_2, # of connection points: 2
#     Edge 43, Type (0, 1), BuildingBlock: XUDNAN_clean_linker_2, # of connection points: 2
#     Edge 44, Type (0, 1), BuildingBlock: XUDNAN_clean_linker_2, # of connection points: 2
#     Edge 45, Type (0, 1), BuildingBlock: XUDNAN_clean_linker_2, # of connection points: 2
#     Edge 46, Type (0, 1), BuildingBlock: XUDNAN_clean_linker_2, # of connection points: 2
#     Edge 47, Type (0, 1), BuildingBlock: XUDNAN_clean_linker_2, # of connection points: 2
#     Edge 48, Type (0, 1), BuildingBlock: XUDNAN_clean_linker_2, # of connection points: 2
#     Edge 49, Type (0, 1), BuildingBlock: XUDNAN_clean_linker_2, # of connection points: 2
#     Edge 50, Type (0, 1), BuildingBlock: XUDNAN_clean_linker_2, # of connection points: 2
#     Edge 51, Type (0, 1), BuildingBlock: XUDNAN_clean_linker_2, # of connection points: 2
#     Edge 52, Type (0, 1), BuildingBlock: XUDNAN_clean_linker_2, # of connection points: 2
#     Edge 53, Type (0, 1), BuildingBlock: XUDNAN_clean_linker_2, # of connection points: 2
#     Edge 54, Type (0, 1), BuildingBlock: XUDNAN_clean_linker_2, # of connection points: 2
#     Edge 55, Type (0, 1), BuildingBlock: XUDNAN_clean_linker_2, # of connection points: 2
#     Edge 56, Type (0, 1), BuildingBlock: XUDNAN_clean_linker_2, # of connection points: 2
#     Edge 57, Type (0, 1), BuildingBlock: XUDNAN_clean_linker_2, # of connection points: 2
#     Edge 58, Type (0, 1), BuildingBlock: XUDNAN_clean_linker_2, # of connection points: 2
#     Edge 59, Type (0, 1), BuildingBlock: XUDNAN_clean_linker_2, # of connection points: 2
#     Edge 60, Type (0, 1), BuildingBlock: XUDNAN_clean_linker_2, # of connection points: 2
#     Edge 61, Type (0, 1), BuildingBlock: XUDNAN_clean_linker_2, # of connection points: 2
#     Edge 62, Type (0, 1), BuildingBlock: XUDNAN_clean_linker_2, # of connection points: 2
#     Edge 63, Type (0, 1), BuildingBlock: XUDNAN_clean_linker_2, # of connection points: 2
#     Edge 64, Type (0, 1), BuildingBlock: XUDNAN_clean_linker_2, # of connection points: 2
#     Edge 65, Type (0, 1), BuildingBlock: XUDNAN_clean_linker_2, # of connection points: 2
#     Edge 66, Type (0, 1), BuildingBlock: XUDNAN_clean_linker_2, # of connection points: 2
#     Edge 67, Type (0, 1), BuildingBlock: XUDNAN_clean_linker_2, # of connection points: 2
#     Edge 68, Type (0, 1), BuildingBlock: XUDNAN_clean_linker_2, # of connection points: 2
#     Edge 69, Type (0, 1), BuildingBlock: XUDNAN_clean_linker_2, # of connection points: 2
#     Edge 70, Type (0, 1), BuildingBlock: XUDNAN_clean_linker_2, # of connection points: 2
#     Edge 71, Type (0, 1), BuildingBlock: XUDNAN_clean_linker_2, # of connection points: 2
#     Edge 72, Type (0, 1), BuildingBlock: XUDNAN_clean_linker_2, # of connection points: 2
#     Edge 73, Type (0, 1), BuildingBlock: XUDNAN_clean_linker_2, # of connection points: 2
#     Edge 74, Type (0, 1), BuildingBlock: XUDNAN_clean_linker_2, # of connection points: 2
#     Edge 75, Type (0, 1), BuildingBlock: XUDNAN_clean_linker_2, # of connection points: 2
# Relax obj value: 0.012
# Max RMSD: 0.063
# Mean RMSD: 0.029
data_MOF--net-ctn--node1-KUFVIS_clean_sbu_0--node2-MIDCAF_clean_linker_0--edge1-XUDNAN_clean_linker_2
_symmetry_space_group_name_H-M    P1
_symmetry_Int_Tables_number       1
_symmetry_cell_setting            triclinic
loop_
_symmetry_equiv_pos_as_xyz
'x, y, z'
_cell_length_a     66.428514
_cell_length_b     66.234658
_cell_length_c     66.511769
_cell_angle_alpha  90.997125
_cell_angle_beta   90.247482
_cell_angle_gamma 91.630872
loop_
_atom_site_label
_atom_site_type_symbol
_atom_site_fract_x
_atom_site_fract_y
_atom_site_fract_z
_atom_type_partial_charge
C0 C 0.98937 0.05708 0.09971 0.0
C1 C 0.99333 0.0439 0.11553 0.0
C2 C 0.01005 0.03141 0.11395 0.0
C3 C 0.02268 0.03237 0.09719 0.0
H4 H 0.06696 1.00133 0.06655 0.0
H5 H 0.09434 0.978 0.06302 0.0
H6 H 0.1223 0.01661 0.01882 0.0
H7 H 0.09456 0.03973 0.02189 0.0
H8 H 0.07487 0.08466 0.01564 0.0
H9 H 0.07228 0.11217 0.99222 0.0
H10 H 0.00758 0.11095 0.99969 0.0
H11 H 0.01048 0.08421 0.02419 0.0
H12 H 0.99859 0.0686 0.07126 0.0
H13 H 0.97642 0.06664 0.1002 0.0
H14 H 0.0137 0.02123 0.12591 0.0
H15 H 0.03559 0.02275 0.0967 0.0
N16 N 0.04839 0.03476 0.06215 0.0
N17 N 0.05998 0.05233 0.03398 0.0
N18 N 0.03121 0.06298 0.05105 0.0
C19 C 0.06187 0.03686 0.04693 0.0
C20 C 0.04466 0.06538 0.03588 0.0
C21 C 0.03305 0.04778 0.06437 0.0
C22 C 0.07854 0.02252 0.0446 0.0
C23 C 0.07891 0.00489 0.05605 0.0
C24 C 0.0947 0.99152 0.05409 0.0
C25 C 0.11066 0.99546 0.04074 0.0
C26 C 0.11018 0.01295 0.02908 0.0
C27 C 0.09429 0.0263 0.03096 0.0
C28 C 0.04288 0.08221 0.02168 0.0
C29 C 0.0601 0.09031 0.0123 0.0
C30 C 0.05856 0.10604 0.99872 0.0
C31 C 0.03967 0.11378 0.99373 0.0
C32 C 0.02243 0.10569 1.00328 0.0
C33 C 0.02405 0.09023 0.01725 0.0
C34 C 0.01898 0.04591 0.08161 0.0
C35 C 1.00205 0.05812 0.08301 0.0
C36 C 0.26425 0.64624 0.21981 0.0
C37 C 0.25607 0.63677 0.20235 0.0
C38 C 0.2637 0.64272 0.18353 0.0
C39 C 0.27874 0.65786 0.18223 0.0
H40 H 0.29124 0.71343 0.15076 0.0
H41 H 0.28852 0.74086 0.12696 0.0
H42 H 0.34068 0.77096 0.15395 0.0
H43 H 0.34338 0.7438 0.17786 0.0
H44 H 0.36638 0.72337 0.21327 0.0
H45 H 0.39306 0.72458 0.23853 0.0
H46 H 0.36158 0.67802 0.27172 0.0
H47 H 0.33518 0.67641 0.24629 0.0
H48 H 0.28562 0.66791 0.23223 0.0
H49 H 0.25857 0.64262 0.23458 0.0
H50 H 0.25827 0.63557 0.16972 0.0
H51 H 0.28424 0.66211 0.16754 0.0
N52 N 0.30334 0.6961 0.18316 0.0
N53 N 0.33251 0.71194 0.19674 0.0
N54 N 0.31765 0.68413 0.21285 0.0
C55 C 0.31795 0.71088 0.18228 0.0
C56 C 0.33254 0.69858 0.21202 0.0
C57 C 0.30311 0.68273 0.19844 0.0
C58 C 0.31739 0.72645 0.16645 0.0
C59 C 0.30227 0.72578 0.15153 0.0
C60 C 0.30077 0.74144 0.13777 0.0
C61 C 0.31428 0.75816 0.13868 0.0
C62 C 0.32985 0.75843 0.15306 0.0
C63 C 0.33142 0.74277 0.16673 0.0
C64 C 0.3486 0.69973 0.22764 0.0
C65 C 0.36511 0.71338 0.22595 0.0
C66 C 0.38039 0.71416 0.2405 0.0
C67 C 0.37953 0.70135 0.25714 0.0
C68 C 0.36294 0.68785 0.25893 0.0
C69 C 0.3477 0.68702 0.24436 0.0
C70 C 0.28696 0.667 0.19971 0.0
C71 C 0.27968 0.66094 0.2185 0.0
C72 C 0.00792 0.41226 1.00174 0.0
C73 C 0.99326 0.39797 0.99468 0.0
C74 C 0.9731 0.40051 1.00056 0.0
C75 C 0.9677 0.41707 0.01247 0.0
H76 H 0.92274 0.46324 0.01287 0.0
H77 H 0.89409 0.48278 1.00251 0.0
H78 H 0.91784 0.53426 0.03678 0.0
H79 H 0.94584 0.51441 0.04786 0.0
H80 H 0.96867 0.49408 0.09069 0.0
H81 H 0.98683 0.50491 0.12081 0.0
H82 H 0.03949 0.47416 0.0998 0.0
H83 H 0.02083 0.4625 0.06982 0.0
H84 H 0.01414 0.43926 0.0193 0.0
H85 H 0.02352 0.41129 0.99735 0.0
H86 H 0.96134 0.38968 0.99615 0.0
H87 H 0.95203 0.41871 0.01649 0.0
N88 N 0.95972 0.45897 0.02659 0.0
N89 N 0.96531 0.48136 0.05382 0.0
N90 N 0.98763 0.45509 0.04792 0.0
C91 C 0.95419 0.47544 0.03746 0.0
C92 C 0.98193 0.47122 0.05927 0.0
C93 C 0.97646 0.44883 0.03165 0.0
C94 C 0.93657 0.48721 0.03126 0.0
C95 C 0.92178 0.47871 0.01824 0.0
C96 C 0.90539 0.49001 0.01218 0.0
C97 C 0.90352 0.51021 0.01873 0.0
C98 C 0.91843 0.51867 0.0317 0.0
C99 C 0.93462 0.50729 0.038 0.0
C100 C 0.99333 0.47757 0.07769 0.0
C101 C 0.98413 0.48961 0.09241 0.0
C102 C 0.99464 0.49593 0.10972 0.0
C103 C 0.01481 0.49071 0.11271 0.0
C104 C 0.02395 0.47836 0.09814 0.0
C105 C 0.01329 0.47178 0.08086 0.0
C106 C 0.98238 0.43115 0.01945 0.0
C107 C 1.00257 0.42846 0.01424 0.0
C108 C 0.74195 0.76704 0.15275 0.0
C109 C 0.7277 0.75198 0.14692 0.0
C110 C 0.70824 0.75244 0.15511 0.0
C111 C 0.70319 0.76764 0.16898 0.0
H112 H 0.66926 0.77911 0.2231 0.0
H113 H 0.6403 0.77624 0.24546 0.0
H114 H 0.64342 0.84065 0.25655 0.0
H115 H 0.67242 0.84363 0.23428 0.0
H116 H 0.71611 0.86612 0.22627 0.0
H117 H 0.73864 0.89592 0.22766 0.0
H118 H 0.7766 0.86866 0.1828 0.0
H119 H 0.7541 0.83923 0.18107 0.0
H120 H 0.74826 0.79371 0.17039 0.0
H121 H 0.75699 0.76721 0.14653 0.0
H122 H 0.69699 0.74095 0.15093 0.0
H123 H 0.68808 0.76762 0.17502 0.0
N124 N 0.69566 0.79798 0.20069 0.0
N125 N 0.70317 0.8303 0.2144 0.0
N126 N 0.72412 0.8164 0.1899 0.0
C127 C 0.69106 0.81337 0.21358 0.0
C128 C 0.71976 0.83191 0.20259 0.0
C129 C 0.7122 0.79944 0.18878 0.0
C130 C 0.67321 0.81161 0.22687 0.0
C131 C 0.66377 0.79269 0.23024 0.0
C132 C 0.64726 0.79101 0.24315 0.0
C133 C 0.63963 0.80822 0.25276 0.0
C134 C 0.6489 0.82715 0.24924 0.0
C135 C 0.66558 0.82882 0.23655 0.0
C136 C 0.73321 0.85022 0.20354 0.0
C137 C 0.72922 0.86651 0.21664 0.0
C138 C 0.74218 0.88357 0.21752 0.0
C139 C 0.75937 0.88473 0.20527 0.0
C140 C 0.76331 0.86845 0.19218 0.0
C141 C 0.75042 0.85146 0.19131 0.0
C142 C 0.71743 0.78283 0.17465 0.0
C143 C 0.73686 0.78231 0.16636 0.0
C144 C 0.03947 0.9154 0.51945 0.0
C145 C 0.01953 0.90766 0.52061 0.0
C146 C 0.00427 0.91802 0.51071 0.0
C147 C 0.00883 0.93518 0.49952 0.0
H148 H 0.00819 0.95764 0.43106 0.0
H149 H 0.98844 0.96666 0.40189 0.0
H150 H 0.98838 0.02874 0.42359 0.0
H151 H 0.00981 0.01973 0.45159 0.0
H152 H 0.06458 0.02462 0.46013 0.0
H153 H 0.09616 0.04372 0.46251 0.0
H154 H 0.11802 1.0023 0.50638 0.0
H155 H 0.08607 0.98287 0.50413 0.0
H156 H 0.0595 0.93827 0.50772 0.0
H157 H 0.0517 0.90778 0.52664 0.0
H158 H 0.98866 0.91297 0.51165 0.0
H159 H 0.99663 0.94263 0.49205 0.0
N160 N 0.02044 0.96599 0.47106 0.0
N161 N 0.04075 0.99446 0.46407 0.0
N162 N 0.05023 0.97256 0.48958 0.0
C163 C 0.02407 0.98278 0.46011 0.0
C164 C 0.05401 0.98945 0.47865 0.0
C165 C 0.03332 0.96088 0.48599 0.0
C166 C 0.01051 0.988 0.44348 0.0
C167 C 0.00385 0.97318 0.4295 0.0
C168 C 0.99234 0.97843 0.41281 0.0
C169 C 0.98661 0.99856 0.41003 0.0
C170 C 0.99283 0.01321 0.42461 0.0
C171 C 0.00494 0.00805 0.44089 0.0
C172 C 0.07277 1.00195 0.48173 0.0
C173 C 0.07597 0.0195 0.47041 0.0
C174 C 0.09414 0.03049 0.47172 0.0
C175 C 0.10967 0.02434 0.4844 0.0
C176 C 0.10629 0.00738 0.49647 0.0
C177 C 0.08801 0.99623 0.49511 0.0
C178 C 0.02873 0.94278 0.4982 0.0
C179 C 0.04399 0.93285 0.50849 0.0
C180 C 0.22235 0.73636 0.88349 0.0
C181 C 0.21171 0.75433 0.88445 0.0
C182 C 0.19589 0.75709 0.87078 0.0
C183 C 0.19167 0.74261 0.85556 0.0
H184 H 0.15098 0.7215 0.80743 0.0
H185 H 0.12779 0.72908 0.78008 0.0
H186 H 0.16599 0.69837 0.73788 0.0
H187 H 0.18907 0.69048 0.76518 0.0
H188 H 0.21761 0.65448 0.78759 0.0
H189 H 0.24496 0.63064 0.78339 0.0
H190 H 0.27247 0.65346 0.83842 0.0
H191 H 0.24551 0.67701 0.84277 0.0
H192 H 0.22709 0.70852 0.86798 0.0
H193 H 0.23448 0.73379 0.894 0.0
H194 H 0.18752 0.77089 0.87122 0.0
H195 H 0.17999 0.74553 0.84467 0.0
N196 N 0.1871 0.71374 0.82167 0.0
N197 N 0.19998 0.68653 0.80294 0.0
N198 N 0.21413 0.69577 0.83416 0.0
C199 C 0.18647 0.70156 0.80492 0.0
C200 C 0.21381 0.68347 0.81764 0.0
C201 C 0.20094 0.71089 0.83639 0.0
C202 C 0.17191 0.7054 0.7885 0.0
C203 C 0.1544 0.71626 0.79234 0.0
C204 C 0.14106 0.72052 0.77672 0.0
C205 C 0.14514 0.71436 0.75687 0.0
C206 C 0.16256 0.70341 0.75303 0.0
C207 C 0.1757 0.6988 0.76869 0.0
C208 C 0.22937 0.66787 0.81541 0.0
C209 C 0.2294 0.65429 0.79888 0.0
C210 C 0.24499 0.64056 0.79651 0.0
C211 C 0.26091 0.64034 0.8105 0.0
C212 C 0.26053 0.65346 0.82727 0.0
C213 C 0.24497 0.66696 0.82975 0.0
C214 C 0.20314 0.72508 0.85391 0.0
C215 C 0.21808 0.72189 0.8685 0.0
C216 C 0.99972 0.60043 0.52165 0.0
C217 C 0.98406 0.61438 0.5217 0.0
C218 C 0.96771 0.61081 0.50838 0.0
C219 C 0.96642 0.5933 0.4964 0.0
H220 H 0.93586 0.53212 0.51291 0.0
H221 H 0.90739 0.51005 0.52146 0.0
H222 H 0.9182 0.47313 0.46869 0.0
H223 H 0.94671 0.4953 0.45994 0.0
H224 H 1.00017 0.4999 0.44718 0.0
H225 H 0.02099 0.49148 0.41839 0.0
H226 H 0.02674 0.55495 0.40432 0.0
H227 H 0.0072 0.56324 0.43398 0.0
H228 H 0.01059 0.57235 0.50981 0.0
H229 H 0.01246 0.60239 0.53175 0.0
H230 H 0.95566 0.62141 0.50732 0.0
H231 H 0.95331 0.59062 0.48685 0.0
N232 N 0.96369 0.5472 0.49043 0.0
N233 N 0.97353 0.52447 0.46517 0.0
N234 N 0.99181 0.55506 0.47046 0.0
C235 C 0.96078 0.52934 0.48034 0.0
C236 C 0.98901 0.53728 0.4601 0.0
C237 C 0.9792 0.55999 0.48568 0.0
C238 C 0.94365 0.51555 0.48569 0.0
C239 C 0.93225 0.51931 0.50308 0.0
C240 C 0.91596 0.50657 0.50809 0.0
C241 C 0.91054 0.48982 0.49578 0.0
C242 C 0.92189 0.48602 0.47839 0.0
C243 C 0.93832 0.49868 0.47345 0.0
C244 C 1.00211 0.53223 0.44287 0.0
C245 C 0.00607 0.51202 0.43798 0.0
C246 C 0.01789 0.50721 0.4213 0.0
C247 C 0.02562 0.52246 0.4087 0.0
C248 C 0.02157 0.54271 0.41373 0.0
C249 C 0.0102 0.54753 0.43073 0.0
C250 C 0.98177 0.57927 0.49683 0.0
C251 C 0.99866 0.58314 0.50917 0.0
C252 C 0.87526 0.79534 0.77 0.0
C253 C 0.88359 0.81293 0.76132 0.0
C254 C 0.87546 0.83168 0.76682 0.0
C255 C 0.85946 0.83273 0.78044 0.0
H256 H 0.803 0.86267 0.7898 0.0
H257 H 0.77512 0.88551 0.78514 0.0
H258 H 0.74135 0.8543 0.831 0.0
H259 H 0.7689 0.83149 0.83565 0.0
H260 H 0.78279 0.78671 0.84845 0.0
H261 H 0.77955 0.76057 0.87351 0.0
H262 H 0.84438 0.75584 0.87508 0.0
H263 H 0.84737 0.7811 0.84904 0.0
H264 H 0.85367 0.78258 0.79025 0.0
H265 H 0.88049 0.78053 0.76582 0.0
H266 H 0.88156 0.84563 0.76082 0.0
H267 H 0.85354 0.84735 0.78434 0.0
N268 N 0.82046 0.83022 0.80235 0.0
N269 N 0.80292 0.81572 0.82932 0.0
N270 N 0.833 0.80173 0.81825 0.0
C271 C 0.80444 0.83017 0.81507 0.0
C272 C 0.81719 0.80158 0.83112 0.0
C273 C 0.83473 0.81595 0.80382 0.0
C274 C 0.78821 0.84505 0.81297 0.0
C275 C 0.78969 0.86074 0.79899 0.0
C276 C 0.77377 0.87393 0.79639 0.0
C277 C 0.75598 0.87161 0.8076 0.0
C278 C 0.75475 0.85631 0.82194 0.0
C279 C 0.77064 0.84326 0.82464 0.0
C280 C 0.81533 0.78595 0.84673 0.0
C281 C 0.79634 0.78006 0.85416 0.0
C282 C 0.79453 0.76512 0.8687 0.0
C283 C 0.8117 0.75599 0.87657 0.0
C284 C 0.83073 0.76212 0.8692 0.0
C285 C 0.8325 0.77674 0.85433 0.0
C286 C 0.85152 0.81513 0.78926 0.0
C287 C 0.85967 0.79647 0.78395 0.0
C288 C 0.37304 0.3048 0.27224 0.0
C289 C 0.36976 0.30796 0.25169 0.0
C290 C 0.35036 0.31248 0.24499 0.0
C291 C 0.33447 0.31389 0.25866 0.0
H292 H 0.28154 0.34713 0.27122 0.0
H293 H 0.25633 0.37315 0.26866 0.0
H294 H 0.23471 0.35864 0.32791 0.0
H295 H 0.25976 0.3327 0.3306 0.0
H296 H 0.27264 0.28353 0.3433 0.0
H297 H 0.27227 0.26006 0.37094 0.0
H298 H 0.33742 0.26062 0.37095 0.0
H299 H 0.33761 0.28318 0.34242 0.0
H300 H 0.35999 0.30291 0.30156 0.0
H301 H 0.38787 0.30118 0.2777 0.0
H302 H 0.34753 0.31495 0.22918 0.0
H303 H 0.31963 0.31733 0.2531 0.0
N304 N 0.3049 0.32293 0.29048 0.0
N305 N 0.28958 0.31112 0.31992 0.0
N306 N 0.32083 0.2988 0.31001 0.0
C307 C 0.28935 0.32338 0.30372 0.0
C308 C 0.30523 0.29877 0.32314 0.0
C309 C 0.3207 0.3107 0.29357 0.0
C310 C 0.27287 0.33789 0.30121 0.0
C311 C 0.27129 0.34933 0.28364 0.0
C312 C 0.25677 0.36417 0.28209 0.0
C313 C 0.24366 0.36803 0.29814 0.0
C314 C 0.24477 0.35615 0.31539 0.0
C315 C 0.25912 0.34121 0.31687 0.0
C316 C 0.30514 0.28519 0.34063 0.0
C317 C 0.28689 0.27868 0.34926 0.0
C318 C 0.28671 0.26528 0.36527 0.0
C319 C 0.30483 0.25835 0.37342 0.0
C320 C 0.32312 0.26521 0.36494 0.0
C321 C 0.32326 0.27829 0.34863 0.0
C322 C 0.33763 0.31025 0.27919 0.0
C323 C 0.35708 0.30569 0.28583 0.0
C324 C 0.50916 0.91808 0.4934 0.0
C325 C 0.49406 0.90373 0.48757 0.0
C326 C 0.47401 0.90743 0.49318 0.0
C327 C 0.46927 0.92486 0.50417 0.0
H328 H 0.42652 0.97227 0.50729 0.0
H329 H 0.39787 0.99218 0.49819 0.0
H330 H 0.42147 0.04198 0.53487 0.0
H331 H 0.4499 0.0217 0.54457 0.0
H332 H 0.48129 0.00464 0.58234 0.0
H333 H 0.50117 0.00859 0.6134 0.0
H334 H 0.54377 0.9662 0.59018 0.0
H335 H 0.52421 0.96214 0.55946 0.0
H336 H 0.51648 0.94572 0.5094 0.0
H337 H 0.52468 0.91633 0.489 0.0
H338 H 0.46191 0.89671 0.48953 0.0
H339 H 0.45375 0.92717 0.50838 0.0
N340 N 0.46294 0.96705 0.51957 0.0
N341 N 0.47109 0.98882 0.5469 0.0
N342 N 0.49213 0.96211 0.53851 0.0
C343 C 0.45861 0.98342 0.53126 0.0
C344 C 0.48787 0.97812 0.55066 0.0
C345 C 0.47975 0.95646 0.52304 0.0
C346 C 0.44064 0.99539 0.5266 0.0
C347 C 0.42562 0.98744 0.5135 0.0
C348 C 0.4092 0.99895 0.50815 0.0
C349 C 0.40739 0.01884 0.51556 0.0
C350 C 0.42221 0.02667 0.52899 0.0
C351 C 0.43859 0.01505 0.53451 0.0
C352 C 0.50092 0.9828 0.56847 0.0
C353 C 0.49505 0.99638 0.58375 0.0
C354 C 0.50644 0.99871 0.60152 0.0
C355 C 0.52382 0.98744 0.60433 0.0
C356 C 0.53021 0.97477 0.58862 0.0
C357 C 0.51896 0.97249 0.57095 0.0
C358 C 0.4845 0.9387 0.51038 0.0
C359 C 0.50447 0.93514 0.50494 0.0
C360 C 0.23563 0.27523 0.64177 0.0
C361 C 0.22136 0.26034 0.6355 0.0
C362 C 0.20171 0.26102 0.64313 0.0
C363 C 0.1966 0.27592 0.65725 0.0
H364 H 0.14999 0.29509 0.69721 0.0
H365 H 0.12046 0.29013 0.71872 0.0
H366 H 0.15061 0.32395 0.76661 0.0
H367 H 0.17995 0.32923 0.74516 0.0
H368 H 0.21232 0.36186 0.73056 0.0
H369 H 0.23638 0.38845 0.74051 0.0
H370 H 0.27399 0.3733 0.69002 0.0
H371 H 0.24976 0.34646 0.67979 0.0
H372 H 0.24198 0.30128 0.6604 0.0
H373 H 0.25084 0.27522 0.63596 0.0
H374 H 0.19043 0.24968 0.63863 0.0
H375 H 0.18143 0.27575 0.66313 0.0
N376 N 0.18914 0.30295 0.69109 0.0
N377 N 0.19814 0.33165 0.71056 0.0
N378 N 0.21888 0.32151 0.68407 0.0
C379 C 0.18515 0.31591 0.70654 0.0
C380 C 0.21495 0.3347 0.69935 0.0
C381 C 0.20604 0.30559 0.67983 0.0
C382 C 0.16727 0.31261 0.71944 0.0
C383 C 0.15031 0.30145 0.71232 0.0
C384 C 0.13341 0.29868 0.72457 0.0
C385 C 0.13332 0.30666 0.74429 0.0
C386 C 0.15036 0.31756 0.7515 0.0
C387 C 0.16708 0.32067 0.73916 0.0
C388 C 0.22915 0.35178 0.70446 0.0
C389 C 0.2256 0.36417 0.7214 0.0
C390 C 0.23942 0.37943 0.72717 0.0
C391 C 0.25713 0.38282 0.71614 0.0
C392 C 0.2604 0.37105 0.69875 0.0
C393 C 0.24658 0.35561 0.69299 0.0
C394 C 0.211 0.29059 0.66387 0.0
C395 C 0.23049 0.29025 0.6557 0.0
C396 C 0.78218 0.12461 0.71673 0.0
C397 C 0.76313 0.12468 0.70758 0.0
C398 C 0.75945 0.13878 0.69257 0.0
C399 C 0.77424 0.15349 0.6878 0.0
H400 H 0.78829 0.20483 0.65162 0.0
H401 H 0.78279 0.2329 0.62889 0.0
H402 H 0.8337 0.26558 0.65539 0.0
H403 H 0.83916 0.23799 0.67803 0.0
H404 H 0.84687 0.22357 0.72978 0.0
H405 H 0.87161 0.22677 0.75678 0.0
H406 H 0.88769 0.16453 0.74633 0.0
H407 H 0.86156 0.16111 0.72068 0.0
H408 H 0.81119 0.13884 0.71982 0.0
H409 H 0.78541 0.11376 0.72823 0.0
H410 H 0.74481 0.13913 0.68537 0.0
H411 H 0.77066 0.16481 0.67688 0.0
N412 N 0.80451 0.18619 0.68202 0.0
N413 N 0.83276 0.20445 0.69478 0.0
N414 N 0.8235 0.17327 0.70847 0.0
C415 C 0.81723 0.20271 0.6814 0.0
C416 C 0.83605 0.18973 0.7082 0.0
C417 C 0.8076 0.17137 0.69558 0.0
C418 C 0.81406 0.21915 0.66685 0.0
C419 C 0.79835 0.21797 0.65255 0.0
C420 C 0.79526 0.23398 0.63943 0.0
C421 C 0.80771 0.2515 0.64048 0.0
C422 C 0.82365 0.25242 0.65442 0.0
C423 C 0.8268 0.23649 0.66739 0.0
C424 C 0.85233 0.19209 0.72326 0.0
C425 C 0.8558 0.21065 0.73332 0.0
C426 C 0.87015 0.21247 0.74875 0.0
C427 C 0.88184 0.19591 0.75405 0.0
C428 C 0.87871 0.17752 0.74331 0.0
C429 C 0.86388 0.17555 0.72838 0.0
C430 C 0.79294 0.15418 0.69791 0.0
C431 C 0.79692 0.13908 0.71189 0.0
C432 C 0.49072 0.54683 0.59536 0.0
C433 C 0.49488 0.53277 0.61033 0.0
C434 C 0.51124 0.52001 0.60758 0.0
C435 C 0.52348 0.52171 0.59057 0.0
H436 H 0.57156 0.49638 0.5624 0.0
H437 H 0.60121 0.47587 0.55968 0.0
H438 H 0.62237 0.51161 0.50994 0.0
H439 H 0.59246 0.532 0.51233 0.0
H440 H 0.56395 0.56524 0.49508 0.0
H441 H 0.56104 0.59423 0.47349 0.0
H442 H 0.51529 0.61818 0.51245 0.0
H443 H 0.51778 0.58884 0.53384 0.0
H444 H 0.49937 0.55977 0.56738 0.0
H445 H 0.478 0.55662 0.59679 0.0
H446 H 0.51497 0.50913 0.61887 0.0
H447 H 0.53619 0.51191 0.58918 0.0
N448 N 0.54904 0.52647 0.55564 0.0
N449 N 0.55921 0.54471 0.52737 0.0
N450 N 0.5308 0.55438 0.54556 0.0
C451 C 0.56203 0.52921 0.54012 0.0
C452 C 0.54363 0.55735 0.52995 0.0
C453 C 0.53334 0.53893 0.55845 0.0
C454 C 0.57961 0.516 0.5377 0.0
C455 C 0.58243 0.49987 0.55079 0.0
C456 C 0.59953 0.48814 0.54931 0.0
C457 C 0.61429 0.49223 0.53473 0.0
C458 C 0.61124 0.50797 0.52125 0.0
C459 C 0.5941 0.51973 0.52272 0.0
C460 C 0.54119 0.57469 0.51633 0.0
C461 C 0.5532 0.57662 0.49907 0.0
C462 C 0.55161 0.59335 0.48671 0.0
C463 C 0.53807 0.60869 0.49131 0.0
C464 C 0.52575 0.60658 0.50833 0.0
C465 C 0.52727 0.58977 0.52067 0.0
C466 C 0.51967 0.53623 0.57591 0.0
C467 C 0.50295 0.54856 0.57841 0.0
C468 C 0.55093 0.41152 0.02352 0.0
C469 C 0.53161 0.40253 0.02489 0.0
C470 C 0.51663 0.40826 0.01127 0.0
C471 C 0.52069 0.42354 0.9973 0.0
H472 H 0.50318 0.45127 0.94095 0.0
H473 H 0.48151 0.4612 0.9132 0.0
H474 H 0.51631 0.51688 0.90784 0.0
H475 H 0.53773 0.50723 0.93548 0.0
H476 H 0.58137 0.51099 0.95556 0.0
H477 H 0.60971 0.53345 0.96528 0.0
H478 H 0.6168 0.50065 0.02025 0.0
H479 H 0.58859 0.47822 0.0107 0.0
H480 H 0.57 0.43342 0.00951 0.0
H481 H 0.56294 0.40709 0.03345 0.0
H482 H 0.5016 0.40155 0.01197 0.0
H483 H 0.50869 0.4282 0.9875 0.0
N484 N 0.53157 0.45591 0.96849 0.0
N485 N 0.55238 0.48431 0.96174 0.0
N486 N 0.56055 0.46297 0.98796 0.0
C487 C 0.53572 0.4726 0.9573 0.0
C488 C 0.56486 0.47961 0.97706 0.0
C489 C 0.54407 0.45098 0.98384 0.0
C490 C 0.52226 0.4784 0.94053 0.0
C491 C 0.50618 0.46565 0.9339 0.0
C492 C 0.49381 0.4713 0.91792 0.0
C493 C 0.49714 0.48987 0.90834 0.0
C494 C 0.51313 0.50261 0.91505 0.0
C495 C 0.52553 0.49695 0.93087 0.0
C496 C 0.58259 0.49282 0.98237 0.0
C497 C 0.58901 0.50849 0.96969 0.0
C498 C 0.60532 0.5213 0.97518 0.0
C499 C 0.6154 0.51884 0.99356 0.0
C500 C 0.60918 0.50303 0.00609 0.0
C501 C 0.59304 0.49012 1.00054 0.0
C502 C 0.53981 0.43326 0.99675 0.0
C503 C 0.55497 0.42664 0.0097 0.0
C504 C 0.71381 0.2437 0.38017 0.0
C505 C 0.70172 0.26075 0.38181 0.0
C506 C 0.68828 0.26466 0.36603 0.0
C507 C 0.68669 0.25171 0.34927 0.0
H508 H 0.6423 0.22674 0.31019 0.0
H509 H 0.61238 0.22832 0.28894 0.0
H510 H 0.64297 0.19674 0.24131 0.0
H511 H 0.67299 0.19476 0.26271 0.0
H512 H 0.70076 0.15652 0.29123 0.0
H513 H 0.72346 0.12823 0.28842 0.0
H514 H 0.76925 0.16273 0.32124 0.0
H515 H 0.74645 0.19101 0.32443 0.0
H516 H 0.72171 0.2177 0.36265 0.0
H517 H 0.72419 0.24009 0.39209 0.0
H518 H 0.67907 0.27788 0.3665 0.0
H519 H 0.67611 0.25524 0.33749 0.0
N520 N 0.68046 0.22202 0.31739 0.0
N521 N 0.69146 0.19432 0.29839 0.0
N522 N 0.70988 0.20581 0.32678 0.0
C523 C 0.6779 0.20904 0.30148 0.0
C524 C 0.70751 0.19263 0.31098 0.0
C525 C 0.69641 0.22057 0.33009 0.0
C526 C 0.66003 0.21054 0.28818 0.0
C527 C 0.64275 0.22019 0.29517 0.0
C528 C 0.62557 0.22105 0.28305 0.0
C529 C 0.6254 0.21263 0.26353 0.0
C530 C 0.64278 0.20342 0.25629 0.0
C531 C 0.65988 0.20219 0.26858 0.0
C532 C 0.72176 0.176 0.30813 0.0
C533 C 0.7157 0.15817 0.29773 0.0
C534 C 0.72864 0.14193 0.29621 0.0
C535 C 0.74804 0.14331 0.30469 0.0
C536 C 0.75437 0.16133 0.31453 0.0
C537 C 0.74129 0.17744 0.31642 0.0
C538 C 0.69863 0.23457 0.34769 0.0
C539 C 0.71233 0.2308 0.36329 0.0
C540 C 0.47284 0.10532 0.01444 0.0
C541 C 0.49288 0.11267 0.0145 0.0
C542 C 0.50684 0.10342 1.00176 0.0
C543 C 0.50098 0.08687 0.98954 0.0
H544 H 0.41924 0.04448 0.99085 0.0
H545 H 0.3902 0.02376 1.00166 0.0
H546 H 0.41988 0.96996 0.98184 0.0
H547 H 0.4487 0.99058 0.97041 0.0
H548 H 0.47852 1.00148 0.92992 0.0
H549 H 0.49891 0.99122 0.9013 0.0
H550 H 0.53617 0.04532 0.90893 0.0
H551 H 0.51573 0.05578 0.93728 0.0
H552 H 0.45157 0.08297 1.00313 0.0
H553 H 0.46181 0.11207 0.02424 0.0
H554 H 0.52237 0.10886 1.00144 0.0
H555 H 0.51222 0.07989 0.98018 0.0
N556 N 0.45868 0.04924 0.98342 0.0
N557 N 0.46601 0.02513 0.9584 0.0
N558 N 0.48719 0.05378 0.96314 0.0
C559 C 0.45398 0.03156 0.97358 0.0
C560 C 0.48256 0.03626 0.95295 0.0
C561 C 0.47535 0.06037 0.97838 0.0
C562 C 0.43624 0.01915 0.97976 0.0
C563 C 0.41954 0.02824 0.98872 0.0
C564 C 0.40294 0.01646 0.99486 0.0
C565 C 0.40297 0.99536 0.99261 0.0
C566 C 0.41962 0.98623 0.98375 0.0
C567 C 0.43602 0.99803 0.97716 0.0
C568 C 0.49536 0.02954 0.93594 0.0
C569 C 0.49107 0.0112 0.92555 0.0
C570 C 0.50284 0.00524 0.90918 0.0
C571 C 0.51911 0.01749 0.90275 0.0
C572 C 0.52355 0.03567 0.91328 0.0
C573 C 0.51186 0.04161 0.92966 0.0
C574 C 0.4811 0.07899 0.99003 0.0
C575 C 0.46703 0.08856 1.00246 0.0
Mn576 Mn 0.25454 0.87525 0.01667 0.0
Mn577 Mn 0.25074 0.89879 0.97224 0.0
C578 C 0.24061 0.85827 0.9889 0.0
C579 C 0.27168 0.85688 0.04052 0.0
C580 C 0.22391 0.90767 0.00781 0.0
O581 O 0.2749 0.89881 0.01945 0.0
O582 O 0.27255 0.9123 0.9886 0.0
C583 C 0.29011 0.88871 0.95453 0.0
N584 N 0.26961 0.88808 0.95354 0.0
C585 C 0.27001 0.87052 0.92157 0.0
C586 C 0.29112 0.87102 0.92222 0.0
C587 C 0.3012 0.88013 0.93879 0.0
C588 C 0.25976 0.87937 0.93767 0.0
H589 H 0.29793 0.89565 0.96725 0.0
C590 C 0.28053 0.9115 0.00617 0.0
O591 O 0.25749 0.86899 0.04547 0.0
O592 O 0.27611 0.85529 0.02154 0.0
N593 N 0.23044 0.88672 0.95502 0.0
C594 C 0.21006 0.88647 0.95725 0.0
C595 C 0.19774 0.87773 0.94206 0.0
C596 C 0.2065 0.86936 0.92477 0.0
C597 C 0.22752 0.86951 0.92294 0.0
C598 C 0.23902 0.8787 0.93842 0.0
H599 H 0.20324 0.89296 0.97048 0.0
O600 O 0.23605 0.85251 0.00695 0.0
O601 O 0.25265 0.87398 0.98787 0.0
O602 O 0.23127 0.8944 0.01905 0.0
O603 O 0.23023 0.91093 0.99004 0.0
C604 C 0.23751 0.86077 0.90645 0.0
C605 C 0.25874 0.86122 0.90579 0.0
H606 H 0.29974 0.86433 0.91016 0.0
H607 H 0.31749 0.88051 0.93943 0.0
H608 H 0.18153 0.87751 0.94364 0.0
H609 H 0.19695 0.86282 0.91299 0.0
H610 H 0.229 0.85344 0.89431 0.0
H611 H 0.26625 0.8542 0.89317 0.0
Mn612 Mn 0.13705 0.50638 0.25387 0.0
Mn613 Mn 0.12144 0.55419 0.25925 0.0
C614 C 0.15507 0.53244 0.23877 0.0
C615 C 0.15519 0.48009 0.26741 0.0
C616 C 0.10186 0.52307 0.2304 0.0
O617 O 0.11638 0.50455 0.2765 0.0
O618 O 0.11081 0.53758 0.28163 0.0
C619 C 0.14372 0.56568 0.29654 0.0
N620 N 0.13935 0.5691 0.27688 0.0
C621 C 0.16001 0.59951 0.27719 0.0
C622 C 0.16463 0.59641 0.29747 0.0
C623 C 0.15657 0.57933 0.30714 0.0
C624 C 0.1475 0.58515 0.26727 0.0
H625 H 0.13742 0.55266 0.30406 0.0
C626 C 0.10864 0.51902 0.28643 0.0
O627 O 0.14093 0.47647 0.25428 0.0
O628 O 0.15872 0.49878 0.27266 0.0
N629 N 0.13046 0.57242 0.23893 0.0
C630 C 0.12368 0.57383 0.21964 0.0
C631 C 0.13048 0.58999 0.20782 0.0
C632 C 0.1437 0.60485 0.2161 0.0
C633 C 0.14981 0.60354 0.23623 0.0
C634 C 0.14269 0.58698 0.24722 0.0
H635 H 0.11326 0.56267 0.21325 0.0
O636 O 0.1576 0.51386 0.23315 0.0
O637 O 0.14274 0.53516 0.25363 0.0
O638 O 0.11424 0.50891 0.23311 0.0
O639 O 0.10268 0.53986 0.24028 0.0
C640 C 0.16223 0.6183 0.24596 0.0
C641 C 0.16719 0.61637 0.26646 0.0
H642 H 0.17435 0.60703 0.30576 0.0
H643 H 0.16012 0.57679 0.32277 0.0
H644 H 0.12544 0.59105 0.19238 0.0
H645 H 0.14884 0.61734 0.20697 0.0
H646 H 0.16794 0.63129 0.23785 0.0
H647 H 0.17673 0.62784 0.27379 0.0
Mn648 Mn 0.76495 0.62466 0.0074 0.0
Mn649 Mn 0.72426 0.6503 0.99263 0.0
C650 C 0.73292 0.61067 0.01117 0.0
C651 C 0.79143 0.6028 1.00195 0.0
C652 C 0.74652 0.6595 0.03157 0.0
O653 O 0.77729 0.64594 0.98904 0.0
O654 O 0.74913 0.66178 0.98015 0.0
C655 C 0.72443 0.63862 0.94945 0.0
N656 N 0.71474 0.6394 0.96744 0.0
C657 C 0.68393 0.62635 0.95244 0.0
C658 C 0.69355 0.62542 0.93374 0.0
C659 C 0.71394 0.63144 0.93228 0.0
C660 C 0.69529 0.63315 0.96912 0.0
H661 H 0.73999 0.64357 0.94819 0.0
C662 C 0.7682 0.65949 0.97939 0.0
O663 O 0.79191 0.61622 0.01637 0.0
O664 O 0.77573 0.60239 0.99019 0.0
N665 N 0.69898 0.64101 1.00319 0.0
C666 C 0.69178 0.64319 0.02225 0.0
C667 C 0.67177 0.63729 0.02637 0.0
C668 C 0.6592 0.62981 0.01077 0.0
C669 C 0.66674 0.62836 0.99116 0.0
C670 C 0.68692 0.63406 0.98803 0.0
H671 H 0.70126 0.64926 0.03425 0.0
O672 O 0.74781 0.60464 0.02201 0.0
O673 O 0.73716 0.62453 0.99809 0.0
O674 O 0.75976 0.64614 0.0291 0.0
O675 O 0.73252 0.6624 0.01884 0.0
C676 C 0.6549 0.62189 0.97452 0.0
C677 C 0.66347 0.62096 0.95516 0.0
H678 H 0.68544 0.62014 0.92041 0.0
H679 H 0.72148 0.63077 0.9179 0.0
H680 H 0.66601 0.63867 0.04151 0.0
H681 H 0.64371 0.62546 0.01397 0.0
H682 H 0.6392 0.61752 0.97645 0.0
H683 H 0.65425 0.61582 0.9425 0.0
Mn684 Mn 0.87072 0.0203 0.25953 0.0
Mn685 Mn 0.89424 0.97608 0.25378 0.0
C686 C 0.85619 0.99446 0.24002 0.0
C687 C 0.84872 0.04117 0.27687 0.0
C688 C 0.90673 0.01424 0.23182 0.0
O689 O 0.8916 0.02148 0.28214 0.0
O690 O 0.90436 0.9904 0.27858 0.0
C691 C 0.87802 0.9548 0.28928 0.0
N692 N 0.8808 0.9556 0.26903 0.0
C693 C 0.86587 0.92236 0.26416 0.0
C694 C 0.86311 0.92104 0.28499 0.0
C695 C 0.86902 0.93743 0.29758 0.0
C696 C 0.87458 0.94019 0.25673 0.0
H697 H 0.88263 0.96731 0.299 0.0
C698 C 0.90308 0.00748 0.2878 0.0
O699 O 0.86266 0.04858 0.26528 0.0
O700 O 0.84816 0.02173 0.27903 0.0
N701 N 0.88575 0.96048 0.2306 0.0
C702 C 0.88918 0.96425 0.21081 0.0
C703 C 0.8832 0.94976 0.19615 0.0
C704 C 0.87413 0.93139 0.20199 0.0
C705 C 0.87114 0.92767 0.22247 0.0
C706 C 0.87718 0.94278 0.23638 0.0
H707 H 0.89628 0.97826 0.2062 0.0
O708 O 0.85094 0.01299 0.23767 0.0
O709 O 0.86956 0.99155 0.2539 0.0
O710 O 0.89286 0.02522 0.23882 0.0
O711 O 0.90896 0.99592 0.2369 0.0
C712 C 0.86266 0.90945 0.22963 0.0
C713 C 0.86027 0.90671 0.25047 0.0
H714 H 0.85631 0.90761 0.29146 0.0
H715 H 0.86679 0.9366 0.31366 0.0
H716 H 0.88567 0.95271 0.18038 0.0
H717 H 0.86963 0.92021 0.19065 0.0
H718 H 0.85796 0.89743 0.21924 0.0
H719 H 0.8537 0.89264 0.2558 0.0
Mn720 Mn 0.26312 0.12639 0.50398 0.0
Mn721 Mn 0.22239 0.15041 0.48685 0.0
C722 C 0.2318 0.10991 0.50273 0.0
C723 C 0.29142 0.10669 0.49942 0.0
C724 C 0.2409 0.15886 0.52792 0.0
O725 O 0.27568 0.14981 0.48827 0.0
O726 O 0.24738 0.16398 0.47692 0.0
C727 C 0.22648 0.14099 0.4434 0.0
N728 N 0.21539 0.14033 0.46057 0.0
C729 C 0.18741 0.12403 0.44311 0.0
C730 C 0.1985 0.12461 0.42523 0.0
C731 C 0.21813 0.13309 0.42539 0.0
C732 C 0.1965 0.13219 0.46059 0.0
H733 H 0.24158 0.14748 0.44345 0.0
C734 C 0.2666 0.16304 0.4781 0.0
O735 O 0.28973 0.11876 0.51484 0.0
O736 O 0.27682 0.10636 0.48633 0.0
N737 N 0.19721 0.1386 0.4951 0.0
C738 C 0.18897 0.13821 0.51382 0.0
C739 C 0.16944 0.13 0.51631 0.0
C740 C 0.15858 0.12234 0.49953 0.0
C741 C 0.16743 0.12275 0.48046 0.0
C742 C 0.18683 0.13136 0.47886 0.0
H743 H 0.19721 0.14419 0.52673 0.0
O744 O 0.2456 0.10402 0.51503 0.0
O745 O 0.23668 0.1254 0.49188 0.0
O746 O 0.2546 0.14588 0.52631 0.0
O747 O 0.22799 0.16181 0.51408 0.0
C748 C 0.15785 0.11476 0.46302 0.0
C749 C 0.16785 0.11535 0.44436 0.0
H750 H 0.19215 0.11845 0.41132 0.0
H751 H 0.22681 0.13352 0.41166 0.0
H752 H 0.16274 0.12961 0.5311 0.0
H753 H 0.14348 0.11611 0.50147 0.0
H754 H 0.14288 0.10789 0.46382 0.0
H755 H 0.16045 0.10889 0.4311 0.0
Mn756 Mn 0.37955 0.51483 0.76034 0.0
Mn757 Mn 0.4002 0.46893 0.75607 0.0
C758 C 0.36144 0.48772 0.74589 0.0
C759 C 0.36156 0.53981 0.77684 0.0
C760 C 0.41224 0.50414 0.7299 0.0
O761 O 0.40233 0.51642 0.7812 0.0
O762 O 0.41388 0.48478 0.77806 0.0
C763 C 0.38785 0.45188 0.79517 0.0
N764 N 0.38782 0.45081 0.77469 0.0
C765 C 0.36855 0.41948 0.7747 0.0
C766 C 0.36842 0.42023 0.79578 0.0
C767 C 0.37809 0.43651 0.80605 0.0
C768 C 0.37855 0.43521 0.76467 0.0
H769 H 0.39523 0.46437 0.80314 0.0
C770 C 0.41391 0.50232 0.78656 0.0
O771 O 0.37486 0.54408 0.76329 0.0
O772 O 0.35882 0.5209 0.7813 0.0
N773 N 0.38776 0.45212 0.73559 0.0
C774 C 0.38837 0.4542 0.71526 0.0
C775 C 0.37938 0.43917 0.70278 0.0
C776 C 0.36985 0.4222 0.71133 0.0
C777 C 0.36907 0.42058 0.73229 0.0
C778 C 0.37859 0.43587 0.74396 0.0
H779 H 0.39578 0.46715 0.7086 0.0
O780 O 0.35711 0.50611 0.74133 0.0
O781 O 0.37653 0.48595 0.75808 0.0
O782 O 0.39975 0.5162 0.73755 0.0
O783 O 0.41398 0.48604 0.73576 0.0
C784 C 0.35915 0.40446 0.74206 0.0
C785 C 0.35882 0.40395 0.76325 0.0
H786 H 0.36083 0.40846 0.80424 0.0
H787 H 0.37801 0.43723 0.82232 0.0
H788 H 0.37987 0.4406 0.6866 0.0
H789 H 0.36317 0.41051 0.70164 0.0
H790 H 0.35153 0.39249 0.73342 0.0
H791 H 0.35091 0.39161 0.7706 0.0
Mn792 Mn 0.75747 0.37235 0.51662 0.0
Mn793 Mn 0.75493 0.39346 0.47076 0.0
C794 C 0.73898 0.35643 0.49109 0.0
C795 C 0.7722 0.35294 0.54128 0.0
C796 C 0.73084 0.40793 0.50635 0.0
O797 O 0.7811 0.3926 0.51727 0.0
O798 O 0.77832 0.40529 0.48622 0.0
C799 C 0.79262 0.37808 0.45342 0.0
N800 N 0.77225 0.37974 0.45256 0.0
C801 C 0.77081 0.36414 0.41965 0.0
C802 C 0.79178 0.36227 0.42016 0.0
C803 C 0.80271 0.36911 0.4372 0.0
C804 C 0.76153 0.37268 0.43648 0.0
H805 H 0.80114 0.38372 0.46629 0.0
C806 C 0.78716 0.40427 0.50333 0.0
O807 O 0.76058 0.36772 0.54569 0.0
O808 O 0.77557 0.34933 0.52232 0.0
N809 N 0.73336 0.38348 0.45386 0.0
C810 C 0.71325 0.3866 0.45562 0.0
C811 C 0.70009 0.37988 0.44017 0.0
C812 C 0.70781 0.37058 0.42282 0.0
C813 C 0.72862 0.36809 0.42108 0.0
C814 C 0.74094 0.37465 0.43717 0.0
H815 H 0.70726 0.39402 0.46878 0.0
O816 O 0.73512 0.35264 0.5098 0.0
O817 O 0.75371 0.36928 0.48773 0.0
O818 O 0.73773 0.39524 0.51853 0.0
O819 O 0.73613 0.40871 0.48796 0.0
C820 C 0.73767 0.35979 0.40382 0.0
C821 C 0.75877 0.35801 0.40303 0.0
H822 H 0.79964 0.35562 0.40755 0.0
H823 H 0.8189 0.36774 0.43771 0.0
H824 H 0.68407 0.38203 0.44155 0.0
H825 H 0.69764 0.36562 0.41083 0.0
H826 H 0.72855 0.35474 0.39106 0.0
H827 H 0.76555 0.35154 0.3897 0.0
Mn828 Mn 0.63899 0.99775 0.75594 0.0
Mn829 Mn 0.61933 0.04426 0.7552 0.0
C830 C 0.65727 0.02477 0.74273 0.0
C831 C 0.65668 0.97185 0.77069 0.0
C832 C 0.60619 0.01051 0.72646 0.0
O833 O 0.6166 0.99577 0.77684 0.0
O834 O 0.60526 0.02751 0.77564 0.0
C835 C 0.63212 0.05869 0.79581 0.0
N836 N 0.63205 0.06102 0.7755 0.0
C837 C 0.65164 0.09206 0.77853 0.0
C838 C 0.65185 0.09003 0.79947 0.0
C839 C 0.64207 0.07325 0.80814 0.0
C840 C 0.64141 0.07711 0.767 0.0
H841 H 0.62466 0.04581 0.80255 0.0
C842 C 0.60501 0.0097 0.78292 0.0
O843 O 0.64311 0.96829 0.75694 0.0
O844 O 0.65993 0.99058 0.77626 0.0
N845 N 0.63193 0.06207 0.73639 0.0
C846 C 0.63128 0.0612 0.71591 0.0
C847 C 0.64057 0.07676 0.70491 0.0
C848 C 0.65037 0.09304 0.71507 0.0
C849 C 0.65102 0.09349 0.73613 0.0
C850 C 0.64127 0.07771 0.74629 0.0
H851 H 0.6237 0.04877 0.70804 0.0
O852 O 0.66107 0.00639 0.7371 0.0
O853 O 0.64272 0.0267 0.75554 0.0
O854 O 0.61819 0.99772 0.7334 0.0
O855 O 0.60524 0.02856 0.73337 0.0
C856 C 0.66112 0.10889 0.74742 0.0
C857 C 0.66148 0.10815 0.76861 0.0
H858 H 0.65959 0.10118 0.80904 0.0
H859 H 0.64223 0.07154 0.82429 0.0
H860 H 0.64014 0.07624 0.68864 0.0
H861 H 0.65741 0.10508 0.70655 0.0
H862 H 0.66888 0.12124 0.73996 0.0
H863 H 0.66953 0.11992 0.77712 0.0
Mn864 Mn 0.01192 0.25319 0.86799 0.0
Mn865 Mn 0.96845 0.24682 0.89343 0.0
C866 C 0.98595 0.23343 0.85419 0.0
C867 C 0.03209 0.2714 0.8457 0.0
C868 C 0.00664 0.22482 0.90341 0.0
O869 O 0.01377 0.27538 0.88967 0.0
O870 O 0.98286 0.27185 0.90332 0.0
C871 C 0.94734 0.28219 0.87797 0.0
N872 N 0.94802 0.26188 0.88067 0.0
C873 C 0.91576 0.25647 0.86458 0.0
C874 C 0.9146 0.27734 0.86185 0.0
C875 C 0.93052 0.29024 0.86846 0.0
C876 C 0.93301 0.2493 0.87393 0.0
H877 H 0.95957 0.29214 0.88295 0.0
C878 C 1.00004 0.28099 0.90175 0.0
O879 O 0.03986 0.25953 0.85879 0.0
O880 O 0.01272 0.27334 0.84617 0.0
N881 N 0.95274 0.22335 0.88536 0.0
C882 C 0.956 0.20361 0.88947 0.0
C883 C 0.94157 0.18872 0.88363 0.0
C884 C 0.9238 0.19429 0.87393 0.0
C885 C 0.92052 0.21474 0.87037 0.0
C886 C 0.93543 0.22891 0.87655 0.0
H887 H 0.96952 0.19922 0.8971 0.0
O888 O 0.00422 0.23162 0.84777 0.0
O889 O 0.98338 0.24709 0.86812 0.0
O890 O 0.01709 0.23188 0.88898 0.0
O891 O 0.98863 0.23012 0.9071 0.0
C892 C 0.90293 0.22163 0.86114 0.0
C893 C 0.90051 0.24249 0.85835 0.0
H894 H 0.90162 0.28362 0.85459 0.0
H895 H 0.92982 0.30636 0.86626 0.0
H896 H 0.94413 0.17299 0.88662 0.0
H897 H 0.91272 0.18277 0.86942 0.0
H898 H 0.89115 0.21103 0.85617 0.0
H899 H 0.88692 0.2476 0.85124 0.0
Mn900 Mn 0.51286 0.75192 0.37054 0.0
Mn901 Mn 0.46856 0.74596 0.39468 0.0
C902 C 0.48671 0.73315 0.35563 0.0
C903 C 0.53454 0.77 0.34953 0.0
C904 C 0.50622 0.72353 0.40568 0.0
O905 O 0.51439 0.77381 0.39251 0.0
O906 O 0.48293 0.77084 0.40508 0.0
C907 C 0.44759 0.78162 0.3797 0.0
N908 N 0.44829 0.76126 0.382 0.0
C909 C 0.41531 0.75626 0.36737 0.0
C910 C 0.41409 0.7772 0.36514 0.0
C911 C 0.43039 0.78992 0.37114 0.0
C912 C 0.43295 0.74885 0.37569 0.0
H913 H 0.46005 0.79142 0.38437 0.0
C914 C 0.50031 0.7797 0.40406 0.0
O915 O 0.54124 0.75743 0.36254 0.0
O916 O 0.51523 0.77254 0.3491 0.0
N917 N 0.45299 0.72264 0.38592 0.0
C918 C 0.45665 0.70276 0.38883 0.0
C919 C 0.44221 0.68798 0.38275 0.0
C920 C 0.424 0.6938 0.37408 0.0
C921 C 0.4204 0.71437 0.3716 0.0
C922 C 0.43544 0.7284 0.37777 0.0
H923 H 0.47053 0.69816 0.39562 0.0
O924 O 0.50513 0.73083 0.3498 0.0
O925 O 0.48411 0.74663 0.36973 0.0
O926 O 0.51708 0.7303 0.39145 0.0
O927 O 0.48817 0.72898 0.40874 0.0
C928 C 0.40237 0.7215 0.36349 0.0
C929 C 0.39974 0.74244 0.36161 0.0
H930 H 0.40079 0.78366 0.35865 0.0
H931 H 0.42964 0.80608 0.3693 0.0
H932 H 0.44506 0.67215 0.38481 0.0
H933 H 0.41286 0.68237 0.36947 0.0
H934 H 0.39042 0.71101 0.35869 0.0
H935 H 0.38581 0.74774 0.35534 0.0
Mn936 Mn 0.01124 0.76223 0.62975 0.0
Mn937 Mn 0.99279 0.72251 0.6558 0.0
C938 C 0.00813 0.73054 0.61444 0.0
C939 C 0.00684 0.78999 0.60909 0.0
C940 C 0.03492 0.7404 0.66208 0.0
O941 O 0.99665 0.77566 0.65322 0.0
O942 O 0.98366 0.74805 0.66849 0.0
C943 C 0.94923 0.72627 0.64762 0.0
N944 N 0.96617 0.71518 0.64681 0.0
C945 C 0.94784 0.68672 0.63208 0.0
C946 C 0.93017 0.6978 0.63284 0.0
C947 C 0.93088 0.71767 0.64063 0.0
C948 C 0.96564 0.69603 0.63943 0.0
H949 H 0.94971 0.74156 0.65355 0.0
C950 C 0.9859 0.76725 0.6668 0.0
O951 O 0.0226 0.78871 0.62055 0.0
O952 O 0.99341 0.77543 0.61005 0.0
N953 N 1.00032 0.69696 0.64471 0.0
C954 C 0.01896 0.68897 0.64349 0.0
C955 C 0.021 0.66946 0.6353 0.0
C956 C 0.00388 0.65836 0.62852 0.0
C957 C 0.98488 0.66694 0.62985 0.0
C958 C 0.98374 0.68637 0.6383 0.0
H959 H 0.03216 0.69745 0.64866 0.0
O960 O 0.02089 0.74396 0.60763 0.0
O961 O 0.99796 0.736 0.63018 0.0
O962 O 0.03399 0.75362 0.64842 0.0
O963 O 0.02028 0.72834 0.66626 0.0
C964 C 0.96708 0.65713 0.62271 0.0
C965 C 0.94857 0.66701 0.62383 0.0
H966 H 0.91603 0.69128 0.62731 0.0
H967 H 0.91733 0.72634 0.64118 0.0
H968 H 0.03574 0.66299 0.63417 0.0
H969 H 0.00552 0.64333 0.62217 0.0
H970 H 0.96752 0.64212 0.61603 0.0
H971 H 0.93505 0.65945 0.61799 0.0
Mn972 Mn 0.5063 0.25577 0.12958 0.0
Mn973 Mn 0.47734 0.21585 0.14385 0.0
C974 C 0.50717 0.22582 0.11118 0.0
C975 C 0.51006 0.28658 0.11325 0.0
C976 C 0.51626 0.22911 0.16502 0.0
O977 O 0.48655 0.268 0.14946 0.0
O978 O 0.4658 0.24115 0.15462 0.0
C979 C 0.43991 0.22377 0.12144 0.0
N980 N 0.45527 0.21134 0.12571 0.0
C981 C 0.43962 0.184 0.10659 0.0
C982 C 0.4236 0.19648 0.10199 0.0
C983 C 0.42385 0.21653 0.10928 0.0
C984 C 0.4555 0.19225 0.11824 0.0
H985 H 0.43984 0.23904 0.12743 0.0
C986 C 0.47072 0.25987 0.157 0.0
O987 O 0.52139 0.28196 0.12831 0.0
O988 O 0.49643 0.27323 0.10748 0.0
N989 N 0.48635 0.19012 0.13468 0.0
C990 C 0.50274 0.17991 0.14082 0.0
C991 C 0.50517 0.15989 0.13417 0.0
C992 C 0.49038 0.15034 0.12191 0.0
C993 C 0.47327 0.1609 0.1164 0.0
C994 C 0.47194 0.181 0.12301 0.0
H995 H 0.51393 0.187 0.15064 0.0
O996 O 0.52153 0.2394 0.10964 0.0
O997 O 0.49224 0.23047 0.12284 0.0
O998 O 0.52141 0.2429 0.15278 0.0
O999 O 0.49973 0.21884 0.1635 0.0
C1000 C 0.45724 0.15212 0.10506 0.0
C1001 C 0.44036 0.16362 0.10029 0.0
H1002 H 0.41103 0.19083 0.0929 0.0
H1003 H 0.41154 0.22626 0.10581 0.0
H1004 H 0.5183 0.15176 0.13871 0.0
H1005 H 0.49216 0.1348 0.11704 0.0
H1006 H 0.45774 0.13654 0.0999 0.0
H1007 H 0.42817 0.15673 0.09146 0.0
H1008 H 0.19 0.7753 0.91305 0.0
H1009 H 0.24948 0.77036 0.88706 0.0
H1010 H 0.26261 0.79686 0.91047 0.0
H1011 H 0.19175 0.82824 0.92109 0.0
H1012 H 0.18005 0.82919 0.94552 0.0
H1013 H 0.1736 0.80899 0.92792 0.0
H1014 H 0.18338 0.78132 0.95196 0.0
H1015 H 0.18833 0.80046 0.97106 0.0
H1016 H 0.20749 0.78279 0.96452 0.0
H1017 H 0.26996 0.82186 0.93731 0.0
H1018 H 0.27103 0.84616 0.96571 0.0
H1019 H 0.20691 0.83654 0.97486 0.0
C1020 C 0.20573 0.77997 0.91228 0.0
C1021 C 0.2188 0.7708 0.89832 0.0
C1022 C 0.23932 0.77711 0.89777 0.0
C1023 C 0.24689 0.79215 0.91096 0.0
C1024 C 0.23377 0.80069 0.92473 0.0
C1025 C 0.21366 0.79489 0.92561 0.0
C1026 C 0.2031 0.80637 0.94231 0.0
C1027 C 0.18612 0.81898 0.93373 0.0
C1028 C 0.19511 0.79187 0.95842 0.0
C1029 C 0.22043 0.81965 0.95046 0.0
C1030 C 0.23796 0.81587 0.94011 0.0
C1031 C 0.25628 0.82523 0.94532 0.0
C1032 C 0.25672 0.83908 0.96139 0.0
C1033 C 0.23893 0.84377 0.97187 0.0
C1034 C 0.22059 0.83362 0.96665 0.0
H1035 H 0.05622 0.54496 0.39077 0.0
H1036 H 0.02185 0.48834 0.38419 0.0
H1037 H 0.04112 0.4801 0.35378 0.0
H1038 H 0.05538 0.55605 0.33854 0.0
H1039 H 0.08022 0.56775 0.33871 0.0
H1040 H 0.06517 0.56822 0.36114 0.0
H1041 H 0.0939 0.5516 0.38084 0.0
H1042 H 0.109 0.55098 0.35841 0.0
H1043 H 0.10366 0.52802 0.37179 0.0
H1044 H 0.06409 0.47819 0.32336 0.0
H1045 H 0.08649 0.48438 0.29427 0.0
H1046 H 0.10296 0.54354 0.31925 0.0
C1047 C 0.05251 0.53085 0.38299 0.0
C1048 C 0.03749 0.51727 0.39029 0.0
C1049 C 0.03358 0.49887 0.37948 0.0
C1050 C 0.04437 0.49406 0.362 0.0
C1051 C 0.05891 0.50788 0.35526 0.0
C1052 C 0.06281 0.526 0.36532 0.0
C1053 C 0.07822 0.53887 0.35427 0.0
C1054 C 0.0692 0.5589 0.34778 0.0
C1055 C 0.09733 0.54257 0.36709 0.0
C1056 C 0.08226 0.52523 0.33633 0.0
C1057 C 0.07127 0.50726 0.3373 0.0
C1058 C 0.07272 0.49225 0.32243 0.0
C1059 C 0.08552 0.49585 0.306 0.0
C1060 C 0.09637 0.51447 0.30443 0.0
C1061 C 0.09476 0.52921 0.31993 0.0
H1062 H 0.78333 0.75274 0.90672 0.0
H1063 H 0.83532 0.72279 0.88197 0.0
H1064 H 0.83174 0.69656 0.90761 0.0
H1065 H 0.79119 0.74113 0.95896 0.0
H1066 H 0.76477 0.73655 0.96369 0.0
H1067 H 0.77258 0.7541 0.94465 0.0
H1068 H 0.75091 0.73412 0.91812 0.0
H1069 H 0.74295 0.71662 0.9371 0.0
H1070 H 0.75463 0.70745 0.91444 0.0
H1071 H 0.82176 0.67274 0.9356 0.0
H1072 H 0.80455 0.65218 0.96147 0.0
H1073 H 0.75784 0.69653 0.9658 0.0
C1074 C 0.79397 0.74067 0.90649 0.0
C1075 C 0.80974 0.74012 0.89225 0.0
C1076 C 0.82338 0.72402 0.89291 0.0
C1077 C 0.82142 0.7089 0.90739 0.0
C1078 C 0.80563 0.70991 0.92105 0.0
C1079 C 0.79204 0.7253 0.92057 0.0
C1080 C 0.7756 0.72226 0.93601 0.0
C1081 C 0.77607 0.73954 0.95176 0.0
C1082 C 0.7548 0.71997 0.9258 0.0
C1083 C 0.78192 0.70262 0.94509 0.0
C1084 C 0.79946 0.69587 0.93653 0.0
C1085 C 0.80804 0.67791 0.94243 0.0
C1086 C 0.79821 0.66638 0.95719 0.0
C1087 C 0.77984 0.67271 0.96563 0.0
C1088 C 0.77183 0.69122 0.95961 0.0
H1089 H 0.95937 0.97483 0.38747 0.0
H1090 H 0.98666 0.03533 0.39069 0.0
H1091 H 0.96674 0.04475 0.36131 0.0
H1092 H 0.96246 0.97086 0.33371 0.0
H1093 H 0.93931 0.95613 0.33123 0.0
H1094 H 0.95424 0.95469 0.35379 0.0
H1095 H 0.92334 0.96449 0.37512 0.0
H1096 H 0.90834 0.96609 0.35261 0.0
H1097 H 0.91053 0.98743 0.36974 0.0
H1098 H 0.94318 0.04783 0.3314 0.0
H1099 H 0.92102 0.04293 0.3015 0.0
H1100 H 0.91319 0.97948 0.31548 0.0
C1101 C 0.96149 0.99004 0.38205 0.0
C1102 C 0.97458 0.00432 0.39195 0.0
C1103 C 0.97636 0.02412 0.3841 0.0
C1104 C 0.9652 0.02965 0.36718 0.0
C1105 C 0.95257 0.01515 0.35789 0.0
C1106 C 0.95094 0.99566 0.36487 0.0
C1107 C 0.93738 0.98252 0.35139 0.0
C1108 C 0.94905 0.96502 0.34197 0.0
C1109 C 0.9188 0.97468 0.36291 0.0
C1110 C 0.93163 0.99768 0.33575 0.0
C1111 C 0.94022 0.01653 0.33993 0.0
C1112 C 0.93651 0.03308 0.32789 0.0
C1113 C 0.92387 0.03019 0.31101 0.0
C1114 C 0.91551 0.01082 0.30612 0.0
C1115 C 0.91949 0.99443 0.31872 0.0
H1116 H 0.20105 0.24549 0.60198 0.0
H1117 H 0.25496 0.2377 0.63775 0.0
H1118 H 0.26507 0.21007 0.61486 0.0
H1119 H 0.19138 0.1924 0.58975 0.0
H1120 H 0.18309 0.19711 0.56447 0.0
H1121 H 0.17968 0.21586 0.58403 0.0
H1122 H 0.1991 0.24245 0.5629 0.0
H1123 H 0.20253 0.22381 0.54327 0.0
H1124 H 0.22408 0.23714 0.55414 0.0
H1125 H 0.26944 0.18352 0.58817 0.0
H1126 H 0.2688 0.16087 0.55841 0.0
H1127 H 0.21229 0.18616 0.53939 0.0
C1128 C 0.21489 0.23783 0.60506 0.0
C1129 C 0.22724 0.24373 0.62163 0.0
C1130 C 0.24539 0.23355 0.62503 0.0
C1131 C 0.25118 0.21776 0.6122 0.0
C1132 C 0.23871 0.21236 0.59598 0.0
C1133 C 0.22099 0.22213 0.59229 0.0
C1134 C 0.21072 0.21381 0.57337 0.0
C1135 C 0.18999 0.20422 0.5782 0.0
C1136 C 0.20902 0.23028 0.55748 0.0
C1137 C 0.22549 0.19791 0.56696 0.0
C1138 C 0.24142 0.19723 0.58033 0.0
C1139 C 0.25703 0.18389 0.5776 0.0
C1140 C 0.25649 0.17104 0.56062 0.0
C1141 C 0.24051 0.17168 0.54645 0.0
C1142 C 0.22474 0.18525 0.54986 0.0
H1143 H 0.48143 0.49929 0.63131 0.0
H1144 H 0.48102 0.56487 0.63201 0.0
H1145 H 0.46058 0.56435 0.66279 0.0
H1146 H 0.4309 0.4912 0.64866 0.0
H1147 H 0.4367 0.47002 0.6641 0.0
H1148 H 0.45157 0.47532 0.64214 0.0
H1149 H 0.48395 0.47692 0.66402 0.0
H1150 H 0.46917 0.47161 0.68606 0.0
H1151 H 0.48541 0.49386 0.68553 0.0
H1152 H 0.43982 0.55709 0.69275 0.0
H1153 H 0.41973 0.54353 0.72063 0.0
H1154 H 0.43388 0.48244 0.70172 0.0
C1155 C 0.47719 0.51354 0.63803 0.0
C1156 C 0.48272 0.53213 0.62908 0.0
C1157 C 0.47667 0.55043 0.6383 0.0
C1158 C 0.46518 0.5503 0.6559 0.0
C1159 C 0.45991 0.53178 0.66423 0.0
C1160 C 0.4657 0.51371 0.65569 0.0
C1161 C 0.45772 0.49592 0.66771 0.0
C1162 C 0.44337 0.48232 0.65489 0.0
C1163 C 0.4751 0.48387 0.67635 0.0
C1164 C 0.44646 0.50688 0.68425 0.0
C1165 C 0.44799 0.52755 0.68187 0.0
C1166 C 0.43856 0.54094 0.69484 0.0
C1167 C 0.42712 0.53304 0.71062 0.0
C1168 C 0.42518 0.51189 0.71343 0.0
C1169 C 0.43518 0.49866 0.7001 0.0
H1170 H 0.79899 0.25242 0.59979 0.0
H1171 H 0.80716 0.29083 0.65292 0.0
H1172 H 0.80119 0.32083 0.63263 0.0
H1173 H 0.8231 0.28697 0.56467 0.0
H1174 H 0.80565 0.28098 0.54447 0.0
H1175 H 0.81103 0.26227 0.56294 0.0
H1176 H 0.773 0.25821 0.57087 0.0
H1177 H 0.7675 0.27678 0.55233 0.0
H1178 H 0.75902 0.28017 0.57784 0.0
H1179 H 0.79283 0.34636 0.60753 0.0
H1180 H 0.78225 0.36637 0.57865 0.0
H1181 H 0.78036 0.31229 0.54086 0.0
C1182 C 0.79948 0.26716 0.60711 0.0
C1183 C 0.8037 0.2693 0.62793 0.0
C1184 C 0.80428 0.28885 0.63696 0.0
C1185 C 0.80086 0.30598 0.62557 0.0
C1186 C 0.79695 0.3034 0.6051 0.0
C1187 C 0.79624 0.28454 0.59588 0.0
C1188 C 0.79137 0.28614 0.57363 0.0
C1189 C 0.80883 0.27864 0.56066 0.0
C1190 C 0.77154 0.27464 0.56836 0.0
C1191 C 0.78919 0.30881 0.57193 0.0
C1192 C 0.79251 0.31839 0.59032 0.0
C1193 C 0.79039 0.3391 0.593 0.0
C1194 C 0.78437 0.35032 0.57652 0.0
C1195 C 0.78071 0.3409 0.55754 0.0
C1196 C 0.78348 0.31991 0.55512 0.0
H1197 H 0.53656 0.02021 0.62806 0.0
H1198 H 0.5354 0.95467 0.62487 0.0
H1199 H 0.5549 0.95381 0.65638 0.0
H1200 H 0.58679 0.0262 0.64642 0.0
H1201 H 0.58191 0.04721 0.66311 0.0
H1202 H 0.56668 0.04298 0.64088 0.0
H1203 H 0.53447 0.04197 0.66268 0.0
H1204 H 0.54961 0.04627 0.68499 0.0
H1205 H 0.5326 0.02461 0.68321 0.0
H1206 H 0.57579 0.95958 0.6867 0.0
H1207 H 0.59694 0.97168 0.71502 0.0
H1208 H 0.585 0.03376 0.69975 0.0
C1209 C 0.54021 0.00572 0.6342 0.0
C1210 C 0.53459 0.98749 0.62395 0.0
C1211 C 0.53979 0.9688 0.63232 0.0
C1212 C 0.55076 0.96815 0.65027 0.0
C1213 C 0.55639 0.98631 0.6598 0.0
C1214 C 0.55129 0.00477 0.65219 0.0
C1215 C 0.56002 0.02198 0.66523 0.0
C1216 C 0.57473 0.03538 0.65319 0.0
C1217 C 0.54317 0.03444 0.67458 0.0
C1218 C 0.571 0.01024 0.68112 0.0
C1219 C 0.56857 0.98969 0.67764 0.0
C1220 C 0.57772 0.97563 0.68969 0.0
C1221 C 0.5898 0.9827 0.70572 0.0
C1222 C 0.59269 0.0037 0.70968 0.0
C1223 C 0.58297 0.01763 0.69725 0.0
H1224 H 0.9038 0.22992 0.76739 0.0
H1225 H 0.89412 0.16603 0.77956 0.0
H1226 H 0.9195 0.16869 0.80648 0.0
H1227 H 0.95667 0.23332 0.77848 0.0
H1228 H 0.95529 0.25785 0.7905 0.0
H1229 H 0.93754 0.25047 0.771 0.0
H1230 H 0.90916 0.25884 0.79506 0.0
H1231 H 0.92571 0.26436 0.81612 0.0
H1232 H 0.90602 0.24513 0.81791 0.0
H1233 H 0.94886 0.17758 0.82954 0.0
H1234 H 0.97561 0.19347 0.85116 0.0
H1235 H 0.96074 0.25232 0.82913 0.0
C1236 C 0.90665 0.21645 0.77578 0.0
C1237 C 0.89695 0.19766 0.77084 0.0
C1238 C 0.90166 0.1805 0.78232 0.0
C1239 C 0.91597 0.18187 0.79788 0.0
C1240 C 0.92517 0.20057 0.80222 0.0
C1241 C 0.92046 0.21762 0.79174 0.0
C1242 C 0.93189 0.23611 0.79998 0.0
C1243 C 0.94619 0.24495 0.78404 0.0
C1244 C 0.91736 0.25207 0.80777 0.0
C1245 C 0.94356 0.22678 0.81692 0.0
C1246 C 0.94001 0.20613 0.81748 0.0
C1247 C 0.95122 0.19382 0.82981 0.0
C1248 C 0.96629 0.2029 0.84205 0.0
C1249 C 0.96923 0.2241 0.84257 0.0
C1250 C 0.95785 0.23616 0.82976 0.0
H1251 H 0.47025 0.88139 0.46039 0.0
H1252 H 0.52958 0.88281 0.48844 0.0
H1253 H 0.53825 0.85255 0.46883 0.0
H1254 H 0.46347 0.82747 0.46327 0.0
H1255 H 0.44967 0.82531 0.4399 0.0
H1256 H 0.44871 0.84817 0.45488 0.0
H1257 H 0.46079 0.86893 0.4243 0.0
H1258 H 0.46191 0.84611 0.40927 0.0
H1259 H 0.4839 0.86254 0.41191 0.0
H1260 H 0.5408 0.82214 0.44529 0.0
H1261 H 0.53544 0.7922 0.42279 0.0
H1262 H 0.47327 0.80844 0.41405 0.0
C1263 C 0.48502 0.87537 0.46274 0.0
C1264 C 0.49925 0.88501 0.47592 0.0
C1265 C 0.51849 0.87638 0.47805 0.0
C1266 C 0.52356 0.85898 0.46707 0.0
C1267 C 0.50916 0.84999 0.45428 0.0
C1268 C 0.49016 0.85772 0.45234 0.0
C1269 C 0.47699 0.84455 0.43853 0.0
C1270 C 0.45863 0.83586 0.44982 0.0
C1271 C 0.47053 0.85623 0.4199 0.0
C1272 C 0.49156 0.82821 0.43299 0.0
C1273 C 0.51016 0.83179 0.44191 0.0
C1274 C 0.52623 0.81909 0.43838 0.0
C1275 C 0.52309 0.80219 0.42555 0.0
C1276 C 0.50393 0.79794 0.41683 0.0
C1277 C 0.48803 0.81118 0.42065 0.0
H1278 H 0.13226 0.29232 0.78263 0.0
H1279 H 0.09422 0.31443 0.73517 0.0
H1280 H 0.06438 0.31008 0.75702 0.0
H1281 H 0.09763 0.25387 0.79884 0.0
H1282 H 0.10413 0.25678 0.82509 0.0
H1283 H 0.12251 0.26286 0.80617 0.0
H1284 H 0.12731 0.29883 0.82173 0.0
H1285 H 0.10883 0.29289 0.84064 0.0
H1286 H 0.10574 0.31448 0.8249 0.0
H1287 H 0.0388 0.30315 0.78394 0.0
H1288 H 0.01871 0.29113 0.81271 0.0
H1289 H 0.0733 0.27221 0.84219 0.0
C1290 C 0.11765 0.29641 0.77695 0.0
C1291 C 0.11547 0.30382 0.7573 0.0
C1292 C 0.09612 0.30867 0.75018 0.0
C1293 C 0.07916 0.30638 0.76252 0.0
C1294 C 0.08181 0.29907 0.78185 0.0
C1295 C 0.10054 0.29395 0.78896 0.0
C1296 C 0.09912 0.2853 0.80987 0.0
C1297 C 0.10627 0.2634 0.80999 0.0
C1298 C 0.11095 0.29868 0.82519 0.0
C1299 C 0.07664 0.28622 0.81336 0.0
C1300 C 0.06698 0.29448 0.79713 0.0
C1301 C 0.0462 0.29668 0.79674 0.0
C1302 C 0.03492 0.28986 0.81319 0.0
C1303 C 0.04443 0.28074 0.8297 0.0
C1304 C 0.0656 0.27918 0.82983 0.0
H1305 H 0.5046 0.62959 0.47982 0.0
H1306 H 0.56972 0.62942 0.47419 0.0
H1307 H 0.5686 0.65916 0.45253 0.0
H1308 H 0.49384 0.64411 0.42968 0.0
H1309 H 0.47346 0.66021 0.43652 0.0
H1310 H 0.47926 0.63902 0.45192 0.0
H1311 H 0.48331 0.6629 0.48304 0.0
H1312 H 0.47747 0.68416 0.46774 0.0
H1313 H 0.50058 0.68434 0.48206 0.0
H1314 H 0.5605 0.68807 0.43058 0.0
H1315 H 0.54595 0.7147 0.41009 0.0
H1316 H 0.48617 0.69727 0.43097 0.0
C1317 C 0.51866 0.63594 0.47425 0.0
C1318 C 0.53725 0.62699 0.47864 0.0
C1319 C 0.55525 0.63569 0.47077 0.0
C1320 C 0.5548 0.65271 0.45857 0.0
C1321 C 0.53625 0.66102 0.45445 0.0
C1322 C 0.5185 0.65302 0.4621 0.0
C1323 C 0.50057 0.66478 0.45511 0.0
C1324 C 0.48592 0.65122 0.44256 0.0
C1325 C 0.48985 0.67463 0.47306 0.0
C1326 C 0.51102 0.68052 0.44222 0.0
C1327 C 0.5316 0.67804 0.44206 0.0
C1328 C 0.54442 0.69026 0.43069 0.0
C1329 C 0.53598 0.70533 0.41906 0.0
C1330 C 0.5149 0.70816 0.41891 0.0
C1331 C 0.50234 0.69566 0.43087 0.0
H1332 H 0.9138 0.78507 0.7597 0.0
H1333 H 0.89157 0.83727 0.7287 0.0
H1334 H 0.91838 0.83383 0.70351 0.0
H1335 H 0.96716 0.79231 0.74889 0.0
H1336 H 0.97078 0.7657 0.74471 0.0
H1337 H 0.95172 0.77399 0.76194 0.0
H1338 H 0.92461 0.75276 0.74215 0.0
H1339 H 0.94359 0.74431 0.725 0.0
H1340 H 0.92165 0.75649 0.71552 0.0
H1341 H 0.94663 0.82329 0.68024 0.0
H1342 H 0.97128 0.80481 0.65965 0.0
H1343 H 0.97261 0.75805 0.70445 0.0
C1344 C 0.91439 0.79585 0.74766 0.0
C1345 C 0.90041 0.81155 0.74646 0.0
C1346 C 0.90223 0.82537 0.73043 0.0
C1347 C 0.91741 0.82349 0.71591 0.0
C1348 C 0.93064 0.80762 0.71745 0.0
C1349 C 0.92913 0.79395 0.73285 0.0
C1350 C 0.94387 0.77711 0.73014 0.0
C1351 C 0.9593 0.7773 0.74745 0.0
C1352 C 0.93276 0.75646 0.72807 0.0
C1353 C 0.95367 0.78321 0.71059 0.0
C1354 C 0.94619 0.80108 0.70368 0.0
C1355 C 0.95266 0.80935 0.68559 0.0
C1356 C 0.96675 0.79881 0.67403 0.0
C1357 C 0.97388 0.78002 0.68045 0.0
C1358 C 0.96748 0.77241 0.69916 0.0
H1359 H 0.037 0.8938 0.55555 0.0
H1360 H 0.99099 0.87819 0.51081 0.0
H1361 H 0.98182 0.84763 0.52952 0.0
H1362 H 0.05315 0.84268 0.56189 0.0
H1363 H 0.05797 0.84596 0.58845 0.0
H1364 H 0.06035 0.86725 0.57207 0.0
H1365 H 0.03507 0.88673 0.59412 0.0
H1366 H 0.0325 0.86543 0.61049 0.0
H1367 H 0.01051 0.87557 0.59884 0.0
H1368 H 0.97724 0.81883 0.55309 0.0
H1369 H 0.97944 0.79234 0.57858 0.0
H1370 H 0.02979 0.82517 0.60689 0.0
C1371 C 0.02511 0.88393 0.54953 0.0
C1372 C 0.01455 0.88877 0.53177 0.0
C1373 C 0.99899 0.87531 0.52464 0.0
C1374 C 0.99372 0.85776 0.53509 0.0
C1375 C 0.00428 0.85361 0.55258 0.0
C1376 C 0.0198 0.86616 0.55965 0.0
C1377 C 0.02919 0.85776 0.57847 0.0
C1378 C 0.05149 0.85314 0.57501 0.0
C1379 C 0.02666 0.87224 0.59655 0.0
C1380 C 0.01654 0.83853 0.58082 0.0
C1381 C 1.00212 0.83656 0.56582 0.0
C1382 C 0.98851 0.82016 0.56487 0.0
C1383 C 0.98984 0.80523 0.57946 0.0
C1384 C 0.00479 0.80665 0.59471 0.0
C1385 C 0.01822 0.82363 0.5954 0.0
H1386 H 0.10406 0.70902 0.75462 0.0
H1387 H 0.15563 0.73193 0.72142 0.0
H1388 H 0.13309 0.7416 0.69369 0.0
H1389 H 0.07742 0.68766 0.71155 0.0
H1390 H 0.05291 0.69397 0.7209 0.0
H1391 H 0.07307 0.68934 0.73826 0.0
H1392 H 0.06814 0.72442 0.75512 0.0
H1393 H 0.04798 0.72916 0.73779 0.0
H1394 H 0.06915 0.74671 0.73994 0.0
H1395 H 0.10466 0.74971 0.67003 0.0
H1396 H 0.07286 0.75337 0.65116 0.0
H1397 H 0.04007 0.72362 0.69913 0.0
C1398 C 0.11055 0.71615 0.74153 0.0
C1399 C 0.13156 0.71981 0.74015 0.0
C1400 C 0.13958 0.72891 0.72269 0.0
C1401 C 0.12689 0.73453 0.70694 0.0
C1402 C 0.10624 0.73074 0.70876 0.0
C1403 C 0.09814 0.72157 0.72553 0.0
C1404 C 0.07551 0.71863 0.72349 0.0
C1405 C 0.06937 0.69606 0.72355 0.0
C1406 C 0.06456 0.73044 0.74007 0.0
C1407 C 0.07212 0.72767 0.70302 0.0
C1408 C 0.09 0.73474 0.69485 0.0
C1409 C 0.09058 0.74412 0.67624 0.0
C1410 C 0.07244 0.74619 0.66566 0.0
C1411 C 0.05397 0.7387 0.67359 0.0
C1412 C 0.05394 0.72934 0.69255 0.0
H1413 H 0.01684 0.63688 0.53727 0.0
H1414 H 0.95145 0.63171 0.53971 0.0
H1415 H 0.95099 0.66113 0.56253 0.0
H1416 H 0.02308 0.64876 0.58971 0.0
H1417 H 0.04385 0.66656 0.58684 0.0
H1418 H 0.04012 0.64602 0.56896 0.0
H1419 H 0.03874 0.67045 0.53942 0.0
H1420 H 0.0433 0.69138 0.55666 0.0
H1421 H 0.0216 0.69107 0.54028 0.0
H1422 H 0.95705 0.69241 0.58294 0.0
H1423 H 0.96969 0.72076 0.60443 0.0
H1424 H 0.0311 0.70353 0.59314 0.0
C1425 C 1.00239 0.64176 0.54266 0.0
C1426 C 0.98414 0.63204 0.53608 0.0
C1427 C 0.96565 0.63917 0.54369 0.0
C1428 C 0.96519 0.65583 0.55689 0.0
C1429 C 0.98335 0.66511 0.56277 0.0
C1430 C 1.00164 0.65819 0.55623 0.0
C1431 C 0.01896 0.67053 0.5657 0.0
C1432 C 0.03229 0.65719 0.57858 0.0
C1433 C 0.03138 0.68151 0.54955 0.0
C1434 C 0.00746 0.68538 0.5786 0.0
C1435 C 0.98692 0.68215 0.57629 0.0
C1436 C 0.97308 0.69471 0.58538 0.0
C1437 C 0.98037 0.71064 0.59769 0.0
C1438 C 1.00124 0.71349 0.60136 0.0
C1439 C 0.01502 0.70108 0.59121 0.0
H1440 H 0.77279 0.90579 0.23896 0.0
H1441 H 0.77808 0.90385 0.17392 0.0
H1442 H 0.80371 0.93153 0.17576 0.0
H1443 H 0.78018 0.96204 0.24376 0.0
H1444 H 0.79351 0.95983 0.26725 0.0
H1445 H 0.77409 0.94146 0.26024 0.0
H1446 H 0.79934 0.91438 0.26627 0.0
H1447 H 0.82075 0.93128 0.27028 0.0
H1448 H 0.8209 0.91231 0.25038 0.0
H1449 H 0.82798 0.96019 0.18459 0.0
H1450 H 0.85089 0.98628 0.20016 0.0
H1451 H 0.83236 0.96716 0.25935 0.0
C1452 C 0.779 0.91147 0.22506 0.0
C1453 C 0.77346 0.90257 0.2063 0.0
C1454 C 0.78227 0.91023 0.1885 0.0
C1455 C 0.79674 0.92605 0.18937 0.0
C1456 C 0.80217 0.93417 0.20813 0.0
C1457 C 0.79343 0.9273 0.22564 0.0
C1458 C 0.80244 0.93817 0.24393 0.0
C1459 C 0.78661 0.95115 0.25441 0.0
C1460 C 0.81146 0.92318 0.2586 0.0
C1461 C 0.81843 0.95136 0.23402 0.0
C1462 C 0.81746 0.9494 0.21331 0.0
C1463 C 0.82919 0.96159 0.20079 0.0
C1464 C 0.84217 0.97627 0.20969 0.0
C1465 C 0.84394 0.97794 0.23082 0.0
C1466 C 0.8319 0.9654 0.24313 0.0
H1467 H 0.78702 0.14218 0.29125 0.0
H1468 H 0.73883 0.10481 0.31591 0.0
H1469 H 0.76056 0.07513 0.31409 0.0
H1470 H 0.80334 0.10555 0.25574 0.0
H1471 H 0.82971 0.1124 0.2581 0.0
H1472 H 0.81101 0.13099 0.26295 0.0
H1473 H 0.82634 0.13796 0.29838 0.0
H1474 H 0.84505 0.1193 0.29364 0.0
H1475 H 0.82908 0.11732 0.3154 0.0
H1476 H 0.78703 0.04943 0.30875 0.0
H1477 H 0.81539 0.02877 0.2977 0.0
H1478 H 0.84611 0.08249 0.27525 0.0
C1479 C 0.7812 0.12778 0.2965 0.0
C1480 C 0.76133 0.12573 0.30383 0.0
C1481 C 0.75402 0.10662 0.3102 0.0
C1482 C 0.76627 0.08974 0.30934 0.0
C1483 C 0.78577 0.09221 0.30195 0.0
C1484 C 0.79316 0.11069 0.29547 0.0
C1485 C 0.81415 0.10891 0.28687 0.0
C1486 C 0.81456 0.11481 0.26459 0.0
C1487 C 0.82957 0.12163 0.29932 0.0
C1488 C 0.8173 0.08651 0.28931 0.0
C1489 C 0.80086 0.07723 0.29831 0.0
C1490 C 0.80002 0.05654 0.30175 0.0
C1491 C 0.81624 0.04493 0.29546 0.0
C1492 C 0.83299 0.054 0.28564 0.0
C1493 C 0.83359 0.07513 0.28282 0.0
H1494 H 0.36468 0.99403 0.97757 0.0
H1495 H 0.40279 0.96814 0.02278 0.0
H1496 H 0.37418 0.94621 0.03382 0.0
H1497 H 0.31729 0.99245 0.00583 0.0
H1498 H 0.30239 0.98526 0.98401 0.0
H1499 H 0.32516 1.00039 0.98122 0.0
H1500 H 0.33881 0.97399 0.95588 0.0
H1501 H 0.31607 0.95887 0.95852 0.0
H1502 H 0.34017 0.94797 0.96318 0.0
H1503 H 0.34173 0.92622 0.03891 0.0
H1504 H 0.30928 0.9073 0.03549 0.0
H1505 H 0.29295 0.9452 0.9857 0.0
C1506 C 0.3668 0.98395 0.99001 0.0
C1507 C 0.38571 0.98283 0.99957 0.0
C1508 C 0.38828 0.96919 0.01544 0.0
C1509 C 0.37213 0.9568 0.02183 0.0
C1510 C 0.35362 0.95815 0.01203 0.0
C1511 C 0.35094 0.97124 0.99632 0.0
C1512 C 0.33012 0.96849 0.98713 0.0
C1513 C 0.31803 0.9878 0.98971 0.0
C1514 C 0.33138 0.96193 0.96487 0.0
C1515 C 0.3216 0.95163 0.99993 0.0
C1516 C 0.33522 0.94611 0.01444 0.0
C1517 C 0.3309 0.93048 0.02766 0.0
C1518 C 0.31237 0.91988 0.02566 0.0
C1519 C 0.29851 0.92474 0.01034 0.0
C1520 C 0.30315 0.94111 0.99761 0.0
H1521 H 0.21815 0.37873 0.26743 0.0
H1522 H 0.23827 0.39651 0.32749 0.0
H1523 H 0.2165 0.42603 0.32665 0.0
H1524 H 0.21606 0.42828 0.24766 0.0
H1525 H 0.19361 0.42329 0.23287 0.0
H1526 H 0.21019 0.40305 0.23839 0.0
H1527 H 0.18043 0.38268 0.25393 0.0
H1528 H 0.16375 0.40289 0.24848 0.0
H1529 H 0.16596 0.39397 0.27382 0.0
H1530 H 0.19481 0.45481 0.31852 0.0
H1531 H 0.17293 0.48045 0.3042 0.0
H1532 H 0.16504 0.44363 0.25001 0.0
C1533 C 0.21787 0.38882 0.28041 0.0
C1534 C 0.22984 0.38528 0.29758 0.0
C1535 C 0.22904 0.39877 0.3143 0.0
C1536 C 0.21678 0.41562 0.31393 0.0
C1537 C 0.20522 0.41871 0.29681 0.0
C1538 C 0.20548 0.40563 0.2804 0.0
C1539 C 0.19167 0.41265 0.26383 0.0
C1540 C 0.2036 0.41708 0.24455 0.0
C1541 C 0.17443 0.39712 0.25978 0.0
C1542 C 0.18392 0.4319 0.27337 0.0
C1543 C 0.19203 0.43508 0.29238 0.0
C1544 C 0.18814 0.45236 0.30377 0.0
C1545 C 0.17574 0.46685 0.2955 0.0
C1546 C 0.16715 0.46389 0.27613 0.0
C1547 C 0.17111 0.44606 0.26502 0.0
H1548 H 0.13349 0.03811 0.51635 0.0
H1549 H 0.13071 0.035 0.45115 0.0
H1550 H 0.16247 0.05494 0.44933 0.0
H1551 H 0.15013 0.08701 0.52122 0.0
H1552 H 0.16849 0.08498 0.54107 0.0
H1553 H 0.14738 0.06736 0.53931 0.0
H1554 H 0.16933 0.03651 0.53724 0.0
H1555 H 0.19116 0.05298 0.54094 0.0
H1556 H 0.18985 0.03579 0.51963 0.0
H1557 H 0.19388 0.07509 0.45406 0.0
H1558 H 0.22225 0.0974 0.46514 0.0
H1559 H 0.2046 0.08988 0.52729 0.0
C1560 C 0.13982 0.04134 0.50174 0.0
C1561 C 0.1296 0.03508 0.48387 0.0
C1562 C 0.13817 0.03982 0.46501 0.0
C1563 C 0.15628 0.051 0.46381 0.0
C1564 C 0.16578 0.05726 0.48161 0.0
C1565 C 0.15798 0.05261 0.50025 0.0
C1566 C 0.1709 0.06221 0.51696 0.0
C1567 C 0.15852 0.07625 0.53043 0.0
C1568 C 0.1809 0.0459 0.52943 0.0
C1569 C 0.18647 0.07384 0.5047 0.0
C1570 C 0.18351 0.07013 0.48437 0.0
C1571 C 0.19622 0.07835 0.46991 0.0
C1572 C 0.21216 0.09113 0.47632 0.0
C1573 C 0.21493 0.09606 0.49692 0.0
C1574 C 0.20233 0.08681 0.51138 0.0
H1575 H 0.73898 0.0962 0.68733 0.0
H1576 H 0.75055 0.12372 0.74606 0.0
H1577 H 0.72438 0.10148 0.76083 0.0
H1578 H 0.68612 0.08962 0.69181 0.0
H1579 H 0.68346 0.06472 0.68051 0.0
H1580 H 0.70363 0.0817 0.67297 0.0
H1581 H 0.73094 0.05694 0.68165 0.0
H1582 H 0.71155 0.03855 0.68786 0.0
H1583 H 0.73102 0.04526 0.70592 0.0
H1584 H 0.69913 0.07545 0.76982 0.0
H1585 H 0.6736 0.04795 0.7724 0.0
H1586 H 0.67673 0.03694 0.70806 0.0
C1587 C 0.73581 0.09756 0.70324 0.0
C1588 C 0.74673 0.11161 0.71563 0.0
C1589 C 0.74239 0.11294 0.73641 0.0
C1590 C 0.72757 0.10041 0.74492 0.0
C1591 C 0.71728 0.08651 0.73246 0.0
C1592 C 0.72113 0.0849 0.71209 0.0
C1593 C 0.7081 0.06815 0.70239 0.0
C1594 C 0.69449 0.07653 0.68596 0.0
C1595 C 0.72119 0.05122 0.69396 0.0
C1596 C 0.69607 0.06099 0.72044 0.0
C1597 C 0.70193 0.07168 0.73763 0.0
C1598 C 0.69409 0.06723 0.75644 0.0
C1599 C 0.67954 0.05168 0.75774 0.0
C1600 C 0.67262 0.04103 0.74033 0.0
C1601 C 0.68135 0.04536 0.72148 0.0
H1602 H 0.38612 0.04644 0.53802 0.0
H1603 H 0.38994 0.01983 0.47806 0.0
H1604 H 0.36109 0.03962 0.46729 0.0
H1605 H 0.33273 0.04802 0.54051 0.0
H1606 H 0.33244 0.07206 0.5536 0.0
H1607 H 0.35351 0.05585 0.55662 0.0
H1608 H 0.37785 0.08474 0.5454 0.0
H1609 H 0.35685 0.10106 0.54238 0.0
H1610 H 0.37367 0.0967 0.52166 0.0
H1611 H 0.33094 0.0615 0.46328 0.0
H1612 H 0.30248 0.08466 0.46621 0.0
H1613 H 0.31948 0.09829 0.52815 0.0
C1614 C 0.3811 0.04493 0.52255 0.0
C1615 C 0.3903 0.03136 0.50898 0.0
C1616 C 0.38296 0.02974 0.48892 0.0
C1617 C 0.36665 0.04106 0.48258 0.0
C1618 C 0.35788 0.05414 0.49638 0.0
C1619 C 0.36493 0.05624 0.51591 0.0
C1620 C 0.35278 0.07133 0.52777 0.0
C1621 C 0.34224 0.06121 0.54568 0.0
C1622 C 0.36608 0.08954 0.53471 0.0
C1623 C 0.33772 0.07726 0.51191 0.0
C1624 C 0.34087 0.06714 0.49391 0.0
C1625 C 0.32842 0.06964 0.47725 0.0
C1626 C 0.31229 0.08279 0.47906 0.0
C1627 C 0.30885 0.09338 0.49734 0.0
C1628 C 0.32185 0.0906 0.51389 0.0
H1629 H 0.63446 0.47771 0.50147 0.0
H1630 H 0.63677 0.4804 0.56673 0.0
H1631 H 0.66747 0.46041 0.56626 0.0
H1632 H 0.65082 0.42719 0.49576 0.0
H1633 H 0.66579 0.43199 0.47372 0.0
H1634 H 0.64426 0.44709 0.47899 0.0
H1635 H 0.66683 0.4796 0.47781 0.0
H1636 H 0.68844 0.46458 0.47252 0.0
H1637 H 0.68884 0.48192 0.49373 0.0
H1638 H 0.69693 0.43924 0.55906 0.0
H1639 H 0.7236 0.4179 0.54555 0.0
H1640 H 0.70327 0.42946 0.48476 0.0
C1641 C 0.64156 0.47429 0.51564 0.0
C1642 C 0.63309 0.48053 0.53416 0.0
C1643 C 0.64273 0.47551 0.55238 0.0
C1644 C 0.66029 0.4643 0.55227 0.0
C1645 C 0.66814 0.45829 0.53382 0.0
C1646 C 0.65917 0.4631 0.51582 0.0
C1647 C 0.67053 0.45428 0.49813 0.0
C1648 C 0.65704 0.43924 0.48593 0.0
C1649 C 0.67917 0.4711 0.48476 0.0
C1650 C 0.68714 0.44359 0.50904 0.0
C1651 C 0.68545 0.44618 0.52962 0.0
C1652 C 0.6985 0.4372 0.54297 0.0
C1653 C 0.71359 0.42506 0.53512 0.0
C1654 C 0.71559 0.42199 0.51408 0.0
C1655 C 0.70229 0.43165 0.5009 0.0
H1656 H 0.73569 0.27299 0.40326 0.0
H1657 H 0.67089 0.27989 0.40104 0.0
H1658 H 0.67342 0.30485 0.42892 0.0
H1659 H 0.73922 0.27908 0.4599 0.0
H1660 H 0.76355 0.29165 0.458 0.0
H1661 H 0.7559 0.27256 0.43966 0.0
H1662 H 0.76448 0.29787 0.41305 0.0
H1663 H 0.76876 0.31944 0.42952 0.0
H1664 H 0.74952 0.31966 0.41016 0.0
H1665 H 0.68286 0.32857 0.45754 0.0
H1666 H 0.69903 0.35142 0.48314 0.0
H1667 H 0.75774 0.33143 0.46465 0.0
C1668 C 0.72194 0.27934 0.40892 0.0
C1669 C 0.7031 0.27453 0.39976 0.0
C1670 C 0.68557 0.28357 0.40748 0.0
C1671 C 0.6868 0.29762 0.42348 0.0
C1672 C 0.70564 0.30231 0.43184 0.0
C1673 C 0.72287 0.29324 0.42503 0.0
C1674 C 0.74137 0.30159 0.43611 0.0
C1675 C 0.75055 0.28525 0.4492 0.0
C1676 C 0.75699 0.31023 0.42139 0.0
C1677 C 0.73201 0.31782 0.44913 0.0
C1678 C 0.71127 0.31731 0.4471 0.0
C1679 C 0.69909 0.32938 0.45903 0.0
C1680 C 0.70834 0.3423 0.47345 0.0
C1681 C 0.72954 0.34371 0.47513 0.0
C1682 C 0.74151 0.33123 0.46292 0.0
H1683 H 0.5329 0.04181 0.87254 0.0
H1684 H 0.53287 0.97985 0.89267 0.0
H1685 H 0.55364 0.97042 0.86335 0.0
H1686 H 0.5302 0.03046 0.81932 0.0
H1687 H 0.54664 0.05143 0.81278 0.0
H1688 H 0.53126 0.05297 0.83496 0.0
H1689 H 0.56308 0.06102 0.85669 0.0
H1690 H 0.57854 0.05955 0.83458 0.0
H1691 H 0.58379 0.04402 0.85585 0.0
H1692 H 0.57596 0.96831 0.83223 0.0
H1693 H 0.59727 0.9737 0.80224 0.0
H1694 H 0.58201 0.03705 0.80303 0.0
C1695 C 0.53731 0.02625 0.87086 0.0
C1696 C 0.53128 0.01158 0.88495 0.0
C1697 C 0.53714 0.99133 0.88198 0.0
C1698 C 0.549 0.98585 0.86541 0.0
C1699 C 0.55479 1.00076 0.85188 0.0
C1700 C 0.54905 0.02054 0.85444 0.0
C1701 C 0.55742 0.03382 0.83802 0.0
C1702 C 0.54036 0.04269 0.82553 0.0
C1703 C 0.57155 0.05059 0.84681 0.0
C1704 C 0.56895 0.0185 0.82589 0.0
C1705 C 0.56728 0.9995 0.83404 0.0
C1706 C 0.57724 0.98312 0.82565 0.0
C1707 C 0.58931 0.98632 0.8086 0.0
C1708 C 0.59129 0.00576 0.8001 0.0
C1709 C 0.58075 0.02192 0.8089 0.0
H1710 H 0.2776 0.25547 0.40459 0.0
H1711 H 0.3311 0.22764 0.38064 0.0
H1712 H 0.32968 0.20282 0.40779 0.0
H1713 H 0.28672 0.24658 0.4578 0.0
H1714 H 0.26057 0.24068 0.4627 0.0
H1715 H 0.26738 0.25799 0.4431 0.0
H1716 H 0.24678 0.23606 0.41721 0.0
H1717 H 0.2398 0.21881 0.43675 0.0
H1718 H 0.25198 0.20959 0.41437 0.0
H1719 H 0.321 0.17934 0.43648 0.0
H1720 H 0.30419 0.15795 0.46196 0.0
H1721 H 0.25532 0.19994 0.46522 0.0
C1722 C 0.28908 0.24422 0.40493 0.0
C1723 C 0.30456 0.24378 0.39038 0.0
C1724 C 0.31933 0.22877 0.39177 0.0
C1725 C 0.31862 0.21448 0.40713 0.0
C1726 C 0.30299 0.21524 0.421 0.0
C1727 C 0.28841 0.22966 0.41992 0.0
C1728 C 0.27216 0.22619 0.43546 0.0
C1729 C 0.27169 0.24392 0.45067 0.0
C1730 C 0.25146 0.22243 0.42534 0.0
C1731 C 0.2796 0.20729 0.44516 0.0
C1732 C 0.29761 0.20139 0.43694 0.0
C1733 C 0.30697 0.18392 0.44312 0.0
C1734 C 0.29737 0.17191 0.45767 0.0
C1735 C 0.27847 0.17729 0.46559 0.0
C1736 C 0.26979 0.19545 0.45949 0.0
H1737 H 0.48345 0.46636 0.8764 0.0
H1738 H 0.48175 0.52718 0.90152 0.0
H1739 H 0.46131 0.5376 0.87254 0.0
H1740 H 0.48756 0.48041 0.82473 0.0
H1741 H 0.47171 0.4597 0.81552 0.0
H1742 H 0.48614 0.45706 0.83826 0.0
H1743 H 0.45355 0.44753 0.85765 0.0
H1744 H 0.43905 0.45 0.83494 0.0
H1745 H 0.43263 0.46428 0.8572 0.0
H1746 H 0.44038 0.54116 0.84073 0.0
H1747 H 0.42054 0.53728 0.80923 0.0
H1748 H 0.43669 0.47424 0.80518 0.0
C1749 C 0.47863 0.48183 0.87592 0.0
C1750 C 0.48423 0.49595 0.89124 0.0
C1751 C 0.47783 0.51613 0.88985 0.0
C1752 C 0.46616 0.52219 0.87348 0.0
C1753 C 0.46105 0.50791 0.85855 0.0
C1754 C 0.46707 0.48814 0.85966 0.0
C1755 C 0.45961 0.47572 0.84168 0.0
C1756 C 0.47731 0.46776 0.82932 0.0
C1757 C 0.44536 0.45836 0.84827 0.0
C1758 C 0.44837 0.49154 0.83034 0.0
C1759 C 0.44934 0.51003 0.84026 0.0
C1760 C 0.43961 0.52676 0.83279 0.0
C1761 C 0.4284 0.52442 0.81485 0.0
C1762 C 0.42708 0.50551 0.80455 0.0
C1763 C 0.43746 0.489 0.81244 0.0
H1764 H 0.70648 0.73851 0.11352 0.0
H1765 H 0.76173 0.7298 0.14687 0.0
H1766 H 0.7723 0.70484 0.12128 0.0
H1767 H 0.69881 0.6861 0.09644 0.0
H1768 H 0.68948 0.69299 0.07209 0.0
H1769 H 0.6858 0.7094 0.09357 0.0
H1770 H 0.7032 0.73897 0.07471 0.0
H1771 H 0.70704 0.72263 0.05323 0.0
H1772 H 0.7282 0.73596 0.06486 0.0
H1773 H 0.77727 0.68156 0.09174 0.0
H1774 H 0.77637 0.66142 0.06022 0.0
H1775 H 0.71807 0.68563 0.04567 0.0
C1776 C 0.72064 0.7311 0.11557 0.0
C1777 C 0.73329 0.73604 0.13218 0.0
C1778 C 0.75189 0.72631 0.13418 0.0
C1779 C 0.75798 0.71207 0.11977 0.0
C1780 C 0.74532 0.70777 0.10342 0.0
C1781 C 0.72702 0.71694 0.10123 0.0
C1782 C 0.71659 0.71008 0.08188 0.0
C1783 C 0.69648 0.69898 0.08627 0.0
C1784 C 0.71359 0.72798 0.06785 0.0
C1785 C 0.73194 0.69573 0.07349 0.0
C1786 C 0.74834 0.69454 0.0862 0.0
C1787 C 0.76448 0.68233 0.08167 0.0
C1788 C 0.76383 0.67094 0.0637 0.0
C1789 C 0.74718 0.67192 0.05037 0.0
C1790 C 0.73107 0.68457 0.05542 0.0
H1791 H 0.98084 0.01092 0.13755 0.0
H1792 H 0.97651 0.07613 0.13497 0.0
H1793 H 0.95473 0.07572 0.16489 0.0
H1794 H 0.93038 1.00035 0.15307 0.0
H1795 H 0.93693 0.98034 0.16969 0.0
H1796 H 0.95235 0.98572 0.14813 0.0
H1797 H 0.98369 0.99046 0.17124 0.0
H1798 H 0.96837 0.98509 0.19289 0.0
H1799 H 0.98315 0.00831 0.192 0.0
H1800 H 0.93265 0.06819 0.19453 0.0
H1801 H 0.91194 0.05405 0.22188 0.0
H1802 H 0.93185 0.99393 0.20613 0.0
C1803 C 0.97552 0.02516 0.14338 0.0
C1804 C 0.98035 0.04356 0.13376 0.0
C1805 C 0.97277 0.06179 0.14179 0.0
C1806 C 0.96051 0.06174 0.1589 0.0
C1807 C 0.95603 0.04336 0.16795 0.0
C1808 C 0.96334 0.02541 0.16052 0.0
C1809 C 0.95607 0.00771 0.17298 0.0
C1810 C 0.94317 0.99265 0.1602 0.0
C1811 C 0.97388 0.99728 0.18287 0.0
C1812 C 0.94345 0.01852 0.18849 0.0
C1813 C 0.94361 0.03907 0.1853 0.0
C1814 C 0.93251 0.05213 0.19726 0.0
C1815 C 0.92077 0.04393 0.21276 0.0
C1816 C 0.92026 0.02287 0.21626 0.0
C1817 C 0.932 0.0101 0.20403 0.0
H1818 H 0.30519 0.75862 0.09811 0.0
H1819 H 0.31606 0.79785 0.15022 0.0
H1820 H 0.30931 0.82755 0.12972 0.0
H1821 H 0.3273 0.79329 0.06079 0.0
H1822 H 0.30866 0.78652 0.04188 0.0
H1823 H 0.31582 0.76829 0.06021 0.0
H1824 H 0.27849 0.76339 0.07064 0.0
H1825 H 0.27123 0.78155 0.05234 0.0
H1826 H 0.26444 0.78507 0.07835 0.0
H1827 H 0.29789 0.85245 0.10503 0.0
H1828 H 0.28382 0.87145 0.07687 0.0
H1829 H 0.28185 0.81694 0.0398 0.0
C1830 C 0.30633 0.77349 0.10512 0.0
C1831 C 0.31132 0.77593 0.12575 0.0
C1832 C 0.31263 0.79563 0.13439 0.0
C1833 C 0.30874 0.8126 0.12288 0.0
C1834 C 0.30375 0.80968 0.10267 0.0
C1835 C 0.30269 0.79068 0.09377 0.0
C1836 C 0.29626 0.7918 0.07189 0.0
C1837 C 0.31301 0.78455 0.05787 0.0
C1838 C 0.27643 0.77974 0.06809 0.0
C1839 C 0.29338 0.81434 0.07008 0.0
C1840 C 0.29781 0.82432 0.08806 0.0
C1841 C 0.29476 0.8449 0.09075 0.0
C1842 C 0.28675 0.85555 0.07472 0.0
C1843 C 0.28214 0.84568 0.05617 0.0
C1844 C 0.28581 0.82489 0.05369 0.0
H1845 H 0.04369 0.47176 0.13547 0.0
H1846 H 0.01218 0.52811 0.13061 0.0
H1847 H 0.0297 0.5413 0.16087 0.0
H1848 H 0.04461 0.46965 0.18956 0.0
H1849 H 0.06974 0.46018 0.19097 0.0
H1850 H 0.05425 0.45452 0.16917 0.0
H1851 H 0.08193 0.46969 0.14613 0.0
H1852 H 0.09755 0.47526 0.16784 0.0
H1853 H 0.09136 0.49512 0.15089 0.0
H1854 H 0.05011 0.5486 0.19148 0.0
H1855 H 0.07418 0.5507 0.21956 0.0
H1856 H 0.09435 0.49046 0.20433 0.0
C1857 C 0.04055 0.48692 0.14066 0.0
C1858 C 0.02619 0.4987 0.13071 0.0
C1859 C 0.0226 0.51847 0.13817 0.0
C1860 C 0.0326 0.5262 0.15532 0.0
C1861 C 0.04638 0.51413 0.16485 0.0
C1862 C 0.05058 0.49501 0.15774 0.0
C1863 C 0.06662 0.48554 0.1706 0.0
C1864 C 0.0583 0.46634 0.18067 0.0
C1865 C 0.08548 0.48115 0.15812 0.0
C1866 C 0.07075 0.50238 0.18598 0.0
C1867 C 0.05874 0.51863 0.1824 0.0
C1868 C 0.05965 0.53601 0.19443 0.0
C1869 C 0.07341 0.537 0.21042 0.0
C1870 C 0.08631 0.52077 0.21427 0.0
C1871 C 0.08475 0.50314 0.2019 0.0
H1872 H 0.3999 0.73478 0.273 0.0
H1873 H 0.39616 0.66936 0.27623 0.0
H1874 H 0.42245 0.67043 0.30259 0.0
H1875 H 0.45515 0.73855 0.28076 0.0
H1876 H 0.45346 0.762 0.29473 0.0
H1877 H 0.43525 0.75559 0.27533 0.0
H1878 H 0.40795 0.76165 0.30094 0.0
H1879 H 0.42467 0.76525 0.32216 0.0
H1880 H 0.40524 0.74557 0.32217 0.0
H1881 H 0.45092 0.67848 0.32679 0.0
H1882 H 0.47739 0.69331 0.34942 0.0
H1883 H 0.46019 0.75338 0.33293 0.0
C1884 C 0.40478 0.72064 0.27903 0.0
C1885 C 0.39585 0.70199 0.27257 0.0
C1886 C 0.40251 0.68387 0.28113 0.0
C1887 C 0.41756 0.6843 0.296 0.0
C1888 C 0.42588 0.70295 0.30212 0.0
C1889 C 0.41982 0.72078 0.29383 0.0
C1890 C 0.43104 0.73884 0.30322 0.0
C1891 C 0.44453 0.74936 0.28758 0.0
C1892 C 0.41639 0.75372 0.31275 0.0
C1893 C 0.44364 0.72843 0.3188 0.0
C1894 C 0.44099 0.70767 0.31738 0.0
C1895 C 0.45277 0.69471 0.32843 0.0
C1896 C 0.4677 0.7032 0.34123 0.0
C1897 C 0.47003 0.72437 0.34351 0.0
C1898 C 0.45792 0.73713 0.33212 0.0
H1899 H 0.96974 0.37792 0.96567 0.0
H1900 H 0.02946 0.37809 0.99282 0.0
H1901 H 0.03852 0.35004 0.97022 0.0
H1902 H 0.96408 0.32405 0.96379 0.0
H1903 H 0.94988 0.3237 0.94062 0.0
H1904 H 0.94882 0.34515 0.95753 0.0
H1905 H 0.96 0.36873 0.9287 0.0
H1906 H 0.96126 0.34731 0.91173 0.0
H1907 H 0.98301 0.36389 0.9154 0.0
H1908 H 0.04114 0.32162 0.94412 0.0
H1909 H 0.03562 0.2931 0.91987 0.0
H1910 H 0.97313 0.30919 0.91347 0.0
C1911 C 0.98469 0.37207 0.96723 0.0
C1912 C 0.99886 0.38067 0.98114 0.0
C1913 C 0.01836 0.37241 0.98205 0.0
C1914 C 0.02366 0.35628 0.96932 0.0
C1915 C 0.00926 0.34823 0.95593 0.0
C1916 C 0.99007 0.35566 0.95507 0.0
C1917 C 0.97688 0.34349 0.94042 0.0
C1918 C 0.95885 0.3335 0.95124 0.0
C1919 C 0.96988 0.35664 0.92303 0.0
C1920 C 0.99161 0.32798 0.93323 0.0
C1921 C 0.01035 0.33116 0.94201 0.0
C1922 C 0.02649 0.31893 0.93726 0.0
C1923 C 0.02326 0.30284 0.92343 0.0
C1924 C 0.00395 0.29891 0.91491 0.0
C1925 C 0.98802 0.31175 0.91985 0.0
H1926 H 0.63358 0.78103 0.28288 0.0
H1927 H 0.60612 0.83135 0.25346 0.0
H1928 H 0.57659 0.82797 0.27584 0.0
H1929 H 0.58862 0.75125 0.2896 0.0
H1930 H 0.59586 0.74226 0.31394 0.0
H1931 H 0.61488 0.74901 0.29587 0.0
H1932 H 0.63146 0.77406 0.32179 0.0
H1933 H 0.61244 0.76742 0.33993 0.0
H1934 H 0.61655 0.79345 0.33319 0.0
H1935 H 0.54922 0.81775 0.30032 0.0
H1936 H 0.52683 0.80238 0.32585 0.0
H1937 H 0.57296 0.75972 0.34005 0.0
C1938 C 0.62132 0.79131 0.28114 0.0
C1939 C 0.62208 0.80642 0.26641 0.0
C1940 C 0.60588 0.81976 0.26474 0.0
C1941 C 0.58904 0.81791 0.27734 0.0
C1942 C 0.58874 0.8028 0.29167 0.0
C1943 C 0.60453 0.78982 0.29373 0.0
C1944 C 0.60054 0.77487 0.3103 0.0
C1945 C 0.59993 0.75306 0.30192 0.0
C1946 C 0.61618 0.77763 0.32731 0.0
C1947 C 0.57991 0.78126 0.31708 0.0
C1948 C 0.57332 0.79735 0.30612 0.0
C1949 C 0.55431 0.80529 0.30913 0.0
C1950 C 0.5417 0.79646 0.32364 0.0
C1951 C 0.54823 0.78001 0.33505 0.0
C1952 C 0.56766 0.77249 0.33178 0.0
H1953 H 0.01249 0.14481 0.99206 0.0
H1954 H 0.06283 0.11907 0.95993 0.0
H1955 H 0.06093 0.14579 0.93494 0.0
H1956 H 0.98455 0.1564 0.9473 0.0
H1957 H 0.97464 0.17935 0.95773 0.0
H1958 H 0.98069 0.15892 0.97403 0.0
H1959 H 0.00409 0.1832 0.99503 0.0
H1960 H 0.99821 0.20367 0.97872 0.0
H1961 H 0.02406 0.19713 0.9827 0.0
H1962 H 0.05389 0.1751 0.91338 0.0
H1963 H 0.04034 0.20358 0.89492 0.0
H1964 H 0.99281 0.20909 0.93922 0.0
C1965 C 0.02306 0.14461 0.97973 0.0
C1966 C 0.03807 0.12985 0.97834 0.0
C1967 C 0.05159 0.13044 0.96188 0.0
C1968 C 0.05055 0.14551 0.94743 0.0
C1969 C 0.03571 0.1598 0.94938 0.0
C1970 C 0.02203 0.15937 0.96494 0.0
C1971 C 0.00696 0.17603 0.96291 0.0
C1972 C 0.98544 0.16714 0.96033 0.0
C1973 C 0.00843 0.19088 0.98091 0.0
C1974 C 0.01435 0.18584 0.94377 0.0
C1975 C 0.03109 0.17634 0.93638 0.0
C1976 C 0.04075 0.18265 0.91897 0.0
C1977 C 0.03294 0.19893 0.90863 0.0
C1978 C 0.01547 0.20866 0.91557 0.0
C1979 C 0.00616 0.20202 0.93349 0.0
H1980 H 0.37169 0.28143 0.22004 0.0
H1981 H 0.40564 0.32909 0.25151 0.0
H1982 H 0.4344 0.32415 0.22846 0.0
H1983 H 0.41246 0.24906 0.21436 0.0
H1984 H 0.4048 0.23928 0.18996 0.0
H1985 H 0.38621 0.24827 0.20729 0.0
H1986 H 0.37358 0.27298 0.18051 0.0
H1987 H 0.39218 0.26405 0.16309 0.0
H1988 H 0.39118 0.29061 0.16926 0.0
H1989 H 0.45986 0.31299 0.20259 0.0
H1990 H 0.48099 0.29459 0.17824 0.0
H1991 H 0.43084 0.25291 0.16525 0.0
C1992 C 0.38506 0.29106 0.22175 0.0
C1993 C 0.38647 0.30584 0.23726 0.0
C1994 C 0.40434 0.31781 0.23955 0.0
C1995 C 0.42066 0.31516 0.22651 0.0
C1996 C 0.4189 0.3003 0.21142 0.0
C1997 C 0.40159 0.28834 0.20911 0.0
C1998 C 0.40414 0.27227 0.19294 0.0
C1999 C 0.40177 0.25096 0.20167 0.0
C2000 C 0.38939 0.27516 0.17541 0.0
C2001 C 0.42565 0.27684 0.18669 0.0
C2002 C 0.43381 0.29329 0.19724 0.0
C2003 C 0.45361 0.30012 0.1942 0.0
C2004 C 0.46547 0.28963 0.1803 0.0
C2005 C 0.4576 0.27229 0.16989 0.0
C2006 C 0.43733 0.26607 0.17301 0.0
H2007 H 0.51137 0.36533 0.02285 0.0
H2008 H 0.54214 0.40731 0.06423 0.0
H2009 H 0.53813 0.38286 0.09145 0.0
H2010 H 0.47517 0.34457 0.06009 0.0
H2011 H 0.47608 0.31926 0.04978 0.0
H2012 H 0.47994 0.34062 0.03367 0.0
H2013 H 0.51414 0.32656 0.02235 0.0
H2014 H 0.51045 0.30524 0.03848 0.0
H2015 H 0.53286 0.32108 0.04103 0.0
H2016 H 0.53382 0.35335 0.1133 0.0
H2017 H 0.52783 0.32053 0.12938 0.0
H2018 H 0.49861 0.29721 0.07493 0.0
C2019 C 0.5169 0.36947 0.03775 0.0
C2020 C 0.52723 0.38818 0.04138 0.0
C2021 C 0.53445 0.39297 0.06102 0.0
C2022 C 0.53215 0.37923 0.07662 0.0
C2023 C 0.5224 0.36075 0.07247 0.0
C2024 C 0.5147 0.35584 0.05362 0.0
C2025 C 0.50559 0.33452 0.05322 0.0
C2026 C 0.48284 0.33476 0.04894 0.0
C2027 C 0.51641 0.32106 0.03786 0.0
C2028 C 0.5098 0.32817 0.07464 0.0
C2029 C 0.51948 0.34362 0.08542 0.0
C2030 C 0.526 0.34121 0.10513 0.0
C2031 C 0.52261 0.32247 0.1141 0.0
C2032 C 0.51266 0.30637 0.10346 0.0
C2033 C 0.50599 0.30935 0.08351 0.0
H2034 H 0.6211 0.22646 0.22506 0.0
H2035 H 0.58781 0.19964 0.27426 0.0
H2036 H 0.55645 0.20041 0.25417 0.0
H2037 H 0.58262 0.26056 0.21076 0.0
H2038 H 0.58747 0.25832 0.18418 0.0
H2039 H 0.6075 0.25483 0.20201 0.0
H2040 H 0.61396 0.21953 0.18633 0.0
H2041 H 0.59397 0.22294 0.16842 0.0
H2042 H 0.59347 0.20115 0.18429 0.0
H2043 H 0.52893 0.20362 0.22874 0.0
H2044 H 0.50645 0.21085 0.20031 0.0
H2045 H 0.55709 0.23733 0.16803 0.0
C2046 C 0.60721 0.22062 0.23147 0.0
C2047 C 0.60681 0.2129 0.25115 0.0
C2048 C 0.58835 0.20566 0.25923 0.0
C2049 C 0.57051 0.20598 0.24792 0.0
C2050 C 0.57135 0.21379 0.22862 0.0
C2051 C 0.58916 0.22113 0.22048 0.0
C2052 C 0.58571 0.22942 0.19967 0.0
C2053 C 0.59114 0.25213 0.19913 0.0
C2054 C 0.59747 0.21755 0.18374 0.0
C2055 C 0.56319 0.22556 0.19739 0.0
C2056 C 0.55527 0.21635 0.2142 0.0
C2057 C 0.53492 0.21091 0.21552 0.0
C2058 C 0.52229 0.21504 0.19926 0.0
C2059 C 0.52996 0.22475 0.18197 0.0
C2060 C 0.55072 0.23008 0.18111 0.0
H2061 H 0.47523 0.14915 0.02177 0.0
H2062 H 0.52513 0.11266 0.03992 0.0
H2063 H 0.53457 0.1381 0.06614 0.0
H2064 H 0.50321 0.19928 0.03242 0.0
H2065 H 0.48018 0.21086 0.04013 0.0
H2066 H 0.4796 0.19116 0.02107 0.0
H2067 H 0.45302 0.17371 0.04167 0.0
H2068 H 0.45491 0.1897 0.06381 0.0
H2069 H 0.45942 0.16291 0.06519 0.0
H2070 H 0.53853 0.1673 0.09034 0.0
H2071 H 0.53563 0.19756 0.11239 0.0
H2072 H 0.4813 0.21355 0.08093 0.0
C2073 C 0.48833 0.14672 0.03108 0.0
C2074 C 0.4995 0.12898 0.02882 0.0
C2075 C 0.51653 0.12626 0.04126 0.0
C2076 C 0.52199 0.14061 0.05619 0.0
C2077 C 0.51045 0.15775 0.05828 0.0
C2078 C 0.49421 0.16108 0.04584 0.0
C2079 C 0.48396 0.18047 0.05175 0.0
C2080 C 0.48692 0.19638 0.03537 0.0
C2081 C 0.46149 0.17653 0.05593 0.0
C2082 C 0.49587 0.18652 0.07056 0.0
C2083 C 0.51168 0.17371 0.07342 0.0
C2084 C 0.52605 0.17725 0.08849 0.0
C2085 C 0.52427 0.19437 0.10095 0.0
C2086 C 0.50778 0.20718 0.09886 0.0
C2087 C 0.49349 0.20333 0.08338 0.0
H2088 H 0.278 0.41237 0.69515 0.0
H2089 H 0.27144 0.38645 0.75434 0.0
H2090 H 0.29694 0.41082 0.76784 0.0
H2091 H 0.32972 0.42051 0.69693 0.0
H2092 H 0.3318 0.44507 0.68563 0.0
H2093 H 0.31127 0.42784 0.6789 0.0
H2094 H 0.28396 0.45206 0.68906 0.0
H2095 H 0.30335 0.47111 0.69401 0.0
H2096 H 0.28523 0.46486 0.71319 0.0
H2097 H 0.32176 0.43803 0.77539 0.0
H2098 H 0.34716 0.46577 0.7764 0.0
H2099 H 0.33971 0.47411 0.71229 0.0
C2100 C 0.28198 0.41188 0.71093 0.0
C2101 C 0.27264 0.39763 0.72376 0.0
C2102 C 0.27818 0.39743 0.74434 0.0
C2103 C 0.29267 0.41117 0.75213 0.0
C2104 C 0.30144 0.42512 0.7392 0.0
C2105 C 0.29635 0.4257 0.71907 0.0
C2106 C 0.30836 0.44228 0.70857 0.0
C2107 C 0.32108 0.43343 0.6915 0.0
C2108 C 0.29439 0.45854 0.70075 0.0
C2109 C 0.32136 0.45049 0.72589 0.0
C2110 C 0.31672 0.44051 0.74344 0.0
C2111 C 0.32576 0.44578 0.76173 0.0
C2112 C 0.34024 0.46146 0.76212 0.0
C2113 C 0.3459 0.47145 0.7443 0.0
C2114 C 0.336 0.46627 0.726 0.0
H2115 H 0.26145 0.59955 0.80105 0.0
H2116 H 0.30033 0.6523 0.81243 0.0
H2117 H 0.33021 0.63157 0.8075 0.0
H2118 H 0.29331 0.56368 0.82634 0.0
H2119 H 0.28811 0.54353 0.80834 0.0
H2120 H 0.26954 0.56231 0.81314 0.0
H2121 H 0.26838 0.57049 0.77522 0.0
H2122 H 0.2868 0.55163 0.77029 0.0
H2123 H 0.29141 0.57725 0.76243 0.0
H2124 H 0.35568 0.60612 0.79922 0.0
H2125 H 0.37553 0.57692 0.78842 0.0
H2126 H 0.32089 0.53969 0.78424 0.0
C2127 C 0.27628 0.60667 0.80249 0.0
C2128 C 0.27861 0.62751 0.80721 0.0
C2129 C 0.29823 0.63632 0.80905 0.0
C2130 C 0.31528 0.62468 0.80626 0.0
C2131 C 0.31252 0.60417 0.80181 0.0
C2132 C 0.29356 0.59516 0.8 0.0
C2133 C 0.29496 0.57282 0.79485 0.0
C2134 C 0.28594 0.55982 0.81168 0.0
C2135 C 0.28479 0.56776 0.77449 0.0
C2136 C 0.31764 0.57082 0.79371 0.0
C2137 C 0.32742 0.58915 0.79777 0.0
C2138 C 0.34825 0.5916 0.79633 0.0
C2139 C 0.35939 0.57497 0.79022 0.0
C2140 C 0.34974 0.55607 0.78593 0.0
C2141 C 0.32864 0.55386 0.78803 0.0
H2142 H 0.88076 0.47445 0.47062 0.0
H2143 H 0.90063 0.47519 0.53286 0.0
H2144 H 0.87112 0.45364 0.54179 0.0
H2145 H 0.82795 0.47683 0.48072 0.0
H2146 H 0.8206 0.4602 0.46007 0.0
H2147 H 0.84342 0.47542 0.45856 0.0
H2148 H 0.86382 0.44328 0.45158 0.0
H2149 H 0.84104 0.42797 0.45301 0.0
H2150 H 0.86221 0.42268 0.46892 0.0
H2151 H 0.83946 0.4316 0.5438 0.0
H2152 H 0.80798 0.41129 0.53877 0.0
H2153 H 0.80881 0.42552 0.47526 0.0
C2154 C 0.87902 0.46992 0.48609 0.0
C2155 C 0.89302 0.47649 0.50105 0.0
C2156 C 0.89 0.47049 0.52119 0.0
C2157 C 0.87333 0.45819 0.52639 0.0
C2158 C 0.85977 0.45206 0.5113 0.0
C2159 C 0.86242 0.45775 0.49156 0.0
C2160 C 0.84552 0.44935 0.47824 0.0
C2161 C 0.83367 0.46648 0.46885 0.0
C2162 C 0.85364 0.43497 0.46198 0.0
C2163 C 0.83298 0.43802 0.49354 0.0
C2164 C 0.84145 0.43969 0.51251 0.0
C2165 C 0.83266 0.43023 0.529 0.0
C2166 C 0.81477 0.41872 0.526 0.0
C2167 C 0.80579 0.41685 0.50665 0.0
C2168 C 0.81511 0.42674 0.4903 0.0
H2169 H 0.75499 0.91295 0.80276 0.0
H2170 H 0.71692 0.85861 0.80315 0.0
H2171 H 0.68723 0.87884 0.79604 0.0
H2172 H 0.71852 0.94622 0.82634 0.0
H2173 H 0.72553 0.96757 0.81118 0.0
H2174 H 0.74389 0.94901 0.81704 0.0
H2175 H 0.75073 0.94339 0.77907 0.0
H2176 H 0.73248 0.96198 0.7731 0.0
H2177 H 0.73002 0.93685 0.76238 0.0
H2178 H 0.66219 0.90415 0.78654 0.0
H2179 H 0.64289 0.93347 0.77598 0.0
H2180 H 0.6963 0.97217 0.78312 0.0
C2181 C 0.74039 0.90537 0.80139 0.0
C2182 C 0.73825 0.8842 0.80364 0.0
C2183 C 0.71888 0.87482 0.8018 0.0
C2184 C 0.70193 0.88617 0.7977 0.0
C2185 C 0.70451 0.90696 0.79563 0.0
C2186 C 0.72319 0.91655 0.7975 0.0
C2187 C 0.72172 0.93909 0.79421 0.0
C2188 C 0.72777 0.95118 0.81333 0.0
C2189 C 0.73449 0.94571 0.77611 0.0
C2190 C 0.69937 0.94058 0.78983 0.0
C2191 C 0.68978 0.92181 0.79073 0.0
C2192 C 0.66944 0.91897 0.78606 0.0
C2193 C 0.65861 0.93569 0.78006 0.0
C2194 C 0.66806 0.95506 0.77901 0.0
C2195 C 0.68863 0.95759 0.78426 0.0
H2196 H 0.64756 0.53271 0.9713 0.0
H2197 H 0.62037 0.53728 0.03035 0.0
H2198 H 0.6472 0.56177 0.04107 0.0
H2199 H 0.70028 0.53723 0.99005 0.0
H2200 H 0.70839 0.55106 0.96828 0.0
H2201 H 0.68787 0.53275 0.96618 0.0
H2202 H 0.66721 0.55996 0.95079 0.0
H2203 H 0.68527 0.58038 0.95514 0.0
H2204 H 0.66019 0.58145 0.96557 0.0
H2205 H 0.67782 0.58436 0.04587 0.0
H2206 H 0.70906 0.60552 0.04369 0.0
H2207 H 0.71443 0.58918 0.98066 0.0
C2208 C 0.64729 0.53886 0.98649 0.0
C2209 C 0.6319 0.5331 1.00001 0.0
C2210 C 0.63215 0.54133 0.01982 0.0
C2211 C 0.64728 0.55528 0.02603 0.0
C2212 C 0.66215 0.56074 0.0123 0.0
C2213 C 0.66241 0.55265 0.99301 0.0
C2214 C 0.68005 0.56119 0.98118 0.0
C2215 C 0.69503 0.54457 0.97613 0.0
C2216 C 0.6728 0.57142 0.96203 0.0
C2217 C 0.689 0.5762 0.99648 0.0
C2218 C 0.67885 0.57511 0.01457 0.0
C2219 C 0.68563 0.58571 0.03169 0.0
C2220 C 0.70331 0.59767 0.03034 0.0
C2221 C 0.71346 0.59959 0.01183 0.0
C2222 C 0.70627 0.58868 0.99471 0.0
H2223 H 0.24886 0.60953 0.23291 0.0
H2224 H 0.22512 0.62834 0.17533 0.0
H2225 H 0.1978 0.60273 0.17783 0.0
H2226 H 0.23414 0.55569 0.22796 0.0
H2227 H 0.22767 0.55409 0.25419 0.0
H2228 H 0.2471 0.57171 0.24628 0.0
H2229 H 0.22849 0.59902 0.26474 0.0
H2230 H 0.20648 0.58378 0.2707 0.0
H2231 H 0.20427 0.60638 0.25612 0.0
H2232 H 0.17442 0.57315 0.18552 0.0
H2233 H 0.1527 0.54662 0.2009 0.0
H2234 H 0.18711 0.55252 0.25619 0.0
C2235 C 0.23795 0.60848 0.22079 0.0
C2236 C 0.23954 0.62101 0.20377 0.0
C2237 C 0.22483 0.61867 0.18827 0.0
C2238 C 0.20909 0.60419 0.18959 0.0
C2239 C 0.20799 0.5923 0.20661 0.0
C2240 C 0.22188 0.59443 0.22204 0.0
C2241 C 0.21639 0.58083 0.2394 0.0
C2242 C 0.23227 0.56462 0.2421 0.0
C2243 C 0.21369 0.59319 0.25892 0.0
C2244 C 0.1967 0.57144 0.23167 0.0
C2245 C 0.19272 0.57748 0.21229 0.0
C2246 C 0.17696 0.56881 0.20091 0.0
C2247 C 0.16469 0.55387 0.20973 0.0
C2248 C 0.16757 0.54865 0.23001 0.0
C2249 C 0.18396 0.55726 0.24102 0.0
H2250 H 0.88362 0.5394 0.04033 0.0
H2251 H 0.88406 0.50901 0.98192 0.0
H2252 H 0.85539 0.52913 0.97116 0.0
H2253 H 0.83054 0.54385 0.04484 0.0
H2254 H 0.83219 0.56867 0.05639 0.0
H2255 H 0.85238 0.55143 0.05962 0.0
H2256 H 0.87775 0.57807 0.04564 0.0
H2257 H 0.85763 0.5954 0.04238 0.0
H2258 H 0.87324 0.58872 0.02132 0.0
H2259 H 0.82589 0.55247 0.96702 0.0
H2260 H 0.79917 0.57775 0.96967 0.0
H2261 H 0.82004 0.59418 0.02981 0.0
C2262 C 0.87794 0.53706 0.02517 0.0
C2263 C 0.8862 0.52244 0.01207 0.0
C2264 C 0.87787 0.51976 0.99247 0.0
C2265 C 0.86164 0.53126 0.98613 0.0
C2266 C 0.85397 0.54556 0.99944 0.0
C2267 C 0.86197 0.54857 0.0185 0.0
C2268 C 0.85127 0.56508 0.02985 0.0
C2269 C 0.84098 0.55675 0.04879 0.0
C2270 C 0.86584 0.58287 0.0351 0.0
C2271 C 0.83594 0.57086 0.01423 0.0
C2272 C 0.83761 0.55938 0.99682 0.0
C2273 C 0.82457 0.56165 0.98055 0.0
C2274 C 0.80944 0.57602 0.98218 0.0
C2275 C 0.80765 0.58804 0.99985 0.0
C2276 C 0.82118 0.58541 0.01599 0.0
H2277 H 0.13182 0.98356 0.00699 0.0
H2278 H 0.12894 0.97624 0.07171 0.0
H2279 H 0.15715 0.95299 0.06998 0.0
H2280 H 0.14421 0.93249 0.99429 0.0
H2281 H 0.16141 0.93938 0.97451 0.0
H2282 H 0.14074 0.95538 0.98058 0.0
H2283 H 0.16567 0.98575 0.98624 0.0
H2284 H 0.18642 0.96985 0.98013 0.0
H2285 H 0.18626 0.9836 0.00376 0.0
H2286 H 0.18519 0.93043 0.06154 0.0
H2287 H 0.21224 0.91035 0.04704 0.0
H2288 H 0.19827 0.93282 0.98771 0.0
C2289 C 0.13721 0.97721 0.02083 0.0
C2290 C 0.12795 0.98164 0.03948 0.0
C2291 C 0.13542 0.9728 0.05718 0.0
C2292 C 0.15156 0.95967 0.05639 0.0
C2293 C 0.16022 0.95556 0.0378 0.0
C2294 C 0.15343 0.9641 0.02033 0.0
C2295 C 0.16561 0.95717 1.00235 0.0
C2296 C 0.15219 0.9454 0.98703 0.0
C2297 C 0.17665 0.97517 0.99254 0.0
C2298 C 0.18029 0.94341 0.01249 0.0
C2299 C 0.1768 0.9427 0.03293 0.0
C2300 C 0.18811 0.93089 0.04556 0.0
C2301 C 0.20344 0.91947 0.03711 0.0
C2302 C 0.20747 0.91996 0.01619 0.0
C2303 C 0.19569 0.93218 0.00376 0.0
loop_
_geom_bond_atom_site_label_1
_geom_bond_atom_site_label_2
_geom_bond_distance
_geom_bond_site_symmetry_2
_ccdc_geom_bond_type
C0 C1 1.384 . S
C0 H13 0.947 . S
C0 C35 1.382 . S
C1 C0 1.384 . S
C1 C2 1.378 1_655 S
C2 C1 1.378 1_455 S
C2 C3 1.378 . S
C2 H14 0.952 . S
C3 C2 1.378 . S
C3 H15 0.950 . S
C3 C34 1.383 . S
H4 C23 0.947 . S
H5 C24 0.946 . S
H6 C26 1.002 . S
H7 C27 0.945 . S
H8 C29 0.952 . S
H9 C30 0.949 . S
H10 C32 0.957 . S
H11 C33 0.948 . S
H12 C35 0.951 . S
H13 C0 0.947 . S
H14 C2 0.952 . S
H15 C3 0.950 . S
N16 C19 1.382 . S
N16 C21 1.363 . S
N17 C19 1.371 . S
N17 C20 1.372 . S
N18 C20 1.361 . S
N18 C21 1.377 . S
C19 N16 1.382 . S
C19 N17 1.371 . S
C19 C22 1.480 . S
C20 N17 1.372 . S
C20 N18 1.361 . S
C20 C28 1.457 . S
C21 N16 1.363 . S
C21 N18 1.377 . S
C21 C34 1.479 . S
C22 C19 1.480 . S
C22 C23 1.383 1_545 S
C22 C27 1.385 . S
C23 H4 0.947 . S
C23 C22 1.383 1_565 S
C23 C24 1.388 . S
C24 H5 0.946 . S
C24 C23 1.388 . S
C24 C25 1.384 . S
C25 C24 1.384 . S
C25 C26 1.354 1_565 S
C26 H6 1.002 . S
C26 C25 1.354 1_545 S
C26 C27 1.388 . S
C27 H7 0.945 . S
C27 C22 1.385 . S
C27 C26 1.388 . S
C28 C20 1.457 . S
C28 C29 1.372 1_554 S
C28 C33 1.364 . S
C29 H8 0.952 . S
C29 C28 1.372 1_556 S
C29 C30 1.389 . S
C30 H9 0.949 . S
C30 C29 1.389 . S
C30 C31 1.387 . S
C31 C30 1.387 . S
C31 C32 1.338 1_556 S
C32 H10 0.957 . S
C32 C31 1.338 1_554 S
C32 C33 1.406 . S
C33 H11 0.948 . S
C33 C28 1.364 . S
C33 C32 1.406 . S
C34 C3 1.383 . S
C34 C21 1.479 . S
C34 C35 1.398 1_455 S
C35 C0 1.382 . S
C35 H12 0.951 . S
C35 C34 1.398 1_655 S
C36 C37 1.384 . S
C36 H49 0.947 . S
C36 C71 1.382 . S
C37 C36 1.384 . S
C37 C38 1.378 . S
C38 C37 1.378 . S
C38 C39 1.378 . S
C38 H50 0.952 . S
C39 C38 1.378 . S
C39 H51 0.950 . S
C39 C70 1.383 . S
H40 C59 0.947 . S
H41 C60 0.946 . S
H42 C62 0.953 . S
H43 C63 0.945 . S
H44 C65 0.952 . S
H45 C66 0.949 . S
H46 C68 0.950 . S
H47 C69 0.948 . S
H48 C71 0.951 . S
H49 C36 0.947 . S
H50 C38 0.952 . S
H51 C39 0.950 . S
N52 C55 1.382 . S
N52 C57 1.363 . S
N53 C55 1.371 . S
N53 C56 1.372 . S
N54 C56 1.361 . S
N54 C57 1.377 . S
C55 N52 1.382 . S
C55 N53 1.371 . S
C55 C58 1.480 . S
C56 N53 1.372 . S
C56 N54 1.361 . S
C56 C64 1.457 . S
C57 N52 1.363 . S
C57 N54 1.377 . S
C57 C70 1.479 . S
C58 C55 1.480 . S
C58 C59 1.383 . S
C58 C63 1.385 . S
C59 H40 0.947 . S
C59 C58 1.383 . S
C59 C60 1.388 . S
C60 H41 0.946 . S
C60 C59 1.388 . S
C60 C61 1.384 . S
C61 C60 1.384 . S
C61 C62 1.377 . S
C62 H42 0.953 . S
C62 C61 1.377 . S
C62 C63 1.369 . S
C63 H43 0.945 . S
C63 C58 1.385 . S
C63 C62 1.369 . S
C64 C56 1.457 . S
C64 C65 1.372 . S
C64 C69 1.364 . S
C65 H44 0.952 . S
C65 C64 1.372 . S
C65 C66 1.389 . S
C66 H45 0.949 . S
C66 C65 1.389 . S
C66 C67 1.387 . S
C67 C66 1.387 . S
C67 C68 1.372 . S
C68 H46 0.950 . S
C68 C67 1.372 . S
C68 C69 1.379 . S
C69 H47 0.948 . S
C69 C64 1.364 . S
C69 C68 1.379 . S
C70 C39 1.383 . S
C70 C57 1.479 . S
C70 C71 1.398 . S
C71 C36 1.382 . S
C71 H48 0.951 . S
C71 C70 1.398 . S
C72 C73 1.384 . S
C72 H85 0.947 1_656 S
C72 C107 1.382 1_556 S
C73 C72 1.384 . S
C73 C74 1.378 . S
C74 C73 1.378 . S
C74 C75 1.378 . S
C74 H86 0.952 . S
C75 C74 1.378 . S
C75 H87 0.950 . S
C75 C106 1.383 1_556 S
H76 C95 0.947 . S
H77 C96 0.946 . S
H78 C98 0.953 . S
H79 C99 0.945 . S
H80 C101 0.952 . S
H81 C102 0.949 . S
H82 C104 0.950 . S
H83 C105 0.948 . S
H84 C107 0.951 . S
H85 C72 0.947 1_454 S
H86 C74 0.952 . S
H87 C75 0.950 . S
N88 C91 1.382 . S
N88 C93 1.363 . S
N89 C91 1.371 . S
N89 C92 1.372 . S
N90 C92 1.361 . S
N90 C93 1.377 . S
C91 N88 1.382 . S
C91 N89 1.371 . S
C91 C94 1.480 . S
C92 N89 1.372 . S
C92 N90 1.361 . S
C92 C100 1.457 . S
C93 N88 1.363 . S
C93 N90 1.377 . S
C93 C106 1.479 . S
C94 C91 1.480 . S
C94 C95 1.383 . S
C94 C99 1.385 . S
C95 H76 0.947 . S
C95 C94 1.383 . S
C95 C96 1.388 . S
C96 H77 0.946 . S
C96 C95 1.388 . S
C96 C97 1.384 . S
C97 C96 1.384 . S
C97 C98 1.377 . S
C98 H78 0.953 . S
C98 C97 1.377 . S
C98 C99 1.369 . S
C99 H79 0.945 . S
C99 C94 1.385 . S
C99 C98 1.369 . S
C100 C92 1.457 . S
C100 C101 1.372 . S
C100 C105 1.364 1_655 S
C101 H80 0.952 . S
C101 C100 1.372 . S
C101 C102 1.389 1_655 S
C102 H81 0.949 . S
C102 C101 1.389 1_455 S
C102 C103 1.387 . S
C103 C102 1.387 . S
C103 C104 1.372 . S
C104 H82 0.950 . S
C104 C103 1.372 . S
C104 C105 1.379 . S
C105 H83 0.948 . S
C105 C100 1.364 1_455 S
C105 C104 1.379 . S
C106 C75 1.383 1_554 S
C106 C93 1.479 . S
C106 C107 1.398 . S
C107 C72 1.382 1_554 S
C107 H84 0.951 . S
C107 C106 1.398 . S
C108 C109 1.384 . S
C108 H121 0.947 . S
C108 C143 1.382 . S
C109 C108 1.384 . S
C109 C110 1.378 . S
C110 C109 1.378 . S
C110 C111 1.378 . S
C110 H122 0.952 . S
C111 C110 1.378 . S
C111 H123 0.950 . S
C111 C142 1.383 . S
H112 C131 0.947 . S
H113 C132 0.946 . S
H114 C134 0.953 . S
H115 C135 0.945 . S
H116 C137 0.952 . S
H117 C138 0.949 . S
H118 C140 0.950 . S
H119 C141 0.948 . S
H120 C143 0.951 . S
H121 C108 0.947 . S
H122 C110 0.952 . S
H123 C111 0.950 . S
N124 C127 1.382 . S
N124 C129 1.363 . S
N125 C127 1.371 . S
N125 C128 1.372 . S
N126 C128 1.361 . S
N126 C129 1.377 . S
C127 N124 1.382 . S
C127 N125 1.371 . S
C127 C130 1.480 . S
C128 N125 1.372 . S
C128 N126 1.361 . S
C128 C136 1.457 . S
C129 N124 1.363 . S
C129 N126 1.377 . S
C129 C142 1.479 . S
C130 C127 1.480 . S
C130 C131 1.383 . S
C130 C135 1.385 . S
C131 H112 0.947 . S
C131 C130 1.383 . S
C131 C132 1.388 . S
C132 H113 0.946 . S
C132 C131 1.388 . S
C132 C133 1.384 . S
C133 C132 1.384 . S
C133 C134 1.377 . S
C134 H114 0.953 . S
C134 C133 1.377 . S
C134 C135 1.369 . S
C135 H115 0.945 . S
C135 C130 1.385 . S
C135 C134 1.369 . S
C136 C128 1.457 . S
C136 C137 1.372 . S
C136 C141 1.364 . S
C137 H116 0.952 . S
C137 C136 1.372 . S
C137 C138 1.389 . S
C138 H117 0.949 . S
C138 C137 1.389 . S
C138 C139 1.387 . S
C139 C138 1.387 . S
C139 C140 1.372 . S
C140 H118 0.950 . S
C140 C139 1.372 . S
C140 C141 1.379 . S
C141 H119 0.948 . S
C141 C136 1.364 . S
C141 C140 1.379 . S
C142 C111 1.383 . S
C142 C129 1.479 . S
C142 C143 1.398 . S
C143 C108 1.382 . S
C143 H120 0.951 . S
C143 C142 1.398 . S
C144 C145 1.384 . S
C144 H157 0.947 . S
C144 C179 1.382 . S
C145 C144 1.384 . S
C145 C146 1.378 . S
C146 C145 1.378 . S
C146 C147 1.378 . S
C146 H158 0.952 . S
C147 C146 1.378 . S
C147 H159 0.950 . S
C147 C178 1.383 . S
H148 C167 0.947 . S
H149 C168 0.946 . S
H150 C170 0.953 1_545 S
H151 C171 0.969 . S
H152 C173 0.952 . S
H153 C174 0.949 . S
H154 C176 0.950 . S
H155 C177 0.948 . S
H156 C179 0.951 . S
H157 C144 0.947 . S
H158 C146 0.952 . S
H159 C147 0.950 . S
N160 C163 1.382 . S
N160 C165 1.363 . S
N161 C163 1.371 . S
N161 C164 1.372 . S
N162 C164 1.361 . S
N162 C165 1.377 . S
C163 N160 1.382 . S
C163 N161 1.371 . S
C163 C166 1.480 . S
C164 N161 1.372 . S
C164 N162 1.361 . S
C164 C172 1.457 . S
C165 N160 1.363 . S
C165 N162 1.377 . S
C165 C178 1.479 . S
C166 C163 1.480 . S
C166 C167 1.383 1_455 S
C166 C171 1.385 . S
C167 H148 0.947 . S
C167 C166 1.383 1_655 S
C167 C168 1.388 . S
C168 H149 0.946 . S
C168 C167 1.388 . S
C168 C169 1.384 . S
C169 C168 1.384 . S
C169 C170 1.377 1_655 S
C170 H150 0.953 1_565 S
C170 C169 1.377 1_455 S
C170 C171 1.369 . S
C171 H151 0.969 . S
C171 C166 1.385 . S
C171 C170 1.369 . S
C172 C164 1.457 . S
C172 C173 1.372 1_565 S
C172 C177 1.364 . S
C173 H152 0.952 . S
C173 C172 1.372 1_545 S
C173 C174 1.389 . S
C174 H153 0.949 . S
C174 C173 1.389 . S
C174 C175 1.387 . S
C175 C174 1.387 . S
C175 C176 1.372 . S
C176 H154 0.950 . S
C176 C175 1.372 . S
C176 C177 1.379 1_545 S
C177 H155 0.948 . S
C177 C172 1.364 . S
C177 C176 1.379 1_565 S
C178 C147 1.383 . S
C178 C165 1.479 . S
C178 C179 1.398 . S
C179 C144 1.382 . S
C179 H156 0.951 . S
C179 C178 1.398 . S
C180 C181 1.384 . S
C180 H193 0.947 . S
C180 C215 1.382 . S
C181 C180 1.384 . S
C181 C182 1.378 . S
C182 C181 1.378 . S
C182 C183 1.378 . S
C182 H194 0.952 . S
C183 C182 1.378 . S
C183 H195 0.950 . S
C183 C214 1.383 . S
H184 C203 0.947 . S
H185 C204 0.946 . S
H186 C206 0.953 . S
H187 C207 0.945 . S
H188 C209 0.952 . S
H189 C210 0.949 . S
H190 C212 0.950 . S
H191 C213 0.948 . S
H192 C215 0.951 . S
H193 C180 0.947 . S
H194 C182 0.952 . S
H195 C183 0.950 . S
N196 C199 1.382 . S
N196 C201 1.363 . S
N197 C199 1.371 . S
N197 C200 1.372 . S
N198 C200 1.361 . S
N198 C201 1.377 . S
C199 N196 1.382 . S
C199 N197 1.371 . S
C199 C202 1.480 . S
C200 N197 1.372 . S
C200 N198 1.361 . S
C200 C208 1.457 . S
C201 N196 1.363 . S
C201 N198 1.377 . S
C201 C214 1.479 . S
C202 C199 1.480 . S
C202 C203 1.383 . S
C202 C207 1.385 . S
C203 H184 0.947 . S
C203 C202 1.383 . S
C203 C204 1.388 . S
C204 H185 0.946 . S
C204 C203 1.388 . S
C204 C205 1.384 . S
C205 C204 1.384 . S
C205 C206 1.377 . S
C206 H186 0.953 . S
C206 C205 1.377 . S
C206 C207 1.369 . S
C207 H187 0.945 . S
C207 C202 1.385 . S
C207 C206 1.369 . S
C208 C200 1.457 . S
C208 C209 1.372 . S
C208 C213 1.364 . S
C209 H188 0.952 . S
C209 C208 1.372 . S
C209 C210 1.389 . S
C210 H189 0.949 . S
C210 C209 1.389 . S
C210 C211 1.387 . S
C211 C210 1.387 . S
C211 C212 1.372 . S
C212 H190 0.950 . S
C212 C211 1.372 . S
C212 C213 1.379 . S
C213 H191 0.948 . S
C213 C208 1.364 . S
C213 C212 1.379 . S
C214 C183 1.383 . S
C214 C201 1.479 . S
C214 C215 1.398 . S
C215 C180 1.382 . S
C215 H192 0.951 . S
C215 C214 1.398 . S
C216 C217 1.384 . S
C216 H229 0.947 1_655 S
C216 C251 1.382 . S
C217 C216 1.384 . S
C217 C218 1.378 . S
C218 C217 1.378 . S
C218 C219 1.378 . S
C218 H230 0.952 . S
C219 C218 1.378 . S
C219 H231 0.950 . S
C219 C250 1.383 . S
H220 C239 0.947 . S
H221 C240 0.946 . S
H222 C242 0.953 . S
H223 C243 0.945 . S
H224 C245 0.952 . S
H225 C246 0.949 . S
H226 C248 0.950 . S
H227 C249 0.948 . S
H228 C251 0.951 1_455 S
H229 C216 0.947 1_455 S
H230 C218 0.952 . S
H231 C219 0.950 . S
N232 C235 1.382 . S
N232 C237 1.363 . S
N233 C235 1.371 . S
N233 C236 1.372 . S
N234 C236 1.361 . S
N234 C237 1.377 . S
C235 N232 1.382 . S
C235 N233 1.371 . S
C235 C238 1.480 . S
C236 N233 1.372 . S
C236 N234 1.361 . S
C236 C244 1.457 1_655 S
C237 N232 1.363 . S
C237 N234 1.377 . S
C237 C250 1.479 . S
C238 C235 1.480 . S
C238 C239 1.383 . S
C238 C243 1.385 . S
C239 H220 0.947 . S
C239 C238 1.383 . S
C239 C240 1.388 . S
C240 H221 0.946 . S
C240 C239 1.388 . S
C240 C241 1.384 . S
C241 C240 1.384 . S
C241 C242 1.377 . S
C242 H222 0.953 . S
C242 C241 1.377 . S
C242 C243 1.369 . S
C243 H223 0.945 . S
C243 C238 1.385 . S
C243 C242 1.369 . S
C244 C236 1.457 1_455 S
C244 C245 1.372 1_455 S
C244 C249 1.364 . S
C245 H224 0.952 . S
C245 C244 1.372 1_655 S
C245 C246 1.389 1_655 S
C246 H225 0.949 . S
C246 C245 1.389 1_455 S
C246 C247 1.387 . S
C247 C246 1.387 . S
C247 C248 1.372 . S
C248 H226 0.950 . S
C248 C247 1.372 . S
C248 C249 1.379 . S
C249 H227 0.948 . S
C249 C244 1.364 . S
C249 C248 1.379 . S
C250 C219 1.383 . S
C250 C237 1.479 . S
C250 C251 1.398 . S
C251 C216 1.382 . S
C251 H228 0.951 1_655 S
C251 C250 1.398 . S
C252 C253 1.384 . S
C252 H265 0.947 . S
C252 C287 1.382 . S
C253 C252 1.384 . S
C253 C254 1.378 . S
C254 C253 1.378 . S
C254 C255 1.378 . S
C254 H266 0.952 . S
C255 C254 1.378 . S
C255 H267 0.950 . S
C255 C286 1.383 . S
H256 C275 0.947 . S
H257 C276 0.946 . S
H258 C278 0.953 . S
H259 C279 0.945 . S
H260 C281 0.952 . S
H261 C282 0.949 . S
H262 C284 0.950 . S
H263 C285 0.948 . S
H264 C287 0.951 . S
H265 C252 0.947 . S
H266 C254 0.952 . S
H267 C255 0.950 . S
N268 C271 1.382 . S
N268 C273 1.363 . S
N269 C271 1.371 . S
N269 C272 1.372 . S
N270 C272 1.361 . S
N270 C273 1.377 . S
C271 N268 1.382 . S
C271 N269 1.371 . S
C271 C274 1.480 . S
C272 N269 1.372 . S
C272 N270 1.361 . S
C272 C280 1.457 . S
C273 N268 1.363 . S
C273 N270 1.377 . S
C273 C286 1.479 . S
C274 C271 1.480 . S
C274 C275 1.383 . S
C274 C279 1.385 . S
C275 H256 0.947 . S
C275 C274 1.383 . S
C275 C276 1.388 . S
C276 H257 0.946 . S
C276 C275 1.388 . S
C276 C277 1.384 . S
C277 C276 1.384 . S
C277 C278 1.377 . S
C278 H258 0.953 . S
C278 C277 1.377 . S
C278 C279 1.369 . S
C279 H259 0.945 . S
C279 C274 1.385 . S
C279 C278 1.369 . S
C280 C272 1.457 . S
C280 C281 1.372 . S
C280 C285 1.364 . S
C281 H260 0.952 . S
C281 C280 1.372 . S
C281 C282 1.389 . S
C282 H261 0.949 . S
C282 C281 1.389 . S
C282 C283 1.387 . S
C283 C282 1.387 . S
C283 C284 1.372 . S
C284 H262 0.950 . S
C284 C283 1.372 . S
C284 C285 1.379 . S
C285 H263 0.948 . S
C285 C280 1.364 . S
C285 C284 1.379 . S
C286 C255 1.383 . S
C286 C273 1.479 . S
C286 C287 1.398 . S
C287 C252 1.382 . S
C287 H264 0.951 . S
C287 C286 1.398 . S
C288 C289 1.384 . S
C288 H301 0.947 . S
C288 C323 1.382 . S
C289 C288 1.384 . S
C289 C290 1.378 . S
C290 C289 1.378 . S
C290 C291 1.378 . S
C290 H302 0.952 . S
C291 C290 1.378 . S
C291 H303 0.950 . S
C291 C322 1.383 . S
H292 C311 0.947 . S
H293 C312 0.946 . S
H294 C314 0.953 . S
H295 C315 0.945 . S
H296 C317 0.952 . S
H297 C318 0.949 . S
H298 C320 0.950 . S
H299 C321 0.948 . S
H300 C323 0.951 . S
H301 C288 0.947 . S
H302 C290 0.952 . S
H303 C291 0.950 . S
N304 C307 1.382 . S
N304 C309 1.363 . S
N305 C307 1.371 . S
N305 C308 1.372 . S
N306 C308 1.361 . S
N306 C309 1.377 . S
C307 N304 1.382 . S
C307 N305 1.371 . S
C307 C310 1.480 . S
C308 N305 1.372 . S
C308 N306 1.361 . S
C308 C316 1.457 . S
C309 N304 1.363 . S
C309 N306 1.377 . S
C309 C322 1.479 . S
C310 C307 1.480 . S
C310 C311 1.383 . S
C310 C315 1.385 . S
C311 H292 0.947 . S
C311 C310 1.383 . S
C311 C312 1.388 . S
C312 H293 0.946 . S
C312 C311 1.388 . S
C312 C313 1.384 . S
C313 C312 1.384 . S
C313 C314 1.377 . S
C314 H294 0.953 . S
C314 C313 1.377 . S
C314 C315 1.369 . S
C315 H295 0.945 . S
C315 C310 1.385 . S
C315 C314 1.369 . S
C316 C308 1.457 . S
C316 C317 1.372 . S
C316 C321 1.364 . S
C317 H296 0.952 . S
C317 C316 1.372 . S
C317 C318 1.389 . S
C318 H297 0.949 . S
C318 C317 1.389 . S
C318 C319 1.387 . S
C319 C318 1.387 . S
C319 C320 1.372 . S
C320 H298 0.950 . S
C320 C319 1.372 . S
C320 C321 1.379 . S
C321 H299 0.948 . S
C321 C316 1.364 . S
C321 C320 1.379 . S
C322 C291 1.383 . S
C322 C309 1.479 . S
C322 C323 1.398 . S
C323 C288 1.382 . S
C323 H300 0.951 . S
C323 C322 1.398 . S
C324 C325 1.384 . S
C324 H337 0.947 . S
C324 C359 1.382 . S
C325 C324 1.384 . S
C325 C326 1.378 . S
C326 C325 1.378 . S
C326 C327 1.378 . S
C326 H338 0.952 . S
C327 C326 1.378 . S
C327 H339 0.950 . S
C327 C358 1.383 . S
H328 C347 0.947 . S
H329 C348 0.946 . S
H330 C350 0.953 . S
H331 C351 0.945 . S
H332 C353 0.952 . S
H333 C354 0.949 1_545 S
H334 C356 0.950 . S
H335 C357 0.948 . S
H336 C359 0.951 . S
H337 C324 0.947 . S
H338 C326 0.952 . S
H339 C327 0.950 . S
N340 C343 1.382 . S
N340 C345 1.363 . S
N341 C343 1.371 . S
N341 C344 1.372 . S
N342 C344 1.361 . S
N342 C345 1.377 . S
C343 N340 1.382 . S
C343 N341 1.371 . S
C343 C346 1.480 . S
C344 N341 1.372 . S
C344 N342 1.361 . S
C344 C352 1.457 . S
C345 N340 1.363 . S
C345 N342 1.377 . S
C345 C358 1.479 . S
C346 C343 1.480 . S
C346 C347 1.383 . S
C346 C351 1.385 1_565 S
C347 H328 0.947 . S
C347 C346 1.383 . S
C347 C348 1.388 1_565 S
C348 H329 0.946 . S
C348 C347 1.388 1_545 S
C348 C349 1.384 . S
C349 C348 1.384 . S
C349 C350 1.377 . S
C350 H330 0.953 . S
C350 C349 1.377 . S
C350 C351 1.369 . S
C351 H331 0.945 . S
C351 C346 1.385 1_545 S
C351 C350 1.369 . S
C352 C344 1.457 . S
C352 C353 1.372 . S
C352 C357 1.364 . S
C353 H332 0.952 . S
C353 C352 1.372 . S
C353 C354 1.389 . S
C354 H333 0.949 1_565 S
C354 C353 1.389 . S
C354 C355 1.387 . S
C355 C354 1.387 . S
C355 C356 1.372 . S
C356 H334 0.950 . S
C356 C355 1.372 . S
C356 C357 1.379 . S
C357 H335 0.948 . S
C357 C352 1.364 . S
C357 C356 1.379 . S
C358 C327 1.383 . S
C358 C345 1.479 . S
C358 C359 1.398 . S
C359 C324 1.382 . S
C359 H336 0.951 . S
C359 C358 1.398 . S
C360 C361 1.384 . S
C360 H373 0.947 . S
C360 C395 1.382 . S
C361 C360 1.384 . S
C361 C362 1.378 . S
C362 C361 1.378 . S
C362 C363 1.378 . S
C362 H374 0.952 . S
C363 C362 1.378 . S
C363 H375 0.950 . S
C363 C394 1.383 . S
H364 C383 0.947 . S
H365 C384 0.946 . S
H366 C386 0.953 . S
H367 C387 0.945 . S
H368 C389 0.952 . S
H369 C390 0.949 . S
H370 C392 0.950 . S
H371 C393 0.948 . S
H372 C395 0.951 . S
H373 C360 0.947 . S
H374 C362 0.952 . S
H375 C363 0.950 . S
N376 C379 1.382 . S
N376 C381 1.363 . S
N377 C379 1.371 . S
N377 C380 1.372 . S
N378 C380 1.361 . S
N378 C381 1.377 . S
C379 N376 1.382 . S
C379 N377 1.371 . S
C379 C382 1.480 . S
C380 N377 1.372 . S
C380 N378 1.361 . S
C380 C388 1.457 . S
C381 N376 1.363 . S
C381 N378 1.377 . S
C381 C394 1.479 . S
C382 C379 1.480 . S
C382 C383 1.383 . S
C382 C387 1.385 . S
C383 H364 0.947 . S
C383 C382 1.383 . S
C383 C384 1.388 . S
C384 H365 0.946 . S
C384 C383 1.388 . S
C384 C385 1.384 . S
C385 C384 1.384 . S
C385 C386 1.377 . S
C386 H366 0.953 . S
C386 C385 1.377 . S
C386 C387 1.369 . S
C387 H367 0.945 . S
C387 C382 1.385 . S
C387 C386 1.369 . S
C388 C380 1.457 . S
C388 C389 1.372 . S
C388 C393 1.364 . S
C389 H368 0.952 . S
C389 C388 1.372 . S
C389 C390 1.389 . S
C390 H369 0.949 . S
C390 C389 1.389 . S
C390 C391 1.387 . S
C391 C390 1.387 . S
C391 C392 1.372 . S
C392 H370 0.950 . S
C392 C391 1.372 . S
C392 C393 1.379 . S
C393 H371 0.948 . S
C393 C388 1.364 . S
C393 C392 1.379 . S
C394 C363 1.383 . S
C394 C381 1.479 . S
C394 C395 1.398 . S
C395 C360 1.382 . S
C395 H372 0.951 . S
C395 C394 1.398 . S
C396 C397 1.384 . S
C396 H409 0.947 . S
C396 C431 1.382 . S
C397 C396 1.384 . S
C397 C398 1.378 . S
C398 C397 1.378 . S
C398 C399 1.378 . S
C398 H410 0.952 . S
C399 C398 1.378 . S
C399 H411 0.950 . S
C399 C430 1.383 . S
H400 C419 0.947 . S
H401 C420 0.946 . S
H402 C422 0.953 . S
H403 C423 0.945 . S
H404 C425 0.952 . S
H405 C426 0.949 . S
H406 C428 0.950 . S
H407 C429 0.948 . S
H408 C431 0.951 . S
H409 C396 0.947 . S
H410 C398 0.952 . S
H411 C399 0.950 . S
N412 C415 1.382 . S
N412 C417 1.363 . S
N413 C415 1.371 . S
N413 C416 1.372 . S
N414 C416 1.361 . S
N414 C417 1.377 . S
C415 N412 1.382 . S
C415 N413 1.371 . S
C415 C418 1.480 . S
C416 N413 1.372 . S
C416 N414 1.361 . S
C416 C424 1.457 . S
C417 N412 1.363 . S
C417 N414 1.377 . S
C417 C430 1.479 . S
C418 C415 1.480 . S
C418 C419 1.383 . S
C418 C423 1.385 . S
C419 H400 0.947 . S
C419 C418 1.383 . S
C419 C420 1.388 . S
C420 H401 0.946 . S
C420 C419 1.388 . S
C420 C421 1.384 . S
C421 C420 1.384 . S
C421 C422 1.377 . S
C422 H402 0.953 . S
C422 C421 1.377 . S
C422 C423 1.369 . S
C423 H403 0.945 . S
C423 C418 1.385 . S
C423 C422 1.369 . S
C424 C416 1.457 . S
C424 C425 1.372 . S
C424 C429 1.364 . S
C425 H404 0.952 . S
C425 C424 1.372 . S
C425 C426 1.389 . S
C426 H405 0.949 . S
C426 C425 1.389 . S
C426 C427 1.387 . S
C427 C426 1.387 . S
C427 C428 1.372 . S
C428 H406 0.950 . S
C428 C427 1.372 . S
C428 C429 1.379 . S
C429 H407 0.948 . S
C429 C424 1.364 . S
C429 C428 1.379 . S
C430 C399 1.383 . S
C430 C417 1.479 . S
C430 C431 1.398 . S
C431 C396 1.382 . S
C431 H408 0.951 . S
C431 C430 1.398 . S
C432 C433 1.384 . S
C432 H445 0.947 . S
C432 C467 1.382 . S
C433 C432 1.384 . S
C433 C434 1.378 . S
C434 C433 1.378 . S
C434 C435 1.378 . S
C434 H446 0.952 . S
C435 C434 1.378 . S
C435 H447 0.950 . S
C435 C466 1.383 . S
H436 C455 0.947 . S
H437 C456 0.946 . S
H438 C458 0.953 . S
H439 C459 0.945 . S
H440 C461 0.952 . S
H441 C462 0.949 . S
H442 C464 0.950 . S
H443 C465 0.948 . S
H444 C467 0.951 . S
H445 C432 0.947 . S
H446 C434 0.952 . S
H447 C435 0.950 . S
N448 C451 1.382 . S
N448 C453 1.363 . S
N449 C451 1.371 . S
N449 C452 1.372 . S
N450 C452 1.361 . S
N450 C453 1.377 . S
C451 N448 1.382 . S
C451 N449 1.371 . S
C451 C454 1.480 . S
C452 N449 1.372 . S
C452 N450 1.361 . S
C452 C460 1.457 . S
C453 N448 1.363 . S
C453 N450 1.377 . S
C453 C466 1.479 . S
C454 C451 1.480 . S
C454 C455 1.383 . S
C454 C459 1.385 . S
C455 H436 0.947 . S
C455 C454 1.383 . S
C455 C456 1.388 . S
C456 H437 0.946 . S
C456 C455 1.388 . S
C456 C457 1.384 . S
C457 C456 1.384 . S
C457 C458 1.377 . S
C458 H438 0.953 . S
C458 C457 1.377 . S
C458 C459 1.369 . S
C459 H439 0.945 . S
C459 C454 1.385 . S
C459 C458 1.369 . S
C460 C452 1.457 . S
C460 C461 1.372 . S
C460 C465 1.364 . S
C461 H440 0.952 . S
C461 C460 1.372 . S
C461 C462 1.389 . S
C462 H441 0.949 . S
C462 C461 1.389 . S
C462 C463 1.387 . S
C463 C462 1.387 . S
C463 C464 1.372 . S
C464 H442 0.950 . S
C464 C463 1.372 . S
C464 C465 1.379 . S
C465 H443 0.948 . S
C465 C460 1.364 . S
C465 C464 1.379 . S
C466 C435 1.383 . S
C466 C453 1.479 . S
C466 C467 1.398 . S
C467 C432 1.382 . S
C467 H444 0.951 . S
C467 C466 1.398 . S
C468 C469 1.384 . S
C468 H481 0.947 . S
C468 C503 1.382 . S
C469 C468 1.384 . S
C469 C470 1.390 . S
C470 C469 1.390 . S
C470 C471 1.368 1_554 S
C470 H482 0.951 1_554 S
C471 C470 1.368 1_556 S
C471 H483 0.950 . S
C471 C502 1.383 . S
H472 C491 0.947 . S
H473 C492 0.946 . S
H474 C494 0.953 . S
H475 C495 0.945 . S
H476 C497 0.952 . S
H477 C498 0.949 . S
H478 C500 0.950 . S
H479 C501 0.948 . S
H480 C503 0.951 . S
H481 C468 0.947 . S
H482 C470 0.951 1_556 S
H483 C471 0.950 . S
N484 C487 1.382 . S
N484 C489 1.363 . S
N485 C487 1.371 . S
N485 C488 1.372 . S
N486 C488 1.361 . S
N486 C489 1.377 . S
C487 N484 1.382 . S
C487 N485 1.371 . S
C487 C490 1.480 . S
C488 N485 1.372 . S
C488 N486 1.361 . S
C488 C496 1.457 . S
C489 N484 1.363 . S
C489 N486 1.377 . S
C489 C502 1.479 . S
C490 C487 1.480 . S
C490 C491 1.383 . S
C490 C495 1.385 . S
C491 H472 0.947 . S
C491 C490 1.383 . S
C491 C492 1.388 . S
C492 H473 0.946 . S
C492 C491 1.388 . S
C492 C493 1.384 . S
C493 C492 1.384 . S
C493 C494 1.377 . S
C494 H474 0.953 . S
C494 C493 1.377 . S
C494 C495 1.369 . S
C495 H475 0.945 . S
C495 C490 1.385 . S
C495 C494 1.369 . S
C496 C488 1.457 . S
C496 C497 1.372 . S
C496 C501 1.364 . S
C497 H476 0.952 . S
C497 C496 1.372 . S
C497 C498 1.389 . S
C498 H477 0.949 . S
C498 C497 1.389 . S
C498 C499 1.387 . S
C499 C498 1.387 . S
C499 C500 1.372 . S
C500 H478 0.950 . S
C500 C499 1.372 . S
C500 C501 1.379 . S
C501 H479 0.948 . S
C501 C496 1.364 . S
C501 C500 1.379 . S
C502 C471 1.383 . S
C502 C489 1.479 . S
C502 C503 1.398 1_556 S
C503 C468 1.382 . S
C503 H480 0.951 . S
C503 C502 1.398 1_554 S
C504 C505 1.384 . S
C504 H517 0.947 . S
C504 C539 1.382 . S
C505 C504 1.384 . S
C505 C506 1.378 . S
C506 C505 1.378 . S
C506 C507 1.378 . S
C506 H518 0.952 . S
C507 C506 1.378 . S
C507 H519 0.950 . S
C507 C538 1.383 . S
H508 C527 0.947 . S
H509 C528 0.946 . S
H510 C530 0.953 . S
H511 C531 0.945 . S
H512 C533 0.952 . S
H513 C534 0.949 . S
H514 C536 0.950 . S
H515 C537 0.948 . S
H516 C539 0.951 . S
H517 C504 0.947 . S
H518 C506 0.952 . S
H519 C507 0.950 . S
N520 C523 1.382 . S
N520 C525 1.363 . S
N521 C523 1.371 . S
N521 C524 1.372 . S
N522 C524 1.361 . S
N522 C525 1.377 . S
C523 N520 1.382 . S
C523 N521 1.371 . S
C523 C526 1.480 . S
C524 N521 1.372 . S
C524 N522 1.361 . S
C524 C532 1.457 . S
C525 N520 1.363 . S
C525 N522 1.377 . S
C525 C538 1.479 . S
C526 C523 1.480 . S
C526 C527 1.383 . S
C526 C531 1.385 . S
C527 H508 0.947 . S
C527 C526 1.383 . S
C527 C528 1.388 . S
C528 H509 0.946 . S
C528 C527 1.388 . S
C528 C529 1.384 . S
C529 C528 1.384 . S
C529 C530 1.377 . S
C530 H510 0.953 . S
C530 C529 1.377 . S
C530 C531 1.369 . S
C531 H511 0.945 . S
C531 C526 1.385 . S
C531 C530 1.369 . S
C532 C524 1.457 . S
C532 C533 1.372 . S
C532 C537 1.364 . S
C533 H512 0.952 . S
C533 C532 1.372 . S
C533 C534 1.389 . S
C534 H513 0.949 . S
C534 C533 1.389 . S
C534 C535 1.387 . S
C535 C534 1.387 . S
C535 C536 1.372 . S
C536 H514 0.950 . S
C536 C535 1.372 . S
C536 C537 1.379 . S
C537 H515 0.948 . S
C537 C532 1.364 . S
C537 C536 1.379 . S
C538 C507 1.383 . S
C538 C525 1.479 . S
C538 C539 1.398 . S
C539 C504 1.382 . S
C539 H516 0.951 . S
C539 C538 1.398 . S
C540 C541 1.384 . S
C540 H553 0.947 . S
C540 C575 1.382 1_554 S
C541 C540 1.384 . S
C541 C542 1.378 . S
C542 C541 1.378 . S
C542 C543 1.378 . S
C542 H554 0.952 . S
C543 C542 1.378 . S
C543 H555 0.950 . S
C543 C574 1.393 . S
H544 C563 0.947 1_554 S
H545 C564 0.958 1_554 S
H546 C566 0.953 . S
H547 C567 0.945 . S
H548 C569 0.952 . S
H549 C570 0.949 . S
H550 C572 0.950 . S
H551 C573 0.948 . S
H552 C575 0.951 . S
H553 C540 0.947 . S
H554 C542 0.952 . S
H555 C543 0.950 . S
N556 C559 1.382 . S
N556 C561 1.363 . S
N557 C559 1.371 . S
N557 C560 1.372 . S
N558 C560 1.361 . S
N558 C561 1.377 . S
C559 N556 1.382 . S
C559 N557 1.371 . S
C559 C562 1.480 . S
C560 N557 1.372 . S
C560 N558 1.361 . S
C560 C568 1.457 . S
C561 N556 1.363 . S
C561 N558 1.377 . S
C561 C574 1.472 1_556 S
C562 C559 1.480 . S
C562 C563 1.383 . S
C562 C567 1.385 1_545 S
C563 H544 0.947 1_556 S
C563 C562 1.383 . S
C563 C564 1.412 . S
C564 H545 0.958 1_556 S
C564 C563 1.412 . S
C564 C565 1.349 1_545 S
C565 C564 1.349 1_565 S
C565 C566 1.377 . S
C566 H546 0.953 . S
C566 C565 1.377 . S
C566 C567 1.369 . S
C567 H547 0.945 . S
C567 C562 1.385 1_565 S
C567 C566 1.369 . S
C568 C560 1.457 . S
C568 C569 1.372 . S
C568 C573 1.364 . S
C569 H548 0.952 . S
C569 C568 1.372 . S
C569 C570 1.389 . S
C570 H549 0.949 . S
C570 C569 1.389 . S
C570 C571 1.387 . S
C571 C570 1.387 . S
C571 C572 1.372 . S
C572 H550 0.950 . S
C572 C571 1.372 . S
C572 C573 1.379 . S
C573 H551 0.948 . S
C573 C568 1.364 . S
C573 C572 1.379 . S
C574 C543 1.393 . S
C574 C561 1.472 1_554 S
C574 C575 1.395 1_554 S
C575 C540 1.382 1_556 S
C575 H552 0.951 . S
C575 C574 1.395 1_556 S
Mn576 O581 2.095 . S
Mn576 O591 2.162 . S
Mn576 O592 2.297 . S
Mn576 O600 2.391 . S
Mn576 O601 2.209 1_554 S
Mn576 O602 2.094 . S
Mn577 O582 2.121 . S
Mn577 N584 2.257 . S
Mn577 N593 2.282 . S
Mn577 O601 2.215 . S
Mn577 O603 2.117 . S
C578 O600 1.222 1_556 S
C578 O601 1.283 . S
C579 O591 1.281 . S
C579 O592 1.236 . S
C580 O602 1.240 . S
C580 O603 1.264 1_554 S
O581 Mn576 2.095 . S
O581 C590 1.250 . S
O582 Mn577 2.121 . S
O582 C590 1.258 1_556 S
C583 N584 1.326 . S
C583 C587 1.460 . S
C583 H589 0.929 . S
N584 Mn577 2.257 . S
N584 C583 1.326 . S
N584 C588 1.362 . S
C585 C586 1.258 . S
C585 C588 1.431 . S
C585 C605 1.449 . S
C586 C585 1.258 . S
C586 C587 1.477 . S
C586 H606 0.931 . S
C587 C583 1.460 . S
C587 C586 1.477 . S
C587 H607 0.930 . S
C588 N584 1.362 . S
C588 C585 1.431 . S
C588 C598 1.476 . S
H589 C583 0.929 . S
C590 O581 1.250 . S
C590 O582 1.258 1_554 S
O591 Mn576 2.162 . S
O591 C579 1.281 . S
O592 Mn576 2.297 . S
O592 C579 1.236 . S
N593 Mn577 2.282 . S
N593 C594 1.328 . S
N593 C598 1.318 . S
C594 N593 1.328 . S
C594 C595 1.457 . S
C594 H599 0.929 . S
C595 C594 1.457 . S
C595 C596 1.291 . S
C595 H608 0.931 . S
C596 C595 1.291 . S
C596 C597 1.373 . S
C596 H609 0.929 . S
C597 C596 1.373 . S
C597 C598 1.396 . S
C597 C604 1.403 . S
C598 C588 1.476 . S
C598 N593 1.318 . S
C598 C597 1.396 . S
H599 C594 0.929 . S
O600 Mn576 2.391 . S
O600 C578 1.222 1_554 S
O601 Mn576 2.209 1_556 S
O601 Mn577 2.215 . S
O601 C578 1.283 . S
O602 Mn576 2.094 . S
O602 C580 1.240 . S
O603 Mn577 2.117 . S
O603 C580 1.264 1_556 S
C604 C597 1.403 . S
C604 C605 1.399 . S
C604 H610 0.929 . S
C605 C585 1.449 . S
C605 C604 1.399 . S
C605 H611 0.930 . S
H606 C586 0.931 . S
H607 C587 0.930 . S
H608 C595 0.931 . S
H609 C596 0.929 . S
H610 C604 0.929 . S
H611 C605 0.930 . S
Mn612 O617 2.095 . S
Mn612 O627 2.162 . S
Mn612 O628 2.297 . S
Mn612 O636 2.385 . S
Mn612 O637 2.209 . S
Mn612 O638 2.094 . S
Mn613 O618 2.121 . S
Mn613 N620 2.257 . S
Mn613 N629 2.282 . S
Mn613 O637 2.215 . S
Mn613 O639 2.117 . S
C614 O636 1.234 . S
C614 O637 1.283 . S
C615 O627 1.281 . S
C615 O628 1.236 . S
C616 O638 1.240 . S
C616 O639 1.264 . S
O617 Mn612 2.095 . S
O617 C626 1.250 . S
O618 Mn613 2.121 . S
O618 C626 1.258 . S
C619 N620 1.326 . S
C619 C623 1.460 . S
C619 H625 0.929 . S
N620 Mn613 2.257 . S
N620 C619 1.326 . S
N620 C624 1.362 . S
C621 C622 1.258 . S
C621 C624 1.431 . S
C621 C641 1.449 . S
C622 C621 1.258 . S
C622 C623 1.477 . S
C622 H642 0.931 . S
C623 C619 1.460 . S
C623 C622 1.477 . S
C623 H643 0.930 . S
C624 N620 1.362 . S
C624 C621 1.431 . S
C624 C634 1.476 . S
H625 C619 0.929 . S
C626 O617 1.250 . S
C626 O618 1.258 . S
O627 Mn612 2.162 . S
O627 C615 1.281 . S
O628 Mn612 2.297 . S
O628 C615 1.236 . S
N629 Mn613 2.282 . S
N629 C630 1.328 . S
N629 C634 1.318 . S
C630 N629 1.328 . S
C630 C631 1.457 . S
C630 H635 0.929 . S
C631 C630 1.457 . S
C631 C632 1.291 . S
C631 H644 0.931 . S
C632 C631 1.291 . S
C632 C633 1.373 . S
C632 H645 0.929 . S
C633 C632 1.373 . S
C633 C634 1.396 . S
C633 C640 1.403 . S
C634 C624 1.476 . S
C634 N629 1.318 . S
C634 C633 1.396 . S
H635 C630 0.929 . S
O636 Mn612 2.385 . S
O636 C614 1.234 . S
O637 Mn612 2.209 . S
O637 Mn613 2.215 . S
O637 C614 1.283 . S
O638 Mn612 2.094 . S
O638 C616 1.240 . S
O639 Mn613 2.117 . S
O639 C616 1.264 . S
C640 C633 1.403 . S
C640 C641 1.399 . S
C640 H646 0.929 . S
C641 C621 1.449 . S
C641 C640 1.399 . S
C641 H647 0.930 . S
H642 C622 0.931 . S
H643 C623 0.930 . S
H644 C631 0.931 . S
H645 C632 0.929 . S
H646 C640 0.929 . S
H647 C641 0.930 . S
Mn648 O653 2.095 1_554 S
Mn648 O663 2.162 . S
Mn648 O664 2.297 1_554 S
Mn648 O672 2.385 . S
Mn648 O673 2.209 1_554 S
Mn648 O674 2.094 . S
Mn649 O654 2.121 . S
Mn649 N656 2.257 . S
Mn649 N665 2.282 . S
Mn649 O673 2.215 . S
Mn649 O675 2.117 1_556 S
C650 O672 1.233 . S
C650 O673 1.284 1_554 S
C651 O663 1.281 . S
C651 O664 1.236 1_554 S
C652 O674 1.240 . S
C652 O675 1.264 . S
O653 Mn648 2.095 1_556 S
O653 C662 1.250 . S
O654 Mn649 2.121 . S
O654 C662 1.258 . S
C655 N656 1.326 . S
C655 C659 1.460 . S
C655 H661 0.929 . S
N656 Mn649 2.257 . S
N656 C655 1.326 . S
N656 C660 1.362 . S
C657 C658 1.258 . S
C657 C660 1.431 . S
C657 C677 1.449 . S
C658 C657 1.258 . S
C658 C659 1.477 . S
C658 H678 0.931 . S
C659 C655 1.460 . S
C659 C658 1.477 . S
C659 H679 0.930 . S
C660 N656 1.362 . S
C660 C657 1.431 . S
C660 C670 1.476 . S
H661 C655 0.929 . S
C662 O653 1.250 . S
C662 O654 1.258 . S
O663 Mn648 2.162 . S
O663 C651 1.281 . S
O664 Mn648 2.297 1_556 S
O664 C651 1.236 1_556 S
N665 Mn649 2.282 . S
N665 C666 1.328 1_556 S
N665 C670 1.318 . S
C666 N665 1.328 1_554 S
C666 C667 1.457 . S
C666 H671 0.929 . S
C667 C666 1.457 . S
C667 C668 1.291 . S
C667 H680 0.931 . S
C668 C667 1.291 . S
C668 C669 1.373 1_554 S
C668 H681 0.929 . S
C669 C668 1.373 1_556 S
C669 C670 1.396 . S
C669 C676 1.403 . S
C670 C660 1.476 . S
C670 N665 1.318 . S
C670 C669 1.396 . S
H671 C666 0.929 . S
O672 Mn648 2.385 . S
O672 C650 1.233 . S
O673 Mn648 2.209 1_556 S
O673 Mn649 2.215 . S
O673 C650 1.284 1_556 S
O674 Mn648 2.094 . S
O674 C652 1.240 . S
O675 Mn649 2.117 1_554 S
O675 C652 1.264 . S
C676 C669 1.403 . S
C676 C677 1.399 . S
C676 H682 0.929 . S
C677 C657 1.449 . S
C677 C676 1.399 . S
C677 H683 0.930 . S
H678 C658 0.931 . S
H679 C659 0.930 . S
H680 C667 0.931 . S
H681 C668 0.929 . S
H682 C676 0.929 . S
H683 C677 0.930 . S
Mn684 O689 2.095 . S
Mn684 O699 2.162 . S
Mn684 O700 2.297 . S
Mn684 O708 2.364 1_545 S
Mn684 O709 2.209 1_545 S
Mn684 O710 2.094 . S
Mn685 O690 2.121 . S
Mn685 N692 2.257 . S
Mn685 N701 2.282 . S
Mn685 O709 2.215 . S
Mn685 O711 2.117 . S
C686 O708 1.277 . S
C686 O709 1.283 . S
C687 O699 1.281 . S
C687 O700 1.236 . S
C688 O710 1.240 . S
C688 O711 1.264 1_545 S
O689 Mn684 2.095 . S
O689 C698 1.281 . S
O690 Mn685 2.121 . S
O690 C698 1.218 1_565 S
C691 N692 1.326 . S
C691 C695 1.460 . S
C691 H697 0.929 . S
N692 Mn685 2.257 . S
N692 C691 1.326 . S
N692 C696 1.362 . S
C693 C694 1.258 . S
C693 C696 1.431 . S
C693 C713 1.449 . S
C694 C693 1.258 . S
C694 C695 1.477 . S
C694 H714 0.931 . S
C695 C691 1.460 . S
C695 C694 1.477 . S
C695 H715 0.930 . S
C696 N692 1.362 . S
C696 C693 1.431 . S
C696 C706 1.476 . S
H697 C691 0.929 . S
C698 O689 1.281 . S
C698 O690 1.218 1_545 S
O699 Mn684 2.162 . S
O699 C687 1.281 . S
O700 Mn684 2.297 . S
O700 C687 1.236 . S
N701 Mn685 2.282 . S
N701 C702 1.328 . S
N701 C706 1.318 . S
C702 N701 1.328 . S
C702 C703 1.457 . S
C702 H707 0.929 . S
C703 C702 1.457 . S
C703 C704 1.291 . S
C703 H716 0.931 . S
C704 C703 1.291 . S
C704 C705 1.373 . S
C704 H717 0.929 . S
C705 C704 1.373 . S
C705 C706 1.396 . S
C705 C712 1.403 . S
C706 C696 1.476 . S
C706 N701 1.318 . S
C706 C705 1.396 . S
H707 C702 0.929 . S
O708 Mn684 2.364 1_565 S
O708 C686 1.277 . S
O709 Mn684 2.209 1_565 S
O709 Mn685 2.215 . S
O709 C686 1.283 . S
O710 Mn684 2.094 . S
O710 C688 1.240 . S
O711 Mn685 2.117 . S
O711 C688 1.264 1_565 S
C712 C705 1.403 . S
C712 C713 1.399 . S
C712 H718 0.929 . S
C713 C693 1.449 . S
C713 C712 1.399 . S
C713 H719 0.930 . S
H714 C694 0.931 . S
H715 C695 0.930 . S
H716 C703 0.931 . S
H717 C704 0.929 . S
H718 C712 0.929 . S
H719 C713 0.930 . S
Mn720 O725 2.095 . S
Mn720 O735 2.162 . S
Mn720 O736 2.297 . S
Mn720 O744 2.385 . S
Mn720 O745 2.209 . S
Mn720 O746 2.094 . S
Mn721 O726 2.121 . S
Mn721 N728 2.257 . S
Mn721 N737 2.282 . S
Mn721 O745 2.215 . S
Mn721 O747 2.117 . S
C722 O744 1.234 . S
C722 O745 1.283 . S
C723 O735 1.281 . S
C723 O736 1.236 . S
C724 O746 1.240 . S
C724 O747 1.264 . S
O725 Mn720 2.095 . S
O725 C734 1.250 . S
O726 Mn721 2.121 . S
O726 C734 1.258 . S
C727 N728 1.326 . S
C727 C731 1.460 . S
C727 H733 0.929 . S
N728 Mn721 2.257 . S
N728 C727 1.326 . S
N728 C732 1.362 . S
C729 C730 1.258 . S
C729 C732 1.431 . S
C729 C749 1.449 . S
C730 C729 1.258 . S
C730 C731 1.477 . S
C730 H750 0.931 . S
C731 C727 1.460 . S
C731 C730 1.477 . S
C731 H751 0.930 . S
C732 N728 1.362 . S
C732 C729 1.431 . S
C732 C742 1.476 . S
H733 C727 0.929 . S
C734 O725 1.250 . S
C734 O726 1.258 . S
O735 Mn720 2.162 . S
O735 C723 1.281 . S
O736 Mn720 2.297 . S
O736 C723 1.236 . S
N737 Mn721 2.282 . S
N737 C738 1.328 . S
N737 C742 1.318 . S
C738 N737 1.328 . S
C738 C739 1.457 . S
C738 H743 0.929 . S
C739 C738 1.457 . S
C739 C740 1.291 . S
C739 H752 0.931 . S
C740 C739 1.291 . S
C740 C741 1.373 . S
C740 H753 0.929 . S
C741 C740 1.373 . S
C741 C742 1.396 . S
C741 C748 1.403 . S
C742 C732 1.476 . S
C742 N737 1.318 . S
C742 C741 1.396 . S
H743 C738 0.929 . S
O744 Mn720 2.385 . S
O744 C722 1.234 . S
O745 Mn720 2.209 . S
O745 Mn721 2.215 . S
O745 C722 1.283 . S
O746 Mn720 2.094 . S
O746 C724 1.240 . S
O747 Mn721 2.117 . S
O747 C724 1.264 . S
C748 C741 1.403 . S
C748 C749 1.399 . S
C748 H754 0.929 . S
C749 C729 1.449 . S
C749 C748 1.399 . S
C749 H755 0.930 . S
H750 C730 0.931 . S
H751 C731 0.930 . S
H752 C739 0.931 . S
H753 C740 0.929 . S
H754 C748 0.929 . S
H755 C749 0.930 . S
Mn756 O761 2.095 . S
Mn756 O771 2.162 . S
Mn756 O772 2.297 . S
Mn756 O780 2.385 . S
Mn756 O781 2.209 . S
Mn756 O782 2.094 . S
Mn757 O762 2.121 . S
Mn757 N764 2.257 . S
Mn757 N773 2.282 . S
Mn757 O781 2.215 . S
Mn757 O783 2.117 . S
C758 O780 1.234 . S
C758 O781 1.283 . S
C759 O771 1.281 . S
C759 O772 1.236 . S
C760 O782 1.240 . S
C760 O783 1.264 . S
O761 Mn756 2.095 . S
O761 C770 1.250 . S
O762 Mn757 2.121 . S
O762 C770 1.258 . S
C763 N764 1.326 . S
C763 C767 1.460 . S
C763 H769 0.929 . S
N764 Mn757 2.257 . S
N764 C763 1.326 . S
N764 C768 1.362 . S
C765 C766 1.258 . S
C765 C768 1.431 . S
C765 C785 1.449 . S
C766 C765 1.258 . S
C766 C767 1.477 . S
C766 H786 0.931 . S
C767 C763 1.460 . S
C767 C766 1.477 . S
C767 H787 0.930 . S
C768 N764 1.362 . S
C768 C765 1.431 . S
C768 C778 1.476 . S
H769 C763 0.929 . S
C770 O761 1.250 . S
C770 O762 1.258 . S
O771 Mn756 2.162 . S
O771 C759 1.281 . S
O772 Mn756 2.297 . S
O772 C759 1.236 . S
N773 Mn757 2.282 . S
N773 C774 1.328 . S
N773 C778 1.318 . S
C774 N773 1.328 . S
C774 C775 1.457 . S
C774 H779 0.929 . S
C775 C774 1.457 . S
C775 C776 1.291 . S
C775 H788 0.931 . S
C776 C775 1.291 . S
C776 C777 1.373 . S
C776 H789 0.929 . S
C777 C776 1.373 . S
C777 C778 1.396 . S
C777 C784 1.403 . S
C778 C768 1.476 . S
C778 N773 1.318 . S
C778 C777 1.396 . S
H779 C774 0.929 . S
O780 Mn756 2.385 . S
O780 C758 1.234 . S
O781 Mn756 2.209 . S
O781 Mn757 2.215 . S
O781 C758 1.283 . S
O782 Mn756 2.094 . S
O782 C760 1.240 . S
O783 Mn757 2.117 . S
O783 C760 1.264 . S
C784 C777 1.403 . S
C784 C785 1.399 . S
C784 H790 0.929 . S
C785 C765 1.449 . S
C785 C784 1.399 . S
C785 H791 0.930 . S
H786 C766 0.931 . S
H787 C767 0.930 . S
H788 C775 0.931 . S
H789 C776 0.929 . S
H790 C784 0.929 . S
H791 C785 0.930 . S
Mn792 O797 2.095 . S
Mn792 O807 2.162 . S
Mn792 O808 2.297 . S
Mn792 O816 2.385 . S
Mn792 O817 2.209 . S
Mn792 O818 2.094 . S
Mn793 O798 2.121 . S
Mn793 N800 2.257 . S
Mn793 N809 2.282 . S
Mn793 O817 2.215 . S
Mn793 O819 2.117 . S
C794 O816 1.234 . S
C794 O817 1.283 . S
C795 O807 1.281 . S
C795 O808 1.236 . S
C796 O818 1.240 . S
C796 O819 1.264 . S
O797 Mn792 2.095 . S
O797 C806 1.250 . S
O798 Mn793 2.121 . S
O798 C806 1.258 . S
C799 N800 1.326 . S
C799 C803 1.460 . S
C799 H805 0.929 . S
N800 Mn793 2.257 . S
N800 C799 1.326 . S
N800 C804 1.362 . S
C801 C802 1.258 . S
C801 C804 1.431 . S
C801 C821 1.449 . S
C802 C801 1.258 . S
C802 C803 1.477 . S
C802 H822 0.931 . S
C803 C799 1.460 . S
C803 C802 1.477 . S
C803 H823 0.930 . S
C804 N800 1.362 . S
C804 C801 1.431 . S
C804 C814 1.476 . S
H805 C799 0.929 . S
C806 O797 1.250 . S
C806 O798 1.258 . S
O807 Mn792 2.162 . S
O807 C795 1.281 . S
O808 Mn792 2.297 . S
O808 C795 1.236 . S
N809 Mn793 2.282 . S
N809 C810 1.328 . S
N809 C814 1.318 . S
C810 N809 1.328 . S
C810 C811 1.457 . S
C810 H815 0.929 . S
C811 C810 1.457 . S
C811 C812 1.291 . S
C811 H824 0.931 . S
C812 C811 1.291 . S
C812 C813 1.373 . S
C812 H825 0.929 . S
C813 C812 1.373 . S
C813 C814 1.396 . S
C813 C820 1.403 . S
C814 C804 1.476 . S
C814 N809 1.318 . S
C814 C813 1.396 . S
H815 C810 0.929 . S
O816 Mn792 2.385 . S
O816 C794 1.234 . S
O817 Mn792 2.209 . S
O817 Mn793 2.215 . S
O817 C794 1.283 . S
O818 Mn792 2.094 . S
O818 C796 1.240 . S
O819 Mn793 2.117 . S
O819 C796 1.264 . S
C820 C813 1.403 . S
C820 C821 1.399 . S
C820 H826 0.929 . S
C821 C801 1.449 . S
C821 C820 1.399 . S
C821 H827 0.930 . S
H822 C802 0.931 . S
H823 C803 0.930 . S
H824 C811 0.931 . S
H825 C812 0.929 . S
H826 C820 0.929 . S
H827 C821 0.930 . S
Mn828 O833 2.095 . S
Mn828 O843 2.162 . S
Mn828 O844 2.297 . S
Mn828 O852 2.385 1_565 S
Mn828 O853 2.209 1_565 S
Mn828 O854 2.094 . S
Mn829 O834 2.121 . S
Mn829 N836 2.257 . S
Mn829 N845 2.282 . S
Mn829 O853 2.215 . S
Mn829 O855 2.117 . S
C830 O852 1.234 . S
C830 O853 1.283 . S
C831 O843 1.281 . S
C831 O844 1.236 . S
C832 O854 1.219 1_545 S
C832 O855 1.292 . S
O833 Mn828 2.095 . S
O833 C842 1.250 1_565 S
O834 Mn829 2.121 . S
O834 C842 1.258 . S
C835 N836 1.326 . S
C835 C839 1.460 . S
C835 H841 0.929 . S
N836 Mn829 2.257 . S
N836 C835 1.326 . S
N836 C840 1.362 . S
C837 C838 1.258 . S
C837 C840 1.431 . S
C837 C857 1.449 . S
C838 C837 1.258 . S
C838 C839 1.477 . S
C838 H858 0.931 . S
C839 C835 1.460 . S
C839 C838 1.477 . S
C839 H859 0.930 . S
C840 N836 1.362 . S
C840 C837 1.431 . S
C840 C850 1.476 . S
H841 C835 0.929 . S
C842 O833 1.250 1_545 S
C842 O834 1.258 . S
O843 Mn828 2.162 . S
O843 C831 1.281 . S
O844 Mn828 2.297 . S
O844 C831 1.236 . S
N845 Mn829 2.282 . S
N845 C846 1.328 . S
N845 C850 1.318 . S
C846 N845 1.328 . S
C846 C847 1.457 . S
C846 H851 0.929 . S
C847 C846 1.457 . S
C847 C848 1.291 . S
C847 H860 0.931 . S
C848 C847 1.291 . S
C848 C849 1.373 . S
C848 H861 0.929 . S
C849 C848 1.373 . S
C849 C850 1.396 . S
C849 C856 1.403 . S
C850 C840 1.476 . S
C850 N845 1.318 . S
C850 C849 1.396 . S
H851 C846 0.929 . S
O852 Mn828 2.385 1_545 S
O852 C830 1.234 . S
O853 Mn828 2.209 1_545 S
O853 Mn829 2.215 . S
O853 C830 1.283 . S
O854 Mn828 2.094 . S
O854 C832 1.219 1_565 S
O855 Mn829 2.117 . S
O855 C832 1.292 . S
C856 C849 1.403 . S
C856 C857 1.399 . S
C856 H862 0.929 . S
C857 C837 1.449 . S
C857 C856 1.399 . S
C857 H863 0.930 . S
H858 C838 0.931 . S
H859 C839 0.930 . S
H860 C847 0.931 . S
H861 C848 0.929 . S
H862 C856 0.929 . S
H863 C857 0.930 . S
Mn864 O869 2.095 . S
Mn864 O879 2.162 . S
Mn864 O880 2.297 . S
Mn864 O888 2.385 1_455 S
Mn864 O889 2.209 1_455 S
Mn864 O890 2.094 . S
Mn865 O870 2.121 . S
Mn865 N872 2.257 . S
Mn865 N881 2.282 . S
Mn865 O889 2.215 . S
Mn865 O891 2.117 . S
C866 O888 1.234 . S
C866 O889 1.283 . S
C867 O879 1.281 . S
C867 O880 1.236 . S
C868 O890 1.240 . S
C868 O891 1.264 1_455 S
O869 Mn864 2.095 . S
O869 C878 1.250 1_455 S
O870 Mn865 2.121 . S
O870 C878 1.258 . S
C871 N872 1.326 . S
C871 C875 1.460 . S
C871 H877 0.929 . S
N872 Mn865 2.257 . S
N872 C871 1.326 . S
N872 C876 1.362 . S
C873 C874 1.258 . S
C873 C876 1.431 . S
C873 C893 1.449 . S
C874 C873 1.258 . S
C874 C875 1.477 . S
C874 H894 0.931 . S
C875 C871 1.460 . S
C875 C874 1.477 . S
C875 H895 0.930 . S
C876 N872 1.362 . S
C876 C873 1.431 . S
C876 C886 1.476 . S
H877 C871 0.929 . S
C878 O869 1.250 1_655 S
C878 O870 1.258 . S
O879 Mn864 2.162 . S
O879 C867 1.281 . S
O880 Mn864 2.297 . S
O880 C867 1.236 . S
N881 Mn865 2.282 . S
N881 C882 1.328 . S
N881 C886 1.318 . S
C882 N881 1.328 . S
C882 C883 1.457 . S
C882 H887 0.929 . S
C883 C882 1.457 . S
C883 C884 1.291 . S
C883 H896 0.931 . S
C884 C883 1.291 . S
C884 C885 1.373 . S
C884 H897 0.929 . S
C885 C884 1.373 . S
C885 C886 1.396 . S
C885 C892 1.403 . S
C886 C876 1.476 . S
C886 N881 1.318 . S
C886 C885 1.396 . S
H887 C882 0.929 . S
O888 Mn864 2.385 1_655 S
O888 C866 1.234 . S
O889 Mn864 2.209 1_655 S
O889 Mn865 2.215 . S
O889 C866 1.283 . S
O890 Mn864 2.094 . S
O890 C868 1.240 . S
O891 Mn865 2.117 . S
O891 C868 1.264 1_655 S
C892 C885 1.403 . S
C892 C893 1.399 . S
C892 H898 0.929 . S
C893 C873 1.449 . S
C893 C892 1.399 . S
C893 H899 0.930 . S
H894 C874 0.931 . S
H895 C875 0.930 . S
H896 C883 0.931 . S
H897 C884 0.929 . S
H898 C892 0.929 . S
H899 C893 0.930 . S
Mn900 O905 2.095 . S
Mn900 O915 2.162 . S
Mn900 O916 2.297 . S
Mn900 O924 2.385 . S
Mn900 O925 2.209 . S
Mn900 O926 2.094 . S
Mn901 O906 2.121 . S
Mn901 N908 2.257 . S
Mn901 N917 2.282 . S
Mn901 O925 2.215 . S
Mn901 O927 2.117 . S
C902 O924 1.234 . S
C902 O925 1.283 . S
C903 O915 1.281 . S
C903 O916 1.236 . S
C904 O926 1.240 . S
C904 O927 1.264 . S
O905 Mn900 2.095 . S
O905 C914 1.250 . S
O906 Mn901 2.121 . S
O906 C914 1.258 . S
C907 N908 1.326 . S
C907 C911 1.460 . S
C907 H913 0.929 . S
N908 Mn901 2.257 . S
N908 C907 1.326 . S
N908 C912 1.362 . S
C909 C910 1.258 . S
C909 C912 1.431 . S
C909 C929 1.449 . S
C910 C909 1.258 . S
C910 C911 1.477 . S
C910 H930 0.931 . S
C911 C907 1.460 . S
C911 C910 1.477 . S
C911 H931 0.930 . S
C912 N908 1.362 . S
C912 C909 1.431 . S
C912 C922 1.476 . S
H913 C907 0.929 . S
C914 O905 1.250 . S
C914 O906 1.258 . S
O915 Mn900 2.162 . S
O915 C903 1.281 . S
O916 Mn900 2.297 . S
O916 C903 1.236 . S
N917 Mn901 2.282 . S
N917 C918 1.328 . S
N917 C922 1.318 . S
C918 N917 1.328 . S
C918 C919 1.457 . S
C918 H923 0.929 . S
C919 C918 1.457 . S
C919 C920 1.291 . S
C919 H932 0.931 . S
C920 C919 1.291 . S
C920 C921 1.373 . S
C920 H933 0.929 . S
C921 C920 1.373 . S
C921 C922 1.396 . S
C921 C928 1.403 . S
C922 C912 1.476 . S
C922 N917 1.318 . S
C922 C921 1.396 . S
H923 C918 0.929 . S
O924 Mn900 2.385 . S
O924 C902 1.234 . S
O925 Mn900 2.209 . S
O925 Mn901 2.215 . S
O925 C902 1.283 . S
O926 Mn900 2.094 . S
O926 C904 1.240 . S
O927 Mn901 2.117 . S
O927 C904 1.264 . S
C928 C921 1.403 . S
C928 C929 1.399 . S
C928 H934 0.929 . S
C929 C909 1.449 . S
C929 C928 1.399 . S
C929 H935 0.930 . S
H930 C910 0.931 . S
H931 C911 0.930 . S
H932 C919 0.931 . S
H933 C920 0.929 . S
H934 C928 0.929 . S
H935 C929 0.930 . S
Mn936 O941 2.095 1_455 S
Mn936 O951 2.162 . S
Mn936 O952 2.297 1_455 S
Mn936 O960 2.385 . S
Mn936 O961 2.209 1_455 S
Mn936 O962 2.094 . S
Mn937 O942 2.121 . S
Mn937 N944 2.257 . S
Mn937 N953 2.282 1_655 S
Mn937 O961 2.215 . S
Mn937 O963 2.117 1_655 S
C938 O960 1.234 . S
C938 O961 1.283 1_455 S
C939 O951 1.281 . S
C939 O952 1.236 1_455 S
C940 O962 1.240 . S
C940 O963 1.264 . S
O941 Mn936 2.095 1_655 S
O941 C950 1.250 . S
O942 Mn937 2.121 . S
O942 C950 1.258 . S
C943 N944 1.326 . S
C943 C947 1.460 . S
C943 H949 0.929 . S
N944 Mn937 2.257 . S
N944 C943 1.326 . S
N944 C948 1.362 . S
C945 C946 1.258 . S
C945 C948 1.431 . S
C945 C965 1.449 . S
C946 C945 1.258 . S
C946 C947 1.477 . S
C946 H966 0.931 . S
C947 C943 1.460 . S
C947 C946 1.477 . S
C947 H967 0.930 . S
C948 N944 1.362 . S
C948 C945 1.431 . S
C948 C958 1.476 . S
H949 C943 0.929 . S
C950 O941 1.250 . S
C950 O942 1.258 . S
O951 Mn936 2.162 . S
O951 C939 1.281 . S
O952 Mn936 2.297 1_655 S
O952 C939 1.236 1_655 S
N953 Mn937 2.282 1_455 S
N953 C954 1.328 . S
N953 C958 1.318 1_455 S
C954 N953 1.328 . S
C954 C955 1.457 . S
C954 H959 0.929 . S
C955 C954 1.457 . S
C955 C956 1.291 . S
C955 H968 0.931 . S
C956 C955 1.291 . S
C956 C957 1.373 1_455 S
C956 H969 0.929 . S
C957 C956 1.373 1_655 S
C957 C958 1.396 . S
C957 C964 1.403 . S
C958 C948 1.476 . S
C958 N953 1.318 1_655 S
C958 C957 1.396 . S
H959 C954 0.929 . S
O960 Mn936 2.385 . S
O960 C938 1.234 . S
O961 Mn936 2.209 1_655 S
O961 Mn937 2.215 . S
O961 C938 1.283 1_655 S
O962 Mn936 2.094 . S
O962 C940 1.240 . S
O963 Mn937 2.117 1_455 S
O963 C940 1.264 . S
C964 C957 1.403 . S
C964 C965 1.399 . S
C964 H970 0.929 . S
C965 C945 1.449 . S
C965 C964 1.399 . S
C965 H971 0.930 . S
H966 C946 0.931 . S
H967 C947 0.930 . S
H968 C955 0.931 . S
H969 C956 0.929 . S
H970 C964 0.929 . S
H971 C965 0.930 . S
Mn972 O977 2.095 . S
Mn972 O987 2.162 . S
Mn972 O988 2.297 . S
Mn972 O996 2.385 . S
Mn972 O997 2.209 . S
Mn972 O998 2.094 . S
Mn973 O978 2.121 . S
Mn973 N980 2.257 . S
Mn973 N989 2.282 . S
Mn973 O997 2.215 . S
Mn973 O999 2.117 . S
C974 O996 1.234 . S
C974 O997 1.283 . S
C975 O987 1.281 . S
C975 O988 1.236 . S
C976 O998 1.240 . S
C976 O999 1.264 . S
O977 Mn972 2.095 . S
O977 C986 1.250 . S
O978 Mn973 2.121 . S
O978 C986 1.258 . S
C979 N980 1.326 . S
C979 C983 1.460 . S
C979 H985 0.929 . S
N980 Mn973 2.257 . S
N980 C979 1.326 . S
N980 C984 1.362 . S
C981 C982 1.258 . S
C981 C984 1.431 . S
C981 C1001 1.449 . S
C982 C981 1.258 . S
C982 C983 1.477 . S
C982 H1002 0.931 . S
C983 C979 1.460 . S
C983 C982 1.477 . S
C983 H1003 0.930 . S
C984 N980 1.362 . S
C984 C981 1.431 . S
C984 C994 1.476 . S
H985 C979 0.929 . S
C986 O977 1.250 . S
C986 O978 1.258 . S
O987 Mn972 2.162 . S
O987 C975 1.281 . S
O988 Mn972 2.297 . S
O988 C975 1.236 . S
N989 Mn973 2.282 . S
N989 C990 1.328 . S
N989 C994 1.318 . S
C990 N989 1.328 . S
C990 C991 1.457 . S
C990 H995 0.929 . S
C991 C990 1.457 . S
C991 C992 1.291 . S
C991 H1004 0.931 . S
C992 C991 1.291 . S
C992 C993 1.373 . S
C992 H1005 0.929 . S
C993 C992 1.373 . S
C993 C994 1.396 . S
C993 C1000 1.403 . S
C994 C984 1.476 . S
C994 N989 1.318 . S
C994 C993 1.396 . S
H995 C990 0.929 . S
O996 Mn972 2.385 . S
O996 C974 1.234 . S
O997 Mn972 2.209 . S
O997 Mn973 2.215 . S
O997 C974 1.283 . S
O998 Mn972 2.094 . S
O998 C976 1.240 . S
O999 Mn973 2.117 . S
O999 C976 1.264 . S
C1000 C993 1.403 . S
C1000 C1001 1.399 . S
C1000 H1006 0.929 . S
C1001 C981 1.449 . S
C1001 C1000 1.399 . S
C1001 H1007 0.930 . S
H1002 C982 0.931 . S
H1003 C983 0.930 . S
H1004 C991 0.931 . S
H1005 C992 0.929 . S
H1006 C1000 0.929 . S
H1007 C1001 0.930 . S
H1008 C1020 0.930 . S
H1009 C1022 0.930 . S
H1010 C1023 0.930 . S
H1011 C1027 0.959 . S
H1012 C1027 0.959 . S
H1013 C1027 0.961 . S
H1014 C1028 0.960 . S
H1015 C1028 0.961 . S
H1016 C1028 0.959 . S
H1017 C1031 0.929 . S
H1018 C1032 0.931 . S
H1019 C1034 0.930 . S
C1020 H1008 0.930 . S
C1020 C1021 1.399 . S
C1020 C1025 1.399 . S
C1021 C1020 1.399 . S
C1021 C1022 1.376 . S
C1022 H1009 0.930 . S
C1022 C1021 1.376 . S
C1022 C1023 1.388 . S
C1023 H1010 0.930 . S
C1023 C1022 1.388 . S
C1023 C1024 1.390 . S
C1024 C1023 1.390 . S
C1024 C1025 1.394 . S
C1024 C1030 1.465 . S
C1025 C1020 1.399 . S
C1025 C1024 1.394 . S
C1025 C1026 1.516 . S
C1026 C1025 1.516 . S
C1026 C1027 1.502 . S
C1026 C1028 1.561 . S
C1026 C1029 1.526 . S
C1027 H1011 0.959 . S
C1027 H1012 0.959 . S
C1027 H1013 0.961 . S
C1027 C1026 1.502 . S
C1028 H1014 0.960 . S
C1028 H1015 0.961 . S
C1028 H1016 0.959 . S
C1028 C1026 1.561 . S
C1029 C1026 1.526 . S
C1029 C1030 1.396 . S
C1029 C1034 1.390 . S
C1030 C1024 1.465 . S
C1030 C1029 1.396 . S
C1030 C1031 1.399 . S
C1031 H1017 0.929 . S
C1031 C1030 1.399 . S
C1031 C1032 1.385 . S
C1032 H1018 0.931 . S
C1032 C1031 1.385 . S
C1032 C1033 1.389 . S
C1033 C1032 1.389 . S
C1033 C1034 1.387 . S
C1034 H1019 0.930 . S
C1034 C1029 1.390 . S
C1034 C1033 1.387 . S
H1035 C1047 0.930 . S
H1036 C1049 0.930 . S
H1037 C1050 0.930 . S
H1038 C1054 0.959 . S
H1039 C1054 0.959 . S
H1040 C1054 0.961 . S
H1041 C1055 0.960 . S
H1042 C1055 0.961 . S
H1043 C1055 0.959 . S
H1044 C1058 0.929 . S
H1045 C1059 0.931 . S
H1046 C1061 0.930 . S
C1047 H1035 0.930 . S
C1047 C1048 1.399 . S
C1047 C1052 1.399 . S
C1048 C1047 1.399 . S
C1048 C1049 1.376 . S
C1049 H1036 0.930 . S
C1049 C1048 1.376 . S
C1049 C1050 1.388 . S
C1050 H1037 0.930 . S
C1050 C1049 1.388 . S
C1050 C1051 1.390 . S
C1051 C1050 1.390 . S
C1051 C1052 1.394 . S
C1051 C1057 1.465 . S
C1052 C1047 1.399 . S
C1052 C1051 1.394 . S
C1052 C1053 1.516 . S
C1053 C1052 1.516 . S
C1053 C1054 1.502 . S
C1053 C1055 1.561 . S
C1053 C1056 1.526 . S
C1054 H1038 0.959 . S
C1054 H1039 0.959 . S
C1054 H1040 0.961 . S
C1054 C1053 1.502 . S
C1055 H1041 0.960 . S
C1055 H1042 0.961 . S
C1055 H1043 0.959 . S
C1055 C1053 1.561 . S
C1056 C1053 1.526 . S
C1056 C1057 1.396 . S
C1056 C1061 1.390 . S
C1057 C1051 1.465 . S
C1057 C1056 1.396 . S
C1057 C1058 1.399 . S
C1058 H1044 0.929 . S
C1058 C1057 1.399 . S
C1058 C1059 1.385 . S
C1059 H1045 0.931 . S
C1059 C1058 1.385 . S
C1059 C1060 1.389 . S
C1060 C1059 1.389 . S
C1060 C1061 1.387 . S
C1061 H1046 0.930 . S
C1061 C1056 1.390 . S
C1061 C1060 1.387 . S
H1062 C1074 0.930 . S
H1063 C1076 0.930 . S
H1064 C1077 0.930 . S
H1065 C1081 0.959 . S
H1066 C1081 0.959 . S
H1067 C1081 0.961 . S
H1068 C1082 0.960 . S
H1069 C1082 0.961 . S
H1070 C1082 0.959 . S
H1071 C1085 0.929 . S
H1072 C1086 0.931 . S
H1073 C1088 0.930 . S
C1074 H1062 0.930 . S
C1074 C1075 1.399 . S
C1074 C1079 1.399 . S
C1075 C1074 1.399 . S
C1075 C1076 1.376 . S
C1076 H1063 0.930 . S
C1076 C1075 1.376 . S
C1076 C1077 1.388 . S
C1077 H1064 0.930 . S
C1077 C1076 1.388 . S
C1077 C1078 1.390 . S
C1078 C1077 1.390 . S
C1078 C1079 1.394 . S
C1078 C1084 1.465 . S
C1079 C1074 1.399 . S
C1079 C1078 1.394 . S
C1079 C1080 1.516 . S
C1080 C1079 1.516 . S
C1080 C1081 1.502 . S
C1080 C1082 1.561 . S
C1080 C1083 1.526 . S
C1081 H1065 0.959 . S
C1081 H1066 0.959 . S
C1081 H1067 0.961 . S
C1081 C1080 1.502 . S
C1082 H1068 0.960 . S
C1082 H1069 0.961 . S
C1082 H1070 0.959 . S
C1082 C1080 1.561 . S
C1083 C1080 1.526 . S
C1083 C1084 1.396 . S
C1083 C1088 1.390 . S
C1084 C1078 1.465 . S
C1084 C1083 1.396 . S
C1084 C1085 1.399 . S
C1085 H1071 0.929 . S
C1085 C1084 1.399 . S
C1085 C1086 1.385 . S
C1086 H1072 0.931 . S
C1086 C1085 1.385 . S
C1086 C1087 1.389 . S
C1087 C1086 1.389 . S
C1087 C1088 1.387 . S
C1088 H1073 0.930 . S
C1088 C1083 1.390 . S
C1088 C1087 1.387 . S
H1089 C1101 0.930 . S
H1090 C1103 0.987 . S
H1091 C1104 0.930 . S
H1092 C1108 0.959 . S
H1093 C1108 0.959 . S
H1094 C1108 0.961 . S
H1095 C1109 0.960 . S
H1096 C1109 0.961 . S
H1097 C1109 0.959 . S
H1098 C1112 0.929 . S
H1099 C1113 0.931 . S
H1100 C1115 0.930 . S
C1101 H1089 0.930 . S
C1101 C1102 1.399 . S
C1101 C1106 1.399 . S
C1102 C1101 1.399 . S
C1102 C1103 1.376 . S
C1103 H1090 0.987 . S
C1103 C1102 1.376 . S
C1103 C1104 1.388 . S
C1104 H1091 0.930 . S
C1104 C1103 1.388 . S
C1104 C1105 1.390 . S
C1105 C1104 1.390 . S
C1105 C1106 1.394 . S
C1105 C1111 1.475 . S
C1106 C1101 1.399 . S
C1106 C1105 1.394 . S
C1106 C1107 1.516 . S
C1107 C1106 1.516 . S
C1107 C1108 1.502 . S
C1107 C1109 1.561 1_565 S
C1107 C1110 1.526 . S
C1108 H1092 0.959 . S
C1108 H1093 0.959 . S
C1108 H1094 0.961 . S
C1108 C1107 1.502 . S
C1109 H1095 0.960 . S
C1109 H1096 0.961 . S
C1109 H1097 0.959 . S
C1109 C1107 1.561 1_545 S
C1110 C1107 1.526 . S
C1110 C1111 1.398 . S
C1110 C1115 1.390 . S
C1111 C1105 1.475 . S
C1111 C1110 1.398 . S
C1111 C1112 1.391 1_565 S
C1112 H1098 0.929 . S
C1112 C1111 1.391 1_545 S
C1112 C1113 1.385 . S
C1113 H1099 0.931 . S
C1113 C1112 1.385 . S
C1113 C1114 1.389 . S
C1114 C1113 1.389 . S
C1114 C1115 1.386 1_545 S
C1115 H1100 0.930 . S
C1115 C1110 1.390 . S
C1115 C1114 1.386 1_565 S
H1116 C1128 0.930 . S
H1117 C1130 0.930 . S
H1118 C1131 0.930 . S
H1119 C1135 0.959 . S
H1120 C1135 0.959 . S
H1121 C1135 0.961 . S
H1122 C1136 0.960 . S
H1123 C1136 0.961 . S
H1124 C1136 0.959 . S
H1125 C1139 0.929 . S
H1126 C1140 0.931 . S
H1127 C1142 0.930 . S
C1128 H1116 0.930 . S
C1128 C1129 1.399 . S
C1128 C1133 1.399 . S
C1129 C1128 1.399 . S
C1129 C1130 1.376 . S
C1130 H1117 0.930 . S
C1130 C1129 1.376 . S
C1130 C1131 1.388 . S
C1131 H1118 0.930 . S
C1131 C1130 1.388 . S
C1131 C1132 1.390 . S
C1132 C1131 1.390 . S
C1132 C1133 1.394 . S
C1132 C1138 1.465 . S
C1133 C1128 1.399 . S
C1133 C1132 1.394 . S
C1133 C1134 1.516 . S
C1134 C1133 1.516 . S
C1134 C1135 1.502 . S
C1134 C1136 1.561 . S
C1134 C1137 1.526 . S
C1135 H1119 0.959 . S
C1135 H1120 0.959 . S
C1135 H1121 0.961 . S
C1135 C1134 1.502 . S
C1136 H1122 0.960 . S
C1136 H1123 0.961 . S
C1136 H1124 0.959 . S
C1136 C1134 1.561 . S
C1137 C1134 1.526 . S
C1137 C1138 1.396 . S
C1137 C1142 1.390 . S
C1138 C1132 1.465 . S
C1138 C1137 1.396 . S
C1138 C1139 1.399 . S
C1139 H1125 0.929 . S
C1139 C1138 1.399 . S
C1139 C1140 1.385 . S
C1140 H1126 0.931 . S
C1140 C1139 1.385 . S
C1140 C1141 1.389 . S
C1141 C1140 1.389 . S
C1141 C1142 1.387 . S
C1142 H1127 0.930 . S
C1142 C1137 1.390 . S
C1142 C1141 1.387 . S
H1143 C1155 0.930 . S
H1144 C1157 0.930 . S
H1145 C1158 0.930 . S
H1146 C1162 0.959 . S
H1147 C1162 0.959 . S
H1148 C1162 0.961 . S
H1149 C1163 0.960 . S
H1150 C1163 0.961 . S
H1151 C1163 0.959 . S
H1152 C1166 0.929 . S
H1153 C1167 0.931 . S
H1154 C1169 0.930 . S
C1155 H1143 0.930 . S
C1155 C1156 1.399 . S
C1155 C1160 1.399 . S
C1156 C1155 1.399 . S
C1156 C1157 1.376 . S
C1157 H1144 0.930 . S
C1157 C1156 1.376 . S
C1157 C1158 1.388 . S
C1158 H1145 0.930 . S
C1158 C1157 1.388 . S
C1158 C1159 1.390 . S
C1159 C1158 1.390 . S
C1159 C1160 1.394 . S
C1159 C1165 1.465 . S
C1160 C1155 1.399 . S
C1160 C1159 1.394 . S
C1160 C1161 1.516 . S
C1161 C1160 1.516 . S
C1161 C1162 1.502 . S
C1161 C1163 1.561 . S
C1161 C1164 1.526 . S
C1162 H1146 0.959 . S
C1162 H1147 0.959 . S
C1162 H1148 0.961 . S
C1162 C1161 1.502 . S
C1163 H1149 0.960 . S
C1163 H1150 0.961 . S
C1163 H1151 0.959 . S
C1163 C1161 1.561 . S
C1164 C1161 1.526 . S
C1164 C1165 1.396 . S
C1164 C1169 1.390 . S
C1165 C1159 1.465 . S
C1165 C1164 1.396 . S
C1165 C1166 1.399 . S
C1166 H1152 0.929 . S
C1166 C1165 1.399 . S
C1166 C1167 1.385 . S
C1167 H1153 0.931 . S
C1167 C1166 1.385 . S
C1167 C1168 1.389 . S
C1168 C1167 1.389 . S
C1168 C1169 1.387 . S
C1169 H1154 0.930 . S
C1169 C1164 1.390 . S
C1169 C1168 1.387 . S
H1170 C1182 0.930 . S
H1171 C1184 0.930 . S
H1172 C1185 0.930 . S
H1173 C1189 0.959 . S
H1174 C1189 0.959 . S
H1175 C1189 0.961 . S
H1176 C1190 0.960 . S
H1177 C1190 0.961 . S
H1178 C1190 0.959 . S
H1179 C1193 0.929 . S
H1180 C1194 0.931 . S
H1181 C1196 0.930 . S
C1182 H1170 0.930 . S
C1182 C1183 1.399 . S
C1182 C1187 1.399 . S
C1183 C1182 1.399 . S
C1183 C1184 1.376 . S
C1184 H1171 0.930 . S
C1184 C1183 1.376 . S
C1184 C1185 1.388 . S
C1185 H1172 0.930 . S
C1185 C1184 1.388 . S
C1185 C1186 1.390 . S
C1186 C1185 1.390 . S
C1186 C1187 1.394 . S
C1186 C1192 1.465 . S
C1187 C1182 1.399 . S
C1187 C1186 1.394 . S
C1187 C1188 1.516 . S
C1188 C1187 1.516 . S
C1188 C1189 1.502 . S
C1188 C1190 1.561 . S
C1188 C1191 1.526 . S
C1189 H1173 0.959 . S
C1189 H1174 0.959 . S
C1189 H1175 0.961 . S
C1189 C1188 1.502 . S
C1190 H1176 0.960 . S
C1190 H1177 0.961 . S
C1190 H1178 0.959 . S
C1190 C1188 1.561 . S
C1191 C1188 1.526 . S
C1191 C1192 1.396 . S
C1191 C1196 1.390 . S
C1192 C1186 1.465 . S
C1192 C1191 1.396 . S
C1192 C1193 1.399 . S
C1193 H1179 0.929 . S
C1193 C1192 1.399 . S
C1193 C1194 1.385 . S
C1194 H1180 0.931 . S
C1194 C1193 1.385 . S
C1194 C1195 1.389 . S
C1195 C1194 1.389 . S
C1195 C1196 1.387 . S
C1196 H1181 0.930 . S
C1196 C1191 1.390 . S
C1196 C1195 1.387 . S
H1197 C1209 0.930 1_545 S
H1198 C1211 0.930 . S
H1199 C1212 0.930 . S
H1200 C1216 0.959 . S
H1201 C1216 0.959 . S
H1202 C1216 0.961 . S
H1203 C1217 0.960 . S
H1204 C1217 0.961 . S
H1205 C1217 0.959 . S
H1206 C1220 0.929 . S
H1207 C1221 0.931 . S
H1208 C1223 0.930 . S
C1209 H1197 0.930 1_565 S
C1209 C1210 1.399 . S
C1209 C1214 1.399 . S
C1210 C1209 1.399 . S
C1210 C1211 1.376 . S
C1211 H1198 0.930 . S
C1211 C1210 1.376 . S
C1211 C1212 1.388 . S
C1212 H1199 0.930 . S
C1212 C1211 1.388 . S
C1212 C1213 1.390 . S
C1213 C1212 1.390 . S
C1213 C1214 1.394 . S
C1213 C1219 1.465 . S
C1214 C1209 1.399 . S
C1214 C1213 1.394 . S
C1214 C1215 1.516 1_565 S
C1215 C1214 1.516 1_545 S
C1215 C1216 1.502 . S
C1215 C1217 1.561 . S
C1215 C1218 1.551 . S
C1216 H1200 0.959 . S
C1216 H1201 0.959 . S
C1216 H1202 0.961 . S
C1216 C1215 1.502 . S
C1217 H1203 0.960 . S
C1217 H1204 0.961 . S
C1217 H1205 0.959 . S
C1217 C1215 1.561 . S
C1218 C1215 1.551 . S
C1218 C1219 1.355 1_545 S
C1218 C1223 1.402 . S
C1219 C1213 1.465 . S
C1219 C1218 1.355 1_565 S
C1219 C1220 1.399 . S
C1220 H1206 0.929 . S
C1220 C1219 1.399 . S
C1220 C1221 1.385 . S
C1221 H1207 0.931 . S
C1221 C1220 1.385 . S
C1221 C1222 1.389 . S
C1222 C1221 1.389 . S
C1222 C1223 1.387 1_565 S
C1223 H1208 0.930 . S
C1223 C1218 1.402 . S
C1223 C1222 1.387 1_545 S
H1224 C1236 0.930 . S
H1225 C1238 0.930 . S
H1226 C1239 0.930 . S
H1227 C1243 0.959 . S
H1228 C1243 0.959 . S
H1229 C1243 0.961 . S
H1230 C1244 0.960 . S
H1231 C1244 0.961 . S
H1232 C1244 0.959 . S
H1233 C1247 0.929 . S
H1234 C1248 0.931 . S
H1235 C1250 0.930 . S
C1236 H1224 0.930 . S
C1236 C1237 1.399 . S
C1236 C1241 1.399 . S
C1237 C1236 1.399 . S
C1237 C1238 1.376 . S
C1238 H1225 0.930 . S
C1238 C1237 1.376 . S
C1238 C1239 1.388 . S
C1239 H1226 0.930 . S
C1239 C1238 1.388 . S
C1239 C1240 1.390 . S
C1240 C1239 1.390 . S
C1240 C1241 1.394 . S
C1240 C1246 1.465 . S
C1241 C1236 1.399 . S
C1241 C1240 1.394 . S
C1241 C1242 1.516 . S
C1242 C1241 1.516 . S
C1242 C1243 1.502 . S
C1242 C1244 1.561 . S
C1242 C1245 1.526 . S
C1243 H1227 0.959 . S
C1243 H1228 0.959 . S
C1243 H1229 0.961 . S
C1243 C1242 1.502 . S
C1244 H1230 0.960 . S
C1244 H1231 0.961 . S
C1244 H1232 0.959 . S
C1244 C1242 1.561 . S
C1245 C1242 1.526 . S
C1245 C1246 1.396 . S
C1245 C1250 1.390 . S
C1246 C1240 1.465 . S
C1246 C1245 1.396 . S
C1246 C1247 1.399 . S
C1247 H1233 0.929 . S
C1247 C1246 1.399 . S
C1247 C1248 1.385 . S
C1248 H1234 0.931 . S
C1248 C1247 1.385 . S
C1248 C1249 1.389 . S
C1249 C1248 1.389 . S
C1249 C1250 1.387 . S
C1250 H1235 0.930 . S
C1250 C1245 1.390 . S
C1250 C1249 1.387 . S
H1251 C1263 0.930 . S
H1252 C1265 0.930 . S
H1253 C1266 0.930 . S
H1254 C1270 0.959 . S
H1255 C1270 0.959 . S
H1256 C1270 0.961 . S
H1257 C1271 0.960 . S
H1258 C1271 0.961 . S
H1259 C1271 0.959 . S
H1260 C1274 0.929 . S
H1261 C1275 0.931 . S
H1262 C1277 0.930 . S
C1263 H1251 0.930 . S
C1263 C1264 1.399 . S
C1263 C1268 1.399 . S
C1264 C1263 1.399 . S
C1264 C1265 1.376 . S
C1265 H1252 0.930 . S
C1265 C1264 1.376 . S
C1265 C1266 1.388 . S
C1266 H1253 0.930 . S
C1266 C1265 1.388 . S
C1266 C1267 1.390 . S
C1267 C1266 1.390 . S
C1267 C1268 1.394 . S
C1267 C1273 1.465 . S
C1268 C1263 1.399 . S
C1268 C1267 1.394 . S
C1268 C1269 1.516 . S
C1269 C1268 1.516 . S
C1269 C1270 1.502 . S
C1269 C1271 1.561 . S
C1269 C1272 1.526 . S
C1270 H1254 0.959 . S
C1270 H1255 0.959 . S
C1270 H1256 0.961 . S
C1270 C1269 1.502 . S
C1271 H1257 0.960 . S
C1271 H1258 0.961 . S
C1271 H1259 0.959 . S
C1271 C1269 1.561 . S
C1272 C1269 1.526 . S
C1272 C1273 1.396 . S
C1272 C1277 1.390 . S
C1273 C1267 1.465 . S
C1273 C1272 1.396 . S
C1273 C1274 1.399 . S
C1274 H1260 0.929 . S
C1274 C1273 1.399 . S
C1274 C1275 1.385 . S
C1275 H1261 0.931 . S
C1275 C1274 1.385 . S
C1275 C1276 1.389 . S
C1276 C1275 1.389 . S
C1276 C1277 1.387 . S
C1277 H1262 0.930 . S
C1277 C1272 1.390 . S
C1277 C1276 1.387 . S
H1278 C1290 0.930 . S
H1279 C1292 0.930 . S
H1280 C1293 0.930 . S
H1281 C1297 0.959 . S
H1282 C1297 0.959 . S
H1283 C1297 0.961 . S
H1284 C1298 0.960 . S
H1285 C1298 0.961 . S
H1286 C1298 0.959 . S
H1287 C1301 0.929 . S
H1288 C1302 0.931 . S
H1289 C1304 0.930 . S
C1290 H1278 0.930 . S
C1290 C1291 1.399 . S
C1290 C1295 1.399 . S
C1291 C1290 1.399 . S
C1291 C1292 1.376 . S
C1292 H1279 0.930 . S
C1292 C1291 1.376 . S
C1292 C1293 1.388 . S
C1293 H1280 0.930 . S
C1293 C1292 1.388 . S
C1293 C1294 1.390 . S
C1294 C1293 1.390 . S
C1294 C1295 1.394 . S
C1294 C1300 1.465 . S
C1295 C1290 1.399 . S
C1295 C1294 1.394 . S
C1295 C1296 1.516 . S
C1296 C1295 1.516 . S
C1296 C1297 1.502 . S
C1296 C1298 1.561 . S
C1296 C1299 1.526 . S
C1297 H1281 0.959 . S
C1297 H1282 0.959 . S
C1297 H1283 0.961 . S
C1297 C1296 1.502 . S
C1298 H1284 0.960 . S
C1298 H1285 0.961 . S
C1298 H1286 0.959 . S
C1298 C1296 1.561 . S
C1299 C1296 1.526 . S
C1299 C1300 1.396 . S
C1299 C1304 1.390 . S
C1300 C1294 1.465 . S
C1300 C1299 1.396 . S
C1300 C1301 1.399 . S
C1301 H1287 0.929 . S
C1301 C1300 1.399 . S
C1301 C1302 1.385 . S
C1302 H1288 0.931 . S
C1302 C1301 1.385 . S
C1302 C1303 1.389 . S
C1303 C1302 1.389 . S
C1303 C1304 1.387 . S
C1304 H1289 0.930 . S
C1304 C1299 1.390 . S
C1304 C1303 1.387 . S
H1305 C1317 0.930 . S
H1306 C1319 0.930 . S
H1307 C1320 0.930 . S
H1308 C1324 0.959 . S
H1309 C1324 0.959 . S
H1310 C1324 0.961 . S
H1311 C1325 0.960 . S
H1312 C1325 0.961 . S
H1313 C1325 0.959 . S
H1314 C1328 0.929 . S
H1315 C1329 0.931 . S
H1316 C1331 0.930 . S
C1317 H1305 0.930 . S
C1317 C1318 1.399 . S
C1317 C1322 1.399 . S
C1318 C1317 1.399 . S
C1318 C1319 1.376 . S
C1319 H1306 0.930 . S
C1319 C1318 1.376 . S
C1319 C1320 1.388 . S
C1320 H1307 0.930 . S
C1320 C1319 1.388 . S
C1320 C1321 1.390 . S
C1321 C1320 1.390 . S
C1321 C1322 1.394 . S
C1321 C1327 1.465 . S
C1322 C1317 1.399 . S
C1322 C1321 1.394 . S
C1322 C1323 1.516 . S
C1323 C1322 1.516 . S
C1323 C1324 1.502 . S
C1323 C1325 1.561 . S
C1323 C1326 1.526 . S
C1324 H1308 0.959 . S
C1324 H1309 0.959 . S
C1324 H1310 0.961 . S
C1324 C1323 1.502 . S
C1325 H1311 0.960 . S
C1325 H1312 0.961 . S
C1325 H1313 0.959 . S
C1325 C1323 1.561 . S
C1326 C1323 1.526 . S
C1326 C1327 1.396 . S
C1326 C1331 1.390 . S
C1327 C1321 1.465 . S
C1327 C1326 1.396 . S
C1327 C1328 1.399 . S
C1328 H1314 0.929 . S
C1328 C1327 1.399 . S
C1328 C1329 1.385 . S
C1329 H1315 0.931 . S
C1329 C1328 1.385 . S
C1329 C1330 1.389 . S
C1330 C1329 1.389 . S
C1330 C1331 1.387 . S
C1331 H1316 0.930 . S
C1331 C1326 1.390 . S
C1331 C1330 1.387 . S
H1332 C1344 0.930 . S
H1333 C1346 0.930 . S
H1334 C1347 0.930 . S
H1335 C1351 0.959 . S
H1336 C1351 0.959 . S
H1337 C1351 0.961 . S
H1338 C1352 0.960 . S
H1339 C1352 0.961 . S
H1340 C1352 0.959 . S
H1341 C1355 0.929 . S
H1342 C1356 0.931 . S
H1343 C1358 0.930 . S
C1344 H1332 0.930 . S
C1344 C1345 1.399 . S
C1344 C1349 1.399 . S
C1345 C1344 1.399 . S
C1345 C1346 1.376 . S
C1346 H1333 0.930 . S
C1346 C1345 1.376 . S
C1346 C1347 1.388 . S
C1347 H1334 0.930 . S
C1347 C1346 1.388 . S
C1347 C1348 1.390 . S
C1348 C1347 1.390 . S
C1348 C1349 1.394 . S
C1348 C1354 1.465 . S
C1349 C1344 1.399 . S
C1349 C1348 1.394 . S
C1349 C1350 1.516 . S
C1350 C1349 1.516 . S
C1350 C1351 1.502 . S
C1350 C1352 1.561 . S
C1350 C1353 1.526 . S
C1351 H1335 0.959 . S
C1351 H1336 0.959 . S
C1351 H1337 0.961 . S
C1351 C1350 1.502 . S
C1352 H1338 0.960 . S
C1352 H1339 0.961 . S
C1352 H1340 0.959 . S
C1352 C1350 1.561 . S
C1353 C1350 1.526 . S
C1353 C1354 1.396 . S
C1353 C1358 1.390 . S
C1354 C1348 1.465 . S
C1354 C1353 1.396 . S
C1354 C1355 1.399 . S
C1355 H1341 0.929 . S
C1355 C1354 1.399 . S
C1355 C1356 1.385 . S
C1356 H1342 0.931 . S
C1356 C1355 1.385 . S
C1356 C1357 1.389 . S
C1357 C1356 1.389 . S
C1357 C1358 1.387 . S
C1358 H1343 0.930 . S
C1358 C1353 1.390 . S
C1358 C1357 1.387 . S
H1359 C1371 0.930 . S
H1360 C1373 0.930 . S
H1361 C1374 0.916 1_655 S
H1362 C1378 0.959 . S
H1363 C1378 0.959 . S
H1364 C1378 0.961 . S
H1365 C1379 0.960 . S
H1366 C1379 0.961 . S
H1367 C1379 0.953 . S
H1368 C1382 0.929 1_655 S
H1369 C1383 0.931 1_655 S
H1370 C1385 0.930 . S
C1371 H1359 0.930 . S
C1371 C1372 1.399 . S
C1371 C1376 1.399 . S
C1372 C1371 1.399 . S
C1372 C1373 1.376 . S
C1373 H1360 0.930 . S
C1373 C1372 1.376 . S
C1373 C1374 1.388 . S
C1374 H1361 0.916 1_455 S
C1374 C1373 1.388 . S
C1374 C1375 1.390 . S
C1375 C1374 1.390 . S
C1375 C1376 1.394 . S
C1375 C1381 1.465 . S
C1376 C1371 1.399 . S
C1376 C1375 1.394 . S
C1376 C1377 1.516 . S
C1377 C1376 1.516 . S
C1377 C1378 1.502 . S
C1377 C1379 1.561 . S
C1377 C1380 1.526 . S
C1378 H1362 0.959 . S
C1378 H1363 0.959 . S
C1378 H1364 0.961 . S
C1378 C1377 1.502 . S
C1379 H1365 0.960 . S
C1379 H1366 0.961 . S
C1379 H1367 0.953 . S
C1379 C1377 1.561 . S
C1380 C1377 1.526 . S
C1380 C1381 1.396 . S
C1380 C1385 1.390 . S
C1381 C1375 1.465 . S
C1381 C1380 1.396 . S
C1381 C1382 1.399 . S
C1382 H1368 0.929 1_455 S
C1382 C1381 1.399 . S
C1382 C1383 1.385 . S
C1383 H1369 0.931 1_455 S
C1383 C1382 1.385 . S
C1383 C1384 1.389 . S
C1384 C1383 1.389 . S
C1384 C1385 1.387 . S
C1385 H1370 0.930 . S
C1385 C1380 1.390 . S
C1385 C1384 1.387 . S
H1386 C1398 0.930 . S
H1387 C1400 0.930 . S
H1388 C1401 0.930 . S
H1389 C1405 0.959 . S
H1390 C1405 0.959 . S
H1391 C1405 0.961 . S
H1392 C1406 0.960 . S
H1393 C1406 0.961 . S
H1394 C1406 0.959 . S
H1395 C1409 0.929 . S
H1396 C1410 0.931 . S
H1397 C1412 0.930 . S
C1398 H1386 0.930 . S
C1398 C1399 1.399 . S
C1398 C1403 1.399 . S
C1399 C1398 1.399 . S
C1399 C1400 1.376 . S
C1400 H1387 0.930 . S
C1400 C1399 1.376 . S
C1400 C1401 1.388 . S
C1401 H1388 0.930 . S
C1401 C1400 1.388 . S
C1401 C1402 1.390 . S
C1402 C1401 1.390 . S
C1402 C1403 1.394 . S
C1402 C1408 1.465 . S
C1403 C1398 1.399 . S
C1403 C1402 1.394 . S
C1403 C1404 1.516 . S
C1404 C1403 1.516 . S
C1404 C1405 1.502 . S
C1404 C1406 1.561 . S
C1404 C1407 1.526 . S
C1405 H1389 0.959 . S
C1405 H1390 0.959 . S
C1405 H1391 0.961 . S
C1405 C1404 1.502 . S
C1406 H1392 0.960 . S
C1406 H1393 0.961 . S
C1406 H1394 0.959 . S
C1406 C1404 1.561 . S
C1407 C1404 1.526 . S
C1407 C1408 1.396 . S
C1407 C1412 1.390 . S
C1408 C1402 1.465 . S
C1408 C1407 1.396 . S
C1408 C1409 1.399 . S
C1409 H1395 0.929 . S
C1409 C1408 1.399 . S
C1409 C1410 1.385 . S
C1410 H1396 0.931 . S
C1410 C1409 1.385 . S
C1410 C1411 1.389 . S
C1411 C1410 1.389 . S
C1411 C1412 1.387 . S
C1412 H1397 0.930 . S
C1412 C1407 1.390 . S
C1412 C1411 1.387 . S
H1413 C1425 0.939 . S
H1414 C1427 0.930 . S
H1415 C1428 0.930 . S
H1416 C1432 0.959 . S
H1417 C1432 0.959 . S
H1418 C1432 0.961 . S
H1419 C1433 0.960 . S
H1420 C1433 0.961 . S
H1421 C1433 0.959 1_655 S
H1422 C1436 0.929 . S
H1423 C1437 0.931 . S
H1424 C1439 0.930 . S
C1425 H1413 0.939 . S
C1425 C1426 1.391 1_455 S
C1425 C1430 1.395 1_455 S
C1426 C1425 1.391 1_655 S
C1426 C1427 1.376 . S
C1427 H1414 0.930 . S
C1427 C1426 1.376 . S
C1427 C1428 1.388 . S
C1428 H1415 0.930 . S
C1428 C1427 1.388 . S
C1428 C1429 1.390 . S
C1429 C1428 1.390 . S
C1429 C1430 1.427 . S
C1429 C1435 1.465 . S
C1430 C1425 1.395 1_655 S
C1430 C1429 1.427 . S
C1430 C1431 1.493 1_655 S
C1431 C1430 1.493 1_455 S
C1431 C1432 1.502 . S
C1431 C1433 1.561 . S
C1431 C1434 1.526 . S
C1432 H1416 0.959 . S
C1432 H1417 0.959 . S
C1432 H1418 0.961 . S
C1432 C1431 1.502 . S
C1433 H1419 0.960 . S
C1433 H1420 0.961 . S
C1433 H1421 0.959 1_455 S
C1433 C1431 1.561 . S
C1434 C1431 1.526 . S
C1434 C1435 1.396 1_455 S
C1434 C1439 1.390 . S
C1435 C1429 1.465 . S
C1435 C1434 1.396 1_655 S
C1435 C1436 1.399 . S
C1436 H1422 0.929 . S
C1436 C1435 1.399 . S
C1436 C1437 1.385 . S
C1437 H1423 0.931 . S
C1437 C1436 1.385 . S
C1437 C1438 1.389 1_655 S
C1438 C1437 1.389 1_455 S
C1438 C1439 1.387 . S
C1439 H1424 0.930 . S
C1439 C1434 1.390 . S
C1439 C1438 1.387 . S
H1440 C1452 0.930 . S
H1441 C1454 0.930 . S
H1442 C1455 0.930 . S
H1443 C1459 0.959 . S
H1444 C1459 0.959 . S
H1445 C1459 0.961 . S
H1446 C1460 0.960 . S
H1447 C1460 0.961 . S
H1448 C1460 0.959 . S
H1449 C1463 0.929 . S
H1450 C1464 0.931 . S
H1451 C1466 0.930 . S
C1452 H1440 0.930 . S
C1452 C1453 1.399 . S
C1452 C1457 1.399 . S
C1453 C1452 1.399 . S
C1453 C1454 1.376 . S
C1454 H1441 0.930 . S
C1454 C1453 1.376 . S
C1454 C1455 1.388 . S
C1455 H1442 0.930 . S
C1455 C1454 1.388 . S
C1455 C1456 1.390 . S
C1456 C1455 1.390 . S
C1456 C1457 1.394 . S
C1456 C1462 1.465 . S
C1457 C1452 1.399 . S
C1457 C1456 1.394 . S
C1457 C1458 1.516 . S
C1458 C1457 1.516 . S
C1458 C1459 1.502 . S
C1458 C1460 1.561 . S
C1458 C1461 1.526 . S
C1459 H1443 0.959 . S
C1459 H1444 0.959 . S
C1459 H1445 0.961 . S
C1459 C1458 1.502 . S
C1460 H1446 0.960 . S
C1460 H1447 0.961 . S
C1460 H1448 0.959 . S
C1460 C1458 1.561 . S
C1461 C1458 1.526 . S
C1461 C1462 1.396 . S
C1461 C1466 1.390 . S
C1462 C1456 1.465 . S
C1462 C1461 1.396 . S
C1462 C1463 1.399 . S
C1463 H1449 0.929 . S
C1463 C1462 1.399 . S
C1463 C1464 1.385 . S
C1464 H1450 0.931 . S
C1464 C1463 1.385 . S
C1464 C1465 1.389 . S
C1465 C1464 1.389 . S
C1465 C1466 1.387 . S
C1466 H1451 0.930 . S
C1466 C1461 1.390 . S
C1466 C1465 1.387 . S
H1467 C1479 0.930 . S
H1468 C1481 0.930 . S
H1469 C1482 0.930 . S
H1470 C1486 0.959 . S
H1471 C1486 0.959 . S
H1472 C1486 0.961 . S
H1473 C1487 0.960 . S
H1474 C1487 0.961 . S
H1475 C1487 0.959 . S
H1476 C1490 0.929 . S
H1477 C1491 0.931 . S
H1478 C1493 0.930 . S
C1479 H1467 0.930 . S
C1479 C1480 1.399 . S
C1479 C1484 1.399 . S
C1480 C1479 1.399 . S
C1480 C1481 1.376 . S
C1481 H1468 0.930 . S
C1481 C1480 1.376 . S
C1481 C1482 1.388 . S
C1482 H1469 0.930 . S
C1482 C1481 1.388 . S
C1482 C1483 1.390 . S
C1483 C1482 1.390 . S
C1483 C1484 1.394 . S
C1483 C1489 1.465 . S
C1484 C1479 1.399 . S
C1484 C1483 1.394 . S
C1484 C1485 1.516 . S
C1485 C1484 1.516 . S
C1485 C1486 1.502 . S
C1485 C1487 1.561 . S
C1485 C1488 1.526 . S
C1486 H1470 0.959 . S
C1486 H1471 0.959 . S
C1486 H1472 0.961 . S
C1486 C1485 1.502 . S
C1487 H1473 0.960 . S
C1487 H1474 0.961 . S
C1487 H1475 0.959 . S
C1487 C1485 1.561 . S
C1488 C1485 1.526 . S
C1488 C1489 1.396 . S
C1488 C1493 1.390 . S
C1489 C1483 1.465 . S
C1489 C1488 1.396 . S
C1489 C1490 1.399 . S
C1490 H1476 0.929 . S
C1490 C1489 1.399 . S
C1490 C1491 1.385 . S
C1491 H1477 0.931 . S
C1491 C1490 1.385 . S
C1491 C1492 1.389 . S
C1492 C1491 1.389 . S
C1492 C1493 1.387 . S
C1493 H1478 0.930 . S
C1493 C1488 1.390 . S
C1493 C1492 1.387 . S
H1494 C1506 0.930 . S
H1495 C1508 0.930 . S
H1496 C1509 0.930 . S
H1497 C1513 0.959 . S
H1498 C1513 0.956 1_556 S
H1499 C1513 0.961 1_556 S
H1500 C1514 0.960 . S
H1501 C1514 0.961 . S
H1502 C1514 0.959 . S
H1503 C1517 0.929 . S
H1504 C1518 0.931 . S
H1505 C1520 0.930 . S
C1506 H1494 0.930 . S
C1506 C1507 1.399 . S
C1506 C1511 1.399 . S
C1507 C1506 1.399 . S
C1507 C1508 1.376 . S
C1508 H1495 0.930 . S
C1508 C1507 1.376 . S
C1508 C1509 1.388 . S
C1509 H1496 0.930 . S
C1509 C1508 1.388 . S
C1509 C1510 1.390 . S
C1510 C1509 1.390 . S
C1510 C1511 1.394 . S
C1510 C1516 1.465 . S
C1511 C1506 1.399 . S
C1511 C1510 1.394 . S
C1511 C1512 1.516 . S
C1512 C1511 1.516 . S
C1512 C1513 1.502 1_556 S
C1512 C1514 1.561 . S
C1512 C1515 1.526 . S
C1513 H1497 0.959 . S
C1513 H1498 0.956 1_554 S
C1513 H1499 0.961 1_554 S
C1513 C1512 1.502 1_554 S
C1514 H1500 0.960 . S
C1514 H1501 0.961 . S
C1514 H1502 0.959 . S
C1514 C1512 1.561 . S
C1515 C1512 1.526 . S
C1515 C1516 1.396 . S
C1515 C1520 1.390 . S
C1516 C1510 1.465 . S
C1516 C1515 1.396 . S
C1516 C1517 1.399 1_556 S
C1517 H1503 0.929 . S
C1517 C1516 1.399 1_554 S
C1517 C1518 1.385 . S
C1518 H1504 0.931 . S
C1518 C1517 1.385 . S
C1518 C1519 1.389 . S
C1519 C1518 1.389 . S
C1519 C1520 1.387 1_554 S
C1520 H1505 0.930 . S
C1520 C1515 1.390 . S
C1520 C1519 1.387 1_556 S
H1521 C1533 0.930 . S
H1522 C1535 0.930 . S
H1523 C1536 0.930 . S
H1524 C1540 0.959 . S
H1525 C1540 0.959 . S
H1526 C1540 0.961 . S
H1527 C1541 0.960 . S
H1528 C1541 0.961 . S
H1529 C1541 0.959 . S
H1530 C1544 0.929 . S
H1531 C1545 0.931 . S
H1532 C1547 0.930 . S
C1533 H1521 0.930 . S
C1533 C1534 1.399 . S
C1533 C1538 1.399 . S
C1534 C1533 1.399 . S
C1534 C1535 1.376 . S
C1535 H1522 0.930 . S
C1535 C1534 1.376 . S
C1535 C1536 1.388 . S
C1536 H1523 0.930 . S
C1536 C1535 1.388 . S
C1536 C1537 1.390 . S
C1537 C1536 1.390 . S
C1537 C1538 1.394 . S
C1537 C1543 1.465 . S
C1538 C1533 1.399 . S
C1538 C1537 1.394 . S
C1538 C1539 1.516 . S
C1539 C1538 1.516 . S
C1539 C1540 1.502 . S
C1539 C1541 1.561 . S
C1539 C1542 1.526 . S
C1540 H1524 0.959 . S
C1540 H1525 0.959 . S
C1540 H1526 0.961 . S
C1540 C1539 1.502 . S
C1541 H1527 0.960 . S
C1541 H1528 0.961 . S
C1541 H1529 0.959 . S
C1541 C1539 1.561 . S
C1542 C1539 1.526 . S
C1542 C1543 1.396 . S
C1542 C1547 1.390 . S
C1543 C1537 1.465 . S
C1543 C1542 1.396 . S
C1543 C1544 1.399 . S
C1544 H1530 0.929 . S
C1544 C1543 1.399 . S
C1544 C1545 1.385 . S
C1545 H1531 0.931 . S
C1545 C1544 1.385 . S
C1545 C1546 1.389 . S
C1546 C1545 1.389 . S
C1546 C1547 1.387 . S
C1547 H1532 0.930 . S
C1547 C1542 1.390 . S
C1547 C1546 1.387 . S
H1548 C1560 0.930 . S
H1549 C1562 0.930 . S
H1550 C1563 0.930 . S
H1551 C1567 0.959 . S
H1552 C1567 0.959 . S
H1553 C1567 0.961 . S
H1554 C1568 0.960 . S
H1555 C1568 0.961 . S
H1556 C1568 0.959 . S
H1557 C1571 0.929 . S
H1558 C1572 0.931 . S
H1559 C1574 0.930 . S
C1560 H1548 0.930 . S
C1560 C1561 1.399 . S
C1560 C1565 1.399 . S
C1561 C1560 1.399 . S
C1561 C1562 1.376 . S
C1562 H1549 0.930 . S
C1562 C1561 1.376 . S
C1562 C1563 1.388 . S
C1563 H1550 0.930 . S
C1563 C1562 1.388 . S
C1563 C1564 1.390 . S
C1564 C1563 1.390 . S
C1564 C1565 1.394 . S
C1564 C1570 1.465 . S
C1565 C1560 1.399 . S
C1565 C1564 1.394 . S
C1565 C1566 1.516 . S
C1566 C1565 1.516 . S
C1566 C1567 1.502 . S
C1566 C1568 1.561 . S
C1566 C1569 1.526 . S
C1567 H1551 0.959 . S
C1567 H1552 0.959 . S
C1567 H1553 0.961 . S
C1567 C1566 1.502 . S
C1568 H1554 0.960 . S
C1568 H1555 0.961 . S
C1568 H1556 0.959 . S
C1568 C1566 1.561 . S
C1569 C1566 1.526 . S
C1569 C1570 1.396 . S
C1569 C1574 1.390 . S
C1570 C1564 1.465 . S
C1570 C1569 1.396 . S
C1570 C1571 1.399 . S
C1571 H1557 0.929 . S
C1571 C1570 1.399 . S
C1571 C1572 1.385 . S
C1572 H1558 0.931 . S
C1572 C1571 1.385 . S
C1572 C1573 1.389 . S
C1573 C1572 1.389 . S
C1573 C1574 1.387 . S
C1574 H1559 0.930 . S
C1574 C1569 1.390 . S
C1574 C1573 1.387 . S
H1575 C1587 0.930 . S
H1576 C1589 0.930 . S
H1577 C1590 0.930 . S
H1578 C1594 0.959 . S
H1579 C1594 0.959 . S
H1580 C1594 0.961 . S
H1581 C1595 0.960 . S
H1582 C1595 0.961 . S
H1583 C1595 0.959 . S
H1584 C1598 0.929 . S
H1585 C1599 0.931 . S
H1586 C1601 0.930 . S
C1587 H1575 0.930 . S
C1587 C1588 1.399 . S
C1587 C1592 1.399 . S
C1588 C1587 1.399 . S
C1588 C1589 1.376 . S
C1589 H1576 0.930 . S
C1589 C1588 1.376 . S
C1589 C1590 1.388 . S
C1590 H1577 0.930 . S
C1590 C1589 1.388 . S
C1590 C1591 1.390 . S
C1591 C1590 1.390 . S
C1591 C1592 1.394 . S
C1591 C1597 1.465 . S
C1592 C1587 1.399 . S
C1592 C1591 1.394 . S
C1592 C1593 1.516 . S
C1593 C1592 1.516 . S
C1593 C1594 1.502 . S
C1593 C1595 1.561 . S
C1593 C1596 1.526 . S
C1594 H1578 0.959 . S
C1594 H1579 0.959 . S
C1594 H1580 0.961 . S
C1594 C1593 1.502 . S
C1595 H1581 0.960 . S
C1595 H1582 0.961 . S
C1595 H1583 0.959 . S
C1595 C1593 1.561 . S
C1596 C1593 1.526 . S
C1596 C1597 1.396 . S
C1596 C1601 1.390 . S
C1597 C1591 1.465 . S
C1597 C1596 1.396 . S
C1597 C1598 1.399 . S
C1598 H1584 0.929 . S
C1598 C1597 1.399 . S
C1598 C1599 1.385 . S
C1599 H1585 0.931 . S
C1599 C1598 1.385 . S
C1599 C1600 1.389 . S
C1600 C1599 1.389 . S
C1600 C1601 1.387 . S
C1601 H1586 0.930 . S
C1601 C1596 1.390 . S
C1601 C1600 1.387 . S
H1602 C1614 0.930 . S
H1603 C1616 0.930 . S
H1604 C1617 0.930 . S
H1605 C1621 0.959 . S
H1606 C1621 0.959 . S
H1607 C1621 0.961 . S
H1608 C1622 0.960 . S
H1609 C1622 0.961 . S
H1610 C1622 0.959 . S
H1611 C1625 0.929 . S
H1612 C1626 0.931 . S
H1613 C1628 0.930 . S
C1614 H1602 0.930 . S
C1614 C1615 1.399 . S
C1614 C1619 1.399 . S
C1615 C1614 1.399 . S
C1615 C1616 1.376 . S
C1616 H1603 0.930 . S
C1616 C1615 1.376 . S
C1616 C1617 1.388 . S
C1617 H1604 0.930 . S
C1617 C1616 1.388 . S
C1617 C1618 1.390 . S
C1618 C1617 1.390 . S
C1618 C1619 1.394 . S
C1618 C1624 1.465 . S
C1619 C1614 1.399 . S
C1619 C1618 1.394 . S
C1619 C1620 1.516 . S
C1620 C1619 1.516 . S
C1620 C1621 1.502 . S
C1620 C1622 1.561 . S
C1620 C1623 1.526 . S
C1621 H1605 0.959 . S
C1621 H1606 0.959 . S
C1621 H1607 0.961 . S
C1621 C1620 1.502 . S
C1622 H1608 0.960 . S
C1622 H1609 0.961 . S
C1622 H1610 0.959 . S
C1622 C1620 1.561 . S
C1623 C1620 1.526 . S
C1623 C1624 1.396 . S
C1623 C1628 1.390 . S
C1624 C1618 1.465 . S
C1624 C1623 1.396 . S
C1624 C1625 1.399 . S
C1625 H1611 0.929 . S
C1625 C1624 1.399 . S
C1625 C1626 1.385 . S
C1626 H1612 0.931 . S
C1626 C1625 1.385 . S
C1626 C1627 1.389 . S
C1627 C1626 1.389 . S
C1627 C1628 1.387 . S
C1628 H1613 0.930 . S
C1628 C1623 1.390 . S
C1628 C1627 1.387 . S
H1629 C1641 0.930 . S
H1630 C1643 0.930 . S
H1631 C1644 0.930 . S
H1632 C1648 0.959 . S
H1633 C1648 0.959 . S
H1634 C1648 0.961 . S
H1635 C1649 0.960 . S
H1636 C1649 0.961 . S
H1637 C1649 0.959 . S
H1638 C1652 0.929 . S
H1639 C1653 0.931 . S
H1640 C1655 0.930 . S
C1641 H1629 0.930 . S
C1641 C1642 1.399 . S
C1641 C1646 1.399 . S
C1642 C1641 1.399 . S
C1642 C1643 1.376 . S
C1643 H1630 0.930 . S
C1643 C1642 1.376 . S
C1643 C1644 1.388 . S
C1644 H1631 0.930 . S
C1644 C1643 1.388 . S
C1644 C1645 1.390 . S
C1645 C1644 1.390 . S
C1645 C1646 1.394 . S
C1645 C1651 1.465 . S
C1646 C1641 1.399 . S
C1646 C1645 1.394 . S
C1646 C1647 1.516 . S
C1647 C1646 1.516 . S
C1647 C1648 1.502 . S
C1647 C1649 1.561 . S
C1647 C1650 1.526 . S
C1648 H1632 0.959 . S
C1648 H1633 0.959 . S
C1648 H1634 0.961 . S
C1648 C1647 1.502 . S
C1649 H1635 0.960 . S
C1649 H1636 0.961 . S
C1649 H1637 0.959 . S
C1649 C1647 1.561 . S
C1650 C1647 1.526 . S
C1650 C1651 1.396 . S
C1650 C1655 1.390 . S
C1651 C1645 1.465 . S
C1651 C1650 1.396 . S
C1651 C1652 1.399 . S
C1652 H1638 0.929 . S
C1652 C1651 1.399 . S
C1652 C1653 1.385 . S
C1653 H1639 0.931 . S
C1653 C1652 1.385 . S
C1653 C1654 1.389 . S
C1654 C1653 1.389 . S
C1654 C1655 1.387 . S
C1655 H1640 0.930 . S
C1655 C1650 1.390 . S
C1655 C1654 1.387 . S
H1656 C1668 0.930 . S
H1657 C1670 0.930 . S
H1658 C1671 0.930 . S
H1659 C1675 0.959 . S
H1660 C1675 0.959 . S
H1661 C1675 0.961 . S
H1662 C1676 0.960 . S
H1663 C1676 0.961 . S
H1664 C1676 0.959 . S
H1665 C1679 0.929 . S
H1666 C1680 0.931 . S
H1667 C1682 0.930 . S
C1668 H1656 0.930 . S
C1668 C1669 1.399 . S
C1668 C1673 1.399 . S
C1669 C1668 1.399 . S
C1669 C1670 1.376 . S
C1670 H1657 0.930 . S
C1670 C1669 1.376 . S
C1670 C1671 1.388 . S
C1671 H1658 0.930 . S
C1671 C1670 1.388 . S
C1671 C1672 1.390 . S
C1672 C1671 1.390 . S
C1672 C1673 1.394 . S
C1672 C1678 1.465 . S
C1673 C1668 1.399 . S
C1673 C1672 1.394 . S
C1673 C1674 1.516 . S
C1674 C1673 1.516 . S
C1674 C1675 1.502 . S
C1674 C1676 1.561 . S
C1674 C1677 1.526 . S
C1675 H1659 0.959 . S
C1675 H1660 0.959 . S
C1675 H1661 0.961 . S
C1675 C1674 1.502 . S
C1676 H1662 0.960 . S
C1676 H1663 0.961 . S
C1676 H1664 0.959 . S
C1676 C1674 1.561 . S
C1677 C1674 1.526 . S
C1677 C1678 1.396 . S
C1677 C1682 1.390 . S
C1678 C1672 1.465 . S
C1678 C1677 1.396 . S
C1678 C1679 1.399 . S
C1679 H1665 0.929 . S
C1679 C1678 1.399 . S
C1679 C1680 1.385 . S
C1680 H1666 0.931 . S
C1680 C1679 1.385 . S
C1680 C1681 1.389 . S
C1681 C1680 1.389 . S
C1681 C1682 1.387 . S
C1682 H1667 0.930 . S
C1682 C1677 1.390 . S
C1682 C1681 1.387 . S
H1683 C1695 0.930 . S
H1684 C1697 0.930 1_565 S
H1685 C1698 0.930 . S
H1686 C1702 0.959 . S
H1687 C1702 0.959 . S
H1688 C1702 0.961 . S
H1689 C1703 0.960 . S
H1690 C1703 0.961 . S
H1691 C1703 0.959 . S
H1692 C1706 0.929 . S
H1693 C1707 0.931 . S
H1694 C1709 0.930 . S
C1695 H1683 0.930 . S
C1695 C1696 1.399 . S
C1695 C1700 1.399 . S
C1696 C1695 1.399 . S
C1696 C1697 1.376 . S
C1697 H1684 0.930 1_545 S
C1697 C1696 1.376 . S
C1697 C1698 1.388 1_545 S
C1698 H1685 0.930 . S
C1698 C1697 1.388 1_565 S
C1698 C1699 1.390 1_565 S
C1699 C1698 1.390 1_545 S
C1699 C1700 1.394 . S
C1699 C1705 1.465 . S
C1700 C1695 1.399 . S
C1700 C1699 1.394 . S
C1700 C1701 1.516 . S
C1701 C1700 1.516 . S
C1701 C1702 1.502 . S
C1701 C1703 1.561 . S
C1701 C1704 1.526 . S
C1702 H1686 0.959 . S
C1702 H1687 0.959 . S
C1702 H1688 0.961 . S
C1702 C1701 1.502 . S
C1703 H1689 0.960 . S
C1703 H1690 0.961 . S
C1703 H1691 0.959 . S
C1703 C1701 1.561 . S
C1704 C1701 1.526 . S
C1704 C1705 1.396 . S
C1704 C1709 1.390 . S
C1705 C1699 1.465 . S
C1705 C1704 1.396 . S
C1705 C1706 1.399 1_545 S
C1706 H1692 0.929 . S
C1706 C1705 1.399 1_565 S
C1706 C1707 1.385 . S
C1707 H1693 0.931 . S
C1707 C1706 1.385 . S
C1707 C1708 1.389 1_565 S
C1708 C1707 1.389 1_545 S
C1708 C1709 1.387 . S
C1709 H1694 0.930 . S
C1709 C1704 1.390 . S
C1709 C1708 1.387 . S
H1710 C1722 0.930 . S
H1711 C1724 0.930 . S
H1712 C1725 0.930 . S
H1713 C1729 0.959 . S
H1714 C1729 0.959 . S
H1715 C1729 0.961 . S
H1716 C1730 0.960 . S
H1717 C1730 0.961 . S
H1718 C1730 0.959 . S
H1719 C1733 0.929 . S
H1720 C1734 0.931 . S
H1721 C1736 0.930 . S
C1722 H1710 0.930 . S
C1722 C1723 1.399 . S
C1722 C1727 1.399 . S
C1723 C1722 1.399 . S
C1723 C1724 1.376 . S
C1724 H1711 0.930 . S
C1724 C1723 1.376 . S
C1724 C1725 1.388 . S
C1725 H1712 0.930 . S
C1725 C1724 1.388 . S
C1725 C1726 1.390 . S
C1726 C1725 1.390 . S
C1726 C1727 1.394 . S
C1726 C1732 1.465 . S
C1727 C1722 1.399 . S
C1727 C1726 1.394 . S
C1727 C1728 1.516 . S
C1728 C1727 1.516 . S
C1728 C1729 1.502 . S
C1728 C1730 1.561 . S
C1728 C1731 1.526 . S
C1729 H1713 0.959 . S
C1729 H1714 0.959 . S
C1729 H1715 0.961 . S
C1729 C1728 1.502 . S
C1730 H1716 0.960 . S
C1730 H1717 0.961 . S
C1730 H1718 0.959 . S
C1730 C1728 1.561 . S
C1731 C1728 1.526 . S
C1731 C1732 1.396 . S
C1731 C1736 1.390 . S
C1732 C1726 1.465 . S
C1732 C1731 1.396 . S
C1732 C1733 1.399 . S
C1733 H1719 0.929 . S
C1733 C1732 1.399 . S
C1733 C1734 1.385 . S
C1734 H1720 0.931 . S
C1734 C1733 1.385 . S
C1734 C1735 1.389 . S
C1735 C1734 1.389 . S
C1735 C1736 1.387 . S
C1736 H1721 0.930 . S
C1736 C1731 1.390 . S
C1736 C1735 1.387 . S
H1737 C1749 0.930 . S
H1738 C1751 0.930 . S
H1739 C1752 0.930 . S
H1740 C1756 0.959 . S
H1741 C1756 0.959 . S
H1742 C1756 0.961 . S
H1743 C1757 0.960 . S
H1744 C1757 0.961 . S
H1745 C1757 0.959 . S
H1746 C1760 0.929 . S
H1747 C1761 0.931 . S
H1748 C1763 0.930 . S
C1749 H1737 0.930 . S
C1749 C1750 1.399 . S
C1749 C1754 1.399 . S
C1750 C1749 1.399 . S
C1750 C1751 1.376 . S
C1751 H1738 0.930 . S
C1751 C1750 1.376 . S
C1751 C1752 1.388 . S
C1752 H1739 0.930 . S
C1752 C1751 1.388 . S
C1752 C1753 1.390 . S
C1753 C1752 1.390 . S
C1753 C1754 1.394 . S
C1753 C1759 1.465 . S
C1754 C1749 1.399 . S
C1754 C1753 1.394 . S
C1754 C1755 1.516 . S
C1755 C1754 1.516 . S
C1755 C1756 1.502 . S
C1755 C1757 1.561 . S
C1755 C1758 1.526 . S
C1756 H1740 0.959 . S
C1756 H1741 0.959 . S
C1756 H1742 0.961 . S
C1756 C1755 1.502 . S
C1757 H1743 0.960 . S
C1757 H1744 0.961 . S
C1757 H1745 0.959 . S
C1757 C1755 1.561 . S
C1758 C1755 1.526 . S
C1758 C1759 1.396 . S
C1758 C1763 1.390 . S
C1759 C1753 1.465 . S
C1759 C1758 1.396 . S
C1759 C1760 1.399 . S
C1760 H1746 0.929 . S
C1760 C1759 1.399 . S
C1760 C1761 1.385 . S
C1761 H1747 0.931 . S
C1761 C1760 1.385 . S
C1761 C1762 1.389 . S
C1762 C1761 1.389 . S
C1762 C1763 1.387 . S
C1763 H1748 0.930 . S
C1763 C1758 1.390 . S
C1763 C1762 1.387 . S
H1764 C1776 0.930 . S
H1765 C1778 0.930 . S
H1766 C1779 0.930 . S
H1767 C1783 0.959 . S
H1768 C1783 0.959 . S
H1769 C1783 0.961 . S
H1770 C1784 0.960 . S
H1771 C1784 0.961 . S
H1772 C1784 0.959 . S
H1773 C1787 0.929 . S
H1774 C1788 0.931 . S
H1775 C1790 0.930 . S
C1776 H1764 0.930 . S
C1776 C1777 1.399 . S
C1776 C1781 1.399 . S
C1777 C1776 1.399 . S
C1777 C1778 1.376 . S
C1778 H1765 0.930 . S
C1778 C1777 1.376 . S
C1778 C1779 1.388 . S
C1779 H1766 0.930 . S
C1779 C1778 1.388 . S
C1779 C1780 1.390 . S
C1780 C1779 1.390 . S
C1780 C1781 1.394 . S
C1780 C1786 1.465 . S
C1781 C1776 1.399 . S
C1781 C1780 1.394 . S
C1781 C1782 1.516 . S
C1782 C1781 1.516 . S
C1782 C1783 1.502 . S
C1782 C1784 1.561 . S
C1782 C1785 1.526 . S
C1783 H1767 0.959 . S
C1783 H1768 0.959 . S
C1783 H1769 0.961 . S
C1783 C1782 1.502 . S
C1784 H1770 0.960 . S
C1784 H1771 0.961 . S
C1784 H1772 0.959 . S
C1784 C1782 1.561 . S
C1785 C1782 1.526 . S
C1785 C1786 1.396 . S
C1785 C1790 1.390 . S
C1786 C1780 1.465 . S
C1786 C1785 1.396 . S
C1786 C1787 1.399 . S
C1787 H1773 0.929 . S
C1787 C1786 1.399 . S
C1787 C1788 1.385 . S
C1788 H1774 0.931 . S
C1788 C1787 1.385 . S
C1788 C1789 1.389 . S
C1789 C1788 1.389 . S
C1789 C1790 1.387 . S
C1790 H1775 0.930 . S
C1790 C1785 1.390 . S
C1790 C1789 1.387 . S
H1791 C1803 0.930 1_565 S
H1792 C1805 0.930 . S
H1793 C1806 0.930 . S
H1794 C1810 0.959 1_545 S
H1795 C1810 0.959 . S
H1796 C1810 0.961 . S
H1797 C1811 0.960 . S
H1798 C1811 0.961 . S
H1799 C1811 0.959 . S
H1800 C1814 0.929 . S
H1801 C1815 0.931 . S
H1802 C1817 0.930 1_565 S
C1803 H1791 0.930 1_545 S
C1803 C1804 1.399 . S
C1803 C1808 1.399 . S
C1804 C1803 1.399 . S
C1804 C1805 1.376 . S
C1805 H1792 0.930 . S
C1805 C1804 1.376 . S
C1805 C1806 1.388 . S
C1806 H1793 0.930 . S
C1806 C1805 1.388 . S
C1806 C1807 1.390 . S
C1807 C1806 1.390 . S
C1807 C1808 1.394 . S
C1807 C1813 1.465 . S
C1808 C1803 1.399 . S
C1808 C1807 1.394 . S
C1808 C1809 1.516 1_545 S
C1809 C1808 1.516 1_565 S
C1809 C1810 1.502 . S
C1809 C1811 1.561 . S
C1809 C1812 1.526 1_565 S
C1810 H1794 0.959 1_565 S
C1810 H1795 0.959 . S
C1810 H1796 0.961 . S
C1810 C1809 1.502 . S
C1811 H1797 0.960 . S
C1811 H1798 0.961 . S
C1811 H1799 0.959 . S
C1811 C1809 1.561 . S
C1812 C1809 1.526 1_545 S
C1812 C1813 1.396 . S
C1812 C1817 1.390 . S
C1813 C1807 1.465 . S
C1813 C1812 1.396 . S
C1813 C1814 1.399 . S
C1814 H1800 0.929 . S
C1814 C1813 1.399 . S
C1814 C1815 1.385 . S
C1815 H1801 0.931 . S
C1815 C1814 1.385 . S
C1815 C1816 1.389 . S
C1816 C1815 1.389 . S
C1816 C1817 1.387 . S
C1817 H1802 0.930 1_545 S
C1817 C1812 1.390 . S
C1817 C1816 1.387 . S
H1818 C1830 0.930 . S
H1819 C1832 0.930 . S
H1820 C1833 0.930 . S
H1821 C1837 0.959 . S
H1822 C1837 0.959 . S
H1823 C1837 0.961 . S
H1824 C1838 0.960 . S
H1825 C1838 0.961 . S
H1826 C1838 0.959 . S
H1827 C1841 0.929 . S
H1828 C1842 0.931 . S
H1829 C1844 0.930 . S
C1830 H1818 0.930 . S
C1830 C1831 1.399 . S
C1830 C1835 1.399 . S
C1831 C1830 1.399 . S
C1831 C1832 1.376 . S
C1832 H1819 0.930 . S
C1832 C1831 1.376 . S
C1832 C1833 1.388 . S
C1833 H1820 0.930 . S
C1833 C1832 1.388 . S
C1833 C1834 1.390 . S
C1834 C1833 1.390 . S
C1834 C1835 1.394 . S
C1834 C1840 1.465 . S
C1835 C1830 1.399 . S
C1835 C1834 1.394 . S
C1835 C1836 1.516 . S
C1836 C1835 1.516 . S
C1836 C1837 1.502 . S
C1836 C1838 1.561 . S
C1836 C1839 1.526 . S
C1837 H1821 0.959 . S
C1837 H1822 0.959 . S
C1837 H1823 0.961 . S
C1837 C1836 1.502 . S
C1838 H1824 0.960 . S
C1838 H1825 0.961 . S
C1838 H1826 0.959 . S
C1838 C1836 1.561 . S
C1839 C1836 1.526 . S
C1839 C1840 1.396 . S
C1839 C1844 1.390 . S
C1840 C1834 1.465 . S
C1840 C1839 1.396 . S
C1840 C1841 1.399 . S
C1841 H1827 0.929 . S
C1841 C1840 1.399 . S
C1841 C1842 1.385 . S
C1842 H1828 0.931 . S
C1842 C1841 1.385 . S
C1842 C1843 1.389 . S
C1843 C1842 1.389 . S
C1843 C1844 1.387 . S
C1844 H1829 0.930 . S
C1844 C1839 1.390 . S
C1844 C1843 1.387 . S
H1845 C1857 0.930 . S
H1846 C1859 0.930 . S
H1847 C1860 0.930 . S
H1848 C1864 0.959 . S
H1849 C1864 0.959 . S
H1850 C1864 0.961 . S
H1851 C1865 0.960 . S
H1852 C1865 0.961 . S
H1853 C1865 0.959 . S
H1854 C1868 0.929 . S
H1855 C1869 0.931 . S
H1856 C1871 0.930 . S
C1857 H1845 0.930 . S
C1857 C1858 1.399 . S
C1857 C1862 1.399 . S
C1858 C1857 1.399 . S
C1858 C1859 1.376 . S
C1859 H1846 0.930 . S
C1859 C1858 1.376 . S
C1859 C1860 1.388 . S
C1860 H1847 0.930 . S
C1860 C1859 1.388 . S
C1860 C1861 1.390 . S
C1861 C1860 1.390 . S
C1861 C1862 1.394 . S
C1861 C1867 1.465 . S
C1862 C1857 1.399 . S
C1862 C1861 1.394 . S
C1862 C1863 1.516 . S
C1863 C1862 1.516 . S
C1863 C1864 1.502 . S
C1863 C1865 1.561 . S
C1863 C1866 1.526 . S
C1864 H1848 0.959 . S
C1864 H1849 0.959 . S
C1864 H1850 0.961 . S
C1864 C1863 1.502 . S
C1865 H1851 0.960 . S
C1865 H1852 0.961 . S
C1865 H1853 0.959 . S
C1865 C1863 1.561 . S
C1866 C1863 1.526 . S
C1866 C1867 1.396 . S
C1866 C1871 1.390 . S
C1867 C1861 1.465 . S
C1867 C1866 1.396 . S
C1867 C1868 1.399 . S
C1868 H1854 0.929 . S
C1868 C1867 1.399 . S
C1868 C1869 1.385 . S
C1869 H1855 0.931 . S
C1869 C1868 1.385 . S
C1869 C1870 1.389 . S
C1870 C1869 1.389 . S
C1870 C1871 1.387 . S
C1871 H1856 0.930 . S
C1871 C1866 1.390 . S
C1871 C1870 1.387 . S
H1872 C1884 0.930 . S
H1873 C1886 0.930 . S
H1874 C1887 0.930 . S
H1875 C1891 0.959 . S
H1876 C1891 0.959 . S
H1877 C1891 0.961 . S
H1878 C1892 0.960 . S
H1879 C1892 0.961 . S
H1880 C1892 0.959 . S
H1881 C1895 0.929 . S
H1882 C1896 0.931 . S
H1883 C1898 0.930 . S
C1884 H1872 0.930 . S
C1884 C1885 1.399 . S
C1884 C1889 1.399 . S
C1885 C1884 1.399 . S
C1885 C1886 1.376 . S
C1886 H1873 0.930 . S
C1886 C1885 1.376 . S
C1886 C1887 1.388 . S
C1887 H1874 0.930 . S
C1887 C1886 1.388 . S
C1887 C1888 1.390 . S
C1888 C1887 1.390 . S
C1888 C1889 1.394 . S
C1888 C1894 1.465 . S
C1889 C1884 1.399 . S
C1889 C1888 1.394 . S
C1889 C1890 1.516 . S
C1890 C1889 1.516 . S
C1890 C1891 1.502 . S
C1890 C1892 1.561 . S
C1890 C1893 1.526 . S
C1891 H1875 0.959 . S
C1891 H1876 0.959 . S
C1891 H1877 0.961 . S
C1891 C1890 1.502 . S
C1892 H1878 0.960 . S
C1892 H1879 0.961 . S
C1892 H1880 0.959 . S
C1892 C1890 1.561 . S
C1893 C1890 1.526 . S
C1893 C1894 1.396 . S
C1893 C1898 1.390 . S
C1894 C1888 1.465 . S
C1894 C1893 1.396 . S
C1894 C1895 1.399 . S
C1895 H1881 0.929 . S
C1895 C1894 1.399 . S
C1895 C1896 1.385 . S
C1896 H1882 0.931 . S
C1896 C1895 1.385 . S
C1896 C1897 1.389 . S
C1897 C1896 1.389 . S
C1897 C1898 1.387 . S
C1898 H1883 0.930 . S
C1898 C1893 1.390 . S
C1898 C1897 1.387 . S
H1899 C1911 0.930 . S
H1900 C1913 0.930 . S
H1901 C1914 0.919 1_455 S
H1902 C1918 0.959 . S
H1903 C1918 0.959 . S
H1904 C1918 0.961 . S
H1905 C1919 0.960 . S
H1906 C1919 0.961 . S
H1907 C1919 0.959 . S
H1908 C1922 0.929 . S
H1909 C1923 0.931 . S
H1910 C1925 0.930 . S
C1911 H1899 0.930 . S
C1911 C1912 1.399 . S
C1911 C1916 1.399 . S
C1912 C1911 1.399 . S
C1912 C1913 1.376 . S
C1913 H1900 0.930 . S
C1913 C1912 1.376 . S
C1913 C1914 1.388 . S
C1914 H1901 0.919 1_655 S
C1914 C1913 1.388 . S
C1914 C1915 1.390 . S
C1915 C1914 1.390 . S
C1915 C1916 1.394 . S
C1915 C1921 1.465 . S
C1916 C1911 1.399 . S
C1916 C1915 1.394 . S
C1916 C1917 1.516 . S
C1917 C1916 1.516 . S
C1917 C1918 1.502 . S
C1917 C1919 1.561 1_655 S
C1917 C1920 1.526 . S
C1918 H1902 0.959 . S
C1918 H1903 0.959 . S
C1918 H1904 0.961 . S
C1918 C1917 1.502 . S
C1919 H1905 0.960 . S
C1919 H1906 0.961 . S
C1919 H1907 0.959 . S
C1919 C1917 1.561 1_455 S
C1920 C1917 1.526 . S
C1920 C1921 1.396 . S
C1920 C1925 1.390 . S
C1921 C1915 1.465 . S
C1921 C1920 1.396 . S
C1921 C1922 1.399 1_655 S
C1922 H1908 0.929 . S
C1922 C1921 1.399 1_455 S
C1922 C1923 1.385 . S
C1923 H1909 0.931 . S
C1923 C1922 1.385 . S
C1923 C1924 1.390 1_455 S
C1924 C1923 1.390 1_655 S
C1924 C1925 1.385 . S
C1925 H1910 0.930 . S
C1925 C1920 1.390 . S
C1925 C1924 1.385 . S
H1926 C1938 0.930 . S
H1927 C1940 0.930 . S
H1928 C1941 0.930 . S
H1929 C1945 0.959 . S
H1930 C1945 0.959 . S
H1931 C1945 0.961 . S
H1932 C1946 0.960 . S
H1933 C1946 0.961 . S
H1934 C1946 0.959 . S
H1935 C1949 0.929 . S
H1936 C1950 0.931 . S
H1937 C1952 0.930 . S
C1938 H1926 0.930 . S
C1938 C1939 1.399 . S
C1938 C1943 1.399 . S
C1939 C1938 1.399 . S
C1939 C1940 1.376 . S
C1940 H1927 0.930 . S
C1940 C1939 1.376 . S
C1940 C1941 1.388 . S
C1941 H1928 0.930 . S
C1941 C1940 1.388 . S
C1941 C1942 1.390 . S
C1942 C1941 1.390 . S
C1942 C1943 1.394 . S
C1942 C1948 1.465 . S
C1943 C1938 1.399 . S
C1943 C1942 1.394 . S
C1943 C1944 1.516 . S
C1944 C1943 1.516 . S
C1944 C1945 1.502 . S
C1944 C1946 1.561 . S
C1944 C1947 1.526 . S
C1945 H1929 0.959 . S
C1945 H1930 0.959 . S
C1945 H1931 0.961 . S
C1945 C1944 1.502 . S
C1946 H1932 0.960 . S
C1946 H1933 0.961 . S
C1946 H1934 0.959 . S
C1946 C1944 1.561 . S
C1947 C1944 1.526 . S
C1947 C1948 1.396 . S
C1947 C1952 1.390 . S
C1948 C1942 1.465 . S
C1948 C1947 1.396 . S
C1948 C1949 1.399 . S
C1949 H1935 0.929 . S
C1949 C1948 1.399 . S
C1949 C1950 1.385 . S
C1950 H1936 0.931 . S
C1950 C1949 1.385 . S
C1950 C1951 1.389 . S
C1951 C1950 1.389 . S
C1951 C1952 1.387 . S
C1952 H1937 0.930 . S
C1952 C1947 1.390 . S
C1952 C1951 1.387 . S
H1953 C1965 0.930 . S
H1954 C1967 0.930 . S
H1955 C1968 0.930 . S
H1956 C1972 0.959 . S
H1957 C1972 0.959 . S
H1958 C1972 0.961 . S
H1959 C1973 0.960 . S
H1960 C1973 0.961 . S
H1961 C1973 0.959 . S
H1962 C1976 0.929 . S
H1963 C1977 0.931 . S
H1964 C1979 0.930 . S
C1965 H1953 0.930 . S
C1965 C1966 1.399 . S
C1965 C1970 1.399 . S
C1966 C1965 1.399 . S
C1966 C1967 1.376 . S
C1967 H1954 0.930 . S
C1967 C1966 1.376 . S
C1967 C1968 1.388 . S
C1968 H1955 0.930 . S
C1968 C1967 1.388 . S
C1968 C1969 1.390 . S
C1969 C1968 1.390 . S
C1969 C1970 1.394 . S
C1969 C1975 1.465 . S
C1970 C1965 1.399 . S
C1970 C1969 1.394 . S
C1970 C1971 1.516 . S
C1971 C1970 1.516 . S
C1971 C1972 1.502 1_455 S
C1971 C1973 1.561 . S
C1971 C1974 1.526 . S
C1972 H1956 0.959 . S
C1972 H1957 0.959 . S
C1972 H1958 0.961 . S
C1972 C1971 1.502 1_655 S
C1973 H1959 0.960 . S
C1973 H1960 0.961 . S
C1973 H1961 0.959 . S
C1973 C1971 1.561 . S
C1974 C1971 1.526 . S
C1974 C1975 1.396 . S
C1974 C1979 1.390 . S
C1975 C1969 1.465 . S
C1975 C1974 1.396 . S
C1975 C1976 1.399 . S
C1976 H1962 0.929 . S
C1976 C1975 1.399 . S
C1976 C1977 1.385 . S
C1977 H1963 0.931 . S
C1977 C1976 1.385 . S
C1977 C1978 1.389 . S
C1978 C1977 1.389 . S
C1978 C1979 1.387 . S
C1979 H1964 0.930 . S
C1979 C1974 1.390 . S
C1979 C1978 1.387 . S
H1980 C1992 0.930 . S
H1981 C1994 0.930 . S
H1982 C1995 0.930 . S
H1983 C1999 0.959 . S
H1984 C1999 0.959 . S
H1985 C1999 0.961 . S
H1986 C2000 0.960 . S
H1987 C2000 0.961 . S
H1988 C2000 0.959 . S
H1989 C2003 0.929 . S
H1990 C2004 0.931 . S
H1991 C2006 0.930 . S
C1992 H1980 0.930 . S
C1992 C1993 1.399 . S
C1992 C1997 1.399 . S
C1993 C1992 1.399 . S
C1993 C1994 1.376 . S
C1994 H1981 0.930 . S
C1994 C1993 1.376 . S
C1994 C1995 1.388 . S
C1995 H1982 0.930 . S
C1995 C1994 1.388 . S
C1995 C1996 1.390 . S
C1996 C1995 1.390 . S
C1996 C1997 1.394 . S
C1996 C2002 1.465 . S
C1997 C1992 1.399 . S
C1997 C1996 1.394 . S
C1997 C1998 1.516 . S
C1998 C1997 1.516 . S
C1998 C1999 1.502 . S
C1998 C2000 1.561 . S
C1998 C2001 1.526 . S
C1999 H1983 0.959 . S
C1999 H1984 0.959 . S
C1999 H1985 0.961 . S
C1999 C1998 1.502 . S
C2000 H1986 0.960 . S
C2000 H1987 0.961 . S
C2000 H1988 0.959 . S
C2000 C1998 1.561 . S
C2001 C1998 1.526 . S
C2001 C2002 1.396 . S
C2001 C2006 1.390 . S
C2002 C1996 1.465 . S
C2002 C2001 1.396 . S
C2002 C2003 1.399 . S
C2003 H1989 0.929 . S
C2003 C2002 1.399 . S
C2003 C2004 1.385 . S
C2004 H1990 0.931 . S
C2004 C2003 1.385 . S
C2004 C2005 1.389 . S
C2005 C2004 1.389 . S
C2005 C2006 1.387 . S
C2006 H1991 0.930 . S
C2006 C2001 1.390 . S
C2006 C2005 1.387 . S
H2007 C2019 0.930 . S
H2008 C2021 0.930 . S
H2009 C2022 0.930 . S
H2010 C2026 0.959 . S
H2011 C2026 0.959 . S
H2012 C2026 0.961 . S
H2013 C2027 0.960 . S
H2014 C2027 0.961 . S
H2015 C2027 0.959 . S
H2016 C2030 0.929 . S
H2017 C2031 0.931 . S
H2018 C2033 0.930 . S
C2019 H2007 0.930 . S
C2019 C2020 1.399 . S
C2019 C2024 1.399 . S
C2020 C2019 1.399 . S
C2020 C2021 1.376 . S
C2021 H2008 0.930 . S
C2021 C2020 1.376 . S
C2021 C2022 1.388 . S
C2022 H2009 0.930 . S
C2022 C2021 1.388 . S
C2022 C2023 1.390 . S
C2023 C2022 1.390 . S
C2023 C2024 1.394 . S
C2023 C2029 1.465 . S
C2024 C2019 1.399 . S
C2024 C2023 1.394 . S
C2024 C2025 1.516 . S
C2025 C2024 1.516 . S
C2025 C2026 1.502 . S
C2025 C2027 1.561 . S
C2025 C2028 1.526 . S
C2026 H2010 0.959 . S
C2026 H2011 0.959 . S
C2026 H2012 0.961 . S
C2026 C2025 1.502 . S
C2027 H2013 0.960 . S
C2027 H2014 0.961 . S
C2027 H2015 0.959 . S
C2027 C2025 1.561 . S
C2028 C2025 1.526 . S
C2028 C2029 1.396 . S
C2028 C2033 1.390 . S
C2029 C2023 1.465 . S
C2029 C2028 1.396 . S
C2029 C2030 1.399 . S
C2030 H2016 0.929 . S
C2030 C2029 1.399 . S
C2030 C2031 1.385 . S
C2031 H2017 0.931 . S
C2031 C2030 1.385 . S
C2031 C2032 1.389 . S
C2032 C2031 1.389 . S
C2032 C2033 1.387 . S
C2033 H2018 0.930 . S
C2033 C2028 1.390 . S
C2033 C2032 1.387 . S
H2034 C2046 0.930 . S
H2035 C2048 0.930 . S
H2036 C2049 0.930 . S
H2037 C2053 0.959 . S
H2038 C2053 0.959 . S
H2039 C2053 0.961 . S
H2040 C2054 0.960 . S
H2041 C2054 0.961 . S
H2042 C2054 0.959 . S
H2043 C2057 0.929 . S
H2044 C2058 0.931 . S
H2045 C2060 0.930 . S
C2046 H2034 0.930 . S
C2046 C2047 1.399 . S
C2046 C2051 1.399 . S
C2047 C2046 1.399 . S
C2047 C2048 1.376 . S
C2048 H2035 0.930 . S
C2048 C2047 1.376 . S
C2048 C2049 1.388 . S
C2049 H2036 0.930 . S
C2049 C2048 1.388 . S
C2049 C2050 1.390 . S
C2050 C2049 1.390 . S
C2050 C2051 1.394 . S
C2050 C2056 1.465 . S
C2051 C2046 1.399 . S
C2051 C2050 1.394 . S
C2051 C2052 1.516 . S
C2052 C2051 1.516 . S
C2052 C2053 1.502 . S
C2052 C2054 1.561 . S
C2052 C2055 1.526 . S
C2053 H2037 0.959 . S
C2053 H2038 0.959 . S
C2053 H2039 0.961 . S
C2053 C2052 1.502 . S
C2054 H2040 0.960 . S
C2054 H2041 0.961 . S
C2054 H2042 0.959 . S
C2054 C2052 1.561 . S
C2055 C2052 1.526 . S
C2055 C2056 1.396 . S
C2055 C2060 1.390 . S
C2056 C2050 1.465 . S
C2056 C2055 1.396 . S
C2056 C2057 1.399 . S
C2057 H2043 0.929 . S
C2057 C2056 1.399 . S
C2057 C2058 1.385 . S
C2058 H2044 0.931 . S
C2058 C2057 1.385 . S
C2058 C2059 1.389 . S
C2059 C2058 1.389 . S
C2059 C2060 1.387 . S
C2060 H2045 0.930 . S
C2060 C2055 1.390 . S
C2060 C2059 1.387 . S
H2061 C2073 0.930 . S
H2062 C2075 0.930 . S
H2063 C2076 0.930 . S
H2064 C2080 0.959 . S
H2065 C2080 0.959 . S
H2066 C2080 0.961 . S
H2067 C2081 0.960 . S
H2068 C2081 0.961 . S
H2069 C2081 0.959 . S
H2070 C2084 0.929 . S
H2071 C2085 0.931 . S
H2072 C2087 0.930 . S
C2073 H2061 0.930 . S
C2073 C2074 1.399 . S
C2073 C2078 1.399 . S
C2074 C2073 1.399 . S
C2074 C2075 1.376 . S
C2075 H2062 0.930 . S
C2075 C2074 1.376 . S
C2075 C2076 1.388 . S
C2076 H2063 0.930 . S
C2076 C2075 1.388 . S
C2076 C2077 1.390 . S
C2077 C2076 1.390 . S
C2077 C2078 1.394 . S
C2077 C2083 1.465 . S
C2078 C2073 1.399 . S
C2078 C2077 1.394 . S
C2078 C2079 1.516 . S
C2079 C2078 1.516 . S
C2079 C2080 1.502 . S
C2079 C2081 1.561 . S
C2079 C2082 1.526 . S
C2080 H2064 0.959 . S
C2080 H2065 0.959 . S
C2080 H2066 0.961 . S
C2080 C2079 1.502 . S
C2081 H2067 0.960 . S
C2081 H2068 0.961 . S
C2081 H2069 0.959 . S
C2081 C2079 1.561 . S
C2082 C2079 1.526 . S
C2082 C2083 1.396 . S
C2082 C2087 1.390 . S
C2083 C2077 1.465 . S
C2083 C2082 1.396 . S
C2083 C2084 1.399 . S
C2084 H2070 0.929 . S
C2084 C2083 1.399 . S
C2084 C2085 1.385 . S
C2085 H2071 0.931 . S
C2085 C2084 1.385 . S
C2085 C2086 1.389 . S
C2086 C2085 1.389 . S
C2086 C2087 1.387 . S
C2087 H2072 0.930 . S
C2087 C2082 1.390 . S
C2087 C2086 1.387 . S
H2088 C2100 0.930 . S
H2089 C2102 0.930 . S
H2090 C2103 0.930 . S
H2091 C2107 0.959 . S
H2092 C2107 0.959 . S
H2093 C2107 0.961 . S
H2094 C2108 0.960 . S
H2095 C2108 0.961 . S
H2096 C2108 0.959 . S
H2097 C2111 0.929 . S
H2098 C2112 0.931 . S
H2099 C2114 0.930 . S
C2100 H2088 0.930 . S
C2100 C2101 1.399 . S
C2100 C2105 1.399 . S
C2101 C2100 1.399 . S
C2101 C2102 1.376 . S
C2102 H2089 0.930 . S
C2102 C2101 1.376 . S
C2102 C2103 1.388 . S
C2103 H2090 0.930 . S
C2103 C2102 1.388 . S
C2103 C2104 1.390 . S
C2104 C2103 1.390 . S
C2104 C2105 1.394 . S
C2104 C2110 1.465 . S
C2105 C2100 1.399 . S
C2105 C2104 1.394 . S
C2105 C2106 1.516 . S
C2106 C2105 1.516 . S
C2106 C2107 1.502 . S
C2106 C2108 1.561 . S
C2106 C2109 1.526 . S
C2107 H2091 0.959 . S
C2107 H2092 0.959 . S
C2107 H2093 0.961 . S
C2107 C2106 1.502 . S
C2108 H2094 0.960 . S
C2108 H2095 0.961 . S
C2108 H2096 0.959 . S
C2108 C2106 1.561 . S
C2109 C2106 1.526 . S
C2109 C2110 1.396 . S
C2109 C2114 1.390 . S
C2110 C2104 1.465 . S
C2110 C2109 1.396 . S
C2110 C2111 1.399 . S
C2111 H2097 0.929 . S
C2111 C2110 1.399 . S
C2111 C2112 1.385 . S
C2112 H2098 0.931 . S
C2112 C2111 1.385 . S
C2112 C2113 1.389 . S
C2113 C2112 1.389 . S
C2113 C2114 1.387 . S
C2114 H2099 0.930 . S
C2114 C2109 1.390 . S
C2114 C2113 1.387 . S
H2115 C2127 0.930 . S
H2116 C2129 0.930 . S
H2117 C2130 0.930 . S
H2118 C2134 0.959 . S
H2119 C2134 0.959 . S
H2120 C2134 0.961 . S
H2121 C2135 0.960 . S
H2122 C2135 0.961 . S
H2123 C2135 0.959 . S
H2124 C2138 0.929 . S
H2125 C2139 0.931 . S
H2126 C2141 0.930 . S
C2127 H2115 0.930 . S
C2127 C2128 1.399 . S
C2127 C2132 1.399 . S
C2128 C2127 1.399 . S
C2128 C2129 1.376 . S
C2129 H2116 0.930 . S
C2129 C2128 1.376 . S
C2129 C2130 1.388 . S
C2130 H2117 0.930 . S
C2130 C2129 1.388 . S
C2130 C2131 1.390 . S
C2131 C2130 1.390 . S
C2131 C2132 1.394 . S
C2131 C2137 1.465 . S
C2132 C2127 1.399 . S
C2132 C2131 1.394 . S
C2132 C2133 1.516 . S
C2133 C2132 1.516 . S
C2133 C2134 1.502 . S
C2133 C2135 1.561 . S
C2133 C2136 1.526 . S
C2134 H2118 0.959 . S
C2134 H2119 0.959 . S
C2134 H2120 0.961 . S
C2134 C2133 1.502 . S
C2135 H2121 0.960 . S
C2135 H2122 0.961 . S
C2135 H2123 0.959 . S
C2135 C2133 1.561 . S
C2136 C2133 1.526 . S
C2136 C2137 1.396 . S
C2136 C2141 1.390 . S
C2137 C2131 1.465 . S
C2137 C2136 1.396 . S
C2137 C2138 1.399 . S
C2138 H2124 0.929 . S
C2138 C2137 1.399 . S
C2138 C2139 1.385 . S
C2139 H2125 0.931 . S
C2139 C2138 1.385 . S
C2139 C2140 1.389 . S
C2140 C2139 1.389 . S
C2140 C2141 1.387 . S
C2141 H2126 0.930 . S
C2141 C2136 1.390 . S
C2141 C2140 1.387 . S
H2142 C2154 0.930 . S
H2143 C2156 0.930 . S
H2144 C2157 0.930 . S
H2145 C2161 0.959 . S
H2146 C2161 0.959 . S
H2147 C2161 0.961 . S
H2148 C2162 0.960 . S
H2149 C2162 0.961 . S
H2150 C2162 0.959 . S
H2151 C2165 0.929 . S
H2152 C2166 0.931 . S
H2153 C2168 0.930 . S
C2154 H2142 0.930 . S
C2154 C2155 1.399 . S
C2154 C2159 1.399 . S
C2155 C2154 1.399 . S
C2155 C2156 1.376 . S
C2156 H2143 0.930 . S
C2156 C2155 1.376 . S
C2156 C2157 1.388 . S
C2157 H2144 0.930 . S
C2157 C2156 1.388 . S
C2157 C2158 1.390 . S
C2158 C2157 1.390 . S
C2158 C2159 1.394 . S
C2158 C2164 1.465 . S
C2159 C2154 1.399 . S
C2159 C2158 1.394 . S
C2159 C2160 1.516 . S
C2160 C2159 1.516 . S
C2160 C2161 1.502 . S
C2160 C2162 1.561 . S
C2160 C2163 1.526 . S
C2161 H2145 0.959 . S
C2161 H2146 0.959 . S
C2161 H2147 0.961 . S
C2161 C2160 1.502 . S
C2162 H2148 0.960 . S
C2162 H2149 0.961 . S
C2162 H2150 0.959 . S
C2162 C2160 1.561 . S
C2163 C2160 1.526 . S
C2163 C2164 1.396 . S
C2163 C2168 1.390 . S
C2164 C2158 1.465 . S
C2164 C2163 1.396 . S
C2164 C2165 1.399 . S
C2165 H2151 0.929 . S
C2165 C2164 1.399 . S
C2165 C2166 1.385 . S
C2166 H2152 0.931 . S
C2166 C2165 1.385 . S
C2166 C2167 1.389 . S
C2167 C2166 1.389 . S
C2167 C2168 1.387 . S
C2168 H2153 0.930 . S
C2168 C2163 1.390 . S
C2168 C2167 1.387 . S
H2169 C2181 0.930 . S
H2170 C2183 0.930 . S
H2171 C2184 0.930 . S
H2172 C2188 0.959 . S
H2173 C2188 0.959 . S
H2174 C2188 0.961 . S
H2175 C2189 0.960 . S
H2176 C2189 0.961 . S
H2177 C2189 0.959 . S
H2178 C2192 0.929 . S
H2179 C2193 0.931 . S
H2180 C2195 0.930 . S
C2181 H2169 0.930 . S
C2181 C2182 1.399 . S
C2181 C2186 1.399 . S
C2182 C2181 1.399 . S
C2182 C2183 1.376 . S
C2183 H2170 0.930 . S
C2183 C2182 1.376 . S
C2183 C2184 1.388 . S
C2184 H2171 0.930 . S
C2184 C2183 1.388 . S
C2184 C2185 1.390 . S
C2185 C2184 1.390 . S
C2185 C2186 1.394 . S
C2185 C2191 1.465 . S
C2186 C2181 1.399 . S
C2186 C2185 1.394 . S
C2186 C2187 1.516 . S
C2187 C2186 1.516 . S
C2187 C2188 1.502 . S
C2187 C2189 1.561 . S
C2187 C2190 1.526 . S
C2188 H2172 0.959 . S
C2188 H2173 0.959 . S
C2188 H2174 0.961 . S
C2188 C2187 1.502 . S
C2189 H2175 0.960 . S
C2189 H2176 0.961 . S
C2189 H2177 0.959 . S
C2189 C2187 1.561 . S
C2190 C2187 1.526 . S
C2190 C2191 1.396 . S
C2190 C2195 1.390 . S
C2191 C2185 1.465 . S
C2191 C2190 1.396 . S
C2191 C2192 1.399 . S
C2192 H2178 0.929 . S
C2192 C2191 1.399 . S
C2192 C2193 1.385 . S
C2193 H2179 0.931 . S
C2193 C2192 1.385 . S
C2193 C2194 1.389 . S
C2194 C2193 1.389 . S
C2194 C2195 1.387 . S
C2195 H2180 0.930 . S
C2195 C2190 1.390 . S
C2195 C2194 1.387 . S
H2196 C2208 0.930 . S
H2197 C2210 0.930 . S
H2198 C2211 0.930 . S
H2199 C2215 0.959 . S
H2200 C2215 0.959 . S
H2201 C2215 0.961 . S
H2202 C2216 0.960 . S
H2203 C2216 0.961 . S
H2204 C2216 0.959 . S
H2205 C2219 0.929 . S
H2206 C2220 0.931 . S
H2207 C2222 0.930 . S
C2208 H2196 0.930 . S
C2208 C2209 1.399 . S
C2208 C2213 1.399 . S
C2209 C2208 1.399 . S
C2209 C2210 1.376 1_556 S
C2210 H2197 0.930 . S
C2210 C2209 1.376 1_554 S
C2210 C2211 1.388 . S
C2211 H2198 0.930 . S
C2211 C2210 1.388 . S
C2211 C2212 1.390 1_554 S
C2212 C2211 1.390 1_556 S
C2212 C2213 1.394 . S
C2212 C2218 1.472 . S
C2213 C2208 1.399 . S
C2213 C2212 1.394 . S
C2213 C2214 1.516 . S
C2214 C2213 1.516 . S
C2214 C2215 1.502 . S
C2214 C2216 1.561 . S
C2214 C2217 1.526 . S
C2215 H2199 0.959 . S
C2215 H2200 0.959 . S
C2215 H2201 0.961 . S
C2215 C2214 1.502 . S
C2216 H2202 0.960 . S
C2216 H2203 0.961 . S
C2216 H2204 0.959 . S
C2216 C2214 1.561 . S
C2217 C2214 1.526 . S
C2217 C2218 1.438 . S
C2217 C2222 1.390 . S
C2218 C2212 1.472 . S
C2218 C2217 1.438 . S
C2218 C2219 1.360 1_556 S
C2219 H2205 0.929 . S
C2219 C2218 1.360 1_554 S
C2219 C2220 1.385 . S
C2220 H2206 0.931 . S
C2220 C2219 1.385 . S
C2220 C2221 1.389 1_554 S
C2221 C2220 1.389 1_556 S
C2221 C2222 1.387 . S
C2222 H2207 0.930 . S
C2222 C2217 1.390 . S
C2222 C2221 1.387 . S
H2223 C2235 0.930 . S
H2224 C2237 0.930 . S
H2225 C2238 0.930 . S
H2226 C2242 0.959 . S
H2227 C2242 0.959 . S
H2228 C2242 0.961 . S
H2229 C2243 0.960 . S
H2230 C2243 0.961 . S
H2231 C2243 0.959 . S
H2232 C2246 0.929 . S
H2233 C2247 0.931 . S
H2234 C2249 0.930 . S
C2235 H2223 0.930 . S
C2235 C2236 1.399 . S
C2235 C2240 1.399 . S
C2236 C2235 1.399 . S
C2236 C2237 1.376 . S
C2237 H2224 0.930 . S
C2237 C2236 1.376 . S
C2237 C2238 1.388 . S
C2238 H2225 0.930 . S
C2238 C2237 1.388 . S
C2238 C2239 1.390 . S
C2239 C2238 1.390 . S
C2239 C2240 1.394 . S
C2239 C2245 1.465 . S
C2240 C2235 1.399 . S
C2240 C2239 1.394 . S
C2240 C2241 1.516 . S
C2241 C2240 1.516 . S
C2241 C2242 1.502 . S
C2241 C2243 1.561 . S
C2241 C2244 1.526 . S
C2242 H2226 0.959 . S
C2242 H2227 0.959 . S
C2242 H2228 0.961 . S
C2242 C2241 1.502 . S
C2243 H2229 0.960 . S
C2243 H2230 0.961 . S
C2243 H2231 0.959 . S
C2243 C2241 1.561 . S
C2244 C2241 1.526 . S
C2244 C2245 1.396 . S
C2244 C2249 1.390 . S
C2245 C2239 1.465 . S
C2245 C2244 1.396 . S
C2245 C2246 1.399 . S
C2246 H2232 0.929 . S
C2246 C2245 1.399 . S
C2246 C2247 1.385 . S
C2247 H2233 0.931 . S
C2247 C2246 1.385 . S
C2247 C2248 1.389 . S
C2248 C2247 1.389 . S
C2248 C2249 1.387 . S
C2249 H2234 0.930 . S
C2249 C2244 1.390 . S
C2249 C2248 1.387 . S
H2250 C2262 0.930 . S
H2251 C2264 0.917 1_556 S
H2252 C2265 0.930 . S
H2253 C2269 0.959 . S
H2254 C2269 0.959 . S
H2255 C2269 0.961 . S
H2256 C2270 0.960 . S
H2257 C2270 0.961 . S
H2258 C2270 0.959 . S
H2259 C2273 0.929 . S
H2260 C2274 0.931 . S
H2261 C2276 0.930 . S
C2262 H2250 0.930 . S
C2262 C2263 1.399 . S
C2262 C2267 1.399 . S
C2263 C2262 1.399 . S
C2263 C2264 1.398 . S
C2264 H2251 0.917 1_554 S
C2264 C2263 1.398 . S
C2264 C2265 1.380 1_554 S
C2265 H2252 0.930 . S
C2265 C2264 1.380 1_556 S
C2265 C2266 1.390 1_556 S
C2266 C2265 1.390 1_554 S
C2266 C2267 1.394 . S
C2266 C2272 1.465 . S
C2267 C2262 1.399 . S
C2267 C2266 1.394 . S
C2267 C2268 1.516 . S
C2268 C2267 1.516 . S
C2268 C2269 1.502 . S
C2268 C2270 1.561 . S
C2268 C2271 1.526 . S
C2269 H2253 0.959 . S
C2269 H2254 0.959 . S
C2269 H2255 0.961 . S
C2269 C2268 1.502 . S
C2270 H2256 0.960 . S
C2270 H2257 0.961 . S
C2270 H2258 0.959 . S
C2270 C2268 1.561 . S
C2271 C2268 1.526 . S
C2271 C2272 1.396 . S
C2271 C2276 1.390 . S
C2272 C2266 1.465 . S
C2272 C2271 1.396 . S
C2272 C2273 1.399 1_554 S
C2273 H2259 0.929 . S
C2273 C2272 1.399 1_556 S
C2273 C2274 1.385 . S
C2274 H2260 0.931 . S
C2274 C2273 1.385 . S
C2274 C2275 1.389 1_556 S
C2275 C2274 1.389 1_554 S
C2275 C2276 1.387 . S
C2276 H2261 0.930 . S
C2276 C2271 1.390 . S
C2276 C2275 1.387 . S
H2277 C2289 0.930 1_556 S
H2278 C2291 0.930 . S
H2279 C2292 0.930 . S
H2280 C2296 0.959 1_554 S
H2281 C2296 0.959 . S
H2282 C2296 0.961 . S
H2283 C2297 0.960 . S
H2284 C2297 0.961 . S
H2285 C2297 0.959 . S
H2286 C2300 0.929 . S
H2287 C2301 0.931 . S
H2288 C2303 0.930 1_556 S
C2289 H2277 0.930 1_554 S
C2289 C2290 1.399 . S
C2289 C2294 1.399 . S
C2290 C2289 1.399 . S
C2290 C2291 1.376 . S
C2291 H2278 0.930 . S
C2291 C2290 1.376 . S
C2291 C2292 1.388 . S
C2292 H2279 0.930 . S
C2292 C2291 1.388 . S
C2292 C2293 1.390 . S
C2293 C2292 1.390 . S
C2293 C2294 1.394 . S
C2293 C2299 1.465 . S
C2294 C2289 1.399 . S
C2294 C2293 1.394 . S
C2294 C2295 1.516 1_554 S
C2295 C2294 1.516 1_556 S
C2295 C2296 1.502 . S
C2295 C2297 1.561 . S
C2295 C2298 1.526 1_556 S
C2296 H2280 0.959 1_556 S
C2296 H2281 0.959 . S
C2296 H2282 0.961 . S
C2296 C2295 1.502 . S
C2297 H2283 0.960 . S
C2297 H2284 0.961 . S
C2297 H2285 0.959 . S
C2297 C2295 1.561 . S
C2298 C2295 1.526 1_554 S
C2298 C2299 1.396 . S
C2298 C2303 1.390 . S
C2299 C2293 1.465 . S
C2299 C2298 1.396 . S
C2299 C2300 1.399 . S
C2300 H2286 0.929 . S
C2300 C2299 1.399 . S
C2300 C2301 1.385 . S
C2301 H2287 0.931 . S
C2301 C2300 1.385 . S
C2301 C2302 1.389 . S
C2302 C2301 1.389 . S
C2302 C2303 1.387 . S
C2303 H2288 0.930 1_554 S
C2303 C2298 1.390 . S
C2303 C2302 1.387 . S
C1033 C578 1.457 . S
C1021 C181 1.434 . S
C1060 C626 1.589 . S
C1048 C247 1.675 . S
C1075 C283 1.432 . S
C1087 C662 1.379 . S
C1114 C698 1.558 . S
C1102 C169 1.597 . S
C1141 C724 1.484 . S
C1129 C361 1.477 . S
C1168 C760 1.587 . S
C1156 C433 1.557 . S
C1183 C421 1.497 . S
C1195 C795 1.494 . S
C1222 C832 1.615 1_565 S
C1210 C355 1.619 . S
C1237 C427 1.453 . S
C1249 C866 1.445 . S
C1276 C914 1.537 . S
C1264 C325 1.601 . S
C1291 C385 1.461 . S
C1303 C867 1.451 . S
C1330 C904 1.618 . S
C1318 C463 1.593 . S
C1345 C253 1.468 . S
C1357 C950 1.413 . S
C1372 C145 1.612 . S
C1384 C939 1.629 . S
C1399 C205 1.471 . S
C1411 C940 1.483 . S
C1426 C217 1.633 . S
C1438 C938 1.643 . S
C1453 C139 1.476 . S
C1465 C686 1.442 . S
C1480 C535 1.453 . S
C1492 C687 1.438 . S
C1519 C590 1.596 . S
C1507 C565 1.622 . S
C1546 C615 1.470 . S
C1534 C313 1.456 . S
C1561 C175 1.619 . S
C1573 C722 1.644 . S
C1600 C830 1.489 . S
C1588 C397 1.466 . S
C1627 C723 1.581 . S
C1615 C349 1.585 . S
C1654 C796 1.628 . S
C1642 C457 1.593 . S
C1681 C794 1.410 . S
C1669 C505 1.453 . S
C1696 C571 1.666 . S
C1708 C842 1.653 . S
C1723 C319 1.432 . S
C1735 C734 1.378 . S
C1762 C770 1.602 . S
C1750 C493 1.622 . S
C1777 C109 1.470 . S
C1789 C652 1.489 . S
C1816 C688 1.587 . S
C1804 C1 1.554 . S
C1843 C579 1.491 . S
C1831 C61 1.502 . S
C1870 C616 1.602 . S
C1858 C103 1.609 . S
C1885 C67 1.459 . S
C1897 C902 1.429 . S
C1912 C73 1.601 . S
C1924 C878 1.545 . S
C1939 C133 1.448 . S
C1951 C903 1.456 . S
C1966 C31 1.614 . S
C1978 C868 1.606 . S
C2005 C986 1.367 . S
C1993 C289 1.485 . S
C2032 C975 1.608 . S
C2020 C469 1.619 . S
C2059 C976 1.455 . S
C2047 C529 1.493 . S
C2074 C541 1.644 . S
C2086 C974 1.625 . S
C2101 C391 1.471 . S
C2113 C758 1.482 . S
C2140 C759 1.439 . S
C2128 C211 1.450 . S
C2167 C806 1.609 . S
C2155 C241 1.622 . S
C2194 C831 1.459 . S
C2182 C277 1.475 . S
C2209 C499 1.641 . S
C2221 C650 1.621 1_556 S
C2248 C614 1.472 . S
C2236 C37 1.470 . S
C2263 C97 1.592 . S
C2275 C651 1.598 . S
C2302 C580 1.627 . S
C2290 C25 1.591 . S
