# Generated by pormake.
# Topology ptr, (4,4)-cn, num edge types: 1
# Building blocks:
#     Node 0, Type 0, BuildingBlock: QUQFOY_clean_sbu_3, # of connection points: 4
#     Node 1, Type 0, BuildingBlock: QUQFOY_clean_sbu_3, # of connection points: 4
#     Node 2, Type 0, BuildingBlock: QUQFOY_clean_sbu_3, # of connection points: 4
#     Node 3, Type 0, BuildingBlock: QUQFOY_clean_sbu_3, # of connection points: 4
#     Node 4, Type 0, BuildingBlock: QUQFOY_clean_sbu_3, # of connection points: 4
#     Node 5, Type 0, BuildingBlock: QUQFOY_clean_sbu_3, # of connection points: 4
#     Node 6, Type 0, BuildingBlock: QUQFOY_clean_sbu_3, # of connection points: 4
#     Node 7, Type 0, BuildingBlock: QUQFOY_clean_sbu_3, # of connection points: 4
#     Node 8, Type 0, BuildingBlock: QUQFOY_clean_sbu_3, # of connection points: 4
#     Node 9, Type 0, BuildingBlock: QUQFOY_clean_sbu_3, # of connection points: 4
#     Node 10, Type 0, BuildingBlock: QUQFOY_clean_sbu_3, # of connection points: 4
#     Node 11, Type 0, BuildingBlock: QUQFOY_clean_sbu_3, # of connection points: 4
#     Node 12, Type 0, BuildingBlock: QUQFOY_clean_sbu_3, # of connection points: 4
#     Node 13, Type 0, BuildingBlock: QUQFOY_clean_sbu_3, # of connection points: 4
#     Node 14, Type 0, BuildingBlock: QUQFOY_clean_sbu_3, # of connection points: 4
#     Node 15, Type 0, BuildingBlock: QUQFOY_clean_sbu_3, # of connection points: 4
#     Node 16, Type 0, BuildingBlock: QUQFOY_clean_sbu_3, # of connection points: 4
#     Node 17, Type 0, BuildingBlock: QUQFOY_clean_sbu_3, # of connection points: 4
#     Node 18, Type 1, BuildingBlock: NAHDIM_clean_linker_0, # of connection points: 4
#     Node 19, Type 1, BuildingBlock: NAHDIM_clean_linker_0, # of connection points: 4
#     Node 20, Type 1, BuildingBlock: NAHDIM_clean_linker_0, # of connection points: 4
#     Node 21, Type 1, BuildingBlock: NAHDIM_clean_linker_0, # of connection points: 4
#     Node 22, Type 1, BuildingBlock: NAHDIM_clean_linker_0, # of connection points: 4
#     Node 23, Type 1, BuildingBlock: NAHDIM_clean_linker_0, # of connection points: 4
#     Node 24, Type 1, BuildingBlock: NAHDIM_clean_linker_0, # of connection points: 4
#     Node 25, Type 1, BuildingBlock: NAHDIM_clean_linker_0, # of connection points: 4
#     Node 26, Type 1, BuildingBlock: NAHDIM_clean_linker_0, # of connection points: 4
#     Node 27, Type 1, BuildingBlock: NAHDIM_clean_linker_0, # of connection points: 4
#     Node 28, Type 1, BuildingBlock: NAHDIM_clean_linker_0, # of connection points: 4
#     Node 29, Type 1, BuildingBlock: NAHDIM_clean_linker_0, # of connection points: 4
#     Node 30, Type 1, BuildingBlock: NAHDIM_clean_linker_0, # of connection points: 4
#     Node 31, Type 1, BuildingBlock: NAHDIM_clean_linker_0, # of connection points: 4
#     Node 32, Type 1, BuildingBlock: NAHDIM_clean_linker_0, # of connection points: 4
#     Node 33, Type 1, BuildingBlock: NAHDIM_clean_linker_0, # of connection points: 4
#     Node 34, Type 1, BuildingBlock: NAHDIM_clean_linker_0, # of connection points: 4
#     Node 35, Type 1, BuildingBlock: NAHDIM_clean_linker_0, # of connection points: 4
#     Edge 36, Type (0, 1), BuildingBlock: TEMPAE_clean_linker_10, # of connection points: 2
#     Edge 37, Type (0, 1), BuildingBlock: TEMPAE_clean_linker_10, # of connection points: 2
#     Edge 38, Type (0, 1), BuildingBlock: TEMPAE_clean_linker_10, # of connection points: 2
#     Edge 39, Type (0, 1), BuildingBlock: TEMPAE_clean_linker_10, # of connection points: 2
#     Edge 40, Type (0, 1), BuildingBlock: TEMPAE_clean_linker_10, # of connection points: 2
#     Edge 41, Type (0, 1), BuildingBlock: TEMPAE_clean_linker_10, # of connection points: 2
#     Edge 42, Type (0, 1), BuildingBlock: TEMPAE_clean_linker_10, # of connection points: 2
#     Edge 43, Type (0, 1), BuildingBlock: TEMPAE_clean_linker_10, # of connection points: 2
#     Edge 44, Type (0, 1), BuildingBlock: TEMPAE_clean_linker_10, # of connection points: 2
#     Edge 45, Type (0, 1), BuildingBlock: TEMPAE_clean_linker_10, # of connection points: 2
#     Edge 46, Type (0, 1), BuildingBlock: TEMPAE_clean_linker_10, # of connection points: 2
#     Edge 47, Type (0, 1), BuildingBlock: TEMPAE_clean_linker_10, # of connection points: 2
#     Edge 48, Type (0, 1), BuildingBlock: TEMPAE_clean_linker_10, # of connection points: 2
#     Edge 49, Type (0, 1), BuildingBlock: TEMPAE_clean_linker_10, # of connection points: 2
#     Edge 50, Type (0, 1), BuildingBlock: TEMPAE_clean_linker_10, # of connection points: 2
#     Edge 51, Type (0, 1), BuildingBlock: TEMPAE_clean_linker_10, # of connection points: 2
#     Edge 52, Type (0, 1), BuildingBlock: TEMPAE_clean_linker_10, # of connection points: 2
#     Edge 53, Type (0, 1), BuildingBlock: TEMPAE_clean_linker_10, # of connection points: 2
#     Edge 54, Type (0, 1), BuildingBlock: TEMPAE_clean_linker_10, # of connection points: 2
#     Edge 55, Type (0, 1), BuildingBlock: TEMPAE_clean_linker_10, # of connection points: 2
#     Edge 56, Type (0, 1), BuildingBlock: TEMPAE_clean_linker_10, # of connection points: 2
#     Edge 57, Type (0, 1), BuildingBlock: TEMPAE_clean_linker_10, # of connection points: 2
#     Edge 58, Type (0, 1), BuildingBlock: TEMPAE_clean_linker_10, # of connection points: 2
#     Edge 59, Type (0, 1), BuildingBlock: TEMPAE_clean_linker_10, # of connection points: 2
#     Edge 60, Type (0, 1), BuildingBlock: TEMPAE_clean_linker_10, # of connection points: 2
#     Edge 61, Type (0, 1), BuildingBlock: TEMPAE_clean_linker_10, # of connection points: 2
#     Edge 62, Type (0, 1), BuildingBlock: TEMPAE_clean_linker_10, # of connection points: 2
#     Edge 63, Type (0, 1), BuildingBlock: TEMPAE_clean_linker_10, # of connection points: 2
#     Edge 64, Type (0, 1), BuildingBlock: TEMPAE_clean_linker_10, # of connection points: 2
#     Edge 65, Type (0, 1), BuildingBlock: TEMPAE_clean_linker_10, # of connection points: 2
#     Edge 66, Type (0, 1), BuildingBlock: TEMPAE_clean_linker_10, # of connection points: 2
#     Edge 67, Type (0, 1), BuildingBlock: TEMPAE_clean_linker_10, # of connection points: 2
#     Edge 68, Type (0, 1), BuildingBlock: TEMPAE_clean_linker_10, # of connection points: 2
#     Edge 69, Type (0, 1), BuildingBlock: TEMPAE_clean_linker_10, # of connection points: 2
#     Edge 70, Type (0, 1), BuildingBlock: TEMPAE_clean_linker_10, # of connection points: 2
#     Edge 71, Type (0, 1), BuildingBlock: TEMPAE_clean_linker_10, # of connection points: 2
#     Edge 72, Type (0, 1), BuildingBlock: TEMPAE_clean_linker_10, # of connection points: 2
#     Edge 73, Type (0, 1), BuildingBlock: TEMPAE_clean_linker_10, # of connection points: 2
#     Edge 74, Type (0, 1), BuildingBlock: TEMPAE_clean_linker_10, # of connection points: 2
#     Edge 75, Type (0, 1), BuildingBlock: TEMPAE_clean_linker_10, # of connection points: 2
#     Edge 76, Type (0, 1), BuildingBlock: TEMPAE_clean_linker_10, # of connection points: 2
#     Edge 77, Type (0, 1), BuildingBlock: TEMPAE_clean_linker_10, # of connection points: 2
#     Edge 78, Type (0, 1), BuildingBlock: TEMPAE_clean_linker_10, # of connection points: 2
#     Edge 79, Type (0, 1), BuildingBlock: TEMPAE_clean_linker_10, # of connection points: 2
#     Edge 80, Type (0, 1), BuildingBlock: TEMPAE_clean_linker_10, # of connection points: 2
#     Edge 81, Type (0, 1), BuildingBlock: TEMPAE_clean_linker_10, # of connection points: 2
#     Edge 82, Type (0, 1), BuildingBlock: TEMPAE_clean_linker_10, # of connection points: 2
#     Edge 83, Type (0, 1), BuildingBlock: TEMPAE_clean_linker_10, # of connection points: 2
#     Edge 84, Type (0, 1), BuildingBlock: TEMPAE_clean_linker_10, # of connection points: 2
#     Edge 85, Type (0, 1), BuildingBlock: TEMPAE_clean_linker_10, # of connection points: 2
#     Edge 86, Type (0, 1), BuildingBlock: TEMPAE_clean_linker_10, # of connection points: 2
#     Edge 87, Type (0, 1), BuildingBlock: TEMPAE_clean_linker_10, # of connection points: 2
#     Edge 88, Type (0, 1), BuildingBlock: TEMPAE_clean_linker_10, # of connection points: 2
#     Edge 89, Type (0, 1), BuildingBlock: TEMPAE_clean_linker_10, # of connection points: 2
#     Edge 90, Type (0, 1), BuildingBlock: TEMPAE_clean_linker_10, # of connection points: 2
#     Edge 91, Type (0, 1), BuildingBlock: TEMPAE_clean_linker_10, # of connection points: 2
#     Edge 92, Type (0, 1), BuildingBlock: TEMPAE_clean_linker_10, # of connection points: 2
#     Edge 93, Type (0, 1), BuildingBlock: TEMPAE_clean_linker_10, # of connection points: 2
#     Edge 94, Type (0, 1), BuildingBlock: TEMPAE_clean_linker_10, # of connection points: 2
#     Edge 95, Type (0, 1), BuildingBlock: TEMPAE_clean_linker_10, # of connection points: 2
#     Edge 96, Type (0, 1), BuildingBlock: TEMPAE_clean_linker_10, # of connection points: 2
#     Edge 97, Type (0, 1), BuildingBlock: TEMPAE_clean_linker_10, # of connection points: 2
#     Edge 98, Type (0, 1), BuildingBlock: TEMPAE_clean_linker_10, # of connection points: 2
#     Edge 99, Type (0, 1), BuildingBlock: TEMPAE_clean_linker_10, # of connection points: 2
#     Edge 100, Type (0, 1), BuildingBlock: TEMPAE_clean_linker_10, # of connection points: 2
#     Edge 101, Type (0, 1), BuildingBlock: TEMPAE_clean_linker_10, # of connection points: 2
#     Edge 102, Type (0, 1), BuildingBlock: TEMPAE_clean_linker_10, # of connection points: 2
#     Edge 103, Type (0, 1), BuildingBlock: TEMPAE_clean_linker_10, # of connection points: 2
#     Edge 104, Type (0, 1), BuildingBlock: TEMPAE_clean_linker_10, # of connection points: 2
#     Edge 105, Type (0, 1), BuildingBlock: TEMPAE_clean_linker_10, # of connection points: 2
#     Edge 106, Type (0, 1), BuildingBlock: TEMPAE_clean_linker_10, # of connection points: 2
#     Edge 107, Type (0, 1), BuildingBlock: TEMPAE_clean_linker_10, # of connection points: 2
# Relax obj value: 0.030
# Max RMSD: 0.171
# Mean RMSD: 0.059
data_MOF--net-ptr--node1-QUQFOY_clean_sbu_3--node2-NAHDIM_clean_linker_0--edge1-TEMPAE_clean_linker_10
_symmetry_space_group_name_H-M    P1
_symmetry_Int_Tables_number       1
_symmetry_cell_setting            triclinic
loop_
_symmetry_equiv_pos_as_xyz
'x, y, z'
_cell_length_a     95.992563
_cell_length_b     96.084634
_cell_length_c     82.09381
_cell_angle_alpha  91.073181
_cell_angle_beta   89.853093
_cell_angle_gamma 120.72972
loop_
_atom_site_label
_atom_site_type_symbol
_atom_site_fract_x
_atom_site_fract_y
_atom_site_fract_z
_atom_type_partial_charge
C0 C 0.96851 0.3052 0.99529 0.0
O1 O 0.96068 0.31247 -0.00277 0.0
Cd2 Cd 0.97239 0.33942 0.00909 0.0
O3 O 0.98332 0.312 -0.00042 0.0
Cd4 Cd 0.00445 0.33803 0.0114 0.0
C5 C 0.00212 0.36 0.9811 0.0
O6 O 0.98932 0.34363 0.03209 0.0
O7 O 0.0132 0.36327 0.02566 0.0
O8 O 0.0119 0.32499 0.03128 0.0
C9 C 0.00094 0.35801 0.03485 0.0
O10 O 0.98943 0.35775 0.98837 0.0
C11 C 0.02614 0.32997 0.02626 0.0
O12 O 0.00965 0.35295 0.98563 0.0
O13 O 0.03052 0.33845 0.01348 0.0
C14 C 0.65513 0.68381 0.0318 0.0
O15 O 0.63999 0.67771 0.02974 0.0
Cd16 Cd 0.62362 0.65252 0.01528 0.0
O17 O 0.6623 0.67693 0.0256 0.0
Cd18 Cd 0.65581 0.65313 0.00805 0.0
C19 C 0.6319 0.62694 0.03639 0.0
O20 O 0.63652 0.65417 0.98983 0.0
O21 O 0.63617 0.63149 0.98961 0.0
O22 O 0.67853 0.66963 0.9906 0.0
C23 C 0.63148 0.64036 0.98326 0.0
O24 O 0.62155 0.63071 0.03201 0.0
C25 C 0.68636 0.66257 0.99343 0.0
O26 O 0.64616 0.63415 0.03057 0.0
O27 O 0.68001 0.65086 0.00324 0.0
C28 C 0.30484 0.96601 0.01377 0.0
O29 O 0.31022 0.95668 0.01038 0.0
Cd30 Cd 0.33714 0.9675 -0.00055 0.0
O31 O 0.3134 0.98103 0.01091 0.0
Cd32 Cd 0.33962 0.00066 -0.00059 0.0
C33 C 0.3599 0.9953 0.02934 0.0
O34 O 0.34257 0.98519 0.97701 0.0
O35 O 0.36443 0.00661 0.98587 0.0
O36 O 0.3264 0.00987 0.98138 0.0
C37 C 0.35755 0.99538 0.97517 0.0
O38 O 0.35646 0.98246 0.02131 0.0
C39 C 0.33278 0.02418 0.98712 0.0
O40 O 0.35407 0.00406 0.02525 0.0
O41 O 0.34261 0.0279 -0.00098 0.0
C42 C 0.95935 0.65217 0.99177 0.0
O43 O 0.95043 0.63832 -0.00218 0.0
Cd44 Cd 0.9629 0.62452 0.00965 0.0
O45 O 0.97463 0.65973 0.99385 0.0
Cd46 Cd 0.99569 0.65805 0.00925 0.0
C47 C 0.99228 0.6309 0.98111 0.0
O48 O 0.97976 0.6411 0.0317 0.0
O49 O 0.00335 0.64378 0.02836 0.0
O50 O -0.00035 0.68301 0.02036 0.0
C51 C 0.99055 0.63828 0.03676 0.0
O52 O 0.97909 0.62135 0.98833 0.0
C53 C 0.01483 0.69143 0.01828 0.0
O54 O 0.00081 0.64575 0.9855 0.0
O55 O 0.02162 0.68426 0.01183 0.0
C56 C 0.31883 0.35276 0.02675 0.0
O57 O 0.3254 0.36802 0.02823 0.0
Cd58 Cd 0.3507 0.38467 0.01405 0.0
O59 O 0.32542 0.34675 0.01793 0.0
Cd60 Cd 0.3481 0.35303 -8e-05 0.0
C61 C 0.37511 0.3721 0.03056 0.0
O62 O 0.34756 0.37497 0.98606 0.0
O63 O 0.36767 0.37163 0.98024 0.0
O64 O 0.32614 0.33027 0.98576 0.0
C65 C 0.35999 0.37887 0.97745 0.0
O66 O 0.37203 0.38343 0.02905 0.0
C67 C 0.33298 0.32203 0.98398 0.0
O68 O 0.36737 0.35903 0.02217 0.0
O69 O 0.3475 0.32846 0.98919 0.0
C70 C 0.69018 0.03082 0.9905 0.0
O71 O 0.68429 0.03983 0.99318 0.0
Cd72 Cd 0.65834 0.0287 0.00654 0.0
O73 O 0.68259 0.01618 0.99497 0.0
Cd74 Cd 0.65804 0.99593 0.00884 0.0
C75 C 0.63444 0.99751 0.97968 0.0
O76 O 0.65747 0.0138 0.03016 0.0
O77 O 0.63597 0.99011 0.02735 0.0
O78 O 0.67822 0.99107 0.0201 0.0
C79 C 0.64353 0.0034 0.0353 0.0
O80 O 0.63797 0.01093 0.98655 0.0
C81 C 0.66995 0.97574 0.01933 0.0
O82 O 0.64111 0.98966 0.98426 0.0
O83 O 0.65562 0.96934 0.01359 0.0
C84 C 0.6329 0.64427 0.31556 0.0
O85 O 0.62457 0.65113 0.31515 0.0
Cd86 Cd 0.63199 0.67613 0.32943 0.0
O87 O 0.64621 0.65069 0.32351 0.0
Cd88 Cd 0.6638 0.6751 0.34035 0.0
C89 C 0.66798 0.70188 0.31103 0.0
O90 O 0.64153 0.67407 0.35571 0.0
O91 O 0.66553 0.69391 0.36178 0.0
O92 O 0.67072 0.65836 0.35645 0.0
C93 C 0.65044 0.68652 0.36449 0.0
O94 O 0.65324 0.69759 0.3135 0.0
C95 C 0.68588 0.66681 0.3541 0.0
O96 O 0.67452 0.69513 0.31854 0.0
O97 O 0.69084 0.6792 0.34532 0.0
C98 C 0.32363 0.01746 0.37074 0.0
O99 O 0.30873 0.01292 0.36943 0.0
Cd100 Cd 0.28887 0.98744 0.35773 0.0
O101 O 0.3292 0.00895 0.36478 0.0
Cd102 Cd 0.31848 0.98355 0.34797 0.0
C103 C 0.29506 0.96043 0.37876 0.0
O104 O 0.29935 0.98675 0.33143 0.0
O105 O 0.29725 0.96334 0.32962 0.0
O106 O 0.34146 0.99558 0.32938 0.0
C107 C 0.29294 0.97295 0.32448 0.0
O108 O 0.28597 0.96622 0.37605 0.0
C109 C 0.34629 0.98585 0.33259 0.0
O110 O 0.30796 0.96512 0.37065 0.0
O111 O 0.33833 0.97521 0.34316 0.0
C112 C 0.98775 0.30277 0.35712 0.0
O113 O 0.99365 0.29357 0.3565 0.0
Cd114 Cd 0.01957 0.30115 0.34511 0.0
O115 O 0.99544 0.31689 0.35113 0.0
Cd116 Cd 0.02126 0.33365 0.33622 0.0
C117 C 0.045 0.33507 0.36764 0.0
O118 O 0.01948 0.31157 0.31875 0.0
O119 O 0.04105 0.33505 0.31658 0.0
O120 O 0.00652 0.3446 0.32195 0.0
C121 C 0.03274 0.32051 0.31155 0.0
O122 O 0.04043 0.32039 0.36411 0.0
C123 C 0.01833 0.35911 0.32237 0.0
O124 O 0.03923 0.34241 0.35995 0.0
O125 O 0.03113 0.36174 0.32962 0.0
C126 C 0.63124 0.96936 0.32146 0.0
O127 O 0.62474 0.95406 0.32079 0.0
Cd128 Cd 0.63466 0.94 0.33648 0.0
O129 O 0.64393 0.97803 0.33008 0.0
Cd130 Cd 0.66305 0.97488 0.34769 0.0
C131 C 0.67146 0.95399 0.31887 0.0
O132 O 0.64141 0.95331 0.36285 0.0
O133 O 0.66539 0.95839 0.36921 0.0
O134 O 0.66742 -0.00147 0.36382 0.0
C135 C 0.6503 0.95068 0.37212 0.0
O136 O 0.65746 0.94183 0.32144 0.0
C137 C 0.68246 0.00709 0.36094 0.0
O138 O 0.67602 0.96752 0.32607 0.0
O139 O 0.6886 0.00056 0.35221 0.0
C140 C 0.98312 0.68544 0.3555 0.0
O141 O 0.98863 0.70048 0.35775 0.0
Cd142 Cd 0.01477 0.72055 0.34785 0.0
O143 O 0.99131 0.6806 0.34756 0.0
Cd144 Cd 0.01734 0.69206 0.33293 0.0
C145 C 0.04007 0.71066 0.36684 0.0
O146 O 0.01604 0.71384 0.31962 0.0
O147 O 0.03866 0.71422 0.31719 0.0
O148 O 0.00449 0.67194 0.31104 0.0
C149 C 0.02985 0.7199 0.31301 0.0
O150 O 0.03514 0.72065 0.36582 0.0
C151 C 0.01237 0.66486 0.31354 0.0
O152 O 0.035 0.69878 0.35679 0.0
O153 O 0.02267 0.67042 0.32513 0.0
C154 C 0.3466 0.36104 0.31896 0.0
O155 O 0.34024 0.36981 0.31898 0.0
Cd156 Cd 0.31569 0.36149 0.33401 0.0
O157 O 0.34004 0.34791 0.32682 0.0
Cd158 Cd 0.31685 0.33086 0.34461 0.0
C159 C 0.28983 0.32508 0.31492 0.0
O160 O 0.3196 0.35378 0.36071 0.0
O161 O 0.29842 0.33059 0.3656 0.0
O162 O 0.33813 0.32699 0.35519 0.0
C163 C 0.30716 0.3455 0.36935 0.0
O164 O 0.29373 0.33969 0.31789 0.0
C165 C 0.32925 0.31208 0.35824 0.0
O166 O 0.29703 0.3189 0.32221 0.0
O167 O 0.31419 0.3056 0.35519 0.0
C168 C 0.30314 0.98187 0.64721 0.0
O169 O 0.29457 0.98835 0.64541 0.0
Cd170 Cd 0.30109 0.01424 0.65673 0.0
O171 O 0.31654 0.98932 0.65504 0.0
Cd172 Cd 0.33323 0.01609 0.66904 0.0
C173 C 0.33581 0.03941 0.63674 0.0
O174 O 0.31069 0.01528 0.68404 0.0
O175 O 0.33428 0.03661 0.68788 0.0
O176 O 0.34406 0.00441 0.68804 0.0
C177 C 0.31941 0.02868 0.69153 0.0
O178 O 0.32093 0.03471 0.63884 0.0
C179 C 0.35877 0.01389 0.68427 0.0
O180 O 0.34282 0.03396 0.64551 0.0
O181 O 0.36145 0.0241 0.67332 0.0
C182 C 0.97154 0.33254 0.69094 0.0
O183 O 0.957 0.32218 0.68699 0.0
Cd184 Cd 0.94767 0.29916 0.66966 0.0
O185 O 0.98334 0.33113 0.68575 0.0
Cd186 Cd 0.98614 0.31144 0.66745 0.0
C187 C 0.96241 0.27946 0.69178 0.0
O188 O 0.96696 0.31085 0.64866 0.0
O189 O 0.97412 0.29372 0.64228 0.0
O190 O 0.01177 0.33408 0.6578 0.0
C191 C 0.96617 0.30045 0.63855 0.0
O192 O 0.95025 0.2797 0.68597 0.0
C193 C 0.01975 0.32691 0.65911 0.0
O194 O 0.97678 0.29012 0.68782 0.0
O195 O 0.01219 0.3127 0.66472 0.0
C196 C 0.65277 0.63893 0.69059 0.0
O197 O 0.65966 0.63082 0.6879 0.0
Cd198 Cd 0.68475 0.64143 0.67357 0.0
O199 O 0.65854 0.65306 0.68488 0.0
Cd200 Cd 0.68064 0.67231 0.66688 0.0
C201 C 0.70891 0.67743 0.69487 0.0
O202 O 0.68019 0.65158 0.64919 0.0
O203 O 0.6995 0.67588 0.64461 0.0
O204 O 0.65893 0.67478 0.65513 0.0
C205 C 0.69233 0.66096 0.6407 0.0
O206 O 0.70549 0.66317 0.69072 0.0
C207 C 0.66651 0.69012 0.65479 0.0
O208 O 0.70118 0.68365 0.68875 0.0
O209 O 0.68098 0.69752 0.66028 0.0
C210 C 0.29928 0.31659 0.64644 0.0
O211 O 0.29044 0.30141 0.64417 0.0
Cd212 Cd 0.29837 0.2841 0.65718 0.0
O213 O 0.312 0.32233 0.65522 0.0
Cd214 Cd 0.32788 0.31427 0.67189 0.0
C215 C 0.33529 0.29566 0.64047 0.0
O216 O 0.3047 0.29217 0.6857 0.0
O217 O 0.32799 0.29441 0.69005 0.0
O218 O 0.33055 0.33642 0.6887 0.0
C219 C 0.31309 0.28773 0.69357 0.0
O220 O 0.32041 0.28475 0.64157 0.0
C221 C 0.34588 0.34429 0.68963 0.0
O222 O 0.34116 0.30841 0.64943 0.0
O223 O 0.35321 0.33797 0.68259 0.0
C224 C 0.66341 0.03061 0.68543 0.0
O225 O 0.67236 0.04593 0.68524 0.0
Cd226 Cd 0.69722 0.05866 0.67003 0.0
O227 O 0.6674 0.02169 0.67751 0.0
Cd228 Cd 0.68814 0.02264 0.65927 0.0
C229 C 0.71722 0.04211 0.68853 0.0
O230 O 0.6896 0.04461 0.64421 0.0
O231 O 0.70645 0.03736 0.63638 0.0
O232 O 0.66432 -0.00071 0.64762 0.0
C233 C 0.70045 0.04631 0.63431 0.0
O234 O 0.71663 0.05476 0.68556 0.0
C235 C 0.67032 0.99021 0.64662 0.0
O236 O 0.70759 0.02863 0.68144 0.0
O237 O 0.68494 0.9963 0.65134 0.0
C238 C 0.00974 0.6956 0.64943 0.0
O239 O 0.00384 0.70472 0.64803 0.0
Cd240 Cd 0.97842 0.69788 0.66045 0.0
O241 O 0.00213 0.68255 0.65737 0.0
Cd242 Cd 0.97673 0.66721 0.67299 0.0
C243 C 0.95223 0.66236 0.64102 0.0
O244 O 0.97947 0.69055 0.68829 0.0
O245 O 0.95679 0.66813 0.69117 0.0
O246 O 0.99263 0.65992 0.69004 0.0
C247 C 0.96615 0.6827 0.69576 0.0
O248 O 0.95651 0.67716 0.6433 0.0
C249 C 0.9826 0.64479 0.68966 0.0
O250 O 0.95855 0.65601 0.64947 0.0
O251 O 0.96966 0.63996 0.68149 0.0
C252 C 0.20567 0.25469 0.05437 0.0
C253 C 0.20742 0.26928 0.06399 0.0
C254 C 0.19625 0.26984 0.09024 0.0
C255 C 0.20022 0.286 0.09166 0.0
C256 C 0.19105 0.29035 0.10154 0.0
C257 C 0.17731 0.27815 0.10973 0.0
C258 C 0.17335 0.2618 0.10831 0.0
C259 C 0.1832 0.25794 0.09891 0.0
C260 C 0.19587 0.30794 0.10291 0.0
C261 C 0.1585 0.24829 0.11628 0.0
C262 C 0.08051 0.29838 0.06545 0.0
C263 C 0.08794 0.29031 0.07421 0.0
C264 C 0.11413 0.29648 0.08521 0.0
C265 C 0.10819 0.28174 0.09328 0.0
C266 C 0.11826 0.2792 0.10364 0.0
C267 C 0.13447 0.29181 0.10636 0.0
C268 C 0.14044 0.3067 0.09831 0.0
C269 C 0.13022 0.30874 0.08768 0.0
C270 C 0.11156 0.26296 0.11155 0.0
C271 C 0.15764 0.32043 0.10087 0.0
C272 C 0.10192 0.2914 0.20886 0.0
C273 C 0.09886 0.27646 0.20226 0.0
C274 C 0.11129 0.27497 0.195 0.0
C275 C 0.12712 0.28866 0.19428 0.0
C276 C 0.13033 0.30362 0.20116 0.0
C277 C 0.11767 0.30477 0.20837 0.0
C278 C 0.10744 0.2588 0.18779 0.0
C279 C 0.14707 0.31844 0.2006 0.0
C280 C 0.21383 0.24857 0.21897 0.0
C281 C 0.21267 0.26375 0.22151 0.0
C282 C 0.18832 0.2649 0.21579 0.0
C283 C 0.17202 0.25426 0.21202 0.0
C284 C 0.16309 0.2593 0.20293 0.0
C285 C 0.17059 0.2756 0.19798 0.0
C286 C 0.18687 0.28668 0.20258 0.0
C287 C 0.19564 0.28117 0.21131 0.0
C288 C 0.14572 0.24713 0.19845 0.0
C289 C 0.19505 0.30428 0.19811 0.0
C290 C 0.16648 0.28236 0.11876 0.0
C291 C 0.15625 0.28559 0.10959 0.0
C292 C 0.14535 0.28919 0.11706 0.0
C293 C 0.1445 0.28952 0.13426 0.0
C294 C 0.13372 0.29316 0.14222 0.0
C295 C 0.13239 0.29264 0.1591 0.0
C296 C 0.14192 0.28864 0.16871 0.0
C297 C 0.14013 0.28737 0.18581 0.0
C298 C 0.14999 0.28365 0.19503 0.0
C299 C 0.16147 0.28083 0.1876 0.0
C300 C 0.16327 0.28181 0.17046 0.0
C301 C 0.1745 0.27881 0.16251 0.0
C302 C 0.17589 0.27941 0.14562 0.0
C303 C 0.1658 0.28261 0.13598 0.0
C304 C 0.15463 0.28601 0.14374 0.0
C305 C 0.15338 0.28564 0.16099 0.0
C306 C 0.06523 0.27998 0.20062 0.0
C307 C 0.07379 0.28218 0.21711 0.0
O308 O 0.20466 0.2654 0.08031 0.0
O309 O 0.19656 0.25908 0.22384 0.0
O310 O 0.09015 0.29358 0.21551 0.0
O311 O 0.10473 0.29934 0.07505 0.0
H312 H 0.19797 0.27167 0.05925 0.0
H313 H 0.19332 0.24407 0.05607 0.0
H314 H 0.21469 0.25155 0.05862 0.0
H315 H 0.20746 0.25733 0.04116 0.0
H316 H 0.21052 0.29521 0.08508 0.0
H317 H 0.18031 0.24549 0.0977 0.0
H318 H 0.18766 0.30997 0.09516 0.0
H319 H 0.2085 0.3161 0.09881 0.0
H320 H 0.19473 0.31127 0.11567 0.0
H321 H 0.15553 0.23618 0.11149 0.0
H322 H 0.14784 0.2497 0.11435 0.0
H323 H 0.16064 0.2487 0.12959 0.0
H324 H 0.08315 0.27741 0.07053 0.0
H325 H 0.0743 0.29035 0.05448 0.0
H326 H 0.09048 0.30838 0.05822 0.0
H327 H 0.06778 0.30268 0.08373 0.0
H328 H 0.09578 0.27208 0.09141 0.0
H329 H 0.13471 0.32005 0.0814 0.0
H330 H 0.1101 0.26427 0.1248 0.0
H331 H 0.12008 0.25843 0.11007 0.0
H332 H 0.09958 0.25375 0.10638 0.0
H333 H 0.15964 0.33194 0.09579 0.0
H334 H 0.16603 0.31729 0.09475 0.0
H335 H 0.16078 0.32234 0.11405 0.0
H336 H 0.0722 0.27035 0.22068 0.0
H337 H 0.08679 0.26594 0.20248 0.0
H338 H 0.11996 0.31624 0.21351 0.0
H339 H 0.10909 0.25977 0.17439 0.0
H340 H 0.09483 0.24905 0.19034 0.0
H341 H 0.11593 0.25527 0.19274 0.0
H342 H 0.14759 0.32921 0.20647 0.0
H343 H 0.15096 0.32123 0.18774 0.0
H344 H 0.15583 0.31601 0.20685 0.0
H345 H 0.21733 0.27091 0.2102 0.0
H346 H 0.22661 0.25195 0.2168 0.0
H347 H 0.20646 0.24155 0.20817 0.0
H348 H 0.20923 0.24073 0.22979 0.0
H349 H 0.16643 0.24179 0.21579 0.0
H350 H 0.20814 0.28957 0.21473 0.0
H351 H 0.14367 0.24746 0.18519 0.0
H352 H 0.13757 0.25031 0.20503 0.0
H353 H 0.14229 0.23459 0.20163 0.0
H354 H 0.20693 0.31173 0.2044 0.0
H355 H 0.18715 0.30926 0.20124 0.0
H356 H 0.19708 0.3054 0.18476 0.0
H357 H 0.15662 0.28509 0.09638 0.0
H358 H 0.12604 0.29625 0.13545 0.0
H359 H 0.12371 0.29532 0.16453 0.0
H360 H 0.14838 0.28249 0.20813 0.0
H361 H 0.18234 0.2759 0.16923 0.0
H362 H 0.18482 0.27709 0.1402 0.0
H363 H 0.05266 0.26945 0.20089 0.0
H364 H 0.07162 0.27754 0.19071 0.0
H365 H 0.06506 0.29111 0.19756 0.0
C366 C 0.74498 0.93765 0.06894 0.0
C367 C 0.72732 0.92555 0.07314 0.0
C368 C 0.72347 0.91296 0.09923 0.0
C369 C 0.70804 0.90162 0.10468 0.0
C370 C 0.70575 0.88886 0.11455 0.0
C371 C 0.71929 0.88765 0.11912 0.0
C372 C 0.73497 0.8993 0.11377 0.0
C373 C 0.73688 0.91191 0.1039 0.0
C374 C 0.68888 0.87661 0.11999 0.0
C375 C 0.74967 0.89838 0.11844 0.0
C376 C 0.69494 0.7707 0.07258 0.0
C377 C 0.70309 0.78745 0.07948 0.0
C378 C 0.69876 0.80318 0.10049 0.0
C379 C 0.7148 0.81629 0.10078 0.0
C380 C 0.71909 0.83027 0.11019 0.0
C381 C 0.70705 0.83126 0.11925 0.0
C382 C 0.69086 0.81813 0.11884 0.0
C383 C 0.687 0.80415 0.10964 0.0
C384 C 0.7365 0.84399 0.11046 0.0
C385 C 0.67762 0.81889 0.12802 0.0
C386 C 0.71783 0.80926 0.22055 0.0
C387 C 0.73297 0.82302 0.21731 0.0
C388 C 0.73401 0.83669 0.2102 0.0
C389 C 0.71965 0.8368 0.20665 0.0
C390 C 0.70443 0.82332 0.21068 0.0
C391 C 0.70374 0.80966 0.21741 0.0
C392 C 0.75045 0.85087 0.2061 0.0
C393 C 0.68887 0.82312 0.20739 0.0
C394 C 0.75201 0.96496 0.22449 0.0
C395 C 0.73837 0.9475 0.22698 0.0
C396 C 0.73985 0.92306 0.2226 0.0
C397 C 0.75128 0.91856 0.21918 0.0
C398 C 0.74678 0.9038 0.21121 0.0
C399 C 0.73031 0.89305 0.20704 0.0
C400 C 0.71852 0.89715 0.21132 0.0
C401 C 0.72344 0.91221 0.21893 0.0
C402 C 0.75971 0.89986 0.20699 0.0
C403 C 0.70079 0.88576 0.2076 0.0
C404 C 0.71702 0.87386 0.12894 0.0
C405 C 0.713 0.85945 0.12065 0.0
C406 C 0.71134 0.84613 0.12892 0.0
C407 C 0.71378 0.84714 0.14598 0.0
C408 C 0.71276 0.83415 0.15459 0.0
C409 C 0.71501 0.83519 0.17139 0.0
C410 C 0.71831 0.84924 0.18026 0.0
C411 C 0.72049 0.85034 0.19737 0.0
C412 C 0.72402 0.86459 0.20579 0.0
C413 C 0.72561 0.87794 0.19753 0.0
C414 C 0.72343 0.87703 0.18041 0.0
C415 C 0.72512 0.89026 0.17165 0.0
C416 C 0.72293 0.88924 0.15482 0.0
C417 C 0.71912 0.875 0.14606 0.0
C418 C 0.71748 0.86156 0.15461 0.0
C419 C 0.71966 0.86259 0.17178 0.0
C420 C 0.73596 0.78904 0.21638 0.0
C421 C 0.72823 0.79242 0.23123 0.0
O422 O 0.72539 0.92524 0.08989 0.0
O423 O 0.74512 0.93793 0.22941 0.0
O424 O 0.71614 0.79529 0.22631 0.0
O425 O 0.69412 0.78943 0.09158 0.0
H426 H 0.72426 0.91335 0.06838 0.0
H427 H 0.75308 0.93381 0.07425 0.0
H428 H 0.74863 0.94993 0.0738 0.0
H429 H 0.74666 0.93822 0.05552 0.0
H430 H 0.69781 0.90273 0.10105 0.0
H431 H 0.74883 0.92099 0.09987 0.0
H432 H 0.68532 0.86454 0.11463 0.0
H433 H 0.67978 0.87984 0.11627 0.0
H434 H 0.68865 0.87557 0.13345 0.0
H435 H 0.76094 0.90806 0.11281 0.0
H436 H 0.74791 0.88642 0.11465 0.0
H437 H 0.75125 0.89949 0.13189 0.0
H438 H 0.70785 0.79726 0.07034 0.0
H439 H 0.71044 0.76235 0.07906 0.0
H440 H 0.69224 0.77195 0.05953 0.0
H441 H 0.68191 0.76457 0.07652 0.0
H442 H 0.72404 0.81565 0.0938 0.0
H443 H 0.67467 0.79396 0.10933 0.0
H444 H 0.73739 0.85457 0.10425 0.0
H445 H 0.74471 0.84064 0.10426 0.0
H446 H 0.74075 0.84779 0.12323 0.0
H447 H 0.6654 0.80844 0.12498 0.0
H448 H 0.67782 0.83026 0.12523 0.0
H449 H 0.67971 0.81896 0.14131 0.0
H450 H 0.73799 0.80325 0.23783 0.0
H451 H 0.74405 0.82312 0.21992 0.0
H452 H 0.69211 0.79908 0.22008 0.0
H453 H 0.75083 0.85381 0.19303 0.0
H454 H 0.7604 0.84849 0.20864 0.0
H455 H 0.75265 0.86165 0.21338 0.0
H456 H 0.67831 0.81281 0.2133 0.0
H457 H 0.68657 0.82213 0.19406 0.0
H458 H 0.68991 0.83461 0.21182 0.0
H459 H 0.73093 0.94359 0.21558 0.0
H460 H 0.74692 0.97287 0.22226 0.0
H461 H 0.75931 0.96549 0.21374 0.0
H462 H 0.76012 0.96965 0.23536 0.0
H463 H 0.76387 0.92694 0.22231 0.0
H464 H 0.71447 0.91544 0.22205 0.0
H465 H 0.75877 0.89622 0.19393 0.0
H466 H 0.75789 0.88949 0.21433 0.0
H467 H 0.77212 0.91024 0.20946 0.0
H468 H 0.69297 0.88971 0.21365 0.0
H469 H 0.69703 0.87335 0.21158 0.0
H470 H 0.69872 0.88516 0.19425 0.0
H471 H 0.71128 0.85864 0.10753 0.0
H472 H 0.71024 0.82303 0.14844 0.0
H473 H 0.7141 0.82479 0.1773 0.0
H474 H 0.72581 0.86539 0.2189 0.0
H475 H 0.72814 0.90158 0.17769 0.0
H476 H 0.7243 0.89977 0.14874 0.0
H477 H 0.72653 0.7802 0.20779 0.0
H478 H 0.74383 0.78435 0.22033 0.0
H479 H 0.74362 0.80032 0.20961 0.0
C480 C 0.22171 0.92159 0.06141 0.0
C481 C 0.20602 0.91407 0.07014 0.0
C482 C 0.19453 0.90276 0.09636 0.0
C483 C 0.18145 0.90541 0.09603 0.0
C484 C 0.1682 0.89697 0.10639 0.0
C485 C 0.16778 0.88525 0.1169 0.0
C486 C 0.18107 0.8827 0.11737 0.0
C487 C 0.19448 0.89185 0.10737 0.0
C488 C 0.1545 0.90037 0.10584 0.0
C489 C 0.18094 0.87 0.12803 0.0
C490 C 0.05161 0.79961 0.08332 0.0
C491 C 0.06642 0.79952 0.07639 0.0
C492 C 0.08782 0.81258 0.09747 0.0
C493 C 0.09768 0.80988 0.10781 0.0
C494 C 0.11007 0.82255 0.11704 0.0
C495 C 0.11226 0.83825 0.11629 0.0
C496 C 0.10223 0.84108 0.10594 0.0
C497 C 0.09023 0.82825 0.09645 0.0
C498 C 0.12087 0.81913 0.12749 0.0
C499 C 0.10421 0.85766 0.10486 0.0
C500 C 0.078 0.82473 0.21922 0.0
C501 C 0.08864 0.81954 0.21425 0.0
C502 C 0.10335 0.83025 0.20668 0.0
C503 C 0.1073 0.84635 0.20379 0.0
C504 C 0.09681 0.85171 0.20933 0.0
C505 C 0.0824 0.84085 0.21721 0.0
C506 C 0.11454 0.82428 0.20157 0.0
C507 C 0.10066 0.86881 0.20667 0.0
C508 C 0.21407 0.95635 0.2234 0.0
C509 C 0.20863 0.9428 0.23584 0.0
C510 C 0.19172 0.917 0.22094 0.0
C511 C 0.19058 0.90238 0.21637 0.0
C512 C 0.17671 0.89002 0.20843 0.0
C513 C 0.16381 0.89254 0.20467 0.0
C514 C 0.16476 0.90723 0.20941 0.0
C515 C 0.17865 0.91928 0.21761 0.0
C516 C 0.17599 0.87439 0.20378 0.0
C517 C 0.15124 0.91033 0.20549 0.0
C518 C 0.15295 0.87483 0.12639 0.0
C519 C 0.1397 0.86234 0.11795 0.0
C520 C 0.12538 0.85177 0.12597 0.0
C521 C 0.12414 0.8536 0.14294 0.0
C522 C 0.10978 0.84339 0.15135 0.0
C523 C 0.10896 0.84478 0.16817 0.0
C524 C 0.1225 0.85637 0.17725 0.0
C525 C 0.12204 0.85742 0.19445 0.0
C526 C 0.13568 0.86923 0.20304 0.0
C527 C 0.14977 0.88024 0.19489 0.0
C528 C 0.15043 0.87943 0.17772 0.0
C529 C 0.16432 0.89051 0.16912 0.0
C530 C 0.16507 0.88925 0.15227 0.0
C531 C 0.15202 0.87678 0.14339 0.0
C532 C 0.13765 0.86592 0.15173 0.0
C533 C 0.13685 0.86726 0.16891 0.0
C534 C 0.03635 0.79491 0.21935 0.0
C535 C 0.0535 0.79825 0.22245 0.0
O536 O 0.20725 0.91037 0.08612 0.0
O537 O 0.20571 0.92857 0.22822 0.0
O538 O 0.06348 0.8146 0.22612 0.0
O539 O 0.07613 0.79965 0.08892 0.0
H540 H 0.19553 0.9039 0.06345 0.0
H541 H 0.21996 0.91251 0.05156 0.0
H542 H 0.2302 0.9194 0.0689 0.0
H543 H 0.22632 0.94488 0.05635 0.0
H544 H 0.18156 0.9141 0.08776 0.0
H545 H 0.20471 0.88999 0.10758 0.0
H546 H 0.14407 0.89033 0.09915 0.0
H547 H 0.15803 0.91185 0.09957 0.0
H548 H 0.15042 0.90107 0.11835 0.0
H549 H 0.19106 0.86791 0.12517 0.0
H550 H 0.16931 0.85834 0.12657 0.0
H551 H 0.18209 0.87391 0.141 0.0
H552 H 0.07347 0.81032 0.06868 0.0
H553 H 0.04375 0.79931 0.07324 0.0
H554 H 0.05538 0.81071 0.09081 0.0
H555 H 0.04443 0.78895 0.09112 0.0
H556 H 0.09574 0.79776 0.10846 0.0
H557 H 0.08276 0.83057 0.08844 0.0
H558 H 0.11815 0.81978 0.14053 0.0
H559 H 0.13381 0.82836 0.12555 0.0
H560 H 0.11909 0.80694 0.12487 0.0
H561 H 0.09402 0.85736 0.09815 0.0
H562 H 0.11564 0.86582 0.09843 0.0
H563 H 0.10506 0.8629 0.11725 0.0
H564 H 0.05746 0.79492 0.21099 0.0
H565 H 0.08552 0.80718 0.21637 0.0
H566 H 0.0742 0.84477 0.22138 0.0
H567 H 0.1142 0.82285 0.18811 0.0
H568 H 0.11103 0.81242 0.20698 0.0
H569 H 0.12723 0.83322 0.20522 0.0
H570 H 0.09046 0.87056 0.21017 0.0
H571 H 0.10361 0.87202 0.19368 0.0
H572 H 0.11145 0.87731 0.21408 0.0
H573 H 0.19737 0.94104 0.24167 0.0
H574 H 0.2039 0.95379 0.2151 0.0
H575 H 0.21806 0.96812 0.22974 0.0
H576 H 0.22413 0.95741 0.21578 0.0
H577 H 0.20067 0.90069 0.21903 0.0
H578 H 0.17926 0.93048 0.22105 0.0
H579 H 0.17646 0.87343 0.19031 0.0
H580 H 0.16437 0.86389 0.20784 0.0
H581 H 0.18618 0.87362 0.20915 0.0
H582 H 0.1541 0.92265 0.20943 0.0
H583 H 0.13999 0.90129 0.21164 0.0
H584 H 0.14878 0.90888 0.19217 0.0
H585 H 0.14062 0.86069 0.10496 0.0
H586 H 0.09905 0.83413 0.14501 0.0
H587 H 0.09762 0.83651 0.17397 0.0
H588 H 0.1353 0.86992 0.21623 0.0
H589 H 0.17483 0.90023 0.17532 0.0
H590 H 0.17609 0.89805 0.14631 0.0
H591 H 0.03159 0.79787 0.23042 0.0
H592 H 0.02808 0.78198 0.21588 0.0
H593 H 0.03647 0.80247 0.20921 0.0
C594 C 0.28835 0.10221 0.95438 0.0
C595 C 0.28788 0.09032 0.94136 0.0
C596 C 0.29082 0.10594 0.91682 0.0
C597 C 0.27467 0.10227 0.9157 0.0
C598 C 0.27029 0.11069 0.90504 0.0
C599 C 0.28231 0.1232 0.89551 0.0
C600 C 0.29853 0.12673 0.89641 0.0
C601 C 0.30249 0.11784 0.90686 0.0
C602 C 0.25283 0.10643 0.90421 0.0
C603 C 0.31178 0.14019 0.88669 0.0
C604 C 0.25224 0.20994 0.92383 0.0
C605 C 0.26793 0.21131 0.93012 0.0
C606 C 0.27572 0.1968 0.91046 0.0
C607 C 0.28833 0.19896 0.90032 0.0
C608 C 0.28811 0.18577 0.89253 0.0
C609 C 0.27451 0.17003 0.89439 0.0
C610 C 0.2617 0.1677 0.90473 0.0
C611 C 0.26253 0.1811 0.91287 0.0
C612 C 0.3024 0.18876 0.88222 0.0
C613 C 0.24704 0.15109 0.90703 0.0
C614 C 0.25898 0.18429 0.79086 0.0
C615 C 0.2746 0.18851 0.79605 0.0
C616 C 0.27726 0.17727 0.80406 0.0
C617 C 0.264 0.16155 0.80699 0.0
C618 C 0.24837 0.1571 0.8012 0.0
C619 C 0.24611 0.16851 0.79302 0.0
C620 C 0.29419 0.18226 0.80958 0.0
C621 C 0.23399 0.14044 0.80402 0.0
C622 C 0.27089 0.05699 0.79864 0.0
C623 C 0.27314 0.06555 0.78235 0.0
C624 C 0.27963 0.09281 0.7917 0.0
C625 C 0.29221 0.10883 0.79388 0.0
C626 C 0.2896 0.12041 0.80167 0.0
C627 C 0.27393 0.11581 0.80734 0.0
C628 C 0.26097 0.09977 0.80467 0.0
C629 C 0.26394 0.0884 0.79692 0.0
C630 C 0.30365 0.13746 0.80418 0.0
C631 C 0.24407 0.09456 0.81039 0.0
C632 C 0.27815 0.13337 0.88561 0.0
C633 C 0.27721 0.14579 0.89371 0.0
C634 C 0.2737 0.15614 0.88529 0.0
C635 C 0.27083 0.154 0.86829 0.0
C636 C 0.26677 0.16389 0.85952 0.0
C637 C 0.26505 0.16244 0.84266 0.0
C638 C 0.26726 0.151 0.83392 0.0
C639 C 0.26639 0.15001 0.8167 0.0
C640 C 0.26838 0.13831 0.8084 0.0
C641 C 0.27132 0.12755 0.81687 0.0
C642 C 0.27241 0.12847 0.83408 0.0
C643 C 0.27548 0.11792 0.84298 0.0
C644 C 0.27701 0.11925 0.85989 0.0
C645 C 0.27579 0.13134 0.86852 0.0
C646 C 0.27227 0.14182 0.85983 0.0
C647 C 0.27053 0.14035 0.84261 0.0
C648 C 0.24988 0.21477 0.79313 0.0
C649 C 0.26306 0.21138 0.78745 0.0
O650 O 0.29576 0.09855 0.9274 0.0
O651 O 0.28332 0.08209 0.78486 0.0
O652 O 0.25592 0.19502 0.78354 0.0
O653 O 0.27675 0.21027 0.91729 0.0
H654 H 0.27507 0.08115 0.93835 0.0
H655 H 0.28196 0.10833 0.94997 0.0
H656 H 0.30109 0.11159 0.95741 0.0
H657 H 0.28223 0.09569 0.96564 0.0
H658 H 0.2654 0.09294 0.92311 0.0
H659 H 0.31489 0.12053 0.90773 0.0
H660 H 0.25172 0.11638 0.90991 0.0
H661 H 0.2446 0.09504 0.91062 0.0
H662 H 0.24879 0.1051 0.89131 0.0
H663 H 0.32396 0.14223 0.88975 0.0
H664 H 0.31181 0.15164 0.88896 0.0
H665 H 0.30947 0.13719 0.87349 0.0
H666 H 0.26486 0.20141 0.93883 0.0
H667 H 0.24534 0.21106 0.93415 0.0
H668 H 0.24442 0.19804 0.91767 0.0
H669 H 0.25493 0.21957 0.91496 0.0
H670 H 0.29849 0.21112 0.89864 0.0
H671 H 0.25272 0.17923 0.92077 0.0
H672 H 0.29918 0.18811 0.86915 0.0
H673 H 0.30568 0.1794 0.88434 0.0
H674 H 0.31321 0.20089 0.88479 0.0
H675 H 0.23731 0.15155 0.91395 0.0
H676 H 0.25065 0.14351 0.91378 0.0
H677 H 0.24208 0.14506 0.89502 0.0
H678 H 0.27176 0.21481 0.79781 0.0
H679 H 0.28473 0.20052 0.79376 0.0
H680 H 0.23416 0.16531 0.7887 0.0
H681 H 0.29485 0.18306 0.82309 0.0
H682 H 0.30342 0.19419 0.80473 0.0
H683 H 0.29724 0.17302 0.80563 0.0
H684 H 0.22252 0.13905 0.79921 0.0
H685 H 0.23262 0.13798 0.81727 0.0
H686 H 0.23604 0.1312 0.79801 0.0
H687 H 0.26112 0.06291 0.7778 0.0
H688 H 0.261 0.04413 0.79762 0.0
H689 H 0.26742 0.06275 0.8084 0.0
H690 H 0.28235 0.0577 0.80246 0.0
H691 H 0.30423 0.11216 0.78972 0.0
H692 H 0.254 0.07609 0.79529 0.0
H693 H 0.30541 0.14061 0.81739 0.0
H694 H 0.30095 0.1461 0.79821 0.0
H695 H 0.31513 0.13907 0.79915 0.0
H696 H 0.23503 0.08209 0.80614 0.0
H697 H 0.24036 0.10305 0.80594 0.0
H698 H 0.24395 0.095 0.82391 0.0
H699 H 0.27957 0.14763 0.90673 0.0
H700 H 0.26505 0.173 0.86559 0.0
H701 H 0.26212 0.17052 0.83656 0.0
H702 H 0.26783 0.13768 0.79519 0.0
H703 H 0.27685 0.10856 0.83698 0.0
H704 H 0.27942 0.11084 0.86609 0.0
H705 H 0.25527 0.22776 0.79663 0.0
H706 H 0.24368 0.20739 0.80394 0.0
H707 H 0.24072 0.21163 0.78332 0.0
C708 C 0.80386 0.05499 0.95202 0.0
C709 C 0.80034 0.06694 0.94362 0.0
C710 C 0.8097 0.07811 0.91699 0.0
C711 C 0.80605 0.09044 0.91627 0.0
C712 C 0.81499 0.10381 0.90626 0.0
C713 C 0.8282 0.10505 0.89725 0.0
C714 C 0.83186 0.09252 0.89805 0.0
C715 C 0.82223 0.07898 0.90759 0.0
C716 C 0.81046 0.11668 0.9056 0.0
C717 C 0.84618 0.09354 0.88923 0.0
C718 C 0.92482 0.22789 0.93739 0.0
C719 C 0.91797 0.21373 0.92593 0.0
C720 C 0.89176 0.19084 0.91735 0.0
C721 C 0.89777 0.18144 0.9105 0.0
C722 C 0.88758 0.16724 0.90146 0.0
C723 C 0.87123 0.16271 0.89868 0.0
C724 C 0.86516 0.17215 0.90561 0.0
C725 C 0.87547 0.18594 0.91509 0.0
C726 C 0.89435 0.15714 0.89485 0.0
C727 C 0.84781 0.16774 0.90295 0.0
C728 C 0.90503 0.18673 0.79602 0.0
C729 C 0.90662 0.17403 0.80214 0.0
C730 C 0.89352 0.16078 0.80964 0.0
C731 C 0.87851 0.16017 0.811 0.0
C732 C 0.8768 0.1728 0.80468 0.0
C733 C 0.89013 0.18596 0.79733 0.0
C734 C 0.89579 0.14756 0.81639 0.0
C735 C 0.86099 0.17252 0.80597 0.0
C736 C 0.77722 0.03394 0.79383 0.0
C737 C 0.78257 0.05108 0.78835 0.0
C738 C 0.80963 0.07457 0.79319 0.0
C739 C 0.82527 0.07826 0.79735 0.0
C740 C 0.83613 0.09291 0.80534 0.0
C741 C 0.83128 0.10427 0.80894 0.0
C742 C 0.8158 0.10103 0.80387 0.0
C743 C 0.80512 0.08619 0.79604 0.0
C744 C 0.85263 0.09607 0.81034 0.0
C745 C 0.81045 0.11311 0.80707 0.0
C746 C 0.83874 0.11983 0.8878 0.0
C747 C 0.84943 0.13398 0.89652 0.0
C748 C 0.86043 0.14811 0.88855 0.0
C749 C 0.86116 0.14811 0.87134 0.0
C750 C 0.87237 0.16197 0.86291 0.0
C751 C 0.87363 0.16156 0.84605 0.0
C752 C 0.86337 0.14741 0.8369 0.0
C753 C 0.86493 0.14669 0.81982 0.0
C754 C 0.85416 0.13264 0.81101 0.0
C755 C 0.84199 0.11904 0.81888 0.0
C756 C 0.8406 0.11935 0.83604 0.0
C757 C 0.82881 0.10575 0.84442 0.0
C758 C 0.82795 0.10597 0.86134 0.0
C759 C 0.83891 0.11976 0.87056 0.0
C760 C 0.85043 0.13384 0.86233 0.0
C761 C 0.85138 0.13357 0.84507 0.0
C762 C 0.94418 0.20958 0.7997 0.0
C763 C 0.93267 0.20269 0.78497 0.0
O764 O 0.80144 0.06539 0.92692 0.0
O765 O 0.79927 0.0597 0.78659 0.0
O766 O 0.91748 0.20002 0.78904 0.0
O767 O 0.9012 0.20457 0.92626 0.0
H768 H 0.80979 0.07935 0.94788 0.0
H769 H 0.81613 0.05748 0.94864 0.0
H770 H 0.79482 0.04234 0.94824 0.0
H771 H 0.80349 0.05624 0.96547 0.0
H772 H 0.79617 0.08954 0.92349 0.0
H773 H 0.82486 0.0693 0.9083 0.0
H774 H 0.81898 0.12715 0.91342 0.0
H775 H 0.79797 0.11221 0.91009 0.0
H776 H 0.81136 0.12102 0.89298 0.0
H777 H 0.84937 0.08474 0.89392 0.0
H778 H 0.85698 0.1059 0.89042 0.0
H779 H 0.8432 0.09081 0.87609 0.0
H780 H 0.92284 0.21637 0.91329 0.0
H781 H 0.93809 0.22292 0.95408 0.0
H782 H 0.9145 0.22962 0.94115 0.0
H783 H 0.93062 0.23876 0.92934 0.0
H784 H 0.91033 0.18499 0.91235 0.0
H785 H 0.87093 0.19321 0.92052 0.0
H786 H 0.88582 0.1441 0.89707 0.0
H787 H 0.90627 0.1607 0.90043 0.0
H788 H 0.89596 0.15869 0.88149 0.0
H789 H 0.84557 0.1774 0.90741 0.0
H790 H 0.83965 0.15647 0.90953 0.0
H791 H 0.84459 0.16536 0.8898 0.0
H792 H 0.93173 0.19111 0.78094 0.0
H793 H 0.91806 0.17443 0.80136 0.0
H794 H 0.889 0.1958 0.79261 0.0
H795 H 0.89382 0.14687 0.82975 0.0
H796 H 0.90808 0.14959 0.81399 0.0
H797 H 0.88666 0.13569 0.81092 0.0
H798 H 0.86144 0.183 0.79994 0.0
H799 H 0.85796 0.1727 0.81901 0.0
H800 H 0.85108 0.16115 0.80035 0.0
H801 H 0.77883 0.05653 0.79828 0.0
H802 H 0.76382 0.02673 0.79504 0.0
H803 H 0.78275 0.03452 0.80588 0.0
H804 H 0.7811 0.02769 0.78501 0.0
H805 H 0.82874 0.06933 0.79481 0.0
H806 H 0.79326 0.0837 0.79221 0.0
H807 H 0.85428 0.09821 0.82372 0.0
H808 H 0.86216 0.10718 0.8044 0.0
H809 H 0.85443 0.08585 0.80695 0.0
H810 H 0.79865 0.10943 0.80111 0.0
H811 H 0.81974 0.12519 0.80261 0.0
H812 H 0.80926 0.11434 0.8204 0.0
H813 H 0.8493 0.13396 0.90974 0.0
H814 H 0.88054 0.17323 0.86927 0.0
H815 H 0.88275 0.17249 0.84027 0.0
H816 H 0.85546 0.13216 0.79791 0.0
H817 H 0.82021 0.09469 0.83802 0.0
H818 H 0.81867 0.09514 0.86714 0.0
H819 H 0.95646 0.21213 0.79627 0.0
H820 H 0.93974 0.20074 0.80971 0.0
H821 H 0.94508 0.22093 0.80438 0.0
C822 C 0.80955 0.71039 0.95703 0.0
C823 C 0.79814 0.71138 0.94467 0.0
C824 C 0.81073 0.70895 0.91946 0.0
C825 C 0.82361 0.72508 0.91889 0.0
C826 C 0.83662 0.72951 0.90825 0.0
C827 C 0.83691 0.71753 0.89819 0.0
C828 C 0.82381 0.70134 0.89855 0.0
C829 C 0.81075 0.69736 0.90898 0.0
C830 C 0.85025 0.74693 0.908 0.0
C831 C 0.82383 0.68812 0.88833 0.0
C832 C 0.91957 0.73408 0.96138 0.0
C833 C 0.91701 0.72118 0.94853 0.0
C834 C 0.91422 0.72802 0.92117 0.0
C835 C 0.90246 0.71317 0.91426 0.0
C836 C 0.89144 0.71244 0.90262 0.0
C837 C 0.89221 0.72691 0.89792 0.0
C838 C 0.90472 0.74201 0.90416 0.0
C839 C 0.91573 0.74238 0.91564 0.0
C840 C 0.87852 0.69616 0.89591 0.0
C841 C 0.9059 0.75766 0.89937 0.0
C842 C 0.9242 0.74178 0.79496 0.0
C843 C 0.91257 0.72577 0.79877 0.0
C844 C 0.89789 0.72218 0.80612 0.0
C845 C 0.89496 0.7349 0.80991 0.0
C846 C 0.9064 0.75092 0.80543 0.0
C847 C 0.92078 0.75409 0.79778 0.0
C848 C 0.88571 0.70487 0.81018 0.0
C849 C 0.90363 0.76477 0.80909 0.0
C850 C 0.79321 0.74426 0.79336 0.0
C851 C 0.79733 0.73537 0.78022 0.0
C852 C 0.81279 0.72503 0.79433 0.0
C853 C 0.8126 0.71094 0.79866 0.0
C854 C 0.82593 0.71163 0.80648 0.0
C855 C 0.83969 0.72688 0.8104 0.0
C856 C 0.84007 0.74122 0.80594 0.0
C857 C 0.82669 0.74016 0.79781 0.0
C858 C 0.8252 0.69608 0.81079 0.0
C859 C 0.85452 0.75769 0.80999 0.0
C860 C 0.85147 0.72164 0.88837 0.0
C861 C 0.86485 0.72297 0.89653 0.0
C862 C 0.87879 0.72603 0.88816 0.0
C863 C 0.87944 0.72766 0.87107 0.0
C864 C 0.89315 0.73045 0.86223 0.0
C865 C 0.89359 0.73191 0.84538 0.0
C866 C 0.88026 0.73045 0.83669 0.0
C867 C 0.88051 0.73167 0.81953 0.0
C868 C 0.86709 0.73029 0.81131 0.0
C869 C 0.85339 0.72787 0.8198 0.0
C870 C 0.85294 0.72664 0.83697 0.0
C871 C 0.83944 0.72439 0.84593 0.0
C872 C 0.83897 0.72287 0.86277 0.0
C873 C 0.852 0.7236 0.87131 0.0
C874 C 0.86595 0.7264 0.86261 0.0
C875 C 0.86638 0.72781 0.84541 0.0
C876 C 0.96509 0.75136 0.7956 0.0
C877 C 0.94758 0.73831 0.79163 0.0
O878 O 0.79821 0.70397 0.93002 0.0
O879 O 0.79927 0.72339 0.7871 0.0
O880 O 0.9388 0.74581 0.78855 0.0
O881 O 0.92351 0.72859 0.93385 0.0
H882 H 0.8021 0.72429 0.94262 0.0
H883 H 0.82219 0.71687 0.95253 0.0
H884 H 0.80584 0.69755 0.95908 0.0
H885 H 0.80937 0.71613 0.96884 0.0
H886 H 0.82366 0.73428 0.92671 0.0
H887 H 0.80072 0.68497 0.90945 0.0
H888 H 0.86117 0.748 0.91387 0.0
H889 H 0.84711 0.75515 0.91458 0.0
H890 H 0.85343 0.751 0.89524 0.0
H891 H 0.81346 0.67593 0.89115 0.0
H892 H 0.83528 0.68813 0.89033 0.0
H893 H 0.82317 0.69038 0.87523 0.0
H894 H 0.90359 0.71305 0.94747 0.0
H895 H 0.91591 0.72864 0.97361 0.0
H896 H 0.91201 0.73937 0.95823 0.0
H897 H 0.93241 0.74411 0.96181 0.0
H898 H 0.90164 0.70213 0.91832 0.0
H899 H 0.925 0.7538 0.92099 0.0
H900 H 0.87771 0.69655 0.88245 0.0
H901 H 0.86659 0.69316 0.90097 0.0
H902 H 0.88089 0.68636 0.89905 0.0
H903 H 0.91665 0.76842 0.90489 0.0
H904 H 0.89481 0.75765 0.90329 0.0
H905 H 0.9066 0.75871 0.88591 0.0
H906 H 0.9428 0.73059 0.80257 0.0
H907 H 0.91492 0.71609 0.79601 0.0
H908 H 0.92974 0.76635 0.7945 0.0
H909 H 0.8854 0.70343 0.82358 0.0
H910 H 0.88871 0.69619 0.8044 0.0
H911 H 0.87339 0.70174 0.80615 0.0
H912 H 0.91423 0.77667 0.80586 0.0
H913 H 0.901 0.76506 0.82223 0.0
H914 H 0.89293 0.76293 0.80208 0.0
H915 H 0.80877 0.74438 0.77423 0.0
H916 H 0.79066 0.75313 0.78765 0.0
H917 H 0.80352 0.751 0.80197 0.0
H918 H 0.7825 0.73563 0.80051 0.0
H919 H 0.80188 0.69932 0.79589 0.0
H920 H 0.82717 0.75123 0.7945 0.0
H921 H 0.82465 0.69484 0.82422 0.0
H922 H 0.83634 0.69632 0.8066 0.0
H923 H 0.81446 0.68528 0.8053 0.0
H924 H 0.85244 0.76769 0.80682 0.0
H925 H 0.86521 0.75926 0.80317 0.0
H926 H 0.85745 0.75866 0.82319 0.0
H927 H 0.86434 0.7214 0.90962 0.0
H928 H 0.90369 0.73154 0.86826 0.0
H929 H 0.90452 0.73412 0.83926 0.0
H930 H 0.86738 0.73127 0.79815 0.0
H931 H 0.82903 0.72368 0.84001 0.0
H932 H 0.82824 0.72107 0.86902 0.0
H933 H 0.97241 0.74575 0.79854 0.0
H934 H 0.96538 0.75871 0.80635 0.0
H935 H 0.97067 0.75954 0.78513 0.0
C936 C 0.87621 0.5902 0.41343 0.0
C937 C 0.8777 0.60645 0.4096 0.0
C938 C 0.86536 0.61488 0.43092 0.0
C939 C 0.86891 0.62802 0.44122 0.0
C940 C 0.85657 0.62927 0.44898 0.0
C941 C 0.84026 0.61664 0.44689 0.0
C942 C 0.83656 0.6032 0.43656 0.0
C943 C 0.84916 0.60253 0.42854 0.0
C944 C 0.86102 0.64408 0.45945 0.0
C945 C 0.81934 0.58946 0.43411 0.0
C946 C 0.77813 0.64188 0.38757 0.0
C947 C 0.76349 0.63472 0.39895 0.0
C948 C 0.77697 0.63583 0.42457 0.0
C949 C 0.77322 0.6197 0.42545 0.0
C950 C 0.78225 0.61552 0.43553 0.0
C951 C 0.79542 0.62775 0.44473 0.0
C952 C 0.79911 0.64399 0.444 0.0
C953 C 0.7896 0.64775 0.43413 0.0
C954 C 0.77773 0.59802 0.43632 0.0
C955 C 0.81317 0.65739 0.45347 0.0
C956 C 0.76164 0.62282 0.54583 0.0
C957 C 0.75783 0.60713 0.54095 0.0
C958 C 0.76966 0.60442 0.53407 0.0
C959 C 0.78561 0.61761 0.53213 0.0
C960 C 0.78965 0.63326 0.53766 0.0
C961 C 0.77758 0.63565 0.54443 0.0
C962 C 0.76499 0.58755 0.52837 0.0
C963 C 0.8066 0.64755 0.53592 0.0
C964 C 0.87378 0.5768 0.55304 0.0
C965 C 0.87175 0.59158 0.55353 0.0
C966 C 0.84693 0.59232 0.54952 0.0
C967 C 0.83039 0.58174 0.54683 0.0
C968 C 0.82096 0.58679 0.53868 0.0
C969 C 0.82821 0.60304 0.53363 0.0
C970 C 0.84476 0.6141 0.5373 0.0
C971 C 0.85402 0.60855 0.545 0.0
C972 C 0.80334 0.57465 0.53517 0.0
C973 C 0.85276 0.63169 0.53282 0.0
C974 C 0.82716 0.61742 0.45574 0.0
C975 C 0.81754 0.62186 0.4471 0.0
C976 C 0.80549 0.62353 0.45486 0.0
C977 C 0.80319 0.62115 0.47184 0.0
C978 C 0.79142 0.62306 0.48011 0.0
C979 C 0.7896 0.62116 0.49689 0.0
C980 C 0.79932 0.61704 0.50601 0.0
C981 C 0.79768 0.61525 0.52309 0.0
C982 C 0.80741 0.61098 0.53178 0.0
C983 C 0.81868 0.60818 0.52381 0.0
C984 C 0.82048 0.6099 0.50671 0.0
C985 C 0.83146 0.6069 0.49823 0.0
C986 C 0.83357 0.60921 0.48153 0.0
C987 C 0.82466 0.61444 0.47261 0.0
C988 C 0.81291 0.61671 0.48075 0.0
C989 C 0.81091 0.61456 0.49784 0.0
C990 C 0.72565 0.6124 0.53628 0.0
C991 C 0.73384 0.61573 0.55315 0.0
O992 O 0.87796 0.61447 0.42389 0.0
O993 O 0.85562 0.58643 0.55651 0.0
O994 O 0.75038 0.62626 0.55154 0.0
O995 O 0.76861 0.64031 0.41478 0.0
H996 H 0.86717 0.60408 0.40185 0.0
H997 H 0.86461 0.58225 0.41971 0.0
H998 H 0.88629 0.59195 0.42149 0.0
H999 H 0.87639 0.58395 0.40198 0.0
H1000 H 0.88147 0.63747 0.44298 0.0
H1001 H 0.84628 0.5922 0.42073 0.0
H1002 H 0.85274 0.64868 0.45694 0.0
H1003 H 0.87369 0.65397 0.45741 0.0
H1004 H 0.85979 0.64083 0.47249 0.0
H1005 H 0.8187 0.57896 0.42749 0.0
H1006 H 0.81253 0.59378 0.42697 0.0
H1007 H 0.81323 0.58536 0.44604 0.0
H1008 H 0.75738 0.62131 0.3983 0.0
H1009 H 0.77425 0.6375 0.37483 0.0
H1010 H 0.78678 0.63809 0.39136 0.0
H1011 H 0.78449 0.65533 0.38796 0.0
H1012 H 0.7631 0.61029 0.41854 0.0
H1013 H 0.79229 0.66014 0.43347 0.0
H1014 H 0.78751 0.5966 0.4308 0.0
H1015 H 0.7662 0.58976 0.42977 0.0
H1016 H 0.77653 0.59429 0.44922 0.0
H1017 H 0.8153 0.66954 0.45046 0.0
H1018 H 0.82439 0.65709 0.45094 0.0
H1019 H 0.81078 0.65554 0.46672 0.0
H1020 H 0.73147 0.60406 0.55817 0.0
H1021 H 0.74562 0.59698 0.54207 0.0
H1022 H 0.78046 0.64767 0.54835 0.0
H1023 H 0.76656 0.58739 0.51497 0.0
H1024 H 0.75225 0.57845 0.53132 0.0
H1025 H 0.77311 0.58395 0.53409 0.0
H1026 H 0.80808 0.65872 0.54184 0.0
H1027 H 0.80953 0.64987 0.5228 0.0
H1028 H 0.81549 0.64481 0.54138 0.0
H1029 H 0.87522 0.59717 0.5413 0.0
H1030 H 0.88652 0.58047 0.55021 0.0
H1031 H 0.8658 0.56811 0.5434 0.0
H1032 H 0.87045 0.5706 0.56493 0.0
H1033 H 0.82501 0.5693 0.55062 0.0
H1034 H 0.86674 0.61692 0.54754 0.0
H1035 H 0.80054 0.57481 0.52208 0.0
H1036 H 0.79564 0.57799 0.54237 0.0
H1037 H 0.80003 0.56214 0.53831 0.0
H1038 H 0.86455 0.63923 0.53925 0.0
H1039 H 0.84474 0.63656 0.53576 0.0
H1040 H 0.85501 0.63282 0.51951 0.0
H1041 H 0.8195 0.62408 0.43415 0.0
H1042 H 0.78358 0.62622 0.47375 0.0
H1043 H 0.78046 0.62298 0.50259 0.0
H1044 H 0.80606 0.60964 0.54488 0.0
H1045 H 0.83869 0.60288 0.5044 0.0
H1046 H 0.84231 0.60685 0.4757 0.0
H1047 H 0.72685 0.62365 0.53136 0.0
H1048 H 0.71265 0.60287 0.53703 0.0
H1049 H 0.73136 0.60793 0.52751 0.0
C1050 C 0.40332 0.2654 0.38699 0.0
C1051 C 0.38837 0.25732 0.39786 0.0
C1052 C 0.39101 0.24883 0.42466 0.0
C1053 C 0.37538 0.23611 0.42796 0.0
C1054 C 0.37296 0.22388 0.43868 0.0
C1055 C 0.38655 0.22422 0.44588 0.0
C1056 C 0.40237 0.23719 0.44259 0.0
C1057 C 0.40435 0.24957 0.43229 0.0
C1058 C 0.3559 0.21041 0.442 0.0
C1059 C 0.41721 0.23777 0.44955 0.0
C1060 C 0.3695 0.10566 0.40786 0.0
C1061 C 0.37756 0.12215 0.41542 0.0
C1062 C 0.36996 0.14054 0.42831 0.0
C1063 C 0.38554 0.15173 0.4343 0.0
C1064 C 0.38837 0.16553 0.44327 0.0
C1065 C 0.37534 0.1681 0.44641 0.0
C1066 C 0.35965 0.15685 0.4404 0.0
C1067 C 0.3572 0.14322 0.43139 0.0
C1068 C 0.40527 0.17735 0.44943 0.0
C1069 C 0.34549 0.1592 0.44354 0.0
C1070 C 0.37289 0.14364 0.55248 0.0
C1071 C 0.3873 0.15229 0.54364 0.0
C1072 C 0.39058 0.16613 0.53502 0.0
C1073 C 0.37889 0.17098 0.53469 0.0
C1074 C 0.36438 0.16225 0.54362 0.0
C1075 C 0.36174 0.14887 0.55263 0.0
C1076 C 0.40652 0.1755 0.52627 0.0
C1077 C 0.35158 0.16693 0.54353 0.0
C1078 C 0.42361 0.29993 0.55901 0.0
C1079 C 0.40773 0.28362 0.55842 0.0
C1080 C 0.40546 0.25753 0.55278 0.0
C1081 C 0.41595 0.25179 0.54962 0.0
C1082 C 0.41088 0.23761 0.54027 0.0
C1083 C 0.39467 0.22862 0.5345 0.0
C1084 C 0.38377 0.23403 0.53829 0.0
C1085 C 0.38937 0.24861 0.54718 0.0
C1086 C 0.42289 0.23229 0.53653 0.0
C1087 C 0.36621 0.22438 0.53307 0.0
C1088 C 0.3842 0.21045 0.45587 0.0
C1089 C 0.38092 0.19622 0.4476 0.0
C1090 C 0.37814 0.18255 0.45604 0.0
C1091 C 0.37843 0.18292 0.47325 0.0
C1092 C 0.37496 0.16915 0.48211 0.0
C1093 C 0.37566 0.16972 0.49904 0.0
C1094 C 0.38022 0.18418 0.50776 0.0
C1095 C 0.38173 0.18507 0.52494 0.0
C1096 C 0.38616 0.19962 0.53321 0.0
C1097 C 0.38915 0.21342 0.52484 0.0
C1098 C 0.38765 0.21274 0.50765 0.0
C1099 C 0.39048 0.22632 0.49877 0.0
C1100 C 0.38896 0.2255 0.48186 0.0
C1101 C 0.38517 0.21126 0.4731 0.0
C1102 C 0.38228 0.19742 0.48181 0.0
C1103 C 0.38333 0.1981 0.49909 0.0
C1104 C 0.36928 0.10695 0.57047 0.0
C1105 C 0.37574 0.12041 0.55873 0.0
O1106 O 0.39346 0.26044 0.414 0.0
O1107 O 0.41116 0.27154 0.56151 0.0
O1108 O 0.36938 0.13038 0.56117 0.0
O1109 O 0.36667 0.12704 0.41958 0.0
H1110 H 0.38195 0.24404 0.39509 0.0
H1111 H 0.4115 0.26074 0.38985 0.0
H1112 H 0.41008 0.27874 0.38904 0.0
H1113 H 0.39977 0.26267 0.37393 0.0
H1114 H 0.3651 0.23581 0.42213 0.0
H1115 H 0.41638 0.25955 0.42964 0.0
H1116 H 0.35362 0.19926 0.43537 0.0
H1117 H 0.34673 0.21341 0.43793 0.0
H1118 H 0.35426 0.20774 0.4552 0.0
H1119 H 0.42858 0.24742 0.44404 0.0
H1120 H 0.41648 0.22595 0.44753 0.0
H1121 H 0.41785 0.24011 0.46288 0.0
H1122 H 0.38835 0.13156 0.4088 0.0
H1123 H 0.37432 0.10759 0.39507 0.0
H1124 H 0.35698 0.10266 0.40408 0.0
H1125 H 0.37359 0.092 0.42469 0.0
H1126 H 0.39553 0.14978 0.43201 0.0
H1127 H 0.34523 0.13452 0.42671 0.0
H1128 H 0.40539 0.1775 0.46296 0.0
H1129 H 0.40903 0.18978 0.4455 0.0
H1130 H 0.4143 0.17422 0.44501 0.0
H1131 H 0.33385 0.14876 0.43903 0.0
H1132 H 0.34756 0.17027 0.43737 0.0
H1133 H 0.34447 0.16098 0.4568 0.0
H1134 H 0.37549 0.11681 0.54568 0.0
H1135 H 0.39612 0.14846 0.54366 0.0
H1136 H 0.35072 0.14216 0.5596 0.0
H1137 H 0.40451 0.17279 0.513 0.0
H1138 H 0.41548 0.17226 0.53046 0.0
H1139 H 0.41176 0.18874 0.52813 0.0
H1140 H 0.3402 0.15775 0.54943 0.0
H1141 H 0.34877 0.16855 0.53084 0.0
H1142 H 0.35621 0.17867 0.55017 0.0
H1143 H 0.40262 0.282 0.54588 0.0
H1144 H 0.42143 0.30989 0.55603 0.0
H1145 H 0.43219 0.29986 0.54994 0.0
H1146 H 0.42929 0.3023 0.57131 0.0
H1147 H 0.4283 0.25871 0.55419 0.0
H1148 H 0.38114 0.25287 0.55004 0.0
H1149 H 0.42263 0.22947 0.52331 0.0
H1150 H 0.4195 0.22108 0.54323 0.0
H1151 H 0.43546 0.24166 0.5401 0.0
H1152 H 0.35887 0.22904 0.53885 0.0
H1153 H 0.36092 0.21146 0.53623 0.0
H1154 H 0.36531 0.22493 0.51965 0.0
H1155 H 0.38055 0.19577 0.43438 0.0
H1156 H 0.37163 0.15775 0.47605 0.0
H1157 H 0.37278 0.1587 0.50518 0.0
H1158 H 0.38745 0.20026 0.54638 0.0
H1159 H 0.39382 0.23773 0.50481 0.0
H1160 H 0.39105 0.23626 0.47571 0.0
H1161 H 0.38971 0.11162 0.58406 0.0
H1162 H 0.36215 0.09566 0.56272 0.0
H1163 H 0.35827 0.10624 0.57621 0.0
C1164 C 0.86004 0.24953 0.38253 0.0
C1165 C 0.87243 0.25547 0.39667 0.0
C1166 C 0.85704 0.23398 0.41657 0.0
C1167 C 0.84542 0.23831 0.42032 0.0
C1168 C 0.83218 0.22855 0.43033 0.0
C1169 C 0.83067 0.21434 0.43689 0.0
C1170 C 0.84271 0.21034 0.43371 0.0
C1171 C 0.85573 0.22023 0.42358 0.0
C1172 C 0.81963 0.23323 0.43365 0.0
C1173 C 0.84164 0.19544 0.44078 0.0
C1174 C 0.74989 0.13638 0.3744 0.0
C1175 C 0.74859 0.12657 0.38945 0.0
C1176 C 0.7534 0.14257 0.41422 0.0
C1177 C 0.76519 0.14044 0.42191 0.0
C1178 C 0.7764 0.15222 0.43283 0.0
C1179 C 0.77573 0.16636 0.43617 0.0
C1180 C 0.76326 0.16809 0.42916 0.0
C1181 C 0.75211 0.15604 0.41835 0.0
C1182 C 0.78927 0.14977 0.44044 0.0
C1183 C 0.76204 0.18288 0.43274 0.0
C1184 C 0.74381 0.14791 0.5392 0.0
C1185 C 0.75489 0.1434 0.53395 0.0
C1186 C 0.76952 0.15469 0.52666 0.0
C1187 C 0.77294 0.17071 0.52437 0.0
C1188 C 0.76208 0.17543 0.53031 0.0
C1189 C 0.74773 0.16397 0.53788 0.0
C1190 C 0.78117 0.14944 0.52113 0.0
C1191 C 0.76545 0.19245 0.52832 0.0
C1192 C 0.88392 0.27757 0.5375 0.0
C1193 C 0.87971 0.26585 0.55168 0.0
C1194 C 0.85951 0.23936 0.5397 0.0
C1195 C 0.85689 0.22424 0.53467 0.0
C1196 C 0.84217 0.21256 0.52747 0.0
C1197 C 0.82982 0.21623 0.52505 0.0
C1198 C 0.8321 0.23126 0.53065 0.0
C1199 C 0.84689 0.24266 0.53801 0.0
C1200 C 0.84001 0.1965 0.52197 0.0
C1201 C 0.81909 0.23546 0.52836 0.0
C1202 C 0.81613 0.20325 0.44643 0.0
C1203 C 0.80267 0.19112 0.4379 0.0
C1204 C 0.78878 0.17976 0.44605 0.0
C1205 C 0.78807 0.18065 0.46321 0.0
C1206 C 0.77416 0.16965 0.47177 0.0
C1207 C 0.77377 0.17036 0.4887 0.0
C1208 C 0.78741 0.18187 0.49774 0.0
C1209 C 0.78739 0.18226 0.51499 0.0
C1210 C 0.80127 0.19367 0.52357 0.0
C1211 C 0.81518 0.20493 0.51536 0.0
C1212 C 0.81531 0.20497 0.49814 0.0
C1213 C 0.82901 0.21636 0.48952 0.0
C1214 C 0.82923 0.21598 0.47258 0.0
C1215 C 0.8158 0.20413 0.46361 0.0
C1216 C 0.80173 0.19275 0.47203 0.0
C1217 C 0.80145 0.19324 0.48931 0.0
C1218 C 0.703 0.11867 0.53635 0.0
C1219 C 0.71955 0.12106 0.54109 0.0
O1220 O 0.86943 0.24234 0.40602 0.0
O1221 O 0.87444 0.25036 0.5457 0.0
O1222 O 0.72936 0.13717 0.54584 0.0
O1223 O 0.74337 0.13196 0.40259 0.0
H1224 H 0.87118 0.26447 0.40425 0.0
H1225 H 0.84746 0.24233 0.38707 0.0
H1226 H 0.86204 0.2417 0.37387 0.0
H1227 H 0.86091 0.25998 0.37605 0.0
H1228 H 0.84637 0.24907 0.41528 0.0
H1229 H 0.86484 0.21707 0.42079 0.0
H1230 H 0.80777 0.22379 0.42846 0.0
H1231 H 0.82293 0.24507 0.42833 0.0
H1232 H 0.81806 0.23389 0.447 0.0
H1233 H 0.85218 0.1942 0.43742 0.0
H1234 H 0.83038 0.18448 0.43637 0.0
H1235 H 0.84099 0.19592 0.45426 0.0
H1236 H 0.76109 0.12895 0.39156 0.0
H1237 H 0.75246 0.13122 0.36336 0.0
H1238 H 0.75999 0.14908 0.37618 0.0
H1239 H 0.73861 0.1367 0.37246 0.0
H1240 H 0.76573 0.12965 0.41922 0.0
H1241 H 0.74276 0.1574 0.41255 0.0
H1242 H 0.78921 0.15116 0.45389 0.0
H1243 H 0.80138 0.15918 0.43609 0.0
H1244 H 0.78752 0.13766 0.4374 0.0
H1245 H 0.75118 0.18206 0.42695 0.0
H1246 H 0.77303 0.1938 0.42822 0.0
H1247 H 0.76152 0.18453 0.4461 0.0
H1248 H 0.72439 0.11813 0.53004 0.0
H1249 H 0.75218 0.13111 0.53561 0.0
H1250 H 0.73921 0.16737 0.5423 0.0
H1251 H 0.7812 0.14882 0.50762 0.0
H1252 H 0.77786 0.13737 0.52582 0.0
H1253 H 0.79368 0.15843 0.52525 0.0
H1254 H 0.75545 0.194 0.53302 0.0
H1255 H 0.76729 0.19565 0.51525 0.0
H1256 H 0.77678 0.2011 0.53495 0.0
H1257 H 0.86995 0.26603 0.55887 0.0
H1258 H 0.88933 0.29022 0.5422 0.0
H1259 H 0.87284 0.27459 0.53048 0.0
H1260 H 0.89244 0.27668 0.52897 0.0
H1261 H 0.8666 0.22172 0.53617 0.0
H1262 H 0.84853 0.25419 0.54203 0.0
H1263 H 0.83961 0.1957 0.50845 0.0
H1264 H 0.82832 0.18642 0.52647 0.0
H1265 H 0.85 0.19483 0.52632 0.0
H1266 H 0.82259 0.24756 0.53365 0.0
H1267 H 0.8077 0.2262 0.53416 0.0
H1268 H 0.81652 0.23534 0.51516 0.0
H1269 H 0.80317 0.19028 0.42473 0.0
H1270 H 0.76342 0.16038 0.46546 0.0
H1271 H 0.7627 0.16161 0.4946 0.0
H1272 H 0.80127 0.19373 0.53679 0.0
H1273 H 0.83976 0.2257 0.49576 0.0
H1274 H 0.84012 0.22499 0.46661 0.0
H1275 H 0.69641 0.11907 0.54733 0.0
H1276 H 0.69548 0.10705 0.5296 0.0
H1277 H 0.70471 0.12848 0.52812 0.0
C1278 C 0.03588 0.44966 0.2406 0.0
C1279 C 0.02281 0.44681 0.25317 0.0
C1280 C 0.00436 0.45345 0.23912 0.0
C1281 C 0.9884 0.44721 0.23383 0.0
C1282 C 0.98334 0.45725 0.22708 0.0
C1283 C 0.99476 0.47389 0.22504 0.0
C1284 C 0.011 0.48029 0.23027 0.0
C1285 C 0.01554 0.47009 0.23752 0.0
C1286 C 0.96581 0.45002 0.22214 0.0
C1287 C 0.02364 0.49792 0.2281 0.0
C1288 C 0.00865 0.58941 0.26844 0.0
C1289 C 0.01009 0.57697 0.25879 0.0
C1290 C 0.9947 0.54829 0.25124 0.0
C1291 C 0.00605 0.54932 0.23973 0.0
C1292 C 0.003 0.53589 0.23006 0.0
C1293 C 0.98812 0.52113 0.23164 0.0
C1294 C 0.97665 0.51998 0.2432 0.0
C1295 C 0.98016 0.53359 0.25295 0.0
C1296 C 0.01576 0.53756 0.21812 0.0
C1297 C 0.96068 0.50444 0.24511 0.0
C1298 C 0.95976 0.53865 0.13398 0.0
C1299 C 0.9762 0.54437 0.13719 0.0
C1300 C 0.98116 0.53396 0.14314 0.0
C1301 C 0.96942 0.51756 0.14597 0.0
C1302 C 0.95296 0.51165 0.1421 0.0
C1303 C 0.94838 0.52227 0.13598 0.0
C1304 C -0.0011 0.54051 0.14659 0.0
C1305 C 0.94017 0.49418 0.14472 0.0
C1306 C 0.02203 0.44966 0.12029 0.0
C1307 C 0.00397 0.43959 0.11585 0.0
C1308 C 0.99453 0.45839 0.11789 0.0
C1309 C 0.00537 0.47492 0.12027 0.0
C1310 C 0.0013 0.48427 0.13027 0.0
C1311 C 0.98583 0.47687 0.13763 0.0
C1312 C 0.97453 0.46026 0.13451 0.0
C1313 C 0.97911 0.45113 0.12477 0.0
C1314 C 0.01364 0.50194 0.1333 0.0
C1315 C 0.95779 0.45211 0.14174 0.0
C1316 C 0.9898 0.48466 0.2175 0.0
C1317 C 0.9885 0.49581 0.22761 0.0
C1318 C 0.98494 0.50702 0.22119 0.0
C1319 C 0.98128 0.50631 0.20444 0.0
C1320 C 0.97644 0.5166 0.19784 0.0
C1321 C 0.97375 0.51647 0.18118 0.0
C1322 C 0.97619 0.50633 0.17045 0.0
C1323 C 0.97427 0.50667 0.1534 0.0
C1324 C 0.97713 0.49669 0.14307 0.0
C1325 C 0.98191 0.48632 0.14929 0.0
C1326 C 0.98367 0.48562 0.16631 0.0
C1327 C 0.98854 0.47536 0.17298 0.0
C1328 C 0.99035 0.47486 0.18972 0.0
C1329 C 0.98761 0.48477 0.20046 0.0
C1330 C 0.98301 0.49542 0.19397 0.0
C1331 C 0.98082 0.49569 0.17691 0.0
C1332 C 0.94751 0.56687 0.14029 0.0
C1333 C 0.9609 0.56469 0.13283 0.0
O1334 O 0.00841 0.44298 0.24547 0.0
O1335 O -0.00093 0.44946 0.10895 0.0
O1336 O 0.95443 0.54845 0.12874 0.0
O1337 O -0.00264 0.56122 0.26073 0.0
H1338 H 0.0273 0.4581 0.26066 0.0
H1339 H 0.0394 0.46065 0.2335 0.0
H1340 H 0.03145 0.4393 0.23183 0.0
H1341 H 0.04693 0.4514 0.24686 0.0
H1342 H 0.97981 0.43439 0.23516 0.0
H1343 H 0.02791 0.47527 0.24171 0.0
H1344 H 0.9611 0.45781 0.22661 0.0
H1345 H 0.95804 0.43764 0.2269 0.0
H1346 H 0.9648 0.44932 0.20865 0.0
H1347 H 0.03613 0.50036 0.23023 0.0
H1348 H 0.02138 0.50545 0.23688 0.0
H1349 H 0.02292 0.50179 0.21562 0.0
H1350 H 0.02222 0.57808 0.25961 0.0
H1351 H 0.01922 0.5947 0.2772 0.0
H1352 H -0.00073 0.58271 0.27805 0.0
H1353 H 0.00595 0.60322 0.25064 0.0
H1354 H 0.01739 0.56056 0.23821 0.0
H1355 H 0.97145 0.53288 0.26183 0.0
H1356 H 0.01151 0.53734 0.20551 0.0
H1357 H 0.01788 0.52728 0.21917 0.0
H1358 H 0.02749 0.54904 0.22003 0.0
H1359 H 0.95258 0.50581 0.25386 0.0
H1360 H 0.96287 0.49486 0.24947 0.0
H1361 H 0.9544 0.50031 0.23311 0.0
H1362 H 0.97055 0.5687 0.14231 0.0
H1363 H 0.98517 0.5569 0.13494 0.0
H1364 H 0.93577 0.51793 0.13315 0.0
H1365 H 0.00082 0.54031 0.15989 0.0
H1366 H 0.00666 0.55312 0.14238 0.0
H1367 H 0.00287 0.5327 0.14051 0.0
H1368 H 0.92781 0.49159 0.14152 0.0
H1369 H 0.94029 0.4911 0.15767 0.0
H1370 H 0.94291 0.48618 0.13717 0.0
H1371 H -0.00304 0.43418 0.12717 0.0
H1372 H 0.02621 0.44194 0.12581 0.0
H1373 H 0.02415 0.4593 0.12934 0.0
H1374 H 0.02935 0.45543 0.10928 0.0
H1375 H 0.0172 0.48036 0.11466 0.0
H1376 H 0.97077 0.43831 0.12258 0.0
H1377 H 0.01571 0.50452 0.1466 0.0
H1378 H 0.00895 0.5095 0.12849 0.0
H1379 H 0.02543 0.5056 0.12741 0.0
H1380 H 0.94978 0.4398 0.13641 0.0
H1381 H 0.95211 0.45953 0.13976 0.0
H1382 H 0.95867 0.45105 0.15508 0.0
H1383 H 0.99118 0.49637 0.24052 0.0
H1384 H 0.97466 0.52483 0.20553 0.0
H1385 H 0.97001 0.52463 0.1768 0.0
H1386 H 0.97584 0.49717 0.12999 0.0
H1387 H 0.99102 0.46759 0.16533 0.0
H1388 H 0.99417 0.46677 0.19411 0.0
H1389 H 0.95235 0.57972 0.14403 0.0
H1390 H 0.94263 0.5593 0.15127 0.0
H1391 H 0.93743 0.56314 0.13141 0.0
C1392 C 0.46241 0.38712 0.28424 0.0
C1393 C 0.45838 0.39851 0.27541 0.0
C1394 C 0.46917 0.41017 0.24925 0.0
C1395 C 0.46567 0.42259 0.24822 0.0
C1396 C 0.47513 0.43611 0.23855 0.0
C1397 C 0.48867 0.43739 0.23017 0.0
C1398 C 0.49223 0.42481 0.23133 0.0
C1399 C 0.48211 0.41113 0.24052 0.0
C1400 C 0.47076 0.44908 0.23751 0.0
C1401 C 0.50687 0.42588 0.22321 0.0
C1402 C 0.58916 0.56237 0.2642 0.0
C1403 C 0.58128 0.54681 0.25482 0.0
C1404 C 0.55437 0.52356 0.24929 0.0
C1405 C 0.55964 0.5135 0.24257 0.0
C1406 C 0.54876 0.49903 0.23431 0.0
C1407 C 0.53241 0.49483 0.23227 0.0
C1408 C 0.527 0.50475 0.23939 0.0
C1409 C 0.53804 0.51888 0.24804 0.0
C1410 C 0.55484 0.48841 0.22751 0.0
C1411 C 0.50965 0.50063 0.23757 0.0
C1412 C 0.56513 0.52245 0.13094 0.0
C1413 C 0.56735 0.50988 0.13626 0.0
C1414 C 0.55454 0.49596 0.14322 0.0
C1415 C 0.53913 0.49446 0.1447 0.0
C1416 C 0.53674 0.50686 0.13896 0.0
C1417 C 0.54981 0.52074 0.13223 0.0
C1418 C 0.55757 0.48303 0.14938 0.0
C1419 C 0.52048 0.50564 0.14035 0.0
C1420 C 0.44716 0.36424 0.12366 0.0
C1421 C 0.45013 0.38133 0.12165 0.0
C1422 C 0.47547 0.40695 0.12608 0.0
C1423 C 0.49177 0.41273 0.12957 0.0
C1424 C 0.50133 0.42764 0.13772 0.0
C1425 C 0.49449 0.43722 0.142 0.0
C1426 C 0.47826 0.4319 0.13751 0.0
C1427 C 0.46884 0.41671 0.12974 0.0
C1428 C 0.51865 0.43298 0.14205 0.0
C1429 C 0.47078 0.44208 0.14127 0.0
C1430 C 0.49955 0.45221 0.22091 0.0
C1431 C 0.51014 0.46627 0.22984 0.0
C1432 C 0.52119 0.4805 0.22205 0.0
C1433 C 0.52187 0.48081 0.20484 0.0
C1434 C 0.53284 0.49494 0.19662 0.0
C1435 C 0.5341 0.49488 0.17976 0.0
C1436 C 0.52422 0.48077 0.17041 0.0
C1437 C 0.52593 0.48043 0.15331 0.0
C1438 C 0.51577 0.46626 0.14433 0.0
C1439 C 0.50403 0.45225 0.15202 0.0
C1440 C 0.50231 0.45232 0.16916 0.0
C1441 C 0.49081 0.4384 0.17737 0.0
C1442 C 0.48956 0.43846 0.19426 0.0
C1443 C 0.50003 0.45231 0.20367 0.0
C1444 C 0.5114 0.4666 0.19564 0.0
C1445 C 0.51253 0.46661 0.17837 0.0
C1446 C 0.60344 0.54628 0.13727 0.0
C1447 C 0.59314 0.54046 0.12161 0.0
O1448 O 0.46035 0.39727 0.25882 0.0
O1449 O 0.46653 0.3919 0.11929 0.0
O1450 O 0.57734 0.53648 0.12479 0.0
O1451 O 0.56464 0.53784 0.25697 0.0
H1452 H 0.46711 0.41105 0.27995 0.0
H1453 H 0.47506 0.39041 0.28154 0.0
H1454 H 0.45412 0.37436 0.28019 0.0
H1455 H 0.4613 0.38814 0.29763 0.0
H1456 H 0.45549 0.42163 0.25493 0.0
H1457 H 0.48464 0.4014 0.24146 0.0
H1458 H 0.47937 0.45968 0.24513 0.0
H1459 H 0.45829 0.44482 0.24193 0.0
H1460 H 0.47172 0.45317 0.22477 0.0
H1461 H 0.5098 0.41698 0.22815 0.0
H1462 H 0.51765 0.43822 0.22479 0.0
H1463 H 0.50446 0.42335 0.20996 0.0
H1464 H 0.58486 0.54769 0.24176 0.0
H1465 H 0.60407 0.55972 0.28087 0.0
H1466 H 0.57922 0.56466 0.2681 0.0
H1467 H 0.59408 0.57197 0.25466 0.0
H1468 H 0.57221 0.51685 0.24379 0.0
H1469 H 0.53408 0.52664 0.25344 0.0
H1470 H 0.54609 0.47548 0.22998 0.0
H1471 H 0.56684 0.4917 0.23273 0.0
H1472 H 0.5561 0.48975 0.2141 0.0
H1473 H 0.50773 0.51033 0.2426 0.0
H1474 H 0.50159 0.48926 0.24405 0.0
H1475 H 0.50601 0.49853 0.22451 0.0
H1476 H 0.59325 0.52966 0.11664 0.0
H1477 H 0.57906 0.51089 0.13534 0.0
H1478 H 0.54816 0.53045 0.12806 0.0
H1479 H 0.55533 0.48166 0.16269 0.0
H1480 H 0.57015 0.48585 0.14707 0.0
H1481 H 0.54901 0.47124 0.14339 0.0
H1482 H 0.52033 0.51589 0.13449 0.0
H1483 H 0.51736 0.50547 0.15341 0.0
H1484 H 0.51094 0.49411 0.13461 0.0
H1485 H 0.44622 0.38453 0.13323 0.0
H1486 H 0.43409 0.35554 0.12575 0.0
H1487 H 0.45413 0.36402 0.13433 0.0
H1488 H 0.45109 0.36029 0.11265 0.0
H1489 H 0.49681 0.40521 0.12642 0.0
H1490 H 0.45635 0.4125 0.12654 0.0
H1491 H 0.52104 0.43646 0.15516 0.0
H1492 H 0.52691 0.44379 0.1349 0.0
H1493 H 0.52158 0.42338 0.1394 0.0
H1494 H 0.45893 0.43738 0.13496 0.0
H1495 H 0.47908 0.45479 0.13762 0.0
H1496 H 0.46885 0.4422 0.15459 0.0
H1497 H 0.50993 0.46606 0.24305 0.0
H1498 H 0.54078 0.50617 0.20313 0.0
H1499 H 0.543 0.50605 0.17416 0.0
H1500 H 0.5173 0.46602 0.13125 0.0
H1501 H 0.48267 0.42724 0.17084 0.0
H1502 H 0.48043 0.42742 0.19987 0.0
H1503 H 0.61624 0.55014 0.13451 0.0
H1504 H 0.59891 0.53638 0.14618 0.0
H1505 H 0.60302 0.55658 0.1431 0.0
C1506 C 0.4458 0.97765 0.28921 0.0
C1507 C 0.4421 0.98824 0.27845 0.0
C1508 C 0.45093 0.98599 0.25139 0.0
C1509 C 0.46214 0.00215 0.24782 0.0
C1510 C 0.47489 0.006 0.23701 0.0
C1511 C 0.47642 0.99339 0.22971 0.0
C1512 C 0.46468 0.97705 0.23275 0.0
C1513 C 0.45191 0.97355 0.24344 0.0
C1514 C 0.48693 0.02354 0.23364 0.0
C1515 C 0.46592 0.96333 0.22511 0.0
C1516 C 0.57811 0.0368 0.28904 0.0
C1517 C 0.57122 0.02159 0.27816 0.0
C1518 C 0.56079 0.02078 0.25114 0.0
C1519 C 0.5495 0.00424 0.24897 0.0
C1520 C 0.5363 -0.00104 0.23823 0.0
C1521 C 0.53422 0.01054 0.22985 0.0
C1522 C 0.54579 0.02726 0.23192 0.0
C1523 C 0.55918 0.03211 0.24225 0.0
C1524 C 0.52445 0.98105 0.23609 0.0
C1525 C 0.54381 0.04009 0.2237 0.0
C1526 C 0.56776 0.02936 0.13003 0.0
C1527 C 0.55749 0.01259 0.13163 0.0
C1528 C 0.54167 0.00621 0.13755 0.0
C1529 C 0.53619 0.01688 0.14214 0.0
C1530 C 0.54624 0.0337 0.1396 0.0
C1531 C 0.56184 0.03968 0.13333 0.0
C1532 C 0.53105 0.98817 0.13949 0.0
C1533 C 0.54072 0.04544 0.144 0.0
C1534 C 0.42265 0.007 0.14241 0.0
C1535 C 0.43157 0.01157 0.12611 0.0
C1536 C 0.45164 0.00297 0.12896 0.0
C1537 C 0.45326 0.98931 0.12819 0.0
C1538 C 0.4668 0.98957 0.13502 0.0
C1539 C 0.47918 0.00399 0.14251 0.0
C1540 C 0.47798 0.01806 0.1427 0.0
C1541 C 0.46422 0.0174 0.13605 0.0
C1542 C 0.46765 0.97432 0.13475 0.0
C1543 C 0.49115 0.03377 0.15026 0.0
C1544 C 0.4909 0.99735 0.21984 0.0
C1545 C 0.50503 0.00089 0.2282 0.0
C1546 C 0.51938 0.0053 0.21991 0.0
C1547 C 0.51961 0.00584 0.2027 0.0
C1548 C 0.5337 0.00978 0.19394 0.0
C1549 C 0.53409 0.01126 0.1771 0.0
C1550 C 0.52033 0.00862 0.16833 0.0
C1551 C 0.52083 0.01077 0.15128 0.0
C1552 C 0.50704 0.00849 0.14303 0.0
C1553 C 0.49271 0.00414 0.15141 0.0
C1554 C 0.49191 0.00164 0.16839 0.0
C1555 C 0.47765 0.99718 0.17716 0.0
C1556 C 0.47721 0.99554 0.19398 0.0
C1557 C 0.49102 -0.00164 0.20269 0.0
C1558 C 0.50544 0.00261 0.19409 0.0
C1559 C 0.50584 0.00409 0.1769 0.0
C1560 C 0.60834 0.04502 0.13923 0.0
C1561 C 0.594 0.031 0.13016 0.0
O1562 O 0.43917 0.98213 0.26259 0.0
O1563 O 0.43786 0.00164 0.12273 0.0
O1564 O 0.58341 0.03599 0.12536 0.0
O1565 O 0.57315 0.02611 0.262 0.0
H1566 H 0.45284 0.00073 0.27896 0.0
H1567 H 0.45679 0.97779 0.28472 0.0
H1568 H 0.4355 0.96494 0.28897 0.0
H1569 H 0.44811 0.98236 0.30199 0.0
H1570 H 0.46096 0.01175 0.25353 0.0
H1571 H 0.443 0.96111 0.24614 0.0
H1572 H 0.49891 0.02687 0.23889 0.0
H1573 H 0.48314 0.03181 0.23895 0.0
H1574 H 0.48847 0.02541 0.2203 0.0
H1575 H 0.4558 0.95127 0.22871 0.0
H1576 H 0.47756 0.96439 0.22877 0.0
H1577 H 0.46591 0.96409 0.21163 0.0
H1578 H 0.55809 0.01396 0.2811 0.0
H1579 H 0.57647 0.0335 0.30209 0.0
H1580 H 0.57165 0.04338 0.28653 0.0
H1581 H 0.59123 0.04501 0.28666 0.0
H1582 H 0.55102 0.99551 0.25571 0.0
H1583 H 0.56808 0.04485 0.24403 0.0
H1584 H 0.52155 0.97781 0.22298 0.0
H1585 H 0.51298 0.97789 0.2424 0.0
H1586 H 0.5292 0.97364 0.24121 0.0
H1587 H 0.55227 0.0524 0.22878 0.0
H1588 H 0.53121 0.03755 0.22502 0.0
H1589 H 0.54628 0.04006 0.2105 0.0
H1590 H 0.58805 0.02085 0.13886 0.0
H1591 H 0.56184 0.0045 0.12836 0.0
H1592 H 0.56978 0.05257 0.13165 0.0
H1593 H 0.52995 0.98529 0.15263 0.0
H1594 H 0.53605 0.98139 0.13311 0.0
H1595 H 0.51867 0.98392 0.1347 0.0
H1596 H 0.55042 0.05824 0.14233 0.0
H1597 H 0.53668 0.04389 0.15687 0.0
H1598 H 0.53022 0.04286 0.13619 0.0
H1599 H 0.44137 0.02443 0.12709 0.0
H1600 H 0.41688 0.01434 0.14479 0.0
H1601 H 0.43138 0.00943 0.15246 0.0
H1602 H 0.4132 0.99395 0.14249 0.0
H1603 H 0.44361 0.97825 0.12261 0.0
H1604 H 0.46355 0.02827 0.13651 0.0
H1605 H 0.46745 0.9704 0.14744 0.0
H1606 H 0.47923 0.97674 0.12923 0.0
H1607 H 0.45741 0.96427 0.12783 0.0
H1608 H 0.48884 0.04388 0.14869 0.0
H1609 H 0.50298 0.03717 0.14468 0.0
H1610 H 0.49215 0.03221 0.16349 0.0
H1611 H 0.50495 0.0006 0.24141 0.0
H1612 H 0.54466 0.01199 0.20003 0.0
H1613 H 0.54541 0.01466 0.1711 0.0
H1614 H 0.50766 0.01068 0.13006 0.0
H1615 H 0.46668 0.995 0.17113 0.0
H1616 H 0.46595 0.99223 0.20009 0.0
H1617 H 0.61693 0.04129 0.14343 0.0
H1618 H 0.60394 0.04868 0.15008 0.0
H1619 H 0.61486 0.05564 0.13122 0.0
C1620 C 0.55419 0.96035 0.75419 0.0
C1621 C 0.55836 0.97698 0.74794 0.0
C1622 C 0.5496 0.99053 0.76758 0.0
C1623 C 0.55533 0.00496 0.77649 0.0
C1624 C 0.54463 0.00879 0.78418 0.0
C1625 C 0.52778 0.9975 0.78345 0.0
C1626 C 0.52185 0.9829 0.77429 0.0
C1627 C 0.53283 0.97965 0.76627 0.0
C1628 C 0.55139 0.02474 0.79334 0.0
C1629 C 0.50395 0.9706 0.77322 0.0
C1630 C 0.47015 0.03131 0.72499 0.0
C1631 C 0.45662 0.01904 0.73586 0.0
C1632 C 0.46779 0.02048 0.76266 0.0
C1633 C 0.46254 0.00423 0.76565 0.0
C1634 C 0.47136 0.00011 0.77609 0.0
C1635 C 0.48574 0.01254 0.78359 0.0
C1636 C 0.49069 0.02896 0.78109 0.0
C1637 C 0.48148 0.03272 0.77077 0.0
C1638 C 0.46546 0.98248 0.77889 0.0
C1639 C 0.50588 0.04248 0.78901 0.0
C1640 C 0.45384 0.00871 0.88135 0.0
C1641 C 0.45049 0.99276 0.879 0.0
C1642 C 0.4626 0.98975 0.87364 0.0
C1643 C 0.47843 0.00293 0.87103 0.0
C1644 C 0.48221 0.01886 0.8751 0.0
C1645 C 0.4698 0.02154 0.88021 0.0
C1646 C 0.45832 0.97253 0.87006 0.0
C1647 C 0.4991 0.03314 0.87304 0.0
C1648 C 0.56155 0.95671 0.87039 0.0
C1649 C 0.56138 0.96974 0.88123 0.0
C1650 C 0.53692 0.97161 0.88153 0.0
C1651 C 0.52046 0.96159 0.87791 0.0
C1652 C 0.51124 0.96803 0.87208 0.0
C1653 C 0.51865 0.98497 0.87023 0.0
C1654 C 0.535 0.99528 0.87511 0.0
C1655 C 0.544 0.98848 0.8807 0.0
C1656 C 0.4938 0.95669 0.86718 0.0
C1657 C 0.54313 0.01341 0.87374 0.0
C1658 C 0.51646 0.0005 0.79308 0.0
C1659 C 0.50711 0.00556 0.78494 0.0
C1660 C 0.496 0.00828 0.79331 0.0
C1661 C 0.49446 0.00636 0.81038 0.0
C1662 C 0.48354 0.00915 0.81919 0.0
C1663 C 0.48211 0.0072 0.83597 0.0
C1664 C 0.49155 0.00235 0.84461 0.0
C1665 C 0.49015 0.00029 0.86169 0.0
C1666 C 0.49937 0.99502 0.86984 0.0
C1667 C 0.50994 0.99161 0.8613 0.0
C1668 C 0.51162 0.99378 0.84425 0.0
C1669 C 0.52204 0.99034 0.83527 0.0
C1670 C 0.52359 0.99245 0.81854 0.0
C1671 C 0.51481 -0.00187 0.81008 0.0
C1672 C 0.50396 0.00132 0.81879 0.0
C1673 C 0.50244 -0.00076 0.83591 0.0
C1674 C 0.42466 0.01304 0.86446 0.0
C1675 C 0.42629 0.00383 0.87869 0.0
O1676 O 0.56068 0.98743 0.76086 0.0
O1677 O 0.54555 0.96458 0.88572 0.0
O1678 O 0.44207 0.0122 0.88463 0.0
O1679 O 0.45987 0.0246 0.75191 0.0
H1680 H 0.54822 0.97536 0.74002 0.0
H1681 H 0.54252 0.95465 0.76079 0.0
H1682 H 0.56369 0.96143 0.76269 0.0
H1683 H 0.55299 0.95222 0.7438 0.0
H1684 H 0.5683 0.0133 0.77735 0.0
H1685 H 0.52823 0.96841 0.75941 0.0
H1686 H 0.54412 0.03047 0.79071 0.0
H1687 H 0.56424 0.03331 0.79018 0.0
H1688 H 0.55077 0.02261 0.80663 0.0
H1689 H 0.50146 0.95908 0.76721 0.0
H1690 H 0.49781 0.97566 0.7661 0.0
H1691 H 0.49856 0.96791 0.78557 0.0
H1692 H 0.45636 0.00735 0.73446 0.0
H1693 H 0.46781 0.02705 0.71207 0.0
H1694 H 0.48193 0.03277 0.72878 0.0
H1695 H 0.47106 0.0433 0.72598 0.0
H1696 H 0.45158 0.99479 0.75976 0.0
H1697 H 0.48526 0.04524 0.76853 0.0
H1698 H 0.46475 0.98019 0.79216 0.0
H1699 H 0.47422 0.97939 0.77363 0.0
H1700 H 0.45336 0.97433 0.77327 0.0
H1701 H 0.50803 0.05463 0.78589 0.0
H1702 H 0.5165 0.04161 0.78509 0.0
H1703 H 0.50501 0.04128 0.80245 0.0
H1704 H 0.42298 0.99177 0.87348 0.0
H1705 H 0.43843 0.98263 0.88108 0.0
H1706 H 0.47237 0.03377 0.88258 0.0
H1707 H 0.46074 0.97117 0.85707 0.0
H1708 H 0.44541 0.96363 0.87263 0.0
H1709 H 0.46606 0.96964 0.87759 0.0
H1710 H 0.50073 0.04419 0.87941 0.0
H1711 H 0.50148 0.03574 0.85988 0.0
H1712 H 0.50822 0.03035 0.87776 0.0
H1713 H 0.56646 0.98084 0.87378 0.0
H1714 H 0.57415 0.96058 0.86671 0.0
H1715 H 0.55424 0.95476 0.8592 0.0
H1716 H 0.55632 0.94505 0.87685 0.0
H1717 H 0.51504 0.94861 0.87895 0.0
H1718 H 0.55656 0.99633 0.88427 0.0
H1719 H 0.49218 0.95788 0.85399 0.0
H1720 H 0.48588 0.96002 0.87397 0.0
H1721 H 0.48976 0.94383 0.86959 0.0
H1722 H 0.55515 0.01984 0.87993 0.0
H1723 H 0.53533 0.01772 0.87909 0.0
H1724 H 0.54484 0.01665 0.86068 0.0
H1725 H 0.50831 0.00716 0.77185 0.0
H1726 H 0.47598 0.0129 0.81322 0.0
H1727 H 0.47345 0.00951 0.84204 0.0
H1728 H 0.49804 0.99324 0.88289 0.0
H1729 H 0.52916 0.98596 0.84105 0.0
H1730 H 0.53176 0.98953 0.81233 0.0
H1731 H 0.41175 0.0075 0.86072 0.0
H1732 H 0.43156 0.01241 0.85386 0.0
H1733 H 0.42968 0.02602 0.86767 0.0
C1734 C 0.02408 0.58571 0.76529 0.0
C1735 C 0.00995 0.57341 0.75446 0.0
C1736 C 0.99597 0.54938 0.7717 0.0
C1737 C 0.98189 0.53976 0.78054 0.0
C1738 C 0.9798 0.52632 0.7891 0.0
C1739 C 0.99229 0.52262 0.789 0.0
C1740 C 0.00656 0.53224 0.78001 0.0
C1741 C 0.00819 0.54542 0.77132 0.0
C1742 C 0.96429 0.51613 0.79828 0.0
C1743 C 0.02011 0.5286 0.77958 0.0
C1744 C 0.95822 0.42415 0.73029 0.0
C1745 C 0.97256 0.42741 0.74116 0.0
C1746 C 0.97213 0.43923 0.76736 0.0
C1747 C 0.98833 0.45163 0.76916 0.0
C1748 C 0.9925 0.46513 0.77927 0.0
C1749 C 0.98015 0.46621 0.78761 0.0
C1750 C 0.96384 0.45347 0.78615 0.0
C1751 C 0.96007 0.43997 0.77617 0.0
C1752 C 0.01007 0.47828 0.78097 0.0
C1753 C 0.95043 0.45421 0.79498 0.0
C1754 C -0.00292 0.44352 0.88516 0.0
C1755 C 0.01183 0.45673 0.87999 0.0
C1756 C 0.01254 0.4707 0.87414 0.0
C1757 C -0.0017 0.47162 0.87369 0.0
C1758 C 0.98366 0.45877 0.87985 0.0
C1759 C 0.98328 0.4449 0.88558 0.0
C1760 C 0.02847 0.48435 0.86806 0.0
C1761 C 0.9683 0.45943 0.87973 0.0
C1762 C 0.03859 0.6013 0.87612 0.0
C1763 C 0.02539 0.58682 0.88526 0.0
C1764 C 0.02458 0.56105 0.88608 0.0
C1765 C 0.03482 0.55514 0.88236 0.0
C1766 C 0.02854 0.53919 0.87657 0.0
C1767 C 0.01155 0.52883 0.87498 0.0
C1768 C 0.00109 0.53434 0.88019 0.0
C1769 C 0.00772 0.55048 0.88558 0.0
C1770 C 0.0401 0.53367 0.87149 0.0
C1771 C 0.98292 0.52343 0.87928 0.0
C1772 C 0.99049 0.5087 0.7983 0.0
C1773 C 0.98567 0.4942 0.7898 0.0
C1774 C 0.98434 0.48081 0.79766 0.0
C1775 C 0.98756 0.48169 0.81454 0.0
C1776 C 0.98632 0.46842 0.82278 0.0
C1777 C 0.98973 0.46948 0.83935 0.0
C1778 C 0.99457 0.48388 0.84835 0.0
C1779 C -0.00159 0.48516 0.86515 0.0
C1780 C 0.00342 0.49974 0.87369 0.0
C1781 C 0.00494 0.51323 0.86578 0.0
C1782 C 0.00119 0.51215 0.84896 0.0
C1783 C 0.00294 0.52558 0.84053 0.0
C1784 C -0.00064 0.52447 0.82399 0.0
C1785 C 0.99401 0.50992 0.81517 0.0
C1786 C 0.99238 0.4963 0.82334 0.0
C1787 C 0.99592 0.4974 0.84026 0.0
C1788 C 0.99547 0.41157 0.86922 0.0
C1789 C 0.00424 0.42233 0.88415 0.0
O1790 O -0.00277 0.56236 0.76392 0.0
O1791 O 0.03136 0.57703 0.88989 0.0
O1792 O 0.99569 0.42941 0.89004 0.0
O1793 O 0.96786 0.42635 0.75728 0.0
H1794 H 0.01419 0.56691 0.74638 0.0
H1795 H 0.02895 0.57962 0.77273 0.0
H1796 H 0.02007 0.59216 0.77371 0.0
H1797 H 0.03408 0.59474 0.75764 0.0
H1798 H 0.97249 0.54283 0.78071 0.0
H1799 H 0.01911 0.55256 0.7644 0.0
H1800 H 0.95894 0.50316 0.79475 0.0
H1801 H 0.95521 0.51978 0.796 0.0
H1802 H 0.96696 0.5173 0.81155 0.0
H1803 H 0.0312 0.53836 0.77376 0.0
H1804 H 0.01603 0.51715 0.77258 0.0
H1805 H 0.02325 0.5269 0.79211 0.0
H1806 H 0.98278 0.43978 0.73846 0.0
H1807 H 0.96166 0.42546 0.71723 0.0
H1808 H 0.95436 0.43298 0.73332 0.0
H1809 H 0.9478 0.41172 0.73217 0.0
H1810 H -0.00231 0.45068 0.76273 0.0
H1811 H 0.94762 0.43015 0.77481 0.0
H1812 H 0.01354 0.48086 0.79405 0.0
H1813 H 0.01182 0.48957 0.77561 0.0
H1814 H 0.0183 0.47497 0.77476 0.0
H1815 H 0.93831 0.44351 0.79217 0.0
H1816 H 0.95041 0.46534 0.79158 0.0
H1817 H 0.95258 0.45491 0.80832 0.0
H1818 H 0.01653 0.43155 0.8801 0.0
H1819 H 0.02287 0.45634 0.88053 0.0
H1820 H 0.97202 0.4348 0.88992 0.0
H1821 H 0.02717 0.48688 0.85519 0.0
H1822 H 0.03838 0.48163 0.86887 0.0
H1823 H 0.03198 0.4955 0.87538 0.0
H1824 H 0.95841 0.44936 0.88661 0.0
H1825 H 0.96416 0.45867 0.86696 0.0
H1826 H 0.97062 0.47114 0.88507 0.0
H1827 H 0.01501 0.58021 0.8766 0.0
H1828 H 0.03406 0.60929 0.87217 0.0
H1829 H 0.04213 0.59697 0.8651 0.0
H1830 H 0.04951 0.60843 0.88396 0.0
H1831 H 0.04781 0.56333 0.88319 0.0
H1832 H -0.00023 0.55488 0.88918 0.0
H1833 H 0.03771 0.52922 0.85863 0.0
H1834 H 0.03812 0.52346 0.87918 0.0
H1835 H 0.05298 0.54348 0.87271 0.0
H1836 H 0.97658 0.52845 0.88642 0.0
H1837 H 0.97927 0.51123 0.88386 0.0
H1838 H 0.97888 0.52196 0.86638 0.0
H1839 H 0.9832 0.49342 0.77681 0.0
H1840 H 0.98272 0.45705 0.8165 0.0
H1841 H 0.98859 0.45885 0.84497 0.0
H1842 H 0.00658 0.50072 0.88651 0.0
H1843 H 0.00713 0.53717 0.84658 0.0
H1844 H 0.00095 0.53521 0.8182 0.0
H1845 H 0.00176 0.4052 0.8649 0.0
H1846 H 0.99547 0.41918 0.85919 0.0
H1847 H 0.98268 0.40248 0.87203 0.0
C1848 C 0.5314 0.56803 0.72779 0.0
C1849 C 0.54099 0.58236 0.73977 0.0
C1850 C 0.52704 0.56771 0.76439 0.0
C1851 C 0.51347 0.56957 0.76361 0.0
C1852 C 0.49962 0.55979 0.77285 0.0
C1853 C 0.49925 0.54774 0.78282 0.0
C1854 C 0.51297 0.54592 0.78366 0.0
C1855 C 0.52682 0.55621 0.7747 0.0
C1856 C 0.48532 0.56225 0.77186 0.0
C1857 C 0.51294 0.53296 0.79379 0.0
C1858 C 0.38413 0.45414 0.75481 0.0
C1859 C 0.39832 0.45408 0.74624 0.0
C1860 C 0.42151 0.47025 0.76486 0.0
C1861 C 0.43241 0.46936 0.77539 0.0
C1862 C 0.44441 0.48312 0.78376 0.0
C1863 C 0.44524 0.49814 0.78187 0.0
C1864 C 0.43438 0.49923 0.77108 0.0
C1865 C 0.42273 0.4853 0.76252 0.0
C1866 C 0.45613 0.48153 0.7947 0.0
C1867 C 0.435 0.51507 0.76871 0.0
C1868 C 0.40873 0.48448 0.88415 0.0
C1869 C 0.41975 0.47981 0.87912 0.0
C1870 C 0.43432 0.49089 0.87156 0.0
C1871 C 0.4377 0.50682 0.86869 0.0
C1872 C 0.42681 0.51165 0.87426 0.0
C1873 C 0.41256 0.50045 0.88216 0.0
C1874 C 0.44599 0.4855 0.86648 0.0
C1875 C 0.43007 0.52856 0.8716 0.0
C1876 C 0.54889 0.61379 0.88392 0.0
C1877 C 0.54255 0.6028 0.89874 0.0
C1878 C 0.5227 0.57608 0.88686 0.0
C1879 C 0.52 0.56066 0.88311 0.0
C1880 C 0.50585 0.54905 0.87497 0.0
C1881 C 0.49413 0.55304 0.87043 0.0
C1882 C 0.49653 0.56846 0.87457 0.0
C1883 C 0.51079 0.57986 0.88277 0.0
C1884 C 0.50361 0.53264 0.87086 0.0
C1885 C 0.4842 0.57302 0.86992 0.0
C1886 C 0.48435 0.53674 0.79197 0.0
C1887 C 0.47165 0.52374 0.78342 0.0
C1888 C 0.45745 0.51261 0.7913 0.0
C1889 C 0.45566 0.51458 0.80814 0.0
C1890 C 0.44126 0.50402 0.81632 0.0
C1891 C 0.43999 0.50546 0.83307 0.0
C1892 C 0.45316 0.51737 0.84234 0.0
C1893 C 0.45239 0.51831 0.85952 0.0
C1894 C 0.4658 0.53021 0.86832 0.0
C1895 C 0.47994 0.54141 0.8604 0.0
C1896 C 0.48081 0.54089 0.84322 0.0
C1897 C 0.49472 0.55225 0.83486 0.0
C1898 C 0.49573 0.55122 0.81802 0.0
C1899 C 0.48303 0.53857 0.80894 0.0
C1900 C 0.46868 0.52733 0.81706 0.0
C1901 C 0.46751 0.5286 0.83421 0.0
C1902 C 0.3675 0.45454 0.8834 0.0
C1903 C 0.38453 0.45773 0.88698 0.0
O1904 O 0.54046 0.57656 0.75525 0.0
O1905 O 0.53704 0.58687 0.89413 0.0
O1906 O 0.3944 0.47399 0.89116 0.0
O1907 O 0.41005 0.45626 0.75748 0.0
H1908 H 0.53565 0.59025 0.73994 0.0
H1909 H 0.51857 0.56063 0.73161 0.0
H1910 H 0.53676 0.56016 0.72733 0.0
H1911 H 0.53134 0.57231 0.71534 0.0
H1912 H 0.51364 0.57866 0.7559 0.0
H1913 H 0.5374 0.55494 0.77524 0.0
H1914 H 0.47511 0.55165 0.76552 0.0
H1915 H 0.48822 0.57334 0.76516 0.0
H1916 H 0.48119 0.5631 0.7843 0.0
H1917 H 0.52356 0.5316 0.79121 0.0
H1918 H 0.5017 0.52111 0.79149 0.0
H1919 H 0.51325 0.5361 0.80691 0.0
H1920 H 0.4037 0.46396 0.73722 0.0
H1921 H 0.3746 0.45201 0.74577 0.0
H1922 H 0.38819 0.46597 0.761 0.0
H1923 H 0.37875 0.44457 0.76411 0.0
H1924 H 0.43147 0.45774 0.77701 0.0
H1925 H 0.41456 0.48629 0.75423 0.0
H1926 H 0.4532 0.48241 0.80763 0.0
H1927 H 0.46874 0.4915 0.79257 0.0
H1928 H 0.45556 0.46978 0.79276 0.0
H1929 H 0.42474 0.51361 0.76113 0.0
H1930 H 0.44652 0.5237 0.76266 0.0
H1931 H 0.43479 0.5205 0.7807 0.0
H1932 H 0.38886 0.45469 0.87561 0.0
H1933 H 0.41706 0.46759 0.88124 0.0
H1934 H 0.40407 0.50396 0.88637 0.0
H1935 H 0.4457 0.48407 0.85302 0.0
H1936 H 0.4429 0.47377 0.87192 0.0
H1937 H 0.45857 0.49478 0.87013 0.0
H1938 H 0.41978 0.53 0.8755 0.0
H1939 H 0.43249 0.5316 0.85852 0.0
H1940 H 0.44104 0.53739 0.87862 0.0
H1941 H 0.5325 0.60377 0.90435 0.0
H1942 H 0.55377 0.62662 0.88777 0.0
H1943 H 0.53899 0.61044 0.87497 0.0
H1944 H 0.55862 0.61271 0.87776 0.0
H1945 H 0.52919 0.55783 0.88639 0.0
H1946 H 0.51259 0.59169 0.88567 0.0
H1947 H 0.50338 0.53098 0.85742 0.0
H1948 H 0.4918 0.52296 0.87557 0.0
H1949 H 0.51343 0.53113 0.87603 0.0
H1950 H 0.4875 0.58527 0.8746 0.0
H1951 H 0.47213 0.56403 0.87476 0.0
H1952 H 0.48308 0.57276 0.85645 0.0
H1953 H 0.473 0.52204 0.77053 0.0
H1954 H 0.43085 0.49444 0.80985 0.0
H1955 H 0.42864 0.49693 0.8387 0.0
H1956 H 0.46528 0.53066 0.88151 0.0
H1957 H 0.50504 0.56204 0.84124 0.0
H1958 H 0.50673 0.56029 0.81225 0.0
H1959 H 0.36237 0.45713 0.8944 0.0
H1960 H 0.35933 0.44173 0.87943 0.0
H1961 H 0.36801 0.46246 0.87345 0.0
C1962 C 0.63692 0.74669 0.61653 0.0
C1963 C 0.62963 0.75578 0.60958 0.0
C1964 C 0.63081 0.77054 0.58521 0.0
C1965 C 0.61517 0.76824 0.58663 0.0
C1966 C 0.61009 0.77653 0.57663 0.0
C1967 C 0.62105 0.78782 0.56536 0.0
C1968 C 0.63687 0.79027 0.56399 0.0
C1969 C 0.64137 0.78127 0.57366 0.0
C1970 C 0.59306 0.77337 0.57834 0.0
C1971 C 0.64918 0.80261 0.55261 0.0
C1972 C 0.59067 0.87548 0.58806 0.0
C1973 C 0.60539 0.87729 0.59733 0.0
C1974 C 0.61451 0.86188 0.58049 0.0
C1975 C 0.62717 0.86355 0.57072 0.0
C1976 C 0.62664 0.85007 0.56325 0.0
C1977 C 0.61287 0.83451 0.56536 0.0
C1978 C 0.60012 0.83263 0.57553 0.0
C1979 C 0.60113 0.84634 0.58315 0.0
C1980 C 0.64069 0.85252 0.55284 0.0
C1981 C 0.5853 0.81619 0.57805 0.0
C1982 C 0.58798 0.84453 0.46353 0.0
C1983 C 0.60386 0.84965 0.46856 0.0
C1984 C 0.60749 0.83891 0.47619 0.0
C1985 C 0.59487 0.82286 0.47921 0.0
C1986 C 0.57894 0.81758 0.47368 0.0
C1987 C 0.57578 0.82845 0.46565 0.0
C1988 C 0.62479 0.84479 0.48116 0.0
C1989 C 0.56519 0.80057 0.47656 0.0
C1990 C 0.61143 0.72477 0.46993 0.0
C1991 C 0.6074 0.72885 0.45318 0.0
C1992 C 0.61132 0.75574 0.46017 0.0
C1993 C 0.62311 0.77216 0.46074 0.0
C1994 C 0.62069 0.78333 0.46963 0.0
C1995 C 0.60587 0.77793 0.47784 0.0
C1996 C 0.59354 0.76141 0.47671 0.0
C1997 C 0.59645 0.75042 0.46804 0.0
C1998 C 0.6341 0.80087 0.47047 0.0
C1999 C 0.57737 0.75536 0.48483 0.0
C2000 C 0.61626 0.79779 0.5559 0.0
C2001 C 0.61593 0.81047 0.56419 0.0
C2002 C 0.61157 0.82042 0.55624 0.0
C2003 C 0.60726 0.81767 0.53955 0.0
C2004 C 0.60235 0.82718 0.53133 0.0
C2005 C 0.59901 0.82502 0.51471 0.0
C2006 C 0.60061 0.81337 0.50563 0.0
C2007 C 0.59824 0.81178 0.48854 0.0
C2008 C 0.59965 0.79988 0.47993 0.0
C2009 C 0.60351 0.78954 0.48791 0.0
C2010 C 0.60607 0.79104 0.50498 0.0
C2011 C 0.61007 0.78091 0.51341 0.0
C2012 C 0.61294 0.78276 0.53016 0.0
C2013 C 0.61242 0.79514 0.53904 0.0
C2014 C 0.60806 0.80524 0.53084 0.0
C2015 C 0.60479 0.80313 0.51382 0.0
C2016 C 0.57644 0.87408 0.46252 0.0
C2017 C 0.59046 0.87094 0.46062 0.0
O2018 O 0.63615 0.76275 0.59473 0.0
O2019 O 0.61496 0.74555 0.45208 0.0
O2020 O 0.58405 0.85472 0.45647 0.0
O2021 O 0.61574 0.87565 0.58674 0.0
H2022 H 0.62859 0.7643 0.61822 0.0
H2023 H 0.64326 0.75359 0.62803 0.0
H2024 H 0.64846 0.75051 0.60966 0.0
H2025 H 0.61752 0.72268 0.61659 0.0
H2026 H 0.60681 0.75992 0.59544 0.0
H2027 H 0.6534 0.78296 0.57263 0.0
H2028 H 0.59343 0.78374 0.58494 0.0
H2029 H 0.58519 0.7622 0.58523 0.0
H2030 H 0.58749 0.77222 0.56617 0.0
H2031 H 0.66163 0.80517 0.55523 0.0
H2032 H 0.64916 0.81414 0.55351 0.0
H2033 H 0.64603 0.79798 0.53987 0.0
H2034 H 0.60119 0.86791 0.60685 0.0
H2035 H 0.58266 0.87727 0.59655 0.0
H2036 H 0.58349 0.86321 0.58243 0.0
H2037 H 0.59457 0.88448 0.57822 0.0
H2038 H 0.63749 0.87557 0.56886 0.0
H2039 H 0.59132 0.84481 0.59087 0.0
H2040 H 0.63693 0.8505 0.53983 0.0
H2041 H 0.64434 0.84363 0.55597 0.0
H2042 H 0.65137 0.86494 0.55432 0.0
H2043 H 0.57607 0.81683 0.58569 0.0
H2044 H 0.5889 0.80822 0.58403 0.0
H2045 H 0.57973 0.81049 0.56609 0.0
H2046 H 0.59681 0.87379 0.47265 0.0
H2047 H 0.61343 0.86198 0.46641 0.0
H2048 H 0.56361 0.8246 0.46146 0.0
H2049 H 0.62608 0.84681 0.49456 0.0
H2050 H 0.63348 0.85636 0.47528 0.0
H2051 H 0.62811 0.83558 0.47796 0.0
H2052 H 0.55328 0.7988 0.47275 0.0
H2053 H 0.56465 0.7977 0.48967 0.0
H2054 H 0.56733 0.79184 0.46959 0.0
H2055 H 0.59407 0.72323 0.45179 0.0
H2056 H 0.60402 0.71161 0.47225 0.0
H2057 H 0.60871 0.73101 0.47985 0.0
H2058 H 0.62449 0.7287 0.47072 0.0
H2059 H 0.63447 0.77615 0.4545 0.0
H2060 H 0.58709 0.73777 0.46752 0.0
H2061 H 0.63693 0.8051 0.48337 0.0
H2062 H 0.63004 0.80843 0.46438 0.0
H2063 H 0.64535 0.80286 0.46448 0.0
H2064 H 0.56839 0.74268 0.48111 0.0
H2065 H 0.57243 0.76323 0.48181 0.0
H2066 H 0.57899 0.75589 0.49825 0.0
H2067 H 0.61935 0.81278 0.57698 0.0
H2068 H 0.60113 0.8365 0.53763 0.0
H2069 H 0.59538 0.83277 0.50904 0.0
H2070 H 0.59801 0.79884 0.4668 0.0
H2071 H 0.61106 0.77143 0.50717 0.0
H2072 H 0.61586 0.77455 0.536 0.0
H2073 H 0.56974 0.87168 0.4508 0.0
H2074 H 0.58099 0.88682 0.46651 0.0
H2075 H 0.5679 0.86599 0.47187 0.0
C2076 C 0.12608 0.71641 0.6233 0.0
C2077 C 0.12354 0.72903 0.61492 0.0
C2078 C 0.13587 0.74227 0.58969 0.0
C2079 C 0.13277 0.75501 0.58955 0.0
C2080 C 0.14253 0.76893 0.58049 0.0
C2081 C 0.15595 0.77027 0.57183 0.0
C2082 C 0.15914 0.7574 0.57214 0.0
C2083 C 0.14873 0.74336 0.58072 0.0
C2084 C 0.13854 0.78221 0.5803 0.0
C2085 C 0.17366 0.75851 0.5637 0.0
C2086 C 0.25859 0.89544 0.60434 0.0
C2087 C 0.25045 0.87907 0.5965 0.0
C2088 C 0.22327 0.85591 0.59199 0.0
C2089 C 0.22808 0.84554 0.58514 0.0
C2090 C 0.21686 0.83119 0.57689 0.0
C2091 C 0.2006 0.82738 0.5751 0.0
C2092 C 0.19562 0.83755 0.58249 0.0
C2093 C 0.20702 0.85158 0.59106 0.0
C2094 C 0.22248 0.82032 0.56976 0.0
C2095 C 0.17839 0.83385 0.58094 0.0
C2096 C 0.23252 0.85753 0.47458 0.0
C2097 C 0.23399 0.84416 0.47857 0.0
C2098 C 0.22087 0.83021 0.48511 0.0
C2099 C 0.20589 0.82945 0.48743 0.0
C2100 C 0.2042 0.84264 0.4829 0.0
C2101 C 0.2176 0.85656 0.47664 0.0
C2102 C 0.22317 0.81644 0.49 0.0
C2103 C 0.18839 0.84221 0.48516 0.0
C2104 C 0.11451 0.70287 0.458 0.0
C2105 C 0.11577 0.7194 0.45758 0.0
C2106 C 0.14069 0.74478 0.46438 0.0
C2107 C 0.15692 0.75002 0.46754 0.0
C2108 C 0.16653 0.76385 0.47724 0.0
C2109 C 0.15986 0.77305 0.48339 0.0
C2110 C 0.14359 0.76821 0.47955 0.0
C2111 C 0.13408 0.75397 0.47024 0.0
C2112 C 0.18384 0.76859 0.48084 0.0
C2113 C 0.13626 0.77807 0.48526 0.0
C2114 C 0.16696 0.78531 0.56295 0.0
C2115 C 0.17792 0.79899 0.57216 0.0
C2116 C 0.1891 0.81337 0.56466 0.0
C2117 C 0.18951 0.81419 0.54746 0.0
C2118 C 0.20065 0.82844 0.53953 0.0
C2119 C 0.20158 0.8289 0.52264 0.0
C2120 C 0.19117 0.81522 0.51298 0.0
C2121 C 0.19249 0.81541 0.49583 0.0
C2122 C 0.18178 0.80172 0.48653 0.0
C2123 C 0.16991 0.78758 0.49395 0.0
C2124 C 0.16864 0.78707 0.51116 0.0
C2125 C 0.15713 0.77298 0.51911 0.0
C2126 C 0.15626 0.7725 0.53604 0.0
C2127 C 0.16714 0.78595 0.54572 0.0
C2128 C 0.1786 0.80038 0.53797 0.0
C2129 C 0.17936 0.80094 0.52068 0.0
C2130 C 0.27119 0.87924 0.48024 0.0
C2131 C 0.2605 0.8749 0.46488 0.0
O2132 O 0.12663 0.72883 0.59845 0.0
O2133 O 0.13191 0.73103 0.45531 0.0
O2134 O 0.24515 0.87166 0.46911 0.0
O2135 O 0.23394 0.87021 0.59943 0.0
H2136 H 0.1324 0.74107 0.62048 0.0
H2137 H 0.13868 0.71915 0.62129 0.0
H2138 H 0.11755 0.70409 0.61827 0.0
H2139 H 0.12415 0.71659 0.63663 0.0
H2140 H 0.12262 0.75397 0.59639 0.0
H2141 H 0.15095 0.73338 0.58094 0.0
H2142 H 0.14749 0.79257 0.58798 0.0
H2143 H 0.12624 0.77813 0.58511 0.0
H2144 H 0.13932 0.78662 0.56773 0.0
H2145 H 0.17621 0.7491 0.56787 0.0
H2146 H 0.18462 0.77061 0.56588 0.0
H2147 H 0.17136 0.75682 0.55037 0.0
H2148 H 0.25351 0.87879 0.58341 0.0
H2149 H 0.27431 0.89456 0.62134 0.0
H2150 H 0.24873 0.89795 0.60793 0.0
H2151 H 0.26301 0.90406 0.5939 0.0
H2152 H 0.24058 0.8486 0.58618 0.0
H2153 H 0.2034 0.85958 0.59658 0.0
H2154 H 0.2136 0.80744 0.57234 0.0
H2155 H 0.23453 0.82339 0.57463 0.0
H2156 H 0.2234 0.8216 0.55633 0.0
H2157 H 0.17671 0.84351 0.58652 0.0
H2158 H 0.17014 0.82227 0.58702 0.0
H2159 H 0.17477 0.83232 0.5679 0.0
H2160 H 0.2598 0.86403 0.459 0.0
H2161 H 0.24537 0.84457 0.477 0.0
H2162 H 0.21653 0.86688 0.47348 0.0
H2163 H 0.22095 0.81432 0.50325 0.0
H2164 H 0.23554 0.81882 0.4873 0.0
H2165 H 0.21422 0.80516 0.48345 0.0
H2166 H 0.18867 0.85294 0.47995 0.0
H2167 H 0.18567 0.84179 0.49836 0.0
H2168 H 0.17836 0.83108 0.4793 0.0
H2169 H 0.11148 0.72133 0.46958 0.0
H2170 H 0.10199 0.69315 0.46092 0.0
H2171 H 0.12276 0.70303 0.46758 0.0
H2172 H 0.11804 0.69998 0.44607 0.0
H2173 H 0.16193 0.74294 0.46269 0.0
H2174 H 0.12162 0.75017 0.46732 0.0
H2175 H 0.18691 0.77212 0.49388 0.0
H2176 H 0.19205 0.77918 0.47341 0.0
H2177 H 0.18617 0.75864 0.47783 0.0
H2178 H 0.12433 0.77398 0.47937 0.0
H2179 H 0.14456 0.79107 0.48264 0.0
H2180 H 0.13453 0.77701 0.49864 0.0
H2181 H 0.17788 0.79838 0.58534 0.0
H2182 H 0.20897 0.83938 0.54627 0.0
H2183 H 0.21062 0.84014 0.51728 0.0
H2184 H 0.183 0.80192 0.47338 0.0
H2185 H 0.14869 0.76211 0.51234 0.0
H2186 H 0.14709 0.76135 0.54145 0.0
H2187 H 0.27125 0.88925 0.4873 0.0
H2188 H 0.28378 0.88277 0.47688 0.0
H2189 H 0.2665 0.86868 0.48832 0.0
C2190 C 0.14056 0.3632 0.62469 0.0
C2191 C 0.13317 0.37151 0.61515 0.0
C2192 C 0.14604 0.37277 0.58912 0.0
C2193 C 0.15898 0.38884 0.5893 0.0
C2194 C 0.17269 0.39342 0.57962 0.0
C2195 C 0.17358 0.38158 0.56986 0.0
C2196 C 0.16044 0.36537 0.56963 0.0
C2197 C 0.14666 0.3613 0.57898 0.0
C2198 C 0.18625 0.41088 0.5799 0.0
C2199 C 0.16103 0.35223 0.55982 0.0
C2200 C 0.27569 0.40987 0.63109 0.0
C2201 C 0.26488 0.39632 0.61897 0.0
C2202 C 0.25547 0.39952 0.5927 0.0
C2203 C 0.24243 0.38376 0.58993 0.0
C2204 C 0.22986 0.3808 0.57913 0.0
C2205 C 0.23017 0.39398 0.57131 0.0
C2206 C 0.24344 0.4099 0.57403 0.0
C2207 C 0.25614 0.41238 0.58439 0.0
C2208 C 0.21616 0.36363 0.57626 0.0
C2209 C 0.24403 0.42437 0.56639 0.0
C2210 C 0.26166 0.40376 0.46694 0.0
C2211 C 0.25049 0.38794 0.47173 0.0
C2212 C 0.23604 0.38444 0.47953 0.0
C2213 C 0.23287 0.39709 0.4828 0.0
C2214 C 0.24393 0.41295 0.47753 0.0
C2215 C 0.25807 0.41599 0.46943 0.0
C2216 C 0.22424 0.36728 0.48441 0.0
C2217 C 0.24094 0.42673 0.48064 0.0
C2218 C 0.12899 0.40293 0.46743 0.0
C2219 C 0.13265 0.39433 0.45354 0.0
C2220 C 0.14955 0.38497 0.46637 0.0
C2221 C 0.15 0.37123 0.47075 0.0
C2222 C 0.16372 0.37254 0.47834 0.0
C2223 C 0.17723 0.38807 0.4819 0.0
C2224 C 0.17705 0.40205 0.47715 0.0
C2225 C 0.16329 0.40037 0.46929 0.0
C2226 C 0.16362 0.35736 0.48293 0.0
C2227 C 0.19127 0.41879 0.48074 0.0
C2228 C 0.1885 0.38594 0.56049 0.0
C2229 C 0.20203 0.38813 0.56912 0.0
C2230 C 0.21618 0.39124 0.56111 0.0
C2231 C 0.21681 0.39186 0.5439 0.0
C2232 C 0.23057 0.39427 0.53538 0.0
C2233 C 0.23115 0.39509 0.51846 0.0
C2234 C 0.21787 0.39325 0.50937 0.0
C2235 C 0.21828 0.39392 0.49215 0.0
C2236 C 0.20484 0.39206 0.48353 0.0
C2237 C 0.19101 0.3897 0.49167 0.0
C2238 C 0.19042 0.38908 0.50888 0.0
C2239 C 0.17677 0.38695 0.51745 0.0
C2240 C 0.17616 0.38606 0.53435 0.0
C2241 C 0.18919 0.38729 0.54335 0.0
C2242 C 0.20329 0.38998 0.53501 0.0
C2243 C 0.20385 0.39074 0.51774 0.0
C2244 C 0.30266 0.41521 0.46734 0.0
C2245 C 0.28557 0.40122 0.4633 0.0
O2246 O 0.13282 0.36794 0.59864 0.0
O2247 O 0.13555 0.38272 0.45973 0.0
O2248 O 0.27588 0.40762 0.4597 0.0
O2249 O 0.26743 0.40269 0.60351 0.0
H2250 H 0.14065 0.38482 0.61731 0.0
H2251 H 0.1532 0.36769 0.6207 0.0
H2252 H 0.13336 0.34987 0.6226 0.0
H2253 H 0.14092 0.36589 0.63795 0.0
H2254 H 0.15832 0.39786 0.59682 0.0
H2255 H 0.13653 0.34894 0.57889 0.0
H2256 H 0.19682 0.41198 0.58657 0.0
H2257 H 0.18264 0.41898 0.58598 0.0
H2258 H 0.19019 0.4151 0.5673 0.0
H2259 H 0.15109 0.33994 0.56307 0.0
H2260 H 0.1728 0.35289 0.56172 0.0
H2261 H 0.15988 0.35393 0.54666 0.0
H2262 H 0.25209 0.39177 0.62269 0.0
H2263 H 0.27364 0.40517 0.64368 0.0
H2264 H 0.27277 0.41965 0.63073 0.0
H2265 H 0.28869 0.41508 0.62801 0.0
H2266 H 0.24213 0.37377 0.59618 0.0
H2267 H 0.26634 0.42449 0.5866 0.0
H2268 H 0.21322 0.3612 0.56306 0.0
H2269 H 0.20517 0.36188 0.58261 0.0
H2270 H 0.21911 0.35464 0.5809 0.0
H2271 H 0.2538 0.43599 0.57177 0.0
H2272 H 0.23227 0.42383 0.56791 0.0
H2273 H 0.24628 0.42431 0.55314 0.0
H2274 H 0.28109 0.39361 0.47434 0.0
H2275 H 0.25298 0.37831 0.46925 0.0
H2276 H 0.26667 0.4281 0.46541 0.0
H2277 H 0.22412 0.36652 0.49789 0.0
H2278 H 0.22745 0.35854 0.4792 0.0
H2279 H 0.21178 0.36366 0.48036 0.0
H2280 H 0.25147 0.43861 0.47721 0.0
H2281 H 0.23824 0.42732 0.49371 0.0
H2282 H 0.23024 0.42459 0.47344 0.0
H2283 H 0.14355 0.4037 0.44708 0.0
H2284 H 0.12461 0.4107 0.46244 0.0
H2285 H 0.14009 0.41082 0.47473 0.0
H2286 H 0.11979 0.39401 0.47582 0.0
H2287 H 0.13944 0.35939 0.46835 0.0
H2288 H 0.16332 0.41117 0.46581 0.0
H2289 H 0.16322 0.35638 0.49639 0.0
H2290 H 0.17492 0.35795 0.47874 0.0
H2291 H 0.15304 0.34627 0.47764 0.0
H2292 H 0.18902 0.42848 0.47682 0.0
H2293 H 0.20215 0.4203 0.47436 0.0
H2294 H 0.19401 0.42034 0.49401 0.0
H2295 H 0.20151 0.38732 0.5823 0.0
H2296 H 0.24107 0.39558 0.54169 0.0
H2297 H 0.24213 0.39713 0.5126 0.0
H2298 H 0.20522 0.3926 0.47034 0.0
H2299 H 0.16634 0.38589 0.51121 0.0
H2300 H 0.16534 0.38438 0.54028 0.0
H2301 H 0.31068 0.41052 0.47074 0.0
H2302 H 0.30221 0.42247 0.4778 0.0
H2303 H 0.30792 0.42325 0.45672 0.0
C2304 C 0.98529 0.36506 0.05435 0.0
C2305 C 0.00017 0.36852 0.0477 0.0
C2306 C 0.98452 0.37559 0.06593 0.0
C2307 C -0.001 0.38971 0.0711 0.0
C2308 C 0.01407 0.39296 0.06477 0.0
C2309 C 0.01445 0.3824 0.05304 0.0
C2310 C 0.96823 0.37188 0.07227 0.0
C2311 C 0.0298 0.40773 0.0702 0.0
C2312 C -0.00039 0.42716 0.0873 0.0
C2313 C 0.00099 0.42593 0.10417 0.0
C2314 C -0.00194 0.41498 0.07649 0.0
C2315 C -0.00153 0.40153 0.08261 0.0
C2316 C -0.00029 0.40011 0.09959 0.0
C2317 C 0.00083 0.41228 0.11017 0.0
C2318 C -0.00348 0.41679 0.05845 0.0
C2319 C 0.00058 0.38613 0.10654 0.0
H2320 H 0.97423 0.35435 0.0502 0.0
H2321 H 0.02599 0.38503 0.04803 0.0
H2322 H 0.96817 0.37168 0.08577 0.0
H2323 H 0.96586 0.38156 0.06866 0.0
H2324 H 0.95819 0.36007 0.06754 0.0
H2325 H 0.04055 0.40796 0.06484 0.0
H2326 H 0.02993 0.41886 0.06658 0.0
H2327 H 0.03093 0.40814 0.08367 0.0
H2328 H -3e-05 0.43776 0.08247 0.0
H2329 H 0.00211 0.41141 0.12318 0.0
H2330 H 0.98619 0.40552 0.05317 0.0
H2331 H 0.00764 0.41884 0.05216 0.0
H2332 H 0.99472 0.42706 0.05582 0.0
H2333 H 0.99029 0.37444 0.10198 0.0
H2334 H 0.00043 0.38624 0.12007 0.0
H2335 H 0.01189 0.38671 0.10244 0.0
C2336 C 0.63874 0.61417 0.05893 0.0
C2337 C 0.62718 0.61406 0.04844 0.0
C2338 C 0.63412 0.6024 0.07094 0.0
C2339 C 0.61765 0.59004 0.07217 0.0
C2340 C 0.60603 0.58962 0.06127 0.0
C2341 C 0.61091 0.60175 0.04968 0.0
C2342 C 0.64679 0.60343 0.08257 0.0
C2343 C 0.58841 0.57642 0.06194 0.0
C2344 C 0.60619 0.55125 0.09427 0.0
C2345 C 0.60016 0.55361 0.109 0.0
C2346 C 0.61219 0.56312 0.08227 0.0
C2347 C 0.61235 0.57778 0.08515 0.0
C2348 C 0.60664 0.58039 0.10015 0.0
C2349 C 0.60047 0.56822 0.11181 0.0
C2350 C 0.61798 0.55981 0.06634 0.0
C2351 C 0.60681 0.59594 0.10377 0.0
H2352 H 0.65131 0.62373 0.05805 0.0
H2353 H 0.60196 0.60153 0.04147 0.0
H2354 H 0.64378 0.60519 0.09522 0.0
H2355 H 0.64689 0.59193 0.0822 0.0
H2356 H 0.65914 0.61354 0.07973 0.0
H2357 H 0.58109 0.57731 0.052 0.0
H2358 H 0.5873 0.56435 0.06106 0.0
H2359 H 0.58319 0.57711 0.07378 0.0
H2360 H 0.60598 0.53999 0.09204 0.0
H2361 H 0.59574 0.57005 0.12313 0.0
H2362 H 0.63057 0.56961 0.06392 0.0
H2363 H 0.61028 0.55965 0.0562 0.0
H2364 H 0.6176 0.54806 0.06625 0.0
H2365 H 0.61914 0.6065 0.10189 0.0
H2366 H 0.60301 0.59653 0.11643 0.0
H2367 H 0.59851 0.59707 0.09524 0.0
C2368 C 0.36748 0.00513 0.05819 0.0
C2369 C 0.37087 -0.00014 0.0435 0.0
C2370 C 0.37701 0.00771 0.07216 0.0
C2371 C 0.39046 0.00542 0.07118 0.0
C2372 C 0.39432 0.00085 0.05612 0.0
C2373 C 0.38431 -0.00214 0.04253 0.0
C2374 C 0.37232 0.01223 0.0881 0.0
C2375 C 0.40885 -0.00121 0.05442 0.0
C2376 C 0.42371 0.02368 0.10337 0.0
C2377 C 0.42036 0.01003 0.11233 0.0
C2378 C 0.41387 0.02244 0.09017 0.0
C2379 C 0.40023 0.00722 0.08593 0.0
C2380 C 0.39655 0.99345 0.09516 0.0
C2381 C 0.40677 0.99498 0.10813 0.0
C2382 C 0.41838 0.03734 0.08044 0.0
C2383 C 0.382 0.97703 0.09111 0.0
H2384 H 0.35698 0.00653 0.05891 0.0
H2385 H 0.38698 0.9939 0.0311 0.0
H2386 H 0.36872 0.00233 0.09687 0.0
H2387 H 0.38281 0.02327 0.09352 0.0
H2388 H 0.36209 0.01441 0.08663 0.0
H2389 H 0.41095 0.99655 0.04157 0.0
H2390 H 0.41991 0.00975 0.05914 0.0
H2391 H 0.40706 0.98843 0.06177 0.0
H2392 H 0.43423 0.03533 0.10652 0.0
H2393 H 0.40422 0.98438 0.11492 0.0
H2394 H 0.40796 0.03927 0.07965 0.0
H2395 H 0.42145 0.0356 0.06781 0.0
H2396 H 0.42889 0.04842 0.08583 0.0
H2397 H 0.37092 0.97788 0.09038 0.0
H2398 H 0.38007 0.96785 0.10026 0.0
H2399 H 0.38362 0.97274 0.07901 0.0
C2400 C 0.35916 0.98848 0.94611 0.0
C2401 C 0.3667 0.9943 0.96131 0.0
C2402 C 0.36819 0.98899 0.93243 0.0
C2403 C 0.38501 0.995 0.9342 0.0
C2404 C 0.39247 8e-05 0.94974 0.0
C2405 C 0.38326 -7e-05 0.96308 0.0
C2406 C 0.35991 0.98382 0.91598 0.0
C2407 C 0.41027 0.00609 0.95221 0.0
C2408 C 0.40705 0.98658 0.90055 0.0
C2409 C 0.41488 0.00142 0.89254 0.0
C2410 C 0.39719 0.98423 0.91408 0.0
C2411 C 0.39504 0.99703 0.91966 0.0
C2412 C 0.40293 0.01205 0.91168 0.0
C2413 C 0.41302 0.01417 0.89843 0.0
C2414 C 0.38935 0.96821 0.92261 0.0
C2415 C 0.40086 0.02596 0.91723 0.0
H2416 H 0.34635 0.98422 0.94477 0.0
H2417 H 0.38904 0.00427 0.97491 0.0
H2418 H 0.36506 0.9944 0.90786 0.0
H2419 H 0.36214 0.97463 0.91017 0.0
H2420 H 0.34662 0.97871 0.9168 0.0
H2421 H 0.41378 0.00794 0.9653 0.0
H2422 H 0.41335 0.99736 0.94675 0.0
H2423 H 0.41765 0.01776 0.94596 0.0
H2424 H 0.40886 0.97685 0.89635 0.0
H2425 H 0.41949 0.02588 0.89277 0.0
H2426 H 0.37602 0.96282 0.92292 0.0
H2427 H 0.39368 0.97012 0.93543 0.0
H2428 H 0.39206 0.95942 0.91658 0.0
H2429 H 0.38779 0.02197 0.91775 0.0
H2430 H 0.40698 0.03648 0.90905 0.0
H2431 H 0.40592 0.03001 0.9297 0.0
C2432 C 0.00996 0.36527 0.95187 0.0
C2433 C 0.00746 0.37063 0.96696 0.0
C2434 C 0.01131 0.37379 0.93763 0.0
C2435 C 0.01045 0.38808 0.93871 0.0
C2436 C 0.00923 0.39415 0.95415 0.0
C2437 C 0.00752 0.38522 0.96806 0.0
C2438 C 0.01243 0.36686 0.92136 0.0
C2439 C 0.00864 0.40952 0.9559 0.0
C2440 C 0.02131 0.41672 0.90338 0.0
C2441 C 0.00591 0.41265 0.89756 0.0
C2442 C 0.02305 0.40848 0.91643 0.0
C2443 C 0.00905 0.39581 0.92376 0.0
C2444 C 0.99349 0.39135 0.91766 0.0
C2445 C 0.99211 0.39995 0.90477 0.0
C2446 C 0.03981 0.41375 0.92277 0.0
C2447 C 0.97826 0.37782 0.92509 0.0
H2448 H 0.00971 0.35387 0.95104 0.0
H2449 H 0.00561 0.38934 0.97979 0.0
H2450 H 0.00072 0.36187 0.91475 0.0
H2451 H 0.0219 0.37644 0.91373 0.0
H2452 H 0.01517 0.35701 0.92272 0.0
H2453 H 0.00979 0.41366 0.96882 0.0
H2454 H 0.01847 0.41936 0.94881 0.0
H2455 H -0.00305 0.40742 0.95099 0.0
H2456 H 0.03201 0.4266 0.89792 0.0
H2457 H 0.9802 0.39689 0.90046 0.0
H2458 H 0.04147 0.40318 0.92365 0.0
H2459 H 0.04134 0.41905 0.93523 0.0
H2460 H 0.04946 0.4229 0.91491 0.0
H2461 H 0.97902 0.36671 0.92577 0.0
H2462 H 0.96721 0.37494 0.91804 0.0
H2463 H 0.97696 0.3813 0.93772 0.0
C2464 C 0.60611 0.61832 0.97031 0.0
C2465 C 0.61914 0.63429 0.97025 0.0
C2466 C 0.5936 0.61286 0.95869 0.0
C2467 C 0.59452 0.6235 0.94646 0.0
C2468 C 0.60801 0.63948 0.94604 0.0
C2469 C 0.62002 0.64478 0.95816 0.0
C2470 C 0.57919 0.59589 0.95978 0.0
C2471 C 0.60967 0.65101 0.9329 0.0
C2472 C 0.56879 0.60529 0.90829 0.0
C2473 C 0.55598 0.60806 0.91123 0.0
C2474 C 0.58142 0.61024 0.91966 0.0
C2475 C 0.58119 0.61808 0.93433 0.0
C2476 C 0.56832 0.62094 0.93735 0.0
C2477 C 0.55592 0.61598 0.92571 0.0
C2478 C 0.59505 0.60718 0.91592 0.0
C2479 C 0.56764 0.62922 0.95291 0.0
H2480 H 0.6054 0.61029 0.97981 0.0
H2481 H 0.6302 0.65712 0.95812 0.0
H2482 H 0.56797 0.59638 0.96148 0.0
H2483 H 0.57772 0.58904 0.94826 0.0
H2484 H 0.58034 0.58914 0.97002 0.0
H2485 H 0.62139 0.66267 0.93374 0.0
H2486 H 0.60874 0.64541 0.9207 0.0
H2487 H 0.59967 0.65358 0.9338 0.0
H2488 H 0.56892 0.59927 0.89704 0.0
H2489 H 0.54612 0.61826 0.92794 0.0
H2490 H 0.5958 0.59955 0.92544 0.0
H2491 H 0.60678 0.61882 0.91604 0.0
H2492 H 0.59348 0.60106 0.90388 0.0
H2493 H 0.56791 0.62245 0.96359 0.0
H2494 H 0.55659 0.63015 0.95357 0.0
H2495 H 0.57843 0.64159 0.95387 0.0
C2496 C 0.99136 0.6078 0.96567 0.0
C2497 C -0.00244 0.62452 0.96739 0.0
C2498 C 0.99598 0.60145 0.95264 0.0
C2499 C 0.00686 0.61203 0.94089 0.0
C2500 C 0.01317 0.62892 0.94254 0.0
C2501 C 0.00855 0.63498 0.95587 0.0
C2502 C 0.98919 0.58339 0.95142 0.0
C2503 C 0.02462 0.64054 0.9301 0.0
C2504 C 0.0296 0.59755 0.91435 0.0
C2505 C 0.02018 0.59261 0.90004 0.0
C2506 C 0.02534 0.6038 0.92778 0.0
C2507 C 0.01149 0.60537 0.92678 0.0
C2508 C 0.00201 0.60052 0.91233 0.0
C2509 C 0.00649 0.59421 0.89912 0.0
C2510 C 0.03571 0.6088 0.94301 0.0
C2511 C 0.98722 0.60212 0.91077 0.0
H2512 H 0.98295 0.59966 0.97461 0.0
H2513 H 0.01331 0.6479 0.95709 0.0
H2514 H 0.98207 0.57845 0.93997 0.0
H2515 H -0.00078 0.58083 0.95097 0.0
H2516 H 0.98124 0.57688 0.96184 0.0
H2517 H 0.02851 0.65333 0.9332 0.0
H2518 H 0.03555 0.63944 0.92913 0.0
H2519 H 0.01868 0.63746 0.91793 0.0
H2520 H 0.04037 0.59663 0.91496 0.0
H2521 H -0.00062 0.59067 0.88796 0.0
H2522 H 0.02822 0.60209 0.95359 0.0
H2523 H 0.04075 0.62188 0.94567 0.0
H2524 H 0.04592 0.60651 0.94192 0.0
H2525 H 0.97834 0.59504 0.92034 0.0
H2526 H 0.98119 0.59783 0.89868 0.0
H2527 H 0.99068 0.61496 0.91263 0.0
C2528 C 0.35412 0.39548 0.9588 0.0
C2529 C 0.36494 0.3909 0.96443 0.0
C2530 C 0.3584 0.40655 0.94617 0.0
C2531 C 0.37401 0.41346 0.93921 0.0
C2532 C 0.38508 0.40905 0.94498 0.0
C2533 C 0.38036 0.3977 0.95744 0.0
C2534 C 0.34613 0.41072 0.94016 0.0
C2535 C 0.40191 0.41636 0.93804 0.0
C2536 C 0.3783 0.43055 0.89698 0.0
C2537 C 0.38389 0.44691 0.90054 0.0
C2538 C 0.37549 0.4196 0.9094 0.0
C2539 C 0.37857 0.4252 0.9258 0.0
C2540 C 0.38487 0.44183 0.92946 0.0
C2541 C 0.3872 0.45245 0.91682 0.0
C2542 C 0.36849 0.40191 0.90501 0.0
C2543 C 0.3886 0.44831 0.94678 0.0
H2544 H 0.34215 0.3902 0.96408 0.0
H2545 H 0.3888 0.39424 0.9618 0.0
H2546 H 0.35095 0.4239 0.9418 0.0
H2547 H 0.34385 0.40784 0.92694 0.0
H2548 H 0.33441 0.40405 0.94666 0.0
H2549 H 0.40919 0.41191 0.94411 0.0
H2550 H 0.40118 0.41345 0.92482 0.0
H2551 H 0.40837 0.42975 0.93938 0.0
H2552 H 0.37554 0.42621 0.88444 0.0
H2553 H 0.39133 0.46501 0.91976 0.0
H2554 H 0.35615 0.39472 0.91017 0.0
H2555 H 0.37599 0.39738 0.91038 0.0
H2556 H 0.36769 0.39968 0.89163 0.0
H2557 H 0.37716 0.44346 0.95371 0.0
H2558 H 0.39502 0.46175 0.94741 0.0
H2559 H 0.39617 0.44426 0.95291 0.0
C2560 C 0.6235 0.9817 0.95351 0.0
C2561 C 0.6227 0.99142 0.96599 0.0
C2562 C 0.61329 0.97722 0.93976 0.0
C2563 C 0.60185 0.98233 0.93868 0.0
C2564 C 0.60055 0.99156 0.95159 0.0
C2565 C 0.61109 0.99611 0.965 0.0
C2566 C 0.61514 0.96752 0.92614 0.0
C2567 C 0.58831 0.99698 0.95105 0.0
C2568 C 0.58721 0.98697 0.89736 0.0
C2569 C 0.57181 0.97301 0.89625 0.0
C2570 C 0.59722 0.99 0.911 0.0
C2571 C 0.59171 0.97874 0.92377 0.0
C2572 C 0.57627 0.96448 0.9226 0.0
C2573 C 0.56651 0.96177 0.90882 0.0
C2574 C 0.61362 0.00534 0.9118 0.0
C2575 C 0.56999 0.95221 0.93598 0.0
H2576 H 0.63251 0.97812 0.95421 0.0
H2577 H 0.6103 0.00348 0.97472 0.0
H2578 H 0.60327 0.9566 0.92313 0.0
H2579 H 0.6194 0.97491 0.91501 0.0
H2580 H 0.6239 0.96367 0.92927 0.0
H2581 H 0.58812 0.00315 0.96256 0.0
H2582 H 0.59117 0.00546 0.94088 0.0
H2583 H 0.57599 0.98644 0.94872 0.0
H2584 H 0.59141 0.99556 0.88756 0.0
H2585 H 0.5547 0.95085 0.90786 0.0
H2586 H 0.62325 0.00236 0.91365 0.0
H2587 H 0.61415 0.01297 0.92236 0.0
H2588 H 0.61634 0.01255 0.90058 0.0
H2589 H 0.57864 0.94803 0.93832 0.0
H2590 H 0.55795 0.94149 0.93295 0.0
H2591 H 0.56897 0.95789 0.94746 0.0
C2592 C 0.64552 0.01944 0.0604 0.0
C2593 C 0.63598 0.00694 0.04923 0.0
C2594 C 0.63844 0.0229 0.07367 0.0
C2595 C 0.6214 0.01384 0.07557 0.0
C2596 C 0.61171 0.00124 0.06427 0.0
C2597 C 0.61914 -0.00217 0.05132 0.0
C2598 C 0.6492 0.03622 0.08566 0.0
C2599 C 0.59349 0.99151 0.06574 0.0
C2600 C 0.60414 0.01385 0.11723 0.0
C2601 C 0.59996 0.02576 0.11554 0.0
C2602 C 0.61099 0.00972 0.10427 0.0
C2603 C 0.6137 0.01771 0.08926 0.0
C2604 C 0.60938 0.02965 0.08743 0.0
C2605 C 0.60274 0.03367 0.10065 0.0
C2606 C 0.61563 0.99708 0.10675 0.0
C2607 C 0.61197 0.03832 0.07156 0.0
H2608 H 0.65855 0.02643 0.05888 0.0
H2609 H 0.61171 0.9882 0.04265 0.0
H2610 H 0.64605 0.04584 0.08575 0.0
H2611 H 0.64719 0.03136 0.09815 0.0
H2612 H 0.66226 0.04177 0.08273 0.0
H2613 H 0.58769 0.98217 0.05589 0.0
H2614 H 0.59006 0.98542 0.07766 0.0
H2615 H 0.58851 -0.00031 0.06531 0.0
H2616 H 0.6023 0.00797 0.12883 0.0
H2617 H 0.59989 0.04315 0.09939 0.0
H2618 H 0.62887 0.00252 0.10502 0.0
H2619 H 0.60945 0.98715 0.09755 0.0
H2620 H 0.61246 0.99181 0.11908 0.0
H2621 H 0.6251 0.04535 0.06877 0.0
H2622 H 0.60725 0.04674 0.07189 0.0
H2623 H 0.6059 0.0294 0.06143 0.0
C2624 C -0.00249 0.62133 0.05383 0.0
C2625 C 0.98777 0.62805 0.05104 0.0
C2626 C 0.99446 0.61098 0.06695 0.0
C2627 C 0.98153 0.60752 0.07764 0.0
C2628 C 0.97192 0.6146 0.07509 0.0
C2629 C 0.97508 0.62467 0.06175 0.0
C2630 C 0.00483 0.6035 0.06917 0.0
C2631 C 0.95819 0.61141 0.08637 0.0
C2632 C 0.96086 0.5693 0.10245 0.0
C2633 C 0.96768 0.57516 0.11797 0.0
C2634 C 0.96588 0.57955 0.08903 0.0
C2635 C 0.97767 0.59616 0.09127 0.0
C2636 C 0.98482 0.60208 0.10683 0.0
C2637 C 0.97976 0.59149 0.11998 0.0
C2638 C 0.95812 0.57274 0.07259 0.0
C2639 C -0.00273 0.61975 0.10975 0.0
H2640 H 0.00731 0.62386 0.04556 0.0
H2641 H 0.96759 0.62993 0.05971 0.0
H2642 H 0.01031 0.60638 0.08155 0.0
H2643 H -0.00281 0.59012 0.06804 0.0
H2644 H 0.0147 0.60778 0.06007 0.0
H2645 H 0.95235 0.61843 0.08312 0.0
H2646 H 0.94884 0.59834 0.08595 0.0
H2647 H 0.96271 0.61458 0.09912 0.0
H2648 H 0.95131 0.55677 0.10084 0.0
H2649 H 0.98484 0.5961 0.13201 0.0
H2650 H 0.96756 0.5762 0.06314 0.0
H2651 H 0.95055 0.5779 0.06908 0.0
H2652 H 0.95034 0.55933 0.07254 0.0
H2653 H 0.00724 0.62383 0.10082 0.0
H2654 H 0.00254 0.62217 0.12224 0.0
H2655 H 0.99157 0.62716 0.10798 0.0
C2656 C 0.38717 0.36039 0.04884 0.0
C2657 C 0.38741 0.37402 0.04266 0.0
C2658 C 0.39804 0.362 0.06116 0.0
C2659 C 0.4096 0.37762 0.06723 0.0
C2660 C 0.41028 0.39145 0.06062 0.0
C2661 C 0.39908 0.38948 0.04852 0.0
C2662 C 0.39681 0.34695 0.06804 0.0
C2663 C 0.42263 0.40832 0.06657 0.0
C2664 C 0.42538 0.38057 0.11025 0.0
C2665 C 0.44029 0.38163 0.10743 0.0
C2666 C 0.4154 0.37951 0.09726 0.0
C2667 C 0.42043 0.37943 0.08105 0.0
C2668 C 0.43556 0.38068 0.0781 0.0
C2669 C 0.44528 0.38167 0.09134 0.0
C2670 C 0.39932 0.37814 0.1009 0.0
C2671 C 0.44135 0.38068 0.06098 0.0
H2672 H 0.37815 0.34841 0.0444 0.0
H2673 H 0.39944 0.40007 0.04367 0.0
H2674 H 0.40869 0.34765 0.06728 0.0
H2675 H 0.39357 0.34603 0.08112 0.0
H2676 H 0.38757 0.33573 0.06157 0.0
H2677 H 0.42229 0.41783 0.0594 0.0
H2678 H 0.42035 0.40991 0.07954 0.0
H2679 H 0.43501 0.41016 0.06589 0.0
H2680 H 0.42141 0.38032 0.12267 0.0
H2681 H 0.45669 0.38223 0.08914 0.0
H2682 H 0.38931 0.36651 0.09584 0.0
H2683 H 0.3986 0.38802 0.09494 0.0
H2684 H 0.39736 0.37872 0.11418 0.0
H2685 H 0.43296 0.36899 0.05472 0.0
H2686 H 0.45376 0.38253 0.06077 0.0
H2687 H 0.44131 0.39037 0.05389 0.0
C2688 C 0.62771 0.68923 0.37557 0.0
C2689 C 0.64353 0.69221 0.3772 0.0
C2690 C 0.62114 0.69493 0.3874 0.0
C2691 C 0.63048 0.70334 0.40139 0.0
C2692 C 0.64636 0.70608 0.40321 0.0
C2693 C 0.6528 0.7007 0.39095 0.0
C2694 C 0.60436 0.69222 0.38479 0.0
C2695 C 0.65654 0.71465 0.41815 0.0
C2696 C 0.62167 0.73171 0.42604 0.0
C2697 C 0.613 0.72209 0.43933 0.0
C2698 C 0.62703 0.72561 0.41341 0.0
C2699 C 0.6238 0.70953 0.41404 0.0
C2700 C 0.6146 0.69955 0.427 0.0
C2701 C 0.60899 0.70582 0.43924 0.0
C2702 C 0.63634 0.73646 0.39946 0.0
C2703 C 0.61101 0.68235 0.42816 0.0
H2704 H 0.6206 0.68277 0.36485 0.0
H2705 H 0.665 0.70289 0.39225 0.0
H2706 H 0.59637 0.68531 0.39501 0.0
H2707 H 0.60493 0.70405 0.38461 0.0
H2708 H 0.59874 0.68554 0.3732 0.0
H2709 H 0.66835 0.71512 0.41805 0.0
H2710 H 0.65891 0.72722 0.41894 0.0
H2711 H 0.64988 0.7084 0.42929 0.0
H2712 H 0.62438 0.7441 0.42543 0.0
H2713 H 0.60164 0.69797 0.4489 0.0
H2714 H 0.63068 0.73039 0.38766 0.0
H2715 H 0.64892 0.73881 0.39948 0.0
H2716 H 0.63685 0.74827 0.40017 0.0
H2717 H 0.6044 0.67525 0.4171 0.0
H2718 H 0.60367 0.67616 0.43902 0.0
H2719 H 0.62254 0.68232 0.42879 0.0
C2720 C 0.29839 0.93912 0.39223 0.0
C2721 C 0.29052 0.94803 0.39138 0.0
C2722 C 0.29408 0.9272 0.40398 0.0
C2723 C 0.28172 0.92422 0.41525 0.0
C2724 C 0.27382 0.93324 0.41454 0.0
C2725 C 0.27826 0.94498 0.40257 0.0
C2726 C 0.30271 0.91775 0.40431 0.0
C2727 C 0.26067 0.93049 0.42645 0.0
C2728 C 0.25975 0.88392 0.43661 0.0
C2729 C 0.2671 0.88798 0.45208 0.0
C2730 C 0.26449 0.89553 0.42446 0.0
C2731 C 0.277 0.91165 0.42779 0.0
C2732 C 0.28467 0.91586 0.44327 0.0
C2733 C 0.27952 0.90407 0.45529 0.0
C2734 C 0.2559 0.8906 0.40814 0.0
C2735 C 0.29817 0.93292 0.44721 0.0
H2736 H 0.30782 0.94134 0.38358 0.0
H2737 H 0.27218 0.95186 0.40206 0.0
H2738 H 0.30865 0.91939 0.41635 0.0
H2739 H 0.29383 0.90463 0.40262 0.0
H2740 H 0.31204 0.92153 0.39468 0.0
H2741 H 0.25577 0.93857 0.42431 0.0
H2742 H 0.25057 0.91774 0.42552 0.0
H2743 H 0.26548 0.93261 0.4391 0.0
H2744 H 0.25003 0.8716 0.43412 0.0
H2745 H 0.28529 0.90765 0.46715 0.0
H2746 H 0.26481 0.8935 0.39824 0.0
H2747 H 0.24979 0.89756 0.40594 0.0
H2748 H 0.2467 0.87747 0.40736 0.0
H2749 H 0.308 0.93682 0.43813 0.0
H2750 H 0.30342 0.93408 0.45955 0.0
H2751 H 0.29355 0.94138 0.4465 0.0
C2752 C 0.06493 0.36069 0.38239 0.0
C2753 C 0.05739 0.34381 0.38056 0.0
C2754 C 0.07702 0.36918 0.39426 0.0
C2755 C 0.08157 0.36056 0.40465 0.0
C2756 C 0.07388 0.34351 0.40301 0.0
C2757 C 0.06193 0.33534 0.39095 0.0
C2758 C 0.085 0.38738 0.39561 0.0
C2759 C 0.07835 0.33389 0.41395 0.0
C2760 C 0.12295 0.38339 0.42516 0.0
C2761 C 0.11909 0.38613 0.44094 0.0
C2762 C 0.11089 0.3751 0.41324 0.0
C2763 C 0.0945 0.3694 0.41715 0.0
C2764 C 0.09043 0.37197 0.43305 0.0
C2765 C 0.10271 0.38002 0.44484 0.0
C2766 C 0.11567 0.3723 0.3965 0.0
C2767 C 0.07308 0.36615 0.43764 0.0
H2768 H 0.06156 0.36735 0.37438 0.0
H2769 H 0.05612 0.32229 0.38969 0.0
H2770 H 0.0834 0.39099 0.40807 0.0
H2771 H 0.09822 0.39309 0.39354 0.0
H2772 H 0.07997 0.39226 0.38669 0.0
H2773 H 0.0711 0.32068 0.41121 0.0
H2774 H 0.09138 0.33798 0.41257 0.0
H2775 H 0.07647 0.33602 0.42689 0.0
H2776 H 0.1355 0.38763 0.42221 0.0
H2777 H 0.09935 0.38149 0.45705 0.0
H2778 H 0.11169 0.37777 0.38716 0.0
H2779 H 0.1095 0.35912 0.39369 0.0
H2780 H 0.12896 0.37752 0.39542 0.0
H2781 H 0.06785 0.37132 0.42936 0.0
H2782 H 0.07198 0.36954 0.45039 0.0
H2783 H 0.06567 0.35278 0.43621 0.0
C2784 C 0.03347 0.298 0.29661 0.0
C2785 C 0.03825 0.31441 0.29785 0.0
C2786 C 0.03902 0.29221 0.28381 0.0
C2787 C 0.04918 0.30303 0.27177 0.0
C2788 C 0.05379 0.31957 0.27285 0.0
C2789 C 0.04845 0.3251 0.28602 0.0
C2790 C 0.03414 0.27457 0.28326 0.0
C2791 C 0.06429 0.33141 0.26005 0.0
C2792 C 0.07575 0.29292 0.24579 0.0
C2793 C 0.06692 0.28749 0.2311 0.0
C2794 C 0.07006 0.29784 0.25917 0.0
C2795 C 0.05501 0.29713 0.25798 0.0
C2796 C 0.04574 0.29119 0.24346 0.0
C2797 C 0.05169 0.28631 0.23027 0.0
C2798 C 0.08023 0.30393 0.27453 0.0
C2799 C 0.02958 0.2902 0.24178 0.0
H2800 H 0.02568 0.28975 0.30584 0.0
H2801 H 0.05205 0.33778 0.28691 0.0
H2802 H 0.02745 0.26874 0.27178 0.0
H2803 H 0.04511 0.2735 0.28338 0.0
H2804 H 0.02638 0.26781 0.2937 0.0
H2805 H 0.06645 0.34377 0.26247 0.0
H2806 H 0.07617 0.33208 0.25953 0.0
H2807 H 0.05848 0.32717 0.24788 0.0
H2808 H 0.08725 0.29341 0.24678 0.0
H2809 H 0.04432 0.28172 0.21936 0.0
H2810 H 0.07305 0.29681 0.28509 0.0
H2811 H 0.08381 0.31673 0.27703 0.0
H2812 H 0.09138 0.30319 0.2737 0.0
H2813 H 0.02126 0.28258 0.25149 0.0
H2814 H 0.0237 0.28506 0.22976 0.0
H2815 H 0.03123 0.30246 0.2433 0.0
C2816 C 0.67007 0.72174 0.29048 0.0
C2817 C 0.67755 0.71493 0.29932 0.0
C2818 C 0.67886 0.7342 0.27947 0.0
C2819 C 0.69556 0.74003 0.27723 0.0
C2820 C 0.7032 0.73321 0.28604 0.0
C2821 C 0.6941 0.72072 0.29699 0.0
C2822 C 0.67025 0.74115 0.27028 0.0
C2823 C 0.72098 0.73911 0.2839 0.0
C2824 C 0.71313 0.76226 0.23785 0.0
C2825 C 0.72089 0.77856 0.24313 0.0
C2826 C 0.70547 0.74962 0.24894 0.0
C2827 C 0.70494 0.7533 0.26562 0.0
C2828 C 0.71253 0.76965 0.27101 0.0
C2829 C 0.72041 0.78206 0.25972 0.0
C2830 C 0.69759 0.73232 0.24273 0.0
C2831 C 0.7119 0.77406 0.28865 0.0
H2832 H 0.65729 0.71735 0.29213 0.0
H2833 H 0.7 0.71556 0.30377 0.0
H2834 H 0.67616 0.75435 0.27289 0.0
H2835 H 0.67114 0.73956 0.25697 0.0
H2836 H 0.65724 0.73534 0.27351 0.0
H2837 H 0.72511 0.7325 0.29162 0.0
H2838 H 0.72343 0.73761 0.27096 0.0
H2839 H 0.72832 0.75221 0.28704 0.0
H2840 H 0.71285 0.75926 0.22505 0.0
H2841 H 0.72594 0.79458 0.26381 0.0
H2842 H 0.68426 0.72622 0.24421 0.0
H2843 H 0.70184 0.72553 0.24995 0.0
H2844 H 0.70022 0.73151 0.22967 0.0
H2845 H 0.69913 0.76949 0.29218 0.0
H2846 H 0.71899 0.78735 0.291 0.0
H2847 H 0.71665 0.7682 0.29662 0.0
C2848 C 0.2767 0.97943 0.30574 0.0
C2849 C 0.28053 0.96814 0.31154 0.0
C2850 C 0.26504 0.97518 0.29343 0.0
C2851 C 0.25695 0.95923 0.28683 0.0
C2852 C 0.2607 0.94774 0.29266 0.0
C2853 C 0.27251 0.95235 0.30493 0.0
C2854 C 0.26145 0.9878 0.28743 0.0
C2855 C 0.25221 0.93057 0.28598 0.0
C2856 C 0.2168 0.94531 0.26547 0.0
C2857 C 0.22131 0.94722 0.24903 0.0
C2858 C 0.22821 0.94888 0.27789 0.0
C2859 C 0.24457 0.95463 0.27378 0.0
C2860 C 0.24918 0.95634 0.25722 0.0
C2861 C 0.23744 0.95233 0.24504 0.0
C2862 C 0.22278 0.94654 0.29542 0.0
C2863 C 0.26655 0.96258 0.25238 0.0
H2864 H 0.28288 0.99167 0.31078 0.0
H2865 H 0.27541 0.94357 0.30938 0.0
H2866 H 0.26378 0.98946 0.27416 0.0
H2867 H 0.24846 0.98368 0.28928 0.0
H2868 H 0.26889 -0.0003 0.29377 0.0
H2869 H 0.25634 0.92304 0.29202 0.0
H2870 H 0.23893 0.92483 0.28759 0.0
H2871 H 0.25444 0.93058 0.27271 0.0
H2872 H 0.20428 0.94095 0.26862 0.0
H2873 H 0.24093 0.95328 0.23237 0.0
H2874 H 0.22909 0.95832 0.30214 0.0
H2875 H 0.22608 0.93837 0.30144 0.0
H2876 H 0.2095 0.94136 0.29652 0.0
H2877 H 0.2745 0.97482 0.25783 0.0
H2878 H 0.26816 0.9633 0.23895 0.0
H2879 H 0.27072 0.95458 0.25715 0.0
C2880 C 0.67848 0.93723 0.30074 0.0
C2881 C 0.68218 0.95252 0.30679 0.0
C2882 C 0.68786 0.93568 0.2885 0.0
C2883 C 0.70116 0.94976 0.28201 0.0
C2884 C 0.70521 0.96521 0.28832 0.0
C2885 C 0.69573 0.9664 0.3007 0.0
C2886 C 0.6833 0.91899 0.28223 0.0
C2887 C 0.71925 0.98051 0.28163 0.0
C2888 C 0.73316 0.94671 0.25738 0.0
C2889 C 0.72812 0.94676 0.24137 0.0
C2890 C 0.72434 0.94737 0.27076 0.0
C2891 C 0.71032 0.94838 0.26803 0.0
C2892 C 0.70518 0.94839 0.25188 0.0
C2893 C 0.71415 0.94761 0.23876 0.0
C2894 C 0.73018 0.94728 0.28779 0.0
C2895 C 0.69036 0.94957 0.24846 0.0
H2896 H 0.66811 0.92643 0.30546 0.0
H2897 H 0.69867 0.97826 0.30527 0.0
H2898 H 0.67942 0.91755 0.26929 0.0
H2899 H 0.69396 0.9174 0.28273 0.0
H2900 H 0.67332 0.90924 0.28932 0.0
H2901 H 0.72129 0.99153 0.28839 0.0
H2902 H 0.73053 0.98001 0.28217 0.0
H2903 H 0.71691 0.98163 0.26863 0.0
H2904 H 0.74413 0.94639 0.25944 0.0
H2905 H 0.71041 0.94795 0.22639 0.0
H2906 H 0.72032 0.93737 0.29481 0.0
H2907 H 0.73351 0.95882 0.29425 0.0
H2908 H 0.74086 0.94569 0.28783 0.0
H2909 H 0.67959 0.9395 0.25434 0.0
H2910 H 0.68783 0.94916 0.23521 0.0
H2911 H 0.69205 0.96105 0.25375 0.0
C2912 C 0.02397 0.73653 0.29438 0.0
C2913 C 0.03502 0.73243 0.30045 0.0
C2914 C 0.02831 0.74776 0.28192 0.0
C2915 C 0.04417 0.75524 0.27547 0.0
C2916 C 0.0555 0.7514 0.28176 0.0
C2917 C 0.05076 0.73996 0.29413 0.0
C2918 C 0.01582 0.7514 0.27544 0.0
C2919 C 0.07256 0.75927 0.27531 0.0
C2920 C 0.04838 0.77159 0.23292 0.0
C2921 C 0.05334 0.78785 0.23621 0.0
C2922 C 0.04592 0.76096 0.24556 0.0
C2923 C 0.04862 0.76677 0.2619 0.0
C2924 C 0.05428 0.78333 0.26527 0.0
C2925 C 0.05633 0.79363 0.25241 0.0
C2926 C 0.03963 0.74333 0.24146 0.0
C2927 C 0.05753 0.79002 0.28252 0.0
H2928 H 0.01177 0.73073 0.29918 0.0
H2929 H 0.05937 0.73687 0.2988 0.0
H2930 H 0.0203 0.76453 0.27678 0.0
H2931 H 0.01373 0.74825 0.26225 0.0
H2932 H 0.00404 0.74459 0.28182 0.0
H2933 H 0.0801 0.75549 0.28197 0.0
H2934 H 0.07228 0.75608 0.26221 0.0
H2935 H 0.07845 0.77265 0.27627 0.0
H2936 H 0.04584 0.76706 0.22044 0.0
H2937 H 0.05991 0.8061 0.25511 0.0
H2938 H 0.02723 0.73582 0.24638 0.0
H2939 H 0.04737 0.7393 0.24724 0.0
H2940 H 0.03919 0.74098 0.22812 0.0
H2941 H 0.04594 0.78495 0.28921 0.0
H2942 H 0.0636 0.80345 0.28296 0.0
H2943 H 0.06525 0.78639 0.28904 0.0
C2944 C 0.27493 0.30069 0.29641 0.0
C2945 C 0.27723 0.3155 0.30237 0.0
C2946 C 0.26379 0.29209 0.28377 0.0
C2947 C 0.25461 0.29838 0.27703 0.0
C2948 C 0.25652 0.31307 0.28332 0.0
C2949 C 0.26784 0.32148 0.29585 0.0
C2950 C 0.26215 0.27649 0.27733 0.0
C2951 C 0.24683 0.32008 0.27657 0.0
C2952 C 0.23916 0.28568 0.23359 0.0
C2953 C 0.223 0.27354 0.236 0.0
C2954 C 0.24951 0.29396 0.24684 0.0
C2955 C 0.24357 0.28997 0.26291 0.0
C2956 C 0.22721 0.27783 0.26544 0.0
C2957 C 0.21716 0.26964 0.25196 0.0
C2958 C 0.26691 0.30675 0.24362 0.0
C2959 C 0.22042 0.2733 0.28239 0.0
H2960 H 0.28213 0.29597 0.30134 0.0
H2961 H 0.26942 0.33286 0.30044 0.0
H2962 H 0.24932 0.26655 0.2778 0.0
H2963 H 0.26586 0.27786 0.26437 0.0
H2964 H 0.26968 0.2729 0.28431 0.0
H2965 H 0.24907 0.33113 0.2834 0.0
H2966 H 0.25 0.32321 0.26361 0.0
H2967 H 0.23369 0.31098 0.27696 0.0
H2968 H 0.24377 0.28849 0.22129 0.0
H2969 H 0.20477 0.26001 0.25388 0.0
H2970 H 0.27516 0.30325 0.24921 0.0
H2971 H 0.2697 0.31846 0.24934 0.0
H2972 H 0.26955 0.30857 0.2304 0.0
H2973 H 0.22692 0.2684 0.28914 0.0
H2974 H 0.20726 0.26411 0.28226 0.0
H2975 H 0.2223 0.28421 0.28924 0.0
C2976 C 0.28731 0.34503 0.3895 0.0
C2977 C 0.30296 0.35296 0.38296 0.0
C2978 C 0.28321 0.3521 0.40236 0.0
C2979 C 0.29514 0.36728 0.40902 0.0
C2980 C 0.31099 0.37525 0.40255 0.0
C2981 C 0.31466 0.36807 0.38949 0.0
C2982 C 0.2661 0.34338 0.40875 0.0
C2983 C 0.32414 0.39131 0.40952 0.0
C2984 C 0.28405 0.39442 0.43298 0.0
C2985 C 0.28618 0.39121 0.44911 0.0
C2986 C 0.28624 0.38619 0.41983 0.0
C2987 C 0.29116 0.37486 0.42285 0.0
C2988 C 0.29318 0.37147 0.43909 0.0
C2989 C 0.29059 0.37963 0.45201 0.0
C2990 C 0.28375 0.38996 0.40268 0.0
C2991 C 0.29869 0.35969 0.44282 0.0
H2992 H 0.27819 0.33339 0.38443 0.0
H2993 H 0.3268 0.3742 0.38454 0.0
H2994 H 0.26616 0.34072 0.42184 0.0
H2995 H 0.26079 0.35124 0.40781 0.0
H2996 H 0.25816 0.33182 0.40201 0.0
H2997 H 0.33593 0.39577 0.4033 0.0
H2998 H 0.32054 0.40054 0.40839 0.0
H2999 H 0.32584 0.39017 0.42269 0.0
H3000 H 0.28095 0.40356 0.43059 0.0
H3001 H 0.29252 0.37735 0.46445 0.0
H3002 H 0.27555 0.3786 0.3958 0.0
H3003 H 0.2955 0.39603 0.39623 0.0
H3004 H 0.27855 0.39797 0.40245 0.0
H3005 H 0.29053 0.34778 0.43683 0.0
H3006 H 0.29901 0.35788 0.45612 0.0
H3007 H 0.31101 0.36423 0.43786 0.0
C3008 C 0.65201 0.93305 0.39329 0.0
C3009 C 0.64313 0.93889 0.3854 0.0
C3010 C 0.64497 0.9216 0.40569 0.0
C3011 C 0.62881 0.91614 0.41043 0.0
C3012 C 0.6199 0.92218 0.40261 0.0
C3013 C 0.62712 0.93336 0.39013 0.0
C3014 C 0.65474 0.91525 0.4136 0.0
C3015 C 0.60272 0.91688 0.40747 0.0
C3016 C 0.60161 0.87661 0.43171 0.0
C3017 C 0.60216 0.88198 0.44785 0.0
C3018 C 0.61114 0.88747 0.4196 0.0
C3019 C 0.62103 0.90415 0.42359 0.0
C3020 C 0.62201 0.90956 0.43993 0.0
C3021 C 0.61267 0.89838 0.45187 0.0
C3022 C 0.61 0.88119 0.40236 0.0
C3023 C 0.63213 0.92728 0.44465 0.0
H3024 H 0.66438 0.93725 0.38963 0.0
H3025 H 0.62022 0.9379 0.38415 0.0
H3026 H 0.65583 0.91791 0.42689 0.0
H3027 H 0.64843 0.90189 0.41198 0.0
H3028 H 0.66711 0.92062 0.40844 0.0
H3029 H 0.59762 0.92306 0.40046 0.0
H3030 H 0.59482 0.90362 0.40548 0.0
H3031 H 0.6023 0.91945 0.42064 0.0
H3032 H 0.59344 0.86401 0.42841 0.0
H3033 H 0.613 0.90258 0.4643 0.0
H3034 H 0.62228 0.88611 0.39715 0.0
H3035 H 0.60337 0.88528 0.39464 0.0
H3036 H 0.60358 0.86775 0.40168 0.0
H3037 H 0.64464 0.93249 0.43999 0.0
H3038 H 0.63273 0.92932 0.45806 0.0
H3039 H 0.62687 0.93401 0.43904 0.0
C3040 C 0.05878 0.70314 0.38005 0.0
C3041 C 0.05165 0.71277 0.37996 0.0
C3042 C 0.06954 0.70482 0.39253 0.0
C3043 C 0.07322 0.71635 0.40528 0.0
C3044 C 0.06617 0.72617 0.40521 0.0
C3045 C 0.0555 0.7243 0.39254 0.0
C3046 C 0.07684 0.69413 0.39217 0.0
C3047 C 0.06977 0.73857 0.41861 0.0
C3048 C 0.08808 0.70961 0.44551 0.0
C3049 C 0.10495 0.71957 0.44418 0.0
C3050 C 0.07764 0.70842 0.43295 0.0
C3051 C 0.08416 0.71783 0.41887 0.0
C3052 C 0.10112 0.72838 0.41765 0.0
C3053 C 0.11134 0.72897 0.43021 0.0
C3054 C 0.05964 0.69682 0.43459 0.0
C3055 C 0.10848 0.73889 0.40299 0.0
H3056 H 0.05595 0.69425 0.37036 0.0
H3057 H 0.05004 0.73176 0.39261 0.0
H3058 H 0.09026 0.70169 0.39223 0.0
H3059 H 0.0733 0.68667 0.40325 0.0
H3060 H 0.07293 0.68594 0.38127 0.0
H3061 H 0.06363 0.74555 0.41656 0.0
H3062 H 0.06578 0.73247 0.43049 0.0
H3063 H 0.08302 0.74717 0.41955 0.0
H3064 H 0.08308 0.70243 0.45631 0.0
H3065 H 0.12432 0.73677 0.42898 0.0
H3066 H 0.05526 0.68769 0.4245 0.0
H3067 H 0.05301 0.70344 0.43365 0.0
H3068 H 0.05652 0.69038 0.44634 0.0
H3069 H 0.106 0.73116 0.39191 0.0
H3070 H 0.1218 0.74707 0.40429 0.0
H3071 H 0.10286 0.74635 0.40105 0.0
C3072 C 0.32266 0.04461 0.71703 0.0
C3073 C 0.31267 0.03443 0.70438 0.0
C3074 C 0.31632 0.04968 0.72968 0.0
C3075 C 0.29968 0.04481 0.7294 0.0
C3076 C 0.28963 0.03484 0.71642 0.0
C3077 C 0.29621 0.02957 0.70417 0.0
C3078 C 0.32734 0.06 0.74349 0.0
C3079 C 0.27192 0.02972 0.7155 0.0
C3080 C 0.27962 0.04493 0.76928 0.0
C3081 C 0.28017 0.05986 0.76886 0.0
C3082 C 0.28598 0.03995 0.75655 0.0
C3083 C 0.29275 0.04989 0.74286 0.0
C3084 C 0.29293 0.06467 0.74205 0.0
C3085 C 0.28654 0.06939 0.75497 0.0
C3086 C 0.28552 0.02405 0.7578 0.0
C3087 C 0.29987 0.0755 0.72754 0.0
H3088 H 0.33538 0.04827 0.71726 0.0
H3089 H 0.28851 0.02181 0.69431 0.0
H3090 H 0.32752 0.07163 0.7444 0.0
H3091 H 0.32265 0.05375 0.75521 0.0
H3092 H 0.33996 0.06266 0.74194 0.0
H3093 H 0.26593 0.02248 0.70427 0.0
H3094 H 0.26546 0.02239 0.72623 0.0
H3095 H 0.27062 0.04054 0.71581 0.0
H3096 H 0.27432 0.03703 0.7795 0.0
H3097 H 0.28655 0.08064 0.75421 0.0
H3098 H 0.29799 0.02614 0.75702 0.0
H3099 H 0.27846 0.01588 0.74746 0.0
H3100 H 0.28002 0.0178 0.76935 0.0
H3101 H 0.31282 0.07929 0.72609 0.0
H3102 H 0.29893 0.08653 0.7287 0.0
H3103 H 0.29344 0.06876 0.71625 0.0
C3104 C 0.94398 0.25411 0.70659 0.0
C3105 C 0.95965 0.26729 0.70415 0.0
C3106 C 0.94072 0.24335 0.7193 0.0
C3107 C 0.95341 0.24587 0.72993 0.0
C3108 C 0.96939 0.25878 0.72721 0.0
C3109 C 0.97234 0.26932 0.71429 0.0
C3110 C 0.92354 0.22962 0.72169 0.0
C3111 C 0.98322 0.26187 0.73834 0.0
C3112 C 0.93946 0.22913 0.77213 0.0
C3113 C 0.93918 0.2144 0.77103 0.0
C3114 C 0.94468 0.23977 0.75905 0.0
C3115 C 0.94964 0.23554 0.74445 0.0
C3116 C 0.94986 0.22093 0.74342 0.0
C3117 C 0.94467 0.21055 0.75676 0.0
C3118 C 0.94441 0.25532 0.76068 0.0
C3119 C 0.95504 0.21601 0.72805 0.0
H3120 H 0.93413 0.25236 0.69874 0.0
H3121 H 0.98448 0.27948 0.71252 0.0
H3122 H 0.92324 0.21795 0.72238 0.0
H3123 H 0.91883 0.23145 0.7334 0.0
H3124 H 0.91529 0.22867 0.71172 0.0
H3125 H 0.99512 0.27151 0.73376 0.0
H3126 H 0.9813 0.2656 0.75062 0.0
H3127 H 0.98364 0.25063 0.73977 0.0
H3128 H 0.9353 0.23217 0.78318 0.0
H3129 H 0.94459 0.19924 0.7559 0.0
H3130 H 0.93532 0.25497 0.7521 0.0
H3131 H 0.95637 0.26579 0.75743 0.0
H3132 H 0.94134 0.25736 0.77322 0.0
H3133 H 0.94633 0.21377 0.71806 0.0
H3134 H 0.95566 0.20488 0.72962 0.0
H3135 H 0.96709 0.22592 0.72416 0.0
C3136 C 0.73187 0.68068 0.71211 0.0
C3137 C 0.722 0.68668 0.70707 0.0
C3138 C 0.74417 0.68903 0.72379 0.0
C3139 C 0.74661 0.70371 0.73075 0.0
C3140 C 0.73676 0.7099 0.7257 0.0
C3141 C 0.72461 0.70135 0.71386 0.0
C3142 C 0.75451 0.68209 0.72874 0.0
C3143 C 0.73894 0.72545 0.73296 0.0
C3144 C 0.76817 0.7158 0.77179 0.0
C3145 C 0.78399 0.72759 0.76744 0.0
C3146 C 0.75578 0.70832 0.76003 0.0
C3147 C 0.75937 0.71239 0.74346 0.0
C3148 C 0.77531 0.7242 0.73895 0.0
C3149 C 0.78741 0.73172 0.75101 0.0
C3150 C 0.7389 0.69588 0.76534 0.0
C3151 C 0.77968 0.72863 0.72136 0.0
H3152 H 0.73004 0.66941 0.7069 0.0
H3153 H 0.71702 0.70606 0.71008 0.0
H3154 H 0.76749 0.69108 0.72674 0.0
H3155 H 0.75303 0.67941 0.74193 0.0
H3156 H 0.75134 0.67078 0.72184 0.0
H3157 H 0.7304 0.72872 0.72762 0.0
H3158 H 0.73703 0.72425 0.74632 0.0
H3159 H 0.75151 0.73552 0.731 0.0
H3160 H 0.76551 0.71235 0.78441 0.0
H3161 H 0.79963 0.7407 0.74755 0.0
H3162 H 0.73544 0.68386 0.75996 0.0
H3163 H 0.73002 0.69909 0.76083 0.0
H3164 H 0.73789 0.69484 0.7788 0.0
H3165 H 0.77755 0.7178 0.71419 0.0
H3166 H 0.79254 0.73833 0.71993 0.0
H3167 H 0.77181 0.73275 0.71606 0.0
C3168 C 0.71 0.6651 0.61665 0.0
C3169 C 0.69846 0.65462 0.62777 0.0
C3170 C 0.71587 0.65913 0.60434 0.0
C3171 C 0.7102 0.64233 0.60331 0.0
C3172 C 0.69864 0.63173 0.61459 0.0
C3173 C 0.69283 0.63799 0.62662 0.0
C3174 C 0.72807 0.67077 0.5924 0.0
C3175 C 0.69244 0.61377 0.61399 0.0
C3176 C 0.71354 0.62406 0.56314 0.0
C3177 C 0.72743 0.62292 0.56573 0.0
C3178 C 0.70792 0.63047 0.57522 0.0
C3179 C 0.71623 0.63579 0.59032 0.0
C3180 C 0.73009 0.63458 0.59313 0.0
C3181 C 0.73543 0.62806 0.58087 0.0
C3182 C 0.69299 0.63147 0.57185 0.0
C3183 C 0.73924 0.64005 0.60913 0.0
H3184 H 0.71435 0.67795 0.61746 0.0
H3185 H 0.68398 0.62984 0.63526 0.0
H3186 H 0.73933 0.67024 0.59296 0.0
H3187 H 0.72319 0.66723 0.5798 0.0
H3188 H 0.7312 0.68346 0.59483 0.0
H3189 H 0.68363 0.6072 0.62382 0.0
H3190 H 0.68648 0.60851 0.60206 0.0
H3191 H 0.70271 0.61163 0.61515 0.0
H3192 H 0.7069 0.61997 0.55175 0.0
H3193 H 0.74595 0.62697 0.58312 0.0
H3194 H 0.69586 0.64417 0.57336 0.0
H3195 H 0.68341 0.62414 0.58076 0.0
H3196 H 0.68805 0.62708 0.55937 0.0
H3197 H 0.74341 0.65301 0.61157 0.0
H3198 H 0.74994 0.63851 0.60929 0.0
H3199 H 0.7311 0.63307 0.61924 0.0
C3200 C 0.33708 0.05525 0.61239 0.0
C3201 C 0.34517 0.05183 0.62445 0.0
C3202 C 0.34569 0.06773 0.60134 0.0
C3203 C 0.36277 0.07717 0.60252 0.0
C3204 C 0.37105 0.07355 0.61437 0.0
C3205 C 0.36217 0.06081 0.62512 0.0
C3206 C 0.33645 0.07099 0.58864 0.0
C3207 C 0.38925 0.08357 0.61614 0.0
C3208 C 0.39256 0.10783 0.56136 0.0
C3209 C 0.3903 0.12541 0.5672 0.0
C3210 C 0.38137 0.0903 0.57388 0.0
C3211 C 0.37179 0.09159 0.5924 0.0
C3212 C 0.37392 0.11043 0.59976 0.0
C3213 C 0.38482 0.12858 0.58813 0.0
C3214 C 0.37964 0.07455 0.56864 0.0
C3215 C 0.36671 0.11102 0.61567 0.0
H3216 H 0.32396 0.04825 0.61167 0.0
H3217 H 0.36852 0.05828 0.63442 0.0
H3218 H 0.33775 0.08298 0.59116 0.0
H3219 H 0.34152 0.07129 0.5764 0.0
H3220 H 0.32333 0.06168 0.58844 0.0
H3221 H 0.39395 0.07884 0.62558 0.0
H3222 H 0.39505 0.08384 0.60435 0.0
H3223 H 0.39292 0.09625 0.61947 0.0
H3224 H 0.39702 0.10686 0.54953 0.0
H3225 H 0.38519 0.13964 0.59178 0.0
H3226 H 0.36685 0.06471 0.57 0.0
H3227 H 0.38722 0.07186 0.57664 0.0
H3228 H 0.38356 0.07508 0.55583 0.0
H3229 H 0.35337 0.10292 0.61496 0.0
H3230 H 0.36976 0.12357 0.61873 0.0
H3231 H 0.37129 0.10642 0.62532 0.0
C3232 C 0.95215 0.28224 0.61426 0.0
C3233 C 0.95453 0.29495 0.62477 0.0
C3234 C 0.94055 0.27676 0.60163 0.0
C3235 C 0.93117 0.28419 0.59956 0.0
C3236 C 0.9337 0.29714 0.61003 0.0
C3237 C 0.94534 0.30236 0.62245 0.0
C3238 C 0.93816 0.26293 0.59064 0.0
C3239 C 0.92397 0.30539 0.60823 0.0
C3240 C 0.90997 0.28146 0.55968 0.0
C3241 C 0.89366 0.2705 0.56349 0.0
C3242 C 0.92238 0.28567 0.57116 0.0
C3243 C 0.91851 0.27843 0.58663 0.0
C3244 C 0.90227 0.26675 0.59024 0.0
C3245 C 0.89007 0.26298 0.57866 0.0
C3246 C 0.93957 0.29831 0.56694 0.0
C3247 C 0.89769 0.25861 0.60654 0.0
H3248 H 0.95923 0.27649 0.616 0.0
H3249 H 0.94711 0.31222 0.6305 0.0
H3250 H 0.92555 0.25262 0.5917 0.0
H3251 H 0.93994 0.26669 0.57775 0.0
H3252 H 0.94664 0.25869 0.59364 0.0
H3253 H 0.92765 0.31549 0.61722 0.0
H3254 H 0.92544 0.31026 0.5958 0.0
H3255 H 0.9109 0.29649 0.60987 0.0
H3256 H 0.91318 0.28711 0.54793 0.0
H3257 H 0.87758 0.25421 0.58151 0.0
H3258 H 0.94787 0.29371 0.56926 0.0
H3259 H 0.94364 0.30923 0.57485 0.0
H3260 H 0.94077 0.30198 0.55402 0.0
H3261 H 0.90543 0.25348 0.60944 0.0
H3262 H 0.88478 0.24875 0.60688 0.0
H3263 H 0.89977 0.26768 0.61625 0.0
C3264 C 0.33927 0.27944 0.61865 0.0
C3265 C 0.34578 0.29337 0.62871 0.0
C3266 C 0.34897 0.27708 0.60742 0.0
C3267 C 0.3656 0.28894 0.60619 0.0
C3268 C 0.3723 0.30298 0.61638 0.0
C3269 C 0.36232 0.30503 0.62751 0.0
C3270 C 0.34139 0.26194 0.59679 0.0
C3271 C 0.38999 0.31592 0.6154 0.0
C3272 C 0.39471 0.27791 0.5865 0.0
C3273 C 0.39593 0.28372 0.57068 0.0
C3274 C 0.38461 0.27921 0.59809 0.0
C3275 C 0.37589 0.28689 0.5939 0.0
C3276 C 0.37714 0.29283 0.57799 0.0
C3277 C 0.38708 0.29111 0.56658 0.0
C3278 C 0.38344 0.27257 0.61489 0.0
C3279 C 0.36823 0.3013 0.57311 0.0
H3280 H 0.32653 0.27033 0.61947 0.0
H3281 H 0.36749 0.31581 0.63526 0.0
H3282 H 0.3425 0.26523 0.58377 0.0
H3283 H 0.34791 0.25529 0.59847 0.0
H3284 H 0.32837 0.25369 0.59953 0.0
H3285 H 0.39337 0.326 0.62432 0.0
H3286 H 0.39768 0.3106 0.61768 0.0
H3287 H 0.39279 0.32094 0.60297 0.0
H3288 H 0.40175 0.27248 0.58989 0.0
H3289 H 0.38825 0.29587 0.55446 0.0
H3290 H 0.37058 0.2639 0.61784 0.0
H3291 H 0.38808 0.28255 0.62411 0.0
H3292 H 0.39042 0.2663 0.61598 0.0
H3293 H 0.35501 0.2932 0.57485 0.0
H3294 H 0.3704 0.30511 0.56021 0.0
H3295 H 0.37214 0.31219 0.58101 0.0
C3296 C 0.69984 0.06886 0.62058 0.0
C3297 C 0.7054 0.05792 0.62089 0.0
C3298 C 0.70346 0.07936 0.60756 0.0
C3299 C 0.71283 0.07888 0.59448 0.0
C3300 C 0.71885 0.06816 0.59488 0.0
C3301 C 0.71508 0.05779 0.60813 0.0
C3302 C 0.69687 0.09067 0.60763 0.0
C3303 C 0.72892 0.06736 0.58115 0.0
C3304 C 0.70594 0.09347 0.55439 0.0
C3305 C 0.71833 0.10984 0.55466 0.0
C3306 C 0.70422 0.08317 0.5671 0.0
C3307 C 0.71558 0.08913 0.58009 0.0
C3308 C 0.72883 0.10522 0.57988 0.0
C3309 C 0.73004 0.11538 0.5672 0.0
C3310 C 0.68987 0.06607 0.56692 0.0
C3311 C 0.74146 0.11185 0.59329 0.0
H3312 H 0.69246 0.06912 0.63046 0.0
H3313 H 0.7194 0.04934 0.60832 0.0
H3314 H 0.7069 0.10336 0.60624 0.0
H3315 H 0.68847 0.08768 0.59714 0.0
H3316 H 0.69027 0.08995 0.61902 0.0
H3317 H 0.7337 0.05928 0.58389 0.0
H3318 H 0.72147 0.0628 0.56986 0.0
H3319 H 0.73926 0.07963 0.57862 0.0
H3320 H 0.69729 0.08868 0.54442 0.0
H3321 H 0.74012 0.12774 0.5673 0.0
H3322 H 0.68196 0.06447 0.57747 0.0
H3323 H 0.69401 0.05728 0.56816 0.0
H3324 H 0.68251 0.06307 0.55558 0.0
H3325 H 0.73591 0.11271 0.60485 0.0
H3326 H 0.75185 0.12404 0.59052 0.0
H3327 H 0.7461 0.10355 0.59533 0.0
C3328 C 0.93156 0.65871 0.62008 0.0
C3329 C 0.93989 0.65247 0.62839 0.0
C3330 C 0.91995 0.64947 0.60801 0.0
C3331 C 0.91668 0.63367 0.60407 0.0
C3332 C 0.92499 0.62728 0.61244 0.0
C3333 C 0.93644 0.63672 0.62452 0.0
C3334 C 0.91124 0.65663 0.59943 0.0
C3335 C 0.92192 0.61052 0.60849 0.0
C3336 C 0.87763 0.60274 0.58265 0.0
C3337 C 0.8828 0.60357 0.5665 0.0
C3338 C 0.88839 0.61292 0.5949 0.0
C3339 C 0.90479 0.62386 0.591 0.0
C3340 C 0.91003 0.62483 0.57471 0.0
C3341 C 0.89896 0.61469 0.56267 0.0
C3342 C 0.88231 0.61165 0.61211 0.0
C3343 C 0.92747 0.63618 0.57009 0.0
H3344 H 0.93409 0.67083 0.62302 0.0
H3345 H 0.94281 0.63179 0.63084 0.0
H3346 H 0.91383 0.65741 0.5862 0.0
H3347 H 0.89794 0.64866 0.60082 0.0
H3348 H 0.91485 0.66893 0.60422 0.0
H3349 H 0.92934 0.6073 0.61618 0.0
H3350 H 0.90894 0.6014 0.61028 0.0
H3351 H 0.92471 0.6097 0.59551 0.0
H3352 H 0.86523 0.59395 0.58576 0.0
H3353 H 0.90303 0.61513 0.55025 0.0
H3354 H 0.88552 0.62379 0.61696 0.0
H3355 H 0.88825 0.60698 0.62009 0.0
H3356 H 0.86897 0.60347 0.61289 0.0
H3357 H 0.93132 0.64876 0.57399 0.0
H3358 H 0.92943 0.63596 0.55677 0.0
H3359 H 0.93542 0.63275 0.57649 0.0
C3360 C 0.94607 0.68292 0.71516 0.0
C3361 C 0.96202 0.69012 0.70946 0.0
C3362 C 0.94214 0.68985 0.7283 0.0
C3363 C 0.95453 0.70411 0.73608 0.0
C3364 C 0.97066 0.71133 0.73043 0.0
C3365 C 0.97417 0.70434 0.7171 0.0
C3366 C 0.92477 0.68196 0.73382 0.0
C3367 C 0.98427 0.72638 0.73859 0.0
C3368 C 0.94601 0.73249 0.76114 0.0
C3369 C 0.94719 0.72816 0.77709 0.0
C3370 C 0.94752 0.72417 0.74765 0.0
C3371 C 0.95076 0.71155 0.75017 0.0
C3372 C 0.95166 0.70694 0.76623 0.0
C3373 C 0.94982 0.71528 0.77949 0.0
C3374 C 0.94628 0.72931 0.73071 0.0
C3375 C 0.95535 0.69371 0.76944 0.0
H3376 H 0.93662 0.67195 0.70925 0.0
H3377 H 0.98654 0.70988 0.71283 0.0
H3378 H 0.92386 0.67832 0.74671 0.0
H3379 H 0.92053 0.69074 0.73323 0.0
H3380 H 0.91652 0.67108 0.72628 0.0
H3381 H -0.0038 0.73031 0.7329 0.0
H3382 H 0.98181 0.73645 0.73795 0.0
H3383 H 0.98504 0.72414 0.75168 0.0
H3384 H 0.94428 0.74263 0.75917 0.0
H3385 H 0.95101 0.7121 0.7918 0.0
H3386 H 0.93779 0.71861 0.72312 0.0
H3387 H 0.9583 0.73495 0.72478 0.0
H3388 H 0.94206 0.73814 0.7308 0.0
H3389 H 0.94684 0.68252 0.76251 0.0
H3390 H 0.95454 0.69084 0.78258 0.0
H3391 H 0.96776 0.69754 0.7652 0.0
C3392 C 0.29247 0.27401 0.71523 0.0
C3393 C 0.30598 0.27587 0.70675 0.0
C3394 C 0.28597 0.26331 0.72825 0.0
C3395 C 0.29288 0.2539 0.73256 0.0
C3396 C 0.30633 0.25549 0.72379 0.0
C3397 C 0.31287 0.26664 0.71113 0.0
C3398 C 0.27189 0.26227 0.73756 0.0
C3399 C 0.31378 0.2454 0.72778 0.0
C3400 C 0.28502 0.23736 0.7754 0.0
C3401 C 0.27175 0.22167 0.77289 0.0
C3402 C 0.29225 0.24787 0.76234 0.0
C3403 C 0.28607 0.24253 0.74636 0.0
C3404 C 0.27288 0.22658 0.74369 0.0
C3405 C 0.26573 0.21642 0.75701 0.0
C3406 C 0.30613 0.26486 0.76574 0.0
C3407 C 0.26604 0.2204 0.72681 0.0
H3408 H 0.28722 0.28124 0.71196 0.0
H3409 H 0.32328 0.26801 0.70452 0.0
H3410 H 0.26137 0.24973 0.73687 0.0
H3411 H 0.27523 0.26529 0.75062 0.0
H3412 H 0.26811 0.27061 0.73283 0.0
H3413 H 0.3238 0.24765 0.71941 0.0
H3414 H 0.31857 0.2481 0.74044 0.0
H3415 H 0.30439 0.23234 0.72706 0.0
H3416 H 0.28948 0.24156 0.7877 0.0
H3417 H 0.25525 0.20443 0.75502 0.0
H3418 H 0.30254 0.27372 0.76233 0.0
H3419 H 0.31674 0.26735 0.75821 0.0
H3420 H 0.30989 0.26693 0.77877 0.0
H3421 H 0.26061 0.22732 0.72207 0.0
H3422 H 0.2566 0.20733 0.72663 0.0
H3423 H 0.27587 0.22226 0.71835 0.0
C3424 C 0.72349 0.0299 0.71185 0.0
C3425 C 0.72835 0.04292 0.7014 0.0
C3426 C 0.73302 0.03123 0.72541 0.0
C3427 C 0.74795 0.04579 0.72827 0.0
C3428 C 0.75329 0.05867 0.71724 0.0
C3429 C 0.74329 0.05717 0.70407 0.0
C3430 C 0.72675 0.01735 0.73706 0.0
C3431 C 0.76933 0.0742 0.71964 0.0
C3432 C 0.76297 0.05561 0.77208 0.0
C3433 C 0.77436 0.05062 0.77245 0.0
C3434 C 0.75453 0.05439 0.75769 0.0
C3435 C 0.75747 0.04789 0.74335 0.0
C3436 C 0.76916 0.04309 0.74356 0.0
C3437 C 0.77755 0.0446 0.7581 0.0
C3438 C 0.74225 0.05977 0.75792 0.0
C3439 C 0.7726 0.03609 0.72852 0.0
H3440 H 0.71185 0.01893 0.70989 0.0
H3441 H 0.7471 0.06722 0.69591 0.0
H3442 H 0.73592 0.01376 0.7389 0.0
H3443 H 0.72454 0.02125 0.74912 0.0
H3444 H 0.71528 0.00659 0.73269 0.0
H3445 H 0.77242 0.08238 0.70914 0.0
H3446 H 0.76892 0.08067 0.73079 0.0
H3447 H 0.77919 0.07153 0.72139 0.0
H3448 H 0.76052 0.06031 0.78313 0.0
H3449 H 0.78641 0.04081 0.75834 0.0
H3450 H 0.73004 0.04933 0.7549 0.0
H3451 H 0.74525 0.06902 0.74854 0.0
H3452 H 0.74171 0.06495 0.76996 0.0
H3453 H 0.7615 0.02469 0.72468 0.0
H3454 H 0.78246 0.03346 0.73057 0.0
H3455 H 0.77605 0.04462 0.71831 0.0
C3456 C 0.03552 0.32537 0.05256 0.0
C3457 C 0.03707 0.32648 0.03559 0.0
C3458 C 0.04477 0.32096 0.06189 0.0
C3459 C 0.05554 0.31716 0.05403 0.0
C3460 C 0.05757 0.31872 0.03695 0.0
C3461 C 0.04842 0.32359 0.02787 0.0
C3462 C 0.04263 0.31988 0.08015 0.0
C3463 C 0.06894 0.31465 0.02829 0.0
C3464 C 0.09086 0.31561 0.08796 0.0
C3465 C 0.08064 0.29307 0.08773 0.0
C3466 C 0.08228 0.32356 0.07403 0.0
C3467 C 0.06335 0.31019 0.06362 0.0
C3468 C 0.05171 0.28874 0.06744 0.0
C3469 C 0.05926 0.27963 0.08108 0.0
C3470 C 0.0908 0.34132 0.07123 0.0
C3471 C 0.03553 0.27853 0.05953 0.0
H3472 H 0.02693 0.32787 0.05857 0.0
H3473 H 0.04962 0.32446 0.01474 0.0
H3474 H 0.03708 0.30707 0.0838 0.0
H3475 H 0.0546 0.32684 0.08636 0.0
H3476 H 0.0348 0.32457 0.08451 0.0
H3477 H 0.06998 0.31746 0.01512 0.0
H3478 H 0.08117 0.32146 0.03402 0.0
H3479 H 0.06449 0.30154 0.02954 0.0
H3480 H 0.10274 0.32325 0.09338 0.0
H3481 H 0.05303 0.26664 0.0825 0.0
H3482 H 0.08337 0.34623 0.07615 0.0
H3483 H 0.09209 0.34351 0.05794 0.0
H3484 H 0.10289 0.34755 0.07726 0.0
H3485 H 0.02722 0.2826 0.0639 0.0
H3486 H 0.03044 0.26559 0.0624 0.0
H3487 H 0.03673 0.2802 0.04616 0.0
C3488 C 0.65836 0.70944 0.04368 0.0
C3489 C 0.66462 0.69922 0.04109 0.0
C3490 C 0.6675 0.72441 0.05187 0.0
C3491 C 0.68313 0.72911 0.05787 0.0
C3492 C 0.68936 0.71869 0.05566 0.0
C3493 C 0.68011 0.70394 0.04712 0.0
C3494 C 0.66057 0.73534 0.05371 0.0
C3495 C 0.70573 0.72305 0.06243 0.0
C3496 C 0.7217 0.78092 0.06517 0.0
C3497 C 0.71419 0.78329 0.08535 0.0
C3498 C 0.7093 0.76141 0.05534 0.0
C3499 C 0.693 0.7449 0.06628 0.0
C3500 C 0.68923 0.74678 0.08758 0.0
C3501 C 0.70095 0.76582 0.09842 0.0
C3502 C 0.71236 0.7592 0.03794 0.0
C3503 C 0.6765 0.7325 0.09642 0.0
H3504 H 0.64643 0.70591 0.03898 0.0
H3505 H 0.68497 0.69603 0.04528 0.0
H3506 H 0.65972 0.73781 0.0668 0.0
H3507 H 0.66873 0.74708 0.04787 0.0
H3508 H 0.64832 0.72997 0.0481 0.0
H3509 H 0.708 0.71283 0.06136 0.0
H3510 H 0.71537 0.73346 0.05575 0.0
H3511 H 0.70672 0.72679 0.07546 0.0
H3512 H 0.73044 0.79126 0.05835 0.0
H3513 H 0.69809 0.76746 0.1108 0.0
H3514 H 0.70135 0.74903 0.03212 0.0
H3515 H 0.72229 0.75652 0.03733 0.0
H3516 H 0.7163 0.77057 0.03131 0.0
H3517 H 0.66468 0.73173 0.09468 0.0
H3518 H 0.67936 0.73389 0.10965 0.0
H3519 H 0.6755 0.72119 0.09147 0.0
C3520 C 0.28214 0.96969 0.02309 0.0
C3521 C 0.28883 0.95972 0.0215 0.0
C3522 C 0.26739 0.96434 0.03107 0.0
C3523 C 0.25914 0.94869 0.03765 0.0
C3524 C 0.26565 0.93846 0.03595 0.0
C3525 C 0.28043 0.94407 0.02783 0.0
C3526 C 0.26076 0.97556 0.03271 0.0
C3527 C 0.25712 0.9217 0.0429 0.0
C3528 C 0.22719 0.9425 0.07964 0.0
C3529 C 0.20789 0.92941 0.06832 0.0
C3530 C 0.24523 0.94784 0.06822 0.0
C3531 C 0.24401 0.94332 0.04662 0.0
C3532 C 0.22514 0.9345 0.03536 0.0
C3533 C 0.20642 0.92873 0.04568 0.0
C3534 C 0.2613 0.95625 0.07662 0.0
C3535 C 0.22499 0.93167 0.01744 0.0
H3536 H 0.28848 0.98178 0.01819 0.0
H3537 H 0.28553 0.93631 0.02671 0.0
H3538 H 0.24843 0.96974 0.02725 0.0
H3539 H 0.25966 0.97793 0.04581 0.0
H3540 H 0.26855 0.98733 0.02672 0.0
H3541 H 0.26364 0.91513 0.04034 0.0
H3542 H 0.25599 0.92253 0.05629 0.0
H3543 H 0.24469 0.91455 0.03769 0.0
H3544 H 0.22755 0.94408 0.09275 0.0
H3545 H 0.19489 0.92209 0.03936 0.0
H3546 H 0.26918 0.96812 0.07089 0.0
H3547 H 0.2672 0.94896 0.07501 0.0
H3548 H 0.2599 0.95805 0.08978 0.0
H3549 H 0.23228 0.94345 0.01136 0.0
H3550 H 0.2124 0.92531 0.01258 0.0
H3551 H 0.23076 0.92439 0.01484 0.0
C3552 C 0.33033 0.04893 0.9894 0.0
C3553 C 0.32849 0.03563 0.98024 0.0
C3554 C 0.32479 0.05885 0.98332 0.0
C3555 C 0.31754 0.05552 0.96762 0.0
C3556 C 0.31632 0.04253 0.95807 0.0
C3557 C 0.32168 0.03267 0.96455 0.0
C3558 C 0.32611 0.07248 0.99392 0.0
C3559 C 0.30894 0.03874 0.94117 0.0
C3560 C 0.28668 0.0676 0.95733 0.0
C3561 C 0.29585 0.08143 0.94801 0.0
C3562 C 0.2937 0.0593 0.96411 0.0
C3563 C 0.31032 0.06493 0.96145 0.0
C3564 C 0.31974 0.07906 0.95231 0.0
C3565 C 0.31245 0.08729 0.94589 0.0
C3566 C 0.28328 0.0444 0.97397 0.0
C3567 C 0.33744 0.08532 0.94907 0.0
H3568 H 0.33555 0.05121 0.00155 0.0
H3569 H 0.32038 0.02249 0.95735 0.0
H3570 H 0.33218 0.08401 0.98723 0.0
H3571 H 0.31379 0.06996 -0.00293 0.0
H3572 H 0.33294 0.07412 0.00539 0.0
H3573 H 0.31006 0.02902 0.93486 0.0
H3574 H 0.2959 0.03481 0.94191 0.0
H3575 H 0.31488 0.04974 0.93364 0.0
H3576 H 0.27395 0.06328 0.95931 0.0
H3577 H 0.31973 0.09822 0.93908 0.0
H3578 H 0.28884 0.0457 0.98616 0.0
H3579 H 0.28251 0.03364 0.96784 0.0
H3580 H 0.2708 0.04212 0.97562 0.0
H3581 H 0.34416 0.08767 0.96074 0.0
H3582 H 0.34316 0.09665 0.942 0.0
H3583 H 0.33877 0.07603 0.94218 0.0
C3584 C 0.96642 0.27849 0.99027 0.0
C3585 C 0.96076 0.28907 0.98719 0.0
C3586 C 0.95985 0.26353 0.98197 0.0
C3587 C 0.94773 0.2593 0.96996 0.0
C3588 C 0.94187 0.26985 0.96688 0.0
C3589 C 0.94832 0.28454 0.9757 0.0
C3590 C 0.96589 0.25225 0.98605 0.0
C3591 C 0.92924 0.2659 0.95388 0.0
C3592 C 0.94679 0.22468 0.93241 0.0
C3593 C 0.92561 0.20841 0.93661 0.0
C3594 C 0.95357 0.24322 0.94394 0.0
C3595 C 0.9415 0.24406 0.96049 0.0
C3596 C 0.92299 0.22636 0.96692 0.0
C3597 C 0.91519 0.20729 0.95611 0.0
C3598 C 0.96903 0.25802 0.93941 0.0
C3599 C 0.91429 0.22739 0.98154 0.0
H3600 H 0.97596 0.28189 -0.00077 0.0
H3601 H 0.94404 0.29277 0.97317 0.0
H3602 H 0.95549 0.23999 0.98854 0.0
H3603 H 0.97248 0.25109 0.97549 0.0
H3604 H 0.97417 0.25661 -0.00321 0.0
H3605 H 0.92598 0.27541 0.95297 0.0
H3606 H 0.93387 0.26456 0.9419 0.0
H3607 H 0.91812 0.25422 0.95649 0.0
H3608 H 0.9531 0.22441 0.92157 0.0
H3609 H 0.90359 0.19688 0.9591 0.0
H3610 H 0.97902 0.25899 0.94702 0.0
H3611 H 0.96818 0.26898 0.94167 0.0
H3612 H 0.97181 0.25717 0.92642 0.0
H3613 H 0.92307 0.23358 0.99169 0.0
H3614 H 0.90467 0.21513 0.98517 0.0
H3615 H 0.90877 0.23477 0.97869 0.0
C3616 C 0.71379 0.66546 0.99322 0.0
C3617 C 0.70224 0.66811 0.98579 0.0
C3618 C 0.72936 0.67186 0.98662 0.0
C3619 C 0.73326 0.68075 0.97206 0.0
C3620 C 0.72142 0.68293 0.96421 0.0
C3621 C 0.70612 0.67675 0.97129 0.0
C3622 C 0.74178 0.66958 0.99549 0.0
C3623 C 0.72499 0.692 0.94847 0.0
C3624 C 0.777 0.7118 0.96259 0.0
C3625 C 0.78112 0.70324 0.95148 0.0
C3626 C 0.76157 0.70452 0.96961 0.0
C3627 C 0.74989 0.68831 0.96529 0.0
C3628 C 0.75398 0.67953 0.9542 0.0
C3629 C 0.76963 0.68701 0.94764 0.0
C3630 C 0.75776 0.71418 0.98164 0.0
C3631 C 0.74177 0.66232 0.9491 0.0
H3632 H 0.71083 0.65886 0.00449 0.0
H3633 H 0.69716 0.6787 0.96544 0.0
H3634 H 0.74665 0.66382 0.98726 0.0
H3635 H 0.75214 0.68155 -0.00064 0.0
H3636 H 0.7367 0.662 0.00643 0.0
H3637 H 0.71412 0.69169 0.94337 0.0
H3638 H 0.7346 0.70483 0.95055 0.0
H3639 H 0.72959 0.68675 0.93927 0.0
H3640 H 0.78595 0.72422 0.96584 0.0
H3641 H 0.77281 0.68015 0.93939 0.0
H3642 H 0.75351 0.70761 0.99325 0.0
H3643 H 0.74783 0.71566 0.9768 0.0
H3644 H 0.76843 0.72639 0.98426 0.0
H3645 H 0.73748 0.65451 0.95993 0.0
H3646 H 0.74684 0.65721 0.94026 0.0
H3647 H 0.73103 0.66184 0.94347 0.0
C3648 C 0.93961 0.66157 0.99103 0.0
C3649 C 0.95211 0.66045 0.98355 0.0
C3650 C 0.93414 0.67136 0.98455 0.0
C3651 C 0.94094 0.67967 0.9699 0.0
C3652 C 0.95303 0.6779 0.96188 0.0
C3653 C 0.95875 0.66858 0.96902 0.0
C3654 C 0.92159 0.67335 0.99373 0.0
C3655 C 0.96013 0.68605 0.94593 0.0
C3656 C 0.91601 0.69446 0.94865 0.0
C3657 C 0.9241 0.71087 0.95339 0.0
C3658 C 0.92174 0.68431 0.95333 0.0
C3659 C 0.93572 0.69063 0.96334 0.0
C3660 C 0.94431 0.7073 0.96771 0.0
C3661 C 0.93863 0.71731 0.96234 0.0
C3662 C 0.91264 0.66675 0.94785 0.0
C3663 C 0.95918 0.71446 0.97856 0.0
H3664 H 0.9347 0.65546 0.00242 0.0
H3665 H 0.96846 0.66768 0.96329 0.0
H3666 H 0.92666 0.6863 -0.00285 0.0
H3667 H 0.91084 0.66965 0.98586 0.0
H3668 H 0.91758 0.6661 0.00497 0.0
H3669 H 0.96804 0.68196 0.94039 0.0
H3670 H 0.9503 0.68352 0.93714 0.0
H3671 H 0.9674 0.69935 0.9479 0.0
H3672 H 0.90498 0.68946 0.94145 0.0
H3673 H 0.94537 0.73006 0.9656 0.0
H3674 H 0.90692 0.65892 0.95849 0.0
H3675 H 0.92113 0.66335 0.94243 0.0
H3676 H 0.90302 0.66415 0.93875 0.0
H3677 H 0.95599 0.70829 0.99045 0.0
H3678 H 0.96448 0.72766 0.98083 0.0
H3679 H 0.96857 0.71247 0.97299 0.0
C3680 C 0.33173 0.29669 0.97345 0.0
C3681 C 0.32404 0.30554 0.97662 0.0
C3682 C 0.32309 0.28101 0.96649 0.0
C3683 C 0.30641 0.27406 0.96273 0.0
C3684 C 0.29856 0.28285 0.96614 0.0
C3685 C 0.30747 0.29847 0.97298 0.0
C3686 C 0.33184 0.27197 0.96296 0.0
C3687 C 0.28077 0.27582 0.96237 0.0
C3688 C 0.28678 0.24162 0.92964 0.0
C3689 C 0.27827 0.2275 0.93874 0.0
C3690 C 0.29631 0.25678 0.93731 0.0
C3691 C 0.29723 0.25789 0.95452 0.0
C3692 C 0.28866 0.2437 0.96381 0.0
C3693 C 0.27923 0.22865 0.95579 0.0
C3694 C 0.30519 0.27164 0.92698 0.0
C3695 C 0.28926 0.24445 0.9822 0.0
H3696 H 0.3445 0.30206 0.9763 0.0
H3697 H 0.30139 0.30516 0.97552 0.0
H3698 H 0.32564 0.26011 0.96907 0.0
H3699 H 0.33151 0.26947 0.94968 0.0
H3700 H 0.34469 0.27885 0.96709 0.0
H3701 H 0.27636 0.284 0.96636 0.0
H3702 H 0.27859 0.27348 0.94907 0.0
H3703 H 0.27346 0.26405 0.96847 0.0
H3704 H 0.28591 0.24079 0.91646 0.0
H3705 H 0.27253 0.21778 0.96285 0.0
H3706 H 0.31829 0.27834 0.93011 0.0
H3707 H 0.30054 0.27991 0.92951 0.0
H3708 H 0.30378 0.26859 0.91373 0.0
H3709 H 0.30202 0.25057 0.98654 0.0
H3710 H 0.28247 0.23225 0.9876 0.0
H3711 H 0.28403 0.25173 0.98679 0.0
C3712 C 0.71508 0.0296 0.98514 0.0
C3713 C 0.70614 0.03724 0.98263 0.0
C3714 C 0.73027 0.03538 0.97797 0.0
C3715 C 0.73657 0.04895 0.96774 0.0
C3716 C 0.72754 0.05662 0.96498 0.0
C3717 C 0.71248 0.05078 0.97262 0.0
C3718 C 0.73964 0.02703 0.98149 0.0
C3719 C 0.73376 0.07092 0.95389 0.0
C3720 C 0.78217 0.07104 0.96275 0.0
C3721 C 0.78375 0.0638 0.94843 0.0
C3722 C 0.76687 0.06685 0.9688 0.0
C3723 C 0.75278 0.05516 0.96027 0.0
C3724 C 0.75428 0.04826 0.94546 0.0
C3725 C 0.76975 0.0525 0.93981 0.0
C3726 C 0.76579 0.07428 0.98477 0.0
C3727 C 0.73954 0.03587 0.93594 0.0
H3728 H 0.71031 0.0192 0.99296 0.0
H3729 H 0.70555 0.05664 0.97057 0.0
H3730 H 0.74197 0.02234 0.96999 0.0
H3731 H 0.75159 0.03582 0.98699 0.0
H3732 H 0.73312 0.01678 0.98992 0.0
H3733 H 0.72508 0.07526 0.95268 0.0
H3734 H 0.74544 0.08105 0.95865 0.0
H3735 H 0.7361 0.06758 0.94161 0.0
H3736 H 0.79296 0.07958 0.96955 0.0
H3737 H 0.77088 0.04667 0.92888 0.0
H3738 H 0.76048 0.06481 0.99415 0.0
H3739 H 0.75768 0.07928 0.98352 0.0
H3740 H 0.77784 0.08411 0.9892 0.0
H3741 H 0.73319 0.02444 0.94279 0.0
H3742 H 0.74275 0.03317 0.92375 0.0
H3743 H 0.73089 0.04018 0.93434 0.0
C3744 C 0.69376 0.97329 0.02628 0.0
C3745 C 0.67688 0.96613 0.02528 0.0
C3746 C 0.70084 0.96514 0.0332 0.0
C3747 C 0.69079 0.94953 0.03956 0.0
C3748 C 0.67371 0.942 0.03817 0.0
C3749 C 0.66693 0.95036 0.03088 0.0
C3750 C 0.7191 0.9735 0.03417 0.0
C3751 C 0.66263 0.92545 0.045 0.0
C3752 C 0.71185 0.92611 0.04859 0.0
C3753 C 0.71624 0.93032 0.06501 0.0
C3754 C 0.70298 0.93173 0.04025 0.0
C3755 C 0.6983 0.94171 0.04859 0.0
C3756 C 0.70224 0.94557 0.06531 0.0
C3757 C 0.71137 0.94006 0.07324 0.0
C3758 C 0.69929 0.92763 0.02235 0.0
C3759 C 0.69736 0.95607 0.07468 0.0
H3760 H 0.7015 0.98543 0.02181 0.0
H3761 H 0.65388 0.94483 0.03017 0.0
H3762 H 0.7231 0.97612 0.0471 0.0
H3763 H 0.72326 0.96547 0.02907 0.0
H3764 H 0.72515 0.98506 0.02749 0.0
H3765 H 0.6497 0.92082 0.04198 0.0
H3766 H 0.66599 0.91668 0.04026 0.0
H3767 H 0.66403 0.926 0.05845 0.0
H3768 H 0.71581 0.9188 0.04214 0.0
H3769 H 0.71495 0.94364 0.08584 0.0
H3770 H 0.7062 0.93878 0.01517 0.0
H3771 H 0.68623 0.92277 0.01984 0.0
H3772 H 0.70252 0.91862 0.018 0.0
H3773 H 0.70418 0.96861 0.0701 0.0
H3774 H 0.69979 0.95647 0.08795 0.0
H3775 H 0.68427 0.95154 0.07282 0.0
C3776 C 0.04089 0.71732 0.02467 0.0
C3777 C 0.02391 0.70859 0.02379 0.0
C3778 C 0.04926 0.73306 0.03152 0.0
C3779 C 0.0404 0.74014 0.03758 0.0
C3780 C 0.02333 0.73167 0.03595 0.0
C3781 C 0.01532 0.71602 0.02909 0.0
C3782 C 0.06749 0.74181 0.03298 0.0
C3783 C 0.01343 0.73879 0.04218 0.0
C3784 C 0.05588 0.76953 0.0735 0.0
C3785 C 0.06088 0.78436 0.06605 0.0
C3786 C 0.0499 0.75519 0.06426 0.0
C3787 C 0.04863 0.75561 0.04712 0.0
C3788 C 0.05382 0.77055 0.03946 0.0
C3789 C 0.05984 0.78476 0.04904 0.0
C3790 C 0.0444 0.7395 0.07292 0.0
C3791 C 0.05252 0.77142 0.02124 0.0
H3792 H 0.04759 0.71166 0.02051 0.0
H3793 H 0.0022 0.70944 0.02828 0.0
H3794 H 0.07294 0.75433 0.02846 0.0
H3795 H 0.07102 0.74274 0.04599 0.0
H3796 H 0.07269 0.73548 0.0261 0.0
H3797 H 0.00042 0.73123 0.03872 0.0
H3798 H 0.01435 0.73993 0.05567 0.0
H3799 H 0.0182 0.75112 0.03739 0.0
H3800 H 0.05642 0.76913 0.08666 0.0
H3801 H 0.06349 0.79618 0.04327 0.0
H3802 H 0.05023 0.73309 0.0675 0.0
H3803 H 0.03111 0.73144 0.07138 0.0
H3804 H 0.04728 0.74143 0.08616 0.0
H3805 H 0.05811 0.76519 0.0149 0.0
H3806 H 0.05846 0.78411 0.01704 0.0
H3807 H 0.03957 0.76508 0.01753 0.0
C3808 C 0.29459 0.32521 0.02972 0.0
C3809 C 0.30302 0.34166 0.03437 0.0
C3810 C 0.27928 0.31445 0.036 0.0
C3811 C 0.27222 0.32018 0.04743 0.0
C3812 C 0.28078 0.33668 0.05252 0.0
C3813 C 0.29606 0.34728 0.04583 0.0
C3814 C 0.2705 0.29699 0.03009 0.0
C3815 C 0.27368 0.34313 0.06484 0.0
C3816 C 0.22645 0.29431 0.04857 0.0
C3817 C 0.2241 0.28391 0.06139 0.0
C3818 C 0.24202 0.30677 0.04446 0.0
C3819 C 0.25559 0.30888 0.05339 0.0
C3820 C 0.25324 0.29885 0.06679 0.0
C3821 C 0.23752 0.28636 0.07053 0.0
C3822 C 0.24401 0.31706 0.02996 0.0
C3823 C 0.26739 0.30078 0.07665 0.0
H3824 H 0.2998 0.32072 0.02082 0.0
H3825 H 0.30253 0.35995 0.04954 0.0
H3826 H 0.26743 0.28881 0.04055 0.0
H3827 H 0.25893 0.29399 0.02405 0.0
H3828 H 0.27779 0.29444 0.02132 0.0
H3829 H 0.28225 0.35601 0.06824 0.0
H3830 H 0.26246 0.34209 0.05983 0.0
H3831 H 0.27027 0.33581 0.07602 0.0
H3832 H 0.21611 0.2923 0.04137 0.0
H3833 H 0.23578 0.2782 0.0803 0.0
H3834 H 0.2501 0.31429 0.02 0.0
H3835 H 0.25179 0.3301 0.0332 0.0
H3836 H 0.2322 0.31491 0.02529 0.0
H3837 H 0.27441 0.29676 0.0692 0.0
H3838 H 0.26342 0.29355 0.08792 0.0
H3839 H 0.2757 0.31369 0.08007 0.0
C3840 C 0.69181 0.65038 0.37305 0.0
C3841 C 0.69718 0.66233 0.36119 0.0
C3842 C 0.70233 0.64589 0.37979 0.0
C3843 C 0.71855 0.65337 0.37437 0.0
C3844 C 0.72404 0.66545 0.36239 0.0
C3845 C 0.71332 0.66987 0.35603 0.0
C3846 C 0.69609 0.63312 0.3927 0.0
C3847 C 0.7412 0.67354 0.35614 0.0
C3848 C 0.75068 0.65236 0.40041 0.0
C3849 C 0.75137 0.63933 0.39325 0.0
C3850 C 0.73978 0.65682 0.39463 0.0
C3851 C 0.72972 0.64841 0.38104 0.0
C3852 C 0.73051 0.63541 0.37363 0.0
C3853 C 0.74124 0.63098 0.3799 0.0
C3854 C 0.73908 0.67057 0.40301 0.0
C3855 C 0.7202 0.62635 0.35892 0.0
H3856 H 0.67936 0.64456 0.37714 0.0
H3857 H 0.71753 0.67907 0.34682 0.0
H3858 H 0.69694 0.62258 0.38837 0.0
H3859 H 0.70368 0.63801 0.40387 0.0
H3860 H 0.68329 0.62883 0.39594 0.0
H3861 H 0.74355 0.68266 0.34676 0.0
H3862 H 0.74991 0.67963 0.36636 0.0
H3863 H 0.74363 0.66431 0.35079 0.0
H3864 H 0.75865 0.65912 0.41054 0.0
H3865 H 0.74193 0.62108 0.37419 0.0
H3866 H 0.72648 0.66646 0.40682 0.0
H3867 H 0.74271 0.68061 0.39441 0.0
H3868 H 0.74713 0.67535 0.41391 0.0
H3869 H 0.70718 0.62092 0.36187 0.0
H3870 H 0.72231 0.61657 0.35457 0.0
H3871 H 0.72287 0.63487 0.34884 0.0
C3872 C 0.34352 0.0335 0.39278 0.0
C3873 C 0.33455 0.03293 0.37911 0.0
C3874 C 0.35268 0.04801 0.40179 0.0
C3875 C 0.35328 0.06226 0.39658 0.0
C3876 C 0.34477 0.06181 0.38235 0.0
C3877 C 0.33525 0.04705 0.37394 0.0
C3878 C 0.36106 0.04791 0.41727 0.0
C3879 C 0.3455 0.07683 0.37611 0.0
C3880 C 0.35972 0.09914 0.43415 0.0
C3881 C 0.38071 0.11444 0.42804 0.0
C3882 C 0.35018 0.08104 0.42156 0.0
C3883 C 0.36175 0.07724 0.4066 0.0
C3884 C 0.38337 0.09058 0.40439 0.0
C3885 C 0.39404 0.10905 0.41642 0.0
C3886 C 0.33257 0.06913 0.42348 0.0
C3887 C 0.39239 0.08656 0.39221 0.0
H3888 H 0.34277 0.02246 0.39681 0.0
H3889 H 0.32831 0.04652 0.36329 0.0
H3890 H 0.37414 0.0572 0.41682 0.0
H3891 H 0.35584 0.05109 0.42779 0.0
H3892 H 0.35977 0.03593 0.41943 0.0
H3893 H 0.3393 0.07468 0.36413 0.0
H3894 H 0.33964 0.08106 0.38497 0.0
H3895 H 0.35833 0.08662 0.37482 0.0
H3896 H 0.35272 0.10218 0.44224 0.0
H3897 H 0.40663 0.11785 0.41415 0.0
H3898 H 0.33085 0.05707 0.42609 0.0
H3899 H 0.32616 0.068 0.41186 0.0
H3900 H 0.32742 0.07305 0.43344 0.0
H3901 H 0.39151 0.07499 0.39543 0.0
H3902 H 0.4053 0.09634 0.39187 0.0
H3903 H 0.38668 0.08482 0.38003 0.0
C3904 C 0.96674 0.30753 0.36985 0.0
C3905 C 0.9715 0.29672 0.36423 0.0
C3906 C 0.95114 0.30183 0.37613 0.0
C3907 C 0.93996 0.28495 0.37642 0.0
C3908 C 0.94477 0.274 0.37089 0.0
C3909 C 0.96053 0.28001 0.36503 0.0
C3910 C 0.94656 0.31386 0.38225 0.0
C3911 C 0.93313 0.25592 0.37074 0.0
C3912 C 0.90219 0.26697 0.40259 0.0
C3913 C 0.89006 0.26392 0.3911 0.0
C3914 C 0.91853 0.27417 0.39812 0.0
C3915 C 0.92297 0.27865 0.38176 0.0
C3916 C 0.91101 0.27635 0.37024 0.0
C3917 C 0.89477 0.26918 0.37504 0.0
C3918 C 0.93099 0.27665 0.41082 0.0
C3919 C 0.9153 0.28107 0.35268 0.0
H3920 H 0.97522 0.32046 0.36939 0.0
H3921 H 0.96411 0.27159 0.36061 0.0
H3922 H 0.93672 0.3131 0.37452 0.0
H3923 H 0.94185 0.31094 0.39484 0.0
H3924 H 0.95697 0.32651 0.38218 0.0
H3925 H 0.93885 0.24903 0.36631 0.0
H3926 H 0.92842 0.25186 0.38317 0.0
H3927 H 0.92258 0.25284 0.36277 0.0
H3928 H 0.89881 0.26345 0.41511 0.0
H3929 H 0.88589 0.26754 0.36598 0.0
H3930 H 0.9411 0.28942 0.411 0.0
H3931 H 0.93622 0.26898 0.4077 0.0
H3932 H 0.92575 0.27353 0.42322 0.0
H3933 H 0.92486 0.29402 0.352 0.0
H3934 H 0.90469 0.27904 0.34535 0.0
H3935 H 0.92024 0.2739 0.34708 0.0
C3936 C 0.00294 0.37137 0.31098 0.0
C3937 C 0.01772 0.37216 0.3138 0.0
C3938 C 0.00233 0.38344 0.30214 0.0
C3939 C 0.01677 0.39622 0.29551 0.0
C3940 C 0.03172 0.39706 0.29841 0.0
C3941 C 0.03204 0.38516 0.30774 0.0
C3942 C 0.98626 0.38245 0.29976 0.0
C3943 C 0.04734 0.41025 0.29122 0.0
C3944 C 0.0152 0.41775 0.25792 0.0
C3945 C 0.01972 0.43314 0.26435 0.0
C3946 C 0.01381 0.40547 0.26799 0.0
C3947 C 0.01634 0.40843 0.28499 0.0
C3948 C 0.01975 0.42354 0.2917 0.0
C3949 C 0.02157 0.43578 0.28128 0.0
C3950 C 0.0104 0.38961 0.26032 0.0
C3951 C 0.02199 0.42697 0.30982 0.0
H3952 H 0.99187 0.36136 0.31575 0.0
H3953 H 0.04347 0.38571 0.30979 0.0
H3954 H 0.98726 0.3941 0.30348 0.0
H3955 H 0.98278 0.38032 0.28668 0.0
H3956 H 0.97643 0.37257 0.30686 0.0
H3957 H 0.05791 0.4091 0.29455 0.0
H3958 H 0.04627 0.40983 0.27774 0.0
H3959 H 0.04973 0.42231 0.29546 0.0
H3960 H 0.01327 0.41547 0.24491 0.0
H3961 H 0.0247 0.44752 0.28637 0.0
H3962 H -0.00029 0.37934 0.26606 0.0
H3963 H 0.02089 0.38797 0.26241 0.0
H3964 H 0.00813 0.38901 0.24699 0.0
H3965 H 0.0119 0.41695 0.31652 0.0
H3966 H 0.02258 0.4385 0.31325 0.0
H3967 H 0.03338 0.42774 0.31388 0.0
C3968 C 0.63306 0.61851 0.31134 0.0
C3969 C 0.6269 0.62845 0.30713 0.0
C3970 C 0.627 0.60318 0.30398 0.0
C3971 C 0.61475 0.5978 0.29191 0.0
C3972 C 0.60872 0.60787 0.28735 0.0
C3973 C 0.61478 0.62304 0.29511 0.0
C3974 C 0.63338 0.59254 0.30944 0.0
C3975 C 0.59586 0.60261 0.27432 0.0
C3976 C 0.61065 0.55849 0.25883 0.0
C3977 C 0.59003 0.54301 0.26572 0.0
C3978 C 0.61837 0.57838 0.26783 0.0
C3979 C 0.60791 0.58148 0.28457 0.0
C3980 C 0.59019 0.56491 0.29375 0.0
C3981 C 0.58152 0.54459 0.28561 0.0
C3982 C 0.63325 0.59242 0.26108 0.0
C3983 C 0.58277 0.56802 0.30827 0.0
H3984 H 0.64235 0.62255 0.3207 0.0
H3985 H 0.61005 0.6307 0.29171 0.0
H3986 H 0.62327 0.58109 0.31428 0.0
H3987 H 0.63848 0.58928 0.2989 0.0
H3988 H 0.64291 0.59849 0.31901 0.0
H3989 H 0.59291 0.61213 0.27172 0.0
H3990 H 0.60001 0.59955 0.2629 0.0
H3991 H 0.58463 0.59157 0.2782 0.0
H3992 H 0.6159 0.55673 0.24787 0.0
H3993 H 0.57027 0.53475 0.2902 0.0
H3994 H 0.64329 0.59673 0.27007 0.0
H3995 H 0.63104 0.60251 0.25902 0.0
H3996 H 0.63676 0.58889 0.24953 0.0
H3997 H 0.5921 0.57413 0.31798 0.0
H3998 H 0.57248 0.55653 0.31279 0.0
H3999 H 0.57847 0.57635 0.30494 0.0
C4000 C 0.36569 0.99471 0.30941 0.0
C4001 C 0.36031 0.98666 0.32421 0.0
C4002 C 0.37872 0.99519 0.30109 0.0
C4003 C 0.38674 0.98774 0.30795 0.0
C4004 C 0.38147 0.97975 0.32299 0.0
C4005 C 0.3682 0.97917 0.33087 0.0
C4006 C 0.38383 0.00356 0.28494 0.0
C4007 C 0.38989 0.9719 0.33081 0.0
C4008 C 0.41177 0.97587 0.28165 0.0
C4009 C 0.42757 0.98867 0.28496 0.0
C4010 C 0.39832 0.97564 0.28868 0.0
C4011 C 0.40076 0.98837 0.2995 0.0
C4012 C 0.41665 0.00136 0.30279 0.0
C4013 C 0.42987 0.00133 0.29551 0.0
C4014 C 0.38153 0.96163 0.28482 0.0
C4015 C 0.41974 0.01508 0.31435 0.0
H4016 H 0.35953 0.0004 0.30416 0.0
H4017 H 0.36411 0.973 0.34235 0.0
H4018 H 0.39662 0.01363 0.28567 0.0
H4019 H 0.38315 0.99493 0.27535 0.0
H4020 H 0.37614 0.00852 0.28114 0.0
H4021 H 0.38444 0.9664 0.34267 0.0
H4022 H 0.38931 0.96233 0.32257 0.0
H4023 H 0.4029 0.98101 0.33285 0.0
H4024 H 0.40997 0.96591 0.27375 0.0
H4025 H 0.44208 0.01109 0.29829 0.0
H4026 H 0.37367 0.96617 0.28048 0.0
H4027 H 0.37597 0.9547 0.29601 0.0
H4028 H 0.38165 0.95324 0.27539 0.0
H4029 H 0.41279 0.02077 0.3104 0.0
H4030 H 0.43278 0.02456 0.31513 0.0
H4031 H 0.41549 0.0103 0.32672 0.0
C4032 C 0.61288 0.96921 0.29975 0.0
C4033 C 0.6235 0.97712 0.31292 0.0
C4034 C 0.60471 0.97606 0.29225 0.0
C4035 C 0.60693 0.99095 0.29834 0.0
C4036 C 0.61789 -0.00087 0.31141 0.0
C4037 C 0.62617 0.9922 0.31842 0.0
C4038 C 0.59343 0.96719 0.27808 0.0
C4039 C 0.6204 0.01491 0.31842 0.0
C4040 C 0.59462 0.01659 0.27462 0.0
C4041 C 0.5797 0.01235 0.28178 0.0
C4042 C 0.60331 0.00918 0.27935 0.0
C4043 C 0.5971 -0.00244 0.29179 0.0
C4044 C 0.58192 0.99303 0.29884 0.0
C4045 C 0.57342 0.00048 0.29374 0.0
C4046 C 0.61937 0.01419 0.27144 0.0
C4047 C 0.57497 0.98081 0.31226 0.0
H4048 H 0.6109 0.95762 0.29536 0.0
H4049 H 0.63431 -0.00167 0.32864 0.0
H4050 H 0.58075 0.96294 0.28169 0.0
H4051 H 0.59628 0.97547 0.26773 0.0
H4052 H 0.5942 0.95656 0.27385 0.0
H4053 H 0.62976 0.01999 0.32823 0.0
H4054 H 0.62408 0.02398 0.30871 0.0
H4055 H 0.60883 0.01298 0.32351 0.0
H4056 H 0.59966 0.02597 0.26558 0.0
H4057 H 0.56203 0.99738 0.29947 0.0
H4058 H 0.61982 0.00335 0.26735 0.0
H4059 H 0.62932 0.0209 0.28044 0.0
H4060 H 0.62165 0.02205 0.26082 0.0
H4061 H 0.57427 0.96936 0.30831 0.0
H4062 H 0.56267 0.97805 0.3159 0.0
H4063 H 0.58306 0.98552 0.32311 0.0
C4064 C 0.01341 0.63962 0.30909 0.0
C4065 C 0.00993 0.6511 0.30314 0.0
C4066 C 0.01148 0.62672 0.2991 0.0
C4067 C 0.00651 0.62564 0.2827 0.0
C4068 C 0.00285 0.63712 0.27669 0.0
C4069 C 0.00433 0.64957 0.28709 0.0
C4070 C 0.01477 0.61426 0.30609 0.0
C4071 C -0.00206 0.63661 0.25914 0.0
C4072 C 0.0266 0.60442 0.24809 0.0
C4073 C 0.00756 0.58457 0.24563 0.0
C4074 C 0.02565 0.61806 0.26271 0.0
C4075 C 0.00651 0.61352 0.27147 0.0
C4076 C 0.9875 0.59591 0.26514 0.0
C4077 C 0.98721 0.58153 0.25049 0.0
C4078 C 0.04078 0.63346 0.26725 0.0
C4079 C 0.97188 0.59297 0.27208 0.0
H4080 H 0.01752 0.64066 0.32158 0.0
H4081 H 0.00167 0.65845 0.28246 0.0
H4082 H 0.00447 0.60189 0.30328 0.0
H4083 H 0.02576 0.61532 0.30043 0.0
H4084 H 0.01666 0.61572 0.31951 0.0
H4085 H -0.00345 0.64706 0.25611 0.0
H4086 H 0.00713 0.63656 0.25094 0.0
H4087 H 0.98625 0.62528 0.25664 0.0
H4088 H 0.0381 0.60635 0.24374 0.0
H4089 H 0.97613 0.57032 0.24754 0.0
H4090 H 0.04464 0.63244 0.27967 0.0
H4091 H 0.03842 0.64362 0.26745 0.0
H4092 H 0.0506 0.63586 0.25855 0.0
H4093 H 0.96396 0.5799 0.2746 0.0
H4094 H 0.96559 0.59624 0.26295 0.0
H4095 H 0.97398 0.60033 0.28337 0.0
C4096 C 0.37124 0.35907 0.31411 0.0
C4097 C 0.36217 0.36637 0.31055 0.0
C4098 C 0.38648 0.36454 0.30714 0.0
C4099 C 0.39274 0.37749 0.29612 0.0
C4100 C 0.38345 0.38459 0.29204 0.0
C4101 C 0.36831 0.37904 0.29942 0.0
C4102 C 0.39609 0.35676 0.31197 0.0
C4103 C 0.38962 0.39824 0.28013 0.0
C4104 C 0.43856 0.40148 0.29309 0.0
C4105 C 0.44125 0.39432 0.27934 0.0
C4106 C 0.42281 0.39652 0.29833 0.0
C4107 C 0.40938 0.38407 0.28959 0.0
C4108 C 0.41198 0.37711 0.2754 0.0
C4109 C 0.4279 0.38219 0.27054 0.0
C4110 C 0.42058 0.40409 0.31365 0.0
C4111 C 0.39797 0.3639 0.26569 0.0
H4112 H 0.36663 0.34931 0.32274 0.0
H4113 H 0.36133 0.38466 0.29652 0.0
H4114 H 0.39938 0.35219 0.301 0.0
H4115 H 0.40756 0.36591 0.31805 0.0
H4116 H 0.38931 0.34654 0.32038 0.0
H4117 H 0.38047 0.40168 0.27739 0.0
H4118 H 0.40064 0.40903 0.28518 0.0
H4119 H 0.39313 0.39472 0.26856 0.0
H4120 H 0.44886 0.41066 0.30006 0.0
H4121 H 0.4299 0.3764 0.26008 0.0
H4122 H 0.41494 0.39481 0.32318 0.0
H4123 H 0.41227 0.40867 0.31127 0.0
H4124 H 0.43223 0.41426 0.31848 0.0
H4125 H 0.39171 0.35276 0.27297 0.0
H4126 H 0.40196 0.36099 0.25406 0.0
H4127 H 0.38897 0.36754 0.26292 0.0
C4128 C 0.32731 0.28905 0.37403 0.0
C4129 C 0.33643 0.30284 0.36464 0.0
C4130 C 0.33443 0.28067 0.38054 0.0
C4131 C 0.35087 0.28597 0.37716 0.0
C4132 C 0.35998 0.29969 0.36739 0.0
C4133 C 0.35271 0.30808 0.36145 0.0
C4134 C 0.32446 0.26631 0.39121 0.0
C4135 C 0.37741 0.30551 0.36312 0.0
C4136 C 0.37723 0.27606 0.40313 0.0
C4137 C 0.37708 0.26352 0.39393 0.0
C4138 C 0.36794 0.28281 0.39832 0.0
C4139 C 0.35871 0.27727 0.38371 0.0
C4140 C 0.35826 0.26441 0.37457 0.0
C4141 C 0.36735 0.25763 0.37986 0.0
C4142 C 0.36851 0.29632 0.40856 0.0
C4143 C 0.34888 0.25838 0.35874 0.0
H4144 H 0.31474 0.28504 0.37658 0.0
H4145 H 0.35975 0.31865 0.35407 0.0
H4146 H 0.32388 0.25534 0.38586 0.0
H4147 H 0.33031 0.26851 0.40337 0.0
H4148 H 0.3119 0.26383 0.39282 0.0
H4149 H 0.38259 0.316 0.35486 0.0
H4150 H 0.38493 0.30911 0.37437 0.0
H4151 H 0.37831 0.29555 0.35712 0.0
H4152 H 0.38485 0.28086 0.4139 0.0
H4153 H 0.36737 0.24808 0.37264 0.0
H4154 H 0.35607 0.29394 0.41072 0.0
H4155 H 0.3752 0.30788 0.40197 0.0
H4156 H 0.37458 0.29786 0.42051 0.0
H4157 H 0.33617 0.25532 0.36047 0.0
H4158 H 0.34882 0.24753 0.35371 0.0
H4159 H 0.35436 0.26809 0.34961 0.0
C4160 C 0.68686 0.02965 0.37998 0.0
C4161 C 0.69215 0.02411 0.36679 0.0
C4162 C 0.69557 0.04598 0.38512 0.0
C4163 C 0.70964 0.05708 0.37656 0.0
C4164 C 0.71506 0.0515 0.36329 0.0
C4165 C 0.70637 0.03504 0.3587 0.0
C4166 C 0.68966 0.05138 0.39961 0.0
C4167 C 0.72983 0.063 0.35365 0.0
C4168 C 0.72333 0.10183 0.37734 0.0
C4169 C 0.73748 0.10841 0.38694 0.0
C4170 C 0.714 0.0851 0.37407 0.0
C4171 C 0.71851 0.07462 0.38113 0.0
C4172 C 0.73204 0.08105 0.39181 0.0
C4173 C 0.74138 0.09786 0.39452 0.0
C4174 C 0.6997 0.07872 0.36254 0.0
C4175 C 0.73692 0.07023 0.40001 0.0
H4176 H 0.67592 0.02121 0.38633 0.0
H4177 H 0.71043 0.03082 0.34842 0.0
H4178 H 0.69958 0.0578 0.40871 0.0
H4179 H 0.686 0.06005 0.39571 0.0
H4180 H 0.67917 0.04106 0.4056 0.0
H4181 H 0.73242 0.05674 0.34362 0.0
H4182 H 0.72802 0.07251 0.34834 0.0
H4183 H 0.7406 0.06918 0.36179 0.0
H4184 H 0.71976 0.10972 0.37193 0.0
H4185 H 0.75199 0.10282 0.40237 0.0
H4186 H 0.68858 0.06917 0.36845 0.0
H4187 H 0.70187 0.07311 0.35164 0.0
H4188 H 0.69748 0.08839 0.35848 0.0
H4189 H 0.72632 0.06013 0.40608 0.0
H4190 H 0.7467 0.07692 0.40921 0.0
H4191 H 0.74125 0.06479 0.39074 0.0
C4192 C 0.95769 0.67851 0.37054 0.0
C4193 C 0.96719 0.67342 0.36231 0.0
C4194 C 0.94283 0.66726 0.37746 0.0
C4195 C 0.93736 0.65052 0.37616 0.0
C4196 C 0.94674 0.64528 0.36765 0.0
C4197 C 0.96153 0.65678 0.36081 0.0
C4198 C 0.9331 0.6733 0.3864 0.0
C4199 C 0.94131 0.62753 0.36605 0.0
C4200 C 0.90822 0.62387 0.4086 0.0
C4201 C 0.89322 0.61715 0.40052 0.0
C4202 C 0.92268 0.63453 0.40071 0.0
C4203 C 0.92216 0.63858 0.38433 0.0
C4204 C 0.90711 0.63157 0.37597 0.0
C4205 C 0.8928 0.62089 0.38416 0.0
C4206 C 0.93851 0.64169 0.41002 0.0
C4207 C 0.90609 0.6356 0.35849 0.0
H4208 H 0.96191 0.69132 0.37171 0.0
H4209 H 0.96876 0.65271 0.35445 0.0
H4210 H 0.92066 0.66747 0.38122 0.0
H4211 H 0.93197 0.66996 0.3994 0.0
H4212 H 0.93872 0.68665 0.38575 0.0
H4213 H 0.94967 0.62539 0.35848 0.0
H4214 H 0.94057 0.62251 0.3783 0.0
H4215 H 0.929 0.62068 0.36054 0.0
H4216 H 0.90857 0.62097 0.42124 0.0
H4217 H 0.88124 0.61567 0.37786 0.0
H4218 H 0.9442 0.65504 0.41097 0.0
H4219 H 0.94707 0.63913 0.40339 0.0
H4220 H 0.93687 0.63685 0.4225 0.0
H4221 H 0.91055 0.64873 0.35757 0.0
H4222 H 0.89352 0.62868 0.35355 0.0
H4223 H 0.91399 0.63298 0.35072 0.0
C4224 C 0.38801 0.02245 0.68639 0.0
C4225 C 0.37223 0.01342 0.69245 0.0
C4226 C 0.40105 0.02257 0.69419 0.0
C4227 C 0.39826 0.01356 0.70852 0.0
C4228 C 0.38235 0.00436 0.71469 0.0
C4229 C 0.36949 0.00433 0.70652 0.0
C4230 C 0.41782 0.0324 0.68712 0.0
C4231 C 0.37896 0.99472 0.73001 0.0
C4232 C 0.43091 0.00406 0.71917 0.0
C4233 C 0.44046 0.01657 0.73036 0.0
C4234 C 0.41677 0.00255 0.71244 0.0
C4235 C 0.41212 0.01388 0.71695 0.0
C4236 C 0.42146 0.02628 0.72858 0.0
C4237 C 0.43561 0.02758 0.73503 0.0
C4238 C 0.4072 0.98923 0.69998 0.0
C4239 C 0.41684 0.03854 0.73376 0.0
H4240 H 0.39021 0.02946 0.67549 0.0
H4241 H 0.35732 0.99738 0.71131 0.0
H4242 H 0.42605 0.04177 0.69611 0.0
H4243 H 0.42285 0.02447 0.68446 0.0
H4244 H 0.41787 0.03849 0.67573 0.0
H4245 H 0.36589 0.98811 0.73316 0.0
H4246 H 0.38302 0.98583 0.72854 0.0
H4247 H 0.38594 0.00292 0.74037 0.0
H4248 H 0.43477 0.9957 0.71534 0.0
H4249 H 0.44311 0.03744 0.74345 0.0
H4250 H 0.40794 0.99462 0.68794 0.0
H4251 H 0.39422 0.98229 0.70337 0.0
H4252 H 0.41174 0.9807 0.69872 0.0
H4253 H 0.41813 0.04626 0.72331 0.0
H4254 H 0.4245 0.04648 0.74399 0.0
H4255 H 0.40396 0.03233 0.73753 0.0
C4256 C 0.96241 0.35099 0.70122 0.0
C4257 C 0.97453 0.34697 0.70061 0.0
C4258 C 0.9649 0.36493 0.70945 0.0
C4259 C 0.97981 0.37505 0.7176 0.0
C4260 C 0.99204 0.37094 0.71741 0.0
C4261 C 0.98931 0.35696 0.70875 0.0
C4262 C 0.9516 0.36898 0.7091 0.0
C4263 C 0.00788 0.3812 0.72642 0.0
C4264 C 0.98598 0.41683 0.72249 0.0
C4265 C 0.97784 0.41534 0.73714 0.0
C4266 C 0.98819 0.40432 0.71661 0.0
C4267 C 0.98237 0.3901 0.72578 0.0
C4268 C 0.97573 0.38925 0.74139 0.0
C4269 C 0.97323 0.40174 0.74677 0.0
C4270 C 0.99519 0.40566 0.69982 0.0
C4271 C 0.96989 0.37452 0.75178 0.0
H4272 H 0.95099 0.34341 0.69488 0.0
H4273 H -0.00133 0.35383 0.7084 0.0
H4274 H 0.94754 0.36938 0.72167 0.0
H4275 H 0.95624 0.38112 0.70386 0.0
H4276 H 0.9409 0.36003 0.70181 0.0
H4277 H 0.01652 0.37693 0.72421 0.0
H4278 H 0.01364 0.39402 0.72275 0.0
H4279 H 0.00556 0.3809 0.73969 0.0
H4280 H 0.98963 0.42737 0.71509 0.0
H4281 H 0.96702 0.40045 0.75817 0.0
H4282 H 0.98525 0.3979 0.69112 0.0
H4283 H 0.00389 0.4013 0.69969 0.0
H4284 H 0.00143 0.41829 0.69544 0.0
H4285 H 0.95792 0.36474 0.74719 0.0
H4286 H 0.96853 0.37717 0.76472 0.0
H4287 H 0.97839 0.36991 0.75116 0.0
C4288 C 0.62668 0.61469 0.6985 0.0
C4289 C 0.63729 0.63148 0.69947 0.0
C4290 C 0.61137 0.60749 0.70575 0.0
C4291 C 0.60676 0.61728 0.71461 0.0
C4292 C 0.61766 0.63419 0.71612 0.0
C4293 C 0.63272 0.64113 0.70828 0.0
C4294 C 0.59993 0.58948 0.70352 0.0
C4295 C 0.61339 0.64493 0.72591 0.0
C4296 C 0.56165 0.60059 0.71926 0.0
C4297 C 0.55845 0.59258 0.73414 0.0
C4298 C 0.57734 0.60886 0.71285 0.0
C4299 C 0.59034 0.60977 0.72186 0.0
C4300 C 0.58743 0.60261 0.73735 0.0
C4301 C 0.57151 0.59387 0.74319 0.0
C4302 C 0.57989 0.61602 0.69612 0.0
C4303 C 0.60108 0.60386 0.74759 0.0
H4304 H 0.63013 0.60722 0.69156 0.0
H4305 H 0.64096 0.65412 0.70912 0.0
H4306 H 0.59653 0.58361 0.71554 0.0
H4307 H 0.5886 0.58717 0.69745 0.0
H4308 H 0.60531 0.58363 0.6961 0.0
H4309 H 0.62369 0.65761 0.72691 0.0
H4310 H 0.60299 0.64498 0.72014 0.0
H4311 H 0.60962 0.64015 0.73836 0.0
H4312 H 0.55171 0.59993 0.71236 0.0
H4313 H 0.56938 0.58795 0.75479 0.0
H4314 H 0.58451 0.61008 0.68779 0.0
H4315 H 0.58914 0.62911 0.69666 0.0
H4316 H 0.56855 0.61451 0.69082 0.0
H4317 H 0.60592 0.59671 0.74174 0.0
H4318 H 0.59711 0.59932 0.7601 0.0
H4319 H 0.61118 0.61662 0.74848 0.0
C4320 C 0.64228 0.68994 0.64364 0.0
C4321 C 0.65875 0.69872 0.64803 0.0
C4322 C 0.63467 0.6976 0.63673 0.0
C4323 C 0.64373 0.71444 0.63409 0.0
C4324 C 0.66029 0.72345 0.63859 0.0
C4325 C 0.66764 0.71549 0.64558 0.0
C4326 C 0.61694 0.68763 0.63211 0.0
C4327 C 0.67021 0.74143 0.63591 0.0
C4328 C 0.62335 0.72985 0.59441 0.0
C4329 C 0.61588 0.74023 0.60816 0.0
C4330 C 0.63485 0.72241 0.60447 0.0
C4331 C 0.63578 0.72236 0.62645 0.0
C4332 C 0.62449 0.72859 0.63921 0.0
C4333 C 0.61262 0.73622 0.63033 0.0
C4334 C 0.64336 0.7159 0.59456 0.0
C4335 C 0.62496 0.72739 0.65725 0.0
H4336 H 0.63528 0.677 0.64554 0.0
H4337 H 0.68037 0.72235 0.64892 0.0
H4338 H 0.61006 0.69241 0.6386 0.0
H4339 H 0.61543 0.68857 0.61885 0.0
H4340 H 0.61156 0.67464 0.63507 0.0
H4341 H 0.68295 0.74678 0.64016 0.0
H4342 H 0.67021 0.74387 0.62274 0.0
H4343 H 0.66464 0.74757 0.64247 0.0
H4344 H 0.62357 0.73101 0.58131 0.0
H4345 H 0.60698 0.7413 0.63786 0.0
H4346 H 0.63815 0.70289 0.59721 0.0
H4347 H 0.65635 0.72231 0.59813 0.0
H4348 H 0.6421 0.71738 0.58137 0.0
H4349 H 0.61928 0.71448 0.66053 0.0
H4350 H 0.61845 0.73282 0.6633 0.0
H4351 H 0.63776 0.73366 0.66147 0.0
C4352 C 0.28477 0.95861 0.62875 0.0
C4353 C 0.29726 0.96536 0.64045 0.0
C4354 C 0.27865 0.94279 0.62263 0.0
C4355 C 0.28502 0.93342 0.6285 0.0
C4356 C 0.29768 0.94015 0.6402 0.0
C4357 C 0.30377 0.95611 0.64594 0.0
C4358 C 0.26532 0.93611 0.60996 0.0
C4359 C 0.3045 0.93034 0.64698 0.0
C4360 C 0.25207 0.87983 0.62742 0.0
C4361 C 0.25977 0.87644 0.6078 0.0
C4362 C 0.26088 0.90079 0.63356 0.0
C4363 C 0.2781 0.91648 0.62288 0.0
C4364 C 0.28792 0.91191 0.60655 0.0
C4365 C 0.28001 0.8913 0.59951 0.0
C4366 C 0.25396 0.90519 0.64763 0.0
C4367 C 0.30238 0.92529 0.59851 0.0
H4368 H 0.27975 0.96572 0.62434 0.0
H4369 H 0.31337 0.96119 0.65504 0.0
H4370 H 0.26916 0.93202 0.59901 0.0
H4371 H 0.25432 0.92546 0.61483 0.0
H4372 H 0.2621 0.94518 0.60622 0.0
H4373 H 0.31441 0.93736 0.65597 0.0
H4374 H 0.2947 0.91945 0.65298 0.0
H4375 H 0.30922 0.92606 0.63694 0.0
H4376 H 0.24107 0.87044 0.6329 0.0
H4377 H 0.28484 0.88857 0.5888 0.0
H4378 H 0.2495 0.91313 0.6434 0.0
H4379 H 0.26363 0.91218 0.65683 0.0
H4380 H 0.24388 0.89417 0.65315 0.0
H4381 H 0.29952 0.93453 0.59452 0.0
H4382 H 0.30605 0.92058 0.58792 0.0
H4383 H 0.31253 0.93124 0.60742 0.0
C4384 C 0.04396 0.34898 0.64508 0.0
C4385 C 0.03678 0.33447 0.65367 0.0
C4386 C 0.05971 0.35571 0.63888 0.0
C4387 C 0.06855 0.34782 0.64148 0.0
C4388 C 0.06152 0.33339 0.6505 0.0
C4389 C 0.04569 0.32684 0.65641 0.0
C4390 C 0.06674 0.37103 0.6292 0.0
C4391 C 0.07064 0.32473 0.6537 0.0
C4392 C 0.10232 0.3544 0.61263 0.0
C4393 C 0.1162 0.36589 0.62132 0.0
C4394 C 0.08674 0.3488 0.61886 0.0
C4395 C 0.08497 0.35437 0.63438 0.0
C4396 C 0.09889 0.36586 0.64325 0.0
C4397 C 0.1143 0.3716 0.63654 0.0
C4398 C 0.07216 0.33678 0.60888 0.0
C4399 C 0.09753 0.37182 0.65999 0.0
H4400 H 0.03714 0.35493 0.64288 0.0
H4401 H 0.04023 0.31565 0.66307 0.0
H4402 H 0.07845 0.38045 0.63464 0.0
H4403 H 0.06923 0.36861 0.61658 0.0
H4404 H 0.05847 0.37593 0.62866 0.0
H4405 H 0.06378 0.31411 0.66163 0.0
H4406 H 0.07317 0.32051 0.64201 0.0
H4407 H 0.08249 0.33317 0.65959 0.0
H4408 H 0.10356 0.34969 0.60097 0.0
H4409 H 0.12499 0.38034 0.64335 0.0
H4410 H 0.0637 0.34133 0.60732 0.0
H4411 H 0.0655 0.32515 0.61535 0.0
H4412 H 0.07555 0.3344 0.59664 0.0
H4413 H 0.08983 0.37734 0.65946 0.0
H4414 H 0.10953 0.38091 0.66522 0.0
H4415 H 0.09157 0.36147 0.66836 0.0
C4416 C 0.28297 0.32296 0.62729 0.0
C4417 C 0.29436 0.32777 0.63999 0.0
C4418 C 0.27783 0.33341 0.62177 0.0
C4419 C 0.28397 0.34882 0.62939 0.0
C4420 C 0.29561 0.35377 0.64208 0.0
C4421 C 0.30077 0.34327 0.64709 0.0
C4422 C 0.26567 0.32788 0.60798 0.0
C4423 C 0.30226 0.36999 0.65073 0.0
C4424 C 0.28156 0.38355 0.61112 0.0
C4425 C 0.26853 0.38276 0.6197 0.0
C4426 C 0.28615 0.37198 0.61341 0.0
C4427 C 0.27773 0.35957 0.62482 0.0
C4428 C 0.26427 0.35846 0.63315 0.0
C4429 C 0.25985 0.37006 0.63049 0.0
C4430 C 0.30048 0.3735 0.6042 0.0
C4431 C 0.25509 0.34554 0.64557 0.0
H4432 H 0.27806 0.31105 0.62169 0.0
H4433 H 0.30951 0.34705 0.65698 0.0
H4434 H 0.25419 0.32664 0.61247 0.0
H4435 H 0.27026 0.33706 0.59829 0.0
H4436 H 0.263 0.31609 0.60254 0.0
H4437 H 0.31145 0.37211 0.66017 0.0
H4438 H 0.30789 0.3799 0.64184 0.0
H4439 H 0.29224 0.3707 0.65667 0.0
H4440 H 0.28847 0.39349 0.60296 0.0
H4441 H 0.24992 0.36957 0.6373 0.0
H4442 H 0.29752 0.36161 0.59882 0.0
H4443 H 0.31084 0.3774 0.61271 0.0
H4444 H 0.30436 0.38245 0.59431 0.0
H4445 H 0.25127 0.33339 0.64029 0.0
H4446 H 0.24417 0.34557 0.65004 0.0
H4447 H 0.26312 0.34753 0.65615 0.0
C4448 C 0.66718 0.96329 0.63935 0.0
C4449 C 0.66057 0.97335 0.64029 0.0
C4450 C 0.65802 0.94737 0.63313 0.0
C4451 C 0.64191 0.94141 0.62772 0.0
C4452 C 0.6351 0.95143 0.62888 0.0
C4453 C 0.64451 0.96727 0.63515 0.0
C4454 C 0.66565 0.937 0.63209 0.0
C4455 C 0.61796 0.94551 0.62322 0.0
C4456 C 0.62435 0.90754 0.59589 0.0
C4457 C 0.61468 0.89392 0.60535 0.0
C4458 C 0.63329 0.92303 0.60305 0.0
C4459 C 0.63244 0.925 0.62007 0.0
C4460 C 0.62247 0.91137 0.62967 0.0
C4461 C 0.61367 0.89596 0.62218 0.0
C4462 C 0.64369 0.93727 0.59238 0.0
C4463 C 0.62116 0.91305 0.64785 0.0
H4464 H 0.67955 0.96789 0.64337 0.0
H4465 H 0.63929 0.97494 0.6359 0.0
H4466 H 0.65806 0.92549 0.63853 0.0
H4467 H 0.66632 0.93383 0.61916 0.0
H4468 H 0.67806 0.94319 0.63743 0.0
H4469 H 0.61424 0.95457 0.62563 0.0
H4470 H 0.61687 0.94273 0.60995 0.0
H4471 H 0.60938 0.93414 0.62942 0.0
H4472 H 0.62498 0.90601 0.58284 0.0
H4473 H 0.60605 0.88549 0.62948 0.0
H4474 H 0.65652 0.94332 0.59648 0.0
H4475 H 0.63982 0.94633 0.59345 0.0
H4476 H 0.64303 0.93365 0.57934 0.0
H4477 H 0.63329 0.9183 0.65364 0.0
H4478 H 0.61281 0.90127 0.65355 0.0
H4479 H 0.61674 0.9215 0.6505 0.0
C4480 C 0.03409 0.71429 0.63293 0.0
C4481 C 0.02584 0.70043 0.64247 0.0
C4482 C 0.04971 0.7194 0.62705 0.0
C4483 C 0.0573 0.71052 0.63089 0.0
C4484 C 0.04891 0.69636 0.64024 0.0
C4485 C 0.03328 0.69146 0.64585 0.0
C4486 C 0.05823 0.73448 0.617 0.0
C4487 C 0.05663 0.68662 0.6447 0.0
C4488 C 0.09358 0.71513 0.60744 0.0
C4489 C 0.10645 0.72551 0.61788 0.0
C4490 C 0.07755 0.71068 0.61117 0.0
C4491 C 0.0743 0.7164 0.62588 0.0
C4492 C 0.08727 0.72701 0.63635 0.0
C4493 C 0.10317 0.73145 0.6322 0.0
C4494 C 0.06405 0.69946 0.59963 0.0
C4495 C 0.0843 0.73321 0.65225 0.0
H4496 H 0.02842 0.72127 0.6302 0.0
H4497 H 0.02704 0.68074 0.6532 0.0
H4498 H 0.06917 0.74391 0.6236 0.0
H4499 H 0.06234 0.73182 0.60533 0.0
H4500 H 0.05032 0.73949 0.61428 0.0
H4501 H 0.0483 0.67563 0.65163 0.0
H4502 H 0.06046 0.68282 0.63354 0.0
H4503 H 0.06766 0.69421 0.65221 0.0
H4504 H 0.096 0.71026 0.5965 0.0
H4505 H 0.11307 0.73923 0.64041 0.0
H4506 H 0.05631 0.70459 0.59675 0.0
H4507 H 0.05622 0.68766 0.60552 0.0
H4508 H 0.0687 0.69724 0.58807 0.0
H4509 H 0.07721 0.73919 0.65008 0.0
H4510 H 0.09577 0.74197 0.65864 0.0
H4511 H 0.07705 0.7229 0.6604 0.0
C4512 C 0.0004 0.63935 0.70725 0.0
C4513 C 0.98591 0.63344 0.69842 0.0
C4514 C 0.00371 0.62887 0.71584 0.0
C4515 C 0.99225 0.61206 0.71559 0.0
C4516 C 0.97765 0.60597 0.70659 0.0
C4517 C 0.97464 0.61675 0.6981 0.0
C4518 C 0.01943 0.63583 0.7253 0.0
C4519 C 0.96517 0.58811 0.70602 0.0
C4520 C 0.0085 0.58498 0.72751 0.0
C4521 C 0.0041 0.58222 0.74395 0.0
C4522 C 0.00421 0.5942 0.71795 0.0
C4523 C 0.9955 0.60098 0.72507 0.0
C4524 C 0.99079 0.598 0.74158 0.0
C4525 C 0.99516 0.58867 0.75083 0.0
C4526 C 0.00941 0.59707 0.70036 0.0
C4527 C 0.98157 0.60509 0.74964 0.0
H4528 H 0.00919 0.65222 0.70754 0.0
H4529 H 0.96342 0.6121 0.69128 0.0
H4530 H 0.01687 0.63309 0.73841 0.0
H4531 H 0.02638 0.63014 0.72102 0.0
H4532 H 0.02716 0.64916 0.72406 0.0
H4533 H 0.95461 0.58527 0.69816 0.0
H4534 H 0.97074 0.58115 0.70137 0.0
H4535 H 0.96078 0.58385 0.71849 0.0
H4536 H 0.01554 0.58014 0.7222 0.0
H4537 H 0.9919 0.5867 0.76358 0.0
H4538 H 0.01828 0.61011 0.69866 0.0
H4539 H -0.00115 0.59379 0.69233 0.0
H4540 H 0.01507 0.58998 0.69636 0.0
H4541 H 0.98917 0.6185 0.74996 0.0
H4542 H 0.97802 0.60086 0.7623 0.0
H4543 H 0.97048 0.60182 0.74249 0.0
C4544 C 0.37155 0.36922 0.69904 0.0
C4545 C 0.35458 0.36031 0.69805 0.0
C4546 C 0.37972 0.38466 0.70659 0.0
C4547 C 0.37068 0.39129 0.71324 0.0
C4548 C 0.35356 0.38233 0.71229 0.0
C4549 C 0.34573 0.36696 0.70474 0.0
C4550 C 0.398 0.39389 0.70743 0.0
C4551 C 0.34348 0.38898 0.71921 0.0
C4552 C 0.38837 0.42409 0.74623 0.0
C4553 C 0.39223 0.43798 0.73742 0.0
C4554 C 0.38185 0.40891 0.73841 0.0
C4555 C 0.379 0.40754 0.72139 0.0
C4556 C 0.38306 0.42154 0.71239 0.0
C4557 C 0.38956 0.43659 0.72054 0.0
C4558 C 0.37758 0.39426 0.74846 0.0
C4559 C 0.38013 0.42054 0.69424 0.0
H4560 H 0.37845 0.36417 0.69386 0.0
H4561 H 0.33261 0.3602 0.70399 0.0
H4562 H 0.40289 0.40562 0.70121 0.0
H4563 H 0.40211 0.39667 0.72032 0.0
H4564 H 0.40325 0.38704 0.7017 0.0
H4565 H 0.33027 0.38048 0.71741 0.0
H4566 H 0.34597 0.39157 0.73245 0.0
H4567 H 0.34681 0.40058 0.71335 0.0
H4568 H 0.39022 0.42509 0.75932 0.0
H4569 H 0.39236 0.44726 0.71374 0.0
H4570 H 0.38331 0.38766 0.74327 0.0
H4571 H 0.36427 0.3858 0.74811 0.0
H4572 H 0.38149 0.39753 0.76138 0.0
H4573 H 0.3859 0.41441 0.68807 0.0
H4574 H 0.38491 0.43267 0.68887 0.0
H4575 H 0.36693 0.41317 0.69163 0.0
C4576 C 0.64249 0.03226 0.70235 0.0
C4577 C 0.64798 0.02288 0.69452 0.0
C4578 C 0.62772 0.02491 0.71072 0.0
C4579 C 0.61831 0.00781 0.71131 0.0
C4580 C 0.62377 -0.00172 0.70343 0.0
C4581 C 0.63852 0.00592 0.69511 0.0
C4582 C 0.6222 0.03544 0.71896 0.0
C4583 C 0.61408 0.98 0.70386 0.0
C4584 C 0.58861 0.98902 0.74589 0.0
C4585 C 0.57381 0.98444 0.73818 0.0
C4586 C 0.60317 0.99661 0.73726 0.0
C4587 C 0.60295 -0.00016 0.72056 0.0
C4588 C 0.58807 0.99526 0.71268 0.0
C4589 C 0.57364 0.98755 0.72159 0.0
C4590 C 0.6188 0.0012 0.74604 0.0
C4591 C 0.58741 -0.0014 0.69488 0.0
H4592 H 0.64968 0.04535 0.70189 0.0
H4593 H 0.64264 -0.00145 0.68909 0.0
H4594 H 0.61008 0.03224 0.71425 0.0
H4595 H 0.62101 0.03325 0.73225 0.0
H4596 H 0.63074 0.04854 0.71703 0.0
H4597 H 0.61992 0.97435 0.69689 0.0
H4598 H 0.6126 0.97599 0.71666 0.0
H4599 H 0.60177 0.97543 0.69875 0.0
H4600 H 0.58878 0.9868 0.75876 0.0
H4601 H 0.56223 0.98411 0.71562 0.0
H4602 H 0.62727 0.01447 0.74545 0.0
H4603 H 0.62479 0.99523 0.73999 0.0
H4604 H 0.61685 -0.00228 0.75904 0.0
H4605 H 0.59506 0.01178 0.69274 0.0
H4606 H 0.57487 0.99442 0.69063 0.0
H4607 H 0.59238 0.99246 0.68736 0.0
loop_
_geom_bond_atom_site_label_1
_geom_bond_atom_site_label_2
_geom_bond_distance
_geom_bond_site_symmetry_2
_ccdc_geom_bond_type
C0 O1 1.306 . S
C0 O3 1.160 . S
O1 C0 1.306 . S
O1 Cd2 2.228 1_556 S
Cd2 O1 2.228 1_554 S
Cd2 O6 2.273 . S
Cd2 O10 2.277 1_554 S
O3 C0 1.160 . S
O3 Cd4 2.203 1_656 S
Cd4 O3 2.203 1_454 S
Cd4 O6 2.411 1_455 S
Cd4 O7 2.333 . S
Cd4 O8 2.352 . S
Cd4 O12 2.277 1_554 S
Cd4 O13 2.356 . S
C5 O10 1.209 1_455 S
C5 O12 1.226 . S
O6 Cd2 2.273 . S
O6 Cd4 2.411 1_655 S
O6 C9 1.320 1_655 S
O7 Cd4 2.333 . S
O7 C9 1.214 . S
O8 Cd4 2.352 . S
O8 C11 1.258 . S
C9 O6 1.320 1_455 S
C9 O7 1.214 . S
O10 Cd2 2.277 1_556 S
O10 C5 1.209 1_655 S
C11 O8 1.258 . S
C11 O13 1.282 . S
O12 Cd4 2.277 1_556 S
O12 C5 1.226 . S
O13 Cd4 2.356 . S
O13 C11 1.282 . S
C14 O15 1.306 . S
C14 O17 1.160 . S
O15 C14 1.306 . S
O15 Cd16 2.228 . S
Cd16 O15 2.228 . S
Cd16 O20 2.273 . S
Cd16 O24 2.277 . S
O17 C14 1.160 . S
O17 Cd18 2.203 . S
Cd18 O17 2.203 . S
Cd18 O20 2.411 . S
Cd18 O21 2.333 1_554 S
Cd18 O22 2.352 1_554 S
Cd18 O26 2.277 . S
Cd18 O27 2.356 . S
C19 O24 1.209 . S
C19 O26 1.226 . S
O20 Cd16 2.273 . S
O20 Cd18 2.411 . S
O20 C23 1.320 1_554 S
O21 Cd18 2.333 1_556 S
O21 C23 1.214 . S
O22 Cd18 2.352 1_556 S
O22 C25 1.258 . S
C23 O20 1.320 1_556 S
C23 O21 1.214 . S
O24 Cd16 2.277 . S
O24 C19 1.209 . S
C25 O22 1.258 . S
C25 O27 1.282 1_556 S
O26 Cd18 2.277 . S
O26 C19 1.226 . S
O27 Cd18 2.356 . S
O27 C25 1.282 1_554 S
C28 O29 1.306 . S
C28 O31 1.160 . S
O29 C28 1.306 . S
O29 Cd30 2.228 . S
Cd30 O29 2.228 . S
Cd30 O34 2.273 1_554 S
Cd30 O38 2.277 . S
O31 C28 1.160 . S
O31 Cd32 2.203 1_565 S
Cd32 O31 2.203 1_545 S
Cd32 O34 2.411 1_544 S
Cd32 O35 2.333 1_554 S
Cd32 O36 2.352 1_554 S
Cd32 O40 2.277 . S
Cd32 O41 2.356 . S
C33 O38 1.209 1_545 S
C33 O40 1.226 . S
O34 Cd30 2.273 1_556 S
O34 Cd32 2.411 1_566 S
O34 C37 1.320 1_565 S
O35 Cd32 2.333 1_556 S
O35 C37 1.214 . S
O36 Cd32 2.352 1_556 S
O36 C39 1.258 . S
C37 O34 1.320 1_545 S
C37 O35 1.214 . S
O38 Cd30 2.277 . S
O38 C33 1.209 1_565 S
C39 O36 1.258 . S
C39 O41 1.282 1_556 S
O40 Cd32 2.277 . S
O40 C33 1.226 . S
O41 Cd32 2.356 . S
O41 C39 1.282 1_554 S
C42 O43 1.306 1_556 S
C42 O45 1.160 . S
O43 C42 1.306 1_554 S
O43 Cd44 2.228 . S
Cd44 O43 2.228 . S
Cd44 O48 2.273 . S
Cd44 O52 2.277 1_554 S
O45 C42 1.160 . S
O45 Cd46 2.203 1_656 S
Cd46 O45 2.203 1_454 S
Cd46 O48 2.411 1_455 S
Cd46 O49 2.333 . S
Cd46 O50 2.352 . S
Cd46 O54 2.277 1_554 S
Cd46 O55 2.356 . S
C47 O52 1.209 1_455 S
C47 O54 1.226 . S
O48 Cd44 2.273 . S
O48 Cd46 2.411 1_655 S
O48 C51 1.320 . S
O49 Cd46 2.333 . S
O49 C51 1.214 1_455 S
O50 Cd46 2.352 . S
O50 C53 1.258 . S
C51 O48 1.320 . S
C51 O49 1.214 1_655 S
O52 Cd44 2.277 1_556 S
O52 C47 1.209 1_655 S
C53 O50 1.258 . S
C53 O55 1.282 . S
O54 Cd46 2.277 1_556 S
O54 C47 1.226 . S
O55 Cd46 2.356 . S
O55 C53 1.282 . S
C56 O57 1.306 . S
C56 O59 1.160 . S
O57 C56 1.306 . S
O57 Cd58 2.228 . S
Cd58 O57 2.228 . S
Cd58 O62 2.273 1_554 S
Cd58 O66 2.277 . S
O59 C56 1.160 . S
O59 Cd60 2.203 . S
Cd60 O59 2.203 . S
Cd60 O62 2.411 1_554 S
Cd60 O63 2.333 1_554 S
Cd60 O64 2.352 1_554 S
Cd60 O68 2.277 . S
Cd60 O69 2.356 1_554 S
C61 O66 1.209 . S
C61 O68 1.226 . S
O62 Cd58 2.273 1_556 S
O62 Cd60 2.411 1_556 S
O62 C65 1.320 . S
O63 Cd60 2.333 1_556 S
O63 C65 1.214 . S
O64 Cd60 2.352 1_556 S
O64 C67 1.258 . S
C65 O62 1.320 . S
C65 O63 1.214 . S
O66 Cd58 2.277 . S
O66 C61 1.209 . S
C67 O64 1.258 . S
C67 O69 1.282 . S
O68 Cd60 2.277 . S
O68 C61 1.226 . S
O69 Cd60 2.356 1_556 S
O69 C67 1.282 . S
C70 O71 1.306 1_556 S
C70 O73 1.160 . S
O71 C70 1.306 1_554 S
O71 Cd72 2.228 . S
Cd72 O71 2.228 . S
Cd72 O76 2.273 . S
Cd72 O80 2.277 1_554 S
O73 C70 1.160 . S
O73 Cd74 2.203 1_546 S
Cd74 O73 2.203 1_564 S
Cd74 O76 2.411 1_565 S
Cd74 O77 2.333 . S
Cd74 O78 2.352 . S
Cd74 O82 2.277 1_554 S
Cd74 O83 2.356 . S
C75 O80 1.209 1_565 S
C75 O82 1.226 . S
O76 Cd72 2.273 . S
O76 Cd74 2.411 1_545 S
O76 C79 1.320 . S
O77 Cd74 2.333 . S
O77 C79 1.214 1_565 S
O78 Cd74 2.352 . S
O78 C81 1.258 . S
C79 O76 1.320 . S
C79 O77 1.214 1_545 S
O80 Cd72 2.277 1_556 S
O80 C75 1.209 1_545 S
C81 O78 1.258 . S
C81 O83 1.282 . S
O82 Cd74 2.277 1_556 S
O82 C75 1.226 . S
O83 Cd74 2.356 . S
O83 C81 1.282 . S
C84 O85 1.306 . S
C84 O87 1.160 . S
O85 C84 1.306 . S
O85 Cd86 2.228 . S
Cd86 O85 2.228 . S
Cd86 O90 2.273 . S
Cd86 O94 2.277 . S
O87 C84 1.160 . S
O87 Cd88 2.203 . S
Cd88 O87 2.203 . S
Cd88 O90 2.411 . S
Cd88 O91 2.333 . S
Cd88 O92 2.352 . S
Cd88 O96 2.277 . S
Cd88 O97 2.356 . S
C89 O94 1.209 . S
C89 O96 1.226 . S
O90 Cd86 2.273 . S
O90 Cd88 2.411 . S
O90 C93 1.320 . S
O91 Cd88 2.333 . S
O91 C93 1.214 . S
O92 Cd88 2.352 . S
O92 C95 1.258 . S
C93 O90 1.320 . S
C93 O91 1.214 . S
O94 Cd86 2.277 . S
O94 C89 1.209 . S
C95 O92 1.258 . S
C95 O97 1.282 . S
O96 Cd88 2.277 . S
O96 C89 1.226 . S
O97 Cd88 2.356 . S
O97 C95 1.282 . S
C98 O99 1.306 . S
C98 O101 1.160 . S
O99 C98 1.306 . S
O99 Cd100 2.228 1_545 S
Cd100 O99 2.228 1_565 S
Cd100 O104 2.273 . S
Cd100 O108 2.277 . S
O101 C98 1.160 . S
O101 Cd102 2.203 1_545 S
Cd102 O101 2.203 1_565 S
Cd102 O104 2.411 . S
Cd102 O105 2.333 . S
Cd102 O106 2.352 . S
Cd102 O110 2.277 . S
Cd102 O111 2.356 . S
C103 O108 1.209 . S
C103 O110 1.226 . S
O104 Cd100 2.273 . S
O104 Cd102 2.411 . S
O104 C107 1.320 . S
O105 Cd102 2.333 . S
O105 C107 1.214 . S
O106 Cd102 2.352 . S
O106 C109 1.258 . S
C107 O104 1.320 . S
C107 O105 1.214 . S
O108 Cd100 2.277 . S
O108 C103 1.209 . S
C109 O106 1.258 . S
C109 O111 1.282 . S
O110 Cd102 2.277 . S
O110 C103 1.226 . S
O111 Cd102 2.356 . S
O111 C109 1.282 . S
C112 O113 1.293 1_655 S
C112 O115 1.159 1_655 S
O113 C112 1.293 1_455 S
O113 Cd114 2.228 . S
Cd114 O113 2.228 . S
Cd114 O118 2.273 . S
Cd114 O122 2.277 . S
O115 C112 1.159 1_455 S
O115 Cd116 2.203 . S
Cd116 O115 2.203 . S
Cd116 O118 2.411 . S
Cd116 O119 2.333 . S
Cd116 O120 2.352 . S
Cd116 O124 2.277 . S
Cd116 O125 2.356 . S
C117 O122 1.209 . S
C117 O124 1.226 . S
O118 Cd114 2.273 . S
O118 Cd116 2.411 . S
O118 C121 1.320 . S
O119 Cd116 2.333 . S
O119 C121 1.214 . S
O120 Cd116 2.352 . S
O120 C123 1.258 . S
C121 O118 1.320 . S
C121 O119 1.214 . S
O122 Cd114 2.277 . S
O122 C117 1.209 . S
C123 O120 1.258 . S
C123 O125 1.282 . S
O124 Cd116 2.277 . S
O124 C117 1.226 . S
O125 Cd116 2.356 . S
O125 C123 1.282 . S
C126 O127 1.306 . S
C126 O129 1.160 . S
O127 C126 1.306 . S
O127 Cd128 2.228 . S
Cd128 O127 2.228 . S
Cd128 O132 2.273 . S
Cd128 O136 2.277 . S
O129 C126 1.160 . S
O129 Cd130 2.203 . S
Cd130 O129 2.203 . S
Cd130 O132 2.411 . S
Cd130 O133 2.333 . S
Cd130 O134 2.352 1_565 S
Cd130 O138 2.277 . S
Cd130 O139 2.356 1_565 S
C131 O136 1.209 . S
C131 O138 1.226 . S
O132 Cd128 2.273 . S
O132 Cd130 2.411 . S
O132 C135 1.320 . S
O133 Cd130 2.333 . S
O133 C135 1.214 . S
O134 Cd130 2.352 1_545 S
O134 C137 1.258 . S
C135 O132 1.320 . S
C135 O133 1.214 . S
O136 Cd128 2.277 . S
O136 C131 1.209 . S
C137 O134 1.258 . S
C137 O139 1.282 . S
O138 Cd130 2.277 . S
O138 C131 1.226 . S
O139 Cd130 2.356 1_545 S
O139 C137 1.282 . S
C140 O141 1.306 . S
C140 O143 1.160 1_655 S
O141 C140 1.306 . S
O141 Cd142 2.228 1_655 S
Cd142 O141 2.228 1_455 S
Cd142 O146 2.273 . S
Cd142 O150 2.277 . S
O143 C140 1.160 1_455 S
O143 Cd144 2.203 . S
Cd144 O143 2.203 . S
Cd144 O146 2.411 . S
Cd144 O147 2.333 . S
Cd144 O148 2.352 . S
Cd144 O152 2.277 . S
Cd144 O153 2.356 . S
C145 O150 1.209 . S
C145 O152 1.226 . S
O146 Cd142 2.273 . S
O146 Cd144 2.411 . S
O146 C149 1.320 . S
O147 Cd144 2.333 . S
O147 C149 1.214 . S
O148 Cd144 2.352 . S
O148 C151 1.258 . S
C149 O146 1.320 . S
C149 O147 1.214 . S
O150 Cd142 2.277 . S
O150 C145 1.209 . S
C151 O148 1.258 . S
C151 O153 1.282 . S
O152 Cd144 2.277 . S
O152 C145 1.226 . S
O153 Cd144 2.356 . S
O153 C151 1.282 . S
C154 O155 1.306 . S
C154 O157 1.160 . S
O155 C154 1.306 . S
O155 Cd156 2.228 . S
Cd156 O155 2.228 . S
Cd156 O160 2.273 . S
Cd156 O164 2.277 . S
O157 C154 1.160 . S
O157 Cd158 2.203 . S
Cd158 O157 2.203 . S
Cd158 O160 2.411 . S
Cd158 O161 2.333 . S
Cd158 O162 2.352 . S
Cd158 O166 2.277 . S
Cd158 O167 2.356 . S
C159 O164 1.209 . S
C159 O166 1.226 . S
O160 Cd156 2.273 . S
O160 Cd158 2.411 . S
O160 C163 1.320 . S
O161 Cd158 2.333 . S
O161 C163 1.214 . S
O162 Cd158 2.352 . S
O162 C165 1.258 . S
C163 O160 1.320 . S
C163 O161 1.214 . S
O164 Cd156 2.277 . S
O164 C159 1.209 . S
C165 O162 1.258 . S
C165 O167 1.282 . S
O166 Cd158 2.277 . S
O166 C159 1.226 . S
O167 Cd158 2.356 . S
O167 C165 1.282 . S
C168 O169 1.306 . S
C168 O171 1.160 1_565 S
O169 C168 1.306 . S
O169 Cd170 2.228 1_565 S
Cd170 O169 2.228 1_545 S
Cd170 O174 2.273 . S
Cd170 O178 2.277 . S
O171 C168 1.160 1_545 S
O171 Cd172 2.205 . S
Cd172 O171 2.205 . S
Cd172 O174 2.411 . S
Cd172 O175 2.333 . S
Cd172 O176 2.352 . S
Cd172 O180 2.277 . S
Cd172 O181 2.356 . S
C173 O178 1.209 . S
C173 O180 1.226 . S
O174 Cd170 2.273 . S
O174 Cd172 2.411 . S
O174 C177 1.320 . S
O175 Cd172 2.333 . S
O175 C177 1.214 . S
O176 Cd172 2.352 . S
O176 C179 1.258 . S
C177 O174 1.320 . S
C177 O175 1.214 . S
O178 Cd170 2.277 . S
O178 C173 1.209 . S
C179 O176 1.258 . S
C179 O181 1.282 . S
O180 Cd172 2.277 . S
O180 C173 1.226 . S
O181 Cd172 2.356 . S
O181 C179 1.282 . S
C182 O183 1.306 . S
C182 O185 1.234 . S
O183 C182 1.306 . S
O183 Cd184 2.228 . S
Cd184 O183 2.228 . S
Cd184 O188 2.273 . S
Cd184 O192 2.277 . S
O185 C182 1.234 . S
O185 Cd186 2.196 . S
Cd186 O185 2.196 . S
Cd186 O188 2.411 . S
Cd186 O189 2.333 . S
Cd186 O190 2.352 1_655 S
Cd186 O194 2.277 . S
Cd186 O195 2.356 1_655 S
C187 O192 1.209 . S
C187 O194 1.226 . S
O188 Cd184 2.273 . S
O188 Cd186 2.411 . S
O188 C191 1.320 . S
O189 Cd186 2.333 . S
O189 C191 1.214 . S
O190 Cd186 2.352 1_455 S
O190 C193 1.258 . S
C191 O188 1.320 . S
C191 O189 1.214 . S
O192 Cd184 2.277 . S
O192 C187 1.209 . S
C193 O190 1.258 . S
C193 O195 1.282 . S
O194 Cd186 2.277 . S
O194 C187 1.226 . S
O195 Cd186 2.356 1_455 S
O195 C193 1.282 . S
C196 O197 1.306 . S
C196 O199 1.160 . S
O197 C196 1.306 . S
O197 Cd198 2.228 . S
Cd198 O197 2.228 . S
Cd198 O202 2.273 . S
Cd198 O206 2.277 . S
O199 C196 1.160 . S
O199 Cd200 2.203 . S
Cd200 O199 2.203 . S
Cd200 O202 2.411 . S
Cd200 O203 2.333 . S
Cd200 O204 2.352 . S
Cd200 O208 2.277 . S
Cd200 O209 2.356 . S
C201 O206 1.209 . S
C201 O208 1.226 . S
O202 Cd198 2.273 . S
O202 Cd200 2.411 . S
O202 C205 1.320 . S
O203 Cd200 2.333 . S
O203 C205 1.214 . S
O204 Cd200 2.352 . S
O204 C207 1.258 . S
C205 O202 1.320 . S
C205 O203 1.214 . S
O206 Cd198 2.277 . S
O206 C201 1.209 . S
C207 O204 1.258 . S
C207 O209 1.282 . S
O208 Cd200 2.277 . S
O208 C201 1.226 . S
O209 Cd200 2.356 . S
O209 C207 1.282 . S
C210 O211 1.306 . S
C210 O213 1.160 . S
O211 C210 1.306 . S
O211 Cd212 2.228 . S
Cd212 O211 2.228 . S
Cd212 O216 2.273 . S
Cd212 O220 2.277 . S
O213 C210 1.160 . S
O213 Cd214 2.203 . S
Cd214 O213 2.203 . S
Cd214 O216 2.411 . S
Cd214 O217 2.333 . S
Cd214 O218 2.352 . S
Cd214 O222 2.277 . S
Cd214 O223 2.356 . S
C215 O220 1.209 . S
C215 O222 1.226 . S
O216 Cd212 2.273 . S
O216 Cd214 2.411 . S
O216 C219 1.320 . S
O217 Cd214 2.333 . S
O217 C219 1.214 . S
O218 Cd214 2.352 . S
O218 C221 1.258 . S
C219 O216 1.320 . S
C219 O217 1.214 . S
O220 Cd212 2.277 . S
O220 C215 1.209 . S
C221 O218 1.258 . S
C221 O223 1.282 . S
O222 Cd214 2.277 . S
O222 C215 1.226 . S
O223 Cd214 2.356 . S
O223 C221 1.282 . S
C224 O225 1.306 . S
C224 O227 1.160 . S
O225 C224 1.306 . S
O225 Cd226 2.228 . S
Cd226 O225 2.228 . S
Cd226 O230 2.273 . S
Cd226 O234 2.277 . S
O227 C224 1.160 . S
O227 Cd228 2.203 . S
Cd228 O227 2.203 . S
Cd228 O230 2.411 . S
Cd228 O231 2.333 . S
Cd228 O232 2.352 1_545 S
Cd228 O236 2.277 . S
Cd228 O237 2.356 1_545 S
C229 O234 1.209 . S
C229 O236 1.226 . S
O230 Cd226 2.273 . S
O230 Cd228 2.411 . S
O230 C233 1.320 . S
O231 Cd228 2.333 . S
O231 C233 1.214 . S
O232 Cd228 2.352 1_565 S
O232 C235 1.258 . S
C233 O230 1.320 . S
C233 O231 1.214 . S
O234 Cd226 2.277 . S
O234 C229 1.209 . S
C235 O232 1.258 . S
C235 O237 1.282 . S
O236 Cd228 2.277 . S
O236 C229 1.226 . S
O237 Cd228 2.356 1_565 S
O237 C235 1.282 . S
C238 O239 1.306 . S
C238 O241 1.160 . S
O239 C238 1.306 . S
O239 Cd240 2.228 1_455 S
Cd240 O239 2.228 1_655 S
Cd240 O244 2.273 . S
Cd240 O248 2.277 . S
O241 C238 1.160 . S
O241 Cd242 2.203 1_455 S
Cd242 O241 2.203 1_655 S
Cd242 O244 2.411 . S
Cd242 O245 2.333 . S
Cd242 O246 2.352 . S
Cd242 O250 2.277 . S
Cd242 O251 2.356 . S
C243 O248 1.209 . S
C243 O250 1.226 . S
O244 Cd240 2.273 . S
O244 Cd242 2.411 . S
O244 C247 1.320 . S
O245 Cd242 2.333 . S
O245 C247 1.214 . S
O246 Cd242 2.352 . S
O246 C249 1.258 . S
C247 O244 1.320 . S
C247 O245 1.214 . S
O248 Cd240 2.277 . S
O248 C243 1.209 . S
C249 O246 1.258 . S
C249 O251 1.282 . S
O250 Cd242 2.277 . S
O250 C243 1.226 . S
O251 Cd242 2.356 . S
O251 C249 1.282 . S
C252 C253 1.560 . S
C252 H313 0.959 . S
C252 H314 0.959 . S
C252 H315 0.960 . S
C253 C252 1.560 . S
C253 O308 1.426 . S
C253 H312 0.980 . S
C254 C255 1.407 . S
C254 C259 1.418 . S
C254 O308 1.334 . S
C255 C254 1.407 . S
C255 C256 1.360 . S
C255 H316 0.929 . S
C256 C255 1.360 . S
C256 C257 1.401 . S
C256 C260 1.527 . S
C257 C256 1.401 . S
C257 C258 1.405 . S
C257 C290 1.587 . S
C258 C257 1.405 . S
C258 C259 1.332 . S
C258 C261 1.496 . S
C259 C254 1.418 . S
C259 C258 1.332 . S
C259 H317 0.929 . S
C260 C256 1.527 . S
C260 H318 0.959 . S
C260 H319 0.961 . S
C260 H320 0.961 . S
C261 C258 1.496 . S
C261 H321 0.960 . S
C261 H322 0.960 . S
C261 H323 0.961 . S
C262 C263 1.517 . S
C262 H325 0.961 . S
C262 H326 0.960 . S
C262 H327 0.959 . S
C263 C262 1.517 . S
C263 O311 1.468 . S
C263 H324 0.980 . S
C264 C265 1.349 . S
C264 C269 1.367 . S
C264 O311 1.408 . S
C265 C264 1.349 . S
C265 C266 1.407 . S
C265 H328 0.930 . S
C266 C265 1.407 . S
C266 C267 1.449 . S
C266 C270 1.535 . S
C267 C266 1.449 . S
C267 C268 1.384 . S
C267 C292 1.553 . S
C268 C267 1.384 . S
C268 C269 1.364 . S
C268 C271 1.450 . S
C269 C264 1.367 . S
C269 C268 1.364 . S
C269 H329 0.931 . S
C270 C266 1.535 . S
C270 H330 0.959 . S
C270 H331 0.961 . S
C270 H332 0.959 . S
C271 C268 1.450 . S
C271 H333 0.960 . S
C271 H334 0.960 . S
C271 H335 0.960 . S
C272 C273 1.309 . S
C272 C277 1.304 . S
C272 O310 1.435 . S
C273 C272 1.309 . S
C273 C274 1.476 . S
C273 H337 0.930 . S
C274 C273 1.476 . S
C274 C275 1.400 . S
C274 C278 1.567 . S
C275 C274 1.400 . S
C275 C276 1.373 . S
C275 C297 1.432 . S
C276 C275 1.373 . S
C276 C277 1.339 . S
C276 C279 1.530 . S
C277 C272 1.304 . S
C277 C276 1.339 . S
C277 H338 0.930 . S
C278 C274 1.567 . S
C278 H339 0.961 . S
C278 H340 0.960 . S
C278 H341 0.958 . S
C279 C276 1.530 . S
C279 H342 0.961 . S
C279 H343 0.960 . S
C279 H344 0.960 . S
C280 C281 1.530 . S
C280 H346 0.961 . S
C280 H347 0.961 . S
C280 H348 0.959 . S
C281 C280 1.530 . S
C281 O309 1.412 . S
C281 H345 0.980 . S
C282 C283 1.288 . S
C282 C287 1.377 . S
C282 O309 1.393 . S
C283 C282 1.288 . S
C283 C284 1.369 . S
C283 H349 0.932 . S
C284 C283 1.369 . S
C284 C285 1.398 . S
C284 C288 1.527 . S
C285 C284 1.398 . S
C285 C286 1.380 . S
C285 C299 1.497 . S
C286 C285 1.380 . S
C286 C287 1.383 . S
C286 C289 1.603 . S
C287 C282 1.377 . S
C287 C286 1.383 . S
C287 H350 0.929 . S
C288 C284 1.527 . S
C288 H351 0.961 . S
C288 H352 0.959 . S
C288 H353 0.959 . S
C289 C286 1.603 . S
C289 H354 0.960 . S
C289 H355 0.962 . S
C289 H356 0.961 . S
C290 C257 1.587 . S
C290 C291 1.360 . S
C290 C303 1.412 . S
C291 C290 1.360 . S
C291 C292 1.365 . S
C291 H357 0.929 . S
C292 C267 1.553 . S
C292 C291 1.365 . S
C292 C293 1.404 . S
C293 C292 1.404 . S
C293 C294 1.395 . S
C293 C304 1.451 . S
C294 C293 1.395 . S
C294 C295 1.322 . S
C294 H358 0.930 . S
C295 C294 1.322 . S
C295 C296 1.459 . S
C295 H359 0.929 . S
C296 C295 1.459 . S
C296 C297 1.445 . S
C296 C305 1.395 . S
C297 C275 1.432 . S
C297 C296 1.445 . S
C297 C298 1.370 . S
C298 C297 1.370 . S
C298 C299 1.438 . S
C298 H360 0.930 . S
C299 C285 1.497 . S
C299 C298 1.438 . S
C299 C300 1.360 . S
C300 C299 1.360 . S
C300 C301 1.401 . S
C300 C305 1.446 . S
C301 C300 1.401 . S
C301 C302 1.347 . S
C301 H361 0.929 . S
C302 C301 1.347 . S
C302 C303 1.455 . S
C302 H362 0.930 . S
C303 C290 1.412 . S
C303 C302 1.455 . S
C303 C304 1.331 . S
C304 C293 1.451 . S
C304 C303 1.331 . S
C304 C305 1.497 . S
C305 C296 1.395 . S
C305 C300 1.446 . S
C305 C304 1.497 . S
C306 C307 1.582 . S
C306 H363 0.962 . S
C306 H364 0.959 . S
C306 H365 0.958 . S
C307 C306 1.582 . S
C307 O310 1.458 . S
C307 H336 0.980 . S
O308 C253 1.426 . S
O308 C254 1.334 . S
O309 C281 1.412 . S
O309 C282 1.393 . S
O310 C272 1.435 . S
O310 C307 1.458 . S
O311 C263 1.468 . S
O311 C264 1.408 . S
H312 C253 0.980 . S
H313 C252 0.959 . S
H314 C252 0.959 . S
H315 C252 0.960 . S
H316 C255 0.929 . S
H317 C259 0.929 . S
H318 C260 0.959 . S
H319 C260 0.961 . S
H320 C260 0.961 . S
H321 C261 0.960 . S
H322 C261 0.960 . S
H323 C261 0.961 . S
H324 C263 0.980 . S
H325 C262 0.961 . S
H326 C262 0.960 . S
H327 C262 0.959 . S
H328 C265 0.930 . S
H329 C269 0.931 . S
H330 C270 0.959 . S
H331 C270 0.961 . S
H332 C270 0.959 . S
H333 C271 0.960 . S
H334 C271 0.960 . S
H335 C271 0.960 . S
H336 C307 0.980 . S
H337 C273 0.930 . S
H338 C277 0.930 . S
H339 C278 0.961 . S
H340 C278 0.960 . S
H341 C278 0.958 . S
H342 C279 0.961 . S
H343 C279 0.960 . S
H344 C279 0.960 . S
H345 C281 0.980 . S
H346 C280 0.961 . S
H347 C280 0.961 . S
H348 C280 0.959 . S
H349 C283 0.932 . S
H350 C287 0.929 . S
H351 C288 0.961 . S
H352 C288 0.959 . S
H353 C288 0.959 . S
H354 C289 0.960 . S
H355 C289 0.962 . S
H356 C289 0.961 . S
H357 C291 0.929 . S
H358 C294 0.930 . S
H359 C295 0.929 . S
H360 C298 0.930 . S
H361 C301 0.929 . S
H362 C302 0.930 . S
H363 C306 0.962 . S
H364 C306 0.959 . S
H365 C306 0.958 . S
C366 C367 1.560 . S
C366 H427 0.959 . S
C366 H428 0.959 . S
C366 H429 0.960 . S
C367 C366 1.560 . S
C367 O422 1.426 . S
C367 H426 0.980 . S
C368 C369 1.407 . S
C368 C373 1.418 . S
C368 O422 1.334 . S
C369 C368 1.407 . S
C369 C370 1.360 . S
C369 H430 0.929 . S
C370 C369 1.360 . S
C370 C371 1.401 . S
C370 C374 1.527 . S
C371 C370 1.401 . S
C371 C372 1.405 . S
C371 C404 1.587 . S
C372 C371 1.405 . S
C372 C373 1.332 . S
C372 C375 1.496 . S
C373 C368 1.418 . S
C373 C372 1.332 . S
C373 H431 0.929 . S
C374 C370 1.527 . S
C374 H432 0.959 . S
C374 H433 0.961 . S
C374 H434 0.961 . S
C375 C372 1.496 . S
C375 H435 0.960 . S
C375 H436 0.960 . S
C375 H437 0.961 . S
C376 C377 1.517 . S
C376 H439 0.961 . S
C376 H440 0.960 . S
C376 H441 0.959 . S
C377 C376 1.517 . S
C377 O425 1.468 . S
C377 H438 0.980 . S
C378 C379 1.349 . S
C378 C383 1.367 . S
C378 O425 1.408 . S
C379 C378 1.349 . S
C379 C380 1.407 . S
C379 H442 0.930 . S
C380 C379 1.407 . S
C380 C381 1.449 . S
C380 C384 1.535 . S
C381 C380 1.449 . S
C381 C382 1.384 . S
C381 C406 1.553 . S
C382 C381 1.384 . S
C382 C383 1.364 . S
C382 C385 1.450 . S
C383 C378 1.367 . S
C383 C382 1.364 . S
C383 H443 0.931 . S
C384 C380 1.535 . S
C384 H444 0.959 . S
C384 H445 0.961 . S
C384 H446 0.959 . S
C385 C382 1.450 . S
C385 H447 0.960 . S
C385 H448 0.960 . S
C385 H449 0.960 . S
C386 C387 1.309 . S
C386 C391 1.304 . S
C386 O424 1.435 . S
C387 C386 1.309 . S
C387 C388 1.476 . S
C387 H451 0.930 . S
C388 C387 1.476 . S
C388 C389 1.400 . S
C388 C392 1.567 . S
C389 C388 1.400 . S
C389 C390 1.373 . S
C389 C411 1.432 . S
C390 C389 1.373 . S
C390 C391 1.339 . S
C390 C393 1.530 . S
C391 C386 1.304 . S
C391 C390 1.339 . S
C391 H452 0.930 . S
C392 C388 1.567 . S
C392 H453 0.961 . S
C392 H454 0.960 . S
C392 H455 0.958 . S
C393 C390 1.530 . S
C393 H456 0.961 . S
C393 H457 0.960 . S
C393 H458 0.960 . S
C394 C395 1.530 . S
C394 H460 0.961 . S
C394 H461 0.961 . S
C394 H462 0.959 . S
C395 C394 1.530 . S
C395 O423 1.412 . S
C395 H459 0.980 . S
C396 C397 1.288 . S
C396 C401 1.377 . S
C396 O423 1.393 . S
C397 C396 1.288 . S
C397 C398 1.369 . S
C397 H463 0.932 . S
C398 C397 1.369 . S
C398 C399 1.398 . S
C398 C402 1.527 . S
C399 C398 1.398 . S
C399 C400 1.380 . S
C399 C413 1.497 . S
C400 C399 1.380 . S
C400 C401 1.383 . S
C400 C403 1.603 . S
C401 C396 1.377 . S
C401 C400 1.383 . S
C401 H464 0.929 . S
C402 C398 1.527 . S
C402 H465 0.961 . S
C402 H466 0.959 . S
C402 H467 0.959 . S
C403 C400 1.603 . S
C403 H468 0.960 . S
C403 H469 0.962 . S
C403 H470 0.961 . S
C404 C371 1.587 . S
C404 C405 1.360 . S
C404 C417 1.412 . S
C405 C404 1.360 . S
C405 C406 1.365 . S
C405 H471 0.929 . S
C406 C381 1.553 . S
C406 C405 1.365 . S
C406 C407 1.404 . S
C407 C406 1.404 . S
C407 C408 1.395 . S
C407 C418 1.451 . S
C408 C407 1.395 . S
C408 C409 1.322 . S
C408 H472 0.930 . S
C409 C408 1.322 . S
C409 C410 1.459 . S
C409 H473 0.929 . S
C410 C409 1.459 . S
C410 C411 1.445 . S
C410 C419 1.395 . S
C411 C389 1.432 . S
C411 C410 1.445 . S
C411 C412 1.370 . S
C412 C411 1.370 . S
C412 C413 1.438 . S
C412 H474 0.930 . S
C413 C399 1.497 . S
C413 C412 1.438 . S
C413 C414 1.360 . S
C414 C413 1.360 . S
C414 C415 1.401 . S
C414 C419 1.446 . S
C415 C414 1.401 . S
C415 C416 1.347 . S
C415 H475 0.929 . S
C416 C415 1.347 . S
C416 C417 1.455 . S
C416 H476 0.930 . S
C417 C404 1.412 . S
C417 C416 1.455 . S
C417 C418 1.331 . S
C418 C407 1.451 . S
C418 C417 1.331 . S
C418 C419 1.497 . S
C419 C410 1.395 . S
C419 C414 1.446 . S
C419 C418 1.497 . S
C420 C421 1.582 . S
C420 H477 0.962 . S
C420 H478 0.959 . S
C420 H479 0.958 . S
C421 C420 1.582 . S
C421 O424 1.458 . S
C421 H450 0.980 . S
O422 C367 1.426 . S
O422 C368 1.334 . S
O423 C395 1.412 . S
O423 C396 1.393 . S
O424 C386 1.435 . S
O424 C421 1.458 . S
O425 C377 1.468 . S
O425 C378 1.408 . S
H426 C367 0.980 . S
H427 C366 0.959 . S
H428 C366 0.959 . S
H429 C366 0.960 . S
H430 C369 0.929 . S
H431 C373 0.929 . S
H432 C374 0.959 . S
H433 C374 0.961 . S
H434 C374 0.961 . S
H435 C375 0.960 . S
H436 C375 0.960 . S
H437 C375 0.961 . S
H438 C377 0.980 . S
H439 C376 0.961 . S
H440 C376 0.960 . S
H441 C376 0.959 . S
H442 C379 0.930 . S
H443 C383 0.931 . S
H444 C384 0.959 . S
H445 C384 0.961 . S
H446 C384 0.959 . S
H447 C385 0.960 . S
H448 C385 0.960 . S
H449 C385 0.960 . S
H450 C421 0.980 . S
H451 C387 0.930 . S
H452 C391 0.930 . S
H453 C392 0.961 . S
H454 C392 0.960 . S
H455 C392 0.958 . S
H456 C393 0.961 . S
H457 C393 0.960 . S
H458 C393 0.960 . S
H459 C395 0.980 . S
H460 C394 0.961 . S
H461 C394 0.961 . S
H462 C394 0.959 . S
H463 C397 0.932 . S
H464 C401 0.929 . S
H465 C402 0.961 . S
H466 C402 0.959 . S
H467 C402 0.959 . S
H468 C403 0.960 . S
H469 C403 0.962 . S
H470 C403 0.961 . S
H471 C405 0.929 . S
H472 C408 0.930 . S
H473 C409 0.929 . S
H474 C412 0.930 . S
H475 C415 0.929 . S
H476 C416 0.930 . S
H477 C420 0.962 . S
H478 C420 0.959 . S
H479 C420 0.958 . S
C480 C481 1.560 . S
C480 H541 0.959 . S
C480 H542 0.959 . S
C480 H543 0.960 . S
C481 C480 1.560 . S
C481 O536 1.426 . S
C481 H540 0.980 . S
C482 C483 1.407 . S
C482 C487 1.418 . S
C482 O536 1.334 . S
C483 C482 1.407 . S
C483 C484 1.360 . S
C483 H544 0.929 . S
C484 C483 1.360 . S
C484 C485 1.401 . S
C484 C488 1.527 . S
C485 C484 1.401 . S
C485 C486 1.405 . S
C485 C518 1.587 . S
C486 C485 1.405 . S
C486 C487 1.332 . S
C486 C489 1.496 . S
C487 C482 1.418 . S
C487 C486 1.332 . S
C487 H545 0.929 . S
C488 C484 1.527 . S
C488 H546 0.959 . S
C488 H547 0.961 . S
C488 H548 0.961 . S
C489 C486 1.496 . S
C489 H549 0.960 . S
C489 H550 0.960 . S
C489 H551 0.961 . S
C490 C491 1.517 . S
C490 H553 0.961 . S
C490 H554 0.960 . S
C490 H555 0.959 . S
C491 C490 1.517 . S
C491 O539 1.468 . S
C491 H552 0.980 . S
C492 C493 1.349 . S
C492 C497 1.367 . S
C492 O539 1.408 . S
C493 C492 1.349 . S
C493 C494 1.407 . S
C493 H556 0.930 . S
C494 C493 1.407 . S
C494 C495 1.449 . S
C494 C498 1.535 . S
C495 C494 1.449 . S
C495 C496 1.384 . S
C495 C520 1.553 . S
C496 C495 1.384 . S
C496 C497 1.364 . S
C496 C499 1.450 . S
C497 C492 1.367 . S
C497 C496 1.364 . S
C497 H557 0.931 . S
C498 C494 1.535 . S
C498 H558 0.959 . S
C498 H559 0.961 . S
C498 H560 0.959 . S
C499 C496 1.450 . S
C499 H561 0.960 . S
C499 H562 0.960 . S
C499 H563 0.960 . S
C500 C501 1.309 . S
C500 C505 1.304 . S
C500 O538 1.435 . S
C501 C500 1.309 . S
C501 C502 1.476 . S
C501 H565 0.930 . S
C502 C501 1.476 . S
C502 C503 1.400 . S
C502 C506 1.567 . S
C503 C502 1.400 . S
C503 C504 1.373 . S
C503 C525 1.432 . S
C504 C503 1.373 . S
C504 C505 1.339 . S
C504 C507 1.530 . S
C505 C500 1.304 . S
C505 C504 1.339 . S
C505 H566 0.930 . S
C506 C502 1.567 . S
C506 H567 0.961 . S
C506 H568 0.960 . S
C506 H569 0.958 . S
C507 C504 1.530 . S
C507 H570 0.961 . S
C507 H571 0.960 . S
C507 H572 0.960 . S
C508 C509 1.530 . S
C508 H574 0.961 . S
C508 H575 0.961 . S
C508 H576 0.959 . S
C509 C508 1.530 . S
C509 O537 1.412 . S
C509 H573 0.980 . S
C510 C511 1.288 . S
C510 C515 1.377 . S
C510 O537 1.393 . S
C511 C510 1.288 . S
C511 C512 1.369 . S
C511 H577 0.932 . S
C512 C511 1.369 . S
C512 C513 1.398 . S
C512 C516 1.527 . S
C513 C512 1.398 . S
C513 C514 1.380 . S
C513 C527 1.497 . S
C514 C513 1.380 . S
C514 C515 1.383 . S
C514 C517 1.603 . S
C515 C510 1.377 . S
C515 C514 1.383 . S
C515 H578 0.929 . S
C516 C512 1.527 . S
C516 H579 0.961 . S
C516 H580 0.959 . S
C516 H581 0.959 . S
C517 C514 1.603 . S
C517 H582 0.960 . S
C517 H583 0.962 . S
C517 H584 0.961 . S
C518 C485 1.587 . S
C518 C519 1.360 . S
C518 C531 1.412 . S
C519 C518 1.360 . S
C519 C520 1.365 . S
C519 H585 0.929 . S
C520 C495 1.553 . S
C520 C519 1.365 . S
C520 C521 1.404 . S
C521 C520 1.404 . S
C521 C522 1.395 . S
C521 C532 1.451 . S
C522 C521 1.395 . S
C522 C523 1.322 . S
C522 H586 0.930 . S
C523 C522 1.322 . S
C523 C524 1.459 . S
C523 H587 0.929 . S
C524 C523 1.459 . S
C524 C525 1.445 . S
C524 C533 1.395 . S
C525 C503 1.432 . S
C525 C524 1.445 . S
C525 C526 1.370 . S
C526 C525 1.370 . S
C526 C527 1.438 . S
C526 H588 0.930 . S
C527 C513 1.497 . S
C527 C526 1.438 . S
C527 C528 1.360 . S
C528 C527 1.360 . S
C528 C529 1.401 . S
C528 C533 1.446 . S
C529 C528 1.401 . S
C529 C530 1.347 . S
C529 H589 0.929 . S
C530 C529 1.347 . S
C530 C531 1.455 . S
C530 H590 0.930 . S
C531 C518 1.412 . S
C531 C530 1.455 . S
C531 C532 1.331 . S
C532 C521 1.451 . S
C532 C531 1.331 . S
C532 C533 1.497 . S
C533 C524 1.395 . S
C533 C528 1.446 . S
C533 C532 1.497 . S
C534 C535 1.582 . S
C534 H591 0.962 . S
C534 H592 0.959 . S
C534 H593 0.958 . S
C535 C534 1.582 . S
C535 O538 1.458 . S
C535 H564 0.980 . S
O536 C481 1.426 . S
O536 C482 1.334 . S
O537 C509 1.412 . S
O537 C510 1.393 . S
O538 C500 1.435 . S
O538 C535 1.458 . S
O539 C491 1.468 . S
O539 C492 1.408 . S
H540 C481 0.980 . S
H541 C480 0.959 . S
H542 C480 0.959 . S
H543 C480 0.960 . S
H544 C483 0.929 . S
H545 C487 0.929 . S
H546 C488 0.959 . S
H547 C488 0.961 . S
H548 C488 0.961 . S
H549 C489 0.960 . S
H550 C489 0.960 . S
H551 C489 0.961 . S
H552 C491 0.980 . S
H553 C490 0.961 . S
H554 C490 0.960 . S
H555 C490 0.959 . S
H556 C493 0.930 . S
H557 C497 0.931 . S
H558 C498 0.959 . S
H559 C498 0.961 . S
H560 C498 0.959 . S
H561 C499 0.960 . S
H562 C499 0.960 . S
H563 C499 0.960 . S
H564 C535 0.980 . S
H565 C501 0.930 . S
H566 C505 0.930 . S
H567 C506 0.961 . S
H568 C506 0.960 . S
H569 C506 0.958 . S
H570 C507 0.961 . S
H571 C507 0.960 . S
H572 C507 0.960 . S
H573 C509 0.980 . S
H574 C508 0.961 . S
H575 C508 0.961 . S
H576 C508 0.959 . S
H577 C511 0.932 . S
H578 C515 0.929 . S
H579 C516 0.961 . S
H580 C516 0.959 . S
H581 C516 0.959 . S
H582 C517 0.960 . S
H583 C517 0.962 . S
H584 C517 0.961 . S
H585 C519 0.929 . S
H586 C522 0.930 . S
H587 C523 0.929 . S
H588 C526 0.930 . S
H589 C529 0.929 . S
H590 C530 0.930 . S
H591 C534 0.962 . S
H592 C534 0.959 . S
H593 C534 0.958 . S
C594 C595 1.560 . S
C594 H655 0.959 . S
C594 H656 0.959 . S
C594 H657 0.960 . S
C595 C594 1.560 . S
C595 O650 1.426 . S
C595 H654 0.980 . S
C596 C597 1.407 . S
C596 C601 1.418 . S
C596 O650 1.334 . S
C597 C596 1.407 . S
C597 C598 1.360 . S
C597 H658 0.929 . S
C598 C597 1.360 . S
C598 C599 1.401 . S
C598 C602 1.527 . S
C599 C598 1.401 . S
C599 C600 1.405 . S
C599 C632 1.587 . S
C600 C599 1.405 . S
C600 C601 1.332 . S
C600 C603 1.496 . S
C601 C596 1.418 . S
C601 C600 1.332 . S
C601 H659 0.929 . S
C602 C598 1.527 . S
C602 H660 0.959 . S
C602 H661 0.961 . S
C602 H662 0.961 . S
C603 C600 1.496 . S
C603 H663 0.960 . S
C603 H664 0.960 . S
C603 H665 0.961 . S
C604 C605 1.517 . S
C604 H667 0.961 . S
C604 H668 0.960 . S
C604 H669 0.959 . S
C605 C604 1.517 . S
C605 O653 1.468 . S
C605 H666 0.980 . S
C606 C607 1.349 . S
C606 C611 1.367 . S
C606 O653 1.408 . S
C607 C606 1.349 . S
C607 C608 1.407 . S
C607 H670 0.930 . S
C608 C607 1.407 . S
C608 C609 1.449 . S
C608 C612 1.535 . S
C609 C608 1.449 . S
C609 C610 1.384 . S
C609 C634 1.553 . S
C610 C609 1.384 . S
C610 C611 1.364 . S
C610 C613 1.450 . S
C611 C606 1.367 . S
C611 C610 1.364 . S
C611 H671 0.931 . S
C612 C608 1.535 . S
C612 H672 0.959 . S
C612 H673 0.961 . S
C612 H674 0.959 . S
C613 C610 1.450 . S
C613 H675 0.960 . S
C613 H676 0.960 . S
C613 H677 0.960 . S
C614 C615 1.309 . S
C614 C619 1.304 . S
C614 O652 1.435 . S
C615 C614 1.309 . S
C615 C616 1.476 . S
C615 H679 0.930 . S
C616 C615 1.476 . S
C616 C617 1.400 . S
C616 C620 1.567 . S
C617 C616 1.400 . S
C617 C618 1.373 . S
C617 C639 1.432 . S
C618 C617 1.373 . S
C618 C619 1.339 . S
C618 C621 1.530 . S
C619 C614 1.304 . S
C619 C618 1.339 . S
C619 H680 0.930 . S
C620 C616 1.567 . S
C620 H681 0.961 . S
C620 H682 0.960 . S
C620 H683 0.958 . S
C621 C618 1.530 . S
C621 H684 0.961 . S
C621 H685 0.960 . S
C621 H686 0.960 . S
C622 C623 1.530 . S
C622 H688 0.961 . S
C622 H689 0.961 . S
C622 H690 0.959 . S
C623 C622 1.530 . S
C623 O651 1.412 . S
C623 H687 0.980 . S
C624 C625 1.288 . S
C624 C629 1.377 . S
C624 O651 1.393 . S
C625 C624 1.288 . S
C625 C626 1.369 . S
C625 H691 0.932 . S
C626 C625 1.369 . S
C626 C627 1.398 . S
C626 C630 1.527 . S
C627 C626 1.398 . S
C627 C628 1.380 . S
C627 C641 1.497 . S
C628 C627 1.380 . S
C628 C629 1.383 . S
C628 C631 1.603 . S
C629 C624 1.377 . S
C629 C628 1.383 . S
C629 H692 0.929 . S
C630 C626 1.527 . S
C630 H693 0.961 . S
C630 H694 0.959 . S
C630 H695 0.959 . S
C631 C628 1.603 . S
C631 H696 0.960 . S
C631 H697 0.962 . S
C631 H698 0.961 . S
C632 C599 1.587 . S
C632 C633 1.360 . S
C632 C645 1.412 . S
C633 C632 1.360 . S
C633 C634 1.365 . S
C633 H699 0.929 . S
C634 C609 1.553 . S
C634 C633 1.365 . S
C634 C635 1.404 . S
C635 C634 1.404 . S
C635 C636 1.395 . S
C635 C646 1.451 . S
C636 C635 1.395 . S
C636 C637 1.322 . S
C636 H700 0.930 . S
C637 C636 1.322 . S
C637 C638 1.459 . S
C637 H701 0.929 . S
C638 C637 1.459 . S
C638 C639 1.445 . S
C638 C647 1.395 . S
C639 C617 1.432 . S
C639 C638 1.445 . S
C639 C640 1.370 . S
C640 C639 1.370 . S
C640 C641 1.438 . S
C640 H702 0.930 . S
C641 C627 1.497 . S
C641 C640 1.438 . S
C641 C642 1.360 . S
C642 C641 1.360 . S
C642 C643 1.401 . S
C642 C647 1.446 . S
C643 C642 1.401 . S
C643 C644 1.347 . S
C643 H703 0.929 . S
C644 C643 1.347 . S
C644 C645 1.455 . S
C644 H704 0.930 . S
C645 C632 1.412 . S
C645 C644 1.455 . S
C645 C646 1.331 . S
C646 C635 1.451 . S
C646 C645 1.331 . S
C646 C647 1.497 . S
C647 C638 1.395 . S
C647 C642 1.446 . S
C647 C646 1.497 . S
C648 C649 1.582 . S
C648 H705 0.962 . S
C648 H706 0.959 . S
C648 H707 0.958 . S
C649 C648 1.582 . S
C649 O652 1.458 . S
C649 H678 0.980 . S
O650 C595 1.426 . S
O650 C596 1.334 . S
O651 C623 1.412 . S
O651 C624 1.393 . S
O652 C614 1.435 . S
O652 C649 1.458 . S
O653 C605 1.468 . S
O653 C606 1.408 . S
H654 C595 0.980 . S
H655 C594 0.959 . S
H656 C594 0.959 . S
H657 C594 0.960 . S
H658 C597 0.929 . S
H659 C601 0.929 . S
H660 C602 0.959 . S
H661 C602 0.961 . S
H662 C602 0.961 . S
H663 C603 0.960 . S
H664 C603 0.960 . S
H665 C603 0.961 . S
H666 C605 0.980 . S
H667 C604 0.961 . S
H668 C604 0.960 . S
H669 C604 0.959 . S
H670 C607 0.930 . S
H671 C611 0.931 . S
H672 C612 0.959 . S
H673 C612 0.961 . S
H674 C612 0.959 . S
H675 C613 0.960 . S
H676 C613 0.960 . S
H677 C613 0.960 . S
H678 C649 0.980 . S
H679 C615 0.930 . S
H680 C619 0.930 . S
H681 C620 0.961 . S
H682 C620 0.960 . S
H683 C620 0.958 . S
H684 C621 0.961 . S
H685 C621 0.960 . S
H686 C621 0.960 . S
H687 C623 0.980 . S
H688 C622 0.961 . S
H689 C622 0.961 . S
H690 C622 0.959 . S
H691 C625 0.932 . S
H692 C629 0.929 . S
H693 C630 0.961 . S
H694 C630 0.959 . S
H695 C630 0.959 . S
H696 C631 0.960 . S
H697 C631 0.962 . S
H698 C631 0.961 . S
H699 C633 0.929 . S
H700 C636 0.930 . S
H701 C637 0.929 . S
H702 C640 0.930 . S
H703 C643 0.929 . S
H704 C644 0.930 . S
H705 C648 0.962 . S
H706 C648 0.959 . S
H707 C648 0.958 . S
C708 C709 1.560 . S
C708 H769 0.959 . S
C708 H770 0.959 . S
C708 H771 0.960 . S
C709 C708 1.560 . S
C709 O764 1.426 . S
C709 H768 0.980 . S
C710 C711 1.407 . S
C710 C715 1.418 . S
C710 O764 1.334 . S
C711 C710 1.407 . S
C711 C712 1.360 . S
C711 H772 0.929 . S
C712 C711 1.360 . S
C712 C713 1.401 . S
C712 C716 1.527 . S
C713 C712 1.401 . S
C713 C714 1.405 . S
C713 C746 1.587 . S
C714 C713 1.405 . S
C714 C715 1.332 . S
C714 C717 1.496 . S
C715 C710 1.418 . S
C715 C714 1.332 . S
C715 H773 0.929 . S
C716 C712 1.527 . S
C716 H774 0.959 . S
C716 H775 0.961 . S
C716 H776 0.961 . S
C717 C714 1.496 . S
C717 H777 0.960 . S
C717 H778 0.960 . S
C717 H779 0.961 . S
C718 C719 1.517 . S
C718 H781 0.961 . S
C718 H782 0.960 . S
C718 H783 0.959 . S
C719 C718 1.517 . S
C719 O767 1.468 . S
C719 H780 0.980 . S
C720 C721 1.349 . S
C720 C725 1.367 . S
C720 O767 1.408 . S
C721 C720 1.349 . S
C721 C722 1.407 . S
C721 H784 0.930 . S
C722 C721 1.407 . S
C722 C723 1.449 . S
C722 C726 1.535 . S
C723 C722 1.449 . S
C723 C724 1.384 . S
C723 C748 1.553 . S
C724 C723 1.384 . S
C724 C725 1.364 . S
C724 C727 1.450 . S
C725 C720 1.367 . S
C725 C724 1.364 . S
C725 H785 0.931 . S
C726 C722 1.535 . S
C726 H786 0.959 . S
C726 H787 0.961 . S
C726 H788 0.959 . S
C727 C724 1.450 . S
C727 H789 0.960 . S
C727 H790 0.960 . S
C727 H791 0.960 . S
C728 C729 1.309 . S
C728 C733 1.304 . S
C728 O766 1.435 . S
C729 C728 1.309 . S
C729 C730 1.476 . S
C729 H793 0.930 . S
C730 C729 1.476 . S
C730 C731 1.400 . S
C730 C734 1.567 . S
C731 C730 1.400 . S
C731 C732 1.373 . S
C731 C753 1.432 . S
C732 C731 1.373 . S
C732 C733 1.339 . S
C732 C735 1.530 . S
C733 C728 1.304 . S
C733 C732 1.339 . S
C733 H794 0.930 . S
C734 C730 1.567 . S
C734 H795 0.961 . S
C734 H796 0.960 . S
C734 H797 0.958 . S
C735 C732 1.530 . S
C735 H798 0.961 . S
C735 H799 0.960 . S
C735 H800 0.960 . S
C736 C737 1.530 . S
C736 H802 0.961 . S
C736 H803 0.961 . S
C736 H804 0.959 . S
C737 C736 1.530 . S
C737 O765 1.412 . S
C737 H801 0.980 . S
C738 C739 1.288 . S
C738 C743 1.377 . S
C738 O765 1.393 . S
C739 C738 1.288 . S
C739 C740 1.369 . S
C739 H805 0.932 . S
C740 C739 1.369 . S
C740 C741 1.398 . S
C740 C744 1.527 . S
C741 C740 1.398 . S
C741 C742 1.380 . S
C741 C755 1.497 . S
C742 C741 1.380 . S
C742 C743 1.383 . S
C742 C745 1.603 . S
C743 C738 1.377 . S
C743 C742 1.383 . S
C743 H806 0.929 . S
C744 C740 1.527 . S
C744 H807 0.961 . S
C744 H808 0.959 . S
C744 H809 0.959 . S
C745 C742 1.603 . S
C745 H810 0.960 . S
C745 H811 0.962 . S
C745 H812 0.961 . S
C746 C713 1.587 . S
C746 C747 1.360 . S
C746 C759 1.412 . S
C747 C746 1.360 . S
C747 C748 1.365 . S
C747 H813 0.929 . S
C748 C723 1.553 . S
C748 C747 1.365 . S
C748 C749 1.404 . S
C749 C748 1.404 . S
C749 C750 1.395 . S
C749 C760 1.451 . S
C750 C749 1.395 . S
C750 C751 1.322 . S
C750 H814 0.930 . S
C751 C750 1.322 . S
C751 C752 1.459 . S
C751 H815 0.929 . S
C752 C751 1.459 . S
C752 C753 1.445 . S
C752 C761 1.395 . S
C753 C731 1.432 . S
C753 C752 1.445 . S
C753 C754 1.370 . S
C754 C753 1.370 . S
C754 C755 1.438 . S
C754 H816 0.930 . S
C755 C741 1.497 . S
C755 C754 1.438 . S
C755 C756 1.360 . S
C756 C755 1.360 . S
C756 C757 1.401 . S
C756 C761 1.446 . S
C757 C756 1.401 . S
C757 C758 1.347 . S
C757 H817 0.929 . S
C758 C757 1.347 . S
C758 C759 1.455 . S
C758 H818 0.930 . S
C759 C746 1.412 . S
C759 C758 1.455 . S
C759 C760 1.331 . S
C760 C749 1.451 . S
C760 C759 1.331 . S
C760 C761 1.497 . S
C761 C752 1.395 . S
C761 C756 1.446 . S
C761 C760 1.497 . S
C762 C763 1.582 . S
C762 H819 0.962 . S
C762 H820 0.959 . S
C762 H821 0.958 . S
C763 C762 1.582 . S
C763 O766 1.458 . S
C763 H792 0.980 . S
O764 C709 1.426 . S
O764 C710 1.334 . S
O765 C737 1.412 . S
O765 C738 1.393 . S
O766 C728 1.435 . S
O766 C763 1.458 . S
O767 C719 1.468 . S
O767 C720 1.408 . S
H768 C709 0.980 . S
H769 C708 0.959 . S
H770 C708 0.959 . S
H771 C708 0.960 . S
H772 C711 0.929 . S
H773 C715 0.929 . S
H774 C716 0.959 . S
H775 C716 0.961 . S
H776 C716 0.961 . S
H777 C717 0.960 . S
H778 C717 0.960 . S
H779 C717 0.961 . S
H780 C719 0.980 . S
H781 C718 0.961 . S
H782 C718 0.960 . S
H783 C718 0.959 . S
H784 C721 0.930 . S
H785 C725 0.931 . S
H786 C726 0.959 . S
H787 C726 0.961 . S
H788 C726 0.959 . S
H789 C727 0.960 . S
H790 C727 0.960 . S
H791 C727 0.960 . S
H792 C763 0.980 . S
H793 C729 0.930 . S
H794 C733 0.930 . S
H795 C734 0.961 . S
H796 C734 0.960 . S
H797 C734 0.958 . S
H798 C735 0.961 . S
H799 C735 0.960 . S
H800 C735 0.960 . S
H801 C737 0.980 . S
H802 C736 0.961 . S
H803 C736 0.961 . S
H804 C736 0.959 . S
H805 C739 0.932 . S
H806 C743 0.929 . S
H807 C744 0.961 . S
H808 C744 0.959 . S
H809 C744 0.959 . S
H810 C745 0.960 . S
H811 C745 0.962 . S
H812 C745 0.961 . S
H813 C747 0.929 . S
H814 C750 0.930 . S
H815 C751 0.929 . S
H816 C754 0.930 . S
H817 C757 0.929 . S
H818 C758 0.930 . S
H819 C762 0.962 . S
H820 C762 0.959 . S
H821 C762 0.958 . S
C822 C823 1.560 . S
C822 H883 0.959 . S
C822 H884 0.959 . S
C822 H885 0.960 . S
C823 C822 1.560 . S
C823 O878 1.426 . S
C823 H882 0.980 . S
C824 C825 1.407 . S
C824 C829 1.418 . S
C824 O878 1.334 . S
C825 C824 1.407 . S
C825 C826 1.360 . S
C825 H886 0.929 . S
C826 C825 1.360 . S
C826 C827 1.401 . S
C826 C830 1.527 . S
C827 C826 1.401 . S
C827 C828 1.405 . S
C827 C860 1.587 . S
C828 C827 1.405 . S
C828 C829 1.332 . S
C828 C831 1.496 . S
C829 C824 1.418 . S
C829 C828 1.332 . S
C829 H887 0.929 . S
C830 C826 1.527 . S
C830 H888 0.959 . S
C830 H889 0.961 . S
C830 H890 0.961 . S
C831 C828 1.496 . S
C831 H891 0.960 . S
C831 H892 0.960 . S
C831 H893 0.961 . S
C832 C833 1.517 . S
C832 H895 0.961 . S
C832 H896 0.960 . S
C832 H897 0.959 . S
C833 C832 1.517 . S
C833 O881 1.468 . S
C833 H894 0.980 . S
C834 C835 1.349 . S
C834 C839 1.367 . S
C834 O881 1.408 . S
C835 C834 1.349 . S
C835 C836 1.407 . S
C835 H898 0.930 . S
C836 C835 1.407 . S
C836 C837 1.449 . S
C836 C840 1.535 . S
C837 C836 1.449 . S
C837 C838 1.384 . S
C837 C862 1.553 . S
C838 C837 1.384 . S
C838 C839 1.364 . S
C838 C841 1.450 . S
C839 C834 1.367 . S
C839 C838 1.364 . S
C839 H899 0.931 . S
C840 C836 1.535 . S
C840 H900 0.959 . S
C840 H901 0.961 . S
C840 H902 0.959 . S
C841 C838 1.450 . S
C841 H903 0.960 . S
C841 H904 0.960 . S
C841 H905 0.960 . S
C842 C843 1.309 . S
C842 C847 1.304 . S
C842 O880 1.435 . S
C843 C842 1.309 . S
C843 C844 1.476 . S
C843 H907 0.930 . S
C844 C843 1.476 . S
C844 C845 1.400 . S
C844 C848 1.567 . S
C845 C844 1.400 . S
C845 C846 1.373 . S
C845 C867 1.432 . S
C846 C845 1.373 . S
C846 C847 1.339 . S
C846 C849 1.530 . S
C847 C842 1.304 . S
C847 C846 1.339 . S
C847 H908 0.930 . S
C848 C844 1.567 . S
C848 H909 0.961 . S
C848 H910 0.960 . S
C848 H911 0.958 . S
C849 C846 1.530 . S
C849 H912 0.961 . S
C849 H913 0.960 . S
C849 H914 0.960 . S
C850 C851 1.530 . S
C850 H916 0.961 . S
C850 H917 0.961 . S
C850 H918 0.959 . S
C851 C850 1.530 . S
C851 O879 1.412 . S
C851 H915 0.980 . S
C852 C853 1.288 . S
C852 C857 1.377 . S
C852 O879 1.393 . S
C853 C852 1.288 . S
C853 C854 1.369 . S
C853 H919 0.932 . S
C854 C853 1.369 . S
C854 C855 1.398 . S
C854 C858 1.527 . S
C855 C854 1.398 . S
C855 C856 1.380 . S
C855 C869 1.497 . S
C856 C855 1.380 . S
C856 C857 1.383 . S
C856 C859 1.603 . S
C857 C852 1.377 . S
C857 C856 1.383 . S
C857 H920 0.929 . S
C858 C854 1.527 . S
C858 H921 0.961 . S
C858 H922 0.959 . S
C858 H923 0.959 . S
C859 C856 1.603 . S
C859 H924 0.960 . S
C859 H925 0.962 . S
C859 H926 0.961 . S
C860 C827 1.587 . S
C860 C861 1.360 . S
C860 C873 1.412 . S
C861 C860 1.360 . S
C861 C862 1.365 . S
C861 H927 0.929 . S
C862 C837 1.553 . S
C862 C861 1.365 . S
C862 C863 1.404 . S
C863 C862 1.404 . S
C863 C864 1.395 . S
C863 C874 1.451 . S
C864 C863 1.395 . S
C864 C865 1.322 . S
C864 H928 0.930 . S
C865 C864 1.322 . S
C865 C866 1.459 . S
C865 H929 0.929 . S
C866 C865 1.459 . S
C866 C867 1.445 . S
C866 C875 1.395 . S
C867 C845 1.432 . S
C867 C866 1.445 . S
C867 C868 1.370 . S
C868 C867 1.370 . S
C868 C869 1.438 . S
C868 H930 0.930 . S
C869 C855 1.497 . S
C869 C868 1.438 . S
C869 C870 1.360 . S
C870 C869 1.360 . S
C870 C871 1.401 . S
C870 C875 1.446 . S
C871 C870 1.401 . S
C871 C872 1.347 . S
C871 H931 0.929 . S
C872 C871 1.347 . S
C872 C873 1.455 . S
C872 H932 0.930 . S
C873 C860 1.412 . S
C873 C872 1.455 . S
C873 C874 1.331 . S
C874 C863 1.451 . S
C874 C873 1.331 . S
C874 C875 1.497 . S
C875 C866 1.395 . S
C875 C870 1.446 . S
C875 C874 1.497 . S
C876 C877 1.582 . S
C876 H933 0.962 . S
C876 H934 0.959 . S
C876 H935 0.958 . S
C877 C876 1.582 . S
C877 O880 1.458 . S
C877 H906 0.980 . S
O878 C823 1.426 . S
O878 C824 1.334 . S
O879 C851 1.412 . S
O879 C852 1.393 . S
O880 C842 1.435 . S
O880 C877 1.458 . S
O881 C833 1.468 . S
O881 C834 1.408 . S
H882 C823 0.980 . S
H883 C822 0.959 . S
H884 C822 0.959 . S
H885 C822 0.960 . S
H886 C825 0.929 . S
H887 C829 0.929 . S
H888 C830 0.959 . S
H889 C830 0.961 . S
H890 C830 0.961 . S
H891 C831 0.960 . S
H892 C831 0.960 . S
H893 C831 0.961 . S
H894 C833 0.980 . S
H895 C832 0.961 . S
H896 C832 0.960 . S
H897 C832 0.959 . S
H898 C835 0.930 . S
H899 C839 0.931 . S
H900 C840 0.959 . S
H901 C840 0.961 . S
H902 C840 0.959 . S
H903 C841 0.960 . S
H904 C841 0.960 . S
H905 C841 0.960 . S
H906 C877 0.980 . S
H907 C843 0.930 . S
H908 C847 0.930 . S
H909 C848 0.961 . S
H910 C848 0.960 . S
H911 C848 0.958 . S
H912 C849 0.961 . S
H913 C849 0.960 . S
H914 C849 0.960 . S
H915 C851 0.980 . S
H916 C850 0.961 . S
H917 C850 0.961 . S
H918 C850 0.959 . S
H919 C853 0.932 . S
H920 C857 0.929 . S
H921 C858 0.961 . S
H922 C858 0.959 . S
H923 C858 0.959 . S
H924 C859 0.960 . S
H925 C859 0.962 . S
H926 C859 0.961 . S
H927 C861 0.929 . S
H928 C864 0.930 . S
H929 C865 0.929 . S
H930 C868 0.930 . S
H931 C871 0.929 . S
H932 C872 0.930 . S
H933 C876 0.962 . S
H934 C876 0.959 . S
H935 C876 0.958 . S
C936 C937 1.560 . S
C936 H997 0.959 . S
C936 H998 0.959 . S
C936 H999 0.960 . S
C937 C936 1.560 . S
C937 O992 1.426 . S
C937 H996 0.980 . S
C938 C939 1.407 . S
C938 C943 1.418 . S
C938 O992 1.334 . S
C939 C938 1.407 . S
C939 C940 1.360 . S
C939 H1000 0.929 . S
C940 C939 1.360 . S
C940 C941 1.401 . S
C940 C944 1.527 . S
C941 C940 1.401 . S
C941 C942 1.405 . S
C941 C974 1.587 . S
C942 C941 1.405 . S
C942 C943 1.332 . S
C942 C945 1.496 . S
C943 C938 1.418 . S
C943 C942 1.332 . S
C943 H1001 0.929 . S
C944 C940 1.527 . S
C944 H1002 0.959 . S
C944 H1003 0.961 . S
C944 H1004 0.961 . S
C945 C942 1.496 . S
C945 H1005 0.960 . S
C945 H1006 0.960 . S
C945 H1007 0.961 . S
C946 C947 1.517 . S
C946 H1009 0.961 . S
C946 H1010 0.960 . S
C946 H1011 0.959 . S
C947 C946 1.517 . S
C947 O995 1.468 . S
C947 H1008 0.980 . S
C948 C949 1.349 . S
C948 C953 1.367 . S
C948 O995 1.408 . S
C949 C948 1.349 . S
C949 C950 1.407 . S
C949 H1012 0.930 . S
C950 C949 1.407 . S
C950 C951 1.449 . S
C950 C954 1.535 . S
C951 C950 1.449 . S
C951 C952 1.384 . S
C951 C976 1.553 . S
C952 C951 1.384 . S
C952 C953 1.364 . S
C952 C955 1.450 . S
C953 C948 1.367 . S
C953 C952 1.364 . S
C953 H1013 0.931 . S
C954 C950 1.535 . S
C954 H1014 0.959 . S
C954 H1015 0.961 . S
C954 H1016 0.959 . S
C955 C952 1.450 . S
C955 H1017 0.960 . S
C955 H1018 0.960 . S
C955 H1019 0.960 . S
C956 C957 1.309 . S
C956 C961 1.304 . S
C956 O994 1.435 . S
C957 C956 1.309 . S
C957 C958 1.476 . S
C957 H1021 0.930 . S
C958 C957 1.476 . S
C958 C959 1.400 . S
C958 C962 1.567 . S
C959 C958 1.400 . S
C959 C960 1.373 . S
C959 C981 1.432 . S
C960 C959 1.373 . S
C960 C961 1.339 . S
C960 C963 1.530 . S
C961 C956 1.304 . S
C961 C960 1.339 . S
C961 H1022 0.930 . S
C962 C958 1.567 . S
C962 H1023 0.961 . S
C962 H1024 0.960 . S
C962 H1025 0.958 . S
C963 C960 1.530 . S
C963 H1026 0.961 . S
C963 H1027 0.960 . S
C963 H1028 0.960 . S
C964 C965 1.530 . S
C964 H1030 0.961 . S
C964 H1031 0.961 . S
C964 H1032 0.959 . S
C965 C964 1.530 . S
C965 O993 1.412 . S
C965 H1029 0.980 . S
C966 C967 1.288 . S
C966 C971 1.377 . S
C966 O993 1.393 . S
C967 C966 1.288 . S
C967 C968 1.369 . S
C967 H1033 0.932 . S
C968 C967 1.369 . S
C968 C969 1.398 . S
C968 C972 1.527 . S
C969 C968 1.398 . S
C969 C970 1.380 . S
C969 C983 1.497 . S
C970 C969 1.380 . S
C970 C971 1.383 . S
C970 C973 1.603 . S
C971 C966 1.377 . S
C971 C970 1.383 . S
C971 H1034 0.929 . S
C972 C968 1.527 . S
C972 H1035 0.961 . S
C972 H1036 0.959 . S
C972 H1037 0.959 . S
C973 C970 1.603 . S
C973 H1038 0.960 . S
C973 H1039 0.962 . S
C973 H1040 0.961 . S
C974 C941 1.587 . S
C974 C975 1.360 . S
C974 C987 1.412 . S
C975 C974 1.360 . S
C975 C976 1.365 . S
C975 H1041 0.929 . S
C976 C951 1.553 . S
C976 C975 1.365 . S
C976 C977 1.404 . S
C977 C976 1.404 . S
C977 C978 1.395 . S
C977 C988 1.451 . S
C978 C977 1.395 . S
C978 C979 1.322 . S
C978 H1042 0.930 . S
C979 C978 1.322 . S
C979 C980 1.459 . S
C979 H1043 0.929 . S
C980 C979 1.459 . S
C980 C981 1.445 . S
C980 C989 1.395 . S
C981 C959 1.432 . S
C981 C980 1.445 . S
C981 C982 1.370 . S
C982 C981 1.370 . S
C982 C983 1.438 . S
C982 H1044 0.930 . S
C983 C969 1.497 . S
C983 C982 1.438 . S
C983 C984 1.360 . S
C984 C983 1.360 . S
C984 C985 1.401 . S
C984 C989 1.446 . S
C985 C984 1.401 . S
C985 C986 1.347 . S
C985 H1045 0.929 . S
C986 C985 1.347 . S
C986 C987 1.455 . S
C986 H1046 0.930 . S
C987 C974 1.412 . S
C987 C986 1.455 . S
C987 C988 1.331 . S
C988 C977 1.451 . S
C988 C987 1.331 . S
C988 C989 1.497 . S
C989 C980 1.395 . S
C989 C984 1.446 . S
C989 C988 1.497 . S
C990 C991 1.582 . S
C990 H1047 0.962 . S
C990 H1048 0.959 . S
C990 H1049 0.958 . S
C991 C990 1.582 . S
C991 O994 1.458 . S
C991 H1020 0.980 . S
O992 C937 1.426 . S
O992 C938 1.334 . S
O993 C965 1.412 . S
O993 C966 1.393 . S
O994 C956 1.435 . S
O994 C991 1.458 . S
O995 C947 1.468 . S
O995 C948 1.408 . S
H996 C937 0.980 . S
H997 C936 0.959 . S
H998 C936 0.959 . S
H999 C936 0.960 . S
H1000 C939 0.929 . S
H1001 C943 0.929 . S
H1002 C944 0.959 . S
H1003 C944 0.961 . S
H1004 C944 0.961 . S
H1005 C945 0.960 . S
H1006 C945 0.960 . S
H1007 C945 0.961 . S
H1008 C947 0.980 . S
H1009 C946 0.961 . S
H1010 C946 0.960 . S
H1011 C946 0.959 . S
H1012 C949 0.930 . S
H1013 C953 0.931 . S
H1014 C954 0.959 . S
H1015 C954 0.961 . S
H1016 C954 0.959 . S
H1017 C955 0.960 . S
H1018 C955 0.960 . S
H1019 C955 0.960 . S
H1020 C991 0.980 . S
H1021 C957 0.930 . S
H1022 C961 0.930 . S
H1023 C962 0.961 . S
H1024 C962 0.960 . S
H1025 C962 0.958 . S
H1026 C963 0.961 . S
H1027 C963 0.960 . S
H1028 C963 0.960 . S
H1029 C965 0.980 . S
H1030 C964 0.961 . S
H1031 C964 0.961 . S
H1032 C964 0.959 . S
H1033 C967 0.932 . S
H1034 C971 0.929 . S
H1035 C972 0.961 . S
H1036 C972 0.959 . S
H1037 C972 0.959 . S
H1038 C973 0.960 . S
H1039 C973 0.962 . S
H1040 C973 0.961 . S
H1041 C975 0.929 . S
H1042 C978 0.930 . S
H1043 C979 0.929 . S
H1044 C982 0.930 . S
H1045 C985 0.929 . S
H1046 C986 0.930 . S
H1047 C990 0.962 . S
H1048 C990 0.959 . S
H1049 C990 0.958 . S
C1050 C1051 1.560 . S
C1050 H1111 0.959 . S
C1050 H1112 0.959 . S
C1050 H1113 0.960 . S
C1051 C1050 1.560 . S
C1051 O1106 1.426 . S
C1051 H1110 0.980 . S
C1052 C1053 1.407 . S
C1052 C1057 1.418 . S
C1052 O1106 1.334 . S
C1053 C1052 1.407 . S
C1053 C1054 1.360 . S
C1053 H1114 0.929 . S
C1054 C1053 1.360 . S
C1054 C1055 1.401 . S
C1054 C1058 1.527 . S
C1055 C1054 1.401 . S
C1055 C1056 1.405 . S
C1055 C1088 1.587 . S
C1056 C1055 1.405 . S
C1056 C1057 1.332 . S
C1056 C1059 1.496 . S
C1057 C1052 1.418 . S
C1057 C1056 1.332 . S
C1057 H1115 0.929 . S
C1058 C1054 1.527 . S
C1058 H1116 0.959 . S
C1058 H1117 0.961 . S
C1058 H1118 0.961 . S
C1059 C1056 1.496 . S
C1059 H1119 0.960 . S
C1059 H1120 0.960 . S
C1059 H1121 0.961 . S
C1060 C1061 1.517 . S
C1060 H1123 0.961 . S
C1060 H1124 0.960 . S
C1060 H1125 0.959 . S
C1061 C1060 1.517 . S
C1061 O1109 1.468 . S
C1061 H1122 0.980 . S
C1062 C1063 1.349 . S
C1062 C1067 1.367 . S
C1062 O1109 1.408 . S
C1063 C1062 1.349 . S
C1063 C1064 1.407 . S
C1063 H1126 0.930 . S
C1064 C1063 1.407 . S
C1064 C1065 1.449 . S
C1064 C1068 1.535 . S
C1065 C1064 1.449 . S
C1065 C1066 1.384 . S
C1065 C1090 1.553 . S
C1066 C1065 1.384 . S
C1066 C1067 1.364 . S
C1066 C1069 1.450 . S
C1067 C1062 1.367 . S
C1067 C1066 1.364 . S
C1067 H1127 0.931 . S
C1068 C1064 1.535 . S
C1068 H1128 0.959 . S
C1068 H1129 0.961 . S
C1068 H1130 0.959 . S
C1069 C1066 1.450 . S
C1069 H1131 0.960 . S
C1069 H1132 0.960 . S
C1069 H1133 0.960 . S
C1070 C1071 1.309 . S
C1070 C1075 1.304 . S
C1070 O1108 1.435 . S
C1071 C1070 1.309 . S
C1071 C1072 1.476 . S
C1071 H1135 0.930 . S
C1072 C1071 1.476 . S
C1072 C1073 1.400 . S
C1072 C1076 1.567 . S
C1073 C1072 1.400 . S
C1073 C1074 1.373 . S
C1073 C1095 1.432 . S
C1074 C1073 1.373 . S
C1074 C1075 1.339 . S
C1074 C1077 1.530 . S
C1075 C1070 1.304 . S
C1075 C1074 1.339 . S
C1075 H1136 0.930 . S
C1076 C1072 1.567 . S
C1076 H1137 0.961 . S
C1076 H1138 0.960 . S
C1076 H1139 0.958 . S
C1077 C1074 1.530 . S
C1077 H1140 0.961 . S
C1077 H1141 0.960 . S
C1077 H1142 0.960 . S
C1078 C1079 1.530 . S
C1078 H1144 0.961 . S
C1078 H1145 0.961 . S
C1078 H1146 0.959 . S
C1079 C1078 1.530 . S
C1079 O1107 1.412 . S
C1079 H1143 0.980 . S
C1080 C1081 1.288 . S
C1080 C1085 1.377 . S
C1080 O1107 1.393 . S
C1081 C1080 1.288 . S
C1081 C1082 1.369 . S
C1081 H1147 0.932 . S
C1082 C1081 1.369 . S
C1082 C1083 1.398 . S
C1082 C1086 1.527 . S
C1083 C1082 1.398 . S
C1083 C1084 1.380 . S
C1083 C1097 1.497 . S
C1084 C1083 1.380 . S
C1084 C1085 1.383 . S
C1084 C1087 1.603 . S
C1085 C1080 1.377 . S
C1085 C1084 1.383 . S
C1085 H1148 0.929 . S
C1086 C1082 1.527 . S
C1086 H1149 0.961 . S
C1086 H1150 0.959 . S
C1086 H1151 0.959 . S
C1087 C1084 1.603 . S
C1087 H1152 0.960 . S
C1087 H1153 0.962 . S
C1087 H1154 0.961 . S
C1088 C1055 1.587 . S
C1088 C1089 1.360 . S
C1088 C1101 1.412 . S
C1089 C1088 1.360 . S
C1089 C1090 1.365 . S
C1089 H1155 0.929 . S
C1090 C1065 1.553 . S
C1090 C1089 1.365 . S
C1090 C1091 1.404 . S
C1091 C1090 1.404 . S
C1091 C1092 1.395 . S
C1091 C1102 1.451 . S
C1092 C1091 1.395 . S
C1092 C1093 1.322 . S
C1092 H1156 0.930 . S
C1093 C1092 1.322 . S
C1093 C1094 1.459 . S
C1093 H1157 0.929 . S
C1094 C1093 1.459 . S
C1094 C1095 1.445 . S
C1094 C1103 1.395 . S
C1095 C1073 1.432 . S
C1095 C1094 1.445 . S
C1095 C1096 1.370 . S
C1096 C1095 1.370 . S
C1096 C1097 1.438 . S
C1096 H1158 0.930 . S
C1097 C1083 1.497 . S
C1097 C1096 1.438 . S
C1097 C1098 1.360 . S
C1098 C1097 1.360 . S
C1098 C1099 1.401 . S
C1098 C1103 1.446 . S
C1099 C1098 1.401 . S
C1099 C1100 1.347 . S
C1099 H1159 0.929 . S
C1100 C1099 1.347 . S
C1100 C1101 1.455 . S
C1100 H1160 0.930 . S
C1101 C1088 1.412 . S
C1101 C1100 1.455 . S
C1101 C1102 1.331 . S
C1102 C1091 1.451 . S
C1102 C1101 1.331 . S
C1102 C1103 1.497 . S
C1103 C1094 1.395 . S
C1103 C1098 1.446 . S
C1103 C1102 1.497 . S
C1104 C1105 1.582 . S
C1104 H1161 0.962 . S
C1104 H1162 0.959 . S
C1104 H1163 0.958 . S
C1105 C1104 1.582 . S
C1105 O1108 1.458 . S
C1105 H1134 0.980 . S
O1106 C1051 1.426 . S
O1106 C1052 1.334 . S
O1107 C1079 1.412 . S
O1107 C1080 1.393 . S
O1108 C1070 1.435 . S
O1108 C1105 1.458 . S
O1109 C1061 1.468 . S
O1109 C1062 1.408 . S
H1110 C1051 0.980 . S
H1111 C1050 0.959 . S
H1112 C1050 0.959 . S
H1113 C1050 0.960 . S
H1114 C1053 0.929 . S
H1115 C1057 0.929 . S
H1116 C1058 0.959 . S
H1117 C1058 0.961 . S
H1118 C1058 0.961 . S
H1119 C1059 0.960 . S
H1120 C1059 0.960 . S
H1121 C1059 0.961 . S
H1122 C1061 0.980 . S
H1123 C1060 0.961 . S
H1124 C1060 0.960 . S
H1125 C1060 0.959 . S
H1126 C1063 0.930 . S
H1127 C1067 0.931 . S
H1128 C1068 0.959 . S
H1129 C1068 0.961 . S
H1130 C1068 0.959 . S
H1131 C1069 0.960 . S
H1132 C1069 0.960 . S
H1133 C1069 0.960 . S
H1134 C1105 0.980 . S
H1135 C1071 0.930 . S
H1136 C1075 0.930 . S
H1137 C1076 0.961 . S
H1138 C1076 0.960 . S
H1139 C1076 0.958 . S
H1140 C1077 0.961 . S
H1141 C1077 0.960 . S
H1142 C1077 0.960 . S
H1143 C1079 0.980 . S
H1144 C1078 0.961 . S
H1145 C1078 0.961 . S
H1146 C1078 0.959 . S
H1147 C1081 0.932 . S
H1148 C1085 0.929 . S
H1149 C1086 0.961 . S
H1150 C1086 0.959 . S
H1151 C1086 0.959 . S
H1152 C1087 0.960 . S
H1153 C1087 0.962 . S
H1154 C1087 0.961 . S
H1155 C1089 0.929 . S
H1156 C1092 0.930 . S
H1157 C1093 0.929 . S
H1158 C1096 0.930 . S
H1159 C1099 0.929 . S
H1160 C1100 0.930 . S
H1161 C1104 0.962 . S
H1162 C1104 0.959 . S
H1163 C1104 0.958 . S
C1164 C1165 1.560 . S
C1164 H1225 0.959 . S
C1164 H1226 0.959 . S
C1164 H1227 0.960 . S
C1165 C1164 1.560 . S
C1165 O1220 1.426 . S
C1165 H1224 0.980 . S
C1166 C1167 1.407 . S
C1166 C1171 1.418 . S
C1166 O1220 1.334 . S
C1167 C1166 1.407 . S
C1167 C1168 1.360 . S
C1167 H1228 0.929 . S
C1168 C1167 1.360 . S
C1168 C1169 1.401 . S
C1168 C1172 1.527 . S
C1169 C1168 1.401 . S
C1169 C1170 1.405 . S
C1169 C1202 1.587 . S
C1170 C1169 1.405 . S
C1170 C1171 1.332 . S
C1170 C1173 1.496 . S
C1171 C1166 1.418 . S
C1171 C1170 1.332 . S
C1171 H1229 0.929 . S
C1172 C1168 1.527 . S
C1172 H1230 0.959 . S
C1172 H1231 0.961 . S
C1172 H1232 0.961 . S
C1173 C1170 1.496 . S
C1173 H1233 0.960 . S
C1173 H1234 0.960 . S
C1173 H1235 0.961 . S
C1174 C1175 1.517 . S
C1174 H1237 0.961 . S
C1174 H1238 0.960 . S
C1174 H1239 0.959 . S
C1175 C1174 1.517 . S
C1175 O1223 1.468 . S
C1175 H1236 0.980 . S
C1176 C1177 1.349 . S
C1176 C1181 1.367 . S
C1176 O1223 1.408 . S
C1177 C1176 1.349 . S
C1177 C1178 1.407 . S
C1177 H1240 0.930 . S
C1178 C1177 1.407 . S
C1178 C1179 1.449 . S
C1178 C1182 1.535 . S
C1179 C1178 1.449 . S
C1179 C1180 1.384 . S
C1179 C1204 1.553 . S
C1180 C1179 1.384 . S
C1180 C1181 1.364 . S
C1180 C1183 1.450 . S
C1181 C1176 1.367 . S
C1181 C1180 1.364 . S
C1181 H1241 0.931 . S
C1182 C1178 1.535 . S
C1182 H1242 0.959 . S
C1182 H1243 0.961 . S
C1182 H1244 0.959 . S
C1183 C1180 1.450 . S
C1183 H1245 0.960 . S
C1183 H1246 0.960 . S
C1183 H1247 0.960 . S
C1184 C1185 1.309 . S
C1184 C1189 1.304 . S
C1184 O1222 1.435 . S
C1185 C1184 1.309 . S
C1185 C1186 1.476 . S
C1185 H1249 0.930 . S
C1186 C1185 1.476 . S
C1186 C1187 1.400 . S
C1186 C1190 1.567 . S
C1187 C1186 1.400 . S
C1187 C1188 1.373 . S
C1187 C1209 1.432 . S
C1188 C1187 1.373 . S
C1188 C1189 1.339 . S
C1188 C1191 1.530 . S
C1189 C1184 1.304 . S
C1189 C1188 1.339 . S
C1189 H1250 0.930 . S
C1190 C1186 1.567 . S
C1190 H1251 0.961 . S
C1190 H1252 0.960 . S
C1190 H1253 0.958 . S
C1191 C1188 1.530 . S
C1191 H1254 0.961 . S
C1191 H1255 0.960 . S
C1191 H1256 0.960 . S
C1192 C1193 1.530 . S
C1192 H1258 0.961 . S
C1192 H1259 0.961 . S
C1192 H1260 0.959 . S
C1193 C1192 1.530 . S
C1193 O1221 1.412 . S
C1193 H1257 0.980 . S
C1194 C1195 1.288 . S
C1194 C1199 1.377 . S
C1194 O1221 1.393 . S
C1195 C1194 1.288 . S
C1195 C1196 1.369 . S
C1195 H1261 0.932 . S
C1196 C1195 1.369 . S
C1196 C1197 1.398 . S
C1196 C1200 1.527 . S
C1197 C1196 1.398 . S
C1197 C1198 1.380 . S
C1197 C1211 1.497 . S
C1198 C1197 1.380 . S
C1198 C1199 1.383 . S
C1198 C1201 1.603 . S
C1199 C1194 1.377 . S
C1199 C1198 1.383 . S
C1199 H1262 0.929 . S
C1200 C1196 1.527 . S
C1200 H1263 0.961 . S
C1200 H1264 0.959 . S
C1200 H1265 0.959 . S
C1201 C1198 1.603 . S
C1201 H1266 0.960 . S
C1201 H1267 0.962 . S
C1201 H1268 0.961 . S
C1202 C1169 1.587 . S
C1202 C1203 1.360 . S
C1202 C1215 1.412 . S
C1203 C1202 1.360 . S
C1203 C1204 1.365 . S
C1203 H1269 0.929 . S
C1204 C1179 1.553 . S
C1204 C1203 1.365 . S
C1204 C1205 1.404 . S
C1205 C1204 1.404 . S
C1205 C1206 1.395 . S
C1205 C1216 1.451 . S
C1206 C1205 1.395 . S
C1206 C1207 1.322 . S
C1206 H1270 0.930 . S
C1207 C1206 1.322 . S
C1207 C1208 1.459 . S
C1207 H1271 0.929 . S
C1208 C1207 1.459 . S
C1208 C1209 1.445 . S
C1208 C1217 1.395 . S
C1209 C1187 1.432 . S
C1209 C1208 1.445 . S
C1209 C1210 1.370 . S
C1210 C1209 1.370 . S
C1210 C1211 1.438 . S
C1210 H1272 0.930 . S
C1211 C1197 1.497 . S
C1211 C1210 1.438 . S
C1211 C1212 1.360 . S
C1212 C1211 1.360 . S
C1212 C1213 1.401 . S
C1212 C1217 1.446 . S
C1213 C1212 1.401 . S
C1213 C1214 1.347 . S
C1213 H1273 0.929 . S
C1214 C1213 1.347 . S
C1214 C1215 1.455 . S
C1214 H1274 0.930 . S
C1215 C1202 1.412 . S
C1215 C1214 1.455 . S
C1215 C1216 1.331 . S
C1216 C1205 1.451 . S
C1216 C1215 1.331 . S
C1216 C1217 1.497 . S
C1217 C1208 1.395 . S
C1217 C1212 1.446 . S
C1217 C1216 1.497 . S
C1218 C1219 1.582 . S
C1218 H1275 0.962 . S
C1218 H1276 0.959 . S
C1218 H1277 0.958 . S
C1219 C1218 1.582 . S
C1219 O1222 1.458 . S
C1219 H1248 0.980 . S
O1220 C1165 1.426 . S
O1220 C1166 1.334 . S
O1221 C1193 1.412 . S
O1221 C1194 1.393 . S
O1222 C1184 1.435 . S
O1222 C1219 1.458 . S
O1223 C1175 1.468 . S
O1223 C1176 1.408 . S
H1224 C1165 0.980 . S
H1225 C1164 0.959 . S
H1226 C1164 0.959 . S
H1227 C1164 0.960 . S
H1228 C1167 0.929 . S
H1229 C1171 0.929 . S
H1230 C1172 0.959 . S
H1231 C1172 0.961 . S
H1232 C1172 0.961 . S
H1233 C1173 0.960 . S
H1234 C1173 0.960 . S
H1235 C1173 0.961 . S
H1236 C1175 0.980 . S
H1237 C1174 0.961 . S
H1238 C1174 0.960 . S
H1239 C1174 0.959 . S
H1240 C1177 0.930 . S
H1241 C1181 0.931 . S
H1242 C1182 0.959 . S
H1243 C1182 0.961 . S
H1244 C1182 0.959 . S
H1245 C1183 0.960 . S
H1246 C1183 0.960 . S
H1247 C1183 0.960 . S
H1248 C1219 0.980 . S
H1249 C1185 0.930 . S
H1250 C1189 0.930 . S
H1251 C1190 0.961 . S
H1252 C1190 0.960 . S
H1253 C1190 0.958 . S
H1254 C1191 0.961 . S
H1255 C1191 0.960 . S
H1256 C1191 0.960 . S
H1257 C1193 0.980 . S
H1258 C1192 0.961 . S
H1259 C1192 0.961 . S
H1260 C1192 0.959 . S
H1261 C1195 0.932 . S
H1262 C1199 0.929 . S
H1263 C1200 0.961 . S
H1264 C1200 0.959 . S
H1265 C1200 0.959 . S
H1266 C1201 0.960 . S
H1267 C1201 0.962 . S
H1268 C1201 0.961 . S
H1269 C1203 0.929 . S
H1270 C1206 0.930 . S
H1271 C1207 0.929 . S
H1272 C1210 0.930 . S
H1273 C1213 0.929 . S
H1274 C1214 0.930 . S
H1275 C1218 0.962 . S
H1276 C1218 0.959 . S
H1277 C1218 0.958 . S
C1278 C1279 1.560 . S
C1278 H1339 0.959 . S
C1278 H1340 0.959 . S
C1278 H1341 0.960 . S
C1279 C1278 1.560 . S
C1279 O1334 1.426 . S
C1279 H1338 0.980 . S
C1280 C1281 1.407 1_455 S
C1280 C1285 1.418 . S
C1280 O1334 1.334 . S
C1281 C1280 1.407 1_655 S
C1281 C1282 1.360 . S
C1281 H1342 0.929 . S
C1282 C1281 1.360 . S
C1282 C1283 1.401 1_655 S
C1282 C1286 1.527 . S
C1283 C1282 1.401 1_455 S
C1283 C1284 1.405 . S
C1283 C1316 1.587 1_455 S
C1284 C1283 1.405 . S
C1284 C1285 1.332 . S
C1284 C1287 1.496 . S
C1285 C1280 1.418 . S
C1285 C1284 1.332 . S
C1285 H1343 0.929 . S
C1286 C1282 1.527 . S
C1286 H1344 0.959 . S
C1286 H1345 0.961 . S
C1286 H1346 0.961 . S
C1287 C1284 1.496 . S
C1287 H1347 0.960 . S
C1287 H1348 0.960 . S
C1287 H1349 0.961 . S
C1288 C1289 1.517 . S
C1288 H1351 0.980 . S
C1288 H1352 0.960 . S
C1288 H1353 0.959 . S
C1289 C1288 1.517 . S
C1289 O1337 1.468 . S
C1289 H1350 0.980 1_655 S
C1290 C1291 1.349 . S
C1290 C1295 1.367 . S
C1290 O1337 1.408 . S
C1291 C1290 1.349 . S
C1291 C1292 1.359 1_655 S
C1291 H1354 0.930 1_655 S
C1292 C1291 1.359 1_455 S
C1292 C1293 1.409 1_455 S
C1292 C1296 1.618 . S
C1293 C1292 1.409 1_655 S
C1293 C1294 1.384 . S
C1293 C1318 1.553 . S
C1294 C1293 1.384 . S
C1294 C1295 1.364 . S
C1294 C1297 1.450 . S
C1295 C1290 1.367 . S
C1295 C1294 1.364 . S
C1295 H1355 0.931 . S
C1296 C1292 1.618 . S
C1296 H1356 0.959 . S
C1296 H1357 0.961 . S
C1296 H1358 0.959 . S
C1297 C1294 1.450 . S
C1297 H1359 0.960 . S
C1297 H1360 0.960 . S
C1297 H1361 0.960 . S
C1298 C1299 1.309 . S
C1298 C1303 1.304 . S
C1298 O1336 1.435 . S
C1299 C1298 1.309 . S
C1299 C1300 1.475 . S
C1299 H1363 0.930 1_655 S
C1300 C1299 1.475 . S
C1300 C1301 1.400 . S
C1300 C1304 1.567 1_655 S
C1301 C1300 1.400 . S
C1301 C1302 1.373 . S
C1301 C1323 1.432 . S
C1302 C1301 1.373 . S
C1302 C1303 1.339 . S
C1302 C1305 1.530 . S
C1303 C1298 1.304 . S
C1303 C1302 1.339 . S
C1303 H1364 0.930 . S
C1304 C1300 1.567 1_455 S
C1304 H1365 0.961 . S
C1304 H1366 0.960 . S
C1304 H1367 0.958 . S
C1305 C1302 1.530 . S
C1305 H1368 0.961 . S
C1305 H1369 0.960 . S
C1305 H1370 0.960 . S
C1306 C1307 1.524 1_455 S
C1306 H1372 0.961 . S
C1306 H1373 0.961 . S
C1306 H1374 0.959 . S
C1307 C1306 1.524 1_655 S
C1307 O1335 1.410 1_655 S
C1307 H1371 0.982 . S
C1308 C1309 1.288 . S
C1308 C1313 1.377 1_455 S
C1308 O1335 1.393 . S
C1309 C1308 1.288 . S
C1309 C1310 1.369 . S
C1309 H1375 0.932 . S
C1310 C1309 1.369 . S
C1310 C1311 1.398 1_455 S
C1310 C1314 1.527 . S
C1311 C1310 1.398 1_655 S
C1311 C1312 1.380 . S
C1311 C1325 1.497 . S
C1312 C1311 1.380 . S
C1312 C1313 1.383 . S
C1312 C1315 1.603 . S
C1313 C1308 1.377 1_655 S
C1313 C1312 1.383 . S
C1313 H1376 0.929 . S
C1314 C1310 1.527 . S
C1314 H1377 0.961 . S
C1314 H1378 0.959 . S
C1314 H1379 0.959 . S
C1315 C1312 1.603 . S
C1315 H1380 0.960 . S
C1315 H1381 0.962 . S
C1315 H1382 0.961 . S
C1316 C1283 1.587 1_655 S
C1316 C1317 1.360 . S
C1316 C1329 1.412 . S
C1317 C1316 1.360 . S
C1317 C1318 1.365 . S
C1317 H1383 0.929 . S
C1318 C1293 1.553 . S
C1318 C1317 1.365 . S
C1318 C1319 1.404 . S
C1319 C1318 1.404 . S
C1319 C1320 1.395 . S
C1319 C1330 1.451 . S
C1320 C1319 1.395 . S
C1320 C1321 1.322 . S
C1320 H1384 0.930 . S
C1321 C1320 1.322 . S
C1321 C1322 1.459 . S
C1321 H1385 0.929 . S
C1322 C1321 1.459 . S
C1322 C1323 1.445 . S
C1322 C1331 1.395 . S
C1323 C1301 1.432 . S
C1323 C1322 1.445 . S
C1323 C1324 1.370 . S
C1324 C1323 1.370 . S
C1324 C1325 1.438 . S
C1324 H1386 0.930 . S
C1325 C1311 1.497 . S
C1325 C1324 1.438 . S
C1325 C1326 1.360 . S
C1326 C1325 1.360 . S
C1326 C1327 1.401 . S
C1326 C1331 1.446 . S
C1327 C1326 1.401 . S
C1327 C1328 1.347 . S
C1327 H1387 0.929 . S
C1328 C1327 1.347 . S
C1328 C1329 1.455 . S
C1328 H1388 0.930 . S
C1329 C1316 1.412 . S
C1329 C1328 1.455 . S
C1329 C1330 1.331 . S
C1330 C1319 1.451 . S
C1330 C1329 1.331 . S
C1330 C1331 1.497 . S
C1331 C1322 1.395 . S
C1331 C1326 1.446 . S
C1331 C1330 1.497 . S
C1332 C1333 1.582 . S
C1332 H1389 0.962 . S
C1332 H1390 0.959 . S
C1332 H1391 0.958 . S
C1333 C1332 1.582 . S
C1333 O1336 1.458 . S
C1333 H1362 0.980 . S
O1334 C1279 1.426 . S
O1334 C1280 1.334 . S
O1335 C1307 1.410 1_455 S
O1335 C1308 1.393 . S
O1336 C1298 1.435 . S
O1336 C1333 1.458 . S
O1337 C1289 1.468 . S
O1337 C1290 1.408 . S
H1338 C1279 0.980 . S
H1339 C1278 0.959 . S
H1340 C1278 0.959 . S
H1341 C1278 0.960 . S
H1342 C1281 0.929 . S
H1343 C1285 0.929 . S
H1344 C1286 0.959 . S
H1345 C1286 0.961 . S
H1346 C1286 0.961 . S
H1347 C1287 0.960 . S
H1348 C1287 0.960 . S
H1349 C1287 0.961 . S
H1350 C1289 0.980 1_455 S
H1351 C1288 0.980 . S
H1352 C1288 0.960 . S
H1353 C1288 0.959 . S
H1354 C1291 0.930 1_455 S
H1355 C1295 0.931 . S
H1356 C1296 0.959 . S
H1357 C1296 0.961 . S
H1358 C1296 0.959 . S
H1359 C1297 0.960 . S
H1360 C1297 0.960 . S
H1361 C1297 0.960 . S
H1362 C1333 0.980 . S
H1363 C1299 0.930 1_455 S
H1364 C1303 0.930 . S
H1365 C1304 0.961 . S
H1366 C1304 0.960 . S
H1367 C1304 0.958 . S
H1368 C1305 0.961 . S
H1369 C1305 0.960 . S
H1370 C1305 0.960 . S
H1371 C1307 0.982 . S
H1372 C1306 0.961 . S
H1373 C1306 0.961 . S
H1374 C1306 0.959 . S
H1375 C1309 0.932 . S
H1376 C1313 0.929 . S
H1377 C1314 0.961 . S
H1378 C1314 0.959 . S
H1379 C1314 0.959 . S
H1380 C1315 0.960 . S
H1381 C1315 0.962 . S
H1382 C1315 0.961 . S
H1383 C1317 0.929 . S
H1384 C1320 0.930 . S
H1385 C1321 0.929 . S
H1386 C1324 0.930 . S
H1387 C1327 0.929 . S
H1388 C1328 0.930 . S
H1389 C1332 0.962 . S
H1390 C1332 0.959 . S
H1391 C1332 0.958 . S
C1392 C1393 1.560 . S
C1392 H1453 0.959 . S
C1392 H1454 0.959 . S
C1392 H1455 0.960 . S
C1393 C1392 1.560 . S
C1393 O1448 1.426 . S
C1393 H1452 0.980 . S
C1394 C1395 1.407 . S
C1394 C1399 1.418 . S
C1394 O1448 1.334 . S
C1395 C1394 1.407 . S
C1395 C1396 1.360 . S
C1395 H1456 0.929 . S
C1396 C1395 1.360 . S
C1396 C1397 1.401 . S
C1396 C1400 1.527 . S
C1397 C1396 1.401 . S
C1397 C1398 1.405 . S
C1397 C1430 1.587 . S
C1398 C1397 1.405 . S
C1398 C1399 1.332 . S
C1398 C1401 1.496 . S
C1399 C1394 1.418 . S
C1399 C1398 1.332 . S
C1399 H1457 0.929 . S
C1400 C1396 1.527 . S
C1400 H1458 0.959 . S
C1400 H1459 0.961 . S
C1400 H1460 0.961 . S
C1401 C1398 1.496 . S
C1401 H1461 0.960 . S
C1401 H1462 0.960 . S
C1401 H1463 0.961 . S
C1402 C1403 1.517 . S
C1402 H1465 0.961 . S
C1402 H1466 0.960 . S
C1402 H1467 0.959 . S
C1403 C1402 1.517 . S
C1403 O1451 1.468 . S
C1403 H1464 0.980 . S
C1404 C1405 1.349 . S
C1404 C1409 1.367 . S
C1404 O1451 1.408 . S
C1405 C1404 1.349 . S
C1405 C1406 1.407 . S
C1405 H1468 0.930 . S
C1406 C1405 1.407 . S
C1406 C1407 1.449 . S
C1406 C1410 1.535 . S
C1407 C1406 1.449 . S
C1407 C1408 1.384 . S
C1407 C1432 1.553 . S
C1408 C1407 1.384 . S
C1408 C1409 1.364 . S
C1408 C1411 1.450 . S
C1409 C1404 1.367 . S
C1409 C1408 1.364 . S
C1409 H1469 0.931 . S
C1410 C1406 1.535 . S
C1410 H1470 0.959 . S
C1410 H1471 0.961 . S
C1410 H1472 0.959 . S
C1411 C1408 1.450 . S
C1411 H1473 0.960 . S
C1411 H1474 0.960 . S
C1411 H1475 0.960 . S
C1412 C1413 1.309 . S
C1412 C1417 1.304 . S
C1412 O1450 1.435 . S
C1413 C1412 1.309 . S
C1413 C1414 1.476 . S
C1413 H1477 0.930 . S
C1414 C1413 1.476 . S
C1414 C1415 1.400 . S
C1414 C1418 1.567 . S
C1415 C1414 1.400 . S
C1415 C1416 1.373 . S
C1415 C1437 1.432 . S
C1416 C1415 1.373 . S
C1416 C1417 1.339 . S
C1416 C1419 1.530 . S
C1417 C1412 1.304 . S
C1417 C1416 1.339 . S
C1417 H1478 0.930 . S
C1418 C1414 1.567 . S
C1418 H1479 0.961 . S
C1418 H1480 0.960 . S
C1418 H1481 0.958 . S
C1419 C1416 1.530 . S
C1419 H1482 0.961 . S
C1419 H1483 0.960 . S
C1419 H1484 0.960 . S
C1420 C1421 1.530 . S
C1420 H1486 0.961 . S
C1420 H1487 0.961 . S
C1420 H1488 0.959 . S
C1421 C1420 1.530 . S
C1421 O1449 1.412 . S
C1421 H1485 0.980 . S
C1422 C1423 1.288 . S
C1422 C1427 1.377 . S
C1422 O1449 1.393 . S
C1423 C1422 1.288 . S
C1423 C1424 1.369 . S
C1423 H1489 0.932 . S
C1424 C1423 1.369 . S
C1424 C1425 1.398 . S
C1424 C1428 1.527 . S
C1425 C1424 1.398 . S
C1425 C1426 1.380 . S
C1425 C1439 1.497 . S
C1426 C1425 1.380 . S
C1426 C1427 1.383 . S
C1426 C1429 1.603 . S
C1427 C1422 1.377 . S
C1427 C1426 1.383 . S
C1427 H1490 0.929 . S
C1428 C1424 1.527 . S
C1428 H1491 0.961 . S
C1428 H1492 0.959 . S
C1428 H1493 0.959 . S
C1429 C1426 1.603 . S
C1429 H1494 0.960 . S
C1429 H1495 0.962 . S
C1429 H1496 0.961 . S
C1430 C1397 1.587 . S
C1430 C1431 1.360 . S
C1430 C1443 1.412 . S
C1431 C1430 1.360 . S
C1431 C1432 1.365 . S
C1431 H1497 0.929 . S
C1432 C1407 1.553 . S
C1432 C1431 1.365 . S
C1432 C1433 1.404 . S
C1433 C1432 1.404 . S
C1433 C1434 1.395 . S
C1433 C1444 1.451 . S
C1434 C1433 1.395 . S
C1434 C1435 1.322 . S
C1434 H1498 0.930 . S
C1435 C1434 1.322 . S
C1435 C1436 1.459 . S
C1435 H1499 0.929 . S
C1436 C1435 1.459 . S
C1436 C1437 1.445 . S
C1436 C1445 1.395 . S
C1437 C1415 1.432 . S
C1437 C1436 1.445 . S
C1437 C1438 1.370 . S
C1438 C1437 1.370 . S
C1438 C1439 1.438 . S
C1438 H1500 0.930 . S
C1439 C1425 1.497 . S
C1439 C1438 1.438 . S
C1439 C1440 1.360 . S
C1440 C1439 1.360 . S
C1440 C1441 1.401 . S
C1440 C1445 1.446 . S
C1441 C1440 1.401 . S
C1441 C1442 1.347 . S
C1441 H1501 0.929 . S
C1442 C1441 1.347 . S
C1442 C1443 1.455 . S
C1442 H1502 0.930 . S
C1443 C1430 1.412 . S
C1443 C1442 1.455 . S
C1443 C1444 1.331 . S
C1444 C1433 1.451 . S
C1444 C1443 1.331 . S
C1444 C1445 1.497 . S
C1445 C1436 1.395 . S
C1445 C1440 1.446 . S
C1445 C1444 1.497 . S
C1446 C1447 1.582 . S
C1446 H1503 0.962 . S
C1446 H1504 0.959 . S
C1446 H1505 0.958 . S
C1447 C1446 1.582 . S
C1447 O1450 1.458 . S
C1447 H1476 0.980 . S
O1448 C1393 1.426 . S
O1448 C1394 1.334 . S
O1449 C1421 1.412 . S
O1449 C1422 1.393 . S
O1450 C1412 1.435 . S
O1450 C1447 1.458 . S
O1451 C1403 1.468 . S
O1451 C1404 1.408 . S
H1452 C1393 0.980 . S
H1453 C1392 0.959 . S
H1454 C1392 0.959 . S
H1455 C1392 0.960 . S
H1456 C1395 0.929 . S
H1457 C1399 0.929 . S
H1458 C1400 0.959 . S
H1459 C1400 0.961 . S
H1460 C1400 0.961 . S
H1461 C1401 0.960 . S
H1462 C1401 0.960 . S
H1463 C1401 0.961 . S
H1464 C1403 0.980 . S
H1465 C1402 0.961 . S
H1466 C1402 0.960 . S
H1467 C1402 0.959 . S
H1468 C1405 0.930 . S
H1469 C1409 0.931 . S
H1470 C1410 0.959 . S
H1471 C1410 0.961 . S
H1472 C1410 0.959 . S
H1473 C1411 0.960 . S
H1474 C1411 0.960 . S
H1475 C1411 0.960 . S
H1476 C1447 0.980 . S
H1477 C1413 0.930 . S
H1478 C1417 0.930 . S
H1479 C1418 0.961 . S
H1480 C1418 0.960 . S
H1481 C1418 0.958 . S
H1482 C1419 0.961 . S
H1483 C1419 0.960 . S
H1484 C1419 0.960 . S
H1485 C1421 0.980 . S
H1486 C1420 0.961 . S
H1487 C1420 0.961 . S
H1488 C1420 0.959 . S
H1489 C1423 0.932 . S
H1490 C1427 0.929 . S
H1491 C1428 0.961 . S
H1492 C1428 0.959 . S
H1493 C1428 0.959 . S
H1494 C1429 0.960 . S
H1495 C1429 0.962 . S
H1496 C1429 0.961 . S
H1497 C1431 0.929 . S
H1498 C1434 0.930 . S
H1499 C1435 0.929 . S
H1500 C1438 0.930 . S
H1501 C1441 0.929 . S
H1502 C1442 0.930 . S
H1503 C1446 0.962 . S
H1504 C1446 0.959 . S
H1505 C1446 0.958 . S
C1506 C1507 1.560 . S
C1506 H1567 0.959 . S
C1506 H1568 0.959 . S
C1506 H1569 0.960 . S
C1507 C1506 1.560 . S
C1507 O1562 1.426 . S
C1507 H1566 0.980 . S
C1508 C1509 1.407 1_565 S
C1508 C1513 1.418 . S
C1508 O1562 1.334 . S
C1509 C1508 1.407 1_545 S
C1509 C1510 1.360 . S
C1509 H1570 0.929 . S
C1510 C1509 1.360 . S
C1510 C1511 1.401 1_545 S
C1510 C1514 1.527 . S
C1511 C1510 1.401 1_565 S
C1511 C1512 1.405 . S
C1511 C1544 1.587 1_565 S
C1512 C1511 1.405 . S
C1512 C1513 1.332 . S
C1512 C1515 1.496 . S
C1513 C1508 1.418 . S
C1513 C1512 1.332 . S
C1513 H1571 0.929 . S
C1514 C1510 1.527 . S
C1514 H1572 0.959 . S
C1514 H1573 0.961 . S
C1514 H1574 0.961 . S
C1515 C1512 1.496 . S
C1515 H1575 0.960 . S
C1515 H1576 0.960 . S
C1515 H1577 0.961 . S
C1516 C1517 1.517 . S
C1516 H1579 0.961 1_545 S
C1516 H1580 0.960 . S
C1516 H1581 0.959 . S
C1517 C1516 1.517 . S
C1517 O1565 1.468 . S
C1517 H1578 0.980 1_545 S
C1518 C1519 1.377 . S
C1518 C1523 1.367 . S
C1518 O1565 1.408 . S
C1519 C1518 1.377 . S
C1519 C1520 1.425 1_545 S
C1519 H1582 0.885 1_545 S
C1520 C1519 1.425 1_565 S
C1520 C1521 1.449 1_565 S
C1520 C1524 1.535 . S
C1521 C1520 1.449 1_545 S
C1521 C1522 1.384 . S
C1521 C1546 1.553 . S
C1522 C1521 1.384 . S
C1522 C1523 1.364 . S
C1522 C1525 1.450 . S
C1523 C1518 1.367 . S
C1523 C1522 1.364 . S
C1523 H1583 0.931 . S
C1524 C1520 1.535 . S
C1524 H1584 0.959 . S
C1524 H1585 0.961 . S
C1524 H1586 0.959 . S
C1525 C1522 1.450 . S
C1525 H1587 0.960 . S
C1525 H1588 0.960 . S
C1525 H1589 0.960 . S
C1526 C1527 1.309 . S
C1526 C1531 1.304 . S
C1526 O1564 1.435 . S
C1527 C1526 1.309 . S
C1527 C1528 1.496 1_545 S
C1527 H1591 0.930 1_545 S
C1528 C1527 1.496 1_565 S
C1528 C1529 1.337 1_565 S
C1528 C1532 1.610 . S
C1529 C1528 1.337 1_545 S
C1529 C1530 1.373 . S
C1529 C1551 1.432 . S
C1530 C1529 1.373 . S
C1530 C1531 1.339 . S
C1530 C1533 1.530 . S
C1531 C1526 1.304 . S
C1531 C1530 1.339 . S
C1531 H1592 0.930 . S
C1532 C1528 1.610 . S
C1532 H1593 0.961 . S
C1532 H1594 0.960 . S
C1532 H1595 0.958 . S
C1533 C1530 1.530 . S
C1533 H1596 0.961 . S
C1533 H1597 0.960 . S
C1533 H1598 0.960 . S
C1534 C1535 1.530 1_565 S
C1534 H1600 0.961 . S
C1534 H1601 0.961 . S
C1534 H1602 0.959 . S
C1535 C1534 1.530 1_545 S
C1535 O1563 1.412 1_545 S
C1535 H1599 0.980 . S
C1536 C1537 1.288 . S
C1536 C1541 1.377 1_565 S
C1536 O1563 1.393 . S
C1537 C1536 1.288 . S
C1537 C1538 1.369 . S
C1537 H1603 0.932 . S
C1538 C1537 1.369 . S
C1538 C1539 1.398 1_565 S
C1538 C1542 1.527 . S
C1539 C1538 1.398 1_545 S
C1539 C1540 1.380 . S
C1539 C1553 1.497 . S
C1540 C1539 1.380 . S
C1540 C1541 1.383 . S
C1540 C1543 1.603 . S
C1541 C1536 1.377 1_545 S
C1541 C1540 1.383 . S
C1541 H1604 0.929 . S
C1542 C1538 1.527 . S
C1542 H1605 0.961 . S
C1542 H1606 0.959 . S
C1542 H1607 0.959 . S
C1543 C1540 1.603 . S
C1543 H1608 0.960 . S
C1543 H1609 0.962 . S
C1543 H1610 0.961 . S
C1544 C1511 1.587 1_545 S
C1544 C1545 1.360 . S
C1544 C1557 1.412 . S
C1545 C1544 1.360 . S
C1545 C1546 1.365 . S
C1545 H1611 0.929 . S
C1546 C1521 1.553 . S
C1546 C1545 1.365 . S
C1546 C1547 1.404 . S
C1547 C1546 1.404 . S
C1547 C1548 1.395 . S
C1547 C1558 1.451 . S
C1548 C1547 1.395 . S
C1548 C1549 1.322 . S
C1548 H1612 0.930 . S
C1549 C1548 1.322 . S
C1549 C1550 1.459 . S
C1549 H1613 0.929 . S
C1550 C1549 1.459 . S
C1550 C1551 1.445 . S
C1550 C1559 1.395 . S
C1551 C1529 1.432 . S
C1551 C1550 1.445 . S
C1551 C1552 1.370 . S
C1552 C1551 1.370 . S
C1552 C1553 1.438 . S
C1552 H1614 0.930 . S
C1553 C1539 1.497 . S
C1553 C1552 1.438 . S
C1553 C1554 1.360 . S
C1554 C1553 1.360 . S
C1554 C1555 1.401 . S
C1554 C1559 1.446 . S
C1555 C1554 1.401 . S
C1555 C1556 1.347 . S
C1555 H1615 0.929 . S
C1556 C1555 1.347 . S
C1556 C1557 1.455 . S
C1556 H1616 0.930 . S
C1557 C1544 1.412 . S
C1557 C1556 1.455 . S
C1557 C1558 1.331 . S
C1558 C1547 1.451 . S
C1558 C1557 1.331 . S
C1558 C1559 1.497 . S
C1559 C1550 1.395 . S
C1559 C1554 1.446 . S
C1559 C1558 1.497 . S
C1560 C1561 1.582 . S
C1560 H1617 0.962 . S
C1560 H1618 0.959 . S
C1560 H1619 0.958 . S
C1561 C1560 1.582 . S
C1561 O1564 1.458 . S
C1561 H1590 0.980 . S
O1562 C1507 1.426 . S
O1562 C1508 1.334 . S
O1563 C1535 1.412 1_565 S
O1563 C1536 1.393 . S
O1564 C1526 1.435 . S
O1564 C1561 1.458 . S
O1565 C1517 1.468 . S
O1565 C1518 1.408 . S
H1566 C1507 0.980 . S
H1567 C1506 0.959 . S
H1568 C1506 0.959 . S
H1569 C1506 0.960 . S
H1570 C1509 0.929 . S
H1571 C1513 0.929 . S
H1572 C1514 0.959 . S
H1573 C1514 0.961 . S
H1574 C1514 0.961 . S
H1575 C1515 0.960 . S
H1576 C1515 0.960 . S
H1577 C1515 0.961 . S
H1578 C1517 0.980 1_565 S
H1579 C1516 0.961 1_565 S
H1580 C1516 0.960 . S
H1581 C1516 0.959 . S
H1582 C1519 0.885 1_565 S
H1583 C1523 0.931 . S
H1584 C1524 0.959 . S
H1585 C1524 0.961 . S
H1586 C1524 0.959 . S
H1587 C1525 0.960 . S
H1588 C1525 0.960 . S
H1589 C1525 0.960 . S
H1590 C1561 0.980 . S
H1591 C1527 0.930 1_565 S
H1592 C1531 0.930 . S
H1593 C1532 0.961 . S
H1594 C1532 0.960 . S
H1595 C1532 0.958 . S
H1596 C1533 0.961 . S
H1597 C1533 0.960 . S
H1598 C1533 0.960 . S
H1599 C1535 0.980 . S
H1600 C1534 0.961 . S
H1601 C1534 0.961 . S
H1602 C1534 0.959 . S
H1603 C1537 0.932 . S
H1604 C1541 0.929 . S
H1605 C1542 0.961 . S
H1606 C1542 0.959 . S
H1607 C1542 0.959 . S
H1608 C1543 0.960 . S
H1609 C1543 0.962 . S
H1610 C1543 0.961 . S
H1611 C1545 0.929 . S
H1612 C1548 0.930 . S
H1613 C1549 0.929 . S
H1614 C1552 0.930 . S
H1615 C1555 0.929 . S
H1616 C1556 0.930 . S
H1617 C1560 0.962 . S
H1618 C1560 0.959 . S
H1619 C1560 0.958 . S
C1620 C1621 1.560 . S
C1620 H1681 0.959 . S
C1620 H1682 0.959 . S
C1620 H1683 0.960 . S
C1621 C1620 1.560 . S
C1621 O1676 1.426 . S
C1621 H1680 0.980 1_565 S
C1622 C1623 1.407 1_565 S
C1622 C1627 1.418 . S
C1622 O1676 1.334 . S
C1623 C1622 1.407 1_545 S
C1623 C1624 1.360 . S
C1623 H1684 0.929 . S
C1624 C1623 1.360 . S
C1624 C1625 1.401 . S
C1624 C1628 1.527 . S
C1625 C1624 1.401 . S
C1625 C1626 1.405 1_545 S
C1625 C1658 1.587 . S
C1626 C1625 1.405 1_565 S
C1626 C1627 1.332 . S
C1626 C1629 1.496 . S
C1627 C1622 1.418 . S
C1627 C1626 1.332 . S
C1627 H1685 0.929 . S
C1628 C1624 1.527 . S
C1628 H1686 0.959 . S
C1628 H1687 0.961 . S
C1628 H1688 0.961 . S
C1629 C1626 1.496 . S
C1629 H1689 0.960 . S
C1629 H1690 0.960 . S
C1629 H1691 0.961 . S
C1630 C1631 1.517 . S
C1630 H1693 0.961 . S
C1630 H1694 0.960 . S
C1630 H1695 0.959 . S
C1631 C1630 1.517 . S
C1631 O1679 1.468 . S
C1631 H1692 0.980 . S
C1632 C1633 1.349 . S
C1632 C1637 1.367 . S
C1632 O1679 1.408 . S
C1633 C1632 1.349 . S
C1633 C1634 1.407 . S
C1633 H1696 0.933 1_545 S
C1634 C1633 1.407 . S
C1634 C1635 1.449 . S
C1634 C1638 1.535 1_545 S
C1635 C1634 1.449 . S
C1635 C1636 1.384 . S
C1635 C1660 1.553 . S
C1636 C1635 1.384 . S
C1636 C1637 1.364 . S
C1636 C1639 1.450 . S
C1637 C1632 1.367 . S
C1637 C1636 1.364 . S
C1637 H1697 0.931 . S
C1638 C1634 1.535 1_565 S
C1638 H1698 0.959 . S
C1638 H1699 0.961 . S
C1638 H1700 0.959 . S
C1639 C1636 1.450 . S
C1639 H1701 0.960 . S
C1639 H1702 0.960 . S
C1639 H1703 0.960 . S
C1640 C1641 1.309 1_545 S
C1640 C1645 1.304 . S
C1640 O1678 1.435 . S
C1641 C1640 1.309 1_565 S
C1641 C1642 1.476 . S
C1641 H1705 0.930 . S
C1642 C1641 1.476 . S
C1642 C1643 1.400 1_565 S
C1642 C1646 1.567 . S
C1643 C1642 1.400 1_545 S
C1643 C1644 1.373 . S
C1643 C1665 1.432 . S
C1644 C1643 1.373 . S
C1644 C1645 1.339 . S
C1644 C1647 1.530 . S
C1645 C1640 1.304 . S
C1645 C1644 1.339 . S
C1645 H1706 0.930 . S
C1646 C1642 1.567 . S
C1646 H1707 0.961 . S
C1646 H1708 0.960 . S
C1646 H1709 0.958 . S
C1647 C1644 1.530 . S
C1647 H1710 0.961 . S
C1647 H1711 0.960 . S
C1647 H1712 0.960 . S
C1648 C1649 1.530 . S
C1648 H1714 0.961 . S
C1648 H1715 0.961 . S
C1648 H1716 0.959 . S
C1649 C1648 1.530 . S
C1649 O1677 1.412 . S
C1649 H1713 1.006 . S
C1650 C1651 1.288 . S
C1650 C1655 1.377 1_565 S
C1650 O1677 1.393 . S
C1651 C1650 1.288 . S
C1651 C1652 1.369 . S
C1651 H1717 0.932 . S
C1652 C1651 1.369 . S
C1652 C1653 1.398 . S
C1652 C1656 1.527 . S
C1653 C1652 1.398 . S
C1653 C1654 1.380 1_565 S
C1653 C1667 1.497 1_565 S
C1654 C1653 1.380 1_545 S
C1654 C1655 1.383 . S
C1654 C1657 1.603 . S
C1655 C1650 1.377 1_545 S
C1655 C1654 1.383 . S
C1655 H1718 0.929 . S
C1656 C1652 1.527 . S
C1656 H1719 0.961 . S
C1656 H1720 0.959 . S
C1656 H1721 0.959 . S
C1657 C1654 1.603 . S
C1657 H1722 0.960 . S
C1657 H1723 0.962 . S
C1657 H1724 0.961 . S
C1658 C1625 1.587 . S
C1658 C1659 1.360 . S
C1658 C1671 1.412 . S
C1659 C1658 1.360 . S
C1659 C1660 1.365 . S
C1659 H1725 0.929 . S
C1660 C1635 1.553 . S
C1660 C1659 1.365 . S
C1660 C1661 1.404 . S
C1661 C1660 1.404 . S
C1661 C1662 1.395 . S
C1661 C1672 1.451 . S
C1662 C1661 1.395 . S
C1662 C1663 1.322 . S
C1662 H1726 0.930 . S
C1663 C1662 1.322 . S
C1663 C1664 1.459 . S
C1663 H1727 0.929 . S
C1664 C1663 1.459 . S
C1664 C1665 1.445 . S
C1664 C1673 1.395 . S
C1665 C1643 1.432 . S
C1665 C1664 1.445 . S
C1665 C1666 1.370 . S
C1666 C1665 1.370 . S
C1666 C1667 1.438 . S
C1666 H1728 0.930 . S
C1667 C1653 1.497 1_545 S
C1667 C1666 1.438 . S
C1667 C1668 1.360 . S
C1668 C1667 1.360 . S
C1668 C1669 1.401 . S
C1668 C1673 1.446 . S
C1669 C1668 1.401 . S
C1669 C1670 1.347 . S
C1669 H1729 0.957 . S
C1670 C1669 1.347 . S
C1670 C1671 1.455 . S
C1670 H1730 0.930 . S
C1671 C1658 1.412 . S
C1671 C1670 1.455 . S
C1671 C1672 1.331 . S
C1672 C1661 1.451 . S
C1672 C1671 1.331 . S
C1672 C1673 1.497 . S
C1673 C1664 1.395 . S
C1673 C1668 1.446 . S
C1673 C1672 1.497 . S
C1674 C1675 1.582 . S
C1674 H1731 0.962 . S
C1674 H1732 0.959 . S
C1674 H1733 0.958 . S
C1675 C1674 1.582 . S
C1675 O1678 1.458 . S
C1675 H1704 0.980 1_545 S
O1676 C1621 1.426 . S
O1676 C1622 1.334 . S
O1677 C1649 1.412 . S
O1677 C1650 1.393 . S
O1678 C1640 1.435 . S
O1678 C1675 1.458 . S
O1679 C1631 1.468 . S
O1679 C1632 1.408 . S
H1680 C1621 0.980 1_545 S
H1681 C1620 0.959 . S
H1682 C1620 0.959 . S
H1683 C1620 0.960 . S
H1684 C1623 0.929 . S
H1685 C1627 0.929 . S
H1686 C1628 0.959 . S
H1687 C1628 0.961 . S
H1688 C1628 0.961 . S
H1689 C1629 0.960 . S
H1690 C1629 0.960 . S
H1691 C1629 0.961 . S
H1692 C1631 0.980 . S
H1693 C1630 0.961 . S
H1694 C1630 0.960 . S
H1695 C1630 0.959 . S
H1696 C1633 0.933 1_565 S
H1697 C1637 0.931 . S
H1698 C1638 0.959 . S
H1699 C1638 0.961 . S
H1700 C1638 0.959 . S
H1701 C1639 0.960 . S
H1702 C1639 0.960 . S
H1703 C1639 0.960 . S
H1704 C1675 0.980 1_565 S
H1705 C1641 0.930 . S
H1706 C1645 0.930 . S
H1707 C1646 0.961 . S
H1708 C1646 0.960 . S
H1709 C1646 0.958 . S
H1710 C1647 0.961 . S
H1711 C1647 0.960 . S
H1712 C1647 0.960 . S
H1713 C1649 1.006 . S
H1714 C1648 0.961 . S
H1715 C1648 0.961 . S
H1716 C1648 0.959 . S
H1717 C1651 0.932 . S
H1718 C1655 0.929 . S
H1719 C1656 0.961 . S
H1720 C1656 0.959 . S
H1721 C1656 0.959 . S
H1722 C1657 0.960 . S
H1723 C1657 0.962 . S
H1724 C1657 0.961 . S
H1725 C1659 0.929 . S
H1726 C1662 0.930 . S
H1727 C1663 0.929 . S
H1728 C1666 0.930 . S
H1729 C1669 0.957 . S
H1730 C1670 0.930 . S
H1731 C1674 0.962 . S
H1732 C1674 0.959 . S
H1733 C1674 0.958 . S
C1734 C1735 1.560 . S
C1734 H1795 0.959 . S
C1734 H1796 0.959 . S
C1734 H1797 0.960 . S
C1735 C1734 1.560 . S
C1735 O1790 1.426 . S
C1735 H1794 0.980 1_455 S
C1736 C1737 1.407 1_455 S
C1736 C1741 1.418 . S
C1736 O1790 1.334 . S
C1737 C1736 1.407 1_655 S
C1737 C1738 1.360 . S
C1737 H1798 0.929 . S
C1738 C1737 1.360 . S
C1738 C1739 1.401 . S
C1738 C1742 1.527 . S
C1739 C1738 1.401 . S
C1739 C1740 1.405 1_655 S
C1739 C1772 1.587 . S
C1740 C1739 1.405 1_455 S
C1740 C1741 1.332 . S
C1740 C1743 1.496 . S
C1741 C1736 1.418 . S
C1741 C1740 1.332 . S
C1741 H1799 0.929 . S
C1742 C1738 1.527 . S
C1742 H1800 0.959 . S
C1742 H1801 0.961 . S
C1742 H1802 0.961 . S
C1743 C1740 1.496 . S
C1743 H1803 0.960 . S
C1743 H1804 0.960 . S
C1743 H1805 0.961 . S
C1744 C1745 1.517 . S
C1744 H1807 0.961 . S
C1744 H1808 0.960 . S
C1744 H1809 0.959 . S
C1745 C1744 1.517 . S
C1745 O1793 1.468 . S
C1745 H1806 0.980 . S
C1746 C1747 1.349 . S
C1746 C1751 1.367 . S
C1746 O1793 1.408 . S
C1747 C1746 1.349 . S
C1747 C1748 1.407 . S
C1747 H1810 0.885 1_655 S
C1748 C1747 1.407 . S
C1748 C1749 1.449 . S
C1748 C1752 1.535 1_655 S
C1749 C1748 1.449 . S
C1749 C1750 1.384 . S
C1749 C1774 1.553 . S
C1750 C1749 1.384 . S
C1750 C1751 1.364 . S
C1750 C1753 1.450 . S
C1751 C1746 1.367 . S
C1751 C1750 1.364 . S
C1751 H1811 0.931 . S
C1752 C1748 1.535 1_455 S
C1752 H1812 0.959 . S
C1752 H1813 0.961 . S
C1752 H1814 0.959 . S
C1753 C1750 1.450 . S
C1753 H1815 0.960 . S
C1753 H1816 0.960 . S
C1753 H1817 0.960 . S
C1754 C1755 1.309 1_655 S
C1754 C1759 1.304 . S
C1754 O1792 1.435 . S
C1755 C1754 1.309 1_455 S
C1755 C1756 1.476 . S
C1755 H1819 0.930 . S
C1756 C1755 1.476 . S
C1756 C1757 1.400 1_455 S
C1756 C1760 1.567 . S
C1757 C1756 1.400 1_655 S
C1757 C1758 1.373 . S
C1757 C1779 1.432 . S
C1758 C1757 1.373 . S
C1758 C1759 1.339 . S
C1758 C1761 1.530 . S
C1759 C1754 1.304 . S
C1759 C1758 1.339 . S
C1759 H1820 0.930 . S
C1760 C1756 1.567 . S
C1760 H1821 0.961 . S
C1760 H1822 0.960 . S
C1760 H1823 0.958 . S
C1761 C1758 1.530 . S
C1761 H1824 0.961 . S
C1761 H1825 0.960 . S
C1761 H1826 0.960 . S
C1762 C1763 1.530 . S
C1762 H1828 0.961 . S
C1762 H1829 0.961 . S
C1762 H1830 0.959 . S
C1763 C1762 1.530 . S
C1763 O1791 1.412 . S
C1763 H1827 0.965 1_455 S
C1764 C1765 1.288 . S
C1764 C1769 1.377 1_455 S
C1764 O1791 1.393 . S
C1765 C1764 1.288 . S
C1765 C1766 1.369 . S
C1765 H1831 0.932 . S
C1766 C1765 1.369 . S
C1766 C1767 1.398 . S
C1766 C1770 1.527 . S
C1767 C1766 1.398 . S
C1767 C1768 1.380 1_455 S
C1767 C1781 1.497 1_455 S
C1768 C1767 1.380 1_655 S
C1768 C1769 1.383 . S
C1768 C1771 1.603 . S
C1769 C1764 1.377 1_655 S
C1769 C1768 1.383 . S
C1769 H1832 0.929 . S
C1770 C1766 1.527 . S
C1770 H1833 0.961 . S
C1770 H1834 0.959 . S
C1770 H1835 0.959 . S
C1771 C1768 1.603 . S
C1771 H1836 0.960 . S
C1771 H1837 0.962 . S
C1771 H1838 0.961 . S
C1772 C1739 1.587 . S
C1772 C1773 1.360 . S
C1772 C1785 1.412 . S
C1773 C1772 1.360 . S
C1773 C1774 1.365 . S
C1773 H1839 0.929 . S
C1774 C1749 1.553 . S
C1774 C1773 1.365 . S
C1774 C1775 1.404 . S
C1775 C1774 1.404 . S
C1775 C1776 1.395 . S
C1775 C1786 1.451 . S
C1776 C1775 1.395 . S
C1776 C1777 1.322 . S
C1776 H1840 0.930 . S
C1777 C1776 1.322 . S
C1777 C1778 1.459 . S
C1777 H1841 0.929 . S
C1778 C1777 1.459 . S
C1778 C1779 1.445 . S
C1778 C1787 1.395 . S
C1779 C1757 1.432 . S
C1779 C1778 1.445 . S
C1779 C1780 1.370 . S
C1780 C1779 1.370 . S
C1780 C1781 1.438 . S
C1780 H1842 0.930 . S
C1781 C1767 1.497 1_655 S
C1781 C1780 1.438 . S
C1781 C1782 1.360 . S
C1782 C1781 1.360 . S
C1782 C1783 1.401 . S
C1782 C1787 1.446 . S
C1783 C1782 1.401 . S
C1783 C1784 1.347 . S
C1783 H1843 0.929 . S
C1784 C1783 1.347 . S
C1784 C1785 1.455 . S
C1784 H1844 0.930 . S
C1785 C1772 1.412 . S
C1785 C1784 1.455 . S
C1785 C1786 1.331 . S
C1786 C1775 1.451 . S
C1786 C1785 1.331 . S
C1786 C1787 1.497 . S
C1787 C1778 1.395 . S
C1787 C1782 1.446 . S
C1787 C1786 1.497 . S
C1788 C1789 1.582 1_655 S
C1788 H1845 0.967 1_655 S
C1788 H1846 0.959 . S
C1788 H1847 0.958 . S
C1789 C1788 1.582 1_455 S
C1789 O1792 1.390 1_455 S
C1789 H1818 1.008 . S
O1790 C1735 1.426 . S
O1790 C1736 1.334 . S
O1791 C1763 1.412 . S
O1791 C1764 1.393 . S
O1792 C1754 1.435 . S
O1792 C1789 1.390 1_655 S
O1793 C1745 1.468 . S
O1793 C1746 1.408 . S
H1794 C1735 0.980 1_655 S
H1795 C1734 0.959 . S
H1796 C1734 0.959 . S
H1797 C1734 0.960 . S
H1798 C1737 0.929 . S
H1799 C1741 0.929 . S
H1800 C1742 0.959 . S
H1801 C1742 0.961 . S
H1802 C1742 0.961 . S
H1803 C1743 0.960 . S
H1804 C1743 0.960 . S
H1805 C1743 0.961 . S
H1806 C1745 0.980 . S
H1807 C1744 0.961 . S
H1808 C1744 0.960 . S
H1809 C1744 0.959 . S
H1810 C1747 0.885 1_455 S
H1811 C1751 0.931 . S
H1812 C1752 0.959 . S
H1813 C1752 0.961 . S
H1814 C1752 0.959 . S
H1815 C1753 0.960 . S
H1816 C1753 0.960 . S
H1817 C1753 0.960 . S
H1818 C1789 1.008 . S
H1819 C1755 0.930 . S
H1820 C1759 0.930 . S
H1821 C1760 0.961 . S
H1822 C1760 0.960 . S
H1823 C1760 0.958 . S
H1824 C1761 0.961 . S
H1825 C1761 0.960 . S
H1826 C1761 0.960 . S
H1827 C1763 0.965 1_655 S
H1828 C1762 0.961 . S
H1829 C1762 0.961 . S
H1830 C1762 0.959 . S
H1831 C1765 0.932 . S
H1832 C1769 0.929 . S
H1833 C1770 0.961 . S
H1834 C1770 0.959 . S
H1835 C1770 0.959 . S
H1836 C1771 0.960 . S
H1837 C1771 0.962 . S
H1838 C1771 0.961 . S
H1839 C1773 0.929 . S
H1840 C1776 0.930 . S
H1841 C1777 0.929 . S
H1842 C1780 0.930 . S
H1843 C1783 0.929 . S
H1844 C1784 0.930 . S
H1845 C1788 0.967 1_455 S
H1846 C1788 0.959 . S
H1847 C1788 0.958 . S
C1848 C1849 1.560 . S
C1848 H1909 0.959 . S
C1848 H1910 0.959 . S
C1848 H1911 0.960 . S
C1849 C1848 1.560 . S
C1849 O1904 1.426 . S
C1849 H1908 0.980 . S
C1850 C1851 1.407 . S
C1850 C1855 1.418 . S
C1850 O1904 1.334 . S
C1851 C1850 1.407 . S
C1851 C1852 1.360 . S
C1851 H1912 0.929 . S
C1852 C1851 1.360 . S
C1852 C1853 1.401 . S
C1852 C1856 1.527 . S
C1853 C1852 1.401 . S
C1853 C1854 1.405 . S
C1853 C1886 1.587 . S
C1854 C1853 1.405 . S
C1854 C1855 1.332 . S
C1854 C1857 1.496 . S
C1855 C1850 1.418 . S
C1855 C1854 1.332 . S
C1855 H1913 0.929 . S
C1856 C1852 1.527 . S
C1856 H1914 0.959 . S
C1856 H1915 0.961 . S
C1856 H1916 0.961 . S
C1857 C1854 1.496 . S
C1857 H1917 0.960 . S
C1857 H1918 0.960 . S
C1857 H1919 0.961 . S
C1858 C1859 1.517 . S
C1858 H1921 0.961 . S
C1858 H1922 0.960 . S
C1858 H1923 0.959 . S
C1859 C1858 1.517 . S
C1859 O1907 1.468 . S
C1859 H1920 0.980 . S
C1860 C1861 1.349 . S
C1860 C1865 1.367 . S
C1860 O1907 1.408 . S
C1861 C1860 1.349 . S
C1861 C1862 1.407 . S
C1861 H1924 0.930 . S
C1862 C1861 1.407 . S
C1862 C1863 1.449 . S
C1862 C1866 1.535 . S
C1863 C1862 1.449 . S
C1863 C1864 1.384 . S
C1863 C1888 1.553 . S
C1864 C1863 1.384 . S
C1864 C1865 1.364 . S
C1864 C1867 1.450 . S
C1865 C1860 1.367 . S
C1865 C1864 1.364 . S
C1865 H1925 0.931 . S
C1866 C1862 1.535 . S
C1866 H1926 0.959 . S
C1866 H1927 0.961 . S
C1866 H1928 0.959 . S
C1867 C1864 1.450 . S
C1867 H1929 0.960 . S
C1867 H1930 0.960 . S
C1867 H1931 0.960 . S
C1868 C1869 1.309 . S
C1868 C1873 1.304 . S
C1868 O1906 1.435 . S
C1869 C1868 1.309 . S
C1869 C1870 1.476 . S
C1869 H1933 0.930 . S
C1870 C1869 1.476 . S
C1870 C1871 1.400 . S
C1870 C1874 1.567 . S
C1871 C1870 1.400 . S
C1871 C1872 1.373 . S
C1871 C1893 1.432 . S
C1872 C1871 1.373 . S
C1872 C1873 1.339 . S
C1872 C1875 1.530 . S
C1873 C1868 1.304 . S
C1873 C1872 1.339 . S
C1873 H1934 0.930 . S
C1874 C1870 1.567 . S
C1874 H1935 0.961 . S
C1874 H1936 0.960 . S
C1874 H1937 0.958 . S
C1875 C1872 1.530 . S
C1875 H1938 0.961 . S
C1875 H1939 0.960 . S
C1875 H1940 0.960 . S
C1876 C1877 1.530 . S
C1876 H1942 0.961 . S
C1876 H1943 0.961 . S
C1876 H1944 0.959 . S
C1877 C1876 1.530 . S
C1877 O1905 1.412 . S
C1877 H1941 0.980 . S
C1878 C1879 1.288 . S
C1878 C1883 1.377 . S
C1878 O1905 1.393 . S
C1879 C1878 1.288 . S
C1879 C1880 1.369 . S
C1879 H1945 0.932 . S
C1880 C1879 1.369 . S
C1880 C1881 1.398 . S
C1880 C1884 1.527 . S
C1881 C1880 1.398 . S
C1881 C1882 1.380 . S
C1881 C1895 1.497 . S
C1882 C1881 1.380 . S
C1882 C1883 1.383 . S
C1882 C1885 1.603 . S
C1883 C1878 1.377 . S
C1883 C1882 1.383 . S
C1883 H1946 0.929 . S
C1884 C1880 1.527 . S
C1884 H1947 0.961 . S
C1884 H1948 0.959 . S
C1884 H1949 0.959 . S
C1885 C1882 1.603 . S
C1885 H1950 0.960 . S
C1885 H1951 0.962 . S
C1885 H1952 0.961 . S
C1886 C1853 1.587 . S
C1886 C1887 1.360 . S
C1886 C1899 1.412 . S
C1887 C1886 1.360 . S
C1887 C1888 1.365 . S
C1887 H1953 0.929 . S
C1888 C1863 1.553 . S
C1888 C1887 1.365 . S
C1888 C1889 1.404 . S
C1889 C1888 1.404 . S
C1889 C1890 1.395 . S
C1889 C1900 1.451 . S
C1890 C1889 1.395 . S
C1890 C1891 1.322 . S
C1890 H1954 0.930 . S
C1891 C1890 1.322 . S
C1891 C1892 1.459 . S
C1891 H1955 0.929 . S
C1892 C1891 1.459 . S
C1892 C1893 1.445 . S
C1892 C1901 1.395 . S
C1893 C1871 1.432 . S
C1893 C1892 1.445 . S
C1893 C1894 1.370 . S
C1894 C1893 1.370 . S
C1894 C1895 1.438 . S
C1894 H1956 0.930 . S
C1895 C1881 1.497 . S
C1895 C1894 1.438 . S
C1895 C1896 1.360 . S
C1896 C1895 1.360 . S
C1896 C1897 1.401 . S
C1896 C1901 1.446 . S
C1897 C1896 1.401 . S
C1897 C1898 1.347 . S
C1897 H1957 0.929 . S
C1898 C1897 1.347 . S
C1898 C1899 1.455 . S
C1898 H1958 0.930 . S
C1899 C1886 1.412 . S
C1899 C1898 1.455 . S
C1899 C1900 1.331 . S
C1900 C1889 1.451 . S
C1900 C1899 1.331 . S
C1900 C1901 1.497 . S
C1901 C1892 1.395 . S
C1901 C1896 1.446 . S
C1901 C1900 1.497 . S
C1902 C1903 1.582 . S
C1902 H1959 0.962 . S
C1902 H1960 0.959 . S
C1902 H1961 0.958 . S
C1903 C1902 1.582 . S
C1903 O1906 1.458 . S
C1903 H1932 0.980 . S
O1904 C1849 1.426 . S
O1904 C1850 1.334 . S
O1905 C1877 1.412 . S
O1905 C1878 1.393 . S
O1906 C1868 1.435 . S
O1906 C1903 1.458 . S
O1907 C1859 1.468 . S
O1907 C1860 1.408 . S
H1908 C1849 0.980 . S
H1909 C1848 0.959 . S
H1910 C1848 0.959 . S
H1911 C1848 0.960 . S
H1912 C1851 0.929 . S
H1913 C1855 0.929 . S
H1914 C1856 0.959 . S
H1915 C1856 0.961 . S
H1916 C1856 0.961 . S
H1917 C1857 0.960 . S
H1918 C1857 0.960 . S
H1919 C1857 0.961 . S
H1920 C1859 0.980 . S
H1921 C1858 0.961 . S
H1922 C1858 0.960 . S
H1923 C1858 0.959 . S
H1924 C1861 0.930 . S
H1925 C1865 0.931 . S
H1926 C1866 0.959 . S
H1927 C1866 0.961 . S
H1928 C1866 0.959 . S
H1929 C1867 0.960 . S
H1930 C1867 0.960 . S
H1931 C1867 0.960 . S
H1932 C1903 0.980 . S
H1933 C1869 0.930 . S
H1934 C1873 0.930 . S
H1935 C1874 0.961 . S
H1936 C1874 0.960 . S
H1937 C1874 0.958 . S
H1938 C1875 0.961 . S
H1939 C1875 0.960 . S
H1940 C1875 0.960 . S
H1941 C1877 0.980 . S
H1942 C1876 0.961 . S
H1943 C1876 0.961 . S
H1944 C1876 0.959 . S
H1945 C1879 0.932 . S
H1946 C1883 0.929 . S
H1947 C1884 0.961 . S
H1948 C1884 0.959 . S
H1949 C1884 0.959 . S
H1950 C1885 0.960 . S
H1951 C1885 0.962 . S
H1952 C1885 0.961 . S
H1953 C1887 0.929 . S
H1954 C1890 0.930 . S
H1955 C1891 0.929 . S
H1956 C1894 0.930 . S
H1957 C1897 0.929 . S
H1958 C1898 0.930 . S
H1959 C1902 0.962 . S
H1960 C1902 0.959 . S
H1961 C1902 0.958 . S
C1962 C1963 1.560 . S
C1962 H2023 0.959 . S
C1962 H2024 0.959 . S
C1962 H2025 0.960 . S
C1963 C1962 1.560 . S
C1963 O2018 1.426 . S
C1963 H2022 0.980 . S
C1964 C1965 1.407 . S
C1964 C1969 1.418 . S
C1964 O2018 1.334 . S
C1965 C1964 1.407 . S
C1965 C1966 1.360 . S
C1965 H2026 0.929 . S
C1966 C1965 1.360 . S
C1966 C1967 1.401 . S
C1966 C1970 1.527 . S
C1967 C1966 1.401 . S
C1967 C1968 1.405 . S
C1967 C2000 1.587 . S
C1968 C1967 1.405 . S
C1968 C1969 1.332 . S
C1968 C1971 1.496 . S
C1969 C1964 1.418 . S
C1969 C1968 1.332 . S
C1969 H2027 0.929 . S
C1970 C1966 1.527 . S
C1970 H2028 0.959 . S
C1970 H2029 0.961 . S
C1970 H2030 0.961 . S
C1971 C1968 1.496 . S
C1971 H2031 0.960 . S
C1971 H2032 0.960 . S
C1971 H2033 0.961 . S
C1972 C1973 1.517 . S
C1972 H2035 0.961 . S
C1972 H2036 0.960 . S
C1972 H2037 0.959 . S
C1973 C1972 1.517 . S
C1973 O2021 1.468 . S
C1973 H2034 0.980 . S
C1974 C1975 1.349 . S
C1974 C1979 1.367 . S
C1974 O2021 1.408 . S
C1975 C1974 1.349 . S
C1975 C1976 1.407 . S
C1975 H2038 0.930 . S
C1976 C1975 1.407 . S
C1976 C1977 1.449 . S
C1976 C1980 1.535 . S
C1977 C1976 1.449 . S
C1977 C1978 1.384 . S
C1977 C2002 1.553 . S
C1978 C1977 1.384 . S
C1978 C1979 1.364 . S
C1978 C1981 1.450 . S
C1979 C1974 1.367 . S
C1979 C1978 1.364 . S
C1979 H2039 0.931 . S
C1980 C1976 1.535 . S
C1980 H2040 0.959 . S
C1980 H2041 0.961 . S
C1980 H2042 0.959 . S
C1981 C1978 1.450 . S
C1981 H2043 0.960 . S
C1981 H2044 0.960 . S
C1981 H2045 0.960 . S
C1982 C1983 1.309 . S
C1982 C1987 1.304 . S
C1982 O2020 1.435 . S
C1983 C1982 1.309 . S
C1983 C1984 1.476 . S
C1983 H2047 0.930 . S
C1984 C1983 1.476 . S
C1984 C1985 1.400 . S
C1984 C1988 1.567 . S
C1985 C1984 1.400 . S
C1985 C1986 1.373 . S
C1985 C2007 1.432 . S
C1986 C1985 1.373 . S
C1986 C1987 1.339 . S
C1986 C1989 1.530 . S
C1987 C1982 1.304 . S
C1987 C1986 1.339 . S
C1987 H2048 0.930 . S
C1988 C1984 1.567 . S
C1988 H2049 0.961 . S
C1988 H2050 0.960 . S
C1988 H2051 0.958 . S
C1989 C1986 1.530 . S
C1989 H2052 0.961 . S
C1989 H2053 0.960 . S
C1989 H2054 0.960 . S
C1990 C1991 1.530 . S
C1990 H2056 0.961 . S
C1990 H2057 0.961 . S
C1990 H2058 0.959 . S
C1991 C1990 1.530 . S
C1991 O2019 1.412 . S
C1991 H2055 0.980 . S
C1992 C1993 1.288 . S
C1992 C1997 1.377 . S
C1992 O2019 1.393 . S
C1993 C1992 1.288 . S
C1993 C1994 1.369 . S
C1993 H2059 0.932 . S
C1994 C1993 1.369 . S
C1994 C1995 1.398 . S
C1994 C1998 1.527 . S
C1995 C1994 1.398 . S
C1995 C1996 1.380 . S
C1995 C2009 1.497 . S
C1996 C1995 1.380 . S
C1996 C1997 1.383 . S
C1996 C1999 1.603 . S
C1997 C1992 1.377 . S
C1997 C1996 1.383 . S
C1997 H2060 0.929 . S
C1998 C1994 1.527 . S
C1998 H2061 0.961 . S
C1998 H2062 0.959 . S
C1998 H2063 0.959 . S
C1999 C1996 1.603 . S
C1999 H2064 0.960 . S
C1999 H2065 0.962 . S
C1999 H2066 0.961 . S
C2000 C1967 1.587 . S
C2000 C2001 1.360 . S
C2000 C2013 1.412 . S
C2001 C2000 1.360 . S
C2001 C2002 1.365 . S
C2001 H2067 0.929 . S
C2002 C1977 1.553 . S
C2002 C2001 1.365 . S
C2002 C2003 1.404 . S
C2003 C2002 1.404 . S
C2003 C2004 1.395 . S
C2003 C2014 1.451 . S
C2004 C2003 1.395 . S
C2004 C2005 1.322 . S
C2004 H2068 0.930 . S
C2005 C2004 1.322 . S
C2005 C2006 1.459 . S
C2005 H2069 0.929 . S
C2006 C2005 1.459 . S
C2006 C2007 1.445 . S
C2006 C2015 1.395 . S
C2007 C1985 1.432 . S
C2007 C2006 1.445 . S
C2007 C2008 1.370 . S
C2008 C2007 1.370 . S
C2008 C2009 1.438 . S
C2008 H2070 0.930 . S
C2009 C1995 1.497 . S
C2009 C2008 1.438 . S
C2009 C2010 1.360 . S
C2010 C2009 1.360 . S
C2010 C2011 1.401 . S
C2010 C2015 1.446 . S
C2011 C2010 1.401 . S
C2011 C2012 1.347 . S
C2011 H2071 0.929 . S
C2012 C2011 1.347 . S
C2012 C2013 1.455 . S
C2012 H2072 0.930 . S
C2013 C2000 1.412 . S
C2013 C2012 1.455 . S
C2013 C2014 1.331 . S
C2014 C2003 1.451 . S
C2014 C2013 1.331 . S
C2014 C2015 1.497 . S
C2015 C2006 1.395 . S
C2015 C2010 1.446 . S
C2015 C2014 1.497 . S
C2016 C2017 1.582 . S
C2016 H2073 0.962 . S
C2016 H2074 0.959 . S
C2016 H2075 0.958 . S
C2017 C2016 1.582 . S
C2017 O2020 1.458 . S
C2017 H2046 0.980 . S
O2018 C1963 1.426 . S
O2018 C1964 1.334 . S
O2019 C1991 1.412 . S
O2019 C1992 1.393 . S
O2020 C1982 1.435 . S
O2020 C2017 1.458 . S
O2021 C1973 1.468 . S
O2021 C1974 1.408 . S
H2022 C1963 0.980 . S
H2023 C1962 0.959 . S
H2024 C1962 0.959 . S
H2025 C1962 0.960 . S
H2026 C1965 0.929 . S
H2027 C1969 0.929 . S
H2028 C1970 0.959 . S
H2029 C1970 0.961 . S
H2030 C1970 0.961 . S
H2031 C1971 0.960 . S
H2032 C1971 0.960 . S
H2033 C1971 0.961 . S
H2034 C1973 0.980 . S
H2035 C1972 0.961 . S
H2036 C1972 0.960 . S
H2037 C1972 0.959 . S
H2038 C1975 0.930 . S
H2039 C1979 0.931 . S
H2040 C1980 0.959 . S
H2041 C1980 0.961 . S
H2042 C1980 0.959 . S
H2043 C1981 0.960 . S
H2044 C1981 0.960 . S
H2045 C1981 0.960 . S
H2046 C2017 0.980 . S
H2047 C1983 0.930 . S
H2048 C1987 0.930 . S
H2049 C1988 0.961 . S
H2050 C1988 0.960 . S
H2051 C1988 0.958 . S
H2052 C1989 0.961 . S
H2053 C1989 0.960 . S
H2054 C1989 0.960 . S
H2055 C1991 0.980 . S
H2056 C1990 0.961 . S
H2057 C1990 0.961 . S
H2058 C1990 0.959 . S
H2059 C1993 0.932 . S
H2060 C1997 0.929 . S
H2061 C1998 0.961 . S
H2062 C1998 0.959 . S
H2063 C1998 0.959 . S
H2064 C1999 0.960 . S
H2065 C1999 0.962 . S
H2066 C1999 0.961 . S
H2067 C2001 0.929 . S
H2068 C2004 0.930 . S
H2069 C2005 0.929 . S
H2070 C2008 0.930 . S
H2071 C2011 0.929 . S
H2072 C2012 0.930 . S
H2073 C2016 0.962 . S
H2074 C2016 0.959 . S
H2075 C2016 0.958 . S
C2076 C2077 1.560 . S
C2076 H2137 0.959 . S
C2076 H2138 0.959 . S
C2076 H2139 0.960 . S
C2077 C2076 1.560 . S
C2077 O2132 1.426 . S
C2077 H2136 0.980 . S
C2078 C2079 1.407 . S
C2078 C2083 1.418 . S
C2078 O2132 1.334 . S
C2079 C2078 1.407 . S
C2079 C2080 1.360 . S
C2079 H2140 0.929 . S
C2080 C2079 1.360 . S
C2080 C2081 1.401 . S
C2080 C2084 1.527 . S
C2081 C2080 1.401 . S
C2081 C2082 1.405 . S
C2081 C2114 1.587 . S
C2082 C2081 1.405 . S
C2082 C2083 1.332 . S
C2082 C2085 1.496 . S
C2083 C2078 1.418 . S
C2083 C2082 1.332 . S
C2083 H2141 0.929 . S
C2084 C2080 1.527 . S
C2084 H2142 0.959 . S
C2084 H2143 0.961 . S
C2084 H2144 0.961 . S
C2085 C2082 1.496 . S
C2085 H2145 0.960 . S
C2085 H2146 0.960 . S
C2085 H2147 0.961 . S
C2086 C2087 1.517 . S
C2086 H2149 0.961 . S
C2086 H2150 0.960 . S
C2086 H2151 0.959 . S
C2087 C2086 1.517 . S
C2087 O2135 1.468 . S
C2087 H2148 0.980 . S
C2088 C2089 1.349 . S
C2088 C2093 1.367 . S
C2088 O2135 1.408 . S
C2089 C2088 1.349 . S
C2089 C2090 1.407 . S
C2089 H2152 0.930 . S
C2090 C2089 1.407 . S
C2090 C2091 1.449 . S
C2090 C2094 1.535 . S
C2091 C2090 1.449 . S
C2091 C2092 1.384 . S
C2091 C2116 1.553 . S
C2092 C2091 1.384 . S
C2092 C2093 1.364 . S
C2092 C2095 1.450 . S
C2093 C2088 1.367 . S
C2093 C2092 1.364 . S
C2093 H2153 0.931 . S
C2094 C2090 1.535 . S
C2094 H2154 0.959 . S
C2094 H2155 0.961 . S
C2094 H2156 0.959 . S
C2095 C2092 1.450 . S
C2095 H2157 0.960 . S
C2095 H2158 0.960 . S
C2095 H2159 0.960 . S
C2096 C2097 1.309 . S
C2096 C2101 1.304 . S
C2096 O2134 1.435 . S
C2097 C2096 1.309 . S
C2097 C2098 1.476 . S
C2097 H2161 0.930 . S
C2098 C2097 1.476 . S
C2098 C2099 1.400 . S
C2098 C2102 1.567 . S
C2099 C2098 1.400 . S
C2099 C2100 1.373 . S
C2099 C2121 1.432 . S
C2100 C2099 1.373 . S
C2100 C2101 1.339 . S
C2100 C2103 1.530 . S
C2101 C2096 1.304 . S
C2101 C2100 1.339 . S
C2101 H2162 0.930 . S
C2102 C2098 1.567 . S
C2102 H2163 0.961 . S
C2102 H2164 0.960 . S
C2102 H2165 0.958 . S
C2103 C2100 1.530 . S
C2103 H2166 0.961 . S
C2103 H2167 0.960 . S
C2103 H2168 0.960 . S
C2104 C2105 1.530 . S
C2104 H2170 0.961 . S
C2104 H2171 0.961 . S
C2104 H2172 0.959 . S
C2105 C2104 1.530 . S
C2105 O2133 1.412 . S
C2105 H2169 0.980 . S
C2106 C2107 1.288 . S
C2106 C2111 1.377 . S
C2106 O2133 1.393 . S
C2107 C2106 1.288 . S
C2107 C2108 1.369 . S
C2107 H2173 0.932 . S
C2108 C2107 1.369 . S
C2108 C2109 1.398 . S
C2108 C2112 1.527 . S
C2109 C2108 1.398 . S
C2109 C2110 1.380 . S
C2109 C2123 1.497 . S
C2110 C2109 1.380 . S
C2110 C2111 1.383 . S
C2110 C2113 1.603 . S
C2111 C2106 1.377 . S
C2111 C2110 1.383 . S
C2111 H2174 0.929 . S
C2112 C2108 1.527 . S
C2112 H2175 0.961 . S
C2112 H2176 0.959 . S
C2112 H2177 0.959 . S
C2113 C2110 1.603 . S
C2113 H2178 0.960 . S
C2113 H2179 0.962 . S
C2113 H2180 0.961 . S
C2114 C2081 1.587 . S
C2114 C2115 1.360 . S
C2114 C2127 1.412 . S
C2115 C2114 1.360 . S
C2115 C2116 1.365 . S
C2115 H2181 0.929 . S
C2116 C2091 1.553 . S
C2116 C2115 1.365 . S
C2116 C2117 1.404 . S
C2117 C2116 1.404 . S
C2117 C2118 1.395 . S
C2117 C2128 1.451 . S
C2118 C2117 1.395 . S
C2118 C2119 1.322 . S
C2118 H2182 0.930 . S
C2119 C2118 1.322 . S
C2119 C2120 1.459 . S
C2119 H2183 0.929 . S
C2120 C2119 1.459 . S
C2120 C2121 1.445 . S
C2120 C2129 1.395 . S
C2121 C2099 1.432 . S
C2121 C2120 1.445 . S
C2121 C2122 1.370 . S
C2122 C2121 1.370 . S
C2122 C2123 1.438 . S
C2122 H2184 0.930 . S
C2123 C2109 1.497 . S
C2123 C2122 1.438 . S
C2123 C2124 1.360 . S
C2124 C2123 1.360 . S
C2124 C2125 1.401 . S
C2124 C2129 1.446 . S
C2125 C2124 1.401 . S
C2125 C2126 1.347 . S
C2125 H2185 0.929 . S
C2126 C2125 1.347 . S
C2126 C2127 1.455 . S
C2126 H2186 0.930 . S
C2127 C2114 1.412 . S
C2127 C2126 1.455 . S
C2127 C2128 1.331 . S
C2128 C2117 1.451 . S
C2128 C2127 1.331 . S
C2128 C2129 1.497 . S
C2129 C2120 1.395 . S
C2129 C2124 1.446 . S
C2129 C2128 1.497 . S
C2130 C2131 1.582 . S
C2130 H2187 0.962 . S
C2130 H2188 0.959 . S
C2130 H2189 0.958 . S
C2131 C2130 1.582 . S
C2131 O2134 1.458 . S
C2131 H2160 0.980 . S
O2132 C2077 1.426 . S
O2132 C2078 1.334 . S
O2133 C2105 1.412 . S
O2133 C2106 1.393 . S
O2134 C2096 1.435 . S
O2134 C2131 1.458 . S
O2135 C2087 1.468 . S
O2135 C2088 1.408 . S
H2136 C2077 0.980 . S
H2137 C2076 0.959 . S
H2138 C2076 0.959 . S
H2139 C2076 0.960 . S
H2140 C2079 0.929 . S
H2141 C2083 0.929 . S
H2142 C2084 0.959 . S
H2143 C2084 0.961 . S
H2144 C2084 0.961 . S
H2145 C2085 0.960 . S
H2146 C2085 0.960 . S
H2147 C2085 0.961 . S
H2148 C2087 0.980 . S
H2149 C2086 0.961 . S
H2150 C2086 0.960 . S
H2151 C2086 0.959 . S
H2152 C2089 0.930 . S
H2153 C2093 0.931 . S
H2154 C2094 0.959 . S
H2155 C2094 0.961 . S
H2156 C2094 0.959 . S
H2157 C2095 0.960 . S
H2158 C2095 0.960 . S
H2159 C2095 0.960 . S
H2160 C2131 0.980 . S
H2161 C2097 0.930 . S
H2162 C2101 0.930 . S
H2163 C2102 0.961 . S
H2164 C2102 0.960 . S
H2165 C2102 0.958 . S
H2166 C2103 0.961 . S
H2167 C2103 0.960 . S
H2168 C2103 0.960 . S
H2169 C2105 0.980 . S
H2170 C2104 0.961 . S
H2171 C2104 0.961 . S
H2172 C2104 0.959 . S
H2173 C2107 0.932 . S
H2174 C2111 0.929 . S
H2175 C2112 0.961 . S
H2176 C2112 0.959 . S
H2177 C2112 0.959 . S
H2178 C2113 0.960 . S
H2179 C2113 0.962 . S
H2180 C2113 0.961 . S
H2181 C2115 0.929 . S
H2182 C2118 0.930 . S
H2183 C2119 0.929 . S
H2184 C2122 0.930 . S
H2185 C2125 0.929 . S
H2186 C2126 0.930 . S
H2187 C2130 0.962 . S
H2188 C2130 0.959 . S
H2189 C2130 0.958 . S
C2190 C2191 1.560 . S
C2190 H2251 0.959 . S
C2190 H2252 0.959 . S
C2190 H2253 0.960 . S
C2191 C2190 1.560 . S
C2191 O2246 1.426 . S
C2191 H2250 0.980 . S
C2192 C2193 1.407 . S
C2192 C2197 1.418 . S
C2192 O2246 1.334 . S
C2193 C2192 1.407 . S
C2193 C2194 1.360 . S
C2193 H2254 0.929 . S
C2194 C2193 1.360 . S
C2194 C2195 1.401 . S
C2194 C2198 1.527 . S
C2195 C2194 1.401 . S
C2195 C2196 1.405 . S
C2195 C2228 1.587 . S
C2196 C2195 1.405 . S
C2196 C2197 1.332 . S
C2196 C2199 1.496 . S
C2197 C2192 1.418 . S
C2197 C2196 1.332 . S
C2197 H2255 0.929 . S
C2198 C2194 1.527 . S
C2198 H2256 0.959 . S
C2198 H2257 0.961 . S
C2198 H2258 0.961 . S
C2199 C2196 1.496 . S
C2199 H2259 0.960 . S
C2199 H2260 0.960 . S
C2199 H2261 0.961 . S
C2200 C2201 1.517 . S
C2200 H2263 0.961 . S
C2200 H2264 0.960 . S
C2200 H2265 0.959 . S
C2201 C2200 1.517 . S
C2201 O2249 1.468 . S
C2201 H2262 0.980 . S
C2202 C2203 1.349 . S
C2202 C2207 1.367 . S
C2202 O2249 1.408 . S
C2203 C2202 1.349 . S
C2203 C2204 1.407 . S
C2203 H2266 0.930 . S
C2204 C2203 1.407 . S
C2204 C2205 1.449 . S
C2204 C2208 1.535 . S
C2205 C2204 1.449 . S
C2205 C2206 1.384 . S
C2205 C2230 1.553 . S
C2206 C2205 1.384 . S
C2206 C2207 1.364 . S
C2206 C2209 1.450 . S
C2207 C2202 1.367 . S
C2207 C2206 1.364 . S
C2207 H2267 0.931 . S
C2208 C2204 1.535 . S
C2208 H2268 0.959 . S
C2208 H2269 0.961 . S
C2208 H2270 0.959 . S
C2209 C2206 1.450 . S
C2209 H2271 0.960 . S
C2209 H2272 0.960 . S
C2209 H2273 0.960 . S
C2210 C2211 1.309 . S
C2210 C2215 1.304 . S
C2210 O2248 1.435 . S
C2211 C2210 1.309 . S
C2211 C2212 1.476 . S
C2211 H2275 0.930 . S
C2212 C2211 1.476 . S
C2212 C2213 1.400 . S
C2212 C2216 1.567 . S
C2213 C2212 1.400 . S
C2213 C2214 1.373 . S
C2213 C2235 1.432 . S
C2214 C2213 1.373 . S
C2214 C2215 1.339 . S
C2214 C2217 1.530 . S
C2215 C2210 1.304 . S
C2215 C2214 1.339 . S
C2215 H2276 0.930 . S
C2216 C2212 1.567 . S
C2216 H2277 0.961 . S
C2216 H2278 0.960 . S
C2216 H2279 0.958 . S
C2217 C2214 1.530 . S
C2217 H2280 0.961 . S
C2217 H2281 0.960 . S
C2217 H2282 0.960 . S
C2218 C2219 1.530 . S
C2218 H2284 0.961 . S
C2218 H2285 0.961 . S
C2218 H2286 0.959 . S
C2219 C2218 1.530 . S
C2219 O2247 1.412 . S
C2219 H2283 0.980 . S
C2220 C2221 1.288 . S
C2220 C2225 1.377 . S
C2220 O2247 1.393 . S
C2221 C2220 1.288 . S
C2221 C2222 1.369 . S
C2221 H2287 0.932 . S
C2222 C2221 1.369 . S
C2222 C2223 1.398 . S
C2222 C2226 1.527 . S
C2223 C2222 1.398 . S
C2223 C2224 1.380 . S
C2223 C2237 1.497 . S
C2224 C2223 1.380 . S
C2224 C2225 1.383 . S
C2224 C2227 1.603 . S
C2225 C2220 1.377 . S
C2225 C2224 1.383 . S
C2225 H2288 0.929 . S
C2226 C2222 1.527 . S
C2226 H2289 0.961 . S
C2226 H2290 0.959 . S
C2226 H2291 0.959 . S
C2227 C2224 1.603 . S
C2227 H2292 0.960 . S
C2227 H2293 0.962 . S
C2227 H2294 0.961 . S
C2228 C2195 1.587 . S
C2228 C2229 1.360 . S
C2228 C2241 1.412 . S
C2229 C2228 1.360 . S
C2229 C2230 1.365 . S
C2229 H2295 0.929 . S
C2230 C2205 1.553 . S
C2230 C2229 1.365 . S
C2230 C2231 1.404 . S
C2231 C2230 1.404 . S
C2231 C2232 1.395 . S
C2231 C2242 1.451 . S
C2232 C2231 1.395 . S
C2232 C2233 1.322 . S
C2232 H2296 0.930 . S
C2233 C2232 1.322 . S
C2233 C2234 1.459 . S
C2233 H2297 0.929 . S
C2234 C2233 1.459 . S
C2234 C2235 1.445 . S
C2234 C2243 1.395 . S
C2235 C2213 1.432 . S
C2235 C2234 1.445 . S
C2235 C2236 1.370 . S
C2236 C2235 1.370 . S
C2236 C2237 1.438 . S
C2236 H2298 0.930 . S
C2237 C2223 1.497 . S
C2237 C2236 1.438 . S
C2237 C2238 1.360 . S
C2238 C2237 1.360 . S
C2238 C2239 1.401 . S
C2238 C2243 1.446 . S
C2239 C2238 1.401 . S
C2239 C2240 1.347 . S
C2239 H2299 0.929 . S
C2240 C2239 1.347 . S
C2240 C2241 1.455 . S
C2240 H2300 0.930 . S
C2241 C2228 1.412 . S
C2241 C2240 1.455 . S
C2241 C2242 1.331 . S
C2242 C2231 1.451 . S
C2242 C2241 1.331 . S
C2242 C2243 1.497 . S
C2243 C2234 1.395 . S
C2243 C2238 1.446 . S
C2243 C2242 1.497 . S
C2244 C2245 1.582 . S
C2244 H2301 0.962 . S
C2244 H2302 0.959 . S
C2244 H2303 0.958 . S
C2245 C2244 1.582 . S
C2245 O2248 1.458 . S
C2245 H2274 0.980 . S
O2246 C2191 1.426 . S
O2246 C2192 1.334 . S
O2247 C2219 1.412 . S
O2247 C2220 1.393 . S
O2248 C2210 1.435 . S
O2248 C2245 1.458 . S
O2249 C2201 1.468 . S
O2249 C2202 1.408 . S
H2250 C2191 0.980 . S
H2251 C2190 0.959 . S
H2252 C2190 0.959 . S
H2253 C2190 0.960 . S
H2254 C2193 0.929 . S
H2255 C2197 0.929 . S
H2256 C2198 0.959 . S
H2257 C2198 0.961 . S
H2258 C2198 0.961 . S
H2259 C2199 0.960 . S
H2260 C2199 0.960 . S
H2261 C2199 0.961 . S
H2262 C2201 0.980 . S
H2263 C2200 0.961 . S
H2264 C2200 0.960 . S
H2265 C2200 0.959 . S
H2266 C2203 0.930 . S
H2267 C2207 0.931 . S
H2268 C2208 0.959 . S
H2269 C2208 0.961 . S
H2270 C2208 0.959 . S
H2271 C2209 0.960 . S
H2272 C2209 0.960 . S
H2273 C2209 0.960 . S
H2274 C2245 0.980 . S
H2275 C2211 0.930 . S
H2276 C2215 0.930 . S
H2277 C2216 0.961 . S
H2278 C2216 0.960 . S
H2279 C2216 0.958 . S
H2280 C2217 0.961 . S
H2281 C2217 0.960 . S
H2282 C2217 0.960 . S
H2283 C2219 0.980 . S
H2284 C2218 0.961 . S
H2285 C2218 0.961 . S
H2286 C2218 0.959 . S
H2287 C2221 0.932 . S
H2288 C2225 0.929 . S
H2289 C2226 0.961 . S
H2290 C2226 0.959 . S
H2291 C2226 0.959 . S
H2292 C2227 0.960 . S
H2293 C2227 0.962 . S
H2294 C2227 0.961 . S
H2295 C2229 0.929 . S
H2296 C2232 0.930 . S
H2297 C2233 0.929 . S
H2298 C2236 0.930 . S
H2299 C2239 0.929 . S
H2300 C2240 0.930 . S
H2301 C2244 0.962 . S
H2302 C2244 0.959 . S
H2303 C2244 0.958 . S
C2304 C2305 1.408 . S
C2304 C2306 1.394 . S
C2304 H2320 0.931 . S
C2305 C2304 1.408 . S
C2305 C2309 1.370 1_655 S
C2306 C2304 1.394 . S
C2306 C2307 1.369 . S
C2306 C2310 1.531 . S
C2307 C2306 1.369 . S
C2307 C2308 1.410 1_655 S
C2307 C2315 1.503 . S
C2308 C2307 1.410 1_455 S
C2308 C2309 1.392 . S
C2308 C2311 1.511 . S
C2309 C2305 1.370 1_455 S
C2309 C2308 1.392 . S
C2309 H2321 0.929 . S
C2310 C2306 1.531 . S
C2310 H2322 0.960 . S
C2310 H2323 0.962 . S
C2310 H2324 0.960 . S
C2311 C2308 1.511 . S
C2311 H2325 0.961 . S
C2311 H2326 0.961 . S
C2311 H2327 0.961 . S
C2312 C2313 1.370 . S
C2312 C2314 1.363 . S
C2312 H2328 0.931 . S
C2313 C2312 1.370 . S
C2313 C2317 1.408 1_655 S
C2314 C2312 1.363 . S
C2314 C2315 1.370 . S
C2314 C2318 1.524 . S
C2315 C2307 1.503 . S
C2315 C2314 1.370 . S
C2315 C2316 1.403 1_655 S
C2316 C2315 1.403 1_455 S
C2316 C2317 1.404 . S
C2316 C2319 1.539 . S
C2317 C2313 1.408 1_455 S
C2317 C2316 1.404 . S
C2317 H2329 0.930 . S
C2318 C2314 1.524 . S
C2318 H2330 0.956 . S
C2318 H2331 0.961 . S
C2318 H2332 0.961 . S
C2319 C2316 1.539 . S
C2319 H2333 0.958 . S
C2319 H2334 0.961 . S
C2319 H2335 0.960 . S
H2320 C2304 0.931 . S
H2321 C2309 0.929 . S
H2322 C2310 0.960 . S
H2323 C2310 0.962 . S
H2324 C2310 0.960 . S
H2325 C2311 0.961 . S
H2326 C2311 0.961 . S
H2327 C2311 0.961 . S
H2328 C2312 0.931 . S
H2329 C2317 0.930 . S
H2330 C2318 0.956 . S
H2331 C2318 0.961 . S
H2332 C2318 0.961 . S
H2333 C2319 0.958 . S
H2334 C2319 0.961 . S
H2335 C2319 0.960 . S
C2336 C2337 1.391 . S
C2336 C2338 1.394 . S
C2336 H2352 0.931 . S
C2337 C2336 1.391 . S
C2337 C2341 1.376 . S
C2338 C2336 1.394 . S
C2338 C2339 1.369 . S
C2338 C2342 1.531 . S
C2339 C2338 1.369 . S
C2339 C2340 1.410 . S
C2339 C2347 1.503 . S
C2340 C2339 1.410 . S
C2340 C2341 1.392 . S
C2340 C2343 1.511 . S
C2341 C2337 1.376 . S
C2341 C2340 1.392 . S
C2341 H2353 0.929 . S
C2342 C2338 1.531 . S
C2342 H2354 0.960 . S
C2342 H2355 0.962 . S
C2342 H2356 0.960 . S
C2343 C2340 1.511 . S
C2343 H2357 0.961 . S
C2343 H2358 0.961 . S
C2343 H2359 0.961 . S
C2344 C2345 1.370 . S
C2344 C2346 1.363 . S
C2344 H2360 0.931 . S
C2345 C2344 1.370 . S
C2345 C2349 1.408 . S
C2346 C2344 1.363 . S
C2346 C2347 1.370 . S
C2346 C2350 1.524 . S
C2347 C2339 1.503 . S
C2347 C2346 1.370 . S
C2347 C2348 1.403 . S
C2348 C2347 1.403 . S
C2348 C2349 1.404 . S
C2348 C2351 1.539 . S
C2349 C2345 1.408 . S
C2349 C2348 1.404 . S
C2349 H2361 0.930 . S
C2350 C2346 1.524 . S
C2350 H2362 0.956 . S
C2350 H2363 0.961 . S
C2350 H2364 0.961 . S
C2351 C2348 1.539 . S
C2351 H2365 0.958 . S
C2351 H2366 0.961 . S
C2351 H2367 0.960 . S
H2352 C2336 0.931 . S
H2353 C2341 0.929 . S
H2354 C2342 0.960 . S
H2355 C2342 0.962 . S
H2356 C2342 0.960 . S
H2357 C2343 0.961 . S
H2358 C2343 0.961 . S
H2359 C2343 0.961 . S
H2360 C2344 0.931 . S
H2361 C2349 0.930 . S
H2362 C2350 0.956 . S
H2363 C2350 0.961 . S
H2364 C2350 0.961 . S
H2365 C2351 0.958 . S
H2366 C2351 0.961 . S
H2367 C2351 0.960 . S
C2368 C2369 1.391 . S
C2368 C2370 1.394 . S
C2368 H2384 0.931 . S
C2369 C2368 1.391 . S
C2369 C2373 1.376 . S
C2370 C2368 1.394 . S
C2370 C2371 1.369 . S
C2370 C2374 1.531 . S
C2371 C2370 1.369 . S
C2371 C2372 1.410 . S
C2371 C2379 1.503 . S
C2372 C2371 1.410 . S
C2372 C2373 1.392 . S
C2372 C2375 1.468 1_545 S
C2373 C2369 1.376 . S
C2373 C2372 1.392 . S
C2373 H2385 0.929 . S
C2374 C2370 1.531 . S
C2374 H2386 0.960 . S
C2374 H2387 0.962 . S
C2374 H2388 0.960 . S
C2375 C2372 1.468 1_565 S
C2375 H2389 0.949 1_565 S
C2375 H2390 0.963 1_565 S
C2375 H2391 1.018 . S
C2376 C2377 1.370 . S
C2376 C2378 1.363 . S
C2376 H2392 0.931 . S
C2377 C2376 1.370 . S
C2377 C2381 1.408 1_545 S
C2378 C2376 1.363 . S
C2378 C2379 1.370 . S
C2378 C2382 1.524 . S
C2379 C2371 1.503 . S
C2379 C2378 1.370 . S
C2379 C2380 1.403 1_545 S
C2380 C2379 1.403 1_565 S
C2380 C2381 1.404 . S
C2380 C2383 1.539 . S
C2381 C2377 1.408 1_565 S
C2381 C2380 1.404 . S
C2381 H2393 0.930 . S
C2382 C2378 1.524 . S
C2382 H2394 0.956 . S
C2382 H2395 0.961 . S
C2382 H2396 0.961 . S
C2383 C2380 1.539 . S
C2383 H2397 0.958 . S
C2383 H2398 0.961 . S
C2383 H2399 0.960 . S
H2384 C2368 0.931 . S
H2385 C2373 0.929 . S
H2386 C2374 0.960 . S
H2387 C2374 0.962 . S
H2388 C2374 0.960 . S
H2389 C2375 0.949 1_545 S
H2390 C2375 0.963 1_545 S
H2391 C2375 1.018 . S
H2392 C2376 0.931 . S
H2393 C2381 0.930 . S
H2394 C2382 0.956 . S
H2395 C2382 0.961 . S
H2396 C2382 0.961 . S
H2397 C2383 0.958 . S
H2398 C2383 0.961 . S
H2399 C2383 0.960 . S
C2400 C2401 1.385 . S
C2400 C2402 1.394 . S
C2400 H2416 0.931 . S
C2401 C2400 1.385 . S
C2401 C2405 1.403 1_565 S
C2402 C2400 1.394 . S
C2402 C2403 1.372 1_565 S
C2402 C2406 1.531 . S
C2403 C2402 1.372 1_545 S
C2403 C2404 1.409 . S
C2403 C2411 1.500 1_545 S
C2404 C2403 1.409 . S
C2404 C2405 1.392 . S
C2404 C2407 1.511 . S
C2405 C2401 1.403 1_545 S
C2405 C2404 1.392 . S
C2405 H2417 0.929 . S
C2406 C2402 1.531 . S
C2406 H2418 0.960 1_565 S
C2406 H2419 0.962 . S
C2406 H2420 0.960 1_565 S
C2407 C2404 1.511 . S
C2407 H2421 0.949 1_545 S
C2407 H2422 0.961 1_545 S
C2407 H2423 0.961 . S
C2408 C2409 1.370 . S
C2408 C2410 1.363 . S
C2408 H2424 0.931 . S
C2409 C2408 1.370 . S
C2409 C2413 1.408 1_565 S
C2410 C2408 1.363 . S
C2410 C2411 1.370 . S
C2410 C2414 1.524 . S
C2411 C2403 1.500 1_565 S
C2411 C2410 1.370 . S
C2411 C2412 1.403 1_565 S
C2412 C2411 1.403 1_545 S
C2412 C2413 1.404 . S
C2412 C2415 1.539 . S
C2413 C2409 1.408 1_545 S
C2413 C2412 1.404 . S
C2413 H2425 0.930 . S
C2414 C2410 1.524 . S
C2414 H2426 0.956 . S
C2414 H2427 0.961 . S
C2414 H2428 0.961 . S
C2415 C2412 1.539 . S
C2415 H2429 0.958 . S
C2415 H2430 0.961 . S
C2415 H2431 0.960 . S
H2416 C2400 0.931 . S
H2417 C2405 0.929 . S
H2418 C2406 0.960 1_545 S
H2419 C2406 0.962 . S
H2420 C2406 0.960 1_545 S
H2421 C2407 0.949 1_565 S
H2422 C2407 0.961 1_565 S
H2423 C2407 0.961 . S
H2424 C2408 0.931 . S
H2425 C2413 0.930 . S
H2426 C2414 0.956 . S
H2427 C2414 0.961 . S
H2428 C2414 0.961 . S
H2429 C2415 0.958 . S
H2430 C2415 0.961 . S
H2431 C2415 0.960 . S
C2432 C2433 1.391 . S
C2432 C2434 1.394 . S
C2432 H2448 0.931 . S
C2433 C2432 1.391 . S
C2433 C2437 1.376 . S
C2434 C2432 1.394 . S
C2434 C2435 1.369 . S
C2434 C2438 1.531 . S
C2435 C2434 1.369 . S
C2435 C2436 1.410 . S
C2435 C2443 1.503 . S
C2436 C2435 1.410 . S
C2436 C2437 1.392 . S
C2436 C2439 1.511 . S
C2437 C2433 1.376 . S
C2437 C2436 1.392 . S
C2437 H2449 0.929 . S
C2438 C2434 1.531 . S
C2438 H2450 0.960 1_455 S
C2438 H2451 0.962 . S
C2438 H2452 0.960 . S
C2439 C2436 1.511 . S
C2439 H2453 0.961 . S
C2439 H2454 0.961 . S
C2439 H2455 0.961 1_455 S
C2440 C2441 1.370 . S
C2440 C2442 1.363 . S
C2440 H2456 0.931 . S
C2441 C2440 1.370 . S
C2441 C2445 1.408 1_455 S
C2442 C2440 1.363 . S
C2442 C2443 1.370 . S
C2442 C2446 1.524 . S
C2443 C2435 1.503 . S
C2443 C2442 1.370 . S
C2443 C2444 1.403 1_455 S
C2444 C2443 1.403 1_655 S
C2444 C2445 1.404 . S
C2444 C2447 1.539 . S
C2445 C2441 1.408 1_655 S
C2445 C2444 1.404 . S
C2445 H2457 0.930 . S
C2446 C2442 1.524 . S
C2446 H2458 0.956 . S
C2446 H2459 0.961 . S
C2446 H2460 0.961 . S
C2447 C2444 1.539 . S
C2447 H2461 0.958 . S
C2447 H2462 0.961 . S
C2447 H2463 0.960 . S
H2448 C2432 0.931 . S
H2449 C2437 0.929 . S
H2450 C2438 0.960 1_655 S
H2451 C2438 0.962 . S
H2452 C2438 0.960 . S
H2453 C2439 0.961 . S
H2454 C2439 0.961 . S
H2455 C2439 0.961 1_655 S
H2456 C2440 0.931 . S
H2457 C2445 0.930 . S
H2458 C2446 0.956 . S
H2459 C2446 0.961 . S
H2460 C2446 0.961 . S
H2461 C2447 0.958 . S
H2462 C2447 0.961 . S
H2463 C2447 0.960 . S
C2464 C2465 1.391 . S
C2464 C2466 1.394 . S
C2464 H2480 0.931 . S
C2465 C2464 1.391 . S
C2465 C2469 1.376 . S
C2466 C2464 1.394 . S
C2466 C2467 1.369 . S
C2466 C2470 1.531 . S
C2467 C2466 1.369 . S
C2467 C2468 1.410 . S
C2467 C2475 1.503 . S
C2468 C2467 1.410 . S
C2468 C2469 1.392 . S
C2468 C2471 1.511 . S
C2469 C2465 1.376 . S
C2469 C2468 1.392 . S
C2469 H2481 0.929 . S
C2470 C2466 1.531 . S
C2470 H2482 0.960 . S
C2470 H2483 0.962 . S
C2470 H2484 0.960 . S
C2471 C2468 1.511 . S
C2471 H2485 0.961 . S
C2471 H2486 0.961 . S
C2471 H2487 0.961 . S
C2472 C2473 1.370 . S
C2472 C2474 1.363 . S
C2472 H2488 0.931 . S
C2473 C2472 1.370 . S
C2473 C2477 1.408 . S
C2474 C2472 1.363 . S
C2474 C2475 1.370 . S
C2474 C2478 1.524 . S
C2475 C2467 1.503 . S
C2475 C2474 1.370 . S
C2475 C2476 1.403 . S
C2476 C2475 1.403 . S
C2476 C2477 1.404 . S
C2476 C2479 1.539 . S
C2477 C2473 1.408 . S
C2477 C2476 1.404 . S
C2477 H2489 0.930 . S
C2478 C2474 1.524 . S
C2478 H2490 0.956 . S
C2478 H2491 0.961 . S
C2478 H2492 0.961 . S
C2479 C2476 1.539 . S
C2479 H2493 0.958 . S
C2479 H2494 0.961 . S
C2479 H2495 0.960 . S
H2480 C2464 0.931 . S
H2481 C2469 0.929 . S
H2482 C2470 0.960 . S
H2483 C2470 0.962 . S
H2484 C2470 0.960 . S
H2485 C2471 0.961 . S
H2486 C2471 0.961 . S
H2487 C2471 0.961 . S
H2488 C2472 0.931 . S
H2489 C2477 0.930 . S
H2490 C2478 0.956 . S
H2491 C2478 0.961 . S
H2492 C2478 0.961 . S
H2493 C2479 0.958 . S
H2494 C2479 0.961 . S
H2495 C2479 0.960 . S
C2496 C2497 1.391 . S
C2496 C2498 1.394 . S
C2496 H2512 0.931 . S
C2497 C2496 1.391 . S
C2497 C2501 1.376 . S
C2498 C2496 1.394 . S
C2498 C2499 1.381 . S
C2498 C2502 1.531 . S
C2499 C2498 1.381 . S
C2499 C2500 1.410 . S
C2499 C2507 1.511 . S
C2500 C2499 1.410 . S
C2500 C2501 1.378 . S
C2500 C2503 1.499 1_455 S
C2501 C2497 1.376 . S
C2501 C2500 1.378 . S
C2501 H2513 0.929 . S
C2502 C2498 1.531 . S
C2502 H2514 0.960 1_455 S
C2502 H2515 0.962 . S
C2502 H2516 0.960 1_455 S
C2503 C2500 1.499 1_655 S
C2503 H2517 0.961 1_655 S
C2503 H2518 0.961 1_655 S
C2503 H2519 0.961 . S
C2504 C2505 1.384 . S
C2504 C2506 1.363 . S
C2504 H2520 0.931 . S
C2505 C2504 1.384 . S
C2505 C2509 1.384 1_455 S
C2506 C2504 1.363 . S
C2506 C2507 1.409 . S
C2506 C2510 1.524 . S
C2507 C2499 1.511 . S
C2507 C2506 1.409 . S
C2507 C2508 1.380 1_455 S
C2508 C2507 1.380 1_655 S
C2508 C2509 1.404 . S
C2508 C2511 1.539 . S
C2509 C2505 1.384 1_655 S
C2509 C2508 1.404 . S
C2509 H2521 0.930 . S
C2510 C2506 1.524 . S
C2510 H2522 0.956 . S
C2510 H2523 0.961 . S
C2510 H2524 0.961 . S
C2511 C2508 1.539 . S
C2511 H2525 0.958 . S
C2511 H2526 0.961 . S
C2511 H2527 0.960 . S
H2512 C2496 0.931 . S
H2513 C2501 0.929 . S
H2514 C2502 0.960 1_655 S
H2515 C2502 0.962 . S
H2516 C2502 0.960 1_655 S
H2517 C2503 0.961 1_455 S
H2518 C2503 0.961 1_455 S
H2519 C2503 0.961 . S
H2520 C2504 0.931 . S
H2521 C2509 0.930 . S
H2522 C2510 0.956 . S
H2523 C2510 0.961 . S
H2524 C2510 0.961 . S
H2525 C2511 0.958 . S
H2526 C2511 0.961 . S
H2527 C2511 0.960 . S
C2528 C2529 1.391 . S
C2528 C2530 1.394 . S
C2528 H2544 0.931 . S
C2529 C2528 1.391 . S
C2529 C2533 1.376 . S
C2530 C2528 1.394 . S
C2530 C2531 1.369 . S
C2530 C2534 1.531 . S
C2531 C2530 1.369 . S
C2531 C2532 1.410 . S
C2531 C2539 1.503 . S
C2532 C2531 1.410 . S
C2532 C2533 1.392 . S
C2532 C2535 1.511 . S
C2533 C2529 1.376 . S
C2533 C2532 1.392 . S
C2533 H2545 0.929 . S
C2534 C2530 1.531 . S
C2534 H2546 0.960 . S
C2534 H2547 0.962 . S
C2534 H2548 0.960 . S
C2535 C2532 1.511 . S
C2535 H2549 0.961 . S
C2535 H2550 0.961 . S
C2535 H2551 0.961 . S
C2536 C2537 1.370 . S
C2536 C2538 1.363 . S
C2536 H2552 0.931 . S
C2537 C2536 1.370 . S
C2537 C2541 1.408 . S
C2538 C2536 1.363 . S
C2538 C2539 1.370 . S
C2538 C2542 1.524 . S
C2539 C2531 1.503 . S
C2539 C2538 1.370 . S
C2539 C2540 1.403 . S
C2540 C2539 1.403 . S
C2540 C2541 1.404 . S
C2540 C2543 1.539 . S
C2541 C2537 1.408 . S
C2541 C2540 1.404 . S
C2541 H2553 0.930 . S
C2542 C2538 1.524 . S
C2542 H2554 0.956 . S
C2542 H2555 0.961 . S
C2542 H2556 0.961 . S
C2543 C2540 1.539 . S
C2543 H2557 0.958 . S
C2543 H2558 0.961 . S
C2543 H2559 0.960 . S
H2544 C2528 0.931 . S
H2545 C2533 0.929 . S
H2546 C2534 0.960 . S
H2547 C2534 0.962 . S
H2548 C2534 0.960 . S
H2549 C2535 0.961 . S
H2550 C2535 0.961 . S
H2551 C2535 0.961 . S
H2552 C2536 0.931 . S
H2553 C2541 0.930 . S
H2554 C2542 0.956 . S
H2555 C2542 0.961 . S
H2556 C2542 0.961 . S
H2557 C2543 0.958 . S
H2558 C2543 0.961 . S
H2559 C2543 0.960 . S
C2560 C2561 1.391 . S
C2560 C2562 1.394 . S
C2560 H2576 0.946 1_565 S
C2561 C2560 1.391 . S
C2561 C2565 1.376 . S
C2562 C2560 1.394 . S
C2562 C2563 1.369 . S
C2562 C2566 1.531 1_565 S
C2563 C2562 1.369 . S
C2563 C2564 1.410 . S
C2563 C2571 1.503 . S
C2564 C2563 1.410 . S
C2564 C2565 1.392 . S
C2564 C2567 1.511 . S
C2565 C2561 1.376 . S
C2565 C2564 1.392 . S
C2565 H2577 0.929 . S
C2566 C2562 1.531 1_545 S
C2566 H2578 0.960 1_545 S
C2566 H2579 0.962 . S
C2566 H2580 0.963 . S
C2567 C2564 1.511 . S
C2567 H2581 0.961 . S
C2567 H2582 0.961 . S
C2567 H2583 0.961 . S
C2568 C2569 1.370 1_545 S
C2568 C2570 1.363 . S
C2568 H2584 0.931 . S
C2569 C2568 1.370 1_565 S
C2569 C2573 1.408 . S
C2570 C2568 1.363 . S
C2570 C2571 1.370 1_545 S
C2570 C2574 1.524 . S
C2571 C2563 1.503 . S
C2571 C2570 1.370 1_565 S
C2571 C2572 1.403 . S
C2572 C2571 1.403 . S
C2572 C2573 1.404 . S
C2572 C2575 1.539 . S
C2573 C2569 1.408 . S
C2573 C2572 1.404 . S
C2573 H2585 0.930 . S
C2574 C2570 1.524 . S
C2574 H2586 0.956 . S
C2574 H2587 0.961 . S
C2574 H2588 0.961 . S
C2575 C2572 1.539 . S
C2575 H2589 0.958 . S
C2575 H2590 0.961 . S
C2575 H2591 0.960 . S
H2576 C2560 0.946 1_545 S
H2577 C2565 0.929 . S
H2578 C2566 0.960 1_565 S
H2579 C2566 0.962 . S
H2580 C2566 0.963 . S
H2581 C2567 0.961 . S
H2582 C2567 0.961 . S
H2583 C2567 0.961 . S
H2584 C2568 0.931 . S
H2585 C2573 0.930 . S
H2586 C2574 0.956 . S
H2587 C2574 0.961 . S
H2588 C2574 0.961 . S
H2589 C2575 0.958 . S
H2590 C2575 0.961 . S
H2591 C2575 0.960 . S
C2592 C2593 1.391 . S
C2592 C2594 1.394 . S
C2592 H2608 0.931 . S
C2593 C2592 1.391 . S
C2593 C2597 1.376 . S
C2594 C2592 1.394 . S
C2594 C2595 1.369 . S
C2594 C2598 1.531 . S
C2595 C2594 1.369 . S
C2595 C2596 1.410 . S
C2595 C2603 1.503 . S
C2596 C2595 1.410 . S
C2596 C2597 1.392 . S
C2596 C2599 1.511 1_545 S
C2597 C2593 1.376 . S
C2597 C2596 1.392 . S
C2597 H2609 0.919 1_545 S
C2598 C2594 1.531 . S
C2598 H2610 0.960 . S
C2598 H2611 0.962 . S
C2598 H2612 0.960 . S
C2599 C2596 1.511 1_565 S
C2599 H2613 0.961 . S
C2599 H2614 0.961 . S
C2599 H2615 0.961 1_565 S
C2600 C2601 1.370 1_565 S
C2600 C2602 1.363 . S
C2600 H2616 0.931 . S
C2601 C2600 1.370 1_545 S
C2601 C2605 1.408 . S
C2602 C2600 1.363 . S
C2602 C2603 1.370 1_565 S
C2602 C2606 1.524 . S
C2603 C2595 1.503 . S
C2603 C2602 1.370 1_545 S
C2603 C2604 1.403 . S
C2604 C2603 1.403 . S
C2604 C2605 1.404 . S
C2604 C2607 1.539 . S
C2605 C2601 1.408 . S
C2605 C2604 1.404 . S
C2605 H2617 0.930 . S
C2606 C2602 1.524 . S
C2606 H2618 0.956 . S
C2606 H2619 0.961 . S
C2606 H2620 0.961 . S
C2607 C2604 1.539 . S
C2607 H2621 0.958 . S
C2607 H2622 0.961 . S
C2607 H2623 0.960 . S
H2608 C2592 0.931 . S
H2609 C2597 0.919 1_565 S
H2610 C2598 0.960 . S
H2611 C2598 0.962 . S
H2612 C2598 0.960 . S
H2613 C2599 0.961 . S
H2614 C2599 0.961 . S
H2615 C2599 0.961 1_545 S
H2616 C2600 0.931 . S
H2617 C2605 0.930 . S
H2618 C2606 0.956 . S
H2619 C2606 0.961 . S
H2620 C2606 0.961 . S
H2621 C2607 0.958 . S
H2622 C2607 0.961 . S
H2623 C2607 0.960 . S
C2624 C2625 1.391 1_455 S
C2624 C2626 1.394 . S
C2624 H2640 0.931 . S
C2625 C2624 1.391 1_655 S
C2625 C2629 1.376 . S
C2626 C2624 1.394 . S
C2626 C2627 1.369 1_455 S
C2626 C2630 1.531 . S
C2627 C2626 1.369 1_655 S
C2627 C2628 1.410 . S
C2627 C2635 1.503 . S
C2628 C2627 1.410 . S
C2628 C2629 1.392 . S
C2628 C2631 1.511 . S
C2629 C2625 1.376 . S
C2629 C2628 1.392 . S
C2629 H2641 0.929 . S
C2630 C2626 1.531 . S
C2630 H2642 0.960 . S
C2630 H2643 0.962 . S
C2630 H2644 0.960 . S
C2631 C2628 1.511 . S
C2631 H2645 0.961 . S
C2631 H2646 0.961 . S
C2631 H2647 0.961 . S
C2632 C2633 1.370 . S
C2632 C2634 1.363 . S
C2632 H2648 0.931 . S
C2633 C2632 1.370 . S
C2633 C2637 1.408 1_655 S
C2634 C2632 1.363 . S
C2634 C2635 1.370 . S
C2634 C2638 1.524 . S
C2635 C2627 1.503 . S
C2635 C2634 1.370 . S
C2635 C2636 1.403 1_655 S
C2636 C2635 1.403 1_455 S
C2636 C2637 1.404 . S
C2636 C2639 1.539 . S
C2637 C2633 1.408 1_455 S
C2637 C2636 1.404 . S
C2637 H2649 0.930 . S
C2638 C2634 1.524 . S
C2638 H2650 0.956 . S
C2638 H2651 0.961 . S
C2638 H2652 0.961 . S
C2639 C2636 1.539 . S
C2639 H2653 0.958 . S
C2639 H2654 0.961 . S
C2639 H2655 0.960 . S
H2640 C2624 0.931 . S
H2641 C2629 0.929 . S
H2642 C2630 0.960 . S
H2643 C2630 0.962 . S
H2644 C2630 0.960 . S
H2645 C2631 0.961 . S
H2646 C2631 0.961 . S
H2647 C2631 0.961 . S
H2648 C2632 0.931 . S
H2649 C2637 0.930 . S
H2650 C2638 0.956 . S
H2651 C2638 0.961 . S
H2652 C2638 0.961 . S
H2653 C2639 0.958 . S
H2654 C2639 0.961 . S
H2655 C2639 0.960 . S
C2656 C2657 1.391 . S
C2656 C2658 1.394 . S
C2656 H2672 0.931 . S
C2657 C2656 1.391 . S
C2657 C2661 1.376 . S
C2658 C2656 1.394 . S
C2658 C2659 1.369 . S
C2658 C2662 1.531 . S
C2659 C2658 1.369 . S
C2659 C2660 1.410 . S
C2659 C2667 1.503 . S
C2660 C2659 1.410 . S
C2660 C2661 1.392 . S
C2660 C2663 1.511 . S
C2661 C2657 1.376 . S
C2661 C2660 1.392 . S
C2661 H2673 0.929 . S
C2662 C2658 1.531 . S
C2662 H2674 0.960 . S
C2662 H2675 0.962 . S
C2662 H2676 0.960 . S
C2663 C2660 1.511 . S
C2663 H2677 0.961 . S
C2663 H2678 0.961 . S
C2663 H2679 0.961 . S
C2664 C2665 1.370 . S
C2664 C2666 1.363 . S
C2664 H2680 0.931 . S
C2665 C2664 1.370 . S
C2665 C2669 1.408 . S
C2666 C2664 1.363 . S
C2666 C2667 1.370 . S
C2666 C2670 1.524 . S
C2667 C2659 1.503 . S
C2667 C2666 1.370 . S
C2667 C2668 1.403 . S
C2668 C2667 1.403 . S
C2668 C2669 1.404 . S
C2668 C2671 1.539 . S
C2669 C2665 1.408 . S
C2669 C2668 1.404 . S
C2669 H2681 0.930 . S
C2670 C2666 1.524 . S
C2670 H2682 0.956 . S
C2670 H2683 0.961 . S
C2670 H2684 0.961 . S
C2671 C2668 1.539 . S
C2671 H2685 0.958 . S
C2671 H2686 0.961 . S
C2671 H2687 0.960 . S
H2672 C2656 0.931 . S
H2673 C2661 0.929 . S
H2674 C2662 0.960 . S
H2675 C2662 0.962 . S
H2676 C2662 0.960 . S
H2677 C2663 0.961 . S
H2678 C2663 0.961 . S
H2679 C2663 0.961 . S
H2680 C2664 0.931 . S
H2681 C2669 0.930 . S
H2682 C2670 0.956 . S
H2683 C2670 0.961 . S
H2684 C2670 0.961 . S
H2685 C2671 0.958 . S
H2686 C2671 0.961 . S
H2687 C2671 0.960 . S
C2688 C2689 1.391 . S
C2688 C2690 1.394 . S
C2688 H2704 0.931 . S
C2689 C2688 1.391 . S
C2689 C2693 1.376 . S
C2690 C2688 1.394 . S
C2690 C2691 1.369 . S
C2690 C2694 1.531 . S
C2691 C2690 1.369 . S
C2691 C2692 1.410 . S
C2691 C2699 1.503 . S
C2692 C2691 1.410 . S
C2692 C2693 1.392 . S
C2692 C2695 1.511 . S
C2693 C2689 1.376 . S
C2693 C2692 1.392 . S
C2693 H2705 0.929 . S
C2694 C2690 1.531 . S
C2694 H2706 0.960 . S
C2694 H2707 0.962 . S
C2694 H2708 0.960 . S
C2695 C2692 1.511 . S
C2695 H2709 0.961 . S
C2695 H2710 0.961 . S
C2695 H2711 0.961 . S
C2696 C2697 1.370 . S
C2696 C2698 1.363 . S
C2696 H2712 0.931 . S
C2697 C2696 1.370 . S
C2697 C2701 1.408 . S
C2698 C2696 1.363 . S
C2698 C2699 1.370 . S
C2698 C2702 1.524 . S
C2699 C2691 1.503 . S
C2699 C2698 1.370 . S
C2699 C2700 1.403 . S
C2700 C2699 1.403 . S
C2700 C2701 1.404 . S
C2700 C2703 1.539 . S
C2701 C2697 1.408 . S
C2701 C2700 1.404 . S
C2701 H2713 0.930 . S
C2702 C2698 1.524 . S
C2702 H2714 0.956 . S
C2702 H2715 0.961 . S
C2702 H2716 0.961 . S
C2703 C2700 1.539 . S
C2703 H2717 0.958 . S
C2703 H2718 0.961 . S
C2703 H2719 0.960 . S
H2704 C2688 0.931 . S
H2705 C2693 0.929 . S
H2706 C2694 0.960 . S
H2707 C2694 0.962 . S
H2708 C2694 0.960 . S
H2709 C2695 0.961 . S
H2710 C2695 0.961 . S
H2711 C2695 0.961 . S
H2712 C2696 0.931 . S
H2713 C2701 0.930 . S
H2714 C2702 0.956 . S
H2715 C2702 0.961 . S
H2716 C2702 0.961 . S
H2717 C2703 0.958 . S
H2718 C2703 0.961 . S
H2719 C2703 0.960 . S
C2720 C2721 1.391 . S
C2720 C2722 1.394 . S
C2720 H2736 0.931 . S
C2721 C2720 1.391 . S
C2721 C2725 1.376 . S
C2722 C2720 1.394 . S
C2722 C2723 1.369 . S
C2722 C2726 1.531 . S
C2723 C2722 1.369 . S
C2723 C2724 1.410 . S
C2723 C2731 1.503 . S
C2724 C2723 1.410 . S
C2724 C2725 1.392 . S
C2724 C2727 1.511 . S
C2725 C2721 1.376 . S
C2725 C2724 1.392 . S
C2725 H2737 0.929 . S
C2726 C2722 1.531 . S
C2726 H2738 0.960 . S
C2726 H2739 0.962 . S
C2726 H2740 0.960 . S
C2727 C2724 1.511 . S
C2727 H2741 0.961 . S
C2727 H2742 0.961 . S
C2727 H2743 0.961 . S
C2728 C2729 1.370 . S
C2728 C2730 1.363 . S
C2728 H2744 0.931 . S
C2729 C2728 1.370 . S
C2729 C2733 1.408 . S
C2730 C2728 1.363 . S
C2730 C2731 1.370 . S
C2730 C2734 1.524 . S
C2731 C2723 1.503 . S
C2731 C2730 1.370 . S
C2731 C2732 1.403 . S
C2732 C2731 1.403 . S
C2732 C2733 1.404 . S
C2732 C2735 1.539 . S
C2733 C2729 1.408 . S
C2733 C2732 1.404 . S
C2733 H2745 0.930 . S
C2734 C2730 1.524 . S
C2734 H2746 0.956 . S
C2734 H2747 0.961 . S
C2734 H2748 0.961 . S
C2735 C2732 1.539 . S
C2735 H2749 0.958 . S
C2735 H2750 0.961 . S
C2735 H2751 0.960 . S
H2736 C2720 0.931 . S
H2737 C2725 0.929 . S
H2738 C2726 0.960 . S
H2739 C2726 0.962 . S
H2740 C2726 0.960 . S
H2741 C2727 0.961 . S
H2742 C2727 0.961 . S
H2743 C2727 0.961 . S
H2744 C2728 0.931 . S
H2745 C2733 0.930 . S
H2746 C2734 0.956 . S
H2747 C2734 0.961 . S
H2748 C2734 0.961 . S
H2749 C2735 0.958 . S
H2750 C2735 0.961 . S
H2751 C2735 0.960 . S
C2752 C2753 1.391 . S
C2752 C2754 1.394 . S
C2752 H2768 0.931 . S
C2753 C2752 1.391 . S
C2753 C2757 1.376 . S
C2754 C2752 1.394 . S
C2754 C2755 1.369 . S
C2754 C2758 1.531 . S
C2755 C2754 1.369 . S
C2755 C2756 1.410 . S
C2755 C2763 1.503 . S
C2756 C2755 1.410 . S
C2756 C2757 1.392 . S
C2756 C2759 1.511 . S
C2757 C2753 1.376 . S
C2757 C2756 1.392 . S
C2757 H2769 0.929 . S
C2758 C2754 1.531 . S
C2758 H2770 0.960 . S
C2758 H2771 0.962 . S
C2758 H2772 0.960 . S
C2759 C2756 1.511 . S
C2759 H2773 0.961 . S
C2759 H2774 0.961 . S
C2759 H2775 0.961 . S
C2760 C2761 1.370 . S
C2760 C2762 1.363 . S
C2760 H2776 0.931 . S
C2761 C2760 1.370 . S
C2761 C2765 1.408 . S
C2762 C2760 1.363 . S
C2762 C2763 1.370 . S
C2762 C2766 1.524 . S
C2763 C2755 1.503 . S
C2763 C2762 1.370 . S
C2763 C2764 1.403 . S
C2764 C2763 1.403 . S
C2764 C2765 1.404 . S
C2764 C2767 1.539 . S
C2765 C2761 1.408 . S
C2765 C2764 1.404 . S
C2765 H2777 0.930 . S
C2766 C2762 1.524 . S
C2766 H2778 0.956 . S
C2766 H2779 0.961 . S
C2766 H2780 0.961 . S
C2767 C2764 1.539 . S
C2767 H2781 0.958 . S
C2767 H2782 0.961 . S
C2767 H2783 0.960 . S
H2768 C2752 0.931 . S
H2769 C2757 0.929 . S
H2770 C2758 0.960 . S
H2771 C2758 0.962 . S
H2772 C2758 0.960 . S
H2773 C2759 0.961 . S
H2774 C2759 0.961 . S
H2775 C2759 0.961 . S
H2776 C2760 0.931 . S
H2777 C2765 0.930 . S
H2778 C2766 0.956 . S
H2779 C2766 0.961 . S
H2780 C2766 0.961 . S
H2781 C2767 0.958 . S
H2782 C2767 0.961 . S
H2783 C2767 0.960 . S
C2784 C2785 1.391 . S
C2784 C2786 1.394 . S
C2784 H2800 0.931 . S
C2785 C2784 1.391 . S
C2785 C2789 1.376 . S
C2786 C2784 1.394 . S
C2786 C2787 1.369 . S
C2786 C2790 1.531 . S
C2787 C2786 1.369 . S
C2787 C2788 1.410 . S
C2787 C2795 1.503 . S
C2788 C2787 1.410 . S
C2788 C2789 1.392 . S
C2788 C2791 1.511 . S
C2789 C2785 1.376 . S
C2789 C2788 1.392 . S
C2789 H2801 0.929 . S
C2790 C2786 1.531 . S
C2790 H2802 0.960 . S
C2790 H2803 0.962 . S
C2790 H2804 0.960 . S
C2791 C2788 1.511 . S
C2791 H2805 0.961 . S
C2791 H2806 0.961 . S
C2791 H2807 0.961 . S
C2792 C2793 1.370 . S
C2792 C2794 1.363 . S
C2792 H2808 0.931 . S
C2793 C2792 1.370 . S
C2793 C2797 1.408 . S
C2794 C2792 1.363 . S
C2794 C2795 1.370 . S
C2794 C2798 1.524 . S
C2795 C2787 1.503 . S
C2795 C2794 1.370 . S
C2795 C2796 1.403 . S
C2796 C2795 1.403 . S
C2796 C2797 1.404 . S
C2796 C2799 1.539 . S
C2797 C2793 1.408 . S
C2797 C2796 1.404 . S
C2797 H2809 0.930 . S
C2798 C2794 1.524 . S
C2798 H2810 0.956 . S
C2798 H2811 0.961 . S
C2798 H2812 0.961 . S
C2799 C2796 1.539 . S
C2799 H2813 0.958 . S
C2799 H2814 0.961 . S
C2799 H2815 0.960 . S
H2800 C2784 0.931 . S
H2801 C2789 0.929 . S
H2802 C2790 0.960 . S
H2803 C2790 0.962 . S
H2804 C2790 0.960 . S
H2805 C2791 0.961 . S
H2806 C2791 0.961 . S
H2807 C2791 0.961 . S
H2808 C2792 0.931 . S
H2809 C2797 0.930 . S
H2810 C2798 0.956 . S
H2811 C2798 0.961 . S
H2812 C2798 0.961 . S
H2813 C2799 0.958 . S
H2814 C2799 0.961 . S
H2815 C2799 0.960 . S
C2816 C2817 1.391 . S
C2816 C2818 1.394 . S
C2816 H2832 0.931 . S
C2817 C2816 1.391 . S
C2817 C2821 1.376 . S
C2818 C2816 1.394 . S
C2818 C2819 1.369 . S
C2818 C2822 1.531 . S
C2819 C2818 1.369 . S
C2819 C2820 1.410 . S
C2819 C2827 1.503 . S
C2820 C2819 1.410 . S
C2820 C2821 1.392 . S
C2820 C2823 1.511 . S
C2821 C2817 1.376 . S
C2821 C2820 1.392 . S
C2821 H2833 0.929 . S
C2822 C2818 1.531 . S
C2822 H2834 0.960 . S
C2822 H2835 0.962 . S
C2822 H2836 0.960 . S
C2823 C2820 1.511 . S
C2823 H2837 0.961 . S
C2823 H2838 0.961 . S
C2823 H2839 0.961 . S
C2824 C2825 1.370 . S
C2824 C2826 1.363 . S
C2824 H2840 0.931 . S
C2825 C2824 1.370 . S
C2825 C2829 1.408 . S
C2826 C2824 1.363 . S
C2826 C2827 1.370 . S
C2826 C2830 1.524 . S
C2827 C2819 1.503 . S
C2827 C2826 1.370 . S
C2827 C2828 1.403 . S
C2828 C2827 1.403 . S
C2828 C2829 1.404 . S
C2828 C2831 1.539 . S
C2829 C2825 1.408 . S
C2829 C2828 1.404 . S
C2829 H2841 0.930 . S
C2830 C2826 1.524 . S
C2830 H2842 0.956 . S
C2830 H2843 0.961 . S
C2830 H2844 0.961 . S
C2831 C2828 1.539 . S
C2831 H2845 0.958 . S
C2831 H2846 0.961 . S
C2831 H2847 0.960 . S
H2832 C2816 0.931 . S
H2833 C2821 0.929 . S
H2834 C2822 0.960 . S
H2835 C2822 0.962 . S
H2836 C2822 0.960 . S
H2837 C2823 0.961 . S
H2838 C2823 0.961 . S
H2839 C2823 0.961 . S
H2840 C2824 0.931 . S
H2841 C2829 0.930 . S
H2842 C2830 0.956 . S
H2843 C2830 0.961 . S
H2844 C2830 0.961 . S
H2845 C2831 0.958 . S
H2846 C2831 0.961 . S
H2847 C2831 0.960 . S
C2848 C2849 1.391 . S
C2848 C2850 1.394 . S
C2848 H2864 0.931 . S
C2849 C2848 1.391 . S
C2849 C2853 1.376 . S
C2850 C2848 1.394 . S
C2850 C2851 1.369 . S
C2850 C2854 1.531 . S
C2851 C2850 1.369 . S
C2851 C2852 1.410 . S
C2851 C2859 1.503 . S
C2852 C2851 1.410 . S
C2852 C2853 1.392 . S
C2852 C2855 1.511 . S
C2853 C2849 1.376 . S
C2853 C2852 1.392 . S
C2853 H2865 0.929 . S
C2854 C2850 1.531 . S
C2854 H2866 0.960 . S
C2854 H2867 0.962 . S
C2854 H2868 0.960 . S
C2855 C2852 1.511 . S
C2855 H2869 0.961 . S
C2855 H2870 0.961 . S
C2855 H2871 0.961 . S
C2856 C2857 1.370 . S
C2856 C2858 1.363 . S
C2856 H2872 0.931 . S
C2857 C2856 1.370 . S
C2857 C2861 1.408 . S
C2858 C2856 1.363 . S
C2858 C2859 1.370 . S
C2858 C2862 1.524 . S
C2859 C2851 1.503 . S
C2859 C2858 1.370 . S
C2859 C2860 1.403 . S
C2860 C2859 1.403 . S
C2860 C2861 1.404 . S
C2860 C2863 1.539 . S
C2861 C2857 1.408 . S
C2861 C2860 1.404 . S
C2861 H2873 0.930 . S
C2862 C2858 1.524 . S
C2862 H2874 0.956 . S
C2862 H2875 0.961 . S
C2862 H2876 0.961 . S
C2863 C2860 1.539 . S
C2863 H2877 0.958 . S
C2863 H2878 0.961 . S
C2863 H2879 0.960 . S
H2864 C2848 0.931 . S
H2865 C2853 0.929 . S
H2866 C2854 0.960 . S
H2867 C2854 0.962 . S
H2868 C2854 0.960 . S
H2869 C2855 0.961 . S
H2870 C2855 0.961 . S
H2871 C2855 0.961 . S
H2872 C2856 0.931 . S
H2873 C2861 0.930 . S
H2874 C2862 0.956 . S
H2875 C2862 0.961 . S
H2876 C2862 0.961 . S
H2877 C2863 0.958 . S
H2878 C2863 0.961 . S
H2879 C2863 0.960 . S
C2880 C2881 1.391 . S
C2880 C2882 1.394 . S
C2880 H2896 0.931 . S
C2881 C2880 1.391 . S
C2881 C2885 1.376 . S
C2882 C2880 1.394 . S
C2882 C2883 1.369 . S
C2882 C2886 1.531 . S
C2883 C2882 1.369 . S
C2883 C2884 1.410 . S
C2883 C2891 1.503 . S
C2884 C2883 1.410 . S
C2884 C2885 1.392 . S
C2884 C2887 1.511 . S
C2885 C2881 1.376 . S
C2885 C2884 1.392 . S
C2885 H2897 0.929 . S
C2886 C2882 1.531 . S
C2886 H2898 0.960 . S
C2886 H2899 0.962 . S
C2886 H2900 0.960 . S
C2887 C2884 1.511 . S
C2887 H2901 0.961 . S
C2887 H2902 0.961 . S
C2887 H2903 0.961 . S
C2888 C2889 1.370 . S
C2888 C2890 1.363 . S
C2888 H2904 0.931 . S
C2889 C2888 1.370 . S
C2889 C2893 1.408 . S
C2890 C2888 1.363 . S
C2890 C2891 1.370 . S
C2890 C2894 1.524 . S
C2891 C2883 1.503 . S
C2891 C2890 1.370 . S
C2891 C2892 1.403 . S
C2892 C2891 1.403 . S
C2892 C2893 1.404 . S
C2892 C2895 1.539 . S
C2893 C2889 1.408 . S
C2893 C2892 1.404 . S
C2893 H2905 0.930 . S
C2894 C2890 1.524 . S
C2894 H2906 0.956 . S
C2894 H2907 0.961 . S
C2894 H2908 0.961 . S
C2895 C2892 1.539 . S
C2895 H2909 0.958 . S
C2895 H2910 0.961 . S
C2895 H2911 0.960 . S
H2896 C2880 0.931 . S
H2897 C2885 0.929 . S
H2898 C2886 0.960 . S
H2899 C2886 0.962 . S
H2900 C2886 0.960 . S
H2901 C2887 0.961 . S
H2902 C2887 0.961 . S
H2903 C2887 0.961 . S
H2904 C2888 0.931 . S
H2905 C2893 0.930 . S
H2906 C2894 0.956 . S
H2907 C2894 0.961 . S
H2908 C2894 0.961 . S
H2909 C2895 0.958 . S
H2910 C2895 0.961 . S
H2911 C2895 0.960 . S
C2912 C2913 1.391 . S
C2912 C2914 1.394 . S
C2912 H2928 0.931 . S
C2913 C2912 1.391 . S
C2913 C2917 1.376 . S
C2914 C2912 1.394 . S
C2914 C2915 1.369 . S
C2914 C2918 1.531 . S
C2915 C2914 1.369 . S
C2915 C2916 1.410 . S
C2915 C2923 1.503 . S
C2916 C2915 1.410 . S
C2916 C2917 1.392 . S
C2916 C2919 1.511 . S
C2917 C2913 1.376 . S
C2917 C2916 1.392 . S
C2917 H2929 0.929 . S
C2918 C2914 1.531 . S
C2918 H2930 0.960 . S
C2918 H2931 0.962 . S
C2918 H2932 0.960 . S
C2919 C2916 1.511 . S
C2919 H2933 0.961 . S
C2919 H2934 0.961 . S
C2919 H2935 0.961 . S
C2920 C2921 1.370 . S
C2920 C2922 1.363 . S
C2920 H2936 0.931 . S
C2921 C2920 1.370 . S
C2921 C2925 1.408 . S
C2922 C2920 1.363 . S
C2922 C2923 1.370 . S
C2922 C2926 1.524 . S
C2923 C2915 1.503 . S
C2923 C2922 1.370 . S
C2923 C2924 1.403 . S
C2924 C2923 1.403 . S
C2924 C2925 1.404 . S
C2924 C2927 1.539 . S
C2925 C2921 1.408 . S
C2925 C2924 1.404 . S
C2925 H2937 0.930 . S
C2926 C2922 1.524 . S
C2926 H2938 0.956 . S
C2926 H2939 0.961 . S
C2926 H2940 0.961 . S
C2927 C2924 1.539 . S
C2927 H2941 0.958 . S
C2927 H2942 0.961 . S
C2927 H2943 0.960 . S
H2928 C2912 0.931 . S
H2929 C2917 0.929 . S
H2930 C2918 0.960 . S
H2931 C2918 0.962 . S
H2932 C2918 0.960 . S
H2933 C2919 0.961 . S
H2934 C2919 0.961 . S
H2935 C2919 0.961 . S
H2936 C2920 0.931 . S
H2937 C2925 0.930 . S
H2938 C2926 0.956 . S
H2939 C2926 0.961 . S
H2940 C2926 0.961 . S
H2941 C2927 0.958 . S
H2942 C2927 0.961 . S
H2943 C2927 0.960 . S
C2944 C2945 1.391 . S
C2944 C2946 1.394 . S
C2944 H2960 0.931 . S
C2945 C2944 1.391 . S
C2945 C2949 1.376 . S
C2946 C2944 1.394 . S
C2946 C2947 1.369 . S
C2946 C2950 1.531 . S
C2947 C2946 1.369 . S
C2947 C2948 1.410 . S
C2947 C2955 1.503 . S
C2948 C2947 1.410 . S
C2948 C2949 1.392 . S
C2948 C2951 1.511 . S
C2949 C2945 1.376 . S
C2949 C2948 1.392 . S
C2949 H2961 0.929 . S
C2950 C2946 1.531 . S
C2950 H2962 0.960 . S
C2950 H2963 0.962 . S
C2950 H2964 0.960 . S
C2951 C2948 1.511 . S
C2951 H2965 0.961 . S
C2951 H2966 0.961 . S
C2951 H2967 0.961 . S
C2952 C2953 1.370 . S
C2952 C2954 1.363 . S
C2952 H2968 0.931 . S
C2953 C2952 1.370 . S
C2953 C2957 1.408 . S
C2954 C2952 1.363 . S
C2954 C2955 1.370 . S
C2954 C2958 1.524 . S
C2955 C2947 1.503 . S
C2955 C2954 1.370 . S
C2955 C2956 1.403 . S
C2956 C2955 1.403 . S
C2956 C2957 1.404 . S
C2956 C2959 1.539 . S
C2957 C2953 1.408 . S
C2957 C2956 1.404 . S
C2957 H2969 0.930 . S
C2958 C2954 1.524 . S
C2958 H2970 0.956 . S
C2958 H2971 0.961 . S
C2958 H2972 0.961 . S
C2959 C2956 1.539 . S
C2959 H2973 0.958 . S
C2959 H2974 0.961 . S
C2959 H2975 0.960 . S
H2960 C2944 0.931 . S
H2961 C2949 0.929 . S
H2962 C2950 0.960 . S
H2963 C2950 0.962 . S
H2964 C2950 0.960 . S
H2965 C2951 0.961 . S
H2966 C2951 0.961 . S
H2967 C2951 0.961 . S
H2968 C2952 0.931 . S
H2969 C2957 0.930 . S
H2970 C2958 0.956 . S
H2971 C2958 0.961 . S
H2972 C2958 0.961 . S
H2973 C2959 0.958 . S
H2974 C2959 0.961 . S
H2975 C2959 0.960 . S
C2976 C2977 1.391 . S
C2976 C2978 1.394 . S
C2976 H2992 0.931 . S
C2977 C2976 1.391 . S
C2977 C2981 1.376 . S
C2978 C2976 1.394 . S
C2978 C2979 1.369 . S
C2978 C2982 1.531 . S
C2979 C2978 1.369 . S
C2979 C2980 1.410 . S
C2979 C2987 1.503 . S
C2980 C2979 1.410 . S
C2980 C2981 1.392 . S
C2980 C2983 1.511 . S
C2981 C2977 1.376 . S
C2981 C2980 1.392 . S
C2981 H2993 0.929 . S
C2982 C2978 1.531 . S
C2982 H2994 0.960 . S
C2982 H2995 0.962 . S
C2982 H2996 0.960 . S
C2983 C2980 1.511 . S
C2983 H2997 0.961 . S
C2983 H2998 0.961 . S
C2983 H2999 0.961 . S
C2984 C2985 1.370 . S
C2984 C2986 1.363 . S
C2984 H3000 0.931 . S
C2985 C2984 1.370 . S
C2985 C2989 1.408 . S
C2986 C2984 1.363 . S
C2986 C2987 1.370 . S
C2986 C2990 1.524 . S
C2987 C2979 1.503 . S
C2987 C2986 1.370 . S
C2987 C2988 1.403 . S
C2988 C2987 1.403 . S
C2988 C2989 1.404 . S
C2988 C2991 1.539 . S
C2989 C2985 1.408 . S
C2989 C2988 1.404 . S
C2989 H3001 0.930 . S
C2990 C2986 1.524 . S
C2990 H3002 0.956 . S
C2990 H3003 0.961 . S
C2990 H3004 0.961 . S
C2991 C2988 1.539 . S
C2991 H3005 0.958 . S
C2991 H3006 0.961 . S
C2991 H3007 0.960 . S
H2992 C2976 0.931 . S
H2993 C2981 0.929 . S
H2994 C2982 0.960 . S
H2995 C2982 0.962 . S
H2996 C2982 0.960 . S
H2997 C2983 0.961 . S
H2998 C2983 0.961 . S
H2999 C2983 0.961 . S
H3000 C2984 0.931 . S
H3001 C2989 0.930 . S
H3002 C2990 0.956 . S
H3003 C2990 0.961 . S
H3004 C2990 0.961 . S
H3005 C2991 0.958 . S
H3006 C2991 0.961 . S
H3007 C2991 0.960 . S
C3008 C3009 1.391 . S
C3008 C3010 1.394 . S
C3008 H3024 0.931 . S
C3009 C3008 1.391 . S
C3009 C3013 1.376 . S
C3010 C3008 1.394 . S
C3010 C3011 1.369 . S
C3010 C3014 1.531 . S
C3011 C3010 1.369 . S
C3011 C3012 1.410 . S
C3011 C3019 1.503 . S
C3012 C3011 1.410 . S
C3012 C3013 1.392 . S
C3012 C3015 1.511 . S
C3013 C3009 1.376 . S
C3013 C3012 1.392 . S
C3013 H3025 0.929 . S
C3014 C3010 1.531 . S
C3014 H3026 0.960 . S
C3014 H3027 0.962 . S
C3014 H3028 0.960 . S
C3015 C3012 1.511 . S
C3015 H3029 0.961 . S
C3015 H3030 0.961 . S
C3015 H3031 0.961 . S
C3016 C3017 1.370 . S
C3016 C3018 1.363 . S
C3016 H3032 0.931 . S
C3017 C3016 1.370 . S
C3017 C3021 1.408 . S
C3018 C3016 1.363 . S
C3018 C3019 1.370 . S
C3018 C3022 1.524 . S
C3019 C3011 1.503 . S
C3019 C3018 1.370 . S
C3019 C3020 1.403 . S
C3020 C3019 1.403 . S
C3020 C3021 1.404 . S
C3020 C3023 1.539 . S
C3021 C3017 1.408 . S
C3021 C3020 1.404 . S
C3021 H3033 0.930 . S
C3022 C3018 1.524 . S
C3022 H3034 0.956 . S
C3022 H3035 0.961 . S
C3022 H3036 0.961 . S
C3023 C3020 1.539 . S
C3023 H3037 0.958 . S
C3023 H3038 0.961 . S
C3023 H3039 0.960 . S
H3024 C3008 0.931 . S
H3025 C3013 0.929 . S
H3026 C3014 0.960 . S
H3027 C3014 0.962 . S
H3028 C3014 0.960 . S
H3029 C3015 0.961 . S
H3030 C3015 0.961 . S
H3031 C3015 0.961 . S
H3032 C3016 0.931 . S
H3033 C3021 0.930 . S
H3034 C3022 0.956 . S
H3035 C3022 0.961 . S
H3036 C3022 0.961 . S
H3037 C3023 0.958 . S
H3038 C3023 0.961 . S
H3039 C3023 0.960 . S
C3040 C3041 1.391 . S
C3040 C3042 1.394 . S
C3040 H3056 0.931 . S
C3041 C3040 1.391 . S
C3041 C3045 1.376 . S
C3042 C3040 1.394 . S
C3042 C3043 1.369 . S
C3042 C3046 1.531 . S
C3043 C3042 1.369 . S
C3043 C3044 1.410 . S
C3043 C3051 1.503 . S
C3044 C3043 1.410 . S
C3044 C3045 1.392 . S
C3044 C3047 1.511 . S
C3045 C3041 1.376 . S
C3045 C3044 1.392 . S
C3045 H3057 0.929 . S
C3046 C3042 1.531 . S
C3046 H3058 0.960 . S
C3046 H3059 0.962 . S
C3046 H3060 0.960 . S
C3047 C3044 1.511 . S
C3047 H3061 0.961 . S
C3047 H3062 0.961 . S
C3047 H3063 0.961 . S
C3048 C3049 1.370 . S
C3048 C3050 1.363 . S
C3048 H3064 0.931 . S
C3049 C3048 1.370 . S
C3049 C3053 1.408 . S
C3050 C3048 1.363 . S
C3050 C3051 1.370 . S
C3050 C3054 1.524 . S
C3051 C3043 1.503 . S
C3051 C3050 1.370 . S
C3051 C3052 1.403 . S
C3052 C3051 1.403 . S
C3052 C3053 1.404 . S
C3052 C3055 1.539 . S
C3053 C3049 1.408 . S
C3053 C3052 1.404 . S
C3053 H3065 0.930 . S
C3054 C3050 1.524 . S
C3054 H3066 0.956 . S
C3054 H3067 0.961 . S
C3054 H3068 0.961 . S
C3055 C3052 1.539 . S
C3055 H3069 0.958 . S
C3055 H3070 0.961 . S
C3055 H3071 0.960 . S
H3056 C3040 0.931 . S
H3057 C3045 0.929 . S
H3058 C3046 0.960 . S
H3059 C3046 0.962 . S
H3060 C3046 0.960 . S
H3061 C3047 0.961 . S
H3062 C3047 0.961 . S
H3063 C3047 0.961 . S
H3064 C3048 0.931 . S
H3065 C3053 0.930 . S
H3066 C3054 0.956 . S
H3067 C3054 0.961 . S
H3068 C3054 0.961 . S
H3069 C3055 0.958 . S
H3070 C3055 0.961 . S
H3071 C3055 0.960 . S
C3072 C3073 1.391 . S
C3072 C3074 1.394 . S
C3072 H3088 0.931 . S
C3073 C3072 1.391 . S
C3073 C3077 1.376 . S
C3074 C3072 1.394 . S
C3074 C3075 1.369 . S
C3074 C3078 1.531 . S
C3075 C3074 1.369 . S
C3075 C3076 1.410 . S
C3075 C3083 1.503 . S
C3076 C3075 1.410 . S
C3076 C3077 1.392 . S
C3076 C3079 1.511 . S
C3077 C3073 1.376 . S
C3077 C3076 1.392 . S
C3077 H3089 0.929 . S
C3078 C3074 1.531 . S
C3078 H3090 0.960 . S
C3078 H3091 0.962 . S
C3078 H3092 0.960 . S
C3079 C3076 1.511 . S
C3079 H3093 0.961 . S
C3079 H3094 0.961 . S
C3079 H3095 0.961 . S
C3080 C3081 1.370 . S
C3080 C3082 1.363 . S
C3080 H3096 0.931 . S
C3081 C3080 1.370 . S
C3081 C3085 1.408 . S
C3082 C3080 1.363 . S
C3082 C3083 1.370 . S
C3082 C3086 1.524 . S
C3083 C3075 1.503 . S
C3083 C3082 1.370 . S
C3083 C3084 1.403 . S
C3084 C3083 1.403 . S
C3084 C3085 1.404 . S
C3084 C3087 1.539 . S
C3085 C3081 1.408 . S
C3085 C3084 1.404 . S
C3085 H3097 0.930 . S
C3086 C3082 1.524 . S
C3086 H3098 0.956 . S
C3086 H3099 0.961 . S
C3086 H3100 0.961 . S
C3087 C3084 1.539 . S
C3087 H3101 0.958 . S
C3087 H3102 0.961 . S
C3087 H3103 0.960 . S
H3088 C3072 0.931 . S
H3089 C3077 0.929 . S
H3090 C3078 0.960 . S
H3091 C3078 0.962 . S
H3092 C3078 0.960 . S
H3093 C3079 0.961 . S
H3094 C3079 0.961 . S
H3095 C3079 0.961 . S
H3096 C3080 0.931 . S
H3097 C3085 0.930 . S
H3098 C3086 0.956 . S
H3099 C3086 0.961 . S
H3100 C3086 0.961 . S
H3101 C3087 0.958 . S
H3102 C3087 0.961 . S
H3103 C3087 0.960 . S
C3104 C3105 1.391 . S
C3104 C3106 1.394 . S
C3104 H3120 0.931 . S
C3105 C3104 1.391 . S
C3105 C3109 1.376 . S
C3106 C3104 1.394 . S
C3106 C3107 1.369 . S
C3106 C3110 1.531 . S
C3107 C3106 1.369 . S
C3107 C3108 1.410 . S
C3107 C3115 1.503 . S
C3108 C3107 1.410 . S
C3108 C3109 1.392 . S
C3108 C3111 1.511 . S
C3109 C3105 1.376 . S
C3109 C3108 1.392 . S
C3109 H3121 0.929 . S
C3110 C3106 1.531 . S
C3110 H3122 0.960 . S
C3110 H3123 0.962 . S
C3110 H3124 0.960 . S
C3111 C3108 1.511 . S
C3111 H3125 0.961 . S
C3111 H3126 0.961 . S
C3111 H3127 0.961 . S
C3112 C3113 1.370 . S
C3112 C3114 1.363 . S
C3112 H3128 0.931 . S
C3113 C3112 1.370 . S
C3113 C3117 1.408 . S
C3114 C3112 1.363 . S
C3114 C3115 1.370 . S
C3114 C3118 1.524 . S
C3115 C3107 1.503 . S
C3115 C3114 1.370 . S
C3115 C3116 1.403 . S
C3116 C3115 1.403 . S
C3116 C3117 1.404 . S
C3116 C3119 1.539 . S
C3117 C3113 1.408 . S
C3117 C3116 1.404 . S
C3117 H3129 0.930 . S
C3118 C3114 1.524 . S
C3118 H3130 0.956 . S
C3118 H3131 0.961 . S
C3118 H3132 0.961 . S
C3119 C3116 1.539 . S
C3119 H3133 0.958 . S
C3119 H3134 0.961 . S
C3119 H3135 0.960 . S
H3120 C3104 0.931 . S
H3121 C3109 0.929 . S
H3122 C3110 0.960 . S
H3123 C3110 0.962 . S
H3124 C3110 0.960 . S
H3125 C3111 0.961 . S
H3126 C3111 0.961 . S
H3127 C3111 0.961 . S
H3128 C3112 0.931 . S
H3129 C3117 0.930 . S
H3130 C3118 0.956 . S
H3131 C3118 0.961 . S
H3132 C3118 0.961 . S
H3133 C3119 0.958 . S
H3134 C3119 0.961 . S
H3135 C3119 0.960 . S
C3136 C3137 1.391 . S
C3136 C3138 1.394 . S
C3136 H3152 0.931 . S
C3137 C3136 1.391 . S
C3137 C3141 1.376 . S
C3138 C3136 1.394 . S
C3138 C3139 1.369 . S
C3138 C3142 1.531 . S
C3139 C3138 1.369 . S
C3139 C3140 1.410 . S
C3139 C3147 1.503 . S
C3140 C3139 1.410 . S
C3140 C3141 1.392 . S
C3140 C3143 1.511 . S
C3141 C3137 1.376 . S
C3141 C3140 1.392 . S
C3141 H3153 0.929 . S
C3142 C3138 1.531 . S
C3142 H3154 0.960 . S
C3142 H3155 0.962 . S
C3142 H3156 0.960 . S
C3143 C3140 1.511 . S
C3143 H3157 0.961 . S
C3143 H3158 0.961 . S
C3143 H3159 0.961 . S
C3144 C3145 1.370 . S
C3144 C3146 1.363 . S
C3144 H3160 0.931 . S
C3145 C3144 1.370 . S
C3145 C3149 1.408 . S
C3146 C3144 1.363 . S
C3146 C3147 1.370 . S
C3146 C3150 1.524 . S
C3147 C3139 1.503 . S
C3147 C3146 1.370 . S
C3147 C3148 1.403 . S
C3148 C3147 1.403 . S
C3148 C3149 1.404 . S
C3148 C3151 1.539 . S
C3149 C3145 1.408 . S
C3149 C3148 1.404 . S
C3149 H3161 0.930 . S
C3150 C3146 1.524 . S
C3150 H3162 0.956 . S
C3150 H3163 0.961 . S
C3150 H3164 0.961 . S
C3151 C3148 1.539 . S
C3151 H3165 0.958 . S
C3151 H3166 0.961 . S
C3151 H3167 0.960 . S
H3152 C3136 0.931 . S
H3153 C3141 0.929 . S
H3154 C3142 0.960 . S
H3155 C3142 0.962 . S
H3156 C3142 0.960 . S
H3157 C3143 0.961 . S
H3158 C3143 0.961 . S
H3159 C3143 0.961 . S
H3160 C3144 0.931 . S
H3161 C3149 0.930 . S
H3162 C3150 0.956 . S
H3163 C3150 0.961 . S
H3164 C3150 0.961 . S
H3165 C3151 0.958 . S
H3166 C3151 0.961 . S
H3167 C3151 0.960 . S
C3168 C3169 1.391 . S
C3168 C3170 1.394 . S
C3168 H3184 0.931 . S
C3169 C3168 1.391 . S
C3169 C3173 1.376 . S
C3170 C3168 1.394 . S
C3170 C3171 1.369 . S
C3170 C3174 1.531 . S
C3171 C3170 1.369 . S
C3171 C3172 1.410 . S
C3171 C3179 1.503 . S
C3172 C3171 1.410 . S
C3172 C3173 1.392 . S
C3172 C3175 1.511 . S
C3173 C3169 1.376 . S
C3173 C3172 1.392 . S
C3173 H3185 0.929 . S
C3174 C3170 1.531 . S
C3174 H3186 0.960 . S
C3174 H3187 0.962 . S
C3174 H3188 0.960 . S
C3175 C3172 1.511 . S
C3175 H3189 0.961 . S
C3175 H3190 0.961 . S
C3175 H3191 0.961 . S
C3176 C3177 1.370 . S
C3176 C3178 1.363 . S
C3176 H3192 0.931 . S
C3177 C3176 1.370 . S
C3177 C3181 1.408 . S
C3178 C3176 1.363 . S
C3178 C3179 1.370 . S
C3178 C3182 1.524 . S
C3179 C3171 1.503 . S
C3179 C3178 1.370 . S
C3179 C3180 1.403 . S
C3180 C3179 1.403 . S
C3180 C3181 1.404 . S
C3180 C3183 1.539 . S
C3181 C3177 1.408 . S
C3181 C3180 1.404 . S
C3181 H3193 0.930 . S
C3182 C3178 1.524 . S
C3182 H3194 0.956 . S
C3182 H3195 0.961 . S
C3182 H3196 0.961 . S
C3183 C3180 1.539 . S
C3183 H3197 0.958 . S
C3183 H3198 0.961 . S
C3183 H3199 0.960 . S
H3184 C3168 0.931 . S
H3185 C3173 0.929 . S
H3186 C3174 0.960 . S
H3187 C3174 0.962 . S
H3188 C3174 0.960 . S
H3189 C3175 0.961 . S
H3190 C3175 0.961 . S
H3191 C3175 0.961 . S
H3192 C3176 0.931 . S
H3193 C3181 0.930 . S
H3194 C3182 0.956 . S
H3195 C3182 0.961 . S
H3196 C3182 0.961 . S
H3197 C3183 0.958 . S
H3198 C3183 0.961 . S
H3199 C3183 0.960 . S
C3200 C3201 1.391 . S
C3200 C3202 1.394 . S
C3200 H3216 0.931 . S
C3201 C3200 1.391 . S
C3201 C3205 1.376 . S
C3202 C3200 1.394 . S
C3202 C3203 1.369 . S
C3202 C3206 1.531 . S
C3203 C3202 1.369 . S
C3203 C3204 1.410 . S
C3203 C3211 1.503 . S
C3204 C3203 1.410 . S
C3204 C3205 1.392 . S
C3204 C3207 1.511 . S
C3205 C3201 1.376 . S
C3205 C3204 1.392 . S
C3205 H3217 0.929 . S
C3206 C3202 1.531 . S
C3206 H3218 0.960 . S
C3206 H3219 0.962 . S
C3206 H3220 0.960 . S
C3207 C3204 1.511 . S
C3207 H3221 0.961 . S
C3207 H3222 0.961 . S
C3207 H3223 0.961 . S
C3208 C3209 1.370 . S
C3208 C3210 1.363 . S
C3208 H3224 0.931 . S
C3209 C3208 1.370 . S
C3209 C3213 1.408 . S
C3210 C3208 1.363 . S
C3210 C3211 1.370 . S
C3210 C3214 1.524 . S
C3211 C3203 1.503 . S
C3211 C3210 1.370 . S
C3211 C3212 1.403 . S
C3212 C3211 1.403 . S
C3212 C3213 1.404 . S
C3212 C3215 1.539 . S
C3213 C3209 1.408 . S
C3213 C3212 1.404 . S
C3213 H3225 0.930 . S
C3214 C3210 1.524 . S
C3214 H3226 0.956 . S
C3214 H3227 0.961 . S
C3214 H3228 0.961 . S
C3215 C3212 1.539 . S
C3215 H3229 0.958 . S
C3215 H3230 0.961 . S
C3215 H3231 0.960 . S
H3216 C3200 0.931 . S
H3217 C3205 0.929 . S
H3218 C3206 0.960 . S
H3219 C3206 0.962 . S
H3220 C3206 0.960 . S
H3221 C3207 0.961 . S
H3222 C3207 0.961 . S
H3223 C3207 0.961 . S
H3224 C3208 0.931 . S
H3225 C3213 0.930 . S
H3226 C3214 0.956 . S
H3227 C3214 0.961 . S
H3228 C3214 0.961 . S
H3229 C3215 0.958 . S
H3230 C3215 0.961 . S
H3231 C3215 0.960 . S
C3232 C3233 1.391 . S
C3232 C3234 1.394 . S
C3232 H3248 0.931 . S
C3233 C3232 1.391 . S
C3233 C3237 1.376 . S
C3234 C3232 1.394 . S
C3234 C3235 1.369 . S
C3234 C3238 1.531 . S
C3235 C3234 1.369 . S
C3235 C3236 1.410 . S
C3235 C3243 1.503 . S
C3236 C3235 1.410 . S
C3236 C3237 1.392 . S
C3236 C3239 1.511 . S
C3237 C3233 1.376 . S
C3237 C3236 1.392 . S
C3237 H3249 0.929 . S
C3238 C3234 1.531 . S
C3238 H3250 0.960 . S
C3238 H3251 0.962 . S
C3238 H3252 0.960 . S
C3239 C3236 1.511 . S
C3239 H3253 0.961 . S
C3239 H3254 0.961 . S
C3239 H3255 0.961 . S
C3240 C3241 1.370 . S
C3240 C3242 1.363 . S
C3240 H3256 0.931 . S
C3241 C3240 1.370 . S
C3241 C3245 1.408 . S
C3242 C3240 1.363 . S
C3242 C3243 1.370 . S
C3242 C3246 1.524 . S
C3243 C3235 1.503 . S
C3243 C3242 1.370 . S
C3243 C3244 1.403 . S
C3244 C3243 1.403 . S
C3244 C3245 1.404 . S
C3244 C3247 1.539 . S
C3245 C3241 1.408 . S
C3245 C3244 1.404 . S
C3245 H3257 0.930 . S
C3246 C3242 1.524 . S
C3246 H3258 0.956 . S
C3246 H3259 0.961 . S
C3246 H3260 0.961 . S
C3247 C3244 1.539 . S
C3247 H3261 0.958 . S
C3247 H3262 0.961 . S
C3247 H3263 0.960 . S
H3248 C3232 0.931 . S
H3249 C3237 0.929 . S
H3250 C3238 0.960 . S
H3251 C3238 0.962 . S
H3252 C3238 0.960 . S
H3253 C3239 0.961 . S
H3254 C3239 0.961 . S
H3255 C3239 0.961 . S
H3256 C3240 0.931 . S
H3257 C3245 0.930 . S
H3258 C3246 0.956 . S
H3259 C3246 0.961 . S
H3260 C3246 0.961 . S
H3261 C3247 0.958 . S
H3262 C3247 0.961 . S
H3263 C3247 0.960 . S
C3264 C3265 1.391 . S
C3264 C3266 1.394 . S
C3264 H3280 0.931 . S
C3265 C3264 1.391 . S
C3265 C3269 1.376 . S
C3266 C3264 1.394 . S
C3266 C3267 1.369 . S
C3266 C3270 1.531 . S
C3267 C3266 1.369 . S
C3267 C3268 1.410 . S
C3267 C3275 1.503 . S
C3268 C3267 1.410 . S
C3268 C3269 1.392 . S
C3268 C3271 1.511 . S
C3269 C3265 1.376 . S
C3269 C3268 1.392 . S
C3269 H3281 0.929 . S
C3270 C3266 1.531 . S
C3270 H3282 0.960 . S
C3270 H3283 0.962 . S
C3270 H3284 0.960 . S
C3271 C3268 1.511 . S
C3271 H3285 0.961 . S
C3271 H3286 0.961 . S
C3271 H3287 0.961 . S
C3272 C3273 1.370 . S
C3272 C3274 1.363 . S
C3272 H3288 0.931 . S
C3273 C3272 1.370 . S
C3273 C3277 1.408 . S
C3274 C3272 1.363 . S
C3274 C3275 1.370 . S
C3274 C3278 1.524 . S
C3275 C3267 1.503 . S
C3275 C3274 1.370 . S
C3275 C3276 1.403 . S
C3276 C3275 1.403 . S
C3276 C3277 1.404 . S
C3276 C3279 1.539 . S
C3277 C3273 1.408 . S
C3277 C3276 1.404 . S
C3277 H3289 0.930 . S
C3278 C3274 1.524 . S
C3278 H3290 0.956 . S
C3278 H3291 0.961 . S
C3278 H3292 0.961 . S
C3279 C3276 1.539 . S
C3279 H3293 0.958 . S
C3279 H3294 0.961 . S
C3279 H3295 0.960 . S
H3280 C3264 0.931 . S
H3281 C3269 0.929 . S
H3282 C3270 0.960 . S
H3283 C3270 0.962 . S
H3284 C3270 0.960 . S
H3285 C3271 0.961 . S
H3286 C3271 0.961 . S
H3287 C3271 0.961 . S
H3288 C3272 0.931 . S
H3289 C3277 0.930 . S
H3290 C3278 0.956 . S
H3291 C3278 0.961 . S
H3292 C3278 0.961 . S
H3293 C3279 0.958 . S
H3294 C3279 0.961 . S
H3295 C3279 0.960 . S
C3296 C3297 1.391 . S
C3296 C3298 1.394 . S
C3296 H3312 0.931 . S
C3297 C3296 1.391 . S
C3297 C3301 1.376 . S
C3298 C3296 1.394 . S
C3298 C3299 1.369 . S
C3298 C3302 1.531 . S
C3299 C3298 1.369 . S
C3299 C3300 1.410 . S
C3299 C3307 1.503 . S
C3300 C3299 1.410 . S
C3300 C3301 1.392 . S
C3300 C3303 1.511 . S
C3301 C3297 1.376 . S
C3301 C3300 1.392 . S
C3301 H3313 0.929 . S
C3302 C3298 1.531 . S
C3302 H3314 0.960 . S
C3302 H3315 0.962 . S
C3302 H3316 0.960 . S
C3303 C3300 1.511 . S
C3303 H3317 0.961 . S
C3303 H3318 0.961 . S
C3303 H3319 0.961 . S
C3304 C3305 1.370 . S
C3304 C3306 1.363 . S
C3304 H3320 0.931 . S
C3305 C3304 1.370 . S
C3305 C3309 1.408 . S
C3306 C3304 1.363 . S
C3306 C3307 1.370 . S
C3306 C3310 1.524 . S
C3307 C3299 1.503 . S
C3307 C3306 1.370 . S
C3307 C3308 1.403 . S
C3308 C3307 1.403 . S
C3308 C3309 1.404 . S
C3308 C3311 1.539 . S
C3309 C3305 1.408 . S
C3309 C3308 1.404 . S
C3309 H3321 0.930 . S
C3310 C3306 1.524 . S
C3310 H3322 0.956 . S
C3310 H3323 0.961 . S
C3310 H3324 0.961 . S
C3311 C3308 1.539 . S
C3311 H3325 0.958 . S
C3311 H3326 0.961 . S
C3311 H3327 0.960 . S
H3312 C3296 0.931 . S
H3313 C3301 0.929 . S
H3314 C3302 0.960 . S
H3315 C3302 0.962 . S
H3316 C3302 0.960 . S
H3317 C3303 0.961 . S
H3318 C3303 0.961 . S
H3319 C3303 0.961 . S
H3320 C3304 0.931 . S
H3321 C3309 0.930 . S
H3322 C3310 0.956 . S
H3323 C3310 0.961 . S
H3324 C3310 0.961 . S
H3325 C3311 0.958 . S
H3326 C3311 0.961 . S
H3327 C3311 0.960 . S
C3328 C3329 1.391 . S
C3328 C3330 1.394 . S
C3328 H3344 0.931 . S
C3329 C3328 1.391 . S
C3329 C3333 1.376 . S
C3330 C3328 1.394 . S
C3330 C3331 1.369 . S
C3330 C3334 1.531 . S
C3331 C3330 1.369 . S
C3331 C3332 1.410 . S
C3331 C3339 1.503 . S
C3332 C3331 1.410 . S
C3332 C3333 1.392 . S
C3332 C3335 1.511 . S
C3333 C3329 1.376 . S
C3333 C3332 1.392 . S
C3333 H3345 0.929 . S
C3334 C3330 1.531 . S
C3334 H3346 0.960 . S
C3334 H3347 0.962 . S
C3334 H3348 0.960 . S
C3335 C3332 1.511 . S
C3335 H3349 0.961 . S
C3335 H3350 0.961 . S
C3335 H3351 0.961 . S
C3336 C3337 1.370 . S
C3336 C3338 1.363 . S
C3336 H3352 0.931 . S
C3337 C3336 1.370 . S
C3337 C3341 1.408 . S
C3338 C3336 1.363 . S
C3338 C3339 1.370 . S
C3338 C3342 1.524 . S
C3339 C3331 1.503 . S
C3339 C3338 1.370 . S
C3339 C3340 1.403 . S
C3340 C3339 1.403 . S
C3340 C3341 1.404 . S
C3340 C3343 1.539 . S
C3341 C3337 1.408 . S
C3341 C3340 1.404 . S
C3341 H3353 0.930 . S
C3342 C3338 1.524 . S
C3342 H3354 0.956 . S
C3342 H3355 0.961 . S
C3342 H3356 0.961 . S
C3343 C3340 1.539 . S
C3343 H3357 0.958 . S
C3343 H3358 0.961 . S
C3343 H3359 0.960 . S
H3344 C3328 0.931 . S
H3345 C3333 0.929 . S
H3346 C3334 0.960 . S
H3347 C3334 0.962 . S
H3348 C3334 0.960 . S
H3349 C3335 0.961 . S
H3350 C3335 0.961 . S
H3351 C3335 0.961 . S
H3352 C3336 0.931 . S
H3353 C3341 0.930 . S
H3354 C3342 0.956 . S
H3355 C3342 0.961 . S
H3356 C3342 0.961 . S
H3357 C3343 0.958 . S
H3358 C3343 0.961 . S
H3359 C3343 0.960 . S
C3360 C3361 1.391 . S
C3360 C3362 1.394 . S
C3360 H3376 0.931 . S
C3361 C3360 1.391 . S
C3361 C3365 1.376 . S
C3362 C3360 1.394 . S
C3362 C3363 1.369 . S
C3362 C3366 1.531 . S
C3363 C3362 1.369 . S
C3363 C3364 1.410 . S
C3363 C3371 1.503 . S
C3364 C3363 1.410 . S
C3364 C3365 1.392 . S
C3364 C3367 1.511 . S
C3365 C3361 1.376 . S
C3365 C3364 1.392 . S
C3365 H3377 0.929 . S
C3366 C3362 1.531 . S
C3366 H3378 0.960 . S
C3366 H3379 0.962 . S
C3366 H3380 0.960 . S
C3367 C3364 1.511 . S
C3367 H3381 0.961 . S
C3367 H3382 0.961 . S
C3367 H3383 0.961 . S
C3368 C3369 1.370 . S
C3368 C3370 1.363 . S
C3368 H3384 0.931 . S
C3369 C3368 1.370 . S
C3369 C3373 1.408 . S
C3370 C3368 1.363 . S
C3370 C3371 1.370 . S
C3370 C3374 1.524 . S
C3371 C3363 1.503 . S
C3371 C3370 1.370 . S
C3371 C3372 1.403 . S
C3372 C3371 1.403 . S
C3372 C3373 1.404 . S
C3372 C3375 1.539 . S
C3373 C3369 1.408 . S
C3373 C3372 1.404 . S
C3373 H3385 0.930 . S
C3374 C3370 1.524 . S
C3374 H3386 0.956 . S
C3374 H3387 0.961 . S
C3374 H3388 0.961 . S
C3375 C3372 1.539 . S
C3375 H3389 0.958 . S
C3375 H3390 0.961 . S
C3375 H3391 0.960 . S
H3376 C3360 0.931 . S
H3377 C3365 0.929 . S
H3378 C3366 0.960 . S
H3379 C3366 0.962 . S
H3380 C3366 0.960 . S
H3381 C3367 0.961 . S
H3382 C3367 0.961 . S
H3383 C3367 0.961 . S
H3384 C3368 0.931 . S
H3385 C3373 0.930 . S
H3386 C3374 0.956 . S
H3387 C3374 0.961 . S
H3388 C3374 0.961 . S
H3389 C3375 0.958 . S
H3390 C3375 0.961 . S
H3391 C3375 0.960 . S
C3392 C3393 1.391 . S
C3392 C3394 1.394 . S
C3392 H3408 0.931 . S
C3393 C3392 1.391 . S
C3393 C3397 1.376 . S
C3394 C3392 1.394 . S
C3394 C3395 1.369 . S
C3394 C3398 1.531 . S
C3395 C3394 1.369 . S
C3395 C3396 1.410 . S
C3395 C3403 1.503 . S
C3396 C3395 1.410 . S
C3396 C3397 1.392 . S
C3396 C3399 1.511 . S
C3397 C3393 1.376 . S
C3397 C3396 1.392 . S
C3397 H3409 0.929 . S
C3398 C3394 1.531 . S
C3398 H3410 0.960 . S
C3398 H3411 0.962 . S
C3398 H3412 0.960 . S
C3399 C3396 1.511 . S
C3399 H3413 0.961 . S
C3399 H3414 0.961 . S
C3399 H3415 0.961 . S
C3400 C3401 1.370 . S
C3400 C3402 1.363 . S
C3400 H3416 0.931 . S
C3401 C3400 1.370 . S
C3401 C3405 1.408 . S
C3402 C3400 1.363 . S
C3402 C3403 1.370 . S
C3402 C3406 1.524 . S
C3403 C3395 1.503 . S
C3403 C3402 1.370 . S
C3403 C3404 1.403 . S
C3404 C3403 1.403 . S
C3404 C3405 1.404 . S
C3404 C3407 1.539 . S
C3405 C3401 1.408 . S
C3405 C3404 1.404 . S
C3405 H3417 0.930 . S
C3406 C3402 1.524 . S
C3406 H3418 0.956 . S
C3406 H3419 0.961 . S
C3406 H3420 0.961 . S
C3407 C3404 1.539 . S
C3407 H3421 0.958 . S
C3407 H3422 0.961 . S
C3407 H3423 0.960 . S
H3408 C3392 0.931 . S
H3409 C3397 0.929 . S
H3410 C3398 0.960 . S
H3411 C3398 0.962 . S
H3412 C3398 0.960 . S
H3413 C3399 0.961 . S
H3414 C3399 0.961 . S
H3415 C3399 0.961 . S
H3416 C3400 0.931 . S
H3417 C3405 0.930 . S
H3418 C3406 0.956 . S
H3419 C3406 0.961 . S
H3420 C3406 0.961 . S
H3421 C3407 0.958 . S
H3422 C3407 0.961 . S
H3423 C3407 0.960 . S
C3424 C3425 1.391 . S
C3424 C3426 1.394 . S
C3424 H3440 0.931 . S
C3425 C3424 1.391 . S
C3425 C3429 1.376 . S
C3426 C3424 1.394 . S
C3426 C3427 1.369 . S
C3426 C3430 1.531 . S
C3427 C3426 1.369 . S
C3427 C3428 1.410 . S
C3427 C3435 1.503 . S
C3428 C3427 1.410 . S
C3428 C3429 1.392 . S
C3428 C3431 1.511 . S
C3429 C3425 1.376 . S
C3429 C3428 1.392 . S
C3429 H3441 0.929 . S
C3430 C3426 1.531 . S
C3430 H3442 0.960 . S
C3430 H3443 0.962 . S
C3430 H3444 0.960 . S
C3431 C3428 1.511 . S
C3431 H3445 0.961 . S
C3431 H3446 0.961 . S
C3431 H3447 0.961 . S
C3432 C3433 1.370 . S
C3432 C3434 1.363 . S
C3432 H3448 0.931 . S
C3433 C3432 1.370 . S
C3433 C3437 1.408 . S
C3434 C3432 1.363 . S
C3434 C3435 1.370 . S
C3434 C3438 1.524 . S
C3435 C3427 1.503 . S
C3435 C3434 1.370 . S
C3435 C3436 1.403 . S
C3436 C3435 1.403 . S
C3436 C3437 1.404 . S
C3436 C3439 1.539 . S
C3437 C3433 1.408 . S
C3437 C3436 1.404 . S
C3437 H3449 0.930 . S
C3438 C3434 1.524 . S
C3438 H3450 0.956 . S
C3438 H3451 0.961 . S
C3438 H3452 0.961 . S
C3439 C3436 1.539 . S
C3439 H3453 0.958 . S
C3439 H3454 0.961 . S
C3439 H3455 0.960 . S
H3440 C3424 0.931 . S
H3441 C3429 0.929 . S
H3442 C3430 0.960 . S
H3443 C3430 0.962 . S
H3444 C3430 0.960 . S
H3445 C3431 0.961 . S
H3446 C3431 0.961 . S
H3447 C3431 0.961 . S
H3448 C3432 0.931 . S
H3449 C3437 0.930 . S
H3450 C3438 0.956 . S
H3451 C3438 0.961 . S
H3452 C3438 0.961 . S
H3453 C3439 0.958 . S
H3454 C3439 0.961 . S
H3455 C3439 0.960 . S
C3456 C3457 1.391 . S
C3456 C3458 1.394 . S
C3456 H3472 0.931 . S
C3457 C3456 1.391 . S
C3457 C3461 1.376 . S
C3458 C3456 1.394 . S
C3458 C3459 1.369 . S
C3458 C3462 1.531 . S
C3459 C3458 1.369 . S
C3459 C3460 1.410 . S
C3459 C3467 1.503 . S
C3460 C3459 1.410 . S
C3460 C3461 1.392 . S
C3460 C3463 1.511 . S
C3461 C3457 1.376 . S
C3461 C3460 1.392 . S
C3461 H3473 0.929 . S
C3462 C3458 1.531 . S
C3462 H3474 0.960 . S
C3462 H3475 0.962 . S
C3462 H3476 0.960 . S
C3463 C3460 1.511 . S
C3463 H3477 0.961 . S
C3463 H3478 0.961 . S
C3463 H3479 0.961 . S
C3464 C3465 1.370 . S
C3464 C3466 1.363 . S
C3464 H3480 0.931 . S
C3465 C3464 1.370 . S
C3465 C3469 1.408 . S
C3466 C3464 1.363 . S
C3466 C3467 1.370 . S
C3466 C3470 1.524 . S
C3467 C3459 1.503 . S
C3467 C3466 1.370 . S
C3467 C3468 1.403 . S
C3468 C3467 1.403 . S
C3468 C3469 1.404 . S
C3468 C3471 1.539 . S
C3469 C3465 1.408 . S
C3469 C3468 1.404 . S
C3469 H3481 0.930 . S
C3470 C3466 1.524 . S
C3470 H3482 0.956 . S
C3470 H3483 0.961 . S
C3470 H3484 0.961 . S
C3471 C3468 1.539 . S
C3471 H3485 0.958 . S
C3471 H3486 0.961 . S
C3471 H3487 0.960 . S
H3472 C3456 0.931 . S
H3473 C3461 0.929 . S
H3474 C3462 0.960 . S
H3475 C3462 0.962 . S
H3476 C3462 0.960 . S
H3477 C3463 0.961 . S
H3478 C3463 0.961 . S
H3479 C3463 0.961 . S
H3480 C3464 0.931 . S
H3481 C3469 0.930 . S
H3482 C3470 0.956 . S
H3483 C3470 0.961 . S
H3484 C3470 0.961 . S
H3485 C3471 0.958 . S
H3486 C3471 0.961 . S
H3487 C3471 0.960 . S
C3488 C3489 1.391 . S
C3488 C3490 1.394 . S
C3488 H3504 0.931 . S
C3489 C3488 1.391 . S
C3489 C3493 1.376 . S
C3490 C3488 1.394 . S
C3490 C3491 1.369 . S
C3490 C3494 1.531 . S
C3491 C3490 1.369 . S
C3491 C3492 1.410 . S
C3491 C3499 1.503 . S
C3492 C3491 1.410 . S
C3492 C3493 1.392 . S
C3492 C3495 1.511 . S
C3493 C3489 1.376 . S
C3493 C3492 1.392 . S
C3493 H3505 0.929 . S
C3494 C3490 1.531 . S
C3494 H3506 0.960 . S
C3494 H3507 0.962 . S
C3494 H3508 0.960 . S
C3495 C3492 1.511 . S
C3495 H3509 0.961 . S
C3495 H3510 0.961 . S
C3495 H3511 0.961 . S
C3496 C3497 1.370 . S
C3496 C3498 1.363 . S
C3496 H3512 0.931 . S
C3497 C3496 1.370 . S
C3497 C3501 1.408 . S
C3498 C3496 1.363 . S
C3498 C3499 1.370 . S
C3498 C3502 1.524 . S
C3499 C3491 1.503 . S
C3499 C3498 1.370 . S
C3499 C3500 1.403 . S
C3500 C3499 1.403 . S
C3500 C3501 1.404 . S
C3500 C3503 1.539 . S
C3501 C3497 1.408 . S
C3501 C3500 1.404 . S
C3501 H3513 0.930 . S
C3502 C3498 1.524 . S
C3502 H3514 0.956 . S
C3502 H3515 0.961 . S
C3502 H3516 0.961 . S
C3503 C3500 1.539 . S
C3503 H3517 0.958 . S
C3503 H3518 0.961 . S
C3503 H3519 0.960 . S
H3504 C3488 0.931 . S
H3505 C3493 0.929 . S
H3506 C3494 0.960 . S
H3507 C3494 0.962 . S
H3508 C3494 0.960 . S
H3509 C3495 0.961 . S
H3510 C3495 0.961 . S
H3511 C3495 0.961 . S
H3512 C3496 0.931 . S
H3513 C3501 0.930 . S
H3514 C3502 0.956 . S
H3515 C3502 0.961 . S
H3516 C3502 0.961 . S
H3517 C3503 0.958 . S
H3518 C3503 0.961 . S
H3519 C3503 0.960 . S
C3520 C3521 1.391 . S
C3520 C3522 1.394 . S
C3520 H3536 0.931 . S
C3521 C3520 1.391 . S
C3521 C3525 1.376 . S
C3522 C3520 1.394 . S
C3522 C3523 1.369 . S
C3522 C3526 1.531 . S
C3523 C3522 1.369 . S
C3523 C3524 1.410 . S
C3523 C3531 1.503 . S
C3524 C3523 1.410 . S
C3524 C3525 1.392 . S
C3524 C3527 1.511 . S
C3525 C3521 1.376 . S
C3525 C3524 1.392 . S
C3525 H3537 0.929 . S
C3526 C3522 1.531 . S
C3526 H3538 0.960 . S
C3526 H3539 0.962 . S
C3526 H3540 0.960 . S
C3527 C3524 1.511 . S
C3527 H3541 0.961 . S
C3527 H3542 0.961 . S
C3527 H3543 0.961 . S
C3528 C3529 1.370 . S
C3528 C3530 1.363 . S
C3528 H3544 0.931 . S
C3529 C3528 1.370 . S
C3529 C3533 1.408 . S
C3530 C3528 1.363 . S
C3530 C3531 1.370 . S
C3530 C3534 1.524 . S
C3531 C3523 1.503 . S
C3531 C3530 1.370 . S
C3531 C3532 1.403 . S
C3532 C3531 1.403 . S
C3532 C3533 1.404 . S
C3532 C3535 1.539 . S
C3533 C3529 1.408 . S
C3533 C3532 1.404 . S
C3533 H3545 0.930 . S
C3534 C3530 1.524 . S
C3534 H3546 0.956 . S
C3534 H3547 0.961 . S
C3534 H3548 0.961 . S
C3535 C3532 1.539 . S
C3535 H3549 0.958 . S
C3535 H3550 0.961 . S
C3535 H3551 0.960 . S
H3536 C3520 0.931 . S
H3537 C3525 0.929 . S
H3538 C3526 0.960 . S
H3539 C3526 0.962 . S
H3540 C3526 0.960 . S
H3541 C3527 0.961 . S
H3542 C3527 0.961 . S
H3543 C3527 0.961 . S
H3544 C3528 0.931 . S
H3545 C3533 0.930 . S
H3546 C3534 0.956 . S
H3547 C3534 0.961 . S
H3548 C3534 0.961 . S
H3549 C3535 0.958 . S
H3550 C3535 0.961 . S
H3551 C3535 0.960 . S
C3552 C3553 1.391 . S
C3552 C3554 1.394 . S
C3552 H3568 0.931 . S
C3553 C3552 1.391 . S
C3553 C3557 1.376 . S
C3554 C3552 1.394 . S
C3554 C3555 1.369 . S
C3554 C3558 1.531 . S
C3555 C3554 1.369 . S
C3555 C3556 1.410 . S
C3555 C3563 1.503 . S
C3556 C3555 1.410 . S
C3556 C3557 1.392 . S
C3556 C3559 1.511 . S
C3557 C3553 1.376 . S
C3557 C3556 1.392 . S
C3557 H3569 0.929 . S
C3558 C3554 1.531 . S
C3558 H3570 0.960 . S
C3558 H3571 0.962 . S
C3558 H3572 0.960 . S
C3559 C3556 1.511 . S
C3559 H3573 0.961 . S
C3559 H3574 0.961 . S
C3559 H3575 0.961 . S
C3560 C3561 1.370 . S
C3560 C3562 1.363 . S
C3560 H3576 0.931 . S
C3561 C3560 1.370 . S
C3561 C3565 1.408 . S
C3562 C3560 1.363 . S
C3562 C3563 1.370 . S
C3562 C3566 1.524 . S
C3563 C3555 1.503 . S
C3563 C3562 1.370 . S
C3563 C3564 1.403 . S
C3564 C3563 1.403 . S
C3564 C3565 1.404 . S
C3564 C3567 1.539 . S
C3565 C3561 1.408 . S
C3565 C3564 1.404 . S
C3565 H3577 0.930 . S
C3566 C3562 1.524 . S
C3566 H3578 0.956 . S
C3566 H3579 0.961 . S
C3566 H3580 0.961 . S
C3567 C3564 1.539 . S
C3567 H3581 0.958 . S
C3567 H3582 0.961 . S
C3567 H3583 0.960 . S
H3568 C3552 0.931 . S
H3569 C3557 0.929 . S
H3570 C3558 0.960 . S
H3571 C3558 0.962 . S
H3572 C3558 0.960 . S
H3573 C3559 0.961 . S
H3574 C3559 0.961 . S
H3575 C3559 0.961 . S
H3576 C3560 0.931 . S
H3577 C3565 0.930 . S
H3578 C3566 0.956 . S
H3579 C3566 0.961 . S
H3580 C3566 0.961 . S
H3581 C3567 0.958 . S
H3582 C3567 0.961 . S
H3583 C3567 0.960 . S
C3584 C3585 1.391 . S
C3584 C3586 1.394 . S
C3584 H3600 0.931 . S
C3585 C3584 1.391 . S
C3585 C3589 1.376 . S
C3586 C3584 1.394 . S
C3586 C3587 1.369 . S
C3586 C3590 1.531 . S
C3587 C3586 1.369 . S
C3587 C3588 1.410 . S
C3587 C3595 1.503 . S
C3588 C3587 1.410 . S
C3588 C3589 1.392 . S
C3588 C3591 1.511 . S
C3589 C3585 1.376 . S
C3589 C3588 1.392 . S
C3589 H3601 0.929 . S
C3590 C3586 1.531 . S
C3590 H3602 0.960 . S
C3590 H3603 0.962 . S
C3590 H3604 0.960 . S
C3591 C3588 1.511 . S
C3591 H3605 0.961 . S
C3591 H3606 0.961 . S
C3591 H3607 0.961 . S
C3592 C3593 1.370 . S
C3592 C3594 1.363 . S
C3592 H3608 0.931 . S
C3593 C3592 1.370 . S
C3593 C3597 1.408 . S
C3594 C3592 1.363 . S
C3594 C3595 1.370 . S
C3594 C3598 1.524 . S
C3595 C3587 1.503 . S
C3595 C3594 1.370 . S
C3595 C3596 1.403 . S
C3596 C3595 1.403 . S
C3596 C3597 1.404 . S
C3596 C3599 1.539 . S
C3597 C3593 1.408 . S
C3597 C3596 1.404 . S
C3597 H3609 0.930 . S
C3598 C3594 1.524 . S
C3598 H3610 0.956 . S
C3598 H3611 0.961 . S
C3598 H3612 0.961 . S
C3599 C3596 1.539 . S
C3599 H3613 0.958 . S
C3599 H3614 0.961 . S
C3599 H3615 0.960 . S
H3600 C3584 0.931 . S
H3601 C3589 0.929 . S
H3602 C3590 0.960 . S
H3603 C3590 0.962 . S
H3604 C3590 0.960 . S
H3605 C3591 0.961 . S
H3606 C3591 0.961 . S
H3607 C3591 0.961 . S
H3608 C3592 0.931 . S
H3609 C3597 0.930 . S
H3610 C3598 0.956 . S
H3611 C3598 0.961 . S
H3612 C3598 0.961 . S
H3613 C3599 0.958 . S
H3614 C3599 0.961 . S
H3615 C3599 0.960 . S
C3616 C3617 1.391 . S
C3616 C3618 1.394 . S
C3616 H3632 0.931 1_556 S
C3617 C3616 1.391 . S
C3617 C3621 1.376 . S
C3618 C3616 1.394 . S
C3618 C3619 1.369 . S
C3618 C3622 1.531 . S
C3619 C3618 1.369 . S
C3619 C3620 1.410 . S
C3619 C3627 1.503 . S
C3620 C3619 1.410 . S
C3620 C3621 1.392 . S
C3620 C3623 1.511 . S
C3621 C3617 1.376 . S
C3621 C3620 1.392 . S
C3621 H3633 0.929 . S
C3622 C3618 1.531 . S
C3622 H3634 0.960 . S
C3622 H3635 0.962 . S
C3622 H3636 0.960 . S
C3623 C3620 1.511 . S
C3623 H3637 0.961 . S
C3623 H3638 0.961 . S
C3623 H3639 0.961 . S
C3624 C3625 1.370 . S
C3624 C3626 1.363 . S
C3624 H3640 0.931 . S
C3625 C3624 1.370 . S
C3625 C3629 1.408 . S
C3626 C3624 1.363 . S
C3626 C3627 1.370 . S
C3626 C3630 1.524 . S
C3627 C3619 1.503 . S
C3627 C3626 1.370 . S
C3627 C3628 1.403 . S
C3628 C3627 1.403 . S
C3628 C3629 1.404 . S
C3628 C3631 1.539 . S
C3629 C3625 1.408 . S
C3629 C3628 1.404 . S
C3629 H3641 0.930 . S
C3630 C3626 1.524 . S
C3630 H3642 0.956 . S
C3630 H3643 0.961 . S
C3630 H3644 0.961 . S
C3631 C3628 1.539 . S
C3631 H3645 0.958 . S
C3631 H3646 0.961 . S
C3631 H3647 0.960 . S
H3632 C3616 0.931 1_554 S
H3633 C3621 0.929 . S
H3634 C3622 0.960 . S
H3635 C3622 0.962 . S
H3636 C3622 0.960 . S
H3637 C3623 0.961 . S
H3638 C3623 0.961 . S
H3639 C3623 0.961 . S
H3640 C3624 0.931 . S
H3641 C3629 0.930 . S
H3642 C3630 0.956 . S
H3643 C3630 0.961 . S
H3644 C3630 0.961 . S
H3645 C3631 0.958 . S
H3646 C3631 0.961 . S
H3647 C3631 0.960 . S
C3648 C3649 1.391 . S
C3648 C3650 1.394 . S
C3648 H3664 0.931 1_556 S
C3649 C3648 1.391 . S
C3649 C3653 1.376 . S
C3650 C3648 1.394 . S
C3650 C3651 1.369 . S
C3650 C3654 1.531 . S
C3651 C3650 1.369 . S
C3651 C3652 1.410 . S
C3651 C3659 1.503 . S
C3652 C3651 1.410 . S
C3652 C3653 1.392 . S
C3652 C3655 1.511 . S
C3653 C3649 1.376 . S
C3653 C3652 1.392 . S
C3653 H3665 0.929 . S
C3654 C3650 1.531 . S
C3654 H3666 0.960 . S
C3654 H3667 0.962 . S
C3654 H3668 0.960 1_556 S
C3655 C3652 1.511 . S
C3655 H3669 0.961 . S
C3655 H3670 0.961 . S
C3655 H3671 0.961 . S
C3656 C3657 1.370 . S
C3656 C3658 1.363 . S
C3656 H3672 0.931 . S
C3657 C3656 1.370 . S
C3657 C3661 1.408 . S
C3658 C3656 1.363 . S
C3658 C3659 1.370 . S
C3658 C3662 1.524 . S
C3659 C3651 1.503 . S
C3659 C3658 1.370 . S
C3659 C3660 1.403 . S
C3660 C3659 1.403 . S
C3660 C3661 1.404 . S
C3660 C3663 1.539 . S
C3661 C3657 1.408 . S
C3661 C3660 1.404 . S
C3661 H3673 0.930 . S
C3662 C3658 1.524 . S
C3662 H3674 0.956 . S
C3662 H3675 0.961 . S
C3662 H3676 0.961 . S
C3663 C3660 1.539 . S
C3663 H3677 0.958 . S
C3663 H3678 0.961 . S
C3663 H3679 0.960 . S
H3664 C3648 0.931 1_554 S
H3665 C3653 0.929 . S
H3666 C3654 0.960 . S
H3667 C3654 0.962 . S
H3668 C3654 0.960 1_554 S
H3669 C3655 0.961 . S
H3670 C3655 0.961 . S
H3671 C3655 0.961 . S
H3672 C3656 0.931 . S
H3673 C3661 0.930 . S
H3674 C3662 0.956 . S
H3675 C3662 0.961 . S
H3676 C3662 0.961 . S
H3677 C3663 0.958 . S
H3678 C3663 0.961 . S
H3679 C3663 0.960 . S
C3680 C3681 1.391 . S
C3680 C3682 1.394 . S
C3680 H3696 0.931 . S
C3681 C3680 1.391 . S
C3681 C3685 1.376 . S
C3682 C3680 1.394 . S
C3682 C3683 1.369 . S
C3682 C3686 1.531 . S
C3683 C3682 1.369 . S
C3683 C3684 1.410 . S
C3683 C3691 1.503 . S
C3684 C3683 1.410 . S
C3684 C3685 1.392 . S
C3684 C3687 1.511 . S
C3685 C3681 1.376 . S
C3685 C3684 1.392 . S
C3685 H3697 0.929 . S
C3686 C3682 1.531 . S
C3686 H3698 0.960 . S
C3686 H3699 0.962 . S
C3686 H3700 0.960 . S
C3687 C3684 1.511 . S
C3687 H3701 0.961 . S
C3687 H3702 0.961 . S
C3687 H3703 0.961 . S
C3688 C3689 1.370 . S
C3688 C3690 1.363 . S
C3688 H3704 0.931 . S
C3689 C3688 1.370 . S
C3689 C3693 1.408 . S
C3690 C3688 1.363 . S
C3690 C3691 1.370 . S
C3690 C3694 1.524 . S
C3691 C3683 1.503 . S
C3691 C3690 1.370 . S
C3691 C3692 1.403 . S
C3692 C3691 1.403 . S
C3692 C3693 1.404 . S
C3692 C3695 1.539 . S
C3693 C3689 1.408 . S
C3693 C3692 1.404 . S
C3693 H3705 0.930 . S
C3694 C3690 1.524 . S
C3694 H3706 0.956 . S
C3694 H3707 0.961 . S
C3694 H3708 0.961 . S
C3695 C3692 1.539 . S
C3695 H3709 0.958 . S
C3695 H3710 0.961 . S
C3695 H3711 0.960 . S
H3696 C3680 0.931 . S
H3697 C3685 0.929 . S
H3698 C3686 0.960 . S
H3699 C3686 0.962 . S
H3700 C3686 0.960 . S
H3701 C3687 0.961 . S
H3702 C3687 0.961 . S
H3703 C3687 0.961 . S
H3704 C3688 0.931 . S
H3705 C3693 0.930 . S
H3706 C3694 0.956 . S
H3707 C3694 0.961 . S
H3708 C3694 0.961 . S
H3709 C3695 0.958 . S
H3710 C3695 0.961 . S
H3711 C3695 0.960 . S
C3712 C3713 1.391 . S
C3712 C3714 1.394 . S
C3712 H3728 0.931 1_556 S
C3713 C3712 1.391 . S
C3713 C3717 1.376 . S
C3714 C3712 1.394 . S
C3714 C3715 1.369 . S
C3714 C3718 1.531 . S
C3715 C3714 1.369 . S
C3715 C3716 1.410 . S
C3715 C3723 1.503 . S
C3716 C3715 1.410 . S
C3716 C3717 1.392 . S
C3716 C3719 1.511 . S
C3717 C3713 1.376 . S
C3717 C3716 1.392 . S
C3717 H3729 0.929 . S
C3718 C3714 1.531 . S
C3718 H3730 0.960 . S
C3718 H3731 0.962 . S
C3718 H3732 0.960 . S
C3719 C3716 1.511 . S
C3719 H3733 0.961 . S
C3719 H3734 0.961 . S
C3719 H3735 0.961 . S
C3720 C3721 1.370 . S
C3720 C3722 1.363 . S
C3720 H3736 0.931 . S
C3721 C3720 1.370 . S
C3721 C3725 1.408 . S
C3722 C3720 1.363 . S
C3722 C3723 1.370 . S
C3722 C3726 1.524 . S
C3723 C3715 1.503 . S
C3723 C3722 1.370 . S
C3723 C3724 1.403 . S
C3724 C3723 1.403 . S
C3724 C3725 1.404 . S
C3724 C3727 1.539 . S
C3725 C3721 1.408 . S
C3725 C3724 1.404 . S
C3725 H3737 0.930 . S
C3726 C3722 1.524 . S
C3726 H3738 0.956 . S
C3726 H3739 0.961 . S
C3726 H3740 0.961 . S
C3727 C3724 1.539 . S
C3727 H3741 0.958 . S
C3727 H3742 0.961 . S
C3727 H3743 0.960 . S
H3728 C3712 0.931 1_554 S
H3729 C3717 0.929 . S
H3730 C3718 0.960 . S
H3731 C3718 0.962 . S
H3732 C3718 0.960 . S
H3733 C3719 0.961 . S
H3734 C3719 0.961 . S
H3735 C3719 0.961 . S
H3736 C3720 0.931 . S
H3737 C3725 0.930 . S
H3738 C3726 0.956 . S
H3739 C3726 0.961 . S
H3740 C3726 0.961 . S
H3741 C3727 0.958 . S
H3742 C3727 0.961 . S
H3743 C3727 0.960 . S
C3744 C3745 1.391 . S
C3744 C3746 1.394 . S
C3744 H3760 0.931 . S
C3745 C3744 1.391 . S
C3745 C3749 1.376 . S
C3746 C3744 1.394 . S
C3746 C3747 1.369 . S
C3746 C3750 1.531 . S
C3747 C3746 1.369 . S
C3747 C3748 1.410 . S
C3747 C3755 1.503 . S
C3748 C3747 1.410 . S
C3748 C3749 1.392 . S
C3748 C3751 1.511 . S
C3749 C3745 1.376 . S
C3749 C3748 1.392 . S
C3749 H3761 0.929 . S
C3750 C3746 1.531 . S
C3750 H3762 0.960 . S
C3750 H3763 0.962 . S
C3750 H3764 0.960 . S
C3751 C3748 1.511 . S
C3751 H3765 0.961 . S
C3751 H3766 0.961 . S
C3751 H3767 0.961 . S
C3752 C3753 1.370 . S
C3752 C3754 1.363 . S
C3752 H3768 0.931 . S
C3753 C3752 1.370 . S
C3753 C3757 1.408 . S
C3754 C3752 1.363 . S
C3754 C3755 1.370 . S
C3754 C3758 1.524 . S
C3755 C3747 1.503 . S
C3755 C3754 1.370 . S
C3755 C3756 1.403 . S
C3756 C3755 1.403 . S
C3756 C3757 1.404 . S
C3756 C3759 1.539 . S
C3757 C3753 1.408 . S
C3757 C3756 1.404 . S
C3757 H3769 0.930 . S
C3758 C3754 1.524 . S
C3758 H3770 0.956 . S
C3758 H3771 0.961 . S
C3758 H3772 0.961 . S
C3759 C3756 1.539 . S
C3759 H3773 0.958 . S
C3759 H3774 0.961 . S
C3759 H3775 0.960 . S
H3760 C3744 0.931 . S
H3761 C3749 0.929 . S
H3762 C3750 0.960 . S
H3763 C3750 0.962 . S
H3764 C3750 0.960 . S
H3765 C3751 0.961 . S
H3766 C3751 0.961 . S
H3767 C3751 0.961 . S
H3768 C3752 0.931 . S
H3769 C3757 0.930 . S
H3770 C3758 0.956 . S
H3771 C3758 0.961 . S
H3772 C3758 0.961 . S
H3773 C3759 0.958 . S
H3774 C3759 0.961 . S
H3775 C3759 0.960 . S
C3776 C3777 1.391 . S
C3776 C3778 1.394 . S
C3776 H3792 0.931 . S
C3777 C3776 1.391 . S
C3777 C3781 1.376 . S
C3778 C3776 1.394 . S
C3778 C3779 1.369 . S
C3778 C3782 1.531 . S
C3779 C3778 1.369 . S
C3779 C3780 1.410 . S
C3779 C3787 1.503 . S
C3780 C3779 1.410 . S
C3780 C3781 1.392 . S
C3780 C3783 1.511 . S
C3781 C3777 1.376 . S
C3781 C3780 1.392 . S
C3781 H3793 0.929 . S
C3782 C3778 1.531 . S
C3782 H3794 0.960 . S
C3782 H3795 0.962 . S
C3782 H3796 0.960 . S
C3783 C3780 1.511 . S
C3783 H3797 0.961 . S
C3783 H3798 0.961 . S
C3783 H3799 0.961 . S
C3784 C3785 1.370 . S
C3784 C3786 1.363 . S
C3784 H3800 0.931 . S
C3785 C3784 1.370 . S
C3785 C3789 1.408 . S
C3786 C3784 1.363 . S
C3786 C3787 1.370 . S
C3786 C3790 1.524 . S
C3787 C3779 1.503 . S
C3787 C3786 1.370 . S
C3787 C3788 1.403 . S
C3788 C3787 1.403 . S
C3788 C3789 1.404 . S
C3788 C3791 1.539 . S
C3789 C3785 1.408 . S
C3789 C3788 1.404 . S
C3789 H3801 0.930 . S
C3790 C3786 1.524 . S
C3790 H3802 0.956 . S
C3790 H3803 0.961 . S
C3790 H3804 0.961 . S
C3791 C3788 1.539 . S
C3791 H3805 0.958 . S
C3791 H3806 0.961 . S
C3791 H3807 0.960 . S
H3792 C3776 0.931 . S
H3793 C3781 0.929 . S
H3794 C3782 0.960 . S
H3795 C3782 0.962 . S
H3796 C3782 0.960 . S
H3797 C3783 0.961 . S
H3798 C3783 0.961 . S
H3799 C3783 0.961 . S
H3800 C3784 0.931 . S
H3801 C3789 0.930 . S
H3802 C3790 0.956 . S
H3803 C3790 0.961 . S
H3804 C3790 0.961 . S
H3805 C3791 0.958 . S
H3806 C3791 0.961 . S
H3807 C3791 0.960 . S
C3808 C3809 1.391 . S
C3808 C3810 1.394 . S
C3808 H3824 0.931 . S
C3809 C3808 1.391 . S
C3809 C3813 1.376 . S
C3810 C3808 1.394 . S
C3810 C3811 1.369 . S
C3810 C3814 1.531 . S
C3811 C3810 1.369 . S
C3811 C3812 1.410 . S
C3811 C3819 1.503 . S
C3812 C3811 1.410 . S
C3812 C3813 1.392 . S
C3812 C3815 1.511 . S
C3813 C3809 1.376 . S
C3813 C3812 1.392 . S
C3813 H3825 0.929 . S
C3814 C3810 1.531 . S
C3814 H3826 0.960 . S
C3814 H3827 0.962 . S
C3814 H3828 0.960 . S
C3815 C3812 1.511 . S
C3815 H3829 0.961 . S
C3815 H3830 0.961 . S
C3815 H3831 0.961 . S
C3816 C3817 1.370 . S
C3816 C3818 1.363 . S
C3816 H3832 0.931 . S
C3817 C3816 1.370 . S
C3817 C3821 1.408 . S
C3818 C3816 1.363 . S
C3818 C3819 1.370 . S
C3818 C3822 1.524 . S
C3819 C3811 1.503 . S
C3819 C3818 1.370 . S
C3819 C3820 1.403 . S
C3820 C3819 1.403 . S
C3820 C3821 1.404 . S
C3820 C3823 1.539 . S
C3821 C3817 1.408 . S
C3821 C3820 1.404 . S
C3821 H3833 0.930 . S
C3822 C3818 1.524 . S
C3822 H3834 0.956 . S
C3822 H3835 0.961 . S
C3822 H3836 0.961 . S
C3823 C3820 1.539 . S
C3823 H3837 0.958 . S
C3823 H3838 0.961 . S
C3823 H3839 0.960 . S
H3824 C3808 0.931 . S
H3825 C3813 0.929 . S
H3826 C3814 0.960 . S
H3827 C3814 0.962 . S
H3828 C3814 0.960 . S
H3829 C3815 0.961 . S
H3830 C3815 0.961 . S
H3831 C3815 0.961 . S
H3832 C3816 0.931 . S
H3833 C3821 0.930 . S
H3834 C3822 0.956 . S
H3835 C3822 0.961 . S
H3836 C3822 0.961 . S
H3837 C3823 0.958 . S
H3838 C3823 0.961 . S
H3839 C3823 0.960 . S
C3840 C3841 1.391 . S
C3840 C3842 1.394 . S
C3840 H3856 0.931 . S
C3841 C3840 1.391 . S
C3841 C3845 1.376 . S
C3842 C3840 1.394 . S
C3842 C3843 1.369 . S
C3842 C3846 1.531 . S
C3843 C3842 1.369 . S
C3843 C3844 1.410 . S
C3843 C3851 1.503 . S
C3844 C3843 1.410 . S
C3844 C3845 1.392 . S
C3844 C3847 1.511 . S
C3845 C3841 1.376 . S
C3845 C3844 1.392 . S
C3845 H3857 0.929 . S
C3846 C3842 1.531 . S
C3846 H3858 0.960 . S
C3846 H3859 0.962 . S
C3846 H3860 0.960 . S
C3847 C3844 1.511 . S
C3847 H3861 0.961 . S
C3847 H3862 0.961 . S
C3847 H3863 0.961 . S
C3848 C3849 1.370 . S
C3848 C3850 1.363 . S
C3848 H3864 0.931 . S
C3849 C3848 1.370 . S
C3849 C3853 1.408 . S
C3850 C3848 1.363 . S
C3850 C3851 1.370 . S
C3850 C3854 1.524 . S
C3851 C3843 1.503 . S
C3851 C3850 1.370 . S
C3851 C3852 1.403 . S
C3852 C3851 1.403 . S
C3852 C3853 1.404 . S
C3852 C3855 1.539 . S
C3853 C3849 1.408 . S
C3853 C3852 1.404 . S
C3853 H3865 0.930 . S
C3854 C3850 1.524 . S
C3854 H3866 0.956 . S
C3854 H3867 0.961 . S
C3854 H3868 0.961 . S
C3855 C3852 1.539 . S
C3855 H3869 0.958 . S
C3855 H3870 0.961 . S
C3855 H3871 0.960 . S
H3856 C3840 0.931 . S
H3857 C3845 0.929 . S
H3858 C3846 0.960 . S
H3859 C3846 0.962 . S
H3860 C3846 0.960 . S
H3861 C3847 0.961 . S
H3862 C3847 0.961 . S
H3863 C3847 0.961 . S
H3864 C3848 0.931 . S
H3865 C3853 0.930 . S
H3866 C3854 0.956 . S
H3867 C3854 0.961 . S
H3868 C3854 0.961 . S
H3869 C3855 0.958 . S
H3870 C3855 0.961 . S
H3871 C3855 0.960 . S
C3872 C3873 1.391 . S
C3872 C3874 1.394 . S
C3872 H3888 0.931 . S
C3873 C3872 1.391 . S
C3873 C3877 1.376 . S
C3874 C3872 1.394 . S
C3874 C3875 1.369 . S
C3874 C3878 1.531 . S
C3875 C3874 1.369 . S
C3875 C3876 1.410 . S
C3875 C3883 1.503 . S
C3876 C3875 1.410 . S
C3876 C3877 1.392 . S
C3876 C3879 1.511 . S
C3877 C3873 1.376 . S
C3877 C3876 1.392 . S
C3877 H3889 0.929 . S
C3878 C3874 1.531 . S
C3878 H3890 0.960 . S
C3878 H3891 0.962 . S
C3878 H3892 0.960 . S
C3879 C3876 1.511 . S
C3879 H3893 0.961 . S
C3879 H3894 0.961 . S
C3879 H3895 0.961 . S
C3880 C3881 1.370 . S
C3880 C3882 1.363 . S
C3880 H3896 0.931 . S
C3881 C3880 1.370 . S
C3881 C3885 1.408 . S
C3882 C3880 1.363 . S
C3882 C3883 1.370 . S
C3882 C3886 1.524 . S
C3883 C3875 1.503 . S
C3883 C3882 1.370 . S
C3883 C3884 1.403 . S
C3884 C3883 1.403 . S
C3884 C3885 1.404 . S
C3884 C3887 1.539 . S
C3885 C3881 1.408 . S
C3885 C3884 1.404 . S
C3885 H3897 0.930 . S
C3886 C3882 1.524 . S
C3886 H3898 0.956 . S
C3886 H3899 0.961 . S
C3886 H3900 0.961 . S
C3887 C3884 1.539 . S
C3887 H3901 0.958 . S
C3887 H3902 0.961 . S
C3887 H3903 0.960 . S
H3888 C3872 0.931 . S
H3889 C3877 0.929 . S
H3890 C3878 0.960 . S
H3891 C3878 0.962 . S
H3892 C3878 0.960 . S
H3893 C3879 0.961 . S
H3894 C3879 0.961 . S
H3895 C3879 0.961 . S
H3896 C3880 0.931 . S
H3897 C3885 0.930 . S
H3898 C3886 0.956 . S
H3899 C3886 0.961 . S
H3900 C3886 0.961 . S
H3901 C3887 0.958 . S
H3902 C3887 0.961 . S
H3903 C3887 0.960 . S
C3904 C3905 1.391 . S
C3904 C3906 1.394 . S
C3904 H3920 0.931 . S
C3905 C3904 1.391 . S
C3905 C3909 1.376 . S
C3906 C3904 1.394 . S
C3906 C3907 1.369 . S
C3906 C3910 1.531 . S
C3907 C3906 1.369 . S
C3907 C3908 1.410 . S
C3907 C3915 1.503 . S
C3908 C3907 1.410 . S
C3908 C3909 1.392 . S
C3908 C3911 1.511 . S
C3909 C3905 1.376 . S
C3909 C3908 1.392 . S
C3909 H3921 0.929 . S
C3910 C3906 1.531 . S
C3910 H3922 0.960 . S
C3910 H3923 0.962 . S
C3910 H3924 0.960 . S
C3911 C3908 1.511 . S
C3911 H3925 0.961 . S
C3911 H3926 0.961 . S
C3911 H3927 0.961 . S
C3912 C3913 1.370 . S
C3912 C3914 1.363 . S
C3912 H3928 0.931 . S
C3913 C3912 1.370 . S
C3913 C3917 1.408 . S
C3914 C3912 1.363 . S
C3914 C3915 1.370 . S
C3914 C3918 1.524 . S
C3915 C3907 1.503 . S
C3915 C3914 1.370 . S
C3915 C3916 1.403 . S
C3916 C3915 1.403 . S
C3916 C3917 1.404 . S
C3916 C3919 1.539 . S
C3917 C3913 1.408 . S
C3917 C3916 1.404 . S
C3917 H3929 0.930 . S
C3918 C3914 1.524 . S
C3918 H3930 0.956 . S
C3918 H3931 0.961 . S
C3918 H3932 0.961 . S
C3919 C3916 1.539 . S
C3919 H3933 0.958 . S
C3919 H3934 0.961 . S
C3919 H3935 0.960 . S
H3920 C3904 0.931 . S
H3921 C3909 0.929 . S
H3922 C3910 0.960 . S
H3923 C3910 0.962 . S
H3924 C3910 0.960 . S
H3925 C3911 0.961 . S
H3926 C3911 0.961 . S
H3927 C3911 0.961 . S
H3928 C3912 0.931 . S
H3929 C3917 0.930 . S
H3930 C3918 0.956 . S
H3931 C3918 0.961 . S
H3932 C3918 0.961 . S
H3933 C3919 0.958 . S
H3934 C3919 0.961 . S
H3935 C3919 0.960 . S
C3936 C3937 1.391 . S
C3936 C3938 1.394 . S
C3936 H3952 0.906 1_455 S
C3937 C3936 1.391 . S
C3937 C3941 1.376 . S
C3938 C3936 1.394 . S
C3938 C3939 1.369 . S
C3938 C3942 1.531 1_455 S
C3939 C3938 1.369 . S
C3939 C3940 1.410 . S
C3939 C3947 1.503 . S
C3940 C3939 1.410 . S
C3940 C3941 1.392 . S
C3940 C3943 1.511 . S
C3941 C3937 1.376 . S
C3941 C3940 1.392 . S
C3941 H3953 0.929 . S
C3942 C3938 1.531 1_655 S
C3942 H3954 0.960 . S
C3942 H3955 0.962 . S
C3942 H3956 0.960 . S
C3943 C3940 1.511 . S
C3943 H3957 0.961 . S
C3943 H3958 0.961 . S
C3943 H3959 0.961 . S
C3944 C3945 1.370 . S
C3944 C3946 1.363 . S
C3944 H3960 0.931 1_455 S
C3945 C3944 1.370 . S
C3945 C3949 1.408 . S
C3946 C3944 1.363 . S
C3946 C3947 1.370 . S
C3946 C3950 1.524 1_455 S
C3947 C3939 1.503 . S
C3947 C3946 1.370 . S
C3947 C3948 1.403 . S
C3948 C3947 1.403 . S
C3948 C3949 1.404 . S
C3948 C3951 1.539 . S
C3949 C3945 1.408 . S
C3949 C3948 1.404 . S
C3949 H3961 0.930 . S
C3950 C3946 1.524 1_655 S
C3950 H3962 0.956 . S
C3950 H3963 0.961 1_655 S
C3950 H3964 0.961 . S
C3951 C3948 1.539 . S
C3951 H3965 0.958 . S
C3951 H3966 0.961 . S
C3951 H3967 0.960 . S
H3952 C3936 0.906 1_655 S
H3953 C3941 0.929 . S
H3954 C3942 0.960 . S
H3955 C3942 0.962 . S
H3956 C3942 0.960 . S
H3957 C3943 0.961 . S
H3958 C3943 0.961 . S
H3959 C3943 0.961 . S
H3960 C3944 0.931 1_655 S
H3961 C3949 0.930 . S
H3962 C3950 0.956 . S
H3963 C3950 0.961 1_455 S
H3964 C3950 0.961 . S
H3965 C3951 0.958 . S
H3966 C3951 0.961 . S
H3967 C3951 0.960 . S
C3968 C3969 1.391 . S
C3968 C3970 1.394 . S
C3968 H3984 0.931 . S
C3969 C3968 1.391 . S
C3969 C3973 1.376 . S
C3970 C3968 1.394 . S
C3970 C3971 1.369 . S
C3970 C3974 1.531 . S
C3971 C3970 1.369 . S
C3971 C3972 1.410 . S
C3971 C3979 1.503 . S
C3972 C3971 1.410 . S
C3972 C3973 1.392 . S
C3972 C3975 1.511 . S
C3973 C3969 1.376 . S
C3973 C3972 1.392 . S
C3973 H3985 0.929 . S
C3974 C3970 1.531 . S
C3974 H3986 0.960 . S
C3974 H3987 0.962 . S
C3974 H3988 0.960 . S
C3975 C3972 1.511 . S
C3975 H3989 0.961 . S
C3975 H3990 0.961 . S
C3975 H3991 0.961 . S
C3976 C3977 1.370 . S
C3976 C3978 1.363 . S
C3976 H3992 0.931 . S
C3977 C3976 1.370 . S
C3977 C3981 1.408 . S
C3978 C3976 1.363 . S
C3978 C3979 1.370 . S
C3978 C3982 1.524 . S
C3979 C3971 1.503 . S
C3979 C3978 1.370 . S
C3979 C3980 1.403 . S
C3980 C3979 1.403 . S
C3980 C3981 1.404 . S
C3980 C3983 1.539 . S
C3981 C3977 1.408 . S
C3981 C3980 1.404 . S
C3981 H3993 0.930 . S
C3982 C3978 1.524 . S
C3982 H3994 0.956 . S
C3982 H3995 0.961 . S
C3982 H3996 0.961 . S
C3983 C3980 1.539 . S
C3983 H3997 0.958 . S
C3983 H3998 0.961 . S
C3983 H3999 0.960 . S
H3984 C3968 0.931 . S
H3985 C3973 0.929 . S
H3986 C3974 0.960 . S
H3987 C3974 0.962 . S
H3988 C3974 0.960 . S
H3989 C3975 0.961 . S
H3990 C3975 0.961 . S
H3991 C3975 0.961 . S
H3992 C3976 0.931 . S
H3993 C3981 0.930 . S
H3994 C3982 0.956 . S
H3995 C3982 0.961 . S
H3996 C3982 0.961 . S
H3997 C3983 0.958 . S
H3998 C3983 0.961 . S
H3999 C3983 0.960 . S
C4000 C4001 1.391 . S
C4000 C4002 1.394 . S
C4000 H4016 0.931 . S
C4001 C4000 1.391 . S
C4001 C4005 1.369 . S
C4002 C4000 1.394 . S
C4002 C4003 1.369 . S
C4002 C4006 1.531 . S
C4003 C4002 1.369 . S
C4003 C4004 1.400 1_565 S
C4003 C4011 1.503 . S
C4004 C4003 1.400 1_545 S
C4004 C4005 1.439 1_545 S
C4004 C4007 1.506 . S
C4005 C4001 1.369 . S
C4005 C4004 1.439 1_565 S
C4005 H4017 0.917 1_565 S
C4006 C4002 1.531 . S
C4006 H4018 0.960 . S
C4006 H4019 0.962 . S
C4006 H4020 0.960 . S
C4007 C4004 1.506 . S
C4007 H4021 0.961 . S
C4007 H4022 0.961 . S
C4007 H4023 0.961 . S
C4008 C4009 1.370 . S
C4008 C4010 1.363 . S
C4008 H4024 0.931 . S
C4009 C4008 1.370 . S
C4009 C4013 1.408 1_565 S
C4010 C4008 1.363 . S
C4010 C4011 1.370 . S
C4010 C4014 1.524 . S
C4011 C4003 1.503 . S
C4011 C4010 1.370 . S
C4011 C4012 1.403 1_565 S
C4012 C4011 1.403 1_545 S
C4012 C4013 1.404 . S
C4012 C4015 1.539 . S
C4013 C4009 1.408 1_545 S
C4013 C4012 1.404 . S
C4013 H4025 0.930 . S
C4014 C4010 1.524 . S
C4014 H4026 0.956 . S
C4014 H4027 0.961 . S
C4014 H4028 0.961 . S
C4015 C4012 1.539 . S
C4015 H4029 0.958 . S
C4015 H4030 0.961 . S
C4015 H4031 0.960 . S
H4016 C4000 0.931 . S
H4017 C4005 0.917 1_545 S
H4018 C4006 0.960 . S
H4019 C4006 0.962 . S
H4020 C4006 0.960 . S
H4021 C4007 0.961 . S
H4022 C4007 0.961 . S
H4023 C4007 0.961 . S
H4024 C4008 0.931 . S
H4025 C4013 0.930 . S
H4026 C4014 0.956 . S
H4027 C4014 0.961 . S
H4028 C4014 0.961 . S
H4029 C4015 0.958 . S
H4030 C4015 0.961 . S
H4031 C4015 0.960 . S
C4032 C4033 1.391 . S
C4032 C4034 1.394 . S
C4032 H4048 0.931 . S
C4033 C4032 1.391 . S
C4033 C4037 1.376 . S
C4034 C4032 1.394 . S
C4034 C4035 1.369 . S
C4034 C4038 1.531 . S
C4035 C4034 1.369 . S
C4035 C4036 1.410 . S
C4035 C4043 1.503 . S
C4036 C4035 1.410 . S
C4036 C4037 1.392 . S
C4036 C4039 1.511 . S
C4037 C4033 1.376 . S
C4037 C4036 1.392 . S
C4037 H4049 0.929 . S
C4038 C4034 1.531 . S
C4038 H4050 0.960 . S
C4038 H4051 0.962 . S
C4038 H4052 0.960 . S
C4039 C4036 1.511 . S
C4039 H4053 0.961 1_565 S
C4039 H4054 0.961 1_565 S
C4039 H4055 0.961 . S
C4040 C4041 1.370 1_545 S
C4040 C4042 1.363 . S
C4040 H4056 0.931 . S
C4041 C4040 1.370 1_565 S
C4041 C4045 1.408 . S
C4042 C4040 1.363 . S
C4042 C4043 1.370 1_545 S
C4042 C4046 1.524 . S
C4043 C4035 1.503 . S
C4043 C4042 1.370 1_565 S
C4043 C4044 1.403 . S
C4044 C4043 1.403 . S
C4044 C4045 1.404 . S
C4044 C4047 1.539 . S
C4045 C4041 1.408 . S
C4045 C4044 1.404 . S
C4045 H4057 0.930 . S
C4046 C4042 1.524 . S
C4046 H4058 0.956 . S
C4046 H4059 0.961 . S
C4046 H4060 0.961 . S
C4047 C4044 1.539 . S
C4047 H4061 0.958 . S
C4047 H4062 0.961 . S
C4047 H4063 0.960 . S
H4048 C4032 0.931 . S
H4049 C4037 0.929 . S
H4050 C4038 0.960 . S
H4051 C4038 0.962 . S
H4052 C4038 0.960 . S
H4053 C4039 0.961 1_545 S
H4054 C4039 0.961 1_545 S
H4055 C4039 0.961 . S
H4056 C4040 0.931 . S
H4057 C4045 0.930 . S
H4058 C4046 0.956 . S
H4059 C4046 0.961 . S
H4060 C4046 0.961 . S
H4061 C4047 0.958 . S
H4062 C4047 0.961 . S
H4063 C4047 0.960 . S
C4064 C4065 1.391 . S
C4064 C4066 1.394 . S
C4064 H4080 0.931 . S
C4065 C4064 1.391 . S
C4065 C4069 1.376 . S
C4066 C4064 1.394 . S
C4066 C4067 1.369 . S
C4066 C4070 1.531 . S
C4067 C4066 1.369 . S
C4067 C4068 1.410 . S
C4067 C4075 1.503 . S
C4068 C4067 1.410 . S
C4068 C4069 1.392 . S
C4068 C4071 1.511 . S
C4069 C4065 1.376 . S
C4069 C4068 1.392 . S
C4069 H4081 0.929 . S
C4070 C4066 1.531 . S
C4070 H4082 0.960 1_455 S
C4070 H4083 0.962 . S
C4070 H4084 0.958 1_455 S
C4071 C4068 1.511 . S
C4071 H4085 0.961 . S
C4071 H4086 0.961 . S
C4071 H4087 0.961 1_455 S
C4072 C4073 1.386 . S
C4072 C4074 1.363 . S
C4072 H4088 0.931 . S
C4073 C4072 1.386 . S
C4073 C4077 1.382 1_455 S
C4074 C4072 1.363 . S
C4074 C4075 1.370 . S
C4074 C4078 1.524 . S
C4075 C4067 1.503 . S
C4075 C4074 1.370 . S
C4075 C4076 1.403 1_455 S
C4076 C4075 1.403 1_655 S
C4076 C4077 1.404 . S
C4076 C4079 1.539 . S
C4077 C4073 1.382 1_655 S
C4077 C4076 1.404 . S
C4077 H4089 0.930 . S
C4078 C4074 1.524 . S
C4078 H4090 0.956 . S
C4078 H4091 0.961 . S
C4078 H4092 0.961 . S
C4079 C4076 1.539 . S
C4079 H4093 0.958 . S
C4079 H4094 0.961 . S
C4079 H4095 0.960 . S
H4080 C4064 0.931 . S
H4081 C4069 0.929 . S
H4082 C4070 0.960 1_655 S
H4083 C4070 0.962 . S
H4084 C4070 0.958 1_655 S
H4085 C4071 0.961 . S
H4086 C4071 0.961 . S
H4087 C4071 0.961 1_655 S
H4088 C4072 0.931 . S
H4089 C4077 0.930 . S
H4090 C4078 0.956 . S
H4091 C4078 0.961 . S
H4092 C4078 0.961 . S
H4093 C4079 0.958 . S
H4094 C4079 0.961 . S
H4095 C4079 0.960 . S
C4096 C4097 1.391 . S
C4096 C4098 1.394 . S
C4096 H4112 0.931 . S
C4097 C4096 1.391 . S
C4097 C4101 1.376 . S
C4098 C4096 1.394 . S
C4098 C4099 1.369 . S
C4098 C4102 1.531 . S
C4099 C4098 1.369 . S
C4099 C4100 1.410 . S
C4099 C4107 1.503 . S
C4100 C4099 1.410 . S
C4100 C4101 1.392 . S
C4100 C4103 1.511 . S
C4101 C4097 1.376 . S
C4101 C4100 1.392 . S
C4101 H4113 0.929 . S
C4102 C4098 1.531 . S
C4102 H4114 0.960 . S
C4102 H4115 0.962 . S
C4102 H4116 0.960 . S
C4103 C4100 1.511 . S
C4103 H4117 0.961 . S
C4103 H4118 0.961 . S
C4103 H4119 0.961 . S
C4104 C4105 1.370 . S
C4104 C4106 1.363 . S
C4104 H4120 0.931 . S
C4105 C4104 1.370 . S
C4105 C4109 1.408 . S
C4106 C4104 1.363 . S
C4106 C4107 1.370 . S
C4106 C4110 1.524 . S
C4107 C4099 1.503 . S
C4107 C4106 1.370 . S
C4107 C4108 1.403 . S
C4108 C4107 1.403 . S
C4108 C4109 1.404 . S
C4108 C4111 1.539 . S
C4109 C4105 1.408 . S
C4109 C4108 1.404 . S
C4109 H4121 0.930 . S
C4110 C4106 1.524 . S
C4110 H4122 0.956 . S
C4110 H4123 0.961 . S
C4110 H4124 0.961 . S
C4111 C4108 1.539 . S
C4111 H4125 0.958 . S
C4111 H4126 0.961 . S
C4111 H4127 0.960 . S
H4112 C4096 0.931 . S
H4113 C4101 0.929 . S
H4114 C4102 0.960 . S
H4115 C4102 0.962 . S
H4116 C4102 0.960 . S
H4117 C4103 0.961 . S
H4118 C4103 0.961 . S
H4119 C4103 0.961 . S
H4120 C4104 0.931 . S
H4121 C4109 0.930 . S
H4122 C4110 0.956 . S
H4123 C4110 0.961 . S
H4124 C4110 0.961 . S
H4125 C4111 0.958 . S
H4126 C4111 0.961 . S
H4127 C4111 0.960 . S
C4128 C4129 1.391 . S
C4128 C4130 1.394 . S
C4128 H4144 0.931 . S
C4129 C4128 1.391 . S
C4129 C4133 1.376 . S
C4130 C4128 1.394 . S
C4130 C4131 1.369 . S
C4130 C4134 1.531 . S
C4131 C4130 1.369 . S
C4131 C4132 1.410 . S
C4131 C4139 1.503 . S
C4132 C4131 1.410 . S
C4132 C4133 1.392 . S
C4132 C4135 1.511 . S
C4133 C4129 1.376 . S
C4133 C4132 1.392 . S
C4133 H4145 0.929 . S
C4134 C4130 1.531 . S
C4134 H4146 0.960 . S
C4134 H4147 0.962 . S
C4134 H4148 0.960 . S
C4135 C4132 1.511 . S
C4135 H4149 0.961 . S
C4135 H4150 0.961 . S
C4135 H4151 0.961 . S
C4136 C4137 1.370 . S
C4136 C4138 1.363 . S
C4136 H4152 0.931 . S
C4137 C4136 1.370 . S
C4137 C4141 1.408 . S
C4138 C4136 1.363 . S
C4138 C4139 1.370 . S
C4138 C4142 1.524 . S
C4139 C4131 1.503 . S
C4139 C4138 1.370 . S
C4139 C4140 1.403 . S
C4140 C4139 1.403 . S
C4140 C4141 1.404 . S
C4140 C4143 1.539 . S
C4141 C4137 1.408 . S
C4141 C4140 1.404 . S
C4141 H4153 0.930 . S
C4142 C4138 1.524 . S
C4142 H4154 0.956 . S
C4142 H4155 0.961 . S
C4142 H4156 0.961 . S
C4143 C4140 1.539 . S
C4143 H4157 0.958 . S
C4143 H4158 0.961 . S
C4143 H4159 0.960 . S
H4144 C4128 0.931 . S
H4145 C4133 0.929 . S
H4146 C4134 0.960 . S
H4147 C4134 0.962 . S
H4148 C4134 0.960 . S
H4149 C4135 0.961 . S
H4150 C4135 0.961 . S
H4151 C4135 0.961 . S
H4152 C4136 0.931 . S
H4153 C4141 0.930 . S
H4154 C4142 0.956 . S
H4155 C4142 0.961 . S
H4156 C4142 0.961 . S
H4157 C4143 0.958 . S
H4158 C4143 0.961 . S
H4159 C4143 0.960 . S
C4160 C4161 1.391 . S
C4160 C4162 1.394 . S
C4160 H4176 0.931 . S
C4161 C4160 1.391 . S
C4161 C4165 1.376 . S
C4162 C4160 1.394 . S
C4162 C4163 1.369 . S
C4162 C4166 1.531 . S
C4163 C4162 1.369 . S
C4163 C4164 1.410 . S
C4163 C4171 1.503 . S
C4164 C4163 1.410 . S
C4164 C4165 1.392 . S
C4164 C4167 1.511 . S
C4165 C4161 1.376 . S
C4165 C4164 1.392 . S
C4165 H4177 0.929 . S
C4166 C4162 1.531 . S
C4166 H4178 0.960 . S
C4166 H4179 0.962 . S
C4166 H4180 0.960 . S
C4167 C4164 1.511 . S
C4167 H4181 0.961 . S
C4167 H4182 0.961 . S
C4167 H4183 0.961 . S
C4168 C4169 1.370 . S
C4168 C4170 1.363 . S
C4168 H4184 0.931 . S
C4169 C4168 1.370 . S
C4169 C4173 1.408 . S
C4170 C4168 1.363 . S
C4170 C4171 1.370 . S
C4170 C4174 1.524 . S
C4171 C4163 1.503 . S
C4171 C4170 1.370 . S
C4171 C4172 1.403 . S
C4172 C4171 1.403 . S
C4172 C4173 1.404 . S
C4172 C4175 1.539 . S
C4173 C4169 1.408 . S
C4173 C4172 1.404 . S
C4173 H4185 0.930 . S
C4174 C4170 1.524 . S
C4174 H4186 0.956 . S
C4174 H4187 0.961 . S
C4174 H4188 0.961 . S
C4175 C4172 1.539 . S
C4175 H4189 0.958 . S
C4175 H4190 0.961 . S
C4175 H4191 0.960 . S
H4176 C4160 0.931 . S
H4177 C4165 0.929 . S
H4178 C4166 0.960 . S
H4179 C4166 0.962 . S
H4180 C4166 0.960 . S
H4181 C4167 0.961 . S
H4182 C4167 0.961 . S
H4183 C4167 0.961 . S
H4184 C4168 0.931 . S
H4185 C4173 0.930 . S
H4186 C4174 0.956 . S
H4187 C4174 0.961 . S
H4188 C4174 0.961 . S
H4189 C4175 0.958 . S
H4190 C4175 0.961 . S
H4191 C4175 0.960 . S
C4192 C4193 1.391 . S
C4192 C4194 1.394 . S
C4192 H4208 0.931 . S
C4193 C4192 1.391 . S
C4193 C4197 1.376 . S
C4194 C4192 1.394 . S
C4194 C4195 1.369 . S
C4194 C4198 1.531 . S
C4195 C4194 1.369 . S
C4195 C4196 1.410 . S
C4195 C4203 1.503 . S
C4196 C4195 1.410 . S
C4196 C4197 1.392 . S
C4196 C4199 1.511 . S
C4197 C4193 1.376 . S
C4197 C4196 1.392 . S
C4197 H4209 0.929 . S
C4198 C4194 1.531 . S
C4198 H4210 0.960 . S
C4198 H4211 0.962 . S
C4198 H4212 0.960 . S
C4199 C4196 1.511 . S
C4199 H4213 0.961 . S
C4199 H4214 0.961 . S
C4199 H4215 0.961 . S
C4200 C4201 1.370 . S
C4200 C4202 1.363 . S
C4200 H4216 0.931 . S
C4201 C4200 1.370 . S
C4201 C4205 1.408 . S
C4202 C4200 1.363 . S
C4202 C4203 1.370 . S
C4202 C4206 1.524 . S
C4203 C4195 1.503 . S
C4203 C4202 1.370 . S
C4203 C4204 1.403 . S
C4204 C4203 1.403 . S
C4204 C4205 1.404 . S
C4204 C4207 1.539 . S
C4205 C4201 1.408 . S
C4205 C4204 1.404 . S
C4205 H4217 0.930 . S
C4206 C4202 1.524 . S
C4206 H4218 0.956 . S
C4206 H4219 0.961 . S
C4206 H4220 0.961 . S
C4207 C4204 1.539 . S
C4207 H4221 0.958 . S
C4207 H4222 0.961 . S
C4207 H4223 0.960 . S
H4208 C4192 0.931 . S
H4209 C4197 0.929 . S
H4210 C4198 0.960 . S
H4211 C4198 0.962 . S
H4212 C4198 0.960 . S
H4213 C4199 0.961 . S
H4214 C4199 0.961 . S
H4215 C4199 0.961 . S
H4216 C4200 0.931 . S
H4217 C4205 0.930 . S
H4218 C4206 0.956 . S
H4219 C4206 0.961 . S
H4220 C4206 0.961 . S
H4221 C4207 0.958 . S
H4222 C4207 0.961 . S
H4223 C4207 0.960 . S
C4224 C4225 1.391 . S
C4224 C4226 1.394 . S
C4224 H4240 0.931 . S
C4225 C4224 1.391 . S
C4225 C4229 1.376 . S
C4226 C4224 1.394 . S
C4226 C4227 1.369 . S
C4226 C4230 1.531 . S
C4227 C4226 1.369 . S
C4227 C4228 1.410 . S
C4227 C4235 1.503 . S
C4228 C4227 1.410 . S
C4228 C4229 1.392 . S
C4228 C4231 1.511 1_545 S
C4229 C4225 1.376 . S
C4229 C4228 1.392 . S
C4229 H4241 0.927 . S
C4230 C4226 1.531 . S
C4230 H4242 0.960 . S
C4230 H4243 0.962 . S
C4230 H4244 0.960 . S
C4231 C4228 1.511 1_565 S
C4231 H4245 0.961 . S
C4231 H4246 0.961 . S
C4231 H4247 0.961 1_565 S
C4232 C4233 1.370 1_565 S
C4232 C4234 1.363 . S
C4232 H4248 0.931 . S
C4233 C4232 1.370 1_545 S
C4233 C4237 1.408 . S
C4234 C4232 1.363 . S
C4234 C4235 1.370 1_565 S
C4234 C4238 1.524 . S
C4235 C4227 1.503 . S
C4235 C4234 1.370 1_545 S
C4235 C4236 1.403 . S
C4236 C4235 1.403 . S
C4236 C4237 1.404 . S
C4236 C4239 1.539 . S
C4237 C4233 1.408 . S
C4237 C4236 1.404 . S
C4237 H4249 0.930 . S
C4238 C4234 1.524 . S
C4238 H4250 0.956 . S
C4238 H4251 0.961 . S
C4238 H4252 0.961 . S
C4239 C4236 1.539 . S
C4239 H4253 0.958 . S
C4239 H4254 0.961 . S
C4239 H4255 0.960 . S
H4240 C4224 0.931 . S
H4241 C4229 0.927 . S
H4242 C4230 0.960 . S
H4243 C4230 0.962 . S
H4244 C4230 0.960 . S
H4245 C4231 0.961 . S
H4246 C4231 0.961 . S
H4247 C4231 0.961 1_545 S
H4248 C4232 0.931 . S
H4249 C4237 0.930 . S
H4250 C4238 0.956 . S
H4251 C4238 0.961 . S
H4252 C4238 0.961 . S
H4253 C4239 0.958 . S
H4254 C4239 0.961 . S
H4255 C4239 0.960 . S
C4256 C4257 1.391 . S
C4256 C4258 1.394 . S
C4256 H4272 0.931 . S
C4257 C4256 1.391 . S
C4257 C4261 1.376 1_655 S
C4258 C4256 1.394 . S
C4258 C4259 1.369 . S
C4258 C4262 1.531 . S
C4259 C4258 1.369 . S
C4259 C4260 1.410 1_655 S
C4259 C4267 1.503 . S
C4260 C4259 1.410 1_455 S
C4260 C4261 1.392 . S
C4260 C4263 1.511 . S
C4261 C4257 1.376 1_455 S
C4261 C4260 1.392 . S
C4261 H4273 0.929 . S
C4262 C4258 1.531 . S
C4262 H4274 0.960 . S
C4262 H4275 0.962 . S
C4262 H4276 0.960 . S
C4263 C4260 1.511 . S
C4263 H4277 0.961 . S
C4263 H4278 0.961 . S
C4263 H4279 0.961 . S
C4264 C4265 1.370 . S
C4264 C4266 1.363 . S
C4264 H4280 0.911 . S
C4265 C4264 1.370 . S
C4265 C4269 1.408 . S
C4266 C4264 1.363 . S
C4266 C4267 1.370 . S
C4266 C4270 1.513 1_655 S
C4267 C4259 1.503 . S
C4267 C4266 1.370 . S
C4267 C4268 1.403 . S
C4268 C4267 1.403 . S
C4268 C4269 1.404 . S
C4268 C4271 1.539 . S
C4269 C4265 1.408 . S
C4269 C4268 1.404 . S
C4269 H4281 0.930 . S
C4270 C4266 1.513 1_455 S
C4270 H4282 0.916 1_455 S
C4270 H4283 1.032 . S
C4270 H4284 0.947 . S
C4271 C4268 1.539 . S
C4271 H4285 0.958 . S
C4271 H4286 0.961 . S
C4271 H4287 0.960 . S
H4272 C4256 0.931 . S
H4273 C4261 0.929 . S
H4274 C4262 0.960 . S
H4275 C4262 0.962 . S
H4276 C4262 0.960 . S
H4277 C4263 0.961 . S
H4278 C4263 0.961 . S
H4279 C4263 0.961 . S
H4280 C4264 0.911 . S
H4281 C4269 0.930 . S
H4282 C4270 0.916 1_655 S
H4283 C4270 1.032 . S
H4284 C4270 0.947 . S
H4285 C4271 0.958 . S
H4286 C4271 0.961 . S
H4287 C4271 0.960 . S
C4288 C4289 1.391 . S
C4288 C4290 1.394 . S
C4288 H4304 0.931 . S
C4289 C4288 1.391 . S
C4289 C4293 1.376 . S
C4290 C4288 1.394 . S
C4290 C4291 1.369 . S
C4290 C4294 1.531 . S
C4291 C4290 1.369 . S
C4291 C4292 1.410 . S
C4291 C4299 1.503 . S
C4292 C4291 1.410 . S
C4292 C4293 1.392 . S
C4292 C4295 1.511 . S
C4293 C4289 1.376 . S
C4293 C4292 1.392 . S
C4293 H4305 0.929 . S
C4294 C4290 1.531 . S
C4294 H4306 0.960 . S
C4294 H4307 0.962 . S
C4294 H4308 0.960 . S
C4295 C4292 1.511 . S
C4295 H4309 0.961 . S
C4295 H4310 0.961 . S
C4295 H4311 0.961 . S
C4296 C4297 1.370 . S
C4296 C4298 1.363 . S
C4296 H4312 0.931 . S
C4297 C4296 1.370 . S
C4297 C4301 1.408 . S
C4298 C4296 1.363 . S
C4298 C4299 1.370 . S
C4298 C4302 1.524 . S
C4299 C4291 1.503 . S
C4299 C4298 1.370 . S
C4299 C4300 1.403 . S
C4300 C4299 1.403 . S
C4300 C4301 1.404 . S
C4300 C4303 1.539 . S
C4301 C4297 1.408 . S
C4301 C4300 1.404 . S
C4301 H4313 0.930 . S
C4302 C4298 1.524 . S
C4302 H4314 0.956 . S
C4302 H4315 0.961 . S
C4302 H4316 0.961 . S
C4303 C4300 1.539 . S
C4303 H4317 0.958 . S
C4303 H4318 0.961 . S
C4303 H4319 0.960 . S
H4304 C4288 0.931 . S
H4305 C4293 0.929 . S
H4306 C4294 0.960 . S
H4307 C4294 0.962 . S
H4308 C4294 0.960 . S
H4309 C4295 0.961 . S
H4310 C4295 0.961 . S
H4311 C4295 0.961 . S
H4312 C4296 0.931 . S
H4313 C4301 0.930 . S
H4314 C4302 0.956 . S
H4315 C4302 0.961 . S
H4316 C4302 0.961 . S
H4317 C4303 0.958 . S
H4318 C4303 0.961 . S
H4319 C4303 0.960 . S
C4320 C4321 1.391 . S
C4320 C4322 1.394 . S
C4320 H4336 0.931 . S
C4321 C4320 1.391 . S
C4321 C4325 1.376 . S
C4322 C4320 1.394 . S
C4322 C4323 1.369 . S
C4322 C4326 1.531 . S
C4323 C4322 1.369 . S
C4323 C4324 1.410 . S
C4323 C4331 1.503 . S
C4324 C4323 1.410 . S
C4324 C4325 1.392 . S
C4324 C4327 1.511 . S
C4325 C4321 1.376 . S
C4325 C4324 1.392 . S
C4325 H4337 0.929 . S
C4326 C4322 1.531 . S
C4326 H4338 0.960 . S
C4326 H4339 0.962 . S
C4326 H4340 0.960 . S
C4327 C4324 1.511 . S
C4327 H4341 0.961 . S
C4327 H4342 0.961 . S
C4327 H4343 0.961 . S
C4328 C4329 1.370 . S
C4328 C4330 1.363 . S
C4328 H4344 0.931 . S
C4329 C4328 1.370 . S
C4329 C4333 1.408 . S
C4330 C4328 1.363 . S
C4330 C4331 1.370 . S
C4330 C4334 1.524 . S
C4331 C4323 1.503 . S
C4331 C4330 1.370 . S
C4331 C4332 1.403 . S
C4332 C4331 1.403 . S
C4332 C4333 1.404 . S
C4332 C4335 1.539 . S
C4333 C4329 1.408 . S
C4333 C4332 1.404 . S
C4333 H4345 0.930 . S
C4334 C4330 1.524 . S
C4334 H4346 0.956 . S
C4334 H4347 0.961 . S
C4334 H4348 0.961 . S
C4335 C4332 1.539 . S
C4335 H4349 0.958 . S
C4335 H4350 0.961 . S
C4335 H4351 0.960 . S
H4336 C4320 0.931 . S
H4337 C4325 0.929 . S
H4338 C4326 0.960 . S
H4339 C4326 0.962 . S
H4340 C4326 0.960 . S
H4341 C4327 0.961 . S
H4342 C4327 0.961 . S
H4343 C4327 0.961 . S
H4344 C4328 0.931 . S
H4345 C4333 0.930 . S
H4346 C4334 0.956 . S
H4347 C4334 0.961 . S
H4348 C4334 0.961 . S
H4349 C4335 0.958 . S
H4350 C4335 0.961 . S
H4351 C4335 0.960 . S
C4352 C4353 1.391 . S
C4352 C4354 1.394 . S
C4352 H4368 0.931 . S
C4353 C4352 1.391 . S
C4353 C4357 1.376 . S
C4354 C4352 1.394 . S
C4354 C4355 1.369 . S
C4354 C4358 1.531 . S
C4355 C4354 1.369 . S
C4355 C4356 1.410 . S
C4355 C4363 1.503 . S
C4356 C4355 1.410 . S
C4356 C4357 1.392 . S
C4356 C4359 1.511 . S
C4357 C4353 1.376 . S
C4357 C4356 1.392 . S
C4357 H4369 0.929 . S
C4358 C4354 1.531 . S
C4358 H4370 0.960 . S
C4358 H4371 0.962 . S
C4358 H4372 0.960 . S
C4359 C4356 1.511 . S
C4359 H4373 0.961 . S
C4359 H4374 0.961 . S
C4359 H4375 0.961 . S
C4360 C4361 1.370 . S
C4360 C4362 1.363 . S
C4360 H4376 0.931 . S
C4361 C4360 1.370 . S
C4361 C4365 1.408 . S
C4362 C4360 1.363 . S
C4362 C4363 1.370 . S
C4362 C4366 1.524 . S
C4363 C4355 1.503 . S
C4363 C4362 1.370 . S
C4363 C4364 1.403 . S
C4364 C4363 1.403 . S
C4364 C4365 1.404 . S
C4364 C4367 1.539 . S
C4365 C4361 1.408 . S
C4365 C4364 1.404 . S
C4365 H4377 0.930 . S
C4366 C4362 1.524 . S
C4366 H4378 0.956 . S
C4366 H4379 0.961 . S
C4366 H4380 0.961 . S
C4367 C4364 1.539 . S
C4367 H4381 0.958 . S
C4367 H4382 0.961 . S
C4367 H4383 0.960 . S
H4368 C4352 0.931 . S
H4369 C4357 0.929 . S
H4370 C4358 0.960 . S
H4371 C4358 0.962 . S
H4372 C4358 0.960 . S
H4373 C4359 0.961 . S
H4374 C4359 0.961 . S
H4375 C4359 0.961 . S
H4376 C4360 0.931 . S
H4377 C4365 0.930 . S
H4378 C4366 0.956 . S
H4379 C4366 0.961 . S
H4380 C4366 0.961 . S
H4381 C4367 0.958 . S
H4382 C4367 0.961 . S
H4383 C4367 0.960 . S
C4384 C4385 1.391 . S
C4384 C4386 1.394 . S
C4384 H4400 0.931 . S
C4385 C4384 1.391 . S
C4385 C4389 1.376 . S
C4386 C4384 1.394 . S
C4386 C4387 1.369 . S
C4386 C4390 1.531 . S
C4387 C4386 1.369 . S
C4387 C4388 1.410 . S
C4387 C4395 1.503 . S
C4388 C4387 1.410 . S
C4388 C4389 1.392 . S
C4388 C4391 1.511 . S
C4389 C4385 1.376 . S
C4389 C4388 1.392 . S
C4389 H4401 0.929 . S
C4390 C4386 1.531 . S
C4390 H4402 0.960 . S
C4390 H4403 0.962 . S
C4390 H4404 0.960 . S
C4391 C4388 1.511 . S
C4391 H4405 0.961 . S
C4391 H4406 0.961 . S
C4391 H4407 0.961 . S
C4392 C4393 1.370 . S
C4392 C4394 1.363 . S
C4392 H4408 0.931 . S
C4393 C4392 1.370 . S
C4393 C4397 1.408 . S
C4394 C4392 1.363 . S
C4394 C4395 1.370 . S
C4394 C4398 1.524 . S
C4395 C4387 1.503 . S
C4395 C4394 1.370 . S
C4395 C4396 1.403 . S
C4396 C4395 1.403 . S
C4396 C4397 1.404 . S
C4396 C4399 1.539 . S
C4397 C4393 1.408 . S
C4397 C4396 1.404 . S
C4397 H4409 0.930 . S
C4398 C4394 1.524 . S
C4398 H4410 0.956 . S
C4398 H4411 0.961 . S
C4398 H4412 0.961 . S
C4399 C4396 1.539 . S
C4399 H4413 0.958 . S
C4399 H4414 0.961 . S
C4399 H4415 0.960 . S
H4400 C4384 0.931 . S
H4401 C4389 0.929 . S
H4402 C4390 0.960 . S
H4403 C4390 0.962 . S
H4404 C4390 0.960 . S
H4405 C4391 0.961 . S
H4406 C4391 0.961 . S
H4407 C4391 0.961 . S
H4408 C4392 0.931 . S
H4409 C4397 0.930 . S
H4410 C4398 0.956 . S
H4411 C4398 0.961 . S
H4412 C4398 0.961 . S
H4413 C4399 0.958 . S
H4414 C4399 0.961 . S
H4415 C4399 0.960 . S
C4416 C4417 1.391 . S
C4416 C4418 1.394 . S
C4416 H4432 0.931 . S
C4417 C4416 1.391 . S
C4417 C4421 1.376 . S
C4418 C4416 1.394 . S
C4418 C4419 1.369 . S
C4418 C4422 1.531 . S
C4419 C4418 1.369 . S
C4419 C4420 1.410 . S
C4419 C4427 1.503 . S
C4420 C4419 1.410 . S
C4420 C4421 1.392 . S
C4420 C4423 1.511 . S
C4421 C4417 1.376 . S
C4421 C4420 1.392 . S
C4421 H4433 0.929 . S
C4422 C4418 1.531 . S
C4422 H4434 0.960 . S
C4422 H4435 0.962 . S
C4422 H4436 0.960 . S
C4423 C4420 1.511 . S
C4423 H4437 0.961 . S
C4423 H4438 0.961 . S
C4423 H4439 0.961 . S
C4424 C4425 1.370 . S
C4424 C4426 1.363 . S
C4424 H4440 0.931 . S
C4425 C4424 1.370 . S
C4425 C4429 1.408 . S
C4426 C4424 1.363 . S
C4426 C4427 1.370 . S
C4426 C4430 1.524 . S
C4427 C4419 1.503 . S
C4427 C4426 1.370 . S
C4427 C4428 1.403 . S
C4428 C4427 1.403 . S
C4428 C4429 1.404 . S
C4428 C4431 1.539 . S
C4429 C4425 1.408 . S
C4429 C4428 1.404 . S
C4429 H4441 0.930 . S
C4430 C4426 1.524 . S
C4430 H4442 0.956 . S
C4430 H4443 0.961 . S
C4430 H4444 0.961 . S
C4431 C4428 1.539 . S
C4431 H4445 0.958 . S
C4431 H4446 0.961 . S
C4431 H4447 0.960 . S
H4432 C4416 0.931 . S
H4433 C4421 0.929 . S
H4434 C4422 0.960 . S
H4435 C4422 0.962 . S
H4436 C4422 0.960 . S
H4437 C4423 0.961 . S
H4438 C4423 0.961 . S
H4439 C4423 0.961 . S
H4440 C4424 0.931 . S
H4441 C4429 0.930 . S
H4442 C4430 0.956 . S
H4443 C4430 0.961 . S
H4444 C4430 0.961 . S
H4445 C4431 0.958 . S
H4446 C4431 0.961 . S
H4447 C4431 0.960 . S
C4448 C4449 1.391 . S
C4448 C4450 1.394 . S
C4448 H4464 0.931 . S
C4449 C4448 1.391 . S
C4449 C4453 1.376 . S
C4450 C4448 1.394 . S
C4450 C4451 1.369 . S
C4450 C4454 1.531 . S
C4451 C4450 1.369 . S
C4451 C4452 1.410 . S
C4451 C4459 1.503 . S
C4452 C4451 1.410 . S
C4452 C4453 1.392 . S
C4452 C4455 1.511 . S
C4453 C4449 1.376 . S
C4453 C4452 1.392 . S
C4453 H4465 0.929 . S
C4454 C4450 1.531 . S
C4454 H4466 0.960 . S
C4454 H4467 0.962 . S
C4454 H4468 0.960 . S
C4455 C4452 1.511 . S
C4455 H4469 0.961 . S
C4455 H4470 0.961 . S
C4455 H4471 0.961 . S
C4456 C4457 1.370 . S
C4456 C4458 1.363 . S
C4456 H4472 0.931 . S
C4457 C4456 1.370 . S
C4457 C4461 1.408 . S
C4458 C4456 1.363 . S
C4458 C4459 1.370 . S
C4458 C4462 1.524 . S
C4459 C4451 1.503 . S
C4459 C4458 1.370 . S
C4459 C4460 1.403 . S
C4460 C4459 1.403 . S
C4460 C4461 1.404 . S
C4460 C4463 1.539 . S
C4461 C4457 1.408 . S
C4461 C4460 1.404 . S
C4461 H4473 0.930 . S
C4462 C4458 1.524 . S
C4462 H4474 0.956 . S
C4462 H4475 0.961 . S
C4462 H4476 0.961 . S
C4463 C4460 1.539 . S
C4463 H4477 0.958 . S
C4463 H4478 0.961 . S
C4463 H4479 0.960 . S
H4464 C4448 0.931 . S
H4465 C4453 0.929 . S
H4466 C4454 0.960 . S
H4467 C4454 0.962 . S
H4468 C4454 0.960 . S
H4469 C4455 0.961 . S
H4470 C4455 0.961 . S
H4471 C4455 0.961 . S
H4472 C4456 0.931 . S
H4473 C4461 0.930 . S
H4474 C4462 0.956 . S
H4475 C4462 0.961 . S
H4476 C4462 0.961 . S
H4477 C4463 0.958 . S
H4478 C4463 0.961 . S
H4479 C4463 0.960 . S
C4480 C4481 1.391 . S
C4480 C4482 1.394 . S
C4480 H4496 0.931 . S
C4481 C4480 1.391 . S
C4481 C4485 1.376 . S
C4482 C4480 1.394 . S
C4482 C4483 1.369 . S
C4482 C4486 1.531 . S
C4483 C4482 1.369 . S
C4483 C4484 1.410 . S
C4483 C4491 1.503 . S
C4484 C4483 1.410 . S
C4484 C4485 1.392 . S
C4484 C4487 1.511 . S
C4485 C4481 1.376 . S
C4485 C4484 1.392 . S
C4485 H4497 0.929 . S
C4486 C4482 1.531 . S
C4486 H4498 0.960 . S
C4486 H4499 0.962 . S
C4486 H4500 0.960 . S
C4487 C4484 1.511 . S
C4487 H4501 0.961 . S
C4487 H4502 0.961 . S
C4487 H4503 0.961 . S
C4488 C4489 1.370 . S
C4488 C4490 1.363 . S
C4488 H4504 0.931 . S
C4489 C4488 1.370 . S
C4489 C4493 1.408 . S
C4490 C4488 1.363 . S
C4490 C4491 1.370 . S
C4490 C4494 1.524 . S
C4491 C4483 1.503 . S
C4491 C4490 1.370 . S
C4491 C4492 1.403 . S
C4492 C4491 1.403 . S
C4492 C4493 1.404 . S
C4492 C4495 1.539 . S
C4493 C4489 1.408 . S
C4493 C4492 1.404 . S
C4493 H4505 0.930 . S
C4494 C4490 1.524 . S
C4494 H4506 0.956 . S
C4494 H4507 0.961 . S
C4494 H4508 0.961 . S
C4495 C4492 1.539 . S
C4495 H4509 0.958 . S
C4495 H4510 0.961 . S
C4495 H4511 0.960 . S
H4496 C4480 0.931 . S
H4497 C4485 0.929 . S
H4498 C4486 0.960 . S
H4499 C4486 0.962 . S
H4500 C4486 0.960 . S
H4501 C4487 0.961 . S
H4502 C4487 0.961 . S
H4503 C4487 0.961 . S
H4504 C4488 0.931 . S
H4505 C4493 0.930 . S
H4506 C4494 0.956 . S
H4507 C4494 0.961 . S
H4508 C4494 0.961 . S
H4509 C4495 0.958 . S
H4510 C4495 0.961 . S
H4511 C4495 0.960 . S
C4512 C4513 1.391 1_455 S
C4512 C4514 1.394 . S
C4512 H4528 0.931 . S
C4513 C4512 1.391 1_655 S
C4513 C4517 1.376 . S
C4514 C4512 1.394 . S
C4514 C4515 1.369 1_455 S
C4514 C4518 1.531 . S
C4515 C4514 1.369 1_655 S
C4515 C4516 1.410 . S
C4515 C4523 1.503 . S
C4516 C4515 1.410 . S
C4516 C4517 1.392 . S
C4516 C4519 1.511 . S
C4517 C4513 1.376 . S
C4517 C4516 1.392 . S
C4517 H4529 0.929 . S
C4518 C4514 1.531 . S
C4518 H4530 0.960 . S
C4518 H4531 0.962 . S
C4518 H4532 0.960 . S
C4519 C4516 1.511 . S
C4519 H4533 0.961 . S
C4519 H4534 0.961 . S
C4519 H4535 0.961 . S
C4520 C4521 1.370 1_455 S
C4520 C4522 1.363 . S
C4520 H4536 0.931 . S
C4521 C4520 1.370 1_655 S
C4521 C4525 1.408 . S
C4522 C4520 1.363 . S
C4522 C4523 1.370 1_455 S
C4522 C4526 1.524 . S
C4523 C4515 1.503 . S
C4523 C4522 1.370 1_655 S
C4523 C4524 1.403 . S
C4524 C4523 1.403 . S
C4524 C4525 1.404 . S
C4524 C4527 1.539 . S
C4525 C4521 1.408 . S
C4525 C4524 1.404 . S
C4525 H4537 0.930 . S
C4526 C4522 1.524 . S
C4526 H4538 0.956 . S
C4526 H4539 0.987 . S
C4526 H4540 0.961 . S
C4527 C4524 1.539 . S
C4527 H4541 0.958 . S
C4527 H4542 0.961 . S
C4527 H4543 0.960 . S
H4528 C4512 0.931 . S
H4529 C4517 0.929 . S
H4530 C4518 0.960 . S
H4531 C4518 0.962 . S
H4532 C4518 0.960 . S
H4533 C4519 0.961 . S
H4534 C4519 0.961 . S
H4535 C4519 0.961 . S
H4536 C4520 0.931 . S
H4537 C4525 0.930 . S
H4538 C4526 0.956 . S
H4539 C4526 0.987 . S
H4540 C4526 0.961 . S
H4541 C4527 0.958 . S
H4542 C4527 0.961 . S
H4543 C4527 0.960 . S
C4544 C4545 1.391 . S
C4544 C4546 1.394 . S
C4544 H4560 0.931 . S
C4545 C4544 1.391 . S
C4545 C4549 1.376 . S
C4546 C4544 1.394 . S
C4546 C4547 1.369 . S
C4546 C4550 1.531 . S
C4547 C4546 1.369 . S
C4547 C4548 1.410 . S
C4547 C4555 1.503 . S
C4548 C4547 1.410 . S
C4548 C4549 1.392 . S
C4548 C4551 1.511 . S
C4549 C4545 1.376 . S
C4549 C4548 1.392 . S
C4549 H4561 0.929 . S
C4550 C4546 1.531 . S
C4550 H4562 0.960 . S
C4550 H4563 0.962 . S
C4550 H4564 0.960 . S
C4551 C4548 1.511 . S
C4551 H4565 0.961 . S
C4551 H4566 0.961 . S
C4551 H4567 0.961 . S
C4552 C4553 1.370 . S
C4552 C4554 1.363 . S
C4552 H4568 0.931 . S
C4553 C4552 1.370 . S
C4553 C4557 1.408 . S
C4554 C4552 1.363 . S
C4554 C4555 1.370 . S
C4554 C4558 1.524 . S
C4555 C4547 1.503 . S
C4555 C4554 1.370 . S
C4555 C4556 1.403 . S
C4556 C4555 1.403 . S
C4556 C4557 1.404 . S
C4556 C4559 1.539 . S
C4557 C4553 1.408 . S
C4557 C4556 1.404 . S
C4557 H4569 0.930 . S
C4558 C4554 1.524 . S
C4558 H4570 0.956 . S
C4558 H4571 0.961 . S
C4558 H4572 0.961 . S
C4559 C4556 1.539 . S
C4559 H4573 0.958 . S
C4559 H4574 0.961 . S
C4559 H4575 0.960 . S
H4560 C4544 0.931 . S
H4561 C4549 0.929 . S
H4562 C4550 0.960 . S
H4563 C4550 0.962 . S
H4564 C4550 0.960 . S
H4565 C4551 0.961 . S
H4566 C4551 0.961 . S
H4567 C4551 0.961 . S
H4568 C4552 0.931 . S
H4569 C4557 0.930 . S
H4570 C4558 0.956 . S
H4571 C4558 0.961 . S
H4572 C4558 0.961 . S
H4573 C4559 0.958 . S
H4574 C4559 0.961 . S
H4575 C4559 0.960 . S
C4576 C4577 1.391 . S
C4576 C4578 1.394 . S
C4576 H4592 0.931 . S
C4577 C4576 1.391 . S
C4577 C4581 1.376 1_545 S
C4578 C4576 1.394 . S
C4578 C4579 1.369 . S
C4578 C4582 1.531 . S
C4579 C4578 1.369 . S
C4579 C4580 1.410 1_545 S
C4579 C4587 1.503 . S
C4580 C4579 1.410 1_565 S
C4580 C4581 1.392 . S
C4580 C4583 1.511 . S
C4581 C4577 1.376 1_565 S
C4581 C4580 1.392 . S
C4581 H4593 0.929 . S
C4582 C4578 1.531 . S
C4582 H4594 0.960 . S
C4582 H4595 0.962 . S
C4582 H4596 0.960 . S
C4583 C4580 1.511 . S
C4583 H4597 0.961 . S
C4583 H4598 0.961 . S
C4583 H4599 0.961 . S
C4584 C4585 1.370 . S
C4584 C4586 1.363 . S
C4584 H4600 0.931 . S
C4585 C4584 1.370 . S
C4585 C4589 1.408 . S
C4586 C4584 1.363 . S
C4586 C4587 1.370 . S
C4586 C4590 1.524 . S
C4587 C4579 1.503 . S
C4587 C4586 1.370 . S
C4587 C4588 1.403 . S
C4588 C4587 1.403 . S
C4588 C4589 1.404 . S
C4588 C4591 1.539 . S
C4589 C4585 1.408 . S
C4589 C4588 1.404 . S
C4589 H4601 0.930 . S
C4590 C4586 1.524 . S
C4590 H4602 0.956 . S
C4590 H4603 0.892 1_545 S
C4590 H4604 0.961 . S
C4591 C4588 1.539 . S
C4591 H4605 0.958 . S
C4591 H4606 0.961 1_545 S
C4591 H4607 0.986 . S
H4592 C4576 0.931 . S
H4593 C4581 0.929 . S
H4594 C4582 0.960 . S
H4595 C4582 0.962 . S
H4596 C4582 0.960 . S
H4597 C4583 0.961 . S
H4598 C4583 0.961 . S
H4599 C4583 0.961 . S
H4600 C4584 0.931 . S
H4601 C4589 0.930 . S
H4602 C4590 0.956 . S
H4603 C4590 0.892 1_565 S
H4604 C4590 0.961 . S
H4605 C4591 0.958 . S
H4606 C4591 0.961 1_565 S
H4607 C4591 0.986 . S
C2305 C9 1.302 1_655 S
C2313 C1307 1.035 . S
C2337 C19 1.727 . S
C2345 C1447 1.082 . S
C2377 C1535 1.142 . S
C2369 C33 1.397 . S
C2401 C37 1.394 1_565 S
C2409 C1675 1.044 1_565 S
C2433 C5 1.359 . S
C2441 C1789 1.059 . S
C2465 C23 1.784 . S
C2473 C1877 1.321 . S
C2497 C47 1.312 . S
C2505 C1763 1.114 . S
C2537 C1903 1.447 . S
C2529 C65 1.686 . S
C2569 C1649 1.113 . S
C2561 C75 1.383 . S
C2593 C79 1.374 . S
C2601 C1561 1.012 . S
C2633 C1333 1.055 . S
C2625 C51 1.390 . S
C2657 C61 1.646 . S
C2665 C1421 1.480 . S
C2689 C93 1.884 . S
C2697 C1991 1.354 . S
C2721 C103 1.803 . S
C2729 C2131 1.177 . S
C2761 C2219 1.307 . S
C2753 C117 1.788 . S
C2785 C121 1.838 . S
C2793 C307 1.189 . S
C2817 C89 1.846 . S
C2825 C421 1.209 . S
C2849 C107 1.858 . S
C2857 C509 1.352 . S
C2881 C131 1.590 . S
C2889 C395 1.421 . S
C2913 C149 1.756 . S
C2921 C535 1.539 . S
C2953 C281 1.528 . S
C2945 C159 1.674 . S
C2985 C2245 1.608 . S
C2977 C163 1.850 . S
C3017 C2017 1.515 . S
C3009 C135 1.770 . S
C3049 C2105 1.610 . S
C3041 C145 1.741 . S
C3073 C177 1.737 . S
C3081 C623 1.235 . S
C3105 C187 1.785 . S
C3113 C763 1.190 . S
C3137 C201 1.825 . S
C3145 C851 1.375 . S
C3169 C205 1.997 . S
C3177 C991 1.327 . S
C3209 C1105 1.198 . S
C3201 C173 1.815 . S
C3241 C1193 1.419 . S
C3233 C191 1.894 . S
C3273 C1079 1.564 . S
C3265 C215 1.749 . S
C3305 C1219 1.561 . S
C3297 C233 1.781 . S
C3329 C243 1.632 . S
C3337 C965 1.463 . S
C3369 C877 1.464 . S
C3361 C247 1.681 . S
C3393 C219 1.807 . S
C3401 C649 1.542 . S
C3433 C737 1.564 . S
C3425 C229 1.715 . S
C3465 C263 1.021 . S
C3457 C11 1.799 . S
C3489 C14 1.626 . S
C3497 C377 0.929 . S
C3529 C481 1.286 . S
C3521 C28 1.837 . S
C3561 C595 1.241 . S
C3553 C39 1.745 . S
C3593 C719 0.965 . S
C3585 C0 1.796 . S
C3625 C823 1.147 . S
C3617 C25 1.613 . S
C3649 C42 1.997 . S
C3657 C833 1.502 . S
C3681 C67 1.758 . S
C3689 C605 1.326 . S
C3713 C70 1.794 . S
C3721 C709 1.596 . S
C3745 C81 1.751 . S
C3753 C367 1.574 . S
C3785 C491 1.479 . S
C3777 C53 1.938 . S
C3809 C56 1.807 . S
C3817 C253 1.606 . S
C3849 C947 0.946 . S
C3841 C95 1.713 . S
C3873 C98 1.805 . S
C3881 C1061 1.065 . S
C3905 C112 1.876 . S
C3913 C1165 1.383 . S
C3945 C1279 0.999 . S
C3937 C123 1.250 . S
C3969 C84 1.698 . S
C3977 C1403 0.923 . S
C4001 C109 1.309 . S
C4009 C1507 1.089 . S
C4033 C126 1.480 . S
C4041 C1517 0.965 1_565 S
C4065 C151 1.357 . S
C4073 C1289 0.885 1_455 S
C4105 C1393 1.526 . S
C4097 C154 1.732 . S
C4129 C165 1.672 . S
C4137 C1051 1.473 . S
C4161 C137 1.932 . S
C4169 C1175 1.515 . S
C4201 C937 1.714 . S
C4193 C140 1.968 . S
C4233 C1631 0.916 . S
C4225 C179 1.409 . S
C4257 C182 1.306 . S
C4265 C1745 0.917 . S
C4289 C196 1.741 . S
C4297 C1849 1.285 . S
C4329 C1963 1.184 . S
C4321 C207 1.654 . S
C4361 C2087 1.105 . S
C4353 C168 1.804 . S
C4385 C193 1.773 . S
C4393 C2191 1.292 . S
C4417 C210 1.925 . S
C4425 C2201 1.461 . S
C4449 C235 1.926 . S
C4457 C1973 1.462 . S
C4489 C2077 1.602 . S
C4481 C238 1.831 . S
C4521 C1735 1.041 1_655 S
C4513 C249 1.188 . S
C4553 C1859 1.367 . S
C4545 C221 1.827 . S
C4577 C224 1.391 . S
C4585 C1621 1.113 1_545 S
