# Generated by pormake.
# Topology anh, (6,3)-cn, num edge types: 1
# Building blocks:
#     Node 0, Type 0, BuildingBlock: PAMTUU_clean_sbu_0, # of connection points: 6
#     Node 1, Type 0, BuildingBlock: PAMTUU_clean_sbu_0, # of connection points: 6
#     Node 2, Type 0, BuildingBlock: PAMTUU_clean_sbu_0, # of connection points: 6
#     Node 3, Type 1, BuildingBlock: KAKCAD_clean_linker_0, # of connection points: 3
#     Node 4, Type 1, BuildingBlock: KAKCAD_clean_linker_0, # of connection points: 3
#     Node 5, Type 1, BuildingBlock: KAKCAD_clean_linker_0, # of connection points: 3
#     Node 6, Type 1, BuildingBlock: KAKCAD_clean_linker_0, # of connection points: 3
#     Node 7, Type 1, BuildingBlock: KAKCAD_clean_linker_0, # of connection points: 3
#     Node 8, Type 1, BuildingBlock: KAKCAD_clean_linker_0, # of connection points: 3
#     Edge 9, Type (0, 1), BuildingBlock: XUDNAN_clean_linker_2, # of connection points: 2
#     Edge 10, Type (0, 1), BuildingBlock: XUDNAN_clean_linker_2, # of connection points: 2
#     Edge 11, Type (0, 1), BuildingBlock: XUDNAN_clean_linker_2, # of connection points: 2
#     Edge 12, Type (0, 1), BuildingBlock: XUDNAN_clean_linker_2, # of connection points: 2
#     Edge 13, Type (0, 1), BuildingBlock: XUDNAN_clean_linker_2, # of connection points: 2
#     Edge 14, Type (0, 1), BuildingBlock: XUDNAN_clean_linker_2, # of connection points: 2
#     Edge 15, Type (0, 1), BuildingBlock: XUDNAN_clean_linker_2, # of connection points: 2
#     Edge 16, Type (0, 1), BuildingBlock: XUDNAN_clean_linker_2, # of connection points: 2
#     Edge 17, Type (0, 1), BuildingBlock: XUDNAN_clean_linker_2, # of connection points: 2
#     Edge 18, Type (0, 1), BuildingBlock: XUDNAN_clean_linker_2, # of connection points: 2
#     Edge 19, Type (0, 1), BuildingBlock: XUDNAN_clean_linker_2, # of connection points: 2
#     Edge 20, Type (0, 1), BuildingBlock: XUDNAN_clean_linker_2, # of connection points: 2
#     Edge 21, Type (0, 1), BuildingBlock: XUDNAN_clean_linker_2, # of connection points: 2
#     Edge 22, Type (0, 1), BuildingBlock: XUDNAN_clean_linker_2, # of connection points: 2
#     Edge 23, Type (0, 1), BuildingBlock: XUDNAN_clean_linker_2, # of connection points: 2
#     Edge 24, Type (0, 1), BuildingBlock: XUDNAN_clean_linker_2, # of connection points: 2
#     Edge 25, Type (0, 1), BuildingBlock: XUDNAN_clean_linker_2, # of connection points: 2
#     Edge 26, Type (0, 1), BuildingBlock: XUDNAN_clean_linker_2, # of connection points: 2
# Relax obj value: 0.237
# Max RMSD: 0.188
# Mean RMSD: 0.155
data_MOF--net-anh--node1-PAMTUU_clean_sbu_0--node2-KAKCAD_clean_linker_0--edge1-XUDNAN_clean_linker_2
_symmetry_space_group_name_H-M    P1
_symmetry_Int_Tables_number       1
_symmetry_cell_setting            triclinic
loop_
_symmetry_equiv_pos_as_xyz
'x, y, z'
_cell_length_a     36.004254
_cell_length_b     35.878455
_cell_length_c     66.650984
_cell_angle_alpha  94.403674
_cell_angle_beta   90.20343
_cell_angle_gamma 119.98199
loop_
_atom_site_label
_atom_site_type_symbol
_atom_site_fract_x
_atom_site_fract_y
_atom_site_fract_z
_atom_type_partial_charge
Tb0 Tb 0.14287 0.64079 0.16655 0.0
Tb1 Tb 0.18939 0.5835 0.16857 0.0
C2 C 0.15969 0.59972 0.12802 0.0
C3 C 1.06419 0.67317 0.17728 0.0
C4 C 0.98115 0.63387 0.19211 0.0
C5 C 0.98913 0.65204 0.17348 0.0
C6 C 1.03032 0.67158 0.16618 0.0
C7 C 1.05714 0.65849 0.19665 0.0
C8 C 1.01601 0.63925 0.20404 0.0
C9 C 0.10392 0.68257 0.16726 0.0
O10 O 1.08841 0.57285 0.16483 0.0
O11 O 0.12338 0.53785 0.17483 0.0
O12 O 0.19487 0.61254 0.199 0.0
O13 O 0.13579 0.62034 0.19662 0.0
O14 O 0.21567 0.5511 0.15219 0.0
O15 O 0.21085 0.5486 0.18444 0.0
O16 O 0.24207 0.64794 0.16345 0.0
O17 O 0.2114 0.68894 0.17311 0.0
O18 O 0.16484 0.63633 0.13642 0.0
O19 O 0.1559 0.56994 0.13938 0.0
C20 C 1.08774 0.53778 0.17036 0.0
O21 O 0.13728 0.69313 0.17909 0.0
O22 O 1.09917 0.65428 0.15245 0.0
C23 C 0.16456 0.61748 0.20738 0.0
C24 C 0.2662 0.54043 0.16942 0.0
C25 C 0.33898 0.53243 0.16307 0.0
C26 C 0.30506 0.50247 0.17384 0.0
C27 C 0.26883 0.50638 0.17691 0.0
C28 C 0.30172 0.57281 0.16046 0.0
C29 C 0.33791 0.56879 0.15728 0.0
C30 C 0.22419 0.53746 0.16818 0.0
C31 C 0.24555 0.68578 0.16881 0.0
H32 H 0.96307 0.64802 0.16369 0.0
H33 H 1.03502 0.68244 0.15118 0.0
H34 H 1.08273 0.65924 0.20557 0.0
H35 H 1.01107 0.62613 0.21854 0.0
H36 H 0.3054 0.47459 0.1788 0.0
H37 H 0.24173 0.48126 0.18396 0.0
H38 H 0.30032 0.59952 0.15468 0.0
H39 H 0.36344 0.59234 0.14887 0.0
Tb40 Tb 0.62537 0.0946 0.49553 0.0
Tb41 Tb 0.72598 0.16123 0.50681 0.0
C42 C 0.68944 0.13261 0.46189 0.0
C43 C 0.51928 1.00188 0.49841 0.0
C44 C 0.46642 0.92878 0.5186 0.0
C45 C 0.44902 0.95045 0.50881 0.0
C46 C 0.47527 0.98672 0.49881 0.0
C47 C 0.53709 0.98098 0.50847 0.0
C48 C 0.51073 0.94434 0.51834 0.0
C49 C 0.54689 1.04156 0.48898 0.0
O50 O 0.65413 1.05273 0.49632 0.0
O51 O 0.71916 0.09911 0.51321 0.0
O52 O 0.69257 0.15446 0.53474 0.0
O53 O 0.63418 0.08772 0.52668 0.0
O54 O 0.79041 0.19013 0.4988 0.0
O55 O 0.77372 0.20945 0.52705 0.0
O56 O 0.70052 0.20234 0.49812 0.0
O57 O 0.63031 0.1573 0.50448 0.0
O58 O 0.65165 0.12405 0.4679 0.0
O59 O 0.71972 0.13848 0.47492 0.0
C60 C 0.68954 1.0598 0.50597 0.0
O61 O 0.56167 0.07661 0.50115 0.0
O62 O 0.5766 1.04131 0.47788 0.0
C63 C 0.65872 0.11955 0.53998 0.0
C64 C 0.82107 0.26452 0.5083 0.0
C65 C 0.84017 0.34885 0.50179 0.0
C66 C 0.85872 0.34152 0.51858 0.0
C67 C 0.84908 0.29956 0.52185 0.0
C68 C 0.80409 0.2721 0.4911 0.0
C69 C 0.81344 0.31369 0.48791 0.0
C70 C 0.80284 0.21999 0.51376 0.0
C71 C 0.66214 0.19629 0.50186 0.0
H72 H 0.41478 0.93856 0.50832 0.0
H73 H 0.46122 1.0029 0.49138 0.0
H74 H 0.57131 0.99299 0.50867 0.0
H75 H 0.52482 0.92806 0.52565 0.0
H76 H 0.87978 0.368 0.52945 0.0
H77 H 0.86189 0.29426 0.53538 0.0
H78 H 0.78157 0.24553 0.48063 0.0
H79 H 0.79778 0.31783 0.47506 0.0
Tb80 Tb 0.65275 0.55986 0.83504 0.0
Tb81 Tb 0.70868 0.66354 0.83569 0.0
C82 C 0.66968 0.60483 0.79482 0.0
C83 C 0.6012 0.44612 0.85074 0.0
C84 C 0.57335 0.36964 0.86975 0.0
C85 C 0.60971 0.38546 0.85804 0.0
C86 C 0.62337 0.42324 0.84854 0.0
C87 C 0.56756 0.43265 0.86408 0.0
C88 C 0.55386 0.39481 0.87355 0.0
C89 C 0.60837 0.47923 0.83696 0.0
O90 O 0.72022 0.57583 0.8413 0.0
O91 O 0.75425 0.64172 0.82837 0.0
O92 O 0.72441 0.64719 0.86426 0.0
O93 O 0.65919 0.58728 0.86566 0.0
O94 O 0.74868 0.71929 0.8213 0.0
O95 O 0.73038 0.72403 0.85174 0.0
O96 O 0.64389 0.64875 0.84365 0.0
O97 O 0.6048 0.5795 0.8291 0.0
O98 O 0.66531 0.57167 0.80378 0.0
O99 O 0.67851 0.6412 0.80522 0.0
C100 C 0.75539 0.60852 0.83491 0.0
O101 O 0.59559 0.50633 0.84259 0.0
O102 O 0.6449 0.49801 0.82828 0.0
C103 C 0.6958 0.61658 0.87447 0.0
C104 C 0.72542 0.76897 0.82903 0.0
C105 C 0.67181 0.79322 0.80979 0.0
C106 C 0.71092 0.80144 0.80158 0.0
C107 C 0.73738 0.78922 0.81108 0.0
C108 C 0.6888 0.76507 0.8383 0.0
C109 C 0.66222 0.77679 0.82875 0.0
C110 C 0.7452 0.74417 0.83559 0.0
C111 C 0.60674 0.61534 0.83697 0.0
H112 H 0.62517 0.3666 0.85461 0.0
H113 H 0.64935 0.43272 0.83835 0.0
H114 H 0.54985 0.44963 0.86615 0.0
H115 H 0.52595 0.38349 0.88262 0.0
H116 H 0.72027 0.81554 0.78737 0.0
H117 H 0.76565 0.79292 0.8037 0.0
H118 H 0.67857 0.74976 0.85219 0.0
H119 H 0.63254 0.76977 0.83567 0.0
C120 C 0.68877 0.16704 0.3055 0.0
C121 C 0.68888 0.13207 0.31364 0.0
C122 C 0.6836 0.16698 0.2846 0.0
C123 C 0.67735 0.13146 0.2715 0.0
C124 C 0.67667 0.09619 0.2797 0.0
C125 C 0.68283 0.0967 0.3005 0.0
C126 C 0.67165 0.13093 0.24931 0.0
C127 C 0.70297 0.16379 0.23869 0.0
C128 C 0.69966 0.16231 0.21755 0.0
C129 C 0.66278 0.12698 0.20697 0.0
C130 C 0.63001 0.09367 0.21758 0.0
C131 C 0.63575 0.09632 0.2387 0.0
C132 C 0.59022 1.0546 0.2075 0.0
C133 C 0.59213 1.03075 0.19014 0.0
C134 C 0.55037 1.03774 0.21676 0.0
C135 C 0.51475 0.99753 0.20977 0.0
C136 C 0.51718 0.97235 0.19309 0.0
C137 C 0.73738 0.19658 0.20737 0.0
C138 C 0.77768 0.19958 0.20958 0.0
C139 C 0.7358 0.23018 0.19839 0.0
C140 C 0.77361 0.26577 0.19197 0.0
C141 C 0.81404 0.26858 0.1942 0.0
C142 C 0.81507 0.23461 0.20309 0.0
C143 C 0.55632 0.99043 0.18307 0.0
H144 H 0.69361 0.19481 0.31528 0.0
H145 H 0.68411 0.1945 0.27867 0.0
H146 H 0.67208 1.06849 0.26995 0.0
H147 H 0.68267 1.06928 0.30636 0.0
H148 H 0.73105 0.19009 0.24693 0.0
H149 H 0.6123 0.07077 0.2471 0.0
H150 H 0.65991 0.12523 0.19071 0.0
H151 H 0.62192 1.04225 0.18251 0.0
H152 H 0.54698 1.05515 0.22996 0.0
H153 H 0.48582 0.98549 0.21811 0.0
H154 H 0.78045 0.17502 0.21685 0.0
H155 H 0.70555 0.22959 0.1969 0.0
H156 H 0.55975 0.97311 0.16986 0.0
H157 H 0.84525 0.23545 0.20551 0.0
H158 H 0.77115 0.29095 0.18517 0.0
C159 C 0.65236 0.64271 0.63849 0.0
C160 C 0.67343 0.62367 0.64746 0.0
C161 C 0.65384 0.64681 0.61763 0.0
C162 C 0.67672 0.63225 0.60536 0.0
C163 C 0.69962 0.61542 0.61468 0.0
C164 C 0.69777 0.61095 0.63536 0.0
C165 C 0.67568 0.63278 0.58287 0.0
C166 C 0.67746 0.66765 0.57375 0.0
C167 C 0.67789 0.66907 0.5526 0.0
C168 C 0.67528 0.6332 0.54038 0.0
C169 C 0.674 0.59775 0.54941 0.0
C170 C 0.6737 0.59825 0.57052 0.0
C171 C 0.67382 0.55955 0.53794 0.0
C172 C 0.63988 0.53064 0.52427 0.0
C173 C 0.7038 0.54733 0.54363 0.0
C174 C 0.69892 0.50689 0.53678 0.0
C175 C 0.66358 0.47668 0.52405 0.0
C176 C 0.68399 0.70998 0.54433 0.0
C177 C 0.71541 0.75049 0.55359 0.0
C178 C 0.65694 0.70993 0.52891 0.0
C179 C 0.66082 0.74917 0.52334 0.0
C180 C 0.69227 0.78968 0.53284 0.0
C181 C 0.71936 0.78925 0.54805 0.0
C182 C 0.63481 0.48991 0.51747 0.0
H183 H 0.63319 0.65263 0.64742 0.0
H184 H 0.63571 0.65983 0.61104 0.0
H185 H 0.71868 0.60506 0.60594 0.0
H186 H 0.71491 0.59679 0.64189 0.0
H187 H 0.67945 0.69453 0.58327 0.0
H188 H 0.67135 0.5708 0.57742 0.0
H189 H 0.67607 0.6337 0.52416 0.0
H190 H 0.61585 0.53845 0.51971 0.0
H191 H 0.73021 0.56847 0.55427 0.0
H192 H 0.72178 0.49851 0.54242 0.0
H193 H 0.73699 0.75231 0.56549 0.0
H194 H 0.63203 0.67954 0.52153 0.0
H195 H 0.60754 0.4683 0.50738 0.0
H196 H 0.74357 0.81914 0.5561 0.0
H197 H 0.63942 0.74778 0.51148 0.0
C198 C 0.20339 0.61938 0.97124 0.0
C199 C 0.16591 0.58715 0.97922 0.0
C200 C 0.2063 0.62232 0.95032 0.0
C201 C 0.17151 0.59354 0.93699 0.0
C202 C 0.13391 0.5618 0.94507 0.0
C203 C 0.13121 0.55857 0.96585 0.0
C204 C 0.17365 0.59639 0.91471 0.0
C205 C 0.20941 0.60075 0.90446 0.0
C206 C 0.21083 0.60145 0.88334 0.0
C207 C 0.17474 0.59779 0.87237 0.0
C208 C 0.13812 0.59382 0.88256 0.0
C209 C 0.13896 0.59367 0.90371 0.0
C210 C 1.09888 0.59121 0.87225 0.0
C211 C 1.10213 0.61608 0.8563 0.0
C212 C 1.05767 0.56695 0.87996 0.0
C213 C 1.02225 0.5701 0.87327 0.0
C214 C 1.02583 0.59692 0.85812 0.0
C215 C 0.25142 0.60743 0.87382 0.0
C216 C 0.29123 0.64363 0.88046 0.0
C217 C 0.25218 0.57496 0.86074 0.0
C218 C 0.29162 0.57849 0.85481 0.0
C219 C 0.33153 0.61488 0.86156 0.0
C220 C 0.33029 0.6474 0.8744 0.0
C221 C 1.06634 0.61862 0.84929 0.0
H222 H 0.23077 0.64171 0.98113 0.0
H223 H 0.23558 0.64734 0.94459 0.0
H224 H 0.10662 0.53894 0.93525 0.0
H225 H 1.10175 0.5336 0.97148 0.0
H226 H 0.23618 0.60276 0.91297 0.0
H227 H 0.11262 0.5925 0.91199 0.0
H228 H 0.17537 0.59839 0.85615 0.0
H229 H 0.13278 0.63507 0.84972 0.0
H230 H 1.05282 0.54613 0.89181 0.0
H231 H 0.99244 0.5525 0.88068 0.0
H232 H 0.2922 0.66891 0.89084 0.0
H233 H 0.22233 0.54612 0.85566 0.0
H234 H 1.07102 0.63841 0.83705 0.0
H235 H 0.35984 0.67568 0.88029 0.0
H236 H 0.29084 0.55277 0.84486 0.0
C237 C 1.06378 0.64743 0.35153 0.0
C238 C 1.09204 0.63125 0.34849 0.0
C239 C 1.05835 0.66157 0.37089 0.0
C240 C 1.08047 0.65918 0.38772 0.0
C241 C 0.10662 0.64059 0.38477 0.0
C242 C 0.11286 0.62751 0.36547 0.0
C243 C 1.07816 0.6778 0.40813 0.0
C244 C 1.03938 0.67368 0.41496 0.0
C245 C 1.03718 0.69055 0.43458 0.0
C246 C 1.07553 0.71354 0.44669 0.0
C247 C 0.11266 0.71347 0.44088 0.0
C248 C 0.11449 0.69735 0.42144 0.0
C249 C 0.1457 0.72149 0.45635 0.0
C250 C 0.16929 0.76175 0.46738 0.0
C251 C 0.1515 0.68716 0.46095 0.0
C252 C 0.18107 0.69312 0.47619 0.0
C253 C 0.20597 0.73379 0.48693 0.0
C254 C 0.99463 0.67655 0.44385 0.0
C255 C 0.95604 0.65813 0.4319 0.0
C256 C 0.99132 0.67427 0.46489 0.0
C257 C 0.95201 0.64909 0.47315 0.0
C258 C 0.91486 0.62431 0.46067 0.0
C259 C 0.91656 0.63163 0.44019 0.0
C260 C 0.19958 0.76804 0.48238 0.0
H261 H 1.04622 0.64984 0.33896 0.0
H262 H 1.03783 0.67555 0.37257 0.0
H263 H 0.12309 0.63675 0.39737 0.0
H264 H 0.13528 0.61582 0.36396 0.0
H265 H 1.01068 0.65468 0.40535 0.0
H266 H 0.14426 0.69921 0.41702 0.0
H267 H 1.07619 0.72826 0.46155 0.0
H268 H 0.16486 0.78844 0.46413 0.0
H269 H 0.13269 0.65548 0.45287 0.0
H270 H 0.18463 0.66592 0.47944 0.0
H271 H 0.95625 0.6611 0.41588 0.0
H272 H 1.01897 0.6876 0.47522 0.0
H273 H 0.21884 0.80015 0.48993 0.0
H274 H 0.88809 0.61376 0.43025 0.0
H275 H 0.95215 0.6446 0.48903 0.0
C276 C 0.47914 1.01394 0.66663 0.0
C277 C 0.51159 1.05763 0.66741 0.0
C278 C 0.45414 0.99751 0.68319 0.0
C279 C 0.46141 1.02407 0.70112 0.0
C280 C 0.4926 1.06816 0.70158 0.0
C281 C 0.51703 0.08476 0.68489 0.0
C282 C 0.44022 1.0051 0.71987 0.0
C283 C 0.43525 0.96521 0.72436 0.0
C284 C 0.4229 0.95023 0.74341 0.0
C285 C 0.41345 0.97451 0.75781 0.0
C286 C 0.41957 1.01497 0.75392 0.0
C287 C 0.43149 1.02941 0.73471 0.0
C288 C 0.42396 1.04559 0.77123 0.0
C289 C 0.39415 1.03278 0.78648 0.0
C290 C 0.46222 0.08556 0.77418 0.0
C291 C 0.47153 0.11115 0.79232 0.0
C292 C 0.44262 0.09756 0.80781 0.0
C293 C 0.43012 0.91555 0.74973 0.0
C294 C 0.4184 0.87796 0.73694 0.0
C295 C 0.45457 0.92314 0.7676 0.0
C296 C 0.46914 0.89529 0.77205 0.0
C297 C 0.45949 0.85882 0.75881 0.0
C298 C 0.43281 0.8497 0.7415 0.0
C299 C 0.40327 1.0589 0.80463 0.0
H300 H 0.47403 0.99181 0.65354 0.0
H301 H 0.43 0.96355 0.68215 0.0
H302 H 0.49972 0.0897 0.71513 0.0
H303 H 0.5409 0.1188 0.68593 0.0
H304 H 0.44535 0.9479 0.71379 0.0
H305 H 0.43649 1.06087 0.73183 0.0
H306 H 0.40593 0.96405 0.77284 0.0
H307 H 0.36456 1.00197 0.78461 0.0
H308 H 0.4862 0.09594 0.76291 0.0
H309 H 0.50188 0.1412 0.79448 0.0
H310 H 0.39949 0.87132 0.72308 0.0
H311 H 0.46515 0.95232 0.77754 0.0
H312 H 0.38047 1.04821 0.81641 0.0
H313 H 0.42435 0.82161 0.73111 0.0
H314 H 0.49046 0.90423 0.78525 0.0
C315 C 0.67379 0.433 0.99053 0.0
C316 C 0.70446 0.47732 0.9934 0.0
C317 C 0.65772 0.40872 0.00702 0.0
C318 C 0.67237 0.42811 0.02668 0.0
C319 C 0.70596 0.47126 0.02947 0.0
C320 C 0.72184 0.49569 0.01296 0.0
C321 C 0.64732 0.40665 0.04404 0.0
C322 C 0.66786 0.40725 0.06215 0.0
C323 C 0.64467 0.39488 0.07971 0.0
C324 C 0.60066 0.38084 0.07878 0.0
C325 C 0.5805 0.38313 0.06126 0.0
C326 C 0.60344 0.39365 0.04365 0.0
C327 C 0.54204 0.388 0.06348 0.0
C328 C 0.51072 0.36427 0.07705 0.0
C329 C 0.543 0.42441 0.05641 0.0
C330 C 0.51789 0.44035 0.06496 0.0
C331 C 0.49148 0.42028 0.08073 0.0
C332 C 0.66735 0.40503 0.09975 0.0
C333 C 0.70079 0.39645 0.10307 0.0
C334 C 0.65718 0.42646 0.11547 0.0
C335 C 0.68066 0.44022 0.1338 0.0
C336 C 0.71516 0.43327 0.13686 0.0
C337 C 0.72442 0.41031 0.12154 0.0
C338 C 0.48577 0.38048 0.08574 0.0
H339 H 0.66048 0.41763 0.97559 0.0
H340 H 0.63199 0.37546 0.00449 0.0
H341 H 0.71748 0.48715 0.0445 0.0
H342 H 0.74532 0.52974 0.01571 0.0
H343 H 0.70229 0.42029 0.06289 0.0
H344 H 0.58835 0.39643 0.03017 0.0
H345 H 0.58346 0.37328 0.09255 0.0
H346 H 0.50862 0.33562 0.08249 0.0
H347 H 0.56655 0.44362 0.04596 0.0
H348 H 0.52191 0.47047 0.06042 0.0
H349 H 0.7093 0.38001 0.09125 0.0
H350 H 0.63226 0.43451 0.11334 0.0
H351 H 0.46519 0.364 0.0977 0.0
H352 H 0.75133 0.4051 0.12344 0.0
H353 H 0.67296 0.45793 0.14534 0.0
H354 H 0.3251 0.4545 0.14649 0.0
H355 H 0.42557 0.58788 0.16047 0.0
H356 H 0.47641 0.57256 0.14179 0.0
H357 H 0.39483 0.40589 0.14946 0.0
H358 H 0.36488 0.3658 0.12888 0.0
H359 H 0.33829 0.38633 0.14533 0.0
H360 H 0.3119 0.40766 0.11433 0.0
H361 H 0.33907 0.38809 0.09782 0.0
H362 H 0.35056 0.44306 0.09763 0.0
H363 H 0.51358 0.54462 0.11893 0.0
H364 H 0.53688 0.50482 0.09539 0.0
H365 H 0.41176 0.38942 0.09644 0.0
C366 C 0.35818 0.48017 0.14629 0.0
C367 C 0.37155 0.52233 0.15508 0.0
C368 C 0.41474 0.55538 0.15383 0.0
C369 C 0.44378 0.54695 0.14331 0.0
C370 C 0.42906 0.50531 0.13427 0.0
C371 C 0.38746 0.47231 0.1359 0.0
C372 C 0.37894 0.43109 0.12382 0.0
C373 C 0.36864 0.39516 0.1377 0.0
C374 C 0.343 0.41666 0.10743 0.0
C375 C 0.42202 0.44633 0.11471 0.0
C376 C 0.45048 0.48919 0.12099 0.0
C377 C 0.49171 0.51098 0.11402 0.0
C378 C 0.50441 0.48822 0.10045 0.0
C379 C 0.4759 0.44415 0.09393 0.0
C380 C 0.4342 0.42302 0.10122 0.0
H381 H 0.8503 0.38687 0.46659 0.0
H382 H 0.84321 0.4089 0.53105 0.0
H383 H 0.84532 0.47739 0.52602 0.0
H384 H 0.92367 0.49337 0.45829 0.0
H385 H 0.8995 0.49039 0.43404 0.0
H386 H 0.89394 0.44229 0.44331 0.0
H387 H 0.81107 0.40676 0.43851 0.0
H388 H 0.81665 0.45576 0.43003 0.0
H389 H 0.78424 0.43231 0.45108 0.0
H390 H 0.85083 0.5446 0.51401 0.0
H391 H 0.87719 0.61188 0.49735 0.0
H392 H 0.87922 0.54446 0.4409 0.0
C393 C 0.84857 0.40573 0.47966 0.0
C394 C 0.84592 0.39211 0.49918 0.0
C395 C 0.84541 0.41866 0.51593 0.0
C396 C 0.84583 0.45726 0.51319 0.0
C397 C 0.84665 0.46875 0.49363 0.0
C398 C 0.84879 0.44408 0.4772 0.0
C399 C 0.85369 0.46537 0.45795 0.0
C400 C 0.89516 0.47336 0.44783 0.0
C401 C 0.81404 0.43844 0.44354 0.0
C402 C 0.85613 0.50703 0.46621 0.0
C403 C 0.85038 0.5077 0.48671 0.0
C404 C 0.85511 0.54435 0.49795 0.0
C405 C 0.8698 0.58236 0.48833 0.0
C406 C 0.8807 0.58352 0.46787 0.0
C407 C 0.87048 0.54454 0.45642 0.0
H408 H 0.61295 0.81523 0.82425 0.0
H409 H 0.65583 0.78076 0.7686 0.0
H410 H 0.59993 0.78541 0.74945 0.0
H411 H 0.49797 0.75046 0.809 0.0
H412 H 0.48621 0.789 0.82203 0.0
H413 H 0.52938 0.78235 0.83139 0.0
H414 H 0.58266 0.86426 0.8301 0.0
H415 H 0.53972 0.87125 0.82095 0.0
H416 H 0.5873 0.8884 0.80681 0.0
H417 H 0.54325 0.79993 0.73627 0.0
H418 H 0.49241 0.82537 0.73027 0.0
H419 H 0.47959 0.83905 0.79479 0.0
C420 C 0.61036 0.80781 0.80808 0.0
C421 C 0.63935 0.79794 0.79805 0.0
C422 C 0.63499 0.78956 0.77675 0.0
C423 C 0.60277 0.79134 0.76571 0.0
C424 C 0.57444 0.80044 0.77619 0.0
C425 C 0.57773 0.80817 0.79691 0.0
C426 C 0.54394 0.81815 0.8046 0.0
C427 C 0.51251 0.78289 0.81751 0.0
C428 C 0.56466 0.86318 0.81629 0.0
C429 C 0.5224 0.81692 0.78485 0.0
C430 C 0.54012 0.80624 0.76863 0.0
C431 C 0.5284 0.80739 0.74884 0.0
C432 C 0.49913 0.82155 0.74558 0.0
C433 C 0.48187 0.83428 0.76205 0.0
C434 C 0.49232 0.82986 0.78186 0.0
H435 H 0.9094 0.64033 0.18611 0.0
H436 H 0.95171 0.55607 0.20763 0.0
H437 H 0.87754 0.4957 0.20468 0.0
H438 H 0.79111 0.57635 0.20409 0.0
H439 H 0.77221 0.58689 0.18131 0.0
H440 H 0.82337 0.62677 0.19325 0.0
H441 H 0.85975 0.62775 0.15971 0.0
H442 H 0.80934 0.58766 0.1478 0.0
H443 H 0.8539 0.57797 0.14796 0.0
H444 H 0.80842 0.44111 0.18793 0.0
H445 H 0.74929 0.39977 0.16212 0.0
H446 H 0.75016 0.51733 0.1506 0.0
C447 C 0.90262 0.60956 0.19102 0.0
C448 C 0.93636 0.60293 0.19694 0.0
C449 C 0.92646 0.56229 0.20328 0.0
C450 C 0.88426 0.52756 0.20154 0.0
C451 C 0.8523 0.53396 0.19354 0.0
C452 C 0.86074 0.5744 0.18892 0.0
C453 C 0.82339 0.57145 0.17699 0.0
C454 C 0.8012 0.59155 0.18967 0.0
C455 C 0.83747 0.59238 0.15694 0.0
C456 C 0.79503 0.52292 0.17359 0.0
C457 C 0.81137 0.50177 0.18385 0.0
C458 C 0.79459 0.45721 0.18033 0.0
C459 C 0.76124 0.43399 0.16558 0.0
C460 C 0.74497 0.45541 0.15466 0.0
C461 C 0.76114 0.50004 0.15926 0.0
H462 H 0.40011 0.91164 0.54253 0.0
H463 H 0.46532 0.85254 0.51136 0.0
H464 H 0.40125 0.78114 0.51225 0.0
H465 H 0.31352 0.80321 0.56796 0.0
H466 H 0.27401 0.81904 0.56388 0.0
H467 H 0.3287 0.85945 0.57135 0.0
H468 H 0.3313 0.90001 0.54052 0.0
H469 H 0.27761 0.85988 0.53276 0.0
H470 H 0.32004 0.87209 0.5156 0.0
H471 H 0.32883 0.72823 0.5018 0.0
H472 H 0.25943 0.69991 0.48385 0.0
H473 H 0.23406 0.78747 0.52183 0.0
C474 C 0.40127 0.88306 0.53706 0.0
C475 C 0.43698 0.88726 0.52668 0.0
C476 C 0.43824 0.8499 0.5195 0.0
C477 C 0.40177 0.80906 0.51997 0.0
C478 C 0.36464 0.80625 0.52785 0.0
C479 C 0.36455 0.84225 0.53705 0.0
C480 C 0.31912 0.8333 0.53982 0.0
C481 C 0.3082 0.82844 0.56208 0.0
C482 C 0.31165 0.86834 0.53164 0.0
C483 C 0.29428 0.79022 0.52741 0.0
C484 C 0.32073 0.77388 0.52172 0.0
C485 C 0.30738 0.73959 0.50684 0.0
C486 C 0.26761 0.72361 0.49662 0.0
C487 C 0.24142 0.74188 0.50131 0.0
C488 C 0.25371 0.77329 0.51785 0.0
H489 H 0.48914 0.31221 0.86199 0.0
H490 H 0.60743 0.32282 0.88425 0.0
H491 H 0.57446 0.2436 0.87914 0.0
H492 H 0.41127 0.1953 0.87801 0.0
H493 H 0.3793 0.18356 0.85504 0.0
H494 H 0.40497 0.23715 0.86795 0.0
H495 H 0.44127 0.26853 0.83511 0.0
H496 H 0.41672 0.21554 0.82226 0.0
H497 H 0.47432 0.24952 0.8231 0.0
H498 H 0.53984 0.17099 0.86169 0.0
H499 H 0.50613 0.11171 0.83452 0.0
H500 H 0.40935 0.14613 0.82307 0.0
C501 C 0.50708 0.29758 0.86706 0.0
C502 C 0.55063 0.32347 0.87368 0.0
C503 C 0.57389 0.30344 0.87929 0.0
C504 C 0.55527 0.25841 0.87651 0.0
C505 C 0.51327 0.23391 0.8683 0.0
C506 C 0.48904 0.25277 0.86405 0.0
C507 C 0.44854 0.2214 0.8515 0.0
C508 C 0.40866 0.20858 0.86387 0.0
C509 C 0.44511 0.23986 0.83185 0.0
C510 C 0.45613 0.18373 0.84743 0.0
C511 C 0.49272 0.19083 0.85794 0.0
C512 C 0.51027 0.1642 0.85404 0.0
C513 C 0.49108 0.13072 0.83856 0.0
C514 C 0.45483 0.12426 0.82718 0.0
C515 C 0.43612 0.1498 0.83219 0.0
H516 H 0.62971 0.97101 0.50621 0.0
H517 H 0.76624 1.06364 0.51289 0.0
H518 H 0.78058 1.00491 0.51867 0.0
H519 H 0.62918 0.90656 0.54558 0.0
H520 H 0.58986 0.85546 0.53279 0.0
H521 H 0.58969 0.90413 0.528 0.0
H522 H 0.59495 0.88881 0.48993 0.0
H523 H 0.59526 0.84012 0.49457 0.0
H524 H 0.63812 0.88084 0.48133 0.0
H525 H 0.7813 0.93676 0.52372 0.0
H526 H 0.7684 0.8648 0.52996 0.0
H527 H 0.63096 0.81322 0.52218 0.0
C528 C 0.66266 0.97888 0.5087 0.0
C529 C 0.69689 1.02253 0.50891 0.0
C530 C 0.73936 1.03098 0.5126 0.0
C531 C 0.7479 0.99761 0.51586 0.0
C532 C 0.71372 0.95531 0.51567 0.0
C533 C 0.67183 0.94569 0.51234 0.0
C534 C 0.64113 0.89739 0.51386 0.0
C535 C 0.61066 0.89049 0.53108 0.0
C536 C 0.61587 0.8755 0.49372 0.0
C537 C 0.67234 0.88154 0.51856 0.0
C538 C 0.71403 0.91573 0.51933 0.0
C539 C 0.74872 0.9099 0.52333 0.0
C540 C 0.74092 0.86857 0.52702 0.0
C541 C 0.69858 0.83265 0.527 0.0
C542 C 0.6638 0.8395 0.52233 0.0
H543 H 0.77864 0.54998 0.84915 0.0
H544 H 0.83191 0.67348 0.82367 0.0
H545 H 0.90381 0.68243 0.82647 0.0
H546 H 0.86784 0.58103 0.88471 0.0
H547 H 0.86667 0.5301 0.88149 0.0
H548 H 0.81816 0.532 0.87738 0.0
H549 H 0.80776 0.49425 0.84149 0.0
H550 H 0.85618 0.49212 0.84551 0.0
H551 H 0.8504 0.51729 0.82425 0.0
H552 H 0.97155 0.68103 0.83323 0.0
H553 H 1.0297 0.6679 0.84217 0.0
H554 H 0.93585 0.54299 0.8615 0.0
C555 C 0.80535 0.57875 0.84403 0.0
C556 C 0.79869 0.61096 0.83614 0.0
C557 C 0.83518 0.64808 0.82976 0.0
C558 C 0.87663 0.65364 0.8313 0.0
C559 C 0.88213 0.62179 0.83919 0.0
C560 C 0.84759 0.58484 0.84534 0.0
C561 C 0.86325 0.55583 0.85323 0.0
C562 C 0.85338 0.54936 0.87553 0.0
C563 C 0.8432 0.51228 0.84035 0.0
C564 C 0.91172 0.58245 0.85063 0.0
C565 C 0.92164 0.62042 0.84256 0.0
C566 C 0.96401 0.651 0.83927 0.0
C567 C 0.99717 0.64282 0.84425 0.0
C568 C 0.98865 0.60387 0.85234 0.0
C569 C 0.94466 0.57332 0.85548 0.0
H570 H 0.27047 0.77163 0.18226 0.0
H571 H 0.32199 0.69123 0.15898 0.0
H572 H 0.39483 0.75473 0.16191 0.0
H573 H 0.34398 0.86776 0.15758 0.0
H574 H 0.3493 0.90515 0.17858 0.0
H575 H 0.30061 0.85362 0.17433 0.0
H576 H 0.30895 0.83656 0.21053 0.0
H577 H 0.35768 0.88801 0.21488 0.0
H578 H 0.35801 0.83893 0.21857 0.0
H579 H 0.46345 0.82707 0.16799 0.0
H580 H 0.52173 0.90156 0.1769 0.0
H581 H 0.42786 0.9378 0.19587 0.0
C582 C 0.29698 0.76735 0.17766 0.0
C583 C 0.28974 0.72575 0.17029 0.0
C584 C 0.32593 0.7222 0.16463 0.0
C585 C 0.36777 0.75831 0.16624 0.0
C586 C 0.37374 0.79853 0.17359 0.0
C587 C 0.33937 0.80336 0.17921 0.0
C588 C 0.3551 0.85036 0.18691 0.0
C589 C 0.33611 0.8704 0.17355 0.0
C590 C 0.34429 0.85364 0.20904 0.0
C591 C 0.40355 0.871 0.18482 0.0
C592 C 0.41345 0.84041 0.17704 0.0
C593 C 0.45589 0.85129 0.17393 0.0
C594 C 0.48903 0.89422 0.17892 0.0
C595 C 0.48032 0.92676 0.18699 0.0
C596 C 0.43645 0.91438 0.18989 0.0
H597 H 0.72146 0.28513 0.5043 0.0
H598 H 0.58477 0.19381 0.50402 0.0
H599 H 0.57048 0.25435 0.50832 0.0
H600 H 0.72159 0.36188 0.54245 0.0
H601 H 0.76164 0.40853 0.53113 0.0
H602 H 0.76059 0.35763 0.52713 0.0
H603 H 0.75595 0.36102 0.48836 0.0
H604 H 0.75603 0.41143 0.4923 0.0
H605 H 0.71312 0.36619 0.47749 0.0
H606 H 0.57075 0.32585 0.51342 0.0
H607 H 0.58559 0.4007 0.51985 0.0
H608 H 0.72223 0.44733 0.51725 0.0
C609 C 0.68845 0.27776 0.50494 0.0
C610 C 0.65426 0.23407 0.50368 0.0
C611 C 0.61169 0.22652 0.50488 0.0
C612 C 0.60317 0.26092 0.50731 0.0
C613 C 0.63745 0.30336 0.50864 0.0
C614 C 0.67927 0.31192 0.50752 0.0
C615 C 0.71025 0.36058 0.51002 0.0
C616 C 0.74037 0.37293 0.52878 0.0
C617 C 0.7354 0.37572 0.49092 0.0
C618 C 0.67956 0.37809 0.51286 0.0
C619 C 0.63763 0.34444 0.51184 0.0
C620 C 0.60355 0.35234 0.51411 0.0
C621 C 0.6124 0.39537 0.51762 0.0
C622 C 0.65515 0.43088 0.51898 0.0
C623 C 0.68909 0.42153 0.51646 0.0
H624 H 0.52005 0.55349 0.84271 0.0
H625 H 0.60367 0.68855 0.83389 0.0
H626 H 0.54293 0.70154 0.83755 0.0
H627 H 0.42312 0.54126 0.81659 0.0
H628 H 0.38663 0.50675 0.83422 0.0
H629 H 0.43602 0.50681 0.82975 0.0
H630 H 0.45687 0.52465 0.86787 0.0
H631 H 0.40758 0.52466 0.87245 0.0
H632 H 0.45833 0.5714 0.88083 0.0
H633 H 0.47396 0.70137 0.84328 0.0
H634 H 0.40211 0.68869 0.85119 0.0
H635 H 0.35955 0.55382 0.85748 0.0
C636 C 0.52538 0.58563 0.84128 0.0
C637 C 0.5673 0.62017 0.83796 0.0
C638 C 0.57248 0.66173 0.83656 0.0
C639 C 0.5379 0.66938 0.83855 0.0
C640 C 0.49743 0.63517 0.84214 0.0
C641 C 0.49079 0.59403 0.84353 0.0
C642 C 0.44398 0.56365 0.8483 0.0
C643 C 0.42108 0.52746 0.83119 0.0
C644 C 0.44156 0.54498 0.86857 0.0
C645 C 0.42567 0.59419 0.84949 0.0
C646 C 0.4573 0.63522 0.84575 0.0
C647 C 0.44903 0.66934 0.84626 0.0
C648 C 0.40785 0.66178 0.85092 0.0
C649 C 0.37448 0.62033 0.85523 0.0
C650 C 0.38379 0.5859 0.85417 0.0
H651 H 1.00435 0.5171 0.18248 0.0
H652 H 1.07823 0.45994 0.15835 0.0
H653 H 1.01599 0.3874 0.16007 0.0
H654 H 0.94822 0.43822 0.2178 0.0
H655 H 0.89776 0.43666 0.21437 0.0
H656 H 0.9473 0.48474 0.21001 0.0
H657 H 0.91782 0.48163 0.17392 0.0
H658 H 0.86865 0.43289 0.17817 0.0
H659 H 0.89989 0.43349 0.15706 0.0
H660 H 0.94791 0.3205 0.16542 0.0
H661 H 0.87802 0.26272 0.1749 0.0
H662 H 0.84427 0.35855 0.1969 0.0
C663 C 1.00708 0.48928 0.17724 0.0
C664 C 1.04671 0.49475 0.17015 0.0
C665 C 1.04873 0.45713 0.16386 0.0
C666 C 1.01332 0.4155 0.16473 0.0
C667 C 0.97528 0.41105 0.17207 0.0
C668 C 0.97162 0.44671 0.17824 0.0
C669 C 0.92693 0.43175 0.18625 0.0
C670 C 0.93025 0.44887 0.20842 0.0
C671 C 0.90184 0.44582 0.17308 0.0
C672 C 0.90679 0.38247 0.18404 0.0
C673 C 0.93543 0.37162 0.17556 0.0
C674 C 0.92528 0.32867 0.17213 0.0
C675 C 0.8853 0.29587 0.17774 0.0
C676 C 0.85514 0.30537 0.18698 0.0
C677 C 0.86611 0.34968 0.18982 0.0
H678 H 0.18242 0.65698 0.09839 0.0
H679 H 0.13051 0.52131 0.10705 0.0
H680 H 0.12707 0.50433 0.07041 0.0
H681 H 0.11961 0.64038 0.05226 0.0
H682 H 0.16275 0.68447 0.04069 0.0
H683 H 0.16037 0.68643 0.06773 0.0
H684 H 0.23719 0.69792 0.07076 0.0
H685 H 0.23972 0.6958 0.04373 0.0
H686 H 0.24892 0.65958 0.05748 0.0
H687 H 0.12888 0.50109 0.0331 0.0
H688 H 0.1365 0.51209 0.99696 0.0
H689 H 0.1888 0.6498 0.01135 0.0
C690 C 0.17006 0.6237 0.09254 0.0
C691 C 0.15664 0.59049 0.10571 0.0
C692 C 0.14108 0.54741 0.0974 0.0
C693 C 0.13893 0.53735 0.07654 0.0
C694 C 0.15269 0.57068 0.06402 0.0
C695 C 0.16803 0.61302 0.07161 0.0
C696 C 0.18145 0.64259 0.05463 0.0
C697 C 0.15442 0.66477 0.05378 0.0
C698 C 0.22969 0.67595 0.05679 0.0
C699 C 0.17115 0.61017 0.03639 0.0
C700 C 0.15443 0.56889 0.04226 0.0
C701 C 0.14188 0.53326 0.02831 0.0
C702 C 0.14619 0.53982 0.00779 0.0
C703 C 0.16309 0.58173 1.00126 0.0
C704 C 0.17608 0.61742 0.01585 0.0
H705 H 0.64399 0.14234 0.43129 0.0
H706 H 0.7529 0.12505 0.44285 0.0
H707 H 0.76492 0.12389 0.4064 0.0
H708 H 0.60472 0.07444 0.38507 0.0
H709 H 0.59008 0.10895 0.37309 0.0
H710 H 0.59002 0.10862 0.4001 0.0
H711 H 0.64186 0.1914 0.40394 0.0
H712 H 0.64203 0.19199 0.37693 0.0
H713 H 0.69194 0.21386 0.39149 0.0
H714 H 0.7627 0.12047 0.36847 0.0
H715 H 0.74967 0.12053 0.33199 0.0
H716 H 0.64514 0.14451 0.3449 0.0
C717 C 0.67042 0.13837 0.42616 0.0
C718 C 0.69739 0.13356 0.43999 0.0
C719 C 0.73184 0.12886 0.43262 0.0
C720 C 0.73887 0.12806 0.41191 0.0
C721 C 0.71157 0.13261 0.3987 0.0
C722 C 0.67834 0.1382 0.40553 0.0
C723 C 0.65413 0.14306 0.38814 0.0
C724 C 0.60694 0.10659 0.38651 0.0
C725 C 0.65772 0.18774 0.39026 0.0
C726 C 0.6786 0.13879 0.37045 0.0
C727 C 0.71142 0.13246 0.37688 0.0
C728 C 0.73738 0.12585 0.36329 0.0
C729 C 0.72967 0.12578 0.34261 0.0
C730 C 0.69665 0.1328 0.33566 0.0
C731 C 0.67098 0.13964 0.34983 0.0
H732 H 0.68284 0.66697 0.76858 0.0
H733 H 0.64532 0.53171 0.76998 0.0
H734 H 0.63975 0.52246 0.73308 0.0
H735 H 0.6127 0.65097 0.72457 0.0
H736 H 0.65136 0.70002 0.71428 0.0
H737 H 0.65096 0.69657 0.74112 0.0
H738 H 0.73096 0.71754 0.74182 0.0
H739 H 0.73167 0.72104 0.71499 0.0
H740 H 0.74754 0.68624 0.72577 0.0
H741 H 0.64167 0.52732 0.69641 0.0
H742 H 0.64939 0.54612 0.66131 0.0
H743 H 0.68413 0.67769 0.68196 0.0
C744 C 0.67305 0.63535 0.76111 0.0
C745 C 0.66458 0.60012 0.77238 0.0
C746 C 0.65212 0.55936 0.7619 0.0
C747 C 0.64875 0.55363 0.74084 0.0
C748 C 0.65771 0.58886 0.73023 0.0
C749 C 0.66939 0.62891 0.73988 0.0
C750 C 0.67812 0.66139 0.72453 0.0
C751 C 0.64639 0.67822 0.72623 0.0
C752 C 0.72485 0.69876 0.72693 0.0
C753 C 0.67006 0.63329 0.70486 0.0
C754 C 0.65829 0.59157 0.70865 0.0
C755 C 0.65061 0.5598 0.69321 0.0
C756 C 0.65527 0.57085 0.67332 0.0
C757 C 0.66742 0.61332 0.66887 0.0
C758 C 0.67443 0.64487 0.6849 0.0
H759 H 0.5794 1.06653 0.55331 0.0
H760 H 0.70814 0.16655 0.57409 0.0
H761 H 0.68456 0.16189 0.60916 0.0
H762 H 0.52446 0.10354 0.5865 0.0
H763 H 0.48162 1.04989 0.59014 0.0
H764 H 0.50921 1.06015 0.56695 0.0
H765 H 0.52738 1.00011 0.57203 0.0
H766 H 0.49982 0.98951 0.59523 0.0
H767 H 0.55501 1.00228 0.59509 0.0
H768 H 0.64672 0.14458 0.64195 0.0
H769 H 0.59776 0.1184 0.66975 0.0
H770 H 0.49262 1.03391 0.62663 0.0
C771 C 0.60285 0.08725 0.56523 0.0
C772 C 0.64576 0.11664 0.56105 0.0
C773 C 0.67516 0.14371 0.57702 0.0
C774 C 0.66206 0.14125 0.59694 0.0
C775 C 0.61939 0.11197 0.6005 0.0
C776 C 0.59021 0.08568 0.58504 0.0
C777 C 0.54594 1.0579 0.59267 0.0
C778 C 0.5134 1.06853 0.58352 0.0
C779 C 0.5312 1.0096 0.58851 0.0
C780 C 0.55476 0.07233 0.61494 0.0
C781 C 0.59731 0.10335 0.61917 0.0
C782 C 0.61322 0.12069 0.63878 0.0
C783 C 0.58492 0.10584 0.65448 0.0
C784 C 0.54096 0.07427 0.6505 0.0
C785 C 0.52594 1.05769 0.63035 0.0
H786 H 0.64086 0.55826 0.89891 0.0
H787 H 0.77474 0.65597 0.89524 0.0
H788 H 0.79248 0.63266 0.92622 0.0
H789 H 0.63633 0.56263 0.95359 0.0
H790 H 0.60126 0.50499 0.95297 0.0
H791 H 0.59957 0.53348 0.93221 0.0
H792 H 0.61307 0.48216 0.90776 0.0
H793 H 0.61578 0.45406 0.92843 0.0
H794 H 0.65991 0.47737 0.912 0.0
H795 H 0.79522 0.59368 0.95665 0.0
H796 H 0.78237 0.54536 0.98371 0.0
H797 H 0.64692 0.47314 0.96543 0.0
C798 C 0.67388 0.57558 0.90477 0.0
C799 C 0.7064 0.60918 0.89471 0.0
C800 C 0.7492 0.63053 0.90286 0.0
C801 C 0.75957 0.61728 0.92036 0.0
C802 C 0.72675 0.58275 0.92942 0.0
C803 C 0.68472 0.56254 0.9219 0.0
C804 C 0.65547 0.52461 0.93337 0.0
C805 C 0.62115 0.53189 0.94365 0.0
C806 C 0.63488 0.48206 0.91957 0.0
C807 C 0.68752 0.52628 0.94857 0.0
C808 C 0.72848 0.56001 0.94622 0.0
C809 C 0.76321 0.56734 0.95864 0.0
C810 C 0.75563 0.53976 0.97395 0.0
C811 C 0.71374 0.50513 0.97655 0.0
C812 C 0.6795 0.49861 0.9636 0.0
H813 H 0.13661 0.66162 0.23183 0.0
H814 H 0.18102 0.56937 0.23193 0.0
H815 H 0.16456 0.56054 0.26791 0.0
H816 H 0.18073 0.71313 0.28208 0.0
H817 H 0.13656 0.72192 0.28755 0.0
H818 H 0.15205 0.7205 0.26197 0.0
H819 H 1.07425 0.66025 0.25138 0.0
H820 H 1.05865 0.66088 0.27699 0.0
H821 H 1.05013 0.61119 0.26388 0.0
H822 H 0.13725 0.5575 0.3029 0.0
H823 H 0.1126 0.56876 0.33597 0.0
H824 H 1.09364 0.66918 0.31369 0.0
C825 C 0.14316 0.63983 0.23951 0.0
C826 C 0.15989 0.61602 0.22924 0.0
C827 C 0.16849 0.5881 0.23969 0.0
C828 C 0.15891 0.58263 0.26001 0.0
C829 C 0.14153 0.60595 0.26962 0.0
C830 C 0.13469 0.63474 0.25984 0.0
C831 C 0.11717 0.65701 0.27373 0.0
C832 C 0.14851 0.70604 0.2765 0.0
C833 C 1.07239 0.6467 0.26603 0.0
C834 C 0.11483 0.63597 0.29287 0.0
C835 C 0.12835 0.60613 0.29009 0.0
C836 C 0.12751 0.58149 0.30539 0.0
C837 C 0.1137 0.58843 0.32422 0.0
C838 C 1.10184 0.62057 0.32781 0.0
C839 C 1.10198 0.6441 0.31167 0.0
loop_
_geom_bond_atom_site_label_1
_geom_bond_atom_site_label_2
_geom_bond_distance
_geom_bond_site_symmetry_2
_ccdc_geom_bond_type
Tb0 C9 2.764 1_455 S
Tb0 O10 2.325 1_455 S
Tb0 O13 2.303 . S
Tb0 O17 2.322 . S
Tb0 O18 2.349 . S
Tb0 O21 2.415 1_455 S
Tb0 O22 2.399 1_455 S
Tb1 O11 2.322 . S
Tb1 O12 2.349 . S
Tb1 O14 2.415 . S
Tb1 O15 2.399 . S
Tb1 O16 2.325 . S
Tb1 O19 2.303 . S
Tb1 C30 2.764 . S
C2 O18 1.261 . S
C2 O19 1.257 . S
C3 C6 1.358 . S
C3 C7 1.332 . S
C3 C9 1.504 . S
C4 C5 1.373 . S
C4 C8 1.308 . S
C5 C4 1.373 . S
C5 C6 1.429 . S
C5 H32 0.932 . S
C6 C3 1.358 . S
C6 C5 1.429 . S
C6 H33 0.930 . S
C7 C3 1.332 . S
C7 C8 1.394 . S
C7 H34 0.932 . S
C8 C4 1.308 . S
C8 C7 1.394 . S
C8 H35 0.929 . S
C9 Tb0 2.764 1_655 S
C9 C3 1.504 . S
C9 O21 1.239 . S
C9 O22 1.263 . S
O10 Tb0 2.325 1_655 S
O10 C20 1.236 . S
O11 Tb1 2.322 . S
O11 C20 1.257 1_455 S
O12 Tb1 2.349 . S
O12 C23 1.261 . S
O13 Tb0 2.303 . S
O13 C23 1.257 . S
O14 Tb1 2.415 . S
O14 C30 1.239 . S
O15 Tb1 2.399 . S
O15 C30 1.263 . S
O16 Tb1 2.325 . S
O16 C31 1.236 . S
O17 Tb0 2.322 . S
O17 C31 1.257 . S
O18 Tb0 2.349 . S
O18 C2 1.261 . S
O19 Tb1 2.303 . S
O19 C2 1.257 . S
C20 O10 1.236 . S
C20 O11 1.257 1_655 S
O21 Tb0 2.415 1_655 S
O21 C9 1.239 . S
O22 Tb0 2.399 1_655 S
O22 C9 1.263 . S
C23 O12 1.261 . S
C23 O13 1.257 . S
C24 C27 1.358 . S
C24 C28 1.332 . S
C24 C30 1.504 . S
C25 C26 1.373 . S
C25 C29 1.308 . S
C26 C25 1.373 . S
C26 C27 1.429 . S
C26 H36 0.932 . S
C27 C24 1.358 . S
C27 C26 1.429 . S
C27 H37 0.930 . S
C28 C24 1.332 . S
C28 C29 1.394 . S
C28 H38 0.932 . S
C29 C25 1.308 . S
C29 C28 1.394 . S
C29 H39 0.929 . S
C30 Tb1 2.764 . S
C30 O14 1.239 . S
C30 O15 1.263 . S
C30 C24 1.504 . S
C31 O16 1.236 . S
C31 O17 1.257 . S
H32 C5 0.932 . S
H33 C6 0.930 . S
H34 C7 0.932 . S
H35 C8 0.929 . S
H36 C26 0.932 . S
H37 C27 0.930 . S
H38 C28 0.932 . S
H39 C29 0.929 . S
Tb40 C49 2.764 . S
Tb40 O50 2.325 . S
Tb40 O53 2.303 1_565 S
Tb40 O57 2.322 1_565 S
Tb40 O58 2.349 1_565 S
Tb40 O61 2.415 . S
Tb40 O62 2.399 . S
Tb41 O51 2.322 1_545 S
Tb41 O52 2.349 . S
Tb41 O54 2.415 . S
Tb41 O55 2.399 . S
Tb41 O56 2.325 . S
Tb41 O59 2.303 . S
Tb41 C70 2.764 . S
C42 O58 1.261 . S
C42 O59 1.257 . S
C43 C46 1.358 . S
C43 C47 1.332 . S
C43 C49 1.504 . S
C44 C45 1.373 . S
C44 C48 1.308 . S
C45 C44 1.373 . S
C45 C46 1.429 . S
C45 H72 0.932 . S
C46 C43 1.358 . S
C46 C45 1.429 . S
C46 H73 0.930 . S
C47 C43 1.332 . S
C47 C48 1.394 . S
C47 H74 0.932 . S
C48 C44 1.308 . S
C48 C47 1.394 . S
C48 H75 0.929 . S
C49 Tb40 2.764 . S
C49 C43 1.504 . S
C49 O61 1.239 . S
C49 O62 1.263 . S
O50 Tb40 2.325 . S
O50 C60 1.236 . S
O51 Tb41 2.322 1_565 S
O51 C60 1.257 . S
O52 Tb41 2.349 . S
O52 C63 1.261 . S
O53 Tb40 2.303 1_545 S
O53 C63 1.257 . S
O54 Tb41 2.415 . S
O54 C70 1.239 . S
O55 Tb41 2.399 . S
O55 C70 1.263 . S
O56 Tb41 2.325 . S
O56 C71 1.236 . S
O57 Tb40 2.322 1_545 S
O57 C71 1.257 . S
O58 Tb40 2.349 1_545 S
O58 C42 1.261 . S
O59 Tb41 2.303 . S
O59 C42 1.257 . S
C60 O50 1.236 . S
C60 O51 1.257 . S
O61 Tb40 2.415 . S
O61 C49 1.239 . S
O62 Tb40 2.399 . S
O62 C49 1.263 . S
C63 O52 1.261 . S
C63 O53 1.257 . S
C64 C67 1.358 . S
C64 C68 1.332 . S
C64 C70 1.504 . S
C65 C66 1.373 . S
C65 C69 1.308 . S
C66 C65 1.373 . S
C66 C67 1.429 . S
C66 H76 0.932 . S
C67 C64 1.358 . S
C67 C66 1.429 . S
C67 H77 0.930 . S
C68 C64 1.332 . S
C68 C69 1.394 . S
C68 H78 0.932 . S
C69 C65 1.308 . S
C69 C68 1.394 . S
C69 H79 0.929 . S
C70 Tb41 2.764 . S
C70 O54 1.239 . S
C70 O55 1.263 . S
C70 C64 1.504 . S
C71 O56 1.236 . S
C71 O57 1.257 . S
H72 C45 0.932 . S
H73 C46 0.930 . S
H74 C47 0.932 . S
H75 C48 0.929 . S
H76 C66 0.932 . S
H77 C67 0.930 . S
H78 C68 0.932 . S
H79 C69 0.929 . S
Tb80 C89 2.764 . S
Tb80 O90 2.325 . S
Tb80 O93 2.303 . S
Tb80 O97 2.322 . S
Tb80 O98 2.349 . S
Tb80 O101 2.415 . S
Tb80 O102 2.399 . S
Tb81 O91 2.322 . S
Tb81 O92 2.349 . S
Tb81 O94 2.415 . S
Tb81 O95 2.399 . S
Tb81 O96 2.325 . S
Tb81 O99 2.303 . S
Tb81 C110 2.764 . S
C82 O98 1.261 . S
C82 O99 1.257 . S
C83 C86 1.358 . S
C83 C87 1.332 . S
C83 C89 1.504 . S
C84 C85 1.373 . S
C84 C88 1.308 . S
C85 C84 1.373 . S
C85 C86 1.429 . S
C85 H112 0.932 . S
C86 C83 1.358 . S
C86 C85 1.429 . S
C86 H113 0.930 . S
C87 C83 1.332 . S
C87 C88 1.394 . S
C87 H114 0.932 . S
C88 C84 1.308 . S
C88 C87 1.394 . S
C88 H115 0.929 . S
C89 Tb80 2.764 . S
C89 C83 1.504 . S
C89 O101 1.239 . S
C89 O102 1.263 . S
O90 Tb80 2.325 . S
O90 C100 1.236 . S
O91 Tb81 2.322 . S
O91 C100 1.257 . S
O92 Tb81 2.349 . S
O92 C103 1.261 . S
O93 Tb80 2.303 . S
O93 C103 1.257 . S
O94 Tb81 2.415 . S
O94 C110 1.239 . S
O95 Tb81 2.399 . S
O95 C110 1.263 . S
O96 Tb81 2.325 . S
O96 C111 1.236 . S
O97 Tb80 2.322 . S
O97 C111 1.257 . S
O98 Tb80 2.349 . S
O98 C82 1.261 . S
O99 Tb81 2.303 . S
O99 C82 1.257 . S
C100 O90 1.236 . S
C100 O91 1.257 . S
O101 Tb80 2.415 . S
O101 C89 1.239 . S
O102 Tb80 2.399 . S
O102 C89 1.263 . S
C103 O92 1.261 . S
C103 O93 1.257 . S
C104 C107 1.358 . S
C104 C108 1.332 . S
C104 C110 1.504 . S
C105 C106 1.373 . S
C105 C109 1.308 . S
C106 C105 1.373 . S
C106 C107 1.429 . S
C106 H116 0.932 . S
C107 C104 1.358 . S
C107 C106 1.429 . S
C107 H117 0.930 . S
C108 C104 1.332 . S
C108 C109 1.394 . S
C108 H118 0.932 . S
C109 C105 1.308 . S
C109 C108 1.394 . S
C109 H119 0.929 . S
C110 Tb81 2.764 . S
C110 O94 1.239 . S
C110 O95 1.263 . S
C110 C104 1.504 . S
C111 O96 1.236 . S
C111 O97 1.257 . S
H112 C85 0.932 . S
H113 C86 0.930 . S
H114 C87 0.932 . S
H115 C88 0.929 . S
H116 C106 0.932 . S
H117 C107 0.930 . S
H118 C108 0.932 . S
H119 C109 0.929 . S
C120 C121 1.386 . S
C120 C122 1.397 . S
C120 H144 0.931 . S
C121 C120 1.386 . S
C121 C125 1.397 . S
C122 C120 1.397 . S
C122 C123 1.384 . S
C122 H145 0.930 . S
C123 C122 1.384 . S
C123 C124 1.377 . S
C123 C126 1.481 . S
C124 C123 1.377 . S
C124 C125 1.389 . S
C124 H146 0.929 1_545 S
C125 C121 1.397 . S
C125 C124 1.389 . S
C125 H147 0.931 1_545 S
C126 C123 1.481 . S
C126 C127 1.387 . S
C126 C131 1.389 . S
C127 C126 1.387 . S
C127 C128 1.401 . S
C127 H148 0.930 . S
C128 C127 1.401 . S
C128 C129 1.376 . S
C128 C137 1.511 . S
C129 C128 1.376 . S
C129 C130 1.392 1_545 S
C129 H150 0.931 . S
C130 C129 1.392 1_565 S
C130 C131 1.361 1_565 S
C130 C132 1.500 . S
C131 C126 1.389 . S
C131 C130 1.361 1_545 S
C131 H149 0.932 1_545 S
C132 C130 1.500 . S
C132 C133 1.371 . S
C132 C134 1.365 . S
C133 C132 1.371 . S
C133 C143 1.386 . S
C133 H151 0.931 . S
C134 C132 1.365 . S
C134 C135 1.409 . S
C134 H152 0.929 . S
C135 C134 1.409 . S
C135 C136 1.380 . S
C135 H153 0.930 . S
C136 C135 1.380 . S
C136 C143 1.357 . S
C137 C128 1.511 . S
C137 C138 1.341 . S
C137 C139 1.371 . S
C138 C137 1.341 . S
C138 C142 1.394 . S
C138 H154 0.930 . S
C139 C137 1.371 . S
C139 C140 1.392 . S
C139 H155 0.931 . S
C140 C139 1.392 . S
C140 C141 1.331 . S
C140 H158 0.932 . S
C141 C140 1.331 . S
C141 C142 1.336 . S
C142 C138 1.394 . S
C142 C141 1.336 . S
C142 H157 0.929 . S
C143 C133 1.386 . S
C143 C136 1.357 . S
C143 H156 0.928 . S
H144 C120 0.931 . S
H145 C122 0.930 . S
H146 C124 0.929 1_565 S
H147 C125 0.931 1_565 S
H148 C127 0.930 . S
H149 C131 0.932 1_565 S
H150 C129 0.931 . S
H151 C133 0.931 . S
H152 C134 0.929 . S
H153 C135 0.930 . S
H154 C138 0.930 . S
H155 C139 0.931 . S
H156 C143 0.928 . S
H157 C142 0.929 . S
H158 C140 0.932 . S
C159 C160 1.386 . S
C159 C161 1.397 . S
C159 H183 0.931 . S
C160 C159 1.386 . S
C160 C164 1.397 . S
C161 C159 1.397 . S
C161 C162 1.384 . S
C161 H184 0.930 . S
C162 C161 1.384 . S
C162 C163 1.377 . S
C162 C165 1.481 . S
C163 C162 1.377 . S
C163 C164 1.389 . S
C163 H185 0.929 . S
C164 C160 1.397 . S
C164 C163 1.389 . S
C164 H186 0.931 . S
C165 C162 1.481 . S
C165 C166 1.387 . S
C165 C170 1.390 . S
C166 C165 1.387 . S
C166 C167 1.401 . S
C166 H187 0.930 . S
C167 C166 1.401 . S
C167 C168 1.376 . S
C167 C176 1.511 . S
C168 C167 1.376 . S
C168 C169 1.392 . S
C168 H189 0.931 . S
C169 C168 1.392 . S
C169 C170 1.361 . S
C169 C171 1.500 . S
C170 C165 1.390 . S
C170 C169 1.361 . S
C170 H188 0.931 . S
C171 C169 1.500 . S
C171 C172 1.371 . S
C171 C173 1.365 . S
C172 C171 1.371 . S
C172 C182 1.386 . S
C172 H190 0.931 . S
C173 C171 1.365 . S
C173 C174 1.409 . S
C173 H191 0.929 . S
C174 C173 1.409 . S
C174 C175 1.380 . S
C174 H192 0.930 . S
C175 C174 1.380 . S
C175 C182 1.357 . S
C176 C167 1.511 . S
C176 C177 1.341 . S
C176 C178 1.371 . S
C177 C176 1.341 . S
C177 C181 1.394 . S
C177 H193 0.930 . S
C178 C176 1.371 . S
C178 C179 1.392 . S
C178 H194 0.931 . S
C179 C178 1.392 . S
C179 C180 1.331 . S
C179 H197 0.932 . S
C180 C179 1.331 . S
C180 C181 1.336 . S
C181 C177 1.394 . S
C181 C180 1.336 . S
C181 H196 0.929 . S
C182 C172 1.386 . S
C182 C175 1.357 . S
C182 H195 0.928 . S
H183 C159 0.931 . S
H184 C161 0.930 . S
H185 C163 0.929 . S
H186 C164 0.931 . S
H187 C166 0.930 . S
H188 C170 0.931 . S
H189 C168 0.931 . S
H190 C172 0.931 . S
H191 C173 0.929 . S
H192 C174 0.930 . S
H193 C177 0.930 . S
H194 C178 0.931 . S
H195 C182 0.928 . S
H196 C181 0.929 . S
H197 C179 0.932 . S
C198 C199 1.386 . S
C198 C200 1.397 . S
C198 H222 0.931 . S
C199 C198 1.386 . S
C199 C203 1.397 . S
C200 C198 1.397 . S
C200 C201 1.384 . S
C200 H223 0.930 . S
C201 C200 1.384 . S
C201 C202 1.377 . S
C201 C204 1.481 . S
C202 C201 1.377 . S
C202 C203 1.389 . S
C202 H224 0.929 . S
C203 C199 1.397 . S
C203 C202 1.389 . S
C203 H225 0.931 . S
C204 C201 1.481 . S
C204 C205 1.387 . S
C204 C209 1.390 . S
C205 C204 1.387 . S
C205 C206 1.401 . S
C205 H226 0.930 . S
C206 C205 1.401 . S
C206 C207 1.376 . S
C206 C215 1.511 . S
C207 C206 1.376 . S
C207 C208 1.392 . S
C207 H228 0.931 . S
C208 C207 1.392 . S
C208 C209 1.361 . S
C208 C210 1.500 1_455 S
C209 C204 1.390 . S
C209 C208 1.361 . S
C209 H227 0.931 . S
C210 C208 1.500 1_655 S
C210 C211 1.371 1_655 S
C210 C212 1.365 . S
C211 C210 1.371 1_455 S
C211 C221 1.386 1_455 S
C211 H229 0.931 . S
C212 C210 1.365 . S
C212 C213 1.409 . S
C212 H230 0.929 . S
C213 C212 1.409 . S
C213 C214 1.380 . S
C213 H231 0.930 . S
C214 C213 1.380 . S
C214 C221 1.357 . S
C215 C206 1.511 . S
C215 C216 1.341 . S
C215 C217 1.371 . S
C216 C215 1.341 . S
C216 C220 1.394 . S
C216 H232 0.930 . S
C217 C215 1.371 . S
C217 C218 1.392 . S
C217 H233 0.931 . S
C218 C217 1.392 . S
C218 C219 1.331 . S
C218 H236 0.932 . S
C219 C218 1.331 . S
C219 C220 1.336 . S
C220 C216 1.394 . S
C220 C219 1.336 . S
C220 H235 0.929 . S
C221 C211 1.386 1_655 S
C221 C214 1.357 . S
C221 H234 0.928 . S
H222 C198 0.931 . S
H223 C200 0.930 . S
H224 C202 0.929 . S
H225 C203 0.931 . S
H226 C205 0.930 . S
H227 C209 0.931 . S
H228 C207 0.931 . S
H229 C211 0.931 . S
H230 C212 0.929 . S
H231 C213 0.930 . S
H232 C216 0.930 . S
H233 C217 0.931 . S
H234 C221 0.928 . S
H235 C220 0.929 . S
H236 C218 0.932 . S
C237 C238 1.386 . S
C237 C239 1.397 . S
C237 H261 0.931 . S
C238 C237 1.386 . S
C238 C242 1.397 1_655 S
C239 C237 1.397 . S
C239 C240 1.384 . S
C239 H262 0.930 . S
C240 C239 1.384 . S
C240 C241 1.377 1_655 S
C240 C243 1.481 . S
C241 C240 1.377 1_455 S
C241 C242 1.389 . S
C241 H263 0.929 . S
C242 C238 1.397 1_455 S
C242 C241 1.389 . S
C242 H264 0.931 . S
C243 C240 1.481 . S
C243 C244 1.387 . S
C243 C248 1.390 1_655 S
C244 C243 1.387 . S
C244 C245 1.401 . S
C244 H265 0.930 . S
C245 C244 1.401 . S
C245 C246 1.376 . S
C245 C254 1.511 . S
C246 C245 1.376 . S
C246 C247 1.392 1_655 S
C246 H267 0.931 1_655 S
C247 C246 1.392 1_455 S
C247 C248 1.361 . S
C247 C249 1.500 . S
C248 C243 1.390 1_455 S
C248 C247 1.361 . S
C248 H266 0.931 . S
C249 C247 1.500 . S
C249 C250 1.371 . S
C249 C251 1.365 . S
C250 C249 1.371 . S
C250 C260 1.386 . S
C250 H268 0.931 . S
C251 C249 1.365 . S
C251 C252 1.409 . S
C251 H269 0.929 . S
C252 C251 1.409 . S
C252 C253 1.380 . S
C252 H270 0.930 . S
C253 C252 1.380 . S
C253 C260 1.357 . S
C254 C245 1.511 . S
C254 C255 1.341 . S
C254 C256 1.371 . S
C255 C254 1.341 . S
C255 C259 1.394 . S
C255 H271 0.930 . S
C256 C254 1.371 . S
C256 C257 1.392 . S
C256 H272 0.931 . S
C257 C256 1.392 . S
C257 C258 1.331 . S
C257 H275 0.932 . S
C258 C257 1.331 . S
C258 C259 1.336 . S
C259 C255 1.394 . S
C259 C258 1.336 . S
C259 H274 0.929 . S
C260 C250 1.386 . S
C260 C253 1.357 . S
C260 H273 0.928 . S
H261 C237 0.931 . S
H262 C239 0.930 . S
H263 C241 0.929 . S
H264 C242 0.931 . S
H265 C244 0.930 . S
H266 C248 0.931 . S
H267 C246 0.931 1_455 S
H268 C250 0.931 . S
H269 C251 0.929 . S
H270 C252 0.930 . S
H271 C255 0.930 . S
H272 C256 0.931 . S
H273 C260 0.928 . S
H274 C259 0.929 . S
H275 C257 0.932 . S
C276 C277 1.386 . S
C276 C278 1.397 . S
C276 H300 0.931 . S
C277 C276 1.386 . S
C277 C281 1.397 1_565 S
C278 C276 1.397 . S
C278 C279 1.384 . S
C278 H301 0.930 . S
C279 C278 1.384 . S
C279 C280 1.377 1_565 S
C279 C282 1.481 . S
C280 C279 1.377 1_545 S
C280 C281 1.389 . S
C280 H302 0.929 . S
C281 C277 1.397 1_545 S
C281 C280 1.389 . S
C281 H303 0.931 . S
C282 C279 1.481 . S
C282 C283 1.387 . S
C282 C287 1.390 1_565 S
C283 C282 1.387 . S
C283 C284 1.401 . S
C283 H304 0.930 . S
C284 C283 1.401 . S
C284 C285 1.376 1_565 S
C284 C293 1.511 . S
C285 C284 1.376 1_545 S
C285 C286 1.392 . S
C285 H306 0.931 . S
C286 C285 1.392 . S
C286 C287 1.361 . S
C286 C288 1.500 . S
C287 C282 1.390 1_545 S
C287 C286 1.361 . S
C287 H305 0.931 . S
C288 C286 1.500 . S
C288 C289 1.371 . S
C288 C290 1.365 . S
C289 C288 1.371 . S
C289 C299 1.386 . S
C289 H307 0.931 . S
C290 C288 1.365 . S
C290 C291 1.409 . S
C290 H308 0.929 . S
C291 C290 1.409 . S
C291 C292 1.380 . S
C291 H309 0.930 . S
C292 C291 1.380 . S
C292 C299 1.357 . S
C293 C284 1.511 . S
C293 C294 1.341 . S
C293 C295 1.371 . S
C294 C293 1.341 . S
C294 C298 1.394 . S
C294 H310 0.930 . S
C295 C293 1.371 . S
C295 C296 1.392 . S
C295 H311 0.931 . S
C296 C295 1.392 . S
C296 C297 1.331 . S
C296 H314 0.932 . S
C297 C296 1.331 . S
C297 C298 1.336 . S
C298 C294 1.394 . S
C298 C297 1.336 . S
C298 H313 0.929 . S
C299 C289 1.386 . S
C299 C292 1.357 . S
C299 H312 0.928 . S
H300 C276 0.931 . S
H301 C278 0.930 . S
H302 C280 0.929 . S
H303 C281 0.931 . S
H304 C283 0.930 . S
H305 C287 0.931 . S
H306 C285 0.931 . S
H307 C289 0.931 . S
H308 C290 0.929 . S
H309 C291 0.930 . S
H310 C294 0.930 . S
H311 C295 0.931 . S
H312 C299 0.928 . S
H313 C298 0.929 . S
H314 C296 0.932 . S
C315 C316 1.386 . S
C315 C317 1.397 . S
C315 H339 0.931 . S
C316 C315 1.386 . S
C316 C320 1.397 . S
C317 C315 1.397 . S
C317 C318 1.384 . S
C317 H340 0.930 . S
C318 C317 1.384 . S
C318 C319 1.377 . S
C318 C321 1.481 . S
C319 C318 1.377 . S
C319 C320 1.389 . S
C319 H341 0.929 . S
C320 C316 1.397 . S
C320 C319 1.389 . S
C320 H342 0.931 . S
C321 C318 1.481 . S
C321 C322 1.387 . S
C321 C326 1.390 . S
C322 C321 1.387 . S
C322 C323 1.401 . S
C322 H343 0.930 . S
C323 C322 1.401 . S
C323 C324 1.376 . S
C323 C332 1.511 . S
C324 C323 1.376 . S
C324 C325 1.392 . S
C324 H345 0.931 . S
C325 C324 1.392 . S
C325 C326 1.361 . S
C325 C327 1.500 . S
C326 C321 1.390 . S
C326 C325 1.361 . S
C326 H344 0.931 . S
C327 C325 1.500 . S
C327 C328 1.371 . S
C327 C329 1.365 . S
C328 C327 1.371 . S
C328 C338 1.386 . S
C328 H346 0.931 . S
C329 C327 1.365 . S
C329 C330 1.409 . S
C329 H347 0.929 . S
C330 C329 1.409 . S
C330 C331 1.380 . S
C330 H348 0.930 . S
C331 C330 1.380 . S
C331 C338 1.357 . S
C332 C323 1.511 . S
C332 C333 1.341 . S
C332 C334 1.371 . S
C333 C332 1.341 . S
C333 C337 1.394 . S
C333 H349 0.930 . S
C334 C332 1.371 . S
C334 C335 1.392 . S
C334 H350 0.931 . S
C335 C334 1.392 . S
C335 C336 1.331 . S
C335 H353 0.932 . S
C336 C335 1.331 . S
C336 C337 1.336 . S
C337 C333 1.394 . S
C337 C336 1.336 . S
C337 H352 0.929 . S
C338 C328 1.386 . S
C338 C331 1.357 . S
C338 H351 0.928 . S
H339 C315 0.931 . S
H340 C317 0.930 . S
H341 C319 0.929 . S
H342 C320 0.931 . S
H343 C322 0.930 . S
H344 C326 0.931 . S
H345 C324 0.931 . S
H346 C328 0.931 . S
H347 C329 0.929 . S
H348 C330 0.930 . S
H349 C333 0.930 . S
H350 C334 0.931 . S
H351 C338 0.928 . S
H352 C337 0.929 . S
H353 C335 0.932 . S
H354 C366 0.930 . S
H355 C368 0.930 . S
H356 C369 0.930 . S
H357 C373 0.959 . S
H358 C373 0.959 . S
H359 C373 0.961 . S
H360 C374 0.960 . S
H361 C374 0.961 . S
H362 C374 0.959 . S
H363 C377 0.929 . S
H364 C378 0.931 . S
H365 C380 0.930 . S
C366 H354 0.930 . S
C366 C367 1.399 . S
C366 C371 1.399 . S
C367 C366 1.399 . S
C367 C368 1.376 . S
C368 H355 0.930 . S
C368 C367 1.376 . S
C368 C369 1.388 . S
C369 H356 0.930 . S
C369 C368 1.388 . S
C369 C370 1.390 . S
C370 C369 1.390 . S
C370 C371 1.394 . S
C370 C376 1.465 . S
C371 C366 1.399 . S
C371 C370 1.394 . S
C371 C372 1.516 . S
C372 C371 1.516 . S
C372 C373 1.502 . S
C372 C374 1.561 . S
C372 C375 1.526 . S
C373 H357 0.959 . S
C373 H358 0.959 . S
C373 H359 0.961 . S
C373 C372 1.502 . S
C374 H360 0.960 . S
C374 H361 0.961 . S
C374 H362 0.959 . S
C374 C372 1.561 . S
C375 C372 1.526 . S
C375 C376 1.396 . S
C375 C380 1.390 . S
C376 C370 1.465 . S
C376 C375 1.396 . S
C376 C377 1.399 . S
C377 H363 0.929 . S
C377 C376 1.399 . S
C377 C378 1.385 . S
C378 H364 0.931 . S
C378 C377 1.385 . S
C378 C379 1.389 . S
C379 C378 1.389 . S
C379 C380 1.387 . S
C380 H365 0.930 . S
C380 C375 1.390 . S
C380 C379 1.387 . S
H381 C393 0.930 . S
H382 C395 0.930 . S
H383 C396 0.930 . S
H384 C400 0.959 . S
H385 C400 0.959 . S
H386 C400 0.961 . S
H387 C401 0.960 . S
H388 C401 0.961 . S
H389 C401 0.959 . S
H390 C404 0.929 . S
H391 C405 0.931 . S
H392 C407 0.930 . S
C393 H381 0.930 . S
C393 C394 1.399 . S
C393 C398 1.399 . S
C394 C393 1.399 . S
C394 C395 1.376 . S
C395 H382 0.930 . S
C395 C394 1.376 . S
C395 C396 1.388 . S
C396 H383 0.930 . S
C396 C395 1.388 . S
C396 C397 1.390 . S
C397 C396 1.390 . S
C397 C398 1.394 . S
C397 C403 1.465 . S
C398 C393 1.399 . S
C398 C397 1.394 . S
C398 C399 1.516 . S
C399 C398 1.516 . S
C399 C400 1.502 . S
C399 C401 1.561 . S
C399 C402 1.526 . S
C400 H384 0.959 . S
C400 H385 0.959 . S
C400 H386 0.961 . S
C400 C399 1.502 . S
C401 H387 0.960 . S
C401 H388 0.961 . S
C401 H389 0.959 . S
C401 C399 1.561 . S
C402 C399 1.526 . S
C402 C403 1.396 . S
C402 C407 1.390 . S
C403 C397 1.465 . S
C403 C402 1.396 . S
C403 C404 1.399 . S
C404 H390 0.929 . S
C404 C403 1.399 . S
C404 C405 1.385 . S
C405 H391 0.931 . S
C405 C404 1.385 . S
C405 C406 1.389 . S
C406 C405 1.389 . S
C406 C407 1.387 . S
C407 H392 0.930 . S
C407 C402 1.390 . S
C407 C406 1.387 . S
H408 C420 0.930 . S
H409 C422 0.930 . S
H410 C423 0.930 . S
H411 C427 0.959 . S
H412 C427 0.959 . S
H413 C427 0.961 . S
H414 C428 0.960 . S
H415 C428 0.961 . S
H416 C428 0.959 . S
H417 C431 0.929 . S
H418 C432 0.931 . S
H419 C434 0.930 . S
C420 H408 0.930 . S
C420 C421 1.399 . S
C420 C425 1.399 . S
C421 C420 1.399 . S
C421 C422 1.376 . S
C422 H409 0.930 . S
C422 C421 1.376 . S
C422 C423 1.388 . S
C423 H410 0.930 . S
C423 C422 1.388 . S
C423 C424 1.390 . S
C424 C423 1.390 . S
C424 C425 1.394 . S
C424 C430 1.465 . S
C425 C420 1.399 . S
C425 C424 1.394 . S
C425 C426 1.516 . S
C426 C425 1.516 . S
C426 C427 1.502 . S
C426 C428 1.561 . S
C426 C429 1.526 . S
C427 H411 0.959 . S
C427 H412 0.959 . S
C427 H413 0.961 . S
C427 C426 1.502 . S
C428 H414 0.960 . S
C428 H415 0.961 . S
C428 H416 0.959 . S
C428 C426 1.561 . S
C429 C426 1.526 . S
C429 C430 1.396 . S
C429 C434 1.390 . S
C430 C424 1.465 . S
C430 C429 1.396 . S
C430 C431 1.399 . S
C431 H417 0.929 . S
C431 C430 1.399 . S
C431 C432 1.385 . S
C432 H418 0.931 . S
C432 C431 1.385 . S
C432 C433 1.389 . S
C433 C432 1.389 . S
C433 C434 1.387 . S
C434 H419 0.930 . S
C434 C429 1.390 . S
C434 C433 1.387 . S
H435 C447 0.930 . S
H436 C449 0.930 . S
H437 C450 0.930 . S
H438 C454 0.959 . S
H439 C454 0.959 . S
H440 C454 0.961 . S
H441 C455 0.960 . S
H442 C455 0.961 . S
H443 C455 0.959 . S
H444 C458 0.929 . S
H445 C459 0.931 . S
H446 C461 0.930 . S
C447 H435 0.930 . S
C447 C448 1.399 . S
C447 C452 1.399 . S
C448 C447 1.399 . S
C448 C449 1.376 . S
C449 H436 0.930 . S
C449 C448 1.376 . S
C449 C450 1.388 . S
C450 H437 0.930 . S
C450 C449 1.388 . S
C450 C451 1.390 . S
C451 C450 1.390 . S
C451 C452 1.394 . S
C451 C457 1.465 . S
C452 C447 1.399 . S
C452 C451 1.394 . S
C452 C453 1.516 . S
C453 C452 1.516 . S
C453 C454 1.502 . S
C453 C455 1.561 . S
C453 C456 1.526 . S
C454 H438 0.959 . S
C454 H439 0.959 . S
C454 H440 0.961 . S
C454 C453 1.502 . S
C455 H441 0.960 . S
C455 H442 0.961 . S
C455 H443 0.959 . S
C455 C453 1.561 . S
C456 C453 1.526 . S
C456 C457 1.396 . S
C456 C461 1.390 . S
C457 C451 1.465 . S
C457 C456 1.396 . S
C457 C458 1.399 . S
C458 H444 0.929 . S
C458 C457 1.399 . S
C458 C459 1.385 . S
C459 H445 0.931 . S
C459 C458 1.385 . S
C459 C460 1.389 . S
C460 C459 1.389 . S
C460 C461 1.387 . S
C461 H446 0.930 . S
C461 C456 1.390 . S
C461 C460 1.387 . S
H462 C474 0.930 . S
H463 C476 0.930 . S
H464 C477 0.930 . S
H465 C481 0.959 . S
H466 C481 0.959 . S
H467 C481 0.961 . S
H468 C482 0.960 . S
H469 C482 0.961 . S
H470 C482 0.959 . S
H471 C485 0.929 . S
H472 C486 0.931 . S
H473 C488 0.930 . S
C474 H462 0.930 . S
C474 C475 1.399 . S
C474 C479 1.399 . S
C475 C474 1.399 . S
C475 C476 1.376 . S
C476 H463 0.930 . S
C476 C475 1.376 . S
C476 C477 1.388 . S
C477 H464 0.930 . S
C477 C476 1.388 . S
C477 C478 1.390 . S
C478 C477 1.390 . S
C478 C479 1.394 . S
C478 C484 1.465 . S
C479 C474 1.399 . S
C479 C478 1.394 . S
C479 C480 1.516 . S
C480 C479 1.516 . S
C480 C481 1.502 . S
C480 C482 1.561 . S
C480 C483 1.526 . S
C481 H465 0.959 . S
C481 H466 0.959 . S
C481 H467 0.961 . S
C481 C480 1.502 . S
C482 H468 0.960 . S
C482 H469 0.961 . S
C482 H470 0.959 . S
C482 C480 1.561 . S
C483 C480 1.526 . S
C483 C484 1.396 . S
C483 C488 1.390 . S
C484 C478 1.465 . S
C484 C483 1.396 . S
C484 C485 1.399 . S
C485 H471 0.929 . S
C485 C484 1.399 . S
C485 C486 1.385 . S
C486 H472 0.931 . S
C486 C485 1.385 . S
C486 C487 1.389 . S
C487 C486 1.389 . S
C487 C488 1.387 . S
C488 H473 0.930 . S
C488 C483 1.390 . S
C488 C487 1.387 . S
H489 C501 0.930 . S
H490 C503 0.930 . S
H491 C504 0.930 . S
H492 C508 0.959 . S
H493 C508 0.959 . S
H494 C508 0.961 . S
H495 C509 0.960 . S
H496 C509 0.961 . S
H497 C509 0.959 . S
H498 C512 0.929 . S
H499 C513 0.931 . S
H500 C515 0.930 . S
C501 H489 0.930 . S
C501 C502 1.399 . S
C501 C506 1.399 . S
C502 C501 1.399 . S
C502 C503 1.376 . S
C503 H490 0.930 . S
C503 C502 1.376 . S
C503 C504 1.388 . S
C504 H491 0.930 . S
C504 C503 1.388 . S
C504 C505 1.390 . S
C505 C504 1.390 . S
C505 C506 1.394 . S
C505 C511 1.465 . S
C506 C501 1.399 . S
C506 C505 1.394 . S
C506 C507 1.516 . S
C507 C506 1.516 . S
C507 C508 1.502 . S
C507 C509 1.561 . S
C507 C510 1.526 . S
C508 H492 0.959 . S
C508 H493 0.959 . S
C508 H494 0.961 . S
C508 C507 1.502 . S
C509 H495 0.960 . S
C509 H496 0.961 . S
C509 H497 0.959 . S
C509 C507 1.561 . S
C510 C507 1.526 . S
C510 C511 1.396 . S
C510 C515 1.390 . S
C511 C505 1.465 . S
C511 C510 1.396 . S
C511 C512 1.399 . S
C512 H498 0.929 . S
C512 C511 1.399 . S
C512 C513 1.385 . S
C513 H499 0.931 . S
C513 C512 1.385 . S
C513 C514 1.389 . S
C514 C513 1.389 . S
C514 C515 1.387 . S
C515 H500 0.930 . S
C515 C510 1.390 . S
C515 C514 1.387 . S
H516 C528 0.930 . S
H517 C530 0.930 . S
H518 C531 0.930 . S
H519 C535 0.959 . S
H520 C535 0.959 . S
H521 C535 0.961 . S
H522 C536 0.960 . S
H523 C536 0.961 . S
H524 C536 0.959 . S
H525 C539 0.929 . S
H526 C540 0.931 . S
H527 C542 0.930 . S
C528 H516 0.930 . S
C528 C529 1.399 . S
C528 C533 1.399 . S
C529 C528 1.399 . S
C529 C530 1.376 . S
C530 H517 0.930 . S
C530 C529 1.376 . S
C530 C531 1.388 . S
C531 H518 0.930 . S
C531 C530 1.388 . S
C531 C532 1.390 . S
C532 C531 1.390 . S
C532 C533 1.394 . S
C532 C538 1.465 . S
C533 C528 1.399 . S
C533 C532 1.394 . S
C533 C534 1.516 . S
C534 C533 1.516 . S
C534 C535 1.502 . S
C534 C536 1.561 . S
C534 C537 1.526 . S
C535 H519 0.959 . S
C535 H520 0.959 . S
C535 H521 0.961 . S
C535 C534 1.502 . S
C536 H522 0.960 . S
C536 H523 0.961 . S
C536 H524 0.959 . S
C536 C534 1.561 . S
C537 C534 1.526 . S
C537 C538 1.396 . S
C537 C542 1.390 . S
C538 C532 1.465 . S
C538 C537 1.396 . S
C538 C539 1.399 . S
C539 H525 0.929 . S
C539 C538 1.399 . S
C539 C540 1.385 . S
C540 H526 0.931 . S
C540 C539 1.385 . S
C540 C541 1.389 . S
C541 C540 1.389 . S
C541 C542 1.387 . S
C542 H527 0.930 . S
C542 C537 1.390 . S
C542 C541 1.387 . S
H543 C555 0.930 . S
H544 C557 0.930 . S
H545 C558 0.930 . S
H546 C562 0.959 . S
H547 C562 0.959 . S
H548 C562 0.961 . S
H549 C563 0.960 . S
H550 C563 0.961 . S
H551 C563 0.959 . S
H552 C566 0.929 . S
H553 C567 0.931 . S
H554 C569 0.930 . S
C555 H543 0.930 . S
C555 C556 1.399 . S
C555 C560 1.399 . S
C556 C555 1.399 . S
C556 C557 1.376 . S
C557 H544 0.930 . S
C557 C556 1.376 . S
C557 C558 1.388 . S
C558 H545 0.930 . S
C558 C557 1.388 . S
C558 C559 1.390 . S
C559 C558 1.390 . S
C559 C560 1.394 . S
C559 C565 1.465 . S
C560 C555 1.399 . S
C560 C559 1.394 . S
C560 C561 1.516 . S
C561 C560 1.516 . S
C561 C562 1.502 . S
C561 C563 1.561 . S
C561 C564 1.526 . S
C562 H546 0.959 . S
C562 H547 0.959 . S
C562 H548 0.961 . S
C562 C561 1.502 . S
C563 H549 0.960 . S
C563 H550 0.961 . S
C563 H551 0.959 . S
C563 C561 1.561 . S
C564 C561 1.526 . S
C564 C565 1.396 . S
C564 C569 1.390 . S
C565 C559 1.465 . S
C565 C564 1.396 . S
C565 C566 1.399 . S
C566 H552 0.929 . S
C566 C565 1.399 . S
C566 C567 1.385 . S
C567 H553 0.931 . S
C567 C566 1.385 . S
C567 C568 1.389 . S
C568 C567 1.389 . S
C568 C569 1.387 . S
C569 H554 0.930 . S
C569 C564 1.390 . S
C569 C568 1.387 . S
H570 C582 0.930 . S
H571 C584 0.930 . S
H572 C585 0.930 . S
H573 C589 0.959 . S
H574 C589 0.959 . S
H575 C589 0.961 . S
H576 C590 0.960 . S
H577 C590 0.961 . S
H578 C590 0.959 . S
H579 C593 0.929 . S
H580 C594 0.931 . S
H581 C596 0.930 . S
C582 H570 0.930 . S
C582 C583 1.399 . S
C582 C587 1.399 . S
C583 C582 1.399 . S
C583 C584 1.376 . S
C584 H571 0.930 . S
C584 C583 1.376 . S
C584 C585 1.388 . S
C585 H572 0.930 . S
C585 C584 1.388 . S
C585 C586 1.390 . S
C586 C585 1.390 . S
C586 C587 1.394 . S
C586 C592 1.465 . S
C587 C582 1.399 . S
C587 C586 1.394 . S
C587 C588 1.516 . S
C588 C587 1.516 . S
C588 C589 1.502 . S
C588 C590 1.561 . S
C588 C591 1.526 . S
C589 H573 0.959 . S
C589 H574 0.959 . S
C589 H575 0.961 . S
C589 C588 1.502 . S
C590 H576 0.960 . S
C590 H577 0.961 . S
C590 H578 0.959 . S
C590 C588 1.561 . S
C591 C588 1.526 . S
C591 C592 1.396 . S
C591 C596 1.390 . S
C592 C586 1.465 . S
C592 C591 1.396 . S
C592 C593 1.399 . S
C593 H579 0.929 . S
C593 C592 1.399 . S
C593 C594 1.385 . S
C594 H580 0.931 . S
C594 C593 1.385 . S
C594 C595 1.389 . S
C595 C594 1.389 . S
C595 C596 1.387 . S
C596 H581 0.930 . S
C596 C591 1.390 . S
C596 C595 1.387 . S
H597 C609 0.930 . S
H598 C611 0.930 . S
H599 C612 0.930 . S
H600 C616 0.959 . S
H601 C616 0.959 . S
H602 C616 0.961 . S
H603 C617 0.960 . S
H604 C617 0.961 . S
H605 C617 0.959 . S
H606 C620 0.929 . S
H607 C621 0.931 . S
H608 C623 0.930 . S
C609 H597 0.930 . S
C609 C610 1.399 . S
C609 C614 1.399 . S
C610 C609 1.399 . S
C610 C611 1.376 . S
C611 H598 0.930 . S
C611 C610 1.376 . S
C611 C612 1.388 . S
C612 H599 0.930 . S
C612 C611 1.388 . S
C612 C613 1.390 . S
C613 C612 1.390 . S
C613 C614 1.394 . S
C613 C619 1.465 . S
C614 C609 1.399 . S
C614 C613 1.394 . S
C614 C615 1.516 . S
C615 C614 1.516 . S
C615 C616 1.502 . S
C615 C617 1.561 . S
C615 C618 1.526 . S
C616 H600 0.959 . S
C616 H601 0.959 . S
C616 H602 0.961 . S
C616 C615 1.502 . S
C617 H603 0.960 . S
C617 H604 0.961 . S
C617 H605 0.959 . S
C617 C615 1.561 . S
C618 C615 1.526 . S
C618 C619 1.396 . S
C618 C623 1.390 . S
C619 C613 1.465 . S
C619 C618 1.396 . S
C619 C620 1.399 . S
C620 H606 0.929 . S
C620 C619 1.399 . S
C620 C621 1.385 . S
C621 H607 0.931 . S
C621 C620 1.385 . S
C621 C622 1.389 . S
C622 C621 1.389 . S
C622 C623 1.387 . S
C623 H608 0.930 . S
C623 C618 1.390 . S
C623 C622 1.387 . S
H624 C636 0.930 . S
H625 C638 0.930 . S
H626 C639 0.930 . S
H627 C643 0.959 . S
H628 C643 0.959 . S
H629 C643 0.961 . S
H630 C644 0.960 . S
H631 C644 0.961 . S
H632 C644 0.959 . S
H633 C647 0.929 . S
H634 C648 0.931 . S
H635 C650 0.930 . S
C636 H624 0.930 . S
C636 C637 1.399 . S
C636 C641 1.399 . S
C637 C636 1.399 . S
C637 C638 1.376 . S
C638 H625 0.930 . S
C638 C637 1.376 . S
C638 C639 1.388 . S
C639 H626 0.930 . S
C639 C638 1.388 . S
C639 C640 1.390 . S
C640 C639 1.390 . S
C640 C641 1.394 . S
C640 C646 1.465 . S
C641 C636 1.399 . S
C641 C640 1.394 . S
C641 C642 1.516 . S
C642 C641 1.516 . S
C642 C643 1.502 . S
C642 C644 1.561 . S
C642 C645 1.526 . S
C643 H627 0.959 . S
C643 H628 0.959 . S
C643 H629 0.961 . S
C643 C642 1.502 . S
C644 H630 0.960 . S
C644 H631 0.961 . S
C644 H632 0.959 . S
C644 C642 1.561 . S
C645 C642 1.526 . S
C645 C646 1.396 . S
C645 C650 1.390 . S
C646 C640 1.465 . S
C646 C645 1.396 . S
C646 C647 1.399 . S
C647 H633 0.929 . S
C647 C646 1.399 . S
C647 C648 1.385 . S
C648 H634 0.931 . S
C648 C647 1.385 . S
C648 C649 1.389 . S
C649 C648 1.389 . S
C649 C650 1.387 . S
C650 H635 0.930 . S
C650 C645 1.390 . S
C650 C649 1.387 . S
H651 C663 0.930 . S
H652 C665 0.930 . S
H653 C666 0.930 . S
H654 C670 0.959 . S
H655 C670 0.959 . S
H656 C670 0.961 . S
H657 C671 0.960 . S
H658 C671 0.961 . S
H659 C671 0.959 . S
H660 C674 0.929 . S
H661 C675 0.931 . S
H662 C677 0.930 . S
C663 H651 0.930 . S
C663 C664 1.399 . S
C663 C668 1.399 . S
C664 C663 1.399 . S
C664 C665 1.376 . S
C665 H652 0.930 . S
C665 C664 1.376 . S
C665 C666 1.388 . S
C666 H653 0.930 . S
C666 C665 1.388 . S
C666 C667 1.390 . S
C667 C666 1.390 . S
C667 C668 1.394 . S
C667 C673 1.465 . S
C668 C663 1.399 . S
C668 C667 1.394 . S
C668 C669 1.516 . S
C669 C668 1.516 . S
C669 C670 1.502 . S
C669 C671 1.561 . S
C669 C672 1.526 . S
C670 H654 0.959 . S
C670 H655 0.959 . S
C670 H656 0.961 . S
C670 C669 1.502 . S
C671 H657 0.960 . S
C671 H658 0.961 . S
C671 H659 0.959 . S
C671 C669 1.561 . S
C672 C669 1.526 . S
C672 C673 1.396 . S
C672 C677 1.390 . S
C673 C667 1.465 . S
C673 C672 1.396 . S
C673 C674 1.399 . S
C674 H660 0.929 . S
C674 C673 1.399 . S
C674 C675 1.385 . S
C675 H661 0.931 . S
C675 C674 1.385 . S
C675 C676 1.389 . S
C676 C675 1.389 . S
C676 C677 1.387 . S
C677 H662 0.930 . S
C677 C672 1.390 . S
C677 C676 1.387 . S
H678 C690 0.930 . S
H679 C692 0.930 . S
H680 C693 0.930 . S
H681 C697 0.959 . S
H682 C697 0.959 . S
H683 C697 0.961 . S
H684 C698 0.960 . S
H685 C698 0.961 . S
H686 C698 0.959 . S
H687 C701 0.929 . S
H688 C702 0.931 1_556 S
H689 C704 0.930 . S
C690 H678 0.930 . S
C690 C691 1.399 . S
C690 C695 1.399 . S
C691 C690 1.399 . S
C691 C692 1.376 . S
C692 H679 0.930 . S
C692 C691 1.376 . S
C692 C693 1.388 . S
C693 H680 0.930 . S
C693 C692 1.388 . S
C693 C694 1.390 . S
C694 C693 1.390 . S
C694 C695 1.394 . S
C694 C700 1.465 . S
C695 C690 1.399 . S
C695 C694 1.394 . S
C695 C696 1.516 . S
C696 C695 1.516 . S
C696 C697 1.502 . S
C696 C698 1.561 . S
C696 C699 1.526 . S
C697 H681 0.959 . S
C697 H682 0.959 . S
C697 H683 0.961 . S
C697 C696 1.502 . S
C698 H684 0.960 . S
C698 H685 0.961 . S
C698 H686 0.959 . S
C698 C696 1.561 . S
C699 C696 1.526 . S
C699 C700 1.396 . S
C699 C704 1.390 . S
C700 C694 1.465 . S
C700 C699 1.396 . S
C700 C701 1.399 . S
C701 H687 0.929 . S
C701 C700 1.399 . S
C701 C702 1.385 . S
C702 H688 0.931 1_554 S
C702 C701 1.385 . S
C702 C703 1.389 . S
C703 C702 1.389 . S
C703 C704 1.387 . S
C704 H689 0.930 . S
C704 C699 1.390 . S
C704 C703 1.387 . S
H705 C717 0.930 . S
H706 C719 0.930 . S
H707 C720 0.930 . S
H708 C724 0.959 . S
H709 C724 0.959 . S
H710 C724 0.961 . S
H711 C725 0.960 . S
H712 C725 0.961 . S
H713 C725 0.959 . S
H714 C728 0.929 . S
H715 C729 0.933 1_565 S
H716 C731 0.930 . S
C717 H705 0.930 . S
C717 C718 1.399 . S
C717 C722 1.399 . S
C718 C717 1.399 . S
C718 C719 1.376 1_545 S
C719 H706 0.930 . S
C719 C718 1.376 1_565 S
C719 C720 1.388 . S
C720 H707 0.930 . S
C720 C719 1.388 . S
C720 C721 1.390 1_565 S
C721 C720 1.390 1_545 S
C721 C722 1.394 . S
C721 C727 1.465 . S
C722 C717 1.399 . S
C722 C721 1.394 . S
C722 C723 1.516 . S
C723 C722 1.516 . S
C723 C724 1.502 . S
C723 C725 1.561 . S
C723 C726 1.526 . S
C724 H708 0.959 . S
C724 H709 0.959 . S
C724 H710 0.961 . S
C724 C723 1.502 . S
C725 H711 0.960 . S
C725 H712 0.961 . S
C725 H713 0.959 . S
C725 C723 1.561 . S
C726 C723 1.526 . S
C726 C727 1.396 . S
C726 C731 1.390 . S
C727 C721 1.465 . S
C727 C726 1.396 . S
C727 C728 1.399 1_545 S
C728 H714 0.929 . S
C728 C727 1.399 1_565 S
C728 C729 1.386 1_565 S
C729 H715 0.933 1_545 S
C729 C728 1.386 1_545 S
C729 C730 1.386 . S
C730 C729 1.386 . S
C730 C731 1.387 . S
C731 H716 0.930 . S
C731 C726 1.390 . S
C731 C730 1.387 . S
H732 C744 0.930 . S
H733 C746 0.930 . S
H734 C747 0.930 . S
H735 C751 0.959 . S
H736 C751 0.959 . S
H737 C751 0.961 . S
H738 C752 0.960 . S
H739 C752 0.961 . S
H740 C752 0.959 . S
H741 C755 0.929 . S
H742 C756 0.931 . S
H743 C758 0.930 . S
C744 H732 0.930 . S
C744 C745 1.399 . S
C744 C749 1.399 . S
C745 C744 1.399 . S
C745 C746 1.376 . S
C746 H733 0.930 . S
C746 C745 1.376 . S
C746 C747 1.388 . S
C747 H734 0.930 . S
C747 C746 1.388 . S
C747 C748 1.390 . S
C748 C747 1.390 . S
C748 C749 1.394 . S
C748 C754 1.465 . S
C749 C744 1.399 . S
C749 C748 1.394 . S
C749 C750 1.516 . S
C750 C749 1.516 . S
C750 C751 1.502 . S
C750 C752 1.561 . S
C750 C753 1.526 . S
C751 H735 0.959 . S
C751 H736 0.959 . S
C751 H737 0.961 . S
C751 C750 1.502 . S
C752 H738 0.960 . S
C752 H739 0.961 . S
C752 H740 0.959 . S
C752 C750 1.561 . S
C753 C750 1.526 . S
C753 C754 1.396 . S
C753 C758 1.390 . S
C754 C748 1.465 . S
C754 C753 1.396 . S
C754 C755 1.399 . S
C755 H741 0.929 . S
C755 C754 1.399 . S
C755 C756 1.385 . S
C756 H742 0.931 . S
C756 C755 1.385 . S
C756 C757 1.389 . S
C757 C756 1.389 . S
C757 C758 1.387 . S
C758 H743 0.930 . S
C758 C753 1.390 . S
C758 C757 1.387 . S
H759 C771 0.930 . S
H760 C773 0.930 . S
H761 C774 0.930 . S
H762 C778 0.959 . S
H763 C778 0.959 . S
H764 C778 0.961 . S
H765 C779 0.960 . S
H766 C779 0.961 . S
H767 C779 0.959 . S
H768 C782 0.929 . S
H769 C783 0.931 . S
H770 C785 0.930 . S
C771 H759 0.930 . S
C771 C772 1.399 1_565 S
C771 C776 1.399 . S
C772 C771 1.399 1_545 S
C772 C773 1.376 . S
C773 H760 0.930 . S
C773 C772 1.376 . S
C773 C774 1.388 . S
C774 H761 0.930 . S
C774 C773 1.388 . S
C774 C775 1.390 . S
C775 C774 1.390 . S
C775 C776 1.394 1_545 S
C775 C781 1.465 . S
C776 C771 1.399 . S
C776 C775 1.394 1_565 S
C776 C777 1.516 . S
C777 C776 1.516 . S
C777 C778 1.502 . S
C777 C779 1.561 . S
C777 C780 1.526 . S
C778 H762 0.959 . S
C778 H763 0.959 . S
C778 H764 0.961 . S
C778 C777 1.502 . S
C779 H765 0.960 . S
C779 H766 0.961 . S
C779 H767 0.959 . S
C779 C777 1.561 . S
C780 C777 1.526 . S
C780 C781 1.396 1_565 S
C780 C785 1.390 . S
C781 C775 1.465 . S
C781 C780 1.396 1_545 S
C781 C782 1.399 . S
C782 H768 0.929 . S
C782 C781 1.399 . S
C782 C783 1.385 . S
C783 H769 0.931 . S
C783 C782 1.385 . S
C783 C784 1.389 1_545 S
C784 C783 1.389 1_565 S
C784 C785 1.387 . S
C785 H770 0.930 . S
C785 C780 1.390 . S
C785 C784 1.387 . S
H786 C798 0.930 . S
H787 C800 0.930 . S
H788 C801 0.930 . S
H789 C805 0.959 . S
H790 C805 0.959 . S
H791 C805 0.961 . S
H792 C806 0.960 . S
H793 C806 0.961 . S
H794 C806 0.959 . S
H795 C809 0.929 . S
H796 C810 0.931 . S
H797 C812 0.930 . S
C798 H786 0.930 . S
C798 C799 1.399 . S
C798 C803 1.399 . S
C799 C798 1.399 . S
C799 C800 1.376 . S
C800 H787 0.930 . S
C800 C799 1.376 . S
C800 C801 1.388 . S
C801 H788 0.930 . S
C801 C800 1.388 . S
C801 C802 1.390 . S
C802 C801 1.390 . S
C802 C803 1.394 . S
C802 C808 1.465 . S
C803 C798 1.399 . S
C803 C802 1.394 . S
C803 C804 1.516 . S
C804 C803 1.516 . S
C804 C805 1.502 . S
C804 C806 1.561 . S
C804 C807 1.526 . S
C805 H789 0.959 . S
C805 H790 0.959 . S
C805 H791 0.961 . S
C805 C804 1.502 . S
C806 H792 0.960 . S
C806 H793 0.961 . S
C806 H794 0.959 . S
C806 C804 1.561 . S
C807 C804 1.526 . S
C807 C808 1.396 . S
C807 C812 1.390 . S
C808 C802 1.465 . S
C808 C807 1.396 . S
C808 C809 1.399 . S
C809 H795 0.929 . S
C809 C808 1.399 . S
C809 C810 1.385 . S
C810 H796 0.931 . S
C810 C809 1.385 . S
C810 C811 1.389 . S
C811 C810 1.389 . S
C811 C812 1.387 . S
C812 H797 0.930 . S
C812 C807 1.390 . S
C812 C811 1.387 . S
H813 C825 0.930 . S
H814 C827 0.930 1_655 S
H815 C828 0.930 . S
H816 C832 0.959 . S
H817 C832 0.959 . S
H818 C832 0.961 . S
H819 C833 0.960 . S
H820 C833 0.961 . S
H821 C833 0.959 1_655 S
H822 C836 0.929 . S
H823 C837 0.931 . S
H824 C839 0.930 . S
C825 H813 0.930 . S
C825 C826 1.399 . S
C825 C830 1.399 . S
C826 C825 1.399 . S
C826 C827 1.376 . S
C827 H814 0.930 1_455 S
C827 C826 1.376 . S
C827 C828 1.388 1_455 S
C828 H815 0.930 . S
C828 C827 1.388 1_655 S
C828 C829 1.390 1_655 S
C829 C828 1.390 1_455 S
C829 C830 1.394 . S
C829 C835 1.465 1_455 S
C830 C825 1.399 . S
C830 C829 1.394 . S
C830 C831 1.516 . S
C831 C830 1.516 . S
C831 C832 1.502 . S
C831 C833 1.561 . S
C831 C834 1.526 . S
C832 H816 0.959 . S
C832 H817 0.959 . S
C832 H818 0.961 . S
C832 C831 1.502 . S
C833 H819 0.960 . S
C833 H820 0.961 . S
C833 H821 0.959 1_455 S
C833 C831 1.561 . S
C834 C831 1.526 . S
C834 C835 1.396 1_455 S
C834 C839 1.390 . S
C835 C829 1.465 1_655 S
C835 C834 1.396 1_655 S
C835 C836 1.399 . S
C836 H822 0.929 . S
C836 C835 1.399 . S
C836 C837 1.385 . S
C837 H823 0.931 . S
C837 C836 1.385 . S
C837 C838 1.389 . S
C838 C837 1.389 . S
C838 C839 1.387 1_655 S
C839 H824 0.930 . S
C839 C834 1.390 . S
C839 C838 1.387 1_455 S
C367 C25 0.417 . S
C379 C331 0.331 . S
C394 C65 0.427 . S
C406 C258 0.283 . S
C421 C105 0.403 . S
C433 C297 0.297 . S
C448 C4 0.409 . S
C460 C336 0.398 . S
C487 C253 0.305 . S
C475 C44 0.281 . S
C514 C292 0.355 . S
C502 C84 0.377 . S
C529 C60 2.921 . S
C541 C180 2.862 . S
C556 C100 3.102 . S
C568 C214 3.060 . S
C583 C31 3.112 . S
C595 C136 3.055 . S
C622 C175 3.056 . S
C610 C71 3.104 . S
C649 C219 2.873 . S
C637 C111 2.907 . S
C664 C20 2.922 . S
C676 C141 2.866 . S
C703 C199 1.796 1_554 S
C691 C2 1.762 . S
C718 C42 1.747 . S
C730 C121 1.788 . S
C745 C82 1.718 . S
C757 C160 1.792 . S
C784 C277 1.049 . S
C772 C63 1.024 . S
C811 C316 1.091 1_556 S
C799 C103 1.073 . S
C826 C23 1.055 . S
C838 C238 1.062 . S
