# Generated by pormake.
# Topology pyr, (3,6)-cn, num edge types: 1
# Building blocks:
#     Node 0, Type 0, BuildingBlock: CUQRIR_clean_linker_1, # of connection points: 3
#     Node 1, Type 0, BuildingBlock: CUQRIR_clean_linker_1, # of connection points: 3
#     Node 2, Type 0, BuildingBlock: CUQRIR_clean_linker_1, # of connection points: 3
#     Node 3, Type 0, BuildingBlock: CUQRIR_clean_linker_1, # of connection points: 3
#     Node 4, Type 0, BuildingBlock: CUQRIR_clean_linker_1, # of connection points: 3
#     Node 5, Type 0, BuildingBlock: CUQRIR_clean_linker_1, # of connection points: 3
#     Node 6, Type 0, BuildingBlock: CUQRIR_clean_linker_1, # of connection points: 3
#     Node 7, Type 0, BuildingBlock: CUQRIR_clean_linker_1, # of connection points: 3
#     Node 8, Type 1, BuildingBlock: BETDIP_clean_sbu_0, # of connection points: 6
#     Node 9, Type 1, BuildingBlock: BETDIP_clean_sbu_0, # of connection points: 6
#     Node 10, Type 1, BuildingBlock: BETDIP_clean_sbu_0, # of connection points: 6
#     Node 11, Type 1, BuildingBlock: BETDIP_clean_sbu_0, # of connection points: 6
#     Edge 12, Type (0, 1), BuildingBlock: ZUJKAS_clean_linker_0, # of connection points: 2
#     Edge 13, Type (0, 1), BuildingBlock: ZUJKAS_clean_linker_0, # of connection points: 2
#     Edge 14, Type (0, 1), BuildingBlock: ZUJKAS_clean_linker_0, # of connection points: 2
#     Edge 15, Type (0, 1), BuildingBlock: ZUJKAS_clean_linker_0, # of connection points: 2
#     Edge 16, Type (0, 1), BuildingBlock: ZUJKAS_clean_linker_0, # of connection points: 2
#     Edge 17, Type (0, 1), BuildingBlock: ZUJKAS_clean_linker_0, # of connection points: 2
#     Edge 18, Type (0, 1), BuildingBlock: ZUJKAS_clean_linker_0, # of connection points: 2
#     Edge 19, Type (0, 1), BuildingBlock: ZUJKAS_clean_linker_0, # of connection points: 2
#     Edge 20, Type (0, 1), BuildingBlock: ZUJKAS_clean_linker_0, # of connection points: 2
#     Edge 21, Type (0, 1), BuildingBlock: ZUJKAS_clean_linker_0, # of connection points: 2
#     Edge 22, Type (0, 1), BuildingBlock: ZUJKAS_clean_linker_0, # of connection points: 2
#     Edge 23, Type (0, 1), BuildingBlock: ZUJKAS_clean_linker_0, # of connection points: 2
#     Edge 24, Type (0, 1), BuildingBlock: ZUJKAS_clean_linker_0, # of connection points: 2
#     Edge 25, Type (0, 1), BuildingBlock: ZUJKAS_clean_linker_0, # of connection points: 2
#     Edge 26, Type (0, 1), BuildingBlock: ZUJKAS_clean_linker_0, # of connection points: 2
#     Edge 27, Type (0, 1), BuildingBlock: ZUJKAS_clean_linker_0, # of connection points: 2
#     Edge 28, Type (0, 1), BuildingBlock: ZUJKAS_clean_linker_0, # of connection points: 2
#     Edge 29, Type (0, 1), BuildingBlock: ZUJKAS_clean_linker_0, # of connection points: 2
#     Edge 30, Type (0, 1), BuildingBlock: ZUJKAS_clean_linker_0, # of connection points: 2
#     Edge 31, Type (0, 1), BuildingBlock: ZUJKAS_clean_linker_0, # of connection points: 2
#     Edge 32, Type (0, 1), BuildingBlock: ZUJKAS_clean_linker_0, # of connection points: 2
#     Edge 33, Type (0, 1), BuildingBlock: ZUJKAS_clean_linker_0, # of connection points: 2
#     Edge 34, Type (0, 1), BuildingBlock: ZUJKAS_clean_linker_0, # of connection points: 2
#     Edge 35, Type (0, 1), BuildingBlock: ZUJKAS_clean_linker_0, # of connection points: 2
# Relax obj value: 0.164
# Max RMSD: 0.276
# Mean RMSD: 0.170
data_MOF--net-pyr--node1-BETDIP_clean_sbu_0--node2-CUQRIR_clean_linker_1--edge1-ZUJKAS_clean_linker_0
_symmetry_space_group_name_H-M    P1
_symmetry_Int_Tables_number       1
_symmetry_cell_setting            triclinic
loop_
_symmetry_equiv_pos_as_xyz
'x, y, z'
_cell_length_a     43.84327
_cell_length_b     46.989935
_cell_length_c     45.805923
_cell_angle_alpha  87.70814
_cell_angle_beta   93.903552
_cell_angle_gamma 106.0559
loop_
_atom_site_label
_atom_site_type_symbol
_atom_site_fract_x
_atom_site_fract_y
_atom_site_fract_z
_atom_type_partial_charge
C0 C 0.34121 0.3433 0.23419 0.0
N1 N 0.35292 0.31996 0.24114 0.0
N2 N 0.35384 0.35755 0.20973 0.0
C3 C 0.31574 0.35113 0.25001 0.0
C4 C 0.37376 0.34203 0.20203 0.0
N5 N 0.37359 0.31945 0.22141 0.0
C6 C 0.39073 0.34694 0.17406 0.0
H7 H 0.29232 0.34131 0.23846 0.0
H8 H 0.31972 0.37548 0.24999 0.0
H9 H 0.31518 0.3426 0.27296 0.0
H10 H 0.41676 0.35265 0.17928 0.0
H11 H 0.38518 0.36507 0.16035 0.0
H12 H 0.38401 0.32616 0.16154 0.0
C13 C 0.17016 0.78738 0.73066 0.0
N14 N 0.1687 0.81048 0.74668 0.0
N15 N 0.18609 0.77023 0.74606 0.0
C16 C 0.15579 0.78133 0.7 0.0
C17 C 0.19413 0.78373 0.77218 0.0
N18 N 0.18319 0.80799 0.77267 0.0
C19 C 0.21641 0.77553 0.79547 0.0
H20 H 0.15034 0.75739 0.69532 0.0
H21 H 0.1729 0.79391 0.68419 0.0
H22 H 0.13375 0.78862 0.69681 0.0
H23 H 0.23535 0.7684 0.78543 0.0
H24 H 0.20274 0.75666 0.8088 0.0
H25 H 0.2278 0.79414 0.81019 0.0
C26 C 0.60838 0.37128 0.86238 0.0
N27 N 0.6267 0.36762 0.88659 0.0
N28 N 0.62358 0.39512 0.84621 0.0
C29 C 0.57569 0.35165 0.85448 0.0
C30 C 0.65187 0.40573 0.86128 0.0
N31 N 0.65395 0.38884 0.8856 0.0
C32 C 0.67731 0.43293 0.85267 0.0
H33 H 0.56956 0.35282 0.83066 0.0
H34 H 0.55805 0.35908 0.86622 0.0
H35 H 0.57396 0.32833 0.8612 0.0
H36 H 0.68564 0.44735 0.87186 0.0
H37 H 0.66891 0.44567 0.83449 0.0
H38 H 0.69793 0.42616 0.84563 0.0
C39 C 0.84898 0.70736 0.35663 0.0
N40 N 0.87605 0.72808 0.34933 0.0
N41 N 0.83537 0.71648 0.37894 0.0
C42 C 0.83514 0.67859 0.34113 0.0
C43 C 0.8552 0.74356 0.38507 0.0
N44 N 0.8798 0.75086 0.36714 0.0
C45 C 0.8513 0.76249 0.4096 0.0
H46 H 0.84038 0.68098 0.31766 0.0
H47 H 0.80903 0.6707 0.34292 0.0
H48 H 0.84605 0.66165 0.35132 0.0
H49 H 0.87467 0.7755 0.41915 0.0
H50 H 0.83783 0.74878 0.42725 0.0
H51 H 0.83809 0.77829 0.40079 0.0
C52 C 0.66265 0.83678 0.88964 0.0
N53 N 0.68558 0.83041 0.87493 0.0
N54 N 0.64514 0.8506 0.87172 0.0
C55 C 0.65868 0.83153 0.92195 0.0
C56 C 0.65828 0.85238 0.84557 0.0
N57 N 0.68257 0.83971 0.84742 0.0
C58 C 0.64987 0.86948 0.81926 0.0
H59 H 0.63327 0.82648 0.92676 0.0
H60 H 0.67176 0.85193 0.93366 0.0
H61 H 0.66817 0.81298 0.93029 0.0
H62 H 0.6693 0.89015 0.8165 0.0
H63 H 0.62726 0.8752 0.8216 0.0
H64 H 0.64769 0.85635 0.79926 0.0
C65 C 0.86792 0.34697 0.43883 0.0
N66 N 0.87163 0.32719 0.41962 0.0
N67 N 0.84712 0.36165 0.42741 0.0
C68 C 0.88442 0.35203 0.46878 0.0
C69 C 0.83823 0.34995 0.40057 0.0
N70 N 0.85335 0.32922 0.39573 0.0
C71 C 0.81127 0.35569 0.38114 0.0
H72 H 0.87002 0.33655 0.48476 0.0
H73 H 0.88704 0.375 0.47566 0.0
H74 H 0.90817 0.34788 0.46907 0.0
H75 H 0.81938 0.37803 0.37079 0.0
H76 H 0.7909 0.35545 0.39436 0.0
H77 H 0.8029 0.33922 0.36365 0.0
C78 C 0.34428 0.70666 0.25489 0.0
N79 N 0.37135 0.72601 0.26572 0.0
N80 N 0.33127 0.71878 0.23157 0.0
C81 C 0.32941 0.67673 0.26843 0.0
C82 C 0.35138 0.74626 0.22871 0.0
N83 N 0.37546 0.75084 0.24965 0.0
C84 C 0.34879 0.76803 0.20424 0.0
H85 H 0.33908 0.66003 0.25872 0.0
H86 H 0.30321 0.67024 0.26424 0.0
H87 H 0.33512 0.67665 0.29241 0.0
H88 H 0.33554 0.78318 0.21157 0.0
H89 H 0.33599 0.7565 0.18447 0.0
H90 H 0.37265 0.78164 0.19834 0.0
C91 C 0.11274 0.37713 0.76281 0.0
N92 N 0.13158 0.37377 0.74138 0.0
N93 N 0.12652 0.40192 0.77845 0.0
C94 C 0.08189 0.35521 0.7699 0.0
C95 C 0.15449 0.41353 0.7657 0.0
N96 N 0.15778 0.39649 0.74338 0.0
C97 C 0.1775 0.44276 0.77378 0.0
H98 H 0.06232 0.36025 0.75585 0.0
H99 H 0.07683 0.35662 0.79312 0.0
H100 H 0.08242 0.3323 0.76555 0.0
H101 H 0.19623 0.4387 0.78962 0.0
H102 H 0.16538 0.45722 0.78416 0.0
H103 H 0.18907 0.45444 0.75421 0.0
Tb104 Tb 0.99421 0.05078 0.55588 0.0
Tb105 Tb 0.06345 0.07424 0.5385 0.0
C106 C 0.93998 1.02217 0.57092 0.0
C107 C 0.92526 0.99536 0.58806 0.0
C108 C 0.89288 0.98128 0.58269 0.0
C109 C 0.87713 0.95863 0.6015 0.0
C110 C 0.89357 0.94966 0.62605 0.0
C111 C 0.92648 0.96277 0.63041 0.0
C112 C 0.94216 0.98551 0.61163 0.0
C113 C 0.02591 0.10425 0.5751 0.0
C114 C 0.0484 1.02743 0.58981 0.0
C115 C 0.1188 0.10711 0.53383 0.0
C116 C 0.14036 0.11999 0.51056 0.0
C117 C 0.15794 0.14978 0.51224 0.0
C118 C 0.17853 0.16282 0.49051 0.0
C119 C 0.18205 0.14622 0.46673 0.0
C120 C 0.16459 0.11626 0.46517 0.0
C121 C 0.14376 0.10327 0.48684 0.0
C122 C 0.03345 1.02626 0.50693 0.0
C123 C 1.00763 0.09396 0.50238 0.0
O124 O 0.95106 1.01857 0.54588 0.0
O125 O 0.95903 0.04388 0.58586 0.0
O126 O 0.03693 0.08212 0.57357 0.0
O127 O 0.99608 0.09624 0.56657 0.0
O128 O 0.01779 1.02222 0.58196 0.0
O129 O 0.07016 0.0496 0.57837 0.0
O130 O 0.09385 0.11719 0.53492 0.0
O131 O 0.11219 0.07835 0.53832 0.0
O132 O 0.02298 0.03896 0.52613 0.0
O133 O 0.06267 0.04171 0.5044 0.0
O134 O 0.03833 0.10035 0.51057 0.0
O135 O 0.98627 0.07162 0.51417 0.0
H136 H 0.87941 0.98872 0.5647 0.0
H137 H 0.85173 0.94933 0.59766 0.0
H138 H 0.93993 0.95613 0.64887 0.0
H139 H 0.96715 0.99623 0.61627 0.0
H140 H 0.1557 0.16301 0.5304 0.0
H141 H 0.19192 0.18585 0.49246 0.0
H142 H 0.16661 0.10305 0.44693 0.0
H143 H 0.13027 0.08025 0.48498 0.0
Tb144 Tb 0.55101 0.07538 0.09318 0.0
Tb145 Tb 0.4809 0.05132 0.08466 0.0
C146 C 0.60718 0.10786 0.0991 0.0
C147 C 0.62926 0.12247 0.12319 0.0
C148 C 0.64322 0.15312 0.12142 0.0
C149 C 0.66461 0.16744 0.14372 0.0
C150 C 0.6727 0.15132 0.16817 0.0
C151 C 0.6587 0.12056 0.16983 0.0
C152 C 0.63713 0.10628 0.14763 0.0
C153 C 0.5273 1.02505 0.1221 0.0
C154 C 0.50505 0.09626 0.13361 0.0
C155 C 0.42458 1.0193 0.07806 0.0
C156 C 0.40432 1.00455 0.05321 0.0
C157 C 0.37374 0.98645 0.05778 0.0
C158 C 0.35383 0.97305 0.03413 0.0
C159 C 0.36422 0.97761 1.00547 0.0
C160 C 0.39511 0.99567 1.00109 0.0
C161 C 0.415 1.00901 1.02477 0.0
C162 C 0.50549 0.10189 0.05619 0.0
C163 C 0.52587 1.03102 0.04309 0.0
O164 O 0.58265 0.11811 0.09245 0.0
O165 O 0.59965 0.07893 0.09887 0.0
O166 O 0.51492 0.0462 0.11849 0.0
O167 O 0.55517 1.0329 0.11181 0.0
O168 O 0.53296 0.10299 0.12172 0.0
O169 O 0.48253 0.07215 0.12618 0.0
O170 O 0.44867 1.00899 0.0865 0.0
O171 O 0.43254 0.04823 0.07672 0.0
O172 O 0.51709 0.0803 0.05964 0.0
O173 O 0.47768 0.09459 0.06665 0.0
O174 O 0.49814 1.02426 0.05516 0.0
O175 O 0.54895 0.05448 0.05135 0.0
H176 H 0.63749 0.16604 0.10277 0.0
H177 H 0.67448 0.19122 0.14194 0.0
H178 H 0.66467 0.10739 0.18813 0.0
H179 H 0.62677 0.08258 0.1496 0.0
H180 H 0.3652 0.98276 0.07965 0.0
H181 H 0.33042 0.95888 0.03835 0.0
H182 H 0.40375 0.99991 0.97931 0.0
H183 H 0.43858 1.02305 1.02089 0.0
Tb184 Tb 0.49374 0.5836 0.56836 0.0
Tb185 Tb 0.48917 0.52705 0.539 0.0
C186 C 0.48081 0.6288 0.58525 0.0
C187 C 0.45488 0.63344 0.60163 0.0
C188 C 0.42309 0.61756 0.59508 0.0
C189 C 0.39876 0.62229 0.61071 0.0
C190 C 0.4057 0.64294 0.63328 0.0
C191 C 0.43764 0.65841 0.64011 0.0
C192 C 0.46197 0.65373 0.62438 0.0
C193 C 0.52233 0.5483 0.59811 0.0
C194 C 0.43179 0.52722 0.57557 0.0
C195 C 0.50184 0.48149 0.52249 0.0
C196 C 0.53184 0.47478 0.51737 0.0
C197 C 0.56029 0.48961 0.53268 0.0
C198 C 0.58882 0.48358 0.52725 0.0
C199 C 0.58942 0.46254 0.50647 0.0
C200 C 0.56079 0.4477 0.49124 0.0
C201 C 0.53227 0.45383 0.49663 0.0
C202 C 0.46236 0.56382 0.50871 0.0
C203 C 0.55105 0.58241 0.53279 0.0
O204 O 0.47281 0.61812 0.55898 0.0
O205 O 0.50048 0.61631 0.59997 0.0
O206 O 0.49614 0.54062 0.58332 0.0
O207 O 0.53253 0.577 0.59794 0.0
O208 O 0.44586 0.5559 0.57927 0.0
O209 O 0.44521 0.51049 0.5612 0.0
O210 O 0.49757 0.48607 0.54972 0.0
O211 O 0.49401 0.5009 0.50439 0.0
O212 O 0.48794 0.57028 0.52427 0.0
O213 O 0.45147 0.53515 0.50829 0.0
O214 O 0.53908 0.55318 0.53376 0.0
O215 O 0.53504 0.59995 0.5423 0.0
H216 H 0.41692 0.60163 0.5777 0.0
H217 H 0.37444 0.61026 0.60461 0.0
H218 H 0.44387 0.67414 0.65766 0.0
H219 H 0.48636 0.66599 0.62995 0.0
H220 H 0.56052 0.50592 0.5488 0.0
H221 H 0.61045 0.49567 0.53908 0.0
H222 H 0.56034 0.43106 0.47541 0.0
H223 H 0.51054 0.44218 0.48463 0.0
Tb224 Tb 0.98063 0.58061 0.03973 0.0
Tb225 Tb 0.99433 0.53614 0.0834 0.0
C226 C 0.95268 0.61018 1.00616 0.0
C227 C 0.93953 0.63597 1.00527 0.0
C228 C 0.9104 0.6342 1.01731 0.0
C229 C 0.8955 0.65676 1.01183 0.0
C230 C 0.90939 0.68152 0.99417 0.0
C231 C 0.93938 0.684 0.98354 0.0
C232 C 0.9542 0.66139 0.98891 0.0
C233 C 0.03951 0.59439 0.06277 0.0
C234 C 0.96708 0.58572 0.10784 0.0
C235 C 0.02038 0.50361 0.11517 0.0
C236 C 0.05113 0.49644 0.11603 0.0
C237 C 0.07116 0.50209 0.14156 0.0
C238 C 0.10084 0.49645 0.14289 0.0
C239 C 0.11107 0.48485 0.11871 0.0
C240 C 0.09095 0.47907 0.09312 0.0
C241 C 0.06127 0.48492 0.09173 0.0
C242 C 0.93553 0.52266 0.05999 0.0
C243 C 0.01259 0.53494 1.01703 0.0
O244 O 0.93793 0.58662 1.02113 0.0
O245 O 0.98366 0.6154 1.00891 0.0
O246 O 0.01464 0.58194 0.07549 0.0
O247 O 0.03164 0.60227 0.0365 0.0
O248 O 0.96395 0.59487 0.08014 0.0
O249 O 0.97977 0.56351 0.11452 0.0
O250 O 0.02206 0.53093 0.12122 0.0
O251 O 0.9999 0.49375 0.09324 0.0
O252 O 0.96061 0.53448 0.04725 0.0
O253 O 0.9432 0.516 0.08669 0.0
O254 O 0.02103 0.53116 0.04508 0.0
O255 O 0.99211 0.55049 1.00983 0.0
H256 H 0.89833 0.61482 1.02987 0.0
H257 H 0.87228 0.65396 1.02011 0.0
H258 H 0.95095 0.703 0.97025 0.0
H259 H 0.97656 0.66327 0.97922 0.0
H260 H 0.06384 0.51098 0.16055 0.0
H261 H 0.11557 0.50069 0.16307 0.0
H262 H 0.0983 0.47029 0.0741 0.0
H263 H 0.0464 0.48053 0.07166 0.0
H264 H 0.29274 0.28662 0.24442 0.0
H265 H 0.27114 0.25159 0.28375 0.0
H266 H 0.36557 0.26515 0.32465 0.0
H267 H 0.38695 0.3013 0.2855 0.0
H268 H 0.2816 0.19991 0.30526 0.0
H269 H 0.31747 0.28767 0.38887 0.0
H270 H 0.31942 0.29607 0.35018 0.0
H271 H 0.34912 0.28143 0.36933 0.0
C272 C 0.30874 0.2821 0.26192 0.0
C273 C 0.34123 0.29707 0.26264 0.0
C274 C 0.29653 0.26195 0.28418 0.0
C275 C 0.31665 0.25621 0.30746 0.0
C276 C 0.34953 0.26978 0.30724 0.0
H277 H 0.22577 0.12479 0.44131 0.0
H278 H 0.26193 0.14924 0.40361 0.0
C279 C 0.36175 0.2902 0.28494 0.0
C280 C 0.30239 0.23745 0.33252 0.0
H281 H 0.2874 0.24078 0.40427 0.0
C282 C 0.28317 0.20864 0.32705 0.0
C283 C 0.30427 0.24908 0.36081 0.0
C284 C 0.32345 0.28031 0.36776 0.0
C285 C 0.26474 0.19158 0.34876 0.0
C286 C 0.26616 0.20347 0.37688 0.0
C287 C 0.28643 0.23175 0.38269 0.0
C288 C 0.24469 0.18826 0.39977 0.0
C289 C 0.24261 0.16173 0.34093 0.0
C290 C 0.22348 0.2023 0.41049 0.0
C291 C 0.20312 0.18857 0.43212 0.0
C292 C 0.2035 0.16044 0.44346 0.0
C293 C 0.22471 0.14631 0.43268 0.0
C294 C 0.24532 0.16022 0.41114 0.0
H295 H 0.23941 0.15865 0.31688 0.0
H296 H 0.25265 0.14406 0.35075 0.0
H297 H 0.21891 0.15883 0.34968 0.0
H298 H 0.22253 0.2239 0.40196 0.0
H299 H 0.18681 0.19985 0.43976 0.0
H300 H 0.22257 0.86258 0.7663 0.0
H301 H 0.24828 0.89597 0.8062 0.0
H302 H 0.19093 0.83639 0.868 0.0
H303 H 0.16567 0.80292 0.82801 0.0
H304 H 0.22855 0.92505 0.85255 0.0
H305 H 0.28329 0.83609 0.89234 0.0
H306 H 0.26263 0.83545 0.85684 0.0
H307 H 0.2406 0.82511 0.8891 0.0
C308 C 0.21484 0.8573 0.78831 0.0
C309 C 0.19233 0.83044 0.7944 0.0
C310 C 0.22953 0.8762 0.81103 0.0
C311 C 0.22187 0.86833 0.84007 0.0
C312 C 0.19746 0.84262 0.84578 0.0
H313 H 0.30017 0.97074 0.99589 0.0
H314 H 0.26504 0.94546 0.95551 0.0
C315 C 0.18291 0.82368 0.82307 0.0
C316 C 0.2418 0.88513 0.86445 0.0
H317 H 0.2946 0.87879 0.92094 0.0
C318 C 0.24293 0.91499 0.86761 0.0
C319 C 0.26101 0.87203 0.88363 0.0
C320 C 0.26216 0.8405 0.88026 0.0
C321 C 0.26259 0.93205 0.88974 0.0
C322 C 0.2812 0.9187 0.90934 0.0
C323 C 0.28016 0.8889 0.906 0.0
C324 C 0.30252 0.93522 0.93319 0.0
C325 C 0.26386 0.96435 0.89149 0.0
C326 C 0.33514 0.93734 0.93435 0.0
C327 C 0.35519 0.95133 0.95763 0.0
C328 C 0.34299 0.96341 0.98031 0.0
C329 C 0.31029 0.96141 0.97896 0.0
C330 C 0.29023 0.94734 0.95568 0.0
H331 H 0.2548 0.97291 0.87067 0.0
H332 H 0.24879 0.96711 0.90909 0.0
H333 H 0.28852 0.97801 0.89679 0.0
H334 H 0.34506 0.92791 0.91733 0.0
H335 H 0.38014 0.95208 0.95818 0.0
H336 H 0.6046 0.44485 0.84183 0.0
H337 H 0.58614 0.46723 0.79699 0.0
H338 H 0.59782 0.39554 0.74685 0.0
H339 H 0.61667 0.3735 0.79187 0.0
H340 H 0.62354 0.45098 0.72124 0.0
H341 H 0.5003 0.43961 0.7511 0.0
H342 H 0.52992 0.45806 0.7782 0.0
H343 H 0.52572 0.41988 0.77048 0.0
C344 C 0.60291 0.43392 0.82118 0.0
C345 C 0.61172 0.4075 0.82005 0.0
C346 C 0.59227 0.44654 0.79565 0.0
C347 C 0.5901 0.43283 0.76857 0.0
C348 C 0.59909 0.40641 0.76748 0.0
H349 H 0.49441 0.49002 0.61173 0.0
H350 H 0.51146 0.45967 0.65095 0.0
C351 C 0.60972 0.3938 0.79307 0.0
C352 C 0.57944 0.44662 0.74134 0.0
H353 H 0.51823 0.47148 0.71018 0.0
C354 C 0.60041 0.45524 0.71872 0.0
C355 C 0.54908 0.45181 0.73781 0.0
C356 C 0.5248 0.44161 0.76055 0.0
C357 C 0.59229 0.46983 0.69317 0.0
C358 C 0.56255 0.47632 0.6903 0.0
C359 C 0.54114 0.46676 0.71246 0.0
C360 C 0.55355 0.49388 0.66503 0.0
C361 C 0.6156 0.47806 0.66942 0.0
C362 C 0.57157 0.52315 0.65977 0.0
C363 C 0.5619 0.54048 0.63738 0.0
C364 C 0.53391 0.52895 0.61989 0.0
C365 C 0.51619 0.49946 0.62475 0.0
C366 C 0.52585 0.48213 0.64721 0.0
H367 H 0.63253 0.46423 0.67093 0.0
H368 H 0.6031 0.47561 0.64737 0.0
H369 H 0.62959 0.50154 0.67181 0.0
H370 H 0.59267 0.53292 0.67353 0.0
H371 H 0.57596 0.56316 0.63423 0.0
H372 H 0.91646 0.6941 0.35223 0.0
H373 H 0.93522 0.67378 0.31054 0.0
H374 H 0.89496 0.72941 0.25165 0.0
H375 H 0.87655 0.74981 0.29366 0.0
H376 H 0.89683 0.64142 0.268 0.0
H377 H 0.97834 0.73792 0.21451 0.0
H378 H 0.96634 0.7391 0.25127 0.0
H379 H 0.9401 0.74293 0.22035 0.0
C380 C 0.91311 0.70308 0.33049 0.0
C381 C 0.89603 0.72443 0.32646 0.0
C382 C 0.92334 0.69106 0.30649 0.0
C383 C 0.91688 0.69997 0.27753 0.0
C384 C 0.9011 0.72241 0.27353 0.0
H385 H 0.93999 0.6327 0.10444 0.0
H386 H 0.92739 0.65982 0.14462 0.0
C387 C 0.8908 0.7344 0.29765 0.0
C388 C 0.92401 0.68385 0.25188 0.0
H389 H 0.96282 0.69323 0.18798 0.0
C390 C 0.91145 0.65286 0.25065 0.0
C391 C 0.94274 0.69841 0.22872 0.0
C392 C 0.95793 0.73138 0.22878 0.0
C393 C 0.9167 0.63632 0.22724 0.0
C394 C 0.93587 0.65076 0.20429 0.0
C395 C 0.9482 0.68183 0.20534 0.0
C396 C 0.94364 0.63402 0.1794 0.0
C397 C 0.90072 0.60346 0.22704 0.0
C398 C 0.95743 0.61042 0.18495 0.0
C399 C 0.96448 0.59469 0.16192 0.0
C400 C 0.95836 0.60212 0.13235 0.0
C401 C 0.94494 0.62601 0.12676 0.0
C402 C 0.93779 0.64172 0.14987 0.0
H403 H 0.87937 0.59758 0.24018 0.0
H404 H 0.8934 0.59559 0.20442 0.0
H405 H 0.91755 0.59145 0.23688 0.0
H406 H 0.96318 0.60428 0.20725 0.0
H407 H 0.97514 0.5768 0.16742 0.0
H408 H 0.34495 0.26142 0.21422 0.0
H409 H 0.37091 0.22234 0.20716 0.0
H410 H 0.46257 0.28701 0.21365 0.0
H411 H 0.43645 0.32583 0.22172 0.0
H412 H 0.40756 0.22101 0.16147 0.0
H413 H 0.47769 0.21991 0.2669 0.0
H414 H 0.44573 0.23738 0.2624 0.0
H415 H 0.48418 0.25583 0.24945 0.0
C416 C 0.37065 0.267 0.21476 0.0
C417 C 0.38888 0.29637 0.21864 0.0
C418 C 0.38545 0.24482 0.21062 0.0
C419 C 0.41871 0.2517 0.2103 0.0
C420 C 0.43695 0.28108 0.21447 0.0
H421 H 0.5396 0.15331 0.14506 0.0
H422 H 0.52068 0.19117 0.16768 0.0
C423 C 0.42211 0.30324 0.21872 0.0
C424 C 0.43396 0.22857 0.20315 0.0
H425 H 0.48844 0.19212 0.22831 0.0
C426 C 0.4251 0.2146 0.17617 0.0
C427 C 0.45699 0.22038 0.22232 0.0
C428 C 0.46656 0.23394 0.25201 0.0
C429 C 0.43876 0.1928 0.16772 0.0
C430 C 0.4617 0.18458 0.18685 0.0
C431 C 0.47082 0.19858 0.21377 0.0
C432 C 0.47583 0.16105 0.17891 0.0
C433 C 0.42878 0.17877 0.13825 0.0
C434 C 0.45735 0.13151 0.17893 0.0
C435 C 0.468 0.10988 0.16607 0.0
C436 C 0.49734 0.11748 0.15291 0.0
C437 C 0.5169 0.14672 0.15498 0.0
C438 C 0.50616 0.1684 0.16788 0.0
H439 H 0.41457 0.19081 0.12421 0.0
H440 H 0.44997 0.17811 0.12659 0.0
H441 H 0.41414 0.1556 0.14142 0.0
H442 H 0.43391 0.1255 0.18748 0.0
H443 H 0.45244 0.08754 0.16505 0.0
H444 H 0.18905 0.846 0.70056 0.0
H445 H 0.16691 0.88527 0.67944 0.0
H446 H 0.10174 0.87064 0.74852 0.0
H447 H 0.12409 0.83106 0.76961 0.0
H448 H 0.10197 0.8748 0.66019 0.0
H449 H 0.13954 0.96232 0.74388 0.0
H450 H 0.15866 0.93303 0.74182 0.0
H451 H 0.12043 0.92546 0.75687 0.0
C452 C 0.17007 0.85133 0.71118 0.0
C453 C 0.15773 0.8354 0.73627 0.0
C454 C 0.15758 0.87377 0.69927 0.0
C455 C 0.13272 0.88084 0.71243 0.0
C456 C 0.12116 0.86571 0.73823 0.0
H457 H 0.01223 0.97571 0.61371 0.0
H458 H 0.03039 0.94062 0.64644 0.0
C459 C 0.13376 0.84317 0.75019 0.0
C460 C 0.11761 0.9025 0.69764 0.0
H461 H 0.10717 0.97142 0.70311 0.0
C462 C 0.10291 0.89586 0.66963 0.0
C463 C 0.11912 0.92996 0.71001 0.0
C464 C 0.13546 0.93838 0.73971 0.0
C465 C 0.09003 0.91613 0.65339 0.0
C466 C 0.09146 0.94362 0.66572 0.0
C467 C 0.1059 0.9502 0.69388 0.0
C468 C 0.07969 0.96636 0.64883 0.0
C469 C 0.07598 0.90837 0.62275 0.0
C470 C 0.10122 0.99294 0.64021 0.0
C471 C 0.0909 1.01319 0.62166 0.0
C472 C 0.0588 1.00724 0.61147 0.0
C473 C 0.03708 0.98108 0.62114 0.0
C474 C 0.04743 0.96088 0.63973 0.0
H475 H 0.08277 0.88925 0.61437 0.0
H476 H 0.04966 0.9024 0.62278 0.0
H477 H 0.08378 0.92756 0.60744 0.0
H478 H 0.12622 0.99757 0.64705 0.0
H479 H 0.10826 1.03317 0.6148 0.0
H480 H 0.65137 0.40572 0.94061 0.0
H481 H 0.69722 0.42606 0.97514 0.0
H482 H 0.75994 0.40764 0.91442 0.0
H483 H 0.71411 0.38744 0.88009 0.0
H484 H 0.77299 0.39439 0.97779 0.0
H485 H 0.76197 0.5082 0.95278 0.0
H486 H 0.72678 0.48065 0.96342 0.0
H487 H 0.7434 0.47735 0.92942 0.0
C488 C 0.67492 0.40538 0.93517 0.0
C489 C 0.6795 0.39513 0.90791 0.0
C490 C 0.70103 0.41717 0.95467 0.0
C491 C 0.732 0.41868 0.94714 0.0
C492 C 0.73628 0.40676 0.92061 0.0
H493 H 0.91865 0.52727 1.00184 0.0
H494 H 0.86814 0.50209 0.97598 0.0
C495 C 0.71023 0.39522 0.90109 0.0
C496 C 0.76016 0.43446 0.96578 0.0
H497 H 0.80377 0.50377 0.98619 0.0
C498 C 0.77961 0.41826 0.97988 0.0
C499 C 0.76895 0.46566 0.96806 0.0
C500 C 0.74941 0.48417 0.95251 0.0
C501 C 0.80765 0.43247 0.99625 0.0
C502 C 0.81637 0.46367 0.99862 0.0
C503 C 0.79691 0.47985 0.98451 0.0
C504 C 0.84628 0.47997 1.01472 0.0
C505 C 0.82824 0.41412 1.01023 0.0
C506 C 0.85047 0.47643 0.04517 0.0
C507 C 0.87922 0.49098 0.06002 0.0
C508 C 0.90429 0.50927 0.04466 0.0
C509 C 0.89975 0.51337 1.01427 0.0
C510 C 0.87094 0.49896 0.99947 0.0
H511 H 0.82138 0.39123 1.00182 0.0
H512 H 0.85365 0.42461 1.0063 0.0
H513 H 0.82578 0.41273 0.03424 0.0
H514 H 0.83159 0.46223 0.05742 0.0
H515 H 0.882 0.48747 0.08346 0.0
H516 H 0.78545 0.73784 0.38756 0.0
H517 H 0.73825 0.71375 0.4144 0.0
H518 H 0.77173 0.63584 0.42783 0.0
H519 H 0.81975 0.66067 0.40224 0.0
H520 H 0.69047 0.66595 0.40525 0.0
H521 H 0.75413 0.64814 0.51008 0.0
H522 H 0.77407 0.67082 0.48062 0.0
H523 H 0.76553 0.63109 0.47984 0.0
C524 C 0.78281 0.71567 0.39651 0.0
C525 C 0.80647 0.70127 0.39307 0.0
C526 C 0.75573 0.70181 0.41174 0.0
C527 C 0.75148 0.67308 0.42388 0.0
C528 C 0.77466 0.65827 0.41955 0.0
H529 H 0.59395 0.5542 0.51554 0.0
H530 H 0.64237 0.57562 0.48944 0.0
C531 C 0.80193 0.67229 0.40452 0.0
C532 C 0.72265 0.65875 0.44061 0.0
H533 H 0.6984 0.6256 0.50634 0.0
C534 C 0.69233 0.65726 0.42739 0.0
C535 C 0.72475 0.64732 0.46963 0.0
C536 C 0.75636 0.64965 0.48601 0.0
C537 C 0.66437 0.64458 0.4421 0.0
C538 C 0.66651 0.63312 0.47099 0.0
C539 C 0.6967 0.63429 0.48418 0.0
C540 C 0.63766 0.62028 0.48793 0.0
C541 C 0.63259 0.64321 0.42648 0.0
C542 C 0.61912 0.63827 0.49638 0.0
C543 C 0.59155 0.62614 0.51157 0.0
C544 C 0.58169 0.59563 0.51859 0.0
C545 C 0.60067 0.57774 0.51054 0.0
C546 C 0.62842 0.58997 0.49557 0.0
H547 H 0.63451 0.64718 0.40252 0.0
H548 H 0.61534 0.62134 0.43035 0.0
H549 H 0.62294 0.66046 0.43516 0.0
H550 H 0.62591 0.66177 0.49109 0.0
H551 H 0.57763 0.64065 0.5173 0.0
H552 H 0.31328 0.34303 0.16298 0.0
H553 H 0.28063 0.3733 0.13966 0.0
H554 H 0.33069 0.44647 0.19415 0.0
H555 H 0.36284 0.41564 0.21779 0.0
H556 H 0.26783 0.43132 0.19983 0.0
H557 H 0.28906 0.44165 0.08178 0.0
H558 H 0.28051 0.40393 0.09482 0.0
H559 H 0.31594 0.43064 0.10869 0.0
C560 C 0.31797 0.36596 0.16902 0.0
C561 C 0.34052 0.37734 0.19179 0.0
C562 C 0.29947 0.38328 0.1557 0.0
C563 C 0.30348 0.41232 0.16487 0.0
C564 C 0.3274 0.42422 0.18655 0.0
H565 H 0.16802 0.51907 0.14158 0.0
H566 H 0.21779 0.50517 0.15026 0.0
C567 C 0.34579 0.40679 0.19994 0.0
C568 C 0.2795 0.42822 0.15536 0.0
H569 H 0.23936 0.44877 0.09527 0.0
C570 C 0.26206 0.43571 0.17699 0.0
C571 C 0.27176 0.43363 0.12554 0.0
C572 C 0.29054 0.4273 0.10141 0.0
C573 C 0.23622 0.44723 0.16963 0.0
C574 C 0.2279 0.45187 0.13979 0.0
C575 C 0.24582 0.44516 0.11812 0.0
C576 C 0.1995 0.46206 0.13092 0.0
C577 C 0.2171 0.45302 0.19382 0.0
C578 C 0.17323 0.44291 0.11606 0.0
C579 C 0.1448 0.4508 0.11102 0.0
C580 C 0.14221 0.47797 0.12081 0.0
C581 C 0.16913 0.49774 0.13431 0.0
C582 C 0.19757 0.48989 0.13921 0.0
H583 H 0.2226 0.44255 0.21497 0.0
H584 H 0.22268 0.47725 0.19699 0.0
H585 H 0.19122 0.44459 0.18807 0.0
H586 H 0.1743 0.42133 0.10949 0.0
H587 H 0.12444 0.43506 0.10069 0.0
H588 H 0.57578 0.35396 0.91953 0.0
H589 H 0.55844 0.31013 0.95162 0.0
H590 H 0.64237 0.28413 0.93438 0.0
H591 H 0.65964 0.32818 0.90236 0.0
H592 H 0.54453 0.25281 0.93367 0.0
H593 H 0.63977 0.27184 1.02275 0.0
H594 H 0.63444 0.30099 0.99771 0.0
H595 H 0.65392 0.27453 0.98658 0.0
C596 C 0.59063 0.33902 0.923 0.0
C597 C 0.61891 0.34422 0.90849 0.0
C598 C 0.58079 0.31404 0.9413 0.0
C599 C 0.59915 0.29383 0.94562 0.0
C600 C 0.62806 0.29961 0.9319 0.0
H601 H 0.56209 0.11802 1.02972 0.0
H602 H 0.58535 0.1646 1.00314 0.0
C603 C 0.63793 0.32471 0.91361 0.0
C604 C 0.58665 0.26568 0.96251 0.0
H605 H 0.60262 0.22414 1.02163 0.0
C606 C 0.55718 0.24665 0.953 0.0
C607 C 0.60326 0.25745 0.98759 0.0
C608 C 0.63447 0.27736 0.99948 0.0
C609 C 0.54398 0.21965 0.96766 0.0
C610 C 0.56039 0.21154 0.99292 0.0
C611 C 0.59002 0.23038 1.00231 0.0
C612 C 0.54688 0.18373 1.00994 0.0
C613 C 0.51282 0.19974 0.95562 0.0
C614 C 0.51782 0.17917 1.02306 0.0
C615 C 0.50451 0.15262 0.03819 0.0
C616 C 0.52007 0.13013 0.04064 0.0
C617 C 0.5495 0.13492 1.02807 0.0
C618 C 0.56283 0.16153 1.01294 0.0
H619 H 0.5077 0.2052 0.93229 0.0
H620 H 0.51281 0.1761 0.95746 0.0
H621 H 0.49326 0.20262 0.96833 0.0
H622 H 0.50537 0.19618 1.02156 0.0
H623 H 0.48196 0.14968 0.0479 0.0
H624 H 0.93728 0.76133 0.39638 0.0
H625 H 0.96678 0.80929 0.41716 0.0
H626 H 0.90434 0.85152 0.36661 0.0
H627 H 0.87555 0.80368 0.34557 0.0
H628 H 0.96287 0.88916 0.37217 0.0
H629 H 0.92922 0.84177 0.48183 0.0
H630 H 0.95284 0.82281 0.46399 0.0
H631 H 0.91376 0.82212 0.44863 0.0
C632 C 0.93107 0.78115 0.38851 0.0
C633 C 0.90451 0.77871 0.36872 0.0
C634 C 0.94735 0.80855 0.40106 0.0
C635 C 0.93729 0.83423 0.39438 0.0
C636 C 0.91265 0.83228 0.37253 0.0
H637 H 0.97224 0.98832 0.51014 0.0
H638 H 0.94831 0.94278 0.48254 0.0
C639 C 0.89649 0.80493 0.35998 0.0
C640 C 0.95083 0.8625 0.41119 0.0
H641 H 0.96289 0.89082 0.48036 0.0
C642 C 0.96289 0.88939 0.39583 0.0
C643 C 0.95024 0.86343 0.44214 0.0
C644 C 0.93553 0.83608 0.46015 0.0
C645 C 0.97486 0.91665 0.41034 0.0
C646 C 0.97555 0.91738 0.44139 0.0
C647 C 0.96285 0.89058 0.45669 0.0
C648 C 0.98979 0.94548 0.45829 0.0
C649 C 0.98591 0.94455 0.392 0.0
C650 C 0.02127 0.96234 0.45454 0.0
C651 C 0.0348 0.98841 0.47017 0.0
C652 C 0.01754 0.99852 0.49042 0.0
C653 C 0.98618 0.98151 0.49462 0.0
C654 C 0.97252 0.9553 0.47883 0.0
H655 H 0.97449 0.94189 0.36949 0.0
H656 H 0.98066 0.96368 0.402 0.0
H657 H 0.01198 0.94967 0.39013 0.0
H658 H 0.0357 0.95516 0.43969 0.0
H659 H 0.05912 1.00062 0.46649 0.0
H660 H 0.18383 0.71558 0.76826 0.0
H661 H 0.214 0.68237 0.75232 0.0
H662 H 0.25025 0.74453 0.6827 0.0
H663 H 0.22089 0.7777 0.69893 0.0
H664 H 0.22961 0.68104 0.66742 0.0
H665 H 0.31411 0.7084 0.76549 0.0
H666 H 0.27221 0.69523 0.77099 0.0
H667 H 0.28787 0.73083 0.75391 0.0
C668 C 0.1979 0.72173 0.7493 0.0
C669 C 0.19992 0.74892 0.73459 0.0
C670 C 0.21506 0.7029 0.74027 0.0
C671 C 0.23434 0.71114 0.71641 0.0
C672 C 0.23527 0.73772 0.70101 0.0
H673 H 0.40126 0.69672 0.65007 0.0
H674 H 0.35742 0.7076 0.67325 0.0
C675 C 0.21836 0.75653 0.71013 0.0
C676 C 0.25574 0.69366 0.70851 0.0
H677 H 0.32797 0.68226 0.72833 0.0
C678 C 0.25078 0.68062 0.68095 0.0
C679 C 0.28341 0.69355 0.72622 0.0
C680 C 0.29003 0.70782 0.75578 0.0
C681 C 0.27354 0.66858 0.67004 0.0
C682 C 0.30183 0.66962 0.68725 0.0
C683 C 0.30612 0.68143 0.71534 0.0
C684 C 0.32883 0.66204 0.67503 0.0
C685 C 0.26816 0.65645 0.63954 0.0
C686 C 0.32738 0.63271 0.66882 0.0
C687 C 0.3526 0.62632 0.65578 0.0
C688 C 0.37963 0.64922 0.64873 0.0
C689 C 0.3811 0.67849 0.65559 0.0
C690 C 0.35599 0.68479 0.6687 0.0
H691 H 0.24636 0.65999 0.62796 0.0
H692 H 0.28887 0.66708 0.62644 0.0
H693 H 0.26579 0.63231 0.64075 0.0
H694 H 0.30668 0.61484 0.67386 0.0
H695 H 0.35092 0.60349 0.6512 0.0
H696 H 0.74323 0.87281 0.85084 0.0
H697 H 0.7808 0.88186 0.81181 0.0
H698 H 0.71073 0.82121 0.7566 0.0
H699 H 0.67312 0.81266 0.79567 0.0
H700 H 0.80669 0.84542 0.77969 0.0
H701 H 0.72898 0.89876 0.70897 0.0
H702 H 0.72273 0.89013 0.74719 0.0
H703 H 0.7105 0.86139 0.72066 0.0
C704 C 0.73625 0.86119 0.83046 0.0
C705 C 0.70551 0.8423 0.82585 0.0
C706 C 0.75756 0.8663 0.80826 0.0
C707 C 0.74833 0.85258 0.78115 0.0
C708 C 0.71808 0.83246 0.77714 0.0
H709 H 0.84386 0.89963 0.61743 0.0
H710 H 0.80975 0.87069 0.65446 0.0
C711 C 0.69673 0.8275 0.79933 0.0
C712 C 0.76967 0.86093 0.75665 0.0
H713 H 0.77652 0.89633 0.6899 0.0
C714 C 0.80004 0.85633 0.75993 0.0
C715 C 0.76092 0.87521 0.73092 0.0
C716 C 0.72914 0.88194 0.72669 0.0
C717 C 0.82207 0.86599 0.73828 0.0
C718 C 0.81357 0.88093 0.71294 0.0
C719 C 0.78288 0.88469 0.70928 0.0
C720 C 0.83678 0.89523 0.6911 0.0
C721 C 0.85429 0.86031 0.74281 0.0
C722 C 0.86347 0.91837 0.69948 0.0
C723 C 0.88282 0.93506 0.67841 0.0
C724 C 0.87577 0.92906 0.64847 0.0
C725 C 0.84975 0.90504 0.64025 0.0
C726 C 0.83035 0.88837 0.66138 0.0
H727 H 0.85365 0.84118 0.75804 0.0
H728 H 0.86314 0.856 0.72173 0.0
H729 H 0.87146 0.88012 0.75253 0.0
H730 H 0.86842 0.92454 0.7222 0.0
H731 H 0.90226 0.95371 0.68552 0.0
H732 H 0.82132 0.27225 0.40311 0.0
H733 H 0.7965 0.23729 0.3642 0.0
H734 H 0.83812 0.30297 0.2992 0.0
H735 H 0.86287 0.3379 0.33833 0.0
H736 H 0.75355 0.25754 0.31934 0.0
H737 H 0.84982 0.22058 0.2726 0.0
H738 H 0.85239 0.23246 0.30998 0.0
H739 H 0.85771 0.2593 0.28049 0.0
C740 C 0.82587 0.27869 0.38051 0.0
C741 C 0.84393 0.30742 0.37339 0.0
C742 C 0.81172 0.2589 0.3584 0.0
C743 C 0.81574 0.26756 0.32894 0.0
C744 C 0.8352 0.29579 0.32186 0.0
H745 H 0.7271 0.19683 0.16316 0.0
H746 H 0.76213 0.22396 0.20264 0.0
C747 C 0.84922 0.31566 0.34402 0.0
C748 C 0.79605 0.24882 0.30577 0.0
H749 H 0.79897 0.20671 0.24761 0.0
C750 C 0.76336 0.2462 0.30376 0.0
C751 C 0.80918 0.23452 0.2854 0.0
C752 C 0.84418 0.23658 0.28713 0.0
C753 C 0.74334 0.22997 0.2815 0.0
C754 C 0.7563 0.21526 0.26124 0.0
C755 C 0.78909 0.21787 0.26329 0.0
C756 C 0.73615 0.19762 0.23744 0.0
C757 C 0.70869 0.22954 0.2794 0.0
C758 C 0.71032 0.17345 0.24394 0.0
C759 C 0.68992 0.15825 0.22148 0.0
C760 C 0.69523 0.16665 0.19202 0.0
C761 C 0.7219 0.19017 0.1856 0.0
C762 C 0.74215 0.20551 0.20811 0.0
H763 H 0.70459 0.24821 0.29123 0.0
H764 H 0.69977 0.23074 0.25623 0.0
H765 H 0.69448 0.2086 0.28944 0.0
H766 H 0.70563 0.16664 0.26644 0.0
H767 H 0.66955 0.14039 0.22727 0.0
H768 H 0.40575 0.68697 0.26764 0.0
H769 H 0.4259 0.66563 0.31207 0.0
H770 H 0.39997 0.72891 0.36405 0.0
H771 H 0.37932 0.74989 0.31926 0.0
H772 H 0.46953 0.68471 0.35827 0.0
H773 H 0.34648 0.6496 0.39571 0.0
H774 H 0.3553 0.66432 0.35932 0.0
H775 H 0.36229 0.68879 0.38972 0.0
C776 C 0.40548 0.69691 0.28852 0.0
C777 C 0.3913 0.72012 0.29018 0.0
C778 C 0.41672 0.68461 0.31391 0.0
C779 C 0.41381 0.69517 0.34154 0.0
C780 C 0.4019 0.71998 0.34305 0.0
H781 H 0.49061 0.62295 0.50133 0.0
H782 H 0.47887 0.65638 0.46258 0.0
C783 C 0.39062 0.7323 0.31752 0.0
C784 C 0.42092 0.67858 0.36844 0.0
H785 H 0.3861 0.6365 0.42625 0.0
C786 C 0.45138 0.67439 0.3733 0.0
C787 C 0.39703 0.66454 0.38772 0.0
C788 C 0.36335 0.66673 0.38284 0.0
C789 C 0.45856 0.65652 0.39672 0.0
C790 C 0.43479 0.64282 0.41624 0.0
C791 C 0.40439 0.64715 0.41147 0.0
C792 C 0.44065 0.62302 0.44104 0.0
C793 C 0.49124 0.65161 0.39963 0.0
C794 C 0.4222 0.59336 0.44274 0.0
C795 C 0.42858 0.57425 0.4652 0.0
C796 C 0.4535 0.58445 0.48646 0.0
C797 C 0.47126 0.61437 0.48528 0.0
C798 C 0.46478 0.63347 0.46293 0.0
H799 H 0.50362 0.65706 0.37891 0.0
H800 H 0.50588 0.66614 0.41683 0.0
H801 H 0.4899 0.62827 0.40605 0.0
H802 H 0.4033 0.58478 0.42625 0.0
H803 H 0.41446 0.55135 0.46554 0.0
H804 H 0.07195 0.41848 0.77978 0.0
H805 H 0.05371 0.44078 0.82062 0.0
H806 H 0.13554 0.43248 0.87449 0.0
H807 H 0.15427 0.41156 0.83318 0.0
H808 H 0.035 0.42409 0.87218 0.0
H809 H 0.14413 0.51585 0.89063 0.0
H810 H 0.13817 0.49224 0.85952 0.0
H811 H 0.15233 0.48058 0.89462 0.0
C812 C 0.08599 0.42151 0.80037 0.0
C813 C 0.11468 0.41346 0.80316 0.0
C814 C 0.0756 0.43432 0.82383 0.0
C815 C 0.0935 0.43933 0.85089 0.0
C816 C 0.12166 0.43019 0.85384 0.0
H817 H 0.06011 0.50605 1.02095 0.0
H818 H 0.07942 0.48263 0.98162 0.0
C819 C 0.13227 0.41785 0.83025 0.0
C820 C 0.0824 0.45347 0.87592 0.0
H821 H 0.10639 0.50798 0.9272 0.0
C822 C 0.05072 0.44255 0.88398 0.0
C823 C 0.1025 0.47775 0.89177 0.0
C824 C 0.13604 0.49249 0.88351 0.0
C825 C 0.03894 0.45466 0.9072 0.0
C826 C 0.05914 0.47864 0.92316 0.0
C827 C 0.09081 0.48951 0.91531 0.0
C828 C 0.04755 0.49321 0.94739 0.0
C829 C 1.00492 0.44131 0.91477 0.0
C830 C 0.02347 0.50755 0.94159 0.0
C831 C 0.01254 0.52115 0.96402 0.0
C832 C 0.02521 0.52086 0.99317 0.0
C833 C 0.04955 0.50671 0.99896 0.0
C834 C 0.0607 0.49329 0.97637 0.0
H835 H 0.99497 0.41881 0.90575 0.0
H836 H 1.00291 0.43992 0.93885 0.0
H837 H 0.99019 0.45558 0.90535 0.0
H838 H 0.01317 0.50842 0.91951 0.0
H839 H 0.99386 0.53178 0.95844 0.0
H840 H 0.58556 0.82973 0.88922 0.0
H841 H 0.55411 0.85871 0.91086 0.0
H842 H 0.62988 0.93849 0.89795 0.0
H843 H 0.66068 0.90949 0.87599 0.0
H844 H 0.57213 0.88911 0.96025 0.0
H845 H 0.5536 0.9668 0.87155 0.0
H846 H 0.56591 0.93413 0.86478 0.0
H847 H 0.59471 0.96759 0.87682 0.0
C848 C 0.59487 0.85356 0.89048 0.0
C849 C 0.62515 0.86766 0.88093 0.0
C850 C 0.57707 0.87005 0.90277 0.0
C851 C 0.5894 0.90085 0.90555 0.0
C852 C 0.61944 0.91494 0.89524 0.0
H853 H 0.5783 0.03981 1.01126 0.0
H854 H 0.58833 1.0068 0.97545 0.0
C855 C 0.6371 0.89846 0.88289 0.0
C856 C 0.57289 0.91785 0.9223 0.0
H857 H 0.5509 0.98218 0.92101 0.0
C858 C 0.56678 0.9091 0.95148 0.0
C859 C 0.56596 0.94392 0.91082 0.0
C860 C 0.57009 0.95347 0.87917 0.0
C861 C 0.55575 0.92665 0.96999 0.0
C862 C 0.55045 0.95348 0.9589 0.0
C863 C 0.55518 0.96162 0.92942 0.0
C864 C 0.54263 0.97447 0.97834 0.0
C865 C 0.55145 0.9172 1.00168 0.0
C866 C 0.51331 0.96741 0.99127 0.0
C867 C 0.50746 0.98622 1.01177 0.0
C868 C 0.53091 1.01235 1.01966 0.0
C869 C 0.55981 1.0198 1.00581 0.0
C870 C 0.56556 1.00104 0.98527 0.0
H871 H 0.56083 0.89795 1.00773 0.0
H872 H 0.56363 0.93581 1.01623 0.0
H873 H 0.52576 0.91091 1.00577 0.0
H874 H 0.49525 0.94708 0.98593 0.0
H875 H 0.48487 0.97992 1.02191 0.0
H876 H 0.91403 0.31576 0.38528 0.0
H877 H 0.94078 0.27614 0.39261 0.0
H878 H 0.89278 0.24858 0.47238 0.0
H879 H 0.86595 0.28786 0.46481 0.0
H880 H 0.95892 0.25423 0.47747 0.0
H881 H 0.89831 0.18639 0.38262 0.0
H882 H 0.91741 0.22471 0.3746 0.0
H883 H 0.88375 0.21513 0.39687 0.0
C884 C 0.90944 0.30121 0.40437 0.0
C885 C 0.88851 0.30503 0.42479 0.0
C886 C 0.92449 0.27858 0.40846 0.0
C887 C 0.91856 0.25934 0.43293 0.0
C888 C 0.89776 0.26329 0.45341 0.0
H889 H 0.94614 0.09179 0.48446 0.0
H890 H 0.92693 0.13244 0.46297 0.0
C891 C 0.88271 0.28584 0.44928 0.0
C892 C 0.93419 0.23522 0.43764 0.0
H893 H 0.93696 0.16917 0.41097 0.0
C894 C 0.95437 0.23574 0.46283 0.0
C895 C 0.92788 0.21106 0.41857 0.0
C896 C 0.90548 0.20899 0.39174 0.0
C897 C 0.9681 0.21251 0.46976 0.0
C898 C 0.96189 0.18833 0.45068 0.0
C899 C 0.94197 0.18793 0.4253 0.0
C900 C 0.97382 0.16225 0.45826 0.0
C901 C 0.98815 0.21347 0.49806 0.0
C902 C 1.00656 0.16507 0.46132 0.0
C903 C 0.01769 0.14188 0.47369 0.0
C904 C 0.9962 0.11546 0.48315 0.0
C905 C 0.96339 0.11187 0.47767 0.0
C906 C 0.95232 0.13509 0.46535 0.0
H907 H 0.9854 0.23061 0.51291 0.0
H908 H 0.98177 0.19166 0.50975 0.0
H909 H 0.01357 0.21874 0.49317 0.0
H910 H 0.02351 0.18572 0.45547 0.0
H911 H 0.04312 0.14535 0.47732 0.0
H912 H 0.31395 0.66475 0.2071 0.0
H913 H 0.265 0.64289 0.17741 0.0
H914 H 0.23608 0.72285 0.1849 0.0
H915 H 0.28356 0.74345 0.2167 0.0
H916 H 0.1881 0.67902 0.19127 0.0
H917 H 0.24471 0.65678 0.09368 0.0
H918 H 0.25599 0.63777 0.1255 0.0
H919 H 0.26735 0.6777 0.12389 0.0
C920 C 0.29687 0.6774 0.20263 0.0
C921 C 0.30254 0.70583 0.21402 0.0
C922 C 0.26919 0.66516 0.18521 0.0
C923 C 0.24713 0.68149 0.17811 0.0
C924 C 0.25278 0.70984 0.18975 0.0
H925 H 0.09301 0.63275 0.04176 0.0
H926 H 0.14369 0.65444 0.06925 0.0
C927 C 0.28002 0.72174 0.20771 0.0
C928 C 0.21751 0.66877 0.15967 0.0
H929 H 0.18876 0.63416 0.09523 0.0
C930 C 0.18836 0.66945 0.17016 0.0
C931 C 0.21769 0.65671 0.13182 0.0
C932 C 0.24816 0.65748 0.11792 0.0
C933 C 0.15952 0.65821 0.1539 0.0
C934 C 0.15951 0.64449 0.1269 0.0
C935 C 0.18866 0.64422 0.11612 0.0
C936 C 0.1295 0.63034 0.10966 0.0
C937 C 0.12951 0.66195 0.16562 0.0
C938 C 0.10498 0.60905 0.12289 0.0
C939 C 0.0759 0.59736 0.1075 0.0
C940 C 0.07105 0.60573 0.07817 0.0
C941 C 0.09608 0.62591 0.06438 0.0
C942 C 0.12504 0.63823 0.08005 0.0
H943 H 0.13475 0.6812 0.18028 0.0
H944 H 0.11237 0.66516 0.14766 0.0
H945 H 0.11807 0.6419 0.17868 0.0
H946 H 0.10809 0.60181 0.14536 0.0
H947 H 0.05704 0.5822 0.11884 0.0
H948 H 0.15435 0.40309 0.68424 0.0
H949 H 0.19916 0.42197 0.65256 0.0
H950 H 0.26498 0.42652 0.72775 0.0
H951 H 0.22033 0.40685 0.75894 0.0
H952 H 0.2433 0.4749 0.65377 0.0
H953 H 0.30575 0.38779 0.67104 0.0
H954 H 0.26588 0.38281 0.68216 0.0
H955 H 0.29959 0.40252 0.70497 0.0
C956 C 0.17845 0.40738 0.69373 0.0
C957 C 0.18387 0.40338 0.72402 0.0
C958 C 0.20408 0.41846 0.67571 0.0
C959 C 0.23575 0.42554 0.68753 0.0
C960 C 0.24104 0.42076 0.71775 0.0
H961 H 0.40139 0.55146 0.61462 0.0
H962 H 0.35362 0.52715 0.64028 0.0
C963 C 0.21548 0.40966 0.73567 0.0
C964 C 0.26313 0.43945 0.66882 0.0
H965 H 0.33567 0.43385 0.65044 0.0
C966 C 0.26335 0.46574 0.65288 0.0
C967 C 0.28935 0.42753 0.66716 0.0
C968 C 0.29005 0.39845 0.682 0.0
C969 C 0.28914 0.48069 0.63612 0.0
C970 C 0.31606 0.46953 0.63562 0.0
C971 C 0.31543 0.44281 0.65094 0.0
C972 C 0.34496 0.48493 0.61927 0.0
C973 C 0.28691 0.50806 0.61873 0.0
C974 C 0.35693 0.46942 0.59921 0.0
C975 C 0.38462 0.48324 0.5847 0.0
C976 C 0.40125 0.51305 0.58979 0.0
C977 C 0.38915 0.52864 0.60975 0.0
C978 C 0.36157 0.51472 0.62441 0.0
H979 H 0.26177 0.50823 0.61391 0.0
H980 H 0.29888 0.52796 0.63167 0.0
H981 H 0.29859 0.50979 0.59772 0.0
H982 H 0.34485 0.44645 0.59478 0.0
H983 H 0.39311 0.4704 0.56962 0.0
H984 H 0.69986 0.78199 0.85748 0.0
H985 H 0.74138 0.76038 0.87961 0.0
H986 H 0.7695 0.8312 0.94142 0.0
H987 H 0.72833 0.8529 0.91894 0.0
H988 H 0.82112 0.81683 0.91541 0.0
H989 H 0.73468 0.71836 0.96165 0.0
H990 H 0.72817 0.72501 0.92312 0.0
H991 H 0.72374 0.75125 0.94886 0.0
C992 C 0.7151 0.79283 0.87571 0.0
C993 C 0.71075 0.8186 0.88704 0.0
C994 C 0.73858 0.78052 0.88838 0.0
C995 C 0.75804 0.79396 0.91246 0.0
C996 C 0.75449 0.82039 0.92304 0.0
H997 H 0.87173 0.70456 1.02657 0.0
H998 H 0.837 0.73515 1.00867 0.0
C999 C 0.73096 0.83261 0.9104 0.0
C1000 C 0.78174 0.78016 0.92695 0.0
H1001 H 0.7888 0.71795 0.96458 0.0
C1002 C 0.81413 0.79528 0.9263 0.0
C1003 C 0.77241 0.75232 0.94157 0.0
C1004 C 0.73786 0.73583 0.94416 0.0
C1005 C 0.83758 0.78278 0.93912 0.0
C1006 C 0.82827 0.75437 0.95265 0.0
C1007 C 0.79584 0.73969 0.95407 0.0
C1008 C 0.85168 0.7387 0.96421 0.0
C1009 C 0.87207 0.80008 0.93815 0.0
C1010 C 0.87152 0.73077 0.94517 0.0
C1011 C 0.89117 0.71318 0.95525 0.0
C1012 C 0.89127 0.70305 0.98458 0.0
C1013 C 0.87199 0.71176 1.00381 0.0
C1014 C 0.85227 0.72933 0.99367 0.0
H1015 H 0.87478 0.82417 0.93468 0.0
H1016 H 0.88573 0.79669 0.95869 0.0
H1017 H 0.88258 0.79232 0.91969 0.0
H1018 H 0.87087 0.73718 0.92221 0.0
H1019 H 0.90516 0.7064 0.93967 0.0
H1020 H 0.43519 0.76029 0.23324 0.0
H1021 H 0.46962 0.80906 0.21922 0.0
H1022 H 0.40439 0.85088 0.25434 0.0
H1023 H 0.37083 0.80228 0.26879 0.0
H1024 H 0.44782 0.84147 0.1785 0.0
H1025 H 0.48655 0.91053 0.2762 0.0
H1026 H 0.47136 0.87072 0.27882 0.0
H1027 H 0.44448 0.89367 0.2744 0.0
C1028 C 0.42946 0.78009 0.23952 0.0
C1029 C 0.40081 0.77774 0.25254 0.0
C1030 C 0.44878 0.80793 0.23113 0.0
C1031 C 0.43975 0.83385 0.23573 0.0
C1032 C 0.41246 0.83151 0.25109 0.0
H1033 H 0.47286 1.00856 0.15229 0.0
H1034 H 0.45274 0.9623 0.18065 0.0
C1035 C 0.39331 0.80373 0.25953 0.0
C1036 C 0.45546 0.86228 0.22046 0.0
H1037 H 0.48642 0.93686 0.22987 0.0
C1038 C 0.45674 0.86222 0.18987 0.0
C1039 C 0.46675 0.88954 0.23511 0.0
C1040 C 0.46751 0.89111 0.26798 0.0
C1041 C 0.46816 0.88855 0.17354 0.0
C1042 C 0.47887 0.9158 0.18812 0.0
C1043 C 0.47798 0.91596 0.2187 0.0
C1044 C 0.49143 0.94422 0.17182 0.0
C1045 C 0.46786 0.88714 0.14066 0.0
C1046 C 0.51992 0.94947 0.15767 0.0
C1047 C 0.53141 0.97576 0.14158 0.0
C1048 C 0.51466 0.99739 0.1393 0.0
C1049 C 0.48622 0.99226 0.15363 0.0
C1050 C 0.47479 0.96593 0.1699 0.0
H1051 H 0.4529 0.86554 0.13233 0.0
H1052 H 0.45892 0.90515 0.12997 0.0
H1053 H 0.49248 0.89015 0.13411 0.0
H1054 H 0.53328 0.93317 0.15905 0.0
H1055 H 0.55342 0.97911 0.13083 0.0
H1056 H 0.07925 0.35247 0.70521 0.0
H1057 H 0.06641 0.30775 0.67567 0.0
H1058 H 0.15745 0.29403 0.70285 0.0
H1059 H 0.16991 0.33853 0.73293 0.0
H1060 H 0.09489 0.29146 0.6295 0.0
H1061 H 0.09762 0.21383 0.72355 0.0
H1062 H 0.09741 0.25171 0.72826 0.0
H1063 H 0.13349 0.2433 0.72025 0.0
C1064 C 0.09649 0.33988 0.70488 0.0
C1065 C 0.12548 0.34894 0.72166 0.0
C1066 C 0.08919 0.31429 0.68789 0.0
C1067 C 0.11057 0.29683 0.6873 0.0
C1068 C 0.14009 0.30649 0.7033 0.0
H1069 H 0.08569 0.12312 0.60395 0.0
H1070 H 0.10873 0.17004 0.62975 0.0
C1071 C 0.14742 0.33219 0.72025 0.0
C1072 C 0.10175 0.26869 0.67004 0.0
H1073 H 0.08866 0.19326 0.67651 0.0
C1074 C 0.09362 0.27004 0.63986 0.0
C1075 C 0.10014 0.24047 0.68322 0.0
C1076 C 0.10734 0.23703 0.71563 0.0
C1077 C 0.08404 0.24435 0.62271 0.0
C1078 C 0.08164 0.21604 0.63601 0.0
C1079 C 0.09042 0.21473 0.66608 0.0
C1080 C 0.06839 0.1876 0.61953 0.0
C1081 C 0.07701 0.24796 0.59029 0.0
C1082 C 0.03793 0.18133 0.60521 0.0
C1083 C 0.02487 0.15467 0.59047 0.0
C1084 C 0.04161 0.1331 0.5897 0.0
C1085 C 0.07215 0.13922 0.60395 0.0
C1086 C 0.0853 0.16607 0.61881 0.0
H1087 H 0.08995 0.27031 0.58206 0.0
H1088 H 0.0836 0.23107 0.57768 0.0
H1089 H 0.05119 0.24544 0.58601 0.0
H1090 H 0.02384 0.1969 0.60587 0.0
H1091 H 1.00125 0.15079 0.57994 0.0
H1092 H 0.83919 0.41524 0.41242 0.0
H1093 H 0.80037 0.43736 0.43192 0.0
H1094 H 0.77734 0.36609 0.49606 0.0
H1095 H 0.81535 0.34367 0.47594 0.0
H1096 H 0.72581 0.37179 0.46126 0.0
H1097 H 0.79304 0.48081 0.50591 0.0
H1098 H 0.8027 0.47473 0.46961 0.0
H1099 H 0.81167 0.45196 0.49962 0.0
C1100 C 0.82645 0.40495 0.43125 0.0
C1101 C 0.83029 0.378 0.4429 0.0
C1102 C 0.80445 0.41759 0.44246 0.0
C1103 C 0.78617 0.40349 0.46562 0.0
C1104 C 0.79139 0.37744 0.47835 0.0
H1105 H 0.63691 0.4569 0.54652 0.0
H1106 H 0.68576 0.44401 0.5373 0.0
C1107 C 0.81328 0.3648 0.46708 0.0
C1108 C 0.75867 0.41338 0.47373 0.0
H1109 H 0.73674 0.47223 0.49799 0.0
C1110 C 0.72825 0.39366 0.46954 0.0
C1111 C 0.76192 0.44189 0.48457 0.0
C1112 C 0.79411 0.46352 0.49047 0.0
C1113 C 0.70091 0.40186 0.47534 0.0
C1114 C 0.70406 0.43068 0.48522 0.0
C1115 C 0.73448 0.45024 0.49011 0.0
C1116 C 0.67582 0.4407 0.49048 0.0
C1117 C 0.66884 0.37957 0.47093 0.0
C1118 C 0.65445 0.44364 0.4671 0.0
C1119 C 0.62663 0.45112 0.47224 0.0
C1120 C 0.61969 0.45585 0.50088 0.0
C1121 C 0.64165 0.45366 0.52418 0.0
C1122 C 0.66952 0.44622 0.51899 0.0
H1123 H 0.67095 0.35663 0.46967 0.0
H1124 H 0.65346 0.38037 0.48899 0.0
H1125 H 0.65689 0.38492 0.45012 0.0
H1126 H 0.65917 0.43983 0.44489 0.0
H1127 H 0.61057 0.45322 0.45376 0.0
loop_
_geom_bond_atom_site_label_1
_geom_bond_atom_site_label_2
_geom_bond_distance
_geom_bond_site_symmetry_2
_ccdc_geom_bond_type
C0 N1 1.317 . S
C0 N2 1.348 . S
C0 C3 1.485 . S
N1 C0 1.317 . S
N1 N5 1.370 . S
N2 C0 1.348 . S
N2 C4 1.346 . S
C3 C0 1.485 . S
C3 H7 0.960 . S
C3 H8 0.961 . S
C3 H9 0.960 . S
C4 N2 1.346 . S
C4 N5 1.307 . S
C4 C6 1.486 . S
N5 N1 1.370 . S
N5 C4 1.307 . S
C6 C4 1.486 . S
C6 H10 0.960 . S
C6 H11 0.960 . S
C6 H12 0.959 . S
H7 C3 0.960 . S
H8 C3 0.961 . S
H9 C3 0.960 . S
H10 C6 0.960 . S
H11 C6 0.960 . S
H12 C6 0.959 . S
C13 N14 1.317 . S
C13 N15 1.348 . S
C13 C16 1.485 . S
N14 C13 1.317 . S
N14 N18 1.370 . S
N15 C13 1.348 . S
N15 C17 1.346 . S
C16 C13 1.485 . S
C16 H20 0.960 . S
C16 H21 0.961 . S
C16 H22 0.960 . S
C17 N15 1.346 . S
C17 N18 1.307 . S
C17 C19 1.486 . S
N18 N14 1.370 . S
N18 C17 1.307 . S
C19 C17 1.486 . S
C19 H23 0.960 . S
C19 H24 0.960 . S
C19 H25 0.959 . S
H20 C16 0.960 . S
H21 C16 0.961 . S
H22 C16 0.960 . S
H23 C19 0.960 . S
H24 C19 0.960 . S
H25 C19 0.959 . S
C26 N27 1.317 . S
C26 N28 1.348 . S
C26 C29 1.485 . S
N27 C26 1.317 . S
N27 N31 1.370 . S
N28 C26 1.348 . S
N28 C30 1.346 . S
C29 C26 1.485 . S
C29 H33 0.960 . S
C29 H34 0.961 . S
C29 H35 0.960 . S
C30 N28 1.346 . S
C30 N31 1.307 . S
C30 C32 1.486 . S
N31 N27 1.370 . S
N31 C30 1.307 . S
C32 C30 1.486 . S
C32 H36 0.960 . S
C32 H37 0.960 . S
C32 H38 0.959 . S
H33 C29 0.960 . S
H34 C29 0.961 . S
H35 C29 0.960 . S
H36 C32 0.960 . S
H37 C32 0.960 . S
H38 C32 0.959 . S
C39 N40 1.317 . S
C39 N41 1.348 . S
C39 C42 1.485 . S
N40 C39 1.317 . S
N40 N44 1.370 . S
N41 C39 1.348 . S
N41 C43 1.346 . S
C42 C39 1.485 . S
C42 H46 0.960 . S
C42 H47 0.961 . S
C42 H48 0.960 . S
C43 N41 1.346 . S
C43 N44 1.307 . S
C43 C45 1.486 . S
N44 N40 1.370 . S
N44 C43 1.307 . S
C45 C43 1.486 . S
C45 H49 0.960 . S
C45 H50 0.960 . S
C45 H51 0.959 . S
H46 C42 0.960 . S
H47 C42 0.961 . S
H48 C42 0.960 . S
H49 C45 0.960 . S
H50 C45 0.960 . S
H51 C45 0.959 . S
C52 N53 1.317 . S
C52 N54 1.348 . S
C52 C55 1.485 . S
N53 C52 1.317 . S
N53 N57 1.370 . S
N54 C52 1.348 . S
N54 C56 1.346 . S
C55 C52 1.485 . S
C55 H59 0.960 . S
C55 H60 0.961 . S
C55 H61 0.960 . S
C56 N54 1.346 . S
C56 N57 1.307 . S
C56 C58 1.486 . S
N57 N53 1.370 . S
N57 C56 1.307 . S
C58 C56 1.486 . S
C58 H62 0.960 . S
C58 H63 0.960 . S
C58 H64 0.959 . S
H59 C55 0.960 . S
H60 C55 0.961 . S
H61 C55 0.960 . S
H62 C58 0.960 . S
H63 C58 0.960 . S
H64 C58 0.959 . S
C65 N66 1.317 . S
C65 N67 1.348 . S
C65 C68 1.485 . S
N66 C65 1.317 . S
N66 N70 1.370 . S
N67 C65 1.348 . S
N67 C69 1.346 . S
C68 C65 1.485 . S
C68 H72 0.960 . S
C68 H73 0.961 . S
C68 H74 0.960 . S
C69 N67 1.346 . S
C69 N70 1.307 . S
C69 C71 1.486 . S
N70 N66 1.370 . S
N70 C69 1.307 . S
C71 C69 1.486 . S
C71 H75 0.960 . S
C71 H76 0.960 . S
C71 H77 0.959 . S
H72 C68 0.960 . S
H73 C68 0.961 . S
H74 C68 0.960 . S
H75 C71 0.960 . S
H76 C71 0.960 . S
H77 C71 0.959 . S
C78 N79 1.317 . S
C78 N80 1.348 . S
C78 C81 1.485 . S
N79 C78 1.317 . S
N79 N83 1.370 . S
N80 C78 1.348 . S
N80 C82 1.346 . S
C81 C78 1.485 . S
C81 H85 0.960 . S
C81 H86 0.961 . S
C81 H87 0.960 . S
C82 N80 1.346 . S
C82 N83 1.307 . S
C82 C84 1.486 . S
N83 N79 1.370 . S
N83 C82 1.307 . S
C84 C82 1.486 . S
C84 H88 0.960 . S
C84 H89 0.960 . S
C84 H90 0.959 . S
H85 C81 0.960 . S
H86 C81 0.961 . S
H87 C81 0.960 . S
H88 C84 0.960 . S
H89 C84 0.960 . S
H90 C84 0.959 . S
C91 N92 1.317 . S
C91 N93 1.348 . S
C91 C94 1.485 . S
N92 C91 1.317 . S
N92 N96 1.370 . S
N93 C91 1.348 . S
N93 C95 1.346 . S
C94 C91 1.485 . S
C94 H98 0.960 . S
C94 H99 0.961 . S
C94 H100 0.960 . S
C95 N93 1.346 . S
C95 N96 1.307 . S
C95 C97 1.486 . S
N96 N92 1.370 . S
N96 C95 1.307 . S
C97 C95 1.486 . S
C97 H101 0.960 . S
C97 H102 0.960 . S
C97 H103 0.959 . S
H98 C94 0.960 . S
H99 C94 0.961 . S
H100 C94 0.960 . S
H101 C97 0.960 . S
H102 C97 0.960 . S
H103 C97 0.959 . S
Tb104 C106 2.809 1_545 S
Tb104 O124 2.484 1_545 S
Tb104 O125 2.440 1_545 S
Tb104 O126 2.658 1_655 S
Tb104 O127 2.409 1_655 S
Tb104 O128 2.378 1_645 S
Tb104 O132 2.325 1_645 S
Tb104 O135 2.341 . S
Tb105 C115 2.809 . S
Tb105 O126 2.325 . S
Tb105 O129 2.341 1_545 S
Tb105 O130 2.484 . S
Tb105 O131 2.440 . S
Tb105 O132 2.658 1_545 S
Tb105 O133 2.409 1_545 S
Tb105 O134 2.378 . S
C106 Tb104 2.809 1_565 S
C106 C107 1.514 . S
C106 O124 1.248 . S
C106 O125 1.266 . S
C107 C106 1.514 . S
C107 C108 1.359 . S
C107 C112 1.348 . S
C108 C107 1.359 . S
C108 C109 1.380 . S
C108 H136 0.929 . S
C109 C108 1.380 . S
C109 C110 1.347 . S
C109 H137 0.931 . S
C110 C109 1.347 . S
C110 C111 1.369 . S
C111 C110 1.369 . S
C111 C112 1.408 . S
C111 H138 0.930 . S
C112 C107 1.348 . S
C112 C111 1.408 . S
C112 H139 0.930 . S
C113 O126 1.281 . S
C113 O127 1.254 . S
C114 O128 1.236 . S
C114 O129 1.266 . S
C115 Tb105 2.809 . S
C115 C116 1.514 . S
C115 O130 1.248 . S
C115 O131 1.266 . S
C116 C115 1.514 . S
C116 C117 1.359 . S
C116 C121 1.348 . S
C117 C116 1.359 . S
C117 C118 1.380 . S
C117 H140 0.929 . S
C118 C117 1.380 . S
C118 C119 1.347 . S
C118 H141 0.931 . S
C119 C118 1.347 . S
C119 C120 1.369 . S
C120 C119 1.369 . S
C120 C121 1.408 . S
C120 H142 0.930 . S
C121 C116 1.348 . S
C121 C120 1.408 . S
C121 H143 0.930 . S
C122 O132 1.281 . S
C122 O133 1.254 . S
C123 O134 1.236 . S
C123 O135 1.266 1_455 S
O124 Tb104 2.484 1_565 S
O124 C106 1.248 . S
O125 Tb104 2.440 1_565 S
O125 C106 1.266 . S
O126 Tb104 2.658 1_455 S
O126 Tb105 2.325 . S
O126 C113 1.281 . S
O127 Tb104 2.409 1_455 S
O127 C113 1.254 . S
O128 Tb104 2.378 1_465 S
O128 C114 1.236 . S
O129 Tb105 2.341 1_565 S
O129 C114 1.266 . S
O130 Tb105 2.484 . S
O130 C115 1.248 . S
O131 Tb105 2.440 . S
O131 C115 1.266 . S
O132 Tb104 2.325 1_465 S
O132 Tb105 2.658 1_565 S
O132 C122 1.281 . S
O133 Tb105 2.409 1_565 S
O133 C122 1.254 . S
O134 Tb105 2.378 . S
O134 C123 1.236 . S
O135 Tb104 2.341 . S
O135 C123 1.266 1_655 S
H136 C108 0.929 . S
H137 C109 0.931 . S
H138 C111 0.930 . S
H139 C112 0.930 . S
H140 C117 0.929 . S
H141 C118 0.931 . S
H142 C120 0.930 . S
H143 C121 0.930 . S
Tb144 C146 2.809 . S
Tb144 O164 2.484 . S
Tb144 O165 2.440 . S
Tb144 O166 2.658 1_545 S
Tb144 O167 2.409 1_545 S
Tb144 O168 2.378 . S
Tb144 O172 2.325 . S
Tb144 O175 2.341 . S
Tb145 C155 2.809 1_544 S
Tb145 O166 2.325 1_545 S
Tb145 O169 2.341 . S
Tb145 O170 2.484 1_545 S
Tb145 O171 2.440 1_554 S
Tb145 O172 2.658 . S
Tb145 O173 2.409 . S
Tb145 O174 2.378 . S
C146 Tb144 2.809 . S
C146 C147 1.514 . S
C146 O164 1.248 . S
C146 O165 1.266 . S
C147 C146 1.514 . S
C147 C148 1.359 . S
C147 C152 1.348 . S
C148 C147 1.359 . S
C148 C149 1.380 . S
C148 H176 0.929 . S
C149 C148 1.380 . S
C149 C150 1.347 . S
C149 H177 0.931 . S
C150 C149 1.347 . S
C150 C151 1.369 . S
C151 C150 1.369 . S
C151 C152 1.408 . S
C151 H178 0.930 . S
C152 C147 1.348 . S
C152 C151 1.408 . S
C152 H179 0.930 . S
C153 O166 1.281 . S
C153 O167 1.254 . S
C154 O168 1.236 . S
C154 O169 1.266 . S
C155 Tb145 2.809 1_566 S
C155 C156 1.514 . S
C155 O170 1.248 1_556 S
C155 O171 1.266 1_565 S
C156 C155 1.514 . S
C156 C157 1.359 . S
C156 C161 1.348 . S
C157 C156 1.359 . S
C157 C158 1.380 . S
C157 H180 0.929 . S
C158 C157 1.380 . S
C158 C159 1.347 . S
C158 H181 0.931 . S
C159 C158 1.347 . S
C159 C160 1.369 . S
C160 C159 1.369 . S
C160 C161 1.408 . S
C160 H182 0.930 . S
C161 C156 1.348 . S
C161 C160 1.408 . S
C161 H183 0.930 . S
C162 O172 1.281 . S
C162 O173 1.254 . S
C163 O174 1.236 1_565 S
C163 O175 1.266 1_565 S
O164 Tb144 2.484 . S
O164 C146 1.248 . S
O165 Tb144 2.440 . S
O165 C146 1.266 . S
O166 Tb144 2.658 1_565 S
O166 Tb145 2.325 1_565 S
O166 C153 1.281 . S
O167 Tb144 2.409 1_565 S
O167 C153 1.254 . S
O168 Tb144 2.378 . S
O168 C154 1.236 . S
O169 Tb145 2.341 . S
O169 C154 1.266 . S
O170 Tb145 2.484 1_565 S
O170 C155 1.248 1_554 S
O171 Tb145 2.440 1_556 S
O171 C155 1.266 1_545 S
O172 Tb144 2.325 . S
O172 Tb145 2.658 . S
O172 C162 1.281 . S
O173 Tb145 2.409 . S
O173 C162 1.254 . S
O174 Tb145 2.378 . S
O174 C163 1.236 1_545 S
O175 Tb144 2.341 . S
O175 C163 1.266 1_545 S
H176 C148 0.929 . S
H177 C149 0.931 . S
H178 C151 0.930 . S
H179 C152 0.930 . S
H180 C157 0.929 . S
H181 C158 0.931 . S
H182 C160 0.930 . S
H183 C161 0.930 . S
Tb184 C186 2.809 . S
Tb184 O204 2.484 . S
Tb184 O205 2.440 . S
Tb184 O206 2.658 . S
Tb184 O207 2.409 . S
Tb184 O208 2.378 . S
Tb184 O212 2.325 . S
Tb184 O215 2.341 . S
Tb185 C195 2.809 . S
Tb185 O206 2.325 . S
Tb185 O209 2.341 . S
Tb185 O210 2.484 . S
Tb185 O211 2.440 . S
Tb185 O212 2.658 . S
Tb185 O213 2.409 . S
Tb185 O214 2.378 . S
C186 Tb184 2.809 . S
C186 C187 1.514 . S
C186 O204 1.248 . S
C186 O205 1.266 . S
C187 C186 1.514 . S
C187 C188 1.359 . S
C187 C192 1.348 . S
C188 C187 1.359 . S
C188 C189 1.380 . S
C188 H216 0.929 . S
C189 C188 1.380 . S
C189 C190 1.347 . S
C189 H217 0.931 . S
C190 C189 1.347 . S
C190 C191 1.369 . S
C191 C190 1.369 . S
C191 C192 1.408 . S
C191 H218 0.930 . S
C192 C187 1.348 . S
C192 C191 1.408 . S
C192 H219 0.930 . S
C193 O206 1.281 . S
C193 O207 1.254 . S
C194 O208 1.236 . S
C194 O209 1.266 . S
C195 Tb185 2.809 . S
C195 C196 1.514 . S
C195 O210 1.248 . S
C195 O211 1.266 . S
C196 C195 1.514 . S
C196 C197 1.359 . S
C196 C201 1.348 . S
C197 C196 1.359 . S
C197 C198 1.380 . S
C197 H220 0.929 . S
C198 C197 1.380 . S
C198 C199 1.347 . S
C198 H221 0.931 . S
C199 C198 1.347 . S
C199 C200 1.369 . S
C200 C199 1.369 . S
C200 C201 1.408 . S
C200 H222 0.930 . S
C201 C196 1.348 . S
C201 C200 1.408 . S
C201 H223 0.930 . S
C202 O212 1.281 . S
C202 O213 1.254 . S
C203 O214 1.236 . S
C203 O215 1.266 . S
O204 Tb184 2.484 . S
O204 C186 1.248 . S
O205 Tb184 2.440 . S
O205 C186 1.266 . S
O206 Tb184 2.658 . S
O206 Tb185 2.325 . S
O206 C193 1.281 . S
O207 Tb184 2.409 . S
O207 C193 1.254 . S
O208 Tb184 2.378 . S
O208 C194 1.236 . S
O209 Tb185 2.341 . S
O209 C194 1.266 . S
O210 Tb185 2.484 . S
O210 C195 1.248 . S
O211 Tb185 2.440 . S
O211 C195 1.266 . S
O212 Tb184 2.325 . S
O212 Tb185 2.658 . S
O212 C202 1.281 . S
O213 Tb185 2.409 . S
O213 C202 1.254 . S
O214 Tb185 2.378 . S
O214 C203 1.236 . S
O215 Tb184 2.341 . S
O215 C203 1.266 . S
H216 C188 0.929 . S
H217 C189 0.931 . S
H218 C191 0.930 . S
H219 C192 0.930 . S
H220 C197 0.929 . S
H221 C198 0.931 . S
H222 C200 0.930 . S
H223 C201 0.930 . S
Tb224 C226 2.834 . S
Tb224 O244 2.516 . S
Tb224 O245 2.454 . S
Tb224 O246 2.639 1_656 S
Tb224 O247 2.388 1_656 S
Tb224 O248 2.393 1_556 S
Tb224 O252 2.337 . S
Tb224 O255 2.318 1_655 S
Tb225 C235 2.809 . S
Tb225 O246 2.325 . S
Tb225 O249 2.341 1_455 S
Tb225 O250 2.484 . S
Tb225 O251 2.440 . S
Tb225 O252 2.658 1_454 S
Tb225 O253 2.409 1_455 S
Tb225 O254 2.378 1_554 S
C226 Tb224 2.834 . S
C226 C227 1.514 . S
C226 O244 1.248 . S
C226 O245 1.266 . S
C227 C226 1.514 . S
C227 C228 1.359 . S
C227 C232 1.348 . S
C228 C227 1.359 . S
C228 C229 1.380 . S
C228 H256 0.929 . S
C229 C228 1.380 . S
C229 C230 1.347 . S
C229 H257 0.931 . S
C230 C229 1.347 . S
C230 C231 1.369 . S
C231 C230 1.369 . S
C231 C232 1.408 . S
C231 H258 0.930 . S
C232 C227 1.348 . S
C232 C231 1.408 . S
C232 H259 0.930 . S
C233 O246 1.281 . S
C233 O247 1.254 . S
C234 O248 1.236 . S
C234 O249 1.266 . S
C235 Tb225 2.809 . S
C235 C236 1.514 . S
C235 O250 1.248 . S
C235 O251 1.266 . S
C236 C235 1.514 . S
C236 C237 1.359 . S
C236 C241 1.348 . S
C237 C236 1.359 . S
C237 C238 1.380 . S
C237 H260 0.929 . S
C238 C237 1.380 . S
C238 C239 1.347 . S
C238 H261 0.931 . S
C239 C238 1.347 . S
C239 C240 1.369 . S
C240 C239 1.369 . S
C240 C241 1.408 . S
C240 H262 0.930 . S
C241 C236 1.348 . S
C241 C240 1.408 . S
C241 H263 0.930 . S
C242 O252 1.281 . S
C242 O253 1.254 1_556 S
C243 O254 1.236 . S
C243 O255 1.266 . S
O244 Tb224 2.516 . S
O244 C226 1.248 . S
O245 Tb224 2.454 . S
O245 C226 1.266 . S
O246 Tb224 2.639 1_454 S
O246 Tb225 2.325 . S
O246 C233 1.281 . S
O247 Tb224 2.388 1_454 S
O247 C233 1.254 . S
O248 Tb224 2.393 1_554 S
O248 C234 1.236 . S
O249 Tb225 2.341 1_655 S
O249 C234 1.266 . S
O250 Tb225 2.484 . S
O250 C235 1.248 . S
O251 Tb225 2.440 . S
O251 C235 1.266 . S
O252 Tb224 2.337 . S
O252 Tb225 2.658 1_656 S
O252 C242 1.281 . S
O253 Tb225 2.409 1_655 S
O253 C242 1.254 1_554 S
O254 Tb225 2.378 1_556 S
O254 C243 1.236 . S
O255 Tb224 2.318 1_455 S
O255 C243 1.266 . S
H256 C228 0.929 . S
H257 C229 0.931 . S
H258 C231 0.930 . S
H259 C232 0.930 . S
H260 C237 0.929 . S
H261 C238 0.931 . S
H262 C240 0.930 . S
H263 C241 0.930 . S
H264 C272 0.929 . S
H265 C274 0.930 . S
H266 C276 0.930 . S
H267 C279 0.929 . S
H268 C282 0.930 . S
H269 C284 0.960 . S
H270 C284 0.960 . S
H271 C284 0.960 . S
C272 H264 0.929 . S
C272 C273 1.377 . S
C272 C274 1.384 . S
C273 C272 1.377 . S
C273 C279 1.390 . S
C274 H265 0.930 . S
C274 C272 1.384 . S
C274 C275 1.372 . S
C275 C274 1.372 . S
C275 C276 1.400 . S
C275 C280 1.490 . S
C276 H266 0.930 . S
C276 C275 1.400 . S
C276 C279 1.386 . S
H277 C293 0.930 . S
H278 C294 0.931 . S
C279 H267 0.929 . S
C279 C273 1.390 . S
C279 C276 1.386 . S
C280 C275 1.490 . S
C280 C282 1.395 . S
C280 C283 1.403 . S
H281 C287 0.930 . S
C282 H268 0.930 . S
C282 C280 1.395 . S
C282 C285 1.403 . S
C283 C280 1.403 . S
C283 C284 1.524 . S
C283 C287 1.400 . S
C284 H269 0.960 . S
C284 H270 0.960 . S
C284 H271 0.960 . S
C284 C283 1.524 . S
C285 C282 1.403 . S
C285 C286 1.392 . S
C285 C289 1.495 . S
C286 C285 1.392 . S
C286 C287 1.385 . S
C286 C288 1.478 . S
C287 H281 0.930 . S
C287 C283 1.400 . S
C287 C286 1.385 . S
C288 C286 1.478 . S
C288 C290 1.381 . S
C288 C294 1.383 . S
C289 C285 1.495 . S
C289 H295 0.959 . S
C289 H296 0.961 . S
C289 H297 0.960 . S
C290 C288 1.381 . S
C290 C291 1.394 . S
C290 H298 0.930 . S
C291 C290 1.394 . S
C291 C292 1.383 . S
C291 H299 0.929 . S
C292 C291 1.383 . S
C292 C293 1.377 . S
C293 H277 0.930 . S
C293 C292 1.377 . S
C293 C294 1.379 . S
C294 H278 0.931 . S
C294 C288 1.383 . S
C294 C293 1.379 . S
H295 C289 0.959 . S
H296 C289 0.961 . S
H297 C289 0.960 . S
H298 C290 0.930 . S
H299 C291 0.929 . S
H300 C308 0.929 . S
H301 C310 0.930 . S
H302 C312 0.930 . S
H303 C315 0.929 . S
H304 C318 0.930 . S
H305 C320 0.960 . S
H306 C320 0.960 . S
H307 C320 0.960 . S
C308 H300 0.929 . S
C308 C309 1.377 . S
C308 C310 1.384 . S
C309 C308 1.377 . S
C309 C315 1.390 . S
C310 H301 0.930 . S
C310 C308 1.384 . S
C310 C311 1.372 . S
C311 C310 1.372 . S
C311 C312 1.400 . S
C311 C316 1.490 . S
C312 H302 0.930 . S
C312 C311 1.400 . S
C312 C315 1.386 . S
H313 C329 0.930 . S
H314 C330 0.931 . S
C315 H303 0.929 . S
C315 C309 1.390 . S
C315 C312 1.386 . S
C316 C311 1.490 . S
C316 C318 1.395 . S
C316 C319 1.403 . S
H317 C323 0.930 . S
C318 H304 0.930 . S
C318 C316 1.395 . S
C318 C321 1.403 . S
C319 C316 1.403 . S
C319 C320 1.524 . S
C319 C323 1.400 . S
C320 H305 0.960 . S
C320 H306 0.960 . S
C320 H307 0.960 . S
C320 C319 1.524 . S
C321 C318 1.403 . S
C321 C322 1.392 . S
C321 C325 1.495 . S
C322 C321 1.392 . S
C322 C323 1.385 . S
C322 C324 1.478 . S
C323 H317 0.930 . S
C323 C319 1.400 . S
C323 C322 1.385 . S
C324 C322 1.478 . S
C324 C326 1.381 . S
C324 C330 1.383 . S
C325 C321 1.495 . S
C325 H331 0.959 . S
C325 H332 0.961 . S
C325 H333 0.960 . S
C326 C324 1.381 . S
C326 C327 1.394 . S
C326 H334 0.930 . S
C327 C326 1.394 . S
C327 C328 1.383 . S
C327 H335 0.929 . S
C328 C327 1.383 . S
C328 C329 1.377 . S
C329 H313 0.930 . S
C329 C328 1.377 . S
C329 C330 1.379 . S
C330 H314 0.931 . S
C330 C324 1.383 . S
C330 C329 1.379 . S
H331 C325 0.959 . S
H332 C325 0.961 . S
H333 C325 0.960 . S
H334 C326 0.930 . S
H335 C327 0.929 . S
H336 C344 0.929 . S
H337 C346 0.930 . S
H338 C348 0.930 . S
H339 C351 0.929 . S
H340 C354 0.930 . S
H341 C356 0.960 . S
H342 C356 0.960 . S
H343 C356 0.960 . S
C344 H336 0.929 . S
C344 C345 1.377 . S
C344 C346 1.384 . S
C345 C344 1.377 . S
C345 C351 1.390 . S
C346 H337 0.930 . S
C346 C344 1.384 . S
C346 C347 1.372 . S
C347 C346 1.372 . S
C347 C348 1.400 . S
C347 C352 1.490 . S
C348 H338 0.930 . S
C348 C347 1.400 . S
C348 C351 1.386 . S
H349 C365 0.930 . S
H350 C366 0.931 . S
C351 H339 0.929 . S
C351 C345 1.390 . S
C351 C348 1.386 . S
C352 C347 1.490 . S
C352 C354 1.395 . S
C352 C355 1.403 . S
H353 C359 0.930 . S
C354 H340 0.930 . S
C354 C352 1.395 . S
C354 C357 1.403 . S
C355 C352 1.403 . S
C355 C356 1.524 . S
C355 C359 1.400 . S
C356 H341 0.960 . S
C356 H342 0.960 . S
C356 H343 0.960 . S
C356 C355 1.524 . S
C357 C354 1.403 . S
C357 C358 1.392 . S
C357 C361 1.495 . S
C358 C357 1.392 . S
C358 C359 1.385 . S
C358 C360 1.478 . S
C359 H353 0.930 . S
C359 C355 1.400 . S
C359 C358 1.385 . S
C360 C358 1.478 . S
C360 C362 1.381 . S
C360 C366 1.383 . S
C361 C357 1.495 . S
C361 H367 0.959 . S
C361 H368 0.961 . S
C361 H369 0.960 . S
C362 C360 1.381 . S
C362 C363 1.394 . S
C362 H370 0.930 . S
C363 C362 1.394 . S
C363 C364 1.383 . S
C363 H371 0.929 . S
C364 C363 1.383 . S
C364 C365 1.377 . S
C365 H349 0.930 . S
C365 C364 1.377 . S
C365 C366 1.379 . S
C366 H350 0.931 . S
C366 C360 1.383 . S
C366 C365 1.379 . S
H367 C361 0.959 . S
H368 C361 0.961 . S
H369 C361 0.960 . S
H370 C362 0.930 . S
H371 C363 0.929 . S
H372 C380 0.929 . S
H373 C382 0.930 . S
H374 C384 0.930 . S
H375 C387 0.929 . S
H376 C390 0.930 . S
H377 C392 0.960 . S
H378 C392 0.960 . S
H379 C392 0.960 . S
C380 H372 0.929 . S
C380 C381 1.377 . S
C380 C382 1.384 . S
C381 C380 1.377 . S
C381 C387 1.390 . S
C382 H373 0.930 . S
C382 C380 1.384 . S
C382 C383 1.372 . S
C383 C382 1.372 . S
C383 C384 1.400 . S
C383 C388 1.490 . S
C384 H374 0.930 . S
C384 C383 1.400 . S
C384 C387 1.386 . S
H385 C401 0.930 . S
H386 C402 0.931 . S
C387 H375 0.929 . S
C387 C381 1.390 . S
C387 C384 1.386 . S
C388 C383 1.490 . S
C388 C390 1.395 . S
C388 C391 1.403 . S
H389 C395 0.930 . S
C390 H376 0.930 . S
C390 C388 1.395 . S
C390 C393 1.403 . S
C391 C388 1.403 . S
C391 C392 1.524 . S
C391 C395 1.400 . S
C392 H377 0.960 . S
C392 H378 0.960 . S
C392 H379 0.960 . S
C392 C391 1.524 . S
C393 C390 1.403 . S
C393 C394 1.392 . S
C393 C397 1.495 . S
C394 C393 1.392 . S
C394 C395 1.385 . S
C394 C396 1.478 . S
C395 H389 0.930 . S
C395 C391 1.400 . S
C395 C394 1.385 . S
C396 C394 1.478 . S
C396 C398 1.381 . S
C396 C402 1.383 . S
C397 C393 1.495 . S
C397 H403 0.959 . S
C397 H404 0.961 . S
C397 H405 0.960 . S
C398 C396 1.381 . S
C398 C399 1.394 . S
C398 H406 0.930 . S
C399 C398 1.394 . S
C399 C400 1.383 . S
C399 H407 0.929 . S
C400 C399 1.383 . S
C400 C401 1.377 . S
C401 H385 0.930 . S
C401 C400 1.377 . S
C401 C402 1.379 . S
C402 H386 0.931 . S
C402 C396 1.383 . S
C402 C401 1.379 . S
H403 C397 0.959 . S
H404 C397 0.961 . S
H405 C397 0.960 . S
H406 C398 0.930 . S
H407 C399 0.929 . S
H408 C416 0.929 . S
H409 C418 0.930 . S
H410 C420 0.930 . S
H411 C423 0.929 . S
H412 C426 0.930 . S
H413 C428 0.960 . S
H414 C428 0.960 . S
H415 C428 0.960 . S
C416 H408 0.929 . S
C416 C417 1.377 . S
C416 C418 1.384 . S
C417 C416 1.377 . S
C417 C423 1.390 . S
C418 H409 0.930 . S
C418 C416 1.384 . S
C418 C419 1.372 . S
C419 C418 1.372 . S
C419 C420 1.400 . S
C419 C424 1.490 . S
C420 H410 0.930 . S
C420 C419 1.400 . S
C420 C423 1.386 . S
H421 C437 0.930 . S
H422 C438 0.931 . S
C423 H411 0.929 . S
C423 C417 1.390 . S
C423 C420 1.386 . S
C424 C419 1.490 . S
C424 C426 1.395 . S
C424 C427 1.403 . S
H425 C431 0.930 . S
C426 H412 0.930 . S
C426 C424 1.395 . S
C426 C429 1.403 . S
C427 C424 1.403 . S
C427 C428 1.524 . S
C427 C431 1.400 . S
C428 H413 0.960 . S
C428 H414 0.960 . S
C428 H415 0.960 . S
C428 C427 1.524 . S
C429 C426 1.403 . S
C429 C430 1.392 . S
C429 C433 1.495 . S
C430 C429 1.392 . S
C430 C431 1.385 . S
C430 C432 1.478 . S
C431 H425 0.930 . S
C431 C427 1.400 . S
C431 C430 1.385 . S
C432 C430 1.478 . S
C432 C434 1.381 . S
C432 C438 1.383 . S
C433 C429 1.495 . S
C433 H439 0.959 . S
C433 H440 0.961 . S
C433 H441 0.960 . S
C434 C432 1.381 . S
C434 C435 1.394 . S
C434 H442 0.930 . S
C435 C434 1.394 . S
C435 C436 1.383 . S
C435 H443 0.929 . S
C436 C435 1.383 . S
C436 C437 1.377 . S
C437 H421 0.930 . S
C437 C436 1.377 . S
C437 C438 1.379 . S
C438 H422 0.931 . S
C438 C432 1.383 . S
C438 C437 1.379 . S
H439 C433 0.959 . S
H440 C433 0.961 . S
H441 C433 0.960 . S
H442 C434 0.930 . S
H443 C435 0.929 . S
H444 C452 0.929 . S
H445 C454 0.930 . S
H446 C456 0.930 . S
H447 C459 0.929 . S
H448 C462 0.930 . S
H449 C464 0.960 . S
H450 C464 0.960 . S
H451 C464 0.960 . S
C452 H444 0.929 . S
C452 C453 1.377 . S
C452 C454 1.384 . S
C453 C452 1.377 . S
C453 C459 1.390 . S
C454 H445 0.930 . S
C454 C452 1.384 . S
C454 C455 1.372 . S
C455 C454 1.372 . S
C455 C456 1.400 . S
C455 C460 1.490 . S
C456 H446 0.930 . S
C456 C455 1.400 . S
C456 C459 1.386 . S
H457 C473 0.930 . S
H458 C474 0.931 . S
C459 H447 0.929 . S
C459 C453 1.390 . S
C459 C456 1.386 . S
C460 C455 1.490 . S
C460 C462 1.395 . S
C460 C463 1.403 . S
H461 C467 0.930 . S
C462 H448 0.930 . S
C462 C460 1.395 . S
C462 C465 1.403 . S
C463 C460 1.403 . S
C463 C464 1.524 . S
C463 C467 1.400 . S
C464 H449 0.960 . S
C464 H450 0.960 . S
C464 H451 0.960 . S
C464 C463 1.524 . S
C465 C462 1.403 . S
C465 C466 1.392 . S
C465 C469 1.495 . S
C466 C465 1.392 . S
C466 C467 1.385 . S
C466 C468 1.478 . S
C467 H461 0.930 . S
C467 C463 1.400 . S
C467 C466 1.385 . S
C468 C466 1.478 . S
C468 C470 1.381 . S
C468 C474 1.383 . S
C469 C465 1.495 . S
C469 H475 0.959 . S
C469 H476 0.961 . S
C469 H477 0.960 . S
C470 C468 1.381 . S
C470 C471 1.394 . S
C470 H478 0.930 . S
C471 C470 1.394 . S
C471 C472 1.383 . S
C471 H479 0.929 . S
C472 C471 1.383 . S
C472 C473 1.377 . S
C473 H457 0.930 . S
C473 C472 1.377 . S
C473 C474 1.379 . S
C474 H458 0.931 . S
C474 C468 1.383 . S
C474 C473 1.379 . S
H475 C469 0.959 . S
H476 C469 0.961 . S
H477 C469 0.960 . S
H478 C470 0.930 . S
H479 C471 0.929 . S
H480 C488 0.929 . S
H481 C490 0.930 . S
H482 C492 0.930 . S
H483 C495 0.929 . S
H484 C498 0.930 . S
H485 C500 0.960 . S
H486 C500 0.960 . S
H487 C500 0.960 . S
C488 H480 0.929 . S
C488 C489 1.377 . S
C488 C490 1.384 . S
C489 C488 1.377 . S
C489 C495 1.390 . S
C490 H481 0.930 . S
C490 C488 1.384 . S
C490 C491 1.372 . S
C491 C490 1.372 . S
C491 C492 1.400 . S
C491 C496 1.490 . S
C492 H482 0.930 . S
C492 C491 1.400 . S
C492 C495 1.386 . S
H493 C509 0.930 . S
H494 C510 0.931 . S
C495 H483 0.929 . S
C495 C489 1.390 . S
C495 C492 1.386 . S
C496 C491 1.490 . S
C496 C498 1.395 . S
C496 C499 1.403 . S
H497 C503 0.930 . S
C498 H484 0.930 . S
C498 C496 1.395 . S
C498 C501 1.403 . S
C499 C496 1.403 . S
C499 C500 1.524 . S
C499 C503 1.400 . S
C500 H485 0.960 . S
C500 H486 0.960 . S
C500 H487 0.960 . S
C500 C499 1.524 . S
C501 C498 1.403 . S
C501 C502 1.392 . S
C501 C505 1.495 . S
C502 C501 1.392 . S
C502 C503 1.385 . S
C502 C504 1.478 . S
C503 H497 0.930 . S
C503 C499 1.400 . S
C503 C502 1.385 . S
C504 C502 1.478 . S
C504 C506 1.381 . S
C504 C510 1.383 . S
C505 C501 1.495 . S
C505 H511 0.959 . S
C505 H512 0.961 . S
C505 H513 0.960 . S
C506 C504 1.381 . S
C506 C507 1.394 . S
C506 H514 0.930 . S
C507 C506 1.394 . S
C507 C508 1.383 . S
C507 H515 0.929 . S
C508 C507 1.383 . S
C508 C509 1.377 . S
C509 H493 0.930 . S
C509 C508 1.377 . S
C509 C510 1.379 . S
C510 H494 0.931 . S
C510 C504 1.383 . S
C510 C509 1.379 . S
H511 C505 0.959 . S
H512 C505 0.961 . S
H513 C505 0.960 . S
H514 C506 0.930 . S
H515 C507 0.929 . S
H516 C524 0.929 . S
H517 C526 0.930 . S
H518 C528 0.930 . S
H519 C531 0.929 . S
H520 C534 0.930 . S
H521 C536 0.960 . S
H522 C536 0.960 . S
H523 C536 0.960 . S
C524 H516 0.929 . S
C524 C525 1.377 . S
C524 C526 1.384 . S
C525 C524 1.377 . S
C525 C531 1.390 . S
C526 H517 0.930 . S
C526 C524 1.384 . S
C526 C527 1.372 . S
C527 C526 1.372 . S
C527 C528 1.400 . S
C527 C532 1.490 . S
C528 H518 0.930 . S
C528 C527 1.400 . S
C528 C531 1.386 . S
H529 C545 0.930 . S
H530 C546 0.931 . S
C531 H519 0.929 . S
C531 C525 1.390 . S
C531 C528 1.386 . S
C532 C527 1.490 . S
C532 C534 1.395 . S
C532 C535 1.403 . S
H533 C539 0.930 . S
C534 H520 0.930 . S
C534 C532 1.395 . S
C534 C537 1.403 . S
C535 C532 1.403 . S
C535 C536 1.524 . S
C535 C539 1.400 . S
C536 H521 0.960 . S
C536 H522 0.960 . S
C536 H523 0.960 . S
C536 C535 1.524 . S
C537 C534 1.403 . S
C537 C538 1.392 . S
C537 C541 1.495 . S
C538 C537 1.392 . S
C538 C539 1.385 . S
C538 C540 1.478 . S
C539 H533 0.930 . S
C539 C535 1.400 . S
C539 C538 1.385 . S
C540 C538 1.478 . S
C540 C542 1.381 . S
C540 C546 1.383 . S
C541 C537 1.495 . S
C541 H547 0.959 . S
C541 H548 0.961 . S
C541 H549 0.960 . S
C542 C540 1.381 . S
C542 C543 1.394 . S
C542 H550 0.930 . S
C543 C542 1.394 . S
C543 C544 1.383 . S
C543 H551 0.929 . S
C544 C543 1.383 . S
C544 C545 1.377 . S
C545 H529 0.930 . S
C545 C544 1.377 . S
C545 C546 1.379 . S
C546 H530 0.931 . S
C546 C540 1.383 . S
C546 C545 1.379 . S
H547 C541 0.959 . S
H548 C541 0.961 . S
H549 C541 0.960 . S
H550 C542 0.930 . S
H551 C543 0.929 . S
H552 C560 0.929 . S
H553 C562 0.930 . S
H554 C564 0.930 . S
H555 C567 0.929 . S
H556 C570 0.930 . S
H557 C572 0.960 . S
H558 C572 0.960 . S
H559 C572 0.960 . S
C560 H552 0.929 . S
C560 C561 1.377 . S
C560 C562 1.384 . S
C561 C560 1.377 . S
C561 C567 1.390 . S
C562 H553 0.930 . S
C562 C560 1.384 . S
C562 C563 1.372 . S
C563 C562 1.372 . S
C563 C564 1.400 . S
C563 C568 1.490 . S
C564 H554 0.930 . S
C564 C563 1.400 . S
C564 C567 1.386 . S
H565 C581 0.930 . S
H566 C582 0.931 . S
C567 H555 0.929 . S
C567 C561 1.390 . S
C567 C564 1.386 . S
C568 C563 1.490 . S
C568 C570 1.395 . S
C568 C571 1.403 . S
H569 C575 0.930 . S
C570 H556 0.930 . S
C570 C568 1.395 . S
C570 C573 1.403 . S
C571 C568 1.403 . S
C571 C572 1.524 . S
C571 C575 1.400 . S
C572 H557 0.960 . S
C572 H558 0.960 . S
C572 H559 0.960 . S
C572 C571 1.524 . S
C573 C570 1.403 . S
C573 C574 1.392 . S
C573 C577 1.495 . S
C574 C573 1.392 . S
C574 C575 1.385 . S
C574 C576 1.478 . S
C575 H569 0.930 . S
C575 C571 1.400 . S
C575 C574 1.385 . S
C576 C574 1.478 . S
C576 C578 1.381 . S
C576 C582 1.383 . S
C577 C573 1.495 . S
C577 H583 0.959 . S
C577 H584 0.961 . S
C577 H585 0.960 . S
C578 C576 1.381 . S
C578 C579 1.394 . S
C578 H586 0.930 . S
C579 C578 1.394 . S
C579 C580 1.383 . S
C579 H587 0.929 . S
C580 C579 1.383 . S
C580 C581 1.377 . S
C581 H565 0.930 . S
C581 C580 1.377 . S
C581 C582 1.379 . S
C582 H566 0.931 . S
C582 C576 1.383 . S
C582 C581 1.379 . S
H583 C577 0.959 . S
H584 C577 0.961 . S
H585 C577 0.960 . S
H586 C578 0.930 . S
H587 C579 0.929 . S
H588 C596 0.929 . S
H589 C598 0.930 . S
H590 C600 0.930 . S
H591 C603 0.929 . S
H592 C606 0.930 . S
H593 C608 0.960 . S
H594 C608 0.960 . S
H595 C608 0.960 . S
C596 H588 0.929 . S
C596 C597 1.377 . S
C596 C598 1.384 . S
C597 C596 1.377 . S
C597 C603 1.390 . S
C598 H589 0.930 . S
C598 C596 1.384 . S
C598 C599 1.372 . S
C599 C598 1.372 . S
C599 C600 1.400 . S
C599 C604 1.490 . S
C600 H590 0.930 . S
C600 C599 1.400 . S
C600 C603 1.386 . S
H601 C617 0.930 . S
H602 C618 0.931 . S
C603 H591 0.929 . S
C603 C597 1.390 . S
C603 C600 1.386 . S
C604 C599 1.490 . S
C604 C606 1.395 . S
C604 C607 1.403 . S
H605 C611 0.930 . S
C606 H592 0.930 . S
C606 C604 1.395 . S
C606 C609 1.403 . S
C607 C604 1.403 . S
C607 C608 1.524 . S
C607 C611 1.400 . S
C608 H593 0.960 . S
C608 H594 0.960 . S
C608 H595 0.960 . S
C608 C607 1.524 . S
C609 C606 1.403 . S
C609 C610 1.392 . S
C609 C613 1.495 . S
C610 C609 1.392 . S
C610 C611 1.385 . S
C610 C612 1.478 . S
C611 H605 0.930 . S
C611 C607 1.400 . S
C611 C610 1.385 . S
C612 C610 1.478 . S
C612 C614 1.381 . S
C612 C618 1.383 . S
C613 C609 1.495 . S
C613 H619 0.959 . S
C613 H620 0.961 . S
C613 H621 0.960 . S
C614 C612 1.381 . S
C614 C615 1.387 1_556 S
C614 H622 0.930 . S
C615 C614 1.387 1_554 S
C615 C616 1.381 1_554 S
C615 H623 0.938 . S
C616 C615 1.381 1_556 S
C616 C617 1.377 . S
C617 H601 0.930 . S
C617 C616 1.377 . S
C617 C618 1.379 . S
C618 H602 0.931 . S
C618 C612 1.383 . S
C618 C617 1.379 . S
H619 C613 0.959 . S
H620 C613 0.961 . S
H621 C613 0.960 . S
H622 C614 0.930 . S
H623 C615 0.938 . S
H624 C632 0.929 . S
H625 C634 0.930 . S
H626 C636 0.930 . S
H627 C639 0.929 . S
H628 C642 0.930 . S
H629 C644 0.960 . S
H630 C644 0.960 . S
H631 C644 0.960 . S
C632 H624 0.929 . S
C632 C633 1.377 . S
C632 C634 1.384 . S
C633 C632 1.377 . S
C633 C639 1.390 . S
C634 H625 0.930 . S
C634 C632 1.384 . S
C634 C635 1.372 . S
C635 C634 1.372 . S
C635 C636 1.400 . S
C635 C640 1.490 . S
C636 H626 0.930 . S
C636 C635 1.400 . S
C636 C639 1.386 . S
H637 C653 0.930 . S
H638 C654 0.931 . S
C639 H627 0.929 . S
C639 C633 1.390 . S
C639 C636 1.386 . S
C640 C635 1.490 . S
C640 C642 1.395 . S
C640 C643 1.403 . S
H641 C647 0.930 . S
C642 H628 0.930 . S
C642 C640 1.395 . S
C642 C645 1.403 . S
C643 C640 1.403 . S
C643 C644 1.524 . S
C643 C647 1.400 . S
C644 H629 0.960 . S
C644 H630 0.960 . S
C644 H631 0.960 . S
C644 C643 1.524 . S
C645 C642 1.403 . S
C645 C646 1.392 . S
C645 C649 1.495 . S
C646 C645 1.392 . S
C646 C647 1.385 . S
C646 C648 1.478 . S
C647 H641 0.930 . S
C647 C643 1.400 . S
C647 C646 1.385 . S
C648 C646 1.478 . S
C648 C650 1.381 . S
C648 C654 1.383 . S
C649 C645 1.495 . S
C649 H655 0.959 . S
C649 H656 0.961 . S
C649 H657 0.960 . S
C650 C648 1.381 . S
C650 C651 1.394 . S
C650 H658 0.930 . S
C651 C650 1.394 . S
C651 C652 1.383 . S
C651 H659 0.929 1_655 S
C652 C651 1.383 . S
C652 C653 1.377 . S
C653 H637 0.930 . S
C653 C652 1.377 . S
C653 C654 1.379 . S
C654 H638 0.931 . S
C654 C648 1.383 . S
C654 C653 1.379 . S
H655 C649 0.959 . S
H656 C649 0.961 . S
H657 C649 0.960 . S
H658 C650 0.930 . S
H659 C651 0.929 1_455 S
H660 C668 0.929 . S
H661 C670 0.930 . S
H662 C672 0.930 . S
H663 C675 0.929 . S
H664 C678 0.930 . S
H665 C680 0.960 . S
H666 C680 0.960 . S
H667 C680 0.960 . S
C668 H660 0.929 . S
C668 C669 1.377 . S
C668 C670 1.384 . S
C669 C668 1.377 . S
C669 C675 1.390 . S
C670 H661 0.930 . S
C670 C668 1.384 . S
C670 C671 1.372 . S
C671 C670 1.372 . S
C671 C672 1.400 . S
C671 C676 1.490 . S
C672 H662 0.930 . S
C672 C671 1.400 . S
C672 C675 1.386 . S
H673 C689 0.930 . S
H674 C690 0.931 . S
C675 H663 0.929 . S
C675 C669 1.390 . S
C675 C672 1.386 . S
C676 C671 1.490 . S
C676 C678 1.395 . S
C676 C679 1.403 . S
H677 C683 0.930 . S
C678 H664 0.930 . S
C678 C676 1.395 . S
C678 C681 1.403 . S
C679 C676 1.403 . S
C679 C680 1.524 . S
C679 C683 1.400 . S
C680 H665 0.960 . S
C680 H666 0.960 . S
C680 H667 0.960 . S
C680 C679 1.524 . S
C681 C678 1.403 . S
C681 C682 1.392 . S
C681 C685 1.495 . S
C682 C681 1.392 . S
C682 C683 1.385 . S
C682 C684 1.478 . S
C683 H677 0.930 . S
C683 C679 1.400 . S
C683 C682 1.385 . S
C684 C682 1.478 . S
C684 C686 1.381 . S
C684 C690 1.383 . S
C685 C681 1.495 . S
C685 H691 0.959 . S
C685 H692 0.961 . S
C685 H693 0.960 . S
C686 C684 1.381 . S
C686 C687 1.394 . S
C686 H694 0.930 . S
C687 C686 1.394 . S
C687 C688 1.383 . S
C687 H695 0.929 . S
C688 C687 1.383 . S
C688 C689 1.377 . S
C689 H673 0.930 . S
C689 C688 1.377 . S
C689 C690 1.379 . S
C690 H674 0.931 . S
C690 C684 1.383 . S
C690 C689 1.379 . S
H691 C685 0.959 . S
H692 C685 0.961 . S
H693 C685 0.960 . S
H694 C686 0.930 . S
H695 C687 0.929 . S
H696 C704 0.929 . S
H697 C706 0.930 . S
H698 C708 0.930 . S
H699 C711 0.929 . S
H700 C714 0.930 . S
H701 C716 0.960 . S
H702 C716 0.960 . S
H703 C716 0.960 . S
C704 H696 0.929 . S
C704 C705 1.377 . S
C704 C706 1.384 . S
C705 C704 1.377 . S
C705 C711 1.390 . S
C706 H697 0.930 . S
C706 C704 1.384 . S
C706 C707 1.372 . S
C707 C706 1.372 . S
C707 C708 1.400 . S
C707 C712 1.490 . S
C708 H698 0.930 . S
C708 C707 1.400 . S
C708 C711 1.386 . S
H709 C725 0.930 . S
H710 C726 0.931 . S
C711 H699 0.929 . S
C711 C705 1.390 . S
C711 C708 1.386 . S
C712 C707 1.490 . S
C712 C714 1.395 . S
C712 C715 1.403 . S
H713 C719 0.930 . S
C714 H700 0.930 . S
C714 C712 1.395 . S
C714 C717 1.403 . S
C715 C712 1.403 . S
C715 C716 1.524 . S
C715 C719 1.400 . S
C716 H701 0.960 . S
C716 H702 0.960 . S
C716 H703 0.960 . S
C716 C715 1.524 . S
C717 C714 1.403 . S
C717 C718 1.392 . S
C717 C721 1.495 . S
C718 C717 1.392 . S
C718 C719 1.385 . S
C718 C720 1.478 . S
C719 H713 0.930 . S
C719 C715 1.400 . S
C719 C718 1.385 . S
C720 C718 1.478 . S
C720 C722 1.381 . S
C720 C726 1.383 . S
C721 C717 1.495 . S
C721 H727 0.959 . S
C721 H728 0.961 . S
C721 H729 0.960 . S
C722 C720 1.381 . S
C722 C723 1.394 . S
C722 H730 0.930 . S
C723 C722 1.394 . S
C723 C724 1.383 . S
C723 H731 0.929 . S
C724 C723 1.383 . S
C724 C725 1.377 . S
C725 H709 0.930 . S
C725 C724 1.377 . S
C725 C726 1.379 . S
C726 H710 0.931 . S
C726 C720 1.383 . S
C726 C725 1.379 . S
H727 C721 0.959 . S
H728 C721 0.961 . S
H729 C721 0.960 . S
H730 C722 0.930 . S
H731 C723 0.929 . S
H732 C740 0.929 . S
H733 C742 0.930 . S
H734 C744 0.930 . S
H735 C747 0.929 . S
H736 C750 0.930 . S
H737 C752 0.960 . S
H738 C752 0.960 . S
H739 C752 0.960 . S
C740 H732 0.929 . S
C740 C741 1.377 . S
C740 C742 1.384 . S
C741 C740 1.377 . S
C741 C747 1.390 . S
C742 H733 0.930 . S
C742 C740 1.384 . S
C742 C743 1.372 . S
C743 C742 1.372 . S
C743 C744 1.400 . S
C743 C748 1.490 . S
C744 H734 0.930 . S
C744 C743 1.400 . S
C744 C747 1.386 . S
H745 C761 0.930 . S
H746 C762 0.931 . S
C747 H735 0.929 . S
C747 C741 1.390 . S
C747 C744 1.386 . S
C748 C743 1.490 . S
C748 C750 1.395 . S
C748 C751 1.403 . S
H749 C755 0.930 . S
C750 H736 0.930 . S
C750 C748 1.395 . S
C750 C753 1.403 . S
C751 C748 1.403 . S
C751 C752 1.524 . S
C751 C755 1.400 . S
C752 H737 0.960 . S
C752 H738 0.960 . S
C752 H739 0.960 . S
C752 C751 1.524 . S
C753 C750 1.403 . S
C753 C754 1.392 . S
C753 C757 1.495 . S
C754 C753 1.392 . S
C754 C755 1.385 . S
C754 C756 1.478 . S
C755 H749 0.930 . S
C755 C751 1.400 . S
C755 C754 1.385 . S
C756 C754 1.478 . S
C756 C758 1.381 . S
C756 C762 1.383 . S
C757 C753 1.495 . S
C757 H763 0.959 . S
C757 H764 0.961 . S
C757 H765 0.960 . S
C758 C756 1.381 . S
C758 C759 1.394 . S
C758 H766 0.930 . S
C759 C758 1.394 . S
C759 C760 1.383 . S
C759 H767 0.929 . S
C760 C759 1.383 . S
C760 C761 1.377 . S
C761 H745 0.930 . S
C761 C760 1.377 . S
C761 C762 1.379 . S
C762 H746 0.931 . S
C762 C756 1.383 . S
C762 C761 1.379 . S
H763 C757 0.959 . S
H764 C757 0.961 . S
H765 C757 0.960 . S
H766 C758 0.930 . S
H767 C759 0.929 . S
H768 C776 0.929 . S
H769 C778 0.930 . S
H770 C780 0.930 . S
H771 C783 0.929 . S
H772 C786 0.930 . S
H773 C788 0.960 . S
H774 C788 0.960 . S
H775 C788 0.960 . S
C776 H768 0.929 . S
C776 C777 1.377 . S
C776 C778 1.384 . S
C777 C776 1.377 . S
C777 C783 1.390 . S
C778 H769 0.930 . S
C778 C776 1.384 . S
C778 C779 1.372 . S
C779 C778 1.372 . S
C779 C780 1.400 . S
C779 C784 1.490 . S
C780 H770 0.930 . S
C780 C779 1.400 . S
C780 C783 1.386 . S
H781 C797 0.930 . S
H782 C798 0.931 . S
C783 H771 0.929 . S
C783 C777 1.390 . S
C783 C780 1.386 . S
C784 C779 1.490 . S
C784 C786 1.395 . S
C784 C787 1.403 . S
H785 C791 0.930 . S
C786 H772 0.930 . S
C786 C784 1.395 . S
C786 C789 1.403 . S
C787 C784 1.403 . S
C787 C788 1.524 . S
C787 C791 1.400 . S
C788 H773 0.960 . S
C788 H774 0.960 . S
C788 H775 0.960 . S
C788 C787 1.524 . S
C789 C786 1.403 . S
C789 C790 1.392 . S
C789 C793 1.495 . S
C790 C789 1.392 . S
C790 C791 1.385 . S
C790 C792 1.478 . S
C791 H785 0.930 . S
C791 C787 1.400 . S
C791 C790 1.385 . S
C792 C790 1.478 . S
C792 C794 1.381 . S
C792 C798 1.383 . S
C793 C789 1.495 . S
C793 H799 0.959 . S
C793 H800 0.961 . S
C793 H801 0.960 . S
C794 C792 1.381 . S
C794 C795 1.394 . S
C794 H802 0.930 . S
C795 C794 1.394 . S
C795 C796 1.383 . S
C795 H803 0.929 . S
C796 C795 1.383 . S
C796 C797 1.377 . S
C797 H781 0.930 . S
C797 C796 1.377 . S
C797 C798 1.379 . S
C798 H782 0.931 . S
C798 C792 1.383 . S
C798 C797 1.379 . S
H799 C793 0.959 . S
H800 C793 0.961 . S
H801 C793 0.960 . S
H802 C794 0.930 . S
H803 C795 0.929 . S
H804 C812 0.929 . S
H805 C814 0.930 . S
H806 C816 0.930 . S
H807 C819 0.929 . S
H808 C822 0.930 . S
H809 C824 0.960 . S
H810 C824 0.960 . S
H811 C824 0.960 . S
C812 H804 0.929 . S
C812 C813 1.377 . S
C812 C814 1.384 . S
C813 C812 1.377 . S
C813 C819 1.390 . S
C814 H805 0.930 . S
C814 C812 1.384 . S
C814 C815 1.372 . S
C815 C814 1.372 . S
C815 C816 1.400 . S
C815 C820 1.490 . S
C816 H806 0.930 . S
C816 C815 1.400 . S
C816 C819 1.386 . S
H817 C833 0.930 . S
H818 C834 0.931 . S
C819 H807 0.929 . S
C819 C813 1.390 . S
C819 C816 1.386 . S
C820 C815 1.490 . S
C820 C822 1.395 . S
C820 C823 1.403 . S
H821 C827 0.930 . S
C822 H808 0.930 . S
C822 C820 1.395 . S
C822 C825 1.403 . S
C823 C820 1.403 . S
C823 C824 1.524 . S
C823 C827 1.400 . S
C824 H809 0.960 . S
C824 H810 0.960 . S
C824 H811 0.960 . S
C824 C823 1.524 . S
C825 C822 1.403 . S
C825 C826 1.392 . S
C825 C829 1.495 . S
C826 C825 1.392 . S
C826 C827 1.385 . S
C826 C828 1.478 . S
C827 H821 0.930 . S
C827 C823 1.400 . S
C827 C826 1.385 . S
C828 C826 1.478 . S
C828 C830 1.381 . S
C828 C834 1.383 . S
C829 C825 1.495 . S
C829 H835 0.959 . S
C829 H836 0.961 . S
C829 H837 0.960 . S
C830 C828 1.381 . S
C830 C831 1.394 . S
C830 H838 0.930 . S
C831 C830 1.394 . S
C831 C832 1.383 . S
C831 H839 0.929 . S
C832 C831 1.383 . S
C832 C833 1.377 . S
C833 H817 0.930 . S
C833 C832 1.377 . S
C833 C834 1.379 . S
C834 H818 0.931 . S
C834 C828 1.383 . S
C834 C833 1.379 . S
H835 C829 0.959 . S
H836 C829 0.961 . S
H837 C829 0.960 . S
H838 C830 0.930 . S
H839 C831 0.929 . S
H840 C848 0.929 . S
H841 C850 0.930 . S
H842 C852 0.930 . S
H843 C855 0.929 . S
H844 C858 0.930 . S
H845 C860 0.960 . S
H846 C860 0.960 . S
H847 C860 0.960 . S
C848 H840 0.929 . S
C848 C849 1.377 . S
C848 C850 1.384 . S
C849 C848 1.377 . S
C849 C855 1.390 . S
C850 H841 0.930 . S
C850 C848 1.384 . S
C850 C851 1.372 . S
C851 C850 1.372 . S
C851 C852 1.400 . S
C851 C856 1.490 . S
C852 H842 0.930 . S
C852 C851 1.400 . S
C852 C855 1.386 . S
H853 C869 0.930 . S
H854 C870 0.931 . S
C855 H843 0.929 . S
C855 C849 1.390 . S
C855 C852 1.386 . S
C856 C851 1.490 . S
C856 C858 1.395 . S
C856 C859 1.403 . S
H857 C863 0.930 . S
C858 H844 0.930 . S
C858 C856 1.395 . S
C858 C861 1.403 . S
C859 C856 1.403 . S
C859 C860 1.524 . S
C859 C863 1.400 . S
C860 H845 0.960 . S
C860 H846 0.960 . S
C860 H847 0.960 . S
C860 C859 1.524 . S
C861 C858 1.403 . S
C861 C862 1.392 . S
C861 C865 1.495 . S
C862 C861 1.392 . S
C862 C863 1.385 . S
C862 C864 1.478 . S
C863 H857 0.930 . S
C863 C859 1.400 . S
C863 C862 1.385 . S
C864 C862 1.478 . S
C864 C866 1.381 . S
C864 C870 1.383 1_556 S
C865 C861 1.495 . S
C865 H871 0.959 . S
C865 H872 0.961 1_556 S
C865 H873 0.960 . S
C866 C864 1.381 . S
C866 C867 1.394 1_556 S
C866 H874 0.930 . S
C867 C866 1.394 1_554 S
C867 C868 1.383 . S
C867 H875 0.928 . S
C868 C867 1.383 . S
C868 C869 1.377 . S
C869 H853 0.930 . S
C869 C868 1.377 . S
C869 C870 1.379 . S
C870 H854 0.931 . S
C870 C864 1.383 1_554 S
C870 C869 1.379 . S
H871 C865 0.959 . S
H872 C865 0.961 1_554 S
H873 C865 0.960 . S
H874 C866 0.930 . S
H875 C867 0.928 . S
H876 C884 0.929 . S
H877 C886 0.930 . S
H878 C888 0.930 . S
H879 C891 0.929 . S
H880 C894 0.930 . S
H881 C896 0.960 . S
H882 C896 0.960 . S
H883 C896 0.960 . S
C884 H876 0.929 . S
C884 C885 1.377 . S
C884 C886 1.384 . S
C885 C884 1.377 . S
C885 C891 1.390 . S
C886 H877 0.930 . S
C886 C884 1.384 . S
C886 C887 1.372 . S
C887 C886 1.372 . S
C887 C888 1.400 . S
C887 C892 1.490 . S
C888 H878 0.930 . S
C888 C887 1.400 . S
C888 C891 1.386 . S
H889 C905 0.930 . S
H890 C906 0.931 . S
C891 H879 0.929 . S
C891 C885 1.390 . S
C891 C888 1.386 . S
C892 C887 1.490 . S
C892 C894 1.395 . S
C892 C895 1.403 . S
H893 C899 0.930 . S
C894 H880 0.930 . S
C894 C892 1.395 . S
C894 C897 1.403 . S
C895 C892 1.403 . S
C895 C896 1.524 . S
C895 C899 1.400 . S
C896 H881 0.960 . S
C896 H882 0.960 . S
C896 H883 0.960 . S
C896 C895 1.524 . S
C897 C894 1.403 . S
C897 C898 1.392 . S
C897 C901 1.495 1_655 S
C898 C897 1.392 . S
C898 C899 1.385 . S
C898 C900 1.478 . S
C899 H893 0.930 . S
C899 C895 1.400 . S
C899 C898 1.385 . S
C900 C898 1.478 . S
C900 C902 1.381 . S
C900 C906 1.383 . S
C901 C897 1.495 1_455 S
C901 H907 0.959 . S
C901 H908 0.961 . S
C901 H909 0.960 . S
C902 C900 1.381 . S
C902 C903 1.394 1_655 S
C902 H910 0.926 1_655 S
C903 C902 1.394 1_455 S
C903 C904 1.383 1_455 S
C903 H911 0.929 . S
C904 C903 1.383 1_655 S
C904 C905 1.377 . S
C905 H889 0.930 . S
C905 C904 1.377 . S
C905 C906 1.379 . S
C906 H890 0.931 . S
C906 C900 1.383 . S
C906 C905 1.379 . S
H907 C901 0.959 . S
H908 C901 0.961 . S
H909 C901 0.960 . S
H910 C902 0.926 1_455 S
H911 C903 0.929 . S
H912 C920 0.929 . S
H913 C922 0.930 . S
H914 C924 0.930 . S
H915 C927 0.929 . S
H916 C930 0.930 . S
H917 C932 0.960 . S
H918 C932 0.960 . S
H919 C932 0.960 . S
C920 H912 0.929 . S
C920 C921 1.377 . S
C920 C922 1.384 . S
C921 C920 1.377 . S
C921 C927 1.390 . S
C922 H913 0.930 . S
C922 C920 1.384 . S
C922 C923 1.372 . S
C923 C922 1.372 . S
C923 C924 1.400 . S
C923 C928 1.490 . S
C924 H914 0.930 . S
C924 C923 1.400 . S
C924 C927 1.386 . S
H925 C941 0.930 . S
H926 C942 0.931 . S
C927 H915 0.929 . S
C927 C921 1.390 . S
C927 C924 1.386 . S
C928 C923 1.490 . S
C928 C930 1.395 . S
C928 C931 1.403 . S
H929 C935 0.930 . S
C930 H916 0.930 . S
C930 C928 1.395 . S
C930 C933 1.403 . S
C931 C928 1.403 . S
C931 C932 1.524 . S
C931 C935 1.400 . S
C932 H917 0.960 . S
C932 H918 0.960 . S
C932 H919 0.960 . S
C932 C931 1.524 . S
C933 C930 1.403 . S
C933 C934 1.392 . S
C933 C937 1.495 . S
C934 C933 1.392 . S
C934 C935 1.385 . S
C934 C936 1.478 . S
C935 H929 0.930 . S
C935 C931 1.400 . S
C935 C934 1.385 . S
C936 C934 1.478 . S
C936 C938 1.381 . S
C936 C942 1.383 . S
C937 C933 1.495 . S
C937 H943 0.959 . S
C937 H944 0.961 . S
C937 H945 0.960 . S
C938 C936 1.381 . S
C938 C939 1.394 . S
C938 H946 0.930 . S
C939 C938 1.394 . S
C939 C940 1.383 . S
C939 H947 0.929 . S
C940 C939 1.383 . S
C940 C941 1.377 . S
C941 H925 0.930 . S
C941 C940 1.377 . S
C941 C942 1.379 . S
C942 H926 0.931 . S
C942 C936 1.383 . S
C942 C941 1.379 . S
H943 C937 0.959 . S
H944 C937 0.961 . S
H945 C937 0.960 . S
H946 C938 0.930 . S
H947 C939 0.929 . S
H948 C956 0.929 . S
H949 C958 0.930 . S
H950 C960 0.930 . S
H951 C963 0.929 . S
H952 C966 0.930 . S
H953 C968 0.960 . S
H954 C968 0.960 . S
H955 C968 0.960 . S
C956 H948 0.929 . S
C956 C957 1.377 . S
C956 C958 1.384 . S
C957 C956 1.377 . S
C957 C963 1.390 . S
C958 H949 0.930 . S
C958 C956 1.384 . S
C958 C959 1.372 . S
C959 C958 1.372 . S
C959 C960 1.400 . S
C959 C964 1.490 . S
C960 H950 0.930 . S
C960 C959 1.400 . S
C960 C963 1.386 . S
H961 C977 0.930 . S
H962 C978 0.931 . S
C963 H951 0.929 . S
C963 C957 1.390 . S
C963 C960 1.386 . S
C964 C959 1.490 . S
C964 C966 1.395 . S
C964 C967 1.403 . S
H965 C971 0.930 . S
C966 H952 0.930 . S
C966 C964 1.395 . S
C966 C969 1.403 . S
C967 C964 1.403 . S
C967 C968 1.524 . S
C967 C971 1.400 . S
C968 H953 0.960 . S
C968 H954 0.960 . S
C968 H955 0.960 . S
C968 C967 1.524 . S
C969 C966 1.403 . S
C969 C970 1.392 . S
C969 C973 1.495 . S
C970 C969 1.392 . S
C970 C971 1.385 . S
C970 C972 1.478 . S
C971 H965 0.930 . S
C971 C967 1.400 . S
C971 C970 1.385 . S
C972 C970 1.478 . S
C972 C974 1.381 . S
C972 C978 1.383 . S
C973 C969 1.495 . S
C973 H979 0.959 . S
C973 H980 0.961 . S
C973 H981 0.960 . S
C974 C972 1.381 . S
C974 C975 1.394 . S
C974 H982 0.930 . S
C975 C974 1.394 . S
C975 C976 1.383 . S
C975 H983 0.929 . S
C976 C975 1.383 . S
C976 C977 1.377 . S
C977 H961 0.930 . S
C977 C976 1.377 . S
C977 C978 1.379 . S
C978 H962 0.931 . S
C978 C972 1.383 . S
C978 C977 1.379 . S
H979 C973 0.959 . S
H980 C973 0.961 . S
H981 C973 0.960 . S
H982 C974 0.930 . S
H983 C975 0.929 . S
H984 C992 0.929 . S
H985 C994 0.930 . S
H986 C996 0.930 . S
H987 C999 0.929 . S
H988 C1002 0.930 . S
H989 C1004 0.960 . S
H990 C1004 0.960 . S
H991 C1004 0.960 . S
C992 H984 0.929 . S
C992 C993 1.377 . S
C992 C994 1.384 . S
C993 C992 1.377 . S
C993 C999 1.390 . S
C994 H985 0.930 . S
C994 C992 1.384 . S
C994 C995 1.372 . S
C995 C994 1.372 . S
C995 C996 1.400 . S
C995 C1000 1.490 . S
C996 H986 0.930 . S
C996 C995 1.400 . S
C996 C999 1.386 . S
H997 C1013 0.930 . S
H998 C1014 0.931 . S
C999 H987 0.929 . S
C999 C993 1.390 . S
C999 C996 1.386 . S
C1000 C995 1.490 . S
C1000 C1002 1.395 . S
C1000 C1003 1.403 . S
H1001 C1007 0.930 . S
C1002 H988 0.930 . S
C1002 C1000 1.395 . S
C1002 C1005 1.403 . S
C1003 C1000 1.403 . S
C1003 C1004 1.524 . S
C1003 C1007 1.400 . S
C1004 H989 0.960 . S
C1004 H990 0.960 . S
C1004 H991 0.960 . S
C1004 C1003 1.524 . S
C1005 C1002 1.403 . S
C1005 C1006 1.392 . S
C1005 C1009 1.495 . S
C1006 C1005 1.392 . S
C1006 C1007 1.385 . S
C1006 C1008 1.478 . S
C1007 H1001 0.930 . S
C1007 C1003 1.400 . S
C1007 C1006 1.385 . S
C1008 C1006 1.478 . S
C1008 C1010 1.381 . S
C1008 C1014 1.383 . S
C1009 C1005 1.495 . S
C1009 H1015 0.959 . S
C1009 H1016 0.961 . S
C1009 H1017 0.960 . S
C1010 C1008 1.381 . S
C1010 C1011 1.394 . S
C1010 H1018 0.930 . S
C1011 C1010 1.394 . S
C1011 C1012 1.383 . S
C1011 H1019 0.929 . S
C1012 C1011 1.383 . S
C1012 C1013 1.377 . S
C1013 H997 0.930 . S
C1013 C1012 1.377 . S
C1013 C1014 1.379 . S
C1014 H998 0.931 . S
C1014 C1008 1.383 . S
C1014 C1013 1.379 . S
H1015 C1009 0.959 . S
H1016 C1009 0.961 . S
H1017 C1009 0.960 . S
H1018 C1010 0.930 . S
H1019 C1011 0.929 . S
H1020 C1028 0.929 . S
H1021 C1030 0.930 . S
H1022 C1032 0.930 . S
H1023 C1035 0.929 . S
H1024 C1038 0.930 . S
H1025 C1040 0.960 . S
H1026 C1040 0.960 . S
H1027 C1040 0.960 . S
C1028 H1020 0.929 . S
C1028 C1029 1.377 . S
C1028 C1030 1.384 . S
C1029 C1028 1.377 . S
C1029 C1035 1.390 . S
C1030 H1021 0.930 . S
C1030 C1028 1.384 . S
C1030 C1031 1.372 . S
C1031 C1030 1.372 . S
C1031 C1032 1.400 . S
C1031 C1036 1.490 . S
C1032 H1022 0.930 . S
C1032 C1031 1.400 . S
C1032 C1035 1.386 . S
H1033 C1049 0.930 . S
H1034 C1050 0.931 . S
C1035 H1023 0.929 . S
C1035 C1029 1.390 . S
C1035 C1032 1.386 . S
C1036 C1031 1.490 . S
C1036 C1038 1.395 . S
C1036 C1039 1.403 . S
H1037 C1043 0.930 . S
C1038 H1024 0.930 . S
C1038 C1036 1.395 . S
C1038 C1041 1.403 . S
C1039 C1036 1.403 . S
C1039 C1040 1.524 . S
C1039 C1043 1.400 . S
C1040 H1025 0.960 . S
C1040 H1026 0.960 . S
C1040 H1027 0.960 . S
C1040 C1039 1.524 . S
C1041 C1038 1.403 . S
C1041 C1042 1.392 . S
C1041 C1045 1.495 . S
C1042 C1041 1.392 . S
C1042 C1043 1.385 . S
C1042 C1044 1.478 . S
C1043 H1037 0.930 . S
C1043 C1039 1.400 . S
C1043 C1042 1.385 . S
C1044 C1042 1.478 . S
C1044 C1046 1.381 . S
C1044 C1050 1.383 . S
C1045 C1041 1.495 . S
C1045 H1051 0.959 . S
C1045 H1052 0.961 . S
C1045 H1053 0.960 . S
C1046 C1044 1.381 . S
C1046 C1047 1.394 . S
C1046 H1054 0.930 . S
C1047 C1046 1.394 . S
C1047 C1048 1.383 . S
C1047 H1055 0.929 . S
C1048 C1047 1.383 . S
C1048 C1049 1.377 . S
C1049 H1033 0.930 . S
C1049 C1048 1.377 . S
C1049 C1050 1.379 . S
C1050 H1034 0.931 . S
C1050 C1044 1.383 . S
C1050 C1049 1.379 . S
H1051 C1045 0.959 . S
H1052 C1045 0.961 . S
H1053 C1045 0.960 . S
H1054 C1046 0.930 . S
H1055 C1047 0.929 . S
H1056 C1064 0.929 . S
H1057 C1066 0.930 . S
H1058 C1068 0.930 . S
H1059 C1071 0.929 . S
H1060 C1074 0.930 . S
H1061 C1076 0.960 . S
H1062 C1076 0.960 . S
H1063 C1076 0.960 . S
C1064 H1056 0.929 . S
C1064 C1065 1.377 . S
C1064 C1066 1.384 . S
C1065 C1064 1.377 . S
C1065 C1071 1.390 . S
C1066 H1057 0.930 . S
C1066 C1064 1.384 . S
C1066 C1067 1.372 . S
C1067 C1066 1.372 . S
C1067 C1068 1.400 . S
C1067 C1072 1.490 . S
C1068 H1058 0.930 . S
C1068 C1067 1.400 . S
C1068 C1071 1.386 . S
H1069 C1085 0.930 . S
H1070 C1086 0.931 . S
C1071 H1059 0.929 . S
C1071 C1065 1.390 . S
C1071 C1068 1.386 . S
C1072 C1067 1.490 . S
C1072 C1074 1.395 . S
C1072 C1075 1.403 . S
H1073 C1079 0.930 . S
C1074 H1060 0.930 . S
C1074 C1072 1.395 . S
C1074 C1077 1.403 . S
C1075 C1072 1.403 . S
C1075 C1076 1.524 . S
C1075 C1079 1.400 . S
C1076 H1061 0.960 . S
C1076 H1062 0.960 . S
C1076 H1063 0.960 . S
C1076 C1075 1.524 . S
C1077 C1074 1.403 . S
C1077 C1078 1.392 . S
C1077 C1081 1.495 . S
C1078 C1077 1.392 . S
C1078 C1079 1.385 . S
C1078 C1080 1.478 . S
C1079 H1073 0.930 . S
C1079 C1075 1.400 . S
C1079 C1078 1.385 . S
C1080 C1078 1.478 . S
C1080 C1082 1.381 . S
C1080 C1086 1.383 . S
C1081 C1077 1.495 . S
C1081 H1087 0.959 . S
C1081 H1088 0.961 . S
C1081 H1089 0.960 . S
C1082 C1080 1.381 . S
C1082 C1083 1.394 . S
C1082 H1090 0.930 . S
C1083 C1082 1.394 . S
C1083 C1084 1.383 . S
C1083 H1091 0.929 . S
C1084 C1083 1.383 . S
C1084 C1085 1.377 . S
C1085 H1069 0.930 . S
C1085 C1084 1.377 . S
C1085 C1086 1.379 . S
C1086 H1070 0.931 . S
C1086 C1080 1.383 . S
C1086 C1085 1.379 . S
H1087 C1081 0.959 . S
H1088 C1081 0.961 . S
H1089 C1081 0.960 . S
H1090 C1082 0.930 . S
H1091 C1083 0.929 . S
H1092 C1100 0.929 . S
H1093 C1102 0.930 . S
H1094 C1104 0.930 . S
H1095 C1107 0.929 . S
H1096 C1110 0.930 . S
H1097 C1112 0.960 . S
H1098 C1112 0.960 . S
H1099 C1112 0.960 . S
C1100 H1092 0.929 . S
C1100 C1101 1.377 . S
C1100 C1102 1.384 . S
C1101 C1100 1.377 . S
C1101 C1107 1.390 . S
C1102 H1093 0.930 . S
C1102 C1100 1.384 . S
C1102 C1103 1.372 . S
C1103 C1102 1.372 . S
C1103 C1104 1.400 . S
C1103 C1108 1.490 . S
C1104 H1094 0.930 . S
C1104 C1103 1.400 . S
C1104 C1107 1.386 . S
H1105 C1121 0.930 . S
H1106 C1122 0.931 . S
C1107 H1095 0.929 . S
C1107 C1101 1.390 . S
C1107 C1104 1.386 . S
C1108 C1103 1.490 . S
C1108 C1110 1.395 . S
C1108 C1111 1.403 . S
H1109 C1115 0.930 . S
C1110 H1096 0.930 . S
C1110 C1108 1.395 . S
C1110 C1113 1.403 . S
C1111 C1108 1.403 . S
C1111 C1112 1.524 . S
C1111 C1115 1.400 . S
C1112 H1097 0.960 . S
C1112 H1098 0.960 . S
C1112 H1099 0.960 . S
C1112 C1111 1.524 . S
C1113 C1110 1.403 . S
C1113 C1114 1.392 . S
C1113 C1117 1.495 . S
C1114 C1113 1.392 . S
C1114 C1115 1.385 . S
C1114 C1116 1.478 . S
C1115 H1109 0.930 . S
C1115 C1111 1.400 . S
C1115 C1114 1.385 . S
C1116 C1114 1.478 . S
C1116 C1118 1.381 . S
C1116 C1122 1.383 . S
C1117 C1113 1.495 . S
C1117 H1123 0.959 . S
C1117 H1124 0.961 . S
C1117 H1125 0.960 . S
C1118 C1116 1.381 . S
C1118 C1119 1.394 . S
C1118 H1126 0.930 . S
C1119 C1118 1.394 . S
C1119 C1120 1.383 . S
C1119 H1127 0.929 . S
C1120 C1119 1.383 . S
C1120 C1121 1.377 . S
C1121 H1105 0.930 . S
C1121 C1120 1.377 . S
C1121 C1122 1.379 . S
C1122 H1106 0.931 . S
C1122 C1116 1.383 . S
C1122 C1121 1.379 . S
H1123 C1117 0.959 . S
H1124 C1117 0.961 . S
H1125 C1117 0.960 . S
H1126 C1118 0.930 . S
H1127 C1119 0.929 . S
C273 N1 1.068 . S
C292 C119 1.098 . S
C309 N18 1.153 . S
C328 C159 1.198 . S
C364 C193 1.665 . S
C345 N28 1.698 . S
C381 N40 2.822 . S
C400 C234 2.821 . S
C436 C154 1.808 . S
C417 N5 1.818 . S
C472 C114 1.895 . S
C453 N14 1.827 . S
C508 C242 1.571 . S
C489 N31 1.596 . S
C544 C203 1.429 . S
C525 N41 1.478 . S
C561 N2 0.957 . S
C580 C239 0.944 . S
C616 C162 2.144 1_556 S
C597 N27 2.216 . S
C633 N44 2.550 . S
C652 C122 2.560 1_655 S
C669 N15 1.140 . S
C688 C190 1.146 . S
C724 C110 1.742 . S
C705 N57 1.773 . S
C741 N70 0.834 . S
C760 C150 0.872 . S
C777 N79 2.000 . S
C796 C202 2.036 . S
C813 N93 2.524 . S
C832 C243 2.449 . S
C849 N54 1.271 . S
C868 C163 1.298 . S
C904 C123 2.554 1_655 S
C885 N66 2.545 . S
C940 C233 0.933 . S
C921 N80 0.923 . S
C976 C194 1.717 . S
C957 N96 1.749 . S
C993 N53 1.057 . S
C1012 C230 1.084 . S
C1048 C153 1.613 . S
C1029 N83 1.586 . S
C1084 C113 2.548 . S
C1065 N92 2.667 . S
C1101 N67 1.411 . S
C1120 C199 1.433 . S
