# Generated by pormake.
# Topology pyr, (3,6)-cn, num edge types: 1
# Building blocks:
#     Node 0, Type 0, BuildingBlock: CUQRIR_clean_linker_1, # of connection points: 3
#     Node 1, Type 0, BuildingBlock: CUQRIR_clean_linker_1, # of connection points: 3
#     Node 2, Type 0, BuildingBlock: CUQRIR_clean_linker_1, # of connection points: 3
#     Node 3, Type 0, BuildingBlock: CUQRIR_clean_linker_1, # of connection points: 3
#     Node 4, Type 0, BuildingBlock: CUQRIR_clean_linker_1, # of connection points: 3
#     Node 5, Type 0, BuildingBlock: CUQRIR_clean_linker_1, # of connection points: 3
#     Node 6, Type 0, BuildingBlock: CUQRIR_clean_linker_1, # of connection points: 3
#     Node 7, Type 0, BuildingBlock: CUQRIR_clean_linker_1, # of connection points: 3
#     Node 8, Type 1, BuildingBlock: BETDAH_clean_sbu_0, # of connection points: 6
#     Node 9, Type 1, BuildingBlock: BETDAH_clean_sbu_0, # of connection points: 6
#     Node 10, Type 1, BuildingBlock: BETDAH_clean_sbu_0, # of connection points: 6
#     Node 11, Type 1, BuildingBlock: BETDAH_clean_sbu_0, # of connection points: 6
#     Edge 12, Type (0, 1), BuildingBlock: XUDNAN_clean_linker_2, # of connection points: 2
#     Edge 13, Type (0, 1), BuildingBlock: XUDNAN_clean_linker_2, # of connection points: 2
#     Edge 14, Type (0, 1), BuildingBlock: XUDNAN_clean_linker_2, # of connection points: 2
#     Edge 15, Type (0, 1), BuildingBlock: XUDNAN_clean_linker_2, # of connection points: 2
#     Edge 16, Type (0, 1), BuildingBlock: XUDNAN_clean_linker_2, # of connection points: 2
#     Edge 17, Type (0, 1), BuildingBlock: XUDNAN_clean_linker_2, # of connection points: 2
#     Edge 18, Type (0, 1), BuildingBlock: XUDNAN_clean_linker_2, # of connection points: 2
#     Edge 19, Type (0, 1), BuildingBlock: XUDNAN_clean_linker_2, # of connection points: 2
#     Edge 20, Type (0, 1), BuildingBlock: XUDNAN_clean_linker_2, # of connection points: 2
#     Edge 21, Type (0, 1), BuildingBlock: XUDNAN_clean_linker_2, # of connection points: 2
#     Edge 22, Type (0, 1), BuildingBlock: XUDNAN_clean_linker_2, # of connection points: 2
#     Edge 23, Type (0, 1), BuildingBlock: XUDNAN_clean_linker_2, # of connection points: 2
#     Edge 24, Type (0, 1), BuildingBlock: XUDNAN_clean_linker_2, # of connection points: 2
#     Edge 25, Type (0, 1), BuildingBlock: XUDNAN_clean_linker_2, # of connection points: 2
#     Edge 26, Type (0, 1), BuildingBlock: XUDNAN_clean_linker_2, # of connection points: 2
#     Edge 27, Type (0, 1), BuildingBlock: XUDNAN_clean_linker_2, # of connection points: 2
#     Edge 28, Type (0, 1), BuildingBlock: XUDNAN_clean_linker_2, # of connection points: 2
#     Edge 29, Type (0, 1), BuildingBlock: XUDNAN_clean_linker_2, # of connection points: 2
#     Edge 30, Type (0, 1), BuildingBlock: XUDNAN_clean_linker_2, # of connection points: 2
#     Edge 31, Type (0, 1), BuildingBlock: XUDNAN_clean_linker_2, # of connection points: 2
#     Edge 32, Type (0, 1), BuildingBlock: XUDNAN_clean_linker_2, # of connection points: 2
#     Edge 33, Type (0, 1), BuildingBlock: XUDNAN_clean_linker_2, # of connection points: 2
#     Edge 34, Type (0, 1), BuildingBlock: XUDNAN_clean_linker_2, # of connection points: 2
#     Edge 35, Type (0, 1), BuildingBlock: XUDNAN_clean_linker_2, # of connection points: 2
# Relax obj value: 0.203
# Max RMSD: 0.259
# Mean RMSD: 0.169
data_MOF--net-pyr--node1-BETDAH_clean_sbu_0--node2-CUQRIR_clean_linker_1--edge1-XUDNAN_clean_linker_2
_symmetry_space_group_name_H-M    P1
_symmetry_Int_Tables_number       1
_symmetry_cell_setting            triclinic
loop_
_symmetry_equiv_pos_as_xyz
'x, y, z'
_cell_length_a     34.999736
_cell_length_b     38.045366
_cell_length_c     34.240054
_cell_angle_alpha  90.211944
_cell_angle_beta   90.348249
_cell_angle_gamma 103.82003
loop_
_atom_site_label
_atom_site_type_symbol
_atom_site_fract_x
_atom_site_fract_y
_atom_site_fract_z
_atom_type_partial_charge
C0 C 0.34441 0.35208 0.23056 0.0
N1 N 0.36484 0.32642 0.23591 0.0
N2 N 0.35815 0.37289 0.19933 0.0
C3 C 0.30763 0.3537 0.25257 0.0
C4 C 0.38757 0.35885 0.18562 0.0
N5 N 0.39185 0.3308 0.20809 0.0
C6 C 0.40954 0.37045 0.14857 0.0
H7 H 0.29472 0.37605 0.24256 0.0
H8 H 0.3146 0.35784 0.28412 0.0
H9 H 0.28543 0.32761 0.24915 0.0
H10 H 0.41129 0.39947 0.14275 0.0
H11 H 0.39353 0.35425 0.12393 0.0
H12 H 0.43957 0.36568 0.1502 0.0
C13 C 0.3476 0.97332 0.58376 0.0
N14 N 0.33085 0.98679 0.61424 0.0
N15 N 0.38065 0.96359 0.59539 0.0
C16 C 0.32929 0.96559 0.54372 0.0
C17 C 0.38308 0.97114 0.63407 0.0
N18 N 0.35289 0.98509 0.64565 0.0
C19 C 0.41168 0.95983 0.66152 0.0
H20 H 0.34079 0.94495 0.52776 0.0
H21 H 0.33638 0.99079 0.52628 0.0
H22 H 0.2968 0.95638 0.54584 0.0
H23 H 0.41523 0.9759 0.68898 0.0
H24 H 0.44079 0.96311 0.64749 0.0
H25 H 0.40044 0.93079 0.66875 0.0
C26 C 0.61671 0.37732 0.86781 0.0
N27 N 0.64091 0.37353 0.89876 0.0
N28 N 0.62993 0.40906 0.84788 0.0
C29 C 0.57813 0.3513 0.85837 0.0
C30 C 0.66362 0.42458 0.86785 0.0
N31 N 0.67026 0.40403 0.8992 0.0
C32 C 0.69253 0.45779 0.85323 0.0
H33 H 0.58345 0.32977 0.83868 0.0
H34 H 0.55797 0.36531 0.84314 0.0
H35 H 0.56368 0.33858 0.88528 0.0
H36 H 0.68666 0.48213 0.86758 0.0
H37 H 0.68938 0.46087 0.82125 0.0
H38 H 0.72328 0.45651 0.85955 0.0
C39 C 0.83729 0.69824 0.36063 0.0
N40 N 0.86976 0.72331 0.34656 0.0
N41 N 0.81843 0.71182 0.3897 0.0
C42 C 0.82669 0.65855 0.35022 0.0
C43 C 0.84124 0.74587 0.39433 0.0
N44 N 0.87302 0.75335 0.36969 0.0
C45 C 0.83064 0.77287 0.42216 0.0
H46 H 0.80422 0.65363 0.32657 0.0
H47 H 0.81364 0.64207 0.37564 0.0
H48 H 0.85283 0.64916 0.34066 0.0
H49 H 0.84609 0.77218 0.45043 0.0
H50 H 0.79853 0.76613 0.42781 0.0
H51 H 0.8393 0.80074 0.41034 0.0
C52 C 0.67723 0.83304 0.92744 0.0
N53 N 0.70522 0.82547 0.90411 0.0
N54 N 0.65187 0.84757 0.90653 0.0
C55 C 0.67755 0.83041 0.97124 0.0
C56 C 0.66546 0.84828 0.86953 0.0
N57 N 0.69823 0.83528 0.86809 0.0
C58 C 0.6486 0.8648 0.83561 0.0
H59 H 0.68399 0.80443 0.98022 0.0
H60 H 0.64895 0.83244 0.98368 0.0
H61 H 0.70126 0.85267 0.98323 0.0
H62 H 0.65724 0.89474 0.83838 0.0
H63 H 0.61603 0.85638 0.8359 0.0
H64 H 0.6591 0.85658 0.80729 0.0
C65 C 0.85883 0.31626 0.47649 0.0
N66 N 0.86538 0.29179 0.44986 0.0
N67 N 0.84064 0.33995 0.45946 0.0
C68 C 0.8701 0.31768 0.51896 0.0
C69 C 0.8362 0.32917 0.42177 0.0
N70 N 0.85148 0.30025 0.41581 0.0
C71 C 0.81162 0.34336 0.39226 0.0
H72 H 0.84548 0.30085 0.53581 0.0
H73 H 0.87548 0.34586 0.53018 0.0
H74 H 0.89685 0.30734 0.52357 0.0
H75 H 0.81053 0.37161 0.39913 0.0
H76 H 0.78118 0.32611 0.39271 0.0
H77 H 0.82342 0.34222 0.36242 0.0
C78 C 0.34875 0.717 0.25094 0.0
N79 N 0.38149 0.74184 0.26436 0.0
N80 N 0.32667 0.73186 0.22586 0.0
C81 C 0.3394 0.67731 0.2607 0.0
C82 C 0.3469 0.76724 0.22516 0.0
N83 N 0.38077 0.77384 0.24711 0.0
C84 C 0.3334 0.79614 0.20256 0.0
H85 H 0.32514 0.66073 0.23553 0.0
H86 H 0.3187 0.67235 0.2856 0.0
H87 H 0.36619 0.66833 0.26912 0.0
H88 H 0.302 0.78727 0.19384 0.0
H89 H 0.35179 0.80325 0.17613 0.0
H90 H 0.33679 0.82094 0.2206 0.0
C91 C 0.12589 0.38272 0.74894 0.0
N92 N 0.14859 0.37727 0.71754 0.0
N93 N 0.1401 0.41542 0.76757 0.0
C94 C 0.09133 0.35448 0.76331 0.0
C95 C 0.17312 0.42945 0.74612 0.0
N96 N 0.17912 0.40677 0.71637 0.0
C97 C 0.19818 0.46703 0.7531 0.0
H98 H 0.07397 0.36588 0.78484 0.0
H99 H 0.10213 0.33239 0.7773 0.0
H100 H 0.07221 0.34257 0.7383 0.0
H101 H 0.22353 0.4655 0.77206 0.0
H102 H 0.18117 0.48419 0.76812 0.0
H103 H 0.20941 0.48013 0.72519 0.0
Ho104 Ho 0.04066 0.08625 0.49384 0.0
Ho105 Ho 1.01078 0.04837 0.56827 0.0
C106 C 0.05536 0.13464 0.57573 0.0
C107 C 0.05779 0.12676 0.43298 0.0
C108 C 0.0952 0.14523 0.41551 0.0
C109 C 0.09692 0.15075 0.37514 0.0
C110 C 0.13315 0.16335 0.35705 0.0
C111 C 0.16818 0.17065 0.37914 0.0
C112 C 0.16629 0.1663 0.41983 0.0
C113 C 0.12999 0.15333 0.43791 0.0
C114 C 0.09365 0.05635 0.53074 0.0
C115 C 0.99514 0.9998 0.48567 0.0
C116 C 0.99637 1.00686 0.62866 0.0
C117 C 0.96441 0.97744 0.64282 0.0
C118 C 0.97315 0.95159 0.66822 0.0
C119 C 0.94281 0.92597 0.68571 0.0
C120 C 0.90337 0.92617 0.6782 0.0
C121 C 0.89474 0.95091 0.65111 0.0
C122 C 0.92505 0.97625 0.63337 0.0
C123 C 0.95969 0.08097 0.5315 0.0
O124 O 0.04892 0.13524 0.53721 0.0
O125 O 0.0485 0.10237 0.59331 0.0
O126 O 0.05091 0.09156 0.43189 0.0
O127 O 0.04931 0.13896 0.46677 0.0
O128 O 0.09297 0.06118 0.49345 0.0
O129 O 0.06984 0.07171 0.54661 0.0
O130 O 0.99767 0.99928 0.52468 0.0
O131 O 1.00546 1.03181 0.46773 0.0
O132 O 0.98864 0.03879 0.62677 0.0
O133 O 1.0157 0.99957 0.59832 0.0
O134 O 0.96144 0.07782 0.56907 0.0
O135 O 0.98211 0.06376 0.51616 0.0
H136 H 0.07035 0.14425 0.35746 0.0
H137 H 0.13382 0.16708 0.32568 0.0
H138 H 0.19292 0.17172 0.43741 0.0
H139 H 0.12916 0.14859 0.46911 0.0
H140 H 1.00341 0.95209 0.67568 0.0
H141 H 0.95019 0.90736 0.7067 0.0
H142 H 0.86453 0.95136 0.64464 0.0
H143 H 0.91774 0.99575 0.61344 0.0
Ho144 Ho 0.55123 0.07782 0.10808 0.0
Ho145 Ho 0.48728 0.07688 0.06457 0.0
C146 C 0.49695 0.12365 0.14197 0.0
C147 C 0.62109 0.08291 0.13687 0.0
C148 C 0.65115 0.1088 0.15928 0.0
C149 C 0.69098 0.1099 0.15319 0.0
C150 C 0.71997 0.13205 0.17648 0.0
C151 C 0.70941 0.15315 0.20643 0.0
C152 C 0.66951 0.15274 0.21173 0.0
C153 C 0.64058 0.13087 0.18821 0.0
C154 C 0.49272 1.01808 0.13108 0.0
C155 C 0.54086 1.03272 0.02714 0.0
C156 C 0.41843 0.07245 0.03329 0.0
C157 C 0.39895 0.05661 0.99695 0.0
C158 C 0.40472 1.02386 0.98204 0.0
C159 C 0.38908 1.01103 0.94562 0.0
C160 C 0.36783 1.03095 0.92328 0.0
C161 C 0.36165 0.06345 0.93855 0.0
C162 C 0.37698 0.07609 0.97515 0.0
C163 C 0.54721 0.13485 0.04051 0.0
O164 O 0.53423 0.12357 0.13905 0.0
O165 O 0.47117 0.10091 0.12044 0.0
O166 O 0.58865 0.06861 0.15524 0.0
O167 O 0.61471 0.09169 0.10106 0.0
O168 O 0.51369 0.04242 0.15399 0.0
O169 O 0.50158 1.02893 0.09611 0.0
O170 O 0.50451 1.0358 0.0274 0.0
O171 O 0.56612 0.05044 0.05321 0.0
O172 O 0.44841 0.09972 0.02851 0.0
O173 O 0.42527 0.05015 0.0598 0.0
O174 O 0.52552 0.11059 1.01789 0.0
O175 O 0.53817 0.12522 0.07573 0.0
H176 H 0.6996 0.09299 0.13099 0.0
H177 H 0.7505 0.1318 0.17189 0.0
H178 H 0.66067 0.1692 0.23425 0.0
H179 H 0.60998 0.13064 0.19317 0.0
H180 H 0.42212 1.00862 0.99804 0.0
H181 H 0.39481 0.98617 0.93434 0.0
H182 H 0.34523 0.07923 0.92203 0.0
H183 H 0.3725 0.10158 0.98606 0.0
Ho184 Ho 0.49542 0.53466 0.52635 0.0
Ho185 Ho 0.49851 0.58918 0.5734 0.0
C186 C 0.53055 0.52779 0.61456 0.0
C187 C 0.51399 0.48214 0.48813 0.0
C188 C 0.55201 0.4721 0.48831 0.0
C189 C 0.58485 0.49548 0.50578 0.0
C190 C 0.62085 0.48594 0.50778 0.0
C191 C 0.62502 0.45294 0.49189 0.0
C192 C 0.59201 0.42965 0.47407 0.0
C193 C 0.55573 0.43913 0.47245 0.0
C194 C 0.42215 0.52383 0.56172 0.0
C195 C 0.4718 0.60147 0.48243 0.0
C196 C 0.48321 0.64229 0.61274 0.0
C197 C 0.48038 0.67885 0.60228 0.0
C198 C 0.4571 0.6961 0.6249 0.0
C199 C 0.45144 0.72967 0.61364 0.0
C200 C 0.469 0.7465 0.57952 0.0
C201 C 0.49299 0.72945 0.55724 0.0
C202 C 0.49846 0.69569 0.56844 0.0
C203 C 0.57165 0.59776 0.53849 0.0
O204 O 0.53364 0.52057 0.57689 0.0
O205 O 0.51222 0.55339 0.62278 0.0
O206 O 0.49538 0.47776 0.52114 0.0
O207 O 0.51445 0.51349 0.47292 0.0
O208 O 0.42865 0.52111 0.5247 0.0
O209 O 0.45566 0.53471 0.57846 0.0
O210 O 0.47355 0.61355 0.519 0.0
O211 O 0.48092 0.57002 0.47678 0.0
O212 O 0.51815 0.63592 0.61099 0.0
O213 O 0.45613 0.61628 0.59727 0.0
O214 O 0.56531 0.60157 0.57532 0.0
O215 O 0.53825 0.58829 0.52168 0.0
H216 H 0.5826 0.52115 0.51812 0.0
H217 H 0.64529 0.50432 0.52225 0.0
H218 H 0.59426 0.40429 0.46096 0.0
H219 H 0.53067 0.42077 0.45886 0.0
H220 H 0.4428 0.68334 0.65096 0.0
H221 H 0.43329 0.74252 0.63166 0.0
H222 H 0.50668 0.74181 0.53076 0.0
H223 H 0.51625 0.68247 0.55039 0.0
Ho224 Ho 1.00235 0.54177 0.08537 0.0
Ho225 Ho 1.00311 0.58942 0.03211 0.0
C226 C 0.0803 0.6055 0.08408 0.0
C227 C 0.02251 0.49524 0.13148 0.0
C228 C 0.06096 0.48569 0.13635 0.0
C229 C 0.07478 0.46501 0.10793 0.0
C230 C 0.11253 0.45894 0.11095 0.0
C231 C 0.13743 0.47341 0.14239 0.0
C232 C 0.1234 0.49357 0.17113 0.0
C233 C 0.08556 0.49952 0.16822 0.0
C234 C 0.96669 0.59412 0.11857 0.0
C235 C 0.92385 0.52392 0.03584 0.0
C236 C 0.98981 0.63816 0.9841 0.0
C237 C 0.96666 0.66554 0.98314 0.0
C238 C 0.93519 0.66396 1.00879 0.0
C239 C 0.91178 0.68888 1.00543 0.0
C240 C 0.9197 0.71581 0.97653 0.0
C241 C 0.95205 0.71786 0.95177 0.0
C242 C 0.97528 0.69287 0.95505 0.0
C243 C 0.04242 0.54046 0.99916 0.0
O244 O 0.06733 0.5706 0.08985 0.0
O245 O 0.05737 0.62184 0.06415 0.0
O246 O 0.02135 0.52771 0.14245 0.0
O247 O 1.00407 0.48642 0.09843 0.0
O248 O 0.95336 0.55918 0.11972 0.0
O249 O 0.99721 0.59946 0.09682 0.0
O250 O 0.93731 0.55868 0.02762 0.0
O251 O 0.94645 0.50884 0.05764 0.0
O252 O 0.96989 0.60464 0.98427 0.0
O253 O 1.01912 0.64383 1.00858 0.0
O254 O 0.05282 0.57525 0.99729 0.0
O255 O 1.01129 0.5328 1.02021 0.0
H256 H 0.05678 0.45406 0.08286 0.0
H257 H 0.12253 0.44353 0.08815 0.0
H258 H 0.14158 0.50461 0.19606 0.0
H259 H 0.07579 0.51552 0.19059 0.0
H260 H 0.92833 0.64308 0.03084 0.0
H261 H 0.88728 0.68689 1.02514 0.0
H262 H 0.95859 0.73797 0.92892 0.0
H263 H 0.99949 0.69438 0.93504 0.0
H264 H 0.35156 0.3201 0.31342 0.0
H265 H 0.34078 0.25956 0.20523 0.0
H266 H 0.30203 0.20578 0.23805 0.0
H267 H 0.34011 0.24008 0.38527 0.0
H268 H 0.30913 0.25968 0.41621 0.0
H269 H 0.34852 0.28858 0.38935 0.0
H270 H 0.29863 0.32106 0.35858 0.0
H271 H 0.2591 0.29213 0.38465 0.0
H272 H 0.25663 0.29483 0.33217 0.0
H273 H 0.25177 0.16489 0.27567 0.0
H274 H 0.19272 0.1402 0.31488 0.0
H275 H 0.22875 0.22836 0.39791 0.0
C276 C 0.34238 0.29489 0.29741 0.0
C277 C 0.35037 0.29346 0.25724 0.0
C278 C 0.33691 0.26063 0.23644 0.0
C279 C 0.31441 0.22999 0.25487 0.0
C280 C 0.30491 0.23281 0.294 0.0
C281 C 0.31851 0.26445 0.31519 0.0
C282 C 0.29717 0.26313 0.35374 0.0
C283 C 0.32542 0.26284 0.38819 0.0
C284 C 0.27666 0.29463 0.35746 0.0
C285 C 0.26765 0.22703 0.34961 0.0
C286 C 0.27359 0.20947 0.31555 0.0
C287 C 0.24738 0.17786 0.30289 0.0
C288 C 0.21375 0.16424 0.32509 0.0
C289 C 0.20641 0.18245 0.3593 0.0
C290 C 0.23427 0.21358 0.3723 0.0
H291 H 0.36501 0.04478 0.69145 0.0
H292 H 0.3188 0.92884 0.68988 0.0
H293 H 0.30911 0.92918 0.76142 0.0
H294 H 0.4213 0.04674 0.77443 0.0
H295 H 0.41407 0.08862 0.79425 0.0
H296 H 0.41015 0.08055 0.74244 0.0
H297 H 0.33992 0.09161 0.7422 0.0
H298 H 0.34371 0.10003 0.79411 0.0
H299 H 0.30325 0.06588 0.77445 0.0
H300 H 0.31295 0.94067 0.83277 0.0
H301 H 0.33012 0.96254 0.90012 0.0
H302 H 0.37557 0.07129 0.85641 0.0
C303 C 0.35137 1.01991 0.70628 0.0
C304 C 0.34128 0.98692 0.68558 0.0
C305 C 0.32549 0.95433 0.70563 0.0
C306 C 0.31997 0.95435 0.74605 0.0
C307 C 0.33082 0.98722 0.76599 0.0
C308 C 0.34607 1.01948 0.74686 0.0
C309 C 0.35964 0.05027 0.77576 0.0
C310 C 0.40391 0.06754 0.77146 0.0
C311 C 0.33516 0.07862 0.77137 0.0
C312 C 0.35092 1.03004 0.81398 0.0
C313 C 0.33378 0.99381 0.80764 0.0
C314 C 0.32574 0.9691 0.8382 0.0
C315 C 0.33583 0.98169 0.87629 0.0
C316 C 0.35391 1.01859 0.88344 0.0
C317 C 0.36094 0.04309 0.85187 0.0
H318 H 0.60756 0.47366 0.83132 0.0
H319 H 0.61783 0.37284 0.77847 0.0
H320 H 0.59526 0.39233 0.71515 0.0
H321 H 0.51747 0.47919 0.77733 0.0
H322 H 0.53131 0.52771 0.77227 0.0
H323 H 0.54911 0.50653 0.81332 0.0
H324 H 0.62062 0.5378 0.79519 0.0
H325 H 0.60303 0.559 0.75403 0.0
H326 H 0.63813 0.53182 0.74679 0.0
H327 H 0.5738 0.42453 0.65479 0.0
H328 H 0.55035 0.46248 0.60627 0.0
H329 H 0.54766 0.54226 0.69631 0.0
C330 C 0.60496 0.45561 0.80644 0.0
C331 C 0.6148 0.42118 0.8107 0.0
C332 C 0.61053 0.39888 0.77682 0.0
C333 C 0.59776 0.40999 0.74037 0.0
C334 C 0.5884 0.44376 0.73713 0.0
C335 C 0.5913 0.46612 0.76949 0.0
C336 C 0.57807 0.50062 0.75799 0.0
C337 C 0.54184 0.5037 0.78164 0.0
C338 C 0.61198 0.53432 0.76386 0.0
C339 C 0.56756 0.49439 0.71426 0.0
C340 C 0.57429 0.46147 0.7029 0.0
C341 C 0.56819 0.4501 0.66388 0.0
C342 C 0.55478 0.47219 0.63612 0.0
C343 C 0.54644 0.50587 0.64638 0.0
C344 C 0.55314 0.51681 0.68666 0.0
H345 H 0.84203 0.68727 0.27719 0.0
H346 H 0.9513 0.73889 0.33521 0.0
H347 H 0.98784 0.71507 0.28291 0.0
H348 H 0.87098 0.60423 0.25585 0.0
H349 H 0.84381 0.59592 0.21051 0.0
H350 H 0.82757 0.62124 0.24898 0.0
H351 H 0.82963 0.67424 0.20158 0.0
H352 H 0.84593 0.64913 0.16293 0.0
H353 H 0.87446 0.69369 0.17588 0.0
H354 H 1.01301 0.68158 0.21977 0.0
H355 H 0.02186 0.64309 0.16346 0.0
H356 H 0.8955 0.60476 0.1528 0.0
C357 C 0.87374 0.69374 0.27946 0.0
C358 C 0.89301 0.71558 0.31191 0.0
C359 C 0.93488 0.72322 0.31152 0.0
C360 C 0.95605 0.70913 0.28162 0.0
C361 C 0.93574 0.68635 0.25149 0.0
C362 C 0.89515 0.6786 0.25077 0.0
C363 C 0.87937 0.65139 0.2175 0.0
C364 C 0.85391 0.6161 0.2342 0.0
C365 C 0.85594 0.6681 0.18771 0.0
C366 C 0.91706 0.64476 0.19895 0.0
C367 C 0.94947 0.66578 0.21844 0.0
C368 C 0.98735 0.66511 0.20521 0.0
C369 C 0.99223 0.64289 0.17254 0.0
C370 C 0.95981 0.61989 0.15248 0.0
C371 C 0.92151 0.62131 0.16673 0.0
H372 H 0.38878 0.2851 0.1472 0.0
H373 H 0.44869 0.32009 0.25632 0.0
H374 H 0.48455 0.27125 0.25125 0.0
H375 H 0.37072 0.19288 0.16929 0.0
H376 H 0.37572 0.17782 0.12001 0.0
H377 H 0.36011 0.21896 0.12855 0.0
H378 H 0.41749 0.25512 0.08657 0.0
H379 H 0.43277 0.21395 0.07703 0.0
H380 H 0.46719 0.2526 0.09767 0.0
H381 H 0.51274 0.2173 0.23395 0.0
H382 H 0.52805 0.16119 0.20797 0.0
H383 H 0.44209 0.15747 0.11541 0.0
C384 C 0.41061 0.28312 0.1691 0.0
C385 C 0.41716 0.30667 0.20156 0.0
C386 C 0.44428 0.30254 0.2309 0.0
C387 C 0.46446 0.27486 0.2283 0.0
C388 C 0.45636 0.25113 0.19654 0.0
C389 C 0.42985 0.25487 0.1676 0.0
C390 C 0.42304 0.22367 0.13887 0.0
C391 C 0.37984 0.20206 0.13922 0.0
C392 C 0.4359 0.23714 0.0976 0.0
C393 C 0.45001 0.2019 0.15595 0.0
C394 C 0.46951 0.21839 0.18884 0.0
C395 C 0.49729 0.20393 0.20848 0.0
C396 C 0.50567 0.17205 0.19374 0.0
C397 C 0.48547 0.15461 0.16045 0.0
C398 C 0.45708 0.16963 0.14168 0.0
H399 H 0.31163 1.03338 0.56292 0.0
H400 H 0.26637 0.96414 0.66055 0.0
H401 H 0.20295 0.98085 0.6545 0.0
H402 H 0.25448 0.10193 0.5736 0.0
H403 H 0.24518 0.1033 0.52186 0.0
H404 H 0.28969 0.09251 0.53931 0.0
H405 H 0.27273 1.03267 0.49944 0.0
H406 H 0.22814 0.04316 0.48202 0.0
H407 H 0.22606 1.00102 0.50679 0.0
H408 H 0.14342 1.00387 0.6361 0.0
H409 H 0.0901 1.02396 0.60166 0.0
H410 H 0.17009 0.0669 0.50793 0.0
C411 C 0.28848 1.02209 0.58328 0.0
C412 C 0.29456 0.99848 0.6131 0.0
C413 C 0.26342 0.98385 0.63892 0.0
C414 C 0.22696 0.99281 0.6353 0.0
C415 C 0.22174 1.01551 0.60493 0.0
C416 C 0.25145 1.02937 0.57888 0.0
C417 C 0.23675 0.04858 0.54541 0.0
C418 C 0.25778 0.08898 0.54504 0.0
C419 C 0.24118 1.03025 0.5061 0.0
C420 C 0.19399 0.04307 0.55652 0.0
C421 C 0.18621 1.0249 0.59156 0.0
C422 C 0.14904 1.0177 0.60841 0.0
C423 C 0.11892 1.02901 0.58862 0.0
C424 C 0.12588 0.04596 0.55184 0.0
C425 C 0.16391 0.05325 0.53571 0.0
H426 H 0.70515 0.47081 0.93228 0.0
H427 H 0.71718 0.36024 0.92534 0.0
H428 H 0.78025 0.37833 0.96197 0.0
H429 H 0.80731 0.51088 0.9119 0.0
H430 H 0.81028 0.5498 0.94298 0.0
H431 H 0.76396 0.52738 0.92088 0.0
H432 H 0.73175 0.51873 0.98898 0.0
H433 H 0.77797 0.54112 1.01132 0.0
H434 H 0.75299 0.49632 0.02674 0.0
H435 H 0.84475 0.40991 0.9988 0.0
H436 H 0.90378 0.45027 0.02788 0.0
H437 H 0.85575 0.54308 1.00396 0.0
C438 C 0.72092 0.4502 0.93828 0.0
C439 C 0.70514 0.4136 0.92546 0.0
C440 C 0.72728 0.38802 0.93507 0.0
C441 C 0.7637 0.39832 0.95566 0.0
C442 C 0.77881 0.43472 0.96639 0.0
C443 C 0.75809 0.46034 0.95768 0.0
C444 C 0.78199 0.49813 0.97001 0.0
C445 C 0.79144 0.52303 0.93432 0.0
C446 C 0.75985 0.51455 1.00111 0.0
C447 C 0.81951 0.49001 0.98719 0.0
C448 C 0.81665 0.45309 0.98528 0.0
C449 C 0.84698 0.43876 1.00008 0.0
C450 C 0.88074 0.46221 1.01685 0.0
C451 C 0.88544 0.50041 1.01867 0.0
C452 C 0.85387 0.51427 1.00325 0.0
H453 H 0.73971 0.67886 0.37145 0.0
H454 H 0.82297 0.70237 0.4676 0.0
H455 H 0.77014 0.67502 0.51362 0.0
H456 H 0.65681 0.69805 0.42427 0.0
H457 H 0.6199 0.66203 0.40227 0.0
H458 H 0.66417 0.682 0.37594 0.0
H459 H 0.67855 0.61891 0.36743 0.0
H460 H 0.63426 0.59877 0.39367 0.0
H461 H 0.68089 0.59161 0.40991 0.0
H462 H 0.708 0.64621 0.55062 0.0
H463 H 0.64201 0.61892 0.57594 0.0
H464 H 0.59418 0.61252 0.45825 0.0
C465 C 0.74683 0.67785 0.40215 0.0
C466 C 0.78628 0.69302 0.41562 0.0
C467 C 0.7936 0.69127 0.45627 0.0
C468 C 0.76351 0.67563 0.48276 0.0
C469 C 0.7252 0.66142 0.46887 0.0
C470 C 0.71658 0.66228 0.42948 0.0
C471 C 0.67229 0.64558 0.42301 0.0
C472 C 0.6521 0.67358 0.40531 0.0
C473 C 0.66614 0.6117 0.39694 0.0
C474 C 0.6575 0.63547 0.46473 0.0
C475 C 0.6889 0.64488 0.4905 0.0
C476 C 0.68338 0.6388 0.53051 0.0
C477 C 0.64534 0.62313 0.54476 0.0
C478 C 0.61193 0.61318 0.5197 0.0
C479 C 0.61857 0.61944 0.47868 0.0
H480 H 0.29278 0.35223 0.15603 0.0
H481 H 0.37582 0.44561 0.20303 0.0
H482 H 0.33067 0.48451 0.18524 0.0
H483 H 0.24937 0.39986 0.07577 0.0
H484 H 0.20085 0.37192 0.08449 0.0
H485 H 0.2435 0.35393 0.0922 0.0
H486 H 0.22071 0.33708 0.16296 0.0
H487 H 0.17855 0.35563 0.15594 0.0
H488 H 0.21247 0.37186 0.1955 0.0
H489 H 0.2718 0.51039 0.1729 0.0
H490 H 0.20573 0.52201 0.16437 0.0
H491 H 0.16007 0.41041 0.12802 0.0
C492 C 0.30206 0.38122 0.16049 0.0
C493 C 0.33791 0.39645 0.17973 0.0
C494 C 0.34882 0.43402 0.18725 0.0
C495 C 0.32326 0.45608 0.17746 0.0
C496 C 0.28704 0.43993 0.16018 0.0
C497 C 0.27667 0.40336 0.15129 0.0
C498 C 0.23428 0.39158 0.13768 0.0
C499 C 0.23187 0.37856 0.09499 0.0
C500 C 0.2101 0.36233 0.16464 0.0
C501 C 0.22189 0.4269 0.14154 0.0
C502 C 0.25281 0.4546 0.15406 0.0
C503 C 0.24759 0.48903 0.16245 0.0
C504 C 0.20986 0.49528 0.15792 0.0
C505 C 0.17771 0.46715 0.1454 0.0
C506 C 0.18415 0.43268 0.1368 0.0
H507 H 0.61849 0.29941 0.88244 0.0
H508 H 0.64573 0.37499 0.97921 0.0
H509 H 0.62769 0.3236 0.02549 0.0
H510 H 0.53219 0.24144 0.92596 0.0
H511 H 0.54064 0.20022 0.90561 0.0
H512 H 0.55842 0.24254 0.88067 0.0
H513 H 0.62879 0.23233 0.88137 0.0
H514 H 0.61124 0.18999 0.90636 0.0
H515 H 0.65088 0.22426 0.92713 0.0
H516 H 0.60295 0.26058 0.06282 0.0
H517 H 0.57584 0.19744 0.08466 0.0
H518 H 0.56092 0.16243 0.96389 0.0
C519 C 0.62065 0.30547 0.91335 0.0
C520 C 0.63393 0.34237 0.92646 0.0
C521 C 0.63652 0.34776 0.96762 0.0
C522 C 0.62584 0.31834 0.99437 0.0
C523 C 0.61207 0.28267 0.98036 0.0
C524 C 0.60952 0.27631 0.94055 0.0
C525 C 0.59271 0.23572 0.93266 0.0
C526 C 0.55368 0.22962 0.90986 0.0
C527 C 0.62269 0.21962 0.91056 0.0
C528 C 0.58601 0.21994 0.974 0.0
C529 C 0.59757 0.24745 1.00125 0.0
C530 C 0.59404 0.23925 0.0413 0.0
C531 C 0.57851 0.20286 0.05365 0.0
C532 C 0.56594 0.17386 0.02657 0.0
C533 C 0.5701 0.18324 0.98595 0.0
H534 H 0.91755 0.7807 0.43456 0.0
H535 H 0.892 0.80947 0.31701 0.0
H536 H 0.92206 0.87413 0.33275 0.0
H537 H 0.88933 0.85418 0.47984 0.0
H538 H 0.92555 0.86096 0.51855 0.0
H539 H 0.90866 0.81691 0.49636 0.0
H540 H 0.98003 0.81548 0.47959 0.0
H541 H 0.99735 0.85929 0.50228 0.0
H542 H 1.01016 0.85225 0.45244 0.0
H543 H 0.95159 0.93947 0.3652 0.0
H544 H 0.97606 0.99338 0.40683 0.0
H545 H 0.97793 0.92398 0.50652 0.0
C546 C 0.91988 0.80032 0.41137 0.0
C547 C 0.90323 0.78841 0.37345 0.0
C548 C 0.90559 0.81631 0.34539 0.0
C549 C 0.92213 0.85369 0.35463 0.0
C550 C 0.93627 0.86424 0.39268 0.0
C551 C 0.93537 0.83797 0.42057 0.0
C552 C 0.94928 0.85622 0.46024 0.0
C553 C 0.91625 0.84648 0.49055 0.0
C554 C 0.98641 0.84515 0.47449 0.0
C555 C 0.95852 0.89695 0.45075 0.0
C556 C 0.95102 0.90095 0.41142 0.0
C557 C 0.95736 0.93595 0.39584 0.0
C558 C 0.9715 0.96697 0.42018 0.0
C559 C 0.97946 0.96443 0.46089 0.0
C560 C 0.97246 0.9281 0.47594 0.0
H561 H 0.34615 0.89382 0.5849 0.0
H562 H 0.45493 0.97423 0.56883 0.0
H563 H 0.48846 0.92591 0.55066 0.0
H564 H 0.38485 0.83451 0.63307 0.0
H565 H 0.35374 0.79362 0.61303 0.0
H566 H 0.33642 0.83435 0.61468 0.0
H567 H 0.32352 0.83047 0.53998 0.0
H568 H 0.34031 0.78922 0.53807 0.0
H569 H 0.36263 0.82681 0.50735 0.0
H570 H 0.51185 0.86841 0.54626 0.0
H571 H 0.52338 0.80742 0.55694 0.0
H572 H 0.39867 0.76492 0.57643 0.0
C573 C 0.37653 0.90108 0.5756 0.0
C574 C 0.39802 0.93734 0.57706 0.0
C575 C 0.43814 0.94642 0.56676 0.0
C576 C 0.45721 0.91921 0.55647 0.0
C577 C 0.43544 0.88329 0.55653 0.0
C578 C 0.39577 0.87428 0.56545 0.0
C579 C 0.38017 0.83383 0.56905 0.0
C580 C 0.36281 0.82351 0.60987 0.0
C581 C 0.34987 0.81923 0.53667 0.0
C582 C 0.41763 0.82151 0.56298 0.0
C583 C 0.44906 0.85022 0.55485 0.0
C584 C 0.4873 0.84563 0.55171 0.0
C585 C 0.4936 0.81098 0.55781 0.0
C586 C 0.46188 0.78168 0.56756 0.0
C587 C 0.42341 0.78695 0.56904 0.0
H588 H 0.72971 0.8973 0.83045 0.0
H589 H 0.7315 0.78419 0.83722 0.0
H590 H 0.78351 0.79373 0.7865 0.0
H591 H 0.74292 0.90606 0.72495 0.0
H592 H 0.77295 0.95157 0.72907 0.0
H593 H 0.73546 0.9348 0.76474 0.0
H594 H 0.78775 0.95065 0.82009 0.0
H595 H 0.82542 0.96727 0.78466 0.0
H596 H 0.83074 0.93239 0.81831 0.0
H597 H 0.83842 0.81776 0.73758 0.0
H598 H 0.88944 0.85331 0.6937 0.0
H599 H 0.84715 0.94933 0.71768 0.0
C600 C 0.74018 0.87433 0.82032 0.0
C601 C 0.72612 0.83983 0.83671 0.0
C602 C 0.74176 0.81068 0.82431 0.0
C603 C 0.77114 0.8159 0.79566 0.0
C604 C 0.78413 0.85038 0.77974 0.0
C605 C 0.76884 0.87898 0.79153 0.0
C606 C 0.78814 0.9136 0.77093 0.0
C607 C 0.75807 0.9273 0.74593 0.0
C608 C 0.80927 0.94267 0.80025 0.0
C609 C 0.81706 0.90025 0.74581 0.0
C610 C 0.8146 0.86379 0.75129 0.0
C611 C 0.84019 0.84619 0.73266 0.0
C612 C 0.86904 0.8665 0.70793 0.0
C613 C 0.87161 0.90379 0.7019 0.0
C614 C 0.8451 0.92063 0.72096 0.0
H615 H 0.79326 0.24038 0.40999 0.0
H616 H 0.88784 0.30988 0.34634 0.0
H617 H 0.86561 0.27505 0.28547 0.0
H618 H 0.78911 0.15487 0.3539 0.0
H619 H 0.73615 0.14196 0.356 0.0
H620 H 0.76395 0.1682 0.39514 0.0
H621 H 0.72388 0.2168 0.38627 0.0
H622 H 0.69637 0.19111 0.3468 0.0
H623 H 0.72252 0.23744 0.33912 0.0
H624 H 0.82876 0.23669 0.23097 0.0
H625 H 0.77957 0.19877 0.18649 0.0
H626 H 0.70734 0.15617 0.28598 0.0
C627 C 0.80989 0.24713 0.38337 0.0
C628 C 0.84264 0.27685 0.3824 0.0
C629 C 0.86317 0.28649 0.34719 0.0
C630 C 0.85071 0.26694 0.31275 0.0
C631 C 0.81754 0.23813 0.3143 0.0
C632 C 0.79746 0.22821 0.34877 0.0
C633 C 0.76029 0.199 0.34192 0.0
C634 C 0.76253 0.16392 0.36298 0.0
C635 C 0.72362 0.21188 0.35425 0.0
C636 C 0.76195 0.19474 0.29809 0.0
C637 C 0.7955 0.21706 0.28274 0.0
C638 C 0.80262 0.21879 0.24269 0.0
C639 C 0.77459 0.19722 0.21769 0.0
C640 C 0.73972 0.17474 0.23288 0.0
C641 C 0.73364 0.17334 0.2736 0.0
H642 H 0.36773 0.73191 0.34378 0.0
H643 H 0.45143 0.72338 0.25418 0.0
H644 H 0.48324 0.68804 0.29951 0.0
H645 H 0.43931 0.73951 0.42921 0.0
H646 H 0.40236 0.71366 0.46107 0.0
H647 H 0.38848 0.74074 0.42284 0.0
H648 H 0.33871 0.68429 0.39615 0.0
H649 H 0.35279 0.65689 0.43388 0.0
H650 H 0.3555 0.64454 0.38327 0.0
H651 H 0.50087 0.64509 0.3536 0.0
H652 H 0.50863 0.60856 0.41135 0.0
H653 H 0.4181 0.64782 0.47102 0.0
C654 C 0.39409 0.7243 0.33429 0.0
C655 C 0.40787 0.73264 0.29499 0.0
C656 C 0.44105 0.71955 0.28394 0.0
C657 C 0.45896 0.69861 0.30967 0.0
C658 C 0.44413 0.69039 0.34756 0.0
C659 C 0.41295 0.70379 0.36022 0.0
C660 C 0.40236 0.69065 0.40234 0.0
C661 C 0.40848 0.72306 0.43054 0.0
C662 C 0.3598 0.66774 0.40401 0.0
C663 C 0.43181 0.6673 0.41135 0.0
C664 C 0.45528 0.6672 0.37894 0.0
C665 C 0.48289 0.64583 0.37905 0.0
C666 C 0.48703 0.62472 0.4124 0.0
C667 C 0.46457 0.62472 0.44696 0.0
C668 C 0.43651 0.64695 0.44593 0.0
H669 H 0.07105 0.4381 0.78842 0.0
H670 H 0.18325 0.4279 0.83462 0.0
H671 H 0.16912 0.45496 0.89716 0.0
H672 H 0.07273 0.52524 0.83531 0.0
H673 H 0.02084 0.51521 0.84574 0.0
H674 H 0.03848 0.49366 0.80492 0.0
H675 H 1.00448 0.43098 0.83228 0.0
H676 H 0.9868 0.45237 0.87323 0.0
H677 H 1.0154 0.41944 0.88144 0.0
H678 H 0.1433 0.48556 0.95694 0.0
H679 H 0.11028 0.51693 1.00486 0.0
H680 H 1.01351 0.51026 0.92364 0.0
C681 C 0.09248 0.44106 0.81184 0.0
C682 C 0.12863 0.42978 0.80563 0.0
C683 C 0.15551 0.43548 0.83769 0.0
C684 C 0.14758 0.4511 0.87376 0.0
C685 C 0.11222 0.46188 0.87892 0.0
C686 C 0.08501 0.45716 0.84869 0.0
C687 C 0.04975 0.47228 0.86203 0.0
C688 C 0.04517 0.50344 0.83541 0.0
C689 C 1.01184 0.44197 0.86224 0.0
C690 C 0.06128 0.48621 0.90412 0.0
C691 C 0.09752 0.47964 0.91313 0.0
C692 C 0.11483 0.49036 0.94978 0.0
C693 C 0.09548 0.50822 0.97738 0.0
C694 C 0.05827 0.51581 0.96977 0.0
C695 C 0.04121 0.50436 0.93186 0.0
H696 H 0.67688 0.90671 0.95148 0.0
H697 H 0.57413 0.84051 0.89387 0.0
H698 H 0.53481 0.88359 0.91489 0.0
H699 H 0.62586 0.92949 0.03567 0.0
H700 H 0.65679 0.97464 0.03969 0.0
H701 H 0.67608 0.93886 1.01913 0.0
H702 H 0.69561 0.9771 0.95666 0.0
H703 H 0.67578 1.01275 0.97678 0.0
H704 H 0.65858 0.99311 0.93002 0.0
H705 H 0.50777 0.9344 0.94166 0.0
H706 H 0.49244 0.9856 0.97744 0.0
H707 H 0.61315 1.01728 1.01968 0.0
C708 C 0.64593 0.90116 0.94389 0.0
C709 C 0.62813 0.87049 0.92135 0.0
C710 C 0.58791 0.86407 0.91115 0.0
C711 C 0.5656 0.88835 0.92285 0.0
C712 C 0.58419 0.91867 0.94479 0.0
C713 C 0.62333 0.92488 0.95561 0.0
C714 C 0.6361 0.95882 0.98018 0.0
C715 C 0.64948 0.94991 1.02109 0.0
C716 C 0.66843 0.98711 0.95967 0.0
C717 C 0.59793 0.97075 0.98175 0.0
C718 C 0.56848 0.94748 0.96077 0.0
C719 C 0.53056 0.95276 0.95823 0.0
C720 C 0.52223 0.98204 0.97855 0.0
C721 C 0.55163 1.00544 1.00142 0.0
C722 C 0.59011 0.99999 1.00236 0.0
H723 H 0.85306 0.24394 0.51094 0.0
H724 H 0.91708 0.2703 0.40275 0.0
H725 H 0.94245 0.21541 0.40898 0.0
H726 H 0.93481 0.21754 0.55959 0.0
H727 H 0.90309 0.1832 0.58849 0.0
H728 H 0.8867 0.22248 0.57329 0.0
H729 H 0.82481 0.18062 0.54151 0.0
H730 H 0.84139 0.14123 0.55602 0.0
H731 H 0.83067 0.14775 0.50537 0.0
H732 H 0.95761 0.15603 0.42513 0.0
H733 H 0.9737 0.10305 0.45652 0.0
H734 H 0.91112 0.12187 0.56048 0.0
C735 C 0.87303 0.23869 0.48896 0.0
C736 C 0.88253 0.2612 0.4559 0.0
C737 C 0.90831 0.25278 0.42756 0.0
C738 C 0.92306 0.22181 0.43098 0.0
C739 C 0.91284 0.20009 0.46369 0.0
C740 C 0.88948 0.20872 0.49283 0.0
C741 C 0.88613 0.18265 0.52675 0.0
C742 C 0.90374 0.20266 0.56424 0.0
C743 C 0.84319 0.16183 0.53275 0.0
C744 C 0.91101 0.15788 0.5119 0.0
C745 C 0.92523 0.16795 0.47501 0.0
C746 C 0.9474 0.14835 0.45435 0.0
C747 C 0.95646 0.11837 0.47243 0.0
C748 C 0.94468 0.10914 0.51126 0.0
C749 C 0.92099 0.12873 0.53096 0.0
H750 H 0.25739 0.67989 0.24266 0.0
H751 H 0.32229 0.74094 0.14753 0.0
H752 H 0.26699 0.71656 0.10263 0.0
H753 H 0.21643 0.59874 0.18042 0.0
H754 H 0.1701 0.5872 0.20563 0.0
H755 H 0.21416 0.61021 0.23135 0.0
H756 H 0.18046 0.66103 0.25137 0.0
H757 H 0.13639 0.63827 0.2256 0.0
H758 H 0.15988 0.68456 0.21413 0.0
H759 H 0.20158 0.68988 0.06837 0.0
H760 H 0.1361 0.65548 0.04523 0.0
H761 H 0.11503 0.6032 0.15791 0.0
C762 C 0.26016 0.68789 0.21233 0.0
C763 C 0.29435 0.71383 0.19936 0.0
C764 C 0.2963 0.72264 0.159 0.0
C765 C 0.26492 0.70859 0.133 0.0
C766 C 0.23145 0.68418 0.14679 0.0
C767 C 0.22922 0.67297 0.18527 0.0
C768 C 0.19036 0.64475 0.19157 0.0
C769 C 0.19824 0.60805 0.20293 0.0
C770 C 0.16529 0.65794 0.22251 0.0
C771 C 0.17091 0.64268 0.15106 0.0
C772 C 0.19509 0.66613 0.1259 0.0
C773 C 0.18284 0.67095 0.08771 0.0
C774 C 0.14537 0.65129 0.07474 0.0
C775 C 0.12027 0.62605 0.0992 0.0
C776 C 0.13362 0.6217 0.13802 0.0
H777 H 0.25946 0.43459 0.73016 0.0
H778 H 0.17463 0.40175 0.63649 0.0
H779 H 0.22674 0.42679 0.58835 0.0
H780 H 0.30893 0.51985 0.68835 0.0
H781 H 0.35742 0.51827 0.7051 0.0
H782 H 0.31468 0.4951 0.7319 0.0
H783 H 0.33668 0.43518 0.726 0.0
H784 H 0.37962 0.45819 0.69936 0.0
H785 H 0.34638 0.41894 0.67843 0.0
H786 H 0.28887 0.46026 0.54947 0.0
H787 H 0.35287 0.49391 0.52417 0.0
H788 H 0.39987 0.50793 0.64215 0.0
C789 C 0.25168 0.43234 0.69949 0.0
C790 C 0.21187 0.41568 0.68773 0.0
C791 C 0.20421 0.41343 0.64692 0.0
C792 C 0.23391 0.42817 0.61919 0.0
C793 C 0.27211 0.44548 0.63194 0.0
C794 C 0.28113 0.44729 0.6713 0.0
C795 C 0.32429 0.46816 0.67742 0.0
C796 C 0.32646 0.50237 0.70218 0.0
C797 C 0.34816 0.44366 0.69644 0.0
C798 C 0.33836 0.47811 0.6355 0.0
C799 C 0.30756 0.46463 0.6098 0.0
C800 C 0.31288 0.47054 0.56967 0.0
C801 C 0.34986 0.49002 0.55541 0.0
C802 C 0.38262 0.50418 0.58047 0.0
C803 C 0.37616 0.49791 0.62155 0.0
H804 H 0.71335 0.76161 0.93184 0.0
H805 H 0.77722 0.87073 0.90508 0.0
H806 H 0.83978 0.85591 0.92531 0.0
H807 H 0.77225 0.74923 1.01743 0.0
H808 H 0.76968 0.70243 1.00602 0.0
H809 H 0.73006 0.72252 0.99171 0.0
H810 H 0.73729 0.70372 0.91976 0.0
H811 H 0.77679 0.68352 0.93385 0.0
H812 H 0.78448 0.71759 0.89637 0.0
H813 H 0.89514 0.82795 0.94527 0.0
H814 H 0.93985 0.78878 0.96214 0.0
H815 H 0.83925 0.69767 0.97575 0.0
C816 C 0.7406 0.78228 0.93084 0.0
C817 C 0.74108 0.81717 0.91714 0.0
C818 C 0.77687 0.84383 0.91555 0.0
C819 C 0.81226 0.83568 0.92708 0.0
C820 C 0.811 0.80081 0.94033 0.0
C821 C 0.77608 0.77455 0.94231 0.0
C822 C 0.78295 0.73876 0.9559 0.0
C823 C 0.76252 0.72759 0.9951 0.0
C824 C 0.7696 0.70916 0.9246 0.0
C825 C 0.82724 0.74878 0.96061 0.0
C826 C 0.84285 0.78475 0.9518 0.0
C827 C 0.88325 0.79981 0.9525 0.0
C828 C 0.90839 0.77735 0.96193 0.0
C829 C 0.893 0.74026 0.9704 0.0
C830 C 0.85185 0.72607 0.9702 0.0
H831 H 0.39135 0.84539 0.27152 0.0
H832 H 0.43846 0.77664 0.19413 0.0
H833 H 0.47131 0.8304 0.15586 0.0
H834 H 0.37032 0.90412 0.20079 0.0
H835 H 0.3844 0.94537 0.22896 0.0
H836 H 0.36861 0.90252 0.25337 0.0
H837 H 0.43347 0.9148 0.29297 0.0
H838 H 0.44917 0.95812 0.26942 0.0
H839 H 0.4798 0.9262 0.26768 0.0
H840 H 0.4908 0.89299 0.11838 0.0
H841 H 0.50525 0.95638 0.09489 0.0
H842 H 0.45088 0.98758 0.1985 0.0
C843 C 0.41054 0.84177 0.24796 0.0
C844 C 0.41304 0.8057 0.2374 0.0
C845 C 0.43698 0.80318 0.20454 0.0
C846 C 0.45515 0.83393 0.18184 0.0
C847 C 0.45026 0.86843 0.19189 0.0
C848 C 0.42951 0.87263 0.22512 0.0
C849 C 0.42808 0.91265 0.22921 0.0
C850 C 0.38531 0.91638 0.22803 0.0
C851 C 0.44886 0.92892 0.26708 0.0
C852 C 0.45077 0.93033 0.19311 0.0
C853 C 0.46275 0.90412 0.17155 0.0
C854 C 0.48197 0.91348 0.13576 0.0
C855 C 0.48989 0.94993 0.12227 0.0
C856 C 0.4796 0.97806 0.14429 0.0
C857 C 0.4596 0.96743 0.1805 0.0
H858 H 0.10255 0.35001 0.65124 0.0
H859 H 0.18053 0.32148 0.73754 0.0
H860 H 0.16546 0.25875 0.7114 0.0
H861 H 0.02898 0.26515 0.65042 0.0
H862 H 1.01992 0.26351 0.59849 0.0
H863 H 0.03721 0.30652 0.62284 0.0
H864 H 0.0962 0.32272 0.57597 0.0
H865 H 0.0789 0.27987 0.55126 0.0
H866 H 0.1282 0.29225 0.57093 0.0
H867 H 0.13697 0.19552 0.67863 0.0
H868 H 0.10519 0.14192 0.63921 0.0
H869 H 0.04846 0.20884 0.56797 0.0
C870 C 0.11732 0.33083 0.66401 0.0
C871 C 0.14405 0.34197 0.69647 0.0
C872 C 0.16114 0.31484 0.71244 0.0
C873 C 0.15227 0.27865 0.69778 0.0
C874 C 0.12598 0.26858 0.66622 0.0
C875 C 0.10924 0.29417 0.64895 0.0
C876 C 0.08229 0.27592 0.61489 0.0
C877 C 0.03956 0.27791 0.62208 0.0
C878 C 0.09728 0.29376 0.57594 0.0
C879 C 0.08602 0.2362 0.61591 0.0
C880 C 0.1111 0.23269 0.64627 0.0
C881 C 0.11783 0.19855 0.65458 0.0
C882 C 0.09926 0.16775 0.63176 0.0
C883 C 0.07406 0.16984 0.59947 0.0
C884 C 0.06774 0.20534 0.59171 0.0
H885 H 0.76818 0.31914 0.48862 0.0
H886 H 0.86347 0.41223 0.46679 0.0
H887 H 0.81941 0.45295 0.48097 0.0
H888 H 0.69873 0.34925 0.4399 0.0
H889 H 0.6579 0.33152 0.47175 0.0
H890 H 0.69838 0.31009 0.46951 0.0
H891 H 0.70955 0.31798 0.54418 0.0
H892 H 0.66834 0.33865 0.547 0.0
H893 H 0.71572 0.36221 0.56599 0.0
H894 H 0.76257 0.48196 0.48512 0.0
H895 H 0.69851 0.49807 0.4834 0.0
H896 H 0.63944 0.3856 0.50342 0.0
C897 C 0.77998 0.34817 0.48907 0.0
C898 C 0.81916 0.36298 0.47796 0.0
C899 C 0.83372 0.40086 0.47651 0.0
C900 C 0.80884 0.42398 0.48425 0.0
C901 C 0.76964 0.40852 0.49344 0.0
C902 C 0.75541 0.37145 0.49651 0.0
C903 C 0.71124 0.36146 0.50206 0.0
C904 C 0.69036 0.33663 0.46882 0.0
C905 C 0.70059 0.34405 0.5422 0.0
C906 C 0.70258 0.39852 0.50001 0.0
C907 C 0.73667 0.42532 0.49549 0.0
C908 C 0.73578 0.46133 0.48975 0.0
C909 C 0.69916 0.47022 0.48888 0.0
C910 C 0.66375 0.4432 0.49368 0.0
C911 C 0.6658 0.40694 0.49958 0.0
loop_
_geom_bond_atom_site_label_1
_geom_bond_atom_site_label_2
_geom_bond_distance
_geom_bond_site_symmetry_2
_ccdc_geom_bond_type
C0 N1 1.317 . S
C0 N2 1.348 . S
C0 C3 1.485 . S
N1 C0 1.317 . S
N1 N5 1.370 . S
N2 C0 1.348 . S
N2 C4 1.346 . S
C3 C0 1.485 . S
C3 H7 0.960 . S
C3 H8 0.961 . S
C3 H9 0.960 . S
C4 N2 1.346 . S
C4 N5 1.307 . S
C4 C6 1.486 . S
N5 N1 1.370 . S
N5 C4 1.307 . S
C6 C4 1.486 . S
C6 H10 0.960 . S
C6 H11 0.960 . S
C6 H12 0.959 . S
H7 C3 0.960 . S
H8 C3 0.961 . S
H9 C3 0.960 . S
H10 C6 0.960 . S
H11 C6 0.960 . S
H12 C6 0.959 . S
C13 N14 1.317 . S
C13 N15 1.348 . S
C13 C16 1.485 . S
N14 C13 1.317 . S
N14 N18 1.370 . S
N15 C13 1.348 . S
N15 C17 1.346 . S
C16 C13 1.485 . S
C16 H20 0.960 . S
C16 H21 0.961 . S
C16 H22 0.960 . S
C17 N15 1.346 . S
C17 N18 1.307 . S
C17 C19 1.486 . S
N18 N14 1.370 . S
N18 C17 1.307 . S
C19 C17 1.486 . S
C19 H23 0.960 . S
C19 H24 0.960 . S
C19 H25 0.959 . S
H20 C16 0.960 . S
H21 C16 0.961 . S
H22 C16 0.960 . S
H23 C19 0.960 . S
H24 C19 0.960 . S
H25 C19 0.959 . S
C26 N27 1.317 . S
C26 N28 1.348 . S
C26 C29 1.485 . S
N27 C26 1.317 . S
N27 N31 1.370 . S
N28 C26 1.348 . S
N28 C30 1.346 . S
C29 C26 1.485 . S
C29 H33 0.960 . S
C29 H34 0.961 . S
C29 H35 0.960 . S
C30 N28 1.346 . S
C30 N31 1.307 . S
C30 C32 1.486 . S
N31 N27 1.370 . S
N31 C30 1.307 . S
C32 C30 1.486 . S
C32 H36 0.960 . S
C32 H37 0.960 . S
C32 H38 0.959 . S
H33 C29 0.960 . S
H34 C29 0.961 . S
H35 C29 0.960 . S
H36 C32 0.960 . S
H37 C32 0.960 . S
H38 C32 0.959 . S
C39 N40 1.317 . S
C39 N41 1.348 . S
C39 C42 1.485 . S
N40 C39 1.317 . S
N40 N44 1.370 . S
N41 C39 1.348 . S
N41 C43 1.346 . S
C42 C39 1.485 . S
C42 H46 0.960 . S
C42 H47 0.961 . S
C42 H48 0.960 . S
C43 N41 1.346 . S
C43 N44 1.307 . S
C43 C45 1.486 . S
N44 N40 1.370 . S
N44 C43 1.307 . S
C45 C43 1.486 . S
C45 H49 0.960 . S
C45 H50 0.960 . S
C45 H51 0.959 . S
H46 C42 0.960 . S
H47 C42 0.961 . S
H48 C42 0.960 . S
H49 C45 0.960 . S
H50 C45 0.960 . S
H51 C45 0.959 . S
C52 N53 1.317 . S
C52 N54 1.348 . S
C52 C55 1.485 . S
N53 C52 1.317 . S
N53 N57 1.370 . S
N54 C52 1.348 . S
N54 C56 1.346 . S
C55 C52 1.485 . S
C55 H59 0.960 . S
C55 H60 0.961 . S
C55 H61 0.960 . S
C56 N54 1.346 . S
C56 N57 1.307 . S
C56 C58 1.486 . S
N57 N53 1.370 . S
N57 C56 1.307 . S
C58 C56 1.486 . S
C58 H62 0.960 . S
C58 H63 0.960 . S
C58 H64 0.959 . S
H59 C55 0.960 . S
H60 C55 0.961 . S
H61 C55 0.960 . S
H62 C58 0.960 . S
H63 C58 0.960 . S
H64 C58 0.959 . S
C65 N66 1.317 . S
C65 N67 1.348 . S
C65 C68 1.485 . S
N66 C65 1.317 . S
N66 N70 1.370 . S
N67 C65 1.348 . S
N67 C69 1.346 . S
C68 C65 1.485 . S
C68 H72 0.960 . S
C68 H73 0.961 . S
C68 H74 0.960 . S
C69 N67 1.346 . S
C69 N70 1.307 . S
C69 C71 1.486 . S
N70 N66 1.370 . S
N70 C69 1.307 . S
C71 C69 1.486 . S
C71 H75 0.960 . S
C71 H76 0.960 . S
C71 H77 0.959 . S
H72 C68 0.960 . S
H73 C68 0.961 . S
H74 C68 0.960 . S
H75 C71 0.960 . S
H76 C71 0.960 . S
H77 C71 0.959 . S
C78 N79 1.317 . S
C78 N80 1.348 . S
C78 C81 1.485 . S
N79 C78 1.317 . S
N79 N83 1.370 . S
N80 C78 1.348 . S
N80 C82 1.346 . S
C81 C78 1.485 . S
C81 H85 0.960 . S
C81 H86 0.961 . S
C81 H87 0.960 . S
C82 N80 1.346 . S
C82 N83 1.307 . S
C82 C84 1.486 . S
N83 N79 1.370 . S
N83 C82 1.307 . S
C84 C82 1.486 . S
C84 H88 0.960 . S
C84 H89 0.960 . S
C84 H90 0.959 . S
H85 C81 0.960 . S
H86 C81 0.961 . S
H87 C81 0.960 . S
H88 C84 0.960 . S
H89 C84 0.960 . S
H90 C84 0.959 . S
C91 N92 1.317 . S
C91 N93 1.348 . S
C91 C94 1.485 . S
N92 C91 1.317 . S
N92 N96 1.370 . S
N93 C91 1.348 . S
N93 C95 1.346 . S
C94 C91 1.485 . S
C94 H98 0.960 . S
C94 H99 0.961 . S
C94 H100 0.960 . S
C95 N93 1.346 . S
C95 N96 1.307 . S
C95 C97 1.486 . S
N96 N92 1.370 . S
N96 C95 1.307 . S
C97 C95 1.486 . S
C97 H101 0.960 . S
C97 H102 0.960 . S
C97 H103 0.959 . S
H98 C94 0.960 . S
H99 C94 0.961 . S
H100 C94 0.960 . S
H101 C97 0.960 . S
H102 C97 0.960 . S
H103 C97 0.959 . S
Ho104 C107 2.811 . S
Ho104 O124 2.322 . S
Ho104 O126 2.378 . S
Ho104 O127 2.524 . S
Ho104 O128 2.381 . S
Ho104 O129 2.669 . S
Ho104 O131 2.346 1_545 S
Ho104 O135 2.305 . S
Ho105 C116 2.811 1_445 S
Ho105 O125 2.346 . S
Ho105 O129 2.305 . S
Ho105 O130 2.322 1_445 S
Ho105 O132 2.378 1_445 S
Ho105 O133 2.524 1_445 S
Ho105 O134 2.381 1_455 S
Ho105 O135 2.669 . S
C106 O124 1.259 . S
C106 O125 1.268 . S
C107 Ho104 2.811 . S
C107 C108 1.488 . S
C107 O126 1.215 . S
C107 O127 1.289 . S
C108 C107 1.488 . S
C108 C109 1.348 . S
C108 C113 1.413 . S
C109 C108 1.348 . S
C109 C110 1.442 . S
C109 H136 0.930 . S
C110 C109 1.442 . S
C110 C111 1.381 . S
C110 H137 0.931 . S
C111 C110 1.381 . S
C111 C112 1.321 . S
C112 C111 1.321 . S
C112 C113 1.403 . S
C112 H138 0.934 . S
C113 C108 1.413 . S
C113 C112 1.403 . S
C113 H139 0.930 . S
C114 O128 1.275 1_565 S
C114 O129 1.256 1_565 S
C115 O130 1.259 . S
C115 O131 1.268 1_655 S
C116 Ho105 2.811 1_665 S
C116 C117 1.488 . S
C116 O132 1.215 . S
C116 O133 1.289 . S
C117 C116 1.488 . S
C117 C118 1.348 . S
C117 C122 1.413 . S
C118 C117 1.348 . S
C118 C119 1.442 . S
C118 H140 0.930 . S
C119 C118 1.442 . S
C119 C120 1.381 . S
C119 H141 0.931 . S
C120 C119 1.381 . S
C120 C121 1.321 . S
C121 C120 1.321 . S
C121 C122 1.403 . S
C121 H142 0.934 . S
C122 C117 1.413 . S
C122 C121 1.403 . S
C122 H143 0.930 . S
C123 O134 1.275 . S
C123 O135 1.256 1_655 S
O124 Ho104 2.322 . S
O124 C106 1.259 . S
O125 Ho105 2.346 . S
O125 C106 1.268 . S
O126 Ho104 2.378 . S
O126 C107 1.215 . S
O127 Ho104 2.524 . S
O127 C107 1.289 . S
O128 Ho104 2.381 . S
O128 C114 1.275 1_545 S
O129 Ho104 2.669 . S
O129 Ho105 2.305 . S
O129 C114 1.256 1_545 S
O130 Ho105 2.322 1_665 S
O130 C115 1.259 . S
O131 Ho104 2.346 1_565 S
O131 C115 1.268 1_455 S
O132 Ho105 2.378 1_665 S
O132 C116 1.215 . S
O133 Ho105 2.524 1_665 S
O133 C116 1.289 . S
O134 Ho105 2.381 1_655 S
O134 C123 1.275 . S
O135 Ho104 2.305 . S
O135 Ho105 2.669 . S
O135 C123 1.256 1_455 S
H136 C109 0.930 . S
H137 C110 0.931 . S
H138 C112 0.934 . S
H139 C113 0.930 . S
H140 C118 0.930 . S
H141 C119 0.931 . S
H142 C121 0.934 . S
H143 C122 0.930 . S
Ho144 C147 2.811 . S
Ho144 O164 2.322 . S
Ho144 O166 2.378 . S
Ho144 O167 2.524 . S
Ho144 O168 2.381 1_545 S
Ho144 O169 2.669 . S
Ho144 O171 2.346 . S
Ho144 O175 2.305 . S
Ho145 C156 2.811 1_554 S
Ho145 O165 2.346 . S
Ho145 O169 2.305 . S
Ho145 O170 2.322 1_554 S
Ho145 O172 2.378 1_554 S
Ho145 O173 2.524 1_544 S
Ho145 O174 2.381 1_554 S
Ho145 O175 2.669 . S
C146 O164 1.259 . S
C146 O165 1.268 . S
C147 Ho144 2.811 . S
C147 C148 1.488 . S
C147 O166 1.215 . S
C147 O167 1.289 . S
C148 C147 1.488 . S
C148 C149 1.348 . S
C148 C153 1.413 . S
C149 C148 1.348 . S
C149 C150 1.442 . S
C149 H176 0.930 . S
C150 C149 1.442 . S
C150 C151 1.381 . S
C150 H177 0.931 . S
C151 C150 1.381 . S
C151 C152 1.321 . S
C152 C151 1.321 . S
C152 C153 1.403 . S
C152 H178 0.934 . S
C153 C148 1.413 . S
C153 C152 1.403 . S
C153 H179 0.930 . S
C154 O168 1.275 . S
C154 O169 1.256 1_565 S
C155 O170 1.259 1_554 S
C155 O171 1.268 . S
C156 Ho145 2.811 1_556 S
C156 C157 1.488 1_545 S
C156 O172 1.215 . S
C156 O173 1.289 1_545 S
C157 C156 1.488 1_565 S
C157 C158 1.348 . S
C157 C162 1.413 1_565 S
C158 C157 1.348 . S
C158 C159 1.442 . S
C158 H180 0.930 . S
C159 C158 1.442 . S
C159 C160 1.381 . S
C159 H181 0.931 . S
C160 C159 1.381 . S
C160 C161 1.321 . S
C161 C160 1.321 . S
C161 C162 1.403 1_565 S
C161 H182 0.934 . S
C162 C157 1.413 1_545 S
C162 C161 1.403 1_545 S
C162 H183 0.930 . S
C163 O174 1.275 1_554 S
C163 O175 1.256 . S
O164 Ho144 2.322 . S
O164 C146 1.259 . S
O165 Ho145 2.346 . S
O165 C146 1.268 . S
O166 Ho144 2.378 . S
O166 C147 1.215 . S
O167 Ho144 2.524 . S
O167 C147 1.289 . S
O168 Ho144 2.381 1_565 S
O168 C154 1.275 . S
O169 Ho144 2.669 . S
O169 Ho145 2.305 . S
O169 C154 1.256 1_545 S
O170 Ho145 2.322 1_556 S
O170 C155 1.259 1_556 S
O171 Ho144 2.346 . S
O171 C155 1.268 . S
O172 Ho145 2.378 1_556 S
O172 C156 1.215 . S
O173 Ho145 2.524 1_566 S
O173 C156 1.289 1_565 S
O174 Ho145 2.381 1_556 S
O174 C163 1.275 1_556 S
O175 Ho144 2.305 . S
O175 Ho145 2.669 . S
O175 C163 1.256 . S
H176 C149 0.930 . S
H177 C150 0.931 . S
H178 C152 0.934 . S
H179 C153 0.930 . S
H180 C158 0.930 . S
H181 C159 0.931 . S
H182 C161 0.934 . S
H183 C162 0.930 . S
Ho184 C187 2.811 . S
Ho184 O204 2.322 . S
Ho184 O206 2.378 . S
Ho184 O207 2.524 . S
Ho184 O208 2.381 . S
Ho184 O209 2.669 . S
Ho184 O211 2.346 . S
Ho184 O215 2.305 . S
Ho185 C196 2.811 . S
Ho185 O205 2.346 . S
Ho185 O209 2.305 . S
Ho185 O210 2.322 . S
Ho185 O212 2.378 . S
Ho185 O213 2.524 . S
Ho185 O214 2.381 . S
Ho185 O215 2.669 . S
C186 O204 1.259 . S
C186 O205 1.268 . S
C187 Ho184 2.811 . S
C187 C188 1.488 . S
C187 O206 1.215 . S
C187 O207 1.289 . S
C188 C187 1.488 . S
C188 C189 1.348 . S
C188 C193 1.413 . S
C189 C188 1.348 . S
C189 C190 1.442 . S
C189 H216 0.930 . S
C190 C189 1.442 . S
C190 C191 1.381 . S
C190 H217 0.931 . S
C191 C190 1.381 . S
C191 C192 1.321 . S
C192 C191 1.321 . S
C192 C193 1.403 . S
C192 H218 0.934 . S
C193 C188 1.413 . S
C193 C192 1.403 . S
C193 H219 0.930 . S
C194 O208 1.275 . S
C194 O209 1.256 . S
C195 O210 1.259 . S
C195 O211 1.268 . S
C196 Ho185 2.811 . S
C196 C197 1.488 . S
C196 O212 1.215 . S
C196 O213 1.289 . S
C197 C196 1.488 . S
C197 C198 1.348 . S
C197 C202 1.413 . S
C198 C197 1.348 . S
C198 C199 1.442 . S
C198 H220 0.930 . S
C199 C198 1.442 . S
C199 C200 1.381 . S
C199 H221 0.931 . S
C200 C199 1.381 . S
C200 C201 1.321 . S
C201 C200 1.321 . S
C201 C202 1.403 . S
C201 H222 0.934 . S
C202 C197 1.413 . S
C202 C201 1.403 . S
C202 H223 0.930 . S
C203 O214 1.275 . S
C203 O215 1.256 . S
O204 Ho184 2.322 . S
O204 C186 1.259 . S
O205 Ho185 2.346 . S
O205 C186 1.268 . S
O206 Ho184 2.378 . S
O206 C187 1.215 . S
O207 Ho184 2.524 . S
O207 C187 1.289 . S
O208 Ho184 2.381 . S
O208 C194 1.275 . S
O209 Ho184 2.669 . S
O209 Ho185 2.305 . S
O209 C194 1.256 . S
O210 Ho185 2.322 . S
O210 C195 1.259 . S
O211 Ho184 2.346 . S
O211 C195 1.268 . S
O212 Ho185 2.378 . S
O212 C196 1.215 . S
O213 Ho185 2.524 . S
O213 C196 1.289 . S
O214 Ho185 2.381 . S
O214 C203 1.275 . S
O215 Ho184 2.305 . S
O215 Ho185 2.669 . S
O215 C203 1.256 . S
H216 C189 0.930 . S
H217 C190 0.931 . S
H218 C192 0.934 . S
H219 C193 0.930 . S
H220 C198 0.930 . S
H221 C199 0.931 . S
H222 C201 0.934 . S
H223 C202 0.930 . S
Ho224 C227 2.811 . S
Ho224 O244 2.322 . S
Ho224 O246 2.378 . S
Ho224 O247 2.524 . S
Ho224 O248 2.381 1_455 S
Ho224 O249 2.669 1_455 S
Ho224 O251 2.346 1_455 S
Ho224 O255 2.305 1_554 S
Ho225 C236 2.792 1_455 S
Ho225 O245 2.365 1_556 S
Ho225 O249 2.300 1_456 S
Ho225 O250 2.310 1_455 S
Ho225 O252 2.366 1_455 S
Ho225 O253 2.502 1_455 S
Ho225 O254 2.392 . S
Ho225 O255 2.682 . S
C226 O244 1.259 . S
C226 O245 1.268 . S
C227 Ho224 2.811 . S
C227 C228 1.488 . S
C227 O246 1.215 . S
C227 O247 1.289 . S
C228 C227 1.488 . S
C228 C229 1.348 . S
C228 C233 1.413 . S
C229 C228 1.348 . S
C229 C230 1.442 . S
C229 H256 0.930 . S
C230 C229 1.442 . S
C230 C231 1.381 . S
C230 H257 0.931 . S
C231 C230 1.381 . S
C231 C232 1.321 . S
C232 C231 1.321 . S
C232 C233 1.403 . S
C232 H258 0.934 . S
C233 C228 1.413 . S
C233 C232 1.403 . S
C233 H259 0.930 . S
C234 O248 1.275 . S
C234 O249 1.256 . S
C235 O250 1.259 . S
C235 O251 1.268 1_556 S
C236 Ho225 2.792 1_655 S
C236 C237 1.488 . S
C236 O252 1.215 . S
C236 O253 1.289 . S
C237 C236 1.488 . S
C237 C238 1.348 . S
C237 C242 1.413 . S
C238 C237 1.348 . S
C238 C239 1.442 . S
C238 H260 0.930 . S
C239 C238 1.442 . S
C239 C240 1.381 . S
C239 H261 0.931 . S
C240 C239 1.381 . S
C240 C241 1.321 . S
C241 C240 1.321 . S
C241 C242 1.403 . S
C241 H262 0.934 . S
C242 C237 1.413 . S
C242 C241 1.403 . S
C242 H263 0.930 . S
C243 O254 1.275 . S
C243 O255 1.256 . S
O244 Ho224 2.322 . S
O244 C226 1.259 . S
O245 Ho225 2.365 1_554 S
O245 C226 1.268 . S
O246 Ho224 2.378 . S
O246 C227 1.215 . S
O247 Ho224 2.524 . S
O247 C227 1.289 . S
O248 Ho224 2.381 1_655 S
O248 C234 1.275 . S
O249 Ho224 2.669 1_655 S
O249 Ho225 2.300 1_654 S
O249 C234 1.256 . S
O250 Ho225 2.310 1_655 S
O250 C235 1.259 . S
O251 Ho224 2.346 1_655 S
O251 C235 1.268 1_554 S
O252 Ho225 2.366 1_655 S
O252 C236 1.215 . S
O253 Ho225 2.502 1_655 S
O253 C236 1.289 . S
O254 Ho225 2.392 . S
O254 C243 1.275 . S
O255 Ho224 2.305 1_556 S
O255 Ho225 2.682 . S
O255 C243 1.256 . S
H256 C229 0.930 . S
H257 C230 0.931 . S
H258 C232 0.934 . S
H259 C233 0.930 . S
H260 C238 0.930 . S
H261 C239 0.931 . S
H262 C241 0.934 . S
H263 C242 0.930 . S
H264 C276 0.930 . S
H265 C278 0.930 . S
H266 C279 0.930 . S
H267 C283 0.959 . S
H268 C283 0.959 . S
H269 C283 0.961 . S
H270 C284 0.960 . S
H271 C284 0.961 . S
H272 C284 0.959 . S
H273 C287 0.929 . S
H274 C288 0.931 . S
H275 C290 0.930 . S
C276 H264 0.930 . S
C276 C277 1.399 . S
C276 C281 1.399 . S
C277 C276 1.399 . S
C277 C278 1.376 . S
C278 H265 0.930 . S
C278 C277 1.376 . S
C278 C279 1.388 . S
C279 H266 0.930 . S
C279 C278 1.388 . S
C279 C280 1.390 . S
C280 C279 1.390 . S
C280 C281 1.394 . S
C280 C286 1.465 . S
C281 C276 1.399 . S
C281 C280 1.394 . S
C281 C282 1.516 . S
C282 C281 1.516 . S
C282 C283 1.502 . S
C282 C284 1.561 . S
C282 C285 1.526 . S
C283 H267 0.959 . S
C283 H268 0.959 . S
C283 H269 0.961 . S
C283 C282 1.502 . S
C284 H270 0.960 . S
C284 H271 0.961 . S
C284 H272 0.959 . S
C284 C282 1.561 . S
C285 C282 1.526 . S
C285 C286 1.396 . S
C285 C290 1.390 . S
C286 C280 1.465 . S
C286 C285 1.396 . S
C286 C287 1.399 . S
C287 H273 0.929 . S
C287 C286 1.399 . S
C287 C288 1.385 . S
C288 H274 0.931 . S
C288 C287 1.385 . S
C288 C289 1.389 . S
C289 C288 1.389 . S
C289 C290 1.387 . S
C290 H275 0.930 . S
C290 C285 1.390 . S
C290 C289 1.387 . S
H291 C303 0.930 . S
H292 C305 0.930 . S
H293 C306 0.930 . S
H294 C310 0.959 . S
H295 C310 0.959 . S
H296 C310 0.961 . S
H297 C311 0.960 . S
H298 C311 0.968 . S
H299 C311 0.959 . S
H300 C314 0.929 . S
H301 C315 0.931 . S
H302 C317 0.930 . S
C303 H291 0.930 . S
C303 C304 1.399 . S
C303 C308 1.399 . S
C304 C303 1.399 . S
C304 C305 1.376 . S
C305 H292 0.930 . S
C305 C304 1.376 . S
C305 C306 1.388 . S
C306 H293 0.930 . S
C306 C305 1.388 . S
C306 C307 1.390 . S
C307 C306 1.390 . S
C307 C308 1.394 . S
C307 C313 1.465 . S
C308 C303 1.399 . S
C308 C307 1.394 . S
C308 C309 1.516 . S
C309 C308 1.516 . S
C309 C310 1.502 . S
C309 C311 1.561 . S
C309 C312 1.526 . S
C310 H294 0.959 . S
C310 H295 0.959 . S
C310 H296 0.961 . S
C310 C309 1.502 . S
C311 H297 0.960 . S
C311 H298 0.968 . S
C311 H299 0.959 . S
C311 C309 1.561 . S
C312 C309 1.526 . S
C312 C313 1.396 . S
C312 C317 1.390 . S
C313 C307 1.465 . S
C313 C312 1.396 . S
C313 C314 1.399 . S
C314 H300 0.929 . S
C314 C313 1.399 . S
C314 C315 1.385 . S
C315 H301 0.931 . S
C315 C314 1.385 . S
C315 C316 1.389 . S
C316 C315 1.389 . S
C316 C317 1.387 . S
C317 H302 0.930 . S
C317 C312 1.390 . S
C317 C316 1.387 . S
H318 C330 0.930 . S
H319 C332 0.930 . S
H320 C333 0.930 . S
H321 C337 0.959 . S
H322 C337 0.959 . S
H323 C337 0.961 . S
H324 C338 0.960 . S
H325 C338 0.961 . S
H326 C338 0.959 . S
H327 C341 0.929 . S
H328 C342 0.931 . S
H329 C344 0.930 . S
C330 H318 0.930 . S
C330 C331 1.399 . S
C330 C335 1.399 . S
C331 C330 1.399 . S
C331 C332 1.376 . S
C332 H319 0.930 . S
C332 C331 1.376 . S
C332 C333 1.388 . S
C333 H320 0.930 . S
C333 C332 1.388 . S
C333 C334 1.390 . S
C334 C333 1.390 . S
C334 C335 1.394 . S
C334 C340 1.465 . S
C335 C330 1.399 . S
C335 C334 1.394 . S
C335 C336 1.516 . S
C336 C335 1.516 . S
C336 C337 1.502 . S
C336 C338 1.561 . S
C336 C339 1.526 . S
C337 H321 0.959 . S
C337 H322 0.959 . S
C337 H323 0.961 . S
C337 C336 1.502 . S
C338 H324 0.960 . S
C338 H325 0.961 . S
C338 H326 0.959 . S
C338 C336 1.561 . S
C339 C336 1.526 . S
C339 C340 1.396 . S
C339 C344 1.390 . S
C340 C334 1.465 . S
C340 C339 1.396 . S
C340 C341 1.399 . S
C341 H327 0.929 . S
C341 C340 1.399 . S
C341 C342 1.385 . S
C342 H328 0.931 . S
C342 C341 1.385 . S
C342 C343 1.389 . S
C343 C342 1.389 . S
C343 C344 1.387 . S
C344 H329 0.930 . S
C344 C339 1.390 . S
C344 C343 1.387 . S
H345 C357 0.930 . S
H346 C359 0.930 . S
H347 C360 0.930 . S
H348 C364 0.959 . S
H349 C364 0.959 . S
H350 C364 0.961 . S
H351 C365 0.960 . S
H352 C365 0.961 . S
H353 C365 0.959 . S
H354 C368 0.929 . S
H355 C369 0.931 . S
H356 C371 0.930 . S
C357 H345 0.930 . S
C357 C358 1.399 . S
C357 C362 1.399 . S
C358 C357 1.399 . S
C358 C359 1.376 . S
C359 H346 0.930 . S
C359 C358 1.376 . S
C359 C360 1.388 . S
C360 H347 0.930 . S
C360 C359 1.388 . S
C360 C361 1.390 . S
C361 C360 1.390 . S
C361 C362 1.394 . S
C361 C367 1.465 . S
C362 C357 1.399 . S
C362 C361 1.394 . S
C362 C363 1.516 . S
C363 C362 1.516 . S
C363 C364 1.502 . S
C363 C365 1.561 . S
C363 C366 1.526 . S
C364 H348 0.959 . S
C364 H349 0.959 . S
C364 H350 0.961 . S
C364 C363 1.502 . S
C365 H351 0.960 . S
C365 H352 0.961 . S
C365 H353 0.959 . S
C365 C363 1.561 . S
C366 C363 1.526 . S
C366 C367 1.396 . S
C366 C371 1.390 . S
C367 C361 1.465 . S
C367 C366 1.396 . S
C367 C368 1.399 . S
C368 H354 0.929 . S
C368 C367 1.399 . S
C368 C369 1.385 . S
C369 H355 0.931 . S
C369 C368 1.385 . S
C369 C370 1.389 . S
C370 C369 1.389 . S
C370 C371 1.387 . S
C371 H356 0.930 . S
C371 C366 1.390 . S
C371 C370 1.387 . S
H372 C384 0.930 . S
H373 C386 0.930 . S
H374 C387 0.930 . S
H375 C391 0.959 . S
H376 C391 0.959 . S
H377 C391 0.961 . S
H378 C392 0.960 . S
H379 C392 0.961 . S
H380 C392 0.959 . S
H381 C395 0.929 . S
H382 C396 0.931 . S
H383 C398 0.930 . S
C384 H372 0.930 . S
C384 C385 1.399 . S
C384 C389 1.399 . S
C385 C384 1.399 . S
C385 C386 1.376 . S
C386 H373 0.930 . S
C386 C385 1.376 . S
C386 C387 1.388 . S
C387 H374 0.930 . S
C387 C386 1.388 . S
C387 C388 1.390 . S
C388 C387 1.390 . S
C388 C389 1.394 . S
C388 C394 1.465 . S
C389 C384 1.399 . S
C389 C388 1.394 . S
C389 C390 1.516 . S
C390 C389 1.516 . S
C390 C391 1.502 . S
C390 C392 1.561 . S
C390 C393 1.526 . S
C391 H375 0.959 . S
C391 H376 0.959 . S
C391 H377 0.961 . S
C391 C390 1.502 . S
C392 H378 0.960 . S
C392 H379 0.961 . S
C392 H380 0.959 . S
C392 C390 1.561 . S
C393 C390 1.526 . S
C393 C394 1.396 . S
C393 C398 1.390 . S
C394 C388 1.465 . S
C394 C393 1.396 . S
C394 C395 1.399 . S
C395 H381 0.929 . S
C395 C394 1.399 . S
C395 C396 1.385 . S
C396 H382 0.931 . S
C396 C395 1.385 . S
C396 C397 1.389 . S
C397 C396 1.389 . S
C397 C398 1.387 . S
C398 H383 0.930 . S
C398 C393 1.390 . S
C398 C397 1.387 . S
H399 C411 0.930 . S
H400 C413 0.930 . S
H401 C414 0.930 . S
H402 C418 0.959 . S
H403 C418 0.959 . S
H404 C418 0.961 . S
H405 C419 0.960 . S
H406 C419 0.961 . S
H407 C419 0.959 . S
H408 C422 0.929 . S
H409 C423 0.931 . S
H410 C425 0.930 . S
C411 H399 0.930 . S
C411 C412 1.399 . S
C411 C416 1.399 . S
C412 C411 1.399 . S
C412 C413 1.376 . S
C413 H400 0.930 . S
C413 C412 1.376 . S
C413 C414 1.388 . S
C414 H401 0.930 . S
C414 C413 1.388 . S
C414 C415 1.390 . S
C415 C414 1.390 . S
C415 C416 1.394 . S
C415 C421 1.465 . S
C416 C411 1.399 . S
C416 C415 1.394 . S
C416 C417 1.516 . S
C417 C416 1.516 . S
C417 C418 1.502 . S
C417 C419 1.561 . S
C417 C420 1.526 . S
C418 H402 0.959 . S
C418 H403 0.959 . S
C418 H404 0.961 . S
C418 C417 1.502 . S
C419 H405 0.960 . S
C419 H406 0.961 . S
C419 H407 0.959 . S
C419 C417 1.561 . S
C420 C417 1.526 . S
C420 C421 1.396 . S
C420 C425 1.390 . S
C421 C415 1.465 . S
C421 C420 1.396 . S
C421 C422 1.399 . S
C422 H408 0.929 . S
C422 C421 1.399 . S
C422 C423 1.385 . S
C423 H409 0.931 . S
C423 C422 1.385 . S
C423 C424 1.389 . S
C424 C423 1.389 . S
C424 C425 1.387 . S
C425 H410 0.930 . S
C425 C420 1.390 . S
C425 C424 1.387 . S
H426 C438 0.930 . S
H427 C440 0.930 . S
H428 C441 0.930 . S
H429 C445 0.959 . S
H430 C445 0.959 1_554 S
H431 C445 0.961 . S
H432 C446 0.960 . S
H433 C446 0.961 . S
H434 C446 0.959 . S
H435 C449 0.929 . S
H436 C450 0.931 . S
H437 C452 0.947 . S
C438 H426 0.930 . S
C438 C439 1.399 . S
C438 C443 1.399 . S
C439 C438 1.399 . S
C439 C440 1.376 . S
C440 H427 0.930 . S
C440 C439 1.376 . S
C440 C441 1.388 . S
C441 H428 0.930 . S
C441 C440 1.388 . S
C441 C442 1.390 . S
C442 C441 1.390 . S
C442 C443 1.394 . S
C442 C448 1.465 . S
C443 C438 1.399 . S
C443 C442 1.394 . S
C443 C444 1.516 . S
C444 C443 1.516 . S
C444 C445 1.502 . S
C444 C446 1.561 . S
C444 C447 1.526 . S
C445 H429 0.959 . S
C445 H430 0.959 1_556 S
C445 H431 0.961 . S
C445 C444 1.502 . S
C446 H432 0.960 . S
C446 H433 0.961 . S
C446 H434 0.959 . S
C446 C444 1.561 . S
C447 C444 1.526 . S
C447 C448 1.396 . S
C447 C452 1.390 . S
C448 C442 1.465 . S
C448 C447 1.396 . S
C448 C449 1.399 . S
C449 H435 0.929 . S
C449 C448 1.399 . S
C449 C450 1.385 . S
C450 H436 0.931 . S
C450 C449 1.385 . S
C450 C451 1.389 . S
C451 C450 1.389 . S
C451 C452 1.387 . S
C452 H437 0.947 . S
C452 C447 1.390 . S
C452 C451 1.387 . S
H453 C465 0.930 . S
H454 C467 0.930 . S
H455 C468 0.930 . S
H456 C472 0.959 . S
H457 C472 0.959 . S
H458 C472 0.961 . S
H459 C473 0.960 . S
H460 C473 0.961 . S
H461 C473 0.959 . S
H462 C476 0.929 . S
H463 C477 0.931 . S
H464 C479 0.930 . S
C465 H453 0.930 . S
C465 C466 1.399 . S
C465 C470 1.399 . S
C466 C465 1.399 . S
C466 C467 1.376 . S
C467 H454 0.930 . S
C467 C466 1.376 . S
C467 C468 1.388 . S
C468 H455 0.930 . S
C468 C467 1.388 . S
C468 C469 1.390 . S
C469 C468 1.390 . S
C469 C470 1.394 . S
C469 C475 1.465 . S
C470 C465 1.399 . S
C470 C469 1.394 . S
C470 C471 1.516 . S
C471 C470 1.516 . S
C471 C472 1.502 . S
C471 C473 1.561 . S
C471 C474 1.526 . S
C472 H456 0.959 . S
C472 H457 0.959 . S
C472 H458 0.961 . S
C472 C471 1.502 . S
C473 H459 0.960 . S
C473 H460 0.961 . S
C473 H461 0.959 . S
C473 C471 1.561 . S
C474 C471 1.526 . S
C474 C475 1.396 . S
C474 C479 1.390 . S
C475 C469 1.465 . S
C475 C474 1.396 . S
C475 C476 1.399 . S
C476 H462 0.929 . S
C476 C475 1.399 . S
C476 C477 1.385 . S
C477 H463 0.931 . S
C477 C476 1.385 . S
C477 C478 1.389 . S
C478 C477 1.389 . S
C478 C479 1.387 . S
C479 H464 0.930 . S
C479 C474 1.390 . S
C479 C478 1.387 . S
H480 C492 0.930 . S
H481 C494 0.930 . S
H482 C495 0.930 . S
H483 C499 0.959 . S
H484 C499 0.959 . S
H485 C499 0.961 . S
H486 C500 0.960 . S
H487 C500 0.961 . S
H488 C500 0.959 . S
H489 C503 0.929 . S
H490 C504 0.931 . S
H491 C506 0.930 . S
C492 H480 0.930 . S
C492 C493 1.399 . S
C492 C497 1.399 . S
C493 C492 1.399 . S
C493 C494 1.376 . S
C494 H481 0.930 . S
C494 C493 1.376 . S
C494 C495 1.388 . S
C495 H482 0.930 . S
C495 C494 1.388 . S
C495 C496 1.390 . S
C496 C495 1.390 . S
C496 C497 1.394 . S
C496 C502 1.465 . S
C497 C492 1.399 . S
C497 C496 1.394 . S
C497 C498 1.516 . S
C498 C497 1.516 . S
C498 C499 1.502 . S
C498 C500 1.561 . S
C498 C501 1.526 . S
C499 H483 0.959 . S
C499 H484 0.959 . S
C499 H485 0.961 . S
C499 C498 1.502 . S
C500 H486 0.960 . S
C500 H487 0.961 . S
C500 H488 0.959 . S
C500 C498 1.561 . S
C501 C498 1.526 . S
C501 C502 1.396 . S
C501 C506 1.390 . S
C502 C496 1.465 . S
C502 C501 1.396 . S
C502 C503 1.399 . S
C503 H489 0.929 . S
C503 C502 1.399 . S
C503 C504 1.385 . S
C504 H490 0.931 . S
C504 C503 1.385 . S
C504 C505 1.389 . S
C505 C504 1.389 . S
C505 C506 1.387 . S
C506 H491 0.930 . S
C506 C501 1.390 . S
C506 C505 1.387 . S
H507 C519 0.930 . S
H508 C521 0.930 . S
H509 C522 0.930 . S
H510 C526 0.959 . S
H511 C526 0.959 . S
H512 C526 0.961 . S
H513 C527 0.960 . S
H514 C527 0.961 . S
H515 C527 0.959 . S
H516 C530 0.929 1_554 S
H517 C531 0.931 . S
H518 C533 0.930 . S
C519 H507 0.930 . S
C519 C520 1.399 . S
C519 C524 1.399 . S
C520 C519 1.399 . S
C520 C521 1.376 . S
C521 H508 0.930 . S
C521 C520 1.376 . S
C521 C522 1.388 . S
C522 H509 0.930 . S
C522 C521 1.388 . S
C522 C523 1.390 . S
C523 C522 1.390 . S
C523 C524 1.394 . S
C523 C529 1.465 . S
C524 C519 1.399 . S
C524 C523 1.394 . S
C524 C525 1.516 . S
C525 C524 1.516 . S
C525 C526 1.502 . S
C525 C527 1.561 . S
C525 C528 1.526 . S
C526 H510 0.959 . S
C526 H511 0.959 . S
C526 H512 0.961 . S
C526 C525 1.502 . S
C527 H513 0.960 . S
C527 H514 0.961 . S
C527 H515 0.959 . S
C527 C525 1.561 . S
C528 C525 1.526 . S
C528 C529 1.396 . S
C528 C533 1.390 . S
C529 C523 1.465 . S
C529 C528 1.396 . S
C529 C530 1.399 . S
C530 H516 0.929 1_556 S
C530 C529 1.399 . S
C530 C531 1.385 1_556 S
C531 H517 0.931 . S
C531 C530 1.385 1_554 S
C531 C532 1.389 1_554 S
C532 C531 1.389 1_556 S
C532 C533 1.387 . S
C533 H518 0.930 . S
C533 C528 1.390 . S
C533 C532 1.387 . S
H534 C546 0.930 . S
H535 C548 0.930 . S
H536 C549 0.930 . S
H537 C553 0.959 . S
H538 C553 0.959 . S
H539 C553 0.961 . S
H540 C554 0.960 . S
H541 C554 0.961 . S
H542 C554 0.959 . S
H543 C557 0.929 . S
H544 C558 0.931 1_455 S
H545 C560 0.930 . S
C546 H534 0.930 . S
C546 C547 1.399 . S
C546 C551 1.399 . S
C547 C546 1.399 . S
C547 C548 1.376 . S
C548 H535 0.930 . S
C548 C547 1.376 . S
C548 C549 1.388 . S
C549 H536 0.930 . S
C549 C548 1.388 . S
C549 C550 1.390 . S
C550 C549 1.390 . S
C550 C551 1.394 . S
C550 C556 1.465 . S
C551 C546 1.399 . S
C551 C550 1.394 . S
C551 C552 1.516 . S
C552 C551 1.516 . S
C552 C553 1.502 . S
C552 C554 1.561 . S
C552 C555 1.526 . S
C553 H537 0.959 . S
C553 H538 0.959 . S
C553 H539 0.961 . S
C553 C552 1.502 . S
C554 H540 0.960 . S
C554 H541 0.961 . S
C554 H542 0.959 . S
C554 C552 1.561 . S
C555 C552 1.526 . S
C555 C556 1.396 . S
C555 C560 1.390 . S
C556 C550 1.465 . S
C556 C555 1.396 . S
C556 C557 1.399 . S
C557 H543 0.929 . S
C557 C556 1.399 . S
C557 C558 1.385 . S
C558 H544 0.931 1_655 S
C558 C557 1.385 . S
C558 C559 1.389 . S
C559 C558 1.389 . S
C559 C560 1.387 . S
C560 H545 0.930 . S
C560 C555 1.390 . S
C560 C559 1.387 . S
H561 C573 0.930 . S
H562 C575 0.930 . S
H563 C576 0.930 . S
H564 C580 0.959 . S
H565 C580 0.959 . S
H566 C580 0.961 . S
H567 C581 0.960 . S
H568 C581 0.961 . S
H569 C581 0.959 . S
H570 C584 0.929 . S
H571 C585 0.931 . S
H572 C587 0.930 . S
C573 H561 0.930 . S
C573 C574 1.399 . S
C573 C578 1.399 . S
C574 C573 1.399 . S
C574 C575 1.376 . S
C575 H562 0.930 . S
C575 C574 1.376 . S
C575 C576 1.388 . S
C576 H563 0.930 . S
C576 C575 1.388 . S
C576 C577 1.390 . S
C577 C576 1.390 . S
C577 C578 1.394 . S
C577 C583 1.465 . S
C578 C573 1.399 . S
C578 C577 1.394 . S
C578 C579 1.516 . S
C579 C578 1.516 . S
C579 C580 1.502 . S
C579 C581 1.561 . S
C579 C582 1.526 . S
C580 H564 0.959 . S
C580 H565 0.959 . S
C580 H566 0.961 . S
C580 C579 1.502 . S
C581 H567 0.960 . S
C581 H568 0.961 . S
C581 H569 0.959 . S
C581 C579 1.561 . S
C582 C579 1.526 . S
C582 C583 1.396 . S
C582 C587 1.390 . S
C583 C577 1.465 . S
C583 C582 1.396 . S
C583 C584 1.399 . S
C584 H570 0.929 . S
C584 C583 1.399 . S
C584 C585 1.385 . S
C585 H571 0.931 . S
C585 C584 1.385 . S
C585 C586 1.389 . S
C586 C585 1.389 . S
C586 C587 1.387 . S
C587 H572 0.930 . S
C587 C582 1.390 . S
C587 C586 1.387 . S
H588 C600 0.930 . S
H589 C602 0.930 . S
H590 C603 0.930 . S
H591 C607 0.959 . S
H592 C607 0.959 . S
H593 C607 0.961 . S
H594 C608 0.960 . S
H595 C608 0.961 . S
H596 C608 0.959 . S
H597 C611 0.929 . S
H598 C612 0.931 . S
H599 C614 0.930 . S
C600 H588 0.930 . S
C600 C601 1.399 . S
C600 C605 1.399 . S
C601 C600 1.399 . S
C601 C602 1.376 . S
C602 H589 0.930 . S
C602 C601 1.376 . S
C602 C603 1.388 . S
C603 H590 0.930 . S
C603 C602 1.388 . S
C603 C604 1.390 . S
C604 C603 1.390 . S
C604 C605 1.394 . S
C604 C610 1.465 . S
C605 C600 1.399 . S
C605 C604 1.394 . S
C605 C606 1.516 . S
C606 C605 1.516 . S
C606 C607 1.502 . S
C606 C608 1.561 . S
C606 C609 1.526 . S
C607 H591 0.959 . S
C607 H592 0.959 . S
C607 H593 0.961 . S
C607 C606 1.502 . S
C608 H594 0.960 . S
C608 H595 0.961 . S
C608 H596 0.959 . S
C608 C606 1.561 . S
C609 C606 1.526 . S
C609 C610 1.396 . S
C609 C614 1.390 . S
C610 C604 1.465 . S
C610 C609 1.396 . S
C610 C611 1.399 . S
C611 H597 0.929 . S
C611 C610 1.399 . S
C611 C612 1.385 . S
C612 H598 0.931 . S
C612 C611 1.385 . S
C612 C613 1.389 . S
C613 C612 1.389 . S
C613 C614 1.387 . S
C614 H599 0.930 . S
C614 C609 1.390 . S
C614 C613 1.387 . S
H615 C627 0.930 . S
H616 C629 0.930 . S
H617 C630 0.930 . S
H618 C634 0.959 . S
H619 C634 0.959 . S
H620 C634 0.961 . S
H621 C635 0.960 . S
H622 C635 0.961 . S
H623 C635 0.959 . S
H624 C638 0.929 . S
H625 C639 0.931 . S
H626 C641 0.930 . S
C627 H615 0.930 . S
C627 C628 1.399 . S
C627 C632 1.399 . S
C628 C627 1.399 . S
C628 C629 1.376 . S
C629 H616 0.930 . S
C629 C628 1.376 . S
C629 C630 1.388 . S
C630 H617 0.930 . S
C630 C629 1.388 . S
C630 C631 1.390 . S
C631 C630 1.390 . S
C631 C632 1.394 . S
C631 C637 1.465 . S
C632 C627 1.399 . S
C632 C631 1.394 . S
C632 C633 1.516 . S
C633 C632 1.516 . S
C633 C634 1.502 . S
C633 C635 1.561 . S
C633 C636 1.526 . S
C634 H618 0.959 . S
C634 H619 0.959 . S
C634 H620 0.961 . S
C634 C633 1.502 . S
C635 H621 0.960 . S
C635 H622 0.961 . S
C635 H623 0.959 . S
C635 C633 1.561 . S
C636 C633 1.526 . S
C636 C637 1.396 . S
C636 C641 1.390 . S
C637 C631 1.465 . S
C637 C636 1.396 . S
C637 C638 1.399 . S
C638 H624 0.929 . S
C638 C637 1.399 . S
C638 C639 1.385 . S
C639 H625 0.931 . S
C639 C638 1.385 . S
C639 C640 1.389 . S
C640 C639 1.389 . S
C640 C641 1.387 . S
C641 H626 0.930 . S
C641 C636 1.390 . S
C641 C640 1.387 . S
H642 C654 0.930 . S
H643 C656 0.930 . S
H644 C657 0.930 . S
H645 C661 0.959 . S
H646 C661 0.959 . S
H647 C661 0.961 . S
H648 C662 0.960 . S
H649 C662 0.961 . S
H650 C662 0.959 . S
H651 C665 0.929 . S
H652 C666 0.931 . S
H653 C668 0.930 . S
C654 H642 0.930 . S
C654 C655 1.399 . S
C654 C659 1.399 . S
C655 C654 1.399 . S
C655 C656 1.376 . S
C656 H643 0.930 . S
C656 C655 1.376 . S
C656 C657 1.388 . S
C657 H644 0.930 . S
C657 C656 1.388 . S
C657 C658 1.390 . S
C658 C657 1.390 . S
C658 C659 1.394 . S
C658 C664 1.465 . S
C659 C654 1.399 . S
C659 C658 1.394 . S
C659 C660 1.516 . S
C660 C659 1.516 . S
C660 C661 1.502 . S
C660 C662 1.561 . S
C660 C663 1.526 . S
C661 H645 0.959 . S
C661 H646 0.959 . S
C661 H647 0.961 . S
C661 C660 1.502 . S
C662 H648 0.960 . S
C662 H649 0.961 . S
C662 H650 0.959 . S
C662 C660 1.561 . S
C663 C660 1.526 . S
C663 C664 1.396 . S
C663 C668 1.390 . S
C664 C658 1.465 . S
C664 C663 1.396 . S
C664 C665 1.399 . S
C665 H651 0.929 . S
C665 C664 1.399 . S
C665 C666 1.385 . S
C666 H652 0.931 . S
C666 C665 1.385 . S
C666 C667 1.389 . S
C667 C666 1.389 . S
C667 C668 1.387 . S
C668 H653 0.930 . S
C668 C663 1.390 . S
C668 C667 1.387 . S
H669 C681 0.930 . S
H670 C683 0.930 . S
H671 C684 0.930 . S
H672 C688 0.959 . S
H673 C688 0.959 . S
H674 C688 0.961 . S
H675 C689 0.960 . S
H676 C689 0.961 . S
H677 C689 0.959 . S
H678 C692 0.929 . S
H679 C693 0.931 . S
H680 C695 0.930 . S
C681 H669 0.930 . S
C681 C682 1.399 . S
C681 C686 1.399 . S
C682 C681 1.399 . S
C682 C683 1.376 . S
C683 H670 0.930 . S
C683 C682 1.376 . S
C683 C684 1.388 . S
C684 H671 0.930 . S
C684 C683 1.388 . S
C684 C685 1.390 . S
C685 C684 1.390 . S
C685 C686 1.394 . S
C685 C691 1.465 . S
C686 C681 1.399 . S
C686 C685 1.394 . S
C686 C687 1.516 . S
C687 C686 1.516 . S
C687 C688 1.502 . S
C687 C689 1.561 . S
C687 C690 1.526 . S
C688 H672 0.959 . S
C688 H673 0.959 . S
C688 H674 0.961 . S
C688 C687 1.502 . S
C689 H675 0.960 . S
C689 H676 0.961 . S
C689 H677 0.959 . S
C689 C687 1.561 . S
C690 C687 1.526 . S
C690 C691 1.396 . S
C690 C695 1.390 . S
C691 C685 1.465 . S
C691 C690 1.396 . S
C691 C692 1.399 . S
C692 H678 0.929 . S
C692 C691 1.399 . S
C692 C693 1.385 . S
C693 H679 0.931 . S
C693 C692 1.385 . S
C693 C694 1.389 . S
C694 C693 1.389 . S
C694 C695 1.387 . S
C695 H680 0.930 . S
C695 C690 1.390 . S
C695 C694 1.387 . S
H696 C708 0.930 . S
H697 C710 0.930 . S
H698 C711 0.930 . S
H699 C715 0.959 . S
H700 C715 0.959 . S
H701 C715 0.961 . S
H702 C716 0.960 . S
H703 C716 0.961 . S
H704 C716 0.959 . S
H705 C719 0.929 . S
H706 C720 0.931 . S
H707 C722 0.930 . S
C708 H696 0.930 . S
C708 C709 1.399 . S
C708 C713 1.399 . S
C709 C708 1.399 . S
C709 C710 1.376 . S
C710 H697 0.930 . S
C710 C709 1.376 . S
C710 C711 1.388 . S
C711 H698 0.930 . S
C711 C710 1.388 . S
C711 C712 1.390 . S
C712 C711 1.390 . S
C712 C713 1.394 . S
C712 C718 1.465 . S
C713 C708 1.399 . S
C713 C712 1.394 . S
C713 C714 1.516 . S
C714 C713 1.516 . S
C714 C715 1.502 . S
C714 C716 1.561 . S
C714 C717 1.526 . S
C715 H699 0.959 . S
C715 H700 0.959 . S
C715 H701 0.961 . S
C715 C714 1.502 . S
C716 H702 0.960 . S
C716 H703 0.961 . S
C716 H704 0.959 . S
C716 C714 1.561 . S
C717 C714 1.526 . S
C717 C718 1.396 . S
C717 C722 1.390 . S
C718 C712 1.465 . S
C718 C717 1.396 . S
C718 C719 1.399 . S
C719 H705 0.929 . S
C719 C718 1.399 . S
C719 C720 1.385 . S
C720 H706 0.931 . S
C720 C719 1.385 . S
C720 C721 1.389 . S
C721 C720 1.389 . S
C721 C722 1.387 . S
C722 H707 0.930 . S
C722 C717 1.390 . S
C722 C721 1.387 . S
H723 C735 0.930 . S
H724 C737 0.930 . S
H725 C738 0.930 . S
H726 C742 0.959 . S
H727 C742 0.959 . S
H728 C742 0.961 . S
H729 C743 0.960 . S
H730 C743 0.961 . S
H731 C743 0.959 . S
H732 C746 0.929 . S
H733 C747 0.931 . S
H734 C749 0.930 . S
C735 H723 0.930 . S
C735 C736 1.399 . S
C735 C740 1.399 . S
C736 C735 1.399 . S
C736 C737 1.376 . S
C737 H724 0.930 . S
C737 C736 1.376 . S
C737 C738 1.388 . S
C738 H725 0.930 . S
C738 C737 1.388 . S
C738 C739 1.390 . S
C739 C738 1.390 . S
C739 C740 1.394 . S
C739 C745 1.465 . S
C740 C735 1.399 . S
C740 C739 1.394 . S
C740 C741 1.516 . S
C741 C740 1.516 . S
C741 C742 1.502 . S
C741 C743 1.561 . S
C741 C744 1.526 . S
C742 H726 0.959 . S
C742 H727 0.959 . S
C742 H728 0.961 . S
C742 C741 1.502 . S
C743 H729 0.960 . S
C743 H730 0.961 . S
C743 H731 0.959 . S
C743 C741 1.561 . S
C744 C741 1.526 . S
C744 C745 1.396 . S
C744 C749 1.390 . S
C745 C739 1.465 . S
C745 C744 1.396 . S
C745 C746 1.399 . S
C746 H732 0.929 . S
C746 C745 1.399 . S
C746 C747 1.385 . S
C747 H733 0.931 . S
C747 C746 1.385 . S
C747 C748 1.389 . S
C748 C747 1.389 . S
C748 C749 1.387 . S
C749 H734 0.930 . S
C749 C744 1.390 . S
C749 C748 1.387 . S
H750 C762 0.930 . S
H751 C764 0.930 . S
H752 C765 0.930 . S
H753 C769 0.959 . S
H754 C769 0.959 . S
H755 C769 0.961 . S
H756 C770 0.960 . S
H757 C770 0.961 . S
H758 C770 0.959 . S
H759 C773 0.929 . S
H760 C774 0.931 . S
H761 C776 0.930 . S
C762 H750 0.930 . S
C762 C763 1.399 . S
C762 C767 1.399 . S
C763 C762 1.399 . S
C763 C764 1.376 . S
C764 H751 0.930 . S
C764 C763 1.376 . S
C764 C765 1.388 . S
C765 H752 0.930 . S
C765 C764 1.388 . S
C765 C766 1.390 . S
C766 C765 1.390 . S
C766 C767 1.394 . S
C766 C772 1.465 . S
C767 C762 1.399 . S
C767 C766 1.394 . S
C767 C768 1.516 . S
C768 C767 1.516 . S
C768 C769 1.502 . S
C768 C770 1.561 . S
C768 C771 1.526 . S
C769 H753 0.959 . S
C769 H754 0.959 . S
C769 H755 0.961 . S
C769 C768 1.502 . S
C770 H756 0.960 . S
C770 H757 0.961 . S
C770 H758 0.959 . S
C770 C768 1.561 . S
C771 C768 1.526 . S
C771 C772 1.396 . S
C771 C776 1.390 . S
C772 C766 1.465 . S
C772 C771 1.396 . S
C772 C773 1.399 . S
C773 H759 0.929 . S
C773 C772 1.399 . S
C773 C774 1.385 . S
C774 H760 0.931 . S
C774 C773 1.385 . S
C774 C775 1.389 . S
C775 C774 1.389 . S
C775 C776 1.387 . S
C776 H761 0.930 . S
C776 C771 1.390 . S
C776 C775 1.387 . S
H777 C789 0.930 . S
H778 C791 0.930 . S
H779 C792 0.930 . S
H780 C796 0.959 . S
H781 C796 0.959 . S
H782 C796 0.961 . S
H783 C797 0.960 . S
H784 C797 0.961 . S
H785 C797 0.959 . S
H786 C800 0.929 . S
H787 C801 0.931 . S
H788 C803 0.930 . S
C789 H777 0.930 . S
C789 C790 1.399 . S
C789 C794 1.399 . S
C790 C789 1.399 . S
C790 C791 1.376 . S
C791 H778 0.930 . S
C791 C790 1.376 . S
C791 C792 1.388 . S
C792 H779 0.930 . S
C792 C791 1.388 . S
C792 C793 1.390 . S
C793 C792 1.390 . S
C793 C794 1.394 . S
C793 C799 1.465 . S
C794 C789 1.399 . S
C794 C793 1.394 . S
C794 C795 1.516 . S
C795 C794 1.516 . S
C795 C796 1.502 . S
C795 C797 1.561 . S
C795 C798 1.526 . S
C796 H780 0.959 . S
C796 H781 0.959 . S
C796 H782 0.961 . S
C796 C795 1.502 . S
C797 H783 0.960 . S
C797 H784 0.961 . S
C797 H785 0.959 . S
C797 C795 1.561 . S
C798 C795 1.526 . S
C798 C799 1.396 . S
C798 C803 1.390 . S
C799 C793 1.465 . S
C799 C798 1.396 . S
C799 C800 1.399 . S
C800 H786 0.929 . S
C800 C799 1.399 . S
C800 C801 1.385 . S
C801 H787 0.931 . S
C801 C800 1.385 . S
C801 C802 1.389 . S
C802 C801 1.389 . S
C802 C803 1.387 . S
C803 H788 0.930 . S
C803 C798 1.390 . S
C803 C802 1.387 . S
H804 C816 0.930 . S
H805 C818 0.930 . S
H806 C819 0.930 . S
H807 C823 0.959 . S
H808 C823 0.959 . S
H809 C823 0.961 . S
H810 C824 0.960 . S
H811 C824 0.961 . S
H812 C824 0.959 . S
H813 C827 0.929 . S
H814 C828 0.931 . S
H815 C830 0.930 . S
C816 H804 0.930 . S
C816 C817 1.399 . S
C816 C821 1.399 . S
C817 C816 1.399 . S
C817 C818 1.376 . S
C818 H805 0.930 . S
C818 C817 1.376 . S
C818 C819 1.388 . S
C819 H806 0.930 . S
C819 C818 1.388 . S
C819 C820 1.390 . S
C820 C819 1.390 . S
C820 C821 1.394 . S
C820 C826 1.465 . S
C821 C816 1.399 . S
C821 C820 1.394 . S
C821 C822 1.516 . S
C822 C821 1.516 . S
C822 C823 1.502 . S
C822 C824 1.561 . S
C822 C825 1.526 . S
C823 H807 0.959 . S
C823 H808 0.959 . S
C823 H809 0.961 . S
C823 C822 1.502 . S
C824 H810 0.960 . S
C824 H811 0.961 . S
C824 H812 0.959 . S
C824 C822 1.561 . S
C825 C822 1.526 . S
C825 C826 1.396 . S
C825 C830 1.390 . S
C826 C820 1.465 . S
C826 C825 1.396 . S
C826 C827 1.399 . S
C827 H813 0.929 . S
C827 C826 1.399 . S
C827 C828 1.385 . S
C828 H814 0.931 . S
C828 C827 1.385 . S
C828 C829 1.389 . S
C829 C828 1.389 . S
C829 C830 1.387 . S
C830 H815 0.930 . S
C830 C825 1.390 . S
C830 C829 1.387 . S
H831 C843 0.930 . S
H832 C845 0.930 . S
H833 C846 0.930 . S
H834 C850 0.959 . S
H835 C850 0.959 . S
H836 C850 0.961 . S
H837 C851 0.960 . S
H838 C851 0.961 . S
H839 C851 0.959 . S
H840 C854 0.929 . S
H841 C855 0.931 . S
H842 C857 0.930 . S
C843 H831 0.930 . S
C843 C844 1.399 . S
C843 C848 1.399 . S
C844 C843 1.399 . S
C844 C845 1.376 . S
C845 H832 0.930 . S
C845 C844 1.376 . S
C845 C846 1.388 . S
C846 H833 0.930 . S
C846 C845 1.388 . S
C846 C847 1.390 . S
C847 C846 1.390 . S
C847 C848 1.394 . S
C847 C853 1.465 . S
C848 C843 1.399 . S
C848 C847 1.394 . S
C848 C849 1.516 . S
C849 C848 1.516 . S
C849 C850 1.502 . S
C849 C851 1.561 . S
C849 C852 1.526 . S
C850 H834 0.959 . S
C850 H835 0.959 . S
C850 H836 0.961 . S
C850 C849 1.502 . S
C851 H837 0.960 . S
C851 H838 0.961 . S
C851 H839 0.959 . S
C851 C849 1.561 . S
C852 C849 1.526 . S
C852 C853 1.396 . S
C852 C857 1.390 . S
C853 C847 1.465 . S
C853 C852 1.396 . S
C853 C854 1.399 . S
C854 H840 0.929 . S
C854 C853 1.399 . S
C854 C855 1.385 . S
C855 H841 0.931 . S
C855 C854 1.385 . S
C855 C856 1.389 . S
C856 C855 1.389 . S
C856 C857 1.387 . S
C857 H842 0.930 . S
C857 C852 1.390 . S
C857 C856 1.387 . S
H858 C870 0.930 . S
H859 C872 0.930 . S
H860 C873 0.930 . S
H861 C877 0.959 . S
H862 C877 0.959 . S
H863 C877 0.961 . S
H864 C878 0.960 . S
H865 C878 0.961 . S
H866 C878 0.959 . S
H867 C881 0.929 . S
H868 C882 0.931 . S
H869 C884 0.930 . S
C870 H858 0.930 . S
C870 C871 1.399 . S
C870 C875 1.399 . S
C871 C870 1.399 . S
C871 C872 1.376 . S
C872 H859 0.930 . S
C872 C871 1.376 . S
C872 C873 1.388 . S
C873 H860 0.930 . S
C873 C872 1.388 . S
C873 C874 1.390 . S
C874 C873 1.390 . S
C874 C875 1.394 . S
C874 C880 1.465 . S
C875 C870 1.399 . S
C875 C874 1.394 . S
C875 C876 1.516 . S
C876 C875 1.516 . S
C876 C877 1.502 . S
C876 C878 1.561 . S
C876 C879 1.526 . S
C877 H861 0.959 . S
C877 H862 0.959 . S
C877 H863 0.961 . S
C877 C876 1.502 . S
C878 H864 0.960 . S
C878 H865 0.961 . S
C878 H866 0.959 . S
C878 C876 1.561 . S
C879 C876 1.526 . S
C879 C880 1.396 . S
C879 C884 1.390 . S
C880 C874 1.465 . S
C880 C879 1.396 . S
C880 C881 1.399 . S
C881 H867 0.929 . S
C881 C880 1.399 . S
C881 C882 1.385 . S
C882 H868 0.931 . S
C882 C881 1.385 . S
C882 C883 1.389 . S
C883 C882 1.389 . S
C883 C884 1.387 . S
C884 H869 0.930 . S
C884 C879 1.390 . S
C884 C883 1.387 . S
H885 C897 0.930 . S
H886 C899 0.930 . S
H887 C900 0.930 . S
H888 C904 0.959 . S
H889 C904 0.959 . S
H890 C904 0.961 . S
H891 C905 0.960 . S
H892 C905 0.961 . S
H893 C905 0.959 . S
H894 C908 0.929 . S
H895 C909 0.931 . S
H896 C911 0.930 . S
C897 H885 0.930 . S
C897 C898 1.399 . S
C897 C902 1.399 . S
C898 C897 1.399 . S
C898 C899 1.376 . S
C899 H886 0.930 . S
C899 C898 1.376 . S
C899 C900 1.388 . S
C900 H887 0.930 . S
C900 C899 1.388 . S
C900 C901 1.390 . S
C901 C900 1.390 . S
C901 C902 1.394 . S
C901 C907 1.465 . S
C902 C897 1.399 . S
C902 C901 1.394 . S
C902 C903 1.516 . S
C903 C902 1.516 . S
C903 C904 1.502 . S
C903 C905 1.561 . S
C903 C906 1.526 . S
C904 H888 0.959 . S
C904 H889 0.959 . S
C904 H890 0.961 . S
C904 C903 1.502 . S
C905 H891 0.960 . S
C905 H892 0.961 . S
C905 H893 0.959 . S
C905 C903 1.561 . S
C906 C903 1.526 . S
C906 C907 1.396 . S
C906 C911 1.390 . S
C907 C901 1.465 . S
C907 C906 1.396 . S
C907 C908 1.399 . S
C908 H894 0.929 . S
C908 C907 1.399 . S
C908 C909 1.385 . S
C909 H895 0.931 . S
C909 C908 1.385 . S
C909 C910 1.389 . S
C910 C909 1.389 . S
C910 C911 1.387 . S
C911 H896 0.930 . S
C911 C906 1.390 . S
C911 C910 1.387 . S
C277 N1 0.885 . S
C289 C111 0.964 . S
C304 N18 1.109 . S
C316 C160 1.131 . S
C343 C186 2.081 . S
C331 N28 2.122 . S
C358 N40 2.600 . S
C370 C234 2.578 . S
C397 C146 2.417 . S
C385 N5 2.377 . S
C424 C114 0.774 . S
C412 N14 0.712 . S
C451 C235 2.008 . S
C439 N31 2.005 . S
C478 C203 1.391 . S
C466 N41 1.416 . S
C493 N2 1.302 . S
C505 C231 1.374 . S
C532 C163 2.478 1_556 S
C520 N27 2.525 . S
C547 N44 2.420 . S
C559 C115 2.437 . S
C574 N15 0.653 . S
C586 C200 0.726 . S
C613 C120 1.485 . S
C601 N57 1.495 . S
C628 N70 0.826 . S
C640 C151 0.984 . S
C655 N79 2.275 . S
C667 C195 2.318 . S
C682 N93 2.384 . S
C694 C243 2.368 . S
C709 N54 1.948 . S
C721 C155 2.022 1_566 S
C748 C123 1.505 . S
C736 N66 1.537 . S
C775 C226 1.435 . S
C763 N80 1.462 . S
C802 C194 1.684 . S
C790 N96 1.722 . S
C817 N53 1.473 . S
C829 C240 1.510 . S
C856 C154 2.147 . S
C844 N83 2.133 . S
C883 C106 2.622 . S
C871 N92 2.603 . S
C898 N67 0.932 . S
C910 C191 0.858 . S
