# Generated by pormake.
# Topology apo, (3,6)-cn, num edge types: 1
# Building blocks:
#     Node 0, Type 0, BuildingBlock: KAKCAD_clean_linker_0, # of connection points: 3
#     Node 1, Type 0, BuildingBlock: KAKCAD_clean_linker_0, # of connection points: 3
#     Node 2, Type 0, BuildingBlock: KAKCAD_clean_linker_0, # of connection points: 3
#     Node 3, Type 0, BuildingBlock: KAKCAD_clean_linker_0, # of connection points: 3
#     Node 4, Type 0, BuildingBlock: KAKCAD_clean_linker_0, # of connection points: 3
#     Node 5, Type 0, BuildingBlock: KAKCAD_clean_linker_0, # of connection points: 3
#     Node 6, Type 0, BuildingBlock: KAKCAD_clean_linker_0, # of connection points: 3
#     Node 7, Type 0, BuildingBlock: KAKCAD_clean_linker_0, # of connection points: 3
#     Node 8, Type 1, BuildingBlock: KUMBUR_clean_sbu_1, # of connection points: 6
#     Node 9, Type 1, BuildingBlock: KUMBUR_clean_sbu_1, # of connection points: 6
#     Node 10, Type 1, BuildingBlock: KUMBUR_clean_sbu_1, # of connection points: 6
#     Node 11, Type 1, BuildingBlock: KUMBUR_clean_sbu_1, # of connection points: 6
#     Edge 12, Type (0, 1), BuildingBlock: MIFKUJ_clean_linker_0, # of connection points: 2
#     Edge 13, Type (0, 1), BuildingBlock: MIFKUJ_clean_linker_0, # of connection points: 2
#     Edge 14, Type (0, 1), BuildingBlock: MIFKUJ_clean_linker_0, # of connection points: 2
#     Edge 15, Type (0, 1), BuildingBlock: MIFKUJ_clean_linker_0, # of connection points: 2
#     Edge 16, Type (0, 1), BuildingBlock: MIFKUJ_clean_linker_0, # of connection points: 2
#     Edge 17, Type (0, 1), BuildingBlock: MIFKUJ_clean_linker_0, # of connection points: 2
#     Edge 18, Type (0, 1), BuildingBlock: MIFKUJ_clean_linker_0, # of connection points: 2
#     Edge 19, Type (0, 1), BuildingBlock: MIFKUJ_clean_linker_0, # of connection points: 2
#     Edge 20, Type (0, 1), BuildingBlock: MIFKUJ_clean_linker_0, # of connection points: 2
#     Edge 21, Type (0, 1), BuildingBlock: MIFKUJ_clean_linker_0, # of connection points: 2
#     Edge 22, Type (0, 1), BuildingBlock: MIFKUJ_clean_linker_0, # of connection points: 2
#     Edge 23, Type (0, 1), BuildingBlock: MIFKUJ_clean_linker_0, # of connection points: 2
#     Edge 24, Type (0, 1), BuildingBlock: MIFKUJ_clean_linker_0, # of connection points: 2
#     Edge 25, Type (0, 1), BuildingBlock: MIFKUJ_clean_linker_0, # of connection points: 2
#     Edge 26, Type (0, 1), BuildingBlock: MIFKUJ_clean_linker_0, # of connection points: 2
#     Edge 27, Type (0, 1), BuildingBlock: MIFKUJ_clean_linker_0, # of connection points: 2
#     Edge 28, Type (0, 1), BuildingBlock: MIFKUJ_clean_linker_0, # of connection points: 2
#     Edge 29, Type (0, 1), BuildingBlock: MIFKUJ_clean_linker_0, # of connection points: 2
#     Edge 30, Type (0, 1), BuildingBlock: MIFKUJ_clean_linker_0, # of connection points: 2
#     Edge 31, Type (0, 1), BuildingBlock: MIFKUJ_clean_linker_0, # of connection points: 2
#     Edge 32, Type (0, 1), BuildingBlock: MIFKUJ_clean_linker_0, # of connection points: 2
#     Edge 33, Type (0, 1), BuildingBlock: MIFKUJ_clean_linker_0, # of connection points: 2
#     Edge 34, Type (0, 1), BuildingBlock: MIFKUJ_clean_linker_0, # of connection points: 2
#     Edge 35, Type (0, 1), BuildingBlock: MIFKUJ_clean_linker_0, # of connection points: 2
# Relax obj value: 0.010
# Max RMSD: 0.087
# Mean RMSD: 0.069
data_MOF--net-apo--node1-KUMBUR_clean_sbu_1--node2-KAKCAD_clean_linker_0--edge1-MIFKUJ_clean_linker_0
_symmetry_space_group_name_H-M    P1
_symmetry_Int_Tables_number       1
_symmetry_cell_setting            triclinic
loop_
_symmetry_equiv_pos_as_xyz
'x, y, z'
_cell_length_a     36.307864
_cell_length_b     65.38553
_cell_length_c     77.356036
_cell_angle_alpha  89.95689
_cell_angle_beta   90.051097
_cell_angle_gamma 90.400929
loop_
_atom_site_label
_atom_site_type_symbol
_atom_site_fract_x
_atom_site_fract_y
_atom_site_fract_z
_atom_type_partial_charge
C0 C 0.30379 0.43875 0.37536 0.0
C1 C 0.33832 0.44825 0.37772 0.0
C2 C 0.29318 0.42205 0.38556 0.0
C3 C 0.31695 0.41422 0.3983 0.0
C4 C 0.35126 0.42389 0.40083 0.0
C5 C 0.3617 0.44072 0.39075 0.0
C6 C 0.3065 0.39568 0.40853 0.0
C7 C 0.28698 0.37954 0.40067 0.0
C8 C 0.27761 0.36179 0.40996 0.0
C9 C 0.28857 0.36006 0.42734 0.0
C10 C 0.30806 0.37603 0.43555 0.0
C11 C 0.31658 0.39383 0.42603 0.0
C12 C 0.31943 0.37425 0.45405 0.0
C13 C 0.29602 0.36502 0.46633 0.0
C14 C 0.35373 0.38196 0.45964 0.0
C15 C 0.36409 0.38076 0.47704 0.0
C16 C 0.34057 0.37166 0.48929 0.0
C17 C 0.25659 0.34508 0.40131 0.0
C18 C 0.22595 0.34966 0.39091 0.0
C19 C 0.26753 0.32458 0.40292 0.0
C20 C 0.24872 0.30907 0.394 0.0
C21 C 0.21834 0.31371 0.38343 0.0
C22 C 0.20698 0.33416 0.38213 0.0
C23 C 0.30651 0.36369 0.48371 0.0
H24 H 0.28513 0.44393 0.36538 0.0
H25 H 0.26629 0.41526 0.3834 0.0
H26 H 0.37051 0.41822 0.41036 0.0
H27 H 0.38822 0.44782 0.39321 0.0
H28 H 0.27987 0.38047 0.38709 0.0
H29 H 0.33049 0.40646 0.43238 0.0
H30 H 0.28185 0.34625 0.43445 0.0
H31 H 0.26919 0.35919 0.4626 0.0
H32 H 0.37281 0.38882 0.45053 0.0
H33 H 0.39073 0.38679 0.48087 0.0
H34 H 0.21667 0.36528 0.38953 0.0
H35 H 0.29116 0.3206 0.41075 0.0
H36 H 0.28753 0.35685 0.49287 0.0
H37 H 0.18391 0.33826 0.37398 0.0
H38 H 0.25796 0.29344 0.39538 0.0
C39 C 0.20287 0.06579 0.87668 0.0
C40 C 0.16792 0.05712 0.87952 0.0
C41 C 0.21521 0.08224 0.88671 0.0
C42 C 0.19269 0.0906 0.89968 0.0
C43 C 0.15769 0.08182 0.90252 0.0
C44 C 0.14555 0.0652 0.89262 0.0
C45 C 0.20554 0.10851 0.91003 0.0
C46 C 0.22634 0.12418 0.90221 0.0
C47 C 0.23925 0.14104 0.91181 0.0
C48 C 0.23022 0.14235 0.92946 0.0
C49 C 0.20868 0.12709 0.93746 0.0
C50 C 0.19691 0.11013 0.92768 0.0
C51 C 0.19797 0.12889 0.95596 0.0
C52 C 0.22347 0.13551 0.96849 0.0
C53 C 0.16195 0.1239 0.96121 0.0
C54 C 0.15177 0.12525 0.97858 0.0
C55 C 0.17735 0.13161 0.99117 0.0
C56 C 0.26158 0.15732 0.90319 0.0
C57 C 0.28741 0.15223 0.89038 0.0
C58 C 0.2566 0.17808 0.90728 0.0
C59 C 0.2764 0.19333 0.89854 0.0
C60 C 0.30145 0.18824 0.88537 0.0
C61 C 0.30687 0.16746 0.88152 0.0
C62 C 0.21327 0.13685 0.9859 0.0
H63 H 0.22088 0.05969 0.86682 0.0
H64 H 0.2426 0.08829 0.88436 0.0
H65 H 0.13932 0.08802 0.91217 0.0
H66 H 0.1183 0.05894 0.89495 0.0
H67 H 0.23173 0.12351 0.88846 0.0
H68 H 0.18153 0.09796 0.93396 0.0
H69 H 0.23971 0.15532 0.93697 0.0
H70 H 0.25154 0.13926 0.9649 0.0
H71 H 0.14144 0.11912 0.95185 0.0
H72 H 0.12369 0.12146 0.98213 0.0
H73 H 0.2925 0.13641 0.88707 0.0
H74 H 0.23676 0.18263 0.91696 0.0
H75 H 0.23378 0.14157 0.99529 0.0
H76 H 0.32551 0.16288 0.87134 0.0
H77 H 0.27188 0.20913 0.90208 0.0
C78 C 0.81103 0.06932 0.6408 0.0
C79 C 0.84623 0.0608 0.63883 0.0
C80 C 0.80013 0.08595 0.63068 0.0
C81 C 0.82418 0.09452 0.61836 0.0
C82 C 0.8593 0.08591 0.61631 0.0
C83 C 0.87018 0.06925 0.62641 0.0
C84 C 0.81293 0.11258 0.60791 0.0
C85 C 0.7933 0.12861 0.61562 0.0
C86 C 0.78291 0.14588 0.60601 0.0
C87 C 0.7926 0.14709 0.58845 0.0
C88 C 0.81191 0.13112 0.58037 0.0
C89 C 0.82191 0.11394 0.59026 0.0
C90 C 0.8212 0.13226 0.5616 0.0
C91 C 0.79615 0.14056 0.54966 0.0
C92 C 0.85509 0.12496 0.55542 0.0
C93 C 0.86365 0.12588 0.5378 0.0
C94 C 0.83862 0.13424 0.52587 0.0
C95 C 0.76179 0.16255 0.61439 0.0
C96 C 0.73172 0.15788 0.62516 0.0
C97 C 0.77171 0.18317 0.6119 0.0
C98 C 0.75226 0.19876 0.62021 0.0
C99 C 0.72225 0.19405 0.63101 0.0
C100 C 0.7121 0.17344 0.63332 0.0
C101 C 0.80479 0.14161 0.53206 0.0
H102 H 0.79167 0.06296 0.65003 0.0
H103 H 0.77267 0.09197 0.63241 0.0
H104 H 0.87871 0.0923 0.60712 0.0
H105 H 0.89766 0.06324 0.62472 0.0
H106 H 0.78684 0.12792 0.62928 0.0
H107 H 0.83592 0.10131 0.5841 0.0
H108 H 0.78488 0.16048 0.58106 0.0
H109 H 0.76958 0.14609 0.55386 0.0
H110 H 0.87527 0.11867 0.56422 0.0
H111 H 0.88979 0.11984 0.53352 0.0
H112 H 0.72323 0.14215 0.62722 0.0
H113 H 0.79491 0.18723 0.60377 0.0
H114 H 0.785 0.14842 0.52335 0.0
H115 H 0.68936 0.1693 0.6417 0.0
H116 H 0.76059 0.2145 0.6181 0.0
C117 C 0.70621 0.43686 0.13849 0.0
C118 C 0.67182 0.446 0.13575 0.0
C119 C 0.71738 0.42039 0.12832 0.0
C120 C 0.69422 0.41244 0.11531 0.0
C121 C 0.65984 0.42172 0.11254 0.0
C122 C 0.64887 0.43838 0.12258 0.0
C123 C 0.70582 0.3944 0.10489 0.0
C124 C 0.72572 0.3785 0.11267 0.0
C125 C 0.7378 0.3616 0.10304 0.0
C126 C 0.72895 0.36049 0.08535 0.0
C127 C 0.70836 0.37604 0.07737 0.0
C128 C 0.69716 0.39296 0.08722 0.0
C129 C 0.69831 0.37471 0.05876 0.0
C130 C 0.72477 0.36964 0.04626 0.0
C131 C 0.6621 0.37878 0.05338 0.0
C132 C 0.6525 0.37774 0.03589 0.0
C133 C 0.679 0.37285 0.02335 0.0
C134 C 0.7592 0.34515 0.11175 0.0
C135 C 0.78596 0.35021 0.12422 0.0
C136 C 0.75208 0.32437 0.1083 0.0
C137 C 0.77046 0.30905 0.11751 0.0
C138 C 0.79622 0.31419 0.13042 0.0
C139 C 0.80412 0.33494 0.13347 0.0
C140 C 0.71527 0.36885 0.02872 0.0
H141 H 0.72468 0.44262 0.14838 0.0
H142 H 0.74438 0.41398 0.1306 0.0
H143 H 0.64103 0.41586 0.10283 0.0
H144 H 0.62205 0.44503 0.12031 0.0
H145 H 0.73115 0.37903 0.12644 0.0
H146 H 0.68238 0.40526 0.08095 0.0
H147 H 0.73793 0.34751 0.07778 0.0
H148 H 0.75294 0.36656 0.05001 0.0
H149 H 0.64106 0.38259 0.06274 0.0
H150 H 0.6244 0.38101 0.03214 0.0
H151 H 0.79277 0.36604 0.12695 0.0
H152 H 0.73143 0.31993 0.09889 0.0
H153 H 0.73621 0.36487 0.01936 0.0
H154 H 0.82437 0.3394 0.14307 0.0
H155 H 0.76363 0.29319 0.11494 0.0
C156 C 0.67013 0.57382 0.63974 0.0
C157 C 0.67406 0.55392 0.63314 0.0
C158 C 0.6826 0.59077 0.63036 0.0
C159 C 0.69948 0.58826 0.61416 0.0
C160 C 0.70341 0.56836 0.60754 0.0
C161 C 0.69084 0.55139 0.61691 0.0
C162 C 0.71317 0.60633 0.60428 0.0
C163 C 0.73089 0.62257 0.61285 0.0
C164 C 0.74395 0.6397 0.60369 0.0
C165 C 0.73951 0.64042 0.58564 0.0
C166 C 0.7217 0.62434 0.57679 0.0
C167 C 0.70853 0.60743 0.58627 0.0
C168 C 0.71615 0.62516 0.5577 0.0
C169 C 0.70579 0.64343 0.54945 0.0
C170 C 0.71994 0.60738 0.54766 0.0
C171 C 0.71244 0.60768 0.52995 0.0
C172 C 0.70117 0.62579 0.52178 0.0
C173 C 0.76227 0.65672 0.61316 0.0
C174 C 0.74672 0.66432 0.62848 0.0
C175 C 0.79586 0.66501 0.60734 0.0
C176 C 0.81393 0.68026 0.61688 0.0
C177 C 0.79853 0.68769 0.63231 0.0
C178 C 0.76456 0.67968 0.63791 0.0
C179 C 0.69847 0.64375 0.53167 0.0
H180 H 0.65778 0.57633 0.6523 0.0
H181 H 0.67875 0.60587 0.63577 0.0
H182 H 0.71662 0.56585 0.59518 0.0
H183 H 0.694 0.53631 0.61136 0.0
H184 H 0.73533 0.6217 0.62669 0.0
H185 H 0.69372 0.59529 0.57968 0.0
H186 H 0.74981 0.65353 0.57851 0.0
H187 H 0.70222 0.65736 0.55681 0.0
H188 H 0.72865 0.59314 0.55349 0.0
H189 H 0.71548 0.59368 0.52262 0.0
H190 H 0.72071 0.65834 0.6332 0.0
H191 H 0.80858 0.65936 0.59564 0.0
H192 H 0.68959 0.65791 0.52576 0.0
H193 H 0.75214 0.68497 0.6498 0.0
H194 H 0.83993 0.68627 0.61218 0.0
C195 C 0.7973 0.86599 0.02894 0.0
C196 C 0.83176 0.87298 0.02298 0.0
C197 C 0.78848 0.86685 0.04655 0.0
C198 C 0.81392 0.87472 0.0586 0.0
C199 C 0.84875 0.88113 0.05268 0.0
C200 C 0.85754 0.88028 0.03511 0.0
C201 C 0.80386 0.87696 0.07718 0.0
C202 C 0.78403 0.8615 0.08589 0.0
C203 C 0.77458 0.86367 0.10344 0.0
C204 C 0.78475 0.88173 0.11215 0.0
C205 C 0.80464 0.89729 0.10373 0.0
C206 C 0.81408 0.89477 0.08627 0.0
C207 C 0.81594 0.91605 0.11328 0.0
C208 C 0.79101 0.92608 0.12421 0.0
C209 C 0.85198 0.92382 0.1118 0.0
C210 C 0.86303 0.94103 0.12126 0.0
C211 C 0.83821 0.951 0.13234 0.0
C212 C 0.75464 0.84708 0.11289 0.0
C213 C 0.72543 0.83624 0.1051 0.0
C214 C 0.76433 0.84226 0.13002 0.0
C215 C 0.74482 0.82737 0.13926 0.0
C216 C 0.71519 0.8168 0.13161 0.0
C217 C 0.70596 0.82122 0.11435 0.0
C218 C 0.80196 0.94337 0.13358 0.0
H219 H 0.77665 0.86049 0.01994 0.0
H220 H 0.7613 0.86197 0.05065 0.0
H221 H 0.86928 0.88688 0.06164 0.0
H222 H 0.88459 0.88541 0.03101 0.0
H223 H 0.77691 0.84751 0.07913 0.0
H224 H 0.82867 0.90696 0.07962 0.0
H225 H 0.77741 0.88367 0.12563 0.0
H226 H 0.76288 0.92063 0.12543 0.0
H227 H 0.87196 0.91628 0.10364 0.0
H228 H 0.89131 0.94623 0.12016 0.0
H229 H 0.71702 0.83968 0.09199 0.0
H230 H 0.78721 0.84993 0.13632 0.0
H231 H 0.78187 0.95085 0.1417 0.0
H232 H 0.68312 0.81343 0.10812 0.0
H233 H 0.75315 0.82402 0.1524 0.0
C234 C 0.1708 0.93237 0.37394 0.0
C235 C 0.16918 0.95105 0.38279 0.0
C236 C 0.18143 0.91458 0.38254 0.0
C237 C 0.19151 0.91511 0.40013 0.0
C238 C 0.18987 0.93395 0.40893 0.0
C239 C 0.17845 0.95168 0.40039 0.0
C240 C 0.20381 0.89612 0.40914 0.0
C241 C 0.2238 0.88117 0.40015 0.0
C242 C 0.2346 0.86293 0.40824 0.0
C243 C 0.22639 0.85997 0.42582 0.0
C244 C 0.20684 0.87482 0.43518 0.0
C245 C 0.19536 0.8927 0.42665 0.0
C246 C 0.19786 0.87161 0.45378 0.0
C247 C 0.18623 0.85234 0.45985 0.0
C248 C 0.20045 0.8879 0.46559 0.0
C249 C 0.19137 0.88505 0.48299 0.0
C250 C 0.17949 0.86583 0.48905 0.0
C251 C 0.25384 0.84692 0.39808 0.0
C252 C 0.24162 0.84195 0.38135 0.0
C253 C 0.28456 0.83668 0.40485 0.0
C254 C 0.30298 0.82201 0.39497 0.0
C255 C 0.29098 0.81722 0.37813 0.0
C256 C 0.25991 0.82728 0.37151 0.0
C257 C 0.17717 0.84949 0.47726 0.0
H258 H 0.16327 0.9315 0.3604 0.0
H259 H 0.18133 0.90036 0.37537 0.0
H260 H 0.19794 0.93512 0.42237 0.0
H261 H 0.17753 0.96598 0.40743 0.0
H262 H 0.23156 0.8838 0.38681 0.0
H263 H 0.17891 0.90373 0.43361 0.0
H264 H 0.23503 0.84604 0.43218 0.0
H265 H 0.18357 0.8395 0.45109 0.0
H266 H 0.2097 0.90289 0.4614 0.0
H267 H 0.19314 0.89803 0.49165 0.0
H268 H 0.21761 0.84928 0.37588 0.0
H269 H 0.29485 0.84031 0.41764 0.0
H270 H 0.16856 0.83441 0.48151 0.0
H271 H 0.2494 0.82367 0.35876 0.0
H272 H 0.32705 0.81472 0.40041 0.0
C273 C 0.29302 0.64274 0.98508 0.0
C274 C 0.32506 0.63451 0.99243 0.0
C275 C 0.28607 0.64075 0.96736 0.0
C276 C 0.31132 0.63075 0.9565 0.0
C277 C 0.34341 0.62254 0.96395 0.0
C278 C 0.35003 0.62425 0.98171 0.0
C279 C 0.30469 0.62917 0.93746 0.0
C280 C 0.28759 0.64519 0.92834 0.0
C281 C 0.28279 0.64408 0.91035 0.0
C282 C 0.29541 0.62688 0.90138 0.0
C283 C 0.31178 0.61047 0.91019 0.0
C284 C 0.31606 0.61174 0.92824 0.0
C285 C 0.32435 0.59207 0.90051 0.0
C286 C 0.30393 0.58456 0.88637 0.0
C287 C 0.35709 0.58201 0.90514 0.0
C288 C 0.3692 0.56503 0.89578 0.0
C289 C 0.34908 0.55786 0.88147 0.0
C290 C 0.26423 0.66078 0.90082 0.0
C291 C 0.22893 0.66722 0.90574 0.0
C292 C 0.28098 0.66972 0.88626 0.0
C293 C 0.26268 0.68474 0.87674 0.0
C294 C 0.227 0.69082 0.88139 0.0
C295 C 0.21032 0.68196 0.89601 0.0
C296 C 0.31626 0.56775 0.87692 0.0
H297 H 0.27312 0.65056 0.9931 0.0
H298 H 0.26073 0.64694 0.96223 0.0
H299 H 0.36395 0.61512 0.95604 0.0
H300 H 0.37519 0.61799 0.987 0.0
H301 H 0.27891 0.65884 0.93508 0.0
H302 H 0.32766 0.59891 0.93518 0.0
H303 H 0.29222 0.62628 0.88746 0.0
H304 H 0.27819 0.59158 0.88264 0.0
H305 H 0.37384 0.58751 0.91578 0.0
H306 H 0.39478 0.55781 0.89949 0.0
H307 H 0.21537 0.66045 0.91684 0.0
H308 H 0.30821 0.66503 0.88224 0.0
H309 H 0.2999 0.56236 0.8661 0.0
H310 H 0.18291 0.68647 0.89991 0.0
H311 H 0.27605 0.69125 0.86547 0.0
Tb312 Tb 0.04539 0.13541 0.24208 0.0
C313 C 0.88354 0.12113 0.26793 0.0
N314 N 0.9013 0.13874 0.26353 0.0
C315 C 0.84895 0.14948 0.24703 0.0
C316 C 0.8479 0.11678 0.26166 0.0
C317 C 0.88437 0.15308 0.25351 0.0
C318 C 0.83068 0.13121 0.25105 0.0
C319 C 0.88449 0.08859 0.28294 0.0
C320 C 0.90199 0.10711 0.27822 0.0
C321 C 0.84899 0.08413 0.27668 0.0
C322 C 0.83077 0.09817 0.26604 0.0
Tb323 Tb 0.95849 0.14321 0.27515 0.0
N324 N 0.9367 0.11175 0.28378 0.0
C325 C 0.9029 0.07526 0.29407 0.0
C326 C 0.95302 0.09963 0.29596 0.0
C327 C 0.93702 0.08099 0.30085 0.0
H328 H 0.89799 0.16738 0.25071 0.0
H329 H 0.9506 0.07132 0.31023 0.0
H330 H 0.10332 0.10635 0.26389 0.0
H331 H 0.06003 0.21108 0.214 0.0
H332 H 0.97745 0.10447 0.30266 0.0
H333 H 0.89041 0.0609 0.29802 0.0
H334 H 0.0293 0.17835 0.21908 0.0
H335 H 0.8357 0.16083 0.239 0.0
H336 H 0.83526 0.06993 0.2801 0.0
H337 H 0.8034 0.09451 0.26132 0.0
H338 H 0.16675 0.109 0.27508 0.0
H339 H 0.80328 0.12843 0.24597 0.0
H340 H 0.12192 0.21772 0.22619 0.0
N341 N 0.10332 0.13637 0.25337 0.0
C342 C 0.12302 0.15374 0.25035 0.0
C343 C 0.15467 0.12181 0.26835 0.0
C344 C 0.15932 0.15599 0.25657 0.0
C345 C 0.1186 0.12039 0.26211 0.0
C346 C 0.17509 0.13972 0.26566 0.0
N347 N 0.07066 0.16688 0.23602 0.0
C348 C 0.05492 0.18123 0.22556 0.0
C349 C 0.1253 0.18804 0.2385 0.0
C350 C 0.10597 0.16962 0.24161 0.0
C351 C 0.10799 0.20337 0.22893 0.0
C352 C 0.07291 0.19978 0.22218 0.0
H353 H 0.20295 0.14081 0.27062 0.0
H354 H 0.20628 0.17651 0.25848 0.0
H355 H 0.17662 0.20451 0.24253 0.0
O356 O 0.04832 0.13369 0.21449 0.0
O357 O 0.05622 0.15224 0.2662 0.0
O358 O 1.00054 0.16715 0.27202 0.0
O359 O 0.07922 0.11319 0.23117 0.0
O360 O 0.99605 0.15107 0.23215 0.0
O361 O 0.96966 0.16702 0.25587 0.0
O362 O 0.95408 0.14654 0.30244 0.0
O363 O 0.94734 0.12605 0.25108 0.0
O364 O 0.00343 0.11181 0.24558 0.0
O365 O 0.92171 0.16507 0.28478 0.0
O366 O 0.00863 0.1283 0.28503 0.0
O367 O 0.03293 0.1117 0.26126 0.0
C368 C 0.03611 0.16551 0.27469 0.0
C369 C 0.0868 0.10737 0.2006 0.0
C370 C 0.09942 0.10408 0.16971 0.0
C371 C 0.11543 0.08492 0.17285 0.0
C372 C 0.10307 0.08819 0.20336 0.0
C373 C 0.11739 0.07712 0.18957 0.0
C374 C 0.08521 0.11536 0.1837 0.0
C375 C 0.97386 0.16477 0.23904 0.0
C376 C 0.07114 0.11845 0.21549 0.0
C377 C 0.17841 0.17445 0.25375 0.0
C378 C 0.16145 0.19042 0.24473 0.0
C379 C 0.96834 0.11362 0.24221 0.0
C380 C 0.91157 0.17131 0.31531 0.0
C381 C 0.89229 0.17259 0.34555 0.0
C382 C 0.87271 0.19057 0.34203 0.0
C383 C 0.89196 0.18939 0.31216 0.0
C384 C 0.91221 0.16312 0.33217 0.0
C385 C 0.87285 0.19898 0.32547 0.0
C386 C 0.02974 0.11416 0.2781 0.0
C387 C 0.92918 0.1606 0.30072 0.0
H388 H 0.12699 0.07608 0.16235 0.0
H389 H 0.10456 0.08161 0.2162 0.0
H390 H 0.13001 0.06242 0.19183 0.0
H391 H 0.07275 0.13014 0.1814 0.0
H392 H 0.85744 0.19818 0.35216 0.0
H393 H 0.89108 0.19605 0.29934 0.0
H394 H 0.92694 0.14908 0.33476 0.0
H395 H 0.85776 0.21287 0.3229 0.0
Tb396 Tb 0.45516 0.36636 0.74199 0.0
C397 C 0.61877 0.3849 0.75836 0.0
N398 N 0.60239 0.36617 0.75751 0.0
C399 C 0.6519 0.35381 0.73998 0.0
C400 C 0.65202 0.38899 0.7496 0.0
C401 C 0.6187 0.35057 0.74875 0.0
C402 C 0.66851 0.37316 0.74028 0.0
C403 C 0.61718 0.41979 0.76876 0.0
C404 C 0.60117 0.40013 0.76756 0.0
C405 C 0.65006 0.4241 0.75985 0.0
C406 C 0.66741 0.40874 0.75027 0.0
Tb407 Tb 0.5473 0.36271 0.77146 0.0
N408 N 0.56894 0.39548 0.77572 0.0
C409 C 0.6002 0.43435 0.77925 0.0
C410 C 0.55471 0.40898 0.78738 0.0
C411 C 0.56932 0.42875 0.78891 0.0
H412 H 0.60633 0.33556 0.74872 0.0
H413 H 0.55722 0.4395 0.79787 0.0
H414 H 0.39796 0.39234 0.76679 0.0
H415 H 0.44686 0.28965 0.71524 0.0
H416 H 0.53306 0.40452 0.79607 0.0
H417 H 0.61164 0.44962 0.78056 0.0
H418 H 0.47067 0.32463 0.71732 0.0
H419 H 0.66465 0.34139 0.73301 0.0
H420 H 0.66256 0.43918 0.76049 0.0
H421 H 0.69283 0.41225 0.74353 0.0
H422 H 0.34037 0.38563 0.78287 0.0
H423 H 0.69407 0.37567 0.73335 0.0
H424 H 0.39267 0.27911 0.73249 0.0
N425 N 0.40135 0.36212 0.75682 0.0
C426 C 0.38507 0.34339 0.7556 0.0
C427 C 0.35268 0.37363 0.77526 0.0
C428 C 0.3522 0.3389 0.76455 0.0
C429 C 0.38545 0.37733 0.76626 0.0
C430 C 0.33602 0.35433 0.77445 0.0
N431 N 0.4346 0.33339 0.73772 0.0
C432 C 0.44904 0.32005 0.72598 0.0
C433 C 0.38688 0.30873 0.74463 0.0
C434 C 0.40262 0.32845 0.74599 0.0
C435 C 0.4039 0.29441 0.73393 0.0
C436 C 0.43467 0.30025 0.72429 0.0
H437 H 0.31079 0.35148 0.78155 0.0
H438 H 0.31187 0.31532 0.77046 0.0
H439 H 0.34199 0.28896 0.75284 0.0
O440 O 0.44561 0.36681 0.71478 0.0
O441 O 0.45188 0.35251 0.76785 0.0
O442 O 0.50798 0.33723 0.77134 0.0
O443 O 0.41408 0.38569 0.73243 0.0
O444 O 0.50405 0.35145 0.73085 0.0
O445 O 0.53491 0.33711 0.75411 0.0
O446 O 0.55322 0.36227 0.79885 0.0
O447 O 0.5516 0.37703 0.74579 0.0
O448 O 0.49493 0.39164 0.74116 0.0
O449 O 0.58726 0.34342 0.78218 0.0
O450 O 0.49848 0.37824 0.78209 0.0
O451 O 0.46779 0.39243 0.75871 0.0
C452 C 0.47267 0.33831 0.77465 0.0
C453 C 0.39818 0.38907 0.70214 0.0
C454 C 0.38467 0.39257 0.67131 0.0
C455 C 0.35911 0.40793 0.67522 0.0
C456 C 0.37222 0.40437 0.70567 0.0
C457 C 0.35283 0.41367 0.69229 0.0
C458 C 0.40403 0.38301 0.68487 0.0
C459 C 0.52735 0.33809 0.73744 0.0
C460 C 0.41975 0.38031 0.71655 0.0
C461 C 0.337 0.31913 0.76359 0.0
C462 C 0.35428 0.30409 0.75364 0.0
C463 C 0.53065 0.39093 0.73862 0.0
C464 C 0.59842 0.3399 0.81296 0.0
C465 C 0.61238 0.33917 0.84384 0.0
C466 C 0.63301 0.32136 0.84136 0.0
C467 C 0.61946 0.32211 0.81079 0.0
C468 C 0.59503 0.34848 0.82961 0.0
C469 C 0.63657 0.31293 0.82492 0.0
C470 C 0.47623 0.39198 0.77527 0.0
C471 C 0.5792 0.34872 0.79787 0.0
H472 H 0.34368 0.41536 0.66503 0.0
H473 H 0.36708 0.40934 0.7188 0.0
H474 H 0.33298 0.42547 0.69516 0.0
H475 H 0.42403 0.37129 0.68193 0.0
H476 H 0.64647 0.31401 0.8522 0.0
H477 H 0.62235 0.31511 0.79818 0.0
H478 H 0.57887 0.36216 0.83153 0.0
H479 H 0.65254 0.29918 0.82312 0.0
Tb480 Tb 0.05002 0.86498 0.74059 0.0
C481 C 0.90086 0.83276 0.76673 0.0
N482 N 0.91103 0.85238 0.76351 0.0
C483 C 0.85462 0.858 0.74816 0.0
C484 C 0.86779 0.8246 0.76007 0.0
C485 C 0.88791 0.86532 0.75498 0.0
C486 C 0.84476 0.83746 0.75049 0.0
C487 C 0.91331 0.8009 0.78142 0.0
C488 C 0.92334 0.82116 0.77721 0.0
C489 C 0.8812 0.79229 0.77421 0.0
C490 C 0.85849 0.80412 0.76353 0.0
Tb491 Tb 0.96574 0.86298 0.77491 0.0
N492 N 0.95358 0.83027 0.78425 0.0
C493 C 0.93502 0.79023 0.79328 0.0
C494 C 0.97268 0.82054 0.79705 0.0
C495 C 0.96443 0.80023 0.80136 0.0
H496 H 0.89549 0.8812 0.75321 0.0
H497 H 0.98035 0.79241 0.81112 0.0
H498 H 0.10942 0.83054 0.757 0.0
H499 H 0.07432 0.94312 0.72174 0.0
H500 H 0.99411 0.82839 0.80417 0.0
H501 H 0.92838 0.77459 0.79682 0.0
H502 H 0.04156 0.90975 0.72187 0.0
H503 H 0.83666 0.86816 0.74109 0.0
H504 H 0.87308 0.77672 0.77724 0.0
H505 H 0.83337 0.79745 0.75839 0.0
H506 H 0.1661 0.83135 0.77433 0.0
H507 H 0.81903 0.8318 0.74517 0.0
H508 H 0.13032 0.94791 0.73966 0.0
N509 N 0.10495 0.86303 0.75534 0.0
C510 C 0.12348 0.88104 0.75727 0.0
C511 C 0.15405 0.84552 0.76989 0.0
C512 C 0.15713 0.88215 0.76634 0.0
C513 C 0.1212 0.84518 0.76042 0.0
C514 C 0.17171 0.86414 0.7732 0.0
N515 N 0.07813 0.89624 0.73996 0.0
C516 C 0.0659 0.91182 0.72972 0.0
C517 C 0.12956 0.91683 0.74939 0.0
C518 C 0.11008 0.89814 0.74893 0.0
C519 C 0.1161 0.93329 0.73971 0.0
C520 C 0.08445 0.93066 0.7296 0.0
H521 H 0.19743 0.86432 0.78031 0.0
H522 H 0.20167 0.90216 0.77459 0.0
H523 H 0.17733 0.93259 0.75984 0.0
O524 O 0.04217 0.86672 0.71368 0.0
O525 O 0.0388 0.89095 0.75794 0.0
O526 O 0.01985 0.87451 0.78229 0.0
O527 O 0.09226 0.85484 0.72413 0.0
O528 O 0.99803 0.87862 0.73207 0.0
O529 O 0.96559 0.8888 0.75663 0.0
O530 O 0.93968 0.86334 0.79956 0.0
O531 O 0.95846 0.85078 0.7486 0.0
O532 O 0.01493 0.83761 0.74145 0.0
O533 O 0.94392 0.89074 0.78361 0.0
O534 O 0.01967 0.85044 0.78231 0.0
O535 O 0.04541 0.83763 0.75726 0.0
C536 C 0.03494 0.89039 0.77478 0.0
C537 C 0.07248 0.84183 0.69725 0.0
C538 C 0.07972 0.83092 0.66725 0.0
C539 C 0.06935 0.81096 0.67216 0.0
C540 C 0.0626 0.82183 0.70192 0.0
C541 C 0.06087 0.80649 0.68939 0.0
C542 C 0.08101 0.84632 0.67996 0.0
C543 C 0.97427 0.89055 0.74008 0.0
C544 C 0.07352 0.85829 0.71015 0.0
C545 C 0.17589 0.90098 0.7676 0.0
C546 C 0.16212 0.9183 0.75913 0.0
C547 C 0.97877 0.83718 0.74063 0.0
C548 C 0.91278 0.89486 0.8111 0.0
C549 C 0.89383 0.90106 0.84097 0.0
C550 C 0.87792 0.9196 0.83568 0.0
C551 C 0.89675 0.91348 0.80621 0.0
C552 C 0.91085 0.88854 0.82851 0.0
C553 C 0.87928 0.92568 0.81842 0.0
C554 C 0.03963 0.8368 0.77408 0.0
C555 C 0.93257 0.88271 0.79804 0.0
H556 H 0.06842 0.79871 0.66276 0.0
H557 H 0.0564 0.81812 0.71524 0.0
H558 H 0.05315 0.79107 0.69306 0.0
H559 H 0.08826 0.86188 0.67641 0.0
H560 H 0.8642 0.92938 0.84492 0.0
H561 H 0.89777 0.91865 0.7929 0.0
H562 H 0.92356 0.87433 0.83246 0.0
H563 H 0.86693 0.93997 0.81451 0.0
Tb564 Tb 0.46302 0.63886 0.23825 0.0
C565 C 0.62016 0.65768 0.25392 0.0
N566 N 0.60242 0.63955 0.25653 0.0
C567 C 0.65139 0.622 0.24203 0.0
C568 C 0.65315 0.6588 0.24435 0.0
C569 C 0.61906 0.62169 0.25183 0.0
C570 C 0.66808 0.64067 0.23791 0.0
C571 C 0.62512 0.69388 0.26049 0.0
C572 C 0.60651 0.67499 0.26188 0.0
C573 C 0.65696 0.69531 0.25025 0.0
C574 C 0.6709 0.6778 0.24216 0.0
Tb575 Tb 0.54832 0.64156 0.2718 0.0
N576 N 0.57494 0.67319 0.27118 0.0
C577 C 0.61127 0.71068 0.26958 0.0
C578 C 0.56234 0.68917 0.28083 0.0
C579 C 0.58003 0.70824 0.27997 0.0
H580 H 0.6081 0.60709 0.2559 0.0
H581 H 0.56952 0.72105 0.28725 0.0
H582 H 0.39454 0.65772 0.26082 0.0
H583 H 0.47187 0.56919 0.20066 0.0
H584 H 0.53827 0.68725 0.2889 0.0
H585 H 0.62476 0.72549 0.26886 0.0
H586 H 0.48719 0.6049 0.20802 0.0
H587 H 0.66382 0.60779 0.23801 0.0
H588 H 0.67138 0.70977 0.24877 0.0
H589 H 0.69603 0.67901 0.23467 0.0
H590 H 0.33565 0.64535 0.27327 0.0
H591 H 0.69339 0.64084 0.23049 0.0
H592 H 0.42023 0.5516 0.2155 0.0
N593 N 0.40835 0.62886 0.25008 0.0
C594 C 0.39706 0.60946 0.24673 0.0
C595 C 0.35284 0.63504 0.26595 0.0
C596 C 0.36385 0.60168 0.25355 0.0
C597 C 0.38623 0.64198 0.25897 0.0
C598 C 0.34182 0.61471 0.26343 0.0
N599 N 0.44862 0.60658 0.22865 0.0
C600 C 0.46635 0.59698 0.2154 0.0
C601 C 0.40731 0.5777 0.23155 0.0
C602 C 0.41846 0.59773 0.23592 0.0
C603 C 0.4278 0.56704 0.21922 0.0
C604 C 0.45701 0.5769 0.21085 0.0
H605 H 0.31602 0.60935 0.26889 0.0
H606 H 0.32836 0.57496 0.25531 0.0
H607 H 0.36649 0.55391 0.236 0.0
O608 O 0.43546 0.6395 0.21402 0.0
O609 O 0.45694 0.62625 0.26454 0.0
O610 O 0.51408 0.61383 0.27184 0.0
O611 O 0.44236 0.66704 0.22959 0.0
O612 O 0.51578 0.62499 0.23058 0.0
O613 O 0.54397 0.61379 0.25573 0.0
O614 O 0.54167 0.64228 0.2989 0.0
O615 O 0.53492 0.66654 0.25373 0.0
O616 O 0.51681 0.64953 0.22955 0.0
O617 O 0.59315 0.63387 0.28764 0.0
O618 O 0.49661 0.65473 0.28094 0.0
O619 O 0.46384 0.66481 0.25642 0.0
C620 C 0.47786 0.61271 0.2723 0.0
C621 C 0.40998 0.6712 0.20231 0.0
C622 C 0.38927 0.67668 0.1725 0.0
C623 C 0.37208 0.69484 0.17791 0.0
C624 C 0.39315 0.68954 0.20721 0.0
C625 C 0.37421 0.70121 0.19508 0.0
C626 C 0.40808 0.66483 0.18493 0.0
C627 C 0.5368 0.61198 0.23905 0.0
C628 C 0.42973 0.65902 0.21538 0.0
C629 C 0.35352 0.58136 0.24999 0.0
C630 C 0.37529 0.56936 0.23904 0.0
C631 C 0.53415 0.66482 0.23686 0.0
C632 C 0.5782 0.61864 0.31418 0.0
C633 C 0.59541 0.60633 0.34295 0.0
C634 C 0.58996 0.58613 0.33708 0.0
C635 C 0.57228 0.59843 0.30876 0.0
C636 C 0.58928 0.62256 0.33128 0.0
C637 C 0.57804 0.58228 0.32021 0.0
C638 C 0.47173 0.66608 0.27309 0.0
C639 C 0.57471 0.63567 0.30189 0.0
H640 H 0.3565 0.70409 0.16893 0.0
H641 H 0.39429 0.69478 0.22049 0.0
H642 H 0.36095 0.71523 0.19902 0.0
H643 H 0.42191 0.65093 0.18108 0.0
H644 H 0.59526 0.5732 0.34544 0.0
H645 H 0.56393 0.59517 0.2956 0.0
H646 H 0.59309 0.63826 0.33541 0.0
H647 H 0.57378 0.56669 0.31592 0.0
H648 H 0.11273 0.9765 0.39102 0.0
H649 H 0.0909 0.00612 0.37439 0.0
H650 H 0.17825 0.99739 0.33746 0.0
H651 H 0.1995 0.96746 0.35375 0.0
H652 H 0.16349 0.04087 0.35002 0.0
H653 H 0.10683 0.98003 0.32473 0.0
H654 H 0.07061 0.94804 0.32621 0.0
H655 H 0.97845 0.98094 0.34665 0.0
H656 H 0.0144 0.0131 0.34554 0.0
H657 H 0.05087 0.0755 0.26977 0.0
H658 H 0.07736 0.04971 0.2888 0.0
H659 H 0.07355 0.09207 0.33148 0.0
H660 H 0.0475 0.1182 0.31235 0.0
H661 H 0.04692 0.03239 0.31715 0.0
H662 H 0.1439 0.08042 0.35911 0.0
H663 H 0.18092 0.11218 0.35774 0.0
H664 H 0.19424 0.10452 0.30302 0.0
H665 H 0.15699 0.07278 0.30402 0.0
C666 C 0.1274 0.98108 0.37944 0.0
C667 C 0.15765 0.96976 0.37358 0.0
C668 C 0.11497 0.99793 0.37 0.0
C669 C 0.13308 0.00389 0.35476 0.0
C670 C 0.16409 0.99304 0.34924 0.0
C671 C 0.17604 0.97595 0.35846 0.0
C672 C 0.11832 0.02061 0.34397 0.0
C673 C 0.13794 0.03911 0.34287 0.0
C674 C 0.08509 0.01819 0.33466 0.0
C675 C 0.06344 0.99891 0.33526 0.0
C676 C 0.07898 0.9804 0.32971 0.0
C677 C 0.05848 0.96225 0.33044 0.0
C678 C 0.02229 0.96244 0.33657 0.0
C679 C 0.00651 0.98081 0.34194 0.0
C680 C 0.02693 0.999 0.34125 0.0
C681 C 0.056 0.07943 0.28316 0.0
C682 C 0.04706 0.09887 0.28958 0.0
C683 C 0.07097 0.06463 0.29404 0.0
C684 C 0.07754 0.06897 0.31154 0.0
C685 C 0.06905 0.08846 0.31798 0.0
C686 C 0.05401 0.10331 0.30707 0.0
C687 C 0.09215 0.05277 0.32303 0.0
C688 C 0.07237 0.03431 0.32435 0.0
C689 C 0.12524 0.05526 0.33252 0.0
C690 C 0.14745 0.07434 0.33164 0.0
C691 C 0.1547 0.08553 0.34678 0.0
C692 C 0.1756 0.10355 0.34605 0.0
C693 C 0.18968 0.11042 0.33027 0.0
C694 C 0.18292 0.09927 0.31518 0.0
C695 C 0.16183 0.0813 0.31581 0.0
H696 H 0.20595 0.12434 0.32973 0.0
H697 H 0.00645 0.94837 0.33712 0.0
H698 H 0.37427 0.52101 0.89321 0.0
H699 H 0.39494 0.49186 0.87596 0.0
H700 H 0.3755 0.52624 0.82921 0.0
H701 H 0.35394 0.55512 0.84639 0.0
H702 H 0.34991 0.48966 0.82525 0.0
H703 H 0.46388 0.51737 0.84691 0.0
H704 H 0.50872 0.52884 0.86888 0.0
H705 H 0.50972 0.46861 0.89105 0.0
H706 H 0.46434 0.45688 0.86941 0.0
H707 H 0.45013 0.42937 0.7658 0.0
H708 H 0.42684 0.45633 0.78458 0.0
H709 H 0.44319 0.41765 0.82911 0.0
H710 H 0.46712 0.39066 0.81036 0.0
H711 H 0.46921 0.45504 0.83506 0.0
H712 H 0.35423 0.42774 0.8135 0.0
H713 H 0.30959 0.41659 0.7913 0.0
H714 H 0.3131 0.47625 0.76815 0.0
H715 H 0.35741 0.48785 0.79034 0.0
C716 C 0.37466 0.52234 0.87925 0.0
C717 C 0.36247 0.54031 0.87113 0.0
C718 C 0.38657 0.50571 0.8694 0.0
C719 C 0.38723 0.50689 0.85125 0.0
C720 C 0.37518 0.52489 0.84317 0.0
C721 C 0.36283 0.54139 0.85299 0.0
C722 C 0.3995 0.48927 0.84059 0.0
C723 C 0.37622 0.48228 0.8273 0.0
C724 C 0.43339 0.47919 0.8435 0.0
C725 C 0.46033 0.48632 0.85666 0.0
C726 C 0.47334 0.50663 0.85659 0.0
C727 C 0.49891 0.51317 0.86896 0.0
C728 C 0.51195 0.49949 0.88139 0.0
C729 C 0.4995 0.47922 0.88145 0.0
C730 C 0.47384 0.47262 0.86914 0.0
C731 C 0.44844 0.42651 0.77958 0.0
C732 C 0.46052 0.40791 0.78662 0.0
C733 C 0.43498 0.44193 0.7903 0.0
C734 C 0.43283 0.43895 0.80826 0.0
C735 C 0.44457 0.42029 0.8153 0.0
C736 C 0.4582 0.40489 0.80458 0.0
C737 C 0.41974 0.45562 0.81971 0.0
C738 C 0.44284 0.4624 0.83312 0.0
C739 C 0.3858 0.46558 0.81689 0.0
C740 C 0.35933 0.4586 0.80349 0.0
C741 C 0.34564 0.43844 0.80361 0.0
C742 C 0.32038 0.43204 0.79104 0.0
C743 C 0.30877 0.44564 0.77824 0.0
C744 C 0.32217 0.46572 0.77805 0.0
C745 C 0.34722 0.47224 0.79067 0.0
H746 H 0.28927 0.44063 0.76851 0.0
H747 H 0.5318 0.50457 0.89094 0.0
H748 H 0.61065 0.55042 0.65207 0.0
H749 H 0.59022 0.52151 0.66969 0.0
H750 H 0.68623 0.48753 0.65448 0.0
H751 H 0.70732 0.51658 0.63701 0.0
H752 H 0.62259 0.46385 0.6539 0.0
H753 H 0.68502 0.50857 0.69321 0.0
H754 H 0.6996 0.54139 0.70741 0.0
H755 H 0.58883 0.54494 0.7265 0.0
H756 H 0.57341 0.51227 0.71219 0.0
H757 H 0.59555 0.38879 0.72078 0.0
H758 H 0.62355 0.41538 0.70257 0.0
H759 H 0.53214 0.45521 0.7133 0.0
H760 H 0.50434 0.42889 0.73164 0.0
H761 H 0.59918 0.47472 0.71642 0.0
H762 H 0.53591 0.43103 0.67572 0.0
H763 H 0.52104 0.39834 0.66135 0.0
H764 H 0.63347 0.39273 0.64498 0.0
H765 H 0.64916 0.42525 0.65949 0.0
C766 C 0.62763 0.53688 0.65256 0.0
C767 C 0.66083 0.53592 0.64324 0.0
C768 C 0.61581 0.52033 0.66258 0.0
C769 C 0.63694 0.50247 0.66355 0.0
C770 C 0.66954 0.50118 0.65391 0.0
C771 C 0.68147 0.51778 0.64389 0.0
C772 C 0.62516 0.48538 0.67495 0.0
C773 C 0.61804 0.46611 0.66763 0.0
C774 C 0.61878 0.48843 0.6928 0.0
C775 C 0.62798 0.50805 0.7015 0.0
C776 C 0.66368 0.51642 0.70032 0.0
C777 C 0.67211 0.53499 0.70841 0.0
C778 C 0.64514 0.54527 0.71782 0.0
C779 C 0.60969 0.53697 0.71919 0.0
C780 C 0.60109 0.51842 0.71111 0.0
C781 C 0.58165 0.4033 0.71937 0.0
C782 C 0.54786 0.40682 0.72768 0.0
C783 C 0.5975 0.41839 0.70886 0.0
C784 C 0.57977 0.4372 0.70651 0.0
C785 C 0.54624 0.44079 0.71494 0.0
C786 C 0.53031 0.4257 0.72534 0.0
C787 C 0.59596 0.45331 0.69533 0.0
C788 C 0.60401 0.47241 0.70272 0.0
C789 C 0.60317 0.45005 0.67757 0.0
C790 C 0.59381 0.43046 0.66888 0.0
C791 C 0.55756 0.42273 0.66921 0.0
C792 C 0.54896 0.40424 0.66101 0.0
C793 C 0.57634 0.39342 0.65232 0.0
C794 C 0.61232 0.4011 0.65175 0.0
C795 C 0.62108 0.41956 0.65996 0.0
H796 H 0.56965 0.37911 0.64599 0.0
H797 H 0.65172 0.55964 0.72407 0.0
H798 H 0.81924 0.96055 0.1657 0.0
H799 H 0.8393 0.98996 0.18281 0.0
H800 H 0.90539 0.01143 0.14014 0.0
H801 H 0.88475 0.98233 0.12271 0.0
H802 H 0.94304 0.01161 0.17156 0.0
H803 H 0.82664 0.0349 0.14912 0.0
H804 H 0.75989 0.03236 0.14353 0.0
H805 H 0.73886 0.02994 0.19811 0.0
H806 H 0.80554 0.03217 0.20402 0.0
H807 H 0.99255 0.10541 0.20991 0.0
H808 H 0.96829 0.08008 0.18957 0.0
H809 H 0.88414 0.06323 0.22646 0.0
H810 H 0.90733 0.08931 0.24628 0.0
H811 H 0.85542 0.06136 0.19661 0.0
H812 H 0.96775 0.03486 0.22006 0.0
H813 H 0.03379 0.03543 0.22757 0.0
H814 H 0.06192 0.04143 0.17389 0.0
H815 H 0.99596 0.04108 0.16607 0.0
C816 C 0.83758 0.97166 0.15981 0.0
C817 C 0.85023 0.96904 0.14275 0.0
C818 C 0.84915 0.98844 0.16966 0.0
C819 C 0.87363 0.00296 0.1627 0.0
C820 C 0.88653 1.00038 0.14576 0.0
C821 C 0.87481 0.98366 0.13585 0.0
C822 C 0.88626 0.02064 0.17325 0.0
C823 C 0.92399 0.0227 0.17683 0.0
C824 C 0.86124 0.0347 0.18055 0.0
C825 C 0.82112 0.03353 0.177 0.0
C826 C 0.8078 0.03368 0.15992 0.0
C827 C 0.76997 0.03232 0.1567 0.0
C828 C 0.74515 0.03094 0.17045 0.0
C829 C 0.75811 0.03098 0.18746 0.0
C830 C 0.79592 0.03232 0.19076 0.0
C831 C 0.96865 0.09641 0.21355 0.0
C832 C 0.95174 0.09933 0.22966 0.0
C833 C 0.95492 0.08183 0.20199 0.0
C834 C 0.92486 0.06929 0.2066 0.0
C835 C 0.90735 0.07264 0.22254 0.0
C836 C 0.92054 0.08762 0.2339 0.0
C837 C 0.91232 0.05234 0.19509 0.0
C838 C 0.8746 0.05038 0.19131 0.0
C839 C 0.93727 0.03808 0.1879 0.0
C840 C 0.97694 0.03807 0.1925 0.0
C841 C 0.98802 0.03638 0.20987 0.0
C842 C 0.02542 0.03665 0.21417 0.0
C843 C 0.052 0.03843 0.20121 0.0
C844 C 0.04127 0.04 0.18391 0.0
C845 C 0.00389 0.03973 0.17953 0.0
H846 H 0.08093 0.03855 0.20459 0.0
H847 H 0.71588 0.02989 0.16793 0.0
H848 H 0.88474 0.02692 0.62883 0.0
H849 H 0.90398 0.99807 0.64671 0.0
H850 H 0.85284 0.02563 0.6912 0.0
H851 H 0.83437 0.05486 0.67348 0.0
H852 H 0.92007 0.01051 0.69918 0.0
H853 H 0.81119 0.9862 0.67058 0.0
H854 H 0.77066 0.97888 0.64572 0.0
H855 H 0.85237 0.93911 0.62429 0.0
H856 H 0.89363 0.94641 0.64891 0.0
H857 H 0.93032 0.92155 0.75183 0.0
H858 H 0.90538 0.95008 0.73517 0.0
H859 H 0.95465 0.92599 0.68881 0.0
H860 H 0.97913 0.89727 0.70522 0.0
H861 H 0.88577 0.93954 0.68273 0.0
H862 H 0.99527 0.96449 0.71108 0.0
H863 H 0.03507 0.97111 0.73634 0.0
H864 H 0.95197 0.00944 0.75845 0.0
H865 H 0.91135 0.00276 0.73346 0.0
C866 C 0.87785 0.02695 0.64245 0.0
C867 C 0.85791 0.04319 0.6497 0.0
C868 C 0.88859 0.01035 0.65263 0.0
C869 C 0.87948 0.00957 0.67026 0.0
C870 C 0.86004 0.02587 0.67761 0.0
C871 C 0.84923 0.04248 0.66743 0.0
C872 C 0.89025 0.99172 0.68099 0.0
C873 C 0.91212 0.99502 0.69573 0.0
C874 C 0.88042 0.97146 0.67633 0.0
C875 C 0.85564 0.96701 0.66151 0.0
C876 C 0.82064 0.97602 0.66049 0.0
C877 C 0.79751 0.97185 0.64646 0.0
C878 C 0.80897 0.95858 0.63341 0.0
C879 C 0.84355 0.94941 0.63439 0.0
C880 C 0.86681 0.95354 0.64839 0.0
C881 C 0.93563 0.9222 0.73806 0.0
C882 C 0.95705 0.90717 0.72991 0.0
C883 C 0.92147 0.93858 0.72858 0.0
C884 C 0.9286 0.94031 0.71079 0.0
C885 C 0.9489 0.925 0.70253 0.0
C886 C 0.96301 0.90861 0.71197 0.0
C887 C 0.9158 0.95832 0.70081 0.0
C888 C 0.89357 0.95505 0.68621 0.0
C889 C 0.92535 0.97858 0.70561 0.0
C890 C 0.9501 0.98296 0.72046 0.0
C891 C 0.98537 0.97423 0.72137 0.0
C892 C 0.00809 0.97799 0.73564 0.0
C893 C 0.99602 0.99064 0.74901 0.0
C894 C 0.96126 0.99961 0.7481 0.0
C895 C 0.93838 0.99585 0.73388 0.0
H896 H 0.01364 0.99351 0.76005 0.0
H897 H 0.79102 0.95537 0.62255 0.0
H898 H 0.67483 0.44875 0.17093 0.0
H899 H 0.65467 0.4772 0.18915 0.0
H900 H 0.62184 0.5107 0.14371 0.0
H901 H 0.64185 0.48224 0.1254 0.0
H902 H 0.66345 0.53411 0.16829 0.0
H903 H 0.55773 0.48898 0.16598 0.0
H904 H 0.52534 0.45592 0.16914 0.0
H905 H 0.55388 0.4542 0.223 0.0
H906 H 0.58693 0.48713 0.22009 0.0
H907 H 0.55388 0.61153 0.20474 0.0
H908 H 0.57954 0.58337 0.1881 0.0
H909 H 0.58828 0.54729 0.23466 0.0
H910 H 0.56041 0.5751 0.25122 0.0
H911 H 0.56164 0.52462 0.21035 0.0
H912 H 0.6659 0.56953 0.21375 0.0
H913 H 0.70035 0.60206 0.21119 0.0
H914 H 0.67735 0.60397 0.15679 0.0
H915 H 0.64274 0.57147 0.15898 0.0
C916 C 0.66348 0.46223 0.16483 0.0
C917 C 0.65983 0.46329 0.14676 0.0
C918 C 0.65186 0.47841 0.17525 0.0
C919 C 0.63667 0.49599 0.16776 0.0
C920 C 0.6335 0.49724 0.14971 0.0
C921 C 0.64469 0.48095 0.1393 0.0
C922 C 0.62364 0.51299 0.1788 0.0
C923 C 0.64095 0.53215 0.17738 0.0
C924 C 0.59509 0.51017 0.191 0.0
C925 C 0.57515 0.4904 0.19277 0.0
C926 C 0.55739 0.48146 0.17846 0.0
C927 C 0.53885 0.46277 0.18021 0.0
C928 C 0.53765 0.45294 0.19624 0.0
C929 C 0.5549 0.46181 0.21057 0.0
C930 C 0.57352 0.4805 0.20889 0.0
C931 C 0.56107 0.59754 0.21142 0.0
C932 C 0.55472 0.5954 0.22924 0.0
C933 C 0.57623 0.58154 0.20192 0.0
C934 C 0.58638 0.56325 0.21013 0.0
C935 C 0.58071 0.56124 0.22802 0.0
C936 C 0.565 0.57717 0.23749 0.0
C937 C 0.60134 0.54595 0.19988 0.0
C938 C 0.58437 0.52666 0.20141 0.0
C939 C 0.63056 0.54861 0.18793 0.0
C940 C 0.65148 0.56813 0.18656 0.0
C941 C 0.66799 0.57695 0.20125 0.0
C942 C 0.68757 0.59537 0.19987 0.0
C943 C 0.69084 0.60512 0.18387 0.0
C944 C 0.67474 0.59641 0.16918 0.0
C945 C 0.65525 0.57796 0.17047 0.0
H946 H 0.70596 0.6194 0.18284 0.0
H947 H 0.52327 0.43847 0.19758 0.0
H948 H 0.29613 0.4795 0.36457 0.0
H949 H 0.31596 0.50765 0.34584 0.0
H950 H 0.42721 0.48511 0.34705 0.0
H951 H 0.40756 0.45652 0.36518 0.0
H952 H 0.42188 0.52717 0.35377 0.0
H953 H 0.37744 0.47767 0.31221 0.0
H954 H 0.33131 0.45445 0.29925 0.0
H955 H 0.25876 0.50506 0.29071 0.0
H956 H 0.30428 0.52855 0.30386 0.0
H957 H 0.50932 0.57722 0.28345 0.0
H958 H 0.48123 0.55033 0.30115 0.0
H959 H 0.37871 0.58317 0.30152 0.0
H960 H 0.40748 0.61088 0.28494 0.0
H961 H 0.3748 0.53771 0.29418 0.0
H962 H 0.41733 0.58736 0.33441 0.0
H963 H 0.46133 0.61149 0.34772 0.0
H964 H 0.53349 0.56175 0.35997 0.0
H965 H 0.49063 0.53748 0.34615 0.0
C966 C 0.32473 0.48032 0.36068 0.0
C967 C 0.3502 0.46565 0.36647 0.0
C968 C 0.33602 0.4965 0.35003 0.0
C969 C 0.37302 0.49842 0.34502 0.0
C970 C 0.39854 0.48395 0.35083 0.0
C971 C 0.38724 0.46767 0.36132 0.0
C972 C 0.3855 0.5157 0.33398 0.0
C973 C 0.41186 0.52933 0.34068 0.0
C974 C 0.37143 0.51894 0.31712 0.0
C975 C 0.34408 0.50483 0.30921 0.0
C976 C 0.3515 0.48382 0.30772 0.0
C977 C 0.3255 0.47061 0.30031 0.0
C978 C 0.29207 0.47826 0.29421 0.0
C979 C 0.28463 0.49915 0.29547 0.0
C980 C 0.31053 0.51242 0.3029 0.0
C981 C 0.48088 0.57883 0.28738 0.0
C982 C 0.46046 0.59613 0.28257 0.0
C983 C 0.46479 0.56336 0.29736 0.0
C984 C 0.42784 0.56472 0.3025 0.0
C985 C 0.40713 0.58173 0.29748 0.0
C986 C 0.42352 0.59747 0.28787 0.0
C987 C 0.41168 0.54882 0.3139 0.0
C988 C 0.38465 0.53554 0.3073 0.0
C989 C 0.42474 0.54601 0.33095 0.0
C990 C 0.45099 0.56062 0.33902 0.0
C991 C 0.4429 0.58162 0.33966 0.0
C992 C 0.46763 0.59535 0.34732 0.0
C993 C 0.50028 0.58822 0.35463 0.0
C994 C 0.50832 0.56734 0.35424 0.0
C995 C 0.48386 0.55358 0.34645 0.0
H996 H 0.51918 0.59891 0.36065 0.0
H997 H 0.27198 0.46801 0.28847 0.0
H998 H 0.17055 0.05374 0.84438 0.0
H999 H 0.14794 0.02536 0.82651 0.0
H1000 H 0.11299 0.99314 0.87238 0.0
H1001 H 0.13549 0.02151 0.89033 0.0
H1002 H 0.15208 0.96864 0.84817 0.0
H1003 H 0.05074 0.01588 0.84979 0.0
H1004 H 0.02099 0.04939 0.84613 0.0
H1005 H 0.04861 0.04928 0.79217 0.0
H1006 H 0.07907 0.0159 0.79556 0.0
H1007 H 0.04252 0.89163 0.80988 0.0
H1008 H 0.06453 0.92014 0.8275 0.0
H1009 H 0.07865 0.95685 0.78154 0.0
H1010 H 0.054 0.92888 0.76406 0.0
H1011 H 0.05164 0.97931 0.80564 0.0
H1012 H 0.1523 0.93248 0.80307 0.0
H1013 H 0.18264 0.89901 0.80603 0.0
H1014 H 0.15904 0.89851 0.86037 0.0
H1015 H 0.12804 0.93182 0.85775 0.0
C1016 C 0.15823 0.04054 0.85064 0.0
C1017 C 0.15468 0.03982 0.86873 0.0
C1018 C 0.14519 0.02442 0.84043 0.0
C1019 C 0.12866 0.00723 0.84814 0.0
C1020 C 0.12564 0.0063 0.8662 0.0
C1021 C 0.13826 0.02254 0.87641 0.0
C1022 C 0.11415 0.9903 0.83732 0.0
C1023 C 0.12985 0.97086 0.83899 0.0
C1024 C 0.08588 0.99343 0.82503 0.0
C1025 C 0.06758 0.01351 0.82298 0.0
C1026 C 0.05081 0.0231 0.83718 0.0
C1027 C 0.03375 0.04205 0.83515 0.0
C1028 C 0.03301 0.05149 0.81894 0.0
C1029 C 0.04927 0.04197 0.80472 0.0
C1030 C 0.06642 0.02303 0.80669 0.0
C1031 C 0.05016 0.9058 0.80352 0.0
C1032 C 0.04754 0.90781 0.78547 0.0
C1033 C 0.06307 0.92205 0.81361 0.0
C1034 C 0.0743 0.94048 0.80583 0.0
C1035 C 0.07065 0.94271 0.78785 0.0
C1036 C 0.05708 0.92659 0.77781 0.0
C1037 C 0.08951 0.9575 0.81644 0.0
C1038 C 0.07399 0.977 0.81474 0.0
C1039 C 0.11831 0.95447 0.82854 0.0
C1040 C 0.13757 0.9346 0.83019 0.0
C1041 C 0.1534 0.92519 0.81564 0.0
C1042 C 0.17071 0.90625 0.81725 0.0
C1043 C 0.17269 0.89664 0.83335 0.0
C1044 C 0.15746 0.90597 0.8479 0.0
C1045 C 0.14004 0.92489 0.84637 0.0
H1046 H 0.18608 0.88197 0.83456 0.0
H1047 H 0.01977 0.06616 0.81739 0.0
H1048 H 0.13559 0.10391 0.00913 0.0
H1049 H 0.11779 0.105 0.0395 0.0
H1050 H 0.17735 0.16181 0.04583 0.0
H1051 H 0.19521 0.16088 0.0153 0.0
H1052 H 0.19156 0.13603 0.07193 0.0
H1053 H 0.0836 0.16148 0.04481 0.0
H1054 H 0.03265 0.16216 0.02374 0.0
H1055 H 0.99143 0.10509 0.04358 0.0
H1056 H 0.04246 0.10391 0.06462 0.0
H1057 H 0.12313 0.14147 0.1581 0.0
H1058 H 0.1313 0.15207 0.12784 0.0
H1059 H 0.08337 0.09498 0.11082 0.0
H1060 H 0.075 0.08445 0.1409 0.0
H1061 H 0.0616 0.12726 0.0905 0.0
H1062 H 0.17471 0.09981 0.1143 0.0
H1063 H 0.22615 0.09871 0.13512 0.0
H1064 H 0.25749 0.15998 0.12117 0.0
H1065 H 0.20585 0.16154 0.10043 0.0
C1066 C 0.14453 0.11679 0.01689 0.0
C1067 C 0.16663 0.13238 0.00973 0.0
C1068 C 0.13432 0.11739 0.03428 0.0
C1069 C 0.14572 0.13366 0.0449 0.0
C1070 C 0.16812 0.14915 0.03787 0.0
C1071 C 0.17842 0.14855 0.02044 0.0
C1072 C 0.13511 0.13398 0.06345 0.0
C1073 C 0.16306 0.13458 0.07599 0.0
C1074 C 0.09796 0.13184 0.06878 0.0
C1075 C 0.06703 0.13255 0.05623 0.0
C1076 C 0.06382 0.149 0.04461 0.0
C1077 C 0.0349 0.14949 0.03268 0.0
C1078 C 0.00885 0.13366 0.0323 0.0
C1079 C 0.01163 0.11734 0.04389 0.0
C1080 C 0.04052 0.11677 0.05584 0.0
C1081 C 0.11356 0.13144 0.14787 0.0
C1082 C 0.09873 0.11208 0.15178 0.0
C1083 C 0.11844 0.13744 0.13062 0.0
C1084 C 0.10838 0.12419 0.11709 0.0
C1085 C 0.0914 0.10542 0.12104 0.0
C1086 C 0.08679 0.09938 0.13821 0.0
C1087 C 0.11808 0.12887 0.09887 0.0
C1088 C 0.08999 0.12915 0.08641 0.0
C1089 C 0.15507 0.13185 0.0936 0.0
C1090 C 0.18617 0.13089 0.10599 0.0
C1091 C 0.19239 0.11311 0.11578 0.0
C1092 C 0.2216 0.11239 0.12755 0.0
C1093 C 0.245 0.12929 0.12951 0.0
C1094 C 0.23929 0.14692 0.11967 0.0
C1095 C 0.21006 0.14773 0.10791 0.0
H1096 H 0.26761 0.12871 0.13861 0.0
H1097 H 0.98649 0.13407 0.02305 0.0
H1098 H 0.33319 0.33957 0.51188 0.0
H1099 H 0.34832 0.33891 0.54272 0.0
H1100 H 0.38648 0.40145 0.53964 0.0
H1101 H 0.37191 0.40207 0.50878 0.0
H1102 H 0.43109 0.38028 0.55986 0.0
H1103 H 0.29956 0.38849 0.55516 0.0
H1104 H 0.23669 0.37932 0.54571 0.0
H1105 H 0.24453 0.32179 0.57222 0.0
H1106 H 0.30767 0.33052 0.58165 0.0
H1107 H 0.40191 0.41787 0.64462 0.0
H1108 H 0.40276 0.40961 0.61378 0.0
H1109 H 0.38001 0.34631 0.62568 0.0
H1110 H 0.37938 0.35457 0.65672 0.0
H1111 H 0.33165 0.36307 0.60147 0.0
H1112 H 0.46114 0.35809 0.60973 0.0
H1113 H 0.52206 0.36935 0.62028 0.0
H1114 H 0.51696 0.42256 0.58785 0.0
H1115 H 0.45568 0.41182 0.57731 0.0
C1116 C 0.34479 0.35317 0.51779 0.0
C1117 C 0.35112 0.37091 0.50789 0.0
C1118 C 0.35349 0.35278 0.53542 0.0
C1119 C 0.36812 0.37023 0.54361 0.0
C1120 C 0.37533 0.38777 0.53365 0.0
C1121 C 0.36696 0.38811 0.51599 0.0
C1122 C 0.37455 0.37056 0.56264 0.0
C1123 C 0.40928 0.37662 0.56895 0.0
C1124 C 0.34642 0.36532 0.57457 0.0
C1125 C 0.30847 0.36005 0.56893 0.0
C1126 C 0.28797 0.37382 0.55886 0.0
C1127 C 0.25228 0.36871 0.55353 0.0
C1128 C 0.23667 0.34995 0.55832 0.0
C1129 C 0.25669 0.33629 0.56849 0.0
C1130 C 0.29242 0.34131 0.57384 0.0
C1131 C 0.39774 0.40213 0.64065 0.0
C1132 C 0.39052 0.38684 0.65299 0.0
C1133 C 0.39836 0.39741 0.62306 0.0
C1134 C 0.39154 0.37734 0.61743 0.0
C1135 C 0.38543 0.36189 0.62976 0.0
C1136 C 0.38529 0.36657 0.64745 0.0
C1137 C 0.38794 0.37305 0.59865 0.0
C1138 C 0.35367 0.36634 0.59238 0.0
C1139 C 0.41638 0.37788 0.5868 0.0
C1140 C 0.45363 0.3842 0.59281 0.0
C1141 C 0.47288 0.37226 0.60492 0.0
C1142 C 0.5075 0.37855 0.6109 0.0
C1143 C 0.52334 0.39668 0.60477 0.0
C1144 C 0.50465 0.40852 0.59259 0.0
C1145 C 0.46997 0.40233 0.58659 0.0
H1146 H 0.55012 0.40154 0.60945 0.0
H1147 H 0.20903 0.34603 0.55418 0.0
H1148 H 0.61895 0.35391 0.00909 0.0
H1149 H 0.60263 0.35136 0.97843 0.0
H1150 H 0.69916 0.38667 0.96496 0.0
H1151 H 0.7157 0.38928 0.99566 0.0
H1152 H 0.63303 0.39823 0.94664 0.0
H1153 H 0.70432 0.33823 0.96013 0.0
H1154 H 0.71955 0.30726 0.97679 0.0
H1155 H 0.61356 0.2814 0.96476 0.0
H1156 H 0.59749 0.31237 0.94822 0.0
H1157 H 0.65137 0.37094 0.85739 0.0
H1158 H 0.65657 0.38009 0.88805 0.0
H1159 H 0.57346 0.33493 0.90059 0.0
H1160 H 0.56916 0.3255 0.87003 0.0
H1161 H 0.63053 0.32931 0.91988 0.0
H1162 H 0.55901 0.38766 0.90528 0.0
H1163 H 0.54125 0.41867 0.88924 0.0
H1164 H 0.64324 0.44772 0.90349 0.0
H1165 H 0.66185 0.41678 0.91944 0.0
C1166 C 0.63652 0.36129 0.99961 0.0
C1167 C 0.66869 0.37173 1.00477 0.0
C1168 C 0.62722 0.35977 0.98211 0.0
C1169 C 0.64974 0.36879 0.96944 0.0
C1170 C 0.68139 0.37964 0.97455 0.0
C1171 C 0.69096 0.38096 0.99205 0.0
C1172 C 0.6411 0.36603 0.95082 0.0
C1173 C 0.63283 0.38322 0.94068 0.0
C1174 C 0.63988 0.34638 0.94322 0.0
C1175 C 0.64956 0.32771 0.9531 0.0
C1176 C 0.68414 0.32602 0.96116 0.0
C1177 C 0.69294 0.30845 0.97056 0.0
C1178 C 0.6675 0.29239 0.97188 0.0
C1179 C 0.63322 0.29386 0.96376 0.0
C1180 C 0.62426 0.31141 0.95436 0.0
C1181 C 0.63353 0.36345 0.8667 0.0
C1182 C 0.60965 0.34768 0.86145 0.0
C1183 C 0.63645 0.36867 0.88421 0.0
C1184 C 0.6153 0.35826 0.8967 0.0
C1185 C 0.59012 0.34316 0.89125 0.0
C1186 C 0.58745 0.33786 0.87379 0.0
C1187 C 0.62214 0.36153 0.9155 0.0
C1188 C 0.63034 0.34439 0.92573 0.0
C1189 C 0.6229 0.38122 0.92315 0.0
C1190 C 0.61199 0.3998 0.91343 0.0
C1191 C 0.57782 0.40058 0.90486 0.0
C1192 C 0.56756 0.41817 0.89581 0.0
C1193 C 0.59113 0.43514 0.89531 0.0
C1194 C 0.62501 0.43456 0.90387 0.0
C1195 C 0.63542 0.41701 0.91294 0.0
H1196 H 0.58311 0.44875 0.88832 0.0
H1197 H 0.67437 0.2788 0.97915 0.0
H1198 H 0.90564 0.14278 0.51086 0.0
H1199 H 0.92011 0.14528 0.48012 0.0
H1200 H 0.80674 0.13189 0.46748 0.0
H1201 H 0.79247 0.12823 0.49815 0.0
H1202 H 0.8497 0.11268 0.44582 0.0
H1203 H 0.84281 0.18152 0.46717 0.0
H1204 H 0.85841 0.21054 0.48623 0.0
H1205 H 0.97127 0.20776 0.46991 0.0
H1206 H 0.95641 0.17853 0.45091 0.0
H1207 H 0.8315 0.16194 0.36402 0.0
H1208 H 0.8286 0.15108 0.39431 0.0
H1209 H 0.94717 0.15359 0.39743 0.0
H1210 H 0.95003 0.16408 0.36687 0.0
H1211 H 0.90839 0.17624 0.42368 0.0
H1212 H 0.91106 0.10914 0.39935 0.0
H1213 H 0.89207 0.08133 0.3797 0.0
H1214 H 0.78294 0.08228 0.40102 0.0
H1215 H 0.80111 0.11033 0.42062 0.0
C1216 C 0.88385 0.14003 0.50157 0.0
C1217 C 0.84777 0.13542 0.50708 0.0
C1218 C 0.89211 0.1417 0.48396 0.0
C1219 C 0.86441 0.13911 0.47144 0.0
C1220 C 0.82859 0.13405 0.47687 0.0
C1221 C 0.82037 0.13221 0.49446 0.0
C1222 C 0.87241 0.14211 0.45272 0.0
C1223 C 0.86228 0.12665 0.44099 0.0
C1224 C 0.88958 0.16014 0.44637 0.0
C1225 C 0.89859 0.17769 0.45779 0.0
C1226 C 0.87101 0.187 0.46776 0.0
C1227 C 0.87971 0.2035 0.47853 0.0
C1228 C 0.91583 0.21095 0.47932 0.0
C1229 C 0.94332 0.20194 0.46931 0.0
C1230 C 0.93478 0.18542 0.45853 0.0
C1231 C 0.85693 0.15985 0.37112 0.0
C1232 C 0.89104 0.16383 0.3632 0.0
C1233 C 0.85527 0.15361 0.38837 0.0
C1234 C 0.88767 0.15149 0.39809 0.0
C1235 C 0.92187 0.15508 0.39012 0.0
C1236 C 0.92354 0.16096 0.37272 0.0
C1237 C 0.88528 0.14695 0.41686 0.0
C1238 C 0.89632 0.16216 0.42857 0.0
C1239 C 0.86847 0.12885 0.42314 0.0
C1240 C 0.85739 0.11198 0.41136 0.0
C1241 C 0.88292 0.10356 0.39974 0.0
C1242 C 0.87232 0.08772 0.38863 0.0
C1243 C 0.8363 0.08007 0.38908 0.0
C1244 C 0.81083 0.08823 0.40067 0.0
C1245 C 0.82128 0.10409 0.4118 0.0
H1246 H 0.82815 0.0678 0.38048 0.0
H1247 H 0.92251 0.22373 0.48766 0.0
H1248 H 0.86657 0.90343 1.00495 0.0
H1249 H 0.87897 0.90508 0.97399 0.0
H1250 H 0.82789 0.84591 0.9671 0.0
H1251 H 0.81608 0.8439 0.9983 0.0
H1252 H 0.89248 0.85052 0.94769 0.0
H1253 H 0.78018 0.88704 0.95706 0.0
H1254 H 0.73996 0.91238 0.97101 0.0
H1255 H 0.81251 0.96087 0.95484 0.0
H1256 H 0.85346 0.93578 0.941 0.0
H1257 H 0.87372 0.86423 0.85535 0.0
H1258 H 0.86541 0.85651 0.88618 0.0
H1259 H 0.90361 0.91723 0.89917 0.0
H1260 H 0.91134 0.92503 0.86853 0.0
H1261 H 0.84184 0.90944 0.91523 0.0
H1262 H 0.9558 0.87346 0.90716 0.0
H1263 H 0.99742 0.84852 0.89363 0.0
H1264 H 0.92336 0.79961 0.90719 0.0
H1265 H 0.88113 0.82431 0.9207 0.0
C1266 C 0.85842 0.8906 0.99693 0.0
C1267 C 0.84027 0.87353 1.00414 0.0
C1268 C 0.86528 0.89164 0.97919 0.0
C1269 C 0.85402 0.87571 0.9682 0.0
C1270 C 0.83673 0.8584 0.97535 0.0
C1271 C 0.82973 0.85736 0.99314 0.0
C1272 C 0.85927 0.87762 0.94921 0.0
C1273 C 0.88099 0.86322 0.94051 0.0
C1274 C 0.84475 0.89437 0.9399 0.0
C1275 C 0.82004 0.90951 0.94812 0.0
C1276 C 0.7877 0.90309 0.95659 0.0
C1277 C 0.76475 0.91741 0.96446 0.0
C1278 C 0.77371 0.93821 0.96385 0.0
C1279 C 0.80561 0.94475 0.95532 0.0
C1280 C 0.82868 0.93049 0.94745 0.0
C1281 C 0.88089 0.87577 0.86484 0.0
C1282 C 0.89282 0.8953 0.85955 0.0
C1283 C 0.87617 0.87136 0.88245 0.0
C1284 C 0.88383 0.8863 0.89505 0.0
C1285 C 0.89718 0.9055 0.88973 0.0
C1286 C 0.90158 0.90995 0.87221 0.0
C1287 C 0.87588 0.88264 0.91368 0.0
C1288 C 0.85334 0.89668 0.92234 0.0
C1289 C 0.88982 0.86563 0.9229 0.0
C1290 C 0.91512 0.85076 0.91477 0.0
C1291 C 0.94825 0.85741 0.90713 0.0
C1292 C 0.97198 0.84331 0.89949 0.0
C1293 C 0.96297 0.8225 0.89948 0.0
C1294 C 0.93027 0.81574 0.90717 0.0
C1295 C 0.90646 0.82977 0.91485 0.0
H1296 H 0.98138 0.8116 0.89356 0.0
H1297 H 0.75591 0.94928 0.96995 0.0
H1298 H 0.72023 0.6538 0.49681 0.0
H1299 H 0.70477 0.6528 0.46596 0.0
H1300 H 0.64384 0.59669 0.47394 0.0
H1301 H 0.65957 0.59749 0.50461 0.0
H1302 H 0.68562 0.59325 0.4466 0.0
H1303 H 0.60137 0.64402 0.46786 0.0
H1304 H 0.58391 0.67596 0.48258 0.0
H1305 H 0.64859 0.71079 0.44644 0.0
H1306 H 0.66683 0.67901 0.43164 0.0
H1307 H 0.57676 0.58497 0.37233 0.0
H1308 H 0.59744 0.59073 0.40175 0.0
H1309 H 0.66236 0.64244 0.38489 0.0
H1310 H 0.64196 0.6367 0.3551 0.0
H1311 H 0.62436 0.65006 0.41551 0.0
H1312 H 0.70468 0.5987 0.3931 0.0
H1313 H 0.71988 0.56646 0.3783 0.0
H1314 H 0.66055 0.53241 0.41687 0.0
H1315 H 0.64453 0.56447 0.43178 0.0
C1316 C 0.70331 0.64135 0.49198 0.0
C1317 C 0.69127 0.62567 0.50312 0.0
C1318 C 0.69445 0.6408 0.47435 0.0
C1319 C 0.67291 0.62473 0.46761 0.0
C1320 C 0.66066 0.60918 0.47878 0.0
C1321 C 0.66973 0.60963 0.49632 0.0
C1322 C 0.66368 0.62366 0.44888 0.0
C1323 C 0.67191 0.60562 0.43988 0.0
C1324 C 0.64678 0.64002 0.43991 0.0
C1325 C 0.6358 0.65912 0.44877 0.0
C1326 C 0.61211 0.65848 0.46314 0.0
C1327 C 0.60203 0.67655 0.47148 0.0
C1328 C 0.61523 0.69539 0.46548 0.0
C1329 C 0.63845 0.69618 0.4511 0.0
C1330 C 0.64865 0.67815 0.44272 0.0
C1331 C 0.5955 0.59755 0.37469 0.0
C1332 C 0.60754 0.61032 0.36113 0.0
C1333 C 0.60729 0.60084 0.39163 0.0
C1334 C 0.63177 0.61687 0.3955 0.0
C1335 C 0.6434 0.62998 0.38218 0.0
C1336 C 0.63155 0.62669 0.36515 0.0
C1337 C 0.64557 0.61949 0.41345 0.0
C1338 C 0.63834 0.63779 0.42225 0.0
C1339 C 0.66323 0.60335 0.42231 0.0
C1340 C 0.6732 0.58401 0.41349 0.0
C1341 C 0.69468 0.58434 0.39837 0.0
C1342 C 0.70346 0.5661 0.38997 0.0
C1343 C 0.69113 0.5474 0.39662 0.0
C1344 C 0.67007 0.5469 0.41173 0.0
C1345 C 0.66117 0.56511 0.42017 0.0
H1346 H 0.69795 0.53329 0.39009 0.0
H1347 H 0.60739 0.70936 0.47195 0.0
H1348 H 0.32246 0.6696 0.01141 0.0
H1349 H 0.33724 0.674 0.04211 0.0
H1350 H 0.35986 0.60955 0.04643 0.0
H1351 H 0.34555 0.60509 0.01561 0.0
H1352 H 0.31344 0.62688 0.07367 0.0
H1353 H 0.42969 0.63782 0.04542 0.0
H1354 H 0.47137 0.65332 0.02386 0.0
H1355 H 0.44946 0.71299 0.04443 0.0
H1356 H 0.40717 0.69787 0.06595 0.0
H1357 H 0.38372 0.63769 0.15902 0.0
H1358 H 0.37779 0.62784 0.12869 0.0
H1359 H 0.38203 0.69139 0.1137 0.0
H1360 H 0.39068 0.70123 0.14372 0.0
H1361 H 0.41837 0.67108 0.09153 0.0
H1362 H 0.29865 0.66203 0.11749 0.0
H1363 H 0.25386 0.64812 0.13846 0.0
H1364 H 0.27846 0.58706 0.12188 0.0
H1365 H 0.32375 0.60061 0.10096 0.0
C1366 C 0.33038 0.65636 0.01893 0.0
C1367 C 0.3329 0.63701 0.01114 0.0
C1368 C 0.33896 0.6589 0.03642 0.0
C1369 C 0.34979 0.64211 0.04649 0.0
C1370 C 0.35161 0.62269 0.03886 0.0
C1371 C 0.34361 0.62019 0.02127 0.0
C1372 C 0.35948 0.64501 0.06496 0.0
C1373 C 0.33673 0.63625 0.07764 0.0
C1374 C 0.38939 0.65759 0.07005 0.0
C1375 C 0.415 0.66672 0.0572 0.0
C1376 C 0.4335 0.65426 0.04525 0.0
C1377 C 0.45729 0.66298 0.03306 0.0
C1378 C 0.463 0.68413 0.03275 0.0
C1379 C 0.44499 0.69661 0.04467 0.0
C1380 C 0.42113 0.68797 0.05688 0.0
C1381 C 0.3841 0.64957 0.14927 0.0
C1382 C 0.38724 0.67032 0.15397 0.0
C1383 C 0.38017 0.64391 0.1319 0.0
C1384 C 0.37859 0.65888 0.11885 0.0
C1385 C 0.38287 0.67951 0.12347 0.0
C1386 C 0.38733 0.68515 0.14075 0.0
C1387 C 0.37185 0.6533 0.10042 0.0
C1388 C 0.39521 0.66154 0.08768 0.0
C1389 C 0.34212 0.64049 0.09527 0.0
C1390 C 0.31488 0.63232 0.10782 0.0
C1391 C 0.29469 0.64563 0.11841 0.0
C1392 C 0.26919 0.63781 0.13027 0.0
C1393 C 0.2634 0.61671 0.13154 0.0
C1394 C 0.28303 0.60339 0.12091 0.0
C1395 C 0.3086 0.61113 0.10905 0.0
H1396 H 0.24364 0.61069 0.14073 0.0
H1397 H 0.48142 0.69085 0.0233 0.0
H1398 H 0.21387 0.88159 0.51776 0.0
H1399 H 0.19657 0.87699 0.54805 0.0
H1400 H 0.10554 0.83838 0.53261 0.0
H1401 H 0.1218 0.84353 0.50226 0.0
H1402 H 0.08478 0.86466 0.55723 0.0
H1403 H 0.18576 0.81825 0.54896 0.0
H1404 H 0.2488 0.8086 0.54058 0.0
H1405 H 0.29338 0.85024 0.57819 0.0
H1406 H 0.23057 0.86035 0.58664 0.0
H1407 H 0.04542 0.81737 0.63777 0.0
H1408 H 0.06248 0.82449 0.60778 0.0
H1409 H 0.15252 0.86257 0.6253 0.0
H1410 H 0.13631 0.85501 0.65533 0.0
H1411 H 0.17437 0.83781 0.5999 0.0
H1412 H 0.07429 0.88366 0.60887 0.0
H1413 H 0.01161 0.89391 0.61732 0.0
H1414 H 0.96569 0.85421 0.57859 0.0
H1415 H 0.02811 0.84349 0.57006 0.0
C1416 C 0.18995 0.87227 0.52078 0.0
C1417 C 0.16931 0.86287 0.50754 0.0
C1418 C 0.18031 0.86949 0.53813 0.0
C1419 C 0.15002 0.85713 0.54264 0.0
C1420 C 0.12911 0.84792 0.52946 0.0
C1421 C 0.13868 0.85072 0.51211 0.0
C1422 C 0.14004 0.85377 0.56107 0.0
C1423 C 0.10423 0.85854 0.56651 0.0
C1424 C 0.1657 0.84634 0.57331 0.0
C1425 C 0.20347 0.8402 0.56831 0.0
C1426 C 0.20901 0.82546 0.55535 0.0
C1427 C 0.2447 0.81989 0.5506 0.0
C1428 C 0.27508 0.82884 0.55881 0.0
C1429 C 0.26982 0.84334 0.57182 0.0
C1430 C 0.23419 0.84898 0.57661 0.0
C1431 C 0.06899 0.82717 0.63525 0.0
C1432 C 0.08947 0.83563 0.64897 0.0
C1433 C 0.07849 0.83139 0.61809 0.0
C1434 C 0.10855 0.84426 0.61428 0.0
C1435 C 0.12914 0.85267 0.62793 0.0
C1436 C 0.11964 0.84846 0.64509 0.0
C1437 C 0.11901 0.84855 0.59604 0.0
C1438 C 0.15492 0.84397 0.59064 0.0
C1439 C 0.09348 0.85622 0.58385 0.0
C1440 C 0.05588 0.86262 0.58895 0.0
C1441 C 0.05082 0.87698 0.60225 0.0
C1442 C 0.01534 0.8829 0.60703 0.0
C1443 C 0.98468 0.87467 0.59852 0.0
C1444 C 0.98946 0.86054 0.58518 0.0
C1445 C 0.02488 0.85456 0.58036 0.0
H1446 H 0.95723 0.87928 0.60224 0.0
H1447 H 0.30269 0.82451 0.55512 0.0
H1448 H 0.24928 0.2828 0.3647 0.0
H1449 H 0.2178 0.25706 0.34698 0.0
H1450 H 0.11275 0.28224 0.36138 0.0
H1451 H 0.14406 0.3079 0.37931 0.0
H1452 H 0.11292 0.23974 0.36218 0.0
H1453 H 0.14779 0.29365 0.32307 0.0
H1454 H 0.19065 0.31791 0.30905 0.0
H1455 H 0.2548 0.26788 0.28991 0.0
H1456 H 0.2126 0.24331 0.30404 0.0
H1457 H 0.00475 0.19621 0.29369 0.0
H1458 H 0.03569 0.22043 0.31306 0.0
H1459 H 0.14012 0.1924 0.30193 0.0
H1460 H 0.10935 0.16761 0.28323 0.0
H1461 H 0.14008 0.23626 0.29938 0.0
H1462 H 0.10822 0.18255 0.33831 0.0
H1463 H 0.06825 0.15732 0.35291 0.0
H1464 H 0.00075 0.20572 0.37249 0.0
H1465 H 0.04014 0.23129 0.35778 0.0
C1466 C 0.21946 0.28271 0.36427 0.0
C1467 C 0.19916 0.29743 0.37337 0.0
C1468 C 0.20152 0.26809 0.35403 0.0
C1469 C 0.16294 0.26787 0.35272 0.0
C1470 C 0.14254 0.28218 0.36216 0.0
C1471 C 0.16047 0.2969 0.37231 0.0
C1472 C 0.14395 0.25299 0.3412 0.0
C1473 C 0.11843 0.23919 0.34841 0.0
C1474 C 0.15187 0.25191 0.32331 0.0
C1475 C 0.17725 0.26665 0.31477 0.0
C1476 C 0.17122 0.28782 0.316 0.0
C1477 C 0.19536 0.30163 0.30801 0.0
C1478 C 0.22549 0.29444 0.29864 0.0
C1479 C 0.23148 0.27343 0.2972 0.0
C1480 C 0.20745 0.25955 0.30519 0.0
C1481 C 0.0343 0.19516 0.29534 0.0
C1482 C 0.05467 0.18018 0.28653 0.0
C1483 C 0.05191 0.20901 0.30644 0.0
C1484 C 0.0902 0.20827 0.30883 0.0
C1485 C 0.11058 0.19335 0.30012 0.0
C1486 C 0.09293 0.17927 0.2893 0.0
C1487 C 0.10904 0.2231 0.32037 0.0
C1488 C 0.13448 0.23689 0.31315 0.0
C1489 C 0.10123 0.22408 0.33825 0.0
C1490 C 0.07691 0.20882 0.34679 0.0
C1491 C 0.08459 0.18782 0.34554 0.0
C1492 C 0.06212 0.17346 0.35389 0.0
C1493 C 0.032 0.17992 0.36362 0.0
C1494 C 0.02413 0.20076 0.36495 0.0
C1495 C 0.04654 0.21519 0.35662 0.0
H1496 H 0.01497 0.16878 0.37024 0.0
H1497 H 0.24414 0.30516 0.29246 0.0
H1498 H 0.27486 0.22555 0.87508 0.0
H1499 H 0.30553 0.25134 0.8574 0.0
H1500 H 0.40167 0.21317 0.8539 0.0
H1501 H 0.37215 0.18787 0.87261 0.0
H1502 H 0.42299 0.25085 0.85692 0.0
H1503 H 0.33626 0.21619 0.82076 0.0
H1504 H 0.2758 0.20243 0.81179 0.0
H1505 H 0.23127 0.26309 0.81123 0.0
H1506 H 0.29136 0.2772 0.82043 0.0
H1507 H 0.49903 0.30055 0.78292 0.0
H1508 H 0.47076 0.27506 0.80201 0.0
H1509 H 0.38006 0.31581 0.81154 0.0
H1510 H 0.40835 0.34141 0.79262 0.0
H1511 H 0.35712 0.2765 0.80509 0.0
H1512 H 0.44909 0.31033 0.84073 0.0
H1513 H 0.51262 0.3221 0.84655 0.0
H1514 H 0.55038 0.26005 0.84536 0.0
H1515 H 0.48723 0.24792 0.83921 0.0
C1516 C 0.30281 0.22276 0.87089 0.0
C1517 C 0.32084 0.20447 0.87523 0.0
C1518 C 0.32016 0.23744 0.86053 0.0
C1519 C 0.35563 0.23403 0.85396 0.0
C1520 C 0.37418 0.21611 0.85869 0.0
C1521 C 0.35704 0.20152 0.86924 0.0
C1522 C 0.37304 0.24893 0.84188 0.0
C1523 C 0.40869 0.25628 0.8455 0.0
C1524 C 0.35442 0.25616 0.82698 0.0
C1525 C 0.31821 0.24773 0.82147 0.0
C1526 C 0.31349 0.22658 0.81886 0.0
C1527 C 0.2793 0.21872 0.81371 0.0
C1528 C 0.24969 0.23187 0.81099 0.0
C1529 C 0.25422 0.25292 0.81337 0.0
C1530 C 0.28834 0.26086 0.81855 0.0
C1531 C 0.47312 0.30409 0.78913 0.0
C1532 C 0.45572 0.32291 0.78617 0.0
C1533 C 0.45702 0.28953 0.80002 0.0
C1534 C 0.42348 0.29363 0.80831 0.0
C1535 C 0.40592 0.31233 0.80525 0.0
C1536 C 0.42201 0.32689 0.79437 0.0
C1537 C 0.40672 0.2785 0.82026 0.0
C1538 C 0.37125 0.27109 0.81657 0.0
C1539 C 0.42579 0.27097 0.83488 0.0
C1540 C 0.46345 0.27823 0.83938 0.0
C1541 C 0.47096 0.2992 0.84166 0.0
C1542 C 0.50691 0.30594 0.845 0.0
C1543 C 0.53552 0.29183 0.84627 0.0
C1544 C 0.52819 0.27095 0.84435 0.0
C1545 C 0.49233 0.26414 0.84095 0.0
H1546 H 0.56336 0.29704 0.84876 0.0
H1547 H 0.22324 0.22575 0.807 0.0
H1548 H 0.75083 0.22702 0.64837 0.0
H1549 H 0.71737 0.25249 0.66531 0.0
H1550 H 0.61439 0.22377 0.65108 0.0
H1551 H 0.64771 0.19815 0.63436 0.0
H1552 H 0.66744 0.28096 0.65936 0.0
H1553 H 0.55571 0.22453 0.68475 0.0
H1554 H 0.54879 0.18775 0.69127 0.0
H1555 H 0.66549 0.18304 0.69922 0.0
H1556 H 0.67302 0.21982 0.693 0.0
H1557 H 0.53085 0.3391 0.70202 0.0
H1558 H 0.56234 0.31513 0.68295 0.0
H1559 H 0.59873 0.28068 0.72735 0.0
H1560 H 0.56522 0.30367 0.74632 0.0
H1561 H 0.58098 0.25542 0.70422 0.0
H1562 H 0.65618 0.31609 0.70411 0.0
H1563 H 0.6678 0.35311 0.70066 0.0
H1564 H 0.63481 0.34964 0.64744 0.0
H1565 H 0.62274 0.31262 0.65058 0.0
C1566 C 0.72103 0.2263 0.64869 0.0
C1567 C 0.70192 0.21046 0.64018 0.0
C1568 C 0.70193 0.24086 0.65837 0.0
C1569 C 0.66338 0.23989 0.65969 0.0
C1570 C 0.64417 0.22461 0.65056 0.0
C1571 C 0.66324 0.20995 0.64102 0.0
C1572 C 0.64336 0.25421 0.67123 0.0
C1573 C 0.6485 0.27539 0.66915 0.0
C1574 C 0.61924 0.24699 0.68429 0.0
C1575 C 0.61494 0.22488 0.68821 0.0
C1576 C 0.57986 0.21565 0.68794 0.0
C1577 C 0.57584 0.1948 0.69158 0.0
C1578 C 0.60669 0.18305 0.6956 0.0
C1579 C 0.64163 0.19214 0.69604 0.0
C1580 C 0.64579 0.21298 0.69244 0.0
C1581 C 0.54527 0.3263 0.70771 0.0
C1582 C 0.54578 0.32343 0.72572 0.0
C1583 C 0.56361 0.31271 0.69679 0.0
C1584 C 0.58367 0.29629 0.70369 0.0
C1585 C 0.58361 0.29323 0.72166 0.0
C1586 C 0.56461 0.30651 0.73253 0.0
C1587 C 0.60475 0.28224 0.69231 0.0
C1588 C 0.59981 0.26106 0.6944 0.0
C1589 C 0.62997 0.28949 0.67969 0.0
C1590 C 0.63834 0.31161 0.67761 0.0
C1591 C 0.65135 0.32323 0.69168 0.0
C1592 C 0.65799 0.34421 0.68978 0.0
C1593 C 0.65196 0.35371 0.67386 0.0
C1594 C 0.63947 0.34225 0.65976 0.0
C1595 C 0.6328 0.32126 0.66158 0.0
H1596 H 0.65707 0.36995 0.67245 0.0
H1597 H 0.60352 0.16691 0.6984 0.0
H1598 H 0.82627 0.27799 0.11959 0.0
H1599 H 0.85668 0.25201 0.13731 0.0
H1600 H 0.83641 0.28801 0.18301 0.0
H1601 H 0.80654 0.31406 0.16537 0.0
H1602 H 0.904 0.27471 0.18361 0.0
H1603 H 0.78561 0.24402 0.17299 0.0
H1604 H 0.7339 0.23135 0.1552 0.0
H1605 H 0.80571 0.18862 0.13028 0.0
H1606 H 0.85799 0.20123 0.14777 0.0
H1607 H 0.94093 0.20084 0.24784 0.0
H1608 H 0.91115 0.22538 0.22875 0.0
H1609 H 0.93656 0.18757 0.18473 0.0
H1610 H 0.96534 0.16249 0.20387 0.0
H1611 H 0.86815 0.20138 0.18239 0.0
H1612 H 0.98673 0.23255 0.19379 0.0
H1613 H 0.03742 0.24585 0.21197 0.0
H1614 H 0.96324 0.28764 0.23641 0.0
H1615 H 0.91213 0.27469 0.21835 0.0
C1616 C 0.82809 0.28027 0.13343 0.0
C1617 C 0.8141 0.29811 0.14107 0.0
C1618 C 0.84543 0.2654 0.14356 0.0
C1619 C 0.8486 0.26793 0.16155 0.0
C1620 C 0.83449 0.28572 0.16917 0.0
C1621 C 0.81747 0.30063 0.15906 0.0
C1622 C 0.86717 0.25233 0.17249 0.0
C1623 C 0.89583 0.25871 0.18347 0.0
C1624 C 0.85719 0.23135 0.17206 0.0
C1625 C 0.82579 0.22372 0.16156 0.0
C1626 C 0.79044 0.23203 0.16362 0.0
C1627 C 0.76101 0.22484 0.15361 0.0
C1628 C 0.76654 0.20923 0.14158 0.0
C1629 C 0.80148 0.20073 0.13958 0.0
C1630 C 0.83101 0.20789 0.14955 0.0
C1631 C 0.94012 0.19766 0.2341 0.0
C1632 C 0.95567 0.17969 0.22739 0.0
C1633 C 0.92331 0.21182 0.22317 0.0
C1634 C 0.92216 0.20854 0.20524 0.0
C1635 C 0.93725 0.1905 0.1985 0.0
C1636 C 0.95384 0.17622 0.20946 0.0
C1637 C 0.90479 0.22381 0.19357 0.0
C1638 C 0.8764 0.21736 0.18246 0.0
C1639 C 0.91484 0.24477 0.19394 0.0
C1640 C 0.94556 0.25254 0.20481 0.0
C1641 C 0.98119 0.24449 0.20312 0.0
C1642 C 0.00999 0.25197 0.21338 0.0
C1643 C 0.0035 0.26746 0.2254 0.0
C1644 C 0.96822 0.27561 0.22712 0.0
C1645 C 0.93936 0.26826 0.21683 0.0
H1646 H 0.02583 0.2732 0.23335 0.0
H1647 H 0.74372 0.20368 0.13384 0.0
H1648 H 0.76954 0.72176 0.64746 0.0
H1649 H 0.80133 0.74699 0.66559 0.0
H1650 H 0.90329 0.71447 0.65903 0.0
H1651 H 0.87156 0.68904 0.64101 0.0
H1652 H 0.88982 0.72523 0.69326 0.0
H1653 H 0.89072 0.75747 0.63736 0.0
H1654 H 0.86306 0.7704 0.61039 0.0
H1655 H 0.79522 0.81134 0.63958 0.0
H1656 H 0.82212 0.79843 0.66675 0.0
H1657 H 0.0071 0.80092 0.72944 0.0
H1658 H 0.97809 0.77586 0.71032 0.0
H1659 H 0.8795 0.81236 0.70885 0.0
H1660 H 0.90985 0.83836 0.72653 0.0
H1661 H 0.89203 0.79903 0.67836 0.0
H1662 H 0.8902 0.76711 0.73442 0.0
H1663 H 0.91748 0.75429 0.76155 0.0
H1664 H 0.98505 0.71284 0.73284 0.0
H1665 H 0.95869 0.72558 0.70551 0.0
C1666 C 0.79872 0.71997 0.64991 0.0
C1667 C 0.81807 0.70344 0.64278 0.0
C1668 C 0.81688 0.73444 0.66018 0.0
C1669 C 0.85471 0.73265 0.66357 0.0
C1670 C 0.8741 0.71614 0.65654 0.0
C1671 C 0.85601 0.70173 0.64614 0.0
C1672 C 0.87393 0.74795 0.67459 0.0
C1673 C 0.89074 0.74135 0.68993 0.0
C1674 C 0.8743 0.76901 0.67042 0.0
C1675 C 0.85818 0.77684 0.65409 0.0
C1676 C 0.86968 0.7691 0.63803 0.0
C1677 C 0.85419 0.77646 0.62271 0.0
C1678 C 0.82733 0.79164 0.62327 0.0
C1679 C 0.81599 0.79955 0.63916 0.0
C1680 C 0.83137 0.79224 0.65453 0.0
C1681 C 0.97946 0.80375 0.72482 0.0
C1682 C 0.96069 0.8216 0.72958 0.0
C1683 C 0.96263 0.78923 0.71411 0.0
C1684 C 0.92623 0.79195 0.70838 0.0
C1685 C 0.9075 0.80981 0.71314 0.0
C1686 C 0.92468 0.82455 0.72348 0.0
C1687 C 0.90781 0.77642 0.69722 0.0
C1688 C 0.89112 0.78295 0.68179 0.0
C1689 C 0.90727 0.7553 0.70142 0.0
C1690 C 0.92266 0.74742 0.71789 0.0
C1691 C 0.91101 0.75534 0.73388 0.0
C1692 C 0.9263 0.7481 0.74929 0.0
C1693 C 0.95299 0.73282 0.74891 0.0
C1694 C 0.96439 0.72469 0.73312 0.0
C1695 C 0.94927 0.7319 0.71766 0.0
H1696 H 0.96479 0.72726 0.76086 0.0
H1697 H 0.81537 0.79732 0.61139 0.0
H1698 H 0.69115 0.81993 0.16494 0.0
H1699 H 0.65893 0.79414 0.18218 0.0
H1700 H 0.65886 0.75298 0.13862 0.0
H1701 H 0.69097 0.77887 0.12121 0.0
H1702 H 0.59398 0.75122 0.15513 0.0
H1703 H 0.72085 0.74766 0.17157 0.0
H1704 H 0.78101 0.76082 0.18155 0.0
H1705 H 0.73205 0.78051 0.22917 0.0
H1706 H 0.67144 0.76773 0.21937 0.0
H1707 H 0.55906 0.66038 0.2039 0.0
H1708 H 0.58845 0.68636 0.18562 0.0
H1709 H 0.57836 0.73059 0.22666 0.0
H1710 H 0.54791 0.70482 0.24478 0.0
H1711 H 0.64845 0.73012 0.2112 0.0
H1712 H 0.52111 0.73272 0.19438 0.0
H1713 H 0.46244 0.71731 0.18467 0.0
H1714 H 0.51375 0.69769 0.13759 0.0
H1715 H 0.57296 0.7126 0.14718 0.0
C1716 C 0.68441 0.80536 0.15904 0.0
C1717 C 0.694 0.80137 0.14176 0.0
C1718 C 0.66594 0.79063 0.1689 0.0
C1719 C 0.65701 0.77146 0.1618 0.0
C1720 C 0.66553 0.76763 0.14439 0.0
C1721 C 0.68385 0.78245 0.13446 0.0
C1722 C 0.63955 0.75534 0.1727 0.0
C1723 C 0.60614 0.74644 0.16728 0.0
C1724 C 0.65509 0.74926 0.1887 0.0
C1725 C 0.69152 0.75694 0.19465 0.0
C1726 C 0.72284 0.75495 0.18411 0.0
C1727 C 0.75704 0.76232 0.18975 0.0
C1728 C 0.76033 0.77155 0.20597 0.0
C1729 C 0.72945 0.77338 0.2166 0.0
C1730 C 0.69517 0.76608 0.21102 0.0
C1731 C 0.56293 0.67568 0.20898 0.0
C1732 C 0.55165 0.68055 0.22584 0.0
C1733 C 0.57977 0.69047 0.19855 0.0
C1734 C 0.5855 0.7104 0.20478 0.0
C1735 C 0.57435 0.71527 0.22164 0.0
C1736 C 0.55718 0.70053 0.232 0.0
C1737 C 0.60292 0.7262 0.19367 0.0
C1738 C 0.63633 0.73497 0.19906 0.0
C1739 C 0.58749 0.73203 0.17761 0.0
C1740 C 0.5516 0.72362 0.17157 0.0
C1741 C 0.51996 0.72501 0.182 0.0
C1742 C 0.4866 0.71637 0.17653 0.0
C1743 C 0.48442 0.7065 0.16055 0.0
C1744 C 0.51552 0.70533 0.14998 0.0
C1745 C 0.54899 0.71388 0.15543 0.0
H1746 H 0.45862 0.69978 0.15635 0.0
H1747 H 0.78683 0.77723 0.21031 0.0
H1748 H 0.30653 0.81911 0.34352 0.0
H1749 H 0.33695 0.79344 0.32573 0.0
H1750 H 0.35126 0.7551 0.37058 0.0
H1751 H 0.32034 0.78061 0.38848 0.0
H1752 H 0.41371 0.75723 0.35069 0.0
H1753 H 0.28431 0.74442 0.34178 0.0
H1754 H 0.22056 0.7537 0.33425 0.0
H1755 H 0.25567 0.77161 0.28342 0.0
H1756 H 0.31975 0.7627 0.29074 0.0
H1757 H 0.46269 0.6662 0.30807 0.0
H1758 H 0.43166 0.69175 0.32567 0.0
H1759 H 0.4064 0.72651 0.27976 0.0
H1760 H 0.43623 0.70049 0.26198 0.0
H1761 H 0.34969 0.72665 0.30014 0.0
H1762 H 0.47857 0.74001 0.30846 0.0
H1763 H 0.54285 0.73142 0.31559 0.0
H1764 H 0.51 0.71351 0.36674 0.0
H1765 H 0.44544 0.72185 0.35988 0.0
C1766 C 0.31582 0.80514 0.3496 0.0
C1767 C 0.31069 0.80187 0.36743 0.0
C1768 C 0.33332 0.79051 0.33941 0.0
C1769 C 0.34598 0.77225 0.34678 0.0
C1770 C 0.34169 0.76909 0.36462 0.0
C1771 C 0.32411 0.78372 0.37484 0.0
C1772 C 0.36354 0.75641 0.33586 0.0
C1773 C 0.39958 0.75034 0.33976 0.0
C1774 C 0.34544 0.74784 0.32132 0.0
C1775 C 0.30688 0.75307 0.31687 0.0
C1776 C 0.27848 0.75048 0.32904 0.0
C1777 C 0.24228 0.75565 0.32481 0.0
C1778 C 0.23409 0.76329 0.30838 0.0
C1779 C 0.26207 0.76572 0.29614 0.0
C1780 C 0.29832 0.76059 0.30032 0.0
C1781 C 0.45055 0.67928 0.30171 0.0
C1782 C 0.45217 0.68141 0.28364 0.0
C1783 C 0.43294 0.69395 0.3118 0.0
C1784 C 0.41737 0.71134 0.30411 0.0
C1785 C 0.41834 0.71329 0.28602 0.0
C1786 C 0.43544 0.69842 0.27587 0.0
C1787 C 0.4 0.72741 0.31494 0.0
C1788 C 0.36395 0.73354 0.31103 0.0
C1789 C 0.41823 0.73617 0.32939 0.0
C1790 C 0.45712 0.7314 0.33361 0.0
C1791 C 0.48502 0.73414 0.3212 0.0
C1792 C 0.5215 0.72931 0.32519 0.0
C1793 C 0.53048 0.72184 0.34158 0.0
C1794 C 0.503 0.71927 0.35404 0.0
C1795 C 0.46647 0.72408 0.35012 0.0
H1796 H 0.55874 0.7181 0.34463 0.0
H1797 H 0.20605 0.76728 0.30513 0.0
H1798 H 0.15763 0.68746 0.86802 0.0
H1799 H 0.12542 0.71213 0.84951 0.0
H1800 H 0.21861 0.75315 0.85259 0.0
H1801 H 0.25135 0.72836 0.87074 0.0
H1802 H 0.12427 0.76392 0.85958 0.0
H1803 H 0.22868 0.74373 0.82047 0.0
H1804 H 0.26497 0.71646 0.80669 0.0
H1805 H 0.16579 0.68948 0.78642 0.0
H1806 H 0.12892 0.71644 0.80035 0.0
H1807 H 0.08 0.84381 0.80289 0.0
H1808 H 0.11227 0.81877 0.82069 0.0
H1809 H 0.07434 0.77036 0.78696 0.0
H1810 H 0.04436 0.79581 0.76841 0.0
H1811 H 0.13853 0.76144 0.7958 0.0
H1812 H 0.03441 0.7814 0.82886 0.0
H1813 H 0.99129 0.80553 0.8425 0.0
H1814 H 0.07836 0.82856 0.8748 0.0
H1815 H 0.12211 0.80478 0.86116 0.0
C1816 C 0.17113 0.70179 0.8648 0.0
C1817 C 0.20698 0.70602 0.87076 0.0
C1818 C 0.15279 0.71579 0.85422 0.0
C1819 C 0.16981 0.73433 0.84965 0.0
C1820 C 0.20522 0.73882 0.8559 0.0
C1821 C 0.22385 0.72468 0.86622 0.0
C1822 C 0.15068 0.74897 0.83823 0.0
C1823 C 0.12763 0.76363 0.84565 0.0
C1824 C 0.15391 0.74791 0.82008 0.0
C1825 C 0.1761 0.7319 0.81162 0.0
C1826 C 0.21463 0.73185 0.81323 0.0
C1827 C 0.23529 0.71649 0.80536 0.0
C1828 C 0.21769 0.7012 0.79573 0.0
C1829 C 0.17938 0.70129 0.79391 0.0
C1830 C 0.15861 0.7166 0.80179 0.0
C1831 C 0.07877 0.8278 0.7993 0.0
C1832 C 0.05966 0.8216 0.78443 0.0
C1833 C 0.09692 0.81346 0.80954 0.0
C1834 C 0.09495 0.7925 0.80553 0.0
C1835 C 0.07624 0.78638 0.79042 0.0
C1836 C 0.05908 0.80086 0.77985 0.0
C1837 C 0.11248 0.77707 0.81708 0.0
C1838 C 0.13503 0.76201 0.80972 0.0
C1839 C 0.10793 0.77746 0.83531 0.0
C1840 C 0.08158 0.79145 0.84386 0.0
C1841 C 0.04437 0.7917 0.8388 0.0
C1842 C 0.01984 0.8053 0.84653 0.0
C1843 C 0.03213 0.81862 0.85944 0.0
C1844 C 0.06891 0.81826 0.86476 0.0
C1845 C 0.09358 0.80471 0.85705 0.0
H1846 H 0.01313 0.8292 0.86534 0.0
H1847 H 0.23373 0.68933 0.78964 0.0
loop_
_geom_bond_atom_site_label_1
_geom_bond_atom_site_label_2
_geom_bond_distance
_geom_bond_site_symmetry_2
_ccdc_geom_bond_type
C0 C1 1.386 . S
C0 C2 1.397 . S
C0 H24 0.931 . S
C1 C0 1.386 . S
C1 C5 1.397 . S
C2 C0 1.397 . S
C2 C3 1.384 . S
C2 H25 0.930 . S
C3 C2 1.384 . S
C3 C4 1.377 . S
C3 C6 1.481 . S
C4 C3 1.377 . S
C4 C5 1.389 . S
C4 H26 0.929 . S
C5 C1 1.397 . S
C5 C4 1.389 . S
C5 H27 0.931 . S
C6 C3 1.481 . S
C6 C7 1.387 . S
C6 C11 1.390 . S
C7 C6 1.387 . S
C7 C8 1.401 . S
C7 H28 0.930 . S
C8 C7 1.401 . S
C8 C9 1.376 . S
C8 C17 1.511 . S
C9 C8 1.376 . S
C9 C10 1.392 . S
C9 H30 0.931 . S
C10 C9 1.392 . S
C10 C11 1.361 . S
C10 C12 1.500 . S
C11 C6 1.390 . S
C11 C10 1.361 . S
C11 H29 0.931 . S
C12 C10 1.500 . S
C12 C13 1.371 . S
C12 C14 1.365 . S
C13 C12 1.371 . S
C13 C23 1.386 . S
C13 H31 0.931 . S
C14 C12 1.365 . S
C14 C15 1.409 . S
C14 H32 0.929 . S
C15 C14 1.409 . S
C15 C16 1.380 . S
C15 H33 0.930 . S
C16 C15 1.380 . S
C16 C23 1.357 . S
C17 C8 1.511 . S
C17 C18 1.341 . S
C17 C19 1.371 . S
C18 C17 1.341 . S
C18 C22 1.394 . S
C18 H34 0.930 . S
C19 C17 1.371 . S
C19 C20 1.392 . S
C19 H35 0.931 . S
C20 C19 1.392 . S
C20 C21 1.331 . S
C20 H38 0.932 . S
C21 C20 1.331 . S
C21 C22 1.336 . S
C22 C18 1.394 . S
C22 C21 1.336 . S
C22 H37 0.929 . S
C23 C13 1.386 . S
C23 C16 1.357 . S
C23 H36 0.928 . S
H24 C0 0.931 . S
H25 C2 0.930 . S
H26 C4 0.929 . S
H27 C5 0.931 . S
H28 C7 0.930 . S
H29 C11 0.931 . S
H30 C9 0.931 . S
H31 C13 0.931 . S
H32 C14 0.929 . S
H33 C15 0.930 . S
H34 C18 0.930 . S
H35 C19 0.931 . S
H36 C23 0.928 . S
H37 C22 0.929 . S
H38 C20 0.932 . S
C39 C40 1.386 . S
C39 C41 1.397 . S
C39 H63 0.931 . S
C40 C39 1.386 . S
C40 C44 1.397 . S
C41 C39 1.397 . S
C41 C42 1.384 . S
C41 H64 0.930 . S
C42 C41 1.384 . S
C42 C43 1.377 . S
C42 C45 1.481 . S
C43 C42 1.377 . S
C43 C44 1.389 . S
C43 H65 0.929 . S
C44 C40 1.397 . S
C44 C43 1.389 . S
C44 H66 0.931 . S
C45 C42 1.481 . S
C45 C46 1.387 . S
C45 C50 1.390 . S
C46 C45 1.387 . S
C46 C47 1.401 . S
C46 H67 0.930 . S
C47 C46 1.401 . S
C47 C48 1.376 . S
C47 C56 1.511 . S
C48 C47 1.376 . S
C48 C49 1.392 . S
C48 H69 0.931 . S
C49 C48 1.392 . S
C49 C50 1.361 . S
C49 C51 1.500 . S
C50 C45 1.390 . S
C50 C49 1.361 . S
C50 H68 0.931 . S
C51 C49 1.500 . S
C51 C52 1.371 . S
C51 C53 1.365 . S
C52 C51 1.371 . S
C52 C62 1.386 . S
C52 H70 0.931 . S
C53 C51 1.365 . S
C53 C54 1.409 . S
C53 H71 0.929 . S
C54 C53 1.409 . S
C54 C55 1.380 . S
C54 H72 0.930 . S
C55 C54 1.380 . S
C55 C62 1.357 . S
C56 C47 1.511 . S
C56 C57 1.341 . S
C56 C58 1.371 . S
C57 C56 1.341 . S
C57 C61 1.394 . S
C57 H73 0.930 . S
C58 C56 1.371 . S
C58 C59 1.392 . S
C58 H74 0.931 . S
C59 C58 1.392 . S
C59 C60 1.331 . S
C59 H77 0.932 . S
C60 C59 1.331 . S
C60 C61 1.336 . S
C61 C57 1.394 . S
C61 C60 1.336 . S
C61 H76 0.929 . S
C62 C52 1.386 . S
C62 C55 1.357 . S
C62 H75 0.928 . S
H63 C39 0.931 . S
H64 C41 0.930 . S
H65 C43 0.929 . S
H66 C44 0.931 . S
H67 C46 0.930 . S
H68 C50 0.931 . S
H69 C48 0.931 . S
H70 C52 0.931 . S
H71 C53 0.929 . S
H72 C54 0.930 . S
H73 C57 0.930 . S
H74 C58 0.931 . S
H75 C62 0.928 . S
H76 C61 0.929 . S
H77 C59 0.932 . S
C78 C79 1.386 . S
C78 C80 1.397 . S
C78 H102 0.931 . S
C79 C78 1.386 . S
C79 C83 1.397 . S
C80 C78 1.397 . S
C80 C81 1.384 . S
C80 H103 0.930 . S
C81 C80 1.384 . S
C81 C82 1.377 . S
C81 C84 1.481 . S
C82 C81 1.377 . S
C82 C83 1.389 . S
C82 H104 0.929 . S
C83 C79 1.397 . S
C83 C82 1.389 . S
C83 H105 0.931 . S
C84 C81 1.481 . S
C84 C85 1.387 . S
C84 C89 1.390 . S
C85 C84 1.387 . S
C85 C86 1.401 . S
C85 H106 0.930 . S
C86 C85 1.401 . S
C86 C87 1.376 . S
C86 C95 1.511 . S
C87 C86 1.376 . S
C87 C88 1.392 . S
C87 H108 0.931 . S
C88 C87 1.392 . S
C88 C89 1.361 . S
C88 C90 1.500 . S
C89 C84 1.390 . S
C89 C88 1.361 . S
C89 H107 0.931 . S
C90 C88 1.500 . S
C90 C91 1.371 . S
C90 C92 1.365 . S
C91 C90 1.371 . S
C91 C101 1.386 . S
C91 H109 0.931 . S
C92 C90 1.365 . S
C92 C93 1.409 . S
C92 H110 0.929 . S
C93 C92 1.409 . S
C93 C94 1.380 . S
C93 H111 0.930 . S
C94 C93 1.380 . S
C94 C101 1.357 . S
C95 C86 1.511 . S
C95 C96 1.341 . S
C95 C97 1.371 . S
C96 C95 1.341 . S
C96 C100 1.394 . S
C96 H112 0.930 . S
C97 C95 1.371 . S
C97 C98 1.392 . S
C97 H113 0.931 . S
C98 C97 1.392 . S
C98 C99 1.331 . S
C98 H116 0.932 . S
C99 C98 1.331 . S
C99 C100 1.336 . S
C100 C96 1.394 . S
C100 C99 1.336 . S
C100 H115 0.929 . S
C101 C91 1.386 . S
C101 C94 1.357 . S
C101 H114 0.928 . S
H102 C78 0.931 . S
H103 C80 0.930 . S
H104 C82 0.929 . S
H105 C83 0.931 . S
H106 C85 0.930 . S
H107 C89 0.931 . S
H108 C87 0.931 . S
H109 C91 0.931 . S
H110 C92 0.929 . S
H111 C93 0.930 . S
H112 C96 0.930 . S
H113 C97 0.931 . S
H114 C101 0.928 . S
H115 C100 0.929 . S
H116 C98 0.932 . S
C117 C118 1.386 . S
C117 C119 1.397 . S
C117 H141 0.931 . S
C118 C117 1.386 . S
C118 C122 1.397 . S
C119 C117 1.397 . S
C119 C120 1.384 . S
C119 H142 0.930 . S
C120 C119 1.384 . S
C120 C121 1.377 . S
C120 C123 1.481 . S
C121 C120 1.377 . S
C121 C122 1.389 . S
C121 H143 0.929 . S
C122 C118 1.397 . S
C122 C121 1.389 . S
C122 H144 0.931 . S
C123 C120 1.481 . S
C123 C124 1.387 . S
C123 C128 1.390 . S
C124 C123 1.387 . S
C124 C125 1.401 . S
C124 H145 0.930 . S
C125 C124 1.401 . S
C125 C126 1.376 . S
C125 C134 1.511 . S
C126 C125 1.376 . S
C126 C127 1.392 . S
C126 H147 0.931 . S
C127 C126 1.392 . S
C127 C128 1.361 . S
C127 C129 1.500 . S
C128 C123 1.390 . S
C128 C127 1.361 . S
C128 H146 0.931 . S
C129 C127 1.500 . S
C129 C130 1.371 . S
C129 C131 1.365 . S
C130 C129 1.371 . S
C130 C140 1.386 . S
C130 H148 0.931 . S
C131 C129 1.365 . S
C131 C132 1.409 . S
C131 H149 0.929 . S
C132 C131 1.409 . S
C132 C133 1.380 . S
C132 H150 0.930 . S
C133 C132 1.380 . S
C133 C140 1.357 . S
C134 C125 1.511 . S
C134 C135 1.341 . S
C134 C136 1.371 . S
C135 C134 1.341 . S
C135 C139 1.394 . S
C135 H151 0.930 . S
C136 C134 1.371 . S
C136 C137 1.392 . S
C136 H152 0.931 . S
C137 C136 1.392 . S
C137 C138 1.331 . S
C137 H155 0.932 . S
C138 C137 1.331 . S
C138 C139 1.336 . S
C139 C135 1.394 . S
C139 C138 1.336 . S
C139 H154 0.929 . S
C140 C130 1.386 . S
C140 C133 1.357 . S
C140 H153 0.928 . S
H141 C117 0.931 . S
H142 C119 0.930 . S
H143 C121 0.929 . S
H144 C122 0.931 . S
H145 C124 0.930 . S
H146 C128 0.931 . S
H147 C126 0.931 . S
H148 C130 0.931 . S
H149 C131 0.929 . S
H150 C132 0.930 . S
H151 C135 0.930 . S
H152 C136 0.931 . S
H153 C140 0.928 . S
H154 C139 0.929 . S
H155 C137 0.932 . S
C156 C157 1.386 . S
C156 C158 1.397 . S
C156 H180 0.931 . S
C157 C156 1.386 . S
C157 C161 1.397 . S
C158 C156 1.397 . S
C158 C159 1.384 . S
C158 H181 0.930 . S
C159 C158 1.384 . S
C159 C160 1.377 . S
C159 C162 1.481 . S
C160 C159 1.377 . S
C160 C161 1.389 . S
C160 H182 0.929 . S
C161 C157 1.397 . S
C161 C160 1.389 . S
C161 H183 0.931 . S
C162 C159 1.481 . S
C162 C163 1.387 . S
C162 C167 1.390 . S
C163 C162 1.387 . S
C163 C164 1.401 . S
C163 H184 0.930 . S
C164 C163 1.401 . S
C164 C165 1.376 . S
C164 C173 1.511 . S
C165 C164 1.376 . S
C165 C166 1.392 . S
C165 H186 0.931 . S
C166 C165 1.392 . S
C166 C167 1.361 . S
C166 C168 1.500 . S
C167 C162 1.390 . S
C167 C166 1.361 . S
C167 H185 0.931 . S
C168 C166 1.500 . S
C168 C169 1.371 . S
C168 C170 1.365 . S
C169 C168 1.371 . S
C169 C179 1.386 . S
C169 H187 0.931 . S
C170 C168 1.365 . S
C170 C171 1.409 . S
C170 H188 0.929 . S
C171 C170 1.409 . S
C171 C172 1.380 . S
C171 H189 0.930 . S
C172 C171 1.380 . S
C172 C179 1.357 . S
C173 C164 1.511 . S
C173 C174 1.341 . S
C173 C175 1.371 . S
C174 C173 1.341 . S
C174 C178 1.394 . S
C174 H190 0.930 . S
C175 C173 1.371 . S
C175 C176 1.392 . S
C175 H191 0.931 . S
C176 C175 1.392 . S
C176 C177 1.331 . S
C176 H194 0.932 . S
C177 C176 1.331 . S
C177 C178 1.336 . S
C178 C174 1.394 . S
C178 C177 1.336 . S
C178 H193 0.929 . S
C179 C169 1.386 . S
C179 C172 1.357 . S
C179 H192 0.928 . S
H180 C156 0.931 . S
H181 C158 0.930 . S
H182 C160 0.929 . S
H183 C161 0.931 . S
H184 C163 0.930 . S
H185 C167 0.931 . S
H186 C165 0.931 . S
H187 C169 0.931 . S
H188 C170 0.929 . S
H189 C171 0.930 . S
H190 C174 0.930 . S
H191 C175 0.931 . S
H192 C179 0.928 . S
H193 C178 0.929 . S
H194 C176 0.932 . S
C195 C196 1.386 . S
C195 C197 1.397 . S
C195 H219 0.931 . S
C196 C195 1.386 . S
C196 C200 1.397 . S
C197 C195 1.397 . S
C197 C198 1.384 . S
C197 H220 0.930 . S
C198 C197 1.384 . S
C198 C199 1.377 . S
C198 C201 1.481 . S
C199 C198 1.377 . S
C199 C200 1.389 . S
C199 H221 0.929 . S
C200 C196 1.397 . S
C200 C199 1.389 . S
C200 H222 0.931 . S
C201 C198 1.481 . S
C201 C202 1.387 . S
C201 C206 1.390 . S
C202 C201 1.387 . S
C202 C203 1.401 . S
C202 H223 0.930 . S
C203 C202 1.401 . S
C203 C204 1.376 . S
C203 C212 1.511 . S
C204 C203 1.376 . S
C204 C205 1.392 . S
C204 H225 0.931 . S
C205 C204 1.392 . S
C205 C206 1.361 . S
C205 C207 1.500 . S
C206 C201 1.390 . S
C206 C205 1.361 . S
C206 H224 0.931 . S
C207 C205 1.500 . S
C207 C208 1.371 . S
C207 C209 1.365 . S
C208 C207 1.371 . S
C208 C218 1.386 . S
C208 H226 0.931 . S
C209 C207 1.365 . S
C209 C210 1.409 . S
C209 H227 0.929 . S
C210 C209 1.409 . S
C210 C211 1.380 . S
C210 H228 0.930 . S
C211 C210 1.380 . S
C211 C218 1.357 . S
C212 C203 1.511 . S
C212 C213 1.341 . S
C212 C214 1.371 . S
C213 C212 1.341 . S
C213 C217 1.394 . S
C213 H229 0.930 . S
C214 C212 1.371 . S
C214 C215 1.392 . S
C214 H230 0.931 . S
C215 C214 1.392 . S
C215 C216 1.331 . S
C215 H233 0.932 . S
C216 C215 1.331 . S
C216 C217 1.336 . S
C217 C213 1.394 . S
C217 C216 1.336 . S
C217 H232 0.929 . S
C218 C208 1.386 . S
C218 C211 1.357 . S
C218 H231 0.928 . S
H219 C195 0.931 . S
H220 C197 0.930 . S
H221 C199 0.929 . S
H222 C200 0.931 . S
H223 C202 0.930 . S
H224 C206 0.931 . S
H225 C204 0.931 . S
H226 C208 0.931 . S
H227 C209 0.929 . S
H228 C210 0.930 . S
H229 C213 0.930 . S
H230 C214 0.931 . S
H231 C218 0.928 . S
H232 C217 0.929 . S
H233 C215 0.932 . S
C234 C235 1.386 . S
C234 C236 1.397 . S
C234 H258 0.931 . S
C235 C234 1.386 . S
C235 C239 1.397 . S
C236 C234 1.397 . S
C236 C237 1.384 . S
C236 H259 0.930 . S
C237 C236 1.384 . S
C237 C238 1.377 . S
C237 C240 1.481 . S
C238 C237 1.377 . S
C238 C239 1.389 . S
C238 H260 0.929 . S
C239 C235 1.397 . S
C239 C238 1.389 . S
C239 H261 0.931 . S
C240 C237 1.481 . S
C240 C241 1.387 . S
C240 C245 1.390 . S
C241 C240 1.387 . S
C241 C242 1.401 . S
C241 H262 0.930 . S
C242 C241 1.401 . S
C242 C243 1.376 . S
C242 C251 1.511 . S
C243 C242 1.376 . S
C243 C244 1.392 . S
C243 H264 0.931 . S
C244 C243 1.392 . S
C244 C245 1.361 . S
C244 C246 1.500 . S
C245 C240 1.390 . S
C245 C244 1.361 . S
C245 H263 0.931 . S
C246 C244 1.500 . S
C246 C247 1.371 . S
C246 C248 1.365 . S
C247 C246 1.371 . S
C247 C257 1.386 . S
C247 H265 0.931 . S
C248 C246 1.365 . S
C248 C249 1.409 . S
C248 H266 0.929 . S
C249 C248 1.409 . S
C249 C250 1.380 . S
C249 H267 0.930 . S
C250 C249 1.380 . S
C250 C257 1.357 . S
C251 C242 1.511 . S
C251 C252 1.341 . S
C251 C253 1.371 . S
C252 C251 1.341 . S
C252 C256 1.394 . S
C252 H268 0.930 . S
C253 C251 1.371 . S
C253 C254 1.392 . S
C253 H269 0.931 . S
C254 C253 1.392 . S
C254 C255 1.331 . S
C254 H272 0.932 . S
C255 C254 1.331 . S
C255 C256 1.336 . S
C256 C252 1.394 . S
C256 C255 1.336 . S
C256 H271 0.929 . S
C257 C247 1.386 . S
C257 C250 1.357 . S
C257 H270 0.928 . S
H258 C234 0.931 . S
H259 C236 0.930 . S
H260 C238 0.929 . S
H261 C239 0.931 . S
H262 C241 0.930 . S
H263 C245 0.931 . S
H264 C243 0.931 . S
H265 C247 0.931 . S
H266 C248 0.929 . S
H267 C249 0.930 . S
H268 C252 0.930 . S
H269 C253 0.931 . S
H270 C257 0.928 . S
H271 C256 0.929 . S
H272 C254 0.932 . S
C273 C274 1.386 . S
C273 C275 1.397 . S
C273 H297 0.931 . S
C274 C273 1.386 . S
C274 C278 1.397 . S
C275 C273 1.397 . S
C275 C276 1.384 . S
C275 H298 0.930 . S
C276 C275 1.384 . S
C276 C277 1.377 . S
C276 C279 1.481 . S
C277 C276 1.377 . S
C277 C278 1.389 . S
C277 H299 0.929 . S
C278 C274 1.397 . S
C278 C277 1.389 . S
C278 H300 0.931 . S
C279 C276 1.481 . S
C279 C280 1.387 . S
C279 C284 1.390 . S
C280 C279 1.387 . S
C280 C281 1.401 . S
C280 H301 0.930 . S
C281 C280 1.401 . S
C281 C282 1.376 . S
C281 C290 1.511 . S
C282 C281 1.376 . S
C282 C283 1.392 . S
C282 H303 0.931 . S
C283 C282 1.392 . S
C283 C284 1.361 . S
C283 C285 1.500 . S
C284 C279 1.390 . S
C284 C283 1.361 . S
C284 H302 0.931 . S
C285 C283 1.500 . S
C285 C286 1.371 . S
C285 C287 1.365 . S
C286 C285 1.371 . S
C286 C296 1.386 . S
C286 H304 0.931 . S
C287 C285 1.365 . S
C287 C288 1.409 . S
C287 H305 0.929 . S
C288 C287 1.409 . S
C288 C289 1.380 . S
C288 H306 0.930 . S
C289 C288 1.380 . S
C289 C296 1.357 . S
C290 C281 1.511 . S
C290 C291 1.341 . S
C290 C292 1.371 . S
C291 C290 1.341 . S
C291 C295 1.394 . S
C291 H307 0.930 . S
C292 C290 1.371 . S
C292 C293 1.392 . S
C292 H308 0.931 . S
C293 C292 1.392 . S
C293 C294 1.331 . S
C293 H311 0.932 . S
C294 C293 1.331 . S
C294 C295 1.336 . S
C295 C291 1.394 . S
C295 C294 1.336 . S
C295 H310 0.929 . S
C296 C286 1.386 . S
C296 C289 1.357 . S
C296 H309 0.928 . S
H297 C273 0.931 . S
H298 C275 0.930 . S
H299 C277 0.929 . S
H300 C278 0.931 . S
H301 C280 0.930 . S
H302 C284 0.931 . S
H303 C282 0.931 . S
H304 C286 0.931 . S
H305 C287 0.929 . S
H306 C288 0.930 . S
H307 C291 0.930 . S
H308 C292 0.931 . S
H309 C296 0.928 . S
H310 C295 0.929 . S
H311 C293 0.932 . S
Tb312 N341 2.617 . S
Tb312 N347 2.572 . S
Tb312 O356 2.465 . S
Tb312 O357 2.387 . S
Tb312 O359 2.428 . S
Tb312 O360 2.308 . S
Tb312 O364 2.349 . S
Tb312 O367 2.393 . S
Tb312 C376 2.802 . S
C313 N314 1.379 . S
C313 C316 1.416 . S
C313 C320 1.424 . S
N314 C313 1.379 . S
N314 C317 1.334 . S
N314 Tb323 2.617 . S
C315 C317 1.390 . S
C315 C318 1.339 . S
C315 H335 0.930 . S
C316 C313 1.416 . S
C316 C318 1.416 . S
C316 C322 1.448 . S
C317 N314 1.334 . S
C317 C315 1.390 . S
C317 H328 0.930 . S
C318 C315 1.339 . S
C318 C316 1.416 . S
C318 H339 0.930 . S
C319 C320 1.413 . S
C319 C321 1.427 . S
C319 C325 1.416 . S
C320 C313 1.424 . S
C320 C319 1.413 . S
C320 N324 1.361 . S
C321 C319 1.427 . S
C321 C322 1.328 . S
C321 H336 0.929 . S
C322 C316 1.448 . S
C322 C321 1.328 . S
C322 H337 0.930 . S
Tb323 N314 2.617 . S
Tb323 N324 2.572 . S
Tb323 O358 2.349 1_655 S
Tb323 O361 2.393 . S
Tb323 O362 2.465 . S
Tb323 O363 2.387 . S
Tb323 O365 2.428 . S
Tb323 O366 2.308 1_655 S
Tb323 C387 2.802 . S
N324 C320 1.361 . S
N324 Tb323 2.572 . S
N324 C326 1.340 . S
C325 C319 1.416 . S
C325 C327 1.332 . S
C325 H333 0.931 . S
C326 N324 1.340 . S
C326 C327 1.407 . S
C326 H332 0.930 . S
C327 C325 1.332 . S
C327 C326 1.407 . S
C327 H329 0.929 . S
H328 C317 0.930 . S
H329 C327 0.929 . S
H330 C345 0.930 . S
H331 C352 0.929 . S
H332 C326 0.930 . S
H333 C325 0.931 . S
H334 C348 0.930 . S
H335 C315 0.930 . S
H336 C321 0.929 . S
H337 C322 0.930 . S
H338 C343 0.930 . S
H339 C318 0.930 . S
H340 C351 0.931 . S
N341 Tb312 2.617 . S
N341 C342 1.379 . S
N341 C345 1.334 . S
C342 N341 1.379 . S
C342 C344 1.416 . S
C342 C350 1.424 . S
C343 H338 0.930 . S
C343 C345 1.390 . S
C343 C346 1.339 . S
C344 C342 1.416 . S
C344 C346 1.416 . S
C344 C377 1.448 . S
C345 H330 0.930 . S
C345 N341 1.334 . S
C345 C343 1.390 . S
C346 C343 1.339 . S
C346 C344 1.416 . S
C346 H353 0.930 . S
N347 Tb312 2.572 . S
N347 C348 1.340 . S
N347 C350 1.361 . S
C348 H334 0.930 . S
C348 N347 1.340 . S
C348 C352 1.407 . S
C349 C350 1.413 . S
C349 C351 1.416 . S
C349 C378 1.427 . S
C350 C342 1.424 . S
C350 N347 1.361 . S
C350 C349 1.413 . S
C351 H340 0.931 . S
C351 C349 1.416 . S
C351 C352 1.332 . S
C352 H331 0.929 . S
C352 C348 1.407 . S
C352 C351 1.332 . S
H353 C346 0.930 . S
H354 C377 0.930 . S
H355 C378 0.929 . S
O356 Tb312 2.465 . S
O356 C376 1.264 . S
O357 Tb312 2.387 . S
O357 C368 1.264 . S
O358 Tb323 2.349 1_455 S
O358 C368 1.243 . S
O359 Tb312 2.428 . S
O359 C376 1.256 . S
O360 Tb312 2.308 . S
O360 C375 1.266 1_455 S
O361 Tb323 2.393 . S
O361 C375 1.248 . S
O362 Tb323 2.465 . S
O362 C387 1.264 . S
O363 Tb323 2.387 . S
O363 C379 1.264 . S
O364 Tb312 2.349 . S
O364 C379 1.243 1_455 S
O365 Tb323 2.428 . S
O365 C387 1.256 . S
O366 Tb323 2.308 1_455 S
O366 C386 1.266 . S
O367 Tb312 2.393 . S
O367 C386 1.248 . S
C368 O357 1.264 . S
C368 O358 1.243 . S
C369 C372 1.399 . S
C369 C374 1.383 . S
C369 C376 1.496 . S
C370 C371 1.399 . S
C370 C374 1.389 . S
C371 C370 1.399 . S
C371 C373 1.380 . S
C371 H388 0.929 . S
C372 C369 1.399 . S
C372 C373 1.392 . S
C372 H389 0.929 . S
C373 C371 1.380 . S
C373 C372 1.392 . S
C373 H390 0.929 . S
C374 C369 1.383 . S
C374 C370 1.389 . S
C374 H391 0.931 . S
C375 O360 1.266 1_655 S
C375 O361 1.248 . S
C376 Tb312 2.802 . S
C376 O356 1.264 . S
C376 O359 1.256 . S
C376 C369 1.496 . S
C377 C344 1.448 . S
C377 H354 0.930 . S
C377 C378 1.328 . S
C378 C349 1.427 . S
C378 H355 0.929 . S
C378 C377 1.328 . S
C379 O363 1.264 . S
C379 O364 1.243 1_655 S
C380 C383 1.399 . S
C380 C384 1.383 . S
C380 C387 1.496 . S
C381 C382 1.399 . S
C381 C384 1.389 . S
C382 C381 1.399 . S
C382 C385 1.380 . S
C382 H392 0.929 . S
C383 C380 1.399 . S
C383 C385 1.392 . S
C383 H393 0.929 . S
C384 C380 1.383 . S
C384 C381 1.389 . S
C384 H394 0.931 . S
C385 C382 1.380 . S
C385 C383 1.392 . S
C385 H395 0.929 . S
C386 O366 1.266 . S
C386 O367 1.248 . S
C387 Tb323 2.802 . S
C387 O362 1.264 . S
C387 O365 1.256 . S
C387 C380 1.496 . S
H388 C371 0.929 . S
H389 C372 0.929 . S
H390 C373 0.929 . S
H391 C374 0.931 . S
H392 C382 0.929 . S
H393 C383 0.929 . S
H394 C384 0.931 . S
H395 C385 0.929 . S
Tb396 N425 2.617 . S
Tb396 N431 2.572 . S
Tb396 O440 2.465 . S
Tb396 O441 2.387 . S
Tb396 O443 2.428 . S
Tb396 O444 2.308 . S
Tb396 O448 2.349 . S
Tb396 O451 2.393 . S
Tb396 C460 2.802 . S
C397 N398 1.379 . S
C397 C400 1.416 . S
C397 C404 1.424 . S
N398 C397 1.379 . S
N398 C401 1.334 . S
N398 Tb407 2.617 . S
C399 C401 1.390 . S
C399 C402 1.339 . S
C399 H419 0.930 . S
C400 C397 1.416 . S
C400 C402 1.416 . S
C400 C406 1.448 . S
C401 N398 1.334 . S
C401 C399 1.390 . S
C401 H412 0.930 . S
C402 C399 1.339 . S
C402 C400 1.416 . S
C402 H423 0.930 . S
C403 C404 1.413 . S
C403 C405 1.427 . S
C403 C409 1.416 . S
C404 C397 1.424 . S
C404 C403 1.413 . S
C404 N408 1.361 . S
C405 C403 1.427 . S
C405 C406 1.328 . S
C405 H420 0.929 . S
C406 C400 1.448 . S
C406 C405 1.328 . S
C406 H421 0.930 . S
Tb407 N398 2.617 . S
Tb407 N408 2.572 . S
Tb407 O442 2.349 . S
Tb407 O445 2.393 . S
Tb407 O446 2.465 . S
Tb407 O447 2.387 . S
Tb407 O449 2.428 . S
Tb407 O450 2.308 . S
Tb407 C471 2.802 . S
N408 C404 1.361 . S
N408 Tb407 2.572 . S
N408 C410 1.340 . S
C409 C403 1.416 . S
C409 C411 1.332 . S
C409 H417 0.931 . S
C410 N408 1.340 . S
C410 C411 1.407 . S
C410 H416 0.930 . S
C411 C409 1.332 . S
C411 C410 1.407 . S
C411 H413 0.929 . S
H412 C401 0.930 . S
H413 C411 0.929 . S
H414 C429 0.930 . S
H415 C436 0.929 . S
H416 C410 0.930 . S
H417 C409 0.931 . S
H418 C432 0.930 . S
H419 C399 0.930 . S
H420 C405 0.929 . S
H421 C406 0.930 . S
H422 C427 0.930 . S
H423 C402 0.930 . S
H424 C435 0.931 . S
N425 Tb396 2.617 . S
N425 C426 1.379 . S
N425 C429 1.334 . S
C426 N425 1.379 . S
C426 C428 1.416 . S
C426 C434 1.424 . S
C427 H422 0.930 . S
C427 C429 1.390 . S
C427 C430 1.339 . S
C428 C426 1.416 . S
C428 C430 1.416 . S
C428 C461 1.448 . S
C429 H414 0.930 . S
C429 N425 1.334 . S
C429 C427 1.390 . S
C430 C427 1.339 . S
C430 C428 1.416 . S
C430 H437 0.930 . S
N431 Tb396 2.572 . S
N431 C432 1.340 . S
N431 C434 1.361 . S
C432 H418 0.930 . S
C432 N431 1.340 . S
C432 C436 1.407 . S
C433 C434 1.413 . S
C433 C435 1.416 . S
C433 C462 1.427 . S
C434 C426 1.424 . S
C434 N431 1.361 . S
C434 C433 1.413 . S
C435 H424 0.931 . S
C435 C433 1.416 . S
C435 C436 1.332 . S
C436 H415 0.929 . S
C436 C432 1.407 . S
C436 C435 1.332 . S
H437 C430 0.930 . S
H438 C461 0.930 . S
H439 C462 0.929 . S
O440 Tb396 2.465 . S
O440 C460 1.264 . S
O441 Tb396 2.387 . S
O441 C452 1.264 . S
O442 Tb407 2.349 . S
O442 C452 1.243 . S
O443 Tb396 2.428 . S
O443 C460 1.256 . S
O444 Tb396 2.308 . S
O444 C459 1.266 . S
O445 Tb407 2.393 . S
O445 C459 1.248 . S
O446 Tb407 2.465 . S
O446 C471 1.264 . S
O447 Tb407 2.387 . S
O447 C463 1.264 . S
O448 Tb396 2.349 . S
O448 C463 1.243 . S
O449 Tb407 2.428 . S
O449 C471 1.256 . S
O450 Tb407 2.308 . S
O450 C470 1.266 . S
O451 Tb396 2.393 . S
O451 C470 1.248 . S
C452 O441 1.264 . S
C452 O442 1.243 . S
C453 C456 1.399 . S
C453 C458 1.383 . S
C453 C460 1.496 . S
C454 C455 1.399 . S
C454 C458 1.389 . S
C455 C454 1.399 . S
C455 C457 1.380 . S
C455 H472 0.929 . S
C456 C453 1.399 . S
C456 C457 1.392 . S
C456 H473 0.929 . S
C457 C455 1.380 . S
C457 C456 1.392 . S
C457 H474 0.929 . S
C458 C453 1.383 . S
C458 C454 1.389 . S
C458 H475 0.931 . S
C459 O444 1.266 . S
C459 O445 1.248 . S
C460 Tb396 2.802 . S
C460 O440 1.264 . S
C460 O443 1.256 . S
C460 C453 1.496 . S
C461 C428 1.448 . S
C461 H438 0.930 . S
C461 C462 1.328 . S
C462 C433 1.427 . S
C462 H439 0.929 . S
C462 C461 1.328 . S
C463 O447 1.264 . S
C463 O448 1.243 . S
C464 C467 1.399 . S
C464 C468 1.383 . S
C464 C471 1.496 . S
C465 C466 1.399 . S
C465 C468 1.389 . S
C466 C465 1.399 . S
C466 C469 1.380 . S
C466 H476 0.929 . S
C467 C464 1.399 . S
C467 C469 1.392 . S
C467 H477 0.929 . S
C468 C464 1.383 . S
C468 C465 1.389 . S
C468 H478 0.931 . S
C469 C466 1.380 . S
C469 C467 1.392 . S
C469 H479 0.929 . S
C470 O450 1.266 . S
C470 O451 1.248 . S
C471 Tb407 2.802 . S
C471 O446 1.264 . S
C471 O449 1.256 . S
C471 C464 1.496 . S
H472 C455 0.929 . S
H473 C456 0.929 . S
H474 C457 0.929 . S
H475 C458 0.931 . S
H476 C466 0.929 . S
H477 C467 0.929 . S
H478 C468 0.931 . S
H479 C469 0.929 . S
Tb480 N509 2.617 . S
Tb480 N515 2.572 . S
Tb480 O524 2.465 . S
Tb480 O525 2.387 . S
Tb480 O527 2.428 . S
Tb480 O528 2.308 . S
Tb480 O532 2.349 . S
Tb480 O535 2.393 . S
Tb480 C544 2.802 . S
C481 N482 1.379 . S
C481 C484 1.416 . S
C481 C488 1.424 . S
N482 C481 1.379 . S
N482 C485 1.334 . S
N482 Tb491 2.617 . S
C483 C485 1.390 . S
C483 C486 1.339 . S
C483 H503 0.930 . S
C484 C481 1.416 . S
C484 C486 1.416 . S
C484 C490 1.448 . S
C485 N482 1.334 . S
C485 C483 1.390 . S
C485 H496 0.930 . S
C486 C483 1.339 . S
C486 C484 1.416 . S
C486 H507 0.930 . S
C487 C488 1.413 . S
C487 C489 1.427 . S
C487 C493 1.416 . S
C488 C481 1.424 . S
C488 C487 1.413 . S
C488 N492 1.361 . S
C489 C487 1.427 . S
C489 C490 1.328 . S
C489 H504 0.929 . S
C490 C484 1.448 . S
C490 C489 1.328 . S
C490 H505 0.930 . S
Tb491 N482 2.617 . S
Tb491 N492 2.572 . S
Tb491 O526 2.349 1_655 S
Tb491 O529 2.393 . S
Tb491 O530 2.465 . S
Tb491 O531 2.387 . S
Tb491 O533 2.428 . S
Tb491 O534 2.308 1_655 S
Tb491 C555 2.802 . S
N492 C488 1.361 . S
N492 Tb491 2.572 . S
N492 C494 1.340 . S
C493 C487 1.416 . S
C493 C495 1.332 . S
C493 H501 0.931 . S
C494 N492 1.340 . S
C494 C495 1.407 . S
C494 H500 0.930 . S
C495 C493 1.332 . S
C495 C494 1.407 . S
C495 H497 0.929 . S
H496 C485 0.930 . S
H497 C495 0.929 . S
H498 C513 0.930 . S
H499 C520 0.929 . S
H500 C494 0.930 . S
H501 C493 0.931 . S
H502 C516 0.930 . S
H503 C483 0.930 . S
H504 C489 0.929 . S
H505 C490 0.930 . S
H506 C511 0.930 . S
H507 C486 0.930 . S
H508 C519 0.931 . S
N509 Tb480 2.617 . S
N509 C510 1.379 . S
N509 C513 1.334 . S
C510 N509 1.379 . S
C510 C512 1.416 . S
C510 C518 1.424 . S
C511 H506 0.930 . S
C511 C513 1.390 . S
C511 C514 1.339 . S
C512 C510 1.416 . S
C512 C514 1.416 . S
C512 C545 1.448 . S
C513 H498 0.930 . S
C513 N509 1.334 . S
C513 C511 1.390 . S
C514 C511 1.339 . S
C514 C512 1.416 . S
C514 H521 0.930 . S
N515 Tb480 2.572 . S
N515 C516 1.340 . S
N515 C518 1.361 . S
C516 H502 0.930 . S
C516 N515 1.340 . S
C516 C520 1.407 . S
C517 C518 1.413 . S
C517 C519 1.416 . S
C517 C546 1.427 . S
C518 C510 1.424 . S
C518 N515 1.361 . S
C518 C517 1.413 . S
C519 H508 0.931 . S
C519 C517 1.416 . S
C519 C520 1.332 . S
C520 H499 0.929 . S
C520 C516 1.407 . S
C520 C519 1.332 . S
H521 C514 0.930 . S
H522 C545 0.930 . S
H523 C546 0.929 . S
O524 Tb480 2.465 . S
O524 C544 1.264 . S
O525 Tb480 2.387 . S
O525 C536 1.264 . S
O526 Tb491 2.349 1_455 S
O526 C536 1.243 . S
O527 Tb480 2.428 . S
O527 C544 1.256 . S
O528 Tb480 2.308 . S
O528 C543 1.266 1_455 S
O529 Tb491 2.393 . S
O529 C543 1.248 . S
O530 Tb491 2.465 . S
O530 C555 1.264 . S
O531 Tb491 2.387 . S
O531 C547 1.264 . S
O532 Tb480 2.349 . S
O532 C547 1.243 1_455 S
O533 Tb491 2.428 . S
O533 C555 1.256 . S
O534 Tb491 2.308 1_455 S
O534 C554 1.266 . S
O535 Tb480 2.393 . S
O535 C554 1.248 . S
C536 O525 1.264 . S
C536 O526 1.243 . S
C537 C540 1.399 . S
C537 C542 1.383 . S
C537 C544 1.496 . S
C538 C539 1.399 . S
C538 C542 1.389 . S
C539 C538 1.399 . S
C539 C541 1.380 . S
C539 H556 0.929 . S
C540 C537 1.399 . S
C540 C541 1.392 . S
C540 H557 0.929 . S
C541 C539 1.380 . S
C541 C540 1.392 . S
C541 H558 0.929 . S
C542 C537 1.383 . S
C542 C538 1.389 . S
C542 H559 0.931 . S
C543 O528 1.266 1_655 S
C543 O529 1.248 . S
C544 Tb480 2.802 . S
C544 O524 1.264 . S
C544 O527 1.256 . S
C544 C537 1.496 . S
C545 C512 1.448 . S
C545 H522 0.930 . S
C545 C546 1.328 . S
C546 C517 1.427 . S
C546 H523 0.929 . S
C546 C545 1.328 . S
C547 O531 1.264 . S
C547 O532 1.243 1_655 S
C548 C551 1.399 . S
C548 C552 1.383 . S
C548 C555 1.496 . S
C549 C550 1.399 . S
C549 C552 1.389 . S
C550 C549 1.399 . S
C550 C553 1.380 . S
C550 H560 0.929 . S
C551 C548 1.399 . S
C551 C553 1.392 . S
C551 H561 0.929 . S
C552 C548 1.383 . S
C552 C549 1.389 . S
C552 H562 0.931 . S
C553 C550 1.380 . S
C553 C551 1.392 . S
C553 H563 0.929 . S
C554 O534 1.266 . S
C554 O535 1.248 . S
C555 Tb491 2.802 . S
C555 O530 1.264 . S
C555 O533 1.256 . S
C555 C548 1.496 . S
H556 C539 0.929 . S
H557 C540 0.929 . S
H558 C541 0.929 . S
H559 C542 0.931 . S
H560 C550 0.929 . S
H561 C551 0.929 . S
H562 C552 0.931 . S
H563 C553 0.929 . S
Tb564 N593 2.617 . S
Tb564 N599 2.572 . S
Tb564 O608 2.465 . S
Tb564 O609 2.387 . S
Tb564 O611 2.428 . S
Tb564 O612 2.308 . S
Tb564 O616 2.349 . S
Tb564 O619 2.393 . S
Tb564 C628 2.802 . S
C565 N566 1.379 . S
C565 C568 1.416 . S
C565 C572 1.424 . S
N566 C565 1.379 . S
N566 C569 1.334 . S
N566 Tb575 2.617 . S
C567 C569 1.390 . S
C567 C570 1.339 . S
C567 H587 0.930 . S
C568 C565 1.416 . S
C568 C570 1.416 . S
C568 C574 1.448 . S
C569 N566 1.334 . S
C569 C567 1.390 . S
C569 H580 0.930 . S
C570 C567 1.339 . S
C570 C568 1.416 . S
C570 H591 0.930 . S
C571 C572 1.413 . S
C571 C573 1.427 . S
C571 C577 1.416 . S
C572 C565 1.424 . S
C572 C571 1.413 . S
C572 N576 1.361 . S
C573 C571 1.427 . S
C573 C574 1.328 . S
C573 H588 0.929 . S
C574 C568 1.448 . S
C574 C573 1.328 . S
C574 H589 0.930 . S
Tb575 N566 2.617 . S
Tb575 N576 2.572 . S
Tb575 O610 2.349 . S
Tb575 O613 2.393 . S
Tb575 O614 2.465 . S
Tb575 O615 2.387 . S
Tb575 O617 2.428 . S
Tb575 O618 2.308 . S
Tb575 C639 2.802 . S
N576 C572 1.361 . S
N576 Tb575 2.572 . S
N576 C578 1.340 . S
C577 C571 1.416 . S
C577 C579 1.332 . S
C577 H585 0.931 . S
C578 N576 1.340 . S
C578 C579 1.407 . S
C578 H584 0.930 . S
C579 C577 1.332 . S
C579 C578 1.407 . S
C579 H581 0.929 . S
H580 C569 0.930 . S
H581 C579 0.929 . S
H582 C597 0.930 . S
H583 C604 0.929 . S
H584 C578 0.930 . S
H585 C577 0.931 . S
H586 C600 0.930 . S
H587 C567 0.930 . S
H588 C573 0.929 . S
H589 C574 0.930 . S
H590 C595 0.930 . S
H591 C570 0.930 . S
H592 C603 0.931 . S
N593 Tb564 2.617 . S
N593 C594 1.379 . S
N593 C597 1.334 . S
C594 N593 1.379 . S
C594 C596 1.416 . S
C594 C602 1.424 . S
C595 H590 0.930 . S
C595 C597 1.390 . S
C595 C598 1.339 . S
C596 C594 1.416 . S
C596 C598 1.416 . S
C596 C629 1.448 . S
C597 H582 0.930 . S
C597 N593 1.334 . S
C597 C595 1.390 . S
C598 C595 1.339 . S
C598 C596 1.416 . S
C598 H605 0.930 . S
N599 Tb564 2.572 . S
N599 C600 1.340 . S
N599 C602 1.361 . S
C600 H586 0.930 . S
C600 N599 1.340 . S
C600 C604 1.407 . S
C601 C602 1.413 . S
C601 C603 1.416 . S
C601 C630 1.427 . S
C602 C594 1.424 . S
C602 N599 1.361 . S
C602 C601 1.413 . S
C603 H592 0.931 . S
C603 C601 1.416 . S
C603 C604 1.332 . S
C604 H583 0.929 . S
C604 C600 1.407 . S
C604 C603 1.332 . S
H605 C598 0.930 . S
H606 C629 0.930 . S
H607 C630 0.929 . S
O608 Tb564 2.465 . S
O608 C628 1.264 . S
O609 Tb564 2.387 . S
O609 C620 1.264 . S
O610 Tb575 2.349 . S
O610 C620 1.243 . S
O611 Tb564 2.428 . S
O611 C628 1.256 . S
O612 Tb564 2.308 . S
O612 C627 1.266 . S
O613 Tb575 2.393 . S
O613 C627 1.248 . S
O614 Tb575 2.465 . S
O614 C639 1.264 . S
O615 Tb575 2.387 . S
O615 C631 1.264 . S
O616 Tb564 2.349 . S
O616 C631 1.243 . S
O617 Tb575 2.428 . S
O617 C639 1.256 . S
O618 Tb575 2.308 . S
O618 C638 1.266 . S
O619 Tb564 2.393 . S
O619 C638 1.248 . S
C620 O609 1.264 . S
C620 O610 1.243 . S
C621 C624 1.399 . S
C621 C626 1.383 . S
C621 C628 1.496 . S
C622 C623 1.399 . S
C622 C626 1.389 . S
C623 C622 1.399 . S
C623 C625 1.380 . S
C623 H640 0.929 . S
C624 C621 1.399 . S
C624 C625 1.392 . S
C624 H641 0.929 . S
C625 C623 1.380 . S
C625 C624 1.392 . S
C625 H642 0.929 . S
C626 C621 1.383 . S
C626 C622 1.389 . S
C626 H643 0.931 . S
C627 O612 1.266 . S
C627 O613 1.248 . S
C628 Tb564 2.802 . S
C628 O608 1.264 . S
C628 O611 1.256 . S
C628 C621 1.496 . S
C629 C596 1.448 . S
C629 H606 0.930 . S
C629 C630 1.328 . S
C630 C601 1.427 . S
C630 H607 0.929 . S
C630 C629 1.328 . S
C631 O615 1.264 . S
C631 O616 1.243 . S
C632 C635 1.399 . S
C632 C636 1.383 . S
C632 C639 1.496 . S
C633 C634 1.399 . S
C633 C636 1.389 . S
C634 C633 1.399 . S
C634 C637 1.380 . S
C634 H644 0.929 . S
C635 C632 1.399 . S
C635 C637 1.392 . S
C635 H645 0.929 . S
C636 C632 1.383 . S
C636 C633 1.389 . S
C636 H646 0.931 . S
C637 C634 1.380 . S
C637 C635 1.392 . S
C637 H647 0.929 . S
C638 O618 1.266 . S
C638 O619 1.248 . S
C639 Tb575 2.802 . S
C639 O614 1.264 . S
C639 O617 1.256 . S
C639 C632 1.496 . S
H640 C623 0.929 . S
H641 C624 0.929 . S
H642 C625 0.929 . S
H643 C626 0.931 . S
H644 C634 0.929 . S
H645 C635 0.929 . S
H646 C636 0.931 . S
H647 C637 0.929 . S
H648 C666 0.951 . S
H649 C668 0.951 . S
H650 C670 0.950 . S
H651 C671 0.950 . S
H652 C673 0.950 . S
H653 C676 0.950 . S
H654 C677 0.950 . S
H655 C679 0.950 1_655 S
H656 C680 0.950 1_545 S
H657 C681 0.951 . S
H658 C683 0.951 . S
H659 C685 0.950 . S
H660 C686 0.950 . S
H661 C688 0.950 . S
H662 C691 0.950 . S
H663 C692 0.950 . S
H664 C694 0.950 . S
H665 C695 0.950 . S
C666 H648 0.951 . S
C666 C667 1.366 . S
C666 C668 1.388 . S
C667 C666 1.366 . S
C667 C671 1.385 . S
C668 H649 0.951 . S
C668 C666 1.388 . S
C668 C669 1.366 . S
C669 C668 1.366 . S
C669 C670 1.414 . S
C669 C672 1.499 1_565 S
C670 H650 0.950 . S
C670 C669 1.414 . S
C670 C671 1.374 . S
C671 H651 0.950 . S
C671 C667 1.385 . S
C671 C670 1.374 . S
C672 C669 1.499 1_545 S
C672 C673 1.373 . S
C672 C674 1.389 . S
C673 H652 0.950 . S
C673 C672 1.373 . S
C673 C689 1.377 . S
C674 C672 1.389 . S
C674 C675 1.524 1_545 S
C674 C688 1.377 . S
C675 C674 1.524 1_565 S
C675 C676 1.397 . S
C675 C680 1.363 . S
C676 H653 0.950 . S
C676 C675 1.397 . S
C676 C677 1.334 . S
C677 H654 0.950 . S
C677 C676 1.334 . S
C677 C678 1.287 . S
C678 C677 1.287 . S
C678 C679 1.524 . S
C678 H697 0.913 . S
C679 H655 0.950 1_455 S
C679 C678 1.524 . S
C679 C680 1.415 . S
C680 H656 0.950 1_565 S
C680 C675 1.363 . S
C680 C679 1.415 . S
C681 H657 0.951 . S
C681 C682 1.366 . S
C681 C683 1.388 . S
C682 C681 1.366 . S
C682 C686 1.385 . S
C683 H658 0.951 . S
C683 C681 1.388 . S
C683 C684 1.366 . S
C684 C683 1.366 . S
C684 C685 1.414 . S
C684 C687 1.499 . S
C685 H659 0.950 . S
C685 C684 1.414 . S
C685 C686 1.374 . S
C686 H660 0.950 . S
C686 C682 1.385 . S
C686 C685 1.374 . S
C687 C684 1.499 . S
C687 C688 1.373 . S
C687 C689 1.389 . S
C688 H661 0.950 . S
C688 C674 1.377 . S
C688 C687 1.373 . S
C689 C673 1.377 . S
C689 C687 1.389 . S
C689 C690 1.524 . S
C690 C689 1.524 . S
C690 C691 1.397 . S
C690 C695 1.363 . S
C691 H662 0.950 . S
C691 C690 1.397 . S
C691 C692 1.334 . S
C692 H663 0.950 . S
C692 C691 1.334 . S
C692 C693 1.287 . S
C693 C692 1.287 . S
C693 C694 1.524 . S
C693 H696 0.999 . S
C694 H664 0.950 . S
C694 C693 1.524 . S
C694 C695 1.415 . S
C695 H665 0.950 . S
C695 C690 1.363 . S
C695 C694 1.415 . S
H696 C693 0.999 . S
H697 C678 0.913 . S
H698 C716 0.951 . S
H699 C718 0.951 . S
H700 C720 0.950 . S
H701 C721 0.950 . S
H702 C723 0.950 . S
H703 C726 0.950 . S
H704 C727 0.950 . S
H705 C729 0.950 . S
H706 C730 0.950 . S
H707 C731 0.951 . S
H708 C733 0.951 . S
H709 C735 0.950 . S
H710 C736 0.950 . S
H711 C738 0.950 . S
H712 C741 0.950 . S
H713 C742 0.950 . S
H714 C744 0.950 . S
H715 C745 0.950 . S
C716 H698 0.951 . S
C716 C717 1.366 . S
C716 C718 1.388 . S
C717 C716 1.366 . S
C717 C721 1.385 . S
C718 H699 0.951 . S
C718 C716 1.388 . S
C718 C719 1.366 . S
C719 C718 1.366 . S
C719 C720 1.414 . S
C719 C722 1.499 . S
C720 H700 0.950 . S
C720 C719 1.414 . S
C720 C721 1.374 . S
C721 H701 0.950 . S
C721 C717 1.385 . S
C721 C720 1.374 . S
C722 C719 1.499 . S
C722 C723 1.373 . S
C722 C724 1.389 . S
C723 H702 0.950 . S
C723 C722 1.373 . S
C723 C739 1.377 . S
C724 C722 1.389 . S
C724 C725 1.524 . S
C724 C738 1.377 . S
C725 C724 1.524 . S
C725 C726 1.397 . S
C725 C730 1.363 . S
C726 H703 0.950 . S
C726 C725 1.397 . S
C726 C727 1.334 . S
C727 H704 0.950 . S
C727 C726 1.334 . S
C727 C728 1.287 . S
C728 C727 1.287 . S
C728 C729 1.524 . S
C728 H747 0.913 . S
C729 H705 0.950 . S
C729 C728 1.524 . S
C729 C730 1.415 . S
C730 H706 0.950 . S
C730 C725 1.363 . S
C730 C729 1.415 . S
C731 H707 0.951 . S
C731 C732 1.366 . S
C731 C733 1.388 . S
C732 C731 1.366 . S
C732 C736 1.385 . S
C733 H708 0.951 . S
C733 C731 1.388 . S
C733 C734 1.366 . S
C734 C733 1.366 . S
C734 C735 1.414 . S
C734 C737 1.499 . S
C735 H709 0.950 . S
C735 C734 1.414 . S
C735 C736 1.374 . S
C736 H710 0.950 . S
C736 C732 1.385 . S
C736 C735 1.374 . S
C737 C734 1.499 . S
C737 C738 1.373 . S
C737 C739 1.389 . S
C738 H711 0.950 . S
C738 C724 1.377 . S
C738 C737 1.373 . S
C739 C723 1.377 . S
C739 C737 1.389 . S
C739 C740 1.524 . S
C740 C739 1.524 . S
C740 C741 1.397 . S
C740 C745 1.363 . S
C741 H712 0.950 . S
C741 C740 1.397 . S
C741 C742 1.334 . S
C742 H713 0.950 . S
C742 C741 1.334 . S
C742 C743 1.287 . S
C743 C742 1.287 . S
C743 C744 1.524 . S
C743 H746 0.999 . S
C744 H714 0.950 . S
C744 C743 1.524 . S
C744 C745 1.415 . S
C745 H715 0.950 . S
C745 C740 1.363 . S
C745 C744 1.415 . S
H746 C743 0.999 . S
H747 C728 0.913 . S
H748 C766 0.951 . S
H749 C768 0.951 . S
H750 C770 0.950 . S
H751 C771 0.950 . S
H752 C773 0.950 . S
H753 C776 0.950 . S
H754 C777 0.950 . S
H755 C779 0.950 . S
H756 C780 0.950 . S
H757 C781 0.951 . S
H758 C783 0.951 . S
H759 C785 0.950 . S
H760 C786 0.950 . S
H761 C788 0.950 . S
H762 C791 0.950 . S
H763 C792 0.950 . S
H764 C794 0.950 . S
H765 C795 0.950 . S
C766 H748 0.951 . S
C766 C767 1.366 . S
C766 C768 1.388 . S
C767 C766 1.366 . S
C767 C771 1.385 . S
C768 H749 0.951 . S
C768 C766 1.388 . S
C768 C769 1.366 . S
C769 C768 1.366 . S
C769 C770 1.414 . S
C769 C772 1.499 . S
C770 H750 0.950 . S
C770 C769 1.414 . S
C770 C771 1.374 . S
C771 H751 0.950 . S
C771 C767 1.385 . S
C771 C770 1.374 . S
C772 C769 1.499 . S
C772 C773 1.373 . S
C772 C774 1.389 . S
C773 H752 0.950 . S
C773 C772 1.373 . S
C773 C789 1.377 . S
C774 C772 1.389 . S
C774 C775 1.524 . S
C774 C788 1.377 . S
C775 C774 1.524 . S
C775 C776 1.397 . S
C775 C780 1.363 . S
C776 H753 0.950 . S
C776 C775 1.397 . S
C776 C777 1.334 . S
C777 H754 0.950 . S
C777 C776 1.334 . S
C777 C778 1.287 . S
C778 C777 1.287 . S
C778 C779 1.524 . S
C778 H797 0.913 . S
C779 H755 0.950 . S
C779 C778 1.524 . S
C779 C780 1.415 . S
C780 H756 0.950 . S
C780 C775 1.363 . S
C780 C779 1.415 . S
C781 H757 0.951 . S
C781 C782 1.366 . S
C781 C783 1.388 . S
C782 C781 1.366 . S
C782 C786 1.385 . S
C783 H758 0.951 . S
C783 C781 1.388 . S
C783 C784 1.366 . S
C784 C783 1.366 . S
C784 C785 1.414 . S
C784 C787 1.499 . S
C785 H759 0.950 . S
C785 C784 1.414 . S
C785 C786 1.374 . S
C786 H760 0.950 . S
C786 C782 1.385 . S
C786 C785 1.374 . S
C787 C784 1.499 . S
C787 C788 1.373 . S
C787 C789 1.389 . S
C788 H761 0.950 . S
C788 C774 1.377 . S
C788 C787 1.373 . S
C789 C773 1.377 . S
C789 C787 1.389 . S
C789 C790 1.524 . S
C790 C789 1.524 . S
C790 C791 1.397 . S
C790 C795 1.363 . S
C791 H762 0.950 . S
C791 C790 1.397 . S
C791 C792 1.334 . S
C792 H763 0.950 . S
C792 C791 1.334 . S
C792 C793 1.287 . S
C793 C792 1.287 . S
C793 C794 1.524 . S
C793 H796 0.999 . S
C794 H764 0.950 . S
C794 C793 1.524 . S
C794 C795 1.415 . S
C795 H765 0.950 . S
C795 C790 1.363 . S
C795 C794 1.415 . S
H796 C793 0.999 . S
H797 C778 0.913 . S
H798 C816 0.951 . S
H799 C818 0.951 . S
H800 C820 0.950 . S
H801 C821 0.950 . S
H802 C823 0.950 . S
H803 C826 0.950 . S
H804 C827 0.950 . S
H805 C829 0.950 . S
H806 C830 0.950 . S
H807 C831 0.951 . S
H808 C833 0.951 . S
H809 C835 0.950 . S
H810 C836 0.950 . S
H811 C838 0.950 . S
H812 C841 0.950 . S
H813 C842 0.950 . S
H814 C844 0.950 . S
H815 C845 0.950 . S
C816 H798 0.951 . S
C816 C817 1.366 . S
C816 C818 1.388 . S
C817 C816 1.366 . S
C817 C821 1.385 . S
C818 H799 0.951 . S
C818 C816 1.388 . S
C818 C819 1.366 1_565 S
C819 C818 1.366 1_545 S
C819 C820 1.414 . S
C819 C822 1.499 . S
C820 H800 0.950 . S
C820 C819 1.414 . S
C820 C821 1.374 1_545 S
C821 H801 0.950 . S
C821 C817 1.385 . S
C821 C820 1.374 1_565 S
C822 C819 1.499 . S
C822 C823 1.373 . S
C822 C824 1.389 . S
C823 H802 0.950 . S
C823 C822 1.373 . S
C823 C839 1.377 . S
C824 C822 1.389 . S
C824 C825 1.524 . S
C824 C838 1.377 . S
C825 C824 1.524 . S
C825 C826 1.397 . S
C825 C830 1.363 . S
C826 H803 0.950 . S
C826 C825 1.397 . S
C826 C827 1.334 . S
C827 H804 0.950 . S
C827 C826 1.334 . S
C827 C828 1.287 . S
C828 C827 1.287 . S
C828 C829 1.524 . S
C828 H847 0.913 . S
C829 H805 0.950 . S
C829 C828 1.524 . S
C829 C830 1.415 . S
C830 H806 0.950 . S
C830 C825 1.363 . S
C830 C829 1.415 . S
C831 H807 0.951 . S
C831 C832 1.366 . S
C831 C833 1.388 . S
C832 C831 1.366 . S
C832 C836 1.385 . S
C833 H808 0.951 . S
C833 C831 1.388 . S
C833 C834 1.366 . S
C834 C833 1.366 . S
C834 C835 1.414 . S
C834 C837 1.499 . S
C835 H809 0.950 . S
C835 C834 1.414 . S
C835 C836 1.374 . S
C836 H810 0.950 . S
C836 C832 1.385 . S
C836 C835 1.374 . S
C837 C834 1.499 . S
C837 C838 1.373 . S
C837 C839 1.389 . S
C838 H811 0.950 . S
C838 C824 1.377 . S
C838 C837 1.373 . S
C839 C823 1.377 . S
C839 C837 1.389 . S
C839 C840 1.524 . S
C840 C839 1.524 . S
C840 C841 1.397 . S
C840 C845 1.363 . S
C841 H812 0.950 . S
C841 C840 1.397 . S
C841 C842 1.334 1_655 S
C842 H813 0.950 . S
C842 C841 1.334 1_455 S
C842 C843 1.287 . S
C843 C842 1.287 . S
C843 C844 1.524 . S
C843 H846 0.999 . S
C844 H814 0.950 . S
C844 C843 1.524 . S
C844 C845 1.415 1_455 S
C845 H815 0.950 . S
C845 C840 1.363 . S
C845 C844 1.415 1_655 S
H846 C843 0.999 . S
H847 C828 0.913 . S
H848 C866 0.951 . S
H849 C868 0.914 1_565 S
H850 C870 0.950 . S
H851 C871 0.950 . S
H852 C873 0.950 1_545 S
H853 C876 0.950 . S
H854 C877 0.950 . S
H855 C879 0.950 . S
H856 C880 0.950 . S
H857 C881 0.951 . S
H858 C883 0.951 . S
H859 C885 0.950 . S
H860 C886 0.950 . S
H861 C888 0.950 . S
H862 C891 0.950 . S
H863 C892 0.950 1_455 S
H864 C894 0.950 . S
H865 C895 0.949 . S
C866 H848 0.951 . S
C866 C867 1.366 . S
C866 C868 1.427 . S
C867 C866 1.366 . S
C867 C871 1.385 . S
C868 H849 0.914 1_545 S
C868 C866 1.427 . S
C868 C869 1.365 . S
C869 C868 1.365 . S
C869 C870 1.415 . S
C869 C872 1.497 1_545 S
C870 H850 0.950 . S
C870 C869 1.415 . S
C870 C871 1.374 . S
C871 H851 0.950 . S
C871 C867 1.385 . S
C871 C870 1.374 . S
C872 C869 1.497 1_565 S
C872 C873 1.373 . S
C872 C874 1.389 . S
C873 H852 0.950 1_565 S
C873 C872 1.373 . S
C873 C889 1.377 . S
C874 C872 1.389 . S
C874 C875 1.524 . S
C874 C888 1.377 . S
C875 C874 1.524 . S
C875 C876 1.397 . S
C875 C880 1.363 . S
C876 H853 0.950 . S
C876 C875 1.397 . S
C876 C877 1.334 . S
C877 H854 0.950 . S
C877 C876 1.334 . S
C877 C878 1.287 . S
C878 C877 1.287 . S
C878 C879 1.524 . S
C878 H897 0.913 . S
C879 H855 0.950 . S
C879 C878 1.524 . S
C879 C880 1.415 . S
C880 H856 0.950 . S
C880 C875 1.363 . S
C880 C879 1.415 . S
C881 H857 0.951 . S
C881 C882 1.366 . S
C881 C883 1.388 . S
C882 C881 1.366 . S
C882 C886 1.385 . S
C883 H858 0.951 . S
C883 C881 1.388 . S
C883 C884 1.366 . S
C884 C883 1.366 . S
C884 C885 1.414 . S
C884 C887 1.499 . S
C885 H859 0.950 . S
C885 C884 1.414 . S
C885 C886 1.374 . S
C886 H860 0.950 . S
C886 C882 1.385 . S
C886 C885 1.374 . S
C887 C884 1.499 . S
C887 C888 1.373 . S
C887 C889 1.389 . S
C888 H861 0.950 . S
C888 C874 1.377 . S
C888 C887 1.373 . S
C889 C873 1.377 . S
C889 C887 1.389 . S
C889 C890 1.524 . S
C890 C889 1.524 . S
C890 C891 1.397 . S
C890 C895 1.363 . S
C891 H862 0.950 . S
C891 C890 1.397 . S
C891 C892 1.334 . S
C892 H863 0.950 1_655 S
C892 C891 1.334 . S
C892 C893 1.287 . S
C893 C892 1.287 . S
C893 C894 1.524 1_565 S
C893 H896 0.999 1_665 S
C894 H864 0.950 . S
C894 C893 1.524 1_545 S
C894 C895 1.415 1_545 S
C895 H865 0.949 . S
C895 C890 1.363 . S
C895 C894 1.415 1_565 S
H896 C893 0.999 1_445 S
H897 C878 0.913 . S
H898 C916 0.951 . S
H899 C918 0.951 . S
H900 C920 0.950 . S
H901 C921 0.950 . S
H902 C923 0.950 . S
H903 C926 0.950 . S
H904 C927 0.950 . S
H905 C929 0.950 . S
H906 C930 0.950 . S
H907 C931 0.951 . S
H908 C933 0.951 . S
H909 C935 0.950 . S
H910 C936 0.950 . S
H911 C938 0.950 . S
H912 C941 0.950 . S
H913 C942 0.950 . S
H914 C944 0.950 . S
H915 C945 0.950 . S
C916 H898 0.951 . S
C916 C917 1.366 . S
C916 C918 1.388 . S
C917 C916 1.366 . S
C917 C921 1.385 . S
C918 H899 0.951 . S
C918 C916 1.388 . S
C918 C919 1.366 . S
C919 C918 1.366 . S
C919 C920 1.414 . S
C919 C922 1.499 . S
C920 H900 0.950 . S
C920 C919 1.414 . S
C920 C921 1.374 . S
C921 H901 0.950 . S
C921 C917 1.385 . S
C921 C920 1.374 . S
C922 C919 1.499 . S
C922 C923 1.373 . S
C922 C924 1.389 . S
C923 H902 0.950 . S
C923 C922 1.373 . S
C923 C939 1.377 . S
C924 C922 1.389 . S
C924 C925 1.524 . S
C924 C938 1.377 . S
C925 C924 1.524 . S
C925 C926 1.397 . S
C925 C930 1.363 . S
C926 H903 0.950 . S
C926 C925 1.397 . S
C926 C927 1.334 . S
C927 H904 0.950 . S
C927 C926 1.334 . S
C927 C928 1.287 . S
C928 C927 1.287 . S
C928 C929 1.524 . S
C928 H947 0.913 . S
C929 H905 0.950 . S
C929 C928 1.524 . S
C929 C930 1.415 . S
C930 H906 0.950 . S
C930 C925 1.363 . S
C930 C929 1.415 . S
C931 H907 0.951 . S
C931 C932 1.366 . S
C931 C933 1.388 . S
C932 C931 1.366 . S
C932 C936 1.385 . S
C933 H908 0.951 . S
C933 C931 1.388 . S
C933 C934 1.366 . S
C934 C933 1.366 . S
C934 C935 1.414 . S
C934 C937 1.499 . S
C935 H909 0.950 . S
C935 C934 1.414 . S
C935 C936 1.374 . S
C936 H910 0.950 . S
C936 C932 1.385 . S
C936 C935 1.374 . S
C937 C934 1.499 . S
C937 C938 1.373 . S
C937 C939 1.389 . S
C938 H911 0.950 . S
C938 C924 1.377 . S
C938 C937 1.373 . S
C939 C923 1.377 . S
C939 C937 1.389 . S
C939 C940 1.524 . S
C940 C939 1.524 . S
C940 C941 1.397 . S
C940 C945 1.363 . S
C941 H912 0.950 . S
C941 C940 1.397 . S
C941 C942 1.334 . S
C942 H913 0.950 . S
C942 C941 1.334 . S
C942 C943 1.287 . S
C943 C942 1.287 . S
C943 C944 1.524 . S
C943 H946 0.999 . S
C944 H914 0.950 . S
C944 C943 1.524 . S
C944 C945 1.415 . S
C945 H915 0.950 . S
C945 C940 1.363 . S
C945 C944 1.415 . S
H946 C943 0.999 . S
H947 C928 0.913 . S
H948 C966 0.951 . S
H949 C968 0.951 . S
H950 C970 0.950 . S
H951 C971 0.950 . S
H952 C973 0.950 . S
H953 C976 0.950 . S
H954 C977 0.950 . S
H955 C979 0.950 . S
H956 C980 0.950 . S
H957 C981 0.951 . S
H958 C983 0.951 . S
H959 C985 0.950 . S
H960 C986 0.950 . S
H961 C988 0.950 . S
H962 C991 0.950 . S
H963 C992 0.950 . S
H964 C994 0.950 . S
H965 C995 0.950 . S
C966 H948 0.951 . S
C966 C967 1.366 . S
C966 C968 1.388 . S
C967 C966 1.366 . S
C967 C971 1.385 . S
C968 H949 0.951 . S
C968 C966 1.388 . S
C968 C969 1.366 . S
C969 C968 1.366 . S
C969 C970 1.414 . S
C969 C972 1.499 . S
C970 H950 0.950 . S
C970 C969 1.414 . S
C970 C971 1.374 . S
C971 H951 0.950 . S
C971 C967 1.385 . S
C971 C970 1.374 . S
C972 C969 1.499 . S
C972 C973 1.373 . S
C972 C974 1.389 . S
C973 H952 0.950 . S
C973 C972 1.373 . S
C973 C989 1.377 . S
C974 C972 1.389 . S
C974 C975 1.524 . S
C974 C988 1.377 . S
C975 C974 1.524 . S
C975 C976 1.397 . S
C975 C980 1.363 . S
C976 H953 0.950 . S
C976 C975 1.397 . S
C976 C977 1.334 . S
C977 H954 0.950 . S
C977 C976 1.334 . S
C977 C978 1.287 . S
C978 C977 1.287 . S
C978 C979 1.524 . S
C978 H997 0.913 . S
C979 H955 0.950 . S
C979 C978 1.524 . S
C979 C980 1.415 . S
C980 H956 0.950 . S
C980 C975 1.363 . S
C980 C979 1.415 . S
C981 H957 0.951 . S
C981 C982 1.366 . S
C981 C983 1.388 . S
C982 C981 1.366 . S
C982 C986 1.385 . S
C983 H958 0.951 . S
C983 C981 1.388 . S
C983 C984 1.366 . S
C984 C983 1.366 . S
C984 C985 1.414 . S
C984 C987 1.499 . S
C985 H959 0.950 . S
C985 C984 1.414 . S
C985 C986 1.374 . S
C986 H960 0.950 . S
C986 C982 1.385 . S
C986 C985 1.374 . S
C987 C984 1.499 . S
C987 C988 1.373 . S
C987 C989 1.389 . S
C988 H961 0.950 . S
C988 C974 1.377 . S
C988 C987 1.373 . S
C989 C973 1.377 . S
C989 C987 1.389 . S
C989 C990 1.524 . S
C990 C989 1.524 . S
C990 C991 1.397 . S
C990 C995 1.363 . S
C991 H962 0.950 . S
C991 C990 1.397 . S
C991 C992 1.334 . S
C992 H963 0.950 . S
C992 C991 1.334 . S
C992 C993 1.287 . S
C993 C992 1.287 . S
C993 C994 1.524 . S
C993 H996 0.999 . S
C994 H964 0.950 . S
C994 C993 1.524 . S
C994 C995 1.415 . S
C995 H965 0.950 . S
C995 C990 1.363 . S
C995 C994 1.415 . S
H996 C993 0.999 . S
H997 C978 0.913 . S
H998 C1016 0.951 . S
H999 C1018 0.951 . S
H1000 C1020 0.950 . S
H1001 C1021 0.950 . S
H1002 C1023 0.950 . S
H1003 C1026 0.950 . S
H1004 C1027 0.950 . S
H1005 C1029 0.950 . S
H1006 C1030 0.950 . S
H1007 C1031 0.951 . S
H1008 C1033 0.951 . S
H1009 C1035 0.950 . S
H1010 C1036 0.950 . S
H1011 C1038 0.950 . S
H1012 C1041 0.950 . S
H1013 C1042 0.950 . S
H1014 C1044 0.950 . S
H1015 C1045 0.950 . S
C1016 H998 0.951 . S
C1016 C1017 1.366 . S
C1016 C1018 1.388 . S
C1017 C1016 1.366 . S
C1017 C1021 1.385 . S
C1018 H999 0.951 . S
C1018 C1016 1.388 . S
C1018 C1019 1.336 1_545 S
C1019 C1018 1.336 1_565 S
C1019 C1020 1.419 . S
C1019 C1022 1.524 . S
C1020 H1000 0.950 . S
C1020 C1019 1.419 . S
C1020 C1021 1.374 1_565 S
C1021 H1001 0.950 . S
C1021 C1017 1.385 . S
C1021 C1020 1.374 1_545 S
C1022 C1019 1.524 . S
C1022 C1023 1.373 . S
C1022 C1024 1.389 . S
C1023 H1002 0.950 . S
C1023 C1022 1.373 . S
C1023 C1039 1.377 . S
C1024 C1022 1.389 . S
C1024 C1025 1.524 1_565 S
C1024 C1038 1.377 . S
C1025 C1024 1.524 1_545 S
C1025 C1026 1.397 . S
C1025 C1030 1.363 . S
C1026 H1003 0.950 . S
C1026 C1025 1.397 . S
C1026 C1027 1.334 . S
C1027 H1004 0.950 . S
C1027 C1026 1.334 . S
C1027 C1028 1.287 . S
C1028 C1027 1.287 . S
C1028 C1029 1.524 . S
C1028 H1047 0.913 . S
C1029 H1005 0.950 . S
C1029 C1028 1.524 . S
C1029 C1030 1.415 . S
C1030 H1006 0.950 . S
C1030 C1025 1.363 . S
C1030 C1029 1.415 . S
C1031 H1007 0.951 . S
C1031 C1032 1.366 . S
C1031 C1033 1.388 . S
C1032 C1031 1.366 . S
C1032 C1036 1.385 . S
C1033 H1008 0.951 . S
C1033 C1031 1.388 . S
C1033 C1034 1.366 . S
C1034 C1033 1.366 . S
C1034 C1035 1.414 . S
C1034 C1037 1.499 . S
C1035 H1009 0.950 . S
C1035 C1034 1.414 . S
C1035 C1036 1.374 . S
C1036 H1010 0.950 . S
C1036 C1032 1.385 . S
C1036 C1035 1.374 . S
C1037 C1034 1.499 . S
C1037 C1038 1.373 . S
C1037 C1039 1.389 . S
C1038 H1011 0.950 . S
C1038 C1024 1.377 . S
C1038 C1037 1.373 . S
C1039 C1023 1.377 . S
C1039 C1037 1.389 . S
C1039 C1040 1.524 . S
C1040 C1039 1.524 . S
C1040 C1041 1.397 . S
C1040 C1045 1.363 . S
C1041 H1012 0.950 . S
C1041 C1040 1.397 . S
C1041 C1042 1.334 . S
C1042 H1013 0.950 . S
C1042 C1041 1.334 . S
C1042 C1043 1.287 . S
C1043 C1042 1.287 . S
C1043 C1044 1.524 . S
C1043 H1046 0.999 . S
C1044 H1014 0.950 . S
C1044 C1043 1.524 . S
C1044 C1045 1.415 . S
C1045 H1015 0.950 . S
C1045 C1040 1.363 . S
C1045 C1044 1.415 . S
H1046 C1043 0.999 . S
H1047 C1028 0.913 . S
H1048 C1066 0.951 1_556 S
H1049 C1068 0.951 . S
H1050 C1070 0.950 . S
H1051 C1071 0.950 . S
H1052 C1073 0.950 . S
H1053 C1076 0.950 . S
H1054 C1077 0.950 . S
H1055 C1079 0.950 . S
H1056 C1080 0.950 . S
H1057 C1081 0.951 . S
H1058 C1083 0.951 . S
H1059 C1085 0.950 . S
H1060 C1086 0.950 . S
H1061 C1088 0.950 . S
H1062 C1091 0.950 . S
H1063 C1092 0.950 . S
H1064 C1094 0.950 . S
H1065 C1095 0.950 . S
C1066 H1048 0.951 1_554 S
C1066 C1067 1.366 . S
C1066 C1068 1.388 . S
C1067 C1066 1.366 . S
C1067 C1071 1.385 . S
C1068 H1049 0.951 . S
C1068 C1066 1.388 . S
C1068 C1069 1.366 . S
C1069 C1068 1.366 . S
C1069 C1070 1.414 . S
C1069 C1072 1.499 . S
C1070 H1050 0.950 . S
C1070 C1069 1.414 . S
C1070 C1071 1.374 . S
C1071 H1051 0.950 . S
C1071 C1067 1.385 . S
C1071 C1070 1.374 . S
C1072 C1069 1.499 . S
C1072 C1073 1.373 . S
C1072 C1074 1.389 . S
C1073 H1052 0.950 . S
C1073 C1072 1.373 . S
C1073 C1089 1.377 . S
C1074 C1072 1.389 . S
C1074 C1075 1.524 . S
C1074 C1088 1.377 . S
C1075 C1074 1.524 . S
C1075 C1076 1.397 . S
C1075 C1080 1.363 . S
C1076 H1053 0.950 . S
C1076 C1075 1.397 . S
C1076 C1077 1.334 . S
C1077 H1054 0.950 . S
C1077 C1076 1.334 . S
C1077 C1078 1.287 . S
C1078 C1077 1.287 . S
C1078 C1079 1.524 . S
C1078 H1097 0.913 . S
C1079 H1055 0.950 . S
C1079 C1078 1.524 . S
C1079 C1080 1.415 . S
C1080 H1056 0.950 . S
C1080 C1075 1.363 . S
C1080 C1079 1.415 . S
C1081 H1057 0.951 . S
C1081 C1082 1.366 . S
C1081 C1083 1.388 . S
C1082 C1081 1.366 . S
C1082 C1086 1.385 . S
C1083 H1058 0.951 . S
C1083 C1081 1.388 . S
C1083 C1084 1.366 . S
C1084 C1083 1.366 . S
C1084 C1085 1.414 . S
C1084 C1087 1.499 . S
C1085 H1059 0.950 . S
C1085 C1084 1.414 . S
C1085 C1086 1.374 . S
C1086 H1060 0.950 . S
C1086 C1082 1.385 . S
C1086 C1085 1.374 . S
C1087 C1084 1.499 . S
C1087 C1088 1.373 . S
C1087 C1089 1.389 . S
C1088 H1061 0.950 . S
C1088 C1074 1.377 . S
C1088 C1087 1.373 . S
C1089 C1073 1.377 . S
C1089 C1087 1.389 . S
C1089 C1090 1.524 . S
C1090 C1089 1.524 . S
C1090 C1091 1.397 . S
C1090 C1095 1.363 . S
C1091 H1062 0.950 . S
C1091 C1090 1.397 . S
C1091 C1092 1.334 . S
C1092 H1063 0.950 . S
C1092 C1091 1.334 . S
C1092 C1093 1.287 . S
C1093 C1092 1.287 . S
C1093 C1094 1.524 . S
C1093 H1096 0.999 . S
C1094 H1064 0.950 . S
C1094 C1093 1.524 . S
C1094 C1095 1.415 . S
C1095 H1065 0.950 . S
C1095 C1090 1.363 . S
C1095 C1094 1.415 . S
H1096 C1093 0.999 . S
H1097 C1078 0.913 . S
H1098 C1116 0.951 . S
H1099 C1118 0.951 . S
H1100 C1120 0.950 . S
H1101 C1121 0.950 . S
H1102 C1123 0.950 . S
H1103 C1126 0.950 . S
H1104 C1127 0.950 . S
H1105 C1129 0.950 . S
H1106 C1130 0.950 . S
H1107 C1131 0.951 . S
H1108 C1133 0.951 . S
H1109 C1135 0.950 . S
H1110 C1136 0.950 . S
H1111 C1138 0.950 . S
H1112 C1141 0.950 . S
H1113 C1142 0.950 . S
H1114 C1144 0.950 . S
H1115 C1145 0.950 . S
C1116 H1098 0.951 . S
C1116 C1117 1.366 . S
C1116 C1118 1.388 . S
C1117 C1116 1.366 . S
C1117 C1121 1.385 . S
C1118 H1099 0.951 . S
C1118 C1116 1.388 . S
C1118 C1119 1.366 . S
C1119 C1118 1.366 . S
C1119 C1120 1.414 . S
C1119 C1122 1.499 . S
C1120 H1100 0.950 . S
C1120 C1119 1.414 . S
C1120 C1121 1.374 . S
C1121 H1101 0.950 . S
C1121 C1117 1.385 . S
C1121 C1120 1.374 . S
C1122 C1119 1.499 . S
C1122 C1123 1.373 . S
C1122 C1124 1.389 . S
C1123 H1102 0.950 . S
C1123 C1122 1.373 . S
C1123 C1139 1.377 . S
C1124 C1122 1.389 . S
C1124 C1125 1.524 . S
C1124 C1138 1.377 . S
C1125 C1124 1.524 . S
C1125 C1126 1.397 . S
C1125 C1130 1.363 . S
C1126 H1103 0.950 . S
C1126 C1125 1.397 . S
C1126 C1127 1.334 . S
C1127 H1104 0.950 . S
C1127 C1126 1.334 . S
C1127 C1128 1.287 . S
C1128 C1127 1.287 . S
C1128 C1129 1.524 . S
C1128 H1147 0.913 . S
C1129 H1105 0.950 . S
C1129 C1128 1.524 . S
C1129 C1130 1.415 . S
C1130 H1106 0.950 . S
C1130 C1125 1.363 . S
C1130 C1129 1.415 . S
C1131 H1107 0.951 . S
C1131 C1132 1.366 . S
C1131 C1133 1.388 . S
C1132 C1131 1.366 . S
C1132 C1136 1.385 . S
C1133 H1108 0.951 . S
C1133 C1131 1.388 . S
C1133 C1134 1.366 . S
C1134 C1133 1.366 . S
C1134 C1135 1.414 . S
C1134 C1137 1.499 . S
C1135 H1109 0.950 . S
C1135 C1134 1.414 . S
C1135 C1136 1.374 . S
C1136 H1110 0.950 . S
C1136 C1132 1.385 . S
C1136 C1135 1.374 . S
C1137 C1134 1.499 . S
C1137 C1138 1.373 . S
C1137 C1139 1.389 . S
C1138 H1111 0.950 . S
C1138 C1124 1.377 . S
C1138 C1137 1.373 . S
C1139 C1123 1.377 . S
C1139 C1137 1.389 . S
C1139 C1140 1.524 . S
C1140 C1139 1.524 . S
C1140 C1141 1.397 . S
C1140 C1145 1.363 . S
C1141 H1112 0.950 . S
C1141 C1140 1.397 . S
C1141 C1142 1.334 . S
C1142 H1113 0.950 . S
C1142 C1141 1.334 . S
C1142 C1143 1.287 . S
C1143 C1142 1.287 . S
C1143 C1144 1.524 . S
C1143 H1146 0.999 . S
C1144 H1114 0.950 . S
C1144 C1143 1.524 . S
C1144 C1145 1.415 . S
C1145 H1115 0.950 . S
C1145 C1140 1.363 . S
C1145 C1144 1.415 . S
H1146 C1143 0.999 . S
H1147 C1128 0.913 . S
H1148 C1166 0.951 1_554 S
H1149 C1168 0.951 . S
H1150 C1170 0.950 . S
H1151 C1171 0.950 . S
H1152 C1173 0.950 . S
H1153 C1176 0.950 . S
H1154 C1177 0.950 . S
H1155 C1179 0.950 . S
H1156 C1180 0.950 . S
H1157 C1181 0.951 . S
H1158 C1183 0.951 . S
H1159 C1185 0.950 . S
H1160 C1186 0.950 . S
H1161 C1188 0.950 . S
H1162 C1191 0.950 . S
H1163 C1192 0.950 . S
H1164 C1194 0.950 . S
H1165 C1195 0.950 . S
C1166 H1148 0.951 1_556 S
C1166 C1167 1.364 1_556 S
C1166 C1168 1.388 . S
C1167 C1166 1.364 1_554 S
C1167 C1171 1.380 1_554 S
C1168 H1149 0.951 . S
C1168 C1166 1.388 . S
C1168 C1169 1.366 . S
C1169 C1168 1.366 . S
C1169 C1170 1.414 . S
C1169 C1172 1.499 . S
C1170 H1150 0.950 . S
C1170 C1169 1.414 . S
C1170 C1171 1.374 . S
C1171 H1151 0.950 . S
C1171 C1167 1.380 1_556 S
C1171 C1170 1.374 . S
C1172 C1169 1.499 . S
C1172 C1173 1.373 . S
C1172 C1174 1.389 . S
C1173 H1152 0.950 . S
C1173 C1172 1.373 . S
C1173 C1189 1.377 . S
C1174 C1172 1.389 . S
C1174 C1175 1.524 . S
C1174 C1188 1.377 . S
C1175 C1174 1.524 . S
C1175 C1176 1.397 . S
C1175 C1180 1.363 . S
C1176 H1153 0.950 . S
C1176 C1175 1.397 . S
C1176 C1177 1.334 . S
C1177 H1154 0.950 . S
C1177 C1176 1.334 . S
C1177 C1178 1.287 . S
C1178 C1177 1.287 . S
C1178 C1179 1.524 . S
C1178 H1197 0.913 . S
C1179 H1155 0.950 . S
C1179 C1178 1.524 . S
C1179 C1180 1.415 . S
C1180 H1156 0.950 . S
C1180 C1175 1.363 . S
C1180 C1179 1.415 . S
C1181 H1157 0.951 . S
C1181 C1182 1.366 . S
C1181 C1183 1.388 . S
C1182 C1181 1.366 . S
C1182 C1186 1.385 . S
C1183 H1158 0.951 . S
C1183 C1181 1.388 . S
C1183 C1184 1.366 . S
C1184 C1183 1.366 . S
C1184 C1185 1.414 . S
C1184 C1187 1.499 . S
C1185 H1159 0.950 . S
C1185 C1184 1.414 . S
C1185 C1186 1.374 . S
C1186 H1160 0.950 . S
C1186 C1182 1.385 . S
C1186 C1185 1.374 . S
C1187 C1184 1.499 . S
C1187 C1188 1.373 . S
C1187 C1189 1.389 . S
C1188 H1161 0.950 . S
C1188 C1174 1.377 . S
C1188 C1187 1.373 . S
C1189 C1173 1.377 . S
C1189 C1187 1.389 . S
C1189 C1190 1.524 . S
C1190 C1189 1.524 . S
C1190 C1191 1.397 . S
C1190 C1195 1.363 . S
C1191 H1162 0.950 . S
C1191 C1190 1.397 . S
C1191 C1192 1.334 . S
C1192 H1163 0.950 . S
C1192 C1191 1.334 . S
C1192 C1193 1.287 . S
C1193 C1192 1.287 . S
C1193 C1194 1.524 . S
C1193 H1196 0.999 . S
C1194 H1164 0.950 . S
C1194 C1193 1.524 . S
C1194 C1195 1.415 . S
C1195 H1165 0.950 . S
C1195 C1190 1.363 . S
C1195 C1194 1.415 . S
H1196 C1193 0.999 . S
H1197 C1178 0.913 . S
H1198 C1216 0.951 . S
H1199 C1218 0.951 . S
H1200 C1220 0.950 . S
H1201 C1221 0.950 . S
H1202 C1223 0.950 . S
H1203 C1226 0.950 . S
H1204 C1227 0.950 . S
H1205 C1229 0.950 . S
H1206 C1230 0.950 . S
H1207 C1231 0.951 . S
H1208 C1233 0.951 . S
H1209 C1235 0.950 . S
H1210 C1236 0.950 . S
H1211 C1238 0.950 . S
H1212 C1241 0.950 . S
H1213 C1242 0.950 . S
H1214 C1244 0.950 . S
H1215 C1245 0.950 . S
C1216 H1198 0.951 . S
C1216 C1217 1.366 . S
C1216 C1218 1.388 . S
C1217 C1216 1.366 . S
C1217 C1221 1.385 . S
C1218 H1199 0.951 . S
C1218 C1216 1.388 . S
C1218 C1219 1.366 . S
C1219 C1218 1.366 . S
C1219 C1220 1.414 . S
C1219 C1222 1.499 . S
C1220 H1200 0.950 . S
C1220 C1219 1.414 . S
C1220 C1221 1.374 . S
C1221 H1201 0.950 . S
C1221 C1217 1.385 . S
C1221 C1220 1.374 . S
C1222 C1219 1.499 . S
C1222 C1223 1.373 . S
C1222 C1224 1.389 . S
C1223 H1202 0.950 . S
C1223 C1222 1.373 . S
C1223 C1239 1.377 . S
C1224 C1222 1.389 . S
C1224 C1225 1.524 . S
C1224 C1238 1.377 . S
C1225 C1224 1.524 . S
C1225 C1226 1.397 . S
C1225 C1230 1.363 . S
C1226 H1203 0.950 . S
C1226 C1225 1.397 . S
C1226 C1227 1.334 . S
C1227 H1204 0.950 . S
C1227 C1226 1.334 . S
C1227 C1228 1.287 . S
C1228 C1227 1.287 . S
C1228 C1229 1.524 . S
C1228 H1247 0.913 . S
C1229 H1205 0.950 . S
C1229 C1228 1.524 . S
C1229 C1230 1.415 . S
C1230 H1206 0.950 . S
C1230 C1225 1.363 . S
C1230 C1229 1.415 . S
C1231 H1207 0.951 . S
C1231 C1232 1.366 . S
C1231 C1233 1.388 . S
C1232 C1231 1.366 . S
C1232 C1236 1.385 . S
C1233 H1208 0.951 . S
C1233 C1231 1.388 . S
C1233 C1234 1.366 . S
C1234 C1233 1.366 . S
C1234 C1235 1.414 . S
C1234 C1237 1.499 . S
C1235 H1209 0.950 . S
C1235 C1234 1.414 . S
C1235 C1236 1.374 . S
C1236 H1210 0.950 . S
C1236 C1232 1.385 . S
C1236 C1235 1.374 . S
C1237 C1234 1.499 . S
C1237 C1238 1.373 . S
C1237 C1239 1.389 . S
C1238 H1211 0.950 . S
C1238 C1224 1.377 . S
C1238 C1237 1.373 . S
C1239 C1223 1.377 . S
C1239 C1237 1.389 . S
C1239 C1240 1.524 . S
C1240 C1239 1.524 . S
C1240 C1241 1.397 . S
C1240 C1245 1.363 . S
C1241 H1212 0.950 . S
C1241 C1240 1.397 . S
C1241 C1242 1.334 . S
C1242 H1213 0.950 . S
C1242 C1241 1.334 . S
C1242 C1243 1.287 . S
C1243 C1242 1.287 . S
C1243 C1244 1.524 . S
C1243 H1246 0.999 . S
C1244 H1214 0.950 . S
C1244 C1243 1.524 . S
C1244 C1245 1.415 . S
C1245 H1215 0.950 . S
C1245 C1240 1.363 . S
C1245 C1244 1.415 . S
H1246 C1243 0.999 . S
H1247 C1228 0.913 . S
H1248 C1266 0.939 1_554 S
H1249 C1268 0.951 . S
H1250 C1270 0.950 . S
H1251 C1271 0.950 . S
H1252 C1273 0.950 . S
H1253 C1276 0.950 . S
H1254 C1277 0.950 . S
H1255 C1279 0.950 . S
H1256 C1280 0.950 . S
H1257 C1281 0.951 . S
H1258 C1283 0.951 . S
H1259 C1285 0.950 . S
H1260 C1286 0.950 . S
H1261 C1288 0.950 . S
H1262 C1291 0.950 . S
H1263 C1292 0.950 . S
H1264 C1294 0.950 . S
H1265 C1295 0.950 . S
C1266 H1248 0.939 1_556 S
C1266 C1267 1.366 . S
C1266 C1268 1.388 . S
C1267 C1266 1.366 . S
C1267 C1271 1.385 . S
C1268 H1249 0.951 . S
C1268 C1266 1.388 . S
C1268 C1269 1.366 . S
C1269 C1268 1.366 . S
C1269 C1270 1.414 . S
C1269 C1272 1.499 . S
C1270 H1250 0.950 . S
C1270 C1269 1.414 . S
C1270 C1271 1.374 . S
C1271 H1251 0.950 . S
C1271 C1267 1.385 . S
C1271 C1270 1.374 . S
C1272 C1269 1.499 . S
C1272 C1273 1.373 . S
C1272 C1274 1.389 . S
C1273 H1252 0.950 . S
C1273 C1272 1.373 . S
C1273 C1289 1.377 . S
C1274 C1272 1.389 . S
C1274 C1275 1.524 . S
C1274 C1288 1.377 . S
C1275 C1274 1.524 . S
C1275 C1276 1.397 . S
C1275 C1280 1.363 . S
C1276 H1253 0.950 . S
C1276 C1275 1.397 . S
C1276 C1277 1.334 . S
C1277 H1254 0.950 . S
C1277 C1276 1.334 . S
C1277 C1278 1.287 . S
C1278 C1277 1.287 . S
C1278 C1279 1.524 . S
C1278 H1297 0.913 . S
C1279 H1255 0.950 . S
C1279 C1278 1.524 . S
C1279 C1280 1.415 . S
C1280 H1256 0.950 . S
C1280 C1275 1.363 . S
C1280 C1279 1.415 . S
C1281 H1257 0.951 . S
C1281 C1282 1.366 . S
C1281 C1283 1.388 . S
C1282 C1281 1.366 . S
C1282 C1286 1.385 . S
C1283 H1258 0.951 . S
C1283 C1281 1.388 . S
C1283 C1284 1.366 . S
C1284 C1283 1.366 . S
C1284 C1285 1.414 . S
C1284 C1287 1.499 . S
C1285 H1259 0.950 . S
C1285 C1284 1.414 . S
C1285 C1286 1.374 . S
C1286 H1260 0.950 . S
C1286 C1282 1.385 . S
C1286 C1285 1.374 . S
C1287 C1284 1.499 . S
C1287 C1288 1.373 . S
C1287 C1289 1.389 . S
C1288 H1261 0.950 . S
C1288 C1274 1.377 . S
C1288 C1287 1.373 . S
C1289 C1273 1.377 . S
C1289 C1287 1.389 . S
C1289 C1290 1.524 . S
C1290 C1289 1.524 . S
C1290 C1291 1.397 . S
C1290 C1295 1.363 . S
C1291 H1262 0.950 . S
C1291 C1290 1.397 . S
C1291 C1292 1.334 . S
C1292 H1263 0.950 . S
C1292 C1291 1.334 . S
C1292 C1293 1.287 . S
C1293 C1292 1.287 . S
C1293 C1294 1.524 . S
C1293 H1296 0.999 . S
C1294 H1264 0.950 . S
C1294 C1293 1.524 . S
C1294 C1295 1.415 . S
C1295 H1265 0.950 . S
C1295 C1290 1.363 . S
C1295 C1294 1.415 . S
H1296 C1293 0.999 . S
H1297 C1278 0.913 . S
H1298 C1316 0.951 . S
H1299 C1318 0.951 . S
H1300 C1320 0.950 . S
H1301 C1321 0.950 . S
H1302 C1323 0.950 . S
H1303 C1326 0.950 . S
H1304 C1327 0.950 . S
H1305 C1329 0.950 . S
H1306 C1330 0.950 . S
H1307 C1331 0.951 . S
H1308 C1333 0.951 . S
H1309 C1335 0.950 . S
H1310 C1336 0.950 . S
H1311 C1338 0.950 . S
H1312 C1341 0.950 . S
H1313 C1342 0.950 . S
H1314 C1344 0.950 . S
H1315 C1345 0.950 . S
C1316 H1298 0.951 . S
C1316 C1317 1.366 . S
C1316 C1318 1.388 . S
C1317 C1316 1.366 . S
C1317 C1321 1.385 . S
C1318 H1299 0.951 . S
C1318 C1316 1.388 . S
C1318 C1319 1.366 . S
C1319 C1318 1.366 . S
C1319 C1320 1.414 . S
C1319 C1322 1.499 . S
C1320 H1300 0.950 . S
C1320 C1319 1.414 . S
C1320 C1321 1.374 . S
C1321 H1301 0.950 . S
C1321 C1317 1.385 . S
C1321 C1320 1.374 . S
C1322 C1319 1.499 . S
C1322 C1323 1.373 . S
C1322 C1324 1.389 . S
C1323 H1302 0.950 . S
C1323 C1322 1.373 . S
C1323 C1339 1.377 . S
C1324 C1322 1.389 . S
C1324 C1325 1.524 . S
C1324 C1338 1.377 . S
C1325 C1324 1.524 . S
C1325 C1326 1.397 . S
C1325 C1330 1.363 . S
C1326 H1303 0.950 . S
C1326 C1325 1.397 . S
C1326 C1327 1.334 . S
C1327 H1304 0.950 . S
C1327 C1326 1.334 . S
C1327 C1328 1.287 . S
C1328 C1327 1.287 . S
C1328 C1329 1.524 . S
C1328 H1347 0.913 . S
C1329 H1305 0.950 . S
C1329 C1328 1.524 . S
C1329 C1330 1.415 . S
C1330 H1306 0.950 . S
C1330 C1325 1.363 . S
C1330 C1329 1.415 . S
C1331 H1307 0.951 . S
C1331 C1332 1.366 . S
C1331 C1333 1.388 . S
C1332 C1331 1.366 . S
C1332 C1336 1.385 . S
C1333 H1308 0.951 . S
C1333 C1331 1.388 . S
C1333 C1334 1.366 . S
C1334 C1333 1.366 . S
C1334 C1335 1.414 . S
C1334 C1337 1.499 . S
C1335 H1309 0.950 . S
C1335 C1334 1.414 . S
C1335 C1336 1.374 . S
C1336 H1310 0.950 . S
C1336 C1332 1.385 . S
C1336 C1335 1.374 . S
C1337 C1334 1.499 . S
C1337 C1338 1.373 . S
C1337 C1339 1.389 . S
C1338 H1311 0.950 . S
C1338 C1324 1.377 . S
C1338 C1337 1.373 . S
C1339 C1323 1.377 . S
C1339 C1337 1.389 . S
C1339 C1340 1.524 . S
C1340 C1339 1.524 . S
C1340 C1341 1.397 . S
C1340 C1345 1.363 . S
C1341 H1312 0.950 . S
C1341 C1340 1.397 . S
C1341 C1342 1.334 . S
C1342 H1313 0.950 . S
C1342 C1341 1.334 . S
C1342 C1343 1.287 . S
C1343 C1342 1.287 . S
C1343 C1344 1.524 . S
C1343 H1346 0.999 . S
C1344 H1314 0.950 . S
C1344 C1343 1.524 . S
C1344 C1345 1.415 . S
C1345 H1315 0.950 . S
C1345 C1340 1.363 . S
C1345 C1344 1.415 . S
H1346 C1343 0.999 . S
H1347 C1328 0.913 . S
H1348 C1366 0.963 . S
H1349 C1368 0.951 . S
H1350 C1370 0.950 . S
H1351 C1371 0.950 . S
H1352 C1373 0.950 . S
H1353 C1376 0.950 . S
H1354 C1377 0.950 . S
H1355 C1379 0.950 . S
H1356 C1380 0.950 . S
H1357 C1381 0.951 . S
H1358 C1383 0.951 . S
H1359 C1385 0.950 . S
H1360 C1386 0.950 . S
H1361 C1388 0.950 . S
H1362 C1391 0.950 . S
H1363 C1392 0.950 . S
H1364 C1394 0.950 . S
H1365 C1395 0.950 . S
C1366 H1348 0.963 . S
C1366 C1367 1.355 1_554 S
C1366 C1368 1.388 . S
C1367 C1366 1.355 1_556 S
C1367 C1371 1.370 1_556 S
C1368 H1349 0.951 . S
C1368 C1366 1.388 . S
C1368 C1369 1.366 . S
C1369 C1368 1.366 . S
C1369 C1370 1.414 . S
C1369 C1372 1.499 . S
C1370 H1350 0.950 . S
C1370 C1369 1.414 . S
C1370 C1371 1.374 . S
C1371 H1351 0.950 . S
C1371 C1367 1.370 1_554 S
C1371 C1370 1.374 . S
C1372 C1369 1.499 . S
C1372 C1373 1.373 . S
C1372 C1374 1.389 . S
C1373 H1352 0.950 . S
C1373 C1372 1.373 . S
C1373 C1389 1.377 . S
C1374 C1372 1.389 . S
C1374 C1375 1.524 . S
C1374 C1388 1.377 . S
C1375 C1374 1.524 . S
C1375 C1376 1.397 . S
C1375 C1380 1.363 . S
C1376 H1353 0.950 . S
C1376 C1375 1.397 . S
C1376 C1377 1.334 . S
C1377 H1354 0.950 . S
C1377 C1376 1.334 . S
C1377 C1378 1.287 . S
C1378 C1377 1.287 . S
C1378 C1379 1.524 . S
C1378 H1397 0.913 . S
C1379 H1355 0.950 . S
C1379 C1378 1.524 . S
C1379 C1380 1.415 . S
C1380 H1356 0.950 . S
C1380 C1375 1.363 . S
C1380 C1379 1.415 . S
C1381 H1357 0.951 . S
C1381 C1382 1.366 . S
C1381 C1383 1.388 . S
C1382 C1381 1.366 . S
C1382 C1386 1.385 . S
C1383 H1358 0.951 . S
C1383 C1381 1.388 . S
C1383 C1384 1.366 . S
C1384 C1383 1.366 . S
C1384 C1385 1.414 . S
C1384 C1387 1.499 . S
C1385 H1359 0.950 . S
C1385 C1384 1.414 . S
C1385 C1386 1.374 . S
C1386 H1360 0.950 . S
C1386 C1382 1.385 . S
C1386 C1385 1.374 . S
C1387 C1384 1.499 . S
C1387 C1388 1.373 . S
C1387 C1389 1.389 . S
C1388 H1361 0.950 . S
C1388 C1374 1.377 . S
C1388 C1387 1.373 . S
C1389 C1373 1.377 . S
C1389 C1387 1.389 . S
C1389 C1390 1.524 . S
C1390 C1389 1.524 . S
C1390 C1391 1.397 . S
C1390 C1395 1.363 . S
C1391 H1362 0.950 . S
C1391 C1390 1.397 . S
C1391 C1392 1.334 . S
C1392 H1363 0.950 . S
C1392 C1391 1.334 . S
C1392 C1393 1.287 . S
C1393 C1392 1.287 . S
C1393 C1394 1.524 . S
C1393 H1396 0.999 . S
C1394 H1364 0.950 . S
C1394 C1393 1.524 . S
C1394 C1395 1.415 . S
C1395 H1365 0.950 . S
C1395 C1390 1.363 . S
C1395 C1394 1.415 . S
H1396 C1393 0.999 . S
H1397 C1378 0.913 . S
H1398 C1416 0.951 . S
H1399 C1418 0.951 . S
H1400 C1420 0.950 . S
H1401 C1421 0.950 . S
H1402 C1423 0.950 . S
H1403 C1426 0.950 . S
H1404 C1427 0.950 . S
H1405 C1429 0.950 . S
H1406 C1430 0.950 . S
H1407 C1431 0.951 . S
H1408 C1433 0.951 . S
H1409 C1435 0.950 . S
H1410 C1436 0.950 . S
H1411 C1438 0.950 . S
H1412 C1441 0.950 . S
H1413 C1442 0.950 . S
H1414 C1444 0.950 . S
H1415 C1445 0.950 . S
C1416 H1398 0.951 . S
C1416 C1417 1.366 . S
C1416 C1418 1.388 . S
C1417 C1416 1.366 . S
C1417 C1421 1.385 . S
C1418 H1399 0.951 . S
C1418 C1416 1.388 . S
C1418 C1419 1.366 . S
C1419 C1418 1.366 . S
C1419 C1420 1.414 . S
C1419 C1422 1.499 . S
C1420 H1400 0.950 . S
C1420 C1419 1.414 . S
C1420 C1421 1.374 . S
C1421 H1401 0.950 . S
C1421 C1417 1.385 . S
C1421 C1420 1.374 . S
C1422 C1419 1.499 . S
C1422 C1423 1.373 . S
C1422 C1424 1.389 . S
C1423 H1402 0.950 . S
C1423 C1422 1.373 . S
C1423 C1439 1.377 . S
C1424 C1422 1.389 . S
C1424 C1425 1.524 . S
C1424 C1438 1.377 . S
C1425 C1424 1.524 . S
C1425 C1426 1.397 . S
C1425 C1430 1.363 . S
C1426 H1403 0.950 . S
C1426 C1425 1.397 . S
C1426 C1427 1.334 . S
C1427 H1404 0.950 . S
C1427 C1426 1.334 . S
C1427 C1428 1.287 . S
C1428 C1427 1.287 . S
C1428 C1429 1.524 . S
C1428 H1447 0.913 . S
C1429 H1405 0.950 . S
C1429 C1428 1.524 . S
C1429 C1430 1.415 . S
C1430 H1406 0.950 . S
C1430 C1425 1.363 . S
C1430 C1429 1.415 . S
C1431 H1407 0.951 . S
C1431 C1432 1.366 . S
C1431 C1433 1.388 . S
C1432 C1431 1.366 . S
C1432 C1436 1.385 . S
C1433 H1408 0.951 . S
C1433 C1431 1.388 . S
C1433 C1434 1.366 . S
C1434 C1433 1.366 . S
C1434 C1435 1.414 . S
C1434 C1437 1.499 . S
C1435 H1409 0.950 . S
C1435 C1434 1.414 . S
C1435 C1436 1.374 . S
C1436 H1410 0.950 . S
C1436 C1432 1.385 . S
C1436 C1435 1.374 . S
C1437 C1434 1.499 . S
C1437 C1438 1.373 . S
C1437 C1439 1.389 . S
C1438 H1411 0.950 . S
C1438 C1424 1.377 . S
C1438 C1437 1.373 . S
C1439 C1423 1.377 . S
C1439 C1437 1.389 . S
C1439 C1440 1.524 . S
C1440 C1439 1.524 . S
C1440 C1441 1.397 . S
C1440 C1445 1.363 . S
C1441 H1412 0.950 . S
C1441 C1440 1.397 . S
C1441 C1442 1.334 . S
C1442 H1413 0.950 . S
C1442 C1441 1.334 . S
C1442 C1443 1.287 1_455 S
C1443 C1442 1.287 1_655 S
C1443 C1444 1.524 . S
C1443 H1446 0.999 . S
C1444 H1414 0.950 . S
C1444 C1443 1.524 . S
C1444 C1445 1.415 1_655 S
C1445 H1415 0.950 . S
C1445 C1440 1.363 . S
C1445 C1444 1.415 1_455 S
H1446 C1443 0.999 . S
H1447 C1428 0.913 . S
H1448 C1466 0.951 . S
H1449 C1468 0.951 . S
H1450 C1470 0.950 . S
H1451 C1471 0.950 . S
H1452 C1473 0.950 . S
H1453 C1476 0.950 . S
H1454 C1477 0.950 . S
H1455 C1479 0.950 . S
H1456 C1480 0.950 . S
H1457 C1481 0.951 . S
H1458 C1483 0.951 . S
H1459 C1485 0.950 . S
H1460 C1486 0.950 . S
H1461 C1488 0.950 . S
H1462 C1491 0.950 . S
H1463 C1492 0.950 . S
H1464 C1494 0.950 . S
H1465 C1495 0.950 . S
C1466 H1448 0.951 . S
C1466 C1467 1.366 . S
C1466 C1468 1.388 . S
C1467 C1466 1.366 . S
C1467 C1471 1.385 . S
C1468 H1449 0.951 . S
C1468 C1466 1.388 . S
C1468 C1469 1.366 . S
C1469 C1468 1.366 . S
C1469 C1470 1.414 . S
C1469 C1472 1.499 . S
C1470 H1450 0.950 . S
C1470 C1469 1.414 . S
C1470 C1471 1.374 . S
C1471 H1451 0.950 . S
C1471 C1467 1.385 . S
C1471 C1470 1.374 . S
C1472 C1469 1.499 . S
C1472 C1473 1.373 . S
C1472 C1474 1.389 . S
C1473 H1452 0.950 . S
C1473 C1472 1.373 . S
C1473 C1489 1.377 . S
C1474 C1472 1.389 . S
C1474 C1475 1.524 . S
C1474 C1488 1.377 . S
C1475 C1474 1.524 . S
C1475 C1476 1.397 . S
C1475 C1480 1.363 . S
C1476 H1453 0.950 . S
C1476 C1475 1.397 . S
C1476 C1477 1.334 . S
C1477 H1454 0.950 . S
C1477 C1476 1.334 . S
C1477 C1478 1.287 . S
C1478 C1477 1.287 . S
C1478 C1479 1.524 . S
C1478 H1497 0.913 . S
C1479 H1455 0.950 . S
C1479 C1478 1.524 . S
C1479 C1480 1.415 . S
C1480 H1456 0.950 . S
C1480 C1475 1.363 . S
C1480 C1479 1.415 . S
C1481 H1457 0.951 . S
C1481 C1482 1.366 . S
C1481 C1483 1.388 . S
C1482 C1481 1.366 . S
C1482 C1486 1.385 . S
C1483 H1458 0.951 . S
C1483 C1481 1.388 . S
C1483 C1484 1.366 . S
C1484 C1483 1.366 . S
C1484 C1485 1.414 . S
C1484 C1487 1.499 . S
C1485 H1459 0.950 . S
C1485 C1484 1.414 . S
C1485 C1486 1.374 . S
C1486 H1460 0.950 . S
C1486 C1482 1.385 . S
C1486 C1485 1.374 . S
C1487 C1484 1.499 . S
C1487 C1488 1.373 . S
C1487 C1489 1.389 . S
C1488 H1461 0.950 . S
C1488 C1474 1.377 . S
C1488 C1487 1.373 . S
C1489 C1473 1.377 . S
C1489 C1487 1.389 . S
C1489 C1490 1.524 . S
C1490 C1489 1.524 . S
C1490 C1491 1.397 . S
C1490 C1495 1.363 . S
C1491 H1462 0.950 . S
C1491 C1490 1.397 . S
C1491 C1492 1.334 . S
C1492 H1463 0.950 . S
C1492 C1491 1.334 . S
C1492 C1493 1.287 . S
C1493 C1492 1.287 . S
C1493 C1494 1.524 . S
C1493 H1496 0.999 . S
C1494 H1464 0.950 . S
C1494 C1493 1.524 . S
C1494 C1495 1.415 . S
C1495 H1465 0.950 . S
C1495 C1490 1.363 . S
C1495 C1494 1.415 . S
H1496 C1493 0.999 . S
H1497 C1478 0.913 . S
H1498 C1516 0.951 . S
H1499 C1518 0.951 . S
H1500 C1520 0.950 . S
H1501 C1521 0.950 . S
H1502 C1523 0.950 . S
H1503 C1526 0.950 . S
H1504 C1527 0.950 . S
H1505 C1529 0.950 . S
H1506 C1530 0.950 . S
H1507 C1531 0.951 . S
H1508 C1533 0.951 . S
H1509 C1535 0.950 . S
H1510 C1536 0.950 . S
H1511 C1538 0.950 . S
H1512 C1541 0.950 . S
H1513 C1542 0.950 . S
H1514 C1544 0.950 . S
H1515 C1545 0.950 . S
C1516 H1498 0.951 . S
C1516 C1517 1.366 . S
C1516 C1518 1.388 . S
C1517 C1516 1.366 . S
C1517 C1521 1.385 . S
C1518 H1499 0.951 . S
C1518 C1516 1.388 . S
C1518 C1519 1.366 . S
C1519 C1518 1.366 . S
C1519 C1520 1.414 . S
C1519 C1522 1.499 . S
C1520 H1500 0.950 . S
C1520 C1519 1.414 . S
C1520 C1521 1.374 . S
C1521 H1501 0.950 . S
C1521 C1517 1.385 . S
C1521 C1520 1.374 . S
C1522 C1519 1.499 . S
C1522 C1523 1.373 . S
C1522 C1524 1.389 . S
C1523 H1502 0.950 . S
C1523 C1522 1.373 . S
C1523 C1539 1.377 . S
C1524 C1522 1.389 . S
C1524 C1525 1.524 . S
C1524 C1538 1.377 . S
C1525 C1524 1.524 . S
C1525 C1526 1.397 . S
C1525 C1530 1.363 . S
C1526 H1503 0.950 . S
C1526 C1525 1.397 . S
C1526 C1527 1.334 . S
C1527 H1504 0.950 . S
C1527 C1526 1.334 . S
C1527 C1528 1.287 . S
C1528 C1527 1.287 . S
C1528 C1529 1.524 . S
C1528 H1547 0.913 . S
C1529 H1505 0.950 . S
C1529 C1528 1.524 . S
C1529 C1530 1.415 . S
C1530 H1506 0.950 . S
C1530 C1525 1.363 . S
C1530 C1529 1.415 . S
C1531 H1507 0.951 . S
C1531 C1532 1.366 . S
C1531 C1533 1.388 . S
C1532 C1531 1.366 . S
C1532 C1536 1.385 . S
C1533 H1508 0.951 . S
C1533 C1531 1.388 . S
C1533 C1534 1.366 . S
C1534 C1533 1.366 . S
C1534 C1535 1.414 . S
C1534 C1537 1.499 . S
C1535 H1509 0.950 . S
C1535 C1534 1.414 . S
C1535 C1536 1.374 . S
C1536 H1510 0.950 . S
C1536 C1532 1.385 . S
C1536 C1535 1.374 . S
C1537 C1534 1.499 . S
C1537 C1538 1.373 . S
C1537 C1539 1.389 . S
C1538 H1511 0.950 . S
C1538 C1524 1.377 . S
C1538 C1537 1.373 . S
C1539 C1523 1.377 . S
C1539 C1537 1.389 . S
C1539 C1540 1.524 . S
C1540 C1539 1.524 . S
C1540 C1541 1.397 . S
C1540 C1545 1.363 . S
C1541 H1512 0.950 . S
C1541 C1540 1.397 . S
C1541 C1542 1.334 . S
C1542 H1513 0.950 . S
C1542 C1541 1.334 . S
C1542 C1543 1.287 . S
C1543 C1542 1.287 . S
C1543 C1544 1.524 . S
C1543 H1546 0.999 . S
C1544 H1514 0.950 . S
C1544 C1543 1.524 . S
C1544 C1545 1.415 . S
C1545 H1515 0.950 . S
C1545 C1540 1.363 . S
C1545 C1544 1.415 . S
H1546 C1543 0.999 . S
H1547 C1528 0.913 . S
H1548 C1566 0.951 . S
H1549 C1568 0.951 . S
H1550 C1570 0.950 . S
H1551 C1571 0.950 . S
H1552 C1573 0.950 . S
H1553 C1576 0.950 . S
H1554 C1577 0.950 . S
H1555 C1579 0.950 . S
H1556 C1580 0.950 . S
H1557 C1581 0.951 . S
H1558 C1583 0.951 . S
H1559 C1585 0.950 . S
H1560 C1586 0.950 . S
H1561 C1588 0.950 . S
H1562 C1591 0.950 . S
H1563 C1592 0.950 . S
H1564 C1594 0.950 . S
H1565 C1595 0.950 . S
C1566 H1548 0.951 . S
C1566 C1567 1.366 . S
C1566 C1568 1.388 . S
C1567 C1566 1.366 . S
C1567 C1571 1.385 . S
C1568 H1549 0.951 . S
C1568 C1566 1.388 . S
C1568 C1569 1.366 . S
C1569 C1568 1.366 . S
C1569 C1570 1.414 . S
C1569 C1572 1.499 . S
C1570 H1550 0.950 . S
C1570 C1569 1.414 . S
C1570 C1571 1.374 . S
C1571 H1551 0.950 . S
C1571 C1567 1.385 . S
C1571 C1570 1.374 . S
C1572 C1569 1.499 . S
C1572 C1573 1.373 . S
C1572 C1574 1.389 . S
C1573 H1552 0.950 . S
C1573 C1572 1.373 . S
C1573 C1589 1.377 . S
C1574 C1572 1.389 . S
C1574 C1575 1.524 . S
C1574 C1588 1.377 . S
C1575 C1574 1.524 . S
C1575 C1576 1.397 . S
C1575 C1580 1.363 . S
C1576 H1553 0.950 . S
C1576 C1575 1.397 . S
C1576 C1577 1.334 . S
C1577 H1554 0.950 . S
C1577 C1576 1.334 . S
C1577 C1578 1.287 . S
C1578 C1577 1.287 . S
C1578 C1579 1.524 . S
C1578 H1597 0.913 . S
C1579 H1555 0.950 . S
C1579 C1578 1.524 . S
C1579 C1580 1.415 . S
C1580 H1556 0.950 . S
C1580 C1575 1.363 . S
C1580 C1579 1.415 . S
C1581 H1557 0.951 . S
C1581 C1582 1.366 . S
C1581 C1583 1.388 . S
C1582 C1581 1.366 . S
C1582 C1586 1.385 . S
C1583 H1558 0.951 . S
C1583 C1581 1.388 . S
C1583 C1584 1.366 . S
C1584 C1583 1.366 . S
C1584 C1585 1.414 . S
C1584 C1587 1.499 . S
C1585 H1559 0.950 . S
C1585 C1584 1.414 . S
C1585 C1586 1.374 . S
C1586 H1560 0.950 . S
C1586 C1582 1.385 . S
C1586 C1585 1.374 . S
C1587 C1584 1.499 . S
C1587 C1588 1.373 . S
C1587 C1589 1.389 . S
C1588 H1561 0.950 . S
C1588 C1574 1.377 . S
C1588 C1587 1.373 . S
C1589 C1573 1.377 . S
C1589 C1587 1.389 . S
C1589 C1590 1.524 . S
C1590 C1589 1.524 . S
C1590 C1591 1.397 . S
C1590 C1595 1.363 . S
C1591 H1562 0.950 . S
C1591 C1590 1.397 . S
C1591 C1592 1.334 . S
C1592 H1563 0.950 . S
C1592 C1591 1.334 . S
C1592 C1593 1.287 . S
C1593 C1592 1.287 . S
C1593 C1594 1.524 . S
C1593 H1596 0.999 . S
C1594 H1564 0.950 . S
C1594 C1593 1.524 . S
C1594 C1595 1.415 . S
C1595 H1565 0.950 . S
C1595 C1590 1.363 . S
C1595 C1594 1.415 . S
H1596 C1593 0.999 . S
H1597 C1578 0.913 . S
H1598 C1616 0.951 . S
H1599 C1618 0.951 . S
H1600 C1620 0.950 . S
H1601 C1621 0.950 . S
H1602 C1623 0.950 . S
H1603 C1626 0.950 . S
H1604 C1627 0.950 . S
H1605 C1629 0.950 . S
H1606 C1630 0.950 . S
H1607 C1631 0.951 . S
H1608 C1633 0.951 . S
H1609 C1635 0.950 . S
H1610 C1636 0.950 . S
H1611 C1638 0.950 . S
H1612 C1641 0.950 . S
H1613 C1642 0.956 . S
H1614 C1644 0.950 . S
H1615 C1645 0.950 . S
C1616 H1598 0.951 . S
C1616 C1617 1.366 . S
C1616 C1618 1.388 . S
C1617 C1616 1.366 . S
C1617 C1621 1.385 . S
C1618 H1599 0.951 . S
C1618 C1616 1.388 . S
C1618 C1619 1.366 . S
C1619 C1618 1.366 . S
C1619 C1620 1.414 . S
C1619 C1622 1.499 . S
C1620 H1600 0.950 . S
C1620 C1619 1.414 . S
C1620 C1621 1.374 . S
C1621 H1601 0.950 . S
C1621 C1617 1.385 . S
C1621 C1620 1.374 . S
C1622 C1619 1.499 . S
C1622 C1623 1.373 . S
C1622 C1624 1.389 . S
C1623 H1602 0.950 . S
C1623 C1622 1.373 . S
C1623 C1639 1.377 . S
C1624 C1622 1.389 . S
C1624 C1625 1.524 . S
C1624 C1638 1.377 . S
C1625 C1624 1.524 . S
C1625 C1626 1.397 . S
C1625 C1630 1.363 . S
C1626 H1603 0.950 . S
C1626 C1625 1.397 . S
C1626 C1627 1.334 . S
C1627 H1604 0.950 . S
C1627 C1626 1.334 . S
C1627 C1628 1.287 . S
C1628 C1627 1.287 . S
C1628 C1629 1.524 . S
C1628 H1647 0.913 . S
C1629 H1605 0.950 . S
C1629 C1628 1.524 . S
C1629 C1630 1.415 . S
C1630 H1606 0.950 . S
C1630 C1625 1.363 . S
C1630 C1629 1.415 . S
C1631 H1607 0.951 . S
C1631 C1632 1.366 . S
C1631 C1633 1.388 . S
C1632 C1631 1.366 . S
C1632 C1636 1.385 . S
C1633 H1608 0.951 . S
C1633 C1631 1.388 . S
C1633 C1634 1.366 . S
C1634 C1633 1.366 . S
C1634 C1635 1.414 . S
C1634 C1637 1.499 . S
C1635 H1609 0.950 . S
C1635 C1634 1.414 . S
C1635 C1636 1.374 . S
C1636 H1610 0.950 . S
C1636 C1632 1.385 . S
C1636 C1635 1.374 . S
C1637 C1634 1.499 . S
C1637 C1638 1.373 . S
C1637 C1639 1.389 . S
C1638 H1611 0.950 . S
C1638 C1624 1.377 . S
C1638 C1637 1.373 . S
C1639 C1623 1.377 . S
C1639 C1637 1.389 . S
C1639 C1640 1.524 . S
C1640 C1639 1.524 . S
C1640 C1641 1.397 . S
C1640 C1645 1.363 . S
C1641 H1612 0.950 . S
C1641 C1640 1.397 . S
C1641 C1642 1.334 . S
C1642 H1613 0.956 . S
C1642 C1641 1.334 . S
C1642 C1643 1.287 . S
C1643 C1642 1.287 . S
C1643 C1644 1.524 . S
C1643 H1646 0.999 . S
C1644 H1614 0.950 . S
C1644 C1643 1.524 . S
C1644 C1645 1.415 . S
C1645 H1615 0.950 . S
C1645 C1640 1.363 . S
C1645 C1644 1.415 . S
H1646 C1643 0.999 . S
H1647 C1628 0.913 . S
H1648 C1666 0.951 . S
H1649 C1668 0.951 . S
H1650 C1670 0.950 . S
H1651 C1671 0.950 . S
H1652 C1673 0.950 . S
H1653 C1676 0.950 . S
H1654 C1677 0.950 . S
H1655 C1679 0.950 . S
H1656 C1680 0.950 . S
H1657 C1681 0.951 1_455 S
H1658 C1683 0.951 . S
H1659 C1685 0.950 . S
H1660 C1686 0.950 . S
H1661 C1688 0.950 . S
H1662 C1691 0.950 . S
H1663 C1692 0.950 . S
H1664 C1694 0.950 . S
H1665 C1695 0.950 . S
C1666 H1648 0.951 . S
C1666 C1667 1.366 . S
C1666 C1668 1.388 . S
C1667 C1666 1.366 . S
C1667 C1671 1.385 . S
C1668 H1649 0.951 . S
C1668 C1666 1.388 . S
C1668 C1669 1.366 . S
C1669 C1668 1.366 . S
C1669 C1670 1.414 . S
C1669 C1672 1.499 . S
C1670 H1650 0.950 . S
C1670 C1669 1.414 . S
C1670 C1671 1.374 . S
C1671 H1651 0.950 . S
C1671 C1667 1.385 . S
C1671 C1670 1.374 . S
C1672 C1669 1.499 . S
C1672 C1673 1.373 . S
C1672 C1674 1.389 . S
C1673 H1652 0.950 . S
C1673 C1672 1.373 . S
C1673 C1689 1.377 . S
C1674 C1672 1.389 . S
C1674 C1675 1.524 . S
C1674 C1688 1.377 . S
C1675 C1674 1.524 . S
C1675 C1676 1.397 . S
C1675 C1680 1.363 . S
C1676 H1653 0.950 . S
C1676 C1675 1.397 . S
C1676 C1677 1.334 . S
C1677 H1654 0.950 . S
C1677 C1676 1.334 . S
C1677 C1678 1.287 . S
C1678 C1677 1.287 . S
C1678 C1679 1.524 . S
C1678 H1697 0.913 . S
C1679 H1655 0.950 . S
C1679 C1678 1.524 . S
C1679 C1680 1.415 . S
C1680 H1656 0.950 . S
C1680 C1675 1.363 . S
C1680 C1679 1.415 . S
C1681 H1657 0.951 1_655 S
C1681 C1682 1.366 . S
C1681 C1683 1.388 . S
C1682 C1681 1.366 . S
C1682 C1686 1.385 . S
C1683 H1658 0.951 . S
C1683 C1681 1.388 . S
C1683 C1684 1.366 . S
C1684 C1683 1.366 . S
C1684 C1685 1.414 . S
C1684 C1687 1.499 . S
C1685 H1659 0.950 . S
C1685 C1684 1.414 . S
C1685 C1686 1.374 . S
C1686 H1660 0.950 . S
C1686 C1682 1.385 . S
C1686 C1685 1.374 . S
C1687 C1684 1.499 . S
C1687 C1688 1.373 . S
C1687 C1689 1.389 . S
C1688 H1661 0.950 . S
C1688 C1674 1.377 . S
C1688 C1687 1.373 . S
C1689 C1673 1.377 . S
C1689 C1687 1.389 . S
C1689 C1690 1.524 . S
C1690 C1689 1.524 . S
C1690 C1691 1.397 . S
C1690 C1695 1.363 . S
C1691 H1662 0.950 . S
C1691 C1690 1.397 . S
C1691 C1692 1.334 . S
C1692 H1663 0.950 . S
C1692 C1691 1.334 . S
C1692 C1693 1.287 1_655 S
C1693 C1692 1.287 1_455 S
C1693 C1694 1.524 . S
C1693 H1696 0.999 . S
C1694 H1664 0.950 . S
C1694 C1693 1.524 . S
C1694 C1695 1.415 1_455 S
C1695 H1665 0.950 . S
C1695 C1690 1.363 . S
C1695 C1694 1.415 1_655 S
H1696 C1693 0.999 . S
H1697 C1678 0.913 . S
H1698 C1716 0.951 . S
H1699 C1718 0.951 . S
H1700 C1720 0.950 . S
H1701 C1721 0.950 . S
H1702 C1723 0.950 . S
H1703 C1726 0.950 . S
H1704 C1727 0.950 . S
H1705 C1729 0.950 . S
H1706 C1730 0.950 . S
H1707 C1731 0.951 . S
H1708 C1733 0.951 . S
H1709 C1735 0.950 . S
H1710 C1736 0.950 . S
H1711 C1738 0.950 . S
H1712 C1741 0.950 . S
H1713 C1742 0.950 . S
H1714 C1744 0.950 . S
H1715 C1745 0.950 . S
C1716 H1698 0.951 . S
C1716 C1717 1.366 . S
C1716 C1718 1.388 . S
C1717 C1716 1.366 . S
C1717 C1721 1.385 . S
C1718 H1699 0.951 . S
C1718 C1716 1.388 . S
C1718 C1719 1.366 . S
C1719 C1718 1.366 . S
C1719 C1720 1.414 . S
C1719 C1722 1.499 . S
C1720 H1700 0.950 . S
C1720 C1719 1.414 . S
C1720 C1721 1.374 . S
C1721 H1701 0.950 . S
C1721 C1717 1.385 . S
C1721 C1720 1.374 . S
C1722 C1719 1.499 . S
C1722 C1723 1.373 . S
C1722 C1724 1.389 . S
C1723 H1702 0.950 . S
C1723 C1722 1.373 . S
C1723 C1739 1.377 . S
C1724 C1722 1.389 . S
C1724 C1725 1.524 . S
C1724 C1738 1.377 . S
C1725 C1724 1.524 . S
C1725 C1726 1.397 . S
C1725 C1730 1.363 . S
C1726 H1703 0.950 . S
C1726 C1725 1.397 . S
C1726 C1727 1.334 . S
C1727 H1704 0.950 . S
C1727 C1726 1.334 . S
C1727 C1728 1.287 . S
C1728 C1727 1.287 . S
C1728 C1729 1.524 . S
C1728 H1747 0.913 . S
C1729 H1705 0.950 . S
C1729 C1728 1.524 . S
C1729 C1730 1.415 . S
C1730 H1706 0.950 . S
C1730 C1725 1.363 . S
C1730 C1729 1.415 . S
C1731 H1707 0.951 . S
C1731 C1732 1.366 . S
C1731 C1733 1.388 . S
C1732 C1731 1.366 . S
C1732 C1736 1.385 . S
C1733 H1708 0.951 . S
C1733 C1731 1.388 . S
C1733 C1734 1.366 . S
C1734 C1733 1.366 . S
C1734 C1735 1.414 . S
C1734 C1737 1.499 . S
C1735 H1709 0.950 . S
C1735 C1734 1.414 . S
C1735 C1736 1.374 . S
C1736 H1710 0.950 . S
C1736 C1732 1.385 . S
C1736 C1735 1.374 . S
C1737 C1734 1.499 . S
C1737 C1738 1.373 . S
C1737 C1739 1.389 . S
C1738 H1711 0.950 . S
C1738 C1724 1.377 . S
C1738 C1737 1.373 . S
C1739 C1723 1.377 . S
C1739 C1737 1.389 . S
C1739 C1740 1.524 . S
C1740 C1739 1.524 . S
C1740 C1741 1.397 . S
C1740 C1745 1.363 . S
C1741 H1712 0.950 . S
C1741 C1740 1.397 . S
C1741 C1742 1.334 . S
C1742 H1713 0.950 . S
C1742 C1741 1.334 . S
C1742 C1743 1.287 . S
C1743 C1742 1.287 . S
C1743 C1744 1.524 . S
C1743 H1746 0.999 . S
C1744 H1714 0.950 . S
C1744 C1743 1.524 . S
C1744 C1745 1.415 . S
C1745 H1715 0.950 . S
C1745 C1740 1.363 . S
C1745 C1744 1.415 . S
H1746 C1743 0.999 . S
H1747 C1728 0.913 . S
H1748 C1766 0.951 . S
H1749 C1768 0.951 . S
H1750 C1770 0.950 . S
H1751 C1771 0.950 . S
H1752 C1773 0.950 . S
H1753 C1776 0.950 . S
H1754 C1777 0.950 . S
H1755 C1779 0.950 . S
H1756 C1780 0.950 . S
H1757 C1781 0.951 . S
H1758 C1783 0.951 . S
H1759 C1785 0.950 . S
H1760 C1786 0.950 . S
H1761 C1788 0.950 . S
H1762 C1791 0.950 . S
H1763 C1792 0.950 . S
H1764 C1794 0.950 . S
H1765 C1795 0.950 . S
C1766 H1748 0.951 . S
C1766 C1767 1.366 . S
C1766 C1768 1.388 . S
C1767 C1766 1.366 . S
C1767 C1771 1.385 . S
C1768 H1749 0.951 . S
C1768 C1766 1.388 . S
C1768 C1769 1.366 . S
C1769 C1768 1.366 . S
C1769 C1770 1.414 . S
C1769 C1772 1.499 . S
C1770 H1750 0.950 . S
C1770 C1769 1.414 . S
C1770 C1771 1.374 . S
C1771 H1751 0.950 . S
C1771 C1767 1.385 . S
C1771 C1770 1.374 . S
C1772 C1769 1.499 . S
C1772 C1773 1.373 . S
C1772 C1774 1.389 . S
C1773 H1752 0.950 . S
C1773 C1772 1.373 . S
C1773 C1789 1.377 . S
C1774 C1772 1.389 . S
C1774 C1775 1.524 . S
C1774 C1788 1.377 . S
C1775 C1774 1.524 . S
C1775 C1776 1.397 . S
C1775 C1780 1.363 . S
C1776 H1753 0.950 . S
C1776 C1775 1.397 . S
C1776 C1777 1.334 . S
C1777 H1754 0.950 . S
C1777 C1776 1.334 . S
C1777 C1778 1.287 . S
C1778 C1777 1.287 . S
C1778 C1779 1.524 . S
C1778 H1797 0.913 . S
C1779 H1755 0.950 . S
C1779 C1778 1.524 . S
C1779 C1780 1.415 . S
C1780 H1756 0.950 . S
C1780 C1775 1.363 . S
C1780 C1779 1.415 . S
C1781 H1757 0.951 . S
C1781 C1782 1.366 . S
C1781 C1783 1.388 . S
C1782 C1781 1.366 . S
C1782 C1786 1.385 . S
C1783 H1758 0.951 . S
C1783 C1781 1.388 . S
C1783 C1784 1.366 . S
C1784 C1783 1.366 . S
C1784 C1785 1.414 . S
C1784 C1787 1.499 . S
C1785 H1759 0.950 . S
C1785 C1784 1.414 . S
C1785 C1786 1.374 . S
C1786 H1760 0.950 . S
C1786 C1782 1.385 . S
C1786 C1785 1.374 . S
C1787 C1784 1.499 . S
C1787 C1788 1.373 . S
C1787 C1789 1.389 . S
C1788 H1761 0.950 . S
C1788 C1774 1.377 . S
C1788 C1787 1.373 . S
C1789 C1773 1.377 . S
C1789 C1787 1.389 . S
C1789 C1790 1.524 . S
C1790 C1789 1.524 . S
C1790 C1791 1.397 . S
C1790 C1795 1.363 . S
C1791 H1762 0.950 . S
C1791 C1790 1.397 . S
C1791 C1792 1.334 . S
C1792 H1763 0.950 . S
C1792 C1791 1.334 . S
C1792 C1793 1.287 . S
C1793 C1792 1.287 . S
C1793 C1794 1.524 . S
C1793 H1796 0.999 . S
C1794 H1764 0.950 . S
C1794 C1793 1.524 . S
C1794 C1795 1.415 . S
C1795 H1765 0.950 . S
C1795 C1790 1.363 . S
C1795 C1794 1.415 . S
H1796 C1793 0.999 . S
H1797 C1778 0.913 . S
H1798 C1816 0.951 . S
H1799 C1818 0.951 . S
H1800 C1820 0.950 . S
H1801 C1821 0.950 . S
H1802 C1823 0.950 . S
H1803 C1826 0.950 . S
H1804 C1827 0.950 . S
H1805 C1829 0.950 . S
H1806 C1830 0.950 . S
H1807 C1831 0.951 . S
H1808 C1833 0.951 . S
H1809 C1835 0.950 . S
H1810 C1836 0.950 . S
H1811 C1838 0.950 . S
H1812 C1841 0.950 . S
H1813 C1842 0.950 . S
H1814 C1844 0.950 . S
H1815 C1845 0.950 . S
C1816 H1798 0.951 . S
C1816 C1817 1.366 . S
C1816 C1818 1.388 . S
C1817 C1816 1.366 . S
C1817 C1821 1.385 . S
C1818 H1799 0.951 . S
C1818 C1816 1.388 . S
C1818 C1819 1.366 . S
C1819 C1818 1.366 . S
C1819 C1820 1.414 . S
C1819 C1822 1.499 . S
C1820 H1800 0.950 . S
C1820 C1819 1.414 . S
C1820 C1821 1.374 . S
C1821 H1801 0.950 . S
C1821 C1817 1.385 . S
C1821 C1820 1.374 . S
C1822 C1819 1.499 . S
C1822 C1823 1.373 . S
C1822 C1824 1.389 . S
C1823 H1802 0.950 . S
C1823 C1822 1.373 . S
C1823 C1839 1.377 . S
C1824 C1822 1.389 . S
C1824 C1825 1.524 . S
C1824 C1838 1.377 . S
C1825 C1824 1.524 . S
C1825 C1826 1.397 . S
C1825 C1830 1.363 . S
C1826 H1803 0.950 . S
C1826 C1825 1.397 . S
C1826 C1827 1.334 . S
C1827 H1804 0.950 . S
C1827 C1826 1.334 . S
C1827 C1828 1.287 . S
C1828 C1827 1.287 . S
C1828 C1829 1.524 . S
C1828 H1847 0.913 . S
C1829 H1805 0.950 . S
C1829 C1828 1.524 . S
C1829 C1830 1.415 . S
C1830 H1806 0.950 . S
C1830 C1825 1.363 . S
C1830 C1829 1.415 . S
C1831 H1807 0.951 . S
C1831 C1832 1.366 . S
C1831 C1833 1.388 . S
C1832 C1831 1.366 . S
C1832 C1836 1.385 . S
C1833 H1808 0.951 . S
C1833 C1831 1.388 . S
C1833 C1834 1.366 . S
C1834 C1833 1.366 . S
C1834 C1835 1.414 . S
C1834 C1837 1.499 . S
C1835 H1809 0.950 . S
C1835 C1834 1.414 . S
C1835 C1836 1.374 . S
C1836 H1810 0.950 . S
C1836 C1832 1.385 . S
C1836 C1835 1.374 . S
C1837 C1834 1.499 . S
C1837 C1838 1.373 . S
C1837 C1839 1.389 . S
C1838 H1811 0.950 . S
C1838 C1824 1.377 . S
C1838 C1837 1.373 . S
C1839 C1823 1.377 . S
C1839 C1837 1.389 . S
C1839 C1840 1.524 . S
C1840 C1839 1.524 . S
C1840 C1841 1.397 . S
C1840 C1845 1.363 . S
C1841 H1812 0.950 . S
C1841 C1840 1.397 . S
C1841 C1842 1.334 . S
C1842 H1813 0.950 . S
C1842 C1841 1.334 . S
C1842 C1843 1.287 . S
C1843 C1842 1.287 . S
C1843 C1844 1.524 . S
C1843 H1846 0.999 . S
C1844 H1814 0.950 . S
C1844 C1843 1.524 . S
C1844 C1845 1.415 . S
C1845 H1815 0.950 . S
C1845 C1840 1.363 . S
C1845 C1844 1.415 . S
H1846 C1843 0.999 . S
H1847 C1828 0.913 . S
C667 C235 1.474 . S
C682 C386 1.457 . S
C732 C470 1.455 . S
C717 C289 1.471 . S
C782 C463 1.464 . S
C767 C157 1.462 . S
C817 C211 1.460 . S
C832 C379 1.461 . S
C882 C543 1.456 . S
C867 C79 1.474 . S
C932 C627 1.459 . S
C917 C118 1.478 . S
C967 C1 1.463 . S
C982 C620 1.463 . S
C1017 C40 1.467 . S
C1032 C536 1.466 . S
C1082 C370 1.344 . S
C1067 C55 1.515 1_554 S
C1132 C454 1.343 . S
C1117 C16 1.515 . S
C1182 C465 1.404 . S
C1167 C133 1.546 . S
C1232 C381 1.405 . S
C1217 C94 1.540 . S
C1282 C549 1.347 . S
C1267 C196 1.521 1_556 S
C1317 C172 1.521 . S
C1332 C633 1.349 . S
C1382 C622 1.410 . S
C1367 C274 1.574 . S
C1417 C250 1.546 . S
C1432 C538 1.408 . S
C1482 C368 1.590 . S
C1467 C21 1.589 . S
C1532 C452 1.594 . S
C1517 C60 1.594 . S
C1567 C99 1.577 . S
C1582 C459 1.563 . S
C1632 C375 1.567 . S
C1617 C138 1.581 . S
C1682 C547 1.598 . S
C1667 C177 1.592 . S
C1717 C216 1.592 . S
C1732 C631 1.596 . S
C1767 C255 1.581 . S
C1782 C638 1.571 . S
C1817 C294 1.579 . S
C1832 C554 1.568 . S
