# Generated by pormake.
# Topology sit, (3,6)-cn, num edge types: 1
# Building blocks:
#     Node 0, Type 0, BuildingBlock: KAKCAD_clean_linker_0, # of connection points: 3
#     Node 1, Type 0, BuildingBlock: KAKCAD_clean_linker_0, # of connection points: 3
#     Node 2, Type 0, BuildingBlock: KAKCAD_clean_linker_0, # of connection points: 3
#     Node 3, Type 0, BuildingBlock: KAKCAD_clean_linker_0, # of connection points: 3
#     Node 4, Type 1, BuildingBlock: MIDCAF_clean_sbu_0, # of connection points: 6
#     Node 5, Type 1, BuildingBlock: MIDCAF_clean_sbu_0, # of connection points: 6
#     Edge 6, Type (0, 1), BuildingBlock: FUNLAD_clean_linker_0, # of connection points: 2
#     Edge 7, Type (0, 1), BuildingBlock: FUNLAD_clean_linker_0, # of connection points: 2
#     Edge 8, Type (0, 1), BuildingBlock: FUNLAD_clean_linker_0, # of connection points: 2
#     Edge 9, Type (0, 1), BuildingBlock: FUNLAD_clean_linker_0, # of connection points: 2
#     Edge 10, Type (0, 1), BuildingBlock: FUNLAD_clean_linker_0, # of connection points: 2
#     Edge 11, Type (0, 1), BuildingBlock: FUNLAD_clean_linker_0, # of connection points: 2
#     Edge 12, Type (0, 1), BuildingBlock: FUNLAD_clean_linker_0, # of connection points: 2
#     Edge 13, Type (0, 1), BuildingBlock: FUNLAD_clean_linker_0, # of connection points: 2
#     Edge 14, Type (0, 1), BuildingBlock: FUNLAD_clean_linker_0, # of connection points: 2
#     Edge 15, Type (0, 1), BuildingBlock: FUNLAD_clean_linker_0, # of connection points: 2
#     Edge 16, Type (0, 1), BuildingBlock: FUNLAD_clean_linker_0, # of connection points: 2
#     Edge 17, Type (0, 1), BuildingBlock: FUNLAD_clean_linker_0, # of connection points: 2
# Relax obj value: 0.110
# Max RMSD: 0.193
# Mean RMSD: 0.106
data_MOF--net-sit--node1-MIDCAF_clean_sbu_0--node2-KAKCAD_clean_linker_0--edge1-FUNLAD_clean_linker_0
_symmetry_space_group_name_H-M    P1
_symmetry_Int_Tables_number       1
_symmetry_cell_setting            triclinic
loop_
_symmetry_equiv_pos_as_xyz
'x, y, z'
_cell_length_a     32.424555
_cell_length_b     43.189601
_cell_length_c     49.366618
_cell_angle_alpha  90.194065
_cell_angle_beta   89.522318
_cell_angle_gamma 84.408767
loop_
_atom_site_label
_atom_site_type_symbol
_atom_site_fract_x
_atom_site_fract_y
_atom_site_fract_z
_atom_type_partial_charge
C0 C 0.18702 0.34907 0.98918 0.0
C1 C 0.20131 0.37835 -0.00637 0.0
C2 C 0.14949 0.34195 0.00055 0.0
C3 C 0.12539 0.36409 0.01635 0.0
C4 C 0.14014 0.39309 0.02129 0.0
C5 C 0.1778 0.40011 0.01013 0.0
C6 C 0.08397 0.35762 0.02648 0.0
C7 C 0.07808 0.32913 0.03878 0.0
C8 C 0.03852 0.32272 0.04771 0.0
C9 C 0.00469 0.34532 0.04411 0.0
C10 C 0.01007 0.37395 0.0317 0.0
C11 C 0.0499 0.37981 0.02303 0.0
C12 C 0.97408 0.39715 0.0263 0.0
C13 C 0.93649 0.38744 0.01709 0.0
C14 C 0.97794 0.42925 0.02845 0.0
C15 C 0.9458 0.45106 0.02029 0.0
C16 C 0.9089 0.44125 0.0101 0.0
C17 C 0.03263 0.29253 0.06093 0.0
C18 C 0.0538 0.26457 0.05133 0.0
C19 C 0.00617 0.2915 0.08353 0.0
C20 C 0.00117 0.26331 0.09632 0.0
C21 C 0.0226 0.23543 0.0869 0.0
C22 C 0.04895 0.23635 0.06424 0.0
C23 C 0.90424 0.40924 0.00916 0.0
H24 H 0.20473 0.33175 0.97675 0.0
H25 H 0.13872 0.31949 -0.00372 0.0
H26 H 0.1223 0.41049 0.03358 0.0
H27 H 0.18791 0.42293 0.01375 0.0
H28 H 0.10455 0.31221 0.04187 0.0
H29 H 0.05425 0.40127 0.01254 0.0
H30 H 0.97403 0.34051 0.05073 0.0
H31 H 0.93258 0.36295 0.01479 0.0
H32 H 0.00618 0.43755 0.03597 0.0
H33 H 0.95006 0.47559 0.0215 0.0
H34 H 0.07394 0.26445 0.03372 0.0
H35 H -0.01003 0.31261 0.09177 0.0
H36 H 0.8764 0.40094 0.00102 0.0
H37 H 0.06559 0.21521 0.05638 0.0
H38 H 0.98127 0.2635 0.11406 0.0
C39 C 0.89997 0.69077 0.97904 0.0
C40 C 0.8871 0.66073 0.98129 0.0
C41 C 0.93413 0.69901 -0.00646 0.0
C42 C 0.95629 0.67726 0.01038 0.0
C43 C 0.94308 0.64736 0.0129 0.0
C44 C 0.90876 0.6392 -0.00143 0.0
C45 C -0.00603 0.6853 0.02457 0.0
C46 C -0.0056 0.71382 0.03822 0.0
C47 C 0.03019 0.72135 0.05159 0.0
C48 C 0.06602 0.70019 0.0509 0.0
C49 C 0.06632 0.67178 0.03684 0.0
C50 C 0.03001 0.66451 0.02395 0.0
C51 C 0.10493 0.65041 0.03388 0.0
C52 C 0.1427 0.66219 0.02749 0.0
C53 C 0.10361 0.61797 0.03495 0.0
C54 C 0.13861 0.59781 0.02827 0.0
C55 C 0.17576 0.60963 0.02045 0.0
C56 C 0.02982 0.75123 0.0665 0.0
C57 C 0.01499 0.77937 0.05415 0.0
C58 C 0.04329 0.75166 0.09344 0.0
C59 C 0.04115 0.77962 0.10795 0.0
C60 C 0.02612 0.80775 0.09567 0.0
C61 C 0.01351 0.80744 0.06853 0.0
C62 C 0.17771 0.64204 0.02084 0.0
H63 H 0.88361 0.70792 0.96605 0.0
H64 H 0.94379 0.72216 0.99108 0.0
H65 H 0.9594 0.63021 0.02591 0.0
H66 H 0.89975 0.61581 0.00056 0.0
H67 H 0.96653 0.72987 0.03902 0.0
H68 H 0.03022 0.6431 0.01241 0.0
H69 H 0.09379 0.70604 0.06102 0.0
H70 H 0.14468 0.68703 0.02618 0.0
H71 H 0.07515 0.60816 0.04029 0.0
H72 H 0.13629 0.57297 0.02861 0.0
H73 H 0.00463 0.77965 0.03334 0.0
H74 H 0.05464 0.73027 0.10346 0.0
H75 H 0.20567 0.65196 0.0146 0.0
H76 H 0.00171 0.8288 0.05864 0.0
H77 H 0.05138 0.77928 0.12879 0.0
C78 C 0.73519 0.84912 0.49131 0.0
C79 C 0.73994 0.88118 0.49163 0.0
C80 C 0.70106 0.83774 0.504 0.0
C81 C 0.67093 0.85821 0.51707 0.0
C82 C 0.67683 0.88995 0.51868 0.0
C83 C 0.71104 0.90129 0.50621 0.0
C84 C 0.63121 0.84728 0.52611 0.0
C85 C 0.63009 0.82037 0.54187 0.0
C86 C 0.59196 0.80938 0.54899 0.0
C87 C 0.55495 0.82562 0.53973 0.0
C88 C 0.55571 0.8526 0.524 0.0
C89 C 0.594 0.86324 0.51743 0.0
C90 C 0.51705 0.86876 0.51278 0.0
C91 C 0.48675 0.8516 0.50149 0.0
C92 C 0.51174 0.90143 0.51129 0.0
C93 C 0.47815 0.91651 0.49747 0.0
C94 C 0.44907 0.89923 0.48492 0.0
C95 C 0.59051 0.7811 0.56608 0.0
C96 C 0.62047 0.7554 0.56318 0.0
C97 C 0.55876 0.77957 0.58544 0.0
C98 C 0.55678 0.7531 0.60131 0.0
C99 C 0.58693 0.72751 0.5987 0.0
C100 C 0.61879 0.72897 0.57936 0.0
C101 C 0.45309 0.86668 0.48779 0.0
H102 H 0.75665 0.83299 0.48009 0.0
H103 H 0.69702 0.8132 0.50227 0.0
H104 H 0.65423 0.90615 0.52893 0.0
H105 H 0.71428 0.92598 0.50742 0.0
H106 H 0.65892 0.80839 0.54889 0.0
H107 H 0.59503 0.88328 0.50436 0.0
H108 H 0.52542 0.81712 0.54451 0.0
H109 H 0.48997 0.82642 0.50215 0.0
H110 H 0.53422 0.91534 0.52016 0.0
H111 H 0.47605 0.94159 0.4956 0.0
H112 H 0.64509 0.75553 0.54823 0.0
H113 H 0.53546 0.79899 0.58861 0.0
H114 H 0.43078 0.85273 0.47878 0.0
H115 H 0.64276 0.70987 0.57691 0.0
H116 H 0.53128 0.75272 0.61557 0.0
C117 C 0.41435 0.19812 0.47998 0.0
C118 C 0.40348 0.16752 0.48245 0.0
C119 C 0.45041 0.2068 0.49204 0.0
C120 C 0.47652 0.18488 0.50638 0.0
C121 C 0.4653 0.15444 0.50918 0.0
C122 C 0.429 0.1459 0.49749 0.0
C123 C 0.51642 0.19319 0.5173 0.0
C124 C 0.51818 0.21992 0.53337 0.0
C125 C 0.55614 0.22749 0.54395 0.0
C126 C 0.59258 0.20825 0.53757 0.0
C127 C 0.59122 0.18141 0.52155 0.0
C128 C 0.55295 0.17408 0.51159 0.0
C129 C 0.62966 0.16106 0.51493 0.0
C130 C 0.66604 0.17401 0.50717 0.0
C131 C 0.62984 0.12849 0.51548 0.0
C132 C 0.66527 0.10931 0.50781 0.0
C133 C 0.70137 0.12226 0.49942 0.0
C134 C 0.55757 0.2545 0.56268 0.0
C135 C 0.53243 0.28254 0.55859 0.0
C136 C 0.58355 0.25205 0.58538 0.0
C137 C 0.58412 0.27672 0.60362 0.0
C138 C 0.55836 0.3045 0.59994 0.0
C139 C 0.53284 0.30728 0.57701 0.0
C140 C 0.70146 0.15484 0.49948 0.0
H141 H 0.39502 0.21529 0.46865 0.0
H142 H 0.45852 0.23037 0.4895 0.0
H143 H 0.48482 0.13717 0.52029 0.0
H144 H 0.42146 0.12213 0.49958 0.0
H145 H 0.48972 0.23411 0.53842 0.0
H146 H 0.55166 0.15382 0.49871 0.0
H147 H 0.62208 0.21395 0.54532 0.0
H148 H 0.66677 0.199 0.50621 0.0
H149 H 0.6025 0.11779 0.52181 0.0
H150 H 0.66434 0.08433 0.50839 0.0
H151 H 0.51239 0.28539 0.54115 0.0
H152 H 0.60294 0.23075 0.58947 0.0
H153 H 0.72851 0.16562 0.49272 0.0
H154 H 0.51251 0.32829 0.5736 0.0
H155 H 0.60478 0.27392 0.62075 0.0
Zn156 Zn 0.03673 0.08162 0.3264 0.0
Zn157 Zn 0.105 0.96094 0.3213 0.0
Zn158 Zn 0.07049 0.02095 0.32369 0.0
C159 C 0.08625 0.98011 0.26833 0.0
C160 C 0.03129 0.9636 0.35264 0.0
O161 O 0.11622 0.04893 0.34205 0.0
O162 O 0.08556 0.09702 0.34498 0.0
C163 C 0.04258 0.06273 0.27154 0.0
O164 O 0.07257 1.00537 0.28078 0.0
O165 O 0.10256 0.95703 0.28134 0.0
O166 O 0.06139 0.94471 0.34495 0.0
O167 O 0.02969 0.99258 0.34628 0.0
O168 O 0.0301 0.08558 0.28649 0.0
O169 O 0.05879 0.03709 0.28187 0.0
O170 O 0.01292 0.02388 0.34861 0.0
O171 O 0.98744 0.07344 0.3481 0.0
C172 C 0.985 0.04579 0.35565 0.0
O173 O 0.13219 0.01741 0.34318 0.0
O174 O 0.15845 0.96845 0.33758 0.0
C175 C 0.11678 0.07771 0.3489 0.0
C176 C 0.16172 0.99554 0.34639 0.0
Zn177 Zn 0.49843 0.58491 0.84001 0.0
Zn178 Zn 0.57447 0.46563 0.84076 0.0
Zn179 Zn 0.53615 0.5249 0.83809 0.0
C180 C 0.56565 0.48391 0.78554 0.0
C181 C 0.49383 0.46623 0.86281 0.0
O182 O 0.57681 0.55468 0.85891 0.0
O183 O 0.54408 0.6022 0.8609 0.0
C184 C 0.51481 0.56603 0.78508 0.0
O185 O 0.54693 0.50899 0.79576 0.0
O186 O 0.58117 0.46243 0.80076 0.0
O187 O 0.52629 0.44801 0.8589 0.0
O188 O 0.49277 0.49518 0.8564 0.0
O189 O 0.49776 0.58775 0.79977 0.0
O190 O 0.53153 0.54076 0.79579 0.0
O191 O 0.47569 0.52632 0.85964 0.0
O192 O 0.44743 0.57517 0.85927 0.0
C193 C 0.44598 0.54715 0.86605 0.0
O194 O 0.59309 0.52349 0.86278 0.0
O195 O 0.62251 0.47498 0.86278 0.0
C196 C 0.57558 0.58354 0.86586 0.0
C197 C 0.62218 0.50294 0.87033 0.0
C198 C 0.05349 0.18541 0.10756 0.0
C199 C 0.01838 0.20584 0.10145 0.0
C200 C 0.05004 0.15964 0.12427 0.0
C201 C 0.01123 0.15371 0.13503 0.0
C202 C 0.97597 0.17325 0.12768 0.0
C203 C 0.97944 0.19895 0.11106 0.0
C204 C 0.00664 0.13047 0.15675 0.0
C205 C 0.0351 0.10658 0.16272 0.0
C206 C 0.03405 0.08878 0.18855 0.0
C207 C 0.07122 0.07352 0.19844 0.0
C208 C 0.07344 0.06228 0.22504 0.0
C209 C 0.03856 0.06646 0.2421 0.0
H210 H 0.96816 0.09904 0.19774 0.0
C211 C 0.00059 0.07889 0.23153 0.0
C212 C -0.00192 0.08937 0.20486 0.0
H213 H 0.97311 0.08169 0.2443 0.0
H214 H 0.08398 0.19027 0.10065 0.0
H215 H 0.07815 0.14567 0.12983 0.0
H216 H 0.94569 0.1693 0.13564 0.0
H217 H 0.95171 0.21395 0.10633 0.0
H218 H 0.97945 0.13518 0.16955 0.0
H219 H 0.06226 0.1019 0.14981 0.0
H220 H 0.09926 0.07212 0.18623 0.0
H221 H 0.10302 0.05255 0.23285 0.0
C222 C 0.03987 0.86366 0.10124 0.0
C223 C 0.02314 0.83718 0.11142 0.0
C224 C 0.03944 0.89067 0.11708 0.0
C225 C 0.02179 0.89169 0.14326 0.0
C226 C 0.0033 0.8657 0.15277 0.0
C227 C 0.00433 0.83862 0.13716 0.0
C228 C 0.02403 0.91852 0.16191 0.0
C229 C 0.05695 0.93527 0.16261 0.0
C230 C 0.06558 0.95376 0.18692 0.0
C231 C 0.10571 0.95021 0.19755 0.0
C232 C 0.11313 0.96102 0.22355 0.0
C233 C 0.08084 0.97645 0.23897 0.0
H234 H 0.00286 0.97505 0.19342 0.0
C235 C 0.04168 0.98305 0.22727 0.0
C236 C 0.03394 0.97149 0.20143 0.0
H237 H 0.01632 0.99489 0.23887 0.0
H238 H 0.05438 0.86316 0.08137 0.0
H239 H 0.0532 0.91054 0.10892 0.0
H240 H -0.0107 0.86592 0.17279 0.0
H241 H -0.00933 0.81868 0.14531 0.0
H242 H 0.00142 0.92112 0.17835 0.0
H243 H 0.08191 0.93049 0.14792 0.0
H244 H 0.13062 0.93684 0.18667 0.0
H245 H 0.14361 0.95578 0.2322 0.0
C246 C 0.57096 0.70356 0.64333 0.0
C247 C 0.58495 0.69975 0.61638 0.0
C248 C 0.56632 0.67782 0.6596 0.0
C249 C 0.57603 0.64752 0.64951 0.0
C250 C 0.592 0.64347 0.62311 0.0
C251 C 0.59602 0.66935 0.60655 0.0
C252 C 0.56978 0.62038 0.66686 0.0
C253 C 0.53484 0.62008 0.68176 0.0
C254 C 0.5284 0.5987 0.70463 0.0
C255 C 0.48966 0.60222 0.71778 0.0
C256 C 0.48432 0.58908 0.74312 0.0
C257 C 0.51745 0.57168 0.75575 0.0
H258 H 0.59094 0.57536 0.70676 0.0
C259 C 0.555 0.56522 0.74154 0.0
C260 C 0.56062 0.57881 0.71616 0.0
H261 H 0.58104 0.55193 0.75098 0.0
H262 H 0.56354 0.72652 0.65199 0.0
H263 H 0.55528 0.68165 0.68023 0.0
H264 H 0.60015 0.6203 0.61505 0.0
H265 H 0.60679 0.66547 0.58589 0.0
H266 H 0.59427 0.60144 0.66774 0.0
H267 H 0.51016 0.63858 0.67833 0.0
H268 H 0.46414 0.61711 0.70935 0.0
H269 H 0.45495 0.59419 0.75363 0.0
C270 C 0.55581 0.36142 0.61284 0.0
C271 C 0.55778 0.3299 0.62047 0.0
C272 C 0.55796 0.38482 0.63244 0.0
C273 C 0.56214 0.37702 0.66 0.0
C274 C 0.56297 0.34569 0.66754 0.0
C275 C 0.56049 0.32249 0.64813 0.0
C276 C 0.56868 0.40009 0.68151 0.0
C277 C 0.55616 0.43078 0.68059 0.0
C278 C 0.56235 0.45085 0.70445 0.0
C279 C 0.52993 0.47215 0.71405 0.0
C280 C 0.53226 0.48571 0.73982 0.0
C281 C 0.56713 0.47808 0.75608 0.0
H282 H 0.62515 0.43092 0.71216 0.0
C283 C 0.60123 0.45957 0.74512 0.0
C284 C 0.59902 0.4463 0.7195 0.0
H285 H 0.62876 0.45377 0.75708 0.0
H286 H 0.55402 0.36791 0.59169 0.0
H287 H 0.55788 0.40871 0.62588 0.0
H288 H 0.56597 0.33901 0.68863 0.0
H289 H 0.56103 0.29861 0.65485 0.0
H290 H 0.58299 0.39072 0.69998 0.0
H291 H 0.53799 0.44044 0.6637 0.0
H292 H 0.5016 0.47639 0.7026 0.0
H293 H 0.50557 0.49996 0.74783 0.0
C294 C 0.24692 0.38008 0.95261 0.0
C295 C 0.23972 0.38672 0.98022 0.0
C296 C 0.28213 0.38919 0.93957 0.0
C297 C 0.3109 0.40513 0.95393 0.0
C298 C 0.30424 0.41104 0.98167 0.0
C299 C 0.26882 0.40217 -0.00534 0.0
C300 C 0.34856 0.41517 0.94069 0.0
C301 C 0.3498 0.42319 0.91439 0.0
C302 C 0.38729 0.43357 0.9012 0.0
C303 C 0.3826 0.4542 0.87929 0.0
C304 C 0.41732 0.46461 0.86658 0.0
C305 C 0.4573 0.45434 0.87545 0.0
H306 H 0.43227 0.40586 0.92575 0.0
C307 C 0.46216 0.43283 0.89667 0.0
C308 C 0.42747 0.4226 0.90954 0.0
H309 H 0.49278 0.42435 0.90364 0.0
H310 H 0.22494 0.36831 0.94095 0.0
H311 H 0.28689 0.38344 0.91834 0.0
H312 H 0.3262 0.42295 -0.00676 0.0
H313 H 0.26426 0.40727 0.01604 0.0
H314 H 0.37521 0.41767 0.95342 0.0
H315 H 0.3218 0.42384 0.90238 0.0
H316 H 0.35201 0.4627 0.87228 0.0
H317 H 0.41291 0.48077 0.84988 0.0
C318 C 0.82158 0.63465 0.97716 0.0
C319 C 0.85177 0.6516 0.96521 0.0
C320 C 0.78858 0.62575 0.96188 0.0
C321 C 0.78518 0.63363 0.9343 0.0
C322 C 0.81571 0.6501 0.92229 0.0
C323 C 0.84849 0.65923 0.93762 0.0
C324 C 0.7509 0.62426 0.91736 0.0
C325 C 0.71273 0.62131 0.92735 0.0
C326 C 0.67812 0.6126 0.91036 0.0
C327 C 0.63726 0.6228 0.91808 0.0
C328 C 0.60384 0.61419 0.90306 0.0
C329 C 0.61074 0.59462 0.88043 0.0
H330 H 0.71595 0.58442 0.88117 0.0
C331 C 0.65151 0.58464 0.87246 0.0
C332 C 0.68496 0.59345 0.88731 0.0
H333 H 0.65747 0.56954 0.855 0.0
H334 H 0.82334 0.62841 -0.00162 0.0
H335 H 0.76624 0.61229 0.97162 0.0
H336 H 0.81403 0.65613 0.90101 0.0
H337 H 0.87168 0.67182 0.92776 0.0
H338 H 0.75673 0.62159 0.89574 0.0
H339 H 0.70582 0.62708 0.94845 0.0
H340 H 0.63117 0.63742 0.93582 0.0
H341 H 0.57258 0.62207 0.9096 0.0
C342 C 0.83454 0.46099 0.00269 0.0
C343 C 0.8768 0.46387 -0.00186 0.0
C344 C 0.80437 0.47876 0.98785 0.0
C345 C 0.81593 0.49979 0.96807 0.0
C346 C 0.85806 0.50396 0.96473 0.0
C347 C 0.8882 0.48633 0.97972 0.0
C348 C 0.78601 0.51327 0.94764 0.0
C349 C 0.74466 0.51601 0.95144 0.0
C350 C 0.7151 0.51805 0.92855 0.0
C351 C 0.67379 0.53008 0.93311 0.0
C352 C 0.64367 0.52684 0.91342 0.0
C353 C 0.65442 0.51113 0.88906 0.0
H354 H 0.75714 0.49325 0.89947 0.0
C355 C 0.69583 0.50006 0.88407 0.0
C356 C 0.72597 0.50366 0.90351 0.0
H357 H 0.70463 0.48763 0.86548 0.0
H358 H 0.82488 0.44401 0.01692 0.0
H359 H 0.77239 0.47429 0.99072 0.0
H360 H 0.86785 0.51976 0.94949 0.0
H361 H 0.92055 0.48891 0.9756 0.0
H362 H 0.7985 0.51841 0.92784 0.0
H363 H 0.73187 0.51399 0.97169 0.0
H364 H 0.66453 0.54094 0.95232 0.0
H365 H 0.61171 0.53524 0.91775 0.0
C366 C 0.20405 0.56491 0.99101 0.0
C367 C 0.21112 0.58869 0.00945 0.0
C368 C 0.23713 0.54836 0.97731 0.0
C369 C 0.27802 0.5554 0.98168 0.0
C370 C 0.28528 0.57741 0.00164 0.0
C371 C 0.25219 0.59403 0.01528 0.0
C372 C 0.31323 0.54258 0.96421 0.0
C373 C 0.30838 0.53608 0.93776 0.0
C374 C 0.34353 0.53379 0.91821 0.0
C375 C 0.337 0.54719 0.89256 0.0
C376 C 0.37033 0.55034 0.87509 0.0
C377 C 0.41065 0.53925 0.8826 0.0
H378 H 0.3895 0.51002 0.94459 0.0
C379 C 0.41704 0.52382 0.90743 0.0
C380 C 0.38368 0.52116 0.9252 0.0
H381 H 0.44801 0.51512 0.91357 0.0
H382 H 0.1728 0.56015 0.98605 0.0
H383 H 0.23045 0.53081 0.96272 0.0
H384 H 0.31651 0.58301 0.00566 0.0
H385 H 0.25871 0.61176 0.02977 0.0
H386 H 0.34429 0.54358 0.97204 0.0
H387 H 0.27746 0.53806 0.92925 0.0
H388 H 0.30634 0.55693 0.88664 0.0
H389 H 0.3648 0.56229 0.856 0.0
C390 C 0.81281 0.87779 0.47311 0.0
C391 C 0.77312 0.89389 0.47531 0.0
C392 C 0.8431 0.88899 0.45646 0.0
C393 C 0.83447 0.91681 0.44182 0.0
C394 C 0.79486 0.9329 0.44418 0.0
C395 C 0.76457 0.92163 0.46069 0.0
C396 C 0.86491 0.92916 0.42295 0.0
C397 C 0.90604 0.92077 0.4236 0.0
C398 C 0.93699 0.93217 0.40448 0.0
C399 C 0.9789 0.92123 0.40782 0.0
C400 C 0.00943 0.93108 0.39067 0.0
C401 C -0.00124 0.95235 0.36993 0.0
H402 H 0.89472 0.96199 0.37926 0.0
C403 C 0.95701 0.96287 0.36602 0.0
C404 C 0.92634 0.95301 0.38311 0.0
H405 H 0.94806 0.97865 0.34962 0.0
H406 H 0.82046 0.8564 0.48414 0.0
H407 H 0.87268 0.87523 0.45476 0.0
H408 H 0.7871 0.95418 0.43297 0.0
H409 H 0.73407 0.9343 0.46139 0.0
H410 H 0.85237 0.94617 0.4084 0.0
H411 H 0.91828 0.90489 0.43919 0.0
H412 H 0.9882 0.90504 0.42387 0.0
H413 H 0.04151 0.9225 0.39397 0.0
C414 C 0.35924 0.1649 0.4413 0.0
C415 C 0.36635 0.15779 0.46872 0.0
C416 C 0.3252 0.15459 0.428 0.0
C417 C 0.29743 0.13713 0.44196 0.0
C418 C 0.30401 0.1307 0.46952 0.0
C419 C 0.33838 0.14062 0.48271 0.0
C420 C 0.26056 0.12633 0.4286 0.0
C421 C 0.26008 0.11849 0.40218 0.0
C422 C 0.22294 0.10803 0.38886 0.0
C423 C 0.1826 0.11932 0.3971 0.0
C424 C 0.14818 0.10959 0.38388 0.0
C425 C 0.15336 0.08824 0.36234 0.0
H426 H 0.2588 0.07861 0.35986 0.0
C427 C 0.19355 0.07741 0.35373 0.0
C428 C 0.22806 0.08733 0.36682 0.0
H429 H 0.19826 0.0615 0.33674 0.0
H430 H 0.3804 0.17803 0.43003 0.0
H431 H 0.32041 0.16068 0.40693 0.0
H432 H 0.28279 0.11761 0.48079 0.0
H433 H 0.34295 0.13507 0.50393 0.0
H434 H 0.23373 0.12333 0.4413 0.0
H435 H 0.28829 0.11837 0.39013 0.0
H436 H 0.17748 0.13606 0.41344 0.0
H437 H 0.11743 0.11852 0.39068 0.0
C438 C 0.39532 0.94365 0.47418 0.0
C439 C 0.41662 0.91475 0.46716 0.0
C440 C 0.36574 0.95838 0.45674 0.0
C441 C 0.357 0.94443 0.43186 0.0
C442 C 0.37851 0.91564 0.42498 0.0
C443 C 0.40791 0.90103 0.4423 0.0
C444 C 0.32548 0.95808 0.41245 0.0
C445 C 0.3018 0.98538 0.41543 0.0
C446 C 0.26832 0.99476 0.39586 0.0
C447 C 0.23037 1.00955 0.4053 0.0
C448 C 0.19576 1.01241 0.38835 0.0
C449 C 0.199 1.00066 0.36179 0.0
H450 H 0.30163 0.97623 0.36003 0.0
C451 C 0.2378 0.98876 0.35161 0.0
C452 C 0.27232 0.98629 0.36834 0.0
H453 H 0.24098 0.97994 0.33105 0.0
H454 H 0.40125 0.95475 0.49327 0.0
H455 H 0.34996 0.98045 0.46302 0.0
H456 H 0.37267 0.9043 0.40596 0.0
H457 H 0.42436 0.87916 0.43593 0.0
H458 H 0.32034 0.94372 0.39491 0.0
H459 H 0.30399 0.99959 0.4334 0.0
H460 H 0.2267 0.01682 0.42627 0.0
H461 H 0.16599 0.02172 0.39654 0.0
C462 C 0.73325 0.07661 0.47222 0.0
C463 C 0.73814 0.10209 0.48934 0.0
C464 C 0.76775 0.05964 0.4604 0.0
C465 C 0.80794 0.06796 0.4653 0.0
C466 C 0.81292 0.09213 0.48372 0.0
C467 C 0.77844 0.1091 0.49552 0.0
C468 C 0.845 0.05376 0.4502 0.0
C469 C 0.84285 0.04261 0.42476 0.0
C470 C 0.87967 0.03803 0.40663 0.0
C471 C 0.87473 0.04625 0.3793 0.0
C472 C 0.9092 0.04741 0.36241 0.0
C473 C 0.94916 0.0394 0.37231 0.0
H474 H 0.92434 0.02114 0.43703 0.0
C475 C 0.95424 0.02896 0.39906 0.0
C476 C 0.91966 0.02835 0.41621 0.0
H477 H 0.98495 0.02265 0.40699 0.0
H478 H 0.70266 0.07051 0.46706 0.0
H479 H 0.76268 0.04049 0.44704 0.0
H480 H 0.84352 0.09882 0.48813 0.0
H481 H 0.78334 0.12814 0.50909 0.0
H482 H 0.87516 0.05705 0.45857 0.0
H483 H 0.81282 0.042 0.41532 0.0
H484 H 0.84428 0.05361 0.37138 0.0
H485 H 0.90476 0.05554 0.34179 0.0
loop_
_geom_bond_atom_site_label_1
_geom_bond_atom_site_label_2
_geom_bond_distance
_geom_bond_site_symmetry_2
_ccdc_geom_bond_type
C0 C1 1.386 . S
C0 C2 1.397 . S
C0 H24 0.931 . S
C1 C0 1.386 . S
C1 C5 1.397 . S
C2 C0 1.397 . S
C2 C3 1.384 . S
C2 H25 0.930 . S
C3 C2 1.384 . S
C3 C4 1.377 . S
C3 C6 1.481 1_556 S
C4 C3 1.377 . S
C4 C5 1.389 . S
C4 H26 0.929 . S
C5 C1 1.397 . S
C5 C4 1.389 . S
C5 H27 0.931 . S
C6 C3 1.481 1_554 S
C6 C7 1.387 . S
C6 C11 1.390 1_554 S
C7 C6 1.387 . S
C7 C8 1.401 . S
C7 H28 0.930 . S
C8 C7 1.401 . S
C8 C9 1.376 . S
C8 C17 1.511 . S
C9 C8 1.376 . S
C9 C10 1.392 . S
C9 H30 0.931 . S
C10 C9 1.392 . S
C10 C11 1.361 1_554 S
C10 C12 1.500 1_554 S
C11 C6 1.390 1_556 S
C11 C10 1.361 1_556 S
C11 H29 0.931 . S
C12 C10 1.500 1_556 S
C12 C13 1.371 . S
C12 C14 1.365 . S
C13 C12 1.371 . S
C13 C23 1.386 1_455 S
C13 H31 0.941 . S
C14 C12 1.365 . S
C14 C15 1.409 . S
C14 H32 0.929 . S
C15 C14 1.409 . S
C15 C16 1.380 1_455 S
C15 H33 0.930 . S
C16 C15 1.380 1_655 S
C16 C23 1.357 . S
C17 C8 1.511 . S
C17 C18 1.341 . S
C17 C19 1.371 . S
C18 C17 1.341 . S
C18 C22 1.394 . S
C18 H34 0.930 . S
C19 C17 1.371 . S
C19 C20 1.392 . S
C19 H35 0.931 . S
C20 C19 1.392 . S
C20 C21 1.331 . S
C20 H38 0.932 . S
C21 C20 1.331 . S
C21 C22 1.336 . S
C22 C18 1.394 . S
C22 C21 1.336 . S
C22 H37 0.929 . S
C23 C13 1.386 1_655 S
C23 C16 1.357 . S
C23 H36 0.928 . S
H24 C0 0.931 . S
H25 C2 0.930 . S
H26 C4 0.929 . S
H27 C5 0.931 . S
H28 C7 0.930 . S
H29 C11 0.931 . S
H30 C9 0.931 . S
H31 C13 0.941 . S
H32 C14 0.929 . S
H33 C15 0.930 . S
H34 C18 0.930 . S
H35 C19 0.931 . S
H36 C23 0.928 . S
H37 C22 0.929 . S
H38 C20 0.932 . S
C39 C40 1.386 . S
C39 C41 1.397 . S
C39 H63 0.931 . S
C40 C39 1.386 . S
C40 C44 1.397 . S
C41 C39 1.397 . S
C41 C42 1.386 . S
C41 H64 0.930 . S
C42 C41 1.386 . S
C42 C43 1.379 . S
C42 C45 1.477 1_556 S
C43 C42 1.379 . S
C43 C44 1.389 . S
C43 H65 0.929 . S
C44 C40 1.397 . S
C44 C43 1.389 . S
C44 H66 0.931 . S
C45 C42 1.477 1_554 S
C45 C46 1.387 . S
C45 C50 1.376 1_654 S
C46 C45 1.387 . S
C46 C47 1.401 1_655 S
C46 H67 0.930 . S
C47 C46 1.401 1_455 S
C47 C48 1.376 . S
C47 C56 1.511 . S
C48 C47 1.376 . S
C48 C49 1.392 . S
C48 H69 0.931 . S
C49 C48 1.392 . S
C49 C50 1.348 1_554 S
C49 C51 1.500 1_554 S
C50 C45 1.376 1_456 S
C50 C49 1.348 1_556 S
C50 H68 0.961 . S
C51 C49 1.500 1_556 S
C51 C52 1.371 . S
C51 C53 1.365 . S
C52 C51 1.371 . S
C52 C62 1.386 . S
C52 H70 0.931 1_556 S
C53 C51 1.365 . S
C53 C54 1.409 . S
C53 H71 0.929 . S
C54 C53 1.409 . S
C54 C55 1.380 . S
C54 H72 0.930 . S
C55 C54 1.380 . S
C55 C62 1.357 . S
C56 C47 1.511 . S
C56 C57 1.341 1_455 S
C56 C58 1.371 . S
C57 C56 1.341 1_655 S
C57 C61 1.394 . S
C57 H73 0.930 . S
C58 C56 1.371 . S
C58 C59 1.392 . S
C58 H74 0.931 . S
C59 C58 1.392 . S
C59 C60 1.347 . S
C59 H77 0.932 . S
C60 C59 1.347 . S
C60 C61 1.320 1_455 S
C61 C57 1.394 . S
C61 C60 1.320 1_655 S
C61 H76 0.929 . S
C62 C52 1.386 . S
C62 C55 1.357 . S
C62 H75 0.928 . S
H63 C39 0.931 . S
H64 C41 0.930 . S
H65 C43 0.929 . S
H66 C44 0.931 . S
H67 C46 0.930 . S
H68 C50 0.961 . S
H69 C48 0.931 . S
H70 C52 0.931 1_554 S
H71 C53 0.929 . S
H72 C54 0.930 . S
H73 C57 0.930 . S
H74 C58 0.931 . S
H75 C62 0.928 . S
H76 C61 0.929 . S
H77 C59 0.932 . S
C78 C79 1.386 . S
C78 C80 1.397 . S
C78 H102 0.931 . S
C79 C78 1.386 . S
C79 C83 1.397 . S
C80 C78 1.397 . S
C80 C81 1.384 . S
C80 H103 0.930 . S
C81 C80 1.384 . S
C81 C82 1.377 . S
C81 C84 1.481 . S
C82 C81 1.377 . S
C82 C83 1.389 . S
C82 H104 0.929 . S
C83 C79 1.397 . S
C83 C82 1.389 . S
C83 H105 0.931 . S
C84 C81 1.481 . S
C84 C85 1.387 . S
C84 C89 1.390 . S
C85 C84 1.387 . S
C85 C86 1.401 . S
C85 H106 0.930 . S
C86 C85 1.401 . S
C86 C87 1.376 . S
C86 C95 1.511 . S
C87 C86 1.376 . S
C87 C88 1.392 . S
C87 H108 0.931 . S
C88 C87 1.392 . S
C88 C89 1.361 . S
C88 C90 1.500 . S
C89 C84 1.390 . S
C89 C88 1.361 . S
C89 H107 0.931 . S
C90 C88 1.500 . S
C90 C91 1.371 . S
C90 C92 1.365 . S
C91 C90 1.371 . S
C91 C101 1.386 . S
C91 H109 0.931 . S
C92 C90 1.365 . S
C92 C93 1.409 . S
C92 H110 0.929 . S
C93 C92 1.409 . S
C93 C94 1.380 . S
C93 H111 0.930 . S
C94 C93 1.380 . S
C94 C101 1.357 . S
C95 C86 1.511 . S
C95 C96 1.341 . S
C95 C97 1.371 . S
C96 C95 1.341 . S
C96 C100 1.394 . S
C96 H112 0.930 . S
C97 C95 1.371 . S
C97 C98 1.392 . S
C97 H113 0.931 . S
C98 C97 1.392 . S
C98 C99 1.331 . S
C98 H116 0.932 . S
C99 C98 1.331 . S
C99 C100 1.336 . S
C100 C96 1.394 . S
C100 C99 1.336 . S
C100 H115 0.929 . S
C101 C91 1.386 . S
C101 C94 1.357 . S
C101 H114 0.928 . S
H102 C78 0.931 . S
H103 C80 0.930 . S
H104 C82 0.929 . S
H105 C83 0.931 . S
H106 C85 0.930 . S
H107 C89 0.931 . S
H108 C87 0.931 . S
H109 C91 0.931 . S
H110 C92 0.929 . S
H111 C93 0.930 . S
H112 C96 0.930 . S
H113 C97 0.931 . S
H114 C101 0.928 . S
H115 C100 0.929 . S
H116 C98 0.932 . S
C117 C118 1.386 . S
C117 C119 1.397 . S
C117 H141 0.931 . S
C118 C117 1.386 . S
C118 C122 1.397 . S
C119 C117 1.397 . S
C119 C120 1.384 . S
C119 H142 0.930 . S
C120 C119 1.384 . S
C120 C121 1.377 . S
C120 C123 1.481 . S
C121 C120 1.377 . S
C121 C122 1.389 . S
C121 H143 0.929 . S
C122 C118 1.397 . S
C122 C121 1.389 . S
C122 H144 0.931 . S
C123 C120 1.481 . S
C123 C124 1.387 . S
C123 C128 1.390 . S
C124 C123 1.387 . S
C124 C125 1.401 . S
C124 H145 0.930 . S
C125 C124 1.401 . S
C125 C126 1.376 . S
C125 C134 1.511 . S
C126 C125 1.376 . S
C126 C127 1.392 . S
C126 H147 0.931 . S
C127 C126 1.392 . S
C127 C128 1.361 . S
C127 C129 1.500 . S
C128 C123 1.390 . S
C128 C127 1.361 . S
C128 H146 0.931 . S
C129 C127 1.500 . S
C129 C130 1.371 . S
C129 C131 1.365 . S
C130 C129 1.371 . S
C130 C140 1.386 . S
C130 H148 0.931 . S
C131 C129 1.365 . S
C131 C132 1.409 . S
C131 H149 0.929 . S
C132 C131 1.409 . S
C132 C133 1.380 . S
C132 H150 0.930 . S
C133 C132 1.380 . S
C133 C140 1.357 . S
C134 C125 1.511 . S
C134 C135 1.341 . S
C134 C136 1.371 . S
C135 C134 1.341 . S
C135 C139 1.394 . S
C135 H151 0.930 . S
C136 C134 1.371 . S
C136 C137 1.392 . S
C136 H152 0.931 . S
C137 C136 1.392 . S
C137 C138 1.331 . S
C137 H155 0.932 . S
C138 C137 1.331 . S
C138 C139 1.336 . S
C139 C135 1.394 . S
C139 C138 1.336 . S
C139 H154 0.929 . S
C140 C130 1.386 . S
C140 C133 1.357 . S
C140 H153 0.928 . S
H141 C117 0.931 . S
H142 C119 0.930 . S
H143 C121 0.929 . S
H144 C122 0.931 . S
H145 C124 0.930 . S
H146 C128 0.931 . S
H147 C126 0.931 . S
H148 C130 0.931 . S
H149 C131 0.929 . S
H150 C132 0.930 . S
H151 C135 0.930 . S
H152 C136 0.931 . S
H153 C140 0.928 . S
H154 C139 0.929 . S
H155 C137 0.932 . S
Zn156 O162 1.920 . S
Zn156 O168 1.898 . S
Zn156 O171 1.905 . S
Zn157 O165 1.905 . S
Zn157 O166 1.898 . S
Zn157 O174 1.920 . S
Zn158 O161 2.080 . S
Zn158 O164 2.114 1_545 S
Zn158 O167 2.120 1_545 S
Zn158 O169 2.120 . S
Zn158 O170 2.114 . S
Zn158 O173 2.080 1_545 S
C159 O164 1.166 . S
C159 O165 1.182 . S
C160 O166 1.167 . S
C160 O167 1.299 . S
O161 Zn158 2.080 . S
O161 C175 1.305 . S
O162 Zn156 1.920 . S
O162 C175 1.234 . S
C163 O168 1.167 . S
C163 O169 1.299 . S
O164 Zn158 2.114 1_565 S
O164 C159 1.166 . S
O165 Zn157 1.905 . S
O165 C159 1.182 . S
O166 Zn157 1.898 . S
O166 C160 1.167 . S
O167 Zn158 2.120 1_565 S
O167 C160 1.299 . S
O168 Zn156 1.898 . S
O168 C163 1.167 . S
O169 Zn158 2.120 . S
O169 C163 1.299 . S
O170 Zn158 2.114 . S
O170 C172 1.166 1_455 S
O171 Zn156 1.905 . S
O171 C172 1.182 1_455 S
C172 O170 1.166 1_655 S
C172 O171 1.182 1_655 S
O173 Zn158 2.080 1_565 S
O173 C176 1.305 . S
O174 Zn157 1.920 . S
O174 C176 1.234 . S
C175 O161 1.305 . S
C175 O162 1.234 . S
C176 O173 1.305 . S
C176 O174 1.234 . S
Zn177 O183 1.920 . S
Zn177 O189 1.898 . S
Zn177 O192 1.905 . S
Zn178 O186 1.905 . S
Zn178 O187 1.898 . S
Zn178 O195 1.920 . S
Zn179 O182 2.080 . S
Zn179 O185 2.114 . S
Zn179 O188 2.120 . S
Zn179 O190 2.120 . S
Zn179 O191 2.114 . S
Zn179 O194 2.080 . S
C180 O185 1.166 . S
C180 O186 1.182 . S
C181 O187 1.167 . S
C181 O188 1.299 . S
O182 Zn179 2.080 . S
O182 C196 1.305 . S
O183 Zn177 1.920 . S
O183 C196 1.234 . S
C184 O189 1.167 . S
C184 O190 1.299 . S
O185 Zn179 2.114 . S
O185 C180 1.166 . S
O186 Zn178 1.905 . S
O186 C180 1.182 . S
O187 Zn178 1.898 . S
O187 C181 1.167 . S
O188 Zn179 2.120 . S
O188 C181 1.299 . S
O189 Zn177 1.898 . S
O189 C184 1.167 . S
O190 Zn179 2.120 . S
O190 C184 1.299 . S
O191 Zn179 2.114 . S
O191 C193 1.166 . S
O192 Zn177 1.905 . S
O192 C193 1.182 . S
C193 O191 1.166 . S
C193 O192 1.182 . S
O194 Zn179 2.080 . S
O194 C197 1.305 . S
O195 Zn178 1.920 . S
O195 C197 1.234 . S
C196 O182 1.305 . S
C196 O183 1.234 . S
C197 O194 1.305 . S
C197 O195 1.234 . S
C198 C199 1.386 . S
C198 C200 1.383 . S
C198 H214 0.951 . S
C199 C198 1.386 . S
C199 C203 1.383 . S
C200 C198 1.383 . S
C200 C201 1.402 . S
C200 H215 0.951 . S
C201 C200 1.402 . S
C201 C202 1.375 . S
C201 C204 1.481 . S
C202 C201 1.375 . S
C202 C203 1.367 . S
C202 H216 0.951 . S
C203 C199 1.383 . S
C203 C202 1.367 . S
C203 H217 0.950 . S
C204 C201 1.481 . S
C204 C205 1.297 . S
C204 H218 0.950 . S
C205 C204 1.297 . S
C205 C206 1.479 . S
C205 H219 0.950 . S
C206 C205 1.479 . S
C206 C207 1.375 . S
C206 C212 1.404 . S
C207 C206 1.375 . S
C207 C208 1.369 . S
C207 H220 0.950 . S
C208 C207 1.369 . S
C208 C209 1.392 . S
C208 H221 0.951 . S
C209 C208 1.392 . S
C209 C211 1.384 . S
H210 C212 0.949 . S
C211 C209 1.384 . S
C211 C212 1.385 . S
C211 H213 0.950 . S
C212 C206 1.404 . S
C212 H210 0.949 . S
C212 C211 1.385 . S
H213 C211 0.950 . S
H214 C198 0.951 . S
H215 C200 0.951 . S
H216 C202 0.951 . S
H217 C203 0.950 . S
H218 C204 0.950 . S
H219 C205 0.950 . S
H220 C207 0.950 . S
H221 C208 0.951 . S
C222 C223 1.386 1_655 S
C222 C224 1.383 . S
C222 H238 0.951 . S
C223 C222 1.386 1_455 S
C223 C227 1.383 . S
C224 C222 1.383 . S
C224 C225 1.402 1_655 S
C224 H239 0.951 . S
C225 C224 1.402 1_455 S
C225 C226 1.375 . S
C225 C228 1.481 . S
C226 C225 1.375 . S
C226 C227 1.367 . S
C226 H240 0.951 . S
C227 C223 1.383 . S
C227 C226 1.367 . S
C227 H241 0.950 . S
C228 C225 1.481 . S
C228 C229 1.297 . S
C228 H242 0.950 . S
C229 C228 1.297 . S
C229 C230 1.479 . S
C229 H243 0.950 1_455 S
C230 C229 1.479 . S
C230 C231 1.375 . S
C230 C236 1.404 . S
C231 C230 1.375 . S
C231 C232 1.369 . S
C231 H244 0.950 1_455 S
C232 C231 1.369 . S
C232 C233 1.392 . S
C232 H245 0.951 . S
C233 C232 1.392 . S
C233 C235 1.384 . S
H234 C236 0.949 . S
C235 C233 1.384 . S
C235 C236 1.385 . S
C235 H237 0.950 . S
C236 C230 1.404 . S
C236 H234 0.949 . S
C236 C235 1.385 . S
H237 C235 0.950 . S
H238 C222 0.951 . S
H239 C224 0.951 . S
H240 C226 0.951 . S
H241 C227 0.950 . S
H242 C228 0.950 . S
H243 C229 0.950 1_655 S
H244 C231 0.950 1_655 S
H245 C232 0.951 . S
C246 C247 1.386 . S
C246 C248 1.383 . S
C246 H262 0.951 . S
C247 C246 1.386 . S
C247 C251 1.383 . S
C248 C246 1.383 . S
C248 C249 1.402 . S
C248 H263 0.951 . S
C249 C248 1.402 . S
C249 C250 1.375 . S
C249 C252 1.481 . S
C250 C249 1.375 . S
C250 C251 1.367 . S
C250 H264 0.951 . S
C251 C247 1.383 . S
C251 C250 1.367 . S
C251 H265 0.950 . S
C252 C249 1.481 . S
C252 C253 1.297 . S
C252 H266 0.950 . S
C253 C252 1.297 . S
C253 C254 1.479 . S
C253 H267 0.950 . S
C254 C253 1.479 . S
C254 C255 1.375 . S
C254 C260 1.404 . S
C255 C254 1.375 . S
C255 C256 1.369 . S
C255 H268 0.950 . S
C256 C255 1.369 . S
C256 C257 1.392 . S
C256 H269 0.951 . S
C257 C256 1.392 . S
C257 C259 1.384 . S
H258 C260 0.949 . S
C259 C257 1.384 . S
C259 C260 1.385 . S
C259 H261 0.950 . S
C260 C254 1.404 . S
C260 H258 0.949 . S
C260 C259 1.385 . S
H261 C259 0.950 . S
H262 C246 0.951 . S
H263 C248 0.951 . S
H264 C250 0.951 . S
H265 C251 0.950 . S
H266 C252 0.950 . S
H267 C253 0.950 . S
H268 C255 0.950 . S
H269 C256 0.951 . S
C270 C271 1.386 . S
C270 C272 1.383 . S
C270 H286 0.951 . S
C271 C270 1.386 . S
C271 C275 1.383 . S
C272 C270 1.383 . S
C272 C273 1.402 . S
C272 H287 0.951 . S
C273 C272 1.402 . S
C273 C274 1.375 . S
C273 C276 1.481 . S
C274 C273 1.375 . S
C274 C275 1.367 . S
C274 H288 0.951 . S
C275 C271 1.383 . S
C275 C274 1.367 . S
C275 H289 0.950 . S
C276 C273 1.481 . S
C276 C277 1.297 . S
C276 H290 0.950 . S
C277 C276 1.297 . S
C277 C278 1.479 . S
C277 H291 0.950 . S
C278 C277 1.479 . S
C278 C279 1.375 . S
C278 C284 1.404 . S
C279 C278 1.375 . S
C279 C280 1.369 . S
C279 H292 0.950 . S
C280 C279 1.369 . S
C280 C281 1.392 . S
C280 H293 0.951 . S
C281 C280 1.392 . S
C281 C283 1.384 . S
H282 C284 0.949 . S
C283 C281 1.384 . S
C283 C284 1.385 . S
C283 H285 0.950 . S
C284 C278 1.404 . S
C284 H282 0.949 . S
C284 C283 1.385 . S
H285 C283 0.950 . S
H286 C270 0.951 . S
H287 C272 0.951 . S
H288 C274 0.951 . S
H289 C275 0.950 . S
H290 C276 0.950 . S
H291 C277 0.950 . S
H292 C279 0.950 . S
H293 C280 0.951 . S
C294 C295 1.386 . S
C294 C296 1.383 . S
C294 H310 0.951 . S
C295 C294 1.386 . S
C295 C299 1.383 . S
C296 C294 1.383 . S
C296 C297 1.402 . S
C296 H311 0.951 . S
C297 C296 1.402 . S
C297 C298 1.375 . S
C297 C300 1.481 . S
C298 C297 1.375 . S
C298 C299 1.367 . S
C298 H312 0.951 . S
C299 C295 1.383 . S
C299 C298 1.367 . S
C299 H313 0.950 . S
C300 C297 1.481 . S
C300 C301 1.297 . S
C300 H314 0.950 . S
C301 C300 1.297 . S
C301 C302 1.479 . S
C301 H315 0.950 . S
C302 C301 1.479 . S
C302 C303 1.375 . S
C302 C308 1.404 . S
C303 C302 1.375 . S
C303 C304 1.369 . S
C303 H316 0.950 . S
C304 C303 1.369 . S
C304 C305 1.392 . S
C304 H317 0.951 . S
C305 C304 1.392 . S
C305 C307 1.384 . S
H306 C308 0.949 . S
C307 C305 1.384 . S
C307 C308 1.385 . S
C307 H309 0.950 . S
C308 C302 1.404 . S
C308 H306 0.949 . S
C308 C307 1.385 . S
H309 C307 0.950 . S
H310 C294 0.951 . S
H311 C296 0.951 . S
H312 C298 0.951 . S
H313 C299 0.950 . S
H314 C300 0.950 . S
H315 C301 0.950 . S
H316 C303 0.950 . S
H317 C304 0.951 . S
C318 C319 1.386 . S
C318 C320 1.383 . S
C318 H334 0.951 1_556 S
C319 C318 1.386 . S
C319 C323 1.383 . S
C320 C318 1.383 . S
C320 C321 1.402 . S
C320 H335 0.951 . S
C321 C320 1.402 . S
C321 C322 1.375 . S
C321 C324 1.481 . S
C322 C321 1.375 . S
C322 C323 1.367 . S
C322 H336 0.951 . S
C323 C319 1.383 . S
C323 C322 1.367 . S
C323 H337 0.950 . S
C324 C321 1.481 . S
C324 C325 1.297 . S
C324 H338 0.950 . S
C325 C324 1.297 . S
C325 C326 1.479 . S
C325 H339 0.950 . S
C326 C325 1.479 . S
C326 C327 1.375 . S
C326 C332 1.404 . S
C327 C326 1.375 . S
C327 C328 1.369 . S
C327 H340 0.950 . S
C328 C327 1.369 . S
C328 C329 1.392 . S
C328 H341 0.951 . S
C329 C328 1.392 . S
C329 C331 1.384 . S
H330 C332 0.949 . S
C331 C329 1.384 . S
C331 C332 1.385 . S
C331 H333 0.950 . S
C332 C326 1.404 . S
C332 H330 0.949 . S
C332 C331 1.385 . S
H333 C331 0.950 . S
H334 C318 0.951 1_554 S
H335 C320 0.951 . S
H336 C322 0.951 . S
H337 C323 0.950 . S
H338 C324 0.950 . S
H339 C325 0.950 . S
H340 C327 0.950 . S
H341 C328 0.951 . S
C342 C343 1.386 . S
C342 C344 1.383 . S
C342 H358 0.951 . S
C343 C342 1.386 . S
C343 C347 1.383 . S
C344 C342 1.383 . S
C344 C345 1.402 . S
C344 H359 0.951 . S
C345 C344 1.402 . S
C345 C346 1.375 . S
C345 C348 1.481 . S
C346 C345 1.375 . S
C346 C347 1.367 . S
C346 H360 0.951 . S
C347 C343 1.383 . S
C347 C346 1.367 . S
C347 H361 0.950 . S
C348 C345 1.481 . S
C348 C349 1.297 . S
C348 H362 0.950 . S
C349 C348 1.297 . S
C349 C350 1.479 . S
C349 H363 0.950 . S
C350 C349 1.479 . S
C350 C351 1.375 . S
C350 C356 1.404 . S
C351 C350 1.375 . S
C351 C352 1.369 . S
C351 H364 0.950 . S
C352 C351 1.369 . S
C352 C353 1.392 . S
C352 H365 0.951 . S
C353 C352 1.392 . S
C353 C355 1.384 . S
H354 C356 0.949 . S
C355 C353 1.384 . S
C355 C356 1.385 . S
C355 H357 0.950 . S
C356 C350 1.404 . S
C356 H354 0.949 . S
C356 C355 1.385 . S
H357 C355 0.950 . S
H358 C342 0.951 . S
H359 C344 0.951 . S
H360 C346 0.951 . S
H361 C347 0.950 . S
H362 C348 0.950 . S
H363 C349 0.950 . S
H364 C351 0.950 . S
H365 C352 0.951 . S
C366 C367 1.386 . S
C366 C368 1.383 . S
C366 H382 0.951 . S
C367 C366 1.386 . S
C367 C371 1.383 . S
C368 C366 1.383 . S
C368 C369 1.402 . S
C368 H383 0.951 . S
C369 C368 1.402 . S
C369 C370 1.375 . S
C369 C372 1.481 . S
C370 C369 1.375 . S
C370 C371 1.367 . S
C370 H384 0.951 . S
C371 C367 1.383 . S
C371 C370 1.367 . S
C371 H385 0.950 . S
C372 C369 1.481 . S
C372 C373 1.297 . S
C372 H386 0.950 . S
C373 C372 1.297 . S
C373 C374 1.479 . S
C373 H387 0.950 . S
C374 C373 1.479 . S
C374 C375 1.375 . S
C374 C380 1.404 . S
C375 C374 1.375 . S
C375 C376 1.369 . S
C375 H388 0.950 . S
C376 C375 1.369 . S
C376 C377 1.392 . S
C376 H389 0.951 . S
C377 C376 1.392 . S
C377 C379 1.384 . S
H378 C380 0.949 . S
C379 C377 1.384 . S
C379 C380 1.385 . S
C379 H381 0.950 . S
C380 C374 1.404 . S
C380 H378 0.949 . S
C380 C379 1.385 . S
H381 C379 0.950 . S
H382 C366 0.951 . S
H383 C368 0.951 . S
H384 C370 0.951 . S
H385 C371 0.950 . S
H386 C372 0.950 . S
H387 C373 0.950 . S
H388 C375 0.950 . S
H389 C376 0.951 . S
C390 C391 1.386 . S
C390 C392 1.383 . S
C390 H406 0.951 . S
C391 C390 1.386 . S
C391 C395 1.383 . S
C392 C390 1.383 . S
C392 C393 1.402 . S
C392 H407 0.951 . S
C393 C392 1.402 . S
C393 C394 1.375 . S
C393 C396 1.481 . S
C394 C393 1.375 . S
C394 C395 1.367 . S
C394 H408 0.951 . S
C395 C391 1.383 . S
C395 C394 1.367 . S
C395 H409 0.950 . S
C396 C393 1.481 . S
C396 C397 1.297 . S
C396 H410 0.950 . S
C397 C396 1.297 . S
C397 C398 1.479 . S
C397 H411 0.950 . S
C398 C397 1.479 . S
C398 C399 1.375 . S
C398 C404 1.404 . S
C399 C398 1.375 . S
C399 C400 1.369 1_655 S
C399 H412 0.950 . S
C400 C399 1.369 1_455 S
C400 C401 1.392 1_455 S
C400 H413 0.951 . S
C401 C400 1.392 1_655 S
C401 C403 1.384 . S
H402 C404 0.949 . S
C403 C401 1.384 . S
C403 C404 1.385 . S
C403 H405 0.950 . S
C404 C398 1.404 . S
C404 H402 0.949 . S
C404 C403 1.385 . S
H405 C403 0.950 . S
H406 C390 0.951 . S
H407 C392 0.951 . S
H408 C394 0.951 . S
H409 C395 0.950 . S
H410 C396 0.950 . S
H411 C397 0.950 . S
H412 C399 0.950 . S
H413 C400 0.951 . S
C414 C415 1.386 . S
C414 C416 1.383 . S
C414 H430 0.951 . S
C415 C414 1.386 . S
C415 C419 1.383 . S
C416 C414 1.383 . S
C416 C417 1.402 . S
C416 H431 0.951 . S
C417 C416 1.402 . S
C417 C418 1.375 . S
C417 C420 1.481 . S
C418 C417 1.375 . S
C418 C419 1.367 . S
C418 H432 0.951 . S
C419 C415 1.383 . S
C419 C418 1.367 . S
C419 H433 0.950 . S
C420 C417 1.481 . S
C420 C421 1.297 . S
C420 H434 0.950 . S
C421 C420 1.297 . S
C421 C422 1.479 . S
C421 H435 0.950 . S
C422 C421 1.479 . S
C422 C423 1.375 . S
C422 C428 1.404 . S
C423 C422 1.375 . S
C423 C424 1.369 . S
C423 H436 0.950 . S
C424 C423 1.369 . S
C424 C425 1.392 . S
C424 H437 0.951 . S
C425 C424 1.392 . S
C425 C427 1.384 . S
H426 C428 0.949 . S
C427 C425 1.384 . S
C427 C428 1.385 . S
C427 H429 0.950 . S
C428 C422 1.404 . S
C428 H426 0.949 . S
C428 C427 1.385 . S
H429 C427 0.950 . S
H430 C414 0.951 . S
H431 C416 0.951 . S
H432 C418 0.951 . S
H433 C419 0.950 . S
H434 C420 0.950 . S
H435 C421 0.950 . S
H436 C423 0.950 . S
H437 C424 0.951 . S
C438 C439 1.386 . S
C438 C440 1.383 . S
C438 H454 0.951 . S
C439 C438 1.386 . S
C439 C443 1.383 . S
C440 C438 1.383 . S
C440 C441 1.402 . S
C440 H455 0.951 . S
C441 C440 1.402 . S
C441 C442 1.375 . S
C441 C444 1.481 . S
C442 C441 1.375 . S
C442 C443 1.367 . S
C442 H456 0.951 . S
C443 C439 1.383 . S
C443 C442 1.367 . S
C443 H457 0.950 . S
C444 C441 1.481 . S
C444 C445 1.297 . S
C444 H458 0.950 . S
C445 C444 1.297 . S
C445 C446 1.479 . S
C445 H459 0.950 . S
C446 C445 1.479 . S
C446 C447 1.375 . S
C446 C452 1.404 . S
C447 C446 1.375 . S
C447 C448 1.369 . S
C447 H460 0.950 . S
C448 C447 1.369 . S
C448 C449 1.392 . S
C448 H461 0.951 . S
C449 C448 1.392 . S
C449 C451 1.384 . S
H450 C452 0.949 . S
C451 C449 1.384 . S
C451 C452 1.385 . S
C451 H453 0.950 . S
C452 C446 1.404 . S
C452 H450 0.949 . S
C452 C451 1.385 . S
H453 C451 0.950 . S
H454 C438 0.951 . S
H455 C440 0.951 . S
H456 C442 0.951 . S
H457 C443 0.950 . S
H458 C444 0.950 . S
H459 C445 0.950 . S
H460 C447 0.950 . S
H461 C448 0.951 . S
C462 C463 1.386 . S
C462 C464 1.383 . S
C462 H478 0.951 . S
C463 C462 1.386 . S
C463 C467 1.383 . S
C464 C462 1.383 . S
C464 C465 1.402 . S
C464 H479 0.951 . S
C465 C464 1.402 . S
C465 C466 1.375 . S
C465 C468 1.481 . S
C466 C465 1.375 . S
C466 C467 1.367 . S
C466 H480 0.951 . S
C467 C463 1.383 . S
C467 C466 1.367 . S
C467 H481 0.950 . S
C468 C465 1.481 . S
C468 C469 1.297 . S
C468 H482 0.950 . S
C469 C468 1.297 . S
C469 C470 1.479 . S
C469 H483 0.950 . S
C470 C469 1.479 . S
C470 C471 1.375 . S
C470 C476 1.404 . S
C471 C470 1.375 . S
C471 C472 1.369 . S
C471 H484 0.950 . S
C472 C471 1.369 . S
C472 C473 1.392 . S
C472 H485 0.951 . S
C473 C472 1.392 . S
C473 C475 1.384 . S
H474 C476 0.949 . S
C475 C473 1.384 . S
C475 C476 1.385 . S
C475 H477 0.950 . S
C476 C470 1.404 . S
C476 H474 0.949 . S
C476 C475 1.385 . S
H477 C475 0.950 . S
H478 C462 0.951 . S
H479 C464 0.951 . S
H480 C466 0.951 . S
H481 C467 0.950 . S
H482 C468 0.950 . S
H483 C469 0.950 . S
H484 C471 0.950 . S
H485 C472 0.951 . S
C209 C163 1.349 . S
C199 C21 1.504 . S
C233 C159 1.418 . S
C223 C60 1.514 . S
C257 C184 1.432 . S
C247 C99 1.527 . S
C271 C138 1.505 . S
C281 C180 1.375 . S
C295 C1 1.121 . S
C305 C181 1.030 . S
C329 C196 0.997 . S
C319 C40 1.191 . S
C343 C16 1.704 . S
C353 C197 1.599 . S
C377 C193 1.523 . S
C367 C55 1.730 . S
C401 C160 0.923 1_655 S
C391 C79 1.135 . S
C415 C118 1.149 . S
C425 C175 0.995 . S
C449 C176 1.635 . S
C439 C94 1.711 . S
C473 C172 1.540 . S
C463 C133 1.734 . S
