# Generated by pormake.
# Topology nom, (4,4)-cn, num edge types: 1
# Building blocks:
#     Node 0, Type 0, BuildingBlock: NAHDIM_clean_linker_0, # of connection points: 4
#     Node 1, Type 0, BuildingBlock: NAHDIM_clean_linker_0, # of connection points: 4
#     Node 2, Type 0, BuildingBlock: NAHDIM_clean_linker_0, # of connection points: 4
#     Node 3, Type 0, BuildingBlock: NAHDIM_clean_linker_0, # of connection points: 4
#     Node 4, Type 0, BuildingBlock: NAHDIM_clean_linker_0, # of connection points: 4
#     Node 5, Type 0, BuildingBlock: NAHDIM_clean_linker_0, # of connection points: 4
#     Node 6, Type 1, BuildingBlock: TATPOV_clean_sbu_0, # of connection points: 4
#     Node 7, Type 1, BuildingBlock: TATPOV_clean_sbu_0, # of connection points: 4
#     Node 8, Type 1, BuildingBlock: TATPOV_clean_sbu_0, # of connection points: 4
#     Node 9, Type 1, BuildingBlock: TATPOV_clean_sbu_0, # of connection points: 4
#     Node 10, Type 1, BuildingBlock: TATPOV_clean_sbu_0, # of connection points: 4
#     Node 11, Type 1, BuildingBlock: TATPOV_clean_sbu_0, # of connection points: 4
#     Edge 12, Type (0, 1), None
#     Edge 13, Type (0, 1), None
#     Edge 14, Type (0, 1), None
#     Edge 15, Type (0, 1), None
#     Edge 16, Type (0, 1), None
#     Edge 17, Type (0, 1), None
#     Edge 18, Type (0, 1), None
#     Edge 19, Type (0, 1), None
#     Edge 20, Type (0, 1), None
#     Edge 21, Type (0, 1), None
#     Edge 22, Type (0, 1), None
#     Edge 23, Type (0, 1), None
#     Edge 24, Type (0, 1), None
#     Edge 25, Type (0, 1), None
#     Edge 26, Type (0, 1), None
#     Edge 27, Type (0, 1), None
#     Edge 28, Type (0, 1), None
#     Edge 29, Type (0, 1), None
#     Edge 30, Type (0, 1), None
#     Edge 31, Type (0, 1), None
#     Edge 32, Type (0, 1), None
#     Edge 33, Type (0, 1), None
#     Edge 34, Type (0, 1), None
#     Edge 35, Type (0, 1), None
# Relax obj value: 0.069
# Max RMSD: 0.137
# Mean RMSD: 0.127
data_MOF--net-nom--node1-TATPOV_clean_sbu_0--node2-NAHDIM_clean_linker_0--edge1-none
_symmetry_space_group_name_H-M    P1
_symmetry_Int_Tables_number       1
_symmetry_cell_setting            triclinic
loop_
_symmetry_equiv_pos_as_xyz
'x, y, z'
_cell_length_a     34.457595
_cell_length_b     35.081532
_cell_length_c     41.439867
_cell_angle_alpha  90.862033
_cell_angle_beta   90.739375
_cell_angle_gamma 120.05521
loop_
_atom_site_label
_atom_site_type_symbol
_atom_site_fract_x
_atom_site_fract_y
_atom_site_fract_z
_atom_type_partial_charge
C0 C 0.27354 0.68288 0.14242 0.0
C1 C 0.25336 0.66632 0.17542 0.0
C2 C 0.1772 0.63737 0.19626 0.0
C3 C 0.17309 0.60041 0.21211 0.0
C4 C 0.13636 0.57527 0.23179 0.0
C5 C 0.10398 0.58829 0.2367 0.0
C6 C 0.10857 0.62599 0.22123 0.0
C7 C 0.14469 0.64948 0.20077 0.0
C8 C 0.13186 0.53435 0.24687 0.0
C9 C 0.07525 0.64143 0.22612 0.0
C10 C 0.74399 0.34811 0.17925 0.0
C11 C 0.79521 0.37389 0.17738 0.0
C12 C 0.85436 0.43217 0.21241 0.0
C13 C 0.86665 0.47237 0.22791 0.0
C14 C 0.9097 0.49869 0.24159 0.0
C15 C 0.94077 0.48347 0.24084 0.0
C16 C 0.92884 0.44301 0.22486 0.0
C17 C 0.88593 0.41799 0.21044 0.0
C18 C 0.9216 0.54241 0.25734 0.0
C19 C 0.96109 0.42577 0.22365 0.0
C20 C 0.87297 0.42112 0.44144 0.0
C21 C 0.88955 0.46648 0.44279 0.0
C22 C 0.93063 0.49569 0.4289 0.0
C23 C 0.95624 0.47892 0.41443 0.0
C24 C 0.94106 0.4332 0.41544 0.0
C25 C 0.89909 0.40465 0.42846 0.0
C26 C 0.94564 0.54415 0.42844 0.0
C27 C 0.96827 0.41424 0.40163 0.0
C28 C 0.30674 0.73642 0.47808 0.0
C29 C 0.26341 0.69176 0.47788 0.0
C30 C 0.19304 0.66312 0.44591 0.0
C31 C 0.1638 0.6748 0.43144 0.0
C32 C 0.12449 0.64338 0.41511 0.0
C33 C 0.11486 0.59919 0.4124 0.0
C34 C 0.14411 0.58693 0.4272 0.0
C35 C 0.18264 0.61889 0.44418 0.0
C36 C 0.09339 0.65758 0.40071 0.0
C37 C 0.13483 0.54012 0.42485 0.0
C38 C 0.06446 0.56161 0.25697 0.0
C39 C 0.02301 0.53484 0.24124 0.0
C40 C 0.98446 0.50857 0.25865 0.0
C41 C 0.98736 0.50772 0.29265 0.0
C42 C 0.9496 0.48022 0.31074 0.0
C43 C 0.95228 0.48046 0.34419 0.0
C44 C 0.99298 0.50782 0.36098 0.0
C45 C 0.9959 0.50818 0.39508 0.0
C46 C 0.03632 0.53741 0.41109 0.0
C47 C 0.07431 0.5661 0.39387 0.0
C48 C 0.0725 0.56469 0.35968 0.0
C49 C 0.11045 0.5918 0.34153 0.0
C50 C 0.10796 0.59097 0.30793 0.0
C51 C 0.0675 0.5628 0.29114 0.0
C52 C 0.02886 0.5353 0.30897 0.0
C53 C 0.03153 0.53578 0.34323 0.0
C54 C 0.77794 0.31724 0.45174 0.0
C55 C 0.79668 0.36088 0.43422 0.0
O56 O 0.21087 0.66147 0.17571 0.0
O57 O 0.23047 0.69561 0.46122 0.0
O58 O 0.8316 0.3937 0.45273 0.0
O59 O 0.81192 0.4086 0.19975 0.0
H60 H 0.25204 0.63437 0.17871 0.0
H61 H 0.252 0.65876 0.12324 0.0
H62 H 0.276 0.7151 0.13758 0.0
H63 H 0.30753 0.68672 0.1413 0.0
H64 H 0.19745 0.59002 0.20862 0.0
H65 H 0.14802 0.67793 0.18838 0.0
H66 H 0.09708 0.50633 0.24351 0.0
H67 H 0.15538 0.52474 0.23648 0.0
H68 H 0.13911 0.54037 0.2732 0.0
H69 H 0.08748 0.67498 0.21676 0.0
H70 H 0.04326 0.61836 0.21326 0.0
H71 H 0.06802 0.64157 0.25215 0.0
H72 H 0.8068 0.35041 0.1833 0.0
H73 H 0.73407 0.33677 0.20426 0.0
H74 H 0.72972 0.36924 0.17255 0.0
H75 H 0.72952 0.3186 0.16285 0.0
H76 H 0.84231 0.4833 0.22904 0.0
H77 H 0.87733 0.38721 0.19828 0.0
H78 H 0.95573 0.56828 0.25054 0.0
H79 H 0.89731 0.55314 0.25053 0.0
H80 H 0.92155 0.53952 0.28397 0.0
H81 H 0.9458 0.39245 0.21206 0.0
H82 H 0.99101 0.44862 0.20987 0.0
H83 H 0.97277 0.42432 0.24846 0.0
H84 H 0.80842 0.35665 0.41021 0.0
H85 H 0.86921 0.47873 0.45342 0.0
H86 H 0.88643 0.36946 0.42835 0.0
H87 H 0.9514 0.55571 0.40322 0.0
H88 H 0.92072 0.55152 0.43926 0.0
H89 H 0.97793 0.56317 0.4421 0.0
H90 H 0.95701 0.38062 0.41048 0.0
H91 H 0.96456 0.41218 0.37492 0.0
H92 H 0.00442 0.43578 0.40793 0.0
H93 H 0.27119 0.66808 0.46557 0.0
H94 H 0.33429 0.73442 0.49072 0.0
H95 H 0.31696 0.74655 0.45289 0.0
H96 H 0.30188 0.76211 0.49033 0.0
H97 H 0.17184 0.70886 0.43315 0.0
H98 H 0.20435 0.60898 0.4558 0.0
H99 H 0.09553 0.65761 0.37402 0.0
H100 H 0.05811 0.63411 0.40691 0.0
H101 H 0.10203 0.69116 0.40922 0.0
H102 H 0.16285 0.53668 0.43509 0.0
H103 H 0.10393 0.51833 0.43812 0.0
H104 H 0.12891 0.52848 0.39923 0.0
H105 H 0.02062 0.53482 0.21511 0.0
H106 H 0.91738 0.45818 0.29927 0.0
H107 H 0.9218 0.45897 0.35665 0.0
H108 H 0.03799 0.53843 0.43727 0.0
H109 H 0.14254 0.61404 0.35311 0.0
H110 H 0.13814 0.61287 0.29529 0.0
H111 H 0.75089 0.29 0.43691 0.0
H112 H 0.80501 0.30932 0.4559 0.0
H113 H 0.7644 0.31944 0.47546 0.0
C114 C 0.26995 0.73505 0.67753 0.0
C115 C 0.29557 0.75317 0.64643 0.0
C116 C 0.32163 0.82224 0.61779 0.0
C117 C 0.36016 0.82441 0.60469 0.0
C118 C 0.38764 0.85856 0.58414 0.0
C119 C 0.37537 0.89007 0.57554 0.0
C120 C 0.33552 0.8867 0.58759 0.0
C121 C 0.30968 0.85326 0.60899 0.0
C122 C 0.43037 0.86161 0.57237 0.0
C123 C 0.32073 0.91914 0.57876 0.0
C124 C 0.62051 0.22176 0.63819 0.0
C125 C 0.5792 0.18231 0.65194 0.0
C126 C 0.52494 0.12908 0.61198 0.0
C127 C 0.48183 0.11351 0.59913 0.0
C128 C 0.4598 0.07403 0.58094 0.0
C129 C 0.48163 0.04953 0.57553 0.0
C130 C 0.52576 0.06559 0.58774 0.0
C131 C 0.54725 0.10551 0.60555 0.0
C132 C 0.41324 0.05856 0.56745 0.0
C133 C 0.55026 0.04069 0.58166 0.0
C134 C 0.54537 0.13473 0.3926 0.0
C135 C 0.49897 0.11761 0.39507 0.0
C136 C 0.4701 0.07252 0.39975 0.0
C137 C 0.48817 0.04427 0.40241 0.0
C138 C 0.53397 0.06054 0.39588 0.0
C139 C 0.56205 0.10576 0.39078 0.0
C140 C 0.42106 0.05596 0.40524 0.0
C141 C 0.55407 0.03108 0.3976 0.0
C142 C 0.2719 0.68268 0.34318 0.0
C143 C 0.3118 0.72952 0.34152 0.0
C144 C 0.32887 0.79883 0.36982 0.0
C145 C 0.30978 0.82283 0.38205 0.0
C146 C 0.3363 0.86455 0.39675 0.0
C147 C 0.38317 0.88207 0.40029 0.0
C148 C 0.403 0.85855 0.38717 0.0
C149 C 0.37574 0.81742 0.37165 0.0
C150 C 0.31395 0.88931 0.40915 0.0
C151 C 0.45291 0.87642 0.3902 0.0
C152 C 0.40579 0.92866 0.55628 0.0
C153 C 0.43133 0.96891 0.57293 0.0
C154 C 0.45841 0.00753 0.55655 0.0
C155 C 0.46095 0.00617 0.52263 0.0
C156 C 0.48804 0.04452 0.50557 0.0
C157 C 0.48926 0.04328 0.47216 0.0
C158 C 0.46319 0.00364 0.45435 0.0
C159 C 0.46284 0.00266 0.42019 0.0
C160 C 0.43688 0.96274 0.40318 0.0
C161 C 0.41088 0.92346 0.41954 0.0
C162 C 0.41043 0.92404 0.45376 0.0
C163 C 0.38424 0.88544 0.47108 0.0
C164 C 0.38235 0.88682 0.50461 0.0
C165 C 0.40771 0.92659 0.52224 0.0
C166 C 0.43534 0.96561 0.50537 0.0
C167 C 0.4365 0.96436 0.47113 0.0
C168 C 0.56904 0.19573 0.45029 0.0
C169 C 0.57086 0.20854 0.41475 0.0
O170 O 0.29542 0.79147 0.63927 0.0
O171 O 0.30068 0.75805 0.35681 0.0
O172 O 0.575 0.17879 0.39457 0.0
O173 O 0.54367 0.16712 0.62991 0.0
H174 H 0.33022 0.75967 0.65114 0.0
H175 H 0.28679 0.75945 0.69767 0.0
H176 H 0.23491 0.72831 0.67482 0.0
H177 H 0.26933 0.7041 0.68394 0.0
H178 H 0.36977 0.80044 0.61095 0.0
H179 H 0.2798 0.85117 0.61904 0.0
H180 H 0.45922 0.89522 0.57728 0.0
H181 H 0.43749 0.83734 0.58397 0.0
H182 H 0.42772 0.85548 0.54588 0.0
H183 H 0.2846 0.90603 0.58343 0.0
H184 H 0.34035 0.94972 0.59363 0.0
H185 H 0.32685 0.92786 0.55295 0.0
H186 H 0.58808 0.15674 0.65765 0.0
H187 H 0.64966 0.2338 0.65526 0.0
H188 H 0.6294 0.21184 0.61511 0.0
H189 H 0.61371 0.24901 0.6335 0.0
H190 H 0.46525 0.13232 0.60371 0.0
H191 H 0.58148 0.11819 0.61392 0.0
H192 H 0.38946 0.02595 0.57729 0.0
H193 H 0.40125 0.08187 0.57334 0.0
H194 H 0.41277 0.05445 0.5408 0.0
H195 H 0.58418 0.05708 0.59331 0.0
H196 H 0.53052 0.00681 0.59093 0.0
H197 H 0.5537 0.03768 0.55527 0.0
H198 H 0.53976 0.20924 0.40855 0.0
H199 H 0.48547 0.1396 0.39503 0.0
H200 H 0.59777 0.11912 0.38807 0.0
H201 H 0.41482 0.05249 0.43154 0.0
H202 H 0.4105 0.07898 0.39588 0.0
H203 H 0.40001 0.02305 0.39344 0.0
H204 H 0.58806 0.04671 0.38722 0.0
H205 H 0.55669 0.02367 0.42323 0.0
H206 H 0.53207 0.99933 0.38455 0.0
H207 H 0.34055 0.72967 0.35413 0.0
H208 H 0.27991 0.65883 0.33145 0.0
H209 H 0.26398 0.67355 0.36881 0.0
H210 H 0.24174 0.68018 0.331 0.0
H211 H 0.2737 0.80857 0.38016 0.0
H212 H 0.39135 0.79993 0.36159 0.0
H213 H 0.31167 0.88693 0.4358 0.0
H214 H 0.33396 0.92475 0.40334 0.0
H215 H 0.27949 0.8757 0.39882 0.0
H216 H 0.46287 0.85299 0.3804 0.0
H217 H 0.47089 0.90765 0.37696 0.0
H218 H 0.46395 0.88396 0.41594 0.0
H219 H 0.42921 0.97041 0.59899 0.0
H220 H 0.50849 0.07607 0.51783 0.0
H221 H 0.51081 0.07407 0.46058 0.0
H222 H 0.43646 0.96233 0.377 0.0
H223 H 0.36433 0.85373 0.45892 0.0
H224 H 0.3608 0.85628 0.51653 0.0
H225 H 0.5662 0.21975 0.46644 0.0
H226 H 0.53932 0.16288 0.45426 0.0
H227 H 0.59971 0.19462 0.45724 0.0
C228 C 0.5922 0.35456 0.79599 0.0
C229 C 0.57103 0.33922 0.76217 0.0
C230 C 0.52592 0.37233 0.74584 0.0
C231 C 0.56156 0.41518 0.7409 0.0
C232 C 0.55398 0.44643 0.72571 0.0
C233 C 0.50997 0.43455 0.71541 0.0
C234 C 0.47395 0.39177 0.72102 0.0
C235 C 0.48245 0.3613 0.73638 0.0
C236 C 0.59291 0.49211 0.72056 0.0
C237 C 0.42657 0.37822 0.71057 0.0
C238 C 0.48835 0.71156 0.80631 0.0
C239 C 0.48433 0.66638 0.80996 0.0
C240 C 0.46195 0.6113 0.76615 0.0
C241 C 0.42564 0.56996 0.75756 0.0
C242 C 0.43114 0.54073 0.73725 0.0
C243 C 0.47397 0.55365 0.725 0.0
C244 C 0.51064 0.59596 0.73291 0.0
C245 C 0.50415 0.62455 0.75317 0.0
C246 C 0.39128 0.49613 0.72881 0.0
C247 C 0.55665 0.61103 0.7198 0.0
C248 C 0.42889 0.61757 0.5406 0.0
C249 C 0.40041 0.57206 0.54218 0.0
C250 C 0.41795 0.54415 0.54722 0.0
C251 C 0.46489 0.56258 0.55134 0.0
C252 C 0.49384 0.60812 0.54663 0.0
C253 C 0.47533 0.6352 0.54112 0.0
C254 C 0.38617 0.49555 0.55112 0.0
C255 C 0.544 0.62871 0.55044 0.0
C256 C 0.66167 0.41195 0.53116 0.0
C257 C 0.65698 0.43475 0.50135 0.0
C258 C 0.59041 0.4413 0.51212 0.0
C259 C 0.54401 0.42132 0.50704 0.0
C260 C 0.51878 0.43688 0.5231 0.0
C261 C 0.54084 0.47403 0.54423 0.0
C262 C 0.58805 0.49557 0.54846 0.0
C263 C 0.61217 0.47855 0.53291 0.0
C264 C 0.46854 0.41302 0.51813 0.0
C265 C 0.61318 0.53628 0.56995 0.0
C266 C 0.50138 0.46677 0.69881 0.0
C267 C 0.4907 0.49341 0.7177 0.0
C268 C 0.48064 0.52338 0.70351 0.0
C269 C 0.47972 0.52598 0.66956 0.0
C270 C 0.46721 0.55395 0.65451 0.0
C271 C 0.46724 0.55689 0.62112 0.0
C272 C 0.48092 0.53282 0.60148 0.0
C273 C 0.48226 0.53651 0.5675 0.0
C274 C 0.50015 0.51556 0.54901 0.0
C275 C 0.51496 0.4892 0.56361 0.0
C276 C 0.50953 0.48161 0.59713 0.0
C277 C 0.5202 0.45217 0.6121 0.0
C278 C 0.51666 0.44648 0.64532 0.0
C279 C 0.50342 0.47087 0.6649 0.0
C280 C 0.49211 0.50033 0.65024 0.0
C281 C 0.4939 0.50469 0.61623 0.0
C282 C 0.43534 0.69413 0.58805 0.0
C283 C 0.39714 0.65281 0.57141 0.0
O284 O 0.53174 0.34082 0.75995 0.0
O285 O 0.61251 0.42344 0.49673 0.0
O286 O 0.41182 0.64484 0.54246 0.0
O287 O 0.45474 0.63783 0.78634 0.0
H288 H 0.59568 0.36059 0.74414 0.0
H289 H 0.59864 0.3884 0.80124 0.0
H290 H 0.56937 0.33227 0.81449 0.0
H291 H 0.62472 0.35518 0.79772 0.0
H292 H 0.59518 0.4246 0.74911 0.0
H293 H 0.45515 0.32832 0.74066 0.0
H294 H 0.58643 0.51689 0.73246 0.0
H295 H 0.62509 0.49637 0.73028 0.0
H296 H 0.59634 0.49892 0.69436 0.0
H297 H 0.40229 0.34359 0.71658 0.0
H298 H 0.41621 0.40018 0.72248 0.0
H299 H 0.425 0.38194 0.6841 0.0
H300 H 0.51837 0.67066 0.80792 0.0
H301 H 0.51347 0.73579 0.82396 0.0
H302 H 0.49967 0.72368 0.78166 0.0
H303 H 0.45542 0.70938 0.81005 0.0
H304 H 0.39304 0.56039 0.76727 0.0
H305 H 0.53192 0.65737 0.75833 0.0
H306 H 0.38644 0.49193 0.70217 0.0
H307 H 0.39766 0.46993 0.7375 0.0
H308 H 0.3599 0.49151 0.73959 0.0
H309 H 0.58218 0.64399 0.72962 0.0
H310 H 0.56748 0.58694 0.72573 0.0
H311 H 0.55539 0.61256 0.69309 0.0
H312 H 0.38679 0.62466 0.58795 0.0
H313 H 0.36444 0.55884 0.54139 0.0
H314 H 0.49694 0.67055 0.53962 0.0
H315 H 0.38332 0.48793 0.57718 0.0
H316 H 0.35213 0.48522 0.54116 0.0
H317 H 0.39917 0.47594 0.53893 0.0
H318 H 0.56202 0.66355 0.54285 0.0
H319 H 0.55286 0.62762 0.57614 0.0
H320 H 0.55576 0.60971 0.53597 0.0
H321 H 0.67897 0.47097 0.5045 0.0
H322 H 0.6397 0.37562 0.52864 0.0
H323 H 0.69702 0.41993 0.53459 0.0
H324 H 0.65196 0.4235 0.55306 0.0
H325 H 0.5274 0.39272 0.49092 0.0
H326 H 0.64792 0.49469 0.53747 0.0
H327 H 0.45195 0.40319 0.54178 0.0
H328 H 0.45845 0.43547 0.50705 0.0
H329 H 0.45617 0.38316 0.5023 0.0
H330 H 0.64976 0.55408 0.56547 0.0
H331 H 0.60024 0.55924 0.56622 0.0
H332 H 0.6083 0.5266 0.5956 0.0
H333 H 0.49063 0.49109 0.74379 0.0
H334 H 0.457 0.57372 0.66838 0.0
H335 H 0.45723 0.57902 0.61102 0.0
H336 H 0.50349 0.52059 0.5232 0.0
H337 H 0.53121 0.43304 0.59826 0.0
H338 H 0.52529 0.42339 0.65553 0.0
H339 H 0.44788 0.72285 0.572 0.0
H340 H 0.4237 0.70185 0.61082 0.0
H341 H 0.46355 0.68855 0.59418 0.0
C342 C 0.30437 0.57636 0.96082 0.0
C343 C 0.31197 0.58233 0.92452 0.0
C344 C 0.23878 0.53332 0.89755 0.0
C345 C 0.22023 0.56066 0.9023 0.0
C346 C 0.17623 0.54706 0.89178 0.0
C347 C 0.14974 0.50478 0.87715 0.0
C348 C 0.16841 0.47731 0.87219 0.0
C349 C 0.21291 0.49229 0.8821 0.0
C350 C 0.15774 0.5775 0.89739 0.0
C351 C 0.14097 0.43154 0.85746 0.0
C352 C 0.93098 0.36724 0.04417 0.0
C353 C 0.90514 0.38495 0.02517 0.0
C354 C 0.95401 0.42864 0.981 0.0
C355 C 0.95386 0.39397 0.96344 0.0
C356 C 0.97711 0.402 0.93439 0.0
C357 C 0.99956 0.44518 0.92225 0.0
C358 C 0.99812 0.47966 0.93931 0.0
C359 C 0.97595 0.47099 0.96869 0.0
C360 C 0.97844 0.36459 0.91699 0.0
C361 C 0.02069 0.52594 0.92684 0.0
C362 C 0.80816 0.35364 0.7585 0.0
C363 C 0.8333 0.33219 0.76069 0.0
C364 C 0.8803 0.35634 0.76144 0.0
C365 C 0.9026 0.40285 0.76044 0.0
C366 C 0.87748 0.42441 0.75685 0.0
C367 C 0.83049 0.39937 0.75566 0.0
C368 C 0.90614 0.33223 0.76449 0.0
C369 C 0.90022 0.47392 0.75541 0.0
C370 C 0.11219 0.50259 0.58234 0.0
C371 C 0.14087 0.53676 0.60853 0.0
C372 C 0.0962 0.52682 0.6572 0.0
C373 C 0.09122 0.48648 0.66707 0.0
C374 C 0.06981 0.46772 0.69609 0.0
C375 C 0.05373 0.49005 0.71567 0.0
C376 C 0.06004 0.53129 0.70613 0.0
C377 C 0.08074 0.54881 0.67687 0.0
C378 C 0.06318 0.4235 0.70543 0.0
C379 C 0.04379 0.55637 0.72645 0.0
C380 C 0.10129 0.48738 0.87041 0.0
C381 C 0.07289 0.47334 0.89676 0.0
C382 C 0.02665 0.45524 0.8927 0.0
C383 C 0.00771 0.44923 0.86131 0.0
C384 C 0.96117 0.42962 0.85625 0.0
C385 C 0.94276 0.42275 0.82522 0.0
C386 C 0.97029 0.43631 0.79809 0.0
C387 C 0.95175 0.42883 0.76647 0.0
C388 C 0.97991 0.44539 0.74016 0.0
C389 C 0.02659 0.4689 0.74447 0.0
C390 C 0.04584 0.47428 0.77581 0.0
C391 C 0.09257 0.49579 0.78104 0.0
C392 C 0.11093 0.50008 0.812 0.0
C393 C 0.08325 0.48381 0.83891 0.0
C394 C 0.03616 0.46361 0.83432 0.0
C395 C 0.01744 0.45799 0.8027 0.0
C396 C 0.73768 0.28347 0.80458 0.0
C397 C 0.7345 0.28857 0.76805 0.0
O398 O 0.28088 0.54448 0.90778 0.0
O399 O 0.11392 0.54513 0.62852 0.0
O400 O 0.76265 0.33192 0.75968 0.0
O401 O 0.9349 0.42352 0.01025 0.0
H402 H 0.30981 0.61153 0.91713 0.0
H403 H 0.27023 0.57002 0.96639 0.0
H404 H 0.30758 0.54804 0.96905 0.0
H405 H 0.32913 0.60664 0.97441 0.0
H406 H 0.2393 0.59233 0.91455 0.0
H407 H 0.22747 0.47143 0.87856 0.0
H408 H 0.13746 0.56751 0.91949 0.0
H409 H 0.18492 0.61229 0.90095 0.0
H410 H 0.1357 0.57551 0.87687 0.0
H411 H 0.15936 0.41305 0.85779 0.0
H412 H 0.1093 0.4126 0.87069 0.0
H413 H 0.13187 0.43369 0.83204 0.0
H414 H 0.88192 0.35967 0.00713 0.0
H415 H 0.90723 0.33701 0.05698 0.0
H416 H 0.95072 0.35864 0.02772 0.0
H417 H 0.95453 0.39228 0.06215 0.0
H418 H 0.93669 0.36092 0.97256 0.0
H419 H 0.97569 0.49745 0.98235 0.0
H420 H 0.96184 0.35881 0.89286 0.0
H421 H 0.01379 0.3734 0.91317 0.0
H422 H 0.96145 0.33348 0.9305 0.0
H423 H 0.01123 0.54743 0.94053 0.0
H424 H 0.05759 0.54056 0.92894 0.0
H425 H 0.01184 0.52554 0.90092 0.0
H426 H 0.74332 0.26624 0.75488 0.0
H427 H 0.81672 0.29677 0.7624 0.0
H428 H 0.81084 0.41558 0.75359 0.0
H429 H 0.921 0.33769 0.78923 0.0
H430 H 0.88447 0.29619 0.75999 0.0
H431 H 0.93409 0.34521 0.74725 0.0
H432 H 0.8758 0.48574 0.75365 0.0
H433 H 0.92193 0.48919 0.77727 0.0
H434 H 0.92209 0.48532 0.73412 0.0
H435 H 0.16006 0.52467 0.62268 0.0
H436 H 0.13381 0.49625 0.56605 0.0
H437 H 0.08806 0.47108 0.5935 0.0
H438 H 0.09297 0.51427 0.56785 0.0
H439 H 0.10267 0.46892 0.65187 0.0
H440 H 0.08473 0.57989 0.66902 0.0
H441 H 0.07804 0.42606 0.72986 0.0
H442 H 0.02676 0.39932 0.70655 0.0
H443 H 0.07861 0.41078 0.68812 0.0
H444 H 0.05529 0.58992 0.71736 0.0
H445 H 0.00658 0.53802 0.72642 0.0
H446 H 0.05585 0.55929 0.75184 0.0
H447 H 0.08709 0.47699 0.92092 0.0
H448 H 0.93837 0.41873 0.8762 0.0
H449 H 0.90662 0.40695 0.82284 0.0
H450 H 0.96529 0.44055 0.71604 0.0
H451 H 0.11537 0.50894 0.76118 0.0
H452 H 0.14709 0.51647 0.81465 0.0
H453 H 0.7269 0.30407 0.81807 0.0
H454 H 0.71623 0.24849 0.81122 0.0
H455 H 0.77267 0.2939 0.81216 0.0
C456 C 0.4378 0.73267 0.8849 0.0
C457 C 0.45134 0.76136 0.91557 0.0
C458 C 0.47448 0.8387 0.92337 0.0
C459 C 0.43536 0.83883 0.93198 0.0
C460 C 0.43793 0.87633 0.94685 0.0
C461 C 0.48051 0.91378 0.95359 0.0
C462 C 0.51993 0.91266 0.94619 0.0
C463 C 0.51631 0.87538 0.93053 0.0
C464 C 0.39537 0.87686 0.95385 0.0
C465 C 0.56597 0.9517 0.95329 0.0
C466 C 0.46836 0.07022 0.79095 0.0
C467 C 0.48834 0.11548 0.80801 0.0
C468 C 0.51541 0.10114 0.85916 0.0
C469 C 0.55324 0.10466 0.87481 0.0
C470 C 0.54957 0.08239 0.90344 0.0
C471 C 0.50688 0.05656 0.91697 0.0
C472 C 0.46866 0.05441 0.90207 0.0
C473 C 0.47324 0.07663 0.87325 0.0
C474 C 0.59104 0.08526 0.91858 0.0
C475 C 0.42274 0.02761 0.91616 0.0
C476 C 0.59987 0.23213 0.08017 0.0
C477 C 0.62462 0.21062 0.07638 0.0
C478 C 0.60352 0.16459 0.07741 0.0
C479 C 0.55668 0.13968 0.08204 0.0
C480 C 0.53244 0.16155 0.08858 0.0
C481 C 0.5546 0.20776 0.08791 0.0
C482 C 0.63082 0.14247 0.07158 0.0
C483 C 0.48266 0.13602 0.09409 0.0
C484 C 0.47077 0.9048 0.24295 0.0
C485 C 0.44286 0.87642 0.21388 0.0
C486 C 0.44627 0.9271 0.17175 0.0
C487 C 0.49121 0.9434 0.16327 0.0
C488 C 0.5099 0.97287 0.13779 0.0
C489 C 0.4831 0.98603 0.12044 0.0
C490 C 0.43802 0.96985 0.12912 0.0
C491 C 0.42035 0.94076 0.15472 0.0
C492 C 0.55817 0.9899 0.12928 0.0
C493 C 0.40842 0.98325 0.11127 0.0
C494 C 0.48449 0.95643 0.96322 0.0
C495 C 0.49018 0.98512 0.93839 0.0
C496 C 0.50143 0.02858 0.94495 0.0
C497 C 0.50799 0.04439 0.97723 0.0
C498 C 0.52202 0.08867 0.98464 0.0
C499 C 0.53032 0.10429 0.01645 0.0
C500 C 0.52329 0.07584 0.04213 0.0
C501 C 0.53256 0.09164 0.07451 0.0
C502 C 0.52068 0.06188 0.09963 0.0
C503 C 0.50157 0.0166 0.09311 0.0
C504 C 0.49695 0.00094 0.06079 0.0
C505 C 0.48261 0.95649 0.05332 0.0
C506 C 0.47923 0.94185 0.02137 0.0
C507 C 0.4878 0.97063 0.99574 0.0
C508 C 0.50061 0.01512 0.00273 0.0
C509 C 0.50689 0.03062 0.03525 0.0
C510 C 0.63111 0.32419 0.03218 0.0
C511 C 0.64864 0.29907 0.05164 0.0
O512 O 0.47294 0.80478 0.90631 0.0
O513 O 0.42642 0.89873 0.19621 0.0
O514 O 0.61841 0.27602 0.07552 0.0
O515 O 0.5212 0.12117 0.83037 0.0
H516 H 0.42029 0.75298 0.92881 0.0
H517 H 0.41527 0.73945 0.86968 0.0
H518 H 0.46798 0.74055 0.87083 0.0
H519 H 0.41931 0.69734 0.89059 0.0
H520 H 0.40297 0.81053 0.92572 0.0
H521 H 0.54621 0.87477 0.92357 0.0
H522 H 0.39322 0.90138 0.93842 0.0
H523 H 0.36496 0.84416 0.94927 0.0
H524 H 0.39586 0.88716 0.97938 0.0
H525 H 0.59272 0.943 0.95108 0.0
H526 H 0.57265 0.978 0.93596 0.0
H527 H 0.5678 0.96527 0.978 0.0
H528 H 0.46109 0.1184 0.81976 0.0
H529 H 0.495 0.06686 0.77862 0.0
H530 H 0.45232 0.04349 0.80859 0.0
H531 H 0.44228 0.06573 0.77281 0.0
H532 H 0.58566 0.12392 0.86389 0.0
H533 H 0.44364 0.07406 0.86178 0.0
H534 H 0.59525 0.09743 0.94398 0.0
H535 H 0.58727 0.05195 0.91891 0.0
H536 H 0.62187 0.10748 0.90537 0.0
H537 H 0.39718 0.03291 0.90366 0.0
H538 H 0.41205 0.99207 0.91415 0.0
H539 H 0.42392 0.03615 0.94221 0.0
H540 H 0.65198 0.27629 0.03434 0.0
H541 H 0.66017 0.2297 0.07178 0.0
H542 H 0.53606 0.22487 0.09151 0.0
H543 H 0.62395 0.12831 0.04663 0.0
H544 H 0.6674 0.16595 0.07443 0.0
H545 H 0.62123 0.11504 0.08849 0.0
H546 H 0.46905 0.15788 0.10041 0.0
H547 H 0.46496 0.11652 0.07191 0.0
H548 H 0.47535 0.11246 0.11382 0.0
H549 H 0.46372 0.86775 0.19854 0.0
H550 H 0.48394 0.88698 0.25722 0.0
H551 H 0.49972 0.93593 0.23475 0.0
H552 H 0.45011 0.91314 0.25875 0.0
H553 H 0.51197 0.93364 0.17647 0.0
H554 H 0.38584 0.92823 0.16152 0.0
H555 H 0.55993 0.98041 0.10389 0.0
H556 H 0.57701 0.02645 0.13112 0.0
H557 H 0.57483 0.97696 0.14525 0.0
H558 H 0.37411 0.96785 0.12109 0.0
H559 H 0.42363 0.01961 0.11278 0.0
H560 H 0.4058 0.97362 0.08534 0.0
H561 H 0.48713 0.97378 0.91346 0.0
H562 H 0.52765 0.11193 0.96588 0.0
H563 H 0.54184 0.13891 0.02062 0.0
H564 H 0.52591 0.07399 0.12445 0.0
H565 H 0.47495 0.93282 0.07213 0.0
H566 H 0.46908 0.90758 0.01691 0.0
H567 H 0.62629 0.34717 0.04809 0.0
H568 H 0.65495 0.34323 0.01301 0.0
H569 H 0.59832 0.30056 0.02048 0.0
C570 C 0.83844 0.54357 0.02673 0.0
C571 C 0.80131 0.51131 0.04847 0.0
C572 C 0.75612 0.52716 0.08554 0.0
C573 C 0.71657 0.48595 0.08256 0.0
C574 C 0.6757 0.48038 0.09358 0.0
C575 C 0.67447 0.51665 0.10775 0.0
C576 C 0.71474 0.55742 0.11245 0.0
C577 C 0.75512 0.56192 0.10153 0.0
C578 C 0.63365 0.43613 0.08927 0.0
C579 C 0.71492 0.5968 0.12784 0.0
C580 C 0.56038 0.58981 0.93854 0.0
C581 C 0.52768 0.59704 0.95887 0.0
C582 C 0.52186 0.55641 0.00804 0.0
C583 C 0.56221 0.58903 0.02285 0.0
C584 C 0.57816 0.581 0.05173 0.0
C585 C 0.55408 0.5391 0.06569 0.0
C586 C 0.51331 0.50629 0.05108 0.0
C587 C 0.49744 0.5157 0.02267 0.0
C588 C 0.62139 0.61715 0.06691 0.0
C589 C 0.48713 0.46097 0.06497 0.0
C590 C 0.44419 0.59734 0.23726 0.0
C591 C 0.49137 0.62087 0.23845 0.0
C592 C 0.51593 0.59909 0.23511 0.0
C593 C 0.49301 0.55275 0.23064 0.0
C594 C 0.44563 0.52865 0.23131 0.0
C595 C 0.42182 0.55133 0.23474 0.0
C596 C 0.56652 0.62587 0.23514 0.0
C597 C 0.42024 0.47921 0.227 0.0
C598 C 0.66803 0.39404 0.30407 0.0
C599 C 0.64496 0.40225 0.33248 0.0
C600 C 0.62494 0.45549 0.31079 0.0
C601 C 0.6388 0.5003 0.30967 0.0
C602 C 0.6184 0.51591 0.28822 0.0
C603 C 0.58263 0.48564 0.26777 0.0
C604 C 0.56652 0.43992 0.27022 0.0
C605 C 0.58812 0.4253 0.29144 0.0
C606 C 0.63636 0.56484 0.28638 0.0
C607 C 0.52771 0.40659 0.24933 0.0
C608 C 0.63098 0.51395 0.11444 0.0
C609 C 0.60935 0.52172 0.08885 0.0
C610 C 0.57344 0.52876 0.0941 0.0
C611 C 0.55881 0.5285 0.12585 0.0
C612 C 0.52584 0.53974 0.1325 0.0
C613 C 0.51275 0.54058 0.16402 0.0
C614 C 0.5312 0.52897 0.18998 0.0
C615 C 0.5189 0.53065 0.22221 0.0
C616 C 0.53545 0.51579 0.24712 0.0
C617 C 0.5663 0.50181 0.24087 0.0
C618 C 0.58218 0.50402 0.20925 0.0
C619 C 0.61668 0.49473 0.2027 0.0
C620 C 0.63284 0.49807 0.17168 0.0
C621 C 0.61423 0.50952 0.14589 0.0
C622 C 0.57854 0.51767 0.15172 0.0
C623 C 0.56364 0.51647 0.18363 0.0
C624 C 0.44734 0.67088 0.19545 0.0
C625 C 0.43442 0.66164 0.23099 0.0
O626 O 0.79569 0.53503 0.07312 0.0
O627 O 0.64861 0.44333 0.3304 0.0
O628 O 0.41927 0.6177 0.2375 0.0
O629 O 0.50556 0.56244 0.97965 0.0
H630 H 0.77034 0.49333 0.03306 0.0
H631 H 0.82837 0.56613 0.01579 0.0
H632 H 0.87028 0.56371 0.04077 0.0
H633 H 0.84424 0.52543 0.00692 0.0
H634 H 0.71727 0.4582 0.07144 0.0
H635 H 0.78597 0.59328 0.10426 0.0
H636 H 0.61279 0.43764 0.06924 0.0
H637 H 0.64129 0.4096 0.08353 0.0
H638 H 0.61356 0.42756 0.11149 0.0
H639 H 0.74898 0.6264 0.12906 0.0
H640 H 0.69228 0.60482 0.11395 0.0
H641 H 0.70208 0.58893 0.15271 0.0
H642 H 0.54637 0.62894 0.97245 0.0
H643 H 0.57728 0.61678 0.92112 0.0
H644 H 0.58659 0.58974 0.95437 0.0
H645 H 0.54248 0.55776 0.92503 0.0
H646 H 0.58191 0.62082 0.01216 0.0
H647 H 0.46635 0.49076 0.01119 0.0
H648 H 0.61843 0.61877 0.09349 0.0
H649 H 0.64874 0.60999 0.0621 0.0
H650 H 0.63108 0.64991 0.057 0.0
H651 H 0.45791 0.43816 0.04933 0.0
H652 H 0.50923 0.44665 0.06828 0.0
H653 H 0.47475 0.46338 0.08907 0.0
H654 H 0.46375 0.68335 0.24695 0.0
H655 H 0.50942 0.65635 0.24126 0.0
H656 H 0.38547 0.53326 0.23428 0.0
H657 H 0.57859 0.62362 0.21086 0.0
H658 H 0.57942 0.66116 0.24142 0.0
H659 H 0.58093 0.6124 0.25265 0.0
H660 H 0.38362 0.46495 0.23021 0.0
H661 H 0.42585 0.4701 0.20244 0.0
H662 H 0.43307 0.46436 0.24462 0.0
H663 H 0.60912 0.37595 0.33284 0.0
H664 H 0.66591 0.36151 0.30619 0.0
H665 H 0.65136 0.39394 0.28094 0.0
H666 H 0.70389 0.4202 0.3034 0.0
H667 H 0.66689 0.52329 0.32495 0.0
H668 H 0.57646 0.39043 0.29219 0.0
H669 H 0.64725 0.5759 0.26147 0.0
H670 H 0.60937 0.5722 0.29209 0.0
H671 H 0.66516 0.58412 0.30339 0.0
H672 H 0.51392 0.37257 0.25818 0.0
H673 H 0.50045 0.41473 0.24843 0.0
H674 H 0.53923 0.40744 0.22432 0.0
H675 H 0.622 0.52438 0.06464 0.0
H676 H 0.51037 0.54876 0.11346 0.0
H677 H 0.48765 0.55005 0.16775 0.0
H678 H 0.52521 0.51626 0.2717 0.0
H679 H 0.6323 0.48565 0.22158 0.0
H680 H 0.65982 0.49118 0.16805 0.0
H681 H 0.41831 0.64904 0.17929 0.0
H682 H 0.45842 0.70577 0.19009 0.0
H683 H 0.47545 0.66517 0.18991 0.0
Zn684 Zn 0.72913 0.43412 0.4174 0.0
Zn685 Zn 0.66217 0.34902 0.42422 0.0
O686 O 0.71999 0.34571 0.42899 0.0
O687 O 0.77458 0.41401 0.42283 0.0
O688 O 0.61243 0.28605 0.42794 0.0
O689 O 0.70607 0.44995 0.4572 0.0
O690 O 0.65207 0.38096 0.46218 0.0
C691 C 0.76174 0.37409 0.42853 0.0
C692 C 0.66667 0.40085 0.3637 0.0
O693 O 0.64845 0.36612 0.38028 0.0
O694 O 0.70264 0.43453 0.37357 0.0
C695 C 0.60954 0.25449 0.41054 0.0
O696 O 0.63997 0.26248 0.38881 0.0
C697 C 0.6724 0.42108 0.47196 0.0
Zn698 Zn 0.20416 0.66806 0.57144 0.0
Zn699 Zn 0.26996 0.6468 0.5763 0.0
O700 O 0.28986 0.69693 0.60967 0.0
O701 O 0.23672 0.71446 0.60685 0.0
O702 O 0.32081 0.63425 0.57921 0.0
O703 O 0.16042 0.60579 0.58506 0.0
O704 O 0.2147 0.59019 0.5911 0.0
C705 C 0.27298 0.71994 0.61936 0.0
C706 C 0.24972 0.67829 0.51208 0.0
O707 O 0.27064 0.66393 0.52892 0.0
O708 O 0.21927 0.68355 0.5245 0.0
C709 C 0.35755 0.65876 0.5653 0.0
O710 O 0.3618 0.69163 0.54796 0.0
C711 C 0.17365 0.57949 0.59351 0.0
Zn712 Zn 0.50925 0.20331 0.72989 0.0
Zn713 Zn 0.59269 0.22563 0.75376 0.0
O714 O 0.59048 0.2823 0.76013 0.0
O715 O 0.52344 0.26552 0.74149 0.0
O716 O 0.65416 0.24261 0.77037 0.0
O717 O 0.48302 0.15606 0.7639 0.0
O718 O 0.55096 0.17516 0.78219 0.0
C719 C 0.56088 0.29305 0.75453 0.0
C720 C 0.56653 0.19463 0.68333 0.0
O721 O 0.59416 0.20749 0.70715 0.0
O722 O 0.52789 0.19012 0.68649 0.0
C723 C 0.68736 0.27496 0.75751 0.0
O724 O 0.68014 0.29505 0.73364 0.0
C725 C 0.50852 0.15091 0.78346 0.0
Zn726 Zn 0.4258 0.57622 0.88866 0.0
Zn727 Zn 0.45861 0.66074 0.91446 0.0
O728 O 0.39143 0.63031 0.92274 0.0
O729 O 0.36411 0.56257 0.90317 0.0
O730 O 0.48521 0.7199 0.93781 0.0
O731 O 0.46805 0.56795 0.9188 0.0
O732 O 0.49264 0.6355 0.93762 0.0
C733 C 0.35838 0.59189 0.91688 0.0
C734 C 0.4675 0.64731 0.84253 0.0
O735 O 0.47509 0.67254 0.86708 0.0
O736 O 0.44815 0.60588 0.84555 0.0
C737 C 0.48262 0.75486 0.93775 0.0
O738 O 0.50598 0.78542 0.95989 0.0
C739 C 0.49392 0.59992 0.93745 0.0
Zn740 Zn 0.86718 0.45074 0.09628 0.0
Zn741 Zn 0.78899 0.38303 0.07082 0.0
O742 O 0.7878 0.43842 0.05786 0.0
O743 O 0.84983 0.49404 0.07897 0.0
O744 O 0.7291 0.3352 0.05351 0.0
O745 O 0.89929 0.42895 0.06719 0.0
O746 O 0.83581 0.37455 0.04656 0.0
C747 C 0.81366 0.47961 0.06262 0.0
C748 C 0.81022 0.39123 0.14399 0.0
O749 O 0.78525 0.37145 0.11935 0.0
O750 O 0.84765 0.426 0.14069 0.0
C751 C 0.69374 0.33044 0.0665 0.0
O752 O 0.69714 0.35666 0.0907 0.0
C753 C 0.87854 0.39604 0.04798 0.0
Zn754 Zn 0.31415 0.77445 0.24486 0.0
Zn755 Zn 0.36768 0.7373 0.24453 0.0
O756 O 0.31717 0.6983 0.21201 0.0
O757 O 0.27443 0.72862 0.21086 0.0
O758 O 0.40983 0.7129 0.24319 0.0
O759 O 0.36696 0.83225 0.23093 0.0
O760 O 0.40857 0.80079 0.2297 0.0
C761 C 0.28266 0.69893 0.20135 0.0
C762 C 0.32249 0.74184 0.30682 0.0
O763 O 0.34769 0.73109 0.29167 0.0
O764 O 0.30366 0.76003 0.2923 0.0
C765 C 0.39847 0.6728 0.2378 0.0
O766 O 0.35604 0.64339 0.2324 0.0
C767 C 0.40392 0.83415 0.22521 0.0
loop_
_geom_bond_atom_site_label_1
_geom_bond_atom_site_label_2
_geom_bond_distance
_geom_bond_site_symmetry_2
_ccdc_geom_bond_type
C0 C1 1.560 . S
C0 H61 0.959 . S
C0 H62 0.959 . S
C0 H63 0.960 . S
C1 C0 1.560 . S
C1 O56 1.426 . S
C1 H60 0.980 . S
C2 C3 1.407 . S
C2 C7 1.418 . S
C2 O56 1.334 . S
C3 C2 1.407 . S
C3 C4 1.360 . S
C3 H64 0.929 . S
C4 C3 1.360 . S
C4 C5 1.401 . S
C4 C8 1.527 . S
C5 C4 1.401 . S
C5 C6 1.405 . S
C5 C38 1.587 . S
C6 C5 1.405 . S
C6 C7 1.332 . S
C6 C9 1.496 . S
C7 C2 1.418 . S
C7 C6 1.332 . S
C7 H65 0.929 . S
C8 C4 1.527 . S
C8 H66 0.959 . S
C8 H67 0.961 . S
C8 H68 0.961 . S
C9 C6 1.496 . S
C9 H69 0.960 . S
C9 H70 0.960 . S
C9 H71 0.961 . S
C10 C11 1.517 . S
C10 H73 0.961 . S
C10 H74 0.960 . S
C10 H75 0.959 . S
C11 C10 1.517 . S
C11 O59 1.468 . S
C11 H72 0.980 . S
C12 C13 1.349 . S
C12 C17 1.367 . S
C12 O59 1.408 . S
C13 C12 1.349 . S
C13 C14 1.407 . S
C13 H76 0.930 . S
C14 C13 1.407 . S
C14 C15 1.449 . S
C14 C18 1.535 . S
C15 C14 1.449 . S
C15 C16 1.384 . S
C15 C40 1.553 1_655 S
C16 C15 1.384 . S
C16 C17 1.364 . S
C16 C19 1.450 . S
C17 C12 1.367 . S
C17 C16 1.364 . S
C17 H77 0.931 . S
C18 C14 1.535 . S
C18 H78 0.959 1_655 S
C18 H79 0.961 . S
C18 H80 0.959 . S
C19 C16 1.450 . S
C19 H81 0.960 . S
C19 H82 0.960 1_655 S
C19 H83 0.960 . S
C20 C21 1.309 . S
C20 C25 1.304 . S
C20 O58 1.435 . S
C21 C20 1.309 . S
C21 C22 1.476 . S
C21 H85 0.930 . S
C22 C21 1.476 . S
C22 C23 1.400 . S
C22 C26 1.567 . S
C23 C22 1.400 . S
C23 C24 1.373 . S
C23 C45 1.432 . S
C24 C23 1.373 . S
C24 C25 1.339 . S
C24 C27 1.530 . S
C25 C20 1.304 . S
C25 C24 1.339 . S
C25 H86 0.930 . S
C26 C22 1.567 . S
C26 H87 0.961 . S
C26 H88 0.960 . S
C26 H89 0.958 . S
C27 C24 1.530 . S
C27 H90 0.961 . S
C27 H91 0.960 . S
C27 H92 0.960 . S
C28 C29 1.530 . S
C28 H94 0.961 . S
C28 H95 0.961 . S
C28 H96 0.959 . S
C29 C28 1.530 . S
C29 O57 1.412 . S
C29 H93 0.980 . S
C30 C31 1.288 . S
C30 C35 1.377 . S
C30 O57 1.393 . S
C31 C30 1.288 . S
C31 C32 1.369 . S
C31 H97 0.932 . S
C32 C31 1.369 . S
C32 C33 1.398 . S
C32 C36 1.527 . S
C33 C32 1.398 . S
C33 C34 1.380 . S
C33 C47 1.497 . S
C34 C33 1.380 . S
C34 C35 1.383 . S
C34 C37 1.603 . S
C35 C30 1.377 . S
C35 C34 1.383 . S
C35 H98 0.929 . S
C36 C32 1.527 . S
C36 H99 0.961 . S
C36 H100 0.959 1_455 S
C36 H101 0.959 . S
C37 C34 1.603 . S
C37 H102 0.960 . S
C37 H103 0.962 . S
C37 H104 0.961 . S
C38 C5 1.587 . S
C38 C39 1.360 . S
C38 C51 1.412 . S
C39 C38 1.360 . S
C39 C40 1.365 . S
C39 H105 0.929 . S
C40 C15 1.553 1_455 S
C40 C39 1.365 . S
C40 C41 1.404 1_455 S
C41 C40 1.404 1_655 S
C41 C42 1.395 . S
C41 C52 1.451 1_655 S
C42 C41 1.395 . S
C42 C43 1.322 . S
C42 H106 0.930 . S
C43 C42 1.322 . S
C43 C44 1.459 . S
C43 H107 0.929 . S
C44 C43 1.459 . S
C44 C45 1.445 . S
C44 C53 1.395 1_655 S
C45 C23 1.432 . S
C45 C44 1.445 . S
C45 C46 1.370 . S
C46 C45 1.370 . S
C46 C47 1.438 1_655 S
C46 H108 0.930 . S
C47 C33 1.497 . S
C47 C46 1.438 1_455 S
C47 C48 1.360 . S
C48 C47 1.360 . S
C48 C49 1.401 . S
C48 C53 1.446 . S
C49 C48 1.401 . S
C49 C50 1.347 . S
C49 H109 0.929 . S
C50 C49 1.347 . S
C50 C51 1.455 . S
C50 H110 0.930 . S
C51 C38 1.412 . S
C51 C50 1.455 . S
C51 C52 1.331 . S
C52 C41 1.451 1_455 S
C52 C51 1.331 . S
C52 C53 1.497 . S
C53 C44 1.395 1_455 S
C53 C48 1.446 . S
C53 C52 1.497 . S
C54 C55 1.582 . S
C54 H111 0.962 . S
C54 H112 0.959 . S
C54 H113 0.958 . S
C55 C54 1.582 . S
C55 O58 1.458 . S
C55 H84 0.980 . S
O56 C1 1.426 . S
O56 C2 1.334 . S
O57 C29 1.412 . S
O57 C30 1.393 . S
O58 C20 1.435 . S
O58 C55 1.458 . S
O59 C11 1.468 . S
O59 C12 1.408 . S
H60 C1 0.980 . S
H61 C0 0.959 . S
H62 C0 0.959 . S
H63 C0 0.960 . S
H64 C3 0.929 . S
H65 C7 0.929 . S
H66 C8 0.959 . S
H67 C8 0.961 . S
H68 C8 0.961 . S
H69 C9 0.960 . S
H70 C9 0.960 . S
H71 C9 0.961 . S
H72 C11 0.980 . S
H73 C10 0.961 . S
H74 C10 0.960 . S
H75 C10 0.959 . S
H76 C13 0.930 . S
H77 C17 0.931 . S
H78 C18 0.959 1_455 S
H79 C18 0.961 . S
H80 C18 0.959 . S
H81 C19 0.960 . S
H82 C19 0.960 1_455 S
H83 C19 0.960 . S
H84 C55 0.980 . S
H85 C21 0.930 . S
H86 C25 0.930 . S
H87 C26 0.961 . S
H88 C26 0.960 . S
H89 C26 0.958 . S
H90 C27 0.961 . S
H91 C27 0.960 . S
H92 C27 0.960 . S
H93 C29 0.980 . S
H94 C28 0.961 . S
H95 C28 0.961 . S
H96 C28 0.959 . S
H97 C31 0.932 . S
H98 C35 0.929 . S
H99 C36 0.961 . S
H100 C36 0.959 1_655 S
H101 C36 0.959 . S
H102 C37 0.960 . S
H103 C37 0.962 . S
H104 C37 0.961 . S
H105 C39 0.929 . S
H106 C42 0.930 . S
H107 C43 0.929 . S
H108 C46 0.930 . S
H109 C49 0.929 . S
H110 C50 0.930 . S
H111 C54 0.962 . S
H112 C54 0.959 . S
H113 C54 0.958 . S
C114 C115 1.560 . S
C114 H175 0.959 . S
C114 H176 0.959 . S
C114 H177 0.960 . S
C115 C114 1.560 . S
C115 O170 1.426 . S
C115 H174 0.980 . S
C116 C117 1.407 . S
C116 C121 1.418 . S
C116 O170 1.334 . S
C117 C116 1.407 . S
C117 C118 1.360 . S
C117 H178 0.929 . S
C118 C117 1.360 . S
C118 C119 1.401 . S
C118 C122 1.527 . S
C119 C118 1.401 . S
C119 C120 1.405 . S
C119 C152 1.587 . S
C120 C119 1.405 . S
C120 C121 1.332 . S
C120 C123 1.496 . S
C121 C116 1.418 . S
C121 C120 1.332 . S
C121 H179 0.929 . S
C122 C118 1.527 . S
C122 H180 0.959 . S
C122 H181 0.961 . S
C122 H182 0.961 . S
C123 C120 1.496 . S
C123 H183 0.960 . S
C123 H184 0.960 . S
C123 H185 0.961 . S
C124 C125 1.517 . S
C124 H187 0.961 . S
C124 H188 0.960 . S
C124 H189 0.959 . S
C125 C124 1.517 . S
C125 O173 1.468 . S
C125 H186 0.980 . S
C126 C127 1.349 . S
C126 C131 1.367 . S
C126 O173 1.408 . S
C127 C126 1.349 . S
C127 C128 1.407 . S
C127 H190 0.930 . S
C128 C127 1.407 . S
C128 C129 1.449 . S
C128 C132 1.535 . S
C129 C128 1.449 . S
C129 C130 1.384 . S
C129 C154 1.553 1_545 S
C130 C129 1.384 . S
C130 C131 1.364 . S
C130 C133 1.450 . S
C131 C126 1.367 . S
C131 C130 1.364 . S
C131 H191 0.931 . S
C132 C128 1.535 . S
C132 H192 0.959 . S
C132 H193 0.961 . S
C132 H194 0.959 . S
C133 C130 1.450 . S
C133 H195 0.960 . S
C133 H196 0.960 1_545 S
C133 H197 0.960 . S
C134 C135 1.309 . S
C134 C139 1.304 . S
C134 O172 1.435 . S
C135 C134 1.309 . S
C135 C136 1.476 . S
C135 H199 0.930 . S
C136 C135 1.476 . S
C136 C137 1.400 . S
C136 C140 1.567 . S
C137 C136 1.400 . S
C137 C138 1.373 . S
C137 C159 1.432 . S
C138 C137 1.373 . S
C138 C139 1.339 . S
C138 C141 1.530 . S
C139 C134 1.304 . S
C139 C138 1.339 . S
C139 H200 0.930 . S
C140 C136 1.567 . S
C140 H201 0.961 . S
C140 H202 0.960 . S
C140 H203 0.958 . S
C141 C138 1.530 . S
C141 H204 0.961 . S
C141 H205 0.960 . S
C141 H206 0.960 . S
C142 C143 1.530 . S
C142 H208 0.961 . S
C142 H209 0.961 . S
C142 H210 0.959 . S
C143 C142 1.530 . S
C143 O171 1.412 . S
C143 H207 0.980 . S
C144 C145 1.288 . S
C144 C149 1.377 . S
C144 O171 1.393 . S
C145 C144 1.288 . S
C145 C146 1.369 . S
C145 H211 0.932 . S
C146 C145 1.369 . S
C146 C147 1.398 . S
C146 C150 1.527 . S
C147 C146 1.398 . S
C147 C148 1.380 . S
C147 C161 1.497 . S
C148 C147 1.380 . S
C148 C149 1.383 . S
C148 C151 1.603 . S
C149 C144 1.377 . S
C149 C148 1.383 . S
C149 H212 0.929 . S
C150 C146 1.527 . S
C150 H213 0.961 . S
C150 H214 0.959 1_565 S
C150 H215 0.959 . S
C151 C148 1.603 . S
C151 H216 0.960 . S
C151 H217 0.962 . S
C151 H218 0.961 . S
C152 C119 1.587 . S
C152 C153 1.360 . S
C152 C165 1.412 . S
C153 C152 1.360 . S
C153 C154 1.365 . S
C153 H219 0.929 . S
C154 C129 1.553 1_565 S
C154 C153 1.365 . S
C154 C155 1.404 1_565 S
C155 C154 1.404 1_545 S
C155 C156 1.395 . S
C155 C166 1.451 1_545 S
C156 C155 1.395 . S
C156 C157 1.322 . S
C156 H220 0.930 . S
C157 C156 1.322 . S
C157 C158 1.459 . S
C157 H221 0.929 . S
C158 C157 1.459 . S
C158 C159 1.445 . S
C158 C167 1.395 . S
C159 C137 1.432 . S
C159 C158 1.445 . S
C159 C160 1.370 . S
C160 C159 1.370 . S
C160 C161 1.438 1_545 S
C160 H222 0.930 . S
C161 C147 1.497 . S
C161 C160 1.438 1_565 S
C161 C162 1.360 . S
C162 C161 1.360 . S
C162 C163 1.401 . S
C162 C167 1.446 1_565 S
C163 C162 1.401 . S
C163 C164 1.347 . S
C163 H223 0.929 . S
C164 C163 1.347 . S
C164 C165 1.455 . S
C164 H224 0.930 . S
C165 C152 1.412 . S
C165 C164 1.455 . S
C165 C166 1.331 . S
C166 C155 1.451 1_565 S
C166 C165 1.331 . S
C166 C167 1.497 1_565 S
C167 C158 1.395 . S
C167 C162 1.446 1_545 S
C167 C166 1.497 1_545 S
C168 C169 1.582 . S
C168 H225 0.962 . S
C168 H226 0.959 . S
C168 H227 0.958 . S
C169 C168 1.582 . S
C169 O172 1.458 . S
C169 H198 0.980 . S
O170 C115 1.426 . S
O170 C116 1.334 . S
O171 C143 1.412 . S
O171 C144 1.393 . S
O172 C134 1.435 . S
O172 C169 1.458 . S
O173 C125 1.468 . S
O173 C126 1.408 . S
H174 C115 0.980 . S
H175 C114 0.959 . S
H176 C114 0.959 . S
H177 C114 0.960 . S
H178 C117 0.929 . S
H179 C121 0.929 . S
H180 C122 0.959 . S
H181 C122 0.961 . S
H182 C122 0.961 . S
H183 C123 0.960 . S
H184 C123 0.960 . S
H185 C123 0.961 . S
H186 C125 0.980 . S
H187 C124 0.961 . S
H188 C124 0.960 . S
H189 C124 0.959 . S
H190 C127 0.930 . S
H191 C131 0.931 . S
H192 C132 0.959 . S
H193 C132 0.961 . S
H194 C132 0.959 . S
H195 C133 0.960 . S
H196 C133 0.960 1_565 S
H197 C133 0.960 . S
H198 C169 0.980 . S
H199 C135 0.930 . S
H200 C139 0.930 . S
H201 C140 0.961 . S
H202 C140 0.960 . S
H203 C140 0.958 . S
H204 C141 0.961 . S
H205 C141 0.960 . S
H206 C141 0.960 . S
H207 C143 0.980 . S
H208 C142 0.961 . S
H209 C142 0.961 . S
H210 C142 0.959 . S
H211 C145 0.932 . S
H212 C149 0.929 . S
H213 C150 0.961 . S
H214 C150 0.959 1_545 S
H215 C150 0.959 . S
H216 C151 0.960 . S
H217 C151 0.962 . S
H218 C151 0.961 . S
H219 C153 0.929 . S
H220 C156 0.930 . S
H221 C157 0.929 . S
H222 C160 0.930 . S
H223 C163 0.929 . S
H224 C164 0.930 . S
H225 C168 0.962 . S
H226 C168 0.959 . S
H227 C168 0.958 . S
C228 C229 1.560 . S
C228 H289 0.959 . S
C228 H290 0.959 . S
C228 H291 0.960 . S
C229 C228 1.560 . S
C229 O284 1.426 . S
C229 H288 0.980 . S
C230 C231 1.407 . S
C230 C235 1.418 . S
C230 O284 1.334 . S
C231 C230 1.407 . S
C231 C232 1.360 . S
C231 H292 0.929 . S
C232 C231 1.360 . S
C232 C233 1.401 . S
C232 C236 1.527 . S
C233 C232 1.401 . S
C233 C234 1.405 . S
C233 C266 1.587 . S
C234 C233 1.405 . S
C234 C235 1.332 . S
C234 C237 1.496 . S
C235 C230 1.418 . S
C235 C234 1.332 . S
C235 H293 0.929 . S
C236 C232 1.527 . S
C236 H294 0.959 . S
C236 H295 0.961 . S
C236 H296 0.961 . S
C237 C234 1.496 . S
C237 H297 0.960 . S
C237 H298 0.960 . S
C237 H299 0.961 . S
C238 C239 1.517 . S
C238 H301 0.961 . S
C238 H302 0.960 . S
C238 H303 0.959 . S
C239 C238 1.517 . S
C239 O287 1.468 . S
C239 H300 0.980 . S
C240 C241 1.349 . S
C240 C245 1.367 . S
C240 O287 1.408 . S
C241 C240 1.349 . S
C241 C242 1.407 . S
C241 H304 0.930 . S
C242 C241 1.407 . S
C242 C243 1.449 . S
C242 C246 1.535 . S
C243 C242 1.449 . S
C243 C244 1.384 . S
C243 C268 1.553 . S
C244 C243 1.384 . S
C244 C245 1.364 . S
C244 C247 1.450 . S
C245 C240 1.367 . S
C245 C244 1.364 . S
C245 H305 0.931 . S
C246 C242 1.535 . S
C246 H306 0.959 . S
C246 H307 0.961 . S
C246 H308 0.959 . S
C247 C244 1.450 . S
C247 H309 0.960 . S
C247 H310 0.960 . S
C247 H311 0.960 . S
C248 C249 1.309 . S
C248 C253 1.304 . S
C248 O286 1.435 . S
C249 C248 1.309 . S
C249 C250 1.476 . S
C249 H313 0.930 . S
C250 C249 1.476 . S
C250 C251 1.400 . S
C250 C254 1.567 . S
C251 C250 1.400 . S
C251 C252 1.373 . S
C251 C273 1.432 . S
C252 C251 1.373 . S
C252 C253 1.339 . S
C252 C255 1.530 . S
C253 C248 1.304 . S
C253 C252 1.339 . S
C253 H314 0.930 . S
C254 C250 1.567 . S
C254 H315 0.961 . S
C254 H316 0.960 . S
C254 H317 0.958 . S
C255 C252 1.530 . S
C255 H318 0.961 . S
C255 H319 0.960 . S
C255 H320 0.960 . S
C256 C257 1.530 . S
C256 H322 0.961 . S
C256 H323 0.961 . S
C256 H324 0.959 . S
C257 C256 1.530 . S
C257 O285 1.412 . S
C257 H321 0.980 . S
C258 C259 1.288 . S
C258 C263 1.377 . S
C258 O285 1.393 . S
C259 C258 1.288 . S
C259 C260 1.369 . S
C259 H325 0.932 . S
C260 C259 1.369 . S
C260 C261 1.398 . S
C260 C264 1.527 . S
C261 C260 1.398 . S
C261 C262 1.380 . S
C261 C275 1.497 . S
C262 C261 1.380 . S
C262 C263 1.383 . S
C262 C265 1.603 . S
C263 C258 1.377 . S
C263 C262 1.383 . S
C263 H326 0.929 . S
C264 C260 1.527 . S
C264 H327 0.961 . S
C264 H328 0.959 . S
C264 H329 0.959 . S
C265 C262 1.603 . S
C265 H330 0.960 . S
C265 H331 0.962 . S
C265 H332 0.961 . S
C266 C233 1.587 . S
C266 C267 1.360 . S
C266 C279 1.412 . S
C267 C266 1.360 . S
C267 C268 1.365 . S
C267 H333 0.929 . S
C268 C243 1.553 . S
C268 C267 1.365 . S
C268 C269 1.404 . S
C269 C268 1.404 . S
C269 C270 1.395 . S
C269 C280 1.451 . S
C270 C269 1.395 . S
C270 C271 1.322 . S
C270 H334 0.930 . S
C271 C270 1.322 . S
C271 C272 1.459 . S
C271 H335 0.929 . S
C272 C271 1.459 . S
C272 C273 1.445 . S
C272 C281 1.395 . S
C273 C251 1.432 . S
C273 C272 1.445 . S
C273 C274 1.370 . S
C274 C273 1.370 . S
C274 C275 1.438 . S
C274 H336 0.930 . S
C275 C261 1.497 . S
C275 C274 1.438 . S
C275 C276 1.360 . S
C276 C275 1.360 . S
C276 C277 1.401 . S
C276 C281 1.446 . S
C277 C276 1.401 . S
C277 C278 1.347 . S
C277 H337 0.929 . S
C278 C277 1.347 . S
C278 C279 1.455 . S
C278 H338 0.930 . S
C279 C266 1.412 . S
C279 C278 1.455 . S
C279 C280 1.331 . S
C280 C269 1.451 . S
C280 C279 1.331 . S
C280 C281 1.497 . S
C281 C272 1.395 . S
C281 C276 1.446 . S
C281 C280 1.497 . S
C282 C283 1.582 . S
C282 H339 0.962 . S
C282 H340 0.959 . S
C282 H341 0.958 . S
C283 C282 1.582 . S
C283 O286 1.458 . S
C283 H312 0.980 . S
O284 C229 1.426 . S
O284 C230 1.334 . S
O285 C257 1.412 . S
O285 C258 1.393 . S
O286 C248 1.435 . S
O286 C283 1.458 . S
O287 C239 1.468 . S
O287 C240 1.408 . S
H288 C229 0.980 . S
H289 C228 0.959 . S
H290 C228 0.959 . S
H291 C228 0.960 . S
H292 C231 0.929 . S
H293 C235 0.929 . S
H294 C236 0.959 . S
H295 C236 0.961 . S
H296 C236 0.961 . S
H297 C237 0.960 . S
H298 C237 0.960 . S
H299 C237 0.961 . S
H300 C239 0.980 . S
H301 C238 0.961 . S
H302 C238 0.960 . S
H303 C238 0.959 . S
H304 C241 0.930 . S
H305 C245 0.931 . S
H306 C246 0.959 . S
H307 C246 0.961 . S
H308 C246 0.959 . S
H309 C247 0.960 . S
H310 C247 0.960 . S
H311 C247 0.960 . S
H312 C283 0.980 . S
H313 C249 0.930 . S
H314 C253 0.930 . S
H315 C254 0.961 . S
H316 C254 0.960 . S
H317 C254 0.958 . S
H318 C255 0.961 . S
H319 C255 0.960 . S
H320 C255 0.960 . S
H321 C257 0.980 . S
H322 C256 0.961 . S
H323 C256 0.961 . S
H324 C256 0.959 . S
H325 C259 0.932 . S
H326 C263 0.929 . S
H327 C264 0.961 . S
H328 C264 0.959 . S
H329 C264 0.959 . S
H330 C265 0.960 . S
H331 C265 0.962 . S
H332 C265 0.961 . S
H333 C267 0.929 . S
H334 C270 0.930 . S
H335 C271 0.929 . S
H336 C274 0.930 . S
H337 C277 0.929 . S
H338 C278 0.930 . S
H339 C282 0.962 . S
H340 C282 0.959 . S
H341 C282 0.958 . S
C342 C343 1.560 . S
C342 H403 0.959 . S
C342 H404 0.959 . S
C342 H405 0.960 . S
C343 C342 1.560 . S
C343 O398 1.426 . S
C343 H402 0.980 . S
C344 C345 1.407 . S
C344 C349 1.418 . S
C344 O398 1.334 . S
C345 C344 1.407 . S
C345 C346 1.360 . S
C345 H406 0.929 . S
C346 C345 1.360 . S
C346 C347 1.401 . S
C346 C350 1.527 . S
C347 C346 1.401 . S
C347 C348 1.405 . S
C347 C380 1.587 . S
C348 C347 1.405 . S
C348 C349 1.332 . S
C348 C351 1.496 . S
C349 C344 1.418 . S
C349 C348 1.332 . S
C349 H407 0.929 . S
C350 C346 1.527 . S
C350 H408 0.959 . S
C350 H409 0.961 . S
C350 H410 0.961 . S
C351 C348 1.496 . S
C351 H411 0.960 . S
C351 H412 0.960 . S
C351 H413 0.961 . S
C352 C353 1.517 . S
C352 H415 0.961 . S
C352 H416 0.960 . S
C352 H417 0.959 . S
C353 C352 1.517 . S
C353 O401 1.468 . S
C353 H414 0.980 . S
C354 C355 1.349 . S
C354 C359 1.367 . S
C354 O401 1.408 1_556 S
C355 C354 1.349 . S
C355 C356 1.407 . S
C355 H418 0.930 . S
C356 C355 1.407 . S
C356 C357 1.449 . S
C356 C360 1.535 . S
C357 C356 1.449 . S
C357 C358 1.384 . S
C357 C382 1.553 1_655 S
C358 C357 1.384 . S
C358 C359 1.364 . S
C358 C361 1.450 . S
C359 C354 1.367 . S
C359 C358 1.364 . S
C359 H419 0.931 . S
C360 C356 1.535 . S
C360 H420 0.959 1_655 S
C360 H421 0.961 1_655 S
C360 H422 0.959 . S
C361 C358 1.450 . S
C361 H423 0.960 . S
C361 H424 0.960 1_655 S
C361 H425 0.960 . S
C362 C363 1.309 . S
C362 C367 1.304 . S
C362 O400 1.435 . S
C363 C362 1.309 . S
C363 C364 1.476 . S
C363 H427 0.930 . S
C364 C363 1.476 . S
C364 C365 1.400 . S
C364 C368 1.567 . S
C365 C364 1.400 . S
C365 C366 1.373 . S
C365 C387 1.432 . S
C366 C365 1.373 . S
C366 C367 1.339 . S
C366 C369 1.530 . S
C367 C362 1.304 . S
C367 C366 1.339 . S
C367 H428 0.930 . S
C368 C364 1.567 . S
C368 H429 0.961 . S
C368 H430 0.960 . S
C368 H431 0.958 . S
C369 C366 1.530 . S
C369 H432 0.961 . S
C369 H433 0.960 . S
C369 H434 0.960 . S
C370 C371 1.530 . S
C370 H436 0.961 . S
C370 H437 0.961 . S
C370 H438 0.959 . S
C371 C370 1.530 . S
C371 O399 1.412 . S
C371 H435 0.980 . S
C372 C373 1.288 . S
C372 C377 1.377 . S
C372 O399 1.393 . S
C373 C372 1.288 . S
C373 C374 1.369 . S
C373 H439 0.932 . S
C374 C373 1.369 . S
C374 C375 1.398 . S
C374 C378 1.527 . S
C375 C374 1.398 . S
C375 C376 1.380 . S
C375 C389 1.497 . S
C376 C375 1.380 . S
C376 C377 1.383 . S
C376 C379 1.603 . S
C377 C372 1.377 . S
C377 C376 1.383 . S
C377 H440 0.929 . S
C378 C374 1.527 . S
C378 H441 0.961 . S
C378 H442 0.959 1_455 S
C378 H443 0.959 . S
C379 C376 1.603 . S
C379 H444 0.960 . S
C379 H445 0.962 . S
C379 H446 0.961 . S
C380 C347 1.587 . S
C380 C381 1.360 . S
C380 C393 1.412 . S
C381 C380 1.360 . S
C381 C382 1.365 . S
C381 H447 0.929 . S
C382 C357 1.553 1_455 S
C382 C381 1.365 . S
C382 C383 1.404 . S
C383 C382 1.404 . S
C383 C384 1.395 1_455 S
C383 C394 1.451 . S
C384 C383 1.395 1_655 S
C384 C385 1.322 . S
C384 H448 0.930 . S
C385 C384 1.322 . S
C385 C386 1.459 . S
C385 H449 0.929 . S
C386 C385 1.459 . S
C386 C387 1.445 . S
C386 C395 1.395 1_655 S
C387 C365 1.432 . S
C387 C386 1.445 . S
C387 C388 1.370 . S
C388 C387 1.370 . S
C388 C389 1.438 1_655 S
C388 H450 0.930 . S
C389 C375 1.497 . S
C389 C388 1.438 1_455 S
C389 C390 1.360 . S
C390 C389 1.360 . S
C390 C391 1.401 . S
C390 C395 1.446 . S
C391 C390 1.401 . S
C391 C392 1.347 . S
C391 H451 0.929 . S
C392 C391 1.347 . S
C392 C393 1.455 . S
C392 H452 0.930 . S
C393 C380 1.412 . S
C393 C392 1.455 . S
C393 C394 1.331 . S
C394 C383 1.451 . S
C394 C393 1.331 . S
C394 C395 1.497 . S
C395 C386 1.395 1_455 S
C395 C390 1.446 . S
C395 C394 1.497 . S
C396 C397 1.582 . S
C396 H453 0.962 . S
C396 H454 0.959 . S
C396 H455 0.958 . S
C397 C396 1.582 . S
C397 O400 1.458 . S
C397 H426 0.980 . S
O398 C343 1.426 . S
O398 C344 1.334 . S
O399 C371 1.412 . S
O399 C372 1.393 . S
O400 C362 1.435 . S
O400 C397 1.458 . S
O401 C353 1.468 . S
O401 C354 1.408 1_554 S
H402 C343 0.980 . S
H403 C342 0.959 . S
H404 C342 0.959 . S
H405 C342 0.960 . S
H406 C345 0.929 . S
H407 C349 0.929 . S
H408 C350 0.959 . S
H409 C350 0.961 . S
H410 C350 0.961 . S
H411 C351 0.960 . S
H412 C351 0.960 . S
H413 C351 0.961 . S
H414 C353 0.980 . S
H415 C352 0.961 . S
H416 C352 0.960 . S
H417 C352 0.959 . S
H418 C355 0.930 . S
H419 C359 0.931 . S
H420 C360 0.959 1_455 S
H421 C360 0.961 1_455 S
H422 C360 0.959 . S
H423 C361 0.960 . S
H424 C361 0.960 1_455 S
H425 C361 0.960 . S
H426 C397 0.980 . S
H427 C363 0.930 . S
H428 C367 0.930 . S
H429 C368 0.961 . S
H430 C368 0.960 . S
H431 C368 0.958 . S
H432 C369 0.961 . S
H433 C369 0.960 . S
H434 C369 0.960 . S
H435 C371 0.980 . S
H436 C370 0.961 . S
H437 C370 0.961 . S
H438 C370 0.959 . S
H439 C373 0.932 . S
H440 C377 0.929 . S
H441 C378 0.961 . S
H442 C378 0.959 1_655 S
H443 C378 0.959 . S
H444 C379 0.960 . S
H445 C379 0.962 . S
H446 C379 0.961 . S
H447 C381 0.929 . S
H448 C384 0.930 . S
H449 C385 0.929 . S
H450 C388 0.930 . S
H451 C391 0.929 . S
H452 C392 0.930 . S
H453 C396 0.962 . S
H454 C396 0.959 . S
H455 C396 0.958 . S
C456 C457 1.560 . S
C456 H517 0.959 . S
C456 H518 0.959 . S
C456 H519 0.960 . S
C457 C456 1.560 . S
C457 O512 1.426 . S
C457 H516 0.980 . S
C458 C459 1.407 . S
C458 C463 1.418 . S
C458 O512 1.334 . S
C459 C458 1.407 . S
C459 C460 1.360 . S
C459 H520 0.929 . S
C460 C459 1.360 . S
C460 C461 1.401 . S
C460 C464 1.527 . S
C461 C460 1.401 . S
C461 C462 1.405 . S
C461 C494 1.587 . S
C462 C461 1.405 . S
C462 C463 1.332 . S
C462 C465 1.496 . S
C463 C458 1.418 . S
C463 C462 1.332 . S
C463 H521 0.929 . S
C464 C460 1.527 . S
C464 H522 0.959 . S
C464 H523 0.961 . S
C464 H524 0.961 . S
C465 C462 1.496 . S
C465 H525 0.960 . S
C465 H526 0.960 . S
C465 H527 0.961 . S
C466 C467 1.517 . S
C466 H529 0.961 . S
C466 H530 0.960 . S
C466 H531 0.959 . S
C467 C466 1.517 . S
C467 O515 1.468 . S
C467 H528 0.980 . S
C468 C469 1.349 . S
C468 C473 1.367 . S
C468 O515 1.408 . S
C469 C468 1.349 . S
C469 C470 1.407 . S
C469 H532 0.930 . S
C470 C469 1.407 . S
C470 C471 1.449 . S
C470 C474 1.535 . S
C471 C470 1.449 . S
C471 C472 1.384 . S
C471 C496 1.553 1_545 S
C472 C471 1.384 . S
C472 C473 1.364 . S
C472 C475 1.450 . S
C473 C468 1.367 . S
C473 C472 1.364 . S
C473 H533 0.931 . S
C474 C470 1.535 . S
C474 H534 0.959 . S
C474 H535 0.961 . S
C474 H536 0.959 . S
C475 C472 1.450 . S
C475 H537 0.960 . S
C475 H538 0.960 1_545 S
C475 H539 0.960 . S
C476 C477 1.309 . S
C476 C481 1.304 . S
C476 O514 1.435 . S
C477 C476 1.309 . S
C477 C478 1.476 . S
C477 H541 0.930 . S
C478 C477 1.476 . S
C478 C479 1.400 . S
C478 C482 1.567 . S
C479 C478 1.400 . S
C479 C480 1.373 . S
C479 C501 1.432 . S
C480 C479 1.373 . S
C480 C481 1.339 . S
C480 C483 1.530 . S
C481 C476 1.304 . S
C481 C480 1.339 . S
C481 H542 0.930 . S
C482 C478 1.567 . S
C482 H543 0.961 . S
C482 H544 0.960 . S
C482 H545 0.958 . S
C483 C480 1.530 . S
C483 H546 0.961 . S
C483 H547 0.960 . S
C483 H548 0.960 . S
C484 C485 1.530 . S
C484 H550 0.961 . S
C484 H551 0.961 . S
C484 H552 0.959 . S
C485 C484 1.530 . S
C485 O513 1.412 . S
C485 H549 0.980 . S
C486 C487 1.288 . S
C486 C491 1.377 . S
C486 O513 1.393 . S
C487 C486 1.288 . S
C487 C488 1.369 . S
C487 H553 0.932 . S
C488 C487 1.369 . S
C488 C489 1.398 . S
C488 C492 1.527 . S
C489 C488 1.398 . S
C489 C490 1.380 . S
C489 C503 1.516 . S
C490 C489 1.380 . S
C490 C491 1.383 . S
C490 C493 1.603 . S
C491 C486 1.377 . S
C491 C490 1.383 . S
C491 H554 0.929 . S
C492 C488 1.527 . S
C492 H555 0.961 . S
C492 H556 0.959 1_565 S
C492 H557 0.959 . S
C493 C490 1.603 . S
C493 H558 0.960 . S
C493 H559 0.962 . S
C493 H560 0.961 . S
C494 C461 1.587 . S
C494 C495 1.360 . S
C494 C507 1.412 . S
C495 C494 1.360 . S
C495 C496 1.365 . S
C495 H561 0.929 . S
C496 C471 1.553 1_565 S
C496 C495 1.365 . S
C496 C497 1.404 1_565 S
C497 C496 1.404 1_545 S
C497 C498 1.395 . S
C497 C508 1.451 1_545 S
C498 C497 1.395 . S
C498 C499 1.322 . S
C498 H562 0.930 . S
C499 C498 1.322 . S
C499 C500 1.459 1_556 S
C499 H563 0.929 . S
C500 C499 1.459 1_554 S
C500 C501 1.445 . S
C500 C509 1.395 . S
C501 C479 1.432 . S
C501 C500 1.445 . S
C501 C502 1.370 . S
C502 C501 1.370 . S
C502 C503 1.409 1_545 S
C502 H564 0.930 . S
C503 C489 1.516 . S
C503 C502 1.409 1_565 S
C503 C504 1.369 . S
C504 C503 1.369 . S
C504 C505 1.401 . S
C504 C509 1.446 1_565 S
C505 C504 1.401 . S
C505 C506 1.347 1_554 S
C505 H565 0.929 . S
C506 C505 1.347 1_556 S
C506 C507 1.455 . S
C506 H566 0.930 . S
C507 C494 1.412 . S
C507 C506 1.455 . S
C507 C508 1.331 . S
C508 C497 1.451 1_565 S
C508 C507 1.331 . S
C508 C509 1.497 1_566 S
C509 C500 1.395 . S
C509 C504 1.446 1_545 S
C509 C508 1.497 1_544 S
C510 C511 1.582 . S
C510 H567 0.962 . S
C510 H568 0.959 . S
C510 H569 0.958 . S
C511 C510 1.582 . S
C511 O514 1.458 . S
C511 H540 0.980 . S
O512 C457 1.426 . S
O512 C458 1.334 . S
O513 C485 1.412 . S
O513 C486 1.393 . S
O514 C476 1.435 . S
O514 C511 1.458 . S
O515 C467 1.468 . S
O515 C468 1.408 . S
H516 C457 0.980 . S
H517 C456 0.959 . S
H518 C456 0.959 . S
H519 C456 0.960 . S
H520 C459 0.929 . S
H521 C463 0.929 . S
H522 C464 0.959 . S
H523 C464 0.961 . S
H524 C464 0.961 . S
H525 C465 0.960 . S
H526 C465 0.960 . S
H527 C465 0.961 . S
H528 C467 0.980 . S
H529 C466 0.961 . S
H530 C466 0.960 . S
H531 C466 0.959 . S
H532 C469 0.930 . S
H533 C473 0.931 . S
H534 C474 0.959 . S
H535 C474 0.961 . S
H536 C474 0.959 . S
H537 C475 0.960 . S
H538 C475 0.960 1_565 S
H539 C475 0.960 . S
H540 C511 0.980 . S
H541 C477 0.930 . S
H542 C481 0.930 . S
H543 C482 0.961 . S
H544 C482 0.960 . S
H545 C482 0.958 . S
H546 C483 0.961 . S
H547 C483 0.960 . S
H548 C483 0.960 . S
H549 C485 0.980 . S
H550 C484 0.961 . S
H551 C484 0.961 . S
H552 C484 0.959 . S
H553 C487 0.932 . S
H554 C491 0.929 . S
H555 C492 0.961 . S
H556 C492 0.959 1_545 S
H557 C492 0.959 . S
H558 C493 0.960 . S
H559 C493 0.962 . S
H560 C493 0.961 . S
H561 C495 0.929 . S
H562 C498 0.930 . S
H563 C499 0.929 . S
H564 C502 0.930 . S
H565 C505 0.929 . S
H566 C506 0.930 . S
H567 C510 0.962 . S
H568 C510 0.959 . S
H569 C510 0.958 . S
C570 C571 1.560 . S
C570 H631 0.959 . S
C570 H632 0.959 . S
C570 H633 0.960 . S
C571 C570 1.560 . S
C571 O626 1.426 . S
C571 H630 0.980 . S
C572 C573 1.407 . S
C572 C577 1.418 . S
C572 O626 1.334 . S
C573 C572 1.407 . S
C573 C574 1.360 . S
C573 H634 0.929 . S
C574 C573 1.360 . S
C574 C575 1.401 . S
C574 C578 1.527 . S
C575 C574 1.401 . S
C575 C576 1.405 . S
C575 C608 1.587 . S
C576 C575 1.405 . S
C576 C577 1.332 . S
C576 C579 1.496 . S
C577 C572 1.418 . S
C577 C576 1.332 . S
C577 H635 0.929 . S
C578 C574 1.527 . S
C578 H636 0.959 . S
C578 H637 0.961 . S
C578 H638 0.961 . S
C579 C576 1.496 . S
C579 H639 0.960 . S
C579 H640 0.960 . S
C579 H641 0.961 . S
C580 C581 1.517 . S
C580 H643 0.961 . S
C580 H644 0.960 . S
C580 H645 0.959 . S
C581 C580 1.517 . S
C581 O629 1.468 . S
C581 H642 0.980 . S
C582 C583 1.349 . S
C582 C587 1.367 . S
C582 O629 1.408 1_554 S
C583 C582 1.349 . S
C583 C584 1.407 . S
C583 H646 0.947 . S
C584 C583 1.407 . S
C584 C585 1.449 . S
C584 C588 1.535 . S
C585 C584 1.449 . S
C585 C586 1.384 . S
C585 C610 1.553 . S
C586 C585 1.384 . S
C586 C587 1.364 . S
C586 C589 1.450 . S
C587 C582 1.367 . S
C587 C586 1.364 . S
C587 H647 0.931 . S
C588 C584 1.535 . S
C588 H648 0.959 . S
C588 H649 0.961 . S
C588 H650 0.959 . S
C589 C586 1.450 . S
C589 H651 0.960 . S
C589 H652 0.960 . S
C589 H653 0.960 . S
C590 C591 1.309 . S
C590 C595 1.304 . S
C590 O628 1.435 . S
C591 C590 1.309 . S
C591 C592 1.476 . S
C591 H655 0.930 . S
C592 C591 1.476 . S
C592 C593 1.400 . S
C592 C596 1.567 . S
C593 C592 1.400 . S
C593 C594 1.373 . S
C593 C615 1.432 . S
C594 C593 1.373 . S
C594 C595 1.339 . S
C594 C597 1.530 . S
C595 C590 1.304 . S
C595 C594 1.339 . S
C595 H656 0.930 . S
C596 C592 1.567 . S
C596 H657 0.961 . S
C596 H658 0.960 . S
C596 H659 0.958 . S
C597 C594 1.530 . S
C597 H660 0.961 . S
C597 H661 0.960 . S
C597 H662 0.960 . S
C598 C599 1.530 . S
C598 H664 0.961 . S
C598 H665 0.961 . S
C598 H666 0.959 . S
C599 C598 1.530 . S
C599 O627 1.412 . S
C599 H663 0.980 . S
C600 C601 1.288 . S
C600 C605 1.377 . S
C600 O627 1.393 . S
C601 C600 1.288 . S
C601 C602 1.369 . S
C601 H667 0.932 . S
C602 C601 1.369 . S
C602 C603 1.398 . S
C602 C606 1.527 . S
C603 C602 1.398 . S
C603 C604 1.380 . S
C603 C617 1.497 . S
C604 C603 1.380 . S
C604 C605 1.383 . S
C604 C607 1.603 . S
C605 C600 1.377 . S
C605 C604 1.383 . S
C605 H668 0.929 . S
C606 C602 1.527 . S
C606 H669 0.961 . S
C606 H670 0.959 . S
C606 H671 0.959 . S
C607 C604 1.603 . S
C607 H672 0.960 . S
C607 H673 0.962 . S
C607 H674 0.961 . S
C608 C575 1.587 . S
C608 C609 1.360 . S
C608 C621 1.412 . S
C609 C608 1.360 . S
C609 C610 1.365 . S
C609 H675 0.929 . S
C610 C585 1.553 . S
C610 C609 1.365 . S
C610 C611 1.404 . S
C611 C610 1.404 . S
C611 C612 1.395 . S
C611 C622 1.451 . S
C612 C611 1.395 . S
C612 C613 1.322 . S
C612 H676 0.930 . S
C613 C612 1.322 . S
C613 C614 1.459 . S
C613 H677 0.929 . S
C614 C613 1.459 . S
C614 C615 1.445 . S
C614 C623 1.395 . S
C615 C593 1.432 . S
C615 C614 1.445 . S
C615 C616 1.370 . S
C616 C615 1.370 . S
C616 C617 1.438 . S
C616 H678 0.930 . S
C617 C603 1.497 . S
C617 C616 1.438 . S
C617 C618 1.360 . S
C618 C617 1.360 . S
C618 C619 1.401 . S
C618 C623 1.446 . S
C619 C618 1.401 . S
C619 C620 1.347 . S
C619 H679 0.929 . S
C620 C619 1.347 . S
C620 C621 1.455 . S
C620 H680 0.930 . S
C621 C608 1.412 . S
C621 C620 1.455 . S
C621 C622 1.331 . S
C622 C611 1.451 . S
C622 C621 1.331 . S
C622 C623 1.497 . S
C623 C614 1.395 . S
C623 C618 1.446 . S
C623 C622 1.497 . S
C624 C625 1.582 . S
C624 H681 0.962 . S
C624 H682 0.959 . S
C624 H683 0.958 . S
C625 C624 1.582 . S
C625 O628 1.458 . S
C625 H654 0.980 . S
O626 C571 1.426 . S
O626 C572 1.334 . S
O627 C599 1.412 . S
O627 C600 1.393 . S
O628 C590 1.435 . S
O628 C625 1.458 . S
O629 C581 1.468 . S
O629 C582 1.408 1_556 S
H630 C571 0.980 . S
H631 C570 0.959 . S
H632 C570 0.959 . S
H633 C570 0.960 . S
H634 C573 0.929 . S
H635 C577 0.929 . S
H636 C578 0.959 . S
H637 C578 0.961 . S
H638 C578 0.961 . S
H639 C579 0.960 . S
H640 C579 0.960 . S
H641 C579 0.961 . S
H642 C581 0.980 . S
H643 C580 0.961 . S
H644 C580 0.960 . S
H645 C580 0.959 . S
H646 C583 0.947 . S
H647 C587 0.931 . S
H648 C588 0.959 . S
H649 C588 0.961 . S
H650 C588 0.959 . S
H651 C589 0.960 . S
H652 C589 0.960 . S
H653 C589 0.960 . S
H654 C625 0.980 . S
H655 C591 0.930 . S
H656 C595 0.930 . S
H657 C596 0.961 . S
H658 C596 0.960 . S
H659 C596 0.958 . S
H660 C597 0.961 . S
H661 C597 0.960 . S
H662 C597 0.960 . S
H663 C599 0.980 . S
H664 C598 0.961 . S
H665 C598 0.961 . S
H666 C598 0.959 . S
H667 C601 0.932 . S
H668 C605 0.929 . S
H669 C606 0.961 . S
H670 C606 0.959 . S
H671 C606 0.959 . S
H672 C607 0.960 . S
H673 C607 0.962 . S
H674 C607 0.961 . S
H675 C609 0.929 . S
H676 C612 0.930 . S
H677 C613 0.929 . S
H678 C616 0.930 . S
H679 C619 0.929 . S
H680 C620 0.930 . S
H681 C624 0.962 . S
H682 C624 0.959 . S
H683 C624 0.958 . S
Zn684 O687 2.031 . S
Zn684 O689 2.049 . S
Zn684 O694 2.067 . S
Zn685 O686 1.962 . S
Zn685 O688 1.986 . S
Zn685 O690 1.996 . S
Zn685 O693 1.943 . S
O686 Zn685 1.962 . S
O686 C691 1.254 . S
O687 Zn684 2.031 . S
O687 C691 1.269 . S
O688 Zn685 1.986 . S
O688 C695 1.262 . S
O689 Zn684 2.049 . S
O689 C697 1.260 . S
O690 Zn685 1.996 . S
O690 C697 1.257 . S
C691 O686 1.254 . S
C691 O687 1.269 . S
C692 O693 1.249 . S
C692 O694 1.270 . S
O693 Zn685 1.943 . S
O693 C692 1.249 . S
O694 Zn684 2.067 . S
O694 C692 1.270 . S
C695 O688 1.262 . S
C695 O696 1.232 . S
O696 C695 1.232 . S
C697 O689 1.260 . S
C697 O690 1.257 . S
Zn698 O701 2.031 . S
Zn698 O703 2.049 . S
Zn698 O708 2.067 . S
Zn699 O700 1.962 . S
Zn699 O702 1.986 . S
Zn699 O704 1.996 . S
Zn699 O707 1.943 . S
O700 Zn699 1.962 . S
O700 C705 1.254 . S
O701 Zn698 2.031 . S
O701 C705 1.269 . S
O702 Zn699 1.986 . S
O702 C709 1.262 . S
O703 Zn698 2.049 . S
O703 C711 1.260 . S
O704 Zn699 1.996 . S
O704 C711 1.257 . S
C705 O700 1.254 . S
C705 O701 1.269 . S
C706 O707 1.249 . S
C706 O708 1.270 . S
O707 Zn699 1.943 . S
O707 C706 1.249 . S
O708 Zn698 2.067 . S
O708 C706 1.270 . S
C709 O702 1.262 . S
C709 O710 1.232 . S
O710 C709 1.232 . S
C711 O703 1.260 . S
C711 O704 1.257 . S
Zn712 O715 2.031 . S
Zn712 O717 2.049 . S
Zn712 O722 2.067 . S
Zn713 O714 1.962 . S
Zn713 O716 1.986 . S
Zn713 O718 1.996 . S
Zn713 O721 1.943 . S
O714 Zn713 1.962 . S
O714 C719 1.254 . S
O715 Zn712 2.031 . S
O715 C719 1.269 . S
O716 Zn713 1.986 . S
O716 C723 1.262 . S
O717 Zn712 2.049 . S
O717 C725 1.260 . S
O718 Zn713 1.996 . S
O718 C725 1.257 . S
C719 O714 1.254 . S
C719 O715 1.269 . S
C720 O721 1.249 . S
C720 O722 1.270 . S
O721 Zn713 1.943 . S
O721 C720 1.249 . S
O722 Zn712 2.067 . S
O722 C720 1.270 . S
C723 O716 1.262 . S
C723 O724 1.232 . S
O724 C723 1.232 . S
C725 O717 1.260 . S
C725 O718 1.257 . S
Zn726 O729 2.031 . S
Zn726 O731 2.049 . S
Zn726 O736 2.067 . S
Zn727 O728 1.962 . S
Zn727 O730 1.986 . S
Zn727 O732 1.996 . S
Zn727 O735 1.943 . S
O728 Zn727 1.962 . S
O728 C733 1.254 . S
O729 Zn726 2.031 . S
O729 C733 1.269 . S
O730 Zn727 1.986 . S
O730 C737 1.262 . S
O731 Zn726 2.049 . S
O731 C739 1.260 . S
O732 Zn727 1.996 . S
O732 C739 1.257 . S
C733 O728 1.254 . S
C733 O729 1.269 . S
C734 O735 1.249 . S
C734 O736 1.270 . S
O735 Zn727 1.943 . S
O735 C734 1.249 . S
O736 Zn726 2.067 . S
O736 C734 1.270 . S
C737 O730 1.262 . S
C737 O738 1.232 . S
O738 C737 1.232 . S
C739 O731 1.260 . S
C739 O732 1.257 . S
Zn740 O743 2.031 . S
Zn740 O745 2.049 . S
Zn740 O750 2.067 . S
Zn741 O742 1.962 . S
Zn741 O744 1.986 . S
Zn741 O746 1.996 . S
Zn741 O749 1.943 . S
O742 Zn741 1.962 . S
O742 C747 1.254 . S
O743 Zn740 2.031 . S
O743 C747 1.269 . S
O744 Zn741 1.986 . S
O744 C751 1.262 . S
O745 Zn740 2.049 . S
O745 C753 1.260 . S
O746 Zn741 1.996 . S
O746 C753 1.257 . S
C747 O742 1.254 . S
C747 O743 1.269 . S
C748 O749 1.249 . S
C748 O750 1.270 . S
O749 Zn741 1.943 . S
O749 C748 1.249 . S
O750 Zn740 2.067 . S
O750 C748 1.270 . S
C751 O744 1.262 . S
C751 O752 1.232 . S
O752 C751 1.232 . S
C753 O745 1.260 . S
C753 O746 1.257 . S
Zn754 O757 2.031 . S
Zn754 O759 2.049 . S
Zn754 O764 2.067 . S
Zn755 O756 1.962 . S
Zn755 O758 1.986 . S
Zn755 O760 1.996 . S
Zn755 O763 1.943 . S
O756 Zn755 1.962 . S
O756 C761 1.254 . S
O757 Zn754 2.031 . S
O757 C761 1.269 . S
O758 Zn755 1.986 . S
O758 C765 1.262 . S
O759 Zn754 2.049 . S
O759 C767 1.260 . S
O760 Zn755 1.996 . S
O760 C767 1.257 . S
C761 O756 1.254 . S
C761 O757 1.269 . S
C762 O763 1.249 . S
C762 O764 1.270 . S
O763 Zn755 1.943 . S
O763 C762 1.249 . S
O764 Zn754 2.067 . S
O764 C762 1.270 . S
C765 O758 1.262 . S
C765 O766 1.232 . S
O766 C765 1.232 . S
C767 O759 1.260 . S
C767 O760 1.257 . S
C761 C1 2.183 . S
C169 C695 2.586 . S
C283 C709 2.763 . S
C397 C723 2.697 . S
C737 C457 2.451 . S
C571 C747 2.185 . S
C115 C705 2.270 . S
C229 C719 2.497 . S
C343 C733 2.446 . S
C751 C511 3.116 . S
C765 C625 2.722 . S
C691 C55 2.779 . S
C29 C706 1.355 . S
C125 C720 0.834 . S
C734 C239 0.720 . S
C353 C753 0.732 . S
C767 C485 1.138 . S
C692 C599 1.127 . S
C762 C143 1.252 . S
C257 C697 1.536 . S
C711 C371 1.465 . S
C467 C725 0.647 . S
C581 C739 0.767 . S
C11 C748 0.692 . S
