# Generated by pormake.
# Topology dag, (6,3)-cn, num edge types: 1
# Building blocks:
#     Node 0, Type 0, BuildingBlock: IZENUY_clean_sbu_0, # of connection points: 6
#     Node 1, Type 0, BuildingBlock: IZENUY_clean_sbu_0, # of connection points: 6
#     Node 2, Type 0, BuildingBlock: IZENUY_clean_sbu_0, # of connection points: 6
#     Node 3, Type 0, BuildingBlock: IZENUY_clean_sbu_0, # of connection points: 6
#     Node 4, Type 1, BuildingBlock: BELTOD_clean_linker_0, # of connection points: 3
#     Node 5, Type 1, BuildingBlock: BELTOD_clean_linker_0, # of connection points: 3
#     Node 6, Type 1, BuildingBlock: BELTOD_clean_linker_0, # of connection points: 3
#     Node 7, Type 1, BuildingBlock: BELTOD_clean_linker_0, # of connection points: 3
#     Node 8, Type 1, BuildingBlock: BELTOD_clean_linker_0, # of connection points: 3
#     Node 9, Type 1, BuildingBlock: BELTOD_clean_linker_0, # of connection points: 3
#     Node 10, Type 1, BuildingBlock: BELTOD_clean_linker_0, # of connection points: 3
#     Node 11, Type 1, BuildingBlock: BELTOD_clean_linker_0, # of connection points: 3
#     Edge 12, Type (0, 1), BuildingBlock: TEMPAE_clean_linker_10, # of connection points: 2
#     Edge 13, Type (0, 1), BuildingBlock: TEMPAE_clean_linker_10, # of connection points: 2
#     Edge 14, Type (0, 1), BuildingBlock: TEMPAE_clean_linker_10, # of connection points: 2
#     Edge 15, Type (0, 1), BuildingBlock: TEMPAE_clean_linker_10, # of connection points: 2
#     Edge 16, Type (0, 1), BuildingBlock: TEMPAE_clean_linker_10, # of connection points: 2
#     Edge 17, Type (0, 1), BuildingBlock: TEMPAE_clean_linker_10, # of connection points: 2
#     Edge 18, Type (0, 1), BuildingBlock: TEMPAE_clean_linker_10, # of connection points: 2
#     Edge 19, Type (0, 1), BuildingBlock: TEMPAE_clean_linker_10, # of connection points: 2
#     Edge 20, Type (0, 1), BuildingBlock: TEMPAE_clean_linker_10, # of connection points: 2
#     Edge 21, Type (0, 1), BuildingBlock: TEMPAE_clean_linker_10, # of connection points: 2
#     Edge 22, Type (0, 1), BuildingBlock: TEMPAE_clean_linker_10, # of connection points: 2
#     Edge 23, Type (0, 1), BuildingBlock: TEMPAE_clean_linker_10, # of connection points: 2
#     Edge 24, Type (0, 1), BuildingBlock: TEMPAE_clean_linker_10, # of connection points: 2
#     Edge 25, Type (0, 1), BuildingBlock: TEMPAE_clean_linker_10, # of connection points: 2
#     Edge 26, Type (0, 1), BuildingBlock: TEMPAE_clean_linker_10, # of connection points: 2
#     Edge 27, Type (0, 1), BuildingBlock: TEMPAE_clean_linker_10, # of connection points: 2
#     Edge 28, Type (0, 1), BuildingBlock: TEMPAE_clean_linker_10, # of connection points: 2
#     Edge 29, Type (0, 1), BuildingBlock: TEMPAE_clean_linker_10, # of connection points: 2
#     Edge 30, Type (0, 1), BuildingBlock: TEMPAE_clean_linker_10, # of connection points: 2
#     Edge 31, Type (0, 1), BuildingBlock: TEMPAE_clean_linker_10, # of connection points: 2
#     Edge 32, Type (0, 1), BuildingBlock: TEMPAE_clean_linker_10, # of connection points: 2
#     Edge 33, Type (0, 1), BuildingBlock: TEMPAE_clean_linker_10, # of connection points: 2
#     Edge 34, Type (0, 1), BuildingBlock: TEMPAE_clean_linker_10, # of connection points: 2
#     Edge 35, Type (0, 1), BuildingBlock: TEMPAE_clean_linker_10, # of connection points: 2
# Relax obj value: 0.239
# Max RMSD: 0.187
# Mean RMSD: 0.155
data_MOF--net-dag--node1-IZENUY_clean_sbu_0--node2-BELTOD_clean_linker_0--edge1-TEMPAE_clean_linker_10
_symmetry_space_group_name_H-M    P1
_symmetry_Int_Tables_number       1
_symmetry_cell_setting            triclinic
loop_
_symmetry_equiv_pos_as_xyz
'x, y, z'
_cell_length_a     43.129154
_cell_length_b     45.885776
_cell_length_c     38.478969
_cell_angle_alpha  94.925082
_cell_angle_beta   90.364777
_cell_angle_gamma 90.1774
loop_
_atom_site_label
_atom_site_type_symbol
_atom_site_fract_x
_atom_site_fract_y
_atom_site_fract_z
_atom_type_partial_charge
Fe0 Fe 0.19021 0.85642 0.07783 0.0
Fe1 Fe 0.13166 0.87664 0.04133 0.0
O2 O 0.15575 0.84809 0.0535 0.0
Fe3 Fe 0.14482 0.81133 0.04165 0.0
O4 O 0.16112 0.79705 0.08072 0.0
O5 O 0.17722 0.836 0.11328 0.0
O6 O 0.17421 0.88919 0.10243 0.0
C7 C 0.14626 0.8966 0.1083 0.0
C8 C 0.20727 0.80855 0.02978 0.0
O9 O 0.12514 0.88924 0.08647 0.0
C10 C 0.12939 0.84049 0.98171 0.0
O11 O 0.20581 0.87776 0.04422 0.0
O12 O 0.16326 0.90279 0.03767 0.0
O13 O 0.18027 0.80448 0.01742 0.0
O14 O 0.21191 0.82495 0.05762 0.0
C15 C 0.08881 0.83508 0.06089 0.0
O16 O 0.13671 0.86553 0.99548 0.0
O17 O 0.12638 0.81914 0.00029 0.0
C18 C 0.19207 0.89938 0.03312 0.0
O19 O 0.09534 0.856 0.04288 0.0
O20 O 0.10879 0.81584 0.06569 0.0
C21 C 0.16753 0.81 0.1102 0.0
Fe22 Fe 0.66476 0.64059 0.45783 0.0
Fe23 Fe 0.6238 0.68449 0.501 0.0
O24 O 0.63243 0.64804 0.48525 0.0
Fe25 Fe 0.60853 0.61915 0.4968 0.0
O26 O 0.6399 0.59231 0.49695 0.0
O27 O 0.6822 0.61739 0.48837 0.0
O28 O 0.68854 0.6707 0.47848 0.0
C29 C 0.68663 0.68457 0.50833 0.0
C30 C 0.61844 0.60197 0.42813 0.0
O31 O 0.66083 0.68819 0.52338 0.0
C32 C 0.56628 0.66317 0.48297 0.0
O33 O 0.64954 0.66331 0.42548 0.0
O34 O 0.63912 0.70086 0.46269 0.0
O35 O 0.59899 0.60864 0.4517 0.0
O36 O 0.64672 0.60915 0.4323 0.0
C37 C 0.6103 0.65228 0.55886 0.0
O38 O 0.58634 0.68267 0.47915 0.0
O39 O 0.57293 0.64075 0.49845 0.0
C40 C 0.64382 0.69016 0.43172 0.0
O41 O 0.60701 0.67485 0.54238 0.0
O42 O 0.6163 0.62788 0.54278 0.0
C43 C 0.66901 0.59554 0.49959 0.0
Fe44 Fe 0.86565 0.20638 0.0083 0.0
Fe45 Fe 0.87999 0.14056 0.00365 0.0
O46 O 0.85505 0.16966 0.99504 0.0
Fe47 Fe 0.81934 0.16167 0.97322 0.0
O48 O 0.8303 0.18283 0.93794 0.0
O49 O 0.84753 0.22156 0.97024 0.0
O50 O 0.90137 0.20374 0.98337 0.0
C51 C 0.92196 0.18464 0.98641 0.0
C52 C 0.80357 0.20753 0.02362 0.0
O53 O 0.91587 0.16143 0.0005 0.0
C54 C 0.82068 0.11816 0.01709 0.0
O55 O 0.88566 0.19732 0.04845 0.0
O56 O 0.87772 0.15003 0.05013 0.0
O57 O 0.79833 0.19243 0.99516 0.0
O58 O 0.83094 0.21203 0.03451 0.0
C59 C 0.86113 0.12251 0.93763 0.0
O60 O 0.84875 0.11413 0.00868 0.0
O61 O 0.80611 0.1399 0.00754 0.0
C62 C 0.88457 0.17471 0.06528 0.0
O63 O 0.88382 0.12927 0.95757 0.0
O64 O 0.8338 0.1295 0.94672 0.0
C65 C 0.8388 0.20923 0.94098 0.0
Fe66 Fe 0.38935 0.35927 0.56691 0.0
Fe67 Fe 0.32629 0.34172 0.59497 0.0
O68 O 0.36243 0.33189 0.57589 0.0
Fe69 Fe 0.37157 0.29454 0.56575 0.0
O70 O 0.4136 0.29922 0.57292 0.0
O71 O 0.4185 0.34475 0.59473 0.0
O72 O 0.37863 0.38452 0.60452 0.0
C73 C 0.3649 0.38004 0.6326 0.0
C74 C 0.39334 0.31806 0.50783 0.0
O75 O 0.3449 0.35999 0.63324 0.0
C76 C 0.308 0.2974 0.54762 0.0
O77 O 0.36208 0.37556 0.53841 0.0
O78 O 0.32253 0.37607 0.57405 0.0
O79 O 0.37513 0.29975 0.51965 0.0
O80 O 0.40482 0.33885 0.52771 0.0
C81 C 0.34471 0.29261 0.62947 0.0
O82 O 0.30538 0.3241 0.55789 0.0
O83 O 0.33126 0.2829 0.55656 0.0
C84 C 0.33532 0.38432 0.54703 0.0
O85 O 0.3236 0.30917 0.61941 0.0
O86 O 0.36861 0.28736 0.61126 0.0
C87 C 0.42906 0.31914 0.59014 0.0
P88 P 0.05402 0.12475 0.37761 0.0
H89 H 0.04025 0.06186 0.37014 0.0
H90 H 0.05741 0.02226 0.32812 0.0
H91 H 0.11848 0.08261 0.28147 0.0
H92 H 0.10035 0.12215 0.32271 0.0
H93 H 0.05364 0.18496 0.4092 0.0
H94 H 0.09454 0.21705 0.43591 0.0
H95 H 0.16141 0.14804 0.41518 0.0
H96 H 0.12058 0.1159 0.38963 0.0
H97 H 0.98813 0.1187 0.36112 0.0
H98 H 0.06554 0.16998 0.33018 0.0
O99 O 0.03354 0.11222 0.40986 0.0
H100 H 0.95658 0.1363 0.31432 0.0
H101 H 0.03402 0.18802 0.28358 0.0
C102 C 0.06954 0.09477 0.34997 0.0
C103 C 0.05768 0.06643 0.35119 0.0
C104 C 0.06757 0.04379 0.32718 0.0
C105 C 0.08935 0.04924 0.30141 0.0
C106 C 0.10141 0.0777 0.30067 0.0
C107 C 0.09134 0.10028 0.32448 0.0
C108 C 0.08424 0.14838 0.39645 0.0
C109 C 0.07715 0.17683 0.41026 0.0
C110 C 0.10043 0.19507 0.42557 0.0
C111 C 0.13113 0.18508 0.42708 0.0
C112 C 0.13803 0.15643 0.41367 0.0
C113 C 0.11468 0.13809 0.39895 0.0
C114 C 0.02895 0.14349 0.34952 0.0
C115 C 0.99799 0.13455 0.34502 0.0
C116 C 0.97998 0.14464 0.31823 0.0
C117 C 0.99284 0.16351 0.2952 0.0
C118 C 0.02354 0.17334 0.30076 0.0
C119 C 0.04148 0.16328 0.32759 0.0
P120 P 0.45499 0.61539 0.88482 0.0
H121 H 0.51099 0.65133 0.87956 0.0
H122 H 0.53958 0.66681 0.82938 0.0
H123 H 0.47063 0.62435 0.7601 0.0
H124 H 0.44181 0.61039 0.81 0.0
H125 H 0.43092 0.62879 0.95502 0.0
H126 H 0.39096 0.66237 0.9788 0.0
H127 H 0.37424 0.69016 0.87581 0.0
H128 H 0.4147 0.65698 0.85244 0.0
H129 H 0.48272 0.55964 0.86227 0.0
H130 H 0.39053 0.59552 0.87087 0.0
O131 O 0.48093 0.60988 0.91593 0.0
H132 H 0.46228 0.51595 0.82936 0.0
H133 H 0.36967 0.55143 0.83896 0.0
C134 C 0.47467 0.6292 0.84846 0.0
C135 C 0.50198 0.64568 0.85352 0.0
C136 C 0.51836 0.65435 0.8248 0.0
C137 C 0.50759 0.64668 0.79059 0.0
C138 C 0.47952 0.63105 0.78595 0.0
C139 C 0.46312 0.62268 0.81457 0.0
C140 C 0.4262 0.64086 0.90215 0.0
C141 C 0.41886 0.64234 0.93765 0.0
C142 C 0.39581 0.66136 0.95114 0.0
C143 C 0.37946 0.67904 0.92922 0.0
C144 C 0.38676 0.67725 0.89352 0.0
C145 C 0.40986 0.65823 0.88009 0.0
C146 C 0.43819 0.58072 0.86924 0.0
C147 C 0.45791 0.55764 0.85812 0.0
C148 C 0.44613 0.53261 0.83932 0.0
C149 C 0.41429 0.53019 0.83129 0.0
C150 C 0.39435 0.55276 0.84422 0.0
C151 C 0.40623 0.57791 0.86283 0.0
P152 P 0.80236 0.90513 0.24677 0.0
H153 H 0.75916 0.95383 0.25666 0.0
H154 H 0.74026 0.98879 0.21689 0.0
H155 H 0.78347 0.93797 0.13068 0.0
H156 H 0.80134 0.90285 0.1703 0.0
H157 H 0.80146 0.87823 0.31199 0.0
H158 H 0.77064 0.83903 0.33319 0.0
H159 H 0.72102 0.8289 0.23488 0.0
H160 H 0.75174 0.86903 0.21407 0.0
H161 H 0.86053 0.93235 0.23051 0.0
H162 H 0.82069 0.84572 0.21878 0.0
O163 O 0.81257 0.92778 0.28124 0.0
H164 H 0.90765 0.91391 0.2017 0.0
H165 H 0.86814 0.82687 0.19069 0.0
C166 C 0.78241 0.92634 0.21652 0.0
C167 C 0.76389 0.94991 0.22904 0.0
C168 C 0.75317 0.96988 0.20632 0.0
C169 C 0.76084 0.96648 0.17072 0.0
C170 C 0.777 0.94125 0.15788 0.0
C171 C 0.78758 0.92126 0.18062 0.0
C172 C 0.7784 0.87684 0.26181 0.0
C173 C 0.78376 0.86778 0.29509 0.0
C174 C 0.76635 0.84511 0.307 0.0
C175 C 0.7435 0.8307 0.28561 0.0
C176 C 0.73826 0.83976 0.25205 0.0
C177 C 0.75575 0.86263 0.24015 0.0
C178 C 0.83739 0.89036 0.22732 0.0
C179 C 0.86216 0.90924 0.22221 0.0
C180 C 0.88914 0.89862 0.20587 0.0
C181 C 0.89183 0.86882 0.19423 0.0
C182 C 0.86678 0.84994 0.19925 0.0
C183 C 0.83971 0.86066 0.21556 0.0
P184 P 0.76624 0.32249 0.61214 0.0
H185 H 0.80468 0.35465 0.56545 0.0
H186 H 0.80283 0.40521 0.54945 0.0
H187 H 0.72938 0.42386 0.62383 0.0
H188 H 0.73141 0.37372 0.63967 0.0
H189 H 0.79571 0.27116 0.63665 0.0
H190 H 0.8157 0.26019 0.69363 0.0
H191 H 0.79543 0.3485 0.73505 0.0
H192 H 0.77557 0.35939 0.67805 0.0
H193 H 0.72316 0.30194 0.5567 0.0
H194 H 0.72021 0.32238 0.66811 0.0
O195 O 0.78392 0.30221 0.5801 0.0
H196 H 0.66703 0.29457 0.55545 0.0
H197 H 0.66406 0.31614 0.66698 0.0
C198 C 0.76794 0.36036 0.60346 0.0
C199 C 0.78847 0.36975 0.57858 0.0
C200 C 0.78739 0.3986 0.56945 0.0
C201 C 0.76597 0.41848 0.58539 0.0
C202 C 0.74645 0.40922 0.61142 0.0
C203 C 0.7474 0.38042 0.6203 0.0
C204 C 0.78451 0.31616 0.65293 0.0
C205 C 0.79616 0.28834 0.65779 0.0
C206 C 0.80767 0.28213 0.69032 0.0
C207 C 0.80725 0.30356 0.7187 0.0
C208 C 0.79598 0.33158 0.71362 0.0
C209 C 0.78473 0.33784 0.68096 0.0
C210 C 0.72593 0.31223 0.61253 0.0
C211 C 0.71049 0.30434 0.58099 0.0
C212 C 0.67834 0.30048 0.58028 0.0
C213 C 0.66094 0.30496 0.6111 0.0
C214 C 0.6767 0.31208 0.64284 0.0
C215 C 0.7089 0.31572 0.64351 0.0
P216 P 0.53011 0.35769 0.17811 0.0
H217 H 0.50358 0.4167 0.18613 0.0
H218 H 0.51751 0.46052 0.22413 0.0
H219 H 0.59639 0.41493 0.26278 0.0
H220 H 0.58209 0.37134 0.22539 0.0
H221 H 0.54661 0.29526 0.16859 0.0
H222 H 0.5928 0.26994 0.14503 0.0
H223 H 0.63363 0.35318 0.12584 0.0
H224 H 0.58712 0.37807 0.14824 0.0
H225 H 0.46382 0.34685 0.18712 0.0
H226 H 0.54971 0.32692 0.23766 0.0
O227 O 0.50724 0.36516 0.1449 0.0
H228 H 0.43475 0.3288 0.23522 0.0
H229 H 0.52102 0.30993 0.28644 0.0
C230 C 0.54215 0.39102 0.20248 0.0
C231 C 0.52413 0.41637 0.2024 0.0
C232 C 0.53212 0.44136 0.22407 0.0
C233 C 0.55801 0.44113 0.24647 0.0
C234 C 0.57613 0.4157 0.2461 0.0
C235 C 0.56814 0.39084 0.22449 0.0
C236 C 0.5638 0.33857 0.16092 0.0
C237 C 0.56558 0.30801 0.15944 0.0
C238 C 0.59207 0.29359 0.14611 0.0
C239 C 0.61706 0.30954 0.13378 0.0
C240 C 0.61478 0.34017 0.13481 0.0
C241 C 0.58828 0.35447 0.14792 0.0
C242 C 0.50891 0.3379 0.20865 0.0
C243 C 0.47643 0.33794 0.20817 0.0
C244 C 0.45984 0.32789 0.23591 0.0
C245 C 0.4755 0.31811 0.26491 0.0
C246 C 0.50811 0.31686 0.26439 0.0
C247 C 0.52462 0.3267 0.23653 0.0
P248 P 0.25822 0.19014 0.96384 0.0
H249 H 0.29482 0.15909 0.01374 0.0
H250 H 0.30019 0.10702 0.02216 0.0
H251 H 0.24191 0.08541 0.9318 0.0
H252 H 0.23675 0.13722 0.92356 0.0
H253 H 0.31581 0.21901 0.94588 0.0
H254 H 0.33733 0.23145 0.89031 0.0
H255 H 0.25696 0.19293 0.83637 0.0
H256 H 0.23597 0.18019 0.89178 0.0
H257 H 0.2092 0.16499 0.00387 0.0
H258 H 0.21668 0.23061 0.93046 0.0
O259 O 0.27526 0.21053 0.99658 0.0
H260 H 0.15312 0.17193 0.00597 0.0
H261 H 0.16037 0.23741 0.9322 0.0
C262 C 0.26539 0.15199 0.968 0.0
C263 C 0.2836 0.14311 0.99546 0.0
C264 C 0.28663 0.11337 0.00028 0.0
C265 C 0.27156 0.0921 0.97758 0.0
C266 C 0.2543 0.10117 0.94935 0.0
C267 C 0.25119 0.13084 0.94469 0.0
C268 C 0.27402 0.19921 0.92298 0.0
C269 C 0.30284 0.2133 0.92207 0.0
C270 C 0.3151 0.2204 0.89032 0.0
C271 C 0.29881 0.21327 0.85894 0.0
C272 C 0.27029 0.19843 0.85999 0.0
C273 C 0.25812 0.19133 0.89171 0.0
C274 C 0.21702 0.19653 0.9661 0.0
C275 C 0.19878 0.18082 0.98808 0.0
C276 C 0.16674 0.18498 0.98949 0.0
C277 C 0.15235 0.20507 0.96903 0.0
C278 C 0.1708 0.22147 0.94783 0.0
C279 C 0.20296 0.21752 0.94676 0.0
P280 P 0.26599 0.60734 0.32458 0.0
H281 H 0.27118 0.54397 0.31482 0.0
H282 H 0.26846 0.50653 0.3557 0.0
H283 H 0.23622 0.57086 0.43583 0.0
H284 H 0.23892 0.60851 0.39436 0.0
H285 H 0.26542 0.67176 0.33079 0.0
H286 H 0.22959 0.7061 0.30832 0.0
H287 H 0.16588 0.63557 0.27841 0.0
H288 H 0.20153 0.60091 0.30279 0.0
H289 H 0.33106 0.60169 0.30503 0.0
H290 H 0.27776 0.64758 0.38674 0.0
O291 O 0.27402 0.59221 0.28466 0.0
H292 H 0.3787 0.62118 0.33203 0.0
H293 H 0.32533 0.66867 0.41306 0.0
C294 C 0.25512 0.579 0.35153 0.0
C295 C 0.2625 0.54993 0.34079 0.0
C296 C 0.26088 0.52845 0.36425 0.0
C297 C 0.25223 0.53576 0.39905 0.0
C298 C 0.24315 0.56465 0.40923 0.0
C299 C 0.24454 0.58612 0.38555 0.0
C300 C 0.23597 0.63367 0.31918 0.0
C301 C 0.24309 0.66363 0.32145 0.0
C302 C 0.22252 0.68342 0.30843 0.0
C303 C 0.19498 0.67345 0.2918 0.0
C304 C 0.18688 0.64375 0.29148 0.0
C305 C 0.20721 0.62401 0.30536 0.0
C306 C 0.30084 0.6237 0.34345 0.0
C307 C 0.32956 0.61651 0.3284 0.0
C308 C 0.35685 0.62793 0.34379 0.0
C309 C 0.35595 0.64692 0.37452 0.0
C310 C 0.32699 0.65402 0.38955 0.0
C311 C 0.29972 0.64214 0.3744 0.0
P312 P 0.87404 0.84808 0.74799 0.0
H313 H 0.8198 0.8858 0.75483 0.0
H314 H 0.8152 0.93827 0.77106 0.0
H315 H 0.91398 0.94836 0.75821 0.0
H316 H 0.9183 0.89597 0.74121 0.0
H317 H 0.86874 0.7865 0.72727 0.0
H318 H 0.85146 0.75963 0.67354 0.0
H319 H 0.85255 0.83974 0.62181 0.0
H320 H 0.86879 0.86672 0.6766 0.0
H321 H 0.89677 0.8661 0.81672 0.0
H322 H 0.93105 0.81593 0.72513 0.0
O323 O 0.84626 0.836 0.77319 0.0
H324 H 0.94546 0.85899 0.84687 0.0
H325 H 0.97985 0.80755 0.75585 0.0
C326 C 0.8695 0.88699 0.74796 0.0
C327 C 0.84031 0.89944 0.75448 0.0
C328 C 0.83773 0.92939 0.76385 0.0
C329 C 0.86436 0.94722 0.76677 0.0
C330 C 0.89308 0.93516 0.7563 0.0
C331 C 0.8956 0.90517 0.74679 0.0
C332 C 0.86954 0.82853 0.70593 0.0
C333 C 0.86593 0.79816 0.70413 0.0
C334 C 0.85629 0.78277 0.67317 0.0
C335 C 0.85027 0.79753 0.64327 0.0
C336 C 0.85641 0.82779 0.64451 0.0
C337 C 0.86585 0.84323 0.67575 0.0
C338 C 0.91022 0.84125 0.76897 0.0
C339 C 0.91474 0.85319 0.80328 0.0
C340 C 0.94254 0.84892 0.82055 0.0
C341 C 0.96637 0.83223 0.80398 0.0
C342 C 0.96194 0.8205 0.76929 0.0
C343 C 0.93399 0.82507 0.75182 0.0
C344 C 0.10748 0.92173 0.1484 0.0
C345 C 0.13856 0.91676 0.13914 0.0
C346 C 0.09958 0.94201 0.17626 0.0
C347 C 0.12333 0.95773 0.19532 0.0
C348 C 0.15478 0.95225 0.18676 0.0
C349 C 0.16204 0.93174 0.15883 0.0
C350 C 0.06578 0.94698 0.18487 0.0
C351 C 0.18072 0.96874 0.20638 0.0
C352 C 0.10187 0.03186 0.23962 0.0
C353 C 0.09856 0.02569 0.27451 0.0
C354 C 0.11025 0.00999 0.21375 0.0
C355 C 0.11517 0.98112 0.22284 0.0
C356 C 0.11183 0.97466 0.25794 0.0
C357 C 0.10365 0.99705 0.28339 0.0
C358 C 0.1135 0.01773 0.17656 0.0
C359 C 0.1168 0.94409 0.26855 0.0
H360 H 0.0892 0.90996 0.13362 0.0
H361 H 0.1861 0.92799 0.15189 0.0
H362 H 0.06131 0.94177 0.21202 0.0
H363 H 0.0598 0.97033 0.18327 0.0
H364 H 0.05013 0.9334 0.16703 0.0
H365 H 0.20397 0.96077 0.19776 0.0
H366 H 0.17909 0.99235 0.2024 0.0
H367 H 0.1786 0.96668 0.23478 0.0
H368 H 0.09739 0.05376 0.23237 0.0
H369 H 0.10147 0.99217 0.31033 0.0
H370 H 0.09655 0.00497 0.15955 0.0
H371 H 0.137 0.01186 0.16675 0.0
H372 H 0.10966 0.04138 0.17398 0.0
H373 H 0.10046 0.92869 0.25407 0.0
H374 H 0.11342 0.94269 0.29696 0.0
H375 H 0.14061 0.93667 0.26167 0.0
C376 C 0.59988 0.68032 0.61632 0.0
C377 C 0.60135 0.65346 0.59604 0.0
C378 C 0.58808 0.68204 0.65038 0.0
C379 C 0.57686 0.65639 0.66409 0.0
C380 C 0.57944 0.62907 0.64423 0.0
C381 C 0.59195 0.6279 0.6106 0.0
C382 C 0.58653 0.71144 0.67115 0.0
C383 C 0.56743 0.60123 0.65773 0.0
C384 C 0.55847 0.65041 0.75961 0.0
C385 C 0.52605 0.65335 0.75963 0.0
C386 C 0.57565 0.65305 0.72913 0.0
C387 C 0.56 0.65817 0.69781 0.0
C388 C 0.52753 0.66254 0.69804 0.0
C389 C 0.51104 0.66043 0.72901 0.0
C390 C 0.61035 0.64897 0.73009 0.0
C391 C 0.50991 0.66792 0.66516 0.0
H392 H 0.60744 0.70011 0.60534 0.0
H393 H 0.59297 0.60705 0.59511 0.0
H394 H 0.56203 0.71857 0.67352 0.0
H395 H 0.59565 0.70989 0.69796 0.0
H396 H 0.59986 0.72847 0.65874 0.0
H397 H 0.57256 0.5816 0.63977 0.0
H398 H 0.57781 0.5982 0.6836 0.0
H399 H 0.54194 0.60274 0.6612 0.0
H400 H 0.57035 0.64477 0.78299 0.0
H401 H 0.48614 0.66354 0.72895 0.0
H402 H 0.6222 0.66623 0.71656 0.0
H403 H 0.61643 0.62759 0.71618 0.0
H404 H 0.61946 0.64948 0.75721 0.0
H405 H 0.51998 0.68683 0.65303 0.0
H406 H 0.48491 0.67221 0.67009 0.0
H407 H 0.51193 0.64853 0.64598 0.0
C408 C 0.82204 0.07269 0.04799 0.0
C409 C 0.80493 0.09618 0.03693 0.0
C410 C 0.8086 0.05242 0.06852 0.0
C411 C 0.7771 0.0555 0.07821 0.0
C412 C 0.75931 0.0786 0.06634 0.0
C413 C 0.7735 0.09883 0.04592 0.0
C414 C 0.82851 0.02816 0.08071 0.0
C415 C 0.72561 0.08239 0.07594 0.0
C416 C 0.74923 0.98556 0.11274 0.0
C417 C 0.75668 0.99099 0.14826 0.0
C418 C 0.75269 0.00749 0.08974 0.0
C419 C 0.76402 0.03536 0.10264 0.0
C420 C 0.76856 0.04177 0.13895 0.0
C421 C 0.76485 0.0195 0.16132 0.0
C422 C 0.74701 -2e-05 0.05128 0.0
C423 C 0.78059 0.0712 0.15384 0.0
H424 H 0.84631 0.07038 0.04122 0.0
H425 H 0.76009 0.11689 0.03743 0.0
H426 H 0.83022 0.03036 0.10961 0.0
H427 H 0.81778 0.00657 0.07286 0.0
H428 H 0.85234 0.02834 0.06994 0.0
H429 H 0.71411 0.09925 0.06132 0.0
H430 H 0.71291 0.06138 0.07077 0.0
H431 H 0.7237 0.08902 0.10425 0.0
H432 H 0.74231 0.96372 0.10259 0.0
H433 H 0.77087 0.02393 0.18865 0.0
H434 H 0.76956 0.99606 0.03798 0.0
H435 H 0.73549 0.01832 0.03939 0.0
H436 H 0.73253 0.97997 0.04633 0.0
H437 H 0.80558 0.07307 0.14762 0.0
H438 H 0.77799 0.07425 0.18263 0.0
H439 H 0.76833 0.08918 0.14208 0.0
C440 C 0.47931 0.33551 0.6186 0.0
C441 C 0.46193 0.31384 0.59918 0.0
C442 C 0.51137 0.33237 0.62343 0.0
C443 C 0.52646 0.30705 0.60832 0.0
C444 C 0.50882 0.28445 0.59022 0.0
C445 C 0.47675 0.28806 0.58599 0.0
C446 C 0.52932 0.35681 0.64327 0.0
C447 C 0.52405 0.25714 0.57367 0.0
C448 C 0.61047 0.31642 0.58279 0.0
C449 C 0.62643 0.30413 0.60984 0.0
C450 C 0.57799 0.31708 0.58181 0.0
C451 C 0.56091 0.30543 0.60873 0.0
C452 C 0.57676 0.29278 0.63601 0.0
C453 C 0.60935 0.29221 0.63619 0.0
C454 C 0.56194 0.3307 0.55219 0.0
C455 C 0.55931 0.28018 0.66516 0.0
H456 H 0.46803 0.35537 0.62919 0.0
H457 H 0.46355 0.27113 0.57103 0.0
H458 H 0.54442 0.348 0.66331 0.0
H459 H 0.54461 0.36756 0.62508 0.0
H460 H 0.51384 0.37365 0.65629 0.0
H461 H 0.50681 0.24045 0.56348 0.0
H462 H 0.53883 0.26287 0.55174 0.0
H463 H 0.53935 0.24735 0.59278 0.0
H464 H 0.62339 0.32621 0.56269 0.0
H465 H 0.62146 0.28239 0.65699 0.0
H466 H 0.54823 0.34988 0.56259 0.0
H467 H 0.54552 0.31479 0.53869 0.0
H468 H 0.57857 0.33795 0.53273 0.0
H469 H 0.54514 0.29748 0.67926 0.0
H470 H 0.57507 0.27074 0.68417 0.0
H471 H 0.54311 0.26285 0.65433 0.0
C472 C 0.63077 0.56921 0.37459 0.0
C473 C 0.60868 0.58221 0.39754 0.0
C474 C 0.62201 0.54821 0.34764 0.0
C475 C 0.5904 0.54012 0.34349 0.0
C476 C 0.56781 0.55425 0.36543 0.0
C477 C 0.57723 0.5751 0.39221 0.0
C478 C 0.64675 0.53367 0.32466 0.0
C479 C 0.53385 0.54638 0.3617 0.0
C480 C 0.56512 0.49521 0.26042 0.0
C481 C 0.5656 0.46678 0.27121 0.0
C482 C 0.57299 0.51944 0.28368 0.0
C483 C 0.58139 0.51502 0.31847 0.0
C484 C 0.5815 0.48641 0.32957 0.0
C485 C 0.57357 0.46267 0.30582 0.0
C486 C 0.57263 0.54966 0.271 0.0
C487 C 0.5901 0.48082 0.36653 0.0
H488 H 0.65509 0.5747 0.37836 0.0
H489 H 0.55992 0.5853 0.40952 0.0
H490 H 0.64876 0.51035 0.32994 0.0
H491 H 0.64033 0.53419 0.29676 0.0
H492 H 0.66978 0.54429 0.32912 0.0
H493 H 0.51896 0.56156 0.37824 0.0
H494 H 0.52623 0.54663 0.33414 0.0
H495 H 0.53014 0.52386 0.36934 0.0
H496 H 0.55915 0.49845 0.23363 0.0
H497 H 0.57341 0.4408 0.31446 0.0
H498 H 0.5962 0.55942 0.27337 0.0
H499 H 0.55703 0.56412 0.28748 0.0
H500 H 0.56484 0.54945 0.2434 0.0
H501 H 0.61402 0.48876 0.37256 0.0
H502 H 0.58884 0.45725 0.37101 0.0
H503 H 0.57437 0.49311 0.38515 0.0
C504 C 0.96548 0.2192 0.97533 0.0
C505 C 0.95467 0.19057 0.97775 0.0
C506 C 0.99729 0.22488 0.97136 0.0
C507 C 0.01859 0.20136 0.96949 0.0
C508 C 0.00754 0.17234 0.97016 0.0
C509 C 0.9758 0.16734 0.97437 0.0
C510 C 0.00823 0.2561 0.97075 0.0
C511 C 0.0294 0.14658 0.96781 0.0
C512 C 0.1014 0.20706 0.93766 0.0
C513 C 0.11808 0.20799 0.96915 0.0
C514 C 0.06882 0.20637 0.93733 0.0
C515 C 0.05263 0.20682 0.96927 0.0
C516 C 0.06937 0.20935 0.00119 0.0
C517 C 0.10189 0.20977 0.00072 0.0
C518 C 0.05184 0.20351 0.90278 0.0
C519 C 0.05299 0.21019 0.03583 0.0
H520 H 0.94929 0.23726 0.97793 0.0
H521 H 0.96758 0.14512 0.97577 0.0
H522 H 0.02164 0.26259 0.9949 0.0
H523 H 0.02395 0.25821 0.94839 0.0
H524 H 0.98863 0.27156 0.96895 0.0
H525 H 0.01688 0.12531 0.96624 0.0
H526 H 0.0444 0.14708 0.94457 0.0
H527 H 0.0448 0.14787 0.99111 0.0
H528 H 0.11384 0.20549 0.91318 0.0
H529 H 0.11472 0.21093 0.02512 0.0
H530 H 0.03255 0.21944 0.90285 0.0
H531 H 0.04151 0.18131 0.89843 0.0
H532 H 0.06742 0.20697 0.88062 0.0
H533 H 0.03445 0.22694 0.03715 0.0
H534 H 0.06913 0.21508 0.05821 0.0
H535 H 0.04177 0.18873 0.03861 0.0
C536 C 0.29022 0.41686 0.53638 0.0
C537 C 0.31972 0.40617 0.52679 0.0
C538 C 0.27544 0.43784 0.51762 0.0
C539 C 0.29053 0.44839 0.48864 0.0
C540 C 0.32012 0.43749 0.47861 0.0
C541 C 0.33432 0.41651 0.49776 0.0
C542 C 0.24383 0.4489 0.52894 0.0
C543 C 0.33696 0.44819 0.4478 0.0
C544 C 0.24849 0.4847 0.4172 0.0
C545 C 0.25671 0.51412 0.42516 0.0
C546 C 0.25782 0.46314 0.43878 0.0
C547 C 0.27588 0.47126 0.46894 0.0
C548 C 0.28255 0.50114 0.47827 0.0
C549 C 0.27285 0.52223 0.45627 0.0
C550 C 0.24994 0.43153 0.42818 0.0
C551 C 0.30173 0.51067 0.51023 0.0
H552 H 0.27867 0.40891 0.55867 0.0
H553 H 0.35702 0.40833 0.49002 0.0
H554 H 0.24495 0.47278 0.53637 0.0
H555 H 0.22707 0.44542 0.50698 0.0
H556 H 0.23485 0.43786 0.55144 0.0
H557 H 0.35967 0.43722 0.44316 0.0
H558 H 0.32254 0.44429 0.42387 0.0
H559 H 0.34101 0.47213 0.45217 0.0
H560 H 0.23571 0.4784 0.39337 0.0
H561 H 0.2796 0.54488 0.46239 0.0
H562 H 0.24061 0.42079 0.45067 0.0
H563 H 0.27129 0.41965 0.41956 0.0
H564 H 0.23271 0.42923 0.40653 0.0
H565 H 0.29274 0.5006 0.53337 0.0
H566 H 0.30196 0.53482 0.51592 0.0
H567 H 0.32597 0.50314 0.50622 0.0
C568 C 0.11215 0.80997 0.92821 0.0
C569 C 0.11656 0.83771 0.9459 0.0
C570 C 0.09333 0.80635 0.89827 0.0
C571 C 0.07804 0.83093 0.88651 0.0
C572 C 0.08505 0.85929 0.90211 0.0
C573 C 0.10454 0.86236 0.93145 0.0
C574 C 0.08758 0.77593 0.88128 0.0
C575 C 0.06925 0.88611 0.89035 0.0
C576 C 0.02459 0.83 0.80756 0.0
C577 C 0.99555 0.82759 0.82335 0.0
C578 C 0.05209 0.82928 0.82728 0.0
C579 C 0.05029 0.82675 0.86362 0.0
C580 C 0.02111 0.82272 0.87921 0.0
C581 C 0.99422 0.82275 0.85878 0.0
C582 C 0.08282 0.83266 0.80951 0.0
C583 C 0.01804 0.81994 0.91792 0.0
H584 H 0.122 0.79089 0.93885 0.0
H585 H 0.10812 0.88391 0.94476 0.0
H586 H 0.06514 0.76761 0.89041 0.0
H587 H 0.08613 0.77607 0.85249 0.0
H588 H 0.1061 0.76054 0.88796 0.0
H589 H 0.08012 0.90668 0.90207 0.0
H590 H 0.06992 0.88608 0.86156 0.0
H591 H 0.04452 0.88598 0.89814 0.0
H592 H 0.02584 0.83367 0.78015 0.0
H593 H 0.97191 0.81993 0.87089 0.0
H594 H 0.10087 0.81883 0.82047 0.0
H595 H 0.09062 0.85575 0.81372 0.0
H596 H 0.08099 0.82682 0.78094 0.0
H597 H 0.03211 0.80135 0.92568 0.0
H598 H 0.99364 0.81649 0.92575 0.0
H599 H 0.02696 0.84007 0.93278 0.0
C600 C 0.84301 0.10037 0.87964 0.0
C601 C 0.8655 0.10214 0.90622 0.0
C602 C 0.84422 0.07837 0.85207 0.0
C603 C 0.86818 0.05734 0.85151 0.0
C604 C 0.89209 0.0602 0.877 0.0
C605 C 0.89061 0.08278 0.90395 0.0
C606 C 0.81869 0.07647 0.82495 0.0
C607 C 0.91791 0.03808 0.87747 0.0
C608 C 0.84755 0.97979 0.81807 0.0
C609 C 0.86302 0.97658 0.78604 0.0
C610 C 0.84871 0.00613 0.83919 0.0
C611 C 0.86557 0.03006 0.82793 0.0
C612 C 0.88045 0.02736 0.79511 0.0
C613 C 0.87924 0.00048 0.77462 0.0
C614 C 0.83273 0.00798 0.87416 0.0
C615 C 0.89816 0.05261 0.78206 0.0
H616 H 0.82384 0.11566 0.88099 0.0
H617 H 0.90812 0.08413 0.92437 0.0
H618 H 0.82838 0.07174 0.79843 0.0
H619 H 0.80273 0.05826 0.82978 0.0
H620 H 0.805 0.09698 0.82557 0.0
H621 H 0.93661 0.04534 0.89627 0.0
H622 H 0.90838 0.01703 0.88496 0.0
H623 H 0.92814 0.03388 0.85117 0.0
H624 H 0.83555 0.96121 0.82739 0.0
H625 H 0.89121 0.99803 0.74986 0.0
H626 H 0.81581 0.02619 0.87594 0.0
H627 H 0.85006 0.01266 0.89538 0.0
H628 H 0.82028 0.98745 0.87879 0.0
H629 H 0.8835 0.07251 0.78347 0.0
H630 H 0.90609 0.04779 0.75477 0.0
H631 H 0.91874 0.05771 0.79895 0.0
C632 C 0.38759 0.29542 0.44626 0.0
C633 C 0.40359 0.31413 0.47104 0.0
C634 C 0.39673 0.29267 0.4111 0.0
C635 C 0.42261 0.3088 0.40067 0.0
C636 C 0.43917 0.32724 0.42574 0.0
C637 C 0.42938 0.32977 0.46049 0.0
C638 C 0.37838 0.273 0.38502 0.0
C639 C 0.46704 0.34467 0.41578 0.0
C640 C 0.46793 0.2901 0.31765 0.0
C641 C 0.45837 0.31232 0.29712 0.0
C642 C 0.45513 0.28751 0.35072 0.0
C643 C 0.43209 0.3075 0.36346 0.0
C644 C 0.42088 0.32871 0.34194 0.0
C645 C 0.43425 0.33096 0.30914 0.0
C646 C 0.46766 0.26455 0.37286 0.0
C647 C 0.39621 0.35035 0.35447 0.0
H648 H 0.36756 0.28336 0.4542 0.0
H649 H 0.44205 0.34413 0.47946 0.0
H650 H 0.36773 0.28623 0.36531 0.0
H651 H 0.39394 0.25692 0.37087 0.0
H652 H 0.3597 0.26097 0.39755 0.0
H653 H 0.47803 0.35715 0.43866 0.0
H654 H 0.48463 0.32986 0.40294 0.0
H655 H 0.46005 0.36032 0.39677 0.0
H656 H 0.48616 0.27527 0.30832 0.0
H657 H 0.42689 0.34844 0.29378 0.0
H658 H 0.44842 0.25261 0.3844 0.0
H659 H 0.48154 0.27531 0.39475 0.0
H660 H 0.48266 0.24851 0.35772 0.0
H661 H 0.37655 0.33898 0.36601 0.0
H662 H 0.38719 0.36284 0.3331 0.0
H663 H 0.40603 0.36611 0.37517 0.0
C664 C 0.1938 0.94653 0.00576 0.0
C665 C 0.2099 0.92363 0.01966 0.0
C666 C 0.20918 0.97177 0.99718 0.0
C667 C 0.24164 0.9742 0.00224 0.0
C668 C 0.25841 0.95048 0.01422 0.0
C669 C 0.2423 0.92542 0.02293 0.0
C670 C 0.19034 0.99647 0.98433 0.0
C671 C 0.2931 0.9521 0.01934 0.0
C672 C 0.27299 0.03851 0.95811 0.0
C673 C 0.27081 0.06093 0.98517 0.0
C674 C 0.26633 0.00937 0.96395 0.0
C675 C 0.25699 0.00263 0.99754 0.0
C676 C 0.25726 0.0248 0.02553 0.0
C677 C 0.26421 0.05368 0.01901 0.0
C678 C 0.26694 0.98627 0.93359 0.0
C679 C 0.24743 0.01856 0.06177 0.0
H680 H 0.16882 0.9452 0.00262 0.0
H681 H 0.25496 0.90776 0.03346 0.0
H682 H 0.19181 0.01591 0.00355 0.0
H683 H 0.19978 0.00292 0.95935 0.0
H684 H 0.16551 0.99053 0.98028 0.0
H685 H 0.30322 0.93037 0.02323 0.0
H686 H 0.3044 0.96092 0.99661 0.0
H687 H 0.29865 0.96723 0.04262 0.0
H688 H 0.27863 0.04395 0.93202 0.0
H689 H 0.26231 0.07089 0.04001 0.0
H690 H 0.24285 0.98123 0.92464 0.0
H691 H 0.27727 0.96571 0.94147 0.0
H692 H 0.28021 0.99362 0.91126 0.0
H693 H 0.22204 0.01453 0.06191 0.0
H694 H 0.25285 0.03707 0.08143 0.0
H695 H 0.25899 0.99862 0.06974 0.0
C696 C 0.52103 0.69284 0.46512 0.0
C697 C 0.53473 0.66561 0.46869 0.0
C698 C 0.491 0.6946 0.45101 0.0
C699 C 0.47499 0.66853 0.43938 0.0
C700 C 0.48906 0.64105 0.44252 0.0
C701 C 0.51855 0.63995 0.45755 0.0
C702 C 0.47635 0.7242 0.44873 0.0
C703 C 0.47315 0.61272 0.4296 0.0
C704 C 0.38841 0.65941 0.42816 0.0
C705 C 0.38532 0.65767 0.39169 0.0
C706 C 0.41718 0.66557 0.44437 0.0
C707 C 0.44358 0.6694 0.42359 0.0
C708 C 0.44029 0.66955 0.38701 0.0
C709 C 0.41112 0.66403 0.37155 0.0
C710 C 0.41968 0.66584 0.48355 0.0
C711 C 0.46796 0.67323 0.3639 0.0
H712 H 0.53358 0.71268 0.47379 0.0
H713 H 0.52932 0.61886 0.45981 0.0
H714 H 0.47087 0.72755 0.42116 0.0
H715 H 0.45414 0.72533 0.46317 0.0
H716 H 0.49164 0.74233 0.45957 0.0
H717 H 0.48773 0.59327 0.43319 0.0
H718 H 0.45106 0.61041 0.44372 0.0
H719 H 0.4674 0.61286 0.40147 0.0
H720 H 0.36878 0.65442 0.44407 0.0
H721 H 0.40879 0.66361 0.34345 0.0
H722 H 0.43448 0.6843 0.4944 0.0
H723 H 0.43074 0.64529 0.49045 0.0
H724 H 0.39661 0.66763 0.49623 0.0
H725 H 0.48236 0.69212 0.3742 0.0
H726 H 0.46101 0.67643 0.33664 0.0
H727 H 0.4827 0.65343 0.36357 0.0
C728 C 0.3518 0.39957 0.69372 0.0
C729 C 0.37081 0.40007 0.66428 0.0
C730 C 0.35686 0.41912 0.7234 0.0
C731 C 0.38165 0.43944 0.72371 0.0
C732 C 0.40129 0.4396 0.69439 0.0
C733 C 0.39558 0.42001 0.66504 0.0
C734 C 0.33537 0.41841 0.75412 0.0
C735 C 0.42818 0.46074 0.69382 0.0
C736 C 0.38138 0.51123 0.78032 0.0
C737 C 0.40268 0.5057 0.80667 0.0
C738 C 0.37311 0.48937 0.75415 0.0
C739 C 0.38668 0.46132 0.75407 0.0
C740 C 0.40711 0.45516 0.78141 0.0
C741 C 0.41478 0.47739 0.80745 0.0
C742 C 0.35107 0.49677 0.72557 0.0
C743 C 0.42204 0.4255 0.78224 0.0
H744 H 0.33264 0.38421 0.69341 0.0
H745 H 0.41059 0.42037 0.64259 0.0
H746 H 0.34887 0.41562 0.77824 0.0
H747 H 0.32292 0.43953 0.75826 0.0
H748 H 0.31799 0.40047 0.75037 0.0
H749 H 0.44192 0.45733 0.66949 0.0
H750 H 0.41946 0.48354 0.69619 0.0
H751 H 0.4438 0.45835 0.71641 0.0
H752 H 0.3722 0.53308 0.77911 0.0
H753 H 0.43087 0.47278 0.82801 0.0
H754 H 0.33252 0.47998 0.72175 0.0
H755 H 0.36381 0.49684 0.70061 0.0
H756 H 0.34013 0.51853 0.73129 0.0
H757 H 0.40423 0.40796 0.77919 0.0
H758 H 0.43512 0.4234 0.80685 0.0
H759 H 0.43828 0.42184 0.76005 0.0
C760 C 0.05082 0.81329 0.10064 0.0
C761 C 0.05782 0.8341 0.07715 0.0
C762 C 0.023 0.81478 0.11952 0.0
C763 C 0.00182 0.83767 0.11484 0.0
C764 C 0.00814 0.85789 0.09 0.0
C765 C 0.03598 0.85582 0.07145 0.0
C766 C 0.01697 0.79267 0.14558 0.0
C767 C 0.9862 0.88265 0.08423 0.0
C768 C 0.91844 0.83847 0.14587 0.0
C769 C 0.92038 0.85795 0.176 0.0
C770 C 0.94506 0.83035 0.12659 0.0
C771 C 0.97421 0.84216 0.13759 0.0
C772 C 0.97649 0.86078 0.1688 0.0
C773 C 0.94959 0.86832 0.1877 0.0
C774 C 0.94178 0.81024 0.0936 0.0
C775 C 0.00719 0.87379 0.18143 0.0
H776 H 0.0675 0.79639 0.10516 0.0
H777 H 0.04105 0.87195 0.05327 0.0
H778 H 0.01987 0.80332 0.1724 0.0
H779 H 0.99282 0.78433 0.1431 0.0
H780 H 0.03314 0.77385 0.1423 0.0
H781 H 0.99351 0.89531 0.06232 0.0
H782 H 0.96244 0.87408 0.0787 0.0
H783 H 0.98505 0.89781 0.10827 0.0
H784 H 0.89596 0.83048 0.13651 0.0
H785 H 0.95135 0.88285 0.21137 0.0
H786 H 0.95927 0.79253 0.09311 0.0
H787 H 0.94608 0.82274 0.07065 0.0
H788 H 0.91831 0.80023 0.09084 0.0
H789 H 0.02431 0.85616 0.18438 0.0
H790 H 0.00518 0.88718 0.20677 0.0
H791 H 0.01653 0.88783 0.16185 0.0
C792 C 0.72025 0.57375 0.51478 0.0
C793 C 0.68776 0.57191 0.51307 0.0
C794 C 0.73794 0.55092 0.52679 0.0
C795 C 0.72273 0.52576 0.53723 0.0
C796 C 0.68997 0.52398 0.53596 0.0
C797 C 0.67293 0.54705 0.52398 0.0
C798 C 0.77283 0.55356 0.52799 0.0
C799 C 0.67283 0.49751 0.54693 0.0
C800 C 0.75861 0.45074 0.53695 0.0
C801 C 0.76149 0.44783 0.5728 0.0
C802 C 0.74824 0.47697 0.52474 0.0
C803 C 0.74063 0.50078 0.54901 0.0
C804 C 0.74593 0.49874 0.58506 0.0
C805 C 0.75626 0.47222 0.59654 0.0
C806 C 0.74295 0.47829 0.48609 0.0
C807 C 0.73842 0.52374 0.61172 0.0
H808 H 0.7319 0.59293 0.50654 0.0
H809 H 0.64786 0.54543 0.52294 0.0
H810 H 0.78151 0.55068 0.55467 0.0
H811 H 0.78323 0.53597 0.51024 0.0
H812 H 0.78104 0.57503 0.52025 0.0
H813 H 0.64727 0.49972 0.54467 0.0
H814 H 0.68008 0.47767 0.5305 0.0
H815 H 0.67871 0.49401 0.57436 0.0
H816 H 0.76243 0.43192 0.51848 0.0
H817 H 0.75895 0.47017 0.62425 0.0
H818 H 0.75198 0.49912 0.47743 0.0
H819 H 0.71768 0.47749 0.48045 0.0
H820 H 0.75415 0.45978 0.47048 0.0
H821 H 0.7473 0.54472 0.60333 0.0
H822 H 0.74832 0.5204 0.6378 0.0
H823 H 0.71288 0.52574 0.61423 0.0
C824 C 0.90695 0.20268 0.11861 0.0
C825 C 0.89572 0.17629 0.10195 0.0
C826 C 0.9206 0.20362 0.15194 0.0
C827 C 0.92317 0.17755 0.16891 0.0
C828 C 0.91056 0.15115 0.15296 0.0
C829 C 0.89692 0.15086 0.11977 0.0
C830 C 0.93347 0.23224 0.16832 0.0
C831 C 0.91281 0.12286 0.1702 0.0
C832 C 0.99014 0.16774 0.23098 0.0
C833 C 0.97542 0.17031 0.26349 0.0
C834 C 0.97355 0.17102 0.20014 0.0
C835 C 0.94141 0.17712 0.2018 0.0
C836 C 0.92659 0.18081 0.23461 0.0
C837 C 0.94376 0.17721 0.2651 0.0
C838 C 0.99018 0.16671 0.16566 0.0
C839 C 0.89244 0.18763 0.2374 0.0
H840 H 0.90592 0.2225 0.10522 0.0
H841 H 0.88805 0.1304 0.10734 0.0
H842 H 0.92547 0.23628 0.19565 0.0
H843 H 0.95916 0.2312 0.16902 0.0
H844 H 0.92655 0.25105 0.15367 0.0
H845 H 0.89985 0.10473 0.15555 0.0
H846 H 0.93749 0.11638 0.17206 0.0
H847 H 0.90367 0.12578 0.19715 0.0
H848 H 0.01447 0.16194 0.22948 0.0
H849 H 0.93235 0.17944 0.2902 0.0
H850 H 0.9864 0.18581 0.15035 0.0
H851 H 0.98063 0.1472 0.15012 0.0
H852 H 0.01554 0.16364 0.16899 0.0
H853 H 0.88674 0.20667 0.22263 0.0
H854 H 0.88505 0.19244 0.26489 0.0
H855 H 0.87875 0.16874 0.22565 0.0
C856 C 0.13833 0.77968 0.14909 0.0
C857 C 0.16607 0.79337 0.14095 0.0
C858 C 0.137 0.76185 0.17686 0.0
C859 C 0.16445 0.75665 0.19566 0.0
C860 C 0.19238 0.77111 0.18794 0.0
C861 C 0.19268 0.78979 0.16096 0.0
C862 C 0.10654 0.74783 0.18523 0.0
C863 C 0.22233 0.76561 0.20682 0.0
C864 C 0.17061 0.72119 0.28067 0.0
C865 C 0.17915 0.6927 0.26855 0.0
C866 C 0.16298 0.74183 0.25713 0.0
C867 C 0.16508 0.7339 0.22084 0.0
C868 C 0.17171 0.70461 0.20863 0.0
C869 C 0.17828 0.68426 0.23272 0.0
C870 C 0.15473 0.77255 0.27108 0.0
C871 C 0.17473 0.69535 0.17017 0.0
H872 H 0.11773 0.78283 0.13358 0.0
H873 H 0.21408 0.80041 0.15432 0.0
H874 H 0.10689 0.72429 0.17587 0.0
H875 H 0.10282 0.74933 0.21384 0.0
H876 H 0.08663 0.75819 0.17266 0.0
H877 H 0.24179 0.77911 0.19818 0.0
H878 H 0.21942 0.77041 0.23534 0.0
H879 H 0.22872 0.74219 0.20212 0.0
H880 H 0.17133 0.72765 0.30844 0.0
H881 H 0.18535 0.66233 0.22336 0.0
H882 H 0.13527 0.78103 0.25589 0.0
H883 H 0.17494 0.78719 0.26851 0.0
H884 H 0.14816 0.77365 0.29903 0.0
H885 H 0.15394 0.7019 0.15569 0.0
H886 H 0.17785 0.67135 0.16498 0.0
H887 H 0.19503 0.70651 0.1596 0.0
C888 C 0.71589 0.70706 0.55984 0.0
C889 C 0.71423 0.69981 0.5238 0.0
C890 C 0.74139 0.72246 0.57488 0.0
C891 C 0.76551 0.73131 0.55322 0.0
C892 C 0.76412 0.72384 0.51681 0.0
C893 C 0.73857 0.70789 0.50253 0.0
C894 C 0.74228 0.72962 0.61394 0.0
C895 C 0.7891 0.7334 0.49289 0.0
C896 C 0.80859 0.79592 0.59763 0.0
C897 C 0.83339 0.78208 0.61326 0.0
C898 C 0.78771 0.77994 0.57534 0.0
C899 C 0.79142 0.74932 0.56903 0.0
C900 C 0.81785 0.73564 0.58218 0.0
C901 C 0.83873 0.75228 0.60385 0.0
C902 C 0.76019 0.79545 0.56108 0.0
C903 C 0.82265 0.70304 0.57598 0.0
H904 H 0.69722 0.70062 0.57634 0.0
H905 H 0.73723 0.70249 0.47457 0.0
H906 H 0.76419 0.72158 0.62492 0.0
H907 H 0.7417 0.75368 0.62008 0.0
H908 H 0.72249 0.71981 0.6272 0.0
H909 H 0.78538 0.72446 0.46542 0.0
H910 H 0.78959 0.75763 0.49378 0.0
H911 H 0.81219 0.72633 0.50174 0.0
H912 H 0.80404 0.81886 0.60474 0.0
H913 H 0.8583 0.74155 0.61507 0.0
H914 H 0.7391 0.79025 0.57576 0.0
H915 H 0.75604 0.78793 0.53326 0.0
H916 H 0.76339 0.81958 0.5634 0.0
H917 H 0.80574 0.6916 0.59172 0.0
H918 H 0.8464 0.69651 0.58344 0.0
H919 H 0.81848 0.69543 0.5482 0.0
C920 C 0.74668 0.21301 0.0335 0.0
C921 C 0.7771 0.22168 0.04267 0.0
C922 C 0.72109 0.2267 0.05004 0.0
C923 C 0.72594 0.2498 0.0763 0.0
C924 C 0.75655 0.25831 0.08626 0.0
C925 C 0.78182 0.24404 0.06942 0.0
C926 C 0.68882 0.21679 0.03889 0.0
C927 C 0.76258 0.28294 0.11409 0.0
C928 C 0.65978 0.30378 0.08985 0.0
C929 C 0.64529 0.29441 0.11952 0.0
C930 C 0.68646 0.28988 0.07607 0.0
C931 C 0.69885 0.2658 0.0921 0.0
C932 C 0.68447 0.25626 0.12212 0.0
C933 C 0.65791 0.27073 0.13553 0.0
C934 C 0.7011 0.30067 0.04398 0.0
C935 C 0.69695 0.23057 0.1398 0.0
H936 H 0.74279 0.19551 0.01316 0.0
H937 H 0.80523 0.25084 0.07671 0.0
H938 H 0.67539 0.21099 0.06183 0.0
H939 H 0.67638 0.2349 0.02756 0.0
H940 H 0.68905 0.19758 0.01924 0.0
H941 H 0.78769 0.28599 0.11998 0.0
H942 H 0.75322 0.30366 0.10549 0.0
H943 H 0.75042 0.27867 0.13847 0.0
H944 H 0.64995 0.32174 0.07697 0.0
H945 H 0.64714 0.26362 0.15874 0.0
H946 H 0.69988 0.2833 0.0221 0.0
H947 H 0.72598 0.30575 0.049 0.0
H948 H 0.68952 0.32055 0.03567 0.0
H949 H 0.69617 0.21058 0.1214 0.0
H950 H 0.68358 0.22638 0.16346 0.0
H951 H 0.72157 0.23448 0.14737 0.0
C952 C 0.31124 0.27947 0.67846 0.0
C953 C 0.3402 0.27816 0.66202 0.0
C954 C 0.3067 0.26724 0.71014 0.0
C955 C 0.33179 0.25351 0.726 0.0
C956 C 0.361 0.2517 0.70939 0.0
C957 C 0.36485 0.26399 0.67748 0.0
C958 C 0.27511 0.26943 0.72692 0.0
C959 C 0.38829 0.23734 0.72568 0.0
C960 C 0.32283 0.25055 0.82349 0.0
C961 C 0.31066 0.22235 0.82535 0.0
C962 C 0.33126 0.2605 0.79141 0.0
C963 C 0.32732 0.24183 0.76045 0.0
C964 C 0.31634 0.21291 0.76229 0.0
C965 C 0.30817 0.2035 0.79475 0.0
C966 C 0.34294 0.29149 0.79048 0.0
C967 C 0.3119 0.19235 0.72984 0.0
H968 H 0.29201 0.29025 0.66665 0.0
H969 H 0.38734 0.26301 0.66501 0.0
H970 H 0.26648 0.24731 0.7316 0.0
H971 H 0.27679 0.28228 0.75264 0.0
H972 H 0.2578 0.28001 0.71064 0.0
H973 H 0.4091 0.23669 0.70877 0.0
H974 H 0.39425 0.24945 0.75106 0.0
H975 H 0.3822 0.21466 0.73105 0.0
H976 H 0.32455 0.26533 0.84697 0.0
H977 H 0.29929 0.18151 0.79612 0.0
H978 H 0.32547 0.30461 0.77747 0.0
H979 H 0.36457 0.29183 0.77507 0.0
H980 H 0.34755 0.3022 0.81702 0.0
H981 H 0.29301 0.20056 0.71362 0.0
H982 H 0.30587 0.16981 0.73601 0.0
H983 H 0.33326 0.19146 0.71389 0.0
C984 C 0.65524 0.6991 0.36968 0.0
C985 C 0.64965 0.71015 0.40422 0.0
C986 C 0.66616 0.71741 0.34497 0.0
C987 C 0.67202 0.74728 0.35527 0.0
C988 C 0.66425 0.75893 0.38935 0.0
C989 C 0.65292 0.74027 0.41331 0.0
C990 C 0.67337 0.70437 0.30859 0.0
C991 C 0.67025 0.79066 0.40144 0.0
C992 C 0.74005 0.78629 0.31861 0.0
C993 C 0.72526 0.80659 0.29894 0.0
C994 C 0.72296 0.76592 0.33571 0.0
C995 C 0.69024 0.76546 0.3326 0.0
C996 C 0.67527 0.78444 0.31076 0.0
C997 C 0.69298 0.80496 0.29429 0.0
C998 C 0.73988 0.74603 0.35873 0.0
C999 C 0.64049 0.78415 0.30626 0.0
H1000 H 0.65231 0.67592 0.36228 0.0
H1001 H 0.64843 0.74911 0.43982 0.0
H1002 H 0.66555 0.71907 0.28886 0.0
H1003 H 0.69881 0.7017 0.3058 0.0
H1004 H 0.66226 0.6826 0.30283 0.0
H1005 H 0.66019 0.79689 0.42752 0.0
H1006 H 0.69563 0.79471 0.40293 0.0
H1007 H 0.66045 0.80514 0.38255 0.0
H1008 H 0.76507 0.78693 0.32152 0.0
H1009 H 0.68139 0.82058 0.27911 0.0
H1010 H 0.7332 0.72291 0.3517 0.0
H1011 H 0.73327 0.7515 0.38635 0.0
H1012 H 0.76548 0.74799 0.35671 0.0
H1013 H 0.63164 0.76138 0.30202 0.0
H1014 H 0.63302 0.79645 0.28403 0.0
H1015 H 0.62959 0.79433 0.33035 0.0
C1016 C 0.84986 0.25408 0.90996 0.0
C1017 C 0.83624 0.22629 0.91014 0.0
C1018 C 0.84776 0.26994 0.88035 0.0
C1019 C 0.83139 0.25777 0.85052 0.0
C1020 C 0.81747 0.22982 0.85068 0.0
C1021 C 0.8202 0.2144 0.88036 0.0
C1022 C 0.86314 0.29956 0.88086 0.0
C1023 C 0.79958 0.21616 0.81949 0.0
C1024 C 0.79653 0.30274 0.78229 0.0
C1025 C 0.81622 0.29579 0.75396 0.0
C1026 C 0.80225 0.29195 0.81472 0.0
C1027 C 0.8284 0.27398 0.81888 0.0
C1028 C 0.84944 0.26849 0.79102 0.0
C1029 C 0.84299 0.27934 0.75877 0.0
C1030 C 0.77913 0.29811 0.84371 0.0
C1031 C 0.87778 0.24972 0.7946 0.0
H1032 H 0.86246 0.26332 0.93279 0.0
H1033 H 0.8095 0.19298 0.88024 0.0
H1034 H 0.88027 0.29954 0.85948 0.0
H1035 H 0.84561 0.31647 0.87626 0.0
H1036 H 0.87517 0.30586 0.90602 0.0
H1037 H 0.78985 0.19438 0.82404 0.0
H1038 H 0.78022 0.23067 0.81305 0.0
H1039 H 0.8149 0.21359 0.79639 0.0
H1040 H 0.77567 0.31526 0.77858 0.0
H1041 H 0.85845 0.27428 0.73699 0.0
H1042 H 0.79118 0.30519 0.86858 0.0
H1043 H 0.76616 0.27777 0.84776 0.0
H1044 H 0.76221 0.31523 0.83778 0.0
H1045 H 0.89045 0.25653 0.81915 0.0
H1046 H 0.89388 0.25083 0.77232 0.0
H1047 H 0.87055 0.2266 0.79583 0.0
C1048 C 0.26002 0.29782 0.51071 0.0
C1049 C 0.28195 0.28211 0.52857 0.0
C1050 C 0.23499 0.28352 0.49295 0.0
C1051 C 0.23153 0.25288 0.49367 0.0
C1052 C 0.25356 0.23694 0.51174 0.0
C1053 C 0.27866 0.2517 0.52868 0.0
C1054 C 0.2123 0.30114 0.47338 0.0
C1055 C 0.25042 0.2043 0.51355 0.0
C1056 C 0.15241 0.21766 0.47701 0.0
C1057 C 0.15596 0.20413 0.44324 0.0
C1058 C 0.17667 0.23403 0.49358 0.0
C1059 C 0.20488 0.23733 0.47564 0.0
C1060 C 0.20814 0.22453 0.44105 0.0
C1061 C 0.18372 0.20782 0.42538 0.0
C1062 C 0.17251 0.24694 0.53068 0.0
C1063 C 0.23762 0.22802 0.42084 0.0
H1064 H 0.26259 0.32131 0.51034 0.0
H1065 H 0.29541 0.23945 0.54262 0.0
H1066 H 0.21114 0.29242 0.44559 0.0
H1067 H 0.18872 0.29919 0.4843 0.0
H1068 H 0.21871 0.32468 0.47464 0.0
H1069 H 0.26925 0.19523 0.52918 0.0
H1070 H 0.22782 0.19919 0.52529 0.0
H1071 H 0.25078 0.19301 0.48688 0.0
H1072 H 0.131 0.21458 0.49088 0.0
H1073 H 0.18631 0.19754 0.39912 0.0
H1074 H 0.17713 0.27082 0.53259 0.0
H1075 H 0.18949 0.23706 0.54796 0.0
H1076 H 0.14879 0.24322 0.54053 0.0
H1077 H 0.24374 0.25153 0.42083 0.0
H1078 H 0.23561 0.21846 0.3934 0.0
H1079 H 0.25706 0.21715 0.43358 0.0
C1080 C 0.22877 0.7734 0.98257 0.0
C1081 C 0.23336 0.79143 0.01355 0.0
C1082 C 0.2528 0.75592 0.96792 0.0
C1083 C 0.28214 0.75639 0.98464 0.0
C1084 C 0.28716 0.77497 0.01549 0.0
C1085 C 0.26275 0.7923 0.02953 0.0
C1086 C 0.2466 0.73651 0.93487 0.0
C1087 C 0.31814 0.77606 0.03409 0.0
C1088 C 0.33355 0.68966 0.9679 0.0
C1089 C 0.35462 0.69899 0.94349 0.0
C1090 C 0.30995 0.70817 0.98157 0.0
C1091 C 0.30726 0.7367 0.97051 0.0
C1092 C 0.32842 0.74628 0.94589 0.0
C1093 C 0.35186 0.72732 0.9327 0.0
C1094 C 0.2878 0.69713 0.00775 0.0
C1095 C 0.32631 0.77656 0.93351 0.0
H1096 H 0.20624 0.77267 0.96988 0.0
H1097 H 0.2666 0.80617 0.05342 0.0
H1098 H 0.2637 0.74113 0.91462 0.0
H1099 H 0.24938 0.71323 0.94002 0.0
H1100 H 0.2229 0.73953 0.92433 0.0
H1101 H 0.31863 0.79248 0.05704 0.0
H1102 H 0.3235 0.75427 0.04303 0.0
H1103 H 0.33679 0.78141 0.01594 0.0
H1104 H 0.33522 0.66767 0.97598 0.0
H1105 H 0.3683 0.73482 0.91419 0.0
H1106 H 0.26372 0.69747 0.99747 0.0
H1107 H 0.28852 0.71172 0.03228 0.0
H1108 H 0.29328 0.67451 0.01397 0.0
H1109 H 0.30325 0.77966 0.92145 0.0
H1110 H 0.3445 0.78063 0.91417 0.0
H1111 H 0.32863 0.79325 0.95601 0.0
loop_
_geom_bond_atom_site_label_1
_geom_bond_atom_site_label_2
_geom_bond_distance
_geom_bond_site_symmetry_2
_ccdc_geom_bond_type
Fe0 O2 1.918 . S
Fe0 O5 1.997 . S
Fe0 O6 2.002 . S
Fe0 O11 1.976 . S
Fe0 O14 1.996 . S
Fe1 O2 1.918 . S
Fe1 O9 1.997 . S
Fe1 O12 1.996 . S
Fe1 O16 1.963 1_554 S
Fe1 O19 2.002 . S
O2 Fe0 1.918 . S
O2 Fe1 1.918 . S
O2 Fe3 1.918 . S
Fe3 O2 1.918 . S
Fe3 O4 2.002 . S
Fe3 O13 1.976 . S
Fe3 O17 1.996 1_554 S
Fe3 O20 1.997 . S
O4 Fe3 2.002 . S
O4 C21 1.295 . S
O5 Fe0 1.997 . S
O5 C21 1.235 . S
O6 Fe0 2.002 . S
O6 C7 1.295 . S
C7 O6 1.295 . S
C7 O9 1.235 . S
C8 O13 1.287 . S
C8 O14 1.255 . S
O9 Fe1 1.997 . S
O9 C7 1.235 . S
C10 O16 1.292 . S
C10 O17 1.255 . S
O11 Fe0 1.976 . S
O11 C18 1.287 . S
O12 Fe1 1.996 . S
O12 C18 1.255 . S
O13 Fe3 1.976 . S
O13 C8 1.287 . S
O14 Fe0 1.996 . S
O14 C8 1.255 . S
C15 O19 1.295 . S
C15 O20 1.235 . S
O16 Fe1 1.963 1_556 S
O16 C10 1.292 . S
O17 Fe3 1.996 1_556 S
O17 C10 1.255 . S
C18 O11 1.287 . S
C18 O12 1.255 . S
O19 Fe1 2.002 . S
O19 C15 1.295 . S
O20 Fe3 1.997 . S
O20 C15 1.235 . S
C21 O4 1.295 . S
C21 O5 1.235 . S
Fe22 O24 1.918 . S
Fe22 O27 1.997 . S
Fe22 O28 2.002 . S
Fe22 O33 1.976 . S
Fe22 O36 1.996 . S
Fe23 O24 1.918 . S
Fe23 O31 1.997 . S
Fe23 O34 1.996 . S
Fe23 O38 1.976 . S
Fe23 O41 2.002 . S
O24 Fe22 1.918 . S
O24 Fe23 1.918 . S
O24 Fe25 1.918 . S
Fe25 O24 1.918 . S
Fe25 O26 2.002 . S
Fe25 O35 1.976 . S
Fe25 O39 1.996 . S
Fe25 O42 1.997 . S
O26 Fe25 2.002 . S
O26 C43 1.295 . S
O27 Fe22 1.997 . S
O27 C43 1.235 . S
O28 Fe22 2.002 . S
O28 C29 1.295 . S
C29 O28 1.295 . S
C29 O31 1.235 . S
C30 O35 1.287 . S
C30 O36 1.255 . S
O31 Fe23 1.997 . S
O31 C29 1.235 . S
C32 O38 1.287 . S
C32 O39 1.255 . S
O33 Fe22 1.976 . S
O33 C40 1.287 . S
O34 Fe23 1.996 . S
O34 C40 1.255 . S
O35 Fe25 1.976 . S
O35 C30 1.287 . S
O36 Fe22 1.996 . S
O36 C30 1.255 . S
C37 O41 1.295 . S
C37 O42 1.235 . S
O38 Fe23 1.976 . S
O38 C32 1.287 . S
O39 Fe25 1.996 . S
O39 C32 1.255 . S
C40 O33 1.287 . S
C40 O34 1.255 . S
O41 Fe23 2.002 . S
O41 C37 1.295 . S
O42 Fe25 1.997 . S
O42 C37 1.235 . S
C43 O26 1.295 . S
C43 O27 1.235 . S
Fe44 O46 1.918 . S
Fe44 O49 1.997 1_554 S
Fe44 O50 2.002 1_554 S
Fe44 O55 1.976 . S
Fe44 O58 1.996 . S
Fe45 O46 1.918 . S
Fe45 O53 1.997 1_554 S
Fe45 O56 1.996 . S
Fe45 O60 1.976 . S
Fe45 O63 2.002 1_554 S
O46 Fe44 1.918 . S
O46 Fe45 1.918 . S
O46 Fe47 1.918 1_554 S
Fe47 O46 1.918 1_556 S
Fe47 O48 2.002 . S
Fe47 O57 1.976 1_556 S
Fe47 O61 1.996 1_556 S
Fe47 O64 1.997 . S
O48 Fe47 2.002 . S
O48 C65 1.295 . S
O49 Fe44 1.997 1_556 S
O49 C65 1.235 . S
O50 Fe44 2.002 1_556 S
O50 C51 1.295 . S
C51 O50 1.295 . S
C51 O53 1.235 . S
C52 O57 1.287 . S
C52 O58 1.255 . S
O53 Fe45 1.997 1_556 S
O53 C51 1.235 . S
C54 O60 1.287 . S
C54 O61 1.255 . S
O55 Fe44 1.976 . S
O55 C62 1.287 . S
O56 Fe45 1.996 . S
O56 C62 1.255 . S
O57 Fe47 1.976 1_554 S
O57 C52 1.287 . S
O58 Fe44 1.996 . S
O58 C52 1.255 . S
C59 O63 1.295 . S
C59 O64 1.235 . S
O60 Fe45 1.976 . S
O60 C54 1.287 . S
O61 Fe47 1.996 1_554 S
O61 C54 1.255 . S
C62 O55 1.287 . S
C62 O56 1.255 . S
O63 Fe45 2.002 1_556 S
O63 C59 1.295 . S
O64 Fe47 1.997 . S
O64 C59 1.235 . S
C65 O48 1.295 . S
C65 O49 1.235 . S
Fe66 O68 1.918 . S
Fe66 O71 1.997 . S
Fe66 O72 2.002 . S
Fe66 O77 1.976 . S
Fe66 O80 1.996 . S
Fe67 O68 1.918 . S
Fe67 O75 1.997 . S
Fe67 O78 1.996 . S
Fe67 O82 1.976 . S
Fe67 O85 2.002 . S
O68 Fe66 1.918 . S
O68 Fe67 1.918 . S
O68 Fe69 1.918 . S
Fe69 O68 1.918 . S
Fe69 O70 2.002 . S
Fe69 O79 1.976 . S
Fe69 O83 1.996 . S
Fe69 O86 1.997 . S
O70 Fe69 2.002 . S
O70 C87 1.295 . S
O71 Fe66 1.997 . S
O71 C87 1.235 . S
O72 Fe66 2.002 . S
O72 C73 1.295 . S
C73 O72 1.295 . S
C73 O75 1.235 . S
C74 O79 1.287 . S
C74 O80 1.255 . S
O75 Fe67 1.997 . S
O75 C73 1.235 . S
C76 O82 1.287 . S
C76 O83 1.255 . S
O77 Fe66 1.976 . S
O77 C84 1.287 . S
O78 Fe67 1.996 . S
O78 C84 1.255 . S
O79 Fe69 1.976 . S
O79 C74 1.287 . S
O80 Fe66 1.996 . S
O80 C74 1.255 . S
C81 O85 1.295 . S
C81 O86 1.235 . S
O82 Fe67 1.976 . S
O82 C76 1.287 . S
O83 Fe69 1.996 . S
O83 C76 1.255 . S
C84 O77 1.287 . S
C84 O78 1.255 . S
O85 Fe67 2.002 . S
O85 C81 1.295 . S
O86 Fe69 1.997 . S
O86 C81 1.235 . S
C87 O70 1.295 . S
C87 O71 1.235 . S
P88 O99 1.490 . S
P88 C102 1.812 . S
P88 C108 1.803 . S
P88 C114 1.819 . S
H89 C103 0.941 . S
H90 C104 0.939 . S
H91 C106 0.940 . S
H92 C107 0.940 . S
H93 C109 0.939 . S
H94 C110 0.942 . S
H95 C112 0.940 . S
H96 C113 0.939 . S
H97 C115 0.941 1_655 S
H98 C119 0.939 . S
O99 P88 1.490 . S
H100 C116 0.939 . S
H101 C118 0.940 . S
C102 P88 1.812 . S
C102 C103 1.389 . S
C102 C107 1.391 . S
C103 H89 0.941 . S
C103 C102 1.389 . S
C103 C104 1.397 . S
C104 H90 0.939 . S
C104 C103 1.397 . S
C104 C105 1.378 . S
C105 C104 1.378 . S
C105 C106 1.378 . S
C106 H91 0.940 . S
C106 C105 1.378 . S
C106 C107 1.396 . S
C107 H92 0.940 . S
C107 C102 1.391 . S
C107 C106 1.396 . S
C108 P88 1.803 . S
C108 C109 1.378 . S
C108 C113 1.400 . S
C109 H93 0.939 . S
C109 C108 1.378 . S
C109 C110 1.361 . S
C110 H94 0.942 . S
C110 C109 1.361 . S
C110 C111 1.369 . S
C111 C110 1.369 . S
C111 C112 1.404 . S
C112 H95 0.940 . S
C112 C111 1.404 . S
C112 C113 1.389 . S
C113 H96 0.939 . S
C113 C108 1.400 . S
C113 C112 1.389 . S
C114 P88 1.819 . S
C114 C115 1.391 . S
C114 C119 1.391 . S
C115 H97 0.941 1_455 S
C115 C114 1.391 . S
C115 C116 1.396 1_455 S
C116 H100 0.939 . S
C116 C115 1.396 1_655 S
C116 C117 1.397 . S
C117 C116 1.397 . S
C117 C118 1.385 1_655 S
C118 H101 0.940 . S
C118 C117 1.385 1_455 S
C118 C119 1.388 . S
C119 H98 0.939 . S
C119 C114 1.391 . S
C119 C118 1.388 . S
P120 O131 1.490 . S
P120 C134 1.812 . S
P120 C140 1.803 . S
P120 C146 1.819 . S
H121 C135 0.941 . S
H122 C136 0.939 . S
H123 C138 0.940 . S
H124 C139 0.940 . S
H125 C141 0.939 . S
H126 C142 0.942 . S
H127 C144 0.940 . S
H128 C145 0.939 . S
H129 C147 0.941 . S
H130 C151 0.939 . S
O131 P120 1.490 . S
H132 C148 0.939 . S
H133 C150 0.940 . S
C134 P120 1.812 . S
C134 C135 1.389 . S
C134 C139 1.391 . S
C135 H121 0.941 . S
C135 C134 1.389 . S
C135 C136 1.397 . S
C136 H122 0.939 . S
C136 C135 1.397 . S
C136 C137 1.378 . S
C137 C136 1.378 . S
C137 C138 1.378 . S
C138 H123 0.940 . S
C138 C137 1.378 . S
C138 C139 1.396 . S
C139 H124 0.940 . S
C139 C134 1.391 . S
C139 C138 1.396 . S
C140 P120 1.803 . S
C140 C141 1.378 . S
C140 C145 1.400 . S
C141 H125 0.939 . S
C141 C140 1.378 . S
C141 C142 1.361 . S
C142 H126 0.942 . S
C142 C141 1.361 . S
C142 C143 1.369 . S
C143 C142 1.369 . S
C143 C144 1.404 . S
C144 H127 0.940 . S
C144 C143 1.404 . S
C144 C145 1.389 . S
C145 H128 0.939 . S
C145 C140 1.400 . S
C145 C144 1.389 . S
C146 P120 1.819 . S
C146 C147 1.391 . S
C146 C151 1.391 . S
C147 H129 0.941 . S
C147 C146 1.391 . S
C147 C148 1.396 . S
C148 H132 0.939 . S
C148 C147 1.396 . S
C148 C149 1.397 . S
C149 C148 1.397 . S
C149 C150 1.385 . S
C150 H133 0.940 . S
C150 C149 1.385 . S
C150 C151 1.388 . S
C151 H130 0.939 . S
C151 C146 1.391 . S
C151 C150 1.388 . S
P152 O163 1.490 . S
P152 C166 1.812 . S
P152 C172 1.803 . S
P152 C178 1.819 . S
H153 C167 0.941 . S
H154 C168 0.939 . S
H155 C170 0.940 . S
H156 C171 0.940 . S
H157 C173 0.939 . S
H158 C174 0.942 . S
H159 C176 0.940 . S
H160 C177 0.939 . S
H161 C179 0.941 . S
H162 C183 0.939 . S
O163 P152 1.490 . S
H164 C180 0.939 . S
H165 C182 0.940 . S
C166 P152 1.812 . S
C166 C167 1.389 . S
C166 C171 1.391 . S
C167 H153 0.941 . S
C167 C166 1.389 . S
C167 C168 1.397 . S
C168 H154 0.939 . S
C168 C167 1.397 . S
C168 C169 1.378 . S
C169 C168 1.378 . S
C169 C170 1.378 . S
C170 H155 0.940 . S
C170 C169 1.378 . S
C170 C171 1.396 . S
C171 H156 0.940 . S
C171 C166 1.391 . S
C171 C170 1.396 . S
C172 P152 1.803 . S
C172 C173 1.378 . S
C172 C177 1.400 . S
C173 H157 0.939 . S
C173 C172 1.378 . S
C173 C174 1.361 . S
C174 H158 0.942 . S
C174 C173 1.361 . S
C174 C175 1.369 . S
C175 C174 1.369 . S
C175 C176 1.404 . S
C176 H159 0.940 . S
C176 C175 1.404 . S
C176 C177 1.389 . S
C177 H160 0.939 . S
C177 C172 1.400 . S
C177 C176 1.389 . S
C178 P152 1.819 . S
C178 C179 1.391 . S
C178 C183 1.391 . S
C179 H161 0.941 . S
C179 C178 1.391 . S
C179 C180 1.396 . S
C180 H164 0.939 . S
C180 C179 1.396 . S
C180 C181 1.397 . S
C181 C180 1.397 . S
C181 C182 1.385 . S
C182 H165 0.940 . S
C182 C181 1.385 . S
C182 C183 1.388 . S
C183 H162 0.939 . S
C183 C178 1.391 . S
C183 C182 1.388 . S
P184 O195 1.490 . S
P184 C198 1.812 . S
P184 C204 1.803 . S
P184 C210 1.819 . S
H185 C199 0.941 . S
H186 C200 0.939 . S
H187 C202 0.940 . S
H188 C203 0.940 . S
H189 C205 0.939 . S
H190 C206 0.942 . S
H191 C208 0.940 . S
H192 C209 0.939 . S
H193 C211 0.941 . S
H194 C215 0.939 . S
O195 P184 1.490 . S
H196 C212 0.939 . S
H197 C214 0.940 . S
C198 P184 1.812 . S
C198 C199 1.389 . S
C198 C203 1.391 . S
C199 H185 0.941 . S
C199 C198 1.389 . S
C199 C200 1.397 . S
C200 H186 0.939 . S
C200 C199 1.397 . S
C200 C201 1.378 . S
C201 C200 1.378 . S
C201 C202 1.378 . S
C202 H187 0.940 . S
C202 C201 1.378 . S
C202 C203 1.396 . S
C203 H188 0.940 . S
C203 C198 1.391 . S
C203 C202 1.396 . S
C204 P184 1.803 . S
C204 C205 1.378 . S
C204 C209 1.400 . S
C205 H189 0.939 . S
C205 C204 1.378 . S
C205 C206 1.361 . S
C206 H190 0.942 . S
C206 C205 1.361 . S
C206 C207 1.369 . S
C207 C206 1.369 . S
C207 C208 1.404 . S
C208 H191 0.940 . S
C208 C207 1.404 . S
C208 C209 1.389 . S
C209 H192 0.939 . S
C209 C204 1.400 . S
C209 C208 1.389 . S
C210 P184 1.819 . S
C210 C211 1.391 . S
C210 C215 1.391 . S
C211 H193 0.941 . S
C211 C210 1.391 . S
C211 C212 1.396 . S
C212 H196 0.939 . S
C212 C211 1.396 . S
C212 C213 1.397 . S
C213 C212 1.397 . S
C213 C214 1.385 . S
C214 H197 0.940 . S
C214 C213 1.385 . S
C214 C215 1.388 . S
C215 H194 0.939 . S
C215 C210 1.391 . S
C215 C214 1.388 . S
P216 O227 1.490 . S
P216 C230 1.812 . S
P216 C236 1.803 . S
P216 C242 1.819 . S
H217 C231 0.941 . S
H218 C232 0.939 . S
H219 C234 0.940 . S
H220 C235 0.940 . S
H221 C237 0.939 . S
H222 C238 0.942 . S
H223 C240 0.940 . S
H224 C241 0.939 . S
H225 C243 0.941 . S
H226 C247 0.939 . S
O227 P216 1.490 . S
H228 C244 0.939 . S
H229 C246 0.940 . S
C230 P216 1.812 . S
C230 C231 1.389 . S
C230 C235 1.391 . S
C231 H217 0.941 . S
C231 C230 1.389 . S
C231 C232 1.397 . S
C232 H218 0.939 . S
C232 C231 1.397 . S
C232 C233 1.378 . S
C233 C232 1.378 . S
C233 C234 1.378 . S
C234 H219 0.940 . S
C234 C233 1.378 . S
C234 C235 1.396 . S
C235 H220 0.940 . S
C235 C230 1.391 . S
C235 C234 1.396 . S
C236 P216 1.803 . S
C236 C237 1.378 . S
C236 C241 1.400 . S
C237 H221 0.939 . S
C237 C236 1.378 . S
C237 C238 1.361 . S
C238 H222 0.942 . S
C238 C237 1.361 . S
C238 C239 1.369 . S
C239 C238 1.369 . S
C239 C240 1.404 . S
C240 H223 0.940 . S
C240 C239 1.404 . S
C240 C241 1.389 . S
C241 H224 0.939 . S
C241 C236 1.400 . S
C241 C240 1.389 . S
C242 P216 1.819 . S
C242 C243 1.391 . S
C242 C247 1.391 . S
C243 H225 0.941 . S
C243 C242 1.391 . S
C243 C244 1.396 . S
C244 H228 0.939 . S
C244 C243 1.396 . S
C244 C245 1.397 . S
C245 C244 1.397 . S
C245 C246 1.385 . S
C246 H229 0.940 . S
C246 C245 1.385 . S
C246 C247 1.388 . S
C247 H226 0.939 . S
C247 C242 1.391 . S
C247 C246 1.388 . S
P248 O259 1.490 . S
P248 C262 1.812 . S
P248 C268 1.803 . S
P248 C274 1.819 . S
H249 C263 0.941 . S
H250 C264 0.939 . S
H251 C266 0.940 . S
H252 C267 0.940 . S
H253 C269 0.939 . S
H254 C270 0.942 . S
H255 C272 0.940 . S
H256 C273 0.939 . S
H257 C275 0.941 1_554 S
H258 C279 0.939 . S
O259 P248 1.490 . S
H260 C276 0.939 1_554 S
H261 C278 0.940 . S
C262 P248 1.812 . S
C262 C263 1.389 . S
C262 C267 1.391 . S
C263 H249 0.941 . S
C263 C262 1.389 . S
C263 C264 1.397 . S
C264 H250 0.939 . S
C264 C263 1.397 . S
C264 C265 1.378 . S
C265 C264 1.378 . S
C265 C266 1.378 . S
C266 H251 0.940 . S
C266 C265 1.378 . S
C266 C267 1.396 . S
C267 H252 0.940 . S
C267 C262 1.391 . S
C267 C266 1.396 . S
C268 P248 1.803 . S
C268 C269 1.378 . S
C268 C273 1.400 . S
C269 H253 0.939 . S
C269 C268 1.378 . S
C269 C270 1.361 . S
C270 H254 0.942 . S
C270 C269 1.361 . S
C270 C271 1.369 . S
C271 C270 1.369 . S
C271 C272 1.404 . S
C272 H255 0.940 . S
C272 C271 1.404 . S
C272 C273 1.389 . S
C273 H256 0.939 . S
C273 C268 1.400 . S
C273 C272 1.389 . S
C274 P248 1.819 . S
C274 C275 1.391 . S
C274 C279 1.391 . S
C275 H257 0.941 1_556 S
C275 C274 1.391 . S
C275 C276 1.396 . S
C276 H260 0.939 1_556 S
C276 C275 1.396 . S
C276 C277 1.397 . S
C277 C276 1.397 . S
C277 C278 1.385 . S
C278 H261 0.940 . S
C278 C277 1.385 . S
C278 C279 1.388 . S
C279 H258 0.939 . S
C279 C274 1.391 . S
C279 C278 1.388 . S
P280 O291 1.490 . S
P280 C294 1.812 . S
P280 C300 1.803 . S
P280 C306 1.819 . S
H281 C295 0.941 . S
H282 C296 0.939 . S
H283 C298 0.940 . S
H284 C299 0.940 . S
H285 C301 0.939 . S
H286 C302 0.942 . S
H287 C304 0.940 . S
H288 C305 0.939 . S
H289 C307 0.941 . S
H290 C311 0.939 . S
O291 P280 1.490 . S
H292 C308 0.939 . S
H293 C310 0.940 . S
C294 P280 1.812 . S
C294 C295 1.389 . S
C294 C299 1.391 . S
C295 H281 0.941 . S
C295 C294 1.389 . S
C295 C296 1.397 . S
C296 H282 0.939 . S
C296 C295 1.397 . S
C296 C297 1.378 . S
C297 C296 1.378 . S
C297 C298 1.378 . S
C298 H283 0.940 . S
C298 C297 1.378 . S
C298 C299 1.396 . S
C299 H284 0.940 . S
C299 C294 1.391 . S
C299 C298 1.396 . S
C300 P280 1.803 . S
C300 C301 1.378 . S
C300 C305 1.400 . S
C301 H285 0.939 . S
C301 C300 1.378 . S
C301 C302 1.361 . S
C302 H286 0.942 . S
C302 C301 1.361 . S
C302 C303 1.369 . S
C303 C302 1.369 . S
C303 C304 1.404 . S
C304 H287 0.940 . S
C304 C303 1.404 . S
C304 C305 1.389 . S
C305 H288 0.939 . S
C305 C300 1.400 . S
C305 C304 1.389 . S
C306 P280 1.819 . S
C306 C307 1.391 . S
C306 C311 1.391 . S
C307 H289 0.941 . S
C307 C306 1.391 . S
C307 C308 1.396 . S
C308 H292 0.939 . S
C308 C307 1.396 . S
C308 C309 1.397 . S
C309 C308 1.397 . S
C309 C310 1.385 . S
C310 H293 0.940 . S
C310 C309 1.385 . S
C310 C311 1.388 . S
C311 H290 0.939 . S
C311 C306 1.391 . S
C311 C310 1.388 . S
P312 O323 1.490 . S
P312 C326 1.812 . S
P312 C332 1.803 . S
P312 C338 1.819 . S
H313 C327 0.941 . S
H314 C328 0.939 . S
H315 C330 0.940 . S
H316 C331 0.940 . S
H317 C333 0.939 . S
H318 C334 0.942 . S
H319 C336 0.940 . S
H320 C337 0.939 . S
H321 C339 0.941 . S
H322 C343 0.939 . S
O323 P312 1.490 . S
H324 C340 0.939 . S
H325 C342 0.940 . S
C326 P312 1.812 . S
C326 C327 1.389 . S
C326 C331 1.391 . S
C327 H313 0.941 . S
C327 C326 1.389 . S
C327 C328 1.397 . S
C328 H314 0.939 . S
C328 C327 1.397 . S
C328 C329 1.378 . S
C329 C328 1.378 . S
C329 C330 1.378 . S
C330 H315 0.940 . S
C330 C329 1.378 . S
C330 C331 1.396 . S
C331 H316 0.940 . S
C331 C326 1.391 . S
C331 C330 1.396 . S
C332 P312 1.803 . S
C332 C333 1.378 . S
C332 C337 1.400 . S
C333 H317 0.939 . S
C333 C332 1.378 . S
C333 C334 1.361 . S
C334 H318 0.942 . S
C334 C333 1.361 . S
C334 C335 1.369 . S
C335 C334 1.369 . S
C335 C336 1.404 . S
C336 H319 0.940 . S
C336 C335 1.404 . S
C336 C337 1.389 . S
C337 H320 0.939 . S
C337 C332 1.400 . S
C337 C336 1.389 . S
C338 P312 1.819 . S
C338 C339 1.391 . S
C338 C343 1.391 . S
C339 H321 0.941 . S
C339 C338 1.391 . S
C339 C340 1.396 . S
C340 H324 0.939 . S
C340 C339 1.396 . S
C340 C341 1.397 . S
C341 C340 1.397 . S
C341 C342 1.385 . S
C342 H325 0.940 . S
C342 C341 1.385 . S
C342 C343 1.388 . S
C343 H322 0.939 . S
C343 C338 1.391 . S
C343 C342 1.388 . S
C344 C345 1.391 . S
C344 C346 1.394 . S
C344 H360 0.931 . S
C345 C344 1.391 . S
C345 C349 1.376 . S
C346 C344 1.394 . S
C346 C347 1.369 . S
C346 C350 1.531 . S
C347 C346 1.369 . S
C347 C348 1.410 . S
C347 C355 1.503 . S
C348 C347 1.410 . S
C348 C349 1.392 . S
C348 C351 1.511 . S
C349 C345 1.376 . S
C349 C348 1.392 . S
C349 H361 0.929 . S
C350 C346 1.531 . S
C350 H362 0.960 . S
C350 H363 0.962 . S
C350 H364 0.960 . S
C351 C348 1.511 . S
C351 H365 0.961 . S
C351 H366 0.961 . S
C351 H367 0.961 . S
C352 C353 1.370 . S
C352 C354 1.363 1_545 S
C352 H368 0.931 . S
C353 C352 1.370 . S
C353 C357 1.408 1_545 S
C354 C352 1.363 1_565 S
C354 C355 1.370 . S
C354 C358 1.532 . S
C355 C347 1.503 . S
C355 C354 1.370 . S
C355 C356 1.403 . S
C356 C355 1.403 . S
C356 C357 1.404 . S
C356 C359 1.539 . S
C357 C353 1.408 1_565 S
C357 C356 1.404 . S
C357 H369 0.930 . S
C358 C354 1.532 . S
C358 H370 0.979 . S
C358 H371 0.964 . S
C358 H372 0.929 1_565 S
C359 C356 1.539 . S
C359 H373 0.958 . S
C359 H374 0.961 . S
C359 H375 0.960 . S
H360 C344 0.931 . S
H361 C349 0.929 . S
H362 C350 0.960 . S
H363 C350 0.962 . S
H364 C350 0.960 . S
H365 C351 0.961 . S
H366 C351 0.961 . S
H367 C351 0.961 . S
H368 C352 0.931 . S
H369 C357 0.930 . S
H370 C358 0.979 . S
H371 C358 0.964 . S
H372 C358 0.929 1_545 S
H373 C359 0.958 . S
H374 C359 0.961 . S
H375 C359 0.960 . S
C376 C377 1.391 . S
C376 C378 1.394 . S
C376 H392 0.931 . S
C377 C376 1.391 . S
C377 C381 1.376 . S
C378 C376 1.394 . S
C378 C379 1.369 . S
C378 C382 1.531 . S
C379 C378 1.369 . S
C379 C380 1.410 . S
C379 C387 1.503 . S
C380 C379 1.410 . S
C380 C381 1.392 . S
C380 C383 1.511 . S
C381 C377 1.376 . S
C381 C380 1.392 . S
C381 H393 0.929 . S
C382 C378 1.531 . S
C382 H394 0.960 . S
C382 H395 0.962 . S
C382 H396 0.960 . S
C383 C380 1.511 . S
C383 H397 0.961 . S
C383 H398 0.961 . S
C383 H399 0.961 . S
C384 C385 1.370 . S
C384 C386 1.363 . S
C384 H400 0.931 . S
C385 C384 1.370 . S
C385 C389 1.408 . S
C386 C384 1.363 . S
C386 C387 1.370 . S
C386 C390 1.524 . S
C387 C379 1.503 . S
C387 C386 1.370 . S
C387 C388 1.403 . S
C388 C387 1.403 . S
C388 C389 1.404 . S
C388 C391 1.539 . S
C389 C385 1.408 . S
C389 C388 1.404 . S
C389 H401 0.930 . S
C390 C386 1.524 . S
C390 H402 0.956 . S
C390 H403 0.961 . S
C390 H404 0.961 . S
C391 C388 1.539 . S
C391 H405 0.958 . S
C391 H406 0.961 . S
C391 H407 0.960 . S
H392 C376 0.931 . S
H393 C381 0.929 . S
H394 C382 0.960 . S
H395 C382 0.962 . S
H396 C382 0.960 . S
H397 C383 0.961 . S
H398 C383 0.961 . S
H399 C383 0.961 . S
H400 C384 0.931 . S
H401 C389 0.930 . S
H402 C390 0.956 . S
H403 C390 0.961 . S
H404 C390 0.961 . S
H405 C391 0.958 . S
H406 C391 0.961 . S
H407 C391 0.960 . S
C408 C409 1.391 . S
C408 C410 1.394 . S
C408 H424 0.931 . S
C409 C408 1.391 . S
C409 C413 1.376 . S
C410 C408 1.394 . S
C410 C411 1.369 . S
C410 C414 1.531 1_545 S
C411 C410 1.369 . S
C411 C412 1.410 . S
C411 C419 1.503 1_545 S
C412 C411 1.410 . S
C412 C413 1.392 . S
C412 C415 1.511 . S
C413 C409 1.376 . S
C413 C412 1.392 . S
C413 H425 0.929 . S
C414 C410 1.531 1_565 S
C414 H426 0.960 . S
C414 H427 0.962 . S
C414 H428 0.960 . S
C415 C412 1.511 . S
C415 H429 0.961 . S
C415 H430 0.961 . S
C415 H431 0.961 . S
C416 C417 1.370 . S
C416 C418 1.363 . S
C416 H432 0.931 . S
C417 C416 1.370 . S
C417 C421 1.408 . S
C418 C416 1.363 . S
C418 C419 1.370 . S
C418 C422 1.524 1_565 S
C419 C411 1.503 1_565 S
C419 C418 1.370 . S
C419 C420 1.403 . S
C420 C419 1.403 . S
C420 C421 1.404 . S
C420 C423 1.539 . S
C421 C417 1.408 . S
C421 C420 1.404 . S
C421 H433 0.930 . S
C422 C418 1.524 1_545 S
C422 H434 0.956 . S
C422 H435 0.961 . S
C422 H436 0.961 1_545 S
C423 C420 1.539 . S
C423 H437 0.958 . S
C423 H438 0.961 . S
C423 H439 0.960 1_565 S
H424 C408 0.931 . S
H425 C413 0.929 . S
H426 C414 0.960 . S
H427 C414 0.962 . S
H428 C414 0.960 . S
H429 C415 0.961 . S
H430 C415 0.961 . S
H431 C415 0.961 . S
H432 C416 0.931 . S
H433 C421 0.930 . S
H434 C422 0.956 . S
H435 C422 0.961 . S
H436 C422 0.961 1_565 S
H437 C423 0.958 . S
H438 C423 0.961 . S
H439 C423 0.960 1_545 S
C440 C441 1.391 . S
C440 C442 1.394 . S
C440 H456 0.931 . S
C441 C440 1.391 . S
C441 C445 1.376 . S
C442 C440 1.394 . S
C442 C443 1.369 . S
C442 C446 1.531 . S
C443 C442 1.369 . S
C443 C444 1.410 . S
C443 C451 1.503 . S
C444 C443 1.410 . S
C444 C445 1.392 . S
C444 C447 1.511 . S
C445 C441 1.376 . S
C445 C444 1.392 . S
C445 H457 0.929 . S
C446 C442 1.531 . S
C446 H458 0.960 . S
C446 H459 0.962 . S
C446 H460 0.960 . S
C447 C444 1.511 . S
C447 H461 0.961 . S
C447 H462 0.961 . S
C447 H463 0.961 . S
C448 C449 1.370 . S
C448 C450 1.363 . S
C448 H464 0.931 . S
C449 C448 1.370 . S
C449 C453 1.408 . S
C450 C448 1.363 . S
C450 C451 1.370 . S
C450 C454 1.524 . S
C451 C443 1.503 . S
C451 C450 1.370 . S
C451 C452 1.403 . S
C452 C451 1.403 . S
C452 C453 1.404 . S
C452 C455 1.539 . S
C453 C449 1.408 . S
C453 C452 1.404 . S
C453 H465 0.930 . S
C454 C450 1.524 . S
C454 H466 0.956 . S
C454 H467 0.961 . S
C454 H468 0.961 . S
C455 C452 1.539 . S
C455 H469 0.958 . S
C455 H470 0.961 . S
C455 H471 0.960 . S
H456 C440 0.931 . S
H457 C445 0.929 . S
H458 C446 0.960 . S
H459 C446 0.962 . S
H460 C446 0.960 . S
H461 C447 0.961 . S
H462 C447 0.961 . S
H463 C447 0.961 . S
H464 C448 0.931 . S
H465 C453 0.930 . S
H466 C454 0.956 . S
H467 C454 0.961 . S
H468 C454 0.961 . S
H469 C455 0.958 . S
H470 C455 0.961 . S
H471 C455 0.960 . S
C472 C473 1.391 . S
C472 C474 1.394 . S
C472 H488 0.931 . S
C473 C472 1.391 . S
C473 C477 1.376 . S
C474 C472 1.394 . S
C474 C475 1.369 . S
C474 C478 1.531 . S
C475 C474 1.369 . S
C475 C476 1.410 . S
C475 C483 1.503 . S
C476 C475 1.410 . S
C476 C477 1.392 . S
C476 C479 1.511 . S
C477 C473 1.376 . S
C477 C476 1.392 . S
C477 H489 0.929 . S
C478 C474 1.531 . S
C478 H490 0.960 . S
C478 H491 0.962 . S
C478 H492 0.960 . S
C479 C476 1.511 . S
C479 H493 0.961 . S
C479 H494 0.961 . S
C479 H495 0.961 . S
C480 C481 1.370 . S
C480 C482 1.363 . S
C480 H496 0.931 . S
C481 C480 1.370 . S
C481 C485 1.408 . S
C482 C480 1.363 . S
C482 C483 1.370 . S
C482 C486 1.524 . S
C483 C475 1.503 . S
C483 C482 1.370 . S
C483 C484 1.403 . S
C484 C483 1.403 . S
C484 C485 1.404 . S
C484 C487 1.539 . S
C485 C481 1.408 . S
C485 C484 1.404 . S
C485 H497 0.930 . S
C486 C482 1.524 . S
C486 H498 0.956 . S
C486 H499 0.961 . S
C486 H500 0.961 . S
C487 C484 1.539 . S
C487 H501 0.958 . S
C487 H502 0.961 . S
C487 H503 0.960 . S
H488 C472 0.931 . S
H489 C477 0.929 . S
H490 C478 0.960 . S
H491 C478 0.962 . S
H492 C478 0.960 . S
H493 C479 0.961 . S
H494 C479 0.961 . S
H495 C479 0.961 . S
H496 C480 0.931 . S
H497 C485 0.930 . S
H498 C486 0.956 . S
H499 C486 0.961 . S
H500 C486 0.961 . S
H501 C487 0.958 . S
H502 C487 0.961 . S
H503 C487 0.960 . S
C504 C505 1.391 . S
C504 C506 1.394 . S
C504 H520 0.931 . S
C505 C504 1.391 . S
C505 C509 1.376 . S
C506 C504 1.394 . S
C506 C507 1.369 1_655 S
C506 C510 1.531 1_655 S
C507 C506 1.369 1_455 S
C507 C508 1.410 . S
C507 C515 1.503 . S
C508 C507 1.410 . S
C508 C509 1.392 1_455 S
C508 C511 1.511 1_556 S
C509 C505 1.376 . S
C509 C508 1.392 1_655 S
C509 H521 0.929 1_556 S
C510 C506 1.531 1_455 S
C510 H522 0.960 . S
C510 H523 0.962 . S
C510 H524 0.960 1_455 S
C511 C508 1.511 1_554 S
C511 H525 0.961 . S
C511 H526 0.961 . S
C511 H527 0.961 . S
C512 C513 1.370 . S
C512 C514 1.363 . S
C512 H528 0.931 . S
C513 C512 1.370 . S
C513 C517 1.408 . S
C514 C512 1.363 . S
C514 C515 1.370 . S
C514 C518 1.524 . S
C515 C507 1.503 . S
C515 C514 1.370 . S
C515 C516 1.403 . S
C516 C515 1.403 . S
C516 C517 1.404 . S
C516 C519 1.539 1_556 S
C517 C513 1.408 . S
C517 C516 1.404 . S
C517 H529 0.930 . S
C518 C514 1.524 . S
C518 H530 0.956 . S
C518 H531 0.961 . S
C518 H532 0.961 . S
C519 C516 1.539 1_554 S
C519 H533 0.958 . S
C519 H534 0.961 . S
C519 H535 0.960 . S
H520 C504 0.931 . S
H521 C509 0.929 1_554 S
H522 C510 0.960 . S
H523 C510 0.962 . S
H524 C510 0.960 1_655 S
H525 C511 0.961 . S
H526 C511 0.961 . S
H527 C511 0.961 . S
H528 C512 0.931 . S
H529 C517 0.930 . S
H530 C518 0.956 . S
H531 C518 0.961 . S
H532 C518 0.961 . S
H533 C519 0.958 . S
H534 C519 0.961 . S
H535 C519 0.960 . S
C536 C537 1.391 . S
C536 C538 1.394 . S
C536 H552 0.931 . S
C537 C536 1.391 . S
C537 C541 1.376 . S
C538 C536 1.394 . S
C538 C539 1.369 . S
C538 C542 1.531 . S
C539 C538 1.369 . S
C539 C540 1.410 . S
C539 C547 1.503 . S
C540 C539 1.410 . S
C540 C541 1.392 . S
C540 C543 1.511 . S
C541 C537 1.376 . S
C541 C540 1.392 . S
C541 H553 0.929 . S
C542 C538 1.531 . S
C542 H554 0.960 . S
C542 H555 0.962 . S
C542 H556 0.960 . S
C543 C540 1.511 . S
C543 H557 0.961 . S
C543 H558 0.961 . S
C543 H559 0.961 . S
C544 C545 1.370 . S
C544 C546 1.363 . S
C544 H560 0.931 . S
C545 C544 1.370 . S
C545 C549 1.408 . S
C546 C544 1.363 . S
C546 C547 1.370 . S
C546 C550 1.524 . S
C547 C539 1.503 . S
C547 C546 1.370 . S
C547 C548 1.403 . S
C548 C547 1.403 . S
C548 C549 1.404 . S
C548 C551 1.539 . S
C549 C545 1.408 . S
C549 C548 1.404 . S
C549 H561 0.930 . S
C550 C546 1.524 . S
C550 H562 0.956 . S
C550 H563 0.961 . S
C550 H564 0.961 . S
C551 C548 1.539 . S
C551 H565 0.958 . S
C551 H566 0.961 . S
C551 H567 0.960 . S
H552 C536 0.931 . S
H553 C541 0.929 . S
H554 C542 0.960 . S
H555 C542 0.962 . S
H556 C542 0.960 . S
H557 C543 0.961 . S
H558 C543 0.961 . S
H559 C543 0.961 . S
H560 C544 0.931 . S
H561 C549 0.930 . S
H562 C550 0.956 . S
H563 C550 0.961 . S
H564 C550 0.961 . S
H565 C551 0.958 . S
H566 C551 0.961 . S
H567 C551 0.960 . S
C568 C569 1.391 . S
C568 C570 1.394 . S
C568 H584 0.931 . S
C569 C568 1.391 . S
C569 C573 1.376 . S
C570 C568 1.394 . S
C570 C571 1.369 . S
C570 C574 1.531 . S
C571 C570 1.369 . S
C571 C572 1.410 . S
C571 C579 1.503 . S
C572 C571 1.410 . S
C572 C573 1.392 . S
C572 C575 1.511 . S
C573 C569 1.376 . S
C573 C572 1.392 . S
C573 H585 0.929 . S
C574 C570 1.531 . S
C574 H586 0.960 . S
C574 H587 0.962 . S
C574 H588 0.960 . S
C575 C572 1.511 . S
C575 H589 0.961 . S
C575 H590 0.961 . S
C575 H591 0.961 . S
C576 C577 1.370 . S
C576 C578 1.363 . S
C576 H592 0.931 . S
C577 C576 1.370 . S
C577 C581 1.430 . S
C578 C576 1.363 . S
C578 C579 1.370 . S
C578 C582 1.524 . S
C579 C571 1.503 . S
C579 C578 1.370 . S
C579 C580 1.403 . S
C580 C579 1.403 . S
C580 C581 1.419 . S
C580 C583 1.539 1_455 S
C581 C577 1.430 . S
C581 C580 1.419 . S
C581 H593 0.894 1_455 S
C582 C578 1.524 . S
C582 H594 0.956 . S
C582 H595 0.961 . S
C582 H596 0.961 . S
C583 C580 1.539 1_655 S
C583 H597 0.958 . S
C583 H598 0.961 . S
C583 H599 0.960 1_655 S
H584 C568 0.931 . S
H585 C573 0.929 . S
H586 C574 0.960 . S
H587 C574 0.962 . S
H588 C574 0.960 . S
H589 C575 0.961 . S
H590 C575 0.961 . S
H591 C575 0.961 . S
H592 C576 0.931 . S
H593 C581 0.894 1_655 S
H594 C582 0.956 . S
H595 C582 0.961 . S
H596 C582 0.961 . S
H597 C583 0.958 . S
H598 C583 0.961 . S
H599 C583 0.960 1_455 S
C600 C601 1.391 . S
C600 C602 1.394 . S
C600 H616 0.931 . S
C601 C600 1.391 . S
C601 C605 1.376 . S
C602 C600 1.394 . S
C602 C603 1.369 . S
C602 C606 1.531 . S
C603 C602 1.369 . S
C603 C604 1.410 . S
C603 C611 1.503 . S
C604 C603 1.410 . S
C604 C605 1.392 . S
C604 C607 1.511 . S
C605 C601 1.376 . S
C605 C604 1.392 . S
C605 H617 0.929 . S
C606 C602 1.531 . S
C606 H618 0.960 . S
C606 H619 0.962 . S
C606 H620 0.960 . S
C607 C604 1.511 . S
C607 H621 0.961 . S
C607 H622 0.961 . S
C607 H623 0.961 . S
C608 C609 1.370 . S
C608 C610 1.363 1_565 S
C608 H624 0.931 . S
C609 C608 1.370 . S
C609 C613 1.408 1_565 S
C610 C608 1.363 1_545 S
C610 C611 1.370 . S
C610 C614 1.524 1_545 S
C611 C603 1.503 . S
C611 C610 1.370 . S
C611 C612 1.403 . S
C612 C611 1.403 . S
C612 C613 1.404 . S
C612 C615 1.539 . S
C613 C609 1.408 1_545 S
C613 C612 1.404 . S
C613 H625 0.930 . S
C614 C610 1.524 1_565 S
C614 H626 0.956 1_565 S
C614 H627 0.961 1_565 S
C614 H628 0.961 . S
C615 C612 1.539 . S
C615 H629 0.958 . S
C615 H630 0.961 . S
C615 H631 0.960 . S
H616 C600 0.931 . S
H617 C605 0.929 . S
H618 C606 0.960 . S
H619 C606 0.962 . S
H620 C606 0.960 . S
H621 C607 0.961 . S
H622 C607 0.961 . S
H623 C607 0.961 . S
H624 C608 0.931 . S
H625 C613 0.930 . S
H626 C614 0.956 1_545 S
H627 C614 0.961 1_545 S
H628 C614 0.961 . S
H629 C615 0.958 . S
H630 C615 0.961 . S
H631 C615 0.960 . S
C632 C633 1.391 . S
C632 C634 1.394 . S
C632 H648 0.931 . S
C633 C632 1.391 . S
C633 C637 1.376 . S
C634 C632 1.394 . S
C634 C635 1.369 . S
C634 C638 1.531 . S
C635 C634 1.369 . S
C635 C636 1.410 . S
C635 C643 1.503 . S
C636 C635 1.410 . S
C636 C637 1.392 . S
C636 C639 1.511 . S
C637 C633 1.376 . S
C637 C636 1.392 . S
C637 H649 0.929 . S
C638 C634 1.531 . S
C638 H650 0.960 . S
C638 H651 0.962 . S
C638 H652 0.960 . S
C639 C636 1.511 . S
C639 H653 0.961 . S
C639 H654 0.961 . S
C639 H655 0.961 . S
C640 C641 1.370 . S
C640 C642 1.363 . S
C640 H656 0.931 . S
C641 C640 1.370 . S
C641 C645 1.408 . S
C642 C640 1.363 . S
C642 C643 1.370 . S
C642 C646 1.524 . S
C643 C635 1.503 . S
C643 C642 1.370 . S
C643 C644 1.403 . S
C644 C643 1.403 . S
C644 C645 1.404 . S
C644 C647 1.539 . S
C645 C641 1.408 . S
C645 C644 1.404 . S
C645 H657 0.930 . S
C646 C642 1.524 . S
C646 H658 0.956 . S
C646 H659 0.961 . S
C646 H660 0.961 . S
C647 C644 1.539 . S
C647 H661 0.958 . S
C647 H662 0.961 . S
C647 H663 0.960 . S
H648 C632 0.931 . S
H649 C637 0.929 . S
H650 C638 0.960 . S
H651 C638 0.962 . S
H652 C638 0.960 . S
H653 C639 0.961 . S
H654 C639 0.961 . S
H655 C639 0.961 . S
H656 C640 0.931 . S
H657 C645 0.930 . S
H658 C646 0.956 . S
H659 C646 0.961 . S
H660 C646 0.961 . S
H661 C647 0.958 . S
H662 C647 0.961 . S
H663 C647 0.960 . S
C664 C665 1.391 . S
C664 C666 1.394 . S
C664 H680 0.931 . S
C665 C664 1.391 . S
C665 C669 1.376 1_554 S
C666 C664 1.394 . S
C666 C667 1.379 . S
C666 C670 1.531 1_565 S
C667 C666 1.379 . S
C667 C668 1.404 1_554 S
C667 C675 1.498 1_564 S
C668 C667 1.404 1_556 S
C668 C669 1.392 . S
C668 C671 1.511 . S
C669 C665 1.376 1_556 S
C669 C668 1.392 . S
C669 H681 0.929 . S
C670 C666 1.531 1_545 S
C670 H682 0.960 . S
C670 H683 0.962 . S
C670 H684 0.960 . S
C671 C668 1.511 . S
C671 H685 0.961 . S
C671 H686 0.961 . S
C671 H687 0.961 . S
C672 C673 1.370 . S
C672 C674 1.363 . S
C672 H688 0.931 . S
C673 C672 1.370 . S
C673 C677 1.408 . S
C674 C672 1.363 . S
C674 C675 1.370 . S
C674 C678 1.538 . S
C675 C667 1.498 1_546 S
C675 C674 1.370 . S
C675 C676 1.403 1_556 S
C676 C675 1.403 1_554 S
C676 C677 1.404 1_554 S
C676 C679 1.539 . S
C677 C673 1.408 . S
C677 C676 1.404 1_556 S
C677 H689 0.930 1_556 S
C678 C674 1.538 . S
C678 H690 0.956 . S
C678 H691 0.930 1_545 S
C678 H692 0.980 . S
C679 C676 1.539 . S
C679 H693 0.958 . S
C679 H694 0.961 . S
C679 H695 0.960 1_545 S
H680 C664 0.931 . S
H681 C669 0.929 . S
H682 C670 0.960 . S
H683 C670 0.962 . S
H684 C670 0.960 . S
H685 C671 0.961 . S
H686 C671 0.961 . S
H687 C671 0.961 . S
H688 C672 0.931 . S
H689 C677 0.930 1_554 S
H690 C678 0.956 . S
H691 C678 0.930 1_565 S
H692 C678 0.980 . S
H693 C679 0.958 . S
H694 C679 0.961 . S
H695 C679 0.960 1_565 S
C696 C697 1.391 . S
C696 C698 1.394 . S
C696 H712 0.931 . S
C697 C696 1.391 . S
C697 C701 1.376 . S
C698 C696 1.394 . S
C698 C699 1.369 . S
C698 C702 1.531 . S
C699 C698 1.369 . S
C699 C700 1.410 . S
C699 C707 1.503 . S
C700 C699 1.410 . S
C700 C701 1.392 . S
C700 C703 1.511 . S
C701 C697 1.376 . S
C701 C700 1.392 . S
C701 H713 0.929 . S
C702 C698 1.531 . S
C702 H714 0.960 . S
C702 H715 0.962 . S
C702 H716 0.960 . S
C703 C700 1.511 . S
C703 H717 0.961 . S
C703 H718 0.961 . S
C703 H719 0.961 . S
C704 C705 1.370 . S
C704 C706 1.363 . S
C704 H720 0.931 . S
C705 C704 1.370 . S
C705 C709 1.408 . S
C706 C704 1.363 . S
C706 C707 1.370 . S
C706 C710 1.524 . S
C707 C699 1.503 . S
C707 C706 1.370 . S
C707 C708 1.403 . S
C708 C707 1.403 . S
C708 C709 1.404 . S
C708 C711 1.539 . S
C709 C705 1.408 . S
C709 C708 1.404 . S
C709 H721 0.930 . S
C710 C706 1.524 . S
C710 H722 0.956 . S
C710 H723 0.961 . S
C710 H724 0.961 . S
C711 C708 1.539 . S
C711 H725 0.958 . S
C711 H726 0.961 . S
C711 H727 0.960 . S
H712 C696 0.931 . S
H713 C701 0.929 . S
H714 C702 0.960 . S
H715 C702 0.962 . S
H716 C702 0.960 . S
H717 C703 0.961 . S
H718 C703 0.961 . S
H719 C703 0.961 . S
H720 C704 0.931 . S
H721 C709 0.930 . S
H722 C710 0.956 . S
H723 C710 0.961 . S
H724 C710 0.961 . S
H725 C711 0.958 . S
H726 C711 0.961 . S
H727 C711 0.960 . S
C728 C729 1.391 . S
C728 C730 1.394 . S
C728 H744 0.931 . S
C729 C728 1.391 . S
C729 C733 1.376 . S
C730 C728 1.394 . S
C730 C731 1.369 . S
C730 C734 1.531 . S
C731 C730 1.369 . S
C731 C732 1.410 . S
C731 C739 1.503 . S
C732 C731 1.410 . S
C732 C733 1.392 . S
C732 C735 1.511 . S
C733 C729 1.376 . S
C733 C732 1.392 . S
C733 H745 0.929 . S
C734 C730 1.531 . S
C734 H746 0.960 . S
C734 H747 0.962 . S
C734 H748 0.960 . S
C735 C732 1.511 . S
C735 H749 0.961 . S
C735 H750 0.961 . S
C735 H751 0.961 . S
C736 C737 1.370 . S
C736 C738 1.363 . S
C736 H752 0.931 . S
C737 C736 1.370 . S
C737 C741 1.408 . S
C738 C736 1.363 . S
C738 C739 1.370 . S
C738 C742 1.524 . S
C739 C731 1.503 . S
C739 C738 1.370 . S
C739 C740 1.403 . S
C740 C739 1.403 . S
C740 C741 1.404 . S
C740 C743 1.539 . S
C741 C737 1.408 . S
C741 C740 1.404 . S
C741 H753 0.930 . S
C742 C738 1.524 . S
C742 H754 0.956 . S
C742 H755 0.961 . S
C742 H756 0.961 . S
C743 C740 1.539 . S
C743 H757 0.958 . S
C743 H758 0.961 . S
C743 H759 0.960 . S
H744 C728 0.931 . S
H745 C733 0.929 . S
H746 C734 0.960 . S
H747 C734 0.962 . S
H748 C734 0.960 . S
H749 C735 0.961 . S
H750 C735 0.961 . S
H751 C735 0.961 . S
H752 C736 0.931 . S
H753 C741 0.930 . S
H754 C742 0.956 . S
H755 C742 0.961 . S
H756 C742 0.961 . S
H757 C743 0.958 . S
H758 C743 0.961 . S
H759 C743 0.960 . S
C760 C761 1.391 . S
C760 C762 1.394 . S
C760 H776 0.931 . S
C761 C760 1.391 . S
C761 C765 1.376 . S
C762 C760 1.394 . S
C762 C763 1.369 1_455 S
C762 C766 1.531 1_455 S
C763 C762 1.369 1_655 S
C763 C764 1.410 . S
C763 C771 1.503 . S
C764 C763 1.410 . S
C764 C765 1.392 1_655 S
C764 C767 1.511 . S
C765 C761 1.376 . S
C765 C764 1.392 1_455 S
C765 H777 0.929 . S
C766 C762 1.531 1_655 S
C766 H778 0.960 . S
C766 H779 0.962 . S
C766 H780 0.960 1_655 S
C767 C764 1.511 . S
C767 H781 0.961 . S
C767 H782 0.961 . S
C767 H783 0.961 . S
C768 C769 1.370 . S
C768 C770 1.363 . S
C768 H784 0.931 . S
C769 C768 1.370 . S
C769 C773 1.408 . S
C770 C768 1.363 . S
C770 C771 1.370 . S
C770 C774 1.524 . S
C771 C763 1.503 . S
C771 C770 1.370 . S
C771 C772 1.403 . S
C772 C771 1.403 . S
C772 C773 1.404 . S
C772 C775 1.539 . S
C773 C769 1.408 . S
C773 C772 1.404 . S
C773 H785 0.930 . S
C774 C770 1.524 . S
C774 H786 0.956 . S
C774 H787 0.961 . S
C774 H788 0.961 . S
C775 C772 1.539 . S
C775 H789 0.958 . S
C775 H790 0.961 . S
C775 H791 0.960 . S
H776 C760 0.931 . S
H777 C765 0.929 . S
H778 C766 0.960 . S
H779 C766 0.962 . S
H780 C766 0.960 1_455 S
H781 C767 0.961 . S
H782 C767 0.961 . S
H783 C767 0.961 . S
H784 C768 0.931 . S
H785 C773 0.930 . S
H786 C774 0.956 . S
H787 C774 0.961 . S
H788 C774 0.961 . S
H789 C775 0.958 . S
H790 C775 0.961 . S
H791 C775 0.960 . S
C792 C793 1.391 . S
C792 C794 1.394 . S
C792 H808 0.931 . S
C793 C792 1.391 . S
C793 C797 1.376 . S
C794 C792 1.394 . S
C794 C795 1.369 . S
C794 C798 1.531 . S
C795 C794 1.369 . S
C795 C796 1.410 . S
C795 C803 1.503 . S
C796 C795 1.410 . S
C796 C797 1.392 . S
C796 C799 1.511 . S
C797 C793 1.376 . S
C797 C796 1.392 . S
C797 H809 0.929 . S
C798 C794 1.531 . S
C798 H810 0.960 . S
C798 H811 0.962 . S
C798 H812 0.960 . S
C799 C796 1.511 . S
C799 H813 0.961 . S
C799 H814 0.961 . S
C799 H815 0.961 . S
C800 C801 1.370 . S
C800 C802 1.363 . S
C800 H816 0.931 . S
C801 C800 1.370 . S
C801 C805 1.408 . S
C802 C800 1.363 . S
C802 C803 1.370 . S
C802 C806 1.524 . S
C803 C795 1.503 . S
C803 C802 1.370 . S
C803 C804 1.403 . S
C804 C803 1.403 . S
C804 C805 1.404 . S
C804 C807 1.539 . S
C805 C801 1.408 . S
C805 C804 1.404 . S
C805 H817 0.930 . S
C806 C802 1.524 . S
C806 H818 0.956 . S
C806 H819 0.961 . S
C806 H820 0.961 . S
C807 C804 1.539 . S
C807 H821 0.958 . S
C807 H822 0.961 . S
C807 H823 0.960 . S
H808 C792 0.931 . S
H809 C797 0.929 . S
H810 C798 0.960 . S
H811 C798 0.962 . S
H812 C798 0.960 . S
H813 C799 0.961 . S
H814 C799 0.961 . S
H815 C799 0.961 . S
H816 C800 0.931 . S
H817 C805 0.930 . S
H818 C806 0.956 . S
H819 C806 0.961 . S
H820 C806 0.961 . S
H821 C807 0.958 . S
H822 C807 0.961 . S
H823 C807 0.960 . S
C824 C825 1.391 . S
C824 C826 1.394 . S
C824 H840 0.931 . S
C825 C824 1.391 . S
C825 C829 1.376 . S
C826 C824 1.394 . S
C826 C827 1.369 . S
C826 C830 1.531 . S
C827 C826 1.369 . S
C827 C828 1.410 . S
C827 C835 1.503 . S
C828 C827 1.410 . S
C828 C829 1.392 . S
C828 C831 1.511 . S
C829 C825 1.376 . S
C829 C828 1.392 . S
C829 H841 0.929 . S
C830 C826 1.531 . S
C830 H842 0.960 . S
C830 H843 0.962 . S
C830 H844 0.960 . S
C831 C828 1.511 . S
C831 H845 0.961 . S
C831 H846 0.961 . S
C831 H847 0.961 . S
C832 C833 1.370 . S
C832 C834 1.363 . S
C832 H848 0.931 . S
C833 C832 1.370 . S
C833 C837 1.408 . S
C834 C832 1.363 . S
C834 C835 1.370 . S
C834 C838 1.524 . S
C835 C827 1.503 . S
C835 C834 1.370 . S
C835 C836 1.403 . S
C836 C835 1.403 . S
C836 C837 1.404 . S
C836 C839 1.539 . S
C837 C833 1.408 . S
C837 C836 1.404 . S
C837 H849 0.930 . S
C838 C834 1.524 . S
C838 H850 0.956 . S
C838 H851 0.961 . S
C838 H852 0.961 . S
C839 C836 1.539 . S
C839 H853 0.958 . S
C839 H854 0.961 . S
C839 H855 0.960 . S
H840 C824 0.931 . S
H841 C829 0.929 . S
H842 C830 0.960 . S
H843 C830 0.962 . S
H844 C830 0.960 . S
H845 C831 0.961 . S
H846 C831 0.961 . S
H847 C831 0.961 . S
H848 C832 0.931 . S
H849 C837 0.930 . S
H850 C838 0.956 . S
H851 C838 0.961 . S
H852 C838 0.961 . S
H853 C839 0.958 . S
H854 C839 0.961 . S
H855 C839 0.960 . S
C856 C857 1.391 . S
C856 C858 1.394 . S
C856 H872 0.931 . S
C857 C856 1.391 . S
C857 C861 1.376 . S
C858 C856 1.394 . S
C858 C859 1.369 . S
C858 C862 1.531 . S
C859 C858 1.369 . S
C859 C860 1.410 . S
C859 C867 1.503 . S
C860 C859 1.410 . S
C860 C861 1.392 . S
C860 C863 1.511 . S
C861 C857 1.376 . S
C861 C860 1.392 . S
C861 H873 0.929 . S
C862 C858 1.531 . S
C862 H874 0.960 . S
C862 H875 0.962 . S
C862 H876 0.960 . S
C863 C860 1.511 . S
C863 H877 0.961 . S
C863 H878 0.961 . S
C863 H879 0.961 . S
C864 C865 1.370 . S
C864 C866 1.363 . S
C864 H880 0.931 . S
C865 C864 1.370 . S
C865 C869 1.408 . S
C866 C864 1.363 . S
C866 C867 1.370 . S
C866 C870 1.524 . S
C867 C859 1.503 . S
C867 C866 1.370 . S
C867 C868 1.403 . S
C868 C867 1.403 . S
C868 C869 1.404 . S
C868 C871 1.539 . S
C869 C865 1.408 . S
C869 C868 1.404 . S
C869 H881 0.930 . S
C870 C866 1.524 . S
C870 H882 0.956 . S
C870 H883 0.961 . S
C870 H884 0.961 . S
C871 C868 1.539 . S
C871 H885 0.958 . S
C871 H886 0.961 . S
C871 H887 0.960 . S
H872 C856 0.931 . S
H873 C861 0.929 . S
H874 C862 0.960 . S
H875 C862 0.962 . S
H876 C862 0.960 . S
H877 C863 0.961 . S
H878 C863 0.961 . S
H879 C863 0.961 . S
H880 C864 0.931 . S
H881 C869 0.930 . S
H882 C870 0.956 . S
H883 C870 0.961 . S
H884 C870 0.961 . S
H885 C871 0.958 . S
H886 C871 0.961 . S
H887 C871 0.960 . S
C888 C889 1.391 . S
C888 C890 1.394 . S
C888 H904 0.931 . S
C889 C888 1.391 . S
C889 C893 1.376 . S
C890 C888 1.394 . S
C890 C891 1.369 . S
C890 C894 1.531 . S
C891 C890 1.369 . S
C891 C892 1.410 . S
C891 C899 1.503 . S
C892 C891 1.410 . S
C892 C893 1.392 . S
C892 C895 1.511 . S
C893 C889 1.376 . S
C893 C892 1.392 . S
C893 H905 0.929 . S
C894 C890 1.531 . S
C894 H906 0.960 . S
C894 H907 0.962 . S
C894 H908 0.960 . S
C895 C892 1.511 . S
C895 H909 0.961 . S
C895 H910 0.961 . S
C895 H911 0.961 . S
C896 C897 1.370 . S
C896 C898 1.363 . S
C896 H912 0.931 . S
C897 C896 1.370 . S
C897 C901 1.408 . S
C898 C896 1.363 . S
C898 C899 1.370 . S
C898 C902 1.524 . S
C899 C891 1.503 . S
C899 C898 1.370 . S
C899 C900 1.403 . S
C900 C899 1.403 . S
C900 C901 1.404 . S
C900 C903 1.539 . S
C901 C897 1.408 . S
C901 C900 1.404 . S
C901 H913 0.930 . S
C902 C898 1.524 . S
C902 H914 0.956 . S
C902 H915 0.961 . S
C902 H916 0.961 . S
C903 C900 1.539 . S
C903 H917 0.958 . S
C903 H918 0.961 . S
C903 H919 0.960 . S
H904 C888 0.931 . S
H905 C893 0.929 . S
H906 C894 0.960 . S
H907 C894 0.962 . S
H908 C894 0.960 . S
H909 C895 0.961 . S
H910 C895 0.961 . S
H911 C895 0.961 . S
H912 C896 0.931 . S
H913 C901 0.930 . S
H914 C902 0.956 . S
H915 C902 0.961 . S
H916 C902 0.961 . S
H917 C903 0.958 . S
H918 C903 0.961 . S
H919 C903 0.960 . S
C920 C921 1.391 . S
C920 C922 1.394 . S
C920 H936 0.931 . S
C921 C920 1.391 . S
C921 C925 1.376 . S
C922 C920 1.394 . S
C922 C923 1.369 . S
C922 C926 1.531 . S
C923 C922 1.369 . S
C923 C924 1.410 . S
C923 C931 1.503 . S
C924 C923 1.410 . S
C924 C925 1.392 . S
C924 C927 1.511 . S
C925 C921 1.376 . S
C925 C924 1.392 . S
C925 H937 0.929 . S
C926 C922 1.531 . S
C926 H938 0.960 . S
C926 H939 0.962 . S
C926 H940 0.960 . S
C927 C924 1.511 . S
C927 H941 0.961 . S
C927 H942 0.961 . S
C927 H943 0.961 . S
C928 C929 1.370 . S
C928 C930 1.363 . S
C928 H944 0.931 . S
C929 C928 1.370 . S
C929 C933 1.408 . S
C930 C928 1.363 . S
C930 C931 1.370 . S
C930 C934 1.524 . S
C931 C923 1.503 . S
C931 C930 1.370 . S
C931 C932 1.403 . S
C932 C931 1.403 . S
C932 C933 1.404 . S
C932 C935 1.539 . S
C933 C929 1.408 . S
C933 C932 1.404 . S
C933 H945 0.930 . S
C934 C930 1.524 . S
C934 H946 0.956 . S
C934 H947 0.961 . S
C934 H948 0.961 . S
C935 C932 1.539 . S
C935 H949 0.958 . S
C935 H950 0.961 . S
C935 H951 0.960 . S
H936 C920 0.931 . S
H937 C925 0.929 . S
H938 C926 0.960 . S
H939 C926 0.962 . S
H940 C926 0.960 . S
H941 C927 0.961 . S
H942 C927 0.961 . S
H943 C927 0.961 . S
H944 C928 0.931 . S
H945 C933 0.930 . S
H946 C934 0.956 . S
H947 C934 0.961 . S
H948 C934 0.961 . S
H949 C935 0.958 . S
H950 C935 0.961 . S
H951 C935 0.960 . S
C952 C953 1.391 . S
C952 C954 1.394 . S
C952 H968 0.931 . S
C953 C952 1.391 . S
C953 C957 1.376 . S
C954 C952 1.394 . S
C954 C955 1.369 . S
C954 C958 1.531 . S
C955 C954 1.369 . S
C955 C956 1.410 . S
C955 C963 1.503 . S
C956 C955 1.410 . S
C956 C957 1.392 . S
C956 C959 1.511 . S
C957 C953 1.376 . S
C957 C956 1.392 . S
C957 H969 0.929 . S
C958 C954 1.531 . S
C958 H970 0.960 . S
C958 H971 0.962 . S
C958 H972 0.960 . S
C959 C956 1.511 . S
C959 H973 0.961 . S
C959 H974 0.961 . S
C959 H975 0.961 . S
C960 C961 1.370 . S
C960 C962 1.363 . S
C960 H976 0.931 . S
C961 C960 1.370 . S
C961 C965 1.408 . S
C962 C960 1.363 . S
C962 C963 1.370 . S
C962 C966 1.524 . S
C963 C955 1.503 . S
C963 C962 1.370 . S
C963 C964 1.403 . S
C964 C963 1.403 . S
C964 C965 1.404 . S
C964 C967 1.539 . S
C965 C961 1.408 . S
C965 C964 1.404 . S
C965 H977 0.930 . S
C966 C962 1.524 . S
C966 H978 0.956 . S
C966 H979 0.961 . S
C966 H980 0.961 . S
C967 C964 1.539 . S
C967 H981 0.958 . S
C967 H982 0.961 . S
C967 H983 0.960 . S
H968 C952 0.931 . S
H969 C957 0.929 . S
H970 C958 0.960 . S
H971 C958 0.962 . S
H972 C958 0.960 . S
H973 C959 0.961 . S
H974 C959 0.961 . S
H975 C959 0.961 . S
H976 C960 0.931 . S
H977 C965 0.930 . S
H978 C966 0.956 . S
H979 C966 0.961 . S
H980 C966 0.961 . S
H981 C967 0.958 . S
H982 C967 0.961 . S
H983 C967 0.960 . S
C984 C985 1.391 . S
C984 C986 1.394 . S
C984 H1000 0.931 . S
C985 C984 1.391 . S
C985 C989 1.376 . S
C986 C984 1.394 . S
C986 C987 1.369 . S
C986 C990 1.531 . S
C987 C986 1.369 . S
C987 C988 1.410 . S
C987 C995 1.503 . S
C988 C987 1.410 . S
C988 C989 1.392 . S
C988 C991 1.511 . S
C989 C985 1.376 . S
C989 C988 1.392 . S
C989 H1001 0.929 . S
C990 C986 1.531 . S
C990 H1002 0.960 . S
C990 H1003 0.962 . S
C990 H1004 0.960 . S
C991 C988 1.511 . S
C991 H1005 0.961 . S
C991 H1006 0.961 . S
C991 H1007 0.961 . S
C992 C993 1.370 . S
C992 C994 1.363 . S
C992 H1008 0.931 . S
C993 C992 1.370 . S
C993 C997 1.408 . S
C994 C992 1.363 . S
C994 C995 1.370 . S
C994 C998 1.524 . S
C995 C987 1.503 . S
C995 C994 1.370 . S
C995 C996 1.403 . S
C996 C995 1.403 . S
C996 C997 1.404 . S
C996 C999 1.539 . S
C997 C993 1.408 . S
C997 C996 1.404 . S
C997 H1009 0.930 . S
C998 C994 1.524 . S
C998 H1010 0.956 . S
C998 H1011 0.961 . S
C998 H1012 0.961 . S
C999 C996 1.539 . S
C999 H1013 0.958 . S
C999 H1014 0.961 . S
C999 H1015 0.960 . S
H1000 C984 0.931 . S
H1001 C989 0.929 . S
H1002 C990 0.960 . S
H1003 C990 0.962 . S
H1004 C990 0.960 . S
H1005 C991 0.961 . S
H1006 C991 0.961 . S
H1007 C991 0.961 . S
H1008 C992 0.931 . S
H1009 C997 0.930 . S
H1010 C998 0.956 . S
H1011 C998 0.961 . S
H1012 C998 0.961 . S
H1013 C999 0.958 . S
H1014 C999 0.961 . S
H1015 C999 0.960 . S
C1016 C1017 1.391 . S
C1016 C1018 1.394 . S
C1016 H1032 0.931 . S
C1017 C1016 1.391 . S
C1017 C1021 1.376 . S
C1018 C1016 1.394 . S
C1018 C1019 1.369 . S
C1018 C1022 1.531 . S
C1019 C1018 1.369 . S
C1019 C1020 1.410 . S
C1019 C1027 1.503 . S
C1020 C1019 1.410 . S
C1020 C1021 1.392 . S
C1020 C1023 1.511 . S
C1021 C1017 1.376 . S
C1021 C1020 1.392 . S
C1021 H1033 0.929 . S
C1022 C1018 1.531 . S
C1022 H1034 0.960 . S
C1022 H1035 0.962 . S
C1022 H1036 0.960 . S
C1023 C1020 1.511 . S
C1023 H1037 0.961 . S
C1023 H1038 0.961 . S
C1023 H1039 0.961 . S
C1024 C1025 1.370 . S
C1024 C1026 1.363 . S
C1024 H1040 0.931 . S
C1025 C1024 1.370 . S
C1025 C1029 1.408 . S
C1026 C1024 1.363 . S
C1026 C1027 1.370 . S
C1026 C1030 1.524 . S
C1027 C1019 1.503 . S
C1027 C1026 1.370 . S
C1027 C1028 1.403 . S
C1028 C1027 1.403 . S
C1028 C1029 1.404 . S
C1028 C1031 1.539 . S
C1029 C1025 1.408 . S
C1029 C1028 1.404 . S
C1029 H1041 0.930 . S
C1030 C1026 1.524 . S
C1030 H1042 0.956 . S
C1030 H1043 0.961 . S
C1030 H1044 0.961 . S
C1031 C1028 1.539 . S
C1031 H1045 0.958 . S
C1031 H1046 0.961 . S
C1031 H1047 0.960 . S
H1032 C1016 0.931 . S
H1033 C1021 0.929 . S
H1034 C1022 0.960 . S
H1035 C1022 0.962 . S
H1036 C1022 0.960 . S
H1037 C1023 0.961 . S
H1038 C1023 0.961 . S
H1039 C1023 0.961 . S
H1040 C1024 0.931 . S
H1041 C1029 0.930 . S
H1042 C1030 0.956 . S
H1043 C1030 0.961 . S
H1044 C1030 0.961 . S
H1045 C1031 0.958 . S
H1046 C1031 0.961 . S
H1047 C1031 0.960 . S
C1048 C1049 1.391 . S
C1048 C1050 1.394 . S
C1048 H1064 0.931 . S
C1049 C1048 1.391 . S
C1049 C1053 1.376 . S
C1050 C1048 1.394 . S
C1050 C1051 1.369 . S
C1050 C1054 1.531 . S
C1051 C1050 1.369 . S
C1051 C1052 1.410 . S
C1051 C1059 1.503 . S
C1052 C1051 1.410 . S
C1052 C1053 1.392 . S
C1052 C1055 1.511 . S
C1053 C1049 1.376 . S
C1053 C1052 1.392 . S
C1053 H1065 0.929 . S
C1054 C1050 1.531 . S
C1054 H1066 0.960 . S
C1054 H1067 0.962 . S
C1054 H1068 0.960 . S
C1055 C1052 1.511 . S
C1055 H1069 0.961 . S
C1055 H1070 0.961 . S
C1055 H1071 0.961 . S
C1056 C1057 1.370 . S
C1056 C1058 1.363 . S
C1056 H1072 0.931 . S
C1057 C1056 1.370 . S
C1057 C1061 1.408 . S
C1058 C1056 1.363 . S
C1058 C1059 1.370 . S
C1058 C1062 1.524 . S
C1059 C1051 1.503 . S
C1059 C1058 1.370 . S
C1059 C1060 1.403 . S
C1060 C1059 1.403 . S
C1060 C1061 1.404 . S
C1060 C1063 1.539 . S
C1061 C1057 1.408 . S
C1061 C1060 1.404 . S
C1061 H1073 0.930 . S
C1062 C1058 1.524 . S
C1062 H1074 0.956 . S
C1062 H1075 0.961 . S
C1062 H1076 0.961 . S
C1063 C1060 1.539 . S
C1063 H1077 0.958 . S
C1063 H1078 0.961 . S
C1063 H1079 0.960 . S
H1064 C1048 0.931 . S
H1065 C1053 0.929 . S
H1066 C1054 0.960 . S
H1067 C1054 0.962 . S
H1068 C1054 0.960 . S
H1069 C1055 0.961 . S
H1070 C1055 0.961 . S
H1071 C1055 0.961 . S
H1072 C1056 0.931 . S
H1073 C1061 0.930 . S
H1074 C1062 0.956 . S
H1075 C1062 0.961 . S
H1076 C1062 0.961 . S
H1077 C1063 0.958 . S
H1078 C1063 0.961 . S
H1079 C1063 0.960 . S
C1080 C1081 1.391 1_556 S
C1080 C1082 1.394 . S
C1080 H1096 0.931 . S
C1081 C1080 1.391 1_554 S
C1081 C1085 1.376 . S
C1082 C1080 1.394 . S
C1082 C1083 1.369 . S
C1082 C1086 1.531 . S
C1083 C1082 1.369 . S
C1083 C1084 1.410 1_556 S
C1083 C1091 1.503 . S
C1084 C1083 1.410 1_554 S
C1084 C1085 1.392 . S
C1084 C1087 1.511 . S
C1085 C1081 1.376 . S
C1085 C1084 1.392 . S
C1085 H1097 0.929 . S
C1086 C1082 1.531 . S
C1086 H1098 0.960 . S
C1086 H1099 0.962 . S
C1086 H1100 0.960 . S
C1087 C1084 1.511 . S
C1087 H1101 0.961 . S
C1087 H1102 0.961 . S
C1087 H1103 0.961 . S
C1088 C1089 1.370 . S
C1088 C1090 1.363 . S
C1088 H1104 0.931 . S
C1089 C1088 1.370 . S
C1089 C1093 1.408 . S
C1090 C1088 1.363 . S
C1090 C1091 1.370 . S
C1090 C1094 1.524 . S
C1091 C1083 1.503 . S
C1091 C1090 1.370 . S
C1091 C1092 1.403 . S
C1092 C1091 1.403 . S
C1092 C1093 1.404 . S
C1092 C1095 1.539 . S
C1093 C1089 1.408 . S
C1093 C1092 1.404 . S
C1093 H1105 0.930 . S
C1094 C1090 1.524 . S
C1094 H1106 0.956 . S
C1094 H1107 0.961 . S
C1094 H1108 0.961 . S
C1095 C1092 1.539 . S
C1095 H1109 0.958 . S
C1095 H1110 0.961 . S
C1095 H1111 0.960 1_556 S
H1096 C1080 0.931 . S
H1097 C1085 0.929 . S
H1098 C1086 0.960 . S
H1099 C1086 0.962 . S
H1100 C1086 0.960 . S
H1101 C1087 0.961 . S
H1102 C1087 0.961 . S
H1103 C1087 0.961 . S
H1104 C1088 0.931 . S
H1105 C1093 0.930 . S
H1106 C1094 0.956 . S
H1107 C1094 0.961 . S
H1108 C1094 0.961 . S
H1109 C1095 0.958 . S
H1110 C1095 0.961 . S
H1111 C1095 0.960 1_554 S
C345 C7 1.510 . S
C353 C105 1.503 . S
C377 C37 1.345 . S
C385 C137 1.332 . S
C409 C54 1.571 . S
C417 C169 1.403 . S
C449 C213 1.468 . S
C441 C87 1.459 . S
C481 C233 1.401 . S
C473 C30 1.405 . S
C505 C51 1.454 . S
C513 C277 1.496 . S
C537 C84 1.575 . S
C545 C297 1.441 . S
C569 C10 1.335 . S
C577 C341 1.183 1_455 S
C601 C59 1.510 . S
C609 C329 1.415 . S
C641 C245 1.343 . S
C633 C74 1.365 . S
C673 C265 1.590 . S
C665 C18 1.613 . S
C697 C32 1.458 . S
C705 C309 1.339 . S
C737 C149 1.530 . S
C729 C73 1.538 . S
C761 C15 1.452 . S
C769 C181 1.341 . S
C801 C201 1.590 . S
C793 C43 1.626 . S
C833 C117 1.348 . S
C825 C62 1.366 . S
C865 C303 1.360 . S
C857 C21 1.513 . S
C897 C335 1.239 . S
C889 C29 1.347 . S
C921 C52 1.304 . S
C929 C239 1.307 . S
C961 C271 1.525 . S
C953 C81 1.528 . S
C993 C175 1.375 . S
C985 C40 1.467 . S
C1017 C65 1.480 . S
C1025 C207 1.486 . S
C1057 C111 1.326 . S
C1049 C76 1.336 . S
C1089 C143 1.345 . S
C1081 C8 1.330 . S
