# Generated by pormake.
# Topology pto, (3,4)-cn, num edge types: 1
# Building blocks:
#     Node 0, Type 0, BuildingBlock: QEWDON_clean_linker_0, # of connection points: 3
#     Node 1, Type 0, BuildingBlock: QEWDON_clean_linker_0, # of connection points: 3
#     Node 2, Type 0, BuildingBlock: QEWDON_clean_linker_0, # of connection points: 3
#     Node 3, Type 0, BuildingBlock: QEWDON_clean_linker_0, # of connection points: 3
#     Node 4, Type 0, BuildingBlock: QEWDON_clean_linker_0, # of connection points: 3
#     Node 5, Type 0, BuildingBlock: QEWDON_clean_linker_0, # of connection points: 3
#     Node 6, Type 0, BuildingBlock: QEWDON_clean_linker_0, # of connection points: 3
#     Node 7, Type 0, BuildingBlock: QEWDON_clean_linker_0, # of connection points: 3
#     Node 8, Type 1, BuildingBlock: KOZSID_clean_sbu_0, # of connection points: 4
#     Node 9, Type 1, BuildingBlock: KOZSID_clean_sbu_0, # of connection points: 4
#     Node 10, Type 1, BuildingBlock: KOZSID_clean_sbu_0, # of connection points: 4
#     Node 11, Type 1, BuildingBlock: KOZSID_clean_sbu_0, # of connection points: 4
#     Node 12, Type 1, BuildingBlock: KOZSID_clean_sbu_0, # of connection points: 4
#     Node 13, Type 1, BuildingBlock: KOZSID_clean_sbu_0, # of connection points: 4
#     Edge 14, Type (0, 1), BuildingBlock: CIFDUS_clean_linker_0, # of connection points: 2
#     Edge 15, Type (0, 1), BuildingBlock: CIFDUS_clean_linker_0, # of connection points: 2
#     Edge 16, Type (0, 1), BuildingBlock: CIFDUS_clean_linker_0, # of connection points: 2
#     Edge 17, Type (0, 1), BuildingBlock: CIFDUS_clean_linker_0, # of connection points: 2
#     Edge 18, Type (0, 1), BuildingBlock: CIFDUS_clean_linker_0, # of connection points: 2
#     Edge 19, Type (0, 1), BuildingBlock: CIFDUS_clean_linker_0, # of connection points: 2
#     Edge 20, Type (0, 1), BuildingBlock: CIFDUS_clean_linker_0, # of connection points: 2
#     Edge 21, Type (0, 1), BuildingBlock: CIFDUS_clean_linker_0, # of connection points: 2
#     Edge 22, Type (0, 1), BuildingBlock: CIFDUS_clean_linker_0, # of connection points: 2
#     Edge 23, Type (0, 1), BuildingBlock: CIFDUS_clean_linker_0, # of connection points: 2
#     Edge 24, Type (0, 1), BuildingBlock: CIFDUS_clean_linker_0, # of connection points: 2
#     Edge 25, Type (0, 1), BuildingBlock: CIFDUS_clean_linker_0, # of connection points: 2
#     Edge 26, Type (0, 1), BuildingBlock: CIFDUS_clean_linker_0, # of connection points: 2
#     Edge 27, Type (0, 1), BuildingBlock: CIFDUS_clean_linker_0, # of connection points: 2
#     Edge 28, Type (0, 1), BuildingBlock: CIFDUS_clean_linker_0, # of connection points: 2
#     Edge 29, Type (0, 1), BuildingBlock: CIFDUS_clean_linker_0, # of connection points: 2
#     Edge 30, Type (0, 1), BuildingBlock: CIFDUS_clean_linker_0, # of connection points: 2
#     Edge 31, Type (0, 1), BuildingBlock: CIFDUS_clean_linker_0, # of connection points: 2
#     Edge 32, Type (0, 1), BuildingBlock: CIFDUS_clean_linker_0, # of connection points: 2
#     Edge 33, Type (0, 1), BuildingBlock: CIFDUS_clean_linker_0, # of connection points: 2
#     Edge 34, Type (0, 1), BuildingBlock: CIFDUS_clean_linker_0, # of connection points: 2
#     Edge 35, Type (0, 1), BuildingBlock: CIFDUS_clean_linker_0, # of connection points: 2
#     Edge 36, Type (0, 1), BuildingBlock: CIFDUS_clean_linker_0, # of connection points: 2
#     Edge 37, Type (0, 1), BuildingBlock: CIFDUS_clean_linker_0, # of connection points: 2
# Relax obj value: 0.017
# Max RMSD: 0.202
# Mean RMSD: 0.076
data_MOF--net-pto--node1-KOZSID_clean_sbu_0--node2-QEWDON_clean_linker_0--edge1-CIFDUS_clean_linker_0
_symmetry_space_group_name_H-M    P1
_symmetry_Int_Tables_number       1
_symmetry_cell_setting            triclinic
loop_
_symmetry_equiv_pos_as_xyz
'x, y, z'
_cell_length_a     29.880738
_cell_length_b     46.257387
_cell_length_c     41.927868
_cell_angle_alpha  92.0071
_cell_angle_beta   109.90134
_cell_angle_gamma 104.25432
loop_
_atom_site_label
_atom_site_type_symbol
_atom_site_fract_x
_atom_site_fract_y
_atom_site_fract_z
_atom_type_partial_charge
H0 H 0.35604 0.32485 0.3097 0.0
C1 C 0.3481 0.30418 0.32069 0.0
C2 C 0.34901 0.27708 0.30499 0.0
C3 C 0.34075 0.30517 0.35191 0.0
H4 H 0.34379 0.23011 0.30907 0.0
C5 C 0.34164 0.25075 0.32072 0.0
C6 C 0.33273 0.25123 0.35166 0.0
C7 C 0.33181 0.27867 0.36665 0.0
C8 C 0.34854 0.33424 0.37163 0.0
H9 H 0.32477 0.27981 0.3903 0.0
C10 C 0.31781 0.35315 0.35936 0.0
C11 C 0.3252 0.38028 0.37935 0.0
C12 C 0.38703 0.34273 0.40367 0.0
H13 H 0.41109 0.32844 0.41349 0.0
C14 C 0.39491 0.36968 0.42328 0.0
H15 H 0.28801 0.34656 0.33466 0.0
C16 C 0.36419 0.3883 0.41136 0.0
H17 H 0.37031 0.40869 0.42762 0.0
H18 H 0.42458 0.37601 0.44801 0.0
H19 H 0.24769 0.83736 0.7208 0.0
C20 C 0.22848 0.81358 0.71436 0.0
C21 C 0.25284 0.7924 0.72966 0.0
C22 C 0.17852 0.80423 0.6924 0.0
H23 H 0.24492 0.74555 0.7355 0.0
C24 C 0.22708 0.76173 0.72229 0.0
C25 C 0.17709 0.75204 0.70096 0.0
C26 C 0.15324 0.77338 0.68577 0.0
C27 C 0.15107 0.82668 0.67922 0.0
H28 H 0.1145 0.766 0.66941 0.0
C29 C 0.1707 0.85103 0.66413 0.0
C30 C 0.1442 0.87226 0.65214 0.0
C31 C 0.10481 0.82391 0.68226 0.0
H32 H 0.08913 0.8057 0.69419 0.0
C33 C 0.07856 0.84485 0.67048 0.0
H34 H 0.20637 0.85341 0.66172 0.0
C35 C 0.09798 0.86883 0.65551 0.0
H36 H 0.07643 0.88451 0.6461 0.0
H37 H 0.04296 0.84246 0.67293 0.0
H38 H 0.89925 0.79956 0.42209 0.0
C39 C 0.8877 0.80602 0.39656 0.0
C40 C 0.89439 0.79026 0.36993 0.0
C41 C 0.86158 0.82799 0.38952 0.0
H42 H 0.88036 0.78514 0.3157 0.0
C43 C 0.8761 0.79742 0.33651 0.0
C44 C 0.85067 0.81949 0.32931 0.0
C45 C 0.8438 0.83489 0.35588 0.0
C46 C 0.84214 0.83808 0.4147 0.0
H47 H 0.82154 0.85068 0.35 0.0
C48 C 0.87159 0.86024 0.44302 0.0
C49 C 0.85079 0.86878 0.46626 0.0
C50 C 0.79226 0.82487 0.40972 0.0
H51 H 0.76915 0.80786 0.38808 0.0
C52 C 0.77173 0.83331 0.43252 0.0
H53 H 0.9101 0.87057 0.44695 0.0
C54 C 0.80065 0.85505 0.46056 0.0
H55 H 0.7835 0.86146 0.47765 0.0
H56 H 0.73319 0.82302 0.42841 0.0
H57 H 0.82636 0.33469 0.91481 0.0
C58 C 0.83161 0.31702 0.89994 0.0
C59 C 0.84085 0.32267 0.86975 0.0
C60 C 0.83255 0.28938 0.91253 0.0
H61 H 0.85412 0.30351 0.82742 0.0
C62 C 0.84908 0.29972 0.85148 0.0
C63 C 0.85121 0.27207 0.86394 0.0
C64 C 0.84289 0.2671 0.89465 0.0
C65 C 0.82702 0.28513 0.946 0.0
H66 H 0.84529 0.24618 0.90505 0.0
C67 C 0.7858 0.29 0.95216 0.0
C68 C 0.78251 0.28871 0.98497 0.0
C69 C 0.86471 0.27817 0.97259 0.0
H70 H 0.89691 0.27455 0.96847 0.0
C71 C 0.86215 0.27705 0.00511 0.0
H72 H 0.75627 0.29444 0.93109 0.0
C73 C 0.82189 0.28262 0.01144 0.0
H74 H 0.82229 0.28252 0.03732 0.0
H75 H 0.89194 0.27232 0.02571 0.0
H76 H 0.98199 0.81632 0.86972 0.0
C77 C 0.95226 0.81738 0.8786 0.0
C78 C 0.92171 0.79088 0.88356 0.0
C79 C 0.94429 0.84536 0.88441 0.0
H80 H 0.86034 0.77267 0.89988 0.0
C81 C 0.88355 0.79286 0.89528 0.0
C82 C 0.87539 0.82089 0.90129 0.0
C83 C 0.9054 0.84701 0.89522 0.0
C84 C 0.97862 0.87301 0.8811 0.0
H85 H 0.8998 0.86876 0.90025 0.0
C86 C 0.96268 0.8907 0.85524 0.0
C87 C 0.99586 0.91707 0.85245 0.0
C88 C 0.02787 0.88166 0.90399 0.0
H89 H 0.04071 0.86817 0.92397 0.0
C90 C 0.06071 0.90797 0.9015 0.0
H91 H 0.92472 0.88393 0.83739 0.0
C92 C 0.04485 0.92567 0.87597 0.0
H93 H 0.07111 0.94582 0.87421 0.0
H94 H 0.0986 0.91462 0.91933 0.0
H95 H 0.95504 0.31344 0.41583 0.0
C96 C 0.91806 0.30988 0.39713 0.0
C97 C 0.90128 0.33466 0.38455 0.0
C98 C 0.8876 0.2804 0.38446 0.0
H99 H 0.84104 0.34826 0.34891 0.0
C100 C 0.85375 0.32941 0.35945 0.0
C101 C 0.82345 0.30006 0.34633 0.0
C102 C 0.84042 0.27572 0.35932 0.0
C103 C 0.90564 0.25388 0.39439 0.0
H104 H 0.81782 0.25293 0.34875 0.0
C105 C 0.90936 0.24411 0.42634 0.0
C106 C 0.91752 0.2157 0.4332 0.0
C107 C 0.9127 0.23605 0.36979 0.0
H108 H 0.90954 0.24316 0.34494 0.0
C109 C 0.92207 0.20845 0.37652 0.0
H110 H 0.90433 0.25836 0.44513 0.0
C111 C 0.92358 0.19807 0.40759 0.0
H112 H 0.92806 0.17574 0.41082 0.0
H113 H 0.9266 0.19457 0.35714 0.0
H114 H 0.24486 0.28439 0.74745 0.0
C115 C 0.21831 0.29752 0.74183 0.0
C116 C 0.19898 0.30435 0.76664 0.0
C117 C 0.20703 0.30982 0.71084 0.0
H118 H 0.151 0.32822 0.77772 0.0
C119 C 0.16626 0.32265 0.75907 0.0
C120 C 0.15611 0.3359 0.72875 0.0
C121 C 0.17595 0.32896 0.70456 0.0
C122 C 0.23148 0.30536 0.68636 0.0
H123 H 0.16817 0.33917 0.68109 0.0
C124 C 0.23114 0.27638 0.67458 0.0
C125 C 0.25192 0.27256 0.64973 0.0
C126 C 0.25446 0.33045 0.674 0.0
H127 H 0.2559 0.35301 0.68305 0.0
C128 C 0.27598 0.32674 0.64997 0.0
H129 H 0.21305 0.25686 0.68364 0.0
C130 C 0.27446 0.29799 0.63769 0.0
H131 H 0.29106 0.2956 0.6188 0.0
H132 H 0.29359 0.34619 0.64064 0.0
H133 H 0.30098 0.86099 0.24899 0.0
C134 C 0.29168 0.83804 0.25459 0.0
C135 C 0.28866 0.83252 0.28662 0.0
C136 C 0.27889 0.81415 0.22867 0.0
H137 H 0.27071 0.79807 0.31719 0.0
C138 C 0.2743 0.80265 0.29285 0.0
C139 C 0.26055 0.77865 0.26702 0.0
C140 C 0.26319 0.7844 0.23496 0.0
C141 C 0.27434 0.82079 0.19368 0.0
H142 H 0.25032 0.76599 0.21443 0.0
C143 C 0.30434 0.81258 0.17738 0.0
C144 C 0.29991 0.81987 0.14425 0.0
C145 C 0.23974 0.83606 0.17667 0.0
H146 H 0.21633 0.84253 0.18885 0.0
C147 C 0.23489 0.84304 0.14383 0.0
H148 H 0.33113 0.80082 0.19052 0.0
C149 C 0.26476 0.8351 0.12772 0.0
H150 H 0.26097 0.84142 0.1025 0.0
H151 H 0.20817 0.85486 0.13092 0.0
C152 C 0.16426 0.62729 0.37199 0.0
C153 C 0.19977 0.64933 0.3976 0.0
C154 C 0.19667 0.64126 0.42791 0.0
C155 C 0.15921 0.61511 0.41926 0.0
N156 N 0.13836 0.60581 0.38521 0.0
Co157 Co 0.07874 0.571 0.36166 0.0
N158 N 0.07673 0.55785 0.40642 0.0
C159 C 0.10779 0.57118 0.43809 0.0
C160 C 0.10015 0.5555 0.4638 0.0
C161 C 0.06271 0.53021 0.44752 0.0
C162 C 0.0496 0.53209 0.41276 0.0
N163 N 0.01779 0.53711 0.33814 0.0
C164 C 0.99434 0.51434 0.35115 0.0
C165 C 0.95316 0.49531 0.32584 0.0
C166 C 0.95114 0.50617 0.29568 0.0
C167 C 0.99092 0.53113 0.30425 0.0
N168 N 0.0825 0.58272 0.31685 0.0
C169 C 0.05211 0.56853 0.28533 0.0
C170 C 0.06613 0.5799 0.25941 0.0
C171 C 0.10795 0.60279 0.27529 0.0
C172 C 0.11656 0.60444 0.31013 0.0
N173 N 0.12121 0.54428 0.36148 0.0
C174 C 0.18244 0.50675 0.36159 0.0
C175 C 0.13803 0.50338 0.3342 0.0
C176 C 0.10824 0.52234 0.33458 0.0
C177 C 0.19535 0.52903 0.38902 0.0
C178 C 0.16441 0.54732 0.38851 0.0
N179 N 0.03628 0.59823 0.36187 0.0
C180 C 0.98012 0.62624 0.33115 0.0
C181 C 0.98444 0.64192 0.36166 0.0
C182 C 0.0137 0.63446 0.39232 0.0
C183 C 0.03883 0.6127 0.39185 0.0
C184 C 0.00573 0.60459 0.33183 0.0
H185 H 0.06043 0.60835 0.4162 0.0
H186 H 1.00073 0.59372 0.30759 0.0
H187 H 0.07491 0.51891 0.31287 0.0
H188 H 0.17604 0.56372 0.41033 0.0
C189 C 0.14444 0.59802 0.44258 0.0
C190 C 0.15592 0.628 0.33553 0.0
C191 C 0.01201 0.5086 0.38663 0.0
C192 C 0.00926 0.54568 0.28086 0.0
H193 H 0.22517 0.66936 0.39486 0.0
H194 H 0.21909 0.65307 0.45327 0.0
H195 H 0.12022 0.56139 0.49107 0.0
H196 H 0.04727 0.51218 0.45974 0.0
H197 H 0.92845 0.47495 0.32865 0.0
H198 H 0.92564 0.49594 0.2703 0.0
H199 H 0.04781 0.57264 0.2322 0.0
H200 H 0.12918 0.61699 0.26253 0.0
H201 H 0.12663 0.48649 0.31233 0.0
H202 H 0.22896 0.53211 0.41112 0.0
H203 H 0.95807 0.63113 0.3066 0.0
H204 H 0.0173 0.64533 0.41671 0.0
C205 C 0.05571 0.593 0.7716 0.0
C206 C 0.10363 0.61021 0.79036 0.0
C207 C 0.11675 0.60037 0.82163 0.0
C208 C 0.07622 0.57798 0.82032 0.0
N209 N 0.03831 0.57241 0.78981 0.0
Co210 Co 0.97074 0.54387 0.77809 0.0
N211 N 0.9897 0.52995 0.82432 0.0
C212 C 0.03415 0.53909 0.85016 0.0
C213 C 0.03717 0.52346 0.87767 0.0
C214 C 0.99247 0.50238 0.86836 0.0
C215 C 0.96485 0.50653 0.83567 0.0
N216 N 0.90251 0.51653 0.76705 0.0
C217 C 0.8857 0.49509 0.78458 0.0
C218 C 0.83619 0.48009 0.76737 0.0
C219 C 0.82151 0.49213 0.73751 0.0
C220 C 0.86274 0.51367 0.73819 0.0
N221 N 0.95254 0.55651 0.7312 0.0
C222 C 0.90898 0.54574 0.70481 0.0
C223 C 0.90739 0.55881 0.67573 0.0
C224 C 0.95244 0.5794 0.68419 0.0
C225 C 0.9788 0.57779 0.71813 0.0
N226 N 0.9919 0.51067 0.76154 0.0
C227 C 0.01926 0.46002 0.74429 0.0
C228 C 0.97149 0.46252 0.72775 0.0
C229 C 0.95892 0.48819 0.73625 0.0
C230 C 0.05357 0.48362 0.76861 0.0
C231 C 0.03918 0.50844 0.77697 0.0
N232 N 0.9496 0.57708 0.79489 0.0
C233 C 0.89915 0.61196 0.78434 0.0
C234 C 0.92567 0.62759 0.81721 0.0
C235 C 0.963 0.61673 0.83907 0.0
C236 C 0.97428 0.59177 0.82752 0.0
C237 C 0.91143 0.58688 0.77386 0.0
H238 H 0.00366 0.58516 0.84545 0.0
H239 H 0.89007 0.57617 0.74841 0.0
H240 H 0.92205 0.48908 0.72248 0.0
H241 H 0.0667 0.52515 0.79662 0.0
C242 C 0.07274 0.56163 0.84717 0.0
C243 C 0.02716 0.59832 0.73748 0.0
C244 C 0.91707 0.48601 0.81523 0.0
C245 C 0.86822 0.52679 0.70974 0.0
H246 H 0.12647 0.62846 0.78264 0.0
H247 H 0.15137 0.6089 0.84299 0.0
H248 H 0.06871 0.5263 0.90112 0.0
H249 H 0.98191 0.48515 0.88328 0.0
H250 H 0.81374 0.46131 0.77466 0.0
H251 H 0.78615 0.48445 0.71665 0.0
H252 H 0.87635 0.55491 0.65179 0.0
H253 H 0.96401 0.59468 0.66773 0.0
H254 H 0.94404 0.4448 0.70837 0.0
H255 H 0.09103 0.48248 0.78202 0.0
H256 H 0.86992 0.61948 0.76633 0.0
H257 H 0.98386 0.62754 0.86508 0.0
C258 C 0.27622 0.00504 0.53754 0.0
C259 C 0.31717 0.00207 0.56418 0.0
C260 C 0.35763 0.02138 0.56109 0.0
C261 C 0.33915 0.03501 0.53291 0.0
N262 N 0.28924 0.02581 0.51792 0.0
Co263 Co 0.24724 0.03928 0.47578 0.0
N264 N 0.307 0.06663 0.47033 0.0
C265 C 0.35491 0.07049 0.49036 0.0
C266 C 0.38791 0.09024 0.47995 0.0
C267 C 0.35945 0.09997 0.45184 0.0
C268 C 0.31043 0.08576 0.44692 0.0
N269 N 0.20525 0.0527 0.4335 0.0
C270 C 0.21812 0.07401 0.41432 0.0
C271 C 0.17672 0.07761 0.3885 0.0
C272 C 0.13651 0.05776 0.39119 0.0
C273 C 0.15529 0.04339 0.41856 0.0
N274 N 0.1874 0.01197 0.4813 0.0
C275 C 0.13949 0.00783 0.46109 0.0
C276 C 0.10664 0.98725 0.47083 0.0
C277 C 0.1352 0.97741 0.49881 0.0
C278 C 0.18405 0.99268 0.50455 0.0
N279 N 0.24248 0.0728 0.50432 0.0
C280 C 0.23668 0.12347 0.54027 0.0
C281 C 0.19475 0.10477 0.51496 0.0
C282 C 0.19833 0.0796 0.49774 0.0
C283 C 0.28123 0.11577 0.54845 0.0
C284 C 0.28336 0.09057 0.53014 0.0
N285 N 0.25195 0.0058 0.44718 0.0
C286 C 0.2123 0.96335 0.4026 0.0
C287 C 0.25723 0.95664 0.40828 0.0
C288 C 0.29974 0.97532 0.43329 0.0
C289 C 0.29626 0.99954 0.45235 0.0
C290 C 0.21054 0.98781 0.42206 0.0
H291 H 0.32985 0.01265 0.47133 0.0
H292 H 0.17514 0.99156 0.41641 0.0
H293 H 0.16497 0.06635 0.47877 0.0
H294 H 0.31865 0.0863 0.53678 0.0
C295 C 0.36776 0.0556 0.51911 0.0
C296 C 0.22592 0.98726 0.53168 0.0
C297 C 0.26862 0.09216 0.42049 0.0
C298 C 0.12666 0.02274 0.43235 0.0
H299 H 0.31772 0.98721 0.5836 0.0
H300 H 0.39601 0.02472 0.57712 0.0
H301 H 0.42789 0.09699 0.49161 0.0
H302 H 0.37325 0.11605 0.43694 0.0
H303 H 0.17519 0.09342 0.37004 0.0
H304 H 0.09801 0.05487 0.37574 0.0
H305 H 0.06674 0.97987 0.45865 0.0
H306 H 0.12163 0.96053 0.51304 0.0
H307 H 0.15931 0.10974 0.50818 0.0
H308 H 0.31468 0.12977 0.56793 0.0
H309 H 0.17847 0.94984 0.38303 0.0
H310 H 0.33539 0.97092 0.43871 0.0
C311 C 0.53262 0.84353 0.06103 0.0
C312 C 0.52462 0.87045 0.07017 0.0
C313 C 0.54838 0.89206 0.05539 0.0
C314 C 0.56934 0.87721 0.038 0.0
N315 N 0.56042 0.84767 0.04108 0.0
Co316 Co 0.58266 0.81799 0.01934 0.0
N317 N 0.63451 0.85011 0.01185 0.0
C318 C 0.63661 0.87955 0.01272 0.0
C319 C 0.6771 0.89652 0.00695 0.0
C320 C 0.70167 0.87645 0.00175 0.0
C321 C 0.67441 0.84818 0.0043 0.0
N322 N 0.60425 0.78823 0.99713 0.0
C323 C 0.64616 0.79146 0.99025 0.0
C324 C 0.6452 0.76502 0.97289 0.0
C325 C 0.60108 0.74469 0.96877 0.0
C326 C 0.57752 0.75976 0.98365 0.0
N327 N 0.53089 0.78586 0.02691 0.0
C328 C 0.51262 0.75741 0.01099 0.0
C329 C 0.47826 0.74001 0.02236 0.0
C330 C 0.47439 0.75875 0.04674 0.0
C331 C 0.50638 0.78677 0.04863 0.0
N332 N 0.53534 0.82098 0.97471 0.0
C333 C 0.46735 0.82615 0.91132 0.0
C334 C 0.45391 0.82355 0.94023 0.0
C335 C 0.48826 0.82096 0.97152 0.0
C336 C 0.51563 0.82598 0.91483 0.0
C337 C 0.54902 0.82344 0.9467 0.0
N338 N 0.62963 0.81517 0.06405 0.0
C339 C 0.66355 0.78502 0.1065 0.0
C340 C 0.6877 0.81056 0.13123 0.0
C341 C 0.68396 0.83865 0.12077 0.0
C342 C 0.65548 0.84048 0.08709 0.0
C343 C 0.63438 0.78777 0.07333 0.0
H344 H 0.65299 0.86236 0.08005 0.0
H345 H 0.61464 0.76758 0.05545 0.0
H346 H 0.47655 0.81889 0.99316 0.0
H347 H 0.58595 0.82352 0.94863 0.0
C348 C 0.60426 0.89079 0.02386 0.0
C349 C 0.50984 0.81419 0.0692 0.0
C350 C 0.68496 0.81985 0.99662 0.0
C351 C 0.53454 0.74675 0.99015 0.0
H352 H 0.5035 0.87409 0.08565 0.0
H353 H 0.55148 0.9159 0.05808 0.0
H354 H 0.68832 0.92069 0.00754 0.0
H355 H 0.73548 0.88201 0.99634 0.0
H356 H 0.67305 0.76093 0.96362 0.0
H357 H 0.58838 0.72146 0.95718 0.0
H358 H 0.45975 0.71624 0.01489 0.0
H359 H 0.45057 0.75246 0.0613 0.0
H360 H 0.41674 0.82297 0.93864 0.0
H361 H 0.52771 0.82806 0.89321 0.0
H362 H 0.66633 0.76286 0.11269 0.0
H363 H 0.70131 0.85914 0.13861 0.0
C364 C 0.00231 0.06422 0.72703 0.0
C365 C 0.05 0.06644 0.74944 0.0
C366 C 0.07988 0.09272 0.74569 0.0
C367 C 0.04913 0.1049 0.72102 0.0
N368 N 0.00187 0.08771 0.70867 0.0
Co369 Co 0.94612 0.09654 0.67214 0.0
N370 N 0.99209 0.1266 0.65714 0.0
C371 C 0.03971 0.14064 0.67582 0.0
C372 C 0.06171 0.16127 0.65912 0.0
C373 C 0.02556 0.16015 0.62802 0.0
C374 C 0.98352 0.13864 0.62747 0.0
N375 N 0.89059 0.1055 0.6354 0.0
C376 C 0.89057 0.11827 0.60679 0.0
C377 C 0.84298 0.11863 0.58671 0.0
C378 C 0.81271 0.10646 0.60398 0.0
C379 C 0.84316 0.09897 0.63331 0.0
N380 N 0.90003 0.0668 0.68757 0.0
C381 C 0.85182 0.06486 0.68045 0.0
C382 C 0.82951 0.04283 0.69556 0.0
C383 C 0.86611 0.03037 0.71363 0.0
C384 C 0.90887 0.04554 0.70845 0.0
N385 N 0.94506 0.12821 0.70396 0.0
C386 C 0.93477 0.17145 0.7475 0.0
C387 C 0.94192 0.14409 0.75831 0.0
C388 C 0.94738 0.12294 0.73633 0.0
C389 C 0.93438 0.17707 0.7148 0.0
C390 C 0.93941 0.15517 0.69343 0.0
N391 N 0.9465 0.06471 0.64023 0.0
C392 C 0.90157 0.02033 0.59931 0.0
C393 C 0.94499 0.01826 0.59485 0.0
C394 C 0.98932 0.04011 0.61322 0.0
C395 C 0.98938 0.06301 0.63614 0.0
C396 C 0.903 0.04381 0.62171 0.0
H397 H 0.02405 0.07927 0.65061 0.0
H398 H 0.86869 0.04495 0.62403 0.0
H399 H 0.95252 0.10207 0.7454 0.0
H400 H 0.93762 0.15985 0.66809 0.0
C401 C 0.06435 0.12999 0.70574 0.0
C402 C 0.95797 0.04148 0.72673 0.0
C403 C 0.93545 0.13152 0.59935 0.0
C404 C 0.82749 0.08088 0.65568 0.0
H405 H 0.0619 0.051 0.76716 0.0
H406 H 0.11949 0.10146 0.75875 0.0
H407 H 0.09991 0.17464 0.66789 0.0
H408 H 0.02966 0.17367 0.60812 0.0
H409 H 0.83097 0.12652 0.56207 0.0
H410 H 0.77289 0.10216 0.59527 0.0
H411 H 0.79101 0.0361 0.69309 0.0
H412 H 0.86198 0.01257 0.72935 0.0
H413 H 0.94323 0.13903 0.7836 0.0
H414 H 0.92874 0.19788 0.70535 0.0
H415 H 0.86649 0.00402 0.58523 0.0
H416 H 0.02363 0.03919 0.61035 0.0
C417 C 0.4146 0.32417 0.11778 0.0
C418 C 0.41259 0.35193 0.13 0.0
C419 C 0.43914 0.37314 0.11662 0.0
C420 C 0.45615 0.35733 0.09722 0.0
N421 N 0.44132 0.3272 0.097 0.0
Co422 Co 0.46046 0.29586 0.07424 0.0
N423 N 0.51056 0.3272 0.06282 0.0
C424 C 0.52059 0.35741 0.06972 0.0
C425 C 0.56039 0.37314 0.06241 0.0
C426 C 0.57743 0.35173 0.05072 0.0
C427 C 0.54647 0.32399 0.05112 0.0
N428 N 0.47848 0.26453 0.05084 0.0
C429 C 0.51492 0.26737 0.0379 0.0
C430 C 0.51344 0.23991 0.02247 0.0
C431 C 0.47568 0.21889 0.0268 0.0
C432 C 0.456 0.23466 0.04422 0.0
N433 N 0.41247 0.26452 0.08714 0.0
C434 C 0.39994 0.23441 0.07846 0.0
C435 C 0.36808 0.21854 0.09275 0.0
C436 C 0.36085 0.23976 0.11248 0.0
C437 C 0.38897 0.26742 0.10909 0.0
N438 N 0.40767 0.29709 0.02982 0.0
C439 C 0.33765 0.29945 0.96511 0.0
C440 C 0.33677 0.27237 0.97891 0.0
C441 C 0.3716 0.27174 0.01112 0.0
C442 C 0.37353 0.32527 0.98448 0.0
C443 C 0.40742 0.32362 0.01629 0.0
N444 N 0.51295 0.29486 0.11784 0.0
C445 C 0.56452 0.26838 0.1562 0.0
C446 C 0.59545 0.29563 0.17582 0.0
C447 C 0.58274 0.32208 0.16715 0.0
C448 C 0.54156 0.32119 0.13847 0.0
C449 C 0.52346 0.2685 0.12728 0.0
H450 H 0.53433 0.34224 0.13295 0.0
H451 H 0.50129 0.24728 0.11232 0.0
H452 H 0.36842 0.2504 0.02001 0.0
H453 H 0.4333 0.34428 0.02899 0.0
C454 C 0.49367 0.37018 0.08497 0.0
C455 C 0.39385 0.29566 0.12831 0.0
C456 C 0.55335 0.29513 0.04141 0.0
C457 C 0.42067 0.22174 0.05819 0.0
H458 H 0.39576 0.35668 0.14793 0.0
H459 H 0.44797 0.39733 0.12239 0.0
H460 H 0.57627 0.39727 0.0663 0.0
H461 H 0.60976 0.35623 0.0436 0.0
H462 H 0.53805 0.23542 0.01024 0.0
H463 H 0.46515 0.19482 0.01935 0.0
H464 H 0.3531 0.19438 0.08998 0.0
H465 H 0.33839 0.23537 0.12822 0.0
H466 H 0.30923 0.25175 0.96506 0.0
H467 H 0.37644 0.34682 0.97484 0.0
H468 H 0.57301 0.24733 0.16235 0.0
H469 H 0.60512 0.34358 0.18218 0.0
H470 H 0.35029 0.44123 0.38409 0.0
H471 H 0.22399 0.36306 0.34994 0.0
H472 H 0.16824 0.39544 0.33876 0.0
H473 H 0.15574 0.44592 0.34402 0.0
H474 H 0.28275 0.5237 0.38017 0.0
H475 H 0.33785 0.4915 0.38584 0.0
C476 C 0.31054 0.43127 0.3741 0.0
C477 C 0.29137 0.39978 0.36819 0.0
C478 C 0.27884 0.44995 0.36854 0.0
C479 C 0.23977 0.38723 0.35453 0.0
C480 C 0.20786 0.40573 0.34843 0.0
C481 C 0.19543 0.45582 0.35262 0.0
C482 C 0.21515 0.48713 0.36202 0.0
C483 C 0.22701 0.43712 0.35607 0.0
C484 C 0.2667 0.49962 0.37336 0.0
C485 C 0.29822 0.48125 0.37646 0.0
H486 H 0.08891 0.73201 0.70907 0.0
H487 H 0.20295 0.70105 0.68926 0.0
H488 H 0.1637 0.64965 0.6957 0.0
H489 H 0.10156 0.61459 0.71287 0.0
H490 H 0.98988 0.64621 0.73488 0.0
H491 H 0.02283 0.69619 0.7211 0.0
C492 C 0.10442 0.71387 0.70525 0.0
C493 C 0.1488 0.7203 0.69876 0.0
C494 C 0.08226 0.68457 0.70972 0.0
C495 C 0.16896 0.69665 0.69449 0.0
C496 C 0.14661 0.6673 0.69823 0.0
C497 C 0.08426 0.63244 0.71409 0.0
C498 C 0.04382 0.62715 0.72502 0.0
C499 C 0.10405 0.66117 0.7068 0.0
C500 C 0.02121 0.6501 0.72656 0.0
C501 C 0.04013 0.67859 0.71881 0.0
H502 H 0.85575 0.73459 0.33409 0.0
H503 H 0.98139 0.78789 0.419 0.0
H504 H 0.01973 0.74616 0.42503 0.0
H505 H 0.0195 0.6957 0.40344 0.0
H506 H 0.89216 0.64255 0.31906 0.0
H507 H 0.85294 0.6833 0.31518 0.0
C508 C 0.89157 0.73707 0.35393 0.0
C509 C 0.9161 0.76439 0.37578 0.0
C510 C 0.91325 0.71313 0.35709 0.0
C511 C 0.96189 0.76707 0.40186 0.0
C512 C 0.98385 0.74328 0.40517 0.0
C513 C 0.98284 0.6928 0.38455 0.0
C514 C 0.9592 0.66609 0.36129 0.0
C515 C 0.96015 0.71634 0.38258 0.0
C516 C 0.91183 0.663 0.33679 0.0
C517 C 0.88915 0.68625 0.33467 0.0
H518 H 0.9077 0.35247 0.84323 0.0
H519 H 0.78579 0.36187 0.87199 0.0
H520 H 0.79831 0.41326 0.85752 0.0
H521 H 0.8458 0.45618 0.83817 0.0
H522 H 0.96481 0.44543 0.80716 0.0
H523 H 0.95109 0.39361 0.82053 0.0
C524 C 0.88306 0.36542 0.84568 0.0
C525 C 0.8458 0.35319 0.8587 0.0
C526 C 0.89008 0.39475 0.83697 0.0
C527 C 0.81517 0.37078 0.86246 0.0
C528 C 0.82215 0.40013 0.85404 0.0
C529 C 0.86811 0.44221 0.834 0.0
C530 C 0.90602 0.45422 0.82165 0.0
C531 C 0.85976 0.41244 0.84154 0.0
C532 C 0.93541 0.43637 0.81667 0.0
C533 C 0.92757 0.40686 0.82429 0.0
H534 H 0.28891 0.19204 0.32281 0.0
H535 H 0.36324 0.24795 0.42076 0.0
H536 H 0.34716 0.20438 0.44986 0.0
H537 H 0.31121 0.15036 0.44808 0.0
H538 H 0.24769 0.09302 0.35162 0.0
H539 H 0.2608 0.13702 0.32145 0.0
C540 C 0.30236 0.19476 0.35052 0.0
C541 C 0.32612 0.22371 0.36925 0.0
C542 C 0.29474 0.16926 0.36748 0.0
C543 C 0.34304 0.22639 0.40528 0.0
C544 C 0.33438 0.20134 0.42216 0.0
C545 C 0.30049 0.14758 0.42046 0.0
C546 C 0.2776 0.11869 0.40197 0.0
C547 C 0.30988 0.17275 0.40354 0.0
C548 C 0.26443 0.1152 0.36625 0.0
C549 C 0.27217 0.1403 0.34908 0.0
H550 H 0.28292 0.83379 0.78532 0.0
H551 H 0.33247 0.77091 0.73665 0.0
H552 H 0.40651 0.77808 0.788 0.0
H553 H 0.45122 0.79725 0.84899 0.0
H554 H 0.40021 0.85912 0.89807 0.0
H555 H 0.33273 0.85734 0.84435 0.0
C556 C 0.3107 0.82238 0.78563 0.0
C557 C 0.30231 0.80184 0.75732 0.0
C558 C 0.3524 0.82597 0.81555 0.0
C559 C 0.33816 0.78678 0.75824 0.0
C560 C 0.38031 0.79075 0.78763 0.0
C561 C 0.42601 0.81086 0.84777 0.0
C562 C 0.43039 0.82796 0.87765 0.0
C563 C 0.38696 0.80952 0.81684 0.0
C564 C 0.39707 0.84527 0.87562 0.0
C565 C 0.35859 0.84439 0.84487 0.0
H566 H 0.90681 0.92594 0.46806 0.0
H567 H 0.85793 0.86426 0.53196 0.0
H568 H 0.88776 0.90495 0.579 0.0
H569 H 0.91708 0.95903 0.59927 0.0
H570 H 0.96667 0.02147 0.53657 0.0
H571 H 0.94801 0.97974 0.49199 0.0
C572 C 0.90403 0.92134 0.49261 0.0
C573 C 0.87953 0.89221 0.49638 0.0
C574 C 0.92077 0.94509 0.51959 0.0
C575 C 0.87602 0.88658 0.52831 0.0
C576 C 0.89294 0.90985 0.55519 0.0
C577 C 0.92468 0.96334 0.57609 0.0
C578 C 0.94278 0.99312 0.57094 0.0
C579 C 0.91362 0.93934 0.5507 0.0
C580 C 0.9528 0.99861 0.54099 0.0
C581 C 0.94185 0.97479 0.51547 0.0
H582 H 0.74301 0.26492 0.03183 0.0
H583 H 0.72199 0.32407 0.95359 0.0
H584 H 0.64911 0.33053 0.96331 0.0
H585 H 0.59028 0.31905 0.99375 0.0
H586 H 0.61865 0.26584 0.07697 0.0
H587 H 0.69053 0.25805 0.0661 0.0
C588 C 0.7236 0.27987 0.0173 0.0
C589 C 0.73856 0.29369 0.99171 0.0
C590 C 0.68289 0.28471 0.02405 0.0
C591 C 0.7112 0.31229 0.97279 0.0
C592 C 0.66959 0.31636 0.9786 0.0
C593 C 0.61295 0.30634 0.00993 0.0
C594 C 0.59959 0.29323 0.0363 0.0
C595 C 0.65502 0.30264 0.00411 0.0
C596 C 0.62849 0.27621 0.05662 0.0
C597 C 0.66944 0.27173 0.05036 0.0
H598 H 0.18507 0.8708 0.60319 0.0
H599 H 0.14605 0.93097 0.6635 0.0
H600 H 0.16935 0.9721 0.6323 0.0
H601 H 0.1968 0.99046 0.58573 0.0
H602 H 0.23543 0.9307 0.5251 0.0
H603 H 0.21684 0.88995 0.55858 0.0
C604 C 0.18248 0.89304 0.60985 0.0
C605 C 0.16354 0.89775 0.63548 0.0
C606 C 0.19559 0.91659 0.59157 0.0
C607 C 0.1599 0.92665 0.64357 0.0
C608 C 0.17328 0.95021 0.62579 0.0
C609 C 0.20137 0.96851 0.58019 0.0
C610 C 0.21715 0.96325 0.55318 0.0
C611 C 0.1904 0.94533 0.59939 0.0
C612 C 0.22318 0.93495 0.5459 0.0
C613 C 0.21254 0.91176 0.56497 0.0
H614 H 0.7736 0.77926 0.28225 0.0
H615 H 0.87194 0.86797 0.29637 0.0
H616 H 0.83165 0.87273 0.23575 0.0
H617 H 0.76928 0.85098 0.17883 0.0
H618 H 0.66587 0.76388 0.16701 0.0
H619 H 0.70827 0.75885 0.22632 0.0
C620 C 0.78598 0.79962 0.27191 0.0
C621 C 0.82558 0.8232 0.29333 0.0
C622 C 0.76219 0.8023 0.23742 0.0
C623 C 0.84138 0.84962 0.2801 0.0
C624 C 0.81846 0.85224 0.24553 0.0
C625 C 0.75538 0.83102 0.18915 0.0
C626 C 0.71446 0.80772 0.16782 0.0
C627 C 0.77883 0.82866 0.22391 0.0
C628 C 0.69798 0.78189 0.18206 0.0
C629 C 0.72187 0.77908 0.21628 0.0
H630 H 0.91857 0.28141 0.83227 0.0
H631 H 0.81194 0.21071 0.85347 0.0
H632 H 0.83034 0.17329 0.82092 0.0
H633 H 0.87388 0.16089 0.78407 0.0
H634 H 0.97734 0.23207 0.76084 0.0
H635 H 0.96205 0.26916 0.79587 0.0
C636 C 0.89886 0.25786 0.82952 0.0
C637 C 0.86356 0.24901 0.84516 0.0
C638 C 0.90882 0.23655 0.81017 0.0
C639 C 0.83954 0.21823 0.84201 0.0
C640 C 0.8498 0.19681 0.82317 0.0
C641 C 0.89343 0.1845 0.78699 0.0
C642 C 0.92669 0.19373 0.76986 0.0
C643 C 0.88405 0.20574 0.8069 0.0
C644 C 0.95124 0.22444 0.77349 0.0
C645 C 0.94264 0.24562 0.79361 0.0
H646 H 0.3077 0.29993 0.24657 0.0
H647 H 0.41865 0.25431 0.29326 0.0
H648 H 0.44289 0.25662 0.24305 0.0
H649 H 0.43377 0.27264 0.18625 0.0
H650 H 0.31963 0.31539 0.13793 0.0
H651 H 0.29572 0.31363 0.18843 0.0
C652 C 0.33712 0.29047 0.24564 0.0
C653 C 0.36138 0.27698 0.27355 0.0
C654 C 0.3506 0.29169 0.21657 0.0
C655 C 0.39911 0.26454 0.27195 0.0
C656 C 0.41319 0.26603 0.24336 0.0
C657 C 0.40376 0.28161 0.18697 0.0
C658 C 0.37933 0.29489 0.15899 0.0
C659 C 0.38942 0.27971 0.21562 0.0
C660 C 0.33983 0.30588 0.15968 0.0
C661 C 0.32595 0.30465 0.18839 0.0
H662 H 0.8524 0.73885 0.84912 0.0
H663 H 0.00968 0.77678 0.90132 0.0
H664 H 0.02447 0.72966 0.8856 0.0
H665 H 0.99329 0.6786 0.85521 0.0
H666 H 0.83602 0.63972 0.80394 0.0
H667 H 0.82073 0.68641 0.82089 0.0
C668 C 0.88982 0.73662 0.85746 0.0
C669 C 0.92989 0.76135 0.8762 0.0
C670 C 0.89812 0.70943 0.84824 0.0
C671 C 0.97825 0.75824 0.88647 0.0
C672 C 0.98674 0.73128 0.87758 0.0
C673 C 0.95556 0.68008 0.84818 0.0
C674 C 0.91589 0.65559 0.82834 0.0
C675 C 0.94703 0.70686 0.85818 0.0
C676 C 0.86733 0.65829 0.81884 0.0
C677 C 0.85852 0.68493 0.82871 0.0
H678 H 0.87926 0.38535 0.40145 0.0
H679 H 0.99694 0.35416 0.38774 0.0
H680 H 0.04472 0.40612 0.39115 0.0
H681 H 0.04779 0.46004 0.39012 0.0
H682 H 0.92889 0.49084 0.40185 0.0
H683 H 0.88662 0.43957 0.40706 0.0
C684 C 0.91574 0.39 0.39977 0.0
C685 C 0.93433 0.36592 0.39405 0.0
C686 C 0.94243 0.41987 0.40095 0.0
C687 C 0.9819 0.37225 0.39237 0.0
C688 C 0.00902 0.40197 0.39395 0.0
C689 C 0.01316 0.45543 0.39458 0.0
C690 C 0.99114 0.47882 0.3956 0.0
C691 C 0.98893 0.42587 0.39708 0.0
C692 C 0.94625 0.47296 0.40114 0.0
C693 C 0.92211 0.44371 0.40395 0.0
H694 H 0.06976 0.33586 0.73792 0.0
H695 H 0.18789 0.3912 0.71169 0.0
H696 H 0.15405 0.43404 0.71191 0.0
H697 H 0.09489 0.457 0.72416 0.0
H698 H 0.97575 0.40222 0.74954 0.0
H699 H 0.00562 0.35792 0.74496 0.0
C700 C 0.08765 0.35724 0.73191 0.0
C701 C 0.13125 0.36036 0.72483 0.0
C702 C 0.06799 0.38191 0.73215 0.0
C703 C 0.15398 0.38812 0.71684 0.0
C704 C 0.13489 0.41271 0.71722 0.0
C705 C 0.07526 0.43523 0.72826 0.0
C706 C 0.03348 0.43272 0.73729 0.0
C707 C 0.09253 0.41002 0.72548 0.0
C708 C 0.00791 0.40449 0.74236 0.0
C709 C 0.02514 0.37928 0.73994 0.0
H710 H 0.30126 0.73792 0.30313 0.0
H711 H 0.16223 0.75361 0.2438 0.0
H712 H 0.11718 0.70841 0.26011 0.0
H713 H 0.11776 0.66651 0.29448 0.0
H714 H 0.25579 0.64777 0.35002 0.0
H715 H 0.30122 0.69224 0.3325 0.0
C716 C 0.26111 0.73091 0.29328 0.0
C717 C 0.23481 0.74865 0.27214 0.0
C718 C 0.23553 0.70478 0.30261 0.0
C719 C 0.1829 0.73985 0.25972 0.0
C720 C 0.15726 0.71424 0.26928 0.0
C721 C 0.15776 0.67205 0.30238 0.0
C722 C 0.1836 0.65429 0.32386 0.0
C723 C 0.18322 0.69687 0.29121 0.0
C724 C 0.23535 0.6615 0.3339 0.0
C725 C 0.2612 0.68677 0.32375 0.0
H726 H 0.0057 0.97683 0.85918 0.0
H727 H 0.95134 0.89845 0.78386 0.0
H728 H 0.93302 0.92986 0.73777 0.0
H729 H 0.93735 0.98045 0.71905 0.0
H730 H 0.98889 0.05815 0.79493 0.0
H731 H 0.00349 0.02637 0.84075 0.0
C732 C 0.98958 0.96669 0.83264 0.0
C733 C 0.98022 0.93553 0.82478 0.0
C734 C 0.97905 0.98482 0.80647 0.0
C735 C 0.95869 0.92245 0.7904 0.0
C736 C 0.94848 0.9404 0.7641 0.0
C737 C 0.95154 0.99019 0.74566 0.0
C738 C 0.9633 0.02147 0.75391 0.0
C739 C 0.95925 0.97169 0.77183 0.0
C740 C 0.98066 0.03408 0.78829 0.0
C741 C 0.98888 0.01596 0.81439 0.0
H742 H 0.80837 0.32677 0.28883 0.0
H743 H 0.73332 0.2609 0.3372 0.0
H744 H 0.65624 0.25202 0.2876 0.0
H745 H 0.60962 0.26445 0.23091 0.0
H746 H 0.6861 0.33113 0.18406 0.0
H747 H 0.76318 0.3383 0.23264 0.0
C748 C 0.77499 0.31072 0.28871 0.0
C749 C 0.77631 0.29482 0.31678 0.0
C750 C 0.73114 0.30581 0.2603 0.0
C751 C 0.73314 0.27346 0.31585 0.0
C752 C 0.68911 0.26841 0.28754 0.0
C753 C 0.64339 0.28025 0.23132 0.0
C754 C 0.64233 0.29737 0.20417 0.0
C755 C 0.68762 0.28455 0.25963 0.0
C756 C 0.6861 0.31794 0.20492 0.0
C757 C 0.73011 0.32206 0.23264 0.0
H758 H 0.2168 0.25031 0.58298 0.0
H759 H 0.28048 0.22706 0.68401 0.0
H760 H 0.2816 0.17848 0.65922 0.0
H761 H 0.26719 0.1435 0.60827 0.0
H762 H 0.2007 0.16686 0.50761 0.0
H763 H 0.19807 0.21459 0.53267 0.0
C764 C 0.23082 0.23453 0.59952 0.0
C765 C 0.24899 0.24222 0.63518 0.0
C766 C 0.23104 0.20679 0.58511 0.0
C767 C 0.26628 0.22149 0.65645 0.0
C768 C 0.26715 0.19385 0.64228 0.0
C769 C 0.25216 0.15912 0.59198 0.0
C770 C 0.23432 0.15185 0.55621 0.0
C771 C 0.25015 0.18641 0.60661 0.0
C772 C 0.21439 0.172 0.53522 0.0
C773 C 0.213 0.19929 0.54951 0.0
H774 H 0.3999 0.82795 0.17129 0.0
H775 H 0.27289 0.79614 0.07793 0.0
H776 H 0.32662 0.79055 0.04685 0.0
H777 H 0.40992 0.79823 0.04517 0.0
H778 H 0.53742 0.82921 0.13792 0.0
H779 H 0.48351 0.83174 0.17041 0.0
C780 C 0.38399 0.81924 0.1443 0.0
C781 C 0.33249 0.81276 0.12688 0.0
C782 C 0.41522 0.81621 0.12647 0.0
C783 C 0.31245 0.80174 0.09181 0.0
C784 C 0.34312 0.7985 0.07402 0.0
C785 C 0.42567 0.8049 0.07263 0.0
C786 C 0.47725 0.81307 0.0894 0.0
C787 C 0.39455 0.80622 0.09092 0.0
C788 C 0.49764 0.82249 0.12475 0.0
C789 C 0.46687 0.82398 0.14321 0.0
H790 H 0.96594 0.17567 0.46619 0.0
H791 H 0.86765 0.22792 0.47465 0.0
H792 H 0.86595 0.20747 0.52689 0.0
H793 H 0.89154 0.17422 0.57023 0.0
H794 H 0.97823 0.11628 0.55637 0.0
H795 H 0.98403 0.13892 0.50549 0.0
C796 C 0.94299 0.18224 0.47868 0.0
C797 C 0.91713 0.20362 0.46589 0.0
C798 C 0.93957 0.16902 0.50769 0.0
C799 C 0.88924 0.21226 0.48384 0.0
C800 C 0.88754 0.20019 0.51365 0.0
C801 C 0.91023 0.16586 0.55536 0.0
C802 C 0.93328 0.14305 0.56635 0.0
C803 C 0.91224 0.1784 0.52566 0.0
C804 C 0.95946 0.13344 0.54788 0.0
C805 C 0.96299 0.14649 0.51899 0.0
H806 H 0.21675 0.33734 0.82701 0.0
H807 H 0.22565 0.25272 0.78623 0.0
H808 H 0.26675 0.24266 0.84428 0.0
H809 H 0.30594 0.26002 0.9065 0.0
H810 H 0.29083 0.34314 0.946 0.0
H811 H 0.24477 0.35105 0.88834 0.0
C812 C 0.22596 0.31614 0.83048 0.0
C813 C 0.21803 0.29593 0.80189 0.0
C814 C 0.24877 0.31026 0.86382 0.0
C815 C 0.23198 0.26906 0.80754 0.0
C816 C 0.25528 0.26317 0.8408 0.0
C817 C 0.29163 0.27951 0.90256 0.0
C818 C 0.30283 0.30127 0.93055 0.0
C819 C 0.26477 0.28393 0.86915 0.0
C820 C 0.28398 0.32643 0.92489 0.0
C821 C 0.25744 0.33094 0.89191 0.0
H822 H 0.22784 0.83506 0.32126 0.0
H823 H 0.35922 0.88701 0.30694 0.0
H824 H 0.36229 0.92988 0.34443 0.0
H825 H 0.32511 0.95314 0.37922 0.0
H826 H 0.1936 0.90044 0.3929 0.0
H827 H 0.19336 0.85716 0.35786 0.0
C828 C 0.25781 0.85552 0.32689 0.0
C829 C 0.29349 0.85776 0.31156 0.0
C830 C 0.25905 0.88 0.34812 0.0
C831 C 0.33125 0.88477 0.31838 0.0
C832 C 0.33302 0.90924 0.33982 0.0
C833 C 0.2968 0.93206 0.37485 0.0
C834 C 0.2592 0.93009 0.38842 0.0
C835 C 0.29676 0.90721 0.35453 0.0
C836 C 0.22247 0.9027 0.38227 0.0
C837 C 0.22243 0.8779 0.36239 0.0
H838 H 0.86408 0.80086 0.95884 0.0
H839 H 0.80045 0.84657 0.87427 0.0
H840 H 0.73654 0.85112 0.89683 0.0
H841 H 0.69781 0.84106 0.94006 0.0
H842 H 0.76321 0.79741 0.02601 0.0
H843 H 0.82751 0.79292 0.00361 0.0
C844 C 0.83601 0.81167 0.94537 0.0
C845 C 0.83648 0.82314 0.91485 0.0
C846 C 0.80007 0.81471 0.95888 0.0
C847 C 0.80057 0.83756 0.8978 0.0
C848 C 0.76414 0.84016 0.91068 0.0
C849 C 0.72685 0.83116 0.95415 0.0
C850 C 0.72672 0.82011 0.98491 0.0
C851 C 0.76356 0.82884 0.94119 0.0
C852 C 0.76341 0.8065 0.00257 0.0
C853 C 0.79984 0.8038 0.98967 0.0
loop_
_geom_bond_atom_site_label_1
_geom_bond_atom_site_label_2
_geom_bond_distance
_geom_bond_site_symmetry_2
_ccdc_geom_bond_type
H0 C1 0.949 . S
C1 H0 0.949 . S
C1 C2 1.395 . S
C1 C3 1.391 . S
C2 C1 1.395 . S
C2 C5 1.390 . S
C3 C1 1.391 . S
C3 C7 1.387 . S
C3 C8 1.491 . S
H4 C5 0.950 . S
C5 C2 1.390 . S
C5 H4 0.950 . S
C5 C6 1.378 . S
C6 C5 1.378 . S
C6 C7 1.409 . S
C7 C3 1.387 . S
C7 C6 1.409 . S
C7 H9 0.951 . S
C8 C3 1.491 . S
C8 C10 1.382 . S
C8 C12 1.404 . S
H9 C7 0.951 . S
C10 C8 1.382 . S
C10 C11 1.390 . S
C10 H15 0.949 . S
C11 C10 1.390 . S
C11 C16 1.399 . S
C12 C8 1.404 . S
C12 H13 0.950 . S
C12 C14 1.375 . S
H13 C12 0.950 . S
C14 C12 1.375 . S
C14 C16 1.382 . S
C14 H18 0.950 . S
H15 C10 0.949 . S
C16 C11 1.399 . S
C16 C14 1.382 . S
C16 H17 0.952 . S
H17 C16 0.952 . S
H18 C14 0.950 . S
H19 C20 0.949 . S
C20 H19 0.949 . S
C20 C21 1.395 . S
C20 C22 1.391 . S
C21 C20 1.395 . S
C21 C24 1.390 . S
C22 C20 1.391 . S
C22 C26 1.387 . S
C22 C27 1.491 . S
H23 C24 0.950 . S
C24 C21 1.390 . S
C24 H23 0.950 . S
C24 C25 1.378 . S
C25 C24 1.378 . S
C25 C26 1.409 . S
C26 C22 1.387 . S
C26 C25 1.409 . S
C26 H28 0.951 . S
C27 C22 1.491 . S
C27 C29 1.382 . S
C27 C31 1.404 . S
H28 C26 0.951 . S
C29 C27 1.382 . S
C29 C30 1.390 . S
C29 H34 0.949 . S
C30 C29 1.390 . S
C30 C35 1.399 . S
C31 C27 1.404 . S
C31 H32 0.950 . S
C31 C33 1.375 . S
H32 C31 0.950 . S
C33 C31 1.375 . S
C33 C35 1.382 . S
C33 H37 0.950 . S
H34 C29 0.949 . S
C35 C30 1.399 . S
C35 C33 1.382 . S
C35 H36 0.952 . S
H36 C35 0.952 . S
H37 C33 0.950 . S
H38 C39 0.949 . S
C39 H38 0.949 . S
C39 C40 1.395 . S
C39 C41 1.391 . S
C40 C39 1.395 . S
C40 C43 1.390 . S
C41 C39 1.391 . S
C41 C45 1.387 . S
C41 C46 1.491 . S
H42 C43 0.950 . S
C43 C40 1.390 . S
C43 H42 0.950 . S
C43 C44 1.378 . S
C44 C43 1.378 . S
C44 C45 1.409 . S
C45 C41 1.387 . S
C45 C44 1.409 . S
C45 H47 0.951 . S
C46 C41 1.491 . S
C46 C48 1.382 . S
C46 C50 1.404 . S
H47 C45 0.951 . S
C48 C46 1.382 . S
C48 C49 1.390 . S
C48 H53 0.949 . S
C49 C48 1.390 . S
C49 C54 1.399 . S
C50 C46 1.404 . S
C50 H51 0.950 . S
C50 C52 1.375 . S
H51 C50 0.950 . S
C52 C50 1.375 . S
C52 C54 1.382 . S
C52 H56 0.950 . S
H53 C48 0.949 . S
C54 C49 1.399 . S
C54 C52 1.382 . S
C54 H55 0.952 . S
H55 C54 0.952 . S
H56 C52 0.950 . S
H57 C58 0.949 . S
C58 H57 0.949 . S
C58 C59 1.395 . S
C58 C60 1.391 . S
C59 C58 1.395 . S
C59 C62 1.390 . S
C60 C58 1.391 . S
C60 C64 1.387 . S
C60 C65 1.491 . S
H61 C62 0.950 . S
C62 C59 1.390 . S
C62 H61 0.950 . S
C62 C63 1.378 . S
C63 C62 1.378 . S
C63 C64 1.409 . S
C64 C60 1.387 . S
C64 C63 1.409 . S
C64 H66 0.951 . S
C65 C60 1.491 . S
C65 C67 1.382 . S
C65 C69 1.404 . S
H66 C64 0.951 . S
C67 C65 1.382 . S
C67 C68 1.390 . S
C67 H72 0.949 . S
C68 C67 1.390 . S
C68 C73 1.399 1_556 S
C69 C65 1.404 . S
C69 H70 0.950 . S
C69 C71 1.375 1_556 S
H70 C69 0.950 . S
C71 C69 1.375 1_554 S
C71 C73 1.382 . S
C71 H75 0.950 . S
H72 C67 0.949 . S
C73 C68 1.399 1_554 S
C73 C71 1.382 . S
C73 H74 0.952 . S
H74 C73 0.952 . S
H75 C71 0.950 . S
H76 C77 0.949 1_455 S
C77 H76 0.949 1_655 S
C77 C78 1.395 . S
C77 C79 1.391 . S
C78 C77 1.395 . S
C78 C81 1.390 . S
C79 C77 1.391 . S
C79 C83 1.387 . S
C79 C84 1.491 . S
H80 C81 0.950 . S
C81 C78 1.390 . S
C81 H80 0.950 . S
C81 C82 1.378 . S
C82 C81 1.378 . S
C82 C83 1.409 . S
C83 C79 1.387 . S
C83 C82 1.409 . S
C83 H85 0.951 . S
C84 C79 1.491 . S
C84 C86 1.382 . S
C84 C88 1.404 . S
H85 C83 0.951 . S
C86 C84 1.382 . S
C86 C87 1.390 1_655 S
C86 H91 0.949 . S
C87 C86 1.390 1_455 S
C87 C92 1.399 . S
C88 C84 1.404 . S
C88 H89 0.950 . S
C88 C90 1.375 1_655 S
H89 C88 0.950 . S
C90 C88 1.375 1_455 S
C90 C92 1.382 . S
C90 H94 0.950 . S
H91 C86 0.949 . S
C92 C87 1.399 . S
C92 C90 1.382 . S
C92 H93 0.952 . S
H93 C92 0.952 . S
H94 C90 0.950 . S
H95 C96 0.949 . S
C96 H95 0.949 . S
C96 C97 1.395 . S
C96 C98 1.391 . S
C97 C96 1.395 . S
C97 C100 1.390 . S
C98 C96 1.391 . S
C98 C102 1.387 . S
C98 C103 1.491 . S
H99 C100 0.950 . S
C100 C97 1.390 . S
C100 H99 0.950 . S
C100 C101 1.378 . S
C101 C100 1.378 . S
C101 C102 1.409 . S
C102 C98 1.387 . S
C102 C101 1.409 . S
C102 H104 0.951 . S
C103 C98 1.491 . S
C103 C105 1.382 . S
C103 C107 1.404 . S
H104 C102 0.951 . S
C105 C103 1.382 . S
C105 C106 1.390 . S
C105 H110 0.949 . S
C106 C105 1.390 . S
C106 C111 1.399 . S
C107 C103 1.404 . S
C107 H108 0.950 . S
C107 C109 1.375 . S
H108 C107 0.950 . S
C109 C107 1.375 . S
C109 C111 1.382 . S
C109 H113 0.950 . S
H110 C105 0.949 . S
C111 C106 1.399 . S
C111 C109 1.382 . S
C111 H112 0.952 . S
H112 C111 0.952 . S
H113 C109 0.950 . S
H114 C115 0.949 . S
C115 H114 0.949 . S
C115 C116 1.395 . S
C115 C117 1.391 . S
C116 C115 1.395 . S
C116 C119 1.390 . S
C117 C115 1.391 . S
C117 C121 1.387 . S
C117 C122 1.491 . S
H118 C119 0.950 . S
C119 C116 1.390 . S
C119 H118 0.950 . S
C119 C120 1.378 . S
C120 C119 1.378 . S
C120 C121 1.409 . S
C121 C117 1.387 . S
C121 C120 1.409 . S
C121 H123 0.951 . S
C122 C117 1.491 . S
C122 C124 1.382 . S
C122 C126 1.404 . S
H123 C121 0.951 . S
C124 C122 1.382 . S
C124 C125 1.390 . S
C124 H129 0.949 . S
C125 C124 1.390 . S
C125 C130 1.399 . S
C126 C122 1.404 . S
C126 H127 0.950 . S
C126 C128 1.375 . S
H127 C126 0.950 . S
C128 C126 1.375 . S
C128 C130 1.382 . S
C128 H132 0.950 . S
H129 C124 0.949 . S
C130 C125 1.399 . S
C130 C128 1.382 . S
C130 H131 0.952 . S
H131 C130 0.952 . S
H132 C128 0.950 . S
H133 C134 0.949 . S
C134 H133 0.949 . S
C134 C135 1.395 . S
C134 C136 1.391 . S
C135 C134 1.395 . S
C135 C138 1.390 . S
C136 C134 1.391 . S
C136 C140 1.387 . S
C136 C141 1.491 . S
H137 C138 0.950 . S
C138 C135 1.390 . S
C138 H137 0.950 . S
C138 C139 1.378 . S
C139 C138 1.378 . S
C139 C140 1.409 . S
C140 C136 1.387 . S
C140 C139 1.409 . S
C140 H142 0.951 . S
C141 C136 1.491 . S
C141 C143 1.382 . S
C141 C145 1.404 . S
H142 C140 0.951 . S
C143 C141 1.382 . S
C143 C144 1.390 . S
C143 H148 0.949 . S
C144 C143 1.390 . S
C144 C149 1.399 . S
C145 C141 1.404 . S
C145 H146 0.950 . S
C145 C147 1.375 . S
H146 C145 0.950 . S
C147 C145 1.375 . S
C147 C149 1.382 . S
C147 H151 0.950 . S
H148 C143 0.949 . S
C149 C144 1.399 . S
C149 C147 1.382 . S
C149 H150 0.952 . S
H150 C149 0.952 . S
H151 C147 0.950 . S
C152 C153 1.443 . S
C152 N156 1.376 . S
C152 C190 1.389 . S
C153 C152 1.443 . S
C153 C154 1.340 . S
C153 H193 0.951 . S
C154 C153 1.340 . S
C154 C155 1.439 . S
C154 H194 0.950 . S
C155 C154 1.439 . S
C155 N156 1.374 . S
C155 C189 1.395 . S
N156 C152 1.376 . S
N156 C155 1.374 . S
N156 Co157 2.008 . S
Co157 N156 2.008 . S
Co157 N158 1.995 . S
Co157 N163 2.008 1_455 S
Co157 N168 1.995 1_455 S
Co157 N173 2.282 . S
Co157 N179 2.282 1_455 S
N158 Co157 1.995 . S
N158 C159 1.376 . S
N158 C162 1.383 1_455 S
C159 N158 1.376 . S
C159 C160 1.446 . S
C159 C189 1.391 . S
C160 C159 1.446 . S
C160 C161 1.339 . S
C160 H195 0.949 . S
C161 C160 1.339 . S
C161 C162 1.439 1_455 S
C161 H196 0.950 . S
C162 N158 1.383 1_655 S
C162 C161 1.439 1_655 S
C162 C191 1.392 . S
N163 Co157 2.008 1_655 S
N163 C164 1.376 . S
N163 C167 1.374 . S
C164 N163 1.376 . S
C164 C165 1.443 . S
C164 C191 1.389 . S
C165 C164 1.443 . S
C165 C166 1.340 . S
C165 H197 0.951 . S
C166 C165 1.340 . S
C166 C167 1.439 . S
C166 H198 0.950 . S
C167 N163 1.374 . S
C167 C166 1.439 . S
C167 C192 1.395 . S
N168 Co157 1.995 1_655 S
N168 C169 1.376 . S
N168 C172 1.383 1_655 S
C169 N168 1.376 . S
C169 C170 1.446 . S
C169 C192 1.391 . S
C170 C169 1.446 . S
C170 C171 1.339 1_655 S
C170 H199 0.949 . S
C171 C170 1.339 1_455 S
C171 C172 1.439 . S
C171 H200 0.950 . S
C172 N168 1.383 1_455 S
C172 C171 1.439 . S
C172 C190 1.392 . S
N173 Co157 2.282 . S
N173 C176 1.332 . S
N173 C178 1.332 . S
C174 C175 1.386 . S
C174 C177 1.388 . S
C175 C174 1.386 . S
C175 C176 1.382 . S
C175 H201 0.950 1_455 S
C176 N173 1.332 . S
C176 C175 1.382 . S
C176 H187 0.952 1_455 S
C177 C174 1.388 . S
C177 C178 1.382 . S
C177 H202 0.950 . S
C178 N173 1.332 . S
C178 C177 1.382 . S
C178 H188 0.948 . S
N179 Co157 2.282 1_655 S
N179 C183 1.332 1_655 S
N179 C184 1.332 . S
C180 C181 1.388 . S
C180 C184 1.382 . S
C180 H203 0.950 . S
C181 C180 1.388 . S
C181 C182 1.386 1_655 S
C182 C181 1.386 1_455 S
C182 C183 1.382 . S
C182 H204 0.950 . S
C183 N179 1.332 1_455 S
C183 C182 1.382 . S
C183 H185 0.952 . S
C184 N179 1.332 . S
C184 C180 1.382 . S
C184 H186 0.948 . S
H185 C183 0.952 . S
H186 C184 0.948 . S
H187 C176 0.952 1_655 S
H188 C178 0.948 . S
C189 C155 1.395 . S
C189 C159 1.391 . S
C190 C152 1.389 . S
C190 C172 1.392 . S
C191 C162 1.392 . S
C191 C164 1.389 . S
C192 C167 1.395 . S
C192 C169 1.391 . S
H193 C153 0.951 . S
H194 C154 0.950 . S
H195 C160 0.949 . S
H196 C161 0.950 . S
H197 C165 0.951 . S
H198 C166 0.950 . S
H199 C170 0.949 . S
H200 C171 0.950 . S
H201 C175 0.950 1_655 S
H202 C177 0.950 . S
H203 C180 0.950 . S
H204 C182 0.950 . S
C205 C206 1.443 . S
C205 N209 1.376 . S
C205 C243 1.389 . S
C206 C205 1.443 . S
C206 C207 1.340 . S
C206 H246 0.951 . S
C207 C206 1.340 . S
C207 C208 1.439 . S
C207 H247 0.950 . S
C208 C207 1.439 . S
C208 N209 1.374 . S
C208 C242 1.395 . S
N209 C205 1.376 . S
N209 C208 1.374 . S
N209 Co210 2.008 . S
Co210 N209 2.008 . S
Co210 N211 1.995 . S
Co210 N216 2.008 1_455 S
Co210 N221 1.995 . S
Co210 N226 2.282 . S
Co210 N232 2.282 . S
N211 Co210 1.995 . S
N211 C212 1.376 . S
N211 C215 1.383 . S
C212 N211 1.376 . S
C212 C213 1.446 . S
C212 C242 1.391 . S
C213 C212 1.446 . S
C213 C214 1.339 . S
C213 H248 0.949 . S
C214 C213 1.339 . S
C214 C215 1.439 . S
C214 H249 0.950 . S
C215 N211 1.383 . S
C215 C214 1.439 . S
C215 C244 1.392 1_455 S
N216 Co210 2.008 1_655 S
N216 C217 1.376 . S
N216 C220 1.374 . S
C217 N216 1.376 . S
C217 C218 1.443 . S
C217 C244 1.389 . S
C218 C217 1.443 . S
C218 C219 1.340 . S
C218 H250 0.951 . S
C219 C218 1.340 . S
C219 C220 1.439 . S
C219 H251 0.950 . S
C220 N216 1.374 . S
C220 C219 1.439 . S
C220 C245 1.395 . S
N221 Co210 1.995 . S
N221 C222 1.376 1_455 S
N221 C225 1.383 . S
C222 N221 1.376 1_655 S
C222 C223 1.446 . S
C222 C245 1.391 . S
C223 C222 1.446 . S
C223 C224 1.339 1_655 S
C223 H252 0.949 . S
C224 C223 1.339 1_455 S
C224 C225 1.439 . S
C224 H253 0.950 . S
C225 N221 1.383 . S
C225 C224 1.439 . S
C225 C243 1.392 . S
N226 Co210 2.282 . S
N226 C229 1.332 . S
N226 C231 1.332 . S
C227 C228 1.386 . S
C227 C230 1.388 . S
C228 C227 1.386 . S
C228 C229 1.382 . S
C228 H254 0.950 . S
C229 N226 1.332 . S
C229 C228 1.382 . S
C229 H240 0.952 . S
C230 C227 1.388 . S
C230 C231 1.382 . S
C230 H255 0.950 . S
C231 N226 1.332 . S
C231 C230 1.382 . S
C231 H241 0.948 . S
N232 Co210 2.282 . S
N232 C236 1.332 . S
N232 C237 1.332 1_455 S
C233 C234 1.388 . S
C233 C237 1.382 . S
C233 H256 0.950 . S
C234 C233 1.388 . S
C234 C235 1.386 1_655 S
C235 C234 1.386 1_455 S
C235 C236 1.382 . S
C235 H257 0.950 . S
C236 N232 1.332 . S
C236 C235 1.382 . S
C236 H238 0.952 . S
C237 N232 1.332 1_655 S
C237 C233 1.382 . S
C237 H239 0.948 . S
H238 C236 0.952 . S
H239 C237 0.948 . S
H240 C229 0.952 . S
H241 C231 0.948 . S
C242 C208 1.395 . S
C242 C212 1.391 . S
C243 C205 1.389 . S
C243 C225 1.392 . S
C244 C215 1.392 1_655 S
C244 C217 1.389 . S
C245 C220 1.395 . S
C245 C222 1.391 . S
H246 C206 0.951 . S
H247 C207 0.950 . S
H248 C213 0.949 . S
H249 C214 0.950 . S
H250 C218 0.951 . S
H251 C219 0.950 . S
H252 C223 0.949 . S
H253 C224 0.950 . S
H254 C228 0.950 . S
H255 C230 0.950 . S
H256 C233 0.950 . S
H257 C235 0.950 . S
C258 C259 1.443 . S
C258 N262 1.376 1_565 S
C258 C296 1.389 . S
C259 C258 1.443 . S
C259 C260 1.340 1_565 S
C259 H299 0.951 . S
C260 C259 1.340 1_545 S
C260 C261 1.439 . S
C260 H300 0.950 . S
C261 C260 1.439 . S
C261 N262 1.374 . S
C261 C295 1.395 . S
N262 C258 1.376 1_545 S
N262 C261 1.374 . S
N262 Co263 2.008 . S
Co263 N262 2.008 . S
Co263 N264 1.995 . S
Co263 N269 2.008 . S
Co263 N274 1.995 1_545 S
Co263 N279 2.282 . S
Co263 N285 2.282 1_545 S
N264 Co263 1.995 . S
N264 C265 1.376 . S
N264 C268 1.383 . S
C265 N264 1.376 . S
C265 C266 1.446 . S
C265 C295 1.391 . S
C266 C265 1.446 . S
C266 C267 1.339 . S
C266 H301 0.949 . S
C267 C266 1.339 . S
C267 C268 1.439 . S
C267 H302 0.950 . S
C268 N264 1.383 . S
C268 C267 1.439 . S
C268 C297 1.392 . S
N269 Co263 2.008 . S
N269 C270 1.376 . S
N269 C273 1.374 . S
C270 N269 1.376 . S
C270 C271 1.443 . S
C270 C297 1.389 . S
C271 C270 1.443 . S
C271 C272 1.340 . S
C271 H303 0.951 . S
C272 C271 1.340 . S
C272 C273 1.439 . S
C272 H304 0.950 . S
C273 N269 1.374 . S
C273 C272 1.439 . S
C273 C298 1.395 1_545 S
N274 Co263 1.995 1_565 S
N274 C275 1.376 . S
N274 C278 1.383 . S
C275 N274 1.376 . S
C275 C276 1.446 . S
C275 C298 1.391 . S
C276 C275 1.446 . S
C276 C277 1.339 . S
C276 H305 0.949 . S
C277 C276 1.339 . S
C277 C278 1.439 . S
C277 H306 0.950 . S
C278 N274 1.383 . S
C278 C277 1.439 . S
C278 C296 1.392 . S
N279 Co263 2.282 . S
N279 C282 1.332 . S
N279 C284 1.332 . S
C280 C281 1.386 . S
C280 C283 1.388 . S
C281 C280 1.386 . S
C281 C282 1.382 . S
C281 H307 0.950 . S
C282 N279 1.332 . S
C282 C281 1.382 . S
C282 H293 0.952 . S
C283 C280 1.388 . S
C283 C284 1.382 . S
C283 H308 0.950 . S
C284 N279 1.332 . S
C284 C283 1.382 . S
C284 H294 0.948 . S
N285 Co263 2.282 1_565 S
N285 C289 1.332 . S
N285 C290 1.332 . S
C286 C287 1.388 . S
C286 C290 1.382 . S
C286 H309 0.950 . S
C287 C286 1.388 . S
C287 C288 1.386 . S
C288 C287 1.386 . S
C288 C289 1.382 . S
C288 H310 0.950 . S
C289 N285 1.332 . S
C289 C288 1.382 . S
C289 H291 0.952 1_565 S
C290 N285 1.332 . S
C290 C286 1.382 . S
C290 H292 0.948 . S
H291 C289 0.952 1_545 S
H292 C290 0.948 . S
H293 C282 0.952 . S
H294 C284 0.948 . S
C295 C261 1.395 . S
C295 C265 1.391 . S
C296 C258 1.389 . S
C296 C278 1.392 . S
C297 C268 1.392 . S
C297 C270 1.389 . S
C298 C273 1.395 1_565 S
C298 C275 1.391 . S
H299 C259 0.951 . S
H300 C260 0.950 . S
H301 C266 0.949 . S
H302 C267 0.950 . S
H303 C271 0.951 . S
H304 C272 0.950 . S
H305 C276 0.949 . S
H306 C277 0.950 . S
H307 C281 0.950 . S
H308 C283 0.950 . S
H309 C286 0.950 . S
H310 C288 0.950 . S
C311 C312 1.443 . S
C311 N315 1.376 . S
C311 C349 1.389 . S
C312 C311 1.443 . S
C312 C313 1.340 . S
C312 H352 0.951 . S
C313 C312 1.340 . S
C313 C314 1.439 . S
C313 H353 0.950 . S
C314 C313 1.439 . S
C314 N315 1.374 . S
C314 C348 1.395 . S
N315 C311 1.376 . S
N315 C314 1.374 . S
N315 Co316 2.008 . S
Co316 N315 2.008 . S
Co316 N317 1.995 . S
Co316 N322 2.008 1_554 S
Co316 N327 1.995 . S
Co316 N332 2.282 1_554 S
Co316 N338 2.282 . S
N317 Co316 1.995 . S
N317 C318 1.376 . S
N317 C321 1.383 1_554 S
C318 N317 1.376 . S
C318 C319 1.446 1_554 S
C318 C348 1.391 . S
C319 C318 1.446 1_556 S
C319 C320 1.339 . S
C319 H354 0.949 . S
C320 C319 1.339 . S
C320 C321 1.439 . S
C320 H355 0.950 . S
C321 N317 1.383 1_556 S
C321 C320 1.439 . S
C321 C350 1.392 . S
N322 Co316 2.008 1_556 S
N322 C323 1.376 . S
N322 C326 1.374 . S
C323 N322 1.376 . S
C323 C324 1.443 . S
C323 C350 1.389 . S
C324 C323 1.443 . S
C324 C325 1.340 . S
C324 H356 0.951 . S
C325 C324 1.340 . S
C325 C326 1.439 . S
C325 H357 0.950 . S
C326 N322 1.374 . S
C326 C325 1.439 . S
C326 C351 1.395 1_556 S
N327 Co316 1.995 . S
N327 C328 1.376 . S
N327 C331 1.383 . S
C328 N327 1.376 . S
C328 C329 1.446 . S
C328 C351 1.391 . S
C329 C328 1.446 . S
C329 C330 1.339 . S
C329 H358 0.949 . S
C330 C329 1.339 . S
C330 C331 1.439 . S
C330 H359 0.950 . S
C331 N327 1.383 . S
C331 C330 1.439 . S
C331 C349 1.392 . S
N332 Co316 2.282 1_556 S
N332 C335 1.332 . S
N332 C337 1.332 . S
C333 C334 1.386 . S
C333 C336 1.388 . S
C334 C333 1.386 . S
C334 C335 1.382 . S
C334 H360 0.950 . S
C335 N332 1.332 . S
C335 C334 1.382 . S
C335 H346 0.952 . S
C336 C333 1.388 . S
C336 C337 1.382 . S
C336 H361 0.950 . S
C337 N332 1.332 . S
C337 C336 1.382 . S
C337 H347 0.948 . S
N338 Co316 2.282 . S
N338 C342 1.332 . S
N338 C343 1.332 . S
C339 C340 1.388 . S
C339 C343 1.382 . S
C339 H362 0.950 . S
C340 C339 1.388 . S
C340 C341 1.386 . S
C341 C340 1.386 . S
C341 C342 1.382 . S
C341 H363 0.950 . S
C342 N338 1.332 . S
C342 C341 1.382 . S
C342 H344 0.952 . S
C343 N338 1.332 . S
C343 C339 1.382 . S
C343 H345 0.948 . S
H344 C342 0.952 . S
H345 C343 0.948 . S
H346 C335 0.952 . S
H347 C337 0.948 . S
C348 C314 1.395 . S
C348 C318 1.391 . S
C349 C311 1.389 . S
C349 C331 1.392 . S
C350 C321 1.392 . S
C350 C323 1.389 . S
C351 C326 1.395 1_554 S
C351 C328 1.391 . S
H352 C312 0.951 . S
H353 C313 0.950 . S
H354 C319 0.949 . S
H355 C320 0.950 . S
H356 C324 0.951 . S
H357 C325 0.950 . S
H358 C329 0.949 . S
H359 C330 0.950 . S
H360 C334 0.950 . S
H361 C336 0.950 . S
H362 C339 0.950 . S
H363 C341 0.950 . S
C364 C365 1.443 . S
C364 N368 1.376 . S
C364 C402 1.389 . S
C365 C364 1.443 . S
C365 C366 1.340 . S
C365 H405 0.951 . S
C366 C365 1.340 . S
C366 C367 1.439 . S
C366 H406 0.950 . S
C367 C366 1.439 . S
C367 N368 1.374 . S
C367 C401 1.395 . S
N368 C364 1.376 . S
N368 C367 1.374 . S
N368 Co369 2.008 1_455 S
Co369 N368 2.008 1_655 S
Co369 N370 1.995 1_655 S
Co369 N375 2.008 . S
Co369 N380 1.995 . S
Co369 N385 2.282 . S
Co369 N391 2.271 1_655 S
N370 Co369 1.995 1_455 S
N370 C371 1.376 . S
N370 C374 1.383 . S
C371 N370 1.376 . S
C371 C372 1.446 . S
C371 C401 1.391 . S
C372 C371 1.446 . S
C372 C373 1.339 . S
C372 H407 0.949 . S
C373 C372 1.339 . S
C373 C374 1.439 . S
C373 H408 0.950 . S
C374 N370 1.383 . S
C374 C373 1.439 . S
C374 C403 1.392 1_455 S
N375 Co369 2.008 . S
N375 C376 1.376 . S
N375 C379 1.374 . S
C376 N375 1.376 . S
C376 C377 1.443 . S
C376 C403 1.389 . S
C377 C376 1.443 . S
C377 C378 1.340 . S
C377 H409 0.951 . S
C378 C377 1.340 . S
C378 C379 1.439 . S
C378 H410 0.950 . S
C379 N375 1.374 . S
C379 C378 1.439 . S
C379 C404 1.395 . S
N380 Co369 1.995 . S
N380 C381 1.376 . S
N380 C384 1.383 . S
C381 N380 1.376 . S
C381 C382 1.446 . S
C381 C404 1.391 . S
C382 C381 1.446 . S
C382 C383 1.339 . S
C382 H411 0.949 . S
C383 C382 1.339 . S
C383 C384 1.439 . S
C383 H412 0.950 . S
C384 N380 1.383 . S
C384 C383 1.439 . S
C384 C402 1.392 1_655 S
N385 Co369 2.282 . S
N385 C388 1.332 . S
N385 C390 1.332 1_655 S
C386 C387 1.386 . S
C386 C389 1.388 1_655 S
C387 C386 1.386 . S
C387 C388 1.382 . S
C387 H413 0.950 . S
C388 N385 1.332 . S
C388 C387 1.382 . S
C388 H399 0.952 . S
C389 C386 1.388 1_455 S
C389 C390 1.382 . S
C389 H414 0.950 . S
C390 N385 1.332 1_455 S
C390 C389 1.382 . S
C390 H400 0.948 . S
N391 Co369 2.271 1_455 S
N391 C395 1.356 . S
N391 C396 1.322 1_455 S
C392 C393 1.388 1_655 S
C392 C396 1.382 . S
C392 H415 0.950 . S
C393 C392 1.388 1_455 S
C393 C394 1.386 . S
C394 C393 1.386 . S
C394 C395 1.382 . S
C394 H416 0.950 . S
C395 N391 1.356 . S
C395 C394 1.382 . S
C395 H397 0.952 . S
C396 N391 1.322 1_655 S
C396 C392 1.382 . S
C396 H398 0.948 . S
H397 C395 0.952 . S
H398 C396 0.948 . S
H399 C388 0.952 . S
H400 C390 0.948 . S
C401 C367 1.395 . S
C401 C371 1.391 . S
C402 C364 1.389 . S
C402 C384 1.392 1_455 S
C403 C374 1.392 1_655 S
C403 C376 1.389 . S
C404 C379 1.395 . S
C404 C381 1.391 . S
H405 C365 0.951 . S
H406 C366 0.950 . S
H407 C372 0.949 . S
H408 C373 0.950 . S
H409 C377 0.951 . S
H410 C378 0.950 . S
H411 C382 0.949 . S
H412 C383 0.950 . S
H413 C387 0.950 . S
H414 C389 0.950 . S
H415 C392 0.950 . S
H416 C394 0.950 . S
C417 C418 1.443 . S
C417 N421 1.376 . S
C417 C455 1.389 . S
C418 C417 1.443 . S
C418 C419 1.340 . S
C418 H458 0.951 . S
C419 C418 1.340 . S
C419 C420 1.439 . S
C419 H459 0.950 . S
C420 C419 1.439 . S
C420 N421 1.374 . S
C420 C454 1.395 . S
N421 C417 1.376 . S
N421 C420 1.374 . S
N421 Co422 2.008 . S
Co422 N421 2.008 . S
Co422 N423 1.995 . S
Co422 N428 2.008 . S
Co422 N433 1.995 . S
Co422 N438 2.282 . S
Co422 N444 2.282 . S
N423 Co422 1.995 . S
N423 C424 1.376 . S
N423 C427 1.383 . S
C424 N423 1.376 . S
C424 C425 1.446 . S
C424 C454 1.391 . S
C425 C424 1.446 . S
C425 C426 1.339 . S
C425 H460 0.949 . S
C426 C425 1.339 . S
C426 C427 1.439 . S
C426 H461 0.950 . S
C427 N423 1.383 . S
C427 C426 1.439 . S
C427 C456 1.392 . S
N428 Co422 2.008 . S
N428 C429 1.376 . S
N428 C432 1.374 . S
C429 N428 1.376 . S
C429 C430 1.443 . S
C429 C456 1.389 . S
C430 C429 1.443 . S
C430 C431 1.340 . S
C430 H462 0.951 . S
C431 C430 1.340 . S
C431 C432 1.439 . S
C431 H463 0.950 . S
C432 N428 1.374 . S
C432 C431 1.439 . S
C432 C457 1.395 . S
N433 Co422 1.995 . S
N433 C434 1.376 . S
N433 C437 1.383 . S
C434 N433 1.376 . S
C434 C435 1.446 . S
C434 C457 1.391 . S
C435 C434 1.446 . S
C435 C436 1.339 . S
C435 H464 0.949 . S
C436 C435 1.339 . S
C436 C437 1.439 . S
C436 H465 0.950 . S
C437 N433 1.383 . S
C437 C436 1.439 . S
C437 C455 1.392 . S
N438 Co422 2.282 . S
N438 C441 1.332 . S
N438 C443 1.332 . S
C439 C440 1.386 . S
C439 C442 1.388 . S
C440 C439 1.386 . S
C440 C441 1.382 1_556 S
C440 H466 0.950 . S
C441 N438 1.332 . S
C441 C440 1.382 1_554 S
C441 H452 0.952 . S
C442 C439 1.388 . S
C442 C443 1.382 1_556 S
C442 H467 0.950 . S
C443 N438 1.332 . S
C443 C442 1.382 1_554 S
C443 H453 0.948 . S
N444 Co422 2.282 . S
N444 C448 1.332 . S
N444 C449 1.332 . S
C445 C446 1.388 . S
C445 C449 1.382 . S
C445 H468 0.950 . S
C446 C445 1.388 . S
C446 C447 1.386 . S
C447 C446 1.386 . S
C447 C448 1.382 . S
C447 H469 0.950 . S
C448 N444 1.332 . S
C448 C447 1.382 . S
C448 H450 0.952 . S
C449 N444 1.332 . S
C449 C445 1.382 . S
C449 H451 0.948 . S
H450 C448 0.952 . S
H451 C449 0.948 . S
H452 C441 0.952 . S
H453 C443 0.948 . S
C454 C420 1.395 . S
C454 C424 1.391 . S
C455 C417 1.389 . S
C455 C437 1.392 . S
C456 C427 1.392 . S
C456 C429 1.389 . S
C457 C432 1.395 . S
C457 C434 1.391 . S
H458 C418 0.951 . S
H459 C419 0.950 . S
H460 C425 0.949 . S
H461 C426 0.950 . S
H462 C430 0.951 . S
H463 C431 0.950 . S
H464 C435 0.949 . S
H465 C436 0.950 . S
H466 C440 0.950 . S
H467 C442 0.950 . S
H468 C445 0.950 . S
H469 C447 0.950 . S
H470 C476 0.930 . S
H471 C479 0.930 . S
H472 C480 0.930 . S
H473 C481 0.930 . S
H474 C484 0.930 . S
H475 C485 0.930 . S
C476 H470 0.930 . S
C476 C477 1.355 . S
C476 C478 1.415 . S
C477 C476 1.355 . S
C477 C479 1.419 . S
C478 C476 1.415 . S
C478 C483 1.425 . S
C478 C485 1.409 . S
C479 H471 0.930 . S
C479 C477 1.419 . S
C479 C480 1.362 . S
C480 H472 0.930 . S
C480 C479 1.362 . S
C480 C483 1.409 . S
C481 H473 0.930 . S
C481 C482 1.355 . S
C481 C483 1.415 . S
C482 C481 1.355 . S
C482 C484 1.419 . S
C483 C478 1.425 . S
C483 C480 1.409 . S
C483 C481 1.415 . S
C484 H474 0.930 . S
C484 C482 1.419 . S
C484 C485 1.362 . S
C485 H475 0.930 . S
C485 C478 1.409 . S
C485 C484 1.362 . S
H486 C492 0.930 . S
H487 C495 0.930 . S
H488 C496 0.930 . S
H489 C497 0.930 . S
H490 C500 0.930 . S
H491 C501 0.930 . S
C492 H486 0.930 . S
C492 C493 1.355 . S
C492 C494 1.415 . S
C493 C492 1.355 . S
C493 C495 1.419 . S
C494 C492 1.415 . S
C494 C499 1.425 . S
C494 C501 1.409 . S
C495 H487 0.930 . S
C495 C493 1.419 . S
C495 C496 1.362 . S
C496 H488 0.930 . S
C496 C495 1.362 . S
C496 C499 1.409 . S
C497 H489 0.930 . S
C497 C498 1.355 . S
C497 C499 1.415 . S
C498 C497 1.355 . S
C498 C500 1.419 . S
C499 C494 1.425 . S
C499 C496 1.409 . S
C499 C497 1.415 . S
C500 H490 0.930 . S
C500 C498 1.419 . S
C500 C501 1.362 . S
C501 H491 0.930 . S
C501 C494 1.409 . S
C501 C500 1.362 . S
H502 C508 0.930 . S
H503 C511 0.930 . S
H504 C512 0.930 1_455 S
H505 C513 0.928 . S
H506 C516 0.930 . S
H507 C517 0.930 . S
C508 H502 0.930 . S
C508 C509 1.355 . S
C508 C510 1.415 . S
C509 C508 1.355 . S
C509 C511 1.419 . S
C510 C508 1.415 . S
C510 C515 1.425 . S
C510 C517 1.409 . S
C511 H503 0.930 . S
C511 C509 1.419 . S
C511 C512 1.362 . S
C512 H504 0.930 1_655 S
C512 C511 1.362 . S
C512 C515 1.409 . S
C513 H505 0.928 . S
C513 C514 1.355 . S
C513 C515 1.415 . S
C514 C513 1.355 . S
C514 C516 1.419 . S
C515 C510 1.425 . S
C515 C512 1.409 . S
C515 C513 1.415 . S
C516 H506 0.930 . S
C516 C514 1.419 . S
C516 C517 1.362 . S
C517 H507 0.930 . S
C517 C510 1.409 . S
C517 C516 1.362 . S
H518 C524 0.930 . S
H519 C527 0.930 . S
H520 C528 0.930 . S
H521 C529 0.930 . S
H522 C532 0.930 1_455 S
H523 C533 0.930 1_455 S
C524 H518 0.930 . S
C524 C525 1.355 . S
C524 C526 1.415 . S
C525 C524 1.355 . S
C525 C527 1.419 . S
C526 C524 1.415 . S
C526 C531 1.425 . S
C526 C533 1.409 . S
C527 H519 0.930 . S
C527 C525 1.419 . S
C527 C528 1.362 . S
C528 H520 0.930 . S
C528 C527 1.362 . S
C528 C531 1.409 . S
C529 H521 0.930 . S
C529 C530 1.355 . S
C529 C531 1.415 . S
C530 C529 1.355 . S
C530 C532 1.419 . S
C531 C526 1.425 . S
C531 C528 1.409 . S
C531 C529 1.415 . S
C532 H522 0.930 1_655 S
C532 C530 1.419 . S
C532 C533 1.362 . S
C533 H523 0.930 1_655 S
C533 C526 1.409 . S
C533 C532 1.362 . S
H534 C540 0.930 . S
H535 C543 0.930 . S
H536 C544 0.930 . S
H537 C545 0.930 . S
H538 C548 0.930 . S
H539 C549 0.930 . S
C540 H534 0.930 . S
C540 C541 1.355 . S
C540 C542 1.415 . S
C541 C540 1.355 . S
C541 C543 1.419 . S
C542 C540 1.415 . S
C542 C547 1.425 . S
C542 C549 1.409 . S
C543 H535 0.930 . S
C543 C541 1.419 . S
C543 C544 1.362 . S
C544 H536 0.930 . S
C544 C543 1.362 . S
C544 C547 1.409 . S
C545 H537 0.930 . S
C545 C546 1.355 . S
C545 C547 1.415 . S
C546 C545 1.355 . S
C546 C548 1.419 . S
C547 C542 1.425 . S
C547 C544 1.409 . S
C547 C545 1.415 . S
C548 H538 0.930 . S
C548 C546 1.419 . S
C548 C549 1.362 . S
C549 H539 0.930 . S
C549 C542 1.409 . S
C549 C548 1.362 . S
H550 C556 0.930 . S
H551 C559 0.930 . S
H552 C560 0.930 . S
H553 C561 0.930 . S
H554 C564 0.930 . S
H555 C565 0.930 . S
C556 H550 0.930 . S
C556 C557 1.355 . S
C556 C558 1.415 . S
C557 C556 1.355 . S
C557 C559 1.419 . S
C558 C556 1.415 . S
C558 C563 1.425 . S
C558 C565 1.409 . S
C559 H551 0.930 . S
C559 C557 1.419 . S
C559 C560 1.362 . S
C560 H552 0.930 . S
C560 C559 1.362 . S
C560 C563 1.409 . S
C561 H553 0.930 . S
C561 C562 1.355 . S
C561 C563 1.415 . S
C562 C561 1.355 . S
C562 C564 1.419 . S
C563 C558 1.425 . S
C563 C560 1.409 . S
C563 C561 1.415 . S
C564 H554 0.930 . S
C564 C562 1.419 . S
C564 C565 1.362 . S
C565 H555 0.930 . S
C565 C558 1.409 . S
C565 C564 1.362 . S
H566 C572 0.930 . S
H567 C575 0.930 . S
H568 C576 0.930 . S
H569 C577 0.930 . S
H570 C580 0.930 . S
H571 C581 0.930 . S
C572 H566 0.930 . S
C572 C573 1.355 . S
C572 C574 1.415 1_565 S
C573 C572 1.355 . S
C573 C575 1.419 . S
C574 C572 1.415 1_545 S
C574 C579 1.426 . S
C574 C581 1.409 1_655 S
C575 H567 0.930 . S
C575 C573 1.419 . S
C575 C576 1.362 . S
C576 H568 0.930 . S
C576 C575 1.362 . S
C576 C579 1.407 1_565 S
C577 H569 0.930 . S
C577 C578 1.355 1_655 S
C577 C579 1.416 . S
C578 C577 1.355 1_455 S
C578 C580 1.419 . S
C579 C574 1.426 . S
C579 C576 1.407 1_545 S
C579 C577 1.416 . S
C580 H570 0.930 . S
C580 C578 1.419 . S
C580 C581 1.362 . S
C581 H571 0.930 . S
C581 C574 1.409 1_455 S
C581 C580 1.362 . S
H582 C588 0.930 . S
H583 C591 0.930 . S
H584 C592 0.930 . S
H585 C593 0.930 . S
H586 C596 0.930 . S
H587 C597 0.930 . S
C588 H582 0.930 . S
C588 C589 1.355 1_554 S
C588 C590 1.415 . S
C589 C588 1.355 1_556 S
C589 C591 1.419 . S
C590 C588 1.415 . S
C590 C595 1.425 . S
C590 C597 1.409 . S
C591 H583 0.930 . S
C591 C589 1.419 . S
C591 C592 1.362 . S
C592 H584 0.930 . S
C592 C591 1.362 . S
C592 C595 1.409 1_556 S
C593 H585 0.930 . S
C593 C594 1.355 . S
C593 C595 1.415 . S
C594 C593 1.355 . S
C594 C596 1.419 . S
C595 C590 1.425 . S
C595 C592 1.409 1_554 S
C595 C593 1.415 . S
C596 H586 0.930 . S
C596 C594 1.419 . S
C596 C597 1.362 . S
C597 H587 0.930 . S
C597 C590 1.409 . S
C597 C596 1.362 . S
H598 C604 0.930 . S
H599 C607 0.930 . S
H600 C608 0.930 . S
H601 C609 0.930 . S
H602 C612 0.930 . S
H603 C613 0.930 . S
C604 H598 0.930 . S
C604 C605 1.355 . S
C604 C606 1.415 . S
C605 C604 1.355 . S
C605 C607 1.419 . S
C606 C604 1.415 . S
C606 C611 1.425 . S
C606 C613 1.409 . S
C607 H599 0.930 . S
C607 C605 1.419 . S
C607 C608 1.362 . S
C608 H600 0.930 . S
C608 C607 1.362 . S
C608 C611 1.409 . S
C609 H601 0.930 . S
C609 C610 1.355 . S
C609 C611 1.415 . S
C610 C609 1.355 . S
C610 C612 1.419 . S
C611 C606 1.425 . S
C611 C608 1.409 . S
C611 C609 1.415 . S
C612 H602 0.930 . S
C612 C610 1.419 . S
C612 C613 1.362 . S
C613 H603 0.930 . S
C613 C606 1.409 . S
C613 C612 1.362 . S
H614 C620 0.930 . S
H615 C623 0.930 . S
H616 C624 0.930 . S
H617 C625 0.930 . S
H618 C628 0.930 . S
H619 C629 0.930 . S
C620 H614 0.930 . S
C620 C621 1.355 . S
C620 C622 1.415 . S
C621 C620 1.355 . S
C621 C623 1.419 . S
C622 C620 1.415 . S
C622 C627 1.425 . S
C622 C629 1.409 . S
C623 H615 0.930 . S
C623 C621 1.419 . S
C623 C624 1.362 . S
C624 H616 0.930 . S
C624 C623 1.362 . S
C624 C627 1.409 . S
C625 H617 0.930 . S
C625 C626 1.355 . S
C625 C627 1.415 . S
C626 C625 1.355 . S
C626 C628 1.419 . S
C627 C622 1.425 . S
C627 C624 1.409 . S
C627 C625 1.415 . S
C628 H618 0.930 . S
C628 C626 1.419 . S
C628 C629 1.362 . S
C629 H619 0.930 . S
C629 C622 1.409 . S
C629 C628 1.362 . S
H630 C636 0.930 . S
H631 C639 0.930 . S
H632 C640 0.930 . S
H633 C641 0.930 . S
H634 C644 0.930 . S
H635 C645 0.930 1_455 S
C636 H630 0.930 . S
C636 C637 1.355 . S
C636 C638 1.415 . S
C637 C636 1.355 . S
C637 C639 1.419 . S
C638 C636 1.415 . S
C638 C643 1.425 . S
C638 C645 1.409 . S
C639 H631 0.930 . S
C639 C637 1.419 . S
C639 C640 1.362 . S
C640 H632 0.930 . S
C640 C639 1.362 . S
C640 C643 1.409 . S
C641 H633 0.930 . S
C641 C642 1.355 . S
C641 C643 1.415 . S
C642 C641 1.355 . S
C642 C644 1.419 1_655 S
C643 C638 1.425 . S
C643 C640 1.409 . S
C643 C641 1.415 . S
C644 H634 0.930 . S
C644 C642 1.419 1_455 S
C644 C645 1.362 1_455 S
C645 H635 0.930 1_655 S
C645 C638 1.409 . S
C645 C644 1.362 1_655 S
H646 C652 0.930 . S
H647 C655 0.930 . S
H648 C656 0.930 . S
H649 C657 0.930 . S
H650 C660 0.930 . S
H651 C661 0.930 . S
C652 H646 0.930 . S
C652 C653 1.355 . S
C652 C654 1.415 . S
C653 C652 1.355 . S
C653 C655 1.419 . S
C654 C652 1.415 . S
C654 C659 1.425 . S
C654 C661 1.409 . S
C655 H647 0.930 . S
C655 C653 1.419 . S
C655 C656 1.362 . S
C656 H648 0.930 . S
C656 C655 1.362 . S
C656 C659 1.409 . S
C657 H649 0.930 . S
C657 C658 1.355 . S
C657 C659 1.415 . S
C658 C657 1.355 . S
C658 C660 1.419 . S
C659 C654 1.425 . S
C659 C656 1.409 . S
C659 C657 1.415 . S
C660 H650 0.930 . S
C660 C658 1.419 . S
C660 C661 1.362 . S
C661 H651 0.930 . S
C661 C654 1.409 . S
C661 C660 1.362 . S
H662 C668 0.930 . S
H663 C671 0.930 . S
H664 C672 0.930 . S
H665 C673 0.930 . S
H666 C676 0.930 . S
H667 C677 0.930 . S
C668 H662 0.930 . S
C668 C669 1.355 . S
C668 C670 1.415 . S
C669 C668 1.355 . S
C669 C671 1.419 1_655 S
C670 C668 1.415 . S
C670 C675 1.425 1_655 S
C670 C677 1.409 . S
C671 H663 0.930 . S
C671 C669 1.419 1_455 S
C671 C672 1.362 . S
C672 H664 0.930 . S
C672 C671 1.362 . S
C672 C675 1.409 . S
C673 H665 0.930 . S
C673 C674 1.355 1_455 S
C673 C675 1.415 . S
C674 C673 1.355 1_655 S
C674 C676 1.419 . S
C675 C670 1.425 1_455 S
C675 C672 1.409 . S
C675 C673 1.415 . S
C676 H666 0.930 . S
C676 C674 1.419 . S
C676 C677 1.362 . S
C677 H667 0.930 . S
C677 C670 1.409 . S
C677 C676 1.362 . S
H678 C684 0.930 . S
H679 C687 0.930 . S
H680 C688 0.930 . S
H681 C689 0.930 . S
H682 C692 0.930 . S
H683 C693 0.930 . S
C684 H678 0.930 . S
C684 C685 1.355 . S
C684 C686 1.415 . S
C685 C684 1.355 . S
C685 C687 1.419 . S
C686 C684 1.415 . S
C686 C691 1.425 . S
C686 C693 1.409 . S
C687 H679 0.930 . S
C687 C685 1.419 . S
C687 C688 1.362 . S
C688 H680 0.930 . S
C688 C687 1.362 . S
C688 C691 1.409 . S
C689 H681 0.930 . S
C689 C690 1.355 . S
C689 C691 1.415 . S
C690 C689 1.355 . S
C690 C692 1.419 . S
C691 C686 1.425 . S
C691 C688 1.409 . S
C691 C689 1.415 . S
C692 H682 0.930 . S
C692 C690 1.419 . S
C692 C693 1.362 . S
C693 H683 0.930 . S
C693 C686 1.409 . S
C693 C692 1.362 . S
H694 C700 0.930 . S
H695 C703 0.930 . S
H696 C704 0.930 . S
H697 C705 0.930 . S
H698 C708 0.930 . S
H699 C709 0.930 . S
C700 H694 0.930 . S
C700 C701 1.355 . S
C700 C702 1.415 . S
C701 C700 1.355 . S
C701 C703 1.419 . S
C702 C700 1.415 . S
C702 C707 1.425 . S
C702 C709 1.409 . S
C703 H695 0.930 . S
C703 C701 1.419 . S
C703 C704 1.362 . S
C704 H696 0.930 . S
C704 C703 1.362 . S
C704 C707 1.409 . S
C705 H697 0.930 . S
C705 C706 1.355 . S
C705 C707 1.415 . S
C706 C705 1.355 . S
C706 C708 1.419 . S
C707 C702 1.425 . S
C707 C704 1.409 . S
C707 C705 1.415 . S
C708 H698 0.930 . S
C708 C706 1.419 . S
C708 C709 1.362 . S
C709 H699 0.930 . S
C709 C702 1.409 . S
C709 C708 1.362 . S
H710 C716 0.930 . S
H711 C719 0.930 . S
H712 C720 0.930 . S
H713 C721 0.930 . S
H714 C724 0.930 . S
H715 C725 0.930 . S
C716 H710 0.930 . S
C716 C717 1.355 . S
C716 C718 1.415 . S
C717 C716 1.355 . S
C717 C719 1.419 . S
C718 C716 1.415 . S
C718 C723 1.425 . S
C718 C725 1.409 . S
C719 H711 0.930 . S
C719 C717 1.419 . S
C719 C720 1.362 . S
C720 H712 0.930 . S
C720 C719 1.362 . S
C720 C723 1.409 . S
C721 H713 0.930 . S
C721 C722 1.355 . S
C721 C723 1.415 . S
C722 C721 1.355 . S
C722 C724 1.419 . S
C723 C718 1.425 . S
C723 C720 1.409 . S
C723 C721 1.415 . S
C724 H714 0.930 . S
C724 C722 1.419 . S
C724 C725 1.362 . S
C725 H715 0.930 . S
C725 C718 1.409 . S
C725 C724 1.362 . S
H726 C732 0.930 . S
H727 C735 0.930 . S
H728 C736 0.930 . S
H729 C737 0.930 . S
H730 C740 0.930 . S
H731 C741 0.930 . S
C732 H726 0.930 . S
C732 C733 1.355 . S
C732 C734 1.415 1_565 S
C733 C732 1.355 . S
C733 C735 1.419 1_455 S
C734 C732 1.415 1_545 S
C734 C739 1.425 1_455 S
C734 C741 1.409 . S
C735 H727 0.930 . S
C735 C733 1.419 1_655 S
C735 C736 1.362 . S
C736 H728 0.930 . S
C736 C735 1.362 . S
C736 C739 1.409 1_565 S
C737 H729 0.930 . S
C737 C738 1.355 1_655 S
C737 C739 1.415 . S
C738 C737 1.355 1_455 S
C738 C740 1.419 . S
C739 C734 1.425 1_655 S
C739 C736 1.409 1_545 S
C739 C737 1.415 . S
C740 H730 0.930 . S
C740 C738 1.419 . S
C740 C741 1.362 . S
C741 H731 0.930 . S
C741 C734 1.409 . S
C741 C740 1.362 . S
H742 C748 0.930 . S
H743 C751 0.930 . S
H744 C752 0.930 . S
H745 C753 0.930 . S
H746 C756 0.930 . S
H747 C757 0.930 . S
C748 H742 0.930 . S
C748 C749 1.355 . S
C748 C750 1.415 . S
C749 C748 1.355 . S
C749 C751 1.419 . S
C750 C748 1.415 . S
C750 C755 1.425 . S
C750 C757 1.409 . S
C751 H743 0.930 . S
C751 C749 1.419 . S
C751 C752 1.362 . S
C752 H744 0.930 . S
C752 C751 1.362 . S
C752 C755 1.409 . S
C753 H745 0.930 . S
C753 C754 1.355 . S
C753 C755 1.415 . S
C754 C753 1.355 . S
C754 C756 1.419 . S
C755 C750 1.425 . S
C755 C752 1.409 . S
C755 C753 1.415 . S
C756 H746 0.930 . S
C756 C754 1.419 . S
C756 C757 1.362 . S
C757 H747 0.930 . S
C757 C750 1.409 . S
C757 C756 1.362 . S
H758 C764 0.930 . S
H759 C767 0.930 . S
H760 C768 0.930 . S
H761 C769 0.930 . S
H762 C772 0.930 . S
H763 C773 0.930 . S
C764 H758 0.930 . S
C764 C765 1.355 . S
C764 C766 1.415 . S
C765 C764 1.355 . S
C765 C767 1.419 . S
C766 C764 1.415 . S
C766 C771 1.425 . S
C766 C773 1.409 . S
C767 H759 0.930 . S
C767 C765 1.419 . S
C767 C768 1.362 . S
C768 H760 0.930 . S
C768 C767 1.362 . S
C768 C771 1.409 . S
C769 H761 0.930 . S
C769 C770 1.355 . S
C769 C771 1.415 . S
C770 C769 1.355 . S
C770 C772 1.419 . S
C771 C766 1.425 . S
C771 C768 1.409 . S
C771 C769 1.415 . S
C772 H762 0.930 . S
C772 C770 1.419 . S
C772 C773 1.362 . S
C773 H763 0.930 . S
C773 C766 1.409 . S
C773 C772 1.362 . S
H774 C780 0.930 . S
H775 C783 0.930 . S
H776 C784 0.930 . S
H777 C785 0.930 . S
H778 C788 0.930 . S
H779 C789 0.930 . S
C780 H774 0.930 . S
C780 C781 1.355 . S
C780 C782 1.415 . S
C781 C780 1.355 . S
C781 C783 1.419 . S
C782 C780 1.415 . S
C782 C787 1.425 . S
C782 C789 1.409 . S
C783 H775 0.930 . S
C783 C781 1.419 . S
C783 C784 1.362 . S
C784 H776 0.930 . S
C784 C783 1.362 . S
C784 C787 1.409 . S
C785 H777 0.930 . S
C785 C786 1.355 . S
C785 C787 1.415 . S
C786 C785 1.355 . S
C786 C788 1.419 . S
C787 C782 1.425 . S
C787 C784 1.409 . S
C787 C785 1.415 . S
C788 H778 0.930 . S
C788 C786 1.419 . S
C788 C789 1.362 . S
C789 H779 0.930 . S
C789 C782 1.409 . S
C789 C788 1.362 . S
H790 C796 0.930 . S
H791 C799 0.930 . S
H792 C800 0.930 . S
H793 C801 0.930 . S
H794 C804 0.930 . S
H795 C805 0.930 . S
C796 H790 0.930 . S
C796 C797 1.355 . S
C796 C798 1.415 . S
C797 C796 1.355 . S
C797 C799 1.419 . S
C798 C796 1.415 . S
C798 C803 1.425 . S
C798 C805 1.409 . S
C799 H791 0.930 . S
C799 C797 1.419 . S
C799 C800 1.362 . S
C800 H792 0.930 . S
C800 C799 1.362 . S
C800 C803 1.409 . S
C801 H793 0.930 . S
C801 C802 1.355 . S
C801 C803 1.415 . S
C802 C801 1.355 . S
C802 C804 1.419 . S
C803 C798 1.425 . S
C803 C800 1.409 . S
C803 C801 1.415 . S
C804 H794 0.930 . S
C804 C802 1.419 . S
C804 C805 1.362 . S
C805 H795 0.930 . S
C805 C798 1.409 . S
C805 C804 1.362 . S
H806 C812 0.930 . S
H807 C815 0.930 . S
H808 C816 0.930 . S
H809 C817 0.930 . S
H810 C820 0.930 . S
H811 C821 0.930 . S
C812 H806 0.930 . S
C812 C813 1.355 . S
C812 C814 1.415 . S
C813 C812 1.355 . S
C813 C815 1.419 . S
C814 C812 1.415 . S
C814 C819 1.425 . S
C814 C821 1.409 . S
C815 H807 0.930 . S
C815 C813 1.419 . S
C815 C816 1.362 . S
C816 H808 0.930 . S
C816 C815 1.362 . S
C816 C819 1.409 . S
C817 H809 0.930 . S
C817 C818 1.355 . S
C817 C819 1.415 . S
C818 C817 1.355 . S
C818 C820 1.419 . S
C819 C814 1.425 . S
C819 C816 1.409 . S
C819 C817 1.415 . S
C820 H810 0.930 . S
C820 C818 1.419 . S
C820 C821 1.362 . S
C821 H811 0.930 . S
C821 C814 1.409 . S
C821 C820 1.362 . S
H822 C828 0.930 . S
H823 C831 0.930 . S
H824 C832 0.930 . S
H825 C833 0.930 . S
H826 C836 0.930 . S
H827 C837 0.930 . S
C828 H822 0.930 . S
C828 C829 1.355 . S
C828 C830 1.415 . S
C829 C828 1.355 . S
C829 C831 1.419 . S
C830 C828 1.415 . S
C830 C835 1.425 . S
C830 C837 1.409 . S
C831 H823 0.930 . S
C831 C829 1.419 . S
C831 C832 1.362 . S
C832 H824 0.930 . S
C832 C831 1.362 . S
C832 C835 1.409 . S
C833 H825 0.930 . S
C833 C834 1.355 . S
C833 C835 1.415 . S
C834 C833 1.355 . S
C834 C836 1.419 . S
C835 C830 1.425 . S
C835 C832 1.409 . S
C835 C833 1.415 . S
C836 H826 0.930 . S
C836 C834 1.419 . S
C836 C837 1.362 . S
C837 H827 0.930 . S
C837 C830 1.409 . S
C837 C836 1.362 . S
H838 C844 0.930 . S
H839 C847 0.930 . S
H840 C848 0.930 . S
H841 C849 0.930 . S
H842 C852 0.930 . S
H843 C853 0.930 . S
C844 H838 0.930 . S
C844 C845 1.355 . S
C844 C846 1.415 . S
C845 C844 1.355 . S
C845 C847 1.419 . S
C846 C844 1.415 . S
C846 C851 1.425 . S
C846 C853 1.409 . S
C847 H839 0.930 . S
C847 C845 1.419 . S
C847 C848 1.362 . S
C848 H840 0.930 . S
C848 C847 1.362 . S
C848 C851 1.409 . S
C849 H841 0.930 . S
C849 C850 1.355 . S
C849 C851 1.415 . S
C850 C849 1.355 . S
C850 C852 1.419 . S
C851 C846 1.425 . S
C851 C848 1.409 . S
C851 C849 1.415 . S
C852 H842 0.930 . S
C852 C850 1.419 . S
C852 C853 1.362 . S
C853 H843 0.930 . S
C853 C846 1.409 . S
C853 C852 1.362 . S
C482 C174 1.512 . S
C477 C11 1.315 . S
C498 C243 1.663 . S
C493 C25 1.598 . S
C514 C181 1.267 . S
C509 C40 1.237 . S
C530 C244 1.442 . S
C525 C59 1.408 . S
C546 C297 1.816 . S
C541 C6 1.790 . S
C562 C333 1.753 . S
C557 C21 1.720 . S
C573 C49 1.564 . S
C578 C393 1.629 . S
C594 C456 1.505 . S
C589 C68 1.458 . S
C610 C296 1.783 . S
C605 C30 1.510 . S
C621 C44 1.643 . S
C626 C340 1.656 . S
C642 C386 1.742 . S
C637 C63 1.740 . S
C658 C455 1.679 . S
C653 C2 1.638 . S
C669 C78 1.699 . S
C674 C234 1.726 . S
C690 C191 1.556 . S
C685 C97 1.494 . S
C701 C120 1.630 . S
C706 C227 1.648 . S
C717 C139 1.674 . S
C722 C190 1.676 . S
C738 C402 1.598 . S
C733 C87 1.448 . S
C754 C446 1.622 . S
C749 C101 1.611 . S
C770 C280 1.619 . S
C765 C125 1.500 . S
C781 C144 1.623 . S
C786 C349 1.750 . S
C802 C403 1.786 . S
C797 C106 1.587 . S
C818 C439 1.613 . S
C813 C116 1.605 . S
C834 C287 1.618 . S
C829 C135 1.626 . S
C845 C82 1.749 . S
C850 C350 1.747 . S
