# Generated by pormake.
# Topology eea, (3,6)-cn, num edge types: 1
# Building blocks:
#     Node 0, Type 0, BuildingBlock: KAKCAD_clean_linker_0, # of connection points: 3
#     Node 1, Type 0, BuildingBlock: KAKCAD_clean_linker_0, # of connection points: 3
#     Node 2, Type 0, BuildingBlock: KAKCAD_clean_linker_0, # of connection points: 3
#     Node 3, Type 0, BuildingBlock: KAKCAD_clean_linker_0, # of connection points: 3
#     Node 4, Type 0, BuildingBlock: KAKCAD_clean_linker_0, # of connection points: 3
#     Node 5, Type 0, BuildingBlock: KAKCAD_clean_linker_0, # of connection points: 3
#     Node 6, Type 0, BuildingBlock: KAKCAD_clean_linker_0, # of connection points: 3
#     Node 7, Type 0, BuildingBlock: KAKCAD_clean_linker_0, # of connection points: 3
#     Node 8, Type 0, BuildingBlock: KAKCAD_clean_linker_0, # of connection points: 3
#     Node 9, Type 0, BuildingBlock: KAKCAD_clean_linker_0, # of connection points: 3
#     Node 10, Type 0, BuildingBlock: KAKCAD_clean_linker_0, # of connection points: 3
#     Node 11, Type 0, BuildingBlock: KAKCAD_clean_linker_0, # of connection points: 3
#     Node 12, Type 0, BuildingBlock: KAKCAD_clean_linker_0, # of connection points: 3
#     Node 13, Type 0, BuildingBlock: KAKCAD_clean_linker_0, # of connection points: 3
#     Node 14, Type 0, BuildingBlock: KAKCAD_clean_linker_0, # of connection points: 3
#     Node 15, Type 0, BuildingBlock: KAKCAD_clean_linker_0, # of connection points: 3
#     Node 16, Type 0, BuildingBlock: KAKCAD_clean_linker_0, # of connection points: 3
#     Node 17, Type 0, BuildingBlock: KAKCAD_clean_linker_0, # of connection points: 3
#     Node 18, Type 1, BuildingBlock: HISSIN_clean_sbu_0, # of connection points: 6
#     Node 19, Type 1, BuildingBlock: HISSIN_clean_sbu_0, # of connection points: 6
#     Node 20, Type 1, BuildingBlock: HISSIN_clean_sbu_0, # of connection points: 6
#     Node 21, Type 1, BuildingBlock: HISSIN_clean_sbu_0, # of connection points: 6
#     Node 22, Type 1, BuildingBlock: HISSIN_clean_sbu_0, # of connection points: 6
#     Node 23, Type 1, BuildingBlock: HISSIN_clean_sbu_0, # of connection points: 6
#     Node 24, Type 1, BuildingBlock: HISSIN_clean_sbu_0, # of connection points: 6
#     Node 25, Type 1, BuildingBlock: HISSIN_clean_sbu_0, # of connection points: 6
#     Node 26, Type 1, BuildingBlock: HISSIN_clean_sbu_0, # of connection points: 6
#     Edge 27, Type (0, 1), BuildingBlock: KIFKEQ_clean_linker_1, # of connection points: 2
#     Edge 28, Type (0, 1), BuildingBlock: KIFKEQ_clean_linker_1, # of connection points: 2
#     Edge 29, Type (0, 1), BuildingBlock: KIFKEQ_clean_linker_1, # of connection points: 2
#     Edge 30, Type (0, 1), BuildingBlock: KIFKEQ_clean_linker_1, # of connection points: 2
#     Edge 31, Type (0, 1), BuildingBlock: KIFKEQ_clean_linker_1, # of connection points: 2
#     Edge 32, Type (0, 1), BuildingBlock: KIFKEQ_clean_linker_1, # of connection points: 2
#     Edge 33, Type (0, 1), BuildingBlock: KIFKEQ_clean_linker_1, # of connection points: 2
#     Edge 34, Type (0, 1), BuildingBlock: KIFKEQ_clean_linker_1, # of connection points: 2
#     Edge 35, Type (0, 1), BuildingBlock: KIFKEQ_clean_linker_1, # of connection points: 2
#     Edge 36, Type (0, 1), BuildingBlock: KIFKEQ_clean_linker_1, # of connection points: 2
#     Edge 37, Type (0, 1), BuildingBlock: KIFKEQ_clean_linker_1, # of connection points: 2
#     Edge 38, Type (0, 1), BuildingBlock: KIFKEQ_clean_linker_1, # of connection points: 2
#     Edge 39, Type (0, 1), BuildingBlock: KIFKEQ_clean_linker_1, # of connection points: 2
#     Edge 40, Type (0, 1), BuildingBlock: KIFKEQ_clean_linker_1, # of connection points: 2
#     Edge 41, Type (0, 1), BuildingBlock: KIFKEQ_clean_linker_1, # of connection points: 2
#     Edge 42, Type (0, 1), BuildingBlock: KIFKEQ_clean_linker_1, # of connection points: 2
#     Edge 43, Type (0, 1), BuildingBlock: KIFKEQ_clean_linker_1, # of connection points: 2
#     Edge 44, Type (0, 1), BuildingBlock: KIFKEQ_clean_linker_1, # of connection points: 2
#     Edge 45, Type (0, 1), BuildingBlock: KIFKEQ_clean_linker_1, # of connection points: 2
#     Edge 46, Type (0, 1), BuildingBlock: KIFKEQ_clean_linker_1, # of connection points: 2
#     Edge 47, Type (0, 1), BuildingBlock: KIFKEQ_clean_linker_1, # of connection points: 2
#     Edge 48, Type (0, 1), BuildingBlock: KIFKEQ_clean_linker_1, # of connection points: 2
#     Edge 49, Type (0, 1), BuildingBlock: KIFKEQ_clean_linker_1, # of connection points: 2
#     Edge 50, Type (0, 1), BuildingBlock: KIFKEQ_clean_linker_1, # of connection points: 2
#     Edge 51, Type (0, 1), BuildingBlock: KIFKEQ_clean_linker_1, # of connection points: 2
#     Edge 52, Type (0, 1), BuildingBlock: KIFKEQ_clean_linker_1, # of connection points: 2
#     Edge 53, Type (0, 1), BuildingBlock: KIFKEQ_clean_linker_1, # of connection points: 2
#     Edge 54, Type (0, 1), BuildingBlock: KIFKEQ_clean_linker_1, # of connection points: 2
#     Edge 55, Type (0, 1), BuildingBlock: KIFKEQ_clean_linker_1, # of connection points: 2
#     Edge 56, Type (0, 1), BuildingBlock: KIFKEQ_clean_linker_1, # of connection points: 2
#     Edge 57, Type (0, 1), BuildingBlock: KIFKEQ_clean_linker_1, # of connection points: 2
#     Edge 58, Type (0, 1), BuildingBlock: KIFKEQ_clean_linker_1, # of connection points: 2
#     Edge 59, Type (0, 1), BuildingBlock: KIFKEQ_clean_linker_1, # of connection points: 2
#     Edge 60, Type (0, 1), BuildingBlock: KIFKEQ_clean_linker_1, # of connection points: 2
#     Edge 61, Type (0, 1), BuildingBlock: KIFKEQ_clean_linker_1, # of connection points: 2
#     Edge 62, Type (0, 1), BuildingBlock: KIFKEQ_clean_linker_1, # of connection points: 2
#     Edge 63, Type (0, 1), BuildingBlock: KIFKEQ_clean_linker_1, # of connection points: 2
#     Edge 64, Type (0, 1), BuildingBlock: KIFKEQ_clean_linker_1, # of connection points: 2
#     Edge 65, Type (0, 1), BuildingBlock: KIFKEQ_clean_linker_1, # of connection points: 2
#     Edge 66, Type (0, 1), BuildingBlock: KIFKEQ_clean_linker_1, # of connection points: 2
#     Edge 67, Type (0, 1), BuildingBlock: KIFKEQ_clean_linker_1, # of connection points: 2
#     Edge 68, Type (0, 1), BuildingBlock: KIFKEQ_clean_linker_1, # of connection points: 2
#     Edge 69, Type (0, 1), BuildingBlock: KIFKEQ_clean_linker_1, # of connection points: 2
#     Edge 70, Type (0, 1), BuildingBlock: KIFKEQ_clean_linker_1, # of connection points: 2
#     Edge 71, Type (0, 1), BuildingBlock: KIFKEQ_clean_linker_1, # of connection points: 2
#     Edge 72, Type (0, 1), BuildingBlock: KIFKEQ_clean_linker_1, # of connection points: 2
#     Edge 73, Type (0, 1), BuildingBlock: KIFKEQ_clean_linker_1, # of connection points: 2
#     Edge 74, Type (0, 1), BuildingBlock: KIFKEQ_clean_linker_1, # of connection points: 2
#     Edge 75, Type (0, 1), BuildingBlock: KIFKEQ_clean_linker_1, # of connection points: 2
#     Edge 76, Type (0, 1), BuildingBlock: KIFKEQ_clean_linker_1, # of connection points: 2
#     Edge 77, Type (0, 1), BuildingBlock: KIFKEQ_clean_linker_1, # of connection points: 2
#     Edge 78, Type (0, 1), BuildingBlock: KIFKEQ_clean_linker_1, # of connection points: 2
#     Edge 79, Type (0, 1), BuildingBlock: KIFKEQ_clean_linker_1, # of connection points: 2
#     Edge 80, Type (0, 1), BuildingBlock: KIFKEQ_clean_linker_1, # of connection points: 2
# Relax obj value: 0.034
# Max RMSD: 0.134
# Mean RMSD: 0.074
data_MOF--net-eea--node1-HISSIN_clean_sbu_0--node2-KAKCAD_clean_linker_0--edge1-KIFKEQ_clean_linker_1
_symmetry_space_group_name_H-M    P1
_symmetry_Int_Tables_number       1
_symmetry_cell_setting            triclinic
loop_
_symmetry_equiv_pos_as_xyz
'x, y, z'
_cell_length_a     63.741069
_cell_length_b     63.872345
_cell_length_c     90.836706
_cell_angle_alpha  93.398327
_cell_angle_beta   93.508654
_cell_angle_gamma 119.67972
loop_
_atom_site_label
_atom_site_type_symbol
_atom_site_fract_x
_atom_site_fract_y
_atom_site_fract_z
_atom_type_partial_charge
C0 C 0.30893 0.17728 0.47515 0.0
C1 C 0.32664 0.17184 0.48053 0.0
C2 C 0.30277 0.17543 0.45994 0.0
C3 C 0.31421 0.16814 0.44974 0.0
C4 C 0.33243 0.16337 0.45509 0.0
C5 C 0.33861 0.16525 0.47033 0.0
C6 C 0.30596 0.16399 0.43365 0.0
C7 C 0.29998 0.17987 0.42694 0.0
C8 C 0.28957 0.17457 0.41216 0.0
C9 C 0.28584 0.15346 0.40394 0.0
C10 C 0.29171 0.13737 0.41046 0.0
C11 C 0.30193 0.14289 0.42529 0.0
C12 C 0.28502 0.1137 0.40232 0.0
C13 C 0.26242 0.10005 0.39378 0.0
C14 C 0.30042 0.10388 0.40377 0.0
C15 C 0.29304 0.08063 0.39719 0.0
C16 C 0.27018 0.06679 0.38898 0.0
C17 C 0.28039 0.1897 0.40571 0.0
C18 C 0.2677 0.19795 0.4142 0.0
C19 C 0.28275 0.19465 0.39084 0.0
C20 C 0.27205 0.20697 0.38448 0.0
C21 C 0.25877 0.21457 0.39287 0.0
C22 C 0.25707 0.21028 0.40786 0.0
C23 C 0.25512 0.0769 0.38715 0.0
H24 H 0.29961 0.18273 0.48273 0.0
H25 H 0.28846 0.17896 0.45619 0.0
H26 H 0.34169 0.15788 0.44749 0.0
H27 H 0.35225 0.16081 0.47413 0.0
H28 H 0.3031 0.19621 0.43332 0.0
H29 H 0.30537 0.12999 0.43062 0.0
H30 H 0.27745 0.14904 0.39261 0.0
H31 H 0.24991 0.10685 0.39267 0.0
H32 H 0.31806 0.11407 0.41012 0.0
H33 H 0.30513 0.07339 0.39863 0.0
H34 H 0.26527 0.19419 0.42563 0.0
H35 H 0.2926 0.18872 0.38405 0.0
H36 H 0.23725 0.06653 0.38107 0.0
H37 H 0.24731 0.21625 0.4147 0.0
H38 H 0.27361 0.20992 0.37288 0.0
C39 C 0.87802 0.17869 0.47816 0.0
C40 C 0.86838 0.16082 0.48805 0.0
C41 C 0.88295 0.17315 0.46408 0.0
C42 C 0.87834 0.14965 0.45966 0.0
C43 C 0.86954 0.13212 0.46978 0.0
C44 C 0.86459 0.13762 0.48376 0.0
C45 C 0.88199 0.14283 0.4445 0.0
C46 C 0.90297 0.15786 0.43781 0.0
C47 C 0.90708 0.14993 0.42407 0.0
C48 C 0.88997 0.12696 0.417 0.0
C49 C 0.86852 0.11204 0.42328 0.0
C50 C 0.86462 0.12036 0.43693 0.0
C51 C 0.85041 0.08758 0.41584 0.0
C52 C 0.84591 0.08335 0.40027 0.0
C53 C 0.83745 0.06818 0.42429 0.0
C54 C 0.82027 0.04532 0.41739 0.0
C55 C 0.81603 0.04118 0.40189 0.0
C56 C 0.92948 0.16525 0.41716 0.0
C57 C 0.93575 0.18892 0.41434 0.0
C58 C 0.94421 0.15587 0.41279 0.0
C59 C 0.96484 0.16988 0.4057 0.0
C60 C 0.97086 0.19337 0.4026 0.0
C61 C 0.95615 0.20279 0.40698 0.0
C62 C 0.82906 0.06031 0.39337 0.0
H63 H 0.88109 0.19673 0.48116 0.0
H64 H 0.8897 0.18701 0.45651 0.0
H65 H 0.86639 0.11403 0.46688 0.0
H66 H 0.85778 0.12363 0.49125 0.0
H67 H 0.91655 0.17523 0.44352 0.0
H68 H 0.8479 0.10933 0.44175 0.0
H69 H 0.89356 0.12074 0.4066 0.0
H70 H 0.85518 0.09787 0.39338 0.0
H71 H 0.84078 0.07048 0.43627 0.0
H72 H 0.81064 0.0307 0.42417 0.0
H73 H 0.92457 0.19647 0.41754 0.0
H74 H 0.93975 0.13767 0.41489 0.0
H75 H 0.82594 0.0575 0.38137 0.0
H76 H 0.96055 0.22094 0.4048 0.0
H77 H 0.97586 0.1622 0.4024 0.0
C78 C 0.89595 0.73399 0.48792 0.0
C79 C 0.87253 0.71535 0.48995 0.0
C80 C 0.90087 0.74382 0.47434 0.0
C81 C 0.88245 0.73532 0.46249 0.0
C82 C 0.85917 0.71636 0.46443 0.0
C83 C 0.85427 0.70649 0.47798 0.0
C84 C 0.88718 0.74677 0.44834 0.0
C85 C 0.90875 0.75299 0.44185 0.0
C86 C 0.91323 0.76399 0.42853 0.0
C87 C 0.89593 0.76901 0.42184 0.0
C88 C 0.87432 0.76293 0.42815 0.0
C89 C 0.87008 0.75178 0.44136 0.0
C90 C 0.85618 0.76833 0.42099 0.0
C91 C 0.86357 0.79097 0.41573 0.0
C92 C 0.83135 0.75086 0.41935 0.0
C93 C 0.81428 0.75586 0.41252 0.0
C94 C 0.82166 0.77852 0.40729 0.0
C95 C 0.93585 0.77021 0.42149 0.0
C96 C 0.95843 0.78065 0.4301 0.0
C97 C 0.93505 0.76617 0.40603 0.0
C98 C 0.9563 0.77271 0.39931 0.0
C99 C 0.97894 0.78343 0.40787 0.0
C100 C 0.97972 0.78721 0.42337 0.0
C101 C 0.84649 0.79604 0.40901 0.0
H102 H 0.9105 0.74105 0.49686 0.0
H103 H 0.91896 0.75852 0.47324 0.0
H104 H 0.84464 0.70919 0.45547 0.0
H105 H 0.83598 0.69231 0.47918 0.0
H106 H 0.92178 0.7487 0.44697 0.0
H107 H 0.85369 0.74763 0.44645 0.0
H108 H 0.89927 0.77767 0.41167 0.0
H109 H 0.88257 0.80486 0.41694 0.0
H110 H 0.82513 0.73319 0.4232 0.0
H111 H 0.79526 0.74206 0.41147 0.0
H112 H 0.95972 0.78416 0.44203 0.0
H113 H 0.91793 0.75788 0.39907 0.0
H114 H 0.85275 0.81359 0.40498 0.0
H115 H 0.9968 0.79516 0.43032 0.0
H116 H 0.95501 0.76974 0.38734 0.0
C117 C 0.13571 0.25888 0.53103 0.0
C118 C 0.13124 0.27779 0.52819 0.0
C119 C 0.13079 0.24861 0.54444 0.0
C120 C 0.12132 0.25702 0.55543 0.0
C121 C 0.1165 0.27571 0.55253 0.0
C122 C 0.12139 0.28597 0.53906 0.0
C123 C 0.11689 0.24645 0.56988 0.0
C124 C 0.13363 0.24089 0.5768 0.0
C125 C 0.12949 0.23019 0.59019 0.0
C126 C 0.10822 0.22505 0.59669 0.0
C127 C 0.09144 0.23079 0.5901 0.0
C128 C 0.09594 0.24161 0.57674 0.0
C129 C 0.06914 0.22529 0.59721 0.0
C130 C 0.05449 0.20225 0.60181 0.0
C131 C 0.0627 0.24316 0.59978 0.0
C132 C 0.04224 0.23822 0.60704 0.0
C133 C 0.02748 0.21514 0.61171 0.0
C134 C 0.14747 0.22454 0.5974 0.0
C135 C 0.15902 0.21495 0.58887 0.0
C136 C 0.15338 0.22887 0.61287 0.0
C137 C 0.17042 0.22377 0.61962 0.0
C138 C 0.18202 0.21427 0.61108 0.0
C139 C 0.17612 0.20992 0.59562 0.0
C140 C 0.03382 0.19717 0.60886 0.0
H141 H 0.14282 0.25181 0.52279 0.0
H142 H 0.13424 0.23391 0.54616 0.0
H143 H 0.10945 0.28278 0.5608 0.0
H144 H 0.11795 0.30066 0.53729 0.0
H145 H 0.15025 0.24541 0.5719 0.0
H146 H 0.08274 0.24554 0.57148 0.0
H147 H 0.10468 0.21658 0.60694 0.0
H148 H 0.0589 0.18805 0.59981 0.0
H149 H 0.07385 0.26115 0.59648 0.0
H150 H 0.0383 0.25269 0.60924 0.0
H151 H 0.15464 0.21104 0.57696 0.0
H152 H 0.14514 0.23661 0.61976 0.0
H153 H 0.02272 0.17904 0.61195 0.0
H154 H 0.18447 0.20228 0.58874 0.0
H155 H 0.17481 0.22766 0.63154 0.0
C156 C 0.66878 0.81536 0.54635 0.0
C157 C 0.67922 0.83418 0.53716 0.0
C158 C 0.67644 0.81961 0.56156 0.0
C159 C 0.69467 0.84275 0.56782 0.0
C160 C 0.70529 0.86139 0.55855 0.0
C161 C 0.69765 0.85717 0.54343 0.0
C162 C 0.70305 0.84769 0.5839 0.0
C163 C 0.70784 0.83156 0.59129 0.0
C164 C 0.71843 0.83768 0.60608 0.0
C165 C 0.72386 0.86 0.61351 0.0
C166 C 0.71919 0.87628 0.60627 0.0
C167 C 0.70827 0.86971 0.5916 0.0
C168 C 0.7279 0.90107 0.61344 0.0
C169 C 0.72571 0.90511 0.62851 0.0
C170 C 0.73956 0.92107 0.60528 0.0
C171 C 0.74905 0.94456 0.61202 0.0
C172 C 0.74727 0.94869 0.62713 0.0
C173 C 0.72583 0.8218 0.61334 0.0
C174 C 0.71041 0.79655 0.61196 0.0
C175 C 0.74883 0.83189 0.62138 0.0
C176 C 0.75632 0.81708 0.62782 0.0
C177 C 0.74101 0.79181 0.62639 0.0
C178 C 0.71792 0.78169 0.61843 0.0
C179 C 0.73527 0.92871 0.63529 0.0
H180 H 0.65445 0.79748 0.54183 0.0
H181 H 0.66787 0.80492 0.56844 0.0
H182 H 0.71984 0.87925 0.56294 0.0
H183 H 0.70646 0.87189 0.5366 0.0
H184 H 0.70467 0.81492 0.58528 0.0
H185 H 0.70428 0.88208 0.58603 0.0
H186 H 0.73258 0.86507 0.62478 0.0
H187 H 0.71669 0.89004 0.63506 0.0
H188 H 0.7419 0.91865 0.59371 0.0
H189 H 0.75784 0.95953 0.60537 0.0
H190 H 0.69252 0.78829 0.60592 0.0
H191 H 0.76134 0.85123 0.62238 0.0
H192 H 0.73371 0.93134 0.64698 0.0
H193 H 0.70561 0.7623 0.61727 0.0
H194 H 0.77441 0.82543 0.6336 0.0
C195 C 0.10893 0.82134 0.53703 0.0
C196 C 0.13251 0.82696 0.53419 0.0
C197 C 0.10421 0.82616 0.55132 0.0
C198 C 0.12299 0.83665 0.56302 0.0
C199 C 0.1462 0.84093 0.56031 0.0
C200 C 0.15091 0.83617 0.54607 0.0
C201 C 0.11909 0.84512 0.57765 0.0
C202 C 0.09804 0.8309 0.58452 0.0
C203 C 0.09418 0.83959 0.59813 0.0
C204 C 0.11179 0.86278 0.60477 0.0
C205 C 0.13292 0.87719 0.59806 0.0
C206 C 0.13633 0.86821 0.5845 0.0
C207 C 0.1512 0.90188 0.60498 0.0
C208 C 0.14384 0.91724 0.61172 0.0
C209 C 0.17618 0.91044 0.60467 0.0
C210 C 0.19335 0.93388 0.6108 0.0
C211 C 0.18594 0.94919 0.61749 0.0
C212 C 0.07162 0.82492 0.60531 0.0
C213 C 0.04907 0.81095 0.59675 0.0
C214 C 0.0723 0.8255 0.62085 0.0
C215 C 0.05098 0.8131 0.62766 0.0
C216 C 0.02837 0.79942 0.61912 0.0
C217 C 0.02776 0.79826 0.60356 0.0
C218 C 0.16102 0.94059 0.61795 0.0
H219 H 0.0944 0.81434 0.52808 0.0
H220 H 0.08618 0.82279 0.55303 0.0
H221 H 0.16093 0.84855 0.56917 0.0
H222 H 0.16914 0.84022 0.54429 0.0
H223 H 0.08488 0.81295 0.57936 0.0
H224 H 0.15211 0.87961 0.57897 0.0
H225 H 0.10896 0.8698 0.61514 0.0
H226 H 0.12476 0.91143 0.61192 0.0
H227 H 0.1825 0.89896 0.59978 0.0
H228 H 0.21246 0.93993 0.61046 0.0
H229 H 0.04774 0.8102 0.58477 0.0
H230 H 0.08935 0.83567 0.62783 0.0
H231 H 0.15477 0.95212 0.62287 0.0
H232 H 0.0108 0.78754 0.59657 0.0
H233 H 0.05226 0.81467 0.63966 0.0
C234 C 0.97892 0.51031 0.8094 0.0
C235 C 0.99632 0.50409 0.81416 0.0
C236 C 0.97105 0.50746 0.79436 0.0
C237 C 0.98044 0.49838 0.78372 0.0
C238 C 0.99837 0.49282 0.78845 0.0
C239 C 0.0062 0.4956 0.80351 0.0
C240 C 0.97032 0.49323 0.76792 0.0
C241 C 0.96405 0.509 0.76127 0.0
C242 C 0.95211 0.5029 0.74683 0.0
C243 C 0.94655 0.48087 0.73901 0.0
C244 C 0.95289 0.46514 0.74544 0.0
C245 C 0.965 0.47146 0.75978 0.0
C246 C 0.94466 0.44101 0.73776 0.0
C247 C 0.91975 0.42467 0.73452 0.0
C248 C 0.9614 0.43396 0.73398 0.0
C249 C 0.95328 0.4108 0.72694 0.0
C250 C 0.92824 0.39411 0.72387 0.0
C251 C 0.94392 0.51862 0.74022 0.0
C252 C 0.9321 0.52807 0.74856 0.0
C253 C 0.94675 0.52326 0.72534 0.0
C254 C 0.93764 0.53682 0.71885 0.0
C255 C 0.92541 0.54592 0.72711 0.0
C256 C 0.92289 0.54152 0.74206 0.0
C257 C 0.91161 0.4014 0.7278 0.0
H258 H 0.97071 0.51656 0.81734 0.0
H259 H 0.9569 0.5115 0.79114 0.0
H260 H 0.00619 0.48609 0.78051 0.0
H261 H 0.01989 0.49099 0.80684 0.0
H262 H 0.96833 0.52598 0.76736 0.0
H263 H 0.9689 0.45868 0.76489 0.0
H264 H 0.93657 0.47555 0.72807 0.0
H265 H 0.90657 0.42976 0.73754 0.0
H266 H 0.98072 0.44643 0.73637 0.0
H267 H 0.96667 0.40607 0.72386 0.0
H268 H 0.92931 0.52444 0.75999 0.0
H269 H 0.95601 0.51638 0.7187 0.0
H270 H 0.89223 0.38899 0.72602 0.0
H271 H 0.91324 0.54793 0.74868 0.0
H272 H 0.94027 0.54024 0.70738 0.0
C273 C 0.54872 0.51937 0.81273 0.0
C274 C 0.54387 0.50331 0.82365 0.0
C275 C 0.55169 0.51297 0.7983 0.0
C276 C 0.54943 0.49023 0.79453 0.0
C277 C 0.54475 0.47429 0.80549 0.0
C278 C 0.5421 0.48079 0.81989 0.0
C279 C 0.55132 0.48265 0.77916 0.0
C280 C 0.57107 0.49767 0.77155 0.0
C281 C 0.57354 0.48966 0.75733 0.0
C282 C 0.55564 0.46665 0.75067 0.0
C283 C 0.53567 0.45152 0.75808 0.0
C284 C 0.53367 0.45972 0.77232 0.0
C285 C 0.51727 0.42691 0.75114 0.0
C286 C 0.5092 0.42297 0.73594 0.0
C287 C 0.50793 0.40708 0.75963 0.0
C288 C 0.49101 0.38386 0.75306 0.0
C289 C 0.48315 0.3799 0.73785 0.0
C290 C 0.59523 0.50477 0.74963 0.0
C291 C 0.60452 0.52985 0.74965 0.0
C292 C 0.60685 0.49411 0.74217 0.0
C293 C 0.62715 0.50811 0.73483 0.0
C294 C 0.6364 0.53316 0.73479 0.0
C295 C 0.62487 0.54389 0.7423 0.0
C296 C 0.49236 0.39972 0.72937 0.0
H297 H 0.55027 0.53688 0.81535 0.0
H298 H 0.55522 0.52553 0.79003 0.0
H299 H 0.54312 0.45674 0.80291 0.0
H300 H 0.53814 0.46794 0.82803 0.0
H301 H 0.58503 0.51512 0.77696 0.0
H302 H 0.51819 0.44833 0.77809 0.0
H303 H 0.55747 0.46034 0.73974 0.0
H304 H 0.51573 0.43791 0.72914 0.0
H305 H 0.51406 0.4094 0.7713 0.0
H306 H 0.48448 0.36889 0.75984 0.0
H307 H 0.59583 0.53855 0.75517 0.0
H308 H 0.60047 0.47493 0.74219 0.0
H309 H 0.48638 0.39728 0.71765 0.0
H310 H 0.6314 0.5631 0.74235 0.0
H311 H 0.63587 0.49935 0.72941 0.0
C312 C 0.56082 0.06963 0.82152 0.0
C313 C 0.53725 0.05146 0.82371 0.0
C314 C 0.56581 0.07904 0.8078 0.0
C315 C 0.54731 0.07059 0.796 0.0
C316 C 0.52385 0.05218 0.79814 0.0
C317 C 0.51889 0.04272 0.81181 0.0
C318 C 0.55214 0.08137 0.78163 0.0
C319 C 0.57333 0.08639 0.77501 0.0
C320 C 0.57767 0.09634 0.76134 0.0
C321 C 0.56054 0.10134 0.75437 0.0
C322 C 0.53937 0.09668 0.76086 0.0
C323 C 0.53541 0.08673 0.7745 0.0
C324 C 0.52149 0.10237 0.75349 0.0
C325 C 0.52936 0.12347 0.74623 0.0
C326 C 0.49639 0.08682 0.75372 0.0
C327 C 0.47963 0.0923 0.74697 0.0
C328 C 0.4875 0.1134 0.73971 0.0
C329 C 0.60009 0.10167 0.7543 0.0
C330 C 0.62276 0.11239 0.76283 0.0
C331 C 0.59909 0.09671 0.73889 0.0
C332 C 0.62023 0.1027 0.73215 0.0
C333 C 0.64297 0.11378 0.74064 0.0
C334 C 0.64394 0.11839 0.75608 0.0
C335 C 0.5126 0.12886 0.73939 0.0
H336 H 0.57543 0.07659 0.8304 0.0
H337 H 0.58403 0.09331 0.80654 0.0
H338 H 0.50925 0.04507 0.78923 0.0
H339 H 0.5005 0.02891 0.81313 0.0
H340 H 0.58613 0.08198 0.78032 0.0
H341 H 0.51951 0.08371 0.77981 0.0
H342 H 0.56375 0.10899 0.74385 0.0
H343 H 0.54853 0.13604 0.74597 0.0
H344 H 0.48963 0.07026 0.75904 0.0
H345 H 0.46048 0.08009 0.74761 0.0
H346 H 0.62423 0.11662 0.7747 0.0
H347 H 0.58191 0.08819 0.732 0.0
H348 H 0.51937 0.1451 0.73374 0.0
H349 H 0.66109 0.12661 0.76299 0.0
H350 H 0.61878 0.09907 0.72023 0.0
C351 C 0.79538 0.58257 0.86197 0.0
C352 C 0.79159 0.6018 0.85878 0.0
C353 C 0.79077 0.57322 0.87569 0.0
C354 C 0.78221 0.58281 0.88658 0.0
C355 C 0.77779 0.6016 0.88327 0.0
C356 C 0.78245 0.611 0.86954 0.0
C357 C 0.77905 0.57406 0.90157 0.0
C358 C 0.79661 0.56981 0.90867 0.0
C359 C 0.79454 0.56268 0.92305 0.0
C360 C 0.77471 0.55972 0.93043 0.0
C361 C 0.75627 0.56284 0.92336 0.0
C362 C 0.75879 0.57024 0.90892 0.0
C363 C 0.73422 0.55771 0.93094 0.0
C364 C 0.72492 0.53941 0.94058 0.0
C365 C 0.72212 0.57083 0.92858 0.0
C366 C 0.7013 0.56564 0.93554 0.0
C367 C 0.69217 0.54749 0.9453 0.0
C368 C 0.81283 0.55764 0.93022 0.0
C369 C 0.81712 0.53998 0.92344 0.0
C370 C 0.82575 0.57009 0.94394 0.0
C371 C 0.84284 0.56504 0.95073 0.0
C372 C 0.8468 0.54706 0.94406 0.0
C373 C 0.83376 0.53453 0.93038 0.0
C374 C 0.70446 0.5346 0.94777 0.0
H375 H 0.80192 0.57469 0.85385 0.0
H376 H 0.79397 0.55845 0.87778 0.0
H377 H 0.77146 0.60959 0.89147 0.0
H378 H 0.77956 0.62598 0.86754 0.0
H379 H 0.81231 0.57265 0.90319 0.0
H380 H 0.7447 0.5724 0.90317 0.0
H381 H 0.7736 0.55462 0.94163 0.0
H382 H 0.73324 0.52847 0.94252 0.0
H383 H 0.72877 0.58528 0.92143 0.0
H384 H 0.69227 0.57579 0.93309 0.0
H385 H 0.80726 0.53009 0.91289 0.0
H386 H 0.82273 0.58381 0.94934 0.0
H387 H 0.69847 0.5208 0.95537 0.0
H388 H 0.8366 0.52065 0.92503 0.0
H389 H 0.85264 0.57485 0.9613 0.0
C390 C 0.34507 0.14405 0.87817 0.0
C391 C 0.35616 0.16191 0.86846 0.0
C392 C 0.35153 0.14971 0.89347 0.0
C393 C 0.36901 0.17338 0.89933 0.0
C394 C 0.38018 0.19116 0.8896 0.0
C395 C 0.37384 0.18548 0.87433 0.0
C396 C 0.37565 0.17967 0.91554 0.0
C397 C 0.38077 0.1649 0.92414 0.0
C398 C 0.3882 0.17133 0.93944 0.0
C399 C 0.39019 0.19285 0.94602 0.0
C400 C 0.38601 0.20824 0.93744 0.0
C401 C 0.37826 0.20126 0.92228 0.0
C402 C 0.39237 0.23275 0.94392 0.0
C403 C 0.3863 0.23647 0.95808 0.0
C404 C 0.40619 0.25291 0.93627 0.0
C405 C 0.4144 0.2763 0.94279 0.0
C406 C 0.40897 0.28009 0.95711 0.0
C407 C 0.39575 0.15667 0.94821 0.0
C408 C 0.38502 0.13152 0.94458 0.0
C409 C 0.41465 0.1679 0.95985 0.0
C410 C 0.42277 0.15448 0.96746 0.0
C411 C 0.41284 0.12954 0.96336 0.0
C412 C 0.39368 0.11823 0.95187 0.0
C413 C 0.39445 0.25996 0.9646 0.0
H414 H 0.3315 0.12569 0.87393 0.0
H415 H 0.34259 0.13569 0.90074 0.0
H416 H 0.39394 0.20949 0.89379 0.0
H417 H 0.38251 0.19969 0.86714 0.0
H418 H 0.3801 0.14902 0.91866 0.0
H419 H 0.37455 0.21287 0.91567 0.0
H420 H 0.39598 0.19826 0.95775 0.0
H421 H 0.37556 0.22124 0.96419 0.0
H422 H 0.41142 0.25067 0.92542 0.0
H423 H 0.4253 0.29148 0.93669 0.0
H424 H 0.37008 0.12201 0.93593 0.0
H425 H 0.42382 0.18725 0.96291 0.0
H426 H 0.39007 0.2624 0.97568 0.0
H427 H 0.38565 0.09918 0.94815 0.0
H428 H 0.43708 0.16387 0.97648 0.0
C429 C 0.77521 0.14927 0.86897 0.0
C430 C 0.79882 0.15507 0.86609 0.0
C431 C 0.77054 0.15426 0.88324 0.0
C432 C 0.7894 0.16513 0.89488 0.0
C433 C 0.81274 0.1699 0.89211 0.0
C434 C 0.81739 0.16493 0.8779 0.0
C435 C 0.7853 0.17297 0.90964 0.0
C436 C 0.76453 0.15799 0.91651 0.0
C437 C 0.76077 0.16577 0.93042 0.0
C438 C 0.77802 0.18884 0.93737 0.0
C439 C 0.79872 0.20416 0.93056 0.0
C440 C 0.80215 0.19602 0.91672 0.0
C441 C 0.8164 0.22899 0.93759 0.0
C442 C 0.80832 0.24349 0.94464 0.0
C443 C 0.84146 0.23867 0.93687 0.0
C444 C 0.858 0.26244 0.94277 0.0
C445 C 0.84989 0.27708 0.94961 0.0
C446 C 0.7386 0.15016 0.9376 0.0
C447 C 0.71572 0.13772 0.92928 0.0
C448 C 0.74004 0.14826 0.95293 0.0
C449 C 0.71905 0.13458 0.95982 0.0
C450 C 0.69612 0.12248 0.95155 0.0
C451 C 0.69473 0.12407 0.93618 0.0
C452 C 0.82486 0.26722 0.95061 0.0
H453 H 0.76054 0.1418 0.86009 0.0
H454 H 0.7524 0.15052 0.88501 0.0
H455 H 0.82754 0.17783 0.90093 0.0
H456 H 0.83565 0.16911 0.87612 0.0
H457 H 0.75154 0.14011 0.91116 0.0
H458 H 0.81764 0.20802 0.91115 0.0
H459 H 0.77516 0.195 0.94803 0.0
H460 H 0.78914 0.23673 0.94526 0.0
H461 H 0.84835 0.2279 0.93169 0.0
H462 H 0.8771 0.26948 0.94168 0.0
H463 H 0.71396 0.13909 0.91749 0.0
H464 H 0.75743 0.15731 0.95962 0.0
H465 H 0.81799 0.27783 0.95601 0.0
H466 H 0.67734 0.11526 0.9295 0.0
H467 H 0.72082 0.13339 0.97164 0.0
C468 C 0.64053 0.8419 0.14127 0.0
C469 C 0.65792 0.8362 0.14688 0.0
C470 C 0.63377 0.83881 0.12606 0.0
C471 C 0.6443 0.83003 0.11607 0.0
C472 C 0.66225 0.82502 0.12163 0.0
C473 C 0.669 0.82809 0.13688 0.0
C474 C 0.63537 0.82466 0.10005 0.0
C475 C 0.62931 0.84012 0.09288 0.0
C476 C 0.61801 0.83368 0.07828 0.0
C477 C 0.61353 0.81186 0.07067 0.0
C478 C 0.61962 0.79625 0.07762 0.0
C479 C 0.63071 0.80288 0.09227 0.0
C480 C 0.6123 0.772 0.07014 0.0
C481 C 0.58897 0.75769 0.06257 0.0
C482 C 0.628 0.7625 0.07112 0.0
C483 C 0.62036 0.73901 0.06485 0.0
C484 C 0.59686 0.72456 0.05749 0.0
C485 C 0.60871 0.84846 0.07149 0.0
C486 C 0.59667 0.85759 0.07991 0.0
C487 C 0.6104 0.85231 0.05642 0.0
C488 C 0.5998 0.86456 0.04985 0.0
C489 C 0.58724 0.87313 0.05821 0.0
C490 C 0.58611 0.86981 0.07335 0.0
C491 C 0.58134 0.73425 0.05632 0.0
H492 H 0.6319 0.84851 0.14867 0.0
H493 H 0.61967 0.84256 0.12218 0.0
H494 H 0.67084 0.81841 0.11421 0.0
H495 H 0.68235 0.82339 0.14086 0.0
H496 H 0.633 0.85704 0.09878 0.0
H497 H 0.63431 0.79033 0.09792 0.0
H498 H 0.60441 0.80653 0.0595 0.0
H499 H 0.57627 0.76431 0.06188 0.0
H500 H 0.64616 0.77321 0.07678 0.0
H501 H 0.63285 0.73216 0.06577 0.0
H502 H 0.59476 0.85467 0.09149 0.0
H503 H 0.61971 0.84564 0.04968 0.0
H504 H 0.56298 0.72346 0.05098 0.0
H505 H 0.57691 0.87654 0.08015 0.0
H506 H 0.60089 0.86676 0.03814 0.0
C507 C 0.21461 0.84215 0.14693 0.0
C508 C 0.20698 0.82462 0.1571 0.0
C509 C 0.21929 0.83689 0.13271 0.0
C510 C 0.21634 0.814 0.12843 0.0
C511 C 0.20972 0.79693 0.13881 0.0
C512 C 0.20513 0.80217 0.15296 0.0
C513 C 0.21869 0.80716 0.11297 0.0
C514 C 0.23857 0.82252 0.10555 0.0
C515 C 0.24092 0.81533 0.09106 0.0
C516 C 0.22287 0.79261 0.08403 0.0
C517 C 0.20295 0.77707 0.09134 0.0
C518 C 0.20094 0.78464 0.10572 0.0
C519 C 0.18447 0.75265 0.08419 0.0
C520 C 0.17578 0.74913 0.06913 0.0
C521 C 0.17528 0.73261 0.0925 0.0
C522 C 0.15768 0.70965 0.08597 0.0
C523 C 0.14891 0.7061 0.07093 0.0
C524 C 0.2625 0.83111 0.08339 0.0
C525 C 0.27255 0.85641 0.08479 0.0
C526 C 0.27327 0.82092 0.07458 0.0
C527 C 0.29338 0.8356 0.06726 0.0
C528 C 0.30341 0.86085 0.06871 0.0
C529 C 0.29283 0.87112 0.07758 0.0
C530 C 0.1582 0.72611 0.06257 0.0
H531 H 0.21614 0.85959 0.14977 0.0
H532 H 0.22429 0.85035 0.1249 0.0
H533 H 0.2078 0.77932 0.13592 0.0
H534 H 0.19992 0.78851 0.16065 0.0
H535 H 0.25259 0.83965 0.11128 0.0
H536 H 0.18528 0.77303 0.11129 0.0
H537 H 0.22444 0.78686 0.0729 0.0
H538 H 0.18234 0.76422 0.06246 0.0
H539 H 0.18182 0.7346 0.10407 0.0
H540 H 0.15075 0.69473 0.09278 0.0
H541 H 0.26455 0.86486 0.09131 0.0
H542 H 0.26641 0.80158 0.07349 0.0
H543 H 0.15204 0.72395 0.05091 0.0
H544 H 0.30004 0.89053 0.07877 0.0
H545 H 0.30138 0.82721 0.06069 0.0
C546 C 0.22738 0.40754 0.15523 0.0
C547 C 0.20378 0.38951 0.15749 0.0
C548 C 0.23245 0.41652 0.14139 0.0
C549 C 0.21403 0.40767 0.1295 0.0
C550 C 0.19062 0.38917 0.13169 0.0
C551 C 0.18557 0.38025 0.14548 0.0
C552 C 0.21876 0.41799 0.11497 0.0
C553 C 0.24022 0.42351 0.10851 0.0
C554 C 0.24399 0.43235 0.09452 0.0
C555 C 0.22621 0.43593 0.08706 0.0
C556 C 0.20494 0.4311 0.09347 0.0
C557 C 0.20146 0.42218 0.10742 0.0
C558 C 0.18643 0.43555 0.0857 0.0
C559 C 0.19355 0.45605 0.07792 0.0
C560 C 0.16148 0.41952 0.08617 0.0
C561 C 0.14413 0.42401 0.07921 0.0
C562 C 0.15129 0.44454 0.07149 0.0
C563 C 0.26639 0.4378 0.08752 0.0
C564 C 0.28942 0.4524 0.09542 0.0
C565 C 0.26487 0.42905 0.0727 0.0
C566 C 0.28591 0.43486 0.06588 0.0
C567 C 0.30896 0.44984 0.07367 0.0
C568 C 0.31051 0.45854 0.08851 0.0
C569 C 0.17619 0.46044 0.07087 0.0
H570 H 0.24179 0.41519 0.16427 0.0
H571 H 0.25062 0.43088 0.14012 0.0
H572 H 0.17612 0.38153 0.12269 0.0
H573 H 0.16733 0.366 0.14673 0.0
H574 H 0.25364 0.42022 0.11414 0.0
H575 H 0.18542 0.41899 0.11261 0.0
H576 H 0.22904 0.44259 0.07625 0.0
H577 H 0.21259 0.46901 0.07752 0.0
H578 H 0.15529 0.40332 0.09183 0.0
H579 H 0.12507 0.41123 0.07971 0.0
H580 H 0.29112 0.4595 0.10683 0.0
H581 H 0.24735 0.41766 0.06637 0.0
H582 H 0.1823 0.47659 0.06517 0.0
H583 H 0.32804 0.46996 0.09482 0.0
H584 H 0.28415 0.42799 0.05441 0.0
C585 C 0.46797 0.92102 0.19777 0.0
C586 C 0.46536 0.94109 0.195 0.0
C587 C 0.46312 0.91132 0.21136 0.0
C588 C 0.45545 0.92135 0.22255 0.0
C589 C 0.4523 0.94108 0.2197 0.0
C590 C 0.45724 0.95086 0.20609 0.0
C591 C 0.4513 0.91147 0.23721 0.0
C592 C 0.46772 0.90539 0.244 0.0
C593 C 0.46398 0.89565 0.2577 0.0
C594 C 0.44336 0.89173 0.26456 0.0
C595 C 0.42673 0.89767 0.25797 0.0
C596 C 0.43095 0.90782 0.24438 0.0
C597 C 0.40472 0.89276 0.26524 0.0
C598 C 0.3899 0.8699 0.27001 0.0
C599 C 0.39863 0.9109 0.2677 0.0
C600 C 0.37833 0.9064 0.27504 0.0
C601 C 0.3634 0.88349 0.27988 0.0
C602 C 0.48167 0.88964 0.26484 0.0
C603 C 0.49074 0.87719 0.25652 0.0
C604 C 0.48971 0.89642 0.28002 0.0
C605 C 0.50652 0.89097 0.28673 0.0
C606 C 0.51557 0.87841 0.27844 0.0
C607 C 0.50741 0.87156 0.26325 0.0
C608 C 0.3694 0.86525 0.27712 0.0
H609 H 0.47364 0.91266 0.18939 0.0
H610 H 0.46526 0.89581 0.21308 0.0
H611 H 0.44661 0.94934 0.22814 0.0
H612 H 0.45525 0.96646 0.2044 0.0
H613 H 0.4838 0.90877 0.23878 0.0
H614 H 0.41796 0.91207 0.23916 0.0
H615 H 0.44018 0.88395 0.27504 0.0
H616 H 0.39403 0.85549 0.26808 0.0
H617 H 0.40989 0.92876 0.26424 0.0
H618 H 0.37465 0.92107 0.27714 0.0
H619 H 0.48465 0.87147 0.24484 0.0
H620 H 0.4833 0.90633 0.28667 0.0
H621 H 0.35814 0.84723 0.28031 0.0
H622 H 0.5136 0.8615 0.25656 0.0
H623 H 0.51269 0.89694 0.29837 0.0
C624 C 0.00737 0.48321 0.21264 0.0
C625 C 0.01618 0.50125 0.20285 0.0
C626 C 0.01577 0.48895 0.22775 0.0
C627 C 0.03317 0.51283 0.23332 0.0
C628 C 0.04216 0.53074 0.22345 0.0
C629 C 0.03375 0.52504 0.20842 0.0
C630 C 0.04227 0.51923 0.24932 0.0
C631 C 0.04826 0.50426 0.25713 0.0
C632 C 0.05871 0.51127 0.27195 0.0
C633 C 0.06292 0.53344 0.27893 0.0
C634 C 0.05724 0.54871 0.27125 0.0
C635 C 0.04647 0.54121 0.25655 0.0
C636 C 0.06457 0.57337 0.27809 0.0
C637 C 0.06229 0.5775 0.29314 0.0
C638 C 0.07526 0.59324 0.26972 0.0
C639 C 0.08397 0.61672 0.27629 0.0
C640 C 0.08238 0.62096 0.29143 0.0
C641 C 0.06673 0.49628 0.27981 0.0
C642 C 0.05252 0.47087 0.27816 0.0
C643 C 0.08902 0.50734 0.28877 0.0
C644 C 0.09698 0.49336 0.29586 0.0
C645 C 0.08296 0.46795 0.29406 0.0
C646 C 0.06057 0.45686 0.28519 0.0
C647 C 0.07111 0.60108 0.29974 0.0
H648 H 0.9937 0.46475 0.20868 0.0
H649 H 0.00839 0.47478 0.23509 0.0
H650 H 0.05601 0.54919 0.22731 0.0
H651 H 0.04127 0.53924 0.20111 0.0
H652 H 0.04593 0.48772 0.25145 0.0
H653 H 0.04159 0.5527 0.25066 0.0
H654 H 0.07137 0.53919 0.29025 0.0
H655 H 0.05393 0.56254 0.29985 0.0
H656 H 0.0776 0.59077 0.25816 0.0
H657 H 0.09219 0.63161 0.26952 0.0
H658 H 0.03517 0.4618 0.27143 0.0
H659 H 0.10063 0.52685 0.29011 0.0
H660 H 0.06969 0.60376 0.31145 0.0
H661 H 0.04943 0.43732 0.28343 0.0
H662 H 0.11416 0.50252 0.30276 0.0
C663 C 0.43685 0.48409 0.2015 0.0
C664 C 0.46007 0.48899 0.19828 0.0
C665 C 0.43285 0.48929 0.21588 0.0
C666 C 0.45201 0.49958 0.22734 0.0
C667 C 0.47499 0.50363 0.22423 0.0
C668 C 0.47898 0.49842 0.20988 0.0
C669 C 0.44855 0.50757 0.24223 0.0
C670 C 0.42763 0.49309 0.24913 0.0
C671 C 0.42422 0.50117 0.26305 0.0
C672 C 0.44197 0.52402 0.26999 0.0
C673 C 0.46287 0.53875 0.26319 0.0
C674 C 0.46603 0.53034 0.24936 0.0
C675 C 0.48107 0.56327 0.27026 0.0
C676 C 0.47362 0.57875 0.27667 0.0
C677 C 0.50603 0.5716 0.2703 0.0
C678 C 0.52317 0.59497 0.27651 0.0
C679 C 0.51572 0.61054 0.28282 0.0
C680 C 0.40192 0.48616 0.27026 0.0
C681 C 0.37901 0.47446 0.26198 0.0
C682 C 0.40331 0.48418 0.28558 0.0
C683 C 0.38224 0.4712 0.29252 0.0
C684 C 0.35929 0.45992 0.2843 0.0
C685 C 0.35793 0.46151 0.26893 0.0
C686 C 0.49075 0.60214 0.28287 0.0
H687 H 0.42183 0.47654 0.19284 0.0
H688 H 0.41497 0.48608 0.21791 0.0
H689 H 0.49004 0.51127 0.23287 0.0
H690 H 0.49713 0.50262 0.20779 0.0
H691 H 0.41417 0.47538 0.24376 0.0
H692 H 0.48176 0.54198 0.24386 0.0
H693 H 0.43937 0.53051 0.28063 0.0
H694 H 0.45451 0.573 0.2766 0.0
H695 H 0.51233 0.55996 0.26561 0.0
H696 H 0.54227 0.60077 0.27652 0.0
H697 H 0.37732 0.47579 0.25018 0.0
H698 H 0.42073 0.49278 0.29223 0.0
H699 H 0.48441 0.6138 0.28745 0.0
H700 H 0.34053 0.45276 0.26226 0.0
H701 H 0.38392 0.47045 0.30439 0.0
Eu702 Eu 0.48677 0.9829 0.9931 0.0
Eu703 Eu 0.50809 0.01392 0.02623 0.0
C704 C 0.48247 0.02962 1.00222 0.0
C705 C 0.47828 0.97101 0.95129 0.0
C706 C 0.49331 0.99586 0.95026 0.0
C707 C 0.47569 0.96343 0.92453 0.0
C708 C 0.49961 0.00445 0.93647 0.0
C709 C 0.46945 0.95486 0.93835 0.0
C710 C 0.49096 0.98834 0.92341 0.0
C711 C 0.4727 0.9619 0.96588 0.0
O712 O 0.46762 0.98973 0.02609 0.0
O713 O 0.46037 0.95905 0.0084 0.0
C714 C 0.45398 0.96738 0.01984 0.0
O715 O 0.51047 0.97024 1.00426 0.0
O716 O 0.50493 0.03485 0.04499 0.0
O717 O 0.53442 0.02716 0.04586 0.0
O718 O 0.50503 0.97772 0.0282 0.0
C719 C 0.51142 0.96676 0.01831 0.0
O720 O 0.51994 0.01805 0.98992 0.0
O721 O 0.54041 0.02615 0.01303 0.0
O722 O 0.50197 0.03799 0.01161 0.0
O723 O 0.49085 0.96317 0.97409 0.0
O724 O 0.46025 0.96903 0.97346 0.0
O725 O 0.47053 0.00693 0.9965 0.0
C726 C 0.51646 0.02608 0.06786 0.0
C727 C 0.50229 0.00111 0.06887 0.0
C728 C 0.51882 0.03344 0.09463 0.0
C729 C 0.49657 0.99234 0.08267 0.0
C730 C 0.52462 0.0422 0.0808 0.0
C731 C 0.50482 0.00838 0.09573 0.0
C732 C 0.52253 0.03519 0.05332 0.0
C733 C 0.54025 0.02879 0.99878 0.0
H734 H 0.50039 0.00859 0.96015 0.0
H735 H 0.46843 0.95055 0.9147 0.0
H736 H 0.51166 0.02367 0.93609 0.0
H737 H 0.45785 0.93561 0.93895 0.0
H738 H 0.49566 0.98839 0.05897 0.0
H739 H 0.52565 0.04626 0.10448 0.0
H740 H 0.48547 0.97298 0.08309 0.0
H741 H 0.53554 0.06154 0.08021 0.0
Eu742 Eu 0.01312 0.50143 0.99425 0.0
Eu743 Eu 0.98049 0.48598 0.02269 0.0
C744 C 0.96581 0.4488 0.99386 0.0
C745 C 0.0357 0.51076 0.95576 0.0
C746 C 0.01219 0.49811 0.94833 0.0
C747 C 0.05238 0.52011 0.93218 0.0
C748 C 0.00879 0.4966 0.93287 0.0
C749 C 0.05575 0.52157 0.94762 0.0
C750 C 0.02886 0.5078 0.92464 0.0
C751 C 0.03955 0.51378 0.97198 0.0
O752 O 0.0063 0.47146 0.02514 0.0
O753 O 0.03662 0.49933 0.01293 0.0
C754 C 0.02905 0.48276 0.02225 0.0
O755 O 0.02288 0.53582 0.00832 0.0
O756 O 0.9588 0.4586 0.03701 0.0
O757 O 0.96411 0.49484 0.04063 0.0
O758 O 0.01478 0.52086 0.0308 0.0
C759 C 0.02578 0.53907 0.02285 0.0
O760 O 0.97852 0.50027 0.98605 0.0
O761 O 0.96593 0.5049 0.00863 0.0
O762 O 0.95768 0.45798 1.00376 0.0
O763 O 0.03219 0.5273 0.97857 0.0
O764 O 0.03393 0.49429 0.97849 0.0
O765 O 0.98837 0.46082 0.99065 0.0
C766 C 0.96061 0.47383 0.06154 0.0
C767 C 0.98452 0.48346 0.06803 0.0
C768 C 0.94605 0.46517 0.08572 0.0
C769 C 0.98919 0.4841 0.08333 0.0
C770 C 0.94142 0.46455 0.07043 0.0
C771 C 0.97 0.4751 0.09237 0.0
C772 C 0.95552 0.47364 0.04557 0.0
C773 C 0.9649 0.50534 0.99415 0.0
H774 H 0.99651 0.48979 0.95451 0.0
H775 H 0.0682 0.52863 0.92614 0.0
H776 H 0.99044 0.48722 0.9274 0.0
H777 H 0.07401 0.5314 0.95322 0.0
H778 H 0.99954 0.49072 0.06127 0.0
H779 H 0.93088 0.45781 0.09234 0.0
H780 H 0.00784 0.49213 0.08812 0.0
H781 H 0.92286 0.45696 0.06554 0.0
Eu782 Eu 0.51288 0.49552 0.02545 0.0
Eu783 Eu 0.48991 0.50579 0.99494 0.0
C784 C 0.52283 0.54807 0.02031 0.0
C785 C 0.52165 0.48708 0.06565 0.0
C786 C 0.50483 0.4943 0.069 0.0
C787 C 0.52442 0.47833 0.09109 0.0
C788 C 0.49779 0.49348 0.08331 0.0
C789 C 0.53146 0.47916 0.07675 0.0
C790 C 0.5074 0.48537 0.09452 0.0
C791 C 0.52813 0.48686 0.05046 0.0
O792 O 0.5225 0.50382 0.98839 0.0
O793 O 0.54393 0.51055 0.01122 0.0
C794 C 0.54263 0.5095 0.99666 0.0
O795 O 0.50275 0.46436 0.00835 0.0
O796 O 0.48689 0.53023 0.98015 0.0
O797 O 0.46622 0.4916 0.97419 0.0
O798 O 0.47086 0.46558 0.9966 0.0
C799 C 0.482 0.45365 0.99999 0.0
O800 O 0.47341 0.48247 0.0279 0.0
O801 O 0.46636 0.50603 0.01248 0.0
O802 O 0.51968 0.54161 1.00603 0.0
O803 O 0.51106 0.47006 0.04095 0.0
O804 O 0.53897 0.50784 0.04517 0.0
O805 O 0.51543 0.53178 0.0298 0.0
C806 C 0.48267 0.51594 0.95503 0.0
C807 C 0.5017 0.5116 0.95241 0.0
C808 C 0.47992 0.52358 0.92928 0.0
C809 C 0.5096 0.51293 0.93835 0.0
C810 C 0.47199 0.52222 0.94344 0.0
C811 C 0.49856 0.51854 0.92655 0.0
C812 C 0.47354 0.51289 0.96968 0.0
C813 C 0.46042 0.49213 0.02339 0.0
H814 H 0.49703 0.5004 0.06051 0.0
H815 H 0.53195 0.47174 0.09942 0.0
H816 H 0.48493 0.49936 0.08562 0.0
H817 H 0.54432 0.47336 0.07429 0.0
H818 H 0.51014 0.50669 0.96119 0.0
H819 H 0.47097 0.52782 0.92039 0.0
H820 H 0.52426 0.50933 0.93668 0.0
H821 H 0.45724 0.5256 0.94527 0.0
Eu822 Eu 0.15256 0.31814 0.32643 0.0
Eu823 Eu 0.17262 0.34963 0.35964 0.0
C824 C 0.14517 0.36334 0.33497 0.0
C825 C 0.14605 0.30677 0.28467 0.0
C826 C 0.15688 0.33176 0.28358 0.0
C827 C 0.14799 0.30023 0.25828 0.0
C828 C 0.16324 0.34093 0.26993 0.0
C829 C 0.14159 0.29107 0.27195 0.0
C830 C 0.15898 0.32529 0.25711 0.0
C831 C 0.14071 0.29727 0.29919 0.0
O832 O 0.13297 0.32284 0.36026 0.0
O833 O 0.12569 0.29364 0.34131 0.0
C834 C 0.11972 0.30083 0.35344 0.0
O835 O 0.17718 0.30694 0.33809 0.0
O836 O 0.16892 0.37066 0.37809 0.0
O837 O 0.19907 0.36393 0.37924 0.0
O838 O 0.17132 0.31431 0.36195 0.0
C839 C 0.17828 0.30373 0.35219 0.0
O840 O 0.18429 0.35445 0.32348 0.0
O841 O 0.20501 0.36272 0.34647 0.0
O842 O 0.16397 0.37219 0.34503 0.0
O843 O 0.15943 0.30027 0.30765 0.0
O844 O 0.12662 0.30243 0.30654 0.0
O845 O 0.13482 0.3409 0.32886 0.0
C846 C 0.18107 0.36313 0.40119 0.0
C847 C 0.16525 0.33848 0.40239 0.0
C848 C 0.18571 0.37107 0.42802 0.0
C849 C 0.15963 0.33018 0.41631 0.0
C850 C 0.19126 0.37937 0.41406 0.0
C851 C 0.16981 0.34636 0.42931 0.0
C852 C 0.18685 0.37176 0.38652 0.0
C853 C 0.20462 0.36562 0.33228 0.0
H854 H 0.16071 0.3442 0.29333 0.0
H855 H 0.14419 0.28765 0.24861 0.0
H856 H 0.17197 0.36033 0.26949 0.0
H857 H 0.13337 0.27174 0.27261 0.0
H858 H 0.15731 0.32565 0.39254 0.0
H859 H 0.19366 0.38405 0.43778 0.0
H860 H 0.14761 0.311 0.41689 0.0
H861 H 0.20347 0.39847 0.41332 0.0
Eu862 Eu 0.68321 0.832 0.32708 0.0
Eu863 Eu 0.65184 0.81873 0.35611 0.0
C864 C 0.63759 0.78002 0.32798 0.0
C865 C 0.70266 0.84113 0.28798 0.0
C866 C 0.67894 0.83277 0.28158 0.0
C867 C 0.71724 0.84915 0.26377 0.0
C868 C 0.67438 0.8326 0.26632 0.0
C869 C 0.72176 0.8493 0.27902 0.0
C870 C 0.6935 0.84082 0.25725 0.0
C871 C 0.70773 0.84169 0.30397 0.0
O872 O 0.68776 0.82261 0.36417 0.0
O873 O 0.69689 0.81293 0.34168 0.0
C874 C 0.70002 0.81544 0.35625 0.0
O875 O 0.70604 0.86259 0.34472 0.0
O876 O 0.63418 0.79327 0.37226 0.0
O877 O 0.63112 0.82554 0.37209 0.0
O878 O 0.67671 0.85921 0.35951 0.0
C879 C 0.69839 0.87166 0.35503 0.0
O880 O 0.65754 0.84648 0.32384 0.0
O881 O 0.62805 0.82147 0.33783 0.0
O882 O 0.64192 0.78393 0.34247 0.0
O883 O 0.70568 0.85784 0.31225 0.0
O884 O 0.69807 0.82073 0.30929 0.0
O885 O 0.64794 0.79781 0.31968 0.0
C886 C 0.63154 0.81042 0.39508 0.0
C887 C 0.65542 0.82406 0.40188 0.0
C888 C 0.6168 0.80199 0.41922 0.0
C889 C 0.65998 0.82658 0.41732 0.0
C890 C 0.61228 0.79951 0.4038 0.0
C891 C 0.64071 0.81543 0.42615 0.0
C892 C 0.6266 0.80655 0.3789 0.0
C893 C 0.63532 0.83671 0.32768 0.0
H894 H 0.66399 0.82639 0.2884 0.0
H895 H 0.73239 0.85589 0.25712 0.0
H896 H 0.65587 0.8258 0.26161 0.0
H897 H 0.74019 0.85592 0.28384 0.0
H898 H 0.67051 0.83245 0.39525 0.0
H899 H 0.60156 0.79348 0.42573 0.0
H900 H 0.6786 0.83681 0.42231 0.0
H901 H 0.59374 0.7889 0.39867 0.0
Eu902 Eu 0.18459 0.83712 0.36023 0.0
Eu903 Eu 0.16204 0.84651 0.32921 0.0
C904 C 0.19416 0.88936 0.35399 0.0
C905 C 0.19062 0.82707 0.40052 0.0
C906 C 0.17497 0.83567 0.40416 0.0
C907 C 0.18964 0.81396 0.42516 0.0
C908 C 0.16698 0.83376 0.41825 0.0
C909 C 0.19771 0.81598 0.41104 0.0
C910 C 0.17443 0.82312 0.42897 0.0
C911 C 0.19971 0.8299 0.38586 0.0
O912 O 0.20079 0.85736 0.32596 0.0
O913 O 0.20989 0.83787 0.34369 0.0
C914 C 0.21463 0.84937 0.3317 0.0
O915 O 0.15657 0.80078 0.34845 0.0
O916 O 0.16436 0.87112 0.31293 0.0
O917 O 0.1348 0.83395 0.3101 0.0
O918 O 0.16137 0.81129 0.32483 0.0
C919 C 0.15441 0.79478 0.33415 0.0
O920 O 0.15272 0.8409 0.3661 0.0
O921 O 0.13078 0.82952 0.34322 0.0
O922 O 0.17328 0.8787 0.34575 0.0
O923 O 0.18625 0.81252 0.37544 0.0
O924 O 0.20759 0.8512 0.38123 0.0
O925 O 0.20471 0.87708 0.35785 0.0
C926 C 0.15209 0.85155 0.28879 0.0
C927 C 0.16662 0.84129 0.2859 0.0
C928 C 0.14965 0.85789 0.2628 0.0
C929 C 0.17256 0.83924 0.27156 0.0
C930 C 0.14368 0.8599 0.27719 0.0
C931 C 0.1641 0.84745 0.25982 0.0
C932 C 0.14642 0.85409 0.30397 0.0
C933 C 0.1321 0.83277 0.35776 0.0
H934 H 0.16917 0.84416 0.39615 0.0
H935 H 0.19584 0.80584 0.43322 0.0
H936 H 0.155 0.84068 0.42077 0.0
H937 H 0.20974 0.80917 0.4084 0.0
H938 H 0.17346 0.83496 0.29478 0.0
H939 H 0.14269 0.86418 0.25397 0.0
H940 H 0.18402 0.83146 0.26969 0.0
H941 H 0.13253 0.86797 0.27927 0.0
Eu942 Eu 0.8212 0.64934 0.65886 0.0
Eu943 Eu 0.84018 0.68196 0.69171 0.0
C944 C 0.81291 0.6939 0.66549 0.0
C945 C 0.81438 0.63499 0.61756 0.0
C946 C 0.82945 0.65978 0.61638 0.0
C947 C 0.8119 0.62691 0.59085 0.0
C948 C 0.83576 0.6681 0.60255 0.0
C949 C 0.80563 0.6186 0.60473 0.0
C950 C 0.82705 0.65179 0.58959 0.0
C951 C 0.80816 0.6264 0.6322 0.0
O952 O 0.80965 0.64507 0.69498 0.0
O953 O 0.7887 0.63525 0.67196 0.0
C954 C 0.78932 0.63295 0.68624 0.0
O955 O 0.8318 0.62866 0.674 0.0
O956 O 0.83265 0.69992 0.71012 0.0
O957 O 0.86588 0.69854 0.71169 0.0
O958 O 0.8603 0.66158 0.68939 0.0
C959 C 0.85102 0.639 0.68379 0.0
O960 O 0.86033 0.6776 0.65805 0.0
O961 O 0.86658 0.70679 0.67676 0.0
O962 O 0.81449 0.69144 0.67968 0.0
O963 O 0.82608 0.62824 0.641 0.0
O964 O 0.79518 0.63374 0.63905 0.0
O965 O 0.82029 0.68349 0.65589 0.0
C966 C 0.84609 0.69423 0.73372 0.0
C967 C 0.86103 0.68722 0.74145 0.0
C968 C 0.82016 0.68289 0.75385 0.0
C969 C 0.85544 0.6779 0.75514 0.0
C970 C 0.82578 0.69227 0.7402 0.0
C971 C 0.8348 0.67541 0.76145 0.0
C972 C 0.85121 0.70308 0.71886 0.0
C973 C 0.87299 0.69974 0.66477 0.0
H974 H 0.83643 0.6727 0.6262 0.0
H975 H 0.80464 0.61389 0.5811 0.0
H976 H 0.84774 0.68731 0.60204 0.0
H977 H 0.79395 0.5994 0.60545 0.0
H978 H 0.8769 0.68861 0.73684 0.0
H979 H 0.80437 0.68162 0.75851 0.0
H980 H 0.86702 0.67216 0.76064 0.0
H981 H 0.81405 0.69778 0.73465 0.0
Eu982 Eu 0.35226 0.17241 0.6609 0.0
Eu983 Eu 0.32033 0.15878 0.68946 0.0
C984 C 0.30484 0.12044 0.66126 0.0
C985 C 0.37167 0.17952 0.62183 0.0
C986 C 0.34754 0.16819 0.61542 0.0
C987 C 0.38555 0.18601 0.59737 0.0
C988 C 0.34245 0.166 0.60005 0.0
C989 C 0.39061 0.18822 0.61275 0.0
C990 C 0.36142 0.17512 0.59087 0.0
C991 C 0.37724 0.18338 0.63797 0.0
O992 O 0.3456 0.14369 0.69229 0.0
O993 O 0.37592 0.17005 0.67937 0.0
C994 C 0.36821 0.15414 0.68911 0.0
O995 O 0.36337 0.2074 0.67478 0.0
O996 O 0.29725 0.13167 0.70347 0.0
O997 O 0.30521 0.16877 0.70767 0.0
O998 O 0.35526 0.19301 0.69741 0.0
C999 C 0.36647 0.21096 0.68932 0.0
O1000 O 0.31719 0.17059 0.65291 0.0
O1001 O 0.30766 0.17932 0.67553 0.0
O1002 O 0.29698 0.13056 0.67073 0.0
O1003 O 0.37095 0.19761 0.64482 0.0
O1004 O 0.37182 0.16415 0.64473 0.0
O1005 O 0.32746 0.1318 0.65814 0.0
C1006 C 0.30094 0.1468 0.7282 0.0
C1007 C 0.32503 0.15666 0.73439 0.0
C1008 C 0.28703 0.13528 0.75223 0.0
C1009 C 0.33011 0.15594 0.74946 0.0
C1010 C 0.28198 0.13605 0.73715 0.0
C1011 C 0.31117 0.14527 0.75856 0.0
C1012 C 0.29546 0.14735 0.71239 0.0
C1013 C 0.30507 0.1778 0.66097 0.0
H1014 H 0.3327 0.16137 0.62233 0.0
H1015 H 0.40055 0.19344 0.59062 0.0
H1016 H 0.32368 0.15724 0.59535 0.0
H1017 H 0.40934 0.19712 0.61758 0.0
H1018 H 0.33987 0.16497 0.72756 0.0
H1019 H 0.27203 0.12666 0.7589 0.0
H1020 H 0.3489 0.16409 0.75402 0.0
H1021 H 0.26327 0.12821 0.73248 0.0
Eu1022 Eu 0.84862 0.16644 0.69253 0.0
Eu1023 Eu 0.82505 0.17449 0.66125 0.0
C1024 C 0.85732 0.21823 0.6858 0.0
C1025 C 0.8555 0.15396 0.73241 0.0
C1026 C 0.83626 0.15732 0.73614 0.0
C1027 C 0.85875 0.14237 0.75704 0.0
C1028 C 0.82861 0.1537 0.75032 0.0
C1029 C 0.86645 0.14612 0.74285 0.0
C1030 C 0.84001 0.14652 0.76104 0.0
C1031 C 0.86492 0.15975 0.71794 0.0
O1032 O 0.86381 0.18611 0.65769 0.0
O1033 O 0.87415 0.16811 0.67587 0.0
C1034 C 0.87832 0.17907 0.66366 0.0
O1035 O 0.81986 0.12996 0.68141 0.0
O1036 O 0.82543 0.19852 0.64508 0.0
O1037 O 0.79816 0.16044 0.64185 0.0
O1038 O 0.82503 0.13944 0.65763 0.0
C1039 C 0.81793 0.12335 0.66723 0.0
O1040 O 0.81621 0.16918 0.6985 0.0
O1041 O 0.79418 0.15817 0.67562 0.0
O1042 O 0.83679 0.20746 0.67719 0.0
O1043 O 0.8539 0.14277 0.70694 0.0
O1044 O 0.86955 0.18086 0.71415 0.0
O1045 O 0.86798 0.20632 0.6902 0.0
C1046 C 0.81392 0.18 0.62067 0.0
C1047 C 0.8304 0.17244 0.61713 0.0
C1048 C 0.80971 0.18739 0.59506 0.0
C1049 C 0.83653 0.17236 0.60262 0.0
C1050 C 0.80362 0.18748 0.60959 0.0
C1051 C 0.82629 0.17988 0.59141 0.0
C1052 C 0.8082 0.18099 0.63602 0.0
C1053 C 0.79562 0.16131 0.69017 0.0
H1054 H 0.82759 0.16339 0.7282 0.0
H1055 H 0.86766 0.13645 0.76492 0.0
H1056 H 0.81436 0.15738 0.75303 0.0
H1057 H 0.88126 0.14333 0.74012 0.0
H1058 H 0.83857 0.16666 0.6256 0.0
H1059 H 0.80172 0.19355 0.58673 0.0
H1060 H 0.84908 0.16614 0.60016 0.0
H1061 H 0.79101 0.19356 0.61219 0.0
H1062 H 0.34425 0.90251 0.08032 0.0
H1063 H 0.31144 0.8542 0.04002 0.0
H1064 H 0.38015 0.92771 0.06813 0.0
H1065 H 0.3471 0.87975 0.0276 0.0
H1066 H 0.42545 0.9179 0.01497 0.0
H1067 H 0.38891 0.89198 0.02657 0.0
H1068 H 0.39379 0.95538 0.05004 0.0
H1069 H 0.43058 0.98104 0.03892 0.0
C1070 C 0.34462 0.89746 0.06878 0.0
C1071 C 0.32504 0.87642 0.06112 0.0
C1072 C 0.36517 0.91194 0.06176 0.0
C1073 C 0.36655 0.90587 0.04683 0.0
C1074 C 0.34687 0.88481 0.03916 0.0
C1075 C 0.32639 0.8702 0.04625 0.0
C1076 C 0.41863 0.92626 0.02256 0.0
C1077 C 0.43102 0.95151 0.02608 0.0
C1078 C 0.39761 0.91142 0.02918 0.0
C1079 C 0.38844 0.92154 0.03936 0.0
C1080 C 0.40058 0.94686 0.04255 0.0
C1081 C 0.42164 0.96162 0.03607 0.0
H1082 H 0.15006 0.45904 0.04389 0.0
H1083 H 0.1109 0.44116 0.08262 0.0
H1084 H 0.12019 0.46762 0.03202 0.0
H1085 H 0.08123 0.4502 0.0709 0.0
H1086 H 0.01979 0.44622 0.0398 0.0
H1087 H 0.04883 0.43631 0.05146 0.0
H1088 H 0.10725 0.49673 0.0335 0.0
H1089 H 0.07822 0.50614 0.0215 0.0
C1090 C 0.13515 0.45714 0.04991 0.0
C1091 C 0.13287 0.44947 0.0642 0.0
C1092 C 0.11804 0.46212 0.04313 0.0
C1093 C 0.0983 0.45972 0.05051 0.0
C1094 C 0.09596 0.4519 0.06479 0.0
C1095 C 0.113 0.44676 0.07153 0.0
C1096 C 0.03883 0.45738 0.03833 0.0
C1097 C 0.04663 0.47691 0.02965 0.0
C1098 C 0.05552 0.45177 0.04509 0.0
C1099 C 0.08043 0.46565 0.0434 0.0
C1100 C 0.08819 0.48533 0.03482 0.0
C1101 C 0.07152 0.49083 0.02801 0.0
H1102 H 0.56952 0.7009 0.03121 0.0
H1103 H 0.60418 0.69071 0.07034 0.0
H1104 H 0.55237 0.65834 0.02233 0.0
H1105 H 0.58791 0.64834 0.06112 0.0
H1106 H 0.52951 0.56842 0.0488 0.0
H1107 H 0.54876 0.61134 0.0575 0.0
H1108 H 0.56339 0.62946 0.01276 0.0
H1109 H 0.54364 0.5866 1.004 0.0
C1110 C 0.5736 0.6896 0.03787 0.0
C1111 C 0.5881 0.69915 0.05152 0.0
C1112 C 0.56399 0.66526 0.0327 0.0
C1113 C 0.56872 0.64993 0.04104 0.0
C1114 C 0.58367 0.65961 0.05453 0.0
C1115 C 0.59326 0.68396 0.05972 0.0
C1116 C 0.53686 0.58156 0.04083 0.0
C1117 C 0.53493 0.57408 0.0257 0.0
C1118 C 0.54804 0.60617 0.04583 0.0
C1119 C 0.55759 0.62382 0.03582 0.0
C1120 C 0.5559 0.61632 0.02072 0.0
C1121 C 0.54466 0.59173 0.01572 0.0
H1122 H 0.84414 0.31667 0.94813 0.0
H1123 H 0.8954 0.29549 0.96429 0.0
H1124 H 0.87244 0.35842 0.95811 0.0
H1125 H 0.92388 0.33742 0.97399 0.0
H1126 H 0.97703 0.4198 0.97653 0.0
H1127 H 0.94933 0.37848 0.96518 0.0
H1128 H 0.88933 0.38084 0.98322 0.0
H1129 H 0.91678 0.42198 0.99447 0.0
C1130 C 0.86136 0.32086 0.95389 0.0
C1131 C 0.86739 0.30264 0.95548 0.0
C1132 C 0.87761 0.34481 0.95954 0.0
C1133 C 0.90036 0.35117 0.96683 0.0
C1134 C 0.9066 0.3331 0.96825 0.0
C1135 C 0.89026 0.30908 0.96269 0.0
C1136 C 0.95791 0.41154 0.978 0.0
C1137 C 0.94913 0.42417 0.98643 0.0
C1138 C 0.9421 0.38785 0.97157 0.0
C1139 C 0.91719 0.37645 0.97333 0.0
C1140 C 0.90839 0.38924 0.98156 0.0
C1141 C 0.92418 0.41278 0.98807 0.0
H1142 H 0.67637 0.5788 0.95464 0.0
H1143 H 0.6572 0.50346 0.9532 0.0
H1144 H 0.63998 0.56942 0.9667 0.0
H1145 H 0.62187 0.49479 0.96616 0.0
H1146 H 0.58022 0.50277 1.00613 0.0
H1147 H 0.61638 0.51184 0.99359 0.0
H1148 H 0.59105 0.53853 0.95817 0.0
H1149 H 0.55465 0.52896 0.97045 0.0
C1150 C 0.6645 0.56025 0.95678 0.0
C1151 C 0.67 0.54195 0.95285 0.0
C1152 C 0.64374 0.55498 0.96382 0.0
C1153 C 0.62829 0.53144 0.96741 0.0
C1154 C 0.63371 0.51316 0.96365 0.0
C1155 C 0.65412 0.51826 0.95631 0.0
C1156 C 0.58238 0.51054 0.99566 0.0
C1157 C 0.56456 0.51504 0.98922 0.0
C1158 C 0.60298 0.51563 0.98849 0.0
C1159 C 0.60643 0.52589 0.97496 0.0
C1160 C 0.58881 0.5307 0.96862 0.0
C1161 C 0.56794 0.52507 0.9756 0.0
H1162 H 0.45994 0.14599 0.97504 0.0
H1163 H 0.38908 0.0813 0.9682 0.0
H1164 H 0.47652 0.12348 0.9865 0.0
H1165 H 0.40637 0.05813 0.97778 0.0
H1166 H 0.43747 0.02224 1.00494 0.0
H1167 H 0.42093 0.04761 0.99755 0.0
H1168 H 0.48962 0.09691 0.98177 0.0
H1169 H 0.50645 0.07244 0.99056 0.0
C1170 C 0.44777 0.12698 0.97596 0.0
C1171 C 0.42301 0.11564 0.97061 0.0
C1172 C 0.4575 0.11384 0.98228 0.0
C1173 C 0.443 0.08876 0.98301 0.0
C1174 C 0.41822 0.07744 0.97772 0.0
C1175 C 0.40831 0.09073 0.97184 0.0
C1176 C 0.44897 0.03873 1.00006 0.0
C1177 C 0.47312 0.04558 0.9983 0.0
C1178 C 0.43948 0.05319 0.99564 0.0
C1179 C 0.45372 0.07435 0.98883 0.0
C1180 C 0.4781 0.08114 0.98721 0.0
C1181 C 0.48779 0.06706 0.99212 0.0
H1182 H 0.68527 0.13496 0.97824 0.0
H1183 H 0.65614 0.07863 0.94162 0.0
H1184 H 0.648 0.11279 0.99002 0.0
H1185 H 0.61889 0.05655 0.95337 0.0
H1186 H 0.54634 0.03798 0.9699 0.0
H1187 H 0.58412 0.06069 0.95895 0.0
H1188 H 0.62453 0.07553 1.00188 0.0
H1189 H 0.58655 0.05302 0.01298 0.0
C1190 C 0.67103 0.11772 0.97278 0.0
C1191 C 0.67368 0.10862 0.95896 0.0
C1192 C 0.64966 0.10503 0.97953 0.0
C1193 C 0.63042 0.08297 0.9726 0.0
C1194 C 0.63319 0.07372 0.95887 0.0
C1195 C 0.65455 0.08638 0.95214 0.0
C1196 C 0.56323 0.04614 0.97707 0.0
C1197 C 0.56336 0.04361 0.99235 0.0
C1198 C 0.58493 0.05903 0.97074 0.0
C1199 C 0.60737 0.06976 0.97951 0.0
C1200 C 0.60754 0.06762 0.99484 0.0
C1201 C 0.58577 0.05465 1.00119 0.0
H1202 H 0.83788 0.50315 0.95186 0.0
H1203 H 0.89491 0.57757 0.95279 0.0
H1204 H 0.8667 0.49318 0.96418 0.0
H1205 H 0.92392 0.56744 0.96474 0.0
H1206 H 0.96819 0.52518 0.96796 0.0
H1207 H 0.93975 0.53582 0.9559 0.0
H1208 H 0.89405 0.50955 0.99133 0.0
H1209 H 0.92272 0.4995 1.00364 0.0
C1210 C 0.85662 0.5173 0.95465 0.0
C1211 C 0.86426 0.54111 0.95143 0.0
C1212 C 0.87302 0.51163 0.96172 0.0
C1213 C 0.89745 0.52956 0.96535 0.0
C1214 C 0.90517 0.55332 0.96197 0.0
C1215 C 0.88863 0.55911 0.95522 0.0
C1216 C 0.95209 0.52171 0.97317 0.0
C1217 C 0.94768 0.51155 0.98675 0.0
C1218 C 0.93593 0.52789 0.96631 0.0
C1219 C 0.9148 0.52347 0.97272 0.0
C1220 C 0.91022 0.51306 0.98618 0.0
C1221 C 0.92665 0.50741 0.99322 0.0
H1222 H 0.45552 0.317 0.95799 0.0
H1223 H 0.38592 0.29939 0.97258 0.0
H1224 H 0.47268 0.35859 0.96904 0.0
H1225 H 0.40329 0.34109 0.98396 0.0
H1226 H 0.43745 0.42462 0.9845 0.0
H1227 H 0.4194 0.3821 0.97504 0.0
H1228 H 0.48297 0.3815 0.99386 0.0
H1229 H 0.50119 0.42407 1.00321 0.0
C1230 C 0.4439 0.32207 0.96357 0.0
C1231 C 0.41935 0.30505 0.96433 0.0
C1232 C 0.45379 0.34579 0.97003 0.0
C1233 C 0.43932 0.35305 0.97736 0.0
C1234 C 0.4148 0.336 0.97827 0.0
C1235 C 0.40492 0.31215 0.97187 0.0
C1236 C 0.44757 0.41542 0.98665 0.0
C1237 C 0.47082 0.42776 0.99453 0.0
C1238 C 0.43714 0.39103 0.98132 0.0
C1239 C 0.44979 0.37853 0.98371 0.0
C1240 C 0.47291 0.39077 0.99173 0.0
C1241 C 0.4833 0.41513 0.99712 0.0
H1242 H 0.14568 0.66259 0.07529 0.0
H1243 H 0.10966 0.6941 0.05098 0.0
H1244 H 0.11476 0.62237 0.06418 0.0
H1245 H 0.07893 0.65383 0.03972 0.0
H1246 H 0.04771 0.58141 0.01004 0.0
H1247 H 0.07674 0.6217 0.02193 0.0
H1248 H 0.07072 0.59299 0.06431 0.0
H1249 H 0.04175 0.55248 0.05241 0.0
C1250 C 0.13105 0.66094 0.06768 0.0
C1251 C 0.13016 0.6816 0.06404 0.0
C1252 C 0.11334 0.63788 0.06133 0.0
C1253 C 0.0944 0.63495 0.05111 0.0
C1254 C 0.09347 0.65556 0.04744 0.0
C1255 C 0.11112 0.67863 0.05385 0.0
C1256 C 0.05247 0.58365 0.02191 0.0
C1257 C 0.04246 0.56369 0.03027 0.0
C1258 C 0.069 0.60679 0.02872 0.0
C1259 C 0.07603 0.6105 0.04404 0.0
C1260 C 0.06582 0.59062 0.05245 0.0
C1261 C 0.04913 0.56746 0.04565 0.0
H1262 H 0.31935 0.41968 0.05711 0.0
H1263 H 0.34883 0.49479 0.07343 0.0
H1264 H 0.35589 0.43036 0.04477 0.0
H1265 H 0.38542 0.5055 0.06102 0.0
H1266 H 0.43345 0.51491 0.022 0.0
H1267 H 0.39686 0.50511 0.03418 0.0
H1268 H 0.40063 0.44665 0.05331 0.0
H1269 H 0.43712 0.45644 0.04134 0.0
C1270 C 0.33362 0.43848 0.05801 0.0
C1271 C 0.33127 0.45639 0.06626 0.0
C1272 C 0.35457 0.44457 0.05101 0.0
C1273 C 0.3735 0.46877 0.05193 0.0
C1274 C 0.37105 0.48674 0.06005 0.0
C1275 C 0.35024 0.48058 0.06724 0.0
C1276 C 0.42646 0.49997 0.02879 0.0
C1277 C 0.43821 0.48645 0.03066 0.0
C1278 C 0.4056 0.49445 0.03582 0.0
C1279 C 0.39586 0.47507 0.04465 0.0
C1280 C 0.40757 0.46154 0.04646 0.0
C1281 C 0.42857 0.46726 0.03964 0.0
H1282 H 0.54236 0.86637 0.06236 0.0
H1283 H 0.60412 0.90673 0.03813 0.0
H1284 H 0.52271 0.88732 0.05187 0.0
H1285 H 0.58433 0.92764 0.02755 0.0
H1286 H 0.53155 0.94515 1.00194 0.0
H1287 H 0.54878 0.92087 0.0107 0.0
H1288 H 0.52997 0.92897 0.05473 0.0
H1289 H 0.51255 0.95289 0.04603 0.0
C1290 C 0.55179 0.8798 0.05484 0.0
C1291 C 0.57492 0.8851 0.0512 0.0
C1292 C 0.5405 0.89175 0.04881 0.0
C1293 C 0.55205 0.90922 0.03896 0.0
C1294 C 0.57489 0.91407 0.03499 0.0
C1295 C 0.58622 0.90213 0.04106 0.0
C1296 C 0.53092 0.94158 0.01346 0.0
C1297 C 0.5207 0.95098 0.02329 0.0
C1298 C 0.54092 0.92781 0.01848 0.0
C1299 C 0.54073 0.92305 0.03339 0.0
C1300 C 0.53013 0.93209 0.04314 0.0
C1301 C 0.52026 0.94592 0.03816 0.0
H1302 H 0.01707 0.20285 0.4097 0.0
H1303 H 0.97328 0.21668 0.37798 0.0
H1304 H 0.05306 0.22765 0.39718 0.0
H1305 H 0.00929 0.24121 0.3653 0.0
H1306 H 0.07825 0.26136 0.3396 0.0
H1307 H 0.04161 0.23415 0.35103 0.0
H1308 H 0.07555 0.27446 0.39373 0.0
H1309 H 0.11171 0.3018 0.3824 0.0
C1310 C 0.01516 0.21105 0.39998 0.0
C1311 C 0.99249 0.20799 0.39483 0.0
C1312 C 0.0357 0.22524 0.39286 0.0
C1313 C 0.03385 0.23623 0.38028 0.0
C1314 C 0.0111 0.23275 0.37491 0.0
C1315 C 0.99062 0.21894 0.38222 0.0
C1316 C 0.07784 0.26431 0.35142 0.0
C1317 C 0.09777 0.28373 0.36009 0.0
C1318 C 0.05691 0.24886 0.35793 0.0
C1319 C 0.05587 0.25225 0.37324 0.0
C1320 C 0.07597 0.27138 0.38192 0.0
C1321 C 0.09659 0.28708 0.3754 0.0
H1322 H 0.78377 0.74935 0.38639 0.0
H1323 H 0.81864 0.81965 0.4117 0.0
H1324 H 0.75406 0.75808 0.37431 0.0
H1325 H 0.78916 0.82854 0.39942 0.0
H1326 H 0.71571 0.82363 0.38588 0.0
H1327 H 0.74486 0.81455 0.39835 0.0
H1328 H 0.75356 0.78585 0.35637 0.0
H1329 H 0.72437 0.79477 0.34388 0.0
C1330 C 0.78502 0.76663 0.38941 0.0
C1331 C 0.80354 0.78382 0.4 0.0
C1332 C 0.76815 0.77171 0.3824 0.0
C1333 C 0.7693 0.79401 0.3859 0.0
C1334 C 0.7877 0.81113 0.39658 0.0
C1335 C 0.8047 0.80613 0.4035 0.0
C1336 C 0.7238 0.81536 0.3793 0.0
C1337 C 0.71768 0.80992 0.36387 0.0
C1338 C 0.74061 0.81028 0.38645 0.0
C1339 C 0.75149 0.79947 0.37834 0.0
C1340 C 0.74529 0.79395 0.36294 0.0
C1341 C 0.72865 0.7992 0.35578 0.0
H1342 H 0.24661 0.04434 0.36163 0.0
H1343 H 0.27348 0.03184 0.40306 0.0
H1344 H 0.22931 0.00169 0.35265 0.0
H1345 H 0.25596 0.98919 0.3942 0.0
H1346 H 0.23922 0.91819 0.3689 0.0
H1347 H 0.25922 0.96151 0.37651 0.0
H1348 H 0.19616 0.9631 0.35767 0.0
H1349 H 0.1764 0.91993 0.34972 0.0
C1350 C 0.24882 0.03246 0.3688 0.0
C1351 C 0.26136 0.04139 0.38304 0.0
C1352 C 0.23886 0.00803 0.36368 0.0
C1353 C 0.24112 0.99201 0.37274 0.0
C1354 C 0.25417 0.0011 0.38686 0.0
C1355 C 0.26421 0.02554 0.39194 0.0
C1356 C 0.22962 0.92778 0.36636 0.0
C1357 C 0.2062 0.9156 0.35872 0.0
C1358 C 0.24106 0.9526 0.37078 0.0
C1359 C 0.2293 0.96577 0.36769 0.0
C1360 C 0.20589 0.95357 0.36001 0.0
C1361 C 0.19448 0.92878 0.35555 0.0
H1362 H 0.55755 0.64281 0.27176 0.0
H1363 H 0.51499 0.6347 0.30847 0.0
H1364 H 0.58763 0.68363 0.28256 0.0
H1365 H 0.54452 0.6758 0.31894 0.0
H1366 H 0.61468 0.73889 0.34186 0.0
H1367 H 0.58583 0.6981 0.33076 0.0
H1368 H 0.59241 0.72391 0.28743 0.0
H1369 H 0.62179 0.76482 0.29851 0.0
C1370 C 0.55463 0.64972 0.28214 0.0
C1371 C 0.53391 0.63549 0.28928 0.0
C1372 C 0.57172 0.67321 0.28824 0.0
C1373 C 0.56847 0.68295 0.30161 0.0
C1374 C 0.54771 0.66873 0.30871 0.0
C1375 C 0.53064 0.64527 0.30263 0.0
C1376 C 0.61006 0.73592 0.32995 0.0
C1377 C 0.62051 0.75515 0.32107 0.0
C1378 C 0.59339 0.71253 0.32361 0.0
C1379 C 0.5867 0.70778 0.30823 0.0
C1380 C 0.59736 0.72694 0.2993 0.0
C1381 C 0.61411 0.7504 0.30566 0.0
H1382 H 0.33245 0.90146 0.27538 0.0
H1383 H 0.34496 0.85438 0.30234 0.0
H1384 H 0.29761 0.89391 0.28835 0.0
H1385 H 0.30888 0.84517 0.31442 0.0
H1386 H 0.25596 0.8509 0.34364 0.0
H1387 H 0.29213 0.85974 0.3315 0.0
H1388 H 0.25762 0.86514 0.29052 0.0
H1389 H 0.22218 0.85759 0.3029 0.0
C1390 C 0.32783 0.88948 0.28406 0.0
C1391 C 0.34171 0.87858 0.28774 0.0
C1392 C 0.30748 0.88478 0.29137 0.0
C1393 C 0.30013 0.86873 0.30243 0.0
C1394 C 0.31401 0.85785 0.30612 0.0
C1395 C 0.33458 0.86283 0.29896 0.0
C1396 C 0.25616 0.85397 0.33204 0.0
C1397 C 0.23627 0.85369 0.32427 0.0
C1398 C 0.27687 0.85892 0.32502 0.0
C1399 C 0.27802 0.8633 0.30998 0.0
C1400 C 0.25781 0.8625 0.30218 0.0
C1401 C 0.23733 0.85797 0.30926 0.0
H1402 H 0.05691 0.4262 0.30718 0.0
H1403 H 0.12945 0.47602 0.29688 0.0
H1404 H 0.07167 0.40123 0.31802 0.0
H1405 H 0.14417 0.4513 0.30797 0.0
H1406 H 0.16534 0.41235 0.3415 0.0
H1407 H 0.14997 0.43808 0.3326 0.0
H1408 H 0.08815 0.37536 0.30847 0.0
H1409 H 0.1033 0.34963 0.31737 0.0
C1410 C 0.07596 0.4318 0.30719 0.0
C1411 C 0.09197 0.4531 0.30113 0.0
C1412 C 0.08441 0.41754 0.31344 0.0
C1413 C 0.10907 0.42435 0.31385 0.0
C1414 C 0.12514 0.4458 0.30801 0.0
C1415 C 0.11668 0.45997 0.30167 0.0
C1416 C 0.1484 0.40403 0.33437 0.0
C1417 C 0.13559 0.37895 0.33011 0.0
C1418 C 0.13968 0.41879 0.32923 0.0
C1419 C 0.11788 0.40871 0.31984 0.0
C1420 C 0.10487 0.38359 0.31581 0.0
C1421 C 0.11366 0.36889 0.32085 0.0
H1422 H 0.35062 0.42937 0.30597 0.0
H1423 H 0.31725 0.46131 0.27964 0.0
H1424 H 0.31359 0.40793 0.3181 0.0
H1425 H 0.2803 0.43995 0.29177 0.0
H1426 H 0.21007 0.37545 0.30348 0.0
H1427 H 0.24756 0.39878 0.29237 0.0
H1428 H 0.28863 0.41446 0.33517 0.0
H1429 H 0.25098 0.3906 0.34632 0.0
C1430 C 0.33546 0.43198 0.30287 0.0
C1431 C 0.33683 0.44694 0.29178 0.0
C1432 C 0.31426 0.41974 0.30984 0.0
C1433 C 0.29397 0.4222 0.30589 0.0
C1434 C 0.29546 0.43735 0.2949 0.0
C1435 C 0.31662 0.44956 0.28793 0.0
C1436 C 0.22705 0.38395 0.31058 0.0
C1437 C 0.22749 0.38111 0.32581 0.0
C1438 C 0.24857 0.39746 0.3042 0.0
C1439 C 0.2711 0.40849 0.31288 0.0
C1440 C 0.27158 0.40594 0.32815 0.0
C1441 C 0.24999 0.39241 0.33456 0.0
H1442 H 0.55462 0.87888 0.2669 0.0
H1443 H 0.51689 0.86434 0.30628 0.0
H1444 H 0.58305 0.8682 0.27843 0.0
H1445 H 0.54618 0.85512 0.31813 0.0
H1446 H 0.58645 0.81527 0.32956 0.0
H1447 H 0.55777 0.82508 0.31746 0.0
H1448 H 0.61607 0.88214 0.29725 0.0
H1449 H 0.64466 0.87176 0.30897 0.0
C1450 C 0.55236 0.87341 0.27802 0.0
C1451 C 0.53335 0.87242 0.28562 0.0
C1452 C 0.56891 0.8676 0.28472 0.0
C1453 C 0.56699 0.86079 0.29924 0.0
C1454 C 0.54807 0.85995 0.30687 0.0
C1455 C 0.53144 0.8656 0.30013 0.0
C1456 C 0.59318 0.82991 0.32252 0.0
C1457 C 0.61789 0.84274 0.32026 0.0
C1458 C 0.57672 0.83565 0.31564 0.0
C1459 C 0.58455 0.8545 0.3064 0.0
C1460 C 0.60929 0.86729 0.30411 0.0
C1461 C 0.62574 0.86143 0.31091 0.0
H1462 H 0.06362 0.63878 0.31185 0.0
H1463 H 0.12572 0.66005 0.28713 0.0
H1464 H 0.08117 0.68068 0.32278 0.0
H1465 H 0.14301 0.70175 0.2979 0.0
H1466 H 0.15053 0.77652 0.30558 0.0
H1467 H 0.13298 0.73429 0.29588 0.0
H1468 H 0.11673 0.71248 0.33979 0.0
H1469 H 0.13413 0.75488 0.34957 0.0
C1470 C 0.08108 0.65233 0.30885 0.0
C1471 C 0.09315 0.64615 0.2985 0.0
C1472 C 0.09111 0.67629 0.3151 0.0
C1473 C 0.11334 0.69449 0.31108 0.0
C1474 C 0.12561 0.68819 0.30098 0.0
C1475 C 0.11567 0.66431 0.29479 0.0
C1476 C 0.14323 0.76277 0.3132 0.0
C1477 C 0.14378 0.76908 0.32836 0.0
C1478 C 0.13329 0.73857 0.30764 0.0
C1479 C 0.12359 0.72011 0.31709 0.0
C1480 C 0.12393 0.72634 0.33224 0.0
C1481 C 0.13401 0.75061 0.33784 0.0
H1482 H 0.76851 0.01362 0.40642 0.0
H1483 H 0.82388 0.01393 0.38129 0.0
H1484 H 0.7393 0.97309 0.39473 0.0
H1485 H 0.79535 0.9729 0.3702 0.0
H1486 H 0.73438 0.90827 0.34241 0.0
H1487 H 0.76178 0.94957 0.35327 0.0
H1488 H 0.72796 0.93239 0.3941 0.0
H1489 H 0.69958 0.89141 0.38279 0.0
C1490 C 0.77439 0.00482 0.39845 0.0
C1491 C 0.79831 0.01678 0.39467 0.0
C1492 C 0.75776 0.98153 0.39183 0.0
C1493 C 0.76486 0.96952 0.3815 0.0
C1494 C 0.78896 0.98164 0.37783 0.0
C1495 C 0.80541 0.00511 0.38423 0.0
C1496 C 0.73281 0.91338 0.35371 0.0
C1497 C 0.71491 0.89666 0.36178 0.0
C1498 C 0.74864 0.93705 0.35999 0.0
C1499 C 0.74733 0.94445 0.37465 0.0
C1500 C 0.72932 0.92759 0.38271 0.0
C1501 C 0.71312 0.90402 0.37629 0.0
H1502 H 0.02318 0.82474 0.41464 0.0
H1503 H 0.98606 0.75905 0.38462 0.0
H1504 H 0.06007 0.83723 0.4025 0.0
H1505 H 0.02291 0.7716 0.37245 0.0
H1506 H 0.08551 0.81325 0.34461 0.0
H1507 H 0.04873 0.80184 0.35669 0.0
H1508 H 0.09121 0.82627 0.39944 0.0
H1509 H 0.12799 0.83809 0.3874 0.0
C1510 C 0.02294 0.81284 0.40555 0.0
C1511 C 0.00161 0.79088 0.40062 0.0
C1512 C 0.04409 0.82003 0.39856 0.0
C1513 C 0.04446 0.80546 0.38646 0.0
C1514 C 0.02316 0.78346 0.38156 0.0
C1515 C 0.00202 0.77626 0.38856 0.0
C1516 C 0.08705 0.81632 0.35658 0.0
C1517 C 0.10977 0.82659 0.36501 0.0
C1518 C 0.06592 0.80961 0.36351 0.0
C1519 C 0.06699 0.81305 0.37904 0.0
C1520 C 0.08974 0.82359 0.38745 0.0
C1521 C 0.11085 0.83026 0.38053 0.0
H1522 H 0.2133 0.20644 0.39674 0.0
H1523 H 0.27546 0.2491 0.37331 0.0
H1524 H 0.19283 0.22657 0.38618 0.0
H1525 H 0.25481 0.26914 0.36265 0.0
H1526 H 0.20042 0.28386 0.33623 0.0
H1527 H 0.2191 0.26103 0.34534 0.0
H1528 H 0.19842 0.26766 0.38903 0.0
H1529 H 0.17957 0.29014 0.37997 0.0
C1530 C 0.22266 0.22023 0.3894 0.0
C1531 C 0.24612 0.22636 0.38599 0.0
C1532 C 0.2109 0.2317 0.38333 0.0
C1533 C 0.22226 0.24951 0.37365 0.0
C1534 C 0.24549 0.25529 0.36995 0.0
C1535 C 0.25732 0.24384 0.37607 0.0
C1536 C 0.1997 0.28028 0.34775 0.0
C1537 C 0.18852 0.28883 0.35738 0.0
C1538 C 0.21054 0.26735 0.35298 0.0
C1539 C 0.21024 0.26259 0.36789 0.0
C1540 C 0.1987 0.27081 0.37743 0.0
C1541 C 0.18801 0.28381 0.37225 0.0
H1542 H 0.67498 0.57802 0.74444 0.0
H1543 H 0.64725 0.52183 0.7078 0.0
H1544 H 0.71134 0.60183 0.73222 0.0
H1545 H 0.68405 0.54526 0.69583 0.0
H1546 H 0.74298 0.60618 0.6723 0.0
H1547 H 0.70559 0.5823 0.68369 0.0
H1548 H 0.74718 0.6001 0.72649 0.0
H1549 H 0.78435 0.62423 0.71524 0.0
C1550 C 0.67658 0.57081 0.73374 0.0
C1551 C 0.65823 0.548 0.72712 0.0
C1552 C 0.69755 0.58432 0.72682 0.0
C1553 C 0.70068 0.57537 0.7131 0.0
C1554 C 0.68215 0.55275 0.70635 0.0
C1555 C 0.66118 0.53921 0.71329 0.0
C1556 C 0.74415 0.60489 0.68412 0.0
C1557 C 0.76668 0.61717 0.69284 0.0
C1558 C 0.72272 0.59115 0.69064 0.0
C1559 C 0.72339 0.58944 0.70602 0.0
C1560 C 0.74597 0.60139 0.71466 0.0
C1561 C 0.76733 0.61509 0.70817 0.0
H1562 H 0.44309 0.08215 0.72425 0.0
H1563 H 0.49131 0.15804 0.73888 0.0
H1564 H 0.41401 0.09192 0.71249 0.0
H1565 H 0.46244 0.16775 0.72678 0.0
H1566 H 0.41742 0.1767 0.6885 0.0
H1567 H 0.44586 0.16674 0.70091 0.0
H1568 H 0.38672 0.10805 0.71948 0.0
H1569 H 0.35812 0.11793 0.70703 0.0
C1570 C 0.44745 0.10089 0.72509 0.0
C1571 C 0.46964 0.1193 0.73253 0.0
C1572 C 0.43077 0.10647 0.7183 0.0
C1573 C 0.43597 0.1306 0.71868 0.0
C1574 C 0.45808 0.14901 0.72613 0.0
C1575 C 0.47466 0.14342 0.73302 0.0
C1576 C 0.41042 0.16165 0.69522 0.0
C1577 C 0.38546 0.14809 0.69674 0.0
C1578 C 0.42677 0.15605 0.7024 0.0
C1579 C 0.41853 0.13662 0.71118 0.0
C1580 C 0.39357 0.12299 0.71268 0.0
C1581 C 0.37722 0.12874 0.70561 0.0
H1582 H 0.94876 0.36548 0.72765 0.0
H1583 H 0.88751 0.36561 0.70444 0.0
H1584 H 0.93344 0.32413 0.71719 0.0
H1585 H 0.87089 0.32352 0.69529 0.0
H1586 H 0.85412 0.25268 0.67117 0.0
H1587 H 0.87322 0.29581 0.67911 0.0
H1588 H 0.90388 0.28503 0.71986 0.0
H1589 H 0.8861 0.2423 0.71135 0.0
C1590 C 0.93206 0.35679 0.72029 0.0
C1591 C 0.91936 0.36902 0.71701 0.0
C1592 C 0.92299 0.3328 0.71449 0.0
C1593 C 0.9007 0.32019 0.70551 0.0
C1594 C 0.88823 0.33257 0.70202 0.0
C1595 C 0.89758 0.35671 0.70753 0.0
C1596 C 0.86504 0.25966 0.6818 0.0
C1597 C 0.86866 0.24425 0.69067 0.0
C1598 C 0.8759 0.28436 0.68642 0.0
C1599 C 0.89011 0.29408 0.70019 0.0
C1600 C 0.89358 0.27846 0.70905 0.0
C1601 C 0.88321 0.25388 0.70425 0.0
H1602 H 0.18735 0.97191 0.64422 0.0
H1603 H 0.22547 0.9827 0.60518 0.0
H1604 H 0.2166 0.01318 0.65457 0.0
H1605 H 0.25451 0.02426 0.61535 0.0
H1606 H 0.31533 0.08992 0.64494 0.0
H1607 H 0.28715 0.04832 0.63445 0.0
H1608 H 0.22759 0.05379 0.65079 0.0
H1609 H 0.25572 0.0949 0.66163 0.0
C1610 C 0.20191 0.98321 0.63781 0.0
C1611 C 0.20409 0.97413 0.62388 0.0
C1612 C 0.21864 0.00689 0.6437 0.0
C1613 C 0.23783 0.02214 0.63575 0.0
C1614 C 0.24015 0.01294 0.62186 0.0
C1615 C 0.22349 0.98916 0.61602 0.0
C1616 C 0.2962 0.08223 0.64625 0.0
C1617 C 0.2878 0.09567 0.6542 0.0
C1618 C 0.28003 0.05842 0.64018 0.0
C1619 C 0.2551 0.04762 0.64187 0.0
C1620 C 0.24671 0.06131 0.64956 0.0
C1621 C 0.26286 0.08499 0.6557 0.0
H1622 H 0.00925 0.18572 0.63406 0.0
H1623 H 0.99603 0.23251 0.60723 0.0
H1624 H 0.97309 0.17608 0.64619 0.0
H1625 H 0.96109 0.22448 0.62023 0.0
H1626 H 0.8857 0.18731 0.63482 0.0
H1627 H 0.92119 0.19526 0.6224 0.0
H1628 H 0.95627 0.19057 0.66336 0.0
H1629 H 0.92007 0.18136 0.67557 0.0
C1630 C 0.9987 0.19401 0.63072 0.0
C1631 C 0.00566 0.20983 0.61954 0.0
C1632 C 0.97808 0.18877 0.6379 0.0
C1633 C 0.96398 0.19945 0.63426 0.0
C1634 C 0.97114 0.21552 0.62321 0.0
C1635 C 0.99154 0.22049 0.61589 0.0
C1636 C 0.90097 0.18794 0.64118 0.0
C1637 C 0.90006 0.18374 0.6562 0.0
C1638 C 0.92149 0.19269 0.63407 0.0
C1639 C 0.94187 0.1938 0.64184 0.0
C1640 C 0.94088 0.18952 0.6569 0.0
C1641 C 0.92015 0.18437 0.66396 0.0
H1642 H 0.73489 0.74889 0.61383 0.0
H1643 H 0.76671 0.79948 0.65333 0.0
H1644 H 0.75104 0.72446 0.62371 0.0
H1645 H 0.78376 0.77566 0.6629 0.0
H1646 H 0.79201 0.71498 0.68153 0.0
H1647 H 0.77297 0.73737 0.67242 0.0
H1648 H 0.79042 0.72771 0.62822 0.0
H1649 H 0.80892 0.70486 0.63721 0.0
C1650 C 0.74516 0.7547 0.62467 0.0
C1651 C 0.74959 0.77618 0.63277 0.0
C1652 C 0.75468 0.74087 0.63025 0.0
C1653 C 0.76887 0.74823 0.64403 0.0
C1654 C 0.77279 0.76939 0.65229 0.0
C1655 C 0.76323 0.78319 0.64673 0.0
C1656 C 0.79182 0.71765 0.66987 0.0
C1657 C 0.80199 0.70813 0.6601 0.0
C1658 C 0.78096 0.73056 0.66466 0.0
C1659 C 0.7801 0.73426 0.64958 0.0
C1660 C 0.7904 0.72483 0.63985 0.0
C1661 C 0.80118 0.71188 0.64504 0.0
H1662 H 0.02138 0.77697 0.64479 0.0
H1663 H 0.98339 0.79287 0.61008 0.0
H1664 H 0.98387 0.75576 0.65646 0.0
H1665 H 0.94578 0.77067 0.62148 0.0
H1666 H 0.88221 0.69913 0.63603 0.0
H1667 H 0.91976 0.72522 0.62552 0.0
H1668 H 0.95217 0.76473 0.66861 0.0
H1669 H 0.91419 0.73871 0.6792 0.0
C1670 C 0.00518 0.77621 0.6397 0.0
C1671 C 0.00553 0.78662 0.6264 0.0
C1672 C 0.98369 0.76401 0.6464 0.0
C1673 C 0.96198 0.7616 0.63986 0.0
C1674 C 0.96226 0.77212 0.62668 0.0
C1675 C 0.9838 0.78465 0.62009 0.0
C1676 C 0.89725 0.7135 0.64326 0.0
C1677 C 0.89531 0.71686 0.65845 0.0
C1678 C 0.91869 0.7285 0.63722 0.0
C1679 C 0.93883 0.74693 0.64626 0.0
C1680 C 0.93688 0.75055 0.66143 0.0
C1681 C 0.91517 0.7358 0.66745 0.0
H1682 H 0.17955 0.19282 0.6366 0.0
H1683 H 0.22567 0.22366 0.60181 0.0
H1684 H 0.20941 0.18422 0.64846 0.0
H1685 H 0.25567 0.21526 0.61373 0.0
H1686 H 0.29196 0.17363 0.63116 0.0
H1687 H 0.26227 0.18223 0.61906 0.0
H1688 H 0.24933 0.20457 0.66177 0.0
H1689 H 0.27852 0.19542 0.6739 0.0
C1690 C 0.19618 0.19796 0.63156 0.0
C1691 C 0.20023 0.20895 0.61827 0.0
C1692 C 0.21332 0.19306 0.63836 0.0
C1693 C 0.23501 0.1991 0.63208 0.0
C1694 C 0.23903 0.21004 0.61876 0.0
C1695 C 0.22184 0.21488 0.61193 0.0
C1696 C 0.28282 0.18041 0.63798 0.0
C1697 C 0.2876 0.18375 0.65352 0.0
C1698 C 0.26586 0.18547 0.63102 0.0
C1699 C 0.25333 0.19404 0.63943 0.0
C1700 C 0.25833 0.19761 0.65496 0.0
C1701 C 0.27522 0.1925 0.66191 0.0
H1702 H 0.72824 0.96696 0.64703 0.0
H1703 H 0.79131 0.98725 0.6234 0.0
H1704 H 0.74563 0.00909 0.65747 0.0
H1705 H 0.80847 0.02921 0.63369 0.0
H1706 H 0.81498 0.10386 0.63913 0.0
H1707 H 0.79809 0.06134 0.63032 0.0
H1708 H 0.78071 0.04167 0.67447 0.0
H1709 H 0.79746 0.08434 0.68335 0.0
C1710 C 0.74591 0.98034 0.64421 0.0
C1711 C 0.75827 0.97385 0.63426 0.0
C1712 C 0.75584 0.00443 0.65016 0.0
C1713 C 0.77827 0.02243 0.64625 0.0
C1714 C 0.79092 0.01579 0.63666 0.0
C1715 C 0.78107 0.99178 0.63076 0.0
C1716 C 0.80756 0.09051 0.64698 0.0
C1717 C 0.8076 0.09749 0.66195 0.0
C1718 C 0.79802 0.06616 0.64194 0.0
C1719 C 0.78821 0.04822 0.65173 0.0
C1720 C 0.78803 0.05512 0.66667 0.0
C1721 C 0.79772 0.07955 0.67175 0.0
H1722 H 0.48516 0.3583 0.71155 0.0
H1723 H 0.44183 0.34552 0.74829 0.0
H1724 H 0.45684 0.31748 0.70005 0.0
H1725 H 0.41323 0.30473 0.73669 0.0
H1726 H 0.38164 0.225 0.71892 0.0
H1727 H 0.40977 0.26574 0.73072 0.0
H1728 H 0.41631 0.29366 0.68802 0.0
H1729 H 0.38881 0.25297 0.6762 0.0
C1730 C 0.46942 0.34684 0.71708 0.0
C1731 C 0.46569 0.35513 0.7308 0.0
C1732 C 0.45316 0.32344 0.71049 0.0
C1733 C 0.43271 0.30782 0.71742 0.0
C1734 C 0.42898 0.31615 0.73116 0.0
C1735 C 0.44532 0.33953 0.73779 0.0
C1736 C 0.38907 0.23984 0.71206 0.0
C1737 C 0.38304 0.2357 0.69661 0.0
C1738 C 0.4051 0.26322 0.71883 0.0
C1739 C 0.41537 0.28298 0.71031 0.0
C1740 C 0.40909 0.27882 0.69489 0.0
C1741 C 0.39319 0.25547 0.68812 0.0
H1742 H 0.68727 0.1552 0.74688 0.0
H1743 H 0.64987 0.08843 0.71782 0.0
H1744 H 0.72399 0.16709 0.73467 0.0
H1745 H 0.68658 0.1004 0.70557 0.0
H1746 H 0.79182 0.16767 0.71978 0.0
H1747 H 0.75517 0.15611 0.73192 0.0
H1748 H 0.71219 0.12989 0.68935 0.0
H1749 H 0.74883 0.141 0.67718 0.0
C1750 C 0.68693 0.14293 0.73799 0.0
C1751 C 0.66556 0.12084 0.73335 0.0
C1752 C 0.708 0.14978 0.73096 0.0
C1753 C 0.70825 0.13473 0.71911 0.0
C1754 C 0.68692 0.11261 0.7145 0.0
C1755 C 0.66586 0.10574 0.72153 0.0
C1756 C 0.77459 0.15945 0.71297 0.0
C1757 C 0.77334 0.15522 0.69748 0.0
C1758 C 0.75355 0.15296 0.71995 0.0
C1759 C 0.7307 0.14202 0.71163 0.0
C1760 C 0.72945 0.13798 0.69612 0.0
C1761 C 0.75051 0.14452 0.68913 0.0
H1762 H 0.92543 0.58613 0.73923 0.0
H1763 H 0.90177 0.53677 0.69923 0.0
H1764 H 0.90717 0.60786 0.7282 0.0
H1765 H 0.88458 0.55936 0.68788 0.0
H1766 H 0.83307 0.58996 0.67953 0.0
H1767 H 0.85133 0.56732 0.68958 0.0
H1768 H 0.9134 0.63441 0.7094 0.0
H1769 H 0.89496 0.65684 0.69979 0.0
C1770 C 0.91636 0.57993 0.72807 0.0
C1771 C 0.91503 0.55968 0.72013 0.0
C1772 C 0.90616 0.59259 0.72166 0.0
C1773 C 0.89451 0.58542 0.70712 0.0
C1774 C 0.89323 0.56522 0.69914 0.0
C1775 C 0.90337 0.55248 0.70558 0.0
C1776 C 0.85066 0.59983 0.68598 0.0
C1777 C 0.86246 0.62515 0.68897 0.0
C1778 C 0.86118 0.58689 0.69168 0.0
C1779 C 0.88374 0.59905 0.7004 0.0
C1780 C 0.89577 0.62443 0.70301 0.0
C1781 C 0.88523 0.6373 0.69742 0.0
H1782 H 0.50328 0.9481 0.17931 0.0
H1783 H 0.44127 0.95861 0.17817 0.0
H1784 H 0.51272 0.96461 0.15557 0.0
H1785 H 0.4509 0.97536 0.15441 0.0
H1786 H 0.49084 0.02614 0.11909 0.0
H1787 H 0.48166 0.01064 0.14324 0.0
H1788 H 0.49592 0.95334 0.12956 0.0
H1789 H 0.50573 0.9692 0.10564 0.0
C1790 C 0.49153 0.95375 0.17395 0.0
C1791 C 0.47139 0.95183 0.18064 0.0
C1792 C 0.49698 0.96326 0.16033 0.0
C1793 C 0.4825 0.9712 0.15304 0.0
C1794 C 0.46258 0.96965 0.1598 0.0
C1795 C 0.45707 0.96005 0.17344 0.0
C1796 C 0.4922 0.01035 0.1213 0.0
C1797 C 0.49904 -0.00107 0.11043 0.0
C1798 C 0.4867 0.00132 0.13508 0.0
C1799 C 0.48807 0.98076 0.13835 0.0
C1800 C 0.49493 0.96937 0.12748 0.0
C1801 C 0.5003 0.97831 0.1137 0.0
H1802 H 0.00841 0.46214 0.18427 0.0
H1803 H 0.00388 0.52748 0.18527 0.0
H1804 H 0.99538 0.45385 0.15766 0.0
H1805 H 0.99166 0.51964 0.15869 0.0
H1806 H 0.94893 0.48789 0.11376 0.0
H1807 H 0.95795 0.4919 0.14056 0.0
H1808 H 0.01213 0.47106 0.13477 0.0
H1809 H 0.00246 0.46616 0.10792 0.0
C1810 C 0.00447 0.47462 0.17882 0.0
C1811 C 0.00726 0.49551 0.18684 0.0
C1812 C 0.99725 0.47001 0.16357 0.0
C1813 C 0.99255 0.48612 0.15607 0.0
C1814 C 0.9949 0.50674 0.16416 0.0
C1815 C 0.00217 0.51138 0.17936 0.0
C1816 C 0.9625 0.48378 0.1182 0.0
C1817 C 0.97501 0.47674 0.1087 0.0
C1818 C 0.96785 0.48634 0.13356 0.0
C1819 C 0.98584 0.48192 0.13979 0.0
C1820 C 0.99802 0.47441 0.13031 0.0
C1821 C 0.99269 0.47188 0.11493 0.0
H1822 H 0.48819 0.47074 0.18842 0.0
H1823 H 0.44345 0.50003 0.17314 0.0
H1824 H 0.49883 0.46835 0.16326 0.0
H1825 H 0.454 0.49755 0.14802 0.0
H1826 H 0.46155 0.46994 0.10228 0.0
H1827 H 0.44888 0.46882 0.12715 0.0
H1828 H 0.5229 0.49683 0.14593 0.0
H1829 H 0.5356 0.49806 0.12107 0.0
C1830 C 0.48061 0.47664 0.17969 0.0
C1831 C 0.46501 0.48563 0.1828 0.0
C1832 C 0.48672 0.4753 0.16529 0.0
C1833 C 0.47735 0.48286 0.15366 0.0
C1834 C 0.46128 0.49128 0.15669 0.0
C1835 C 0.4552 0.49266 0.17109 0.0
C1836 C 0.47515 0.47601 0.11171 0.0
C1837 C 0.49961 0.48418 0.10968 0.0
C1838 C 0.46788 0.47532 0.12596 0.0
C1839 C 0.48488 0.48273 0.13851 0.0
C1840 C 0.50928 0.49064 0.13649 0.0
C1841 C 0.51657 0.49136 0.12224 0.0
H1842 H 0.00602 0.54025 0.8358 0.0
H1843 H 0.00191 0.47076 0.82883 0.0
H1844 H 0.01455 0.54103 0.86244 0.0
H1845 H 0.01117 0.47189 0.85543 0.0
H1846 H 0.99727 0.46938 0.90471 0.0
H1847 H 0.99059 0.46894 0.87791 0.0
H1848 H 0.04615 0.54438 0.88085 0.0
H1849 H 0.05228 0.54503 0.90767 0.0
C1850 C 0.00708 0.52521 0.83996 0.0
C1851 C 0.00325 0.50543 0.83022 0.0
C1852 C 0.01218 0.52576 0.8552 0.0
C1853 C 0.01347 0.50649 0.86103 0.0
C1854 C 0.01003 0.48688 0.85127 0.0
C1855 C 0.00502 0.48638 0.83603 0.0
C1856 C 0.00795 0.48589 0.89963 0.0
C1857 C 0.02528 0.50723 0.9083 0.0
C1858 C 0.00432 0.48557 0.88427 0.0
C1859 C 0.01787 0.50663 0.87728 0.0
C1860 C 0.03529 0.52793 0.88594 0.0
C1861 C 0.03897 0.52822 0.90128 0.0
H1862 H 0.51532 0.52195 0.83183 0.0
H1863 H 0.56345 0.49828 0.84978 0.0
H1864 H 0.50524 0.5274 0.85678 0.0
H1865 H 0.55387 0.50417 0.8747 0.0
H1866 H 0.50679 0.48469 0.91276 0.0
H1867 H 0.5193 0.48355 0.88815 0.0
H1868 H 0.51947 0.55 0.88124 0.0
H1869 H 0.50657 0.55095 0.906 0.0
C1870 C 0.52409 0.51838 0.84115 0.0
C1871 C 0.53995 0.50943 0.83886 0.0
C1872 C 0.51835 0.52152 0.85545 0.0
C1873 C 0.52847 0.51589 0.86773 0.0
C1874 C 0.54525 0.50808 0.86545 0.0
C1875 C 0.55084 0.50479 0.85119 0.0
C1876 C 0.50972 0.49921 0.90606 0.0
C1877 C 0.5059 0.51803 0.91138 0.0
C1878 C 0.51696 0.4986 0.89194 0.0
C1879 C 0.5207 0.51685 0.88276 0.0
C1880 C 0.51661 0.53557 0.88799 0.0
C1881 C 0.50923 0.53613 0.90216 0.0
H1882 H 0.5086 0.00442 0.82955 0.0
H1883 H 0.55293 0.07711 0.85121 0.0
H1884 H 0.49757 0.98926 0.85355 0.0
H1885 H 0.54254 0.06183 0.87526 0.0
H1886 H 0.49529 0.02973 0.9132 0.0
H1887 H 0.5073 0.04489 0.88934 0.0
H1888 H 0.51466 0.98285 0.87647 0.0
H1889 H 0.50279 0.96772 0.90038 0.0
C1890 C 0.51605 0.01716 0.83943 0.0
C1891 C 0.53159 0.04201 0.83843 0.0
C1892 C 0.50992 0.00843 0.85321 0.0
C1893 C 0.51912 0.02432 0.86634 0.0
C1894 C 0.5349 0.04912 0.86536 0.0
C1895 C 0.54109 0.05785 0.85158 0.0
C1896 C 0.49969 0.01941 0.90535 0.0
C1897 C 0.49805 0.99748 0.90874 0.0
C1898 C 0.50659 0.02813 0.89165 0.0
C1899 C 0.51199 0.01512 0.88098 0.0
C1900 C 0.51031 0.99316 0.88435 0.0
C1901 C 0.50345 0.98447 0.89806 0.0
H1902 H 0.17143 0.28977 0.51366 0.0
H1903 H 0.10426 0.29118 0.51058 0.0
H1904 H 0.18047 0.30679 0.49001 0.0
H1905 H 0.11369 0.30896 0.48709 0.0
H1906 H 0.12567 0.313 0.43748 0.0
H1907 H 0.11652 0.29717 0.46149 0.0
H1908 H 0.19153 0.34415 0.47883 0.0
H1909 H 0.20085 0.35939 0.45469 0.0
C1910 C 0.15858 0.29372 0.50793 0.0
C1911 C 0.13705 0.28899 0.51399 0.0
C1912 C 0.1639 0.30375 0.49445 0.0
C1913 C 0.14782 0.30927 0.48665 0.0
C1914 C 0.12636 0.30471 0.49275 0.0
C1915 C 0.12107 0.29475 0.50628 0.0
C1916 C 0.14025 0.31985 0.44639 0.0
C1917 C 0.16403 0.33741 0.44413 0.0
C1918 C 0.13494 0.31098 0.46021 0.0
C1919 C 0.15329 0.31937 0.4721 0.0
C1920 C 0.17701 0.3371 0.46988 0.0
C1921 C 0.18231 0.34604 0.45607 0.0
H1922 H 0.6707 0.86365 0.5203 0.0
H1923 H 0.6699 0.7955 0.51762 0.0
H1924 H 0.66055 0.85858 0.49356 0.0
H1925 H 0.65973 0.79041 0.49079 0.0
H1926 H 0.61979 0.77997 0.4447 0.0
H1927 H 0.62743 0.78373 0.47166 0.0
H1928 H 0.68079 0.8594 0.47144 0.0
H1929 H 0.67255 0.85585 0.44458 0.0
C1930 C 0.6684 0.8476 0.51398 0.0
C1931 C 0.67129 0.83007 0.52105 0.0
C1932 C 0.66262 0.84472 0.49866 0.0
C1933 C 0.65957 0.82421 0.49004 0.0
C1934 C 0.66177 0.80631 0.49715 0.0
C1935 C 0.66757 0.80921 0.51251 0.0
C1936 C 0.63297 0.79746 0.45044 0.0
C1937 C 0.64552 0.81764 0.44252 0.0
C1938 C 0.63753 0.79954 0.46585 0.0
C1939 C 0.65467 0.82186 0.47367 0.0
C1940 C 0.66724 0.84202 0.46575 0.0
C1941 C 0.66273 0.83993 0.45034 0.0
H1942 H 0.10677 0.7898 0.51201 0.0
H1943 H 0.17147 0.86003 0.52149 0.0
H1944 H 0.11617 0.78797 0.48635 0.0
H1945 H 0.18099 0.85801 0.49609 0.0
H1946 H 0.17418 0.85952 0.44605 0.0
H1947 H 0.16321 0.85929 0.47129 0.0
H1948 H 0.14782 0.78548 0.47188 0.0
H1949 H 0.15843 0.78555 0.4464 0.0
C1950 C 0.123 0.80477 0.50863 0.0
C1951 C 0.13841 0.82502 0.51878 0.0
C1952 C 0.12846 0.80365 0.49399 0.0
C1953 C 0.14926 0.8229 0.48921 0.0
C1954 C 0.16471 0.84301 0.4994 0.0
C1955 C 0.15938 0.84404 0.514 0.0
C1956 C 0.1682 0.84314 0.45149 0.0
C1957 C 0.16716 0.82255 0.44423 0.0
C1958 C 0.16215 0.84309 0.466 0.0
C1959 C 0.15479 0.82241 0.47359 0.0
C1960 C 0.15332 0.80163 0.46627 0.0
C1961 C 0.15959 0.80175 0.45176 0.0
H1962 H 0.62624 0.82216 0.168 0.0
H1963 H 0.70249 0.85341 0.16247 0.0
H1964 H 0.63528 0.82396 0.19462 0.0
H1965 H 0.71155 0.85514 0.18918 0.0
H1966 H 0.7128 0.82757 0.23489 0.0
H1967 H 0.70478 0.8273 0.20826 0.0
H1968 H 0.65543 0.85369 0.21636 0.0
H1969 H 0.66349 0.85403 0.24298 0.0
C1970 C 0.64498 0.8297 0.17249 0.0
C1971 C 0.66367 0.83775 0.16313 0.0
C1972 C 0.65016 0.83071 0.18775 0.0
C1973 C 0.67413 0.83974 0.19401 0.0
C1974 C 0.69285 0.84781 0.18466 0.0
C1975 C 0.68767 0.84683 0.16937 0.0
C1976 C 0.70042 0.83354 0.23099 0.0
C1977 C 0.68873 0.84077 0.24104 0.0
C1978 C 0.69585 0.8334 0.21574 0.0
C1979 C 0.67946 0.84045 0.21021 0.0
C1980 C 0.66788 0.84781 0.22027 0.0
C1981 C 0.67247 0.84797 0.23551 0.0
H1982 H 0.16814 0.7935 0.17081 0.0
H1983 H 0.23005 0.86603 0.17656 0.0
H1984 H 0.15759 0.79972 0.19532 0.0
H1985 H 0.21937 0.87231 0.20122 0.0
H1986 H 0.17799 0.8805 0.23931 0.0
H1987 H 0.18786 0.87582 0.21416 0.0
H1988 H 0.17439 0.80399 0.22092 0.0
H1989 H 0.16386 0.80837 0.24577 0.0
C1990 C 0.17961 0.81074 0.17736 0.0
C1991 C 0.20014 0.82916 0.17181 0.0
C1992 C 0.17353 0.81431 0.19141 0.0
C1993 C 0.18778 0.83641 0.20028 0.0
C1994 C 0.20794 0.85513 0.1946 0.0
C1995 C 0.21406 0.85154 0.18049 0.0
C1996 C 0.17694 0.86365 0.23535 0.0
C1997 C 0.17013 0.8448 0.24453 0.0
C1998 C 0.18283 0.86107 0.22102 0.0
C1999 C 0.18186 0.83952 0.21554 0.0
C2000 C 0.17505 0.82071 0.22473 0.0
C2001 C 0.16926 0.82332 0.23904 0.0
H2002 H 0.16361 0.38027 0.17134 0.0
H2003 H 0.2306 0.3788 0.17728 0.0
H2004 H 0.1532 0.36484 0.1953 0.0
H2005 H 0.2205 0.36401 0.20153 0.0
H2006 H 0.18033 0.31174 0.23613 0.0
H2007 H 0.1915 0.32751 0.21226 0.0
H2008 H 0.16572 0.37747 0.22166 0.0
H2009 H 0.15386 0.36119 0.24528 0.0
C2010 C 0.17612 0.37662 0.17776 0.0
C2011 C 0.19789 0.38066 0.17233 0.0
C2012 C 0.17027 0.36803 0.19158 0.0
C2013 C 0.18601 0.3632 0.20037 0.0
C2014 C 0.20785 0.36733 0.19499 0.0
C2015 C 0.21376 0.37603 0.18116 0.0
C2016 C 0.17686 0.32595 0.23304 0.0
C2017 C 0.1661 0.33512 0.24262 0.0
C2018 C 0.18353 0.33519 0.21943 0.0
C2019 C 0.17951 0.35376 0.21502 0.0
C2020 C 0.16885 0.363 0.22463 0.0
C2021 C 0.16227 0.35383 0.23825 0.0
H2022 H 0.83086 0.61094 0.84386 0.0
H2023 H 0.76633 0.61722 0.84123 0.0
H2024 H 0.8409 0.6283 0.82039 0.0
H2025 H 0.77694 0.63556 0.81803 0.0
H2026 H 0.78978 0.64301 0.76894 0.0
H2027 H 0.77927 0.62539 0.79234 0.0
H2028 H 0.85481 0.66624 0.8099 0.0
H2029 H 0.86532 0.68376 0.78647 0.0
C2030 C 0.81875 0.61596 0.83826 0.0
C2031 C 0.79771 0.61256 0.84444 0.0
C2032 C 0.8247 0.62623 0.82488 0.0
C2033 C 0.80978 0.63342 0.81731 0.0
C2034 C 0.78872 0.63002 0.82347 0.0
C2035 C 0.78277 0.61974 0.83687 0.0
C2036 C 0.80412 0.64841 0.77784 0.0
C2037 C 0.8284 0.66482 0.77581 0.0
C2038 C 0.79809 0.63831 0.79127 0.0
C2039 C 0.81618 0.64436 0.80303 0.0
C2040 C 0.84045 0.66084 0.80101 0.0
C2041 C 0.84649 0.67092 0.78757 0.0
H2042 H 0.38588 0.17539 0.84627 0.0
H2043 H 0.31032 0.13594 0.85409 0.0
H2044 H 0.37409 0.1692 0.81964 0.0
H2045 H 0.29852 0.12916 0.82739 0.0
H2046 H 0.2897 0.15388 0.78151 0.0
H2047 H 0.29975 0.1551 0.80797 0.0
H2048 H 0.35518 0.13753 0.79852 0.0
H2049 H 0.345 0.13611 0.772 0.0
C2050 C 0.36675 0.16525 0.84228 0.0
C2051 C 0.34901 0.15629 0.85226 0.0
C2052 C 0.36001 0.16149 0.82702 0.0
C2053 C 0.33537 0.14876 0.82143 0.0
C2054 C 0.31764 0.13926 0.83139 0.0
C2055 C 0.32439 0.14293 0.84666 0.0
C2056 C 0.30377 0.14989 0.78505 0.0
C2057 C 0.31661 0.14499 0.77465 0.0
C2058 C 0.30951 0.15058 0.80022 0.0
C2059 C 0.32827 0.14644 0.80531 0.0
C2060 C 0.34085 0.14111 0.79492 0.0
C2061 C 0.33505 0.14036 0.77974 0.0
H2062 H 0.77249 0.1169 0.8446 0.0
H2063 H 0.8378 0.18685 0.85278 0.0
H2064 H 0.78206 0.11272 0.8193 0.0
H2065 H 0.84724 0.18283 0.82763 0.0
H2066 H 0.87034 0.16069 0.78678 0.0
H2067 H 0.85998 0.16043 0.8121 0.0
H2068 H 0.7844 0.12969 0.79582 0.0
H2069 H 0.79461 0.12877 0.77044 0.0
C2070 C 0.78882 0.1314 0.84098 0.0
C2071 C 0.80448 0.15211 0.85074 0.0
C2072 C 0.7943 0.12903 0.82649 0.0
C2073 C 0.81552 0.14736 0.82145 0.0
C2074 C 0.83105 0.1681 0.83122 0.0
C2075 C 0.82562 0.17042 0.84566 0.0
C2076 C 0.85143 0.15338 0.78857 0.0
C2077 C 0.83333 0.14481 0.77653 0.0
C2078 C 0.84553 0.15355 0.80311 0.0
C2079 C 0.82139 0.1453 0.80601 0.0
C2080 C 0.80316 0.13606 0.79401 0.0
C2081 C 0.80906 0.1358 0.77943 0.0
H2082 H 0.29416 0.15444 0.50106 0.0
H2083 H 0.371 0.1898 0.49652 0.0
H2084 H 0.30252 0.15478 0.52761 0.0
H2085 H 0.37941 0.19021 0.52316 0.0
H2086 H 0.38239 0.1636 0.56873 0.0
H2087 H 0.37415 0.16267 0.54202 0.0
H2088 H 0.32046 0.18354 0.54966 0.0
H2089 H 0.32864 0.1844 0.5763 0.0
C2090 C 0.31287 0.16252 0.50577 0.0
C2091 C 0.33193 0.17223 0.49671 0.0
C2092 C 0.31766 0.1627 0.52098 0.0
C2093 C 0.34163 0.17258 0.5275 0.0
C2094 C 0.36072 0.18218 0.51844 0.0
C2095 C 0.35591 0.18198 0.50319 0.0
C2096 C 0.36892 0.16809 0.56469 0.0
C2097 C 0.35611 0.174 0.57462 0.0
C2098 C 0.36423 0.1676 0.5494 0.0
C2099 C 0.34665 0.17302 0.54373 0.0
C2100 C 0.33383 0.17889 0.55367 0.0
C2101 C 0.3385 0.17936 0.56893 0.0
H2102 H 0.89436 0.20084 0.50831 0.0
H2103 H 0.82744 0.13219 0.5009 0.0
H2104 H 0.8841 0.20771 0.53299 0.0
H2105 H 0.81758 0.13864 0.52559 0.0
H2106 H 0.79595 0.16541 0.56564 0.0
H2107 H 0.80608 0.16349 0.54034 0.0
H2108 H 0.88099 0.19083 0.55688 0.0
H2109 H 0.87105 0.19363 0.58217 0.0
C2110 C 0.8774 0.18733 0.51191 0.0
C2111 C 0.8618 0.1659 0.50271 0.0
C2112 C 0.87163 0.19114 0.52608 0.0
C2113 C 0.85005 0.17369 0.53128 0.0
C2114 C 0.83421 0.15257 0.5219 0.0
C2115 C 0.84001 0.14874 0.5078 0.0
C2116 C 0.81466 0.17138 0.56387 0.0
C2117 C 0.83266 0.17956 0.57594 0.0
C2118 C 0.82042 0.17006 0.54938 0.0
C2119 C 0.84432 0.17688 0.54659 0.0
C2120 C 0.86245 0.18563 0.55863 0.0
C2121 C 0.85668 0.18693 0.57313 0.0
H2122 H 0.84445 0.66809 0.4956 0.0
H2123 H 0.88765 0.74076 0.5175 0.0
H2124 H 0.83345 0.65261 0.51955 0.0
H2125 H 0.87734 0.72519 0.54146 0.0
H2126 H 0.83039 0.69265 0.57923 0.0
H2127 H 0.84203 0.70774 0.55533 0.0
H2128 H 0.85055 0.64637 0.54256 0.0
H2129 H 0.83899 0.63128 0.56654 0.0
C2130 C 0.85166 0.68075 0.50553 0.0
C2131 C 0.86688 0.70568 0.50461 0.0
C2132 C 0.84555 0.67185 0.51927 0.0
C2133 C 0.85445 0.68766 0.53243 0.0
C2134 C 0.86992 0.71254 0.53153 0.0
C2135 C 0.87608 0.72143 0.51779 0.0
C2136 C 0.83496 0.68246 0.5714 0.0
C2137 C 0.8338 0.66076 0.57485 0.0
C2138 C 0.84165 0.69114 0.55768 0.0
C2139 C 0.84732 0.67833 0.54703 0.0
C2140 C 0.84602 0.65654 0.55043 0.0
C2141 C 0.83935 0.64787 0.56418 0.0
loop_
_geom_bond_atom_site_label_1
_geom_bond_atom_site_label_2
_geom_bond_distance
_geom_bond_site_symmetry_2
_ccdc_geom_bond_type
C0 C1 1.386 . S
C0 C2 1.397 . S
C0 H24 0.931 . S
C1 C0 1.386 . S
C1 C5 1.397 . S
C2 C0 1.397 . S
C2 C3 1.384 . S
C2 H25 0.930 . S
C3 C2 1.384 . S
C3 C4 1.377 . S
C3 C6 1.481 . S
C4 C3 1.377 . S
C4 C5 1.389 . S
C4 H26 0.929 . S
C5 C1 1.397 . S
C5 C4 1.389 . S
C5 H27 0.931 . S
C6 C3 1.481 . S
C6 C7 1.387 . S
C6 C11 1.390 . S
C7 C6 1.387 . S
C7 C8 1.401 . S
C7 H28 0.930 . S
C8 C7 1.401 . S
C8 C9 1.376 . S
C8 C17 1.511 . S
C9 C8 1.376 . S
C9 C10 1.392 . S
C9 H30 0.931 . S
C10 C9 1.392 . S
C10 C11 1.361 . S
C10 C12 1.500 . S
C11 C6 1.390 . S
C11 C10 1.361 . S
C11 H29 0.931 . S
C12 C10 1.500 . S
C12 C13 1.371 . S
C12 C14 1.365 . S
C13 C12 1.371 . S
C13 C23 1.386 . S
C13 H31 0.931 . S
C14 C12 1.365 . S
C14 C15 1.409 . S
C14 H32 0.929 . S
C15 C14 1.409 . S
C15 C16 1.380 . S
C15 H33 0.930 . S
C16 C15 1.380 . S
C16 C23 1.357 . S
C17 C8 1.511 . S
C17 C18 1.341 . S
C17 C19 1.371 . S
C18 C17 1.341 . S
C18 C22 1.394 . S
C18 H34 0.930 . S
C19 C17 1.371 . S
C19 C20 1.392 . S
C19 H35 0.931 . S
C20 C19 1.392 . S
C20 C21 1.331 . S
C20 H38 0.932 . S
C21 C20 1.331 . S
C21 C22 1.336 . S
C22 C18 1.394 . S
C22 C21 1.336 . S
C22 H37 0.929 . S
C23 C13 1.386 . S
C23 C16 1.357 . S
C23 H36 0.928 . S
H24 C0 0.931 . S
H25 C2 0.930 . S
H26 C4 0.929 . S
H27 C5 0.931 . S
H28 C7 0.930 . S
H29 C11 0.931 . S
H30 C9 0.931 . S
H31 C13 0.931 . S
H32 C14 0.929 . S
H33 C15 0.930 . S
H34 C18 0.930 . S
H35 C19 0.931 . S
H36 C23 0.928 . S
H37 C22 0.929 . S
H38 C20 0.932 . S
C39 C40 1.386 . S
C39 C41 1.397 . S
C39 H63 0.931 . S
C40 C39 1.386 . S
C40 C44 1.397 . S
C41 C39 1.397 . S
C41 C42 1.384 . S
C41 H64 0.930 . S
C42 C41 1.384 . S
C42 C43 1.377 . S
C42 C45 1.481 . S
C43 C42 1.377 . S
C43 C44 1.389 . S
C43 H65 0.929 . S
C44 C40 1.397 . S
C44 C43 1.389 . S
C44 H66 0.931 . S
C45 C42 1.481 . S
C45 C46 1.387 . S
C45 C50 1.390 . S
C46 C45 1.387 . S
C46 C47 1.401 . S
C46 H67 0.930 . S
C47 C46 1.401 . S
C47 C48 1.376 . S
C47 C56 1.511 . S
C48 C47 1.376 . S
C48 C49 1.392 . S
C48 H69 0.931 . S
C49 C48 1.392 . S
C49 C50 1.361 . S
C49 C51 1.500 . S
C50 C45 1.390 . S
C50 C49 1.361 . S
C50 H68 0.931 . S
C51 C49 1.500 . S
C51 C52 1.371 . S
C51 C53 1.365 . S
C52 C51 1.371 . S
C52 C62 1.386 . S
C52 H70 0.931 . S
C53 C51 1.365 . S
C53 C54 1.409 . S
C53 H71 0.929 . S
C54 C53 1.409 . S
C54 C55 1.380 . S
C54 H72 0.930 . S
C55 C54 1.380 . S
C55 C62 1.357 . S
C56 C47 1.511 . S
C56 C57 1.341 . S
C56 C58 1.371 . S
C57 C56 1.341 . S
C57 C61 1.394 . S
C57 H73 0.930 . S
C58 C56 1.371 . S
C58 C59 1.392 . S
C58 H74 0.931 . S
C59 C58 1.392 . S
C59 C60 1.331 . S
C59 H77 0.932 . S
C60 C59 1.331 . S
C60 C61 1.336 . S
C61 C57 1.394 . S
C61 C60 1.336 . S
C61 H76 0.929 . S
C62 C52 1.386 . S
C62 C55 1.357 . S
C62 H75 0.928 . S
H63 C39 0.931 . S
H64 C41 0.930 . S
H65 C43 0.929 . S
H66 C44 0.931 . S
H67 C46 0.930 . S
H68 C50 0.931 . S
H69 C48 0.931 . S
H70 C52 0.931 . S
H71 C53 0.929 . S
H72 C54 0.930 . S
H73 C57 0.930 . S
H74 C58 0.931 . S
H75 C62 0.928 . S
H76 C61 0.929 . S
H77 C59 0.932 . S
C78 C79 1.386 . S
C78 C80 1.397 . S
C78 H102 0.931 . S
C79 C78 1.386 . S
C79 C83 1.397 . S
C80 C78 1.397 . S
C80 C81 1.384 . S
C80 H103 0.930 . S
C81 C80 1.384 . S
C81 C82 1.377 . S
C81 C84 1.481 . S
C82 C81 1.377 . S
C82 C83 1.389 . S
C82 H104 0.929 . S
C83 C79 1.397 . S
C83 C82 1.389 . S
C83 H105 0.931 . S
C84 C81 1.481 . S
C84 C85 1.387 . S
C84 C89 1.390 . S
C85 C84 1.387 . S
C85 C86 1.401 . S
C85 H106 0.930 . S
C86 C85 1.401 . S
C86 C87 1.376 . S
C86 C95 1.511 . S
C87 C86 1.376 . S
C87 C88 1.392 . S
C87 H108 0.931 . S
C88 C87 1.392 . S
C88 C89 1.361 . S
C88 C90 1.500 . S
C89 C84 1.390 . S
C89 C88 1.361 . S
C89 H107 0.931 . S
C90 C88 1.500 . S
C90 C91 1.371 . S
C90 C92 1.365 . S
C91 C90 1.371 . S
C91 C101 1.386 . S
C91 H109 0.931 . S
C92 C90 1.365 . S
C92 C93 1.409 . S
C92 H110 0.929 . S
C93 C92 1.409 . S
C93 C94 1.380 . S
C93 H111 0.930 . S
C94 C93 1.380 . S
C94 C101 1.357 . S
C95 C86 1.511 . S
C95 C96 1.341 . S
C95 C97 1.371 . S
C96 C95 1.341 . S
C96 C100 1.394 . S
C96 H112 0.930 . S
C97 C95 1.371 . S
C97 C98 1.392 . S
C97 H113 0.931 . S
C98 C97 1.392 . S
C98 C99 1.331 . S
C98 H116 0.932 . S
C99 C98 1.331 . S
C99 C100 1.336 . S
C100 C96 1.394 . S
C100 C99 1.336 . S
C100 H115 0.929 . S
C101 C91 1.386 . S
C101 C94 1.357 . S
C101 H114 0.928 . S
H102 C78 0.931 . S
H103 C80 0.930 . S
H104 C82 0.929 . S
H105 C83 0.931 . S
H106 C85 0.930 . S
H107 C89 0.931 . S
H108 C87 0.931 . S
H109 C91 0.931 . S
H110 C92 0.929 . S
H111 C93 0.930 . S
H112 C96 0.930 . S
H113 C97 0.931 . S
H114 C101 0.928 . S
H115 C100 0.929 . S
H116 C98 0.932 . S
C117 C118 1.386 . S
C117 C119 1.397 . S
C117 H141 0.931 . S
C118 C117 1.386 . S
C118 C122 1.397 . S
C119 C117 1.397 . S
C119 C120 1.384 . S
C119 H142 0.930 . S
C120 C119 1.384 . S
C120 C121 1.377 . S
C120 C123 1.481 . S
C121 C120 1.377 . S
C121 C122 1.389 . S
C121 H143 0.929 . S
C122 C118 1.397 . S
C122 C121 1.389 . S
C122 H144 0.931 . S
C123 C120 1.481 . S
C123 C124 1.387 . S
C123 C128 1.390 . S
C124 C123 1.387 . S
C124 C125 1.401 . S
C124 H145 0.930 . S
C125 C124 1.401 . S
C125 C126 1.376 . S
C125 C134 1.511 . S
C126 C125 1.376 . S
C126 C127 1.392 . S
C126 H147 0.931 . S
C127 C126 1.392 . S
C127 C128 1.361 . S
C127 C129 1.500 . S
C128 C123 1.390 . S
C128 C127 1.361 . S
C128 H146 0.931 . S
C129 C127 1.500 . S
C129 C130 1.371 . S
C129 C131 1.365 . S
C130 C129 1.371 . S
C130 C140 1.386 . S
C130 H148 0.931 . S
C131 C129 1.365 . S
C131 C132 1.409 . S
C131 H149 0.929 . S
C132 C131 1.409 . S
C132 C133 1.380 . S
C132 H150 0.930 . S
C133 C132 1.380 . S
C133 C140 1.357 . S
C134 C125 1.511 . S
C134 C135 1.341 . S
C134 C136 1.371 . S
C135 C134 1.341 . S
C135 C139 1.394 . S
C135 H151 0.930 . S
C136 C134 1.371 . S
C136 C137 1.392 . S
C136 H152 0.931 . S
C137 C136 1.392 . S
C137 C138 1.331 . S
C137 H155 0.932 . S
C138 C137 1.331 . S
C138 C139 1.336 . S
C139 C135 1.394 . S
C139 C138 1.336 . S
C139 H154 0.929 . S
C140 C130 1.386 . S
C140 C133 1.357 . S
C140 H153 0.928 . S
H141 C117 0.931 . S
H142 C119 0.930 . S
H143 C121 0.929 . S
H144 C122 0.931 . S
H145 C124 0.930 . S
H146 C128 0.931 . S
H147 C126 0.931 . S
H148 C130 0.931 . S
H149 C131 0.929 . S
H150 C132 0.930 . S
H151 C135 0.930 . S
H152 C136 0.931 . S
H153 C140 0.928 . S
H154 C139 0.929 . S
H155 C137 0.932 . S
C156 C157 1.386 . S
C156 C158 1.397 . S
C156 H180 0.931 . S
C157 C156 1.386 . S
C157 C161 1.397 . S
C158 C156 1.397 . S
C158 C159 1.384 . S
C158 H181 0.930 . S
C159 C158 1.384 . S
C159 C160 1.377 . S
C159 C162 1.481 . S
C160 C159 1.377 . S
C160 C161 1.389 . S
C160 H182 0.929 . S
C161 C157 1.397 . S
C161 C160 1.389 . S
C161 H183 0.931 . S
C162 C159 1.481 . S
C162 C163 1.387 . S
C162 C167 1.390 . S
C163 C162 1.387 . S
C163 C164 1.401 . S
C163 H184 0.930 . S
C164 C163 1.401 . S
C164 C165 1.376 . S
C164 C173 1.511 . S
C165 C164 1.376 . S
C165 C166 1.392 . S
C165 H186 0.931 . S
C166 C165 1.392 . S
C166 C167 1.361 . S
C166 C168 1.500 . S
C167 C162 1.390 . S
C167 C166 1.361 . S
C167 H185 0.931 . S
C168 C166 1.500 . S
C168 C169 1.371 . S
C168 C170 1.365 . S
C169 C168 1.371 . S
C169 C179 1.386 . S
C169 H187 0.931 . S
C170 C168 1.365 . S
C170 C171 1.409 . S
C170 H188 0.929 . S
C171 C170 1.409 . S
C171 C172 1.380 . S
C171 H189 0.930 . S
C172 C171 1.380 . S
C172 C179 1.357 . S
C173 C164 1.511 . S
C173 C174 1.341 . S
C173 C175 1.371 . S
C174 C173 1.341 . S
C174 C178 1.394 . S
C174 H190 0.930 . S
C175 C173 1.371 . S
C175 C176 1.392 . S
C175 H191 0.931 . S
C176 C175 1.392 . S
C176 C177 1.331 . S
C176 H194 0.932 . S
C177 C176 1.331 . S
C177 C178 1.336 . S
C178 C174 1.394 . S
C178 C177 1.336 . S
C178 H193 0.929 . S
C179 C169 1.386 . S
C179 C172 1.357 . S
C179 H192 0.928 . S
H180 C156 0.931 . S
H181 C158 0.930 . S
H182 C160 0.929 . S
H183 C161 0.931 . S
H184 C163 0.930 . S
H185 C167 0.931 . S
H186 C165 0.931 . S
H187 C169 0.931 . S
H188 C170 0.929 . S
H189 C171 0.930 . S
H190 C174 0.930 . S
H191 C175 0.931 . S
H192 C179 0.928 . S
H193 C178 0.929 . S
H194 C176 0.932 . S
C195 C196 1.386 . S
C195 C197 1.397 . S
C195 H219 0.931 . S
C196 C195 1.386 . S
C196 C200 1.397 . S
C197 C195 1.397 . S
C197 C198 1.384 . S
C197 H220 0.930 . S
C198 C197 1.384 . S
C198 C199 1.377 . S
C198 C201 1.481 . S
C199 C198 1.377 . S
C199 C200 1.389 . S
C199 H221 0.929 . S
C200 C196 1.397 . S
C200 C199 1.389 . S
C200 H222 0.931 . S
C201 C198 1.481 . S
C201 C202 1.387 . S
C201 C206 1.390 . S
C202 C201 1.387 . S
C202 C203 1.401 . S
C202 H223 0.930 . S
C203 C202 1.401 . S
C203 C204 1.376 . S
C203 C212 1.511 . S
C204 C203 1.376 . S
C204 C205 1.392 . S
C204 H225 0.931 . S
C205 C204 1.392 . S
C205 C206 1.361 . S
C205 C207 1.500 . S
C206 C201 1.390 . S
C206 C205 1.361 . S
C206 H224 0.931 . S
C207 C205 1.500 . S
C207 C208 1.371 . S
C207 C209 1.365 . S
C208 C207 1.371 . S
C208 C218 1.386 . S
C208 H226 0.931 . S
C209 C207 1.365 . S
C209 C210 1.409 . S
C209 H227 0.929 . S
C210 C209 1.409 . S
C210 C211 1.380 . S
C210 H228 0.930 . S
C211 C210 1.380 . S
C211 C218 1.357 . S
C212 C203 1.511 . S
C212 C213 1.341 . S
C212 C214 1.371 . S
C213 C212 1.341 . S
C213 C217 1.394 . S
C213 H229 0.930 . S
C214 C212 1.371 . S
C214 C215 1.392 . S
C214 H230 0.931 . S
C215 C214 1.392 . S
C215 C216 1.331 . S
C215 H233 0.932 . S
C216 C215 1.331 . S
C216 C217 1.336 . S
C217 C213 1.394 . S
C217 C216 1.336 . S
C217 H232 0.929 . S
C218 C208 1.386 . S
C218 C211 1.357 . S
C218 H231 0.928 . S
H219 C195 0.931 . S
H220 C197 0.930 . S
H221 C199 0.929 . S
H222 C200 0.931 . S
H223 C202 0.930 . S
H224 C206 0.931 . S
H225 C204 0.931 . S
H226 C208 0.931 . S
H227 C209 0.929 . S
H228 C210 0.930 . S
H229 C213 0.930 . S
H230 C214 0.931 . S
H231 C218 0.928 . S
H232 C217 0.929 . S
H233 C215 0.932 . S
C234 C235 1.386 . S
C234 C236 1.397 . S
C234 H258 0.931 . S
C235 C234 1.386 . S
C235 C239 1.397 1_655 S
C236 C234 1.397 . S
C236 C237 1.384 . S
C236 H259 0.930 . S
C237 C236 1.384 . S
C237 C238 1.377 . S
C237 C240 1.481 . S
C238 C237 1.377 . S
C238 C239 1.389 1_655 S
C238 H260 0.891 1_655 S
C239 C235 1.397 1_455 S
C239 C238 1.389 1_455 S
C239 H261 0.931 . S
C240 C237 1.481 . S
C240 C241 1.387 . S
C240 C245 1.390 . S
C241 C240 1.387 . S
C241 C242 1.401 . S
C241 H262 0.930 . S
C242 C241 1.401 . S
C242 C243 1.376 . S
C242 C251 1.511 . S
C243 C242 1.376 . S
C243 C244 1.392 . S
C243 H264 0.931 . S
C244 C243 1.392 . S
C244 C245 1.361 . S
C244 C246 1.500 . S
C245 C240 1.390 . S
C245 C244 1.361 . S
C245 H263 0.931 . S
C246 C244 1.500 . S
C246 C247 1.371 . S
C246 C248 1.365 . S
C247 C246 1.371 . S
C247 C257 1.386 . S
C247 H265 0.931 . S
C248 C246 1.365 . S
C248 C249 1.409 . S
C248 H266 0.929 . S
C249 C248 1.409 . S
C249 C250 1.380 . S
C249 H267 0.930 . S
C250 C249 1.380 . S
C250 C257 1.357 . S
C251 C242 1.511 . S
C251 C252 1.341 . S
C251 C253 1.371 . S
C252 C251 1.341 . S
C252 C256 1.394 . S
C252 H268 0.930 . S
C253 C251 1.371 . S
C253 C254 1.392 . S
C253 H269 0.931 . S
C254 C253 1.392 . S
C254 C255 1.331 . S
C254 H272 0.932 . S
C255 C254 1.331 . S
C255 C256 1.336 . S
C256 C252 1.394 . S
C256 C255 1.336 . S
C256 H271 0.929 . S
C257 C247 1.386 . S
C257 C250 1.357 . S
C257 H270 0.928 . S
H258 C234 0.931 . S
H259 C236 0.930 . S
H260 C238 0.891 1_455 S
H261 C239 0.931 . S
H262 C241 0.930 . S
H263 C245 0.931 . S
H264 C243 0.931 . S
H265 C247 0.931 . S
H266 C248 0.929 . S
H267 C249 0.930 . S
H268 C252 0.930 . S
H269 C253 0.931 . S
H270 C257 0.928 . S
H271 C256 0.929 . S
H272 C254 0.932 . S
C273 C274 1.386 . S
C273 C275 1.397 . S
C273 H297 0.931 . S
C274 C273 1.386 . S
C274 C278 1.397 . S
C275 C273 1.397 . S
C275 C276 1.384 . S
C275 H298 0.930 . S
C276 C275 1.384 . S
C276 C277 1.377 . S
C276 C279 1.481 . S
C277 C276 1.377 . S
C277 C278 1.389 . S
C277 H299 0.929 . S
C278 C274 1.397 . S
C278 C277 1.389 . S
C278 H300 0.931 . S
C279 C276 1.481 . S
C279 C280 1.387 . S
C279 C284 1.390 . S
C280 C279 1.387 . S
C280 C281 1.401 . S
C280 H301 0.930 . S
C281 C280 1.401 . S
C281 C282 1.376 . S
C281 C290 1.511 . S
C282 C281 1.376 . S
C282 C283 1.392 . S
C282 H303 0.931 . S
C283 C282 1.392 . S
C283 C284 1.361 . S
C283 C285 1.500 . S
C284 C279 1.390 . S
C284 C283 1.361 . S
C284 H302 0.931 . S
C285 C283 1.500 . S
C285 C286 1.371 . S
C285 C287 1.365 . S
C286 C285 1.371 . S
C286 C296 1.386 . S
C286 H304 0.931 . S
C287 C285 1.365 . S
C287 C288 1.409 . S
C287 H305 0.929 . S
C288 C287 1.409 . S
C288 C289 1.380 . S
C288 H306 0.930 . S
C289 C288 1.380 . S
C289 C296 1.357 . S
C290 C281 1.511 . S
C290 C291 1.341 . S
C290 C292 1.371 . S
C291 C290 1.341 . S
C291 C295 1.394 . S
C291 H307 0.930 . S
C292 C290 1.371 . S
C292 C293 1.392 . S
C292 H308 0.931 . S
C293 C292 1.392 . S
C293 C294 1.331 . S
C293 H311 0.932 . S
C294 C293 1.331 . S
C294 C295 1.336 . S
C295 C291 1.394 . S
C295 C294 1.336 . S
C295 H310 0.929 . S
C296 C286 1.386 . S
C296 C289 1.357 . S
C296 H309 0.928 . S
H297 C273 0.931 . S
H298 C275 0.930 . S
H299 C277 0.929 . S
H300 C278 0.931 . S
H301 C280 0.930 . S
H302 C284 0.931 . S
H303 C282 0.931 . S
H304 C286 0.931 . S
H305 C287 0.929 . S
H306 C288 0.930 . S
H307 C291 0.930 . S
H308 C292 0.931 . S
H309 C296 0.928 . S
H310 C295 0.929 . S
H311 C293 0.932 . S
C312 C313 1.386 . S
C312 C314 1.397 . S
C312 H336 0.931 . S
C313 C312 1.386 . S
C313 C317 1.397 . S
C314 C312 1.397 . S
C314 C315 1.384 . S
C314 H337 0.930 . S
C315 C314 1.384 . S
C315 C316 1.377 . S
C315 C318 1.481 . S
C316 C315 1.377 . S
C316 C317 1.389 . S
C316 H338 0.929 . S
C317 C313 1.397 . S
C317 C316 1.389 . S
C317 H339 0.931 . S
C318 C315 1.481 . S
C318 C319 1.387 . S
C318 C323 1.390 . S
C319 C318 1.387 . S
C319 C320 1.401 . S
C319 H340 0.930 . S
C320 C319 1.401 . S
C320 C321 1.376 . S
C320 C329 1.511 . S
C321 C320 1.376 . S
C321 C322 1.392 . S
C321 H342 0.931 . S
C322 C321 1.392 . S
C322 C323 1.361 . S
C322 C324 1.500 . S
C323 C318 1.390 . S
C323 C322 1.361 . S
C323 H341 0.931 . S
C324 C322 1.500 . S
C324 C325 1.371 . S
C324 C326 1.365 . S
C325 C324 1.371 . S
C325 C335 1.386 . S
C325 H343 0.931 . S
C326 C324 1.365 . S
C326 C327 1.409 . S
C326 H344 0.929 . S
C327 C326 1.409 . S
C327 C328 1.380 . S
C327 H345 0.930 . S
C328 C327 1.380 . S
C328 C335 1.357 . S
C329 C320 1.511 . S
C329 C330 1.341 . S
C329 C331 1.371 . S
C330 C329 1.341 . S
C330 C334 1.394 . S
C330 H346 0.930 . S
C331 C329 1.371 . S
C331 C332 1.392 . S
C331 H347 0.931 . S
C332 C331 1.392 . S
C332 C333 1.331 . S
C332 H350 0.932 . S
C333 C332 1.331 . S
C333 C334 1.336 . S
C334 C330 1.394 . S
C334 C333 1.336 . S
C334 H349 0.929 . S
C335 C325 1.386 . S
C335 C328 1.357 . S
C335 H348 0.928 . S
H336 C312 0.931 . S
H337 C314 0.930 . S
H338 C316 0.929 . S
H339 C317 0.931 . S
H340 C319 0.930 . S
H341 C323 0.931 . S
H342 C321 0.931 . S
H343 C325 0.931 . S
H344 C326 0.929 . S
H345 C327 0.930 . S
H346 C330 0.930 . S
H347 C331 0.931 . S
H348 C335 0.928 . S
H349 C334 0.929 . S
H350 C332 0.932 . S
C351 C352 1.386 . S
C351 C353 1.397 . S
C351 H375 0.931 . S
C352 C351 1.386 . S
C352 C356 1.397 . S
C353 C351 1.397 . S
C353 C354 1.384 . S
C353 H376 0.930 . S
C354 C353 1.384 . S
C354 C355 1.377 . S
C354 C357 1.481 . S
C355 C354 1.377 . S
C355 C356 1.389 . S
C355 H377 0.929 . S
C356 C352 1.397 . S
C356 C355 1.389 . S
C356 H378 0.931 . S
C357 C354 1.481 . S
C357 C358 1.387 . S
C357 C362 1.390 . S
C358 C357 1.387 . S
C358 C359 1.401 . S
C358 H379 0.930 . S
C359 C358 1.401 . S
C359 C360 1.376 . S
C359 C368 1.511 . S
C360 C359 1.376 . S
C360 C361 1.392 . S
C360 H381 0.931 . S
C361 C360 1.392 . S
C361 C362 1.361 . S
C361 C363 1.500 . S
C362 C357 1.390 . S
C362 C361 1.361 . S
C362 H380 0.931 . S
C363 C361 1.500 . S
C363 C364 1.371 . S
C363 C365 1.365 . S
C364 C363 1.371 . S
C364 C374 1.386 . S
C364 H382 0.931 . S
C365 C363 1.365 . S
C365 C366 1.409 . S
C365 H383 0.929 . S
C366 C365 1.409 . S
C366 C367 1.380 . S
C366 H384 0.930 . S
C367 C366 1.380 . S
C367 C374 1.357 . S
C368 C359 1.511 . S
C368 C369 1.341 . S
C368 C370 1.371 . S
C369 C368 1.341 . S
C369 C373 1.394 . S
C369 H385 0.930 . S
C370 C368 1.371 . S
C370 C371 1.392 . S
C370 H386 0.931 . S
C371 C370 1.392 . S
C371 C372 1.331 . S
C371 H389 0.932 . S
C372 C371 1.331 . S
C372 C373 1.336 . S
C373 C369 1.394 . S
C373 C372 1.336 . S
C373 H388 0.929 . S
C374 C364 1.386 . S
C374 C367 1.357 . S
C374 H387 0.928 . S
H375 C351 0.931 . S
H376 C353 0.930 . S
H377 C355 0.929 . S
H378 C356 0.931 . S
H379 C358 0.930 . S
H380 C362 0.931 . S
H381 C360 0.931 . S
H382 C364 0.931 . S
H383 C365 0.929 . S
H384 C366 0.930 . S
H385 C369 0.930 . S
H386 C370 0.931 . S
H387 C374 0.928 . S
H388 C373 0.929 . S
H389 C371 0.932 . S
C390 C391 1.386 . S
C390 C392 1.397 . S
C390 H414 0.931 . S
C391 C390 1.386 . S
C391 C395 1.397 . S
C392 C390 1.397 . S
C392 C393 1.384 . S
C392 H415 0.930 . S
C393 C392 1.384 . S
C393 C394 1.377 . S
C393 C396 1.481 . S
C394 C393 1.377 . S
C394 C395 1.389 . S
C394 H416 0.929 . S
C395 C391 1.397 . S
C395 C394 1.389 . S
C395 H417 0.931 . S
C396 C393 1.481 . S
C396 C397 1.387 . S
C396 C401 1.390 . S
C397 C396 1.387 . S
C397 C398 1.401 . S
C397 H418 0.930 . S
C398 C397 1.401 . S
C398 C399 1.376 . S
C398 C407 1.511 . S
C399 C398 1.376 . S
C399 C400 1.392 . S
C399 H420 0.931 . S
C400 C399 1.392 . S
C400 C401 1.361 . S
C400 C402 1.500 . S
C401 C396 1.390 . S
C401 C400 1.361 . S
C401 H419 0.931 . S
C402 C400 1.500 . S
C402 C403 1.371 . S
C402 C404 1.365 . S
C403 C402 1.371 . S
C403 C413 1.386 . S
C403 H421 0.931 . S
C404 C402 1.365 . S
C404 C405 1.409 . S
C404 H422 0.929 . S
C405 C404 1.409 . S
C405 C406 1.380 . S
C405 H423 0.930 . S
C406 C405 1.380 . S
C406 C413 1.357 . S
C407 C398 1.511 . S
C407 C408 1.341 . S
C407 C409 1.371 . S
C408 C407 1.341 . S
C408 C412 1.394 . S
C408 H424 0.930 . S
C409 C407 1.371 . S
C409 C410 1.392 . S
C409 H425 0.931 . S
C410 C409 1.392 . S
C410 C411 1.331 . S
C410 H428 0.932 . S
C411 C410 1.331 . S
C411 C412 1.336 . S
C412 C408 1.394 . S
C412 C411 1.336 . S
C412 H427 0.929 . S
C413 C403 1.386 . S
C413 C406 1.357 . S
C413 H426 0.928 . S
H414 C390 0.931 . S
H415 C392 0.930 . S
H416 C394 0.929 . S
H417 C395 0.931 . S
H418 C397 0.930 . S
H419 C401 0.931 . S
H420 C399 0.931 . S
H421 C403 0.931 . S
H422 C404 0.929 . S
H423 C405 0.930 . S
H424 C408 0.930 . S
H425 C409 0.931 . S
H426 C413 0.928 . S
H427 C412 0.929 . S
H428 C410 0.932 . S
C429 C430 1.386 . S
C429 C431 1.397 . S
C429 H453 0.931 . S
C430 C429 1.386 . S
C430 C434 1.397 . S
C431 C429 1.397 . S
C431 C432 1.384 . S
C431 H454 0.930 . S
C432 C431 1.384 . S
C432 C433 1.377 . S
C432 C435 1.481 . S
C433 C432 1.377 . S
C433 C434 1.389 . S
C433 H455 0.929 . S
C434 C430 1.397 . S
C434 C433 1.389 . S
C434 H456 0.931 . S
C435 C432 1.481 . S
C435 C436 1.387 . S
C435 C440 1.390 . S
C436 C435 1.387 . S
C436 C437 1.401 . S
C436 H457 0.930 . S
C437 C436 1.401 . S
C437 C438 1.376 . S
C437 C446 1.511 . S
C438 C437 1.376 . S
C438 C439 1.392 . S
C438 H459 0.931 . S
C439 C438 1.392 . S
C439 C440 1.361 . S
C439 C441 1.500 . S
C440 C435 1.390 . S
C440 C439 1.361 . S
C440 H458 0.931 . S
C441 C439 1.500 . S
C441 C442 1.371 . S
C441 C443 1.365 . S
C442 C441 1.371 . S
C442 C452 1.386 . S
C442 H460 0.931 . S
C443 C441 1.365 . S
C443 C444 1.409 . S
C443 H461 0.929 . S
C444 C443 1.409 . S
C444 C445 1.380 . S
C444 H462 0.930 . S
C445 C444 1.380 . S
C445 C452 1.357 . S
C446 C437 1.511 . S
C446 C447 1.341 . S
C446 C448 1.371 . S
C447 C446 1.341 . S
C447 C451 1.394 . S
C447 H463 0.930 . S
C448 C446 1.371 . S
C448 C449 1.392 . S
C448 H464 0.931 . S
C449 C448 1.392 . S
C449 C450 1.331 . S
C449 H467 0.932 . S
C450 C449 1.331 . S
C450 C451 1.336 . S
C451 C447 1.394 . S
C451 C450 1.336 . S
C451 H466 0.929 . S
C452 C442 1.386 . S
C452 C445 1.357 . S
C452 H465 0.928 . S
H453 C429 0.931 . S
H454 C431 0.930 . S
H455 C433 0.929 . S
H456 C434 0.931 . S
H457 C436 0.930 . S
H458 C440 0.931 . S
H459 C438 0.931 . S
H460 C442 0.931 . S
H461 C443 0.929 . S
H462 C444 0.930 . S
H463 C447 0.930 . S
H464 C448 0.931 . S
H465 C452 0.928 . S
H466 C451 0.929 . S
H467 C449 0.932 . S
C468 C469 1.386 . S
C468 C470 1.397 . S
C468 H492 0.931 . S
C469 C468 1.386 . S
C469 C473 1.397 . S
C470 C468 1.397 . S
C470 C471 1.384 . S
C470 H493 0.930 . S
C471 C470 1.384 . S
C471 C472 1.377 . S
C471 C474 1.481 . S
C472 C471 1.377 . S
C472 C473 1.389 . S
C472 H494 0.929 . S
C473 C469 1.397 . S
C473 C472 1.389 . S
C473 H495 0.931 . S
C474 C471 1.481 . S
C474 C475 1.387 . S
C474 C479 1.390 . S
C475 C474 1.387 . S
C475 C476 1.401 . S
C475 H496 0.930 . S
C476 C475 1.401 . S
C476 C477 1.376 . S
C476 C485 1.511 . S
C477 C476 1.376 . S
C477 C478 1.392 . S
C477 H498 0.931 . S
C478 C477 1.392 . S
C478 C479 1.361 . S
C478 C480 1.500 . S
C479 C474 1.390 . S
C479 C478 1.361 . S
C479 H497 0.931 . S
C480 C478 1.500 . S
C480 C481 1.371 . S
C480 C482 1.365 . S
C481 C480 1.371 . S
C481 C491 1.386 . S
C481 H499 0.931 . S
C482 C480 1.365 . S
C482 C483 1.409 . S
C482 H500 0.929 . S
C483 C482 1.409 . S
C483 C484 1.380 . S
C483 H501 0.930 . S
C484 C483 1.380 . S
C484 C491 1.357 . S
C485 C476 1.511 . S
C485 C486 1.341 . S
C485 C487 1.371 . S
C486 C485 1.341 . S
C486 C490 1.394 . S
C486 H502 0.930 . S
C487 C485 1.371 . S
C487 C488 1.392 . S
C487 H503 0.931 . S
C488 C487 1.392 . S
C488 C489 1.331 . S
C488 H506 0.932 . S
C489 C488 1.331 . S
C489 C490 1.336 . S
C490 C486 1.394 . S
C490 C489 1.336 . S
C490 H505 0.929 . S
C491 C481 1.386 . S
C491 C484 1.357 . S
C491 H504 0.928 . S
H492 C468 0.931 . S
H493 C470 0.930 . S
H494 C472 0.929 . S
H495 C473 0.931 . S
H496 C475 0.930 . S
H497 C479 0.931 . S
H498 C477 0.931 . S
H499 C481 0.931 . S
H500 C482 0.929 . S
H501 C483 0.930 . S
H502 C486 0.930 . S
H503 C487 0.931 . S
H504 C491 0.928 . S
H505 C490 0.929 . S
H506 C488 0.932 . S
C507 C508 1.386 . S
C507 C509 1.397 . S
C507 H531 0.931 . S
C508 C507 1.386 . S
C508 C512 1.397 . S
C509 C507 1.397 . S
C509 C510 1.384 . S
C509 H532 0.930 . S
C510 C509 1.384 . S
C510 C511 1.377 . S
C510 C513 1.481 . S
C511 C510 1.377 . S
C511 C512 1.389 . S
C511 H533 0.929 . S
C512 C508 1.397 . S
C512 C511 1.389 . S
C512 H534 0.931 . S
C513 C510 1.481 . S
C513 C514 1.387 . S
C513 C518 1.390 . S
C514 C513 1.387 . S
C514 C515 1.401 . S
C514 H535 0.930 . S
C515 C514 1.401 . S
C515 C516 1.376 . S
C515 C524 1.511 . S
C516 C515 1.376 . S
C516 C517 1.392 . S
C516 H537 0.931 . S
C517 C516 1.392 . S
C517 C518 1.361 . S
C517 C519 1.500 . S
C518 C513 1.390 . S
C518 C517 1.361 . S
C518 H536 0.931 . S
C519 C517 1.500 . S
C519 C520 1.371 . S
C519 C521 1.365 . S
C520 C519 1.371 . S
C520 C530 1.386 . S
C520 H538 0.931 . S
C521 C519 1.365 . S
C521 C522 1.409 . S
C521 H539 0.929 . S
C522 C521 1.409 . S
C522 C523 1.380 . S
C522 H540 0.930 . S
C523 C522 1.380 . S
C523 C530 1.357 . S
C524 C515 1.511 . S
C524 C525 1.341 . S
C524 C526 1.371 . S
C525 C524 1.341 . S
C525 C529 1.394 . S
C525 H541 0.930 . S
C526 C524 1.371 . S
C526 C527 1.392 . S
C526 H542 0.931 . S
C527 C526 1.392 . S
C527 C528 1.331 . S
C527 H545 0.932 . S
C528 C527 1.331 . S
C528 C529 1.336 . S
C529 C525 1.394 . S
C529 C528 1.336 . S
C529 H544 0.929 . S
C530 C520 1.386 . S
C530 C523 1.357 . S
C530 H543 0.928 . S
H531 C507 0.931 . S
H532 C509 0.930 . S
H533 C511 0.929 . S
H534 C512 0.931 . S
H535 C514 0.930 . S
H536 C518 0.931 . S
H537 C516 0.931 . S
H538 C520 0.931 . S
H539 C521 0.929 . S
H540 C522 0.930 . S
H541 C525 0.930 . S
H542 C526 0.931 . S
H543 C530 0.928 . S
H544 C529 0.929 . S
H545 C527 0.932 . S
C546 C547 1.386 . S
C546 C548 1.397 . S
C546 H570 0.931 . S
C547 C546 1.386 . S
C547 C551 1.397 . S
C548 C546 1.397 . S
C548 C549 1.384 . S
C548 H571 0.930 . S
C549 C548 1.384 . S
C549 C550 1.377 . S
C549 C552 1.481 . S
C550 C549 1.377 . S
C550 C551 1.389 . S
C550 H572 0.929 . S
C551 C547 1.397 . S
C551 C550 1.389 . S
C551 H573 0.931 . S
C552 C549 1.481 . S
C552 C553 1.387 . S
C552 C557 1.390 . S
C553 C552 1.387 . S
C553 C554 1.401 . S
C553 H574 0.930 . S
C554 C553 1.401 . S
C554 C555 1.376 . S
C554 C563 1.511 . S
C555 C554 1.376 . S
C555 C556 1.392 . S
C555 H576 0.931 . S
C556 C555 1.392 . S
C556 C557 1.361 . S
C556 C558 1.500 . S
C557 C552 1.390 . S
C557 C556 1.361 . S
C557 H575 0.931 . S
C558 C556 1.500 . S
C558 C559 1.371 . S
C558 C560 1.365 . S
C559 C558 1.371 . S
C559 C569 1.386 . S
C559 H577 0.931 . S
C560 C558 1.365 . S
C560 C561 1.409 . S
C560 H578 0.929 . S
C561 C560 1.409 . S
C561 C562 1.380 . S
C561 H579 0.930 . S
C562 C561 1.380 . S
C562 C569 1.357 . S
C563 C554 1.511 . S
C563 C564 1.341 . S
C563 C565 1.371 . S
C564 C563 1.341 . S
C564 C568 1.394 . S
C564 H580 0.930 . S
C565 C563 1.371 . S
C565 C566 1.392 . S
C565 H581 0.931 . S
C566 C565 1.392 . S
C566 C567 1.331 . S
C566 H584 0.932 . S
C567 C566 1.331 . S
C567 C568 1.336 . S
C568 C564 1.394 . S
C568 C567 1.336 . S
C568 H583 0.929 . S
C569 C559 1.386 . S
C569 C562 1.357 . S
C569 H582 0.928 . S
H570 C546 0.931 . S
H571 C548 0.930 . S
H572 C550 0.929 . S
H573 C551 0.931 . S
H574 C553 0.930 . S
H575 C557 0.931 . S
H576 C555 0.931 . S
H577 C559 0.931 . S
H578 C560 0.929 . S
H579 C561 0.930 . S
H580 C564 0.930 . S
H581 C565 0.931 . S
H582 C569 0.928 . S
H583 C568 0.929 . S
H584 C566 0.932 . S
C585 C586 1.386 . S
C585 C587 1.397 . S
C585 H609 0.931 . S
C586 C585 1.386 . S
C586 C590 1.397 . S
C587 C585 1.397 . S
C587 C588 1.384 . S
C587 H610 0.930 . S
C588 C587 1.384 . S
C588 C589 1.377 . S
C588 C591 1.481 . S
C589 C588 1.377 . S
C589 C590 1.389 . S
C589 H611 0.929 . S
C590 C586 1.397 . S
C590 C589 1.389 . S
C590 H612 0.931 . S
C591 C588 1.481 . S
C591 C592 1.387 . S
C591 C596 1.390 . S
C592 C591 1.387 . S
C592 C593 1.401 . S
C592 H613 0.930 . S
C593 C592 1.401 . S
C593 C594 1.376 . S
C593 C602 1.511 . S
C594 C593 1.376 . S
C594 C595 1.392 . S
C594 H615 0.931 . S
C595 C594 1.392 . S
C595 C596 1.361 . S
C595 C597 1.500 . S
C596 C591 1.390 . S
C596 C595 1.361 . S
C596 H614 0.931 . S
C597 C595 1.500 . S
C597 C598 1.371 . S
C597 C599 1.365 . S
C598 C597 1.371 . S
C598 C608 1.386 . S
C598 H616 0.931 . S
C599 C597 1.365 . S
C599 C600 1.409 . S
C599 H617 0.929 . S
C600 C599 1.409 . S
C600 C601 1.380 . S
C600 H618 0.930 . S
C601 C600 1.380 . S
C601 C608 1.357 . S
C602 C593 1.511 . S
C602 C603 1.341 . S
C602 C604 1.371 . S
C603 C602 1.341 . S
C603 C607 1.394 . S
C603 H619 0.930 . S
C604 C602 1.371 . S
C604 C605 1.392 . S
C604 H620 0.931 . S
C605 C604 1.392 . S
C605 C606 1.331 . S
C605 H623 0.932 . S
C606 C605 1.331 . S
C606 C607 1.336 . S
C607 C603 1.394 . S
C607 C606 1.336 . S
C607 H622 0.929 . S
C608 C598 1.386 . S
C608 C601 1.357 . S
C608 H621 0.928 . S
H609 C585 0.931 . S
H610 C587 0.930 . S
H611 C589 0.929 . S
H612 C590 0.931 . S
H613 C592 0.930 . S
H614 C596 0.931 . S
H615 C594 0.931 . S
H616 C598 0.931 . S
H617 C599 0.929 . S
H618 C600 0.930 . S
H619 C603 0.930 . S
H620 C604 0.931 . S
H621 C608 0.928 . S
H622 C607 0.929 . S
H623 C605 0.932 . S
C624 C625 1.386 1_655 S
C624 C626 1.397 1_655 S
C624 H648 0.931 . S
C625 C624 1.386 1_455 S
C625 C629 1.397 . S
C626 C624 1.397 1_455 S
C626 C627 1.384 . S
C626 H649 0.930 1_455 S
C627 C626 1.384 . S
C627 C628 1.377 . S
C627 C630 1.481 . S
C628 C627 1.377 . S
C628 C629 1.389 . S
C628 H650 0.929 . S
C629 C625 1.397 . S
C629 C628 1.389 . S
C629 H651 0.931 . S
C630 C627 1.481 . S
C630 C631 1.387 . S
C630 C635 1.390 . S
C631 C630 1.387 . S
C631 C632 1.401 . S
C631 H652 0.930 . S
C632 C631 1.401 . S
C632 C633 1.376 . S
C632 C641 1.511 . S
C633 C632 1.376 . S
C633 C634 1.392 . S
C633 H654 0.931 . S
C634 C633 1.392 . S
C634 C635 1.361 . S
C634 C636 1.500 . S
C635 C630 1.390 . S
C635 C634 1.361 . S
C635 H653 0.931 . S
C636 C634 1.500 . S
C636 C637 1.371 . S
C636 C638 1.365 . S
C637 C636 1.371 . S
C637 C647 1.386 . S
C637 H655 0.931 . S
C638 C636 1.365 . S
C638 C639 1.409 . S
C638 H656 0.929 . S
C639 C638 1.409 . S
C639 C640 1.380 . S
C639 H657 0.930 . S
C640 C639 1.380 . S
C640 C647 1.357 . S
C641 C632 1.511 . S
C641 C642 1.341 . S
C641 C643 1.371 . S
C642 C641 1.341 . S
C642 C646 1.394 . S
C642 H658 0.930 . S
C643 C641 1.371 . S
C643 C644 1.392 . S
C643 H659 0.931 . S
C644 C643 1.392 . S
C644 C645 1.331 . S
C644 H662 0.932 . S
C645 C644 1.331 . S
C645 C646 1.336 . S
C646 C642 1.394 . S
C646 C645 1.336 . S
C646 H661 0.929 . S
C647 C637 1.386 . S
C647 C640 1.357 . S
C647 H660 0.928 . S
H648 C624 0.931 . S
H649 C626 0.930 1_655 S
H650 C628 0.929 . S
H651 C629 0.931 . S
H652 C631 0.930 . S
H653 C635 0.931 . S
H654 C633 0.931 . S
H655 C637 0.931 . S
H656 C638 0.929 . S
H657 C639 0.930 . S
H658 C642 0.930 . S
H659 C643 0.931 . S
H660 C647 0.928 . S
H661 C646 0.929 . S
H662 C644 0.932 . S
C663 C664 1.386 . S
C663 C665 1.397 . S
C663 H687 0.931 . S
C664 C663 1.386 . S
C664 C668 1.397 . S
C665 C663 1.397 . S
C665 C666 1.384 . S
C665 H688 0.930 . S
C666 C665 1.384 . S
C666 C667 1.377 . S
C666 C669 1.481 . S
C667 C666 1.377 . S
C667 C668 1.389 . S
C667 H689 0.929 . S
C668 C664 1.397 . S
C668 C667 1.389 . S
C668 H690 0.931 . S
C669 C666 1.481 . S
C669 C670 1.387 . S
C669 C674 1.390 . S
C670 C669 1.387 . S
C670 C671 1.401 . S
C670 H691 0.930 . S
C671 C670 1.401 . S
C671 C672 1.376 . S
C671 C680 1.511 . S
C672 C671 1.376 . S
C672 C673 1.392 . S
C672 H693 0.931 . S
C673 C672 1.392 . S
C673 C674 1.361 . S
C673 C675 1.500 . S
C674 C669 1.390 . S
C674 C673 1.361 . S
C674 H692 0.931 . S
C675 C673 1.500 . S
C675 C676 1.371 . S
C675 C677 1.365 . S
C676 C675 1.371 . S
C676 C686 1.386 . S
C676 H694 0.931 . S
C677 C675 1.365 . S
C677 C678 1.409 . S
C677 H695 0.929 . S
C678 C677 1.409 . S
C678 C679 1.380 . S
C678 H696 0.930 . S
C679 C678 1.380 . S
C679 C686 1.357 . S
C680 C671 1.511 . S
C680 C681 1.341 . S
C680 C682 1.371 . S
C681 C680 1.341 . S
C681 C685 1.394 . S
C681 H697 0.930 . S
C682 C680 1.371 . S
C682 C683 1.392 . S
C682 H698 0.931 . S
C683 C682 1.392 . S
C683 C684 1.331 . S
C683 H701 0.932 . S
C684 C683 1.331 . S
C684 C685 1.336 . S
C685 C681 1.394 . S
C685 C684 1.336 . S
C685 H700 0.929 . S
C686 C676 1.386 . S
C686 C679 1.357 . S
C686 H699 0.928 . S
H687 C663 0.931 . S
H688 C665 0.930 . S
H689 C667 0.929 . S
H690 C668 0.931 . S
H691 C670 0.930 . S
H692 C674 0.931 . S
H693 C672 0.931 . S
H694 C676 0.931 . S
H695 C677 0.929 . S
H696 C678 0.930 . S
H697 C681 0.930 . S
H698 C682 0.931 . S
H699 C686 0.928 . S
H700 C685 0.929 . S
H701 C683 0.932 . S
Eu702 C711 2.828 . S
Eu702 O713 2.393 . S
Eu702 O715 2.418 . S
Eu702 O720 2.373 1_565 S
Eu702 O723 2.488 . S
Eu702 O724 2.471 1_565 S
Eu702 O725 2.349 1_565 S
Eu703 O712 2.373 1_545 S
Eu703 O716 2.488 . S
Eu703 O717 2.457 1_545 S
Eu703 O718 2.349 1_545 S
Eu703 O721 2.392 . S
Eu703 O722 2.418 . S
Eu703 C732 2.828 . S
C704 O722 1.208 1_556 S
C704 O725 1.279 . S
C705 C706 1.379 1_565 S
C705 C709 1.373 . S
C705 C711 1.505 . S
C706 C705 1.379 1_545 S
C706 C708 1.369 . S
C706 H734 0.930 . S
C707 C709 1.383 . S
C707 C710 1.382 1_565 S
C707 H735 0.930 . S
C708 C706 1.369 . S
C708 C710 1.392 . S
C708 H736 0.930 . S
C709 C705 1.373 . S
C709 C707 1.383 . S
C709 H737 0.931 . S
C710 C707 1.382 1_545 S
C710 C708 1.392 . S
C711 Eu702 2.828 . S
C711 C705 1.505 . S
C711 O723 1.249 . S
C711 O724 1.244 1_565 S
O712 Eu703 2.373 1_565 S
O712 C714 1.258 . S
O713 Eu702 2.393 . S
O713 C714 1.242 1_556 S
C714 O712 1.258 . S
C714 O713 1.242 1_554 S
O715 Eu702 2.418 . S
O715 C719 1.244 1_556 S
O716 Eu703 2.488 . S
O716 C732 1.249 . S
O717 Eu703 2.457 1_565 S
O717 C732 1.223 1_565 S
O718 Eu703 2.349 1_565 S
O718 C719 1.265 . S
C719 O715 1.244 1_554 S
C719 O718 1.265 . S
O720 Eu702 2.373 1_545 S
O720 C733 1.258 . S
O721 Eu703 2.392 . S
O721 C733 1.242 1_554 S
O722 Eu703 2.418 . S
O722 C704 1.208 1_554 S
O723 Eu702 2.488 . S
O723 C711 1.249 . S
O724 Eu702 2.471 1_545 S
O724 C711 1.244 1_545 S
O725 Eu702 2.349 1_545 S
O725 C704 1.279 . S
C726 C727 1.379 1_545 S
C726 C730 1.373 . S
C726 C732 1.505 . S
C727 C726 1.379 1_565 S
C727 C729 1.369 . S
C727 H738 0.930 . S
C728 C730 1.383 . S
C728 C731 1.382 1_545 S
C728 H739 0.930 . S
C729 C727 1.369 . S
C729 C731 1.392 . S
C729 H740 0.930 . S
C730 C726 1.373 . S
C730 C728 1.383 . S
C730 H741 0.931 . S
C731 C728 1.382 1_565 S
C731 C729 1.392 . S
C732 Eu703 2.828 . S
C732 O716 1.249 . S
C732 O717 1.223 1_545 S
C732 C726 1.505 . S
C733 O720 1.258 . S
C733 O721 1.242 1_556 S
H734 C706 0.930 . S
H735 C707 0.930 . S
H736 C708 0.930 . S
H737 C709 0.931 . S
H738 C727 0.930 . S
H739 C728 0.930 . S
H740 C729 0.930 . S
H741 C730 0.931 . S
Eu742 C751 2.828 . S
Eu742 O753 2.392 1_556 S
Eu742 O755 2.418 . S
Eu742 O760 2.373 1_455 S
Eu742 O763 2.488 . S
Eu742 O764 2.471 1_455 S
Eu742 O765 2.349 1_455 S
Eu743 O752 2.373 1_655 S
Eu743 O756 2.488 . S
Eu743 O757 2.471 1_655 S
Eu743 O758 2.349 1_655 S
Eu743 O761 2.400 . S
Eu743 O762 2.418 . S
Eu743 C772 2.828 . S
C744 O762 1.244 1_556 S
C744 O765 1.265 . S
C745 C746 1.379 1_455 S
C745 C749 1.373 . S
C745 C751 1.505 . S
C746 C745 1.379 1_655 S
C746 C748 1.369 . S
C746 H774 0.930 . S
C747 C749 1.383 . S
C747 C750 1.382 1_455 S
C747 H775 0.930 . S
C748 C746 1.369 . S
C748 C750 1.392 . S
C748 H776 0.930 . S
C749 C745 1.373 . S
C749 C747 1.383 . S
C749 H777 0.931 . S
C750 C747 1.382 1_655 S
C750 C748 1.392 . S
C751 Eu742 2.828 . S
C751 C745 1.505 . S
C751 O763 1.249 . S
C751 O764 1.244 1_455 S
O752 Eu743 2.373 1_455 S
O752 C754 1.258 . S
O753 Eu742 2.392 1_554 S
O753 C754 1.242 . S
C754 O752 1.258 . S
C754 O753 1.242 . S
O755 Eu742 2.418 . S
O755 C759 1.244 1_556 S
O756 Eu743 2.488 . S
O756 C772 1.249 . S
O757 Eu743 2.471 1_455 S
O757 C772 1.244 1_455 S
O758 Eu743 2.349 1_455 S
O758 C759 1.265 . S
C759 O755 1.244 1_554 S
C759 O758 1.265 . S
O760 Eu742 2.373 1_655 S
O760 C773 1.258 . S
O761 Eu743 2.400 . S
O761 C773 1.233 1_554 S
O762 Eu743 2.418 . S
O762 C744 1.244 1_554 S
O763 Eu742 2.488 . S
O763 C751 1.249 . S
O764 Eu742 2.471 1_655 S
O764 C751 1.244 1_655 S
O765 Eu742 2.349 1_655 S
O765 C744 1.265 . S
C766 C767 1.379 1_655 S
C766 C770 1.373 . S
C766 C772 1.505 . S
C767 C766 1.379 1_455 S
C767 C769 1.369 . S
C767 H778 0.930 . S
C768 C770 1.383 . S
C768 C771 1.382 1_655 S
C768 H779 0.930 . S
C769 C767 1.369 . S
C769 C771 1.392 . S
C769 H780 0.930 . S
C770 C766 1.373 . S
C770 C768 1.383 . S
C770 H781 0.931 . S
C771 C768 1.382 1_455 S
C771 C769 1.392 . S
C772 Eu743 2.828 . S
C772 O756 1.249 . S
C772 O757 1.244 1_655 S
C772 C766 1.505 . S
C773 O760 1.258 . S
C773 O761 1.233 1_556 S
H774 C746 0.930 . S
H775 C747 0.930 . S
H776 C748 0.930 . S
H777 C749 0.931 . S
H778 C767 0.930 . S
H779 C768 0.930 . S
H780 C769 0.930 . S
H781 C770 0.931 . S
Eu782 C791 2.828 . S
Eu782 O793 2.392 . S
Eu782 O795 2.418 . S
Eu782 O800 2.373 . S
Eu782 O803 2.488 . S
Eu782 O804 2.471 . S
Eu782 O805 2.349 . S
Eu783 O792 2.373 . S
Eu783 O796 2.488 . S
Eu783 O797 2.471 . S
Eu783 O798 2.349 . S
Eu783 O801 2.392 1_556 S
Eu783 O802 2.418 . S
Eu783 C812 2.828 . S
C784 O802 1.244 1_554 S
C784 O805 1.265 . S
C785 C786 1.379 . S
C785 C789 1.373 . S
C785 C791 1.505 . S
C786 C785 1.379 . S
C786 C788 1.369 . S
C786 H814 0.930 . S
C787 C789 1.383 . S
C787 C790 1.382 . S
C787 H815 0.930 . S
C788 C786 1.369 . S
C788 C790 1.392 . S
C788 H816 0.930 . S
C789 C785 1.373 . S
C789 C787 1.383 . S
C789 H817 0.931 . S
C790 C787 1.382 . S
C790 C788 1.392 . S
C791 Eu782 2.828 . S
C791 C785 1.505 . S
C791 O803 1.249 . S
C791 O804 1.244 . S
O792 Eu783 2.373 . S
O792 C794 1.258 . S
O793 Eu782 2.392 . S
O793 C794 1.242 1_554 S
C794 O792 1.258 . S
C794 O793 1.242 1_556 S
O795 Eu782 2.418 . S
O795 C799 1.244 1_554 S
O796 Eu783 2.488 . S
O796 C812 1.249 . S
O797 Eu783 2.471 . S
O797 C812 1.244 . S
O798 Eu783 2.349 . S
O798 C799 1.265 . S
C799 O795 1.244 1_556 S
C799 O798 1.265 . S
O800 Eu782 2.373 . S
O800 C813 1.258 . S
O801 Eu783 2.392 1_554 S
O801 C813 1.242 . S
O802 Eu783 2.418 . S
O802 C784 1.244 1_556 S
O803 Eu782 2.488 . S
O803 C791 1.249 . S
O804 Eu782 2.471 . S
O804 C791 1.244 . S
O805 Eu782 2.349 . S
O805 C784 1.265 . S
C806 C807 1.379 . S
C806 C810 1.373 . S
C806 C812 1.505 . S
C807 C806 1.379 . S
C807 C809 1.369 . S
C807 H818 0.930 . S
C808 C810 1.383 . S
C808 C811 1.382 . S
C808 H819 0.930 . S
C809 C807 1.369 . S
C809 C811 1.392 . S
C809 H820 0.930 . S
C810 C806 1.373 . S
C810 C808 1.383 . S
C810 H821 0.931 . S
C811 C808 1.382 . S
C811 C809 1.392 . S
C812 Eu783 2.828 . S
C812 O796 1.249 . S
C812 O797 1.244 . S
C812 C806 1.505 . S
C813 O800 1.258 . S
C813 O801 1.242 . S
H814 C786 0.930 . S
H815 C787 0.930 . S
H816 C788 0.930 . S
H817 C789 0.931 . S
H818 C807 0.930 . S
H819 C808 0.930 . S
H820 C809 0.930 . S
H821 C810 0.931 . S
Eu822 C831 2.828 . S
Eu822 O833 2.392 . S
Eu822 O835 2.418 . S
Eu822 O840 2.373 . S
Eu822 O843 2.488 . S
Eu822 O844 2.471 . S
Eu822 O845 2.349 . S
Eu823 O832 2.373 . S
Eu823 O836 2.488 . S
Eu823 O837 2.471 . S
Eu823 O838 2.349 . S
Eu823 O841 2.392 . S
Eu823 O842 2.418 . S
Eu823 C852 2.828 . S
C824 O842 1.244 . S
C824 O845 1.265 . S
C825 C826 1.379 . S
C825 C829 1.373 . S
C825 C831 1.505 . S
C826 C825 1.379 . S
C826 C828 1.369 . S
C826 H854 0.930 . S
C827 C829 1.383 . S
C827 C830 1.382 . S
C827 H855 0.930 . S
C828 C826 1.369 . S
C828 C830 1.392 . S
C828 H856 0.930 . S
C829 C825 1.373 . S
C829 C827 1.383 . S
C829 H857 0.931 . S
C830 C827 1.382 . S
C830 C828 1.392 . S
C831 Eu822 2.828 . S
C831 C825 1.505 . S
C831 O843 1.249 . S
C831 O844 1.244 . S
O832 Eu823 2.373 . S
O832 C834 1.258 . S
O833 Eu822 2.392 . S
O833 C834 1.242 . S
C834 O832 1.258 . S
C834 O833 1.242 . S
O835 Eu822 2.418 . S
O835 C839 1.244 . S
O836 Eu823 2.488 . S
O836 C852 1.249 . S
O837 Eu823 2.471 . S
O837 C852 1.244 . S
O838 Eu823 2.349 . S
O838 C839 1.265 . S
C839 O835 1.244 . S
C839 O838 1.265 . S
O840 Eu822 2.373 . S
O840 C853 1.258 . S
O841 Eu823 2.392 . S
O841 C853 1.242 . S
O842 Eu823 2.418 . S
O842 C824 1.244 . S
O843 Eu822 2.488 . S
O843 C831 1.249 . S
O844 Eu822 2.471 . S
O844 C831 1.244 . S
O845 Eu822 2.349 . S
O845 C824 1.265 . S
C846 C847 1.379 . S
C846 C850 1.373 . S
C846 C852 1.505 . S
C847 C846 1.379 . S
C847 C849 1.369 . S
C847 H858 0.930 . S
C848 C850 1.383 . S
C848 C851 1.382 . S
C848 H859 0.930 . S
C849 C847 1.369 . S
C849 C851 1.392 . S
C849 H860 0.930 . S
C850 C846 1.373 . S
C850 C848 1.383 . S
C850 H861 0.931 . S
C851 C848 1.382 . S
C851 C849 1.392 . S
C852 Eu823 2.828 . S
C852 O836 1.249 . S
C852 O837 1.244 . S
C852 C846 1.505 . S
C853 O840 1.258 . S
C853 O841 1.242 . S
H854 C826 0.930 . S
H855 C827 0.930 . S
H856 C828 0.930 . S
H857 C829 0.931 . S
H858 C847 0.930 . S
H859 C848 0.930 . S
H860 C849 0.930 . S
H861 C850 0.931 . S
Eu862 C871 2.828 . S
Eu862 O873 2.392 . S
Eu862 O875 2.418 . S
Eu862 O880 2.373 . S
Eu862 O883 2.488 . S
Eu862 O884 2.471 . S
Eu862 O885 2.349 . S
Eu863 O872 2.373 . S
Eu863 O876 2.488 . S
Eu863 O877 2.471 . S
Eu863 O878 2.349 . S
Eu863 O881 2.392 . S
Eu863 O882 2.418 . S
Eu863 C892 2.828 . S
C864 O882 1.244 . S
C864 O885 1.265 . S
C865 C866 1.379 . S
C865 C869 1.373 . S
C865 C871 1.505 . S
C866 C865 1.379 . S
C866 C868 1.369 . S
C866 H894 0.930 . S
C867 C869 1.383 . S
C867 C870 1.382 . S
C867 H895 0.930 . S
C868 C866 1.369 . S
C868 C870 1.392 . S
C868 H896 0.930 . S
C869 C865 1.373 . S
C869 C867 1.383 . S
C869 H897 0.931 . S
C870 C867 1.382 . S
C870 C868 1.392 . S
C871 Eu862 2.828 . S
C871 C865 1.505 . S
C871 O883 1.249 . S
C871 O884 1.244 . S
O872 Eu863 2.373 . S
O872 C874 1.258 . S
O873 Eu862 2.392 . S
O873 C874 1.242 . S
C874 O872 1.258 . S
C874 O873 1.242 . S
O875 Eu862 2.418 . S
O875 C879 1.244 . S
O876 Eu863 2.488 . S
O876 C892 1.249 . S
O877 Eu863 2.471 . S
O877 C892 1.244 . S
O878 Eu863 2.349 . S
O878 C879 1.265 . S
C879 O875 1.244 . S
C879 O878 1.265 . S
O880 Eu862 2.373 . S
O880 C893 1.258 . S
O881 Eu863 2.392 . S
O881 C893 1.242 . S
O882 Eu863 2.418 . S
O882 C864 1.244 . S
O883 Eu862 2.488 . S
O883 C871 1.249 . S
O884 Eu862 2.471 . S
O884 C871 1.244 . S
O885 Eu862 2.349 . S
O885 C864 1.265 . S
C886 C887 1.379 . S
C886 C890 1.373 . S
C886 C892 1.505 . S
C887 C886 1.379 . S
C887 C889 1.369 . S
C887 H898 0.930 . S
C888 C890 1.383 . S
C888 C891 1.382 . S
C888 H899 0.930 . S
C889 C887 1.369 . S
C889 C891 1.392 . S
C889 H900 0.930 . S
C890 C886 1.373 . S
C890 C888 1.383 . S
C890 H901 0.931 . S
C891 C888 1.382 . S
C891 C889 1.392 . S
C892 Eu863 2.828 . S
C892 O876 1.249 . S
C892 O877 1.244 . S
C892 C886 1.505 . S
C893 O880 1.258 . S
C893 O881 1.242 . S
H894 C866 0.930 . S
H895 C867 0.930 . S
H896 C868 0.930 . S
H897 C869 0.931 . S
H898 C887 0.930 . S
H899 C888 0.930 . S
H900 C889 0.930 . S
H901 C890 0.931 . S
Eu902 C911 2.828 . S
Eu902 O913 2.392 . S
Eu902 O915 2.418 . S
Eu902 O920 2.373 . S
Eu902 O923 2.488 . S
Eu902 O924 2.471 . S
Eu902 O925 2.349 . S
Eu903 O912 2.373 . S
Eu903 O916 2.488 . S
Eu903 O917 2.471 . S
Eu903 O918 2.349 . S
Eu903 O921 2.392 . S
Eu903 O922 2.418 . S
Eu903 C932 2.828 . S
C904 O922 1.244 . S
C904 O925 1.265 . S
C905 C906 1.379 . S
C905 C909 1.373 . S
C905 C911 1.505 . S
C906 C905 1.379 . S
C906 C908 1.369 . S
C906 H934 0.930 . S
C907 C909 1.383 . S
C907 C910 1.382 . S
C907 H935 0.930 . S
C908 C906 1.369 . S
C908 C910 1.392 . S
C908 H936 0.930 . S
C909 C905 1.373 . S
C909 C907 1.383 . S
C909 H937 0.931 . S
C910 C907 1.382 . S
C910 C908 1.392 . S
C911 Eu902 2.828 . S
C911 C905 1.505 . S
C911 O923 1.249 . S
C911 O924 1.244 . S
O912 Eu903 2.373 . S
O912 C914 1.258 . S
O913 Eu902 2.392 . S
O913 C914 1.242 . S
C914 O912 1.258 . S
C914 O913 1.242 . S
O915 Eu902 2.418 . S
O915 C919 1.244 . S
O916 Eu903 2.488 . S
O916 C932 1.249 . S
O917 Eu903 2.471 . S
O917 C932 1.244 . S
O918 Eu903 2.349 . S
O918 C919 1.265 . S
C919 O915 1.244 . S
C919 O918 1.265 . S
O920 Eu902 2.373 . S
O920 C933 1.258 . S
O921 Eu903 2.392 . S
O921 C933 1.242 . S
O922 Eu903 2.418 . S
O922 C904 1.244 . S
O923 Eu902 2.488 . S
O923 C911 1.249 . S
O924 Eu902 2.471 . S
O924 C911 1.244 . S
O925 Eu902 2.349 . S
O925 C904 1.265 . S
C926 C927 1.379 . S
C926 C930 1.373 . S
C926 C932 1.505 . S
C927 C926 1.379 . S
C927 C929 1.369 . S
C927 H938 0.930 . S
C928 C930 1.383 . S
C928 C931 1.382 . S
C928 H939 0.930 . S
C929 C927 1.369 . S
C929 C931 1.392 . S
C929 H940 0.930 . S
C930 C926 1.373 . S
C930 C928 1.383 . S
C930 H941 0.931 . S
C931 C928 1.382 . S
C931 C929 1.392 . S
C932 Eu903 2.828 . S
C932 O916 1.249 . S
C932 O917 1.244 . S
C932 C926 1.505 . S
C933 O920 1.258 . S
C933 O921 1.242 . S
H934 C906 0.930 . S
H935 C907 0.930 . S
H936 C908 0.930 . S
H937 C909 0.931 . S
H938 C927 0.930 . S
H939 C928 0.930 . S
H940 C929 0.930 . S
H941 C930 0.931 . S
Eu942 C951 2.828 . S
Eu942 O953 2.392 . S
Eu942 O955 2.418 . S
Eu942 O960 2.373 . S
Eu942 O963 2.488 . S
Eu942 O964 2.471 . S
Eu942 O965 2.349 . S
Eu943 O952 2.373 . S
Eu943 O956 2.488 . S
Eu943 O957 2.471 . S
Eu943 O958 2.349 . S
Eu943 O961 2.392 . S
Eu943 O962 2.418 . S
Eu943 C972 2.828 . S
C944 O962 1.244 . S
C944 O965 1.265 . S
C945 C946 1.379 . S
C945 C949 1.373 . S
C945 C951 1.505 . S
C946 C945 1.379 . S
C946 C948 1.369 . S
C946 H974 0.930 . S
C947 C949 1.383 . S
C947 C950 1.382 . S
C947 H975 0.930 . S
C948 C946 1.369 . S
C948 C950 1.392 . S
C948 H976 0.930 . S
C949 C945 1.373 . S
C949 C947 1.383 . S
C949 H977 0.931 . S
C950 C947 1.382 . S
C950 C948 1.392 . S
C951 Eu942 2.828 . S
C951 C945 1.505 . S
C951 O963 1.249 . S
C951 O964 1.244 . S
O952 Eu943 2.373 . S
O952 C954 1.258 . S
O953 Eu942 2.392 . S
O953 C954 1.242 . S
C954 O952 1.258 . S
C954 O953 1.242 . S
O955 Eu942 2.418 . S
O955 C959 1.244 . S
O956 Eu943 2.488 . S
O956 C972 1.249 . S
O957 Eu943 2.471 . S
O957 C972 1.244 . S
O958 Eu943 2.349 . S
O958 C959 1.265 . S
C959 O955 1.244 . S
C959 O958 1.265 . S
O960 Eu942 2.373 . S
O960 C973 1.258 . S
O961 Eu943 2.392 . S
O961 C973 1.242 . S
O962 Eu943 2.418 . S
O962 C944 1.244 . S
O963 Eu942 2.488 . S
O963 C951 1.249 . S
O964 Eu942 2.471 . S
O964 C951 1.244 . S
O965 Eu942 2.349 . S
O965 C944 1.265 . S
C966 C967 1.379 . S
C966 C970 1.373 . S
C966 C972 1.505 . S
C967 C966 1.379 . S
C967 C969 1.369 . S
C967 H978 0.930 . S
C968 C970 1.383 . S
C968 C971 1.382 . S
C968 H979 0.930 . S
C969 C967 1.369 . S
C969 C971 1.392 . S
C969 H980 0.930 . S
C970 C966 1.373 . S
C970 C968 1.383 . S
C970 H981 0.931 . S
C971 C968 1.382 . S
C971 C969 1.392 . S
C972 Eu943 2.828 . S
C972 O956 1.249 . S
C972 O957 1.244 . S
C972 C966 1.505 . S
C973 O960 1.258 . S
C973 O961 1.242 . S
H974 C946 0.930 . S
H975 C947 0.930 . S
H976 C948 0.930 . S
H977 C949 0.931 . S
H978 C967 0.930 . S
H979 C968 0.930 . S
H980 C969 0.930 . S
H981 C970 0.931 . S
Eu982 C991 2.828 . S
Eu982 O993 2.392 . S
Eu982 O995 2.418 . S
Eu982 O1000 2.373 . S
Eu982 O1003 2.488 . S
Eu982 O1004 2.471 . S
Eu982 O1005 2.349 . S
Eu983 O992 2.373 . S
Eu983 O996 2.488 . S
Eu983 O997 2.471 . S
Eu983 O998 2.349 . S
Eu983 O1001 2.392 . S
Eu983 O1002 2.418 . S
Eu983 C1012 2.828 . S
C984 O1002 1.244 . S
C984 O1005 1.265 . S
C985 C986 1.379 . S
C985 C989 1.373 . S
C985 C991 1.505 . S
C986 C985 1.379 . S
C986 C988 1.369 . S
C986 H1014 0.930 . S
C987 C989 1.383 . S
C987 C990 1.382 . S
C987 H1015 0.930 . S
C988 C986 1.369 . S
C988 C990 1.392 . S
C988 H1016 0.930 . S
C989 C985 1.373 . S
C989 C987 1.383 . S
C989 H1017 0.931 . S
C990 C987 1.382 . S
C990 C988 1.392 . S
C991 Eu982 2.828 . S
C991 C985 1.505 . S
C991 O1003 1.249 . S
C991 O1004 1.244 . S
O992 Eu983 2.373 . S
O992 C994 1.258 . S
O993 Eu982 2.392 . S
O993 C994 1.242 . S
C994 O992 1.258 . S
C994 O993 1.242 . S
O995 Eu982 2.418 . S
O995 C999 1.244 . S
O996 Eu983 2.488 . S
O996 C1012 1.249 . S
O997 Eu983 2.471 . S
O997 C1012 1.244 . S
O998 Eu983 2.349 . S
O998 C999 1.265 . S
C999 O995 1.244 . S
C999 O998 1.265 . S
O1000 Eu982 2.373 . S
O1000 C1013 1.258 . S
O1001 Eu983 2.392 . S
O1001 C1013 1.242 . S
O1002 Eu983 2.418 . S
O1002 C984 1.244 . S
O1003 Eu982 2.488 . S
O1003 C991 1.249 . S
O1004 Eu982 2.471 . S
O1004 C991 1.244 . S
O1005 Eu982 2.349 . S
O1005 C984 1.265 . S
C1006 C1007 1.379 . S
C1006 C1010 1.373 . S
C1006 C1012 1.505 . S
C1007 C1006 1.379 . S
C1007 C1009 1.369 . S
C1007 H1018 0.930 . S
C1008 C1010 1.383 . S
C1008 C1011 1.382 . S
C1008 H1019 0.930 . S
C1009 C1007 1.369 . S
C1009 C1011 1.392 . S
C1009 H1020 0.930 . S
C1010 C1006 1.373 . S
C1010 C1008 1.383 . S
C1010 H1021 0.931 . S
C1011 C1008 1.382 . S
C1011 C1009 1.392 . S
C1012 Eu983 2.828 . S
C1012 O996 1.249 . S
C1012 O997 1.244 . S
C1012 C1006 1.505 . S
C1013 O1000 1.258 . S
C1013 O1001 1.242 . S
H1014 C986 0.930 . S
H1015 C987 0.930 . S
H1016 C988 0.930 . S
H1017 C989 0.931 . S
H1018 C1007 0.930 . S
H1019 C1008 0.930 . S
H1020 C1009 0.930 . S
H1021 C1010 0.931 . S
Eu1022 C1031 2.828 . S
Eu1022 O1033 2.392 . S
Eu1022 O1035 2.418 . S
Eu1022 O1040 2.373 . S
Eu1022 O1043 2.488 . S
Eu1022 O1044 2.471 . S
Eu1022 O1045 2.349 . S
Eu1023 O1032 2.373 . S
Eu1023 O1036 2.488 . S
Eu1023 O1037 2.471 . S
Eu1023 O1038 2.349 . S
Eu1023 O1041 2.392 . S
Eu1023 O1042 2.418 . S
Eu1023 C1052 2.828 . S
C1024 O1042 1.244 . S
C1024 O1045 1.265 . S
C1025 C1026 1.379 . S
C1025 C1029 1.373 . S
C1025 C1031 1.505 . S
C1026 C1025 1.379 . S
C1026 C1028 1.369 . S
C1026 H1054 0.930 . S
C1027 C1029 1.383 . S
C1027 C1030 1.382 . S
C1027 H1055 0.930 . S
C1028 C1026 1.369 . S
C1028 C1030 1.392 . S
C1028 H1056 0.930 . S
C1029 C1025 1.373 . S
C1029 C1027 1.383 . S
C1029 H1057 0.931 . S
C1030 C1027 1.382 . S
C1030 C1028 1.392 . S
C1031 Eu1022 2.828 . S
C1031 C1025 1.505 . S
C1031 O1043 1.249 . S
C1031 O1044 1.244 . S
O1032 Eu1023 2.373 . S
O1032 C1034 1.258 . S
O1033 Eu1022 2.392 . S
O1033 C1034 1.242 . S
C1034 O1032 1.258 . S
C1034 O1033 1.242 . S
O1035 Eu1022 2.418 . S
O1035 C1039 1.244 . S
O1036 Eu1023 2.488 . S
O1036 C1052 1.249 . S
O1037 Eu1023 2.471 . S
O1037 C1052 1.244 . S
O1038 Eu1023 2.349 . S
O1038 C1039 1.265 . S
C1039 O1035 1.244 . S
C1039 O1038 1.265 . S
O1040 Eu1022 2.373 . S
O1040 C1053 1.258 . S
O1041 Eu1023 2.392 . S
O1041 C1053 1.242 . S
O1042 Eu1023 2.418 . S
O1042 C1024 1.244 . S
O1043 Eu1022 2.488 . S
O1043 C1031 1.249 . S
O1044 Eu1022 2.471 . S
O1044 C1031 1.244 . S
O1045 Eu1022 2.349 . S
O1045 C1024 1.265 . S
C1046 C1047 1.379 . S
C1046 C1050 1.373 . S
C1046 C1052 1.505 . S
C1047 C1046 1.379 . S
C1047 C1049 1.369 . S
C1047 H1058 0.930 . S
C1048 C1050 1.383 . S
C1048 C1051 1.382 . S
C1048 H1059 0.930 . S
C1049 C1047 1.369 . S
C1049 C1051 1.392 . S
C1049 H1060 0.930 . S
C1050 C1046 1.373 . S
C1050 C1048 1.383 . S
C1050 H1061 0.931 . S
C1051 C1048 1.382 . S
C1051 C1049 1.392 . S
C1052 Eu1023 2.828 . S
C1052 O1036 1.249 . S
C1052 O1037 1.244 . S
C1052 C1046 1.505 . S
C1053 O1040 1.258 . S
C1053 O1041 1.242 . S
H1054 C1026 0.930 . S
H1055 C1027 0.930 . S
H1056 C1028 0.930 . S
H1057 C1029 0.931 . S
H1058 C1047 0.930 . S
H1059 C1048 0.930 . S
H1060 C1049 0.930 . S
H1061 C1050 0.931 . S
H1062 C1070 0.950 . S
H1063 C1075 0.950 . S
H1064 C1072 0.950 . S
H1065 C1074 0.950 . S
H1066 C1076 0.950 . S
H1067 C1078 0.950 . S
H1068 C1080 0.950 . S
H1069 C1081 0.950 . S
C1070 H1062 0.950 . S
C1070 C1071 1.386 . S
C1070 C1072 1.391 . S
C1071 C1070 1.386 . S
C1071 C1075 1.393 . S
C1072 H1064 0.950 . S
C1072 C1070 1.391 . S
C1072 C1073 1.400 . S
C1073 C1072 1.400 . S
C1073 C1074 1.398 . S
C1073 C1079 1.491 . S
C1074 H1065 0.950 . S
C1074 C1073 1.398 . S
C1074 C1075 1.391 . S
C1075 H1063 0.950 . S
C1075 C1071 1.393 . S
C1075 C1074 1.391 . S
C1076 H1066 0.950 . S
C1076 C1077 1.386 . S
C1076 C1078 1.391 . S
C1077 C1076 1.386 . S
C1077 C1081 1.393 . S
C1078 H1067 0.950 . S
C1078 C1076 1.391 . S
C1078 C1079 1.400 . S
C1079 C1073 1.491 . S
C1079 C1078 1.400 . S
C1079 C1080 1.398 . S
C1080 H1068 0.950 . S
C1080 C1079 1.398 . S
C1080 C1081 1.391 . S
C1081 H1069 0.950 . S
C1081 C1077 1.393 . S
C1081 C1080 1.391 . S
H1082 C1090 0.950 . S
H1083 C1095 0.950 . S
H1084 C1092 0.950 . S
H1085 C1094 0.950 . S
H1086 C1096 0.950 . S
H1087 C1098 0.950 . S
H1088 C1100 0.950 . S
H1089 C1101 0.950 . S
C1090 H1082 0.950 . S
C1090 C1091 1.386 . S
C1090 C1092 1.391 . S
C1091 C1090 1.386 . S
C1091 C1095 1.393 . S
C1092 H1084 0.950 . S
C1092 C1090 1.391 . S
C1092 C1093 1.400 . S
C1093 C1092 1.400 . S
C1093 C1094 1.398 . S
C1093 C1099 1.491 . S
C1094 H1085 0.950 . S
C1094 C1093 1.398 . S
C1094 C1095 1.391 . S
C1095 H1083 0.950 . S
C1095 C1091 1.393 . S
C1095 C1094 1.391 . S
C1096 H1086 0.950 . S
C1096 C1097 1.386 . S
C1096 C1098 1.391 . S
C1097 C1096 1.386 . S
C1097 C1101 1.393 . S
C1098 H1087 0.950 . S
C1098 C1096 1.391 . S
C1098 C1099 1.400 . S
C1099 C1093 1.491 . S
C1099 C1098 1.400 . S
C1099 C1100 1.398 . S
C1100 H1088 0.950 . S
C1100 C1099 1.398 . S
C1100 C1101 1.391 . S
C1101 H1089 0.950 . S
C1101 C1097 1.393 . S
C1101 C1100 1.391 . S
H1102 C1110 0.950 . S
H1103 C1115 0.950 . S
H1104 C1112 0.988 . S
H1105 C1114 0.950 . S
H1106 C1116 0.950 . S
H1107 C1118 0.950 . S
H1108 C1120 0.950 1_556 S
H1109 C1121 0.950 1_556 S
C1110 H1102 0.950 . S
C1110 C1111 1.386 . S
C1110 C1112 1.391 . S
C1111 C1110 1.386 . S
C1111 C1115 1.393 . S
C1112 H1104 0.988 . S
C1112 C1110 1.391 . S
C1112 C1113 1.400 . S
C1113 C1112 1.400 . S
C1113 C1114 1.398 . S
C1113 C1119 1.491 . S
C1114 H1105 0.950 . S
C1114 C1113 1.398 . S
C1114 C1115 1.391 . S
C1115 H1103 0.950 . S
C1115 C1111 1.393 . S
C1115 C1114 1.391 . S
C1116 H1106 0.950 . S
C1116 C1117 1.386 . S
C1116 C1118 1.391 . S
C1117 C1116 1.386 . S
C1117 C1121 1.393 . S
C1118 H1107 0.950 . S
C1118 C1116 1.391 . S
C1118 C1119 1.400 . S
C1119 C1113 1.491 . S
C1119 C1118 1.400 . S
C1119 C1120 1.398 . S
C1120 H1108 0.950 1_554 S
C1120 C1119 1.398 . S
C1120 C1121 1.391 . S
C1121 H1109 0.950 1_554 S
C1121 C1117 1.393 . S
C1121 C1120 1.391 . S
H1122 C1130 0.950 . S
H1123 C1135 0.950 . S
H1124 C1132 0.950 . S
H1125 C1134 0.950 . S
H1126 C1136 0.950 . S
H1127 C1138 0.950 . S
H1128 C1140 0.950 . S
H1129 C1141 0.950 . S
C1130 H1122 0.950 . S
C1130 C1131 1.386 . S
C1130 C1132 1.391 . S
C1131 C1130 1.386 . S
C1131 C1135 1.393 . S
C1132 H1124 0.950 . S
C1132 C1130 1.391 . S
C1132 C1133 1.400 . S
C1133 C1132 1.400 . S
C1133 C1134 1.398 . S
C1133 C1139 1.491 . S
C1134 H1125 0.950 . S
C1134 C1133 1.398 . S
C1134 C1135 1.391 . S
C1135 H1123 0.950 . S
C1135 C1131 1.393 . S
C1135 C1134 1.391 . S
C1136 H1126 0.950 . S
C1136 C1137 1.386 . S
C1136 C1138 1.391 . S
C1137 C1136 1.386 . S
C1137 C1141 1.393 . S
C1138 H1127 0.950 . S
C1138 C1136 1.391 . S
C1138 C1139 1.400 . S
C1139 C1133 1.491 . S
C1139 C1138 1.400 . S
C1139 C1140 1.398 . S
C1140 H1128 0.950 . S
C1140 C1139 1.398 . S
C1140 C1141 1.391 . S
C1141 H1129 0.950 . S
C1141 C1137 1.393 . S
C1141 C1140 1.391 . S
H1142 C1150 0.950 . S
H1143 C1155 0.950 . S
H1144 C1152 0.950 . S
H1145 C1154 0.950 . S
H1146 C1156 0.950 . S
H1147 C1158 0.950 . S
H1148 C1160 0.950 . S
H1149 C1161 0.950 . S
C1150 H1142 0.950 . S
C1150 C1151 1.386 . S
C1150 C1152 1.391 . S
C1151 C1150 1.386 . S
C1151 C1155 1.393 . S
C1152 H1144 0.950 . S
C1152 C1150 1.391 . S
C1152 C1153 1.400 . S
C1153 C1152 1.400 . S
C1153 C1154 1.398 . S
C1153 C1159 1.491 . S
C1154 H1145 0.950 . S
C1154 C1153 1.398 . S
C1154 C1155 1.391 . S
C1155 H1143 0.950 . S
C1155 C1151 1.393 . S
C1155 C1154 1.391 . S
C1156 H1146 0.950 . S
C1156 C1157 1.386 . S
C1156 C1158 1.391 . S
C1157 C1156 1.386 . S
C1157 C1161 1.393 . S
C1158 H1147 0.950 . S
C1158 C1156 1.391 . S
C1158 C1159 1.400 . S
C1159 C1153 1.491 . S
C1159 C1158 1.400 . S
C1159 C1160 1.398 . S
C1160 H1148 0.950 . S
C1160 C1159 1.398 . S
C1160 C1161 1.391 . S
C1161 H1149 0.950 . S
C1161 C1157 1.393 . S
C1161 C1160 1.391 . S
H1162 C1170 0.950 . S
H1163 C1175 0.950 . S
H1164 C1172 0.950 . S
H1165 C1174 0.950 . S
H1166 C1176 0.950 . S
H1167 C1178 0.950 . S
H1168 C1180 0.950 . S
H1169 C1181 0.950 . S
C1170 H1162 0.950 . S
C1170 C1171 1.386 . S
C1170 C1172 1.391 . S
C1171 C1170 1.386 . S
C1171 C1175 1.393 . S
C1172 H1164 0.950 . S
C1172 C1170 1.391 . S
C1172 C1173 1.400 . S
C1173 C1172 1.400 . S
C1173 C1174 1.398 . S
C1173 C1179 1.491 . S
C1174 H1165 0.950 . S
C1174 C1173 1.398 . S
C1174 C1175 1.391 . S
C1175 H1163 0.950 . S
C1175 C1171 1.393 . S
C1175 C1174 1.391 . S
C1176 H1166 0.950 . S
C1176 C1177 1.386 . S
C1176 C1178 1.391 . S
C1177 C1176 1.386 . S
C1177 C1181 1.393 . S
C1178 H1167 0.950 . S
C1178 C1176 1.391 . S
C1178 C1179 1.400 . S
C1179 C1173 1.491 . S
C1179 C1178 1.400 . S
C1179 C1180 1.398 . S
C1180 H1168 0.950 . S
C1180 C1179 1.398 . S
C1180 C1181 1.391 . S
C1181 H1169 0.950 . S
C1181 C1177 1.393 . S
C1181 C1180 1.391 . S
H1182 C1190 0.950 . S
H1183 C1195 0.950 . S
H1184 C1192 0.950 . S
H1185 C1194 0.950 . S
H1186 C1196 0.950 . S
H1187 C1198 0.950 . S
H1188 C1200 0.950 . S
H1189 C1201 0.950 1_554 S
C1190 H1182 0.950 . S
C1190 C1191 1.386 . S
C1190 C1192 1.391 . S
C1191 C1190 1.386 . S
C1191 C1195 1.393 . S
C1192 H1184 0.950 . S
C1192 C1190 1.391 . S
C1192 C1193 1.400 . S
C1193 C1192 1.400 . S
C1193 C1194 1.398 . S
C1193 C1199 1.491 . S
C1194 H1185 0.950 . S
C1194 C1193 1.398 . S
C1194 C1195 1.391 . S
C1195 H1183 0.950 . S
C1195 C1191 1.393 . S
C1195 C1194 1.391 . S
C1196 H1186 0.950 . S
C1196 C1197 1.386 . S
C1196 C1198 1.391 . S
C1197 C1196 1.386 . S
C1197 C1201 1.393 . S
C1198 H1187 0.950 . S
C1198 C1196 1.391 . S
C1198 C1199 1.400 . S
C1199 C1193 1.491 . S
C1199 C1198 1.400 . S
C1199 C1200 1.398 . S
C1200 H1188 0.950 . S
C1200 C1199 1.398 . S
C1200 C1201 1.391 . S
C1201 H1189 0.950 1_556 S
C1201 C1197 1.393 . S
C1201 C1200 1.391 . S
H1202 C1210 0.950 . S
H1203 C1215 0.950 . S
H1204 C1212 0.950 . S
H1205 C1214 0.950 . S
H1206 C1216 0.950 . S
H1207 C1218 0.950 . S
H1208 C1220 0.950 . S
H1209 C1221 0.950 . S
C1210 H1202 0.950 . S
C1210 C1211 1.386 . S
C1210 C1212 1.391 . S
C1211 C1210 1.386 . S
C1211 C1215 1.393 . S
C1212 H1204 0.950 . S
C1212 C1210 1.391 . S
C1212 C1213 1.400 . S
C1213 C1212 1.400 . S
C1213 C1214 1.398 . S
C1213 C1219 1.491 . S
C1214 H1205 0.950 . S
C1214 C1213 1.398 . S
C1214 C1215 1.391 . S
C1215 H1203 0.950 . S
C1215 C1211 1.393 . S
C1215 C1214 1.391 . S
C1216 H1206 0.950 . S
C1216 C1217 1.386 . S
C1216 C1218 1.391 . S
C1217 C1216 1.386 . S
C1217 C1221 1.393 . S
C1218 H1207 0.950 . S
C1218 C1216 1.391 . S
C1218 C1219 1.400 . S
C1219 C1213 1.491 . S
C1219 C1218 1.400 . S
C1219 C1220 1.398 . S
C1220 H1208 0.950 . S
C1220 C1219 1.398 . S
C1220 C1221 1.391 . S
C1221 H1209 0.950 . S
C1221 C1217 1.393 . S
C1221 C1220 1.391 . S
H1222 C1230 0.950 . S
H1223 C1235 0.950 . S
H1224 C1232 0.950 . S
H1225 C1234 0.950 . S
H1226 C1236 0.950 . S
H1227 C1238 0.950 . S
H1228 C1240 0.950 . S
H1229 C1241 0.950 . S
C1230 H1222 0.950 . S
C1230 C1231 1.386 . S
C1230 C1232 1.391 . S
C1231 C1230 1.386 . S
C1231 C1235 1.393 . S
C1232 H1224 0.950 . S
C1232 C1230 1.391 . S
C1232 C1233 1.400 . S
C1233 C1232 1.400 . S
C1233 C1234 1.398 . S
C1233 C1239 1.491 . S
C1234 H1225 0.950 . S
C1234 C1233 1.398 . S
C1234 C1235 1.391 . S
C1235 H1223 0.950 . S
C1235 C1231 1.393 . S
C1235 C1234 1.391 . S
C1236 H1226 0.950 . S
C1236 C1237 1.386 . S
C1236 C1238 1.391 . S
C1237 C1236 1.386 . S
C1237 C1241 1.393 . S
C1238 H1227 0.950 . S
C1238 C1236 1.391 . S
C1238 C1239 1.400 . S
C1239 C1233 1.491 . S
C1239 C1238 1.400 . S
C1239 C1240 1.398 . S
C1240 H1228 0.950 . S
C1240 C1239 1.398 . S
C1240 C1241 1.391 . S
C1241 H1229 0.950 . S
C1241 C1237 1.393 . S
C1241 C1240 1.391 . S
H1242 C1250 0.950 . S
H1243 C1255 0.950 . S
H1244 C1252 0.950 . S
H1245 C1254 0.950 . S
H1246 C1256 0.950 1_556 S
H1247 C1258 0.950 . S
H1248 C1260 0.950 . S
H1249 C1261 0.950 . S
C1250 H1242 0.950 . S
C1250 C1251 1.386 . S
C1250 C1252 1.391 . S
C1251 C1250 1.386 . S
C1251 C1255 1.393 . S
C1252 H1244 0.950 . S
C1252 C1250 1.391 . S
C1252 C1253 1.400 . S
C1253 C1252 1.400 . S
C1253 C1254 1.398 . S
C1253 C1259 1.491 . S
C1254 H1245 0.950 . S
C1254 C1253 1.398 . S
C1254 C1255 1.391 . S
C1255 H1243 0.950 . S
C1255 C1251 1.393 . S
C1255 C1254 1.391 . S
C1256 H1246 0.950 1_554 S
C1256 C1257 1.386 . S
C1256 C1258 1.391 . S
C1257 C1256 1.386 . S
C1257 C1261 1.393 . S
C1258 H1247 0.950 . S
C1258 C1256 1.391 . S
C1258 C1259 1.400 . S
C1259 C1253 1.491 . S
C1259 C1258 1.400 . S
C1259 C1260 1.398 . S
C1260 H1248 0.950 . S
C1260 C1259 1.398 . S
C1260 C1261 1.391 . S
C1261 H1249 0.950 . S
C1261 C1257 1.393 . S
C1261 C1260 1.391 . S
H1262 C1270 0.950 . S
H1263 C1275 0.950 . S
H1264 C1272 0.950 . S
H1265 C1274 0.950 . S
H1266 C1276 0.950 . S
H1267 C1278 0.950 . S
H1268 C1280 0.950 . S
H1269 C1281 0.950 . S
C1270 H1262 0.950 . S
C1270 C1271 1.386 . S
C1270 C1272 1.391 . S
C1271 C1270 1.386 . S
C1271 C1275 1.393 . S
C1272 H1264 0.950 . S
C1272 C1270 1.391 . S
C1272 C1273 1.400 . S
C1273 C1272 1.400 . S
C1273 C1274 1.398 . S
C1273 C1279 1.491 . S
C1274 H1265 0.950 . S
C1274 C1273 1.398 . S
C1274 C1275 1.391 . S
C1275 H1263 0.950 . S
C1275 C1271 1.393 . S
C1275 C1274 1.391 . S
C1276 H1266 0.950 . S
C1276 C1277 1.386 . S
C1276 C1278 1.391 . S
C1277 C1276 1.386 . S
C1277 C1281 1.393 . S
C1278 H1267 0.950 . S
C1278 C1276 1.391 . S
C1278 C1279 1.400 . S
C1279 C1273 1.491 . S
C1279 C1278 1.400 . S
C1279 C1280 1.398 . S
C1280 H1268 0.950 . S
C1280 C1279 1.398 . S
C1280 C1281 1.391 . S
C1281 H1269 0.950 . S
C1281 C1277 1.393 . S
C1281 C1280 1.391 . S
H1282 C1290 0.950 . S
H1283 C1295 0.950 . S
H1284 C1292 0.950 . S
H1285 C1294 0.950 . S
H1286 C1296 0.950 1_556 S
H1287 C1298 0.911 1_556 S
H1288 C1300 0.950 . S
H1289 C1301 0.950 . S
C1290 H1282 0.950 . S
C1290 C1291 1.386 . S
C1290 C1292 1.391 . S
C1291 C1290 1.386 . S
C1291 C1295 1.393 . S
C1292 H1284 0.950 . S
C1292 C1290 1.391 . S
C1292 C1293 1.400 . S
C1293 C1292 1.400 . S
C1293 C1294 1.398 . S
C1293 C1299 1.491 . S
C1294 H1285 0.950 . S
C1294 C1293 1.398 . S
C1294 C1295 1.391 . S
C1295 H1283 0.950 . S
C1295 C1291 1.393 . S
C1295 C1294 1.391 . S
C1296 H1286 0.950 1_554 S
C1296 C1297 1.386 . S
C1296 C1298 1.391 . S
C1297 C1296 1.386 . S
C1297 C1301 1.393 . S
C1298 H1287 0.911 1_554 S
C1298 C1296 1.391 . S
C1298 C1299 1.400 . S
C1299 C1293 1.491 . S
C1299 C1298 1.400 . S
C1299 C1300 1.398 . S
C1300 H1288 0.950 . S
C1300 C1299 1.398 . S
C1300 C1301 1.391 . S
C1301 H1289 0.950 . S
C1301 C1297 1.393 . S
C1301 C1300 1.391 . S
H1302 C1310 0.950 . S
H1303 C1315 0.950 . S
H1304 C1312 0.950 . S
H1305 C1314 0.950 . S
H1306 C1316 0.950 . S
H1307 C1318 0.950 . S
H1308 C1320 0.950 . S
H1309 C1321 0.950 . S
C1310 H1302 0.950 . S
C1310 C1311 1.386 . S
C1310 C1312 1.391 1_655 S
C1311 C1310 1.386 . S
C1311 C1315 1.393 . S
C1312 H1304 0.950 . S
C1312 C1310 1.391 1_455 S
C1312 C1313 1.400 . S
C1313 C1312 1.400 . S
C1313 C1314 1.398 . S
C1313 C1319 1.491 . S
C1314 H1305 0.950 . S
C1314 C1313 1.398 . S
C1314 C1315 1.391 1_455 S
C1315 H1303 0.950 . S
C1315 C1311 1.393 . S
C1315 C1314 1.391 1_655 S
C1316 H1306 0.950 . S
C1316 C1317 1.386 . S
C1316 C1318 1.391 . S
C1317 C1316 1.386 . S
C1317 C1321 1.393 . S
C1318 H1307 0.950 . S
C1318 C1316 1.391 . S
C1318 C1319 1.400 . S
C1319 C1313 1.491 . S
C1319 C1318 1.400 . S
C1319 C1320 1.398 . S
C1320 H1308 0.950 . S
C1320 C1319 1.398 . S
C1320 C1321 1.391 . S
C1321 H1309 0.950 . S
C1321 C1317 1.393 . S
C1321 C1320 1.391 . S
H1322 C1330 0.950 . S
H1323 C1335 0.950 . S
H1324 C1332 0.950 . S
H1325 C1334 0.950 . S
H1326 C1336 0.950 . S
H1327 C1338 0.950 . S
H1328 C1340 0.950 . S
H1329 C1341 0.950 . S
C1330 H1322 0.950 . S
C1330 C1331 1.386 . S
C1330 C1332 1.391 . S
C1331 C1330 1.386 . S
C1331 C1335 1.393 . S
C1332 H1324 0.950 . S
C1332 C1330 1.391 . S
C1332 C1333 1.400 . S
C1333 C1332 1.400 . S
C1333 C1334 1.398 . S
C1333 C1339 1.491 . S
C1334 H1325 0.950 . S
C1334 C1333 1.398 . S
C1334 C1335 1.391 . S
C1335 H1323 0.950 . S
C1335 C1331 1.393 . S
C1335 C1334 1.391 . S
C1336 H1326 0.950 . S
C1336 C1337 1.386 . S
C1336 C1338 1.391 . S
C1337 C1336 1.386 . S
C1337 C1341 1.393 . S
C1338 H1327 0.950 . S
C1338 C1336 1.391 . S
C1338 C1339 1.400 . S
C1339 C1333 1.491 . S
C1339 C1338 1.400 . S
C1339 C1340 1.398 . S
C1340 H1328 0.950 . S
C1340 C1339 1.398 . S
C1340 C1341 1.391 . S
C1341 H1329 0.950 . S
C1341 C1337 1.393 . S
C1341 C1340 1.391 . S
H1342 C1350 0.950 . S
H1343 C1355 0.950 . S
H1344 C1352 0.950 1_565 S
H1345 C1354 0.950 1_565 S
H1346 C1356 0.950 . S
H1347 C1358 0.950 . S
H1348 C1360 0.950 . S
H1349 C1361 0.950 . S
C1350 H1342 0.950 . S
C1350 C1351 1.386 . S
C1350 C1352 1.391 . S
C1351 C1350 1.386 . S
C1351 C1355 1.393 . S
C1352 H1344 0.950 1_545 S
C1352 C1350 1.391 . S
C1352 C1353 1.400 1_545 S
C1353 C1352 1.400 1_565 S
C1353 C1354 1.398 1_565 S
C1353 C1359 1.491 . S
C1354 H1345 0.950 1_545 S
C1354 C1353 1.398 1_545 S
C1354 C1355 1.391 . S
C1355 H1343 0.950 . S
C1355 C1351 1.393 . S
C1355 C1354 1.391 . S
C1356 H1346 0.950 . S
C1356 C1357 1.386 . S
C1356 C1358 1.391 . S
C1357 C1356 1.386 . S
C1357 C1361 1.393 . S
C1358 H1347 0.950 . S
C1358 C1356 1.391 . S
C1358 C1359 1.400 . S
C1359 C1353 1.491 . S
C1359 C1358 1.400 . S
C1359 C1360 1.398 . S
C1360 H1348 0.950 . S
C1360 C1359 1.398 . S
C1360 C1361 1.391 . S
C1361 H1349 0.950 . S
C1361 C1357 1.393 . S
C1361 C1360 1.391 . S
H1362 C1370 0.950 . S
H1363 C1375 0.950 . S
H1364 C1372 0.950 . S
H1365 C1374 0.950 . S
H1366 C1376 0.950 . S
H1367 C1378 0.950 . S
H1368 C1380 0.950 . S
H1369 C1381 0.950 . S
C1370 H1362 0.950 . S
C1370 C1371 1.386 . S
C1370 C1372 1.391 . S
C1371 C1370 1.386 . S
C1371 C1375 1.393 . S
C1372 H1364 0.950 . S
C1372 C1370 1.391 . S
C1372 C1373 1.400 . S
C1373 C1372 1.400 . S
C1373 C1374 1.398 . S
C1373 C1379 1.491 . S
C1374 H1365 0.950 . S
C1374 C1373 1.398 . S
C1374 C1375 1.391 . S
C1375 H1363 0.950 . S
C1375 C1371 1.393 . S
C1375 C1374 1.391 . S
C1376 H1366 0.950 . S
C1376 C1377 1.386 . S
C1376 C1378 1.391 . S
C1377 C1376 1.386 . S
C1377 C1381 1.393 . S
C1378 H1367 0.950 . S
C1378 C1376 1.391 . S
C1378 C1379 1.400 . S
C1379 C1373 1.491 . S
C1379 C1378 1.400 . S
C1379 C1380 1.398 . S
C1380 H1368 0.950 . S
C1380 C1379 1.398 . S
C1380 C1381 1.391 . S
C1381 H1369 0.950 . S
C1381 C1377 1.393 . S
C1381 C1380 1.391 . S
H1382 C1390 0.950 . S
H1383 C1395 0.950 . S
H1384 C1392 0.950 . S
H1385 C1394 0.950 . S
H1386 C1396 0.950 . S
H1387 C1398 0.950 . S
H1388 C1400 0.950 . S
H1389 C1401 0.950 . S
C1390 H1382 0.950 . S
C1390 C1391 1.386 . S
C1390 C1392 1.391 . S
C1391 C1390 1.386 . S
C1391 C1395 1.393 . S
C1392 H1384 0.950 . S
C1392 C1390 1.391 . S
C1392 C1393 1.400 . S
C1393 C1392 1.400 . S
C1393 C1394 1.398 . S
C1393 C1399 1.491 . S
C1394 H1385 0.950 . S
C1394 C1393 1.398 . S
C1394 C1395 1.391 . S
C1395 H1383 0.950 . S
C1395 C1391 1.393 . S
C1395 C1394 1.391 . S
C1396 H1386 0.950 . S
C1396 C1397 1.386 . S
C1396 C1398 1.391 . S
C1397 C1396 1.386 . S
C1397 C1401 1.393 . S
C1398 H1387 0.950 . S
C1398 C1396 1.391 . S
C1398 C1399 1.400 . S
C1399 C1393 1.491 . S
C1399 C1398 1.400 . S
C1399 C1400 1.398 . S
C1400 H1388 0.950 . S
C1400 C1399 1.398 . S
C1400 C1401 1.391 . S
C1401 H1389 0.950 . S
C1401 C1397 1.393 . S
C1401 C1400 1.391 . S
H1402 C1410 0.950 . S
H1403 C1415 0.950 . S
H1404 C1412 0.950 . S
H1405 C1414 0.950 . S
H1406 C1416 0.950 . S
H1407 C1418 0.950 . S
H1408 C1420 0.950 . S
H1409 C1421 0.950 . S
C1410 H1402 0.950 . S
C1410 C1411 1.386 . S
C1410 C1412 1.391 . S
C1411 C1410 1.386 . S
C1411 C1415 1.393 . S
C1412 H1404 0.950 . S
C1412 C1410 1.391 . S
C1412 C1413 1.400 . S
C1413 C1412 1.400 . S
C1413 C1414 1.398 . S
C1413 C1419 1.491 . S
C1414 H1405 0.950 . S
C1414 C1413 1.398 . S
C1414 C1415 1.391 . S
C1415 H1403 0.950 . S
C1415 C1411 1.393 . S
C1415 C1414 1.391 . S
C1416 H1406 0.950 . S
C1416 C1417 1.386 . S
C1416 C1418 1.391 . S
C1417 C1416 1.386 . S
C1417 C1421 1.393 . S
C1418 H1407 0.950 . S
C1418 C1416 1.391 . S
C1418 C1419 1.400 . S
C1419 C1413 1.491 . S
C1419 C1418 1.400 . S
C1419 C1420 1.398 . S
C1420 H1408 0.950 . S
C1420 C1419 1.398 . S
C1420 C1421 1.391 . S
C1421 H1409 0.950 . S
C1421 C1417 1.393 . S
C1421 C1420 1.391 . S
H1422 C1430 0.950 . S
H1423 C1435 0.950 . S
H1424 C1432 0.950 . S
H1425 C1434 0.950 . S
H1426 C1436 0.950 . S
H1427 C1438 0.950 . S
H1428 C1440 0.950 . S
H1429 C1441 0.950 . S
C1430 H1422 0.950 . S
C1430 C1431 1.386 . S
C1430 C1432 1.391 . S
C1431 C1430 1.386 . S
C1431 C1435 1.393 . S
C1432 H1424 0.950 . S
C1432 C1430 1.391 . S
C1432 C1433 1.400 . S
C1433 C1432 1.400 . S
C1433 C1434 1.398 . S
C1433 C1439 1.491 . S
C1434 H1425 0.950 . S
C1434 C1433 1.398 . S
C1434 C1435 1.391 . S
C1435 H1423 0.950 . S
C1435 C1431 1.393 . S
C1435 C1434 1.391 . S
C1436 H1426 0.950 . S
C1436 C1437 1.386 . S
C1436 C1438 1.391 . S
C1437 C1436 1.386 . S
C1437 C1441 1.393 . S
C1438 H1427 0.950 . S
C1438 C1436 1.391 . S
C1438 C1439 1.400 . S
C1439 C1433 1.491 . S
C1439 C1438 1.400 . S
C1439 C1440 1.398 . S
C1440 H1428 0.950 . S
C1440 C1439 1.398 . S
C1440 C1441 1.391 . S
C1441 H1429 0.950 . S
C1441 C1437 1.393 . S
C1441 C1440 1.391 . S
H1442 C1450 0.950 . S
H1443 C1455 0.950 . S
H1444 C1452 0.950 . S
H1445 C1454 0.950 . S
H1446 C1456 0.950 . S
H1447 C1458 0.950 . S
H1448 C1460 0.950 . S
H1449 C1461 0.950 . S
C1450 H1442 0.950 . S
C1450 C1451 1.386 . S
C1450 C1452 1.391 . S
C1451 C1450 1.386 . S
C1451 C1455 1.393 . S
C1452 H1444 0.950 . S
C1452 C1450 1.391 . S
C1452 C1453 1.400 . S
C1453 C1452 1.400 . S
C1453 C1454 1.398 . S
C1453 C1459 1.491 . S
C1454 H1445 0.950 . S
C1454 C1453 1.398 . S
C1454 C1455 1.391 . S
C1455 H1443 0.950 . S
C1455 C1451 1.393 . S
C1455 C1454 1.391 . S
C1456 H1446 0.950 . S
C1456 C1457 1.386 . S
C1456 C1458 1.391 . S
C1457 C1456 1.386 . S
C1457 C1461 1.393 . S
C1458 H1447 0.950 . S
C1458 C1456 1.391 . S
C1458 C1459 1.400 . S
C1459 C1453 1.491 . S
C1459 C1458 1.400 . S
C1459 C1460 1.398 . S
C1460 H1448 0.950 . S
C1460 C1459 1.398 . S
C1460 C1461 1.391 . S
C1461 H1449 0.950 . S
C1461 C1457 1.393 . S
C1461 C1460 1.391 . S
H1462 C1470 0.950 . S
H1463 C1475 0.950 . S
H1464 C1472 0.950 . S
H1465 C1474 0.950 . S
H1466 C1476 0.950 . S
H1467 C1478 0.950 . S
H1468 C1480 0.950 . S
H1469 C1481 0.950 . S
C1470 H1462 0.950 . S
C1470 C1471 1.386 . S
C1470 C1472 1.391 . S
C1471 C1470 1.386 . S
C1471 C1475 1.393 . S
C1472 H1464 0.950 . S
C1472 C1470 1.391 . S
C1472 C1473 1.400 . S
C1473 C1472 1.400 . S
C1473 C1474 1.398 . S
C1473 C1479 1.491 . S
C1474 H1465 0.950 . S
C1474 C1473 1.398 . S
C1474 C1475 1.391 . S
C1475 H1463 0.950 . S
C1475 C1471 1.393 . S
C1475 C1474 1.391 . S
C1476 H1466 0.950 . S
C1476 C1477 1.386 . S
C1476 C1478 1.391 . S
C1477 C1476 1.386 . S
C1477 C1481 1.393 . S
C1478 H1467 0.950 . S
C1478 C1476 1.391 . S
C1478 C1479 1.400 . S
C1479 C1473 1.491 . S
C1479 C1478 1.400 . S
C1479 C1480 1.398 . S
C1480 H1468 0.950 . S
C1480 C1479 1.398 . S
C1480 C1481 1.391 . S
C1481 H1469 0.950 . S
C1481 C1477 1.393 . S
C1481 C1480 1.391 . S
H1482 C1490 0.950 . S
H1483 C1495 0.950 . S
H1484 C1492 0.950 . S
H1485 C1494 0.947 . S
H1486 C1496 0.950 . S
H1487 C1498 0.950 . S
H1488 C1500 0.950 . S
H1489 C1501 0.950 . S
C1490 H1482 0.950 . S
C1490 C1491 1.386 . S
C1490 C1492 1.391 1_545 S
C1491 C1490 1.386 . S
C1491 C1495 1.393 . S
C1492 H1484 0.950 . S
C1492 C1490 1.391 1_565 S
C1492 C1493 1.400 . S
C1493 C1492 1.400 . S
C1493 C1494 1.397 . S
C1493 C1499 1.491 . S
C1494 H1485 0.947 . S
C1494 C1493 1.397 . S
C1494 C1495 1.395 1_565 S
C1495 H1483 0.950 . S
C1495 C1491 1.393 . S
C1495 C1494 1.395 1_545 S
C1496 H1486 0.950 . S
C1496 C1497 1.386 . S
C1496 C1498 1.391 . S
C1497 C1496 1.386 . S
C1497 C1501 1.393 . S
C1498 H1487 0.950 . S
C1498 C1496 1.391 . S
C1498 C1499 1.400 . S
C1499 C1493 1.491 . S
C1499 C1498 1.400 . S
C1499 C1500 1.398 . S
C1500 H1488 0.950 . S
C1500 C1499 1.398 . S
C1500 C1501 1.391 . S
C1501 H1489 0.950 . S
C1501 C1497 1.393 . S
C1501 C1500 1.391 . S
H1502 C1510 0.950 . S
H1503 C1515 0.950 . S
H1504 C1512 0.950 . S
H1505 C1514 0.950 . S
H1506 C1516 0.950 . S
H1507 C1518 0.950 . S
H1508 C1520 0.950 . S
H1509 C1521 0.950 . S
C1510 H1502 0.950 . S
C1510 C1511 1.386 1_455 S
C1510 C1512 1.391 . S
C1511 C1510 1.386 1_655 S
C1511 C1515 1.393 . S
C1512 H1504 0.950 . S
C1512 C1510 1.391 . S
C1512 C1513 1.400 . S
C1513 C1512 1.400 . S
C1513 C1514 1.398 . S
C1513 C1519 1.491 . S
C1514 H1505 0.950 . S
C1514 C1513 1.398 . S
C1514 C1515 1.391 1_455 S
C1515 H1503 0.950 . S
C1515 C1511 1.393 . S
C1515 C1514 1.391 1_655 S
C1516 H1506 0.950 . S
C1516 C1517 1.386 . S
C1516 C1518 1.391 . S
C1517 C1516 1.386 . S
C1517 C1521 1.393 . S
C1518 H1507 0.950 . S
C1518 C1516 1.391 . S
C1518 C1519 1.400 . S
C1519 C1513 1.491 . S
C1519 C1518 1.400 . S
C1519 C1520 1.398 . S
C1520 H1508 0.950 . S
C1520 C1519 1.398 . S
C1520 C1521 1.391 . S
C1521 H1509 0.950 . S
C1521 C1517 1.393 . S
C1521 C1520 1.391 . S
H1522 C1530 0.950 . S
H1523 C1535 0.950 . S
H1524 C1532 0.950 . S
H1525 C1534 0.950 . S
H1526 C1536 0.950 . S
H1527 C1538 0.950 . S
H1528 C1540 0.950 . S
H1529 C1541 0.950 . S
C1530 H1522 0.950 . S
C1530 C1531 1.386 . S
C1530 C1532 1.391 . S
C1531 C1530 1.386 . S
C1531 C1535 1.393 . S
C1532 H1524 0.950 . S
C1532 C1530 1.391 . S
C1532 C1533 1.400 . S
C1533 C1532 1.400 . S
C1533 C1534 1.398 . S
C1533 C1539 1.491 . S
C1534 H1525 0.950 . S
C1534 C1533 1.398 . S
C1534 C1535 1.391 . S
C1535 H1523 0.950 . S
C1535 C1531 1.393 . S
C1535 C1534 1.391 . S
C1536 H1526 0.950 . S
C1536 C1537 1.386 . S
C1536 C1538 1.391 . S
C1537 C1536 1.386 . S
C1537 C1541 1.393 . S
C1538 H1527 0.950 . S
C1538 C1536 1.391 . S
C1538 C1539 1.400 . S
C1539 C1533 1.491 . S
C1539 C1538 1.400 . S
C1539 C1540 1.398 . S
C1540 H1528 0.950 . S
C1540 C1539 1.398 . S
C1540 C1541 1.391 . S
C1541 H1529 0.950 . S
C1541 C1537 1.393 . S
C1541 C1540 1.391 . S
H1542 C1550 0.950 . S
H1543 C1555 0.950 . S
H1544 C1552 0.950 . S
H1545 C1554 0.950 . S
H1546 C1556 0.950 . S
H1547 C1558 0.950 . S
H1548 C1560 0.950 . S
H1549 C1561 0.950 . S
C1550 H1542 0.950 . S
C1550 C1551 1.386 . S
C1550 C1552 1.391 . S
C1551 C1550 1.386 . S
C1551 C1555 1.393 . S
C1552 H1544 0.950 . S
C1552 C1550 1.391 . S
C1552 C1553 1.400 . S
C1553 C1552 1.400 . S
C1553 C1554 1.398 . S
C1553 C1559 1.491 . S
C1554 H1545 0.950 . S
C1554 C1553 1.398 . S
C1554 C1555 1.391 . S
C1555 H1543 0.950 . S
C1555 C1551 1.393 . S
C1555 C1554 1.391 . S
C1556 H1546 0.950 . S
C1556 C1557 1.386 . S
C1556 C1558 1.391 . S
C1557 C1556 1.386 . S
C1557 C1561 1.393 . S
C1558 H1547 0.950 . S
C1558 C1556 1.391 . S
C1558 C1559 1.400 . S
C1559 C1553 1.491 . S
C1559 C1558 1.400 . S
C1559 C1560 1.398 . S
C1560 H1548 0.950 . S
C1560 C1559 1.398 . S
C1560 C1561 1.391 . S
C1561 H1549 0.950 . S
C1561 C1557 1.393 . S
C1561 C1560 1.391 . S
H1562 C1570 0.950 . S
H1563 C1575 0.950 . S
H1564 C1572 0.950 . S
H1565 C1574 0.950 . S
H1566 C1576 0.950 . S
H1567 C1578 0.950 . S
H1568 C1580 0.950 . S
H1569 C1581 0.950 . S
C1570 H1562 0.950 . S
C1570 C1571 1.386 . S
C1570 C1572 1.391 . S
C1571 C1570 1.386 . S
C1571 C1575 1.393 . S
C1572 H1564 0.950 . S
C1572 C1570 1.391 . S
C1572 C1573 1.400 . S
C1573 C1572 1.400 . S
C1573 C1574 1.398 . S
C1573 C1579 1.491 . S
C1574 H1565 0.950 . S
C1574 C1573 1.398 . S
C1574 C1575 1.391 . S
C1575 H1563 0.950 . S
C1575 C1571 1.393 . S
C1575 C1574 1.391 . S
C1576 H1566 0.950 . S
C1576 C1577 1.386 . S
C1576 C1578 1.391 . S
C1577 C1576 1.386 . S
C1577 C1581 1.393 . S
C1578 H1567 0.950 . S
C1578 C1576 1.391 . S
C1578 C1579 1.400 . S
C1579 C1573 1.491 . S
C1579 C1578 1.400 . S
C1579 C1580 1.398 . S
C1580 H1568 0.950 . S
C1580 C1579 1.398 . S
C1580 C1581 1.391 . S
C1581 H1569 0.950 . S
C1581 C1577 1.393 . S
C1581 C1580 1.391 . S
H1582 C1590 0.950 . S
H1583 C1595 0.950 . S
H1584 C1592 0.950 . S
H1585 C1594 0.950 . S
H1586 C1596 0.950 . S
H1587 C1598 0.950 . S
H1588 C1600 0.950 . S
H1589 C1601 0.950 . S
C1590 H1582 0.950 . S
C1590 C1591 1.386 . S
C1590 C1592 1.391 . S
C1591 C1590 1.386 . S
C1591 C1595 1.393 . S
C1592 H1584 0.950 . S
C1592 C1590 1.391 . S
C1592 C1593 1.400 . S
C1593 C1592 1.400 . S
C1593 C1594 1.398 . S
C1593 C1599 1.491 . S
C1594 H1585 0.950 . S
C1594 C1593 1.398 . S
C1594 C1595 1.391 . S
C1595 H1583 0.950 . S
C1595 C1591 1.393 . S
C1595 C1594 1.391 . S
C1596 H1586 0.950 . S
C1596 C1597 1.386 . S
C1596 C1598 1.391 . S
C1597 C1596 1.386 . S
C1597 C1601 1.393 . S
C1598 H1587 0.950 . S
C1598 C1596 1.391 . S
C1598 C1599 1.400 . S
C1599 C1593 1.491 . S
C1599 C1598 1.400 . S
C1599 C1600 1.398 . S
C1600 H1588 0.950 . S
C1600 C1599 1.398 . S
C1600 C1601 1.391 . S
C1601 H1589 0.950 . S
C1601 C1597 1.393 . S
C1601 C1600 1.391 . S
H1602 C1610 0.950 . S
H1603 C1615 0.950 . S
H1604 C1612 0.942 1_545 S
H1605 C1614 0.950 . S
H1606 C1616 0.950 . S
H1607 C1618 0.950 . S
H1608 C1620 0.950 . S
H1609 C1621 0.950 . S
C1610 H1602 0.950 . S
C1610 C1611 1.386 . S
C1610 C1612 1.404 . S
C1611 C1610 1.386 . S
C1611 C1615 1.393 . S
C1612 H1604 0.942 1_565 S
C1612 C1610 1.404 . S
C1612 C1613 1.395 1_565 S
C1613 C1612 1.395 1_545 S
C1613 C1614 1.398 . S
C1613 C1619 1.491 . S
C1614 H1605 0.950 . S
C1614 C1613 1.398 . S
C1614 C1615 1.391 1_545 S
C1615 H1603 0.950 . S
C1615 C1611 1.393 . S
C1615 C1614 1.391 1_565 S
C1616 H1606 0.950 . S
C1616 C1617 1.386 . S
C1616 C1618 1.391 . S
C1617 C1616 1.386 . S
C1617 C1621 1.393 . S
C1618 H1607 0.950 . S
C1618 C1616 1.391 . S
C1618 C1619 1.400 . S
C1619 C1613 1.491 . S
C1619 C1618 1.400 . S
C1619 C1620 1.398 . S
C1620 H1608 0.950 . S
C1620 C1619 1.398 . S
C1620 C1621 1.391 . S
C1621 H1609 0.950 . S
C1621 C1617 1.393 . S
C1621 C1620 1.391 . S
H1622 C1630 0.950 . S
H1623 C1635 0.950 . S
H1624 C1632 0.950 . S
H1625 C1634 0.950 . S
H1626 C1636 0.950 . S
H1627 C1638 0.950 . S
H1628 C1640 0.950 . S
H1629 C1641 0.950 . S
C1630 H1622 0.950 . S
C1630 C1631 1.386 . S
C1630 C1632 1.391 1_455 S
C1631 C1630 1.386 . S
C1631 C1635 1.393 1_455 S
C1632 H1624 0.950 . S
C1632 C1630 1.391 1_655 S
C1632 C1633 1.400 . S
C1633 C1632 1.400 . S
C1633 C1634 1.398 . S
C1633 C1639 1.491 . S
C1634 H1625 0.950 . S
C1634 C1633 1.398 . S
C1634 C1635 1.391 . S
C1635 H1623 0.950 . S
C1635 C1631 1.393 1_655 S
C1635 C1634 1.391 . S
C1636 H1626 0.950 . S
C1636 C1637 1.386 . S
C1636 C1638 1.391 . S
C1637 C1636 1.386 . S
C1637 C1641 1.393 . S
C1638 H1627 0.950 . S
C1638 C1636 1.391 . S
C1638 C1639 1.400 . S
C1639 C1633 1.491 . S
C1639 C1638 1.400 . S
C1639 C1640 1.398 . S
C1640 H1628 0.950 . S
C1640 C1639 1.398 . S
C1640 C1641 1.391 . S
C1641 H1629 0.950 . S
C1641 C1637 1.393 . S
C1641 C1640 1.391 . S
H1642 C1650 0.950 . S
H1643 C1655 0.950 . S
H1644 C1652 0.950 . S
H1645 C1654 0.950 . S
H1646 C1656 0.950 . S
H1647 C1658 0.950 . S
H1648 C1660 0.950 . S
H1649 C1661 0.950 . S
C1650 H1642 0.950 . S
C1650 C1651 1.386 . S
C1650 C1652 1.391 . S
C1651 C1650 1.386 . S
C1651 C1655 1.393 . S
C1652 H1644 0.950 . S
C1652 C1650 1.391 . S
C1652 C1653 1.400 . S
C1653 C1652 1.400 . S
C1653 C1654 1.398 . S
C1653 C1659 1.491 . S
C1654 H1645 0.950 . S
C1654 C1653 1.398 . S
C1654 C1655 1.391 . S
C1655 H1643 0.950 . S
C1655 C1651 1.393 . S
C1655 C1654 1.391 . S
C1656 H1646 0.950 . S
C1656 C1657 1.386 . S
C1656 C1658 1.391 . S
C1657 C1656 1.386 . S
C1657 C1661 1.393 . S
C1658 H1647 0.950 . S
C1658 C1656 1.391 . S
C1658 C1659 1.400 . S
C1659 C1653 1.491 . S
C1659 C1658 1.400 . S
C1659 C1660 1.398 . S
C1660 H1648 0.950 . S
C1660 C1659 1.398 . S
C1660 C1661 1.391 . S
C1661 H1649 0.950 . S
C1661 C1657 1.393 . S
C1661 C1660 1.391 . S
H1662 C1670 0.950 . S
H1663 C1675 0.950 . S
H1664 C1672 0.950 . S
H1665 C1674 0.950 . S
H1666 C1676 0.950 . S
H1667 C1678 0.950 . S
H1668 C1680 0.950 . S
H1669 C1681 0.950 . S
C1670 H1662 0.950 . S
C1670 C1671 1.386 . S
C1670 C1672 1.391 1_455 S
C1671 C1670 1.386 . S
C1671 C1675 1.393 . S
C1672 H1664 0.950 . S
C1672 C1670 1.391 1_655 S
C1672 C1673 1.400 . S
C1673 C1672 1.400 . S
C1673 C1674 1.398 . S
C1673 C1679 1.491 . S
C1674 H1665 0.950 . S
C1674 C1673 1.398 . S
C1674 C1675 1.391 1_655 S
C1675 H1663 0.950 . S
C1675 C1671 1.393 . S
C1675 C1674 1.391 1_455 S
C1676 H1666 0.950 . S
C1676 C1677 1.386 . S
C1676 C1678 1.391 . S
C1677 C1676 1.386 . S
C1677 C1681 1.393 . S
C1678 H1667 0.950 . S
C1678 C1676 1.391 . S
C1678 C1679 1.400 . S
C1679 C1673 1.491 . S
C1679 C1678 1.400 . S
C1679 C1680 1.398 . S
C1680 H1668 0.950 . S
C1680 C1679 1.398 . S
C1680 C1681 1.391 . S
C1681 H1669 0.950 . S
C1681 C1677 1.393 . S
C1681 C1680 1.391 . S
H1682 C1690 0.950 . S
H1683 C1695 0.950 . S
H1684 C1692 0.950 . S
H1685 C1694 0.950 . S
H1686 C1696 0.950 . S
H1687 C1698 0.950 . S
H1688 C1700 0.950 . S
H1689 C1701 0.950 . S
C1690 H1682 0.950 . S
C1690 C1691 1.386 . S
C1690 C1692 1.391 . S
C1691 C1690 1.386 . S
C1691 C1695 1.393 . S
C1692 H1684 0.950 . S
C1692 C1690 1.391 . S
C1692 C1693 1.400 . S
C1693 C1692 1.400 . S
C1693 C1694 1.398 . S
C1693 C1699 1.491 . S
C1694 H1685 0.950 . S
C1694 C1693 1.398 . S
C1694 C1695 1.391 . S
C1695 H1683 0.950 . S
C1695 C1691 1.393 . S
C1695 C1694 1.391 . S
C1696 H1686 0.950 . S
C1696 C1697 1.386 . S
C1696 C1698 1.391 . S
C1697 C1696 1.386 . S
C1697 C1701 1.393 . S
C1698 H1687 0.950 . S
C1698 C1696 1.391 . S
C1698 C1699 1.400 . S
C1699 C1693 1.491 . S
C1699 C1698 1.400 . S
C1699 C1700 1.398 . S
C1700 H1688 0.950 . S
C1700 C1699 1.398 . S
C1700 C1701 1.391 . S
C1701 H1689 0.950 . S
C1701 C1697 1.393 . S
C1701 C1700 1.391 . S
H1702 C1710 0.950 . S
H1703 C1715 0.950 . S
H1704 C1712 0.950 1_545 S
H1705 C1714 0.950 1_545 S
H1706 C1716 0.950 . S
H1707 C1718 0.950 . S
H1708 C1720 0.950 . S
H1709 C1721 0.950 . S
C1710 H1702 0.950 . S
C1710 C1711 1.386 . S
C1710 C1712 1.391 . S
C1711 C1710 1.386 . S
C1711 C1715 1.393 . S
C1712 H1704 0.950 1_565 S
C1712 C1710 1.391 . S
C1712 C1713 1.400 1_565 S
C1713 C1712 1.400 1_545 S
C1713 C1714 1.398 1_545 S
C1713 C1719 1.491 . S
C1714 H1705 0.950 1_565 S
C1714 C1713 1.398 1_565 S
C1714 C1715 1.391 . S
C1715 H1703 0.950 . S
C1715 C1711 1.393 . S
C1715 C1714 1.391 . S
C1716 H1706 0.950 . S
C1716 C1717 1.386 . S
C1716 C1718 1.391 . S
C1717 C1716 1.386 . S
C1717 C1721 1.393 . S
C1718 H1707 0.950 . S
C1718 C1716 1.391 . S
C1718 C1719 1.400 . S
C1719 C1713 1.491 . S
C1719 C1718 1.400 . S
C1719 C1720 1.398 . S
C1720 H1708 0.950 . S
C1720 C1719 1.398 . S
C1720 C1721 1.391 . S
C1721 H1709 0.950 . S
C1721 C1717 1.393 . S
C1721 C1720 1.391 . S
H1722 C1730 0.950 . S
H1723 C1735 0.950 . S
H1724 C1732 0.950 . S
H1725 C1734 0.950 . S
H1726 C1736 0.950 . S
H1727 C1738 0.950 . S
H1728 C1740 0.950 . S
H1729 C1741 0.950 . S
C1730 H1722 0.950 . S
C1730 C1731 1.386 . S
C1730 C1732 1.391 . S
C1731 C1730 1.386 . S
C1731 C1735 1.393 . S
C1732 H1724 0.950 . S
C1732 C1730 1.391 . S
C1732 C1733 1.400 . S
C1733 C1732 1.400 . S
C1733 C1734 1.398 . S
C1733 C1739 1.491 . S
C1734 H1725 0.950 . S
C1734 C1733 1.398 . S
C1734 C1735 1.391 . S
C1735 H1723 0.950 . S
C1735 C1731 1.393 . S
C1735 C1734 1.391 . S
C1736 H1726 0.950 . S
C1736 C1737 1.386 . S
C1736 C1738 1.391 . S
C1737 C1736 1.386 . S
C1737 C1741 1.393 . S
C1738 H1727 0.950 . S
C1738 C1736 1.391 . S
C1738 C1739 1.400 . S
C1739 C1733 1.491 . S
C1739 C1738 1.400 . S
C1739 C1740 1.398 . S
C1740 H1728 0.950 . S
C1740 C1739 1.398 . S
C1740 C1741 1.391 . S
C1741 H1729 0.950 . S
C1741 C1737 1.393 . S
C1741 C1740 1.391 . S
H1742 C1750 0.950 . S
H1743 C1755 0.950 . S
H1744 C1752 0.950 . S
H1745 C1754 0.950 . S
H1746 C1756 0.950 . S
H1747 C1758 0.950 . S
H1748 C1760 0.950 . S
H1749 C1761 0.950 . S
C1750 H1742 0.950 . S
C1750 C1751 1.386 . S
C1750 C1752 1.391 . S
C1751 C1750 1.386 . S
C1751 C1755 1.393 . S
C1752 H1744 0.950 . S
C1752 C1750 1.391 . S
C1752 C1753 1.400 . S
C1753 C1752 1.400 . S
C1753 C1754 1.398 . S
C1753 C1759 1.491 . S
C1754 H1745 0.950 . S
C1754 C1753 1.398 . S
C1754 C1755 1.391 . S
C1755 H1743 0.950 . S
C1755 C1751 1.393 . S
C1755 C1754 1.391 . S
C1756 H1746 0.950 . S
C1756 C1757 1.386 . S
C1756 C1758 1.391 . S
C1757 C1756 1.386 . S
C1757 C1761 1.393 . S
C1758 H1747 0.950 . S
C1758 C1756 1.391 . S
C1758 C1759 1.400 . S
C1759 C1753 1.491 . S
C1759 C1758 1.400 . S
C1759 C1760 1.398 . S
C1760 H1748 0.950 . S
C1760 C1759 1.398 . S
C1760 C1761 1.391 . S
C1761 H1749 0.950 . S
C1761 C1757 1.393 . S
C1761 C1760 1.391 . S
H1762 C1770 0.950 . S
H1763 C1775 0.950 . S
H1764 C1772 0.950 . S
H1765 C1774 0.950 . S
H1766 C1776 0.950 . S
H1767 C1778 0.950 . S
H1768 C1780 0.950 . S
H1769 C1781 0.950 . S
C1770 H1762 0.950 . S
C1770 C1771 1.386 . S
C1770 C1772 1.391 . S
C1771 C1770 1.386 . S
C1771 C1775 1.393 . S
C1772 H1764 0.950 . S
C1772 C1770 1.391 . S
C1772 C1773 1.400 . S
C1773 C1772 1.400 . S
C1773 C1774 1.398 . S
C1773 C1779 1.491 . S
C1774 H1765 0.950 . S
C1774 C1773 1.398 . S
C1774 C1775 1.391 . S
C1775 H1763 0.950 . S
C1775 C1771 1.393 . S
C1775 C1774 1.391 . S
C1776 H1766 0.950 . S
C1776 C1777 1.386 . S
C1776 C1778 1.391 . S
C1777 C1776 1.386 . S
C1777 C1781 1.393 . S
C1778 H1767 0.950 . S
C1778 C1776 1.391 . S
C1778 C1779 1.400 . S
C1779 C1773 1.491 . S
C1779 C1778 1.400 . S
C1779 C1780 1.398 . S
C1780 H1768 0.950 . S
C1780 C1779 1.398 . S
C1780 C1781 1.391 . S
C1781 H1769 0.950 . S
C1781 C1777 1.393 . S
C1781 C1780 1.391 . S
H1782 C1790 0.950 . S
H1783 C1795 0.950 . S
H1784 C1792 0.950 . S
H1785 C1794 0.950 . S
H1786 C1796 0.950 . S
H1787 C1798 0.950 . S
H1788 C1800 0.950 . S
H1789 C1801 0.950 . S
C1790 H1782 0.950 . S
C1790 C1791 1.386 . S
C1790 C1792 1.391 . S
C1791 C1790 1.386 . S
C1791 C1795 1.393 . S
C1792 H1784 0.950 . S
C1792 C1790 1.391 . S
C1792 C1793 1.400 . S
C1793 C1792 1.400 . S
C1793 C1794 1.398 . S
C1793 C1799 1.491 . S
C1794 H1785 0.950 . S
C1794 C1793 1.398 . S
C1794 C1795 1.391 . S
C1795 H1783 0.950 . S
C1795 C1791 1.393 . S
C1795 C1794 1.391 . S
C1796 H1786 0.950 . S
C1796 C1797 1.386 . S
C1796 C1798 1.391 . S
C1797 C1796 1.386 . S
C1797 C1801 1.393 . S
C1798 H1787 0.950 . S
C1798 C1796 1.391 . S
C1798 C1799 1.400 . S
C1799 C1793 1.491 . S
C1799 C1798 1.400 . S
C1799 C1800 1.398 . S
C1800 H1788 0.950 . S
C1800 C1799 1.398 . S
C1800 C1801 1.391 . S
C1801 H1789 0.950 . S
C1801 C1797 1.393 . S
C1801 C1800 1.391 . S
H1802 C1810 0.950 . S
H1803 C1815 0.950 . S
H1804 C1812 0.950 . S
H1805 C1814 0.950 . S
H1806 C1816 0.950 1_655 S
H1807 C1818 0.950 1_655 S
H1808 C1820 0.950 . S
H1809 C1821 0.950 . S
C1810 H1802 0.950 . S
C1810 C1811 1.386 . S
C1810 C1812 1.391 . S
C1811 C1810 1.386 . S
C1811 C1815 1.393 1_455 S
C1812 H1804 0.950 . S
C1812 C1810 1.391 . S
C1812 C1813 1.400 . S
C1813 C1812 1.400 . S
C1813 C1814 1.398 1_455 S
C1813 C1819 1.491 . S
C1814 H1805 0.950 . S
C1814 C1813 1.398 1_655 S
C1814 C1815 1.391 . S
C1815 H1803 0.950 . S
C1815 C1811 1.393 1_655 S
C1815 C1814 1.391 . S
C1816 H1806 0.950 1_455 S
C1816 C1817 1.386 . S
C1816 C1818 1.391 . S
C1817 C1816 1.386 . S
C1817 C1821 1.393 . S
C1818 H1807 0.950 1_455 S
C1818 C1816 1.391 . S
C1818 C1819 1.400 . S
C1819 C1813 1.491 . S
C1819 C1818 1.400 . S
C1819 C1820 1.398 . S
C1820 H1808 0.950 . S
C1820 C1819 1.398 . S
C1820 C1821 1.391 . S
C1821 H1809 0.950 . S
C1821 C1817 1.393 . S
C1821 C1820 1.391 . S
H1822 C1830 0.950 . S
H1823 C1835 0.950 . S
H1824 C1832 0.950 . S
H1825 C1834 0.950 . S
H1826 C1836 0.950 . S
H1827 C1838 0.950 . S
H1828 C1840 0.950 . S
H1829 C1841 0.950 . S
C1830 H1822 0.950 . S
C1830 C1831 1.386 . S
C1830 C1832 1.391 . S
C1831 C1830 1.386 . S
C1831 C1835 1.393 . S
C1832 H1824 0.950 . S
C1832 C1830 1.391 . S
C1832 C1833 1.400 . S
C1833 C1832 1.400 . S
C1833 C1834 1.398 . S
C1833 C1839 1.491 . S
C1834 H1825 0.950 . S
C1834 C1833 1.398 . S
C1834 C1835 1.391 . S
C1835 H1823 0.950 . S
C1835 C1831 1.393 . S
C1835 C1834 1.391 . S
C1836 H1826 0.950 . S
C1836 C1837 1.386 . S
C1836 C1838 1.391 . S
C1837 C1836 1.386 . S
C1837 C1841 1.393 . S
C1838 H1827 0.950 . S
C1838 C1836 1.391 . S
C1838 C1839 1.400 . S
C1839 C1833 1.491 . S
C1839 C1838 1.400 . S
C1839 C1840 1.398 . S
C1840 H1828 0.950 . S
C1840 C1839 1.398 . S
C1840 C1841 1.391 . S
C1841 H1829 0.950 . S
C1841 C1837 1.393 . S
C1841 C1840 1.391 . S
H1842 C1850 0.950 . S
H1843 C1855 0.950 . S
H1844 C1852 0.950 . S
H1845 C1854 0.950 . S
H1846 C1856 0.950 . S
H1847 C1858 0.950 . S
H1848 C1860 0.950 . S
H1849 C1861 0.950 . S
C1850 H1842 0.950 . S
C1850 C1851 1.386 1_455 S
C1850 C1852 1.391 . S
C1851 C1850 1.386 1_655 S
C1851 C1855 1.393 . S
C1852 H1844 0.950 . S
C1852 C1850 1.391 . S
C1852 C1853 1.400 1_455 S
C1853 C1852 1.400 1_655 S
C1853 C1854 1.398 . S
C1853 C1859 1.491 . S
C1854 H1845 0.950 . S
C1854 C1853 1.398 . S
C1854 C1855 1.391 . S
C1855 H1843 0.950 . S
C1855 C1851 1.393 . S
C1855 C1854 1.391 . S
C1856 H1846 0.950 . S
C1856 C1857 1.386 . S
C1856 C1858 1.391 . S
C1857 C1856 1.386 . S
C1857 C1861 1.393 1_655 S
C1858 H1847 0.950 . S
C1858 C1856 1.391 . S
C1858 C1859 1.400 . S
C1859 C1853 1.491 . S
C1859 C1858 1.400 . S
C1859 C1860 1.398 1_655 S
C1860 H1848 0.950 . S
C1860 C1859 1.398 1_455 S
C1860 C1861 1.391 . S
C1861 H1849 0.950 . S
C1861 C1857 1.393 1_455 S
C1861 C1860 1.391 . S
H1862 C1870 0.950 . S
H1863 C1875 0.950 . S
H1864 C1872 0.950 . S
H1865 C1874 0.950 . S
H1866 C1876 0.950 . S
H1867 C1878 0.950 . S
H1868 C1880 0.950 . S
H1869 C1881 0.950 . S
C1870 H1862 0.950 . S
C1870 C1871 1.386 . S
C1870 C1872 1.391 . S
C1871 C1870 1.386 . S
C1871 C1875 1.393 . S
C1872 H1864 0.950 . S
C1872 C1870 1.391 . S
C1872 C1873 1.400 . S
C1873 C1872 1.400 . S
C1873 C1874 1.398 . S
C1873 C1879 1.491 . S
C1874 H1865 0.950 . S
C1874 C1873 1.398 . S
C1874 C1875 1.391 . S
C1875 H1863 0.950 . S
C1875 C1871 1.393 . S
C1875 C1874 1.391 . S
C1876 H1866 0.950 . S
C1876 C1877 1.386 . S
C1876 C1878 1.391 . S
C1877 C1876 1.386 . S
C1877 C1881 1.393 . S
C1878 H1867 0.950 . S
C1878 C1876 1.391 . S
C1878 C1879 1.400 . S
C1879 C1873 1.491 . S
C1879 C1878 1.400 . S
C1879 C1880 1.398 . S
C1880 H1868 0.950 . S
C1880 C1879 1.398 . S
C1880 C1881 1.391 . S
C1881 H1869 0.950 . S
C1881 C1877 1.393 . S
C1881 C1880 1.391 . S
H1882 C1890 0.950 . S
H1883 C1895 0.950 . S
H1884 C1892 0.950 . S
H1885 C1894 0.950 . S
H1886 C1896 0.950 . S
H1887 C1898 0.950 . S
H1888 C1900 0.950 1_565 S
H1889 C1901 0.950 . S
C1890 H1882 0.950 . S
C1890 C1891 1.386 . S
C1890 C1892 1.391 . S
C1891 C1890 1.386 . S
C1891 C1895 1.393 . S
C1892 H1884 0.950 . S
C1892 C1890 1.391 . S
C1892 C1893 1.400 . S
C1893 C1892 1.400 . S
C1893 C1894 1.398 . S
C1893 C1899 1.491 . S
C1894 H1885 0.950 . S
C1894 C1893 1.398 . S
C1894 C1895 1.391 . S
C1895 H1883 0.950 . S
C1895 C1891 1.393 . S
C1895 C1894 1.391 . S
C1896 H1886 0.950 . S
C1896 C1897 1.386 . S
C1896 C1898 1.391 . S
C1897 C1896 1.386 . S
C1897 C1901 1.393 1_545 S
C1898 H1887 0.950 . S
C1898 C1896 1.391 . S
C1898 C1899 1.400 . S
C1899 C1893 1.491 . S
C1899 C1898 1.400 . S
C1899 C1900 1.398 . S
C1900 H1888 0.950 1_545 S
C1900 C1899 1.398 . S
C1900 C1901 1.391 1_545 S
C1901 H1889 0.950 . S
C1901 C1897 1.393 1_565 S
C1901 C1900 1.391 1_565 S
H1902 C1910 0.950 . S
H1903 C1915 0.950 . S
H1904 C1912 0.950 . S
H1905 C1914 0.950 . S
H1906 C1916 0.950 . S
H1907 C1918 0.950 . S
H1908 C1920 0.950 . S
H1909 C1921 0.950 . S
C1910 H1902 0.950 . S
C1910 C1911 1.386 . S
C1910 C1912 1.391 . S
C1911 C1910 1.386 . S
C1911 C1915 1.393 . S
C1912 H1904 0.950 . S
C1912 C1910 1.391 . S
C1912 C1913 1.400 . S
C1913 C1912 1.400 . S
C1913 C1914 1.398 . S
C1913 C1919 1.491 . S
C1914 H1905 0.950 . S
C1914 C1913 1.398 . S
C1914 C1915 1.391 . S
C1915 H1903 0.950 . S
C1915 C1911 1.393 . S
C1915 C1914 1.391 . S
C1916 H1906 0.950 . S
C1916 C1917 1.386 . S
C1916 C1918 1.391 . S
C1917 C1916 1.386 . S
C1917 C1921 1.393 . S
C1918 H1907 0.950 . S
C1918 C1916 1.391 . S
C1918 C1919 1.400 . S
C1919 C1913 1.491 . S
C1919 C1918 1.400 . S
C1919 C1920 1.398 . S
C1920 H1908 0.950 . S
C1920 C1919 1.398 . S
C1920 C1921 1.391 . S
C1921 H1909 0.950 . S
C1921 C1917 1.393 . S
C1921 C1920 1.391 . S
H1922 C1930 0.950 . S
H1923 C1935 0.950 . S
H1924 C1932 0.950 . S
H1925 C1934 0.950 . S
H1926 C1936 0.950 . S
H1927 C1938 0.950 . S
H1928 C1940 0.950 . S
H1929 C1941 0.950 . S
C1930 H1922 0.950 . S
C1930 C1931 1.386 . S
C1930 C1932 1.391 . S
C1931 C1930 1.386 . S
C1931 C1935 1.393 . S
C1932 H1924 0.950 . S
C1932 C1930 1.391 . S
C1932 C1933 1.400 . S
C1933 C1932 1.400 . S
C1933 C1934 1.398 . S
C1933 C1939 1.491 . S
C1934 H1925 0.950 . S
C1934 C1933 1.398 . S
C1934 C1935 1.391 . S
C1935 H1923 0.950 . S
C1935 C1931 1.393 . S
C1935 C1934 1.391 . S
C1936 H1926 0.950 . S
C1936 C1937 1.386 . S
C1936 C1938 1.391 . S
C1937 C1936 1.386 . S
C1937 C1941 1.393 . S
C1938 H1927 0.950 . S
C1938 C1936 1.391 . S
C1938 C1939 1.400 . S
C1939 C1933 1.491 . S
C1939 C1938 1.400 . S
C1939 C1940 1.398 . S
C1940 H1928 0.950 . S
C1940 C1939 1.398 . S
C1940 C1941 1.391 . S
C1941 H1929 0.950 . S
C1941 C1937 1.393 . S
C1941 C1940 1.391 . S
H1942 C1950 0.950 . S
H1943 C1955 0.950 . S
H1944 C1952 0.950 . S
H1945 C1954 0.950 . S
H1946 C1956 0.950 . S
H1947 C1958 0.950 . S
H1948 C1960 0.950 . S
H1949 C1961 0.950 . S
C1950 H1942 0.950 . S
C1950 C1951 1.386 . S
C1950 C1952 1.391 . S
C1951 C1950 1.386 . S
C1951 C1955 1.393 . S
C1952 H1944 0.950 . S
C1952 C1950 1.391 . S
C1952 C1953 1.400 . S
C1953 C1952 1.400 . S
C1953 C1954 1.398 . S
C1953 C1959 1.491 . S
C1954 H1945 0.950 . S
C1954 C1953 1.398 . S
C1954 C1955 1.391 . S
C1955 H1943 0.950 . S
C1955 C1951 1.393 . S
C1955 C1954 1.391 . S
C1956 H1946 0.950 . S
C1956 C1957 1.386 . S
C1956 C1958 1.391 . S
C1957 C1956 1.386 . S
C1957 C1961 1.393 . S
C1958 H1947 0.950 . S
C1958 C1956 1.391 . S
C1958 C1959 1.400 . S
C1959 C1953 1.491 . S
C1959 C1958 1.400 . S
C1959 C1960 1.398 . S
C1960 H1948 0.950 . S
C1960 C1959 1.398 . S
C1960 C1961 1.391 . S
C1961 H1949 0.950 . S
C1961 C1957 1.393 . S
C1961 C1960 1.391 . S
H1962 C1970 0.950 . S
H1963 C1975 0.950 . S
H1964 C1972 0.950 . S
H1965 C1974 0.950 . S
H1966 C1976 0.950 . S
H1967 C1978 0.950 . S
H1968 C1980 0.950 . S
H1969 C1981 0.950 . S
C1970 H1962 0.950 . S
C1970 C1971 1.386 . S
C1970 C1972 1.391 . S
C1971 C1970 1.386 . S
C1971 C1975 1.393 . S
C1972 H1964 0.950 . S
C1972 C1970 1.391 . S
C1972 C1973 1.400 . S
C1973 C1972 1.400 . S
C1973 C1974 1.398 . S
C1973 C1979 1.491 . S
C1974 H1965 0.950 . S
C1974 C1973 1.398 . S
C1974 C1975 1.391 . S
C1975 H1963 0.950 . S
C1975 C1971 1.393 . S
C1975 C1974 1.391 . S
C1976 H1966 0.950 . S
C1976 C1977 1.386 . S
C1976 C1978 1.391 . S
C1977 C1976 1.386 . S
C1977 C1981 1.393 . S
C1978 H1967 0.950 . S
C1978 C1976 1.391 . S
C1978 C1979 1.400 . S
C1979 C1973 1.491 . S
C1979 C1978 1.400 . S
C1979 C1980 1.398 . S
C1980 H1968 0.950 . S
C1980 C1979 1.398 . S
C1980 C1981 1.391 . S
C1981 H1969 0.950 . S
C1981 C1977 1.393 . S
C1981 C1980 1.391 . S
H1982 C1990 0.950 . S
H1983 C1995 0.950 . S
H1984 C1992 0.950 . S
H1985 C1994 0.950 . S
H1986 C1996 0.950 . S
H1987 C1998 0.950 . S
H1988 C2000 0.950 . S
H1989 C2001 0.950 . S
C1990 H1982 0.950 . S
C1990 C1991 1.386 . S
C1990 C1992 1.391 . S
C1991 C1990 1.386 . S
C1991 C1995 1.393 . S
C1992 H1984 0.950 . S
C1992 C1990 1.391 . S
C1992 C1993 1.400 . S
C1993 C1992 1.400 . S
C1993 C1994 1.398 . S
C1993 C1999 1.491 . S
C1994 H1985 0.950 . S
C1994 C1993 1.398 . S
C1994 C1995 1.391 . S
C1995 H1983 0.950 . S
C1995 C1991 1.393 . S
C1995 C1994 1.391 . S
C1996 H1986 0.950 . S
C1996 C1997 1.386 . S
C1996 C1998 1.391 . S
C1997 C1996 1.386 . S
C1997 C2001 1.393 . S
C1998 H1987 0.950 . S
C1998 C1996 1.391 . S
C1998 C1999 1.400 . S
C1999 C1993 1.491 . S
C1999 C1998 1.400 . S
C1999 C2000 1.398 . S
C2000 H1988 0.950 . S
C2000 C1999 1.398 . S
C2000 C2001 1.391 . S
C2001 H1989 0.950 . S
C2001 C1997 1.393 . S
C2001 C2000 1.391 . S
H2002 C2010 0.950 . S
H2003 C2015 0.950 . S
H2004 C2012 0.950 . S
H2005 C2014 0.950 . S
H2006 C2016 0.950 . S
H2007 C2018 0.950 . S
H2008 C2020 0.950 . S
H2009 C2021 0.950 . S
C2010 H2002 0.950 . S
C2010 C2011 1.386 . S
C2010 C2012 1.391 . S
C2011 C2010 1.386 . S
C2011 C2015 1.393 . S
C2012 H2004 0.950 . S
C2012 C2010 1.391 . S
C2012 C2013 1.400 . S
C2013 C2012 1.400 . S
C2013 C2014 1.398 . S
C2013 C2019 1.491 . S
C2014 H2005 0.950 . S
C2014 C2013 1.398 . S
C2014 C2015 1.391 . S
C2015 H2003 0.950 . S
C2015 C2011 1.393 . S
C2015 C2014 1.391 . S
C2016 H2006 0.950 . S
C2016 C2017 1.386 . S
C2016 C2018 1.391 . S
C2017 C2016 1.386 . S
C2017 C2021 1.393 . S
C2018 H2007 0.950 . S
C2018 C2016 1.391 . S
C2018 C2019 1.400 . S
C2019 C2013 1.491 . S
C2019 C2018 1.400 . S
C2019 C2020 1.398 . S
C2020 H2008 0.950 . S
C2020 C2019 1.398 . S
C2020 C2021 1.391 . S
C2021 H2009 0.950 . S
C2021 C2017 1.393 . S
C2021 C2020 1.391 . S
H2022 C2030 0.950 . S
H2023 C2035 0.950 . S
H2024 C2032 0.950 . S
H2025 C2034 0.950 . S
H2026 C2036 0.950 . S
H2027 C2038 0.950 . S
H2028 C2040 0.950 . S
H2029 C2041 0.950 . S
C2030 H2022 0.950 . S
C2030 C2031 1.386 . S
C2030 C2032 1.391 . S
C2031 C2030 1.386 . S
C2031 C2035 1.393 . S
C2032 H2024 0.950 . S
C2032 C2030 1.391 . S
C2032 C2033 1.400 . S
C2033 C2032 1.400 . S
C2033 C2034 1.398 . S
C2033 C2039 1.491 . S
C2034 H2025 0.950 . S
C2034 C2033 1.398 . S
C2034 C2035 1.391 . S
C2035 H2023 0.950 . S
C2035 C2031 1.393 . S
C2035 C2034 1.391 . S
C2036 H2026 0.950 . S
C2036 C2037 1.386 . S
C2036 C2038 1.391 . S
C2037 C2036 1.386 . S
C2037 C2041 1.393 . S
C2038 H2027 0.950 . S
C2038 C2036 1.391 . S
C2038 C2039 1.400 . S
C2039 C2033 1.491 . S
C2039 C2038 1.400 . S
C2039 C2040 1.398 . S
C2040 H2028 0.950 . S
C2040 C2039 1.398 . S
C2040 C2041 1.391 . S
C2041 H2029 0.950 . S
C2041 C2037 1.393 . S
C2041 C2040 1.391 . S
H2042 C2050 0.950 . S
H2043 C2055 0.950 . S
H2044 C2052 0.950 . S
H2045 C2054 0.950 . S
H2046 C2056 0.950 . S
H2047 C2058 0.950 . S
H2048 C2060 0.950 . S
H2049 C2061 0.950 . S
C2050 H2042 0.950 . S
C2050 C2051 1.386 . S
C2050 C2052 1.391 . S
C2051 C2050 1.386 . S
C2051 C2055 1.393 . S
C2052 H2044 0.950 . S
C2052 C2050 1.391 . S
C2052 C2053 1.400 . S
C2053 C2052 1.400 . S
C2053 C2054 1.398 . S
C2053 C2059 1.491 . S
C2054 H2045 0.950 . S
C2054 C2053 1.398 . S
C2054 C2055 1.391 . S
C2055 H2043 0.950 . S
C2055 C2051 1.393 . S
C2055 C2054 1.391 . S
C2056 H2046 0.950 . S
C2056 C2057 1.386 . S
C2056 C2058 1.391 . S
C2057 C2056 1.386 . S
C2057 C2061 1.393 . S
C2058 H2047 0.950 . S
C2058 C2056 1.391 . S
C2058 C2059 1.400 . S
C2059 C2053 1.491 . S
C2059 C2058 1.400 . S
C2059 C2060 1.398 . S
C2060 H2048 0.950 . S
C2060 C2059 1.398 . S
C2060 C2061 1.391 . S
C2061 H2049 0.950 . S
C2061 C2057 1.393 . S
C2061 C2060 1.391 . S
H2062 C2070 0.950 . S
H2063 C2075 0.950 . S
H2064 C2072 0.950 . S
H2065 C2074 0.950 . S
H2066 C2076 0.950 . S
H2067 C2078 0.950 . S
H2068 C2080 0.950 . S
H2069 C2081 0.950 . S
C2070 H2062 0.950 . S
C2070 C2071 1.386 . S
C2070 C2072 1.391 . S
C2071 C2070 1.386 . S
C2071 C2075 1.393 . S
C2072 H2064 0.950 . S
C2072 C2070 1.391 . S
C2072 C2073 1.400 . S
C2073 C2072 1.400 . S
C2073 C2074 1.398 . S
C2073 C2079 1.491 . S
C2074 H2065 0.950 . S
C2074 C2073 1.398 . S
C2074 C2075 1.391 . S
C2075 H2063 0.950 . S
C2075 C2071 1.393 . S
C2075 C2074 1.391 . S
C2076 H2066 0.950 . S
C2076 C2077 1.386 . S
C2076 C2078 1.391 . S
C2077 C2076 1.386 . S
C2077 C2081 1.393 . S
C2078 H2067 0.950 . S
C2078 C2076 1.391 . S
C2078 C2079 1.400 . S
C2079 C2073 1.491 . S
C2079 C2078 1.400 . S
C2079 C2080 1.398 . S
C2080 H2068 0.950 . S
C2080 C2079 1.398 . S
C2080 C2081 1.391 . S
C2081 H2069 0.950 . S
C2081 C2077 1.393 . S
C2081 C2080 1.391 . S
H2082 C2090 0.950 . S
H2083 C2095 0.950 . S
H2084 C2092 0.950 . S
H2085 C2094 0.950 . S
H2086 C2096 0.950 . S
H2087 C2098 0.950 . S
H2088 C2100 0.950 . S
H2089 C2101 0.950 . S
C2090 H2082 0.950 . S
C2090 C2091 1.386 . S
C2090 C2092 1.391 . S
C2091 C2090 1.386 . S
C2091 C2095 1.393 . S
C2092 H2084 0.950 . S
C2092 C2090 1.391 . S
C2092 C2093 1.400 . S
C2093 C2092 1.400 . S
C2093 C2094 1.398 . S
C2093 C2099 1.491 . S
C2094 H2085 0.950 . S
C2094 C2093 1.398 . S
C2094 C2095 1.391 . S
C2095 H2083 0.950 . S
C2095 C2091 1.393 . S
C2095 C2094 1.391 . S
C2096 H2086 0.950 . S
C2096 C2097 1.386 . S
C2096 C2098 1.391 . S
C2097 C2096 1.386 . S
C2097 C2101 1.393 . S
C2098 H2087 0.950 . S
C2098 C2096 1.391 . S
C2098 C2099 1.400 . S
C2099 C2093 1.491 . S
C2099 C2098 1.400 . S
C2099 C2100 1.398 . S
C2100 H2088 0.950 . S
C2100 C2099 1.398 . S
C2100 C2101 1.391 . S
C2101 H2089 0.950 . S
C2101 C2097 1.393 . S
C2101 C2100 1.391 . S
H2102 C2110 0.950 . S
H2103 C2115 0.950 . S
H2104 C2112 0.950 . S
H2105 C2114 0.950 . S
H2106 C2116 0.950 . S
H2107 C2118 0.950 . S
H2108 C2120 0.950 . S
H2109 C2121 0.950 . S
C2110 H2102 0.950 . S
C2110 C2111 1.386 . S
C2110 C2112 1.391 . S
C2111 C2110 1.386 . S
C2111 C2115 1.393 . S
C2112 H2104 0.950 . S
C2112 C2110 1.391 . S
C2112 C2113 1.400 . S
C2113 C2112 1.400 . S
C2113 C2114 1.398 . S
C2113 C2119 1.491 . S
C2114 H2105 0.950 . S
C2114 C2113 1.398 . S
C2114 C2115 1.391 . S
C2115 H2103 0.950 . S
C2115 C2111 1.393 . S
C2115 C2114 1.391 . S
C2116 H2106 0.950 . S
C2116 C2117 1.386 . S
C2116 C2118 1.391 . S
C2117 C2116 1.386 . S
C2117 C2121 1.393 . S
C2118 H2107 0.950 . S
C2118 C2116 1.391 . S
C2118 C2119 1.400 . S
C2119 C2113 1.491 . S
C2119 C2118 1.400 . S
C2119 C2120 1.398 . S
C2120 H2108 0.950 . S
C2120 C2119 1.398 . S
C2120 C2121 1.391 . S
C2121 H2109 0.950 . S
C2121 C2117 1.393 . S
C2121 C2120 1.391 . S
H2122 C2130 0.950 . S
H2123 C2135 0.950 . S
H2124 C2132 0.950 . S
H2125 C2134 0.950 . S
H2126 C2136 0.950 . S
H2127 C2138 0.950 . S
H2128 C2140 0.950 . S
H2129 C2141 0.950 . S
C2130 H2122 0.950 . S
C2130 C2131 1.386 . S
C2130 C2132 1.391 . S
C2131 C2130 1.386 . S
C2131 C2135 1.393 . S
C2132 H2124 0.950 . S
C2132 C2130 1.391 . S
C2132 C2133 1.400 . S
C2133 C2132 1.400 . S
C2133 C2134 1.398 . S
C2133 C2139 1.491 . S
C2134 H2125 0.950 . S
C2134 C2133 1.398 . S
C2134 C2135 1.391 . S
C2135 H2123 0.950 . S
C2135 C2131 1.393 . S
C2135 C2134 1.391 . S
C2136 H2126 0.950 . S
C2136 C2137 1.386 . S
C2136 C2138 1.391 . S
C2137 C2136 1.386 . S
C2137 C2141 1.393 . S
C2138 H2127 0.950 . S
C2138 C2136 1.391 . S
C2138 C2139 1.400 . S
C2139 C2133 1.491 . S
C2139 C2138 1.400 . S
C2139 C2140 1.398 . S
C2140 H2128 0.950 . S
C2140 C2139 1.398 . S
C2140 C2141 1.391 . S
C2141 H2129 0.950 . S
C2141 C2137 1.393 . S
C2141 C2140 1.391 . S
C1071 C528 1.654 . S
C1077 C714 1.670 . S
C1091 C562 1.818 . S
C1097 C754 1.819 . S
C1111 C484 1.752 . S
C1117 C784 1.754 . S
C1131 C445 1.579 . S
C1137 C744 1.575 . S
C1157 C794 1.496 . S
C1151 C367 1.487 . S
C1171 C411 1.417 . S
C1177 C704 1.453 . S
C1197 C733 1.689 . S
C1191 C450 1.657 . S
C1217 C773 1.797 . S
C1211 C372 1.788 . S
C1231 C406 1.734 . S
C1237 C799 1.746 . S
C1251 C523 1.570 . S
C1257 C759 1.561 . S
C1271 C567 1.457 . S
C1277 C813 1.476 . S
C1297 C719 1.445 . S
C1291 C489 1.424 . S
C1317 C834 1.674 . S
C1311 C60 1.658 . S
C1331 C94 1.814 . S
C1337 C874 1.816 . S
C1351 C16 1.755 . S
C1357 C904 1.761 . S
C1371 C679 1.563 . S
C1377 C864 1.566 . S
C1391 C601 1.483 . S
C1397 C914 1.495 . S
C1411 C645 1.401 . S
C1417 C824 1.416 . S
C1431 C684 1.659 . S
C1437 C853 1.690 . S
C1451 C606 1.796 . S
C1457 C893 1.804 . S
C1477 C919 1.762 . S
C1471 C640 1.741 . S
C1491 C55 1.577 . S
C1497 C879 1.573 . S
C1517 C933 1.481 . S
C1511 C99 1.470 . S
C1531 C21 1.419 . S
C1537 C839 1.442 . S
C1557 C954 1.671 . S
C1551 C294 1.655 . S
C1571 C328 1.813 . S
C1577 C994 1.816 . S
C1597 C1024 1.752 . S
C1591 C250 1.735 . S
C1617 C984 1.570 . S
C1611 C211 1.579 . S
C1637 C1034 1.502 . S
C1631 C133 1.496 . S
C1651 C177 1.398 . S
C1657 C944 1.423 . S
C1671 C216 1.657 . S
C1677 C973 1.689 . S
C1691 C138 1.787 . S
C1697 C1013 1.796 . S
C1717 C1039 1.762 . S
C1711 C172 1.740 . S
C1731 C289 1.558 . S
C1737 C999 1.566 . S
C1751 C333 1.463 . S
C1757 C1053 1.477 . S
C1771 C255 1.423 . S
C1777 C959 1.455 . S
C1791 C586 1.330 . S
C1797 C731 1.321 . S
C1817 C771 1.852 . S
C1811 C625 1.864 . S
C1831 C664 1.578 . S
C1837 C790 1.578 . S
C1851 C235 1.858 . S
C1857 C750 1.854 . S
C1871 C274 1.564 . S
C1877 C811 1.568 . S
C1897 C710 1.316 . S
C1891 C313 1.327 . S
C1911 C118 1.330 . S
C1917 C851 1.328 . S
C1931 C157 1.854 . S
C1937 C891 1.841 . S
C1951 C196 1.568 . S
C1957 C910 1.574 . S
C1971 C469 1.862 . S
C1977 C870 1.862 . S
C1997 C931 1.560 . S
C1991 C508 1.558 . S
C2011 C547 1.331 . S
C2017 C830 1.320 . S
C2031 C352 1.330 . S
C2037 C971 1.323 . S
C2051 C391 1.861 . S
C2057 C1011 1.847 . S
C2077 C1030 1.577 . S
C2071 C430 1.568 . S
C2091 C1 1.863 . S
C2097 C990 1.864 . S
C2111 C40 1.568 . S
C2117 C1051 1.566 . S
C2131 C79 1.327 . S
C2137 C950 1.316 . S
