# Generated by pormake.
# Topology tsx, (6,3)-cn, num edge types: 1
# Building blocks:
#     Node 0, Type 0, BuildingBlock: MIDCAF_clean_sbu_0, # of connection points: 6
#     Node 1, Type 0, BuildingBlock: MIDCAF_clean_sbu_0, # of connection points: 6
#     Node 2, Type 1, BuildingBlock: ESEHIV_clean_linker_0, # of connection points: 3
#     Node 3, Type 1, BuildingBlock: ESEHIV_clean_linker_0, # of connection points: 3
#     Node 4, Type 1, BuildingBlock: ESEHIV_clean_linker_0, # of connection points: 3
#     Node 5, Type 1, BuildingBlock: ESEHIV_clean_linker_0, # of connection points: 3
#     Edge 6, Type (0, 1), BuildingBlock: ZUJKAS_clean_linker_0, # of connection points: 2
#     Edge 7, Type (0, 1), BuildingBlock: ZUJKAS_clean_linker_0, # of connection points: 2
#     Edge 8, Type (0, 1), BuildingBlock: ZUJKAS_clean_linker_0, # of connection points: 2
#     Edge 9, Type (0, 1), BuildingBlock: ZUJKAS_clean_linker_0, # of connection points: 2
#     Edge 10, Type (0, 1), BuildingBlock: ZUJKAS_clean_linker_0, # of connection points: 2
#     Edge 11, Type (0, 1), BuildingBlock: ZUJKAS_clean_linker_0, # of connection points: 2
#     Edge 12, Type (0, 1), BuildingBlock: ZUJKAS_clean_linker_0, # of connection points: 2
#     Edge 13, Type (0, 1), BuildingBlock: ZUJKAS_clean_linker_0, # of connection points: 2
#     Edge 14, Type (0, 1), BuildingBlock: ZUJKAS_clean_linker_0, # of connection points: 2
#     Edge 15, Type (0, 1), BuildingBlock: ZUJKAS_clean_linker_0, # of connection points: 2
#     Edge 16, Type (0, 1), BuildingBlock: ZUJKAS_clean_linker_0, # of connection points: 2
#     Edge 17, Type (0, 1), BuildingBlock: ZUJKAS_clean_linker_0, # of connection points: 2
# Relax obj value: 0.119
# Max RMSD: 0.182
# Mean RMSD: 0.113
data_MOF--net-tsx--node1-MIDCAF_clean_sbu_0--node2-ESEHIV_clean_linker_0--edge1-ZUJKAS_clean_linker_0
_symmetry_space_group_name_H-M    P1
_symmetry_Int_Tables_number       1
_symmetry_cell_setting            triclinic
loop_
_symmetry_equiv_pos_as_xyz
'x, y, z'
_cell_length_a     24.137311
_cell_length_b     24.956769
_cell_length_c     47.464344
_cell_angle_alpha  90.865864
_cell_angle_beta   94.525966
_cell_angle_gamma 90.248564
loop_
_atom_site_label
_atom_site_type_symbol
_atom_site_fract_x
_atom_site_fract_y
_atom_site_fract_z
_atom_type_partial_charge
Zn0 Zn 0.03518 0.91014 0.9883 0.0
Zn1 Zn 0.16374 0.97429 0.05437 0.0
Zn2 Zn 0.08599 0.95656 0.02129 0.0
C3 C 0.14829 0.06489 0.01813 0.0
C4 C 0.18588 0.87857 0.02492 0.0
O5 O 0.01475 0.91757 0.03897 0.0
O6 O 0.02257 0.84587 0.01205 0.0
C7 C 0.99129 0.01514 0.99037 0.0
O8 O 0.10366 0.03961 0.00881 0.0
O9 O 0.18243 0.04321 0.03604 0.0
O10 O 0.20506 0.9064 0.04601 0.0
O11 O 0.14076 0.89273 0.01134 0.0
O12 O 0.97308 0.96744 0.98786 0.0
O13 O 0.04383 0.022 0.99721 0.0
O14 O 0.09176 0.9989 0.98123 0.0
O15 O 0.09238 0.92065 0.95945 0.0
C16 C 0.10155 0.97075 0.95922 0.0
O17 O 0.04484 0.9553 0.06019 0.0
O18 O 0.11843 0.97935 0.08809 0.0
C19 C 1.0016 0.86847 0.03279 0.0
C20 C 0.06721 0.96796 0.08476 0.0
Zn21 Zn 0.62258 0.55627 0.54431 0.0
Zn22 Zn 0.44638 0.56013 0.47502 0.0
Zn23 Zn 0.53412 0.55896 0.5096 0.0
C24 C 0.52407 0.50568 0.44637 0.0
C25 C 0.47478 0.66656 0.48526 0.0
O26 O 0.51295 0.51642 0.54819 0.0
O27 O 0.59435 0.50794 0.57252 0.0
C28 C 0.65258 0.50767 0.49564 0.0
O29 O 0.5542 0.51956 0.469 0.0
O30 O 0.47284 0.51609 0.4442 0.0
O31 O 0.44217 0.63798 0.46924 0.0
O32 O 0.51136 0.64435 0.50252 0.0
O33 O 0.6752 0.52616 0.51863 0.0
O34 O 0.60032 0.51507 0.48908 0.0
O35 O 0.55985 0.64323 0.52071 0.0
O36 O 0.62803 0.63328 0.55415 0.0
C37 C 0.59638 0.66351 0.53921 0.0
O38 O 0.46608 0.51466 0.5285 0.0
O39 O 0.39245 0.52708 0.49861 0.0
C40 C 0.54269 0.49912 0.56991 0.0
C41 C 0.41388 0.50754 0.52125 0.0
H42 H 0.9656 0.09446 0.3662 0.0
H43 H 0.09551 0.97813 0.37763 0.0
H44 H 0.06387 0.08791 0.44556 0.0
C45 C 0.99914 0.07658 0.37937 0.0
C46 C 0.01168 0.09637 0.4069 0.0
C47 C 0.0287 0.03362 0.36877 0.0
C48 C 0.07135 0.01017 0.38615 0.0
C49 C 0.08479 0.02959 0.4139 0.0
C50 C 0.05427 0.07261 0.42424 0.0
H51 H 0.92594 0.05021 0.66511 0.0
H52 H 0.0712 0.1501 0.66724 0.0
H53 H 0.97189 0.12589 0.589 0.0
C54 C 0.95276 0.07658 0.65431 0.0
C55 C 0.94227 0.08537 0.62507 0.0
C56 C 0.9993 0.0996 0.66959 0.0
C57 C 0.03572 0.13144 0.65546 0.0
C58 C 0.0264 0.14063 0.62645 0.0
C59 C 0.97923 0.11823 0.61138 0.0
H60 H 0.44939 0.47899 0.86835 0.0
H61 H 0.58305 0.36947 0.85726 0.0
H62 H 0.55776 0.43328 0.94006 0.0
C63 C 0.48472 0.45631 0.87709 0.0
C64 C 0.50032 0.4604 0.90616 0.0
C65 C 0.51444 0.42408 0.85915 0.0
C66 C 0.55941 0.39409 0.87093 0.0
C67 C 0.5751 0.39657 0.90014 0.0
C68 C 0.54493 0.4296 0.91771 0.0
H69 H 0.48395 0.42164 0.14793 0.0
H70 H 0.60475 0.5484 0.15946 0.0
H71 H 0.51507 0.52366 0.07837 0.0
C72 C 0.50605 0.45489 0.13949 0.0
C73 C 0.49433 0.46923 0.11103 0.0
C74 C 0.54602 0.48304 0.15713 0.0
C75 C 0.57401 0.52627 0.14601 0.0
C76 C 0.56324 0.54131 0.11773 0.0
C77 C 0.52328 0.51256 0.10028 0.0
H78 H 0.24233 0.09544 0.99603 0.0
H79 H 0.28298 0.18501 0.00045 0.0
H80 H 0.12821 0.24716 0.02644 0.0
H81 H 0.08782 0.15652 0.02278 0.0
H82 H 0.26799 0.2917 0.98555 0.0
H83 H 0.23117 0.25799 0.09847 0.0
H84 H 0.21826 0.20642 0.07178 0.0
H85 H 0.17064 0.26123 0.07403 0.0
C86 C 0.21615 0.12867 0.00138 0.0
C87 C 0.16205 0.1192 0.0091 0.0
C88 C 0.23948 0.17993 0.00399 0.0
C89 C 0.2092 0.2226 0.01454 0.0
C90 C 0.15269 0.21457 0.01876 0.0
H91 H 0.412 0.50782 0.07334 0.0
H92 H 0.33758 0.45626 0.04679 0.0
C93 C 0.12928 0.16295 0.01623 0.0
C94 C 0.24025 0.27086 0.02601 0.0
H95 H 0.29128 0.32716 0.0889 0.0
C96 C 0.27216 0.30042 0.00807 0.0
C97 C 0.24632 0.28168 0.05551 0.0
C98 C 0.2152 0.25009 0.07619 0.0
C99 C 0.31177 0.33855 0.01898 0.0
C100 C 0.31936 0.34735 0.04853 0.0
C101 C 0.2853 0.32014 0.06624 0.0
C102 C 0.36654 0.37925 0.06207 0.0
C103 C 0.34761 0.36674 -0.00087 0.0
C104 C 0.40765 0.35309 0.07923 0.0
C105 C 0.4499 0.38223 0.09435 0.0
C106 C 0.45195 0.4384 0.09281 0.0
C107 C 0.41177 0.46456 0.07485 0.0
C108 C 0.36924 0.4352 0.05966 0.0
H109 H 0.34046 0.35134 0.97705 0.0
H110 H 0.33838 0.41027 -0.00067 0.0
H111 H 0.39224 0.36194 0.00624 0.0
H112 H 0.4065 0.30992 0.08129 0.0
H113 H 0.48072 0.36074 0.10754 0.0
H114 H 0.16656 0.81631 0.97689 0.0
H115 H 0.22039 0.73895 0.96249 0.0
H116 H 0.327 0.75382 0.03956 0.0
H117 H 0.27449 0.83157 0.05376 0.0
H118 H 0.38626 0.74427 0.99475 0.0
H119 H 0.2246 0.58562 0.98923 0.0
H120 H 0.20416 0.64257 0.96832 0.0
H121 H 0.21532 0.64991 0.00613 0.0
C122 C 0.20117 0.80279 0.99086 0.0
C123 C 0.21628 0.83022 0.01643 0.0
C124 C 0.23164 0.75829 0.98272 0.0
C125 C 0.27724 0.74002 0.00016 0.0
C126 C 0.29187 0.767 0.02582 0.0
H127 H 0.45902 0.44642 0.95803 0.0
H128 H 0.40784 0.51238 0.98495 0.0
C129 C 0.26178 0.81156 0.03387 0.0
C130 C 0.31221 0.69527 0.99086 0.0
H131 H 0.30759 0.56576 0.96634 0.0
C132 C 0.36909 0.70506 0.98887 0.0
C133 C 0.29018 0.64373 0.98371 0.0
C134 C 0.23034 0.62957 0.98723 0.0
C135 C 0.40393 0.66562 0.97869 0.0
C136 C 0.38111 0.61535 0.96973 0.0
C137 C 0.32487 0.60454 0.97298 0.0
C138 C 0.41374 0.57561 0.95457 0.0
C139 C 0.46483 0.67836 0.97732 0.0
C140 C 0.43365 0.58932 0.92867 0.0
C141 C 0.46259 0.55208 0.91343 0.0
C142 C 0.47198 0.50004 0.92363 0.0
C143 C 0.45264 0.48635 0.94978 0.0
C144 C 0.42326 0.52381 0.96505 0.0
H145 H 0.47885 0.71044 0.99278 0.0
H146 H 0.49085 0.64232 0.9815 0.0
H147 H 0.47181 0.69278 0.95588 0.0
H148 H 0.42603 0.62873 0.91997 0.0
H149 H 0.47747 0.56397 0.89349 0.0
H150 H 0.91827 0.91284 0.06112 0.0
H151 H 0.83775 0.86611 0.07805 0.0
H152 H 0.90437 0.71468 0.05238 0.0
H153 H 0.98454 0.76085 0.03524 0.0
H154 H 0.76788 0.78131 0.0357 0.0
H155 H 0.85569 0.71087 0.14066 0.0
H156 H 0.8795 0.77165 0.12509 0.0
H157 H 0.89912 0.70773 0.11146 0.0
C158 C 0.91623 0.86951 0.05959 0.0
C159 C 0.9577 0.84042 0.04692 0.0
C160 C 0.87015 0.843 0.0691 0.0
C161 C 0.86532 0.78712 0.06632 0.0
C162 C 0.90759 0.75787 0.05468 0.0
H163 H 0.61468 0.54325 0.06835 0.0
H164 H 0.68236 0.6096 0.05468 0.0
C165 C 0.95331 0.78428 0.04496 0.0
C166 C 0.81491 0.75903 0.07413 0.0
H167 H 0.76792 0.67609 0.12355 0.0
C168 C 0.76747 0.75871 0.05503 0.0
C169 C 0.81481 0.72989 0.09934 0.0
C170 C 0.86479 0.72995 0.12052 0.0
C171 C 0.72015 0.72853 0.06021 0.0
C172 C 0.72075 0.69777 0.08499 0.0
C173 C 0.76766 0.69958 0.1045 0.0
C174 C 0.67403 0.66197 0.09086 0.0
C175 C 0.67002 0.72959 0.03914 0.0
C176 C 0.64626 0.66995 0.11541 0.0
C177 C 0.60751 0.63233 0.12316 0.0
C178 C 0.59627 0.5856 0.10668 0.0
C179 C 0.62202 0.57905 0.08131 0.0
C180 C 0.66076 0.61689 0.07352 0.0
H181 H 0.67079 0.76487 0.02518 0.0
H182 H 0.66956 0.69287 0.02564 0.0
H183 H 0.631 0.73028 0.05007 0.0
H184 H 0.65584 0.70452 0.12903 0.0
H185 H 0.58774 0.63885 0.14262 0.0
H186 H 0.87965 0.01076 0.97713 0.0
H187 H 0.81737 0.08372 0.96282 0.0
H188 H 0.95484 0.19518 0.97108 0.0
H189 H 0.01813 0.12175 0.9854 0.0
H190 H 0.85209 0.22979 0.99603 0.0
H191 H 0.81623 0.15845 0.8848 0.0
H192 H 0.80703 0.1077 0.9105 0.0
H193 H 0.87462 0.1369 0.90795 0.0
C194 C 0.8969 0.05069 0.97589 0.0
C195 C 0.954 0.06038 0.98232 0.0
C196 C 0.86116 0.09237 0.96766 0.0
C197 C 0.88158 0.14468 0.96558 0.0
C198 C 0.93834 0.15497 0.97249 0.0
H199 H 0.67629 0.38711 0.87844 0.0
H200 H 0.75468 0.33165 0.89558 0.0
C201 C 0.97436 0.11305 0.98069 0.0
C202 C 0.84309 0.18801 0.95591 0.0
H203 H 0.7532 0.22369 0.90033 0.0
C204 C 0.83085 0.22895 0.97502 0.0
C205 C 0.81595 0.18709 0.9284 0.0
C206 C 0.82939 0.14549 0.90659 0.0
C207 C 0.7905 0.26789 0.96762 0.0
C208 C 0.76126 0.26525 0.94057 0.0
C209 C 0.77517 0.22545 0.92116 0.0
C210 C 0.71546 0.30262 0.93188 0.0
C211 C 0.77963 0.31149 0.9888 0.0
C212 C 0.6673 0.30504 0.94667 0.0
C213 C 0.62223 0.33669 0.93686 0.0
C214 C 0.62424 0.36598 0.91187 0.0
C215 C 0.67302 0.36433 0.89749 0.0
C216 C 0.71802 0.3329 0.90735 0.0
H217 H 0.81557 0.31722 0.0047 0.0
H218 H 0.77057 0.35018 0.97819 0.0
H219 H 0.74305 0.30014 0.00022 0.0
H220 H 0.66381 0.28111 0.96529 0.0
H221 H 0.58508 0.33675 0.94825 0.0
H222 H 0.59918 0.73749 0.4973 0.0
H223 H 0.64244 0.82704 0.50254 0.0
H224 H 0.66037 0.80883 0.59296 0.0
H225 H 0.61834 0.71965 0.58785 0.0
H226 H 0.62857 0.92778 0.55632 0.0
H227 H 0.82072 0.80872 0.54507 0.0
H228 H 0.75568 0.79161 0.52552 0.0
H229 H 0.76484 0.77913 0.56267 0.0
C230 C 0.61035 0.75364 0.5183 0.0
C231 C 0.60585 0.72178 0.54218 0.0
C232 C 0.63509 0.80462 0.52126 0.0
C233 C 0.65467 0.8242 0.54814 0.0
C234 C 0.64529 0.7944 0.57209 0.0
H235 H 0.83808 0.06483 0.64209 0.0
H236 H 0.76561 0.00849 0.61837 0.0
C237 C 0.62138 0.7435 0.56913 0.0
C238 C 0.6934 0.87032 0.55143 0.0
H239 H 0.83206 0.89674 0.56274 0.0
C240 C 0.6731 0.92154 0.55718 0.0
C241 C 0.75133 0.86192 0.55232 0.0
C242 C 0.77489 0.80751 0.546 0.0
C243 C 0.70964 0.96433 0.56493 0.0
C244 C 0.76772 0.95495 0.56783 0.0
C245 C 0.7877 0.90419 0.56062 0.0
C246 C 0.80855 0.99513 0.58052 0.0
C247 C 0.6855 0.01889 0.57012 0.0
C248 C 0.85754 0.0061 0.56748 0.0
C249 C 0.90009 0.03692 0.58146 0.0
C250 C 0.89457 0.05778 0.60883 0.0
C251 C 0.84435 0.04877 0.62127 0.0
C252 C 0.80218 0.01733 0.60744 0.0
H253 H 0.6459 0.02445 0.55692 0.0
H254 H 0.67611 0.02249 0.59258 0.0
H255 H 0.71477 0.05147 0.56553 0.0
H256 H 0.86374 0.98912 0.54682 0.0
H257 H 0.93827 0.04226 0.57127 0.0
H258 H 0.61934 0.41522 0.46784 0.0
H259 H 0.68033 0.34642 0.44987 0.0
H260 H 0.82163 0.45149 0.46749 0.0
H261 H 0.76117 0.51952 0.4862 0.0
H262 H 0.75498 0.33712 0.40975 0.0
H263 H 0.86273 0.32467 0.51692 0.0
H264 H 0.79959 0.36216 0.50984 0.0
H265 H 0.86556 0.39065 0.50262 0.0
C266 C 0.6632 0.42403 0.46716 0.0
C267 C 0.68579 0.47235 0.47855 0.0
C268 C 0.69802 0.38467 0.45706 0.0
C269 C 0.75571 0.3933 0.45822 0.0
C270 C 0.77747 0.44343 0.46725 0.0
H271 H 0.99668 0.19287 0.38201 0.0
H272 H 0.93469 0.26484 0.39505 0.0
C273 C 0.7429 0.48239 0.47767 0.0
C274 C 0.79357 0.34894 0.45184 0.0
H275 H 0.90384 0.27709 0.48021 0.0
C276 C 0.78744 0.32383 0.42515 0.0
C277 C 0.83494 0.33072 0.47226 0.0
C278 C 0.8408 0.35303 0.50211 0.0
C279 C 0.8226 0.28192 0.41804 0.0
C280 C 0.86601 0.26582 0.43792 0.0
C281 C 0.87114 0.29001 0.46485 0.0
C282 C 0.90648 0.2239 0.43123 0.0
C283 C 0.81214 0.2547 0.38948 0.0
C284 C 0.91382 0.17847 0.44826 0.0
C285 C 0.95026 0.13786 0.4412 0.0
C286 C 0.97954 0.1421 0.41694 0.0
C287 C 0.97397 0.18856 0.40065 0.0
C288 C 0.93819 0.22935 0.40791 0.0
H289 H 0.76842 0.25982 0.38077 0.0
H290 H 0.83944 0.27294 0.37446 0.0
H291 H 0.82122 0.21117 0.39066 0.0
H292 H 0.89019 0.17375 0.46656 0.0
H293 H 0.95379 0.10224 0.45397 0.0
H294 H 0.44421 0.41881 0.5519 0.0
H295 H 0.38194 0.35535 0.57287 0.0
H296 H 0.24137 0.45349 0.5461 0.0
H297 H 0.30344 0.51784 0.52623 0.0
H298 H 0.23392 0.41242 0.59931 0.0
H299 H 0.28422 0.25325 0.52227 0.0
H300 H 0.34273 0.2797 0.54389 0.0
H301 H 0.30522 0.32217 0.51888 0.0
C302 C 0.40028 0.42765 0.55137 0.0
C303 C 0.37868 0.47345 0.53771 0.0
C304 C 0.36466 0.39096 0.56289 0.0
C305 C 0.30694 0.39922 0.56049 0.0
C306 C 0.28573 0.44621 0.54805 0.0
H307 H 0.00522 0.22667 0.59226 0.0
H308 H 0.07385 0.28871 0.57497 0.0
C309 C 0.32122 0.48288 0.53669 0.0
C310 C 0.26789 0.35814 0.56956 0.0
H311 H 0.22081 0.23041 0.55564 0.0
C312 C 0.23109 0.3726 0.58981 0.0
C313 C 0.26409 0.30634 0.55694 0.0
C314 C 0.30077 0.28938 0.53411 0.0
C315 C 0.19073 0.33654 0.59789 0.0
C316 C 0.18674 0.28498 0.58514 0.0
C317 C 0.22392 0.27018 0.56519 0.0
C318 C 0.14523 0.24532 0.593 0.0
C319 C 0.15305 0.35355 0.62026 0.0
C320 C 0.16291 0.19954 0.60779 0.0
C321 C 0.12402 0.16426 0.61756 0.0
C322 C 0.06677 0.17395 0.6125 0.0
C323 C 0.04908 0.21828 0.59635 0.0
C324 C 0.08814 0.25387 0.58672 0.0
H325 H 0.16843 0.39041 0.63182 0.0
H326 H 0.11101 0.3618 0.61011 0.0
H327 H 0.14902 0.3211 0.63574 0.0
H328 H 0.2068 0.19212 0.61263 0.0
H329 H 0.13868 0.13003 0.62973 0.0
H330 H 0.47978 0.73613 0.53076 0.0
H331 H 0.43453 0.82417 0.53159 0.0
H332 H 0.39941 0.81379 0.4411 0.0
H333 H 0.44544 0.72742 0.44017 0.0
H334 H 0.41541 0.91794 0.45963 0.0
H335 H 0.26595 0.81037 0.523 0.0
H336 H 0.33639 0.81799 0.53786 0.0
H337 H 0.3213 0.77559 0.50726 0.0
C338 C 0.46457 0.75393 0.51098 0.0
C339 C 0.46532 0.72486 0.48543 0.0
C340 C 0.43814 0.80388 0.5115 0.0
C341 C 0.41211 0.82478 0.4865 0.0
C342 C 0.41876 0.79839 0.46069 0.0
H343 H 0.11034 0.92371 0.41947 0.0
H344 H 0.19316 0.88487 0.44368 0.0
C345 C 0.445 0.74889 0.46017 0.0
C346 C 0.37048 0.86837 0.48679 0.0
H347 H 0.23489 0.88753 0.50009 0.0
C348 C 0.37642 0.91236 0.46914 0.0
C349 C 0.31948 0.86068 0.49911 0.0
C350 C 0.30989 0.81358 0.51777 0.0
C351 C 0.33134 0.94598 0.46146 0.0
C352 C 0.27932 0.93586 0.47222 0.0
C353 C 0.27484 0.89495 0.49186 0.0
C354 C 0.2274 0.96064 0.45981 0.0
C355 C 0.33844 0.98902 0.44002 0.0
C356 C 0.21843 0.0161 0.46134 0.0
C357 C 0.17113 0.03856 0.4472 0.0
C358 C 0.13203 0.00583 0.43138 0.0
C359 C 0.1401 0.95011 0.43101 0.0
C360 C 0.18724 0.92782 0.44504 0.0
H361 H 0.37951 0.98695 0.43102 0.0
H362 H 0.30536 0.98562 0.42243 0.0
H363 H 0.3348 0.02898 0.45025 0.0
H364 H 0.24845 0.04207 0.47299 0.0
H365 H 0.1662 0.08166 0.44782 0.0
H366 H 0.06242 0.04641 0.12394 0.0
H367 H 0.02729 0.039 0.17066 0.0
H368 H 0.9694 0.87841 0.14985 0.0
H369 H 0.00466 0.88591 0.10279 0.0
H370 H 0.91208 0.99941 0.19042 0.0
H371 H 0.10057 0.87635 0.21812 0.0
H372 H 0.09841 0.92086 0.18844 0.0
H373 H 0.05621 0.86147 0.18658 0.0
C374 C 0.04058 0.01023 0.12905 0.0
C375 C 0.03543 0.96697 0.10983 0.0
C376 C 0.02052 0.00604 0.15564 0.0
C377 C 0.9959 0.95819 0.16358 0.0
C378 C 0.98796 0.91576 0.14391 0.0
H379 H 0.01671 0.93031 0.34849 0.0
H380 H 0.99579 0.90098 0.29912 0.0
C381 C 0.00755 0.92023 0.11704 0.0
C382 C 0.98613 0.95147 0.19361 0.0
H383 H 0.05646 0.91553 0.25548 0.0
C384 C 0.94263 0.9798 0.2047 0.0
C385 C 0.02582 0.92543 0.21205 0.0
C386 C 0.07306 0.89419 0.20091 0.0
C387 C 0.94 0.98586 0.234 0.0
C388 C 0.98305 0.96453 0.25245 0.0
C389 C 0.02378 0.93229 0.24132 0.0
C390 C 0.99121 0.98135 0.28258 0.0
C391 C 0.89225 0.01673 0.24481 0.0
C392 C 0.9967 0.03607 0.28954 0.0
C393 C 0.00864 0.05276 0.31751 0.0
C394 C 0.01609 0.01507 0.33914 0.0
C395 C 0.01131 0.96018 0.33219 0.0
C396 C 0.99898 0.94344 0.3041 0.0
H397 H 0.85402 0.01144 0.23038 0.0
H398 H 0.88333 0.00394 0.2663 0.0
H399 H 0.90273 0.0601 0.24562 0.0
H400 H 0.99316 0.066 0.27322 0.0
H401 H 0.01323 0.09526 0.32213 0.0
H402 H 0.07701 0.07381 0.94381 0.0
H403 H 0.06426 0.10635 0.89523 0.0
H404 H 0.12815 0.9574 0.86434 0.0
H405 H 0.14036 0.92437 0.91258 0.0
H406 H 0.13465 0.1131 0.84637 0.0
H407 H 0.96094 0.96615 0.83217 0.0
H408 H 0.99196 0.98662 0.86653 0.0
H409 H 0.02609 0.9382 0.84557 0.0
C410 C 0.08997 0.04868 0.92675 0.0
C411 C 0.10882 0.99619 0.93189 0.0
C412 C 0.08246 0.06726 0.89903 0.0
C413 C 0.0941 0.03368 0.87629 0.0
C414 C 0.11806 0.98345 0.88165 0.0
H415 H 0.09849 0.07397 0.69751 0.0
H416 H 0.11917 0.06327 0.7483 0.0
C417 C 0.12521 0.96476 0.90922 0.0
C418 C 0.0759 0.04813 0.84694 0.0
H419 H 0.98827 0.00749 0.79068 0.0
C420 C 0.10242 0.09039 0.83418 0.0
C421 C 0.03292 0.01912 0.83139 0.0
C422 C 1.00086 0.9753 0.84463 0.0
C423 C 0.0886 0.10292 0.80573 0.0
C424 C 0.04791 0.07172 0.7897 0.0
C425 C 0.01984 0.03098 0.8029 0.0
C426 C 0.03519 0.07915 0.75896 0.0
C427 C 0.11762 0.14945 0.79315 0.0
C428 C 0.98061 0.08951 0.74796 0.0
C429 C 0.96853 0.09512 0.71885 0.0
C430 C 0.01088 0.0904 0.70029 0.0
C431 C 0.06521 0.07883 0.71135 0.0
C432 C 0.07717 0.07303 0.74038 0.0
H433 H 0.13379 0.17864 0.80973 0.0
H434 H 0.15348 0.13428 0.78219 0.0
H435 H 0.08927 0.17066 0.77752 0.0
H436 H 0.94748 0.09376 0.76195 0.0
H437 H 0.92638 0.1043 0.71092 0.0
H438 H 0.44543 0.52551 0.59235 0.0
H439 H 0.41946 0.5014 0.63959 0.0
H440 H 0.55878 0.39391 0.64876 0.0
H441 H 0.58505 0.418 0.60188 0.0
H442 H 0.41871 0.38332 0.67487 0.0
H443 H 0.57707 0.54252 0.70308 0.0
H444 H 0.53639 0.54105 0.66948 0.0
H445 H 0.59159 0.494 0.6762 0.0
C446 C 0.469 0.49506 0.60399 0.0
C447 C 0.5174 0.4738 0.59367 0.0
C448 C 0.45416 0.48134 0.63091 0.0
C449 C 0.48744 0.44608 0.64756 0.0
C450 C 0.53254 0.42098 0.63611 0.0
H451 H 0.51582 0.34027 0.82072 0.0
H452 H 0.50172 0.34464 0.76918 0.0
C453 C 0.54758 0.43493 0.60941 0.0
C454 C 0.48278 0.44377 0.67834 0.0
H455 H 0.54391 0.49425 0.74033 0.0
C456 C 0.44556 0.40778 0.6893 0.0
C457 C 0.51776 0.47606 0.69691 0.0
C458 C 0.5579 0.51588 0.686 0.0
C459 C 0.44318 0.40269 0.71869 0.0
C460 C 0.47965 0.43378 0.7373 0.0
C461 C 0.51597 0.47043 0.72611 0.0
C462 C 0.48198 0.42918 0.76851 0.0
C463 C 0.40144 0.36454 0.72951 0.0
C464 C 0.47639 0.4753 0.78528 0.0
C465 C 0.48584 0.47325 0.81462 0.0
C466 C 0.5008 0.42486 0.82797 0.0
C467 C 0.50489 0.37829 0.81116 0.0
C468 C 0.49589 0.38052 0.78169 0.0
H469 H 0.36651 0.35616 0.71335 0.0
H470 H 0.42219 0.32597 0.73476 0.0
H471 H 0.38433 0.38075 0.74892 0.0
H472 H 0.46627 0.51341 0.77557 0.0
H473 H 0.48334 0.51019 0.82671 0.0
H474 H 0.62911 0.51971 0.42888 0.0
H475 H 0.65915 0.49674 0.38201 0.0
H476 H 0.50073 0.42022 0.35978 0.0
H477 H 0.47222 0.43997 0.40679 0.0
H478 H 0.58013 0.37032 0.33388 0.0
H479 H 0.59785 0.59076 0.31944 0.0
H480 H 0.64488 0.56311 0.3465 0.0
H481 H 0.57137 0.56278 0.35047 0.0
C482 C 0.60178 0.49599 0.41439 0.0
C483 C 0.54821 0.48191 0.42142 0.0
C484 C 0.61857 0.48366 0.38743 0.0
C485 C 0.58147 0.45829 0.36702 0.0
C486 C 0.52998 0.4402 0.37499 0.0
H487 H 0.47225 0.45213 0.19504 0.0
H488 H 0.49132 0.43736 0.24569 0.0
C489 C 0.51359 0.45177 0.40189 0.0
C490 C 0.5921 0.45594 0.3366 0.0
H491 H 0.60254 0.53605 0.27944 0.0
C492 C 0.586 0.40648 0.32205 0.0
C493 C 0.5993 0.50324 0.32105 0.0
C494 C 0.6033 0.55806 0.33502 0.0
C495 C 0.58437 0.40341 0.29241 0.0
C496 C 0.58937 0.45087 0.27701 0.0
C497 C 0.59878 0.49979 0.29149 0.0
C498 C 0.57976 0.45179 0.24586 0.0
C499 C 0.57554 0.34984 0.27762 0.0
C500 C 0.62333 0.46414 0.22922 0.0
C501 C 0.61273 0.4719 0.20019 0.0
C502 C 0.55811 0.46854 0.18735 0.0
C503 C 0.51483 0.45443 0.20406 0.0
C504 C 0.52562 0.44607 0.23304 0.0
H505 H 0.58356 0.31605 0.29233 0.0
H506 H 0.53187 0.34682 0.26845 0.0
H507 H 0.60302 0.34585 0.26001 0.0
H508 H 0.66534 0.4689 0.2388 0.0
H509 H 0.64727 0.48156 0.18791 0.0
loop_
_geom_bond_atom_site_label_1
_geom_bond_atom_site_label_2
_geom_bond_distance
_geom_bond_site_symmetry_2
_ccdc_geom_bond_type
Zn0 O6 1.912 1_546 S
Zn0 O12 1.898 . S
Zn0 O15 1.905 1_545 S
Zn1 O9 1.905 . S
Zn1 O10 1.898 1_545 S
Zn1 O18 1.920 1_545 S
Zn2 O5 2.080 1_445 S
Zn2 O8 2.114 . S
Zn2 O11 2.120 1_545 S
Zn2 O13 2.120 1_455 S
Zn2 O14 2.114 1_554 S
Zn2 O17 2.080 . S
C3 O8 1.166 . S
C3 O9 1.182 . S
C4 O10 1.167 . S
C4 O11 1.299 . S
O5 Zn2 2.080 1_665 S
O5 C19 1.305 . S
O6 Zn0 1.912 1_564 S
O6 C19 1.240 . S
C7 O12 1.176 . S
C7 O13 1.291 1_556 S
O8 Zn2 2.114 . S
O8 C3 1.166 . S
O9 Zn1 1.905 . S
O9 C3 1.182 . S
O10 Zn1 1.898 1_565 S
O10 C4 1.167 . S
O11 Zn2 2.120 1_565 S
O11 C4 1.299 . S
O12 Zn0 1.898 . S
O12 C7 1.176 . S
O13 Zn2 2.120 1_655 S
O13 C7 1.291 1_554 S
O14 Zn2 2.114 1_556 S
O14 C16 1.166 1_545 S
O15 Zn0 1.905 1_565 S
O15 C16 1.182 1_655 S
C16 O14 1.166 1_565 S
C16 O15 1.182 1_455 S
O17 Zn2 2.080 . S
O17 C20 1.305 1_545 S
O18 Zn1 1.920 1_565 S
O18 C20 1.234 . S
C19 O5 1.305 . S
C19 O6 1.240 . S
C20 O17 1.305 1_565 S
C20 O18 1.234 . S
Zn21 O27 1.920 . S
Zn21 O33 1.898 . S
Zn21 O36 1.905 . S
Zn22 O30 1.905 . S
Zn22 O31 1.898 . S
Zn22 O39 1.920 . S
Zn23 O26 2.080 . S
Zn23 O29 2.114 . S
Zn23 O32 2.120 . S
Zn23 O34 2.120 . S
Zn23 O35 2.114 . S
Zn23 O38 2.080 . S
C24 O29 1.166 . S
C24 O30 1.182 . S
C25 O31 1.167 . S
C25 O32 1.299 . S
O26 Zn23 2.080 . S
O26 C40 1.305 . S
O27 Zn21 1.920 . S
O27 C40 1.234 . S
C28 O33 1.167 . S
C28 O34 1.299 . S
O29 Zn23 2.114 . S
O29 C24 1.166 . S
O30 Zn22 1.905 . S
O30 C24 1.182 . S
O31 Zn22 1.898 . S
O31 C25 1.167 . S
O32 Zn23 2.120 . S
O32 C25 1.299 . S
O33 Zn21 1.898 . S
O33 C28 1.167 . S
O34 Zn23 2.120 . S
O34 C28 1.299 . S
O35 Zn23 2.114 . S
O35 C37 1.166 . S
O36 Zn21 1.905 . S
O36 C37 1.182 . S
C37 O35 1.166 . S
C37 O36 1.182 . S
O38 Zn23 2.080 . S
O38 C41 1.305 . S
O39 Zn22 1.920 . S
O39 C41 1.234 . S
C40 O26 1.305 . S
C40 O27 1.234 . S
C41 O38 1.305 . S
C41 O39 1.234 . S
H42 C45 0.931 . S
H43 C48 0.928 . S
H44 C50 0.930 . S
C45 H42 0.931 . S
C45 C46 1.413 . S
C45 C47 1.360 . S
C46 C45 1.413 . S
C46 C50 1.429 . S
C47 C45 1.360 . S
C47 C48 1.372 1_545 S
C48 H43 0.928 . S
C48 C47 1.372 1_565 S
C48 C49 1.404 . S
C49 C48 1.404 . S
C49 C50 1.391 1_565 S
C50 H44 0.930 . S
C50 C46 1.429 . S
C50 C49 1.391 1_545 S
H51 C54 0.931 . S
H52 C57 0.928 . S
H53 C59 0.930 . S
C54 H51 0.931 . S
C54 C55 1.413 . S
C54 C56 1.360 1_665 S
C55 C54 1.413 . S
C55 C59 1.421 1_665 S
C56 C54 1.360 1_445 S
C56 C57 1.372 . S
C57 H52 0.928 . S
C57 C56 1.372 . S
C57 C58 1.404 . S
C58 C57 1.404 . S
C58 C59 1.398 . S
C59 H53 0.930 . S
C59 C55 1.421 1_445 S
C59 C58 1.398 . S
H60 C63 0.931 . S
H61 C66 0.928 . S
H62 C68 0.930 . S
C63 H60 0.931 . S
C63 C64 1.413 . S
C63 C65 1.360 . S
C64 C63 1.413 . S
C64 C68 1.429 . S
C65 C63 1.360 . S
C65 C66 1.372 . S
C66 H61 0.928 . S
C66 C65 1.372 . S
C66 C67 1.404 . S
C67 C66 1.404 . S
C67 C68 1.391 . S
C68 H62 0.930 . S
C68 C64 1.429 . S
C68 C67 1.391 . S
H69 C72 0.931 . S
H70 C75 0.928 . S
H71 C77 0.930 . S
C72 H69 0.931 . S
C72 C73 1.413 . S
C72 C74 1.360 . S
C73 C72 1.413 . S
C73 C77 1.429 . S
C74 C72 1.360 . S
C74 C75 1.372 . S
C75 H70 0.928 . S
C75 C74 1.372 . S
C75 C76 1.404 . S
C76 C75 1.404 . S
C76 C77 1.391 . S
C77 H71 0.930 . S
C77 C73 1.429 . S
C77 C76 1.391 . S
H78 C86 0.929 . S
H79 C88 0.930 . S
H80 C90 0.930 . S
H81 C93 0.929 . S
H82 C96 0.930 . S
H83 C98 0.960 . S
H84 C98 0.960 . S
H85 C98 0.960 . S
C86 H78 0.929 . S
C86 C87 1.377 . S
C86 C88 1.384 . S
C87 C86 1.377 . S
C87 C93 1.390 . S
C88 H79 0.930 . S
C88 C86 1.384 . S
C88 C89 1.372 . S
C89 C88 1.372 . S
C89 C90 1.400 . S
C89 C94 1.490 . S
C90 H80 0.930 . S
C90 C89 1.400 . S
C90 C93 1.386 . S
H91 C107 0.930 . S
H92 C108 0.931 . S
C93 H81 0.929 . S
C93 C87 1.390 . S
C93 C90 1.386 . S
C94 C89 1.490 . S
C94 C96 1.395 . S
C94 C97 1.403 . S
H95 C101 0.930 . S
C96 H82 0.930 . S
C96 C94 1.395 . S
C96 C99 1.403 . S
C97 C94 1.403 . S
C97 C98 1.524 . S
C97 C101 1.400 . S
C98 H83 0.960 . S
C98 H84 0.960 . S
C98 H85 0.960 . S
C98 C97 1.524 . S
C99 C96 1.403 . S
C99 C100 1.392 . S
C99 C103 1.495 . S
C100 C99 1.392 . S
C100 C101 1.385 . S
C100 C102 1.478 . S
C101 H95 0.930 . S
C101 C97 1.400 . S
C101 C100 1.385 . S
C102 C100 1.478 . S
C102 C104 1.381 . S
C102 C108 1.383 . S
C103 C99 1.495 . S
C103 H109 0.959 . S
C103 H110 0.961 . S
C103 H111 0.960 . S
C104 C102 1.381 . S
C104 C105 1.394 . S
C104 H112 0.930 . S
C105 C104 1.394 . S
C105 C106 1.383 . S
C105 H113 0.929 . S
C106 C105 1.383 . S
C106 C107 1.377 . S
C107 H91 0.930 . S
C107 C106 1.377 . S
C107 C108 1.379 . S
C108 H92 0.931 . S
C108 C102 1.383 . S
C108 C107 1.379 . S
H109 C103 0.959 . S
H110 C103 0.961 . S
H111 C103 0.960 . S
H112 C104 0.930 . S
H113 C105 0.929 . S
H114 C122 0.929 . S
H115 C124 0.930 . S
H116 C126 0.930 . S
H117 C129 0.929 1_554 S
H118 C132 0.930 1_554 S
H119 C134 0.960 . S
H120 C134 0.960 . S
H121 C134 0.960 . S
C122 H114 0.929 . S
C122 C123 1.377 . S
C122 C124 1.384 . S
C123 C122 1.377 . S
C123 C129 1.390 . S
C124 H115 0.930 . S
C124 C122 1.384 . S
C124 C125 1.372 . S
C125 C124 1.372 . S
C125 C126 1.400 . S
C125 C130 1.490 . S
C126 H116 0.930 . S
C126 C125 1.400 . S
C126 C129 1.386 . S
H127 C143 0.930 . S
H128 C144 0.931 . S
C129 H117 0.929 1_556 S
C129 C123 1.390 . S
C129 C126 1.386 . S
C130 C125 1.490 . S
C130 C132 1.395 . S
C130 C133 1.403 . S
H131 C137 0.930 . S
C132 H118 0.930 1_556 S
C132 C130 1.395 . S
C132 C135 1.403 . S
C133 C130 1.403 . S
C133 C134 1.524 . S
C133 C137 1.400 . S
C134 H119 0.960 . S
C134 H120 0.960 . S
C134 H121 0.960 . S
C134 C133 1.524 . S
C135 C132 1.403 . S
C135 C136 1.392 . S
C135 C139 1.495 . S
C136 C135 1.392 . S
C136 C137 1.385 . S
C136 C138 1.478 . S
C137 H131 0.930 . S
C137 C133 1.400 . S
C137 C136 1.385 . S
C138 C136 1.478 . S
C138 C140 1.381 . S
C138 C144 1.383 . S
C139 C135 1.495 . S
C139 H145 0.959 1_556 S
C139 H146 0.961 1_556 S
C139 H147 0.960 . S
C140 C138 1.381 . S
C140 C141 1.394 . S
C140 H148 0.930 . S
C141 C140 1.394 . S
C141 C142 1.383 . S
C141 H149 0.929 . S
C142 C141 1.383 . S
C142 C143 1.377 . S
C143 H127 0.930 . S
C143 C142 1.377 . S
C143 C144 1.379 . S
C144 H128 0.931 . S
C144 C138 1.383 . S
C144 C143 1.379 . S
H145 C139 0.959 1_554 S
H146 C139 0.961 1_554 S
H147 C139 0.960 . S
H148 C140 0.930 . S
H149 C141 0.929 . S
H150 C158 0.929 . S
H151 C160 0.930 . S
H152 C162 0.930 . S
H153 C165 0.929 . S
H154 C168 0.930 . S
H155 C170 0.960 . S
H156 C170 0.960 . S
H157 C170 0.960 . S
C158 H150 0.929 . S
C158 C159 1.377 . S
C158 C160 1.384 . S
C159 C158 1.377 . S
C159 C165 1.390 . S
C160 H151 0.930 . S
C160 C158 1.384 . S
C160 C161 1.372 . S
C161 C160 1.372 . S
C161 C162 1.400 . S
C161 C166 1.490 . S
C162 H152 0.930 . S
C162 C161 1.400 . S
C162 C165 1.386 . S
H163 C179 0.930 . S
H164 C180 0.931 . S
C165 H153 0.929 . S
C165 C159 1.390 . S
C165 C162 1.386 . S
C166 C161 1.490 . S
C166 C168 1.395 . S
C166 C169 1.403 . S
H167 C173 0.930 . S
C168 H154 0.930 . S
C168 C166 1.395 . S
C168 C171 1.403 . S
C169 C166 1.403 . S
C169 C170 1.524 . S
C169 C173 1.400 . S
C170 H155 0.960 . S
C170 H156 0.960 . S
C170 H157 0.960 . S
C170 C169 1.524 . S
C171 C168 1.403 . S
C171 C172 1.392 . S
C171 C175 1.495 . S
C172 C171 1.392 . S
C172 C173 1.385 . S
C172 C174 1.478 . S
C173 H167 0.930 . S
C173 C169 1.400 . S
C173 C172 1.385 . S
C174 C172 1.478 . S
C174 C176 1.381 . S
C174 C180 1.383 . S
C175 C171 1.495 . S
C175 H181 0.959 . S
C175 H182 0.961 . S
C175 H183 0.960 . S
C176 C174 1.381 . S
C176 C177 1.394 . S
C176 H184 0.930 . S
C177 C176 1.394 . S
C177 C178 1.383 . S
C177 H185 0.929 . S
C178 C177 1.383 . S
C178 C179 1.377 . S
C179 H163 0.930 . S
C179 C178 1.377 . S
C179 C180 1.379 . S
C180 H164 0.931 . S
C180 C174 1.383 . S
C180 C179 1.379 . S
H181 C175 0.959 . S
H182 C175 0.961 . S
H183 C175 0.960 . S
H184 C176 0.930 . S
H185 C177 0.929 . S
H186 C194 0.929 . S
H187 C196 0.930 . S
H188 C198 0.930 . S
H189 C201 0.929 . S
H190 C204 0.930 . S
H191 C206 0.960 . S
H192 C206 0.960 . S
H193 C206 0.960 . S
C194 H186 0.929 . S
C194 C195 1.377 . S
C194 C196 1.384 . S
C195 C194 1.377 . S
C195 C201 1.390 1_554 S
C196 H187 0.930 . S
C196 C194 1.384 . S
C196 C197 1.372 1_554 S
C197 C196 1.372 1_556 S
C197 C198 1.400 . S
C197 C202 1.490 . S
C198 H188 0.930 . S
C198 C197 1.400 . S
C198 C201 1.386 . S
H199 C215 0.930 . S
H200 C216 0.931 . S
C201 H189 0.929 . S
C201 C195 1.390 1_556 S
C201 C198 1.386 . S
C202 C197 1.490 . S
C202 C204 1.395 . S
C202 C205 1.403 . S
H203 C209 0.930 . S
C204 H190 0.930 . S
C204 C202 1.395 . S
C204 C207 1.403 . S
C205 C202 1.403 . S
C205 C206 1.524 . S
C205 C209 1.400 . S
C206 H191 0.960 . S
C206 H192 0.960 . S
C206 H193 0.960 . S
C206 C205 1.524 . S
C207 C204 1.403 . S
C207 C208 1.392 . S
C207 C211 1.495 . S
C208 C207 1.392 . S
C208 C209 1.385 . S
C208 C210 1.478 . S
C209 H203 0.930 . S
C209 C205 1.400 . S
C209 C208 1.385 . S
C210 C208 1.478 . S
C210 C212 1.381 . S
C210 C216 1.383 . S
C211 C207 1.495 . S
C211 H217 0.959 . S
C211 H218 0.961 . S
C211 H219 0.960 . S
C212 C210 1.381 . S
C212 C213 1.394 . S
C212 H220 0.930 . S
C213 C212 1.394 . S
C213 C214 1.383 . S
C213 H221 0.929 . S
C214 C213 1.383 . S
C214 C215 1.377 . S
C215 H199 0.930 . S
C215 C214 1.377 . S
C215 C216 1.379 . S
C216 H200 0.931 . S
C216 C210 1.383 . S
C216 C215 1.379 . S
H217 C211 0.959 . S
H218 C211 0.961 . S
H219 C211 0.960 . S
H220 C212 0.930 . S
H221 C213 0.929 . S
H222 C230 0.929 . S
H223 C232 0.930 . S
H224 C234 0.930 . S
H225 C237 0.929 . S
H226 C240 0.930 . S
H227 C242 0.960 . S
H228 C242 0.960 . S
H229 C242 0.960 . S
C230 H222 0.929 . S
C230 C231 1.377 . S
C230 C232 1.384 . S
C231 C230 1.377 . S
C231 C237 1.390 . S
C232 H223 0.930 . S
C232 C230 1.384 . S
C232 C233 1.372 . S
C233 C232 1.372 . S
C233 C234 1.400 . S
C233 C238 1.490 . S
C234 H224 0.930 . S
C234 C233 1.400 . S
C234 C237 1.386 . S
H235 C251 0.930 . S
H236 C252 0.931 . S
C237 H225 0.929 . S
C237 C231 1.390 . S
C237 C234 1.386 . S
C238 C233 1.490 . S
C238 C240 1.395 . S
C238 C241 1.403 . S
H239 C245 0.930 . S
C240 H226 0.930 . S
C240 C238 1.395 . S
C240 C243 1.403 . S
C241 C238 1.403 . S
C241 C242 1.524 . S
C241 C245 1.400 . S
C242 H227 0.960 . S
C242 H228 0.960 . S
C242 H229 0.960 . S
C242 C241 1.524 . S
C243 C240 1.403 . S
C243 C244 1.392 . S
C243 C247 1.495 . S
C244 C243 1.392 . S
C244 C245 1.385 . S
C244 C246 1.478 . S
C245 H239 0.930 . S
C245 C241 1.400 . S
C245 C244 1.385 . S
C246 C244 1.478 . S
C246 C248 1.381 . S
C246 C252 1.383 . S
C247 C243 1.495 . S
C247 H253 0.959 . S
C247 H254 0.961 . S
C247 H255 0.960 . S
C248 C246 1.381 . S
C248 C249 1.394 . S
C248 H256 0.930 . S
C249 C248 1.394 . S
C249 C250 1.383 . S
C249 H257 0.929 . S
C250 C249 1.383 . S
C250 C251 1.377 . S
C251 H235 0.930 . S
C251 C250 1.377 . S
C251 C252 1.379 . S
C252 H236 0.931 . S
C252 C246 1.383 . S
C252 C251 1.379 . S
H253 C247 0.959 . S
H254 C247 0.961 . S
H255 C247 0.960 . S
H256 C248 0.930 . S
H257 C249 0.929 . S
H258 C266 0.929 . S
H259 C268 0.930 . S
H260 C270 0.930 . S
H261 C273 0.929 . S
H262 C276 0.930 . S
H263 C278 0.960 . S
H264 C278 0.960 . S
H265 C278 0.960 . S
C266 H258 0.929 . S
C266 C267 1.377 . S
C266 C268 1.384 . S
C267 C266 1.377 . S
C267 C273 1.390 . S
C268 H259 0.930 . S
C268 C266 1.384 . S
C268 C269 1.372 . S
C269 C268 1.372 . S
C269 C270 1.400 . S
C269 C274 1.490 . S
C270 H260 0.930 . S
C270 C269 1.400 . S
C270 C273 1.386 . S
H271 C287 0.930 1_455 S
H272 C288 0.931 . S
C273 H261 0.929 . S
C273 C267 1.390 . S
C273 C270 1.386 . S
C274 C269 1.490 . S
C274 C276 1.395 . S
C274 C277 1.403 . S
H275 C281 0.930 . S
C276 H262 0.930 . S
C276 C274 1.395 . S
C276 C279 1.403 . S
C277 C274 1.403 . S
C277 C278 1.524 . S
C277 C281 1.400 . S
C278 H263 0.960 . S
C278 H264 0.960 . S
C278 H265 0.960 . S
C278 C277 1.524 . S
C279 C276 1.403 . S
C279 C280 1.392 . S
C279 C283 1.495 . S
C280 C279 1.392 . S
C280 C281 1.385 . S
C280 C282 1.478 . S
C281 H275 0.930 . S
C281 C277 1.400 . S
C281 C280 1.385 . S
C282 C280 1.478 . S
C282 C284 1.381 . S
C282 C288 1.383 . S
C283 C279 1.495 . S
C283 H289 0.959 . S
C283 H290 0.961 . S
C283 H291 0.960 . S
C284 C282 1.381 . S
C284 C285 1.394 . S
C284 H292 0.930 . S
C285 C284 1.394 . S
C285 C286 1.383 . S
C285 H293 0.929 . S
C286 C285 1.383 . S
C286 C287 1.377 . S
C287 H271 0.930 1_655 S
C287 C286 1.377 . S
C287 C288 1.379 . S
C288 H272 0.931 . S
C288 C282 1.383 . S
C288 C287 1.379 . S
H289 C283 0.959 . S
H290 C283 0.961 . S
H291 C283 0.960 . S
H292 C284 0.930 . S
H293 C285 0.929 . S
H294 C302 0.929 . S
H295 C304 0.930 . S
H296 C306 0.930 . S
H297 C309 0.929 . S
H298 C312 0.930 . S
H299 C314 0.960 . S
H300 C314 0.960 . S
H301 C314 0.960 . S
C302 H294 0.929 . S
C302 C303 1.377 . S
C302 C304 1.384 . S
C303 C302 1.377 . S
C303 C309 1.390 . S
C304 H295 0.930 . S
C304 C302 1.384 . S
C304 C305 1.372 . S
C305 C304 1.372 . S
C305 C306 1.400 . S
C305 C310 1.490 . S
C306 H296 0.930 . S
C306 C305 1.400 . S
C306 C309 1.386 . S
H307 C323 0.930 . S
H308 C324 0.931 . S
C309 H297 0.929 . S
C309 C303 1.390 . S
C309 C306 1.386 . S
C310 C305 1.490 . S
C310 C312 1.395 . S
C310 C313 1.403 . S
H311 C317 0.930 . S
C312 H298 0.930 . S
C312 C310 1.395 . S
C312 C315 1.403 . S
C313 C310 1.403 . S
C313 C314 1.524 . S
C313 C317 1.400 . S
C314 H299 0.960 . S
C314 H300 0.960 . S
C314 H301 0.960 . S
C314 C313 1.524 . S
C315 C312 1.403 . S
C315 C316 1.392 . S
C315 C319 1.495 . S
C316 C315 1.392 . S
C316 C317 1.385 . S
C316 C318 1.478 . S
C317 H311 0.930 . S
C317 C313 1.400 . S
C317 C316 1.385 . S
C318 C316 1.478 . S
C318 C320 1.381 . S
C318 C324 1.383 . S
C319 C315 1.495 . S
C319 H325 0.959 . S
C319 H326 0.961 . S
C319 H327 0.960 . S
C320 C318 1.381 . S
C320 C321 1.394 . S
C320 H328 0.930 . S
C321 C320 1.394 . S
C321 C322 1.383 . S
C321 H329 0.929 . S
C322 C321 1.383 . S
C322 C323 1.377 . S
C323 H307 0.930 . S
C323 C322 1.377 . S
C323 C324 1.379 . S
C324 H308 0.931 . S
C324 C318 1.383 . S
C324 C323 1.379 . S
H325 C319 0.959 . S
H326 C319 0.961 . S
H327 C319 0.960 . S
H328 C320 0.930 . S
H329 C321 0.929 . S
H330 C338 0.929 . S
H331 C340 0.930 . S
H332 C342 0.930 . S
H333 C345 0.929 . S
H334 C348 0.930 . S
H335 C350 0.960 . S
H336 C350 0.960 . S
H337 C350 0.960 . S
C338 H330 0.929 . S
C338 C339 1.377 . S
C338 C340 1.384 . S
C339 C338 1.377 . S
C339 C345 1.390 . S
C340 H331 0.930 . S
C340 C338 1.384 . S
C340 C341 1.372 . S
C341 C340 1.372 . S
C341 C342 1.400 . S
C341 C346 1.490 . S
C342 H332 0.930 . S
C342 C341 1.400 . S
C342 C345 1.386 . S
H343 C359 0.930 . S
H344 C360 0.931 . S
C345 H333 0.929 . S
C345 C339 1.390 . S
C345 C342 1.386 . S
C346 C341 1.490 . S
C346 C348 1.395 . S
C346 C349 1.403 . S
H347 C353 0.930 . S
C348 H334 0.930 . S
C348 C346 1.395 . S
C348 C351 1.403 . S
C349 C346 1.403 . S
C349 C350 1.524 . S
C349 C353 1.400 . S
C350 H335 0.960 . S
C350 H336 0.960 . S
C350 H337 0.960 . S
C350 C349 1.524 . S
C351 C348 1.403 . S
C351 C352 1.392 . S
C351 C355 1.495 . S
C352 C351 1.392 . S
C352 C353 1.385 . S
C352 C354 1.478 . S
C353 H347 0.930 . S
C353 C349 1.400 . S
C353 C352 1.385 . S
C354 C352 1.478 . S
C354 C356 1.381 . S
C354 C360 1.383 . S
C355 C351 1.495 . S
C355 H361 0.959 . S
C355 H362 0.961 . S
C355 H363 0.960 . S
C356 C354 1.381 . S
C356 C357 1.394 . S
C356 H364 0.930 . S
C357 C356 1.394 . S
C357 C358 1.383 . S
C357 H365 0.929 1_565 S
C358 C357 1.383 . S
C358 C359 1.377 . S
C359 H343 0.930 . S
C359 C358 1.377 . S
C359 C360 1.379 . S
C360 H344 0.931 . S
C360 C354 1.383 . S
C360 C359 1.379 . S
H361 C355 0.959 . S
H362 C355 0.961 . S
H363 C355 0.960 . S
H364 C356 0.930 . S
H365 C357 0.929 1_545 S
H366 C374 0.929 . S
H367 C376 0.930 . S
H368 C378 0.930 . S
H369 C381 0.929 . S
H370 C384 0.930 1_655 S
H371 C386 0.960 . S
H372 C386 0.960 1_545 S
H373 C386 0.960 . S
C374 H366 0.929 . S
C374 C375 1.377 1_545 S
C374 C376 1.384 . S
C375 C374 1.377 1_565 S
C375 C381 1.390 . S
C376 H367 0.930 . S
C376 C374 1.384 . S
C376 C377 1.372 1_545 S
C377 C376 1.372 1_565 S
C377 C378 1.400 . S
C377 C382 1.490 1_565 S
C378 H368 0.930 . S
C378 C377 1.400 . S
C378 C381 1.386 . S
H379 C395 0.930 . S
H380 C396 0.931 . S
C381 H369 0.929 . S
C381 C375 1.390 . S
C381 C378 1.386 . S
C382 C377 1.490 1_545 S
C382 C384 1.395 . S
C382 C385 1.402 1_545 S
H383 C389 0.933 . S
C384 H370 0.930 1_455 S
C384 C382 1.395 . S
C384 C387 1.403 1_455 S
C385 C382 1.402 1_565 S
C385 C386 1.525 . S
C385 C389 1.399 1_565 S
C386 H371 0.960 . S
C386 H372 0.960 1_565 S
C386 H373 0.960 . S
C386 C385 1.525 . S
C387 C384 1.403 1_655 S
C387 C388 1.386 1_655 S
C387 C391 1.502 . S
C388 C387 1.386 1_455 S
C388 C389 1.385 . S
C388 C390 1.478 . S
C389 H383 0.933 . S
C389 C385 1.399 1_545 S
C389 C388 1.385 . S
C390 C388 1.478 . S
C390 C392 1.381 . S
C390 C396 1.383 1_545 S
C391 C387 1.502 . S
C391 H397 0.959 . S
C391 H398 0.961 . S
C391 H399 0.960 . S
C392 C390 1.381 . S
C392 C393 1.394 . S
C392 H400 0.930 . S
C393 C392 1.394 . S
C393 C394 1.383 . S
C393 H401 0.929 . S
C394 C393 1.383 . S
C394 C395 1.377 1_545 S
C395 H379 0.930 . S
C395 C394 1.377 1_565 S
C395 C396 1.379 . S
C396 H380 0.931 . S
C396 C390 1.383 1_565 S
C396 C395 1.379 . S
H397 C391 0.959 . S
H398 C391 0.961 . S
H399 C391 0.960 . S
H400 C392 0.930 . S
H401 C393 0.929 . S
H402 C410 0.929 . S
H403 C412 0.930 . S
H404 C414 0.930 . S
H405 C417 0.929 . S
H406 C420 0.930 . S
H407 C422 0.960 . S
H408 C422 0.960 1_655 S
H409 C422 0.960 . S
C410 H402 0.929 . S
C410 C411 1.377 1_645 S
C410 C412 1.384 . S
C411 C410 1.377 1_465 S
C411 C417 1.390 . S
C412 H403 0.930 . S
C412 C410 1.384 . S
C412 C413 1.372 1_645 S
C413 C412 1.372 1_465 S
C413 C414 1.400 . S
C413 C418 1.490 1_565 S
C414 H404 0.930 . S
C414 C413 1.400 . S
C414 C417 1.386 . S
H415 C431 0.930 . S
H416 C432 0.931 . S
C417 H405 0.929 . S
C417 C411 1.390 . S
C417 C414 1.386 . S
C418 C413 1.490 1_545 S
C418 C420 1.395 . S
C418 C421 1.403 1_545 S
H419 C425 0.930 . S
C420 H406 0.930 . S
C420 C418 1.395 . S
C420 C423 1.403 . S
C421 C418 1.403 1_565 S
C421 C422 1.524 . S
C421 C425 1.400 . S
C422 H407 0.960 . S
C422 H408 0.960 1_455 S
C422 H409 0.960 . S
C422 C421 1.524 . S
C423 C420 1.403 . S
C423 C424 1.392 . S
C423 C427 1.495 1_455 S
C424 C423 1.392 . S
C424 C425 1.385 1_545 S
C424 C426 1.478 . S
C425 H419 0.930 . S
C425 C421 1.400 . S
C425 C424 1.385 1_565 S
C426 C424 1.478 . S
C426 C428 1.381 1_455 S
C426 C432 1.383 . S
C427 C423 1.495 1_655 S
C427 H433 0.959 . S
C427 H434 0.961 1_655 S
C427 H435 0.960 . S
C428 C426 1.381 1_655 S
C428 C429 1.394 . S
C428 H436 0.930 . S
C429 C428 1.394 . S
C429 C430 1.383 1_655 S
C429 H437 0.929 . S
C430 C429 1.383 1_455 S
C430 C431 1.377 . S
C431 H415 0.930 . S
C431 C430 1.377 . S
C431 C432 1.379 . S
C432 H416 0.931 . S
C432 C426 1.383 . S
C432 C431 1.379 . S
H433 C427 0.959 . S
H434 C427 0.961 1_455 S
H435 C427 0.960 . S
H436 C428 0.930 . S
H437 C429 0.929 . S
H438 C446 0.929 . S
H439 C448 0.930 . S
H440 C450 0.930 . S
H441 C453 0.929 . S
H442 C456 0.930 . S
H443 C458 0.960 . S
H444 C458 0.960 . S
H445 C458 0.960 . S
C446 H438 0.929 . S
C446 C447 1.377 . S
C446 C448 1.384 . S
C447 C446 1.377 . S
C447 C453 1.390 . S
C448 H439 0.930 . S
C448 C446 1.384 . S
C448 C449 1.372 . S
C449 C448 1.372 . S
C449 C450 1.400 . S
C449 C454 1.490 . S
C450 H440 0.930 . S
C450 C449 1.400 . S
C450 C453 1.386 . S
H451 C467 0.930 . S
H452 C468 0.931 . S
C453 H441 0.929 . S
C453 C447 1.390 . S
C453 C450 1.386 . S
C454 C449 1.490 . S
C454 C456 1.395 . S
C454 C457 1.403 . S
H455 C461 0.930 . S
C456 H442 0.930 . S
C456 C454 1.395 . S
C456 C459 1.403 . S
C457 C454 1.403 . S
C457 C458 1.524 . S
C457 C461 1.400 . S
C458 H443 0.960 . S
C458 H444 0.960 . S
C458 H445 0.960 . S
C458 C457 1.524 . S
C459 C456 1.403 . S
C459 C460 1.392 . S
C459 C463 1.495 . S
C460 C459 1.392 . S
C460 C461 1.385 . S
C460 C462 1.478 . S
C461 H455 0.930 . S
C461 C457 1.400 . S
C461 C460 1.385 . S
C462 C460 1.478 . S
C462 C464 1.381 . S
C462 C468 1.383 . S
C463 C459 1.495 . S
C463 H469 0.959 . S
C463 H470 0.961 . S
C463 H471 0.960 . S
C464 C462 1.381 . S
C464 C465 1.394 . S
C464 H472 0.930 . S
C465 C464 1.394 . S
C465 C466 1.383 . S
C465 H473 0.929 . S
C466 C465 1.383 . S
C466 C467 1.377 . S
C467 H451 0.930 . S
C467 C466 1.377 . S
C467 C468 1.379 . S
C468 H452 0.931 . S
C468 C462 1.383 . S
C468 C467 1.379 . S
H469 C463 0.959 . S
H470 C463 0.961 . S
H471 C463 0.960 . S
H472 C464 0.930 . S
H473 C465 0.929 . S
H474 C482 0.929 . S
H475 C484 0.930 . S
H476 C486 0.930 . S
H477 C489 0.929 . S
H478 C492 0.930 . S
H479 C494 0.960 . S
H480 C494 0.960 . S
H481 C494 0.960 . S
C482 H474 0.929 . S
C482 C483 1.377 . S
C482 C484 1.384 . S
C483 C482 1.377 . S
C483 C489 1.390 . S
C484 H475 0.930 . S
C484 C482 1.384 . S
C484 C485 1.372 . S
C485 C484 1.372 . S
C485 C486 1.400 . S
C485 C490 1.490 . S
C486 H476 0.930 . S
C486 C485 1.400 . S
C486 C489 1.386 . S
H487 C503 0.930 . S
H488 C504 0.931 . S
C489 H477 0.929 . S
C489 C483 1.390 . S
C489 C486 1.386 . S
C490 C485 1.490 . S
C490 C492 1.395 . S
C490 C493 1.403 . S
H491 C497 0.930 . S
C492 H478 0.930 . S
C492 C490 1.395 . S
C492 C495 1.403 . S
C493 C490 1.403 . S
C493 C494 1.524 . S
C493 C497 1.400 . S
C494 H479 0.960 . S
C494 H480 0.960 . S
C494 H481 0.960 . S
C494 C493 1.524 . S
C495 C492 1.403 . S
C495 C496 1.392 . S
C495 C499 1.495 . S
C496 C495 1.392 . S
C496 C497 1.385 . S
C496 C498 1.478 . S
C497 H491 0.930 . S
C497 C493 1.400 . S
C497 C496 1.385 . S
C498 C496 1.478 . S
C498 C500 1.381 . S
C498 C504 1.383 . S
C499 C495 1.495 . S
C499 H505 0.959 . S
C499 H506 0.961 . S
C499 H507 0.960 . S
C500 C498 1.381 . S
C500 C501 1.394 . S
C500 H508 0.930 . S
C501 C500 1.394 . S
C501 C502 1.383 . S
C501 H509 0.929 . S
C502 C501 1.383 . S
C502 C503 1.377 . S
C503 H487 0.930 . S
C503 C502 1.377 . S
C503 C504 1.379 . S
C504 H488 0.931 . S
C504 C498 1.383 . S
C504 C503 1.379 . S
H505 C499 0.959 . S
H506 C499 0.961 . S
H507 C499 0.960 . S
H508 C500 0.930 . S
H509 C501 0.929 . S
C106 C73 1.165 . S
C87 C3 1.022 . S
C123 C4 1.464 1_556 S
C142 C64 1.554 . S
C159 C19 1.492 . S
C178 C76 1.565 . S
C195 C7 1.026 1_554 S
C214 C67 1.164 . S
C231 C37 1.028 . S
C250 C55 1.162 . S
C267 C28 1.455 . S
C286 C46 1.538 1_655 S
C322 C58 1.555 . S
C303 C41 1.492 . S
C358 C49 1.156 . S
C339 C25 1.035 . S
C375 C20 1.278 . S
C394 C47 1.429 . S
C411 C16 1.333 . S
C430 C56 1.490 . S
C466 C65 1.435 . S
C447 C40 1.277 . S
C483 C24 1.342 . S
C502 C74 1.482 . S
