# Generated by pormake.
# Topology ctn, (3,4)-cn, num edge types: 1
# Building blocks:
#     Node 0, Type 0, BuildingBlock: MIDCAF_clean_linker_0, # of connection points: 3
#     Node 1, Type 0, BuildingBlock: MIDCAF_clean_linker_0, # of connection points: 3
#     Node 2, Type 0, BuildingBlock: MIDCAF_clean_linker_0, # of connection points: 3
#     Node 3, Type 0, BuildingBlock: MIDCAF_clean_linker_0, # of connection points: 3
#     Node 4, Type 0, BuildingBlock: MIDCAF_clean_linker_0, # of connection points: 3
#     Node 5, Type 0, BuildingBlock: MIDCAF_clean_linker_0, # of connection points: 3
#     Node 6, Type 0, BuildingBlock: MIDCAF_clean_linker_0, # of connection points: 3
#     Node 7, Type 0, BuildingBlock: MIDCAF_clean_linker_0, # of connection points: 3
#     Node 8, Type 0, BuildingBlock: MIDCAF_clean_linker_0, # of connection points: 3
#     Node 9, Type 0, BuildingBlock: MIDCAF_clean_linker_0, # of connection points: 3
#     Node 10, Type 0, BuildingBlock: MIDCAF_clean_linker_0, # of connection points: 3
#     Node 11, Type 0, BuildingBlock: MIDCAF_clean_linker_0, # of connection points: 3
#     Node 12, Type 0, BuildingBlock: MIDCAF_clean_linker_0, # of connection points: 3
#     Node 13, Type 0, BuildingBlock: MIDCAF_clean_linker_0, # of connection points: 3
#     Node 14, Type 0, BuildingBlock: MIDCAF_clean_linker_0, # of connection points: 3
#     Node 15, Type 0, BuildingBlock: MIDCAF_clean_linker_0, # of connection points: 3
#     Node 16, Type 1, BuildingBlock: QUQFOY_clean_sbu_1, # of connection points: 4
#     Node 17, Type 1, BuildingBlock: QUQFOY_clean_sbu_1, # of connection points: 4
#     Node 18, Type 1, BuildingBlock: QUQFOY_clean_sbu_1, # of connection points: 4
#     Node 19, Type 1, BuildingBlock: QUQFOY_clean_sbu_1, # of connection points: 4
#     Node 20, Type 1, BuildingBlock: QUQFOY_clean_sbu_1, # of connection points: 4
#     Node 21, Type 1, BuildingBlock: QUQFOY_clean_sbu_1, # of connection points: 4
#     Node 22, Type 1, BuildingBlock: QUQFOY_clean_sbu_1, # of connection points: 4
#     Node 23, Type 1, BuildingBlock: QUQFOY_clean_sbu_1, # of connection points: 4
#     Node 24, Type 1, BuildingBlock: QUQFOY_clean_sbu_1, # of connection points: 4
#     Node 25, Type 1, BuildingBlock: QUQFOY_clean_sbu_1, # of connection points: 4
#     Node 26, Type 1, BuildingBlock: QUQFOY_clean_sbu_1, # of connection points: 4
#     Node 27, Type 1, BuildingBlock: QUQFOY_clean_sbu_1, # of connection points: 4
#     Edge 28, Type (0, 1), BuildingBlock: UVAHIK_clean_linker_0, # of connection points: 2
#     Edge 29, Type (0, 1), BuildingBlock: UVAHIK_clean_linker_0, # of connection points: 2
#     Edge 30, Type (0, 1), BuildingBlock: UVAHIK_clean_linker_0, # of connection points: 2
#     Edge 31, Type (0, 1), BuildingBlock: UVAHIK_clean_linker_0, # of connection points: 2
#     Edge 32, Type (0, 1), BuildingBlock: UVAHIK_clean_linker_0, # of connection points: 2
#     Edge 33, Type (0, 1), BuildingBlock: UVAHIK_clean_linker_0, # of connection points: 2
#     Edge 34, Type (0, 1), BuildingBlock: UVAHIK_clean_linker_0, # of connection points: 2
#     Edge 35, Type (0, 1), BuildingBlock: UVAHIK_clean_linker_0, # of connection points: 2
#     Edge 36, Type (0, 1), BuildingBlock: UVAHIK_clean_linker_0, # of connection points: 2
#     Edge 37, Type (0, 1), BuildingBlock: UVAHIK_clean_linker_0, # of connection points: 2
#     Edge 38, Type (0, 1), BuildingBlock: UVAHIK_clean_linker_0, # of connection points: 2
#     Edge 39, Type (0, 1), BuildingBlock: UVAHIK_clean_linker_0, # of connection points: 2
#     Edge 40, Type (0, 1), BuildingBlock: UVAHIK_clean_linker_0, # of connection points: 2
#     Edge 41, Type (0, 1), BuildingBlock: UVAHIK_clean_linker_0, # of connection points: 2
#     Edge 42, Type (0, 1), BuildingBlock: UVAHIK_clean_linker_0, # of connection points: 2
#     Edge 43, Type (0, 1), BuildingBlock: UVAHIK_clean_linker_0, # of connection points: 2
#     Edge 44, Type (0, 1), BuildingBlock: UVAHIK_clean_linker_0, # of connection points: 2
#     Edge 45, Type (0, 1), BuildingBlock: UVAHIK_clean_linker_0, # of connection points: 2
#     Edge 46, Type (0, 1), BuildingBlock: UVAHIK_clean_linker_0, # of connection points: 2
#     Edge 47, Type (0, 1), BuildingBlock: UVAHIK_clean_linker_0, # of connection points: 2
#     Edge 48, Type (0, 1), BuildingBlock: UVAHIK_clean_linker_0, # of connection points: 2
#     Edge 49, Type (0, 1), BuildingBlock: UVAHIK_clean_linker_0, # of connection points: 2
#     Edge 50, Type (0, 1), BuildingBlock: UVAHIK_clean_linker_0, # of connection points: 2
#     Edge 51, Type (0, 1), BuildingBlock: UVAHIK_clean_linker_0, # of connection points: 2
#     Edge 52, Type (0, 1), BuildingBlock: UVAHIK_clean_linker_0, # of connection points: 2
#     Edge 53, Type (0, 1), BuildingBlock: UVAHIK_clean_linker_0, # of connection points: 2
#     Edge 54, Type (0, 1), BuildingBlock: UVAHIK_clean_linker_0, # of connection points: 2
#     Edge 55, Type (0, 1), BuildingBlock: UVAHIK_clean_linker_0, # of connection points: 2
#     Edge 56, Type (0, 1), BuildingBlock: UVAHIK_clean_linker_0, # of connection points: 2
#     Edge 57, Type (0, 1), BuildingBlock: UVAHIK_clean_linker_0, # of connection points: 2
#     Edge 58, Type (0, 1), BuildingBlock: UVAHIK_clean_linker_0, # of connection points: 2
#     Edge 59, Type (0, 1), BuildingBlock: UVAHIK_clean_linker_0, # of connection points: 2
#     Edge 60, Type (0, 1), BuildingBlock: UVAHIK_clean_linker_0, # of connection points: 2
#     Edge 61, Type (0, 1), BuildingBlock: UVAHIK_clean_linker_0, # of connection points: 2
#     Edge 62, Type (0, 1), BuildingBlock: UVAHIK_clean_linker_0, # of connection points: 2
#     Edge 63, Type (0, 1), BuildingBlock: UVAHIK_clean_linker_0, # of connection points: 2
#     Edge 64, Type (0, 1), BuildingBlock: UVAHIK_clean_linker_0, # of connection points: 2
#     Edge 65, Type (0, 1), BuildingBlock: UVAHIK_clean_linker_0, # of connection points: 2
#     Edge 66, Type (0, 1), BuildingBlock: UVAHIK_clean_linker_0, # of connection points: 2
#     Edge 67, Type (0, 1), BuildingBlock: UVAHIK_clean_linker_0, # of connection points: 2
#     Edge 68, Type (0, 1), BuildingBlock: UVAHIK_clean_linker_0, # of connection points: 2
#     Edge 69, Type (0, 1), BuildingBlock: UVAHIK_clean_linker_0, # of connection points: 2
#     Edge 70, Type (0, 1), BuildingBlock: UVAHIK_clean_linker_0, # of connection points: 2
#     Edge 71, Type (0, 1), BuildingBlock: UVAHIK_clean_linker_0, # of connection points: 2
#     Edge 72, Type (0, 1), BuildingBlock: UVAHIK_clean_linker_0, # of connection points: 2
#     Edge 73, Type (0, 1), BuildingBlock: UVAHIK_clean_linker_0, # of connection points: 2
#     Edge 74, Type (0, 1), BuildingBlock: UVAHIK_clean_linker_0, # of connection points: 2
#     Edge 75, Type (0, 1), BuildingBlock: UVAHIK_clean_linker_0, # of connection points: 2
# Relax obj value: 0.035
# Max RMSD: 0.142
# Mean RMSD: 0.064
data_MOF--net-ctn--node1-QUQFOY_clean_sbu_1--node2-MIDCAF_clean_linker_0--edge1-UVAHIK_clean_linker_0
_symmetry_space_group_name_H-M    P1
_symmetry_Int_Tables_number       1
_symmetry_cell_setting            triclinic
loop_
_symmetry_equiv_pos_as_xyz
'x, y, z'
_cell_length_a     82.972003
_cell_length_b     82.852284
_cell_length_c     83.05653
_cell_angle_alpha  92.70349
_cell_angle_beta   90.075936
_cell_angle_gamma 94.315943
loop_
_atom_site_label
_atom_site_type_symbol
_atom_site_fract_x
_atom_site_fract_y
_atom_site_fract_z
_atom_type_partial_charge
C0 C 0.03859 0.12933 0.13479 0.0
C1 C 0.04076 0.12233 0.14968 0.0
C2 C 0.05632 0.11813 0.1538 0.0
C3 C 0.06909 0.11991 0.14292 0.0
H4 H 0.10566 0.0919 0.12646 0.0
H5 H 0.1224 0.06898 0.12467 0.0
H6 H 0.14117 0.08481 0.07908 0.0
H7 H 0.1247 0.10787 0.08094 0.0
H8 H 0.10804 0.13498 0.06298 0.0
H9 H 0.10446 0.1505 0.03913 0.0
H10 H 0.06566 0.17412 0.0628 0.0
H11 H 0.06937 0.15899 0.08662 0.0
H12 H 0.04916 0.13628 0.11245 0.0
H13 H 0.02679 0.13252 0.13103 0.0
H14 H 0.05861 0.11311 0.16531 0.0
H15 H 0.08078 0.11606 0.14625 0.0
N16 N 0.09113 0.11563 0.11595 0.0
N17 N 0.10158 0.12453 0.09141 0.0
N18 N 0.07916 0.13619 0.10291 0.0
C19 C 0.10217 0.1146 0.10395 0.0
C20 C 0.09017 0.13545 0.09086 0.0
C21 C 0.07961 0.1264 0.11553 0.0
C22 C 0.11367 0.1017 0.10376 0.0
C23 C 0.11349 0.09064 0.11613 0.0
C24 C 0.12303 0.07743 0.11509 0.0
C25 C 0.13302 0.07499 0.10168 0.0
C26 C 0.13373 0.08641 0.08966 0.0
C27 C 0.12419 0.09961 0.09069 0.0
C28 C 0.08894 0.14564 0.07674 0.0
C29 C 0.09886 0.14362 0.06317 0.0
C30 C 0.09676 0.15244 0.04945 0.0
C31 C 0.08477 0.16354 0.04904 0.0
C32 C 0.07518 0.16586 0.06277 0.0
C33 C 0.07723 0.15705 0.07643 0.0
C34 C 0.06669 0.12627 0.1278 0.0
C35 C 0.05143 0.1314 0.12404 0.0
C36 C 0.25609 0.67986 0.25206 0.0
C37 C 0.24088 0.67737 0.24453 0.0
C38 C 0.23525 0.68983 0.2356 0.0
C39 C 0.24464 0.70445 0.23424 0.0
H40 H 0.25354 0.74355 0.20385 0.0
H41 H 0.24722 0.76333 0.18436 0.0
H42 H 0.28015 0.79926 0.20874 0.0
H43 H 0.28664 0.77951 0.22823 0.0
H44 H 0.32024 0.75892 0.24092 0.0
H45 H 0.34629 0.76119 0.25472 0.0
H46 H 0.3279 0.72614 0.28842 0.0
H47 H 0.30217 0.72339 0.27421 0.0
H48 H 0.27712 0.69584 0.2567 0.0
H49 H 0.26094 0.67043 0.25879 0.0
H50 H 0.22349 0.68838 0.22981 0.0
H51 H 0.23992 0.7138 0.2273 0.0
N52 N 0.26568 0.73373 0.23032 0.0
N53 N 0.28924 0.75004 0.23739 0.0
N54 N 0.28398 0.72492 0.24889 0.0
C55 C 0.27521 0.74767 0.22882 0.0
C56 C 0.29367 0.7387 0.24747 0.0
C57 C 0.26998 0.7223 0.24038 0.0
C58 C 0.27067 0.75991 0.21755 0.0
C59 C 0.25936 0.75569 0.20516 0.0
C60 C 0.25578 0.76698 0.19396 0.0
C61 C 0.26324 0.78278 0.19505 0.0
C62 C 0.27416 0.78718 0.2077 0.0
C63 C 0.27794 0.77583 0.21878 0.0
C64 C 0.30916 0.74092 0.25641 0.0
C65 C 0.32176 0.75176 0.25132 0.0
C66 C 0.33669 0.75309 0.25928 0.0
C67 C 0.33928 0.74377 0.27265 0.0
C68 C 0.32651 0.73322 0.27794 0.0
C69 C 0.31168 0.73173 0.26986 0.0
C70 C 0.25984 0.70693 0.24183 0.0
C71 C 0.26543 0.69445 0.25077 0.0
C72 C 0.92373 0.39184 0.05352 0.0
C73 C 0.91943 0.39445 0.03754 0.0
C74 C 0.91067 0.40784 0.03441 0.0
C75 C 0.90677 0.41871 0.04695 0.0
H76 H 0.8825 0.45954 0.05748 0.0
H77 H 0.8691 0.48382 0.0518 0.0
H78 H 0.88051 0.50361 0.09984 0.0
H79 H 0.89369 0.47928 0.1057 0.0
H80 H 0.91831 0.46302 0.127 0.0
H81 H 0.93893 0.46692 0.14796 0.0
H82 H 0.96163 0.42498 0.12867 0.0
H83 H 0.94085 0.4208 0.1079 0.0
H84 H 0.92387 0.40058 0.07812 0.0
H85 H 0.9306 0.38171 0.0563 0.0
H86 H 0.90704 0.41005 0.02222 0.0
H87 H 0.90039 0.42914 0.04406 0.0
N88 N 0.89988 0.44129 0.07352 0.0
N89 N 0.90747 0.4531 0.09888 0.0
N90 N 0.91802 0.42891 0.08977 0.0
C91 C 0.89875 0.45337 0.08505 0.0
C92 C 0.91712 0.44091 0.10136 0.0
C93 C 0.9094 0.42894 0.07586 0.0
C94 C 0.88932 0.46745 0.08202 0.0
C95 C 0.88203 0.46897 0.06692 0.0
C96 C 0.87443 0.48294 0.06361 0.0
C97 C 0.87388 0.4957 0.07532 0.0
C98 C 0.88063 0.49396 0.0906 0.0
C99 C 0.88828 0.48001 0.09391 0.0
C100 C 0.92805 0.44176 0.11556 0.0
C101 C 0.92753 0.45445 0.12735 0.0
C102 C 0.93939 0.45675 0.13933 0.0
C103 C 0.95207 0.44643 0.1398 0.0
C104 C 0.952 0.43311 0.12868 0.0
C105 C 0.9401 0.43078 0.1167 0.0
C106 C 0.91171 0.41649 0.06285 0.0
C107 C 0.91995 0.40275 0.06602 0.0
C108 C 0.73698 0.78885 0.17463 0.0
C109 C 0.72708 0.77436 0.17264 0.0
C110 C 0.71442 0.77136 0.1836 0.0
C111 C 0.71172 0.78259 0.19622 0.0
H112 H 0.67695 0.7968 0.23254 0.0
H113 H 0.65638 0.79207 0.25308 0.0
H114 H 0.68622 0.82148 0.28767 0.0
H115 H 0.70614 0.82695 0.26687 0.0
H116 H 0.71769 0.86151 0.24283 0.0
H117 H 0.73287 0.8877 0.24519 0.0
H118 H 0.76845 0.87036 0.21195 0.0
H119 H 0.75286 0.8442 0.20912 0.0
H120 H 0.74217 0.81111 0.18836 0.0
H121 H 0.74697 0.79145 0.16655 0.0
H122 H 0.70642 0.76043 0.18229 0.0
H123 H 0.70181 0.77988 0.20436 0.0
N124 N 0.70746 0.80547 0.223 0.0
N125 N 0.71378 0.83077 0.23625 0.0
N126 N 0.72741 0.82368 0.21258 0.0
C127 C 0.70504 0.81625 0.23544 0.0
C128 C 0.72491 0.83464 0.22484 0.0
C129 C 0.71872 0.80907 0.21156 0.0
C130 C 0.69305 0.81236 0.24807 0.0
C131 C 0.67907 0.80219 0.24457 0.0
C132 C 0.66733 0.79941 0.25641 0.0
C133 C 0.66949 0.80648 0.27211 0.0
C134 C 0.68383 0.81618 0.27566 0.0
C135 C 0.69535 0.81924 0.26375 0.0
C136 C 0.73412 0.85069 0.22587 0.0
C137 C 0.72874 0.86324 0.23599 0.0
C138 C 0.73751 0.87828 0.2374 0.0
C139 C 0.752 0.88113 0.2289 0.0
C140 C 0.75725 0.86866 0.21855 0.0
C141 C 0.74837 0.85362 0.217 0.0
C142 C 0.72158 0.79713 0.19817 0.0
C143 C 0.73425 0.80011 0.18721 0.0
C144 C 0.07685 0.91287 0.46941 0.0
C145 C 0.06112 0.90561 0.47101 0.0
C146 C 0.04938 0.90843 0.45944 0.0
C147 C 0.05309 0.91891 0.44701 0.0
H148 H 0.03633 0.938 0.40304 0.0
H149 H 0.0147 0.9469 0.38621 0.0
H150 H 0.04082 0.99368 0.38308 0.0
H151 H 0.06242 0.98492 0.39963 0.0
H152 H 0.10146 0.98618 0.40737 0.0
H153 H 0.12382 0.00637 0.41391 0.0
H154 H 0.1324 0.98304 0.45816 0.0
H155 H 0.11024 0.96282 0.45172 0.0
H156 H 0.09271 0.92903 0.45654 0.0
H157 H 0.08616 0.91111 0.47816 0.0
H158 H 0.03721 0.9028 0.46018 0.0
H159 H 0.04363 0.92123 0.43863 0.0
N160 N 0.06091 0.94319 0.42333 0.0
N161 N 0.07798 0.96526 0.41534 0.0
N162 N 0.08624 0.94908 0.43567 0.0
C163 C 0.0638 0.95597 0.41375 0.0
C164 C 0.08929 0.96185 0.42623 0.0
C165 C 0.07217 0.93963 0.43429 0.0
C166 C 0.0511 0.96075 0.40274 0.0
C167 C 0.03751 0.95015 0.39867 0.0
C168 C 0.02516 0.9552 0.38901 0.0
C169 C 0.02608 0.97101 0.38349 0.0
C170 C 0.03975 0.98149 0.38733 0.0
C171 C 0.05217 0.9764 0.39675 0.0
C172 C 0.10394 0.97295 0.42909 0.0
C173 C 0.10824 0.98522 0.4184 0.0
C174 C 0.12106 0.99674 0.42208 0.0
C175 C 0.12967 0.9963 0.43659 0.0
C176 C 0.1258 0.98372 0.44697 0.0
C177 C 0.11315 0.9721 0.44321 0.0
C178 C 0.06863 0.9268 0.44592 0.0
C179 C 0.08057 0.92329 0.45702 0.0
C180 C 0.21407 0.77135 0.86792 0.0
C181 C 0.20462 0.78472 0.86937 0.0
C182 C 0.19671 0.78958 0.85566 0.0
C183 C 0.1983 0.78133 0.84075 0.0
H184 H 0.17297 0.76801 0.79808 0.0
H185 H 0.15416 0.77176 0.77645 0.0
H186 H 0.18714 0.75182 0.74193 0.0
H187 H 0.20575 0.74745 0.76377 0.0
H188 H 0.23151 0.72402 0.77898 0.0
H189 H 0.25236 0.70493 0.7757 0.0
H190 H 0.26738 0.71541 0.82514 0.0
H191 H 0.24642 0.73423 0.82858 0.0
H192 H 0.22333 0.75306 0.85224 0.0
H193 H 0.22041 0.76743 0.87828 0.0
H194 H 0.18926 0.79978 0.85647 0.0
H195 H 0.19211 0.78547 0.83041 0.0
N196 N 0.20018 0.76224 0.81078 0.0
N197 N 0.21413 0.7446 0.79393 0.0
N198 N 0.22203 0.74951 0.82096 0.0
C199 C 0.20208 0.75473 0.79608 0.0
C200 C 0.22417 0.74191 0.80634 0.0
C201 C 0.2101 0.75972 0.82327 0.0
C202 C 0.19089 0.7574 0.78269 0.0
C203 C 0.17627 0.76446 0.78588 0.0
C204 C 0.1655 0.76673 0.77341 0.0
C205 C 0.16911 0.76218 0.75737 0.0
C206 C 0.18383 0.75526 0.75415 0.0
C207 C 0.19455 0.75282 0.76668 0.0
C208 C 0.23718 0.73065 0.80408 0.0
C209 C 0.23927 0.7223 0.78916 0.0
C210 C 0.25129 0.71141 0.78724 0.0
C211 C 0.26151 0.7086 0.80017 0.0
C212 C 0.25956 0.7171 0.815 0.0
C213 C 0.24756 0.72798 0.81693 0.0
C214 C 0.20801 0.76813 0.8392 0.0
C215 C 0.21582 0.7632 0.85297 0.0
C216 C 0.95033 0.64148 0.46831 0.0
C217 C 0.94375 0.64256 0.48385 0.0
C218 C 0.93126 0.6312 0.48808 0.0
C219 C 0.92579 0.61867 0.47718 0.0
H220 H 0.89818 0.57684 0.47595 0.0
H221 H 0.87878 0.55596 0.48552 0.0
H222 H 0.87769 0.53152 0.43843 0.0
H223 H 0.8972 0.55239 0.42873 0.0
H224 H 0.93258 0.55681 0.41096 0.0
H225 H 0.95167 0.54864 0.39049 0.0
H226 H 0.97611 0.59656 0.39371 0.0
H227 H 0.95701 0.60488 0.41425 0.0
H228 H 0.95057 0.62804 0.44565 0.0
H229 H 0.96 0.6501 0.46478 0.0
H230 H 0.92582 0.63191 0.49992 0.0
H231 H 0.91635 0.60997 0.48102 0.0
N232 N 0.91575 0.59212 0.45524 0.0
N233 N 0.92059 0.57526 0.43264 0.0
N234 N 0.93659 0.59959 0.43744 0.0
C235 C 0.9119 0.57836 0.44611 0.0
C236 C 0.93293 0.58581 0.42819 0.0
C237 C 0.92799 0.60285 0.45097 0.0
C238 C 0.8993 0.56626 0.45157 0.0
C239 C 0.89374 0.56711 0.46755 0.0
C240 C 0.88272 0.5551 0.4731 0.0
C241 C 0.87685 0.54211 0.46274 0.0
C242 C 0.88201 0.54146 0.44664 0.0
C243 C 0.89321 0.55337 0.44113 0.0
C244 C 0.94334 0.58148 0.4144 0.0
C245 C 0.94187 0.56572 0.40721 0.0
C246 C 0.95286 0.56098 0.39553 0.0
C247 C 0.96544 0.57192 0.39066 0.0
C248 C 0.96648 0.5879 0.39723 0.0
C249 C 0.95557 0.59262 0.40904 0.0
C250 C 0.93279 0.61712 0.46182 0.0
C251 C 0.94496 0.62882 0.4574 0.0
C252 C 0.83529 0.79309 0.76178 0.0
C253 C 0.83526 0.80057 0.74694 0.0
C254 C 0.82155 0.8084 0.74258 0.0
C255 C 0.8082 0.80876 0.75285 0.0
H256 H 0.7666 0.83299 0.76227 0.0
H257 H 0.74626 0.85251 0.75962 0.0
H258 H 0.72292 0.83571 0.80282 0.0
H259 H 0.74324 0.81641 0.80567 0.0
H260 H 0.76437 0.79848 0.8305 0.0
H261 H 0.76535 0.78404 0.85524 0.0
H262 H 0.79995 0.75321 0.83355 0.0
H263 H 0.79947 0.76811 0.80904 0.0
H264 H 0.82256 0.78753 0.78334 0.0
H265 H 0.84575 0.78723 0.7657 0.0
H266 H 0.82105 0.81413 0.73116 0.0
H267 H 0.79784 0.81489 0.74913 0.0
N268 N 0.78215 0.81138 0.77616 0.0
N269 N 0.7697 0.80341 0.80017 0.0
N270 N 0.79403 0.79295 0.79224 0.0
C271 C 0.76973 0.81223 0.78678 0.0
C272 C 0.78176 0.7937 0.80296 0.0
C273 C 0.79436 0.80174 0.77884 0.0
C274 C 0.75671 0.82322 0.7843 0.0
C275 C 0.75707 0.83336 0.77115 0.0
C276 C 0.74536 0.84449 0.76956 0.0
C277 C 0.73307 0.84574 0.7811 0.0
C278 C 0.73239 0.83522 0.79389 0.0
C279 C 0.74405 0.8241 0.79548 0.0
C280 C 0.78187 0.78448 0.81779 0.0
C281 C 0.77216 0.78859 0.83098 0.0
C282 C 0.77267 0.78024 0.84517 0.0
C283 C 0.78274 0.76743 0.84645 0.0
C284 C 0.79229 0.7632 0.83315 0.0
C285 C 0.79193 0.77168 0.81902 0.0
C286 C 0.80827 0.80122 0.76768 0.0
C287 C 0.82197 0.79335 0.77197 0.0
C288 C 0.33784 0.29787 0.26405 0.0
C289 C 0.33758 0.3046 0.24885 0.0
C290 C 0.32362 0.31178 0.24406 0.0
C291 C 0.31014 0.312 0.25418 0.0
H292 H 0.2672 0.33468 0.26296 0.0
H293 H 0.24588 0.35305 0.25993 0.0
H294 H 0.22103 0.33291 0.3009 0.0
H295 H 0.24233 0.31475 0.30413 0.0
H296 H 0.25857 0.28979 0.32507 0.0
H297 H 0.25932 0.27493 0.34963 0.0
H298 H 0.30959 0.2672 0.34112 0.0
H299 H 0.30876 0.2816 0.31637 0.0
H300 H 0.32514 0.29267 0.28569 0.0
H301 H 0.34851 0.29256 0.26828 0.0
H302 H 0.32298 0.31696 0.23237 0.0
H303 H 0.29951 0.31748 0.25008 0.0
N304 N 0.28323 0.31342 0.2768 0.0
N305 N 0.27047 0.30459 0.30037 0.0
N306 N 0.29602 0.29628 0.29359 0.0
C307 C 0.27033 0.31332 0.28693 0.0
C308 C 0.28327 0.29603 0.30379 0.0
C309 C 0.29612 0.30487 0.28007 0.0
C310 C 0.25664 0.32335 0.28393 0.0
C311 C 0.25712 0.33403 0.27124 0.0
C312 C 0.24485 0.34452 0.26943 0.0
C313 C 0.23186 0.34454 0.28028 0.0
C314 C 0.23103 0.33338 0.29252 0.0
C315 C 0.24326 0.32292 0.29433 0.0
C316 C 0.28359 0.28689 0.31869 0.0
C317 C 0.26978 0.2849 0.32841 0.0
C318 C 0.27024 0.27646 0.34256 0.0
C319 C 0.28452 0.26989 0.34738 0.0
C320 C 0.29831 0.27188 0.33766 0.0
C321 C 0.29784 0.28023 0.32347 0.0
C322 C 0.31036 0.30502 0.26928 0.0
C323 C 0.32441 0.29802 0.2741 0.0
C324 C 0.43281 0.89653 0.5548 0.0
C325 C 0.42335 0.89395 0.5408 0.0
C326 C 0.40874 0.90137 0.5398 0.0
C327 C 0.40402 0.9118 0.55241 0.0
H328 H 0.37992 0.95397 0.55996 0.0
H329 H 0.36566 0.97733 0.55301 0.0
H330 H 0.37609 -0.0004 0.6003 0.0
H331 H 0.3901 0.97619 0.60743 0.0
H332 H 0.41725 0.96358 0.62862 0.0
H333 H 0.43774 0.96872 0.64964 0.0
H334 H 0.45956 0.92492 0.63414 0.0
H335 H 0.43895 0.91952 0.61342 0.0
H336 H 0.43582 0.90858 0.57794 0.0
H337 H 0.44405 0.89078 0.55589 0.0
H338 H 0.40126 0.89952 0.52907 0.0
H339 H 0.39292 0.91774 0.55118 0.0
N340 N 0.39906 0.93796 0.57649 0.0
N341 N 0.40522 0.95065 0.60186 0.0
N342 N 0.41807 0.9276 0.5933 0.0
C343 C 0.39668 0.94996 0.58783 0.0
C344 C 0.41588 0.93944 0.60473 0.0
C345 C 0.40972 0.9267 0.5792 0.0
C346 C 0.38635 0.96322 0.58421 0.0
C347 C 0.37902 0.96373 0.56898 0.0
C348 C 0.37092 0.97718 0.56494 0.0
C349 C 0.36991 0.99041 0.57604 0.0
C350 C 0.37656 0.98958 0.59151 0.0
C351 C 0.38468 0.97615 0.59555 0.0
C352 C 0.42658 0.94128 0.61911 0.0
C353 C 0.42623 0.95487 0.62986 0.0
C354 C 0.43803 0.95788 0.64186 0.0
C355 C 0.45042 0.94736 0.64339 0.0
C356 C 0.45015 0.93323 0.63335 0.0
C357 C 0.43835 0.9302 0.62137 0.0
C358 C 0.41372 0.9147 0.56631 0.0
C359 C 0.42801 0.90667 0.56746 0.0
C360 C 0.23169 0.29034 0.67109 0.0
C361 C 0.22741 0.2738 0.67286 0.0
C362 C 0.22019 0.26886 0.68729 0.0
C363 C 0.217 0.2803 0.69958 0.0
H364 H 0.18493 0.28809 0.73805 0.0
H365 H 0.16464 0.28248 0.75875 0.0
H366 H 0.17405 0.33114 0.77931 0.0
H367 H 0.19398 0.33689 0.75865 0.0
H368 H 0.2119 0.36325 0.73737 0.0
H369 H 0.22607 0.39001 0.73917 0.0
H370 H 0.26431 0.37245 0.70937 0.0
H371 H 0.24977 0.34575 0.70705 0.0
H372 H 0.23212 0.3144 0.6816 0.0
H373 H 0.2374 0.29445 0.66014 0.0
H374 H 0.2167 0.25618 0.68891 0.0
H375 H 0.21126 0.27615 0.71049 0.0
N376 N 0.20668 0.30542 0.7223 0.0
N377 N 0.21055 0.33192 0.7335 0.0
N378 N 0.22502 0.32436 0.71054 0.0
C379 C 0.20308 0.3168 0.73382 0.0
C380 C 0.22153 0.33581 0.72197 0.0
C381 C 0.21762 0.30914 0.71059 0.0
C382 C 0.19106 0.31298 0.74657 0.0
C383 C 0.18268 0.29759 0.74699 0.0
C384 C 0.17111 0.29433 0.7589 0.0
C385 C 0.16766 0.3064 0.7706 0.0
C386 C 0.17621 0.32167 0.7703 0.0
C387 C 0.18773 0.32492 0.75846 0.0
C388 C 0.22977 0.35231 0.72218 0.0
C389 C 0.22329 0.3651 0.73111 0.0
C390 C 0.23147 0.38046 0.73221 0.0
C391 C 0.24646 0.38339 0.72459 0.0
C392 C 0.25272 0.3707 0.71526 0.0
C393 C 0.24443 0.35535 0.714 0.0
C394 C 0.22121 0.29689 0.69777 0.0
C395 C 0.22873 0.30174 0.68344 0.0
C396 C 0.75795 0.17944 0.7502 0.0
C397 C 0.74217 0.17788 0.74385 0.0
C398 C 0.73628 0.19111 0.73631 0.0
C399 C 0.74593 0.2056 0.73524 0.0
H400 H 0.75264 0.24644 0.70829 0.0
H401 H 0.7459 0.26675 0.68967 0.0
H402 H 0.78287 0.3005 0.7111 0.0
H403 H 0.78976 0.28015 0.72983 0.0
H404 H 0.81681 0.26566 0.75235 0.0
H405 H 0.8429 0.26799 0.76626 0.0
H406 H 0.83669 0.21742 0.77697 0.0
H407 H 0.8108 0.21496 0.76306 0.0
H408 H 0.77964 0.19463 0.75424 0.0
H409 H 0.76298 0.1694 0.75583 0.0
H410 H 0.72411 0.19037 0.73147 0.0
H411 H 0.74096 0.21559 0.72945 0.0
N412 N 0.76723 0.23472 0.7319 0.0
N413 N 0.79103 0.25057 0.7391 0.0
N414 N 0.78625 0.22454 0.74879 0.0
C415 C 0.77671 0.24877 0.73097 0.0
C416 C 0.79588 0.23847 0.74804 0.0
C417 C 0.7719 0.22257 0.74083 0.0
C418 C 0.77185 0.26159 0.7205 0.0
C419 C 0.75927 0.25821 0.70919 0.0
C420 C 0.75543 0.26982 0.69846 0.0
C421 C 0.76393 0.28514 0.6989 0.0
C422 C 0.77609 0.2888 0.71057 0.0
C423 C 0.78008 0.2771 0.72121 0.0
C424 C 0.81167 0.24012 0.75656 0.0
C425 C 0.82101 0.25502 0.75765 0.0
C426 C 0.83592 0.2564 0.76567 0.0
C427 C 0.84185 0.24287 0.77264 0.0
C428 C 0.83254 0.228 0.77153 0.0
C429 C 0.81761 0.22664 0.76364 0.0
C430 C 0.76165 0.2072 0.74175 0.0
C431 C 0.76755 0.19392 0.74921 0.0
C432 C 0.53924 0.63234 0.63905 0.0
C433 C 0.5402 0.62061 0.65061 0.0
C434 C 0.55454 0.61273 0.65187 0.0
C435 C 0.56729 0.61585 0.64125 0.0
H436 H 0.60509 0.5932 0.62299 0.0
H437 H 0.62238 0.57101 0.61843 0.0
H438 H 0.64345 0.59447 0.57726 0.0
H439 H 0.62591 0.61651 0.58154 0.0
H440 H 0.60723 0.64349 0.56548 0.0
H441 H 0.60114 0.6572 0.54111 0.0
H442 H 0.55655 0.67135 0.56229 0.0
H443 H 0.56246 0.65758 0.5866 0.0
H444 H 0.5506 0.64413 0.61921 0.0
H445 H 0.52832 0.63857 0.63775 0.0
H446 H 0.55575 0.60385 0.66087 0.0
H447 H 0.57793 0.60916 0.64231 0.0
N448 N 0.59087 0.6185 0.61601 0.0
N449 N 0.60006 0.62912 0.59175 0.0
N450 N 0.57714 0.63874 0.60432 0.0
C451 C 0.60169 0.61876 0.60376 0.0
C452 C 0.58787 0.6392 0.59196 0.0
C453 C 0.57861 0.6285 0.61646 0.0
C454 C 0.61388 0.60656 0.60248 0.0
C455 C 0.61355 0.59378 0.61309 0.0
C456 C 0.62354 0.58105 0.61053 0.0
C457 C 0.63413 0.58084 0.59735 0.0
C458 C 0.63516 0.59409 0.58732 0.0
C459 C 0.62514 0.60678 0.58984 0.0
C460 C 0.58525 0.64923 0.57798 0.0
C461 C 0.5962 0.64967 0.56505 0.0
C462 C 0.59277 0.6576 0.55109 0.0
C463 C 0.57828 0.66518 0.54972 0.0
C464 C 0.56768 0.66537 0.5629 0.0
C465 C 0.57114 0.65754 0.57688 0.0
C466 C 0.56601 0.62691 0.62906 0.0
C467 C 0.55201 0.63546 0.62837 0.0
C468 C 0.57699 0.41515 0.96969 0.0
C469 C 0.5616 0.40703 0.97099 0.0
C470 C 0.5501 0.40859 0.95882 0.0
C471 C 0.55362 0.41869 0.94608 0.0
H472 H 0.53435 0.43737 0.9037 0.0
H473 H 0.51177 0.4457 0.88782 0.0
H474 H 0.53698 0.49269 0.88293 0.0
H475 H 0.55953 0.48447 0.89857 0.0
H476 H 0.59522 0.49019 0.90857 0.0
H477 H 0.61826 0.50977 0.91352 0.0
H478 H 0.63867 0.47753 0.94602 0.0
H479 H 0.6157 0.4578 0.94106 0.0
H480 H 0.59235 0.43172 0.95668 0.0
H481 H 0.5861 0.41431 0.9789 0.0
H482 H 0.53823 0.40223 0.9593 0.0
H483 H 0.54429 0.41997 0.9372 0.0
N484 N 0.55987 0.44324 0.92274 0.0
N485 N 0.57644 0.46483 0.9131 0.0
N486 N 0.58605 0.44908 0.93318 0.0
C487 C 0.56214 0.4557 0.9127 0.0
C488 C 0.58851 0.46154 0.92321 0.0
C489 C 0.57181 0.43985 0.93303 0.0
C490 C 0.54875 0.46025 0.90243 0.0
C491 C 0.53511 0.44944 0.89917 0.0
C492 C 0.52222 0.45417 0.89006 0.0
C493 C 0.52262 0.46987 0.88429 0.0
C494 C 0.5363 0.48058 0.8874 0.0
C495 C 0.54926 0.4758 0.89627 0.0
C496 C 0.60347 0.47247 0.92458 0.0
C497 C 0.6047 0.48712 0.91661 0.0
C498 C 0.61787 0.49839 0.91948 0.0
C499 C 0.63015 0.49523 0.93028 0.0
C500 C 0.6294 0.48025 0.93758 0.0
C501 C 0.61617 0.46899 0.93479 0.0
C502 C 0.56875 0.42747 0.94522 0.0
C503 C 0.58054 0.42523 0.95695 0.0
C504 C 0.72119 0.27759 0.36701 0.0
C505 C 0.70676 0.28468 0.37107 0.0
C506 C 0.69402 0.28337 0.35978 0.0
C507 C 0.69575 0.27541 0.34475 0.0
H508 H 0.68056 0.27702 0.29757 0.0
H509 H 0.66046 0.28045 0.27702 0.0
H510 H 0.67782 0.24045 0.24846 0.0
H511 H 0.69834 0.23724 0.26891 0.0
H512 H 0.7318 0.22343 0.28024 0.0
H513 H 0.75256 0.20426 0.27661 0.0
H514 H 0.76978 0.21633 0.3251 0.0
H515 H 0.74896 0.23524 0.32889 0.0
H516 H 0.73417 0.26426 0.34928 0.0
H517 H 0.73136 0.27857 0.37526 0.0
H518 H 0.68263 0.28841 0.36257 0.0
H519 H 0.68567 0.27466 0.33637 0.0
N520 N 0.70146 0.26209 0.31261 0.0
N521 N 0.71489 0.24429 0.29546 0.0
N522 N 0.72404 0.24999 0.32203 0.0
C523 C 0.70283 0.25436 0.29794 0.0
C524 C 0.72558 0.24207 0.30746 0.0
C525 C 0.71198 0.25999 0.32471 0.0
C526 C 0.69103 0.25676 0.28499 0.0
C527 C 0.68018 0.26895 0.28691 0.0
C528 C 0.66857 0.27089 0.27513 0.0
C529 C 0.6674 0.26063 0.26114 0.0
C530 C 0.67848 0.24866 0.25902 0.0
C531 C 0.69019 0.24677 0.2708 0.0
C532 C 0.73859 0.23086 0.3049 0.0
C533 C 0.74003 0.22205 0.29013 0.0
C534 C 0.752 0.21111 0.288 0.0
C535 C 0.76278 0.20871 0.30059 0.0
C536 C 0.76151 0.2177 0.31525 0.0
C537 C 0.74958 0.22863 0.31738 0.0
C538 C 0.71019 0.26837 0.34069 0.0
C539 C 0.72285 0.26946 0.35203 0.0
C540 C 0.44568 0.14617 0.968 0.0
C541 C 0.43793 0.1472 0.98299 0.0
C542 C 0.42501 0.13591 0.98621 0.0
C543 C 0.42026 0.12348 0.97489 0.0
H544 H 0.38357 0.08804 0.96302 0.0
H545 H 0.36311 0.06773 0.97176 0.0
H546 H 0.38271 0.03177 0.93961 0.0
H547 H 0.4033 0.05201 0.93086 0.0
H548 H 0.42848 0.06654 0.90333 0.0
H549 H 0.449 0.05774 0.88453 0.0
H550 H 0.48312 0.09538 0.9044 0.0
H551 H 0.46271 0.10424 0.92321 0.0
H552 H 0.44757 0.13289 0.94545 0.0
H553 H 0.45572 0.1547 0.96524 0.0
H554 H 0.4187 0.13656 0.99762 0.0
H555 H 0.41049 0.11477 0.97796 0.0
N556 N 0.41158 0.09732 0.95169 0.0
N557 N 0.41898 0.08014 0.93017 0.0
N558 N 0.43483 0.10418 0.93679 0.0
C559 C 0.40864 0.08353 0.94232 0.0
C560 C 0.43207 0.09045 0.92728 0.0
C561 C 0.4246 0.10774 0.94898 0.0
C562 C 0.39518 0.07165 0.94633 0.0
C563 C 0.38346 0.07585 0.95768 0.0
C564 C 0.37167 0.06424 0.96264 0.0
C565 C 0.3714 0.04816 0.95644 0.0
C566 C 0.38277 0.04405 0.94472 0.0
C567 C 0.39449 0.05569 0.93965 0.0
C568 C 0.44396 0.08603 0.91487 0.0
C569 C 0.4403 0.07304 0.90362 0.0
C570 C 0.45202 0.06804 0.8928 0.0
C571 C 0.46766 0.07582 0.89312 0.0
C572 C 0.4712 0.08906 0.90404 0.0
C573 C 0.45946 0.09418 0.91474 0.0
C574 C 0.42847 0.12197 0.96015 0.0
C575 C 0.44105 0.13363 0.95671 0.0
O576 O 0.23786 0.88375 0.02091 0.0
Cd577 Cd 0.24789 0.89901 0.03911 0.0
Cd578 Cd 0.22426 0.91726 0.03037 0.0
O579 O 0.21615 0.89674 0.0167 0.0
O580 O 0.26038 0.88478 0.05214 0.0
O581 O 0.23948 0.89729 0.06171 0.0
C582 C 0.25058 0.88744 0.06385 0.0
C583 C 0.20619 0.93279 0.04454 0.0
C584 C 0.22444 0.88466 0.01375 0.0
C585 C 0.25889 0.92988 0.02483 0.0
O586 O 0.24397 0.93112 0.02213 0.0
O587 O 0.26341 0.91809 0.03249 0.0
O588 O 0.20664 0.93208 0.02903 0.0
O589 O 0.2155 0.92389 0.05216 0.0
O590 O 0.13887 0.52355 0.27377 0.0
Cd591 Cd 0.12246 0.50448 0.27892 0.0
Cd592 Cd 0.10689 0.51487 0.25445 0.0
O593 O 0.12844 0.52777 0.25009 0.0
O594 O 0.13427 0.48913 0.29128 0.0
O595 O 0.12428 0.48317 0.26678 0.0
C596 C 0.13229 0.47895 0.27906 0.0
C597 C 0.09182 0.50125 0.23365 0.0
C598 C 0.13952 0.53079 0.2606 0.0
C599 C 0.09193 0.51902 0.28695 0.0
O600 O 0.09268 0.52371 0.27262 0.0
O601 O 0.10212 0.50965 0.29188 0.0
O602 O 0.09353 0.51685 0.23495 0.0
O603 O 0.09951 0.49323 0.24376 0.0
O604 O 0.75946 0.66936 0.99193 0.0
Cd605 Cd 0.75189 0.65382 0.00948 0.0
Cd606 Cd 0.77724 0.63833 0.99916 0.0
O607 O 0.78243 0.65872 0.98617 0.0
O608 O 0.73711 0.66613 0.02335 0.0
O609 O 0.76033 0.65824 0.0321 0.0
C610 C 0.74749 0.66582 0.03488 0.0
C611 C 0.79669 0.62745 0.01471 0.0
C612 C 0.77268 0.6696 0.98422 0.0
C613 C 0.74445 0.62118 0.99355 0.0
O614 O 0.75944 0.6215 0.99036 0.0
O615 O 0.73888 0.63265 0.00199 0.0
O616 O 0.79711 0.62639 0.99918 0.0
O617 O 0.78558 0.6355 0.0215 0.0
O618 O 0.90362 0.03124 0.27141 0.0
Cd619 Cd 0.88952 0.04125 0.25463 0.0
Cd620 Cd 0.87394 0.05088 0.2805 0.0
O621 O 0.89406 0.04432 0.29261 0.0
O622 O 0.90253 0.04193 0.23455 0.0
O623 O 0.89631 0.06397 0.24859 0.0
C624 C 0.90376 0.0575 0.23656 0.0
C625 C 0.86453 0.07657 0.2843 0.0
C626 C 0.90416 0.03505 0.28642 0.0
C627 C 0.85653 0.02573 0.25845 0.0
O628 O 0.85717 0.03255 0.27249 0.0
O629 O 0.86781 0.02879 0.24846 0.0
O630 O 0.86224 0.06582 0.29499 0.0
O631 O 0.87269 0.07284 0.27159 0.0
O632 O 0.26557 0.17083 0.4925 0.0
Cd633 Cd 0.257 0.15502 0.5096 0.0
Cd634 Cd 0.28043 0.13811 0.49669 0.0
O635 O 0.28703 0.15857 0.48452 0.0
O636 O 0.24263 0.16846 0.52278 0.0
O637 O 0.26446 0.15876 0.53272 0.0
C638 C 0.25224 0.1674 0.53482 0.0
C639 C 0.29845 0.12511 0.51206 0.0
C640 C 0.27823 0.17043 0.48394 0.0
C641 C 0.24671 0.12363 0.49198 0.0
O642 O 0.26128 0.12344 0.48739 0.0
O643 O 0.24255 0.13466 0.50195 0.0
O644 O 0.29902 0.12439 0.49652 0.0
O645 O 0.28803 0.13397 0.51897 0.0
O646 O 0.4001 0.52955 0.77258 0.0
Cd647 Cd 0.38712 0.5398 0.75507 0.0
Cd648 Cd 0.3709 0.54983 0.78048 0.0
O649 O 0.39013 0.54263 0.79353 0.0
O650 O 0.40147 0.53894 0.73599 0.0
O651 O 0.39502 0.56194 0.74801 0.0
C652 C 0.40316 0.55454 0.73707 0.0
C653 C 0.36207 0.57575 0.78431 0.0
C654 C 0.40017 0.53315 0.78761 0.0
C655 C 0.35367 0.52517 0.75757 0.0
O656 O 0.35394 0.53205 0.77159 0.0
O657 O 0.36545 0.5278 0.74804 0.0
O658 O 0.35898 0.56482 0.79467 0.0
O659 O 0.37068 0.57207 0.7719 0.0
O660 O 0.73256 0.38255 0.52359 0.0
Cd661 Cd 0.74389 0.39779 0.54128 0.0
Cd662 Cd 0.72278 0.41793 0.53029 0.0
O663 O 0.71293 0.3977 0.5175 0.0
O664 O 0.75554 0.38277 0.55419 0.0
O665 O 0.73621 0.39718 0.56428 0.0
C666 C 0.74655 0.38652 0.56623 0.0
C667 C 0.70632 0.43614 0.54313 0.0
C668 C 0.71979 0.38455 0.5157 0.0
C669 C 0.75819 0.42655 0.52502 0.0
O670 O 0.74372 0.42888 0.52133 0.0
O671 O 0.76115 0.41523 0.53413 0.0
O672 O 0.7071 0.43455 0.52766 0.0
O673 O 0.7144 0.42672 0.5515 0.0
O674 O 0.63926 0.02523 0.77505 0.0
Cd675 Cd 0.62367 0.00601 0.7812 0.0
Cd676 Cd 0.60635 0.01483 0.75653 0.0
O677 O 0.62692 0.02959 0.75234 0.0
O678 O 0.63646 0.99113 0.7931 0.0
O679 O 0.62526 0.9846 0.7692 0.0
C680 C 0.63402 0.98074 0.78111 0.0
C681 C 0.59175 0.00181 0.73507 0.0
C682 C 0.63862 0.0328 0.76214 0.0
C683 C 0.59212 0.01821 0.78983 0.0
O684 O 0.5914 0.0215 0.77508 0.0
O685 O 0.60394 0.01104 0.79504 0.0
O686 O 0.59262 0.01732 0.7374 0.0
O687 O 0.60003 0.99357 0.74448 0.0
O688 O 0.98892 0.27462 0.92083 0.0
Cd689 Cd 0.9972 0.25651 0.90594 0.0
Cd690 Cd 0.00881 0.28146 0.8894 0.0
O691 O 0.00109 0.2953 0.90883 0.0
O692 O 0.99689 0.23733 0.91947 0.0
O693 O 0.01942 0.24946 0.91016 0.0
C694 C 0.01246 0.23847 0.91887 0.0
C695 C 0.03484 0.28573 0.87923 0.0
C696 C 0.99233 0.28977 0.92016 0.0
C697 C 0.98285 0.2589 0.87343 0.0
O698 O 0.9915 0.27219 0.87298 0.0
O699 O 0.98382 0.24997 0.88538 0.0
O700 O 0.02402 0.2958 0.87702 0.0
O701 O 0.03102 0.2734 0.88778 0.0
O702 O 0.48551 0.7739 0.41898 0.0
Cd703 Cd 0.4949 0.75634 0.40414 0.0
Cd704 Cd 0.50751 0.78175 0.38944 0.0
O705 O 0.50059 0.79452 0.40989 0.0
O706 O 0.49523 0.73675 0.417 0.0
O707 O 0.51741 0.75046 0.40874 0.0
C708 C 0.51081 0.73876 0.41682 0.0
C709 C 0.53299 0.78702 0.37825 0.0
C710 C 0.49031 0.78885 0.41989 0.0
C711 C 0.48142 0.76032 0.37201 0.0
O712 O 0.48962 0.77391 0.37302 0.0
O713 O 0.48272 0.75017 0.38285 0.0
O714 O 0.52184 0.79693 0.37707 0.0
O715 O 0.52989 0.77429 0.38644 0.0
O716 O 0.98824 0.78034 0.65419 0.0
Cd717 Cd 0.00749 0.77365 0.64041 0.0
Cd718 Cd 0.99766 0.79689 0.62146 0.0
O719 O 0.98225 0.80118 0.6404 0.0
O720 O 0.02072 0.76158 0.655 0.0
O721 O 0.02984 0.78441 0.64421 0.0
C722 C 0.03229 0.77268 0.65342 0.0
C723 C 0.01058 0.81848 0.6084 0.0
C724 C 0.97975 0.79226 0.65231 0.0
C725 C 0.99558 0.76247 0.60764 0.0
O726 O 0.99213 0.77699 0.6061 0.0
O727 O 0.00242 0.75848 0.62039 0.0
O728 O 0.99518 0.81524 0.60738 0.0
O729 O 0.01872 0.80987 0.61758 0.0
O730 O 0.48903 0.28043 0.15482 0.0
Cd731 Cd 0.50802 0.27355 0.14076 0.0
Cd732 Cd 0.49888 0.29776 0.12239 0.0
O733 O 0.48401 0.30209 0.14178 0.0
O734 O 0.5209 0.26039 0.15461 0.0
O735 O 0.53048 0.28375 0.14522 0.0
C736 C 0.53265 0.27141 0.15372 0.0
C737 C 0.51119 0.31949 0.10899 0.0
C738 C 0.48113 0.29285 0.15339 0.0
C739 C 0.49549 0.26355 0.10793 0.0
O740 O 0.49245 0.27825 0.10681 0.0
O741 O 0.50244 0.25907 0.12041 0.0
O742 O 0.49578 0.31628 0.1087 0.0
O743 O 0.51976 0.31079 0.11766 0.0
C744 C 0.20566 0.81086 0.88583 0.0
C745 C 0.20345 0.79388 0.88504 0.0
C746 C 0.20533 0.81953 0.90064 0.0
C747 C 0.21032 0.81447 0.94437 0.0
H748 H 0.19525 0.85767 0.94729 0.0
C749 C 0.22965 0.86047 0.99592 0.0
C750 C 0.21914 0.87217 0.00111 0.0
C751 C 0.22549 0.84965 0.98294 0.0
C752 C 0.19926 0.84552 0.94682 0.0
H753 H 0.19862 0.77265 0.89903 0.0
H754 H 0.19763 0.78779 0.92492 0.0
H755 H 0.19146 0.84128 0.92235 0.0
H756 H 0.19564 0.88116 0.99719 0.0
H757 H 0.18816 0.86195 0.97476 0.0
H758 H 0.21783 0.81859 0.96895 0.0
C759 C 0.20004 0.79443 0.91415 0.0
C760 C 0.19732 0.8362 0.93239 0.0
C761 C 0.20055 0.78574 0.89933 0.0
C762 C 0.20406 0.87237 0.99342 0.0
C763 C 0.19982 0.86142 0.98049 0.0
C764 C 0.21211 0.82373 0.95885 0.0
C765 C 0.2026 0.81144 0.91502 0.0
C766 C 0.20316 0.8207 0.93085 0.0
C767 C 0.21062 0.85012 0.97489 0.0
C768 C 0.20696 0.83953 0.96015 0.0
H769 H 0.20813 0.81743 0.87503 0.0
H770 H 0.2077 0.83257 0.90083 0.0
H771 H 0.21508 0.80265 0.94365 0.0
H772 H 0.2414 0.85999 0.00152 0.0
H773 H 0.23425 0.84133 0.97886 0.0
C774 C 0.98319 0.57562 0.36647 0.0
C775 C 0.97799 0.56638 0.37948 0.0
C776 C 0.99532 0.57045 0.35622 0.0
C777 C 0.017 0.53406 0.34427 0.0
H778 H 0.04879 0.56588 0.32799 0.0
C779 C 0.0757 0.51701 0.31233 0.0
C780 C 0.07912 0.52454 0.29778 0.0
C781 C 0.06332 0.5221 0.32232 0.0
C782 C 0.03993 0.55688 0.33238 0.0
H783 H 0.98158 0.54468 0.3922 0.0
H784 H 0.00296 0.53583 0.37462 0.0
H785 H 0.02711 0.57479 0.34527 0.0
H786 H 0.0724 0.54346 0.28242 0.0
H787 H 0.05097 0.55243 0.29997 0.0
H788 H 0.03011 0.51615 0.33161 0.0
C789 C 0.9974 0.54682 0.37197 0.0
C790 C 0.02746 0.56197 0.34221 0.0
C791 C 0.98517 0.5519 0.38209 0.0
C792 C 0.07005 0.53738 0.29353 0.0
C793 C 0.05783 0.54259 0.30361 0.0
C794 C 0.02958 0.52897 0.33459 0.0
C795 C 0.00264 0.55601 0.3589 0.0
C796 C 0.01581 0.55063 0.34827 0.0
C797 C 0.0543 0.53495 0.31805 0.0
C798 C 0.04113 0.54033 0.32854 0.0
H799 H 0.97775 0.58677 0.36413 0.0
H800 H 0.99886 0.5777 0.34612 0.0
H801 H 0.00809 0.525 0.34846 0.0
H802 H 0.08245 0.50708 0.31592 0.0
H803 H 0.0609 0.51609 0.33346 0.0
C804 C 0.76919 0.75544 0.87067 0.0
C805 C 0.78329 0.75855 0.86159 0.0
C806 C 0.7697 0.74719 0.88491 0.0
C807 C 0.79198 0.71785 0.90527 0.0
H808 H 0.77053 0.73381 0.94362 0.0
C809 C 0.79093 0.6831 0.96393 0.0
C810 C 0.77609 0.68194 0.9721 0.0
C811 C 0.79349 0.69386 0.95154 0.0
C812 C 0.77646 0.7291 0.93299 0.0
H813 H 0.80906 0.75552 0.86059 0.0
H814 H 0.80977 0.74064 0.88523 0.0
H815 H 0.77146 0.74962 0.91956 0.0
H816 H 0.75245 0.69145 0.9739 0.0
H817 H 0.75673 0.70978 0.95216 0.0
H818 H 0.79644 0.69703 0.91837 0.0
C819 C 0.79835 0.74466 0.88125 0.0
C820 C 0.77702 0.73819 0.91924 0.0
C821 C 0.7979 0.7531 0.8671 0.0
C822 C 0.76406 0.69207 0.96792 0.0
C823 C 0.76656 0.70269 0.95547 0.0
C824 C 0.79126 0.70865 0.91896 0.0
C825 C 0.78427 0.74167 0.89031 0.0
C826 C 0.78461 0.73255 0.90519 0.0
C827 C 0.78122 0.7036 0.94698 0.0
C828 C 0.78328 0.71405 0.93293 0.0
H829 H 0.75767 0.75915 0.86667 0.0
H830 H 0.75861 0.74482 0.89155 0.0
H831 H 0.7978 0.71317 0.89454 0.0
H832 H 0.80048 0.67553 0.96693 0.0
H833 H 0.80503 0.69444 0.94544 0.0
C834 C 0.00636 0.96793 0.36044 0.0
C835 C 0.01269 0.97684 0.37409 0.0
C836 C 0.99427 0.97396 0.35118 0.0
C837 C 0.97577 0.01248 0.34347 0.0
H838 H 0.94235 0.98365 0.32247 0.0
C839 C 0.91979 0.03506 0.3123 0.0
C840 C 0.9164 0.02839 0.29668 0.0
C841 C 0.93137 0.02868 0.32192 0.0
C842 C 0.95167 0.99181 0.32822 0.0
H843 H 0.01096 0.99865 0.38921 0.0
H844 H 0.98952 0.00894 0.37348 0.0
H845 H 0.96258 0.97248 0.33922 0.0
H846 H 0.92239 0.00968 0.27898 0.0
H847 H 0.94242 0.99844 0.2959 0.0
H848 H 0.96456 0.03182 0.33271 0.0
C849 C 0.99421 0.99759 0.36949 0.0
C850 C 0.96332 0.98543 0.33775 0.0
C851 C 0.00644 0.99167 0.37858 0.0
C852 C 0.92475 0.01514 0.29094 0.0
C853 C 0.93615 0.00862 0.30065 0.0
C854 C 0.964 0.01886 0.33413 0.0
C855 C 0.9881 0.98894 0.35553 0.0
C856 C 0.97556 0.99568 0.34548 0.0
C857 C 0.9396 0.01536 0.3162 0.0
C858 C 0.95188 0.00859 0.32636 0.0
H859 H 0.01108 0.95651 0.35667 0.0
H860 H 0.99004 0.96706 0.3404 0.0
H861 H 0.98518 0.02073 0.34892 0.0
H862 H 0.91357 0.04527 0.31706 0.0
H863 H 0.93376 0.03404 0.33391 0.0
C864 C 0.23777 0.24766 0.66225 0.0
C865 C 0.23017 0.26186 0.65949 0.0
C866 C 0.24084 0.23675 0.64942 0.0
C867 C 0.24361 0.23445 0.60462 0.0
H868 H 0.23997 0.18801 0.60962 0.0
C869 C 0.23863 0.18871 0.55068 0.0
C870 C 0.24968 0.17664 0.55016 0.0
C871 C 0.23688 0.1984 0.56466 0.0
C872 C 0.24116 0.20096 0.60814 0.0
H873 H 0.21923 0.27552 0.64134 0.0
H874 H 0.22403 0.25636 0.61909 0.0
H875 H 0.23544 0.20639 0.63284 0.0
H876 H 0.26717 0.16491 0.56408 0.0
H877 H 0.26378 0.18176 0.58881 0.0
H878 H 0.24874 0.22896 0.5798 0.0
C879 C 0.22821 0.25382 0.631 0.0
C880 C 0.23863 0.21151 0.62142 0.0
C881 C 0.22536 0.26479 0.64376 0.0
C882 C 0.25859 0.17413 0.56412 0.0
C883 C 0.25663 0.18371 0.57825 0.0
C884 C 0.2459 0.22393 0.59135 0.0
C885 C 0.23618 0.23975 0.6336 0.0
C886 C 0.23962 0.22841 0.61977 0.0
C887 C 0.24596 0.19612 0.57851 0.0
C888 C 0.24452 0.2071 0.59294 0.0
H889 H 0.24169 0.24518 0.67428 0.0
H890 H 0.24714 0.22616 0.65188 0.0
H891 H 0.24496 0.24737 0.60294 0.0
H892 H 0.23158 0.19098 0.54015 0.0
H893 H 0.22845 0.20778 0.56461 0.0
C894 C 0.5162 0.62711 0.66766 0.0
C895 C 0.52594 0.61562 0.66047 0.0
C896 C 0.5026 0.6221 0.67665 0.0
C897 C 0.48466 0.58647 0.6976 0.0
H898 H 0.44422 0.60656 0.69323 0.0
C899 C 0.42492 0.55465 0.7164 0.0
C900 C 0.41522 0.5634 0.72698 0.0
C901 C 0.43784 0.56249 0.70848 0.0
C902 C 0.4555 0.60097 0.69466 0.0
H903 H 0.52872 0.58992 0.6566 0.0
H904 H 0.50509 0.58123 0.672 0.0
H905 H 0.46842 0.61763 0.67944 0.0
H906 H 0.41093 0.5874 0.73684 0.0
H907 H 0.43355 0.6012 0.72267 0.0
H908 H 0.47168 0.56955 0.71237 0.0
C909 C 0.50814 0.5941 0.67117 0.0
C910 C 0.46936 0.60731 0.68683 0.0
C911 C 0.52171 0.59909 0.66231 0.0
C912 C 0.41821 0.58033 0.72879 0.0
C913 C 0.43112 0.58823 0.72069 0.0
C914 C 0.47084 0.58008 0.70524 0.0
C915 C 0.49845 0.60552 0.67854 0.0
C916 C 0.48403 0.59991 0.68796 0.0
C917 C 0.4413 0.57928 0.71082 0.0
C918 C 0.45606 0.58705 0.70361 0.0
H919 H 0.5192 0.63995 0.66648 0.0
H920 H 0.49546 0.63121 0.68226 0.0
H921 H 0.49584 0.58074 0.6991 0.0
H922 H 0.42292 0.54162 0.71465 0.0
H923 H 0.44535 0.55535 0.70072 0.0
C924 C 0.75857 0.31316 0.69092 0.0
C925 C 0.76069 0.29687 0.68658 0.0
C926 C 0.75548 0.32406 0.6791 0.0
C927 C 0.74263 0.32491 0.63608 0.0
H928 H 0.76247 0.36888 0.63899 0.0
C929 C 0.75503 0.36338 0.58144 0.0
C930 C 0.74762 0.37808 0.58143 0.0
C931 C 0.75534 0.35468 0.59537 0.0
C932 C 0.75671 0.35669 0.63818 0.0
H933 H 0.76181 0.2793 0.66654 0.0
H934 H 0.75698 0.29824 0.64596 0.0
H935 H 0.76549 0.35108 0.66136 0.0
H936 H 0.73512 0.39545 0.59616 0.0
H937 H 0.73615 0.38029 0.62088 0.0
H938 H 0.73467 0.33031 0.61251 0.0
C939 C 0.75704 0.3026 0.65846 0.0
C940 C 0.75837 0.34649 0.65097 0.0
C941 C 0.7599 0.29172 0.67025 0.0
C942 C 0.74088 0.38413 0.59582 0.0
C943 C 0.74149 0.37553 0.60992 0.0
C944 C 0.74122 0.33499 0.62325 0.0
C945 C 0.75465 0.31889 0.6627 0.0
C946 C 0.75163 0.33035 0.64992 0.0
C947 C 0.74851 0.36062 0.60968 0.0
C948 C 0.74848 0.35084 0.62408 0.0
H949 H 0.75906 0.3174 0.70346 0.0
H950 H 0.75356 0.33646 0.68284 0.0
H951 H 0.73686 0.31274 0.635 0.0
H952 H 0.76028 0.35836 0.57055 0.0
H953 H 0.76089 0.34324 0.59498 0.0
C954 C 0.47161 0.94015 0.66302 0.0
C955 C 0.46442 0.95187 0.65427 0.0
C956 C 0.48561 0.94432 0.67215 0.0
C957 C 0.50977 0.97978 0.69066 0.0
H958 H 0.54532 0.9519 0.68823 0.0
C959 C 0.57248 0.0034 0.71233 0.0
C960 C 0.58009 0.99389 0.72319 0.0
C961 C 0.55915 0.99693 0.70334 0.0
C962 C 0.53543 0.95972 0.6891 0.0
H963 H 0.4664 0.97711 0.64817 0.0
H964 H 0.49065 0.98437 0.66405 0.0
H965 H 0.51969 0.94319 0.67464 0.0
H966 H 0.58044 0.96981 0.73227 0.0
H967 H 0.557 0.95844 0.71642 0.0
H968 H 0.52548 0.99639 0.70488 0.0
C969 C 0.48535 0.97203 0.66414 0.0
C970 C 0.52075 0.95473 0.6814 0.0
C971 C 0.47139 0.96787 0.65505 0.0
C972 C 0.57482 0.97742 0.72399 0.0
C973 C 0.5614 0.97092 0.71494 0.0
C974 C 0.5244 0.98477 0.69825 0.0
C975 C 0.49269 0.9603 0.67272 0.0
C976 C 0.50785 0.96484 0.6819 0.0
C977 C 0.55309 0.98082 0.70501 0.0
C978 C 0.53747 0.97493 0.69734 0.0
H979 H 0.46644 0.92774 0.66275 0.0
H980 H 0.49088 0.93507 0.67879 0.0
H981 H 0.49996 0.98769 0.6916 0.0
H982 H 0.57637 0.01609 0.7113 0.0
H983 H 0.55322 0.00473 0.69547 0.0
C984 C 0.86852 0.23217 0.77885 0.0
C985 C 0.85761 0.24422 0.78123 0.0
C986 C 0.88311 0.23311 0.78737 0.0
C987 C 0.91123 0.26176 0.81134 0.0
H988 H 0.92598 0.22253 0.82817 0.0
C989 C 0.97093 0.26325 0.84645 0.0
C990 C 0.97064 0.25464 0.86064 0.0
C991 C 0.95831 0.26079 0.83528 0.0
C992 C 0.92199 0.23361 0.82361 0.0
H993 H 0.85338 0.26668 0.79443 0.0
H994 H 0.87872 0.26825 0.80948 0.0
H995 H 0.90136 0.22109 0.81197 0.0
H996 H 0.95719 0.23617 0.87389 0.0
H997 H 0.93498 0.2321 0.85457 0.0
H998 H 0.93141 0.2744 0.82354 0.0
C999 C 0.87619 0.25822 0.80079 0.0
C1000 C 0.90798 0.23276 0.81415 0.0
C1001 C 0.86165 0.25733 0.79219 0.0
C1002 C 0.9578 0.24297 0.86305 0.0
C1003 C 0.94508 0.2406 0.85193 0.0
C1004 C 0.92517 0.26262 0.82085 0.0
C1005 C 0.88708 0.24609 0.79854 0.0
C1006 C 0.90235 0.24686 0.80802 0.0
C1007 C 0.945 0.24976 0.83809 0.0
C1008 C 0.93068 0.24858 0.8272 0.0
H1009 H 0.86582 0.22203 0.77031 0.0
H1010 H 0.89133 0.2237 0.78514 0.0
H1011 H 0.90737 0.27283 0.80663 0.0
H1012 H 0.98074 0.27221 0.84414 0.0
H1013 H 0.95883 0.26777 0.82456 0.0
C1014 C 0.44484 0.88748 0.52115 0.0
C1015 C 0.42923 0.88398 0.52713 0.0
C1016 C 0.45099 0.87759 0.50897 0.0
C1017 C 0.4393 0.84487 0.47795 0.0
H1018 H 0.48481 0.83739 0.4807 0.0
C1019 C 0.46914 0.79476 0.44029 0.0
C1020 C 0.48345 0.79972 0.43227 0.0
C1021 C 0.46228 0.80519 0.45159 0.0
C1022 C 0.47211 0.83947 0.47973 0.0
H1023 H 0.40765 0.86765 0.52501 0.0
H1024 H 0.41857 0.8499 0.50401 0.0
H1025 H 0.47302 0.8552 0.50086 0.0
H1026 H 0.50192 0.81944 0.42997 0.0
H1027 H 0.49007 0.83756 0.45002 0.0
H1028 H 0.43844 0.82864 0.45703 0.0
C1029 C 0.42596 0.86051 0.50844 0.0
C1030 C 0.46534 0.84974 0.49122 0.0
C1031 C 0.41971 0.8706 0.52049 0.0
C1032 C 0.49088 0.81527 0.43594 0.0
C1033 C 0.48415 0.82561 0.44743 0.0
C1034 C 0.44605 0.83441 0.46658 0.0
C1035 C 0.44178 0.86377 0.50266 0.0
C1036 C 0.44887 0.85267 0.49044 0.0
C1037 C 0.46973 0.8207 0.45527 0.0
C1038 C 0.46253 0.83169 0.46734 0.0
H1039 H 0.45231 0.89789 0.52596 0.0
H1040 H 0.46303 0.88077 0.50454 0.0
H1041 H 0.42664 0.847 0.47681 0.0
H1042 H 0.46308 0.78287 0.43769 0.0
H1043 H 0.45123 0.80108 0.45757 0.0
C1044 C 0.15366 0.28868 0.79095 0.0
C1045 C 0.15503 0.30332 0.78298 0.0
C1046 C 0.14204 0.28615 0.80297 0.0
C1047 C 0.11614 0.30859 0.83103 0.0
H1048 H 0.09018 0.26774 0.83213 0.0
C1049 C 0.055 0.30208 0.86324 0.0
C1050 C 0.05076 0.28786 0.87131 0.0
C1051 C 0.06926 0.3036 0.85437 0.0
C1052 C 0.09752 0.27912 0.83217 0.0
H1053 H 0.14488 0.32652 0.78097 0.0
H1054 H 0.12469 0.32212 0.80181 0.0
H1055 H 0.11203 0.27084 0.81258 0.0
H1056 H 0.0584 0.26426 0.87681 0.0
H1057 H 0.08341 0.26695 0.86125 0.0
H1058 H 0.10141 0.31699 0.85034 0.0
C1059 C 0.13281 0.31273 0.79908 0.0
C1060 C 0.11002 0.2809 0.82095 0.0
C1061 C 0.14438 0.31525 0.78711 0.0
C1062 C 0.06135 0.27537 0.87073 0.0
C1063 C 0.0756 0.27686 0.86173 0.0
C1064 C 0.10365 0.30681 0.8422 0.0
C1065 C 0.13158 0.29822 0.80725 0.0
C1066 C 0.11925 0.29577 0.82005 0.0
C1067 C 0.0796 0.29092 0.85329 0.0
C1068 C 0.09399 0.29217 0.84269 0.0
H1069 H 0.16178 0.27931 0.78813 0.0
H1070 H 0.14146 0.27488 0.80911 0.0
H1071 H 0.12326 0.32008 0.83089 0.0
H1072 H 0.04712 0.31193 0.86344 0.0
H1073 H 0.07188 0.31451 0.84786 0.0
C1074 C 0.55799 0.66863 0.52811 0.0
C1075 C 0.57372 0.67199 0.53429 0.0
C1076 C 0.55359 0.67466 0.51347 0.0
C1077 C 0.56351 0.70734 0.48629 0.0
H1078 H 0.5363 0.68016 0.45635 0.0
C1079 C 0.53727 0.73267 0.42898 0.0
C1080 C 0.52062 0.72874 0.42669 0.0
C1081 C 0.54601 0.72446 0.44002 0.0
C1082 C 0.54387 0.68792 0.46459 0.0
H1083 H 0.59717 0.68434 0.52999 0.0
H1084 H 0.5894 0.69502 0.50431 0.0
H1085 H 0.54734 0.66849 0.48002 0.0
H1086 H 0.50026 0.71259 0.43359 0.0
H1087 H 0.51538 0.69841 0.4528 0.0
H1088 H 0.55958 0.72691 0.47118 0.0
C1089 C 0.58052 0.68769 0.51085 0.0
C1090 C 0.55019 0.68123 0.47814 0.0
C1091 C 0.58498 0.68152 0.52549 0.0
C1092 C 0.51307 0.71594 0.43507 0.0
C1093 C 0.52178 0.70772 0.44604 0.0
C1094 C 0.55713 0.71406 0.47275 0.0
C1095 C 0.56478 0.68426 0.50467 0.0
C1096 C 0.55974 0.69096 0.48935 0.0
C1097 C 0.53827 0.71209 0.44891 0.0
C1098 C 0.5469 0.70451 0.46196 0.0
H1099 H 0.54911 0.66115 0.53451 0.0
H1100 H 0.54131 0.67199 0.50914 0.0
H1101 H 0.57076 0.71516 0.49476 0.0
H1102 H 0.54344 0.74247 0.42268 0.0
H1103 H 0.55874 0.72798 0.44182 0.0
C1104 C 0.85503 0.8139 0.72778 0.0
C1105 C 0.84959 0.80022 0.73622 0.0
C1106 C 0.86894 0.8137 0.71829 0.0
C1107 C 0.89658 0.78553 0.69862 0.0
H1108 H 0.92679 0.82364 0.69911 0.0
C1109 C 0.96103 0.78309 0.67421 0.0
C1110 C 0.96601 0.79487 0.66324 0.0
C1111 C 0.94701 0.78454 0.68324 0.0
C1112 C 0.91839 0.81297 0.69879 0.0
H1113 H 0.85429 0.77545 0.74087 0.0
H1114 H 0.87875 0.77531 0.72492 0.0
H1115 H 0.90153 0.82447 0.71413 0.0
H1116 H 0.96053 0.8178 0.65372 0.0
H1117 H 0.93608 0.82041 0.66975 0.0
H1118 H 0.91363 0.77394 0.68359 0.0
C1119 C 0.87219 0.78613 0.72538 0.0
C1120 C 0.90389 0.81344 0.70732 0.0
C1121 C 0.85825 0.78629 0.73475 0.0
C1122 C 0.95701 0.80849 0.66203 0.0
C1123 C 0.94304 0.81002 0.67122 0.0
C1124 C 0.91112 0.78502 0.69026 0.0
C1125 C 0.87776 0.79985 0.71708 0.0
C1126 C 0.89286 0.79968 0.70743 0.0
C1127 C 0.93773 0.79787 0.68164 0.0
C1128 C 0.92222 0.79868 0.69035 0.0
H1129 H 0.84874 0.82488 0.72875 0.0
H1130 H 0.87276 0.82441 0.7119 0.0
H1131 H 0.88823 0.77483 0.69812 0.0
H1132 H 0.96768 0.77246 0.67547 0.0
H1133 H 0.9433 0.77512 0.69136 0.0
C1134 C 0.04219 0.89823 0.49347 0.0
C1135 C 0.05682 0.89618 0.48538 0.0
C1136 C 0.03876 0.89062 0.50784 0.0
C1137 C 0.05024 0.85729 0.53258 0.0
H1138 H 0.02885 0.88138 0.56641 0.0
C1139 C 0.03491 0.82993 0.5938 0.0
C1140 C 0.01857 0.83061 0.598 0.0
C1141 C 0.04156 0.83944 0.58161 0.0
C1142 C 0.03484 0.87452 0.55708 0.0
H1143 H 0.07905 0.88398 0.4858 0.0
H1144 H 0.0732 0.87095 0.51107 0.0
H1145 H 0.03621 0.89433 0.54142 0.0
H1146 H 0.9967 0.84251 0.59359 0.0
H1147 H 0.0083 0.85918 0.57256 0.0
H1148 H 0.0487 0.83743 0.54823 0.0
C1149 C 0.06433 0.87839 0.50624 0.0
C1150 C 0.03897 0.88189 0.54272 0.0
C1151 C 0.06774 0.88597 0.49182 0.0
C1152 C 0.00932 0.8417 0.59057 0.0
C1153 C 0.01599 0.8513 0.57857 0.0
C1154 C 0.04618 0.84995 0.54699 0.0
C1155 C 0.04989 0.88081 0.51454 0.0
C1156 C 0.04644 0.87326 0.53017 0.0
C1157 C 0.03203 0.84993 0.57361 0.0
C1158 C 0.03817 0.8584 0.55927 0.0
H1159 H 0.03358 0.90615 0.48897 0.0
H1160 H 0.02738 0.8925 0.51375 0.0
H1161 H 0.05585 0.85025 0.52312 0.0
H1162 H 0.04232 0.82145 0.59929 0.0
H1163 H 0.05401 0.83827 0.57813 0.0
C1164 C 0.1479 0.77772 0.74463 0.0
C1165 C 0.15734 0.76429 0.74419 0.0
C1166 C 0.13597 0.77908 0.73299 0.0
C1167 C 0.1105 0.75374 0.70347 0.0
H1168 H 0.0982 0.79546 0.69051 0.0
C1169 C 0.04898 0.76053 0.67403 0.0
C1170 C 0.04773 0.77193 0.66219 0.0
C1171 C 0.06336 0.75979 0.68259 0.0
C1172 C 0.10159 0.78368 0.6938 0.0
H1173 H 0.16188 0.74202 0.73071 0.0
H1174 H 0.14164 0.74477 0.71004 0.0
H1175 H 0.1221 0.7941 0.70727 0.0
H1176 H 0.06068 0.79141 0.6499 0.0
H1177 H 0.08603 0.78986 0.6646 0.0
H1178 H 0.09028 0.74327 0.68969 0.0
C1179 C 0.14314 0.75405 0.71966 0.0
C1180 C 0.1152 0.78292 0.70362 0.0
C1181 C 0.15495 0.75259 0.73142 0.0
C1182 C 0.06126 0.78253 0.659 0.0
C1183 C 0.07575 0.78168 0.66749 0.0
C1184 C 0.09703 0.75449 0.69353 0.0
C1185 C 0.13327 0.76715 0.72045 0.0
C1186 C 0.11967 0.76795 0.70884 0.0
C1187 C 0.07697 0.7703 0.67942 0.0
C1188 C 0.09218 0.76949 0.68883 0.0
H1189 H 0.14958 0.78714 0.75409 0.0
H1190 H 0.12854 0.78926 0.73414 0.0
H1191 H 0.1134 0.742 0.70733 0.0
H1192 H 0.03875 0.75227 0.67689 0.0
H1193 H 0.06367 0.75112 0.69192 0.0
C1194 C 0.95261 0.67138 0.49218 0.0
C1195 C 0.95025 0.65504 0.49597 0.0
C1196 C 0.95819 0.68312 0.50394 0.0
C1197 C 0.9616 0.68969 0.54833 0.0
H1198 H 0.99118 0.72614 0.53786 0.0
C1199 C 0.99213 0.73359 0.59704 0.0
C1200 C 0.99143 0.75018 0.59451 0.0
C1201 C 0.9877 0.722 0.58475 0.0
C1202 C 0.98285 0.71606 0.54091 0.0
H1203 H 0.95253 0.63801 0.51471 0.0
H1204 H 0.96261 0.65834 0.53509 0.0
H1205 H 0.98242 0.70582 0.51675 0.0
H1206 H 0.9859 0.76762 0.57698 0.0
H1207 H 0.9783 0.74735 0.55553 0.0
H1208 H 0.96221 0.69984 0.57252 0.0
C1209 C 0.95968 0.66225 0.52325 0.0
C1210 C 0.97778 0.70446 0.52883 0.0
C1211 C 0.95396 0.65058 0.51156 0.0
C1212 C 0.98652 0.75493 0.57935 0.0
C1213 C 0.98226 0.74335 0.56702 0.0
C1214 C 0.96678 0.70119 0.56041 0.0
C1215 C 0.96167 0.6787 0.51966 0.0
C1216 C 0.9671 0.69112 0.53241 0.0
C1217 C 0.98267 0.72678 0.56965 0.0
C1218 C 0.97744 0.71449 0.55682 0.0
H1219 H 0.94975 0.67512 0.48025 0.0
H1220 H 0.95942 0.69569 0.50081 0.0
H1221 H 0.95309 0.67979 0.55146 0.0
H1222 H 0.99588 0.72953 0.60858 0.0
H1223 H 0.98826 0.70929 0.58704 0.0
C1224 C 0.76305 0.9048 0.24658 0.0
C1225 C 0.76175 0.8969 0.23122 0.0
C1226 C 0.77226 0.91951 0.24894 0.0
C1227 C 0.79156 0.95411 0.2274 0.0
H1228 H 0.81678 0.96088 0.2668 0.0
C1229 C 0.8425 0.00546 0.23873 0.0
C1230 C 0.84341 0.01312 0.25422 0.0
C1231 C 0.83131 0.99226 0.23534 0.0
C1232 C 0.80965 0.95926 0.25583 0.0
H1233 H 0.76905 0.89849 0.20624 0.0
H1234 H 0.78564 0.92391 0.21048 0.0
H1235 H 0.80018 0.93568 0.26194 0.0
H1236 H 0.83272 0.01337 0.27807 0.0
H1237 H 0.81326 0.99034 0.27213 0.0
H1238 H 0.80149 0.97766 0.2212 0.0
C1239 C 0.77926 0.91884 0.22066 0.0
C1240 C 0.8001 0.94481 0.25303 0.0
C1241 C 0.76992 0.90413 0.21826 0.0
C1242 C 0.83242 0.00772 0.26604 0.0
C1243 C 0.82132 0.99446 0.26268 0.0
C1244 C 0.80125 0.96855 0.23015 0.0
C1245 C 0.7806 0.92667 0.23605 0.0
C1246 C 0.79087 0.94206 0.23882 0.0
C1247 C 0.82089 0.98638 0.24741 0.0
C1248 C 0.81033 0.97128 0.24444 0.0
H1249 H 0.75714 0.89951 0.25691 0.0
H1250 H 0.7728 0.9253 0.26092 0.0
H1251 H 0.78445 0.95249 0.21642 0.0
H1252 H 0.85075 0.00934 0.22934 0.0
H1253 H 0.83128 0.98622 0.22349 0.0
C1254 C 0.7838 0.195 0.28421 0.0
C1255 C 0.77507 0.1966 0.29863 0.0
C1256 C 0.79523 0.18347 0.28241 0.0
C1257 C 0.82005 0.15735 0.3059 0.0
H1258 H 0.82101 0.13148 0.26583 0.0
C1259 C 0.84892 0.09627 0.30044 0.0
C1260 C 0.8572 0.09229 0.28623 0.0
C1261 C 0.84074 0.1104 0.30181 0.0
C1262 C 0.82109 0.13877 0.277 0.0
H1263 H 0.77135 0.18714 0.32236 0.0
H1264 H 0.79117 0.16703 0.31921 0.0
H1265 H 0.80306 0.15343 0.26837 0.0
H1266 H 0.86383 0.10029 0.26247 0.0
H1267 H 0.84955 0.12504 0.2649 0.0
H1268 H 0.83782 0.14244 0.31464 0.0
C1269 C 0.78945 0.1749 0.3094 0.0
C1270 C 0.81079 0.15136 0.27847 0.0
C1271 C 0.77806 0.18643 0.3112 0.0
C1272 C 0.85753 0.103 0.27358 0.0
C1273 C 0.84927 0.11712 0.27492 0.0
C1274 C 0.83032 0.14475 0.30445 0.0
C1275 C 0.79817 0.17326 0.29499 0.0
C1276 C 0.80997 0.16065 0.29302 0.0
C1277 C 0.84061 0.12087 0.28898 0.0
C1278 C 0.83079 0.13516 0.29006 0.0
H1279 H 0.78192 0.20279 0.27438 0.0
H1280 H 0.80187 0.18265 0.27122 0.0
H1281 H 0.81995 0.16447 0.31717 0.0
H1282 H 0.84842 0.08828 0.31041 0.0
H1283 H 0.83405 0.11282 0.31274 0.0
C1284 C 0.34353 0.0386 0.96519 0.0
C1285 C 0.3598 0.03558 0.9628 0.0
C1286 C 0.33281 0.02702 0.97196 0.0
C1287 C 0.32767 0.98343 0.9807 0.0
H1288 H 0.29585 0.9981 0.01112 0.0
C1289 C 0.28749 0.93956 0.01858 0.0
C1290 C 0.27094 0.94215 0.01872 0.0
C1291 C 0.29871 0.95096 0.01218 0.0
C1292 C 0.30462 0.99384 0.00258 0.0
H1293 H 0.37765 0.01812 0.96569 0.0
H1294 H 0.35904 0.99798 0.97771 0.0
H1295 H 0.31461 0.01789 0.99878 0.0
H1296 H 0.25323 0.95889 0.01258 0.0
H1297 H 0.2728 0.97876 0.00156 0.0
H1298 H 0.31772 0.95934 0.98469 0.0
C1299 C 0.35444 0.00914 0.97405 0.0
C1300 C 0.31533 0.00517 0.99544 0.0
C1301 C 0.36511 0.02068 0.96717 0.0
C1302 C 0.26589 0.9565 0.01262 0.0
C1303 C 0.2771 0.96794 0.00639 0.0
C1304 C 0.31704 0.97209 0.98794 0.0
C1305 C 0.33818 0.01221 0.97662 0.0
C1306 C 0.32691 0.00011 0.98433 0.0
C1307 C 0.2936 0.96524 0.006 0.0
C1308 C 0.30534 0.9772 0.99886 0.0
H1309 H 0.33907 0.04992 0.96177 0.0
H1310 H 0.32031 0.02965 0.97347 0.0
H1311 H 0.33629 0.97912 0.97203 0.0
H1312 H 0.29177 0.92863 0.02318 0.0
H1313 H 0.31138 0.94865 0.01214 0.0
C1314 C 0.21501 0.36495 0.29382 0.0
C1315 C 0.21981 0.35688 0.27956 0.0
C1316 C 0.2044 0.37719 0.29329 0.0
C1317 C 0.17375 0.39435 0.26851 0.0
H1318 H 0.18571 0.43351 0.29455 0.0
C1319 C 0.14137 0.45398 0.26455 0.0
C1320 C 0.13979 0.46332 0.27895 0.0
C1321 C 0.15006 0.44012 0.2643 0.0
C1322 C 0.18202 0.42259 0.28739 0.0
H1323 H 0.21688 0.35504 0.25358 0.0
H1324 H 0.1983 0.37662 0.25266 0.0
H1325 H 0.20285 0.41101 0.2946 0.0
H1326 H 0.14526 0.46495 0.30455 0.0
H1327 H 0.15999 0.44067 0.3042 0.0
H1328 H 0.15282 0.40599 0.26138 0.0
C1329 C 0.20276 0.37337 0.26424 0.0
C1330 C 0.19189 0.4097 0.28739 0.0
C1331 C 0.21349 0.36113 0.26476 0.0
C1332 C 0.14642 0.45813 0.29321 0.0
C1333 C 0.15497 0.44426 0.29299 0.0
C1334 C 0.16378 0.40727 0.26858 0.0
C1335 C 0.1983 0.38168 0.2785 0.0
C1336 C 0.18783 0.3954 0.27806 0.0
C1337 C 0.15726 0.4353 0.27847 0.0
C1338 C 0.16775 0.4215 0.27813 0.0
H1339 H 0.21979 0.36211 0.30541 0.0
H1340 H 0.20104 0.38325 0.3045 0.0
H1341 H 0.17027 0.38343 0.26127 0.0
H1342 H 0.1364 0.4577 0.25336 0.0
H1343 H 0.15165 0.43356 0.2529 0.0
C1344 C 0.14113 0.01729 0.45679 0.0
C1345 C 0.14195 0.00948 0.44146 0.0
C1346 C 0.15241 0.02999 0.46144 0.0
C1347 C 0.19342 0.04644 0.45472 0.0
H1348 H 0.17856 0.08658 0.47305 0.0
C1349 C 0.23787 0.10148 0.47169 0.0
C1350 C 0.23458 0.11095 0.48561 0.0
C1351 C 0.22648 0.08945 0.46563 0.0
C1352 C 0.18295 0.07538 0.46818 0.0
H1353 H 0.15518 0.00865 0.41902 0.0
H1354 H 0.17525 0.03079 0.42733 0.0
H1355 H 0.15891 0.06476 0.46376 0.0
H1356 H 0.21685 0.11516 0.50419 0.0
H1357 H 0.1972 0.0938 0.49399 0.0
H1358 H 0.21742 0.05669 0.45963 0.0
C1359 C 0.16578 0.02709 0.43565 0.0
C1360 C 0.17168 0.06294 0.46277 0.0
C1361 C 0.15431 0.01453 0.43088 0.0
C1362 C 0.21969 0.10813 0.49337 0.0
C1363 C 0.20838 0.09594 0.48744 0.0
C1364 C 0.20471 0.05878 0.46034 0.0
C1365 C 0.16485 0.03498 0.45093 0.0
C1366 C 0.17682 0.04835 0.45605 0.0
C1367 C 0.21162 0.08645 0.47347 0.0
C1368 C 0.19962 0.07341 0.4672 0.0
H1369 H 0.13161 0.01372 0.4651 0.0
H1370 H 0.15151 0.03581 0.47333 0.0
H1371 H 0.19767 0.03521 0.44973 0.0
H1372 H 0.24919 0.10346 0.46535 0.0
H1373 H 0.22929 0.08263 0.45468 0.0
C1374 C 0.72185 0.15627 0.73246 0.0
C1375 C 0.73191 0.16253 0.74526 0.0
C1376 C 0.71228 0.14178 0.73383 0.0
C1377 C 0.69456 0.11455 0.76426 0.0
H1378 H 0.68933 0.08336 0.72797 0.0
C1379 C 0.66271 0.05121 0.77078 0.0
C1380 C 0.65093 0.04615 0.75905 0.0
C1381 C 0.67334 0.06479 0.76858 0.0
C1382 C 0.69062 0.09201 0.73816 0.0
H1383 H 0.73961 0.15852 0.76964 0.0
H1384 H 0.72333 0.13309 0.77185 0.0
H1385 H 0.70624 0.10851 0.7252 0.0
H1386 H 0.64155 0.05103 0.73551 0.0
H1387 H 0.66017 0.07474 0.73168 0.0
H1388 H 0.67902 0.09804 0.77723 0.0
C1389 C 0.72266 0.13946 0.76081 0.0
C1390 C 0.70025 0.10643 0.73658 0.0
C1391 C 0.73216 0.15396 0.75946 0.0
C1392 C 0.65045 0.05462 0.7448 0.0
C1393 C 0.66116 0.06816 0.74256 0.0
C1394 C 0.68503 0.10012 0.76586 0.0
C1395 C 0.71257 0.13321 0.74803 0.0
C1396 C 0.70233 0.11787 0.74962 0.0
C1397 C 0.67251 0.07356 0.75457 0.0
C1398 C 0.68295 0.0887 0.75284 0.0
H1399 H 0.72148 0.16248 0.72129 0.0
H1400 H 0.70451 0.1374 0.72382 0.0
H1401 H 0.69564 0.12322 0.77444 0.0
H1402 H 0.66347 0.04493 0.78188 0.0
H1403 H 0.68214 0.06854 0.77793 0.0
C1404 C 0.353 0.014 0.5818 0.0
C1405 C 0.36283 0.00541 0.57118 0.0
C1406 C 0.34696 0.02848 0.57735 0.0
C1407 C 0.3543 0.06136 0.54903 0.0
H1408 H 0.30933 0.06892 0.55659 0.0
C1409 C 0.32039 0.10622 0.51366 0.0
C1410 C 0.30847 0.11486 0.52145 0.0
C1411 C 0.32836 0.09476 0.52177 0.0
C1412 C 0.322 0.06716 0.55466 0.0
H1413 H 0.37411 0.00539 0.54763 0.0
H1414 H 0.36333 0.03039 0.53978 0.0
H1415 H 0.32028 0.04481 0.56673 0.0
H1416 H 0.2961 0.11881 0.54412 0.0
H1417 H 0.31014 0.09877 0.55837 0.0
H1418 H 0.35594 0.0835 0.53666 0.0
C1419 C 0.36042 0.02605 0.5516 0.0
C1420 C 0.32826 0.05332 0.56044 0.0
C1421 C 0.36641 0.01159 0.55602 0.0
C1422 C 0.30523 0.11234 0.53778 0.0
C1423 C 0.31317 0.10078 0.5459 0.0
C1424 C 0.34805 0.07519 0.54326 0.0
C1425 C 0.3507 0.03472 0.56224 0.0
C1426 C 0.34439 0.05009 0.55739 0.0
C1427 C 0.32459 0.09163 0.53787 0.0
C1428 C 0.33174 0.07808 0.54572 0.0
H1429 H 0.34995 0.00951 0.59353 0.0
H1430 H 0.33955 0.03491 0.58583 0.0
H1431 H 0.36688 0.05941 0.54678 0.0
H1432 H 0.32319 0.10788 0.50108 0.0
H1433 H 0.33696 0.08783 0.51517 0.0
C1434 C 0.65011 0.55774 0.6054 0.0
C1435 C 0.64311 0.56633 0.59331 0.0
C1436 C 0.65779 0.54361 0.60143 0.0
C1437 C 0.67588 0.52171 0.56687 0.0
H1438 H 0.66743 0.48355 0.59177 0.0
C1439 C 0.68887 0.45915 0.54106 0.0
C1440 C 0.69754 0.44936 0.55077 0.0
C1441 C 0.6824 0.47303 0.54762 0.0
C1442 C 0.67003 0.49417 0.58483 0.0
H1443 H 0.63844 0.56658 0.56761 0.0
H1444 H 0.6518 0.54214 0.56073 0.0
H1445 H 0.65652 0.50911 0.60076 0.0
H1446 H 0.70553 0.44603 0.57519 0.0
H1447 H 0.69405 0.47041 0.58673 0.0
H1448 H 0.68907 0.50679 0.55077 0.0
C1449 C 0.65168 0.54645 0.57325 0.0
C1450 C 0.66383 0.50881 0.58998 0.0
C1451 C 0.64404 0.56051 0.57719 0.0
C1452 C 0.6989 0.45333 0.5674 0.0
C1453 C 0.69234 0.46727 0.57401 0.0
C1454 C 0.68198 0.50713 0.56171 0.0
C1455 C 0.65864 0.53781 0.58529 0.0
C1456 C 0.66643 0.52265 0.58086 0.0
C1457 C 0.68442 0.47748 0.56406 0.0
C1458 C 0.67885 0.49312 0.57043 0.0
H1459 H 0.64969 0.56197 0.61792 0.0
H1460 H 0.66316 0.5373 0.61097 0.0
H1461 H 0.67843 0.53223 0.55978 0.0
H1462 H 0.68746 0.45638 0.52824 0.0
H1463 H 0.67605 0.48047 0.53973 0.0
C1464 C 0.69681 0.30787 0.38794 0.0
C1465 C 0.70512 0.29368 0.38686 0.0
C1466 C 0.6957 0.31663 0.40263 0.0
C1467 C 0.70157 0.31419 0.44693 0.0
H1468 H 0.70686 0.36101 0.4457 0.0
C1469 C 0.72102 0.35732 0.50146 0.0
C1470 C 0.71393 0.3722 0.50314 0.0
C1471 C 0.71725 0.34667 0.48821 0.0
C1472 C 0.7051 0.34796 0.44624 0.0
H1473 H 0.71838 0.27736 0.40062 0.0
H1474 H 0.71708 0.29302 0.42605 0.0
H1475 H 0.70579 0.34462 0.42062 0.0
H1476 H 0.6966 0.38712 0.49269 0.0
H1477 H 0.6901 0.36853 0.46955 0.0
H1478 H 0.70154 0.31767 0.47269 0.0
C1479 C 0.71113 0.29722 0.41559 0.0
C1480 C 0.70446 0.33853 0.43185 0.0
C1481 C 0.7121 0.28837 0.40092 0.0
C1482 C 0.70234 0.37579 0.49174 0.0
C1483 C 0.69867 0.3652 0.47843 0.0
C1484 C 0.70236 0.32364 0.46136 0.0
C1485 C 0.70303 0.31155 0.4166 0.0
C1486 C 0.70282 0.32152 0.43199 0.0
C1487 C 0.7064 0.35073 0.47632 0.0
C1488 C 0.70425 0.34062 0.46115 0.0
H1489 H 0.69142 0.31246 0.37736 0.0
H1490 H 0.68916 0.32747 0.40298 0.0
H1491 H 0.70002 0.30113 0.4475 0.0
H1492 H 0.72995 0.35415 0.51006 0.0
H1493 H 0.72345 0.33565 0.48687 0.0
C1494 C 0.49567 0.06727 0.88905 0.0
C1495 C 0.48044 0.0697 0.88258 0.0
C1496 C 0.50767 0.06112 0.87929 0.0
C1497 C 0.51367 0.03903 0.84009 0.0
H1498 H 0.55835 0.05535 0.84678 0.0
C1499 C 0.5645 0.02752 0.7946 0.0
C1500 C 0.57915 0.02294 0.80086 0.0
C1501 C 0.55234 0.03241 0.80491 0.0
C1502 C 0.54594 0.05056 0.8449 0.0
H1503 H 0.46586 0.06786 0.86084 0.0
H1504 H 0.48695 0.05753 0.84362 0.0
H1505 H 0.53734 0.06596 0.86386 0.0
H1506 H 0.59248 0.01979 0.82284 0.0
H1507 H 0.57121 0.02859 0.84088 0.0
H1508 H 0.52233 0.02396 0.82081 0.0
C1509 C 0.48953 0.05997 0.85632 0.0
C1510 C 0.53389 0.05661 0.85469 0.0
C1511 C 0.47746 0.06596 0.86614 0.0
C1512 C 0.58133 0.02324 0.81766 0.0
C1513 C 0.56921 0.02834 0.82797 0.0
C1514 C 0.52571 0.03312 0.83019 0.0
C1515 C 0.50477 0.05742 0.86279 0.0
C1516 C 0.5176 0.05093 0.8524 0.0
C1517 C 0.55463 0.033 0.82168 0.0
C1518 C 0.54194 0.03885 0.8325 0.0
H1519 H 0.49819 0.06981 0.90176 0.0
H1520 H 0.51913 0.05903 0.88476 0.0
H1521 H 0.50131 0.03415 0.83817 0.0
H1522 H 0.56243 0.02737 0.78172 0.0
H1523 H 0.54126 0.03607 0.79974 0.0
C1524 C 0.29371 0.24707 0.36314 0.0
C1525 C 0.28508 0.261 0.36249 0.0
C1526 C 0.29424 0.23871 0.37733 0.0
C1527 C 0.27171 0.2314 0.41445 0.0
H1528 H 0.31162 0.21546 0.42937 0.0
C1529 C 0.27334 0.19718 0.47281 0.0
C1530 C 0.28182 0.18311 0.47223 0.0
C1531 C 0.27516 0.20821 0.46063 0.0
C1532 C 0.30035 0.21972 0.42529 0.0
H1533 H 0.2705 0.27724 0.37641 0.0
H1534 H 0.27119 0.26245 0.40108 0.0
H1535 H 0.31181 0.23157 0.40547 0.0
H1536 H 0.29941 0.16994 0.45873 0.0
H1537 H 0.30232 0.18897 0.43729 0.0
H1538 H 0.26012 0.21923 0.43387 0.0
C1539 C 0.27746 0.25797 0.39055 0.0
C1540 C 0.30047 0.22896 0.41163 0.0
C1541 C 0.27702 0.26639 0.37639 0.0
C1542 C 0.29272 0.18068 0.45957 0.0
C1543 C 0.29444 0.19164 0.44729 0.0
C1544 C 0.27156 0.22209 0.42802 0.0
C1545 C 0.28606 0.24404 0.39115 0.0
C1546 C 0.28613 0.2348 0.40601 0.0
C1547 C 0.2854 0.20535 0.44748 0.0
C1548 C 0.28586 0.21605 0.43357 0.0
H1549 H 0.29984 0.24242 0.3526 0.0
H1550 H 0.30075 0.22787 0.37737 0.0
H1551 H 0.26043 0.23555 0.41027 0.0
H1552 H 0.26497 0.1995 0.4825 0.0
H1553 H 0.2683 0.21883 0.46136 0.0
C1554 C 0.50218 0.46583 0.86193 0.0
C1555 C 0.50881 0.47523 0.87518 0.0
C1556 C 0.48973 0.47142 0.85284 0.0
C1557 C 0.45715 0.49894 0.85419 0.0
H1558 H 0.46293 0.49977 0.80793 0.0
C1559 C 0.41541 0.53275 0.81371 0.0
C1560 C 0.41192 0.52607 0.79813 0.0
C1561 C 0.42682 0.52615 0.82339 0.0
C1562 C 0.46093 0.49939 0.82079 0.0
H1563 H 0.5073 0.4975 0.88967 0.0
H1564 H 0.48535 0.50716 0.87391 0.0
H1565 H 0.48309 0.48833 0.82441 0.0
H1566 H 0.41729 0.50696 0.78065 0.0
H1567 H 0.43665 0.49513 0.79764 0.0
H1568 H 0.43487 0.5097 0.85064 0.0
C1569 C 0.48986 0.49555 0.8705 0.0
C1570 C 0.47254 0.49287 0.83022 0.0
C1571 C 0.50247 0.49009 0.87943 0.0
C1572 C 0.41984 0.51251 0.79254 0.0
C1573 C 0.43105 0.50578 0.80227 0.0
C1574 C 0.44541 0.50527 0.84474 0.0
C1575 C 0.48351 0.48636 0.85701 0.0
C1576 C 0.47081 0.49266 0.84701 0.0
C1577 C 0.43482 0.51259 0.81778 0.0
C1578 C 0.44718 0.50565 0.8279 0.0
H1579 H 0.50691 0.45436 0.85838 0.0
H1580 H 0.48496 0.46407 0.84253 0.0
H1581 H 0.45549 0.49881 0.86712 0.0
H1582 H 0.40955 0.54325 0.81833 0.0
H1583 H 0.42956 0.53188 0.83516 0.0
C1584 C 0.73386 0.76791 0.14369 0.0
C1585 C 0.72979 0.76252 0.15907 0.0
C1586 C 0.73609 0.75683 0.13084 0.0
C1587 C 0.72983 0.73127 0.10393 0.0
H1588 H 0.75161 0.69212 0.10971 0.0
C1589 C 0.73031 0.68162 0.05351 0.0
C1590 C 0.74502 0.67472 0.05044 0.0
C1591 C 0.72834 0.69135 0.06743 0.0
C1592 C 0.74559 0.70305 0.10789 0.0
H1593 H 0.72524 0.74118 0.17303 0.0
H1594 H 0.72874 0.72183 0.15049 0.0
H1595 H 0.74904 0.71146 0.13253 0.0
H1596 H 0.76904 0.67218 0.05984 0.0
H1597 H 0.76568 0.68941 0.08412 0.0
H1598 H 0.72672 0.72315 0.07926 0.0
C1599 C 0.73038 0.73465 0.14842 0.0
C1600 C 0.74396 0.71405 0.12099 0.0
C1601 C 0.72816 0.74575 0.1613 0.0
C1602 C 0.75755 0.6773 0.06189 0.0
C1603 C 0.7556 0.68714 0.07582 0.0
C1604 C 0.73147 0.72032 0.09086 0.0
C1605 C 0.73427 0.74006 0.13301 0.0
C1606 C 0.73608 0.7283 0.11916 0.0
C1607 C 0.74106 0.69452 0.0786 0.0
C1608 C 0.73933 0.70605 0.09266 0.0
H1609 H 0.73506 0.78073 0.14149 0.0
H1610 H 0.73929 0.76142 0.11919 0.0
H1611 H 0.72351 0.74202 0.10212 0.0
H1612 H 0.72036 0.67974 0.04501 0.0
H1613 H 0.71686 0.69654 0.06936 0.0
C1614 C 0.01337 0.12788 0.16103 0.0
C1615 C 0.02661 0.1182 0.16019 0.0
C1616 C -0.00062 0.12292 0.16942 0.0
C1617 C 0.97835 0.08542 0.18416 0.0
H1618 H 0.95125 0.11508 0.20674 0.0
C1619 C 0.91843 0.06127 0.21071 0.0
C1620 C 0.91458 0.06733 0.22617 0.0
C1621 C 0.9306 0.06917 0.20178 0.0
C1622 C 0.95873 0.10662 0.20058 0.0
H1623 H 0.03557 0.09592 0.16818 0.0
H1624 H 0.01178 0.08785 0.18348 0.0
H1625 H 0.97631 0.12555 0.19434 0.0
H1626 H 0.91986 0.08682 0.24415 0.0
H1627 H 0.9416 0.10031 0.22887 0.0
H1628 H 0.9614 0.06641 0.19099 0.0
C1629 C 0.01193 0.09902 0.17719 0.0
C1630 C 0.97303 0.11265 0.1933 0.0
C1631 C 0.02577 0.10384 0.16863 0.0
C1632 C 0.92255 0.08192 0.23221 0.0
C1633 C 0.93499 0.08967 0.22341 0.0
C1634 C 0.96423 0.0794 0.19156 0.0
C1635 C 0.99837 0.10824 0.17734 0.0
C1636 C 0.98307 0.10209 0.18508 0.0
C1637 C 0.93951 0.0831 0.20827 0.0
C1638 C 0.9542 0.08988 0.19987 0.0
H1639 H 0.01365 0.13918 0.15496 0.0
H1640 H 0.98919 0.13033 0.16923 0.0
H1641 H 0.98554 0.07691 0.17766 0.0
H1642 H 0.91232 0.05014 0.20569 0.0
H1643 H 0.93334 0.06403 0.18996 0.0
C1644 C 0.25657 0.81029 0.18681 0.0
C1645 C 0.26023 0.79438 0.18255 0.0
C1646 C 0.25402 0.82122 0.17487 0.0
C1647 C 0.24612 0.82263 0.13067 0.0
H1648 H 0.26213 0.86769 0.13703 0.0
C1649 C 0.26009 0.86456 0.0788 0.0
C1650 C 0.25152 0.87856 0.0788 0.0
C1651 C 0.26006 0.85523 0.09233 0.0
C1652 C 0.25746 0.85517 0.13522 0.0
H1653 H 0.26447 0.77748 0.1626 0.0
H1654 H 0.26063 0.79654 0.14183 0.0
H1655 H 0.26408 0.84929 0.15903 0.0
H1656 H 0.23666 0.89409 0.09319 0.0
H1657 H 0.23708 0.87789 0.11723 0.0
H1658 H 0.24034 0.82842 0.10657 0.0
C1659 C 0.2591 0.80055 0.15429 0.0
C1660 C 0.2585 0.84462 0.1478 0.0
C1661 C 0.26139 0.7896 0.16619 0.0
C1662 C 0.24334 0.88334 0.09285 0.0
C1663 C 0.24359 0.87414 0.10657 0.0
C1664 C 0.24537 0.83309 0.11807 0.0
C1665 C 0.25531 0.8165 0.15844 0.0
C1666 C 0.25308 0.82812 0.14559 0.0
C1667 C 0.25172 0.85986 0.10627 0.0
C1668 C 0.25123 0.84937 0.12016 0.0
H1669 H 0.25552 0.81423 0.19936 0.0
H1670 H 0.25092 0.8333 0.17854 0.0
H1671 H 0.24139 0.81016 0.12863 0.0
H1672 H 0.26647 0.86051 0.06816 0.0
H1673 H 0.26649 0.84431 0.0919 0.0
C1674 C 0.97352 0.43832 0.15869 0.0
C1675 C 0.96606 0.45045 0.15079 0.0
C1676 C 0.9873 0.44226 0.16826 0.0
C1677 C 0.00987 0.47725 0.18951 0.0
H1678 H 0.04662 0.45099 0.18604 0.0
C1679 C 0.07204 0.50244 0.21126 0.0
C1680 C 0.07997 0.49312 0.22206 0.0
C1681 C 0.05878 0.49567 0.20234 0.0
C1682 C 0.03638 0.45833 0.18721 0.0
H1683 H 0.96742 0.47613 0.14647 0.0
H1684 H 0.99127 0.48296 0.16302 0.0
H1685 H 0.02144 0.44206 0.17167 0.0
H1686 H 0.08093 0.46908 0.23113 0.0
H1687 H 0.05765 0.45717 0.21531 0.0
H1688 H 0.02484 0.49369 0.20468 0.0
C1689 C 0.98633 0.47047 0.1622 0.0
C1690 C 0.02196 0.45321 0.17906 0.0
C1691 C 0.97261 0.46655 0.15271 0.0
C1692 C 0.07504 0.47656 0.22291 0.0
C1693 C 0.06174 0.46975 0.21389 0.0
C1694 C 0.02425 0.48239 0.1975 0.0
C1695 C 0.99386 0.45839 0.17009 0.0
C1696 C 0.00866 0.46281 0.17988 0.0
C1697 C 0.05316 0.47943 0.20397 0.0
C1698 C 0.03774 0.47316 0.19618 0.0
H1699 H 0.9687 0.4258 0.1575 0.0
H1700 H 0.99274 0.4327 0.1743 0.0
H1701 H -0.00026 0.48472 0.19074 0.0
H1702 H 0.07563 0.51518 0.21018 0.0
H1703 H 0.05259 0.50331 0.19452 0.0
C1704 C 0.36431 0.75995 0.28311 0.0
C1705 C 0.3552 0.74498 0.28107 0.0
C1706 C 0.37905 0.76112 0.29136 0.0
C1707 C 0.41092 0.73638 0.30687 0.0
H1708 H 0.42067 0.77458 0.33497 0.0
C1709 C 0.45973 0.74231 0.35761 0.0
C1710 C 0.46926 0.75709 0.35897 0.0
C1711 C 0.44695 0.74017 0.34652 0.0
C1712 C 0.41819 0.76392 0.32704 0.0
H1713 H 0.35483 0.71938 0.28574 0.0
H1714 H 0.38008 0.72158 0.30079 0.0
H1715 H 0.396 0.77226 0.31894 0.0
H1716 H 0.47333 0.7809 0.34915 0.0
H1717 H 0.451 0.77715 0.33 0.0
H1718 H 0.43298 0.72787 0.31557 0.0
C1719 C 0.376 0.73239 0.29575 0.0
C1720 C 0.40408 0.7626 0.31779 0.0
C1721 C 0.36134 0.73118 0.28733 0.0
C1722 C 0.46619 0.76939 0.34852 0.0
C1723 C 0.45336 0.7673 0.33758 0.0
C1724 C 0.42497 0.73762 0.31631 0.0
C1725 C 0.385 0.74739 0.29797 0.0
C1726 C 0.40025 0.74883 0.30755 0.0
C1727 C 0.4434 0.75282 0.33673 0.0
C1728 C 0.42874 0.75143 0.32644 0.0
H1729 H 0.35992 0.77087 0.2786 0.0
H1730 H 0.38577 0.77283 0.29259 0.0
H1731 H 0.4085 0.72571 0.29896 0.0
H1732 H 0.46181 0.73258 0.36545 0.0
H1733 H 0.43941 0.7289 0.34612 0.0
C1734 C 0.93197 0.39046 0.01035 0.0
C1735 C 0.92499 0.38376 0.02417 0.0
C1736 C 0.93861 0.38056 0.99842 0.0
C1737 C 0.93874 0.33824 0.98252 0.0
H1738 H 0.98136 0.352 0.96684 0.0
C1739 C 0.97672 0.29481 0.94543 0.0
C1740 C 0.9854 0.30097 0.93225 0.0
C1741 C 0.96932 0.30519 0.95635 0.0
C1742 C 0.96937 0.34807 0.97092 0.0
H1743 H 0.91891 0.36136 0.03603 0.0
H1744 H 0.93056 0.34405 0.01521 0.0
H1745 H 0.96778 0.36961 0.98593 0.0
H1746 H 0.99328 0.32293 0.92035 0.0
H1747 H 0.98016 0.34105 0.93933 0.0
H1748 H 0.94028 0.31672 0.96752 0.0
C1749 C 0.93088 0.35697 0.01359 0.0
C1750 C 0.96159 0.35816 0.98186 0.0
C1751 C 0.92433 0.36688 0.02556 0.0
C1752 C 0.98674 0.31779 0.93041 0.0
C1753 C 0.97926 0.32819 0.94132 0.0
C1754 C 0.94648 0.32818 0.97153 0.0
C1755 C 0.93831 0.36373 1e-05 0.0
C1756 C 0.94624 0.35331 0.98786 0.0
C1757 C 0.97033 0.32199 0.95433 0.0
C1758 C 0.96195 0.33291 0.9657 0.0
H1759 H 0.9328 0.40344 0.00901 0.0
H1760 H 0.9441 0.38609 0.988 0.0
H1761 H 0.92682 0.33427 0.98676 0.0
H1762 H 0.97553 0.28192 0.94729 0.0
H1763 H 0.96282 0.30004 0.96642 0.0
C1764 C 0.64688 0.78962 0.28505 0.0
C1765 C 0.6567 0.80419 0.2846 0.0
C1766 C 0.63454 0.7878 0.29643 0.0
C1767 C 0.60978 0.81228 0.32428 0.0
H1768 H 0.59665 0.77026 0.34058 0.0
C1769 C 0.5497 0.80107 0.35747 0.0
C1770 C 0.54842 0.78977 0.36956 0.0
C1771 C 0.56372 0.80299 0.3483 0.0
C1772 C 0.6003 0.78216 0.33638 0.0
H1773 H 0.66111 0.82828 0.29602 0.0
H1774 H 0.6405 0.82472 0.31635 0.0
H1775 H 0.6199 0.77311 0.32289 0.0
H1776 H 0.56099 0.77189 0.38184 0.0
H1777 H 0.58582 0.77569 0.36625 0.0
H1778 H 0.59069 0.8215 0.33829 0.0
C1779 C 0.64193 0.81482 0.30761 0.0
C1780 C 0.6135 0.78374 0.32596 0.0
C1781 C 0.65404 0.81676 0.29606 0.0
C1782 C 0.56162 0.78067 0.37256 0.0
C1783 C 0.5758 0.78276 0.36352 0.0
C1784 C 0.59679 0.81076 0.33489 0.0
C1785 C 0.63185 0.80041 0.30784 0.0
C1786 C 0.61829 0.79878 0.31959 0.0
C1787 C 0.57697 0.79384 0.35114 0.0
C1788 C 0.59166 0.79563 0.34087 0.0
H1789 H 0.64867 0.77956 0.27662 0.0
H1790 H 0.62693 0.77659 0.29604 0.0
H1791 H 0.61288 0.82404 0.3195 0.0
H1792 H 0.53968 0.80815 0.35473 0.0
H1793 H 0.56394 0.81136 0.33867 0.0
C1794 C 0.08127 0.16377 0.01896 0.0
C1795 C 0.08155 0.17208 0.03415 0.0
C1796 C 0.07617 0.17119 0.00525 0.0
C1797 C 0.04907 0.20167 0.99473 0.0
H1798 H 0.06773 0.19804 0.95203 0.0
C1799 C 0.01388 0.21747 0.93929 0.0
C1800 C 0.02194 0.22849 0.92913 0.0
C1801 C 0.02243 0.20983 0.95083 0.0
C1802 C 0.06245 0.19917 0.96391 0.0
H1803 H 0.07788 0.19512 0.04658 0.0
H1804 H 0.06882 0.20797 0.02271 0.0
H1805 H 0.08135 0.18715 0.97497 0.0
H1806 H 0.04543 0.23937 0.92245 0.0
H1807 H 0.06043 0.22585 0.94266 0.0
H1808 H 0.03015 0.21353 0.98381 0.0
C1809 C 0.0723 0.19563 0.02148 0.0
C1810 C 0.07018 0.19289 0.97699 0.0
C1811 C 0.07746 0.18825 0.03514 0.0
C1812 C 0.03888 0.23096 0.93012 0.0
C1813 C 0.04747 0.22321 0.94166 0.0
C1814 C 0.04129 0.20775 0.98169 0.0
C1815 C 0.07119 0.18704 0.00647 0.0
C1816 C 0.06355 0.19411 0.99254 0.0
C1817 C 0.03924 0.21297 0.95244 0.0
C1818 C 0.04782 0.2065 0.96613 0.0
H1819 H 0.08421 0.15125 0.01779 0.0
H1820 H 0.07533 0.16424 0.99387 0.0
H1821 H 0.04355 0.20261 0.00652 0.0
H1822 H 0.00086 0.21518 0.93878 0.0
H1823 H 0.01582 0.20176 0.9588 0.0
C1824 C 0.36058 0.29003 0.23715 0.0
C1825 C 0.35187 0.30396 0.23812 0.0
C1826 C 0.37443 0.28954 0.22771 0.0
C1827 C 0.40604 0.316 0.20861 0.0
H1828 H 0.41521 0.27584 0.18576 0.0
C1829 C 0.45891 0.30964 0.16337 0.0
C1830 C 0.46758 0.29578 0.16447 0.0
C1831 C 0.44506 0.31149 0.17265 0.0
C1832 C 0.41288 0.2871 0.1922 0.0
H1833 H 0.35081 0.32823 0.22968 0.0
H1834 H 0.3748 0.3272 0.21276 0.0
H1835 H 0.38996 0.27735 0.20044 0.0
H1836 H 0.46882 0.2733 0.17668 0.0
H1837 H 0.44468 0.27655 0.1928 0.0
H1838 H 0.42898 0.32574 0.20009 0.0
C1839 C 0.37104 0.31676 0.21958 0.0
C1840 C 0.39841 0.28797 0.20063 0.0
C1841 C 0.35718 0.31728 0.22912 0.0
C1842 C 0.46242 0.2841 0.17547 0.0
C1843 C 0.44852 0.28589 0.18464 0.0
C1844 C 0.42048 0.31515 0.20005 0.0
C1845 C 0.37989 0.30291 0.21885 0.0
C1846 C 0.39489 0.30236 0.20911 0.0
C1847 C 0.43954 0.29945 0.18311 0.0
C1848 C 0.42412 0.30063 0.19193 0.0
H1849 H 0.3567 0.27946 0.24373 0.0
H1850 H 0.38102 0.27875 0.22761 0.0
H1851 H 0.40381 0.32721 0.21517 0.0
H1852 H 0.46257 0.31888 0.15504 0.0
H1853 H 0.43834 0.32205 0.17121 0.0
C1854 C 0.56831 0.38828 0.99264 0.0
C1855 C 0.55723 0.39788 0.98552 0.0
C1856 C 0.56432 0.38033 0.00675 0.0
C1857 C 0.52916 0.36578 0.03058 0.0
H1858 H 0.55997 0.36585 0.06577 0.0
C1859 C 0.50895 0.34262 0.09129 0.0
C1860 C 0.51864 0.33161 0.09824 0.0
C1861 C 0.51481 0.35194 0.07873 0.0
C1862 C 0.55129 0.36564 0.05599 0.0
H1863 H 0.53342 0.40689 0.98785 0.0
H1864 H 0.52645 0.39297 0.01228 0.0
H1865 H 0.56789 0.37897 0.04087 0.0
H1866 H 0.54244 0.32249 0.09824 0.0
H1867 H 0.5527 0.33871 0.07606 0.0
H1868 H 0.5126 0.35243 0.0455 0.0
C1869 C 0.53811 0.39136 0.00684 0.0
C1870 C 0.55583 0.37311 0.04174 0.0
C1871 C 0.54209 0.3993 0.99279 0.0
C1872 C 0.53472 0.33091 0.09312 0.0
C1873 C 0.54058 0.3402 0.08042 0.0
C1874 C 0.52465 0.35835 0.04476 0.0
C1875 C 0.54916 0.38179 0.014 0.0
C1876 C 0.54474 0.37337 0.02894 0.0
C1877 C 0.53046 0.35037 0.07272 0.0
C1878 C 0.53558 0.35832 0.0577 0.0
H1879 H 0.58002 0.38683 0.98725 0.0
H1880 H 0.57301 0.37288 0.01188 0.0
H1881 H 0.52045 0.36547 0.02082 0.0
H1882 H 0.49656 0.34357 0.09511 0.0
H1883 H 0.50687 0.36 0.07335 0.0
C1884 C 0.65717 0.26027 0.23251 0.0
C1885 C 0.6543 0.2621 0.24917 0.0
C1886 C 0.64467 0.26143 0.22138 0.0
C1887 C 0.61785 0.273 0.20042 0.0
H1888 H 0.57545 0.25356 0.21099 0.0
C1889 C 0.55954 0.28317 0.16452 0.0
C1890 C 0.54787 0.27001 0.16268 0.0
C1891 C 0.57328 0.28206 0.17411 0.0
C1892 C 0.58724 0.25892 0.20774 0.0
H1893 H 0.63595 0.26649 0.26712 0.0
H1894 H 0.61439 0.26894 0.24779 0.0
H1895 H 0.59788 0.25171 0.22943 0.0
H1896 H 0.54183 0.24512 0.16881 0.0
H1897 H 0.56582 0.24307 0.18516 0.0
H1898 H 0.60715 0.27991 0.17851 0.0
C1899 C 0.62623 0.26641 0.2433 0.0
C1900 C 0.60007 0.25805 0.21844 0.0
C1901 C 0.63867 0.26521 0.25439 0.0
C1902 C 0.5505 0.25556 0.17012 0.0
C1903 C 0.56422 0.25441 0.17959 0.0
C1904 C 0.60496 0.27385 0.18965 0.0
C1905 C 0.62903 0.26441 0.22666 0.0
C1906 C 0.61552 0.26514 0.21498 0.0
C1907 C 0.57563 0.26773 0.18198 0.0
C1908 C 0.5895 0.26681 0.1932 0.0
H1909 H 0.6691 0.25802 0.22807 0.0
H1910 H 0.64721 0.25971 0.20865 0.0
H1911 H 0.62957 0.27871 0.19744 0.0
H1912 H 0.55785 0.29448 0.15894 0.0
H1913 H 0.58178 0.29259 0.17578 0.0
C1914 C 0.44719 0.17574 0.99195 0.0
C1915 C 0.44384 0.15946 0.99558 0.0
C1916 C 0.45294 0.18717 0.00392 0.0
C1917 C 0.4562 0.1935 0.04843 0.0
H1918 H 0.48843 0.22775 0.03805 0.0
C1919 C 0.49019 0.23491 0.09709 0.0
C1920 C 0.49058 0.25161 0.09471 0.0
C1921 C 0.48486 0.22368 0.08479 0.0
C1922 C 0.47936 0.21829 0.04107 0.0
H1923 H 0.44425 0.14224 0.01439 0.0
H1924 H 0.45461 0.16201 0.03517 0.0
H1925 H 0.47826 0.20812 0.01691 0.0
H1926 H 0.48608 0.26964 0.07743 0.0
H1927 H 0.47695 0.24998 0.05592 0.0
H1928 H 0.45759 0.20355 0.07267 0.0
C1929 C 0.45237 0.16614 0.02325 0.0
C1930 C 0.47347 0.20709 0.02897 0.0
C1931 C 0.44647 0.15478 0.01134 0.0
C1932 C 0.48586 0.25685 0.07967 0.0
C1933 C 0.48072 0.24562 0.06732 0.0
C1934 C 0.46223 0.20459 0.06054 0.0
C1935 C 0.45562 0.18249 0.01972 0.0
C1936 C 0.46181 0.19455 0.03251 0.0
C1937 C 0.48001 0.22894 0.06982 0.0
C1938 C 0.47385 0.21708 0.05698 0.0
H1939 H 0.44516 0.17966 0.9799 0.0
H1940 H 0.45508 0.1997 0.00083 0.0
H1941 H 0.44699 0.18423 0.05155 0.0
H1942 H 0.49374 0.23049 0.10854 0.0
H1943 H 0.48455 0.21087 0.08697 0.0
C1944 C 0.26505 0.40619 0.71451 0.0
C1945 C 0.25582 0.39937 0.72703 0.0
C1946 C 0.27441 0.42084 0.71717 0.0
C1947 C 0.29351 0.44687 0.75041 0.0
H1948 H 0.29892 0.47889 0.71787 0.0
C1949 C 0.32832 0.50845 0.76406 0.0
C1950 C 0.34026 0.51306 0.75283 0.0
C1951 C 0.31676 0.49569 0.76029 0.0
C1952 C 0.29755 0.47001 0.72703 0.0
H1953 H 0.2492 0.40279 0.75218 0.0
H1954 H 0.2649 0.4285 0.75659 0.0
H1955 H 0.2811 0.45434 0.71248 0.0
H1956 H 0.34887 0.50841 0.72851 0.0
H1957 H 0.32864 0.48613 0.72195 0.0
H1958 H 0.3099 0.4625 0.76495 0.0
C1959 C 0.26518 0.4224 0.74478 0.0
C1960 C 0.2874 0.45593 0.72394 0.0
C1961 C 0.25595 0.40773 0.74217 0.0
C1962 C 0.33989 0.50513 0.73746 0.0
C1963 C 0.32825 0.49241 0.73367 0.0
C1964 C 0.30353 0.46096 0.75353 0.0
C1965 C 0.27471 0.42905 0.7324 0.0
C1966 C 0.28528 0.44417 0.7356 0.0
C1967 C 0.31682 0.48731 0.74519 0.0
C1968 C 0.30568 0.47267 0.74188 0.0
H1969 H 0.26509 0.40019 0.70264 0.0
H1970 H 0.2817 0.42553 0.70739 0.0
H1971 H 0.29249 0.43794 0.75953 0.0
H1972 H 0.32818 0.51434 0.77598 0.0
H1973 H 0.30794 0.49218 0.76933 0.0
C1974 C 0.28318 0.69543 0.78424 0.0
C1975 C 0.27391 0.69659 0.79835 0.0
C1976 C 0.29466 0.68394 0.78252 0.0
C1977 C 0.31857 0.65706 0.80604 0.0
H1978 H 0.32055 0.63208 0.76551 0.0
C1979 C 0.3465 0.59558 0.80029 0.0
C1980 C 0.35511 0.59166 0.78627 0.0
C1981 C 0.33863 0.60989 0.80166 0.0
C1982 C 0.32036 0.63913 0.77682 0.0
H1983 H 0.26931 0.68639 0.82163 0.0
H1984 H 0.28925 0.66639 0.81864 0.0
H1985 H 0.30277 0.65419 0.768 0.0
H1986 H 0.36266 0.59996 0.76288 0.0
H1987 H 0.34891 0.62505 0.76531 0.0
H1988 H 0.3359 0.64176 0.81496 0.0
C1989 C 0.2879 0.67457 0.80901 0.0
C1990 C 0.31015 0.6518 0.77825 0.0
C1991 C 0.27644 0.68603 0.81072 0.0
C1992 C 0.3561 0.60262 0.77383 0.0
C1993 C 0.34814 0.61694 0.77518 0.0
C1994 C 0.32876 0.64439 0.80461 0.0
C1995 C 0.29713 0.67335 0.79488 0.0
C1996 C 0.30893 0.66074 0.79296 0.0
C1997 C 0.33914 0.62062 0.78903 0.0
C1998 C 0.32957 0.6351 0.79007 0.0
H1999 H 0.28168 0.70352 0.77457 0.0
H2000 H 0.3017 0.68345 0.77156 0.0
H2001 H 0.31816 0.66392 0.81744 0.0
H2002 H 0.34549 0.5874 0.8101 0.0
H2003 H 0.33165 0.61225 0.81242 0.0
C2004 C 0.85144 0.52385 0.46032 0.0
C2005 C 0.86562 0.52912 0.46885 0.0
C2006 C 0.8407 0.51181 0.46631 0.0
C2007 C 0.82965 0.49157 0.5041 0.0
H2008 H 0.8057 0.46075 0.47478 0.0
C2009 C 0.78707 0.43805 0.52536 0.0
C2010 C 0.77152 0.43709 0.51847 0.0
C2011 C 0.79945 0.44841 0.51928 0.0
C2012 C 0.81232 0.4693 0.48308 0.0
H2013 H 0.87998 0.52568 0.49004 0.0
H2014 H 0.8615 0.50435 0.50032 0.0
H2015 H 0.82583 0.48038 0.46412 0.0
H2016 H 0.75686 0.44597 0.49961 0.0
H2017 H 0.77851 0.46382 0.48891 0.0
H2018 H 0.81617 0.48027 0.52306 0.0
C2019 C 0.85838 0.5098 0.48925 0.0
C2020 C 0.82378 0.48061 0.477 0.0
C2021 C 0.869 0.52197 0.48335 0.0
C2022 C 0.76868 0.44648 0.50523 0.0
C2023 C 0.78109 0.45662 0.49902 0.0
C2024 C 0.81834 0.48012 0.5102 0.0
C2025 C 0.84402 0.50463 0.48087 0.0
C2026 C 0.83243 0.49204 0.48741 0.0
C2027 C 0.79655 0.45776 0.50604 0.0
C2028 C 0.80942 0.46904 0.49972 0.0
H2029 H 0.84849 0.52929 0.44918 0.0
H2030 H 0.82964 0.50837 0.45967 0.0
H2031 H 0.83589 0.50033 0.51247 0.0
H2032 H 0.7896 0.43098 0.53558 0.0
H2033 H 0.81131 0.44906 0.52485 0.0
C2034 C 0.71792 0.86761 0.79447 0.0
C2035 C 0.72156 0.85856 0.78038 0.0
C2036 C 0.7076 0.8801 0.7939 0.0
C2037 C 0.67557 0.89623 0.7702 0.0
H2038 H 0.68929 0.93646 0.79375 0.0
C2039 C 0.64252 0.95554 0.76653 0.0
C2040 C 0.64181 0.96526 0.78081 0.0
C2041 C 0.65139 0.9418 0.76601 0.0
C2042 C 0.68514 0.92525 0.78729 0.0
H2043 H 0.71697 0.85533 0.75468 0.0
H2044 H 0.69889 0.87734 0.75369 0.0
H2045 H 0.70644 0.91394 0.79356 0.0
H2046 H 0.64907 0.9677 0.80596 0.0
H2047 H 0.66414 0.94365 0.80517 0.0
H2048 H 0.65415 0.9076 0.76405 0.0
C2049 C 0.70403 0.87466 0.76517 0.0
C2050 C 0.69501 0.91236 0.78714 0.0
C2051 C 0.71446 0.86217 0.76571 0.0
C2052 C 0.64954 0.96059 0.79471 0.0
C2053 C 0.65828 0.94684 0.79423 0.0
C2054 C 0.66561 0.90916 0.7704 0.0
C2055 C 0.70065 0.88386 0.77925 0.0
C2056 C 0.69028 0.89766 0.77874 0.0
C2057 C 0.65965 0.93749 0.7798 0.0
C2058 C 0.67022 0.92376 0.7791 0.0
H2059 H 0.72332 0.86526 0.80592 0.0
H2060 H 0.70509 0.88686 0.80498 0.0
H2061 H 0.67158 0.885 0.76369 0.0
H2062 H 0.6367 0.95885 0.75561 0.0
H2063 H 0.65225 0.9349 0.75469 0.0
C2064 C 0.63886 0.52385 0.93883 0.0
C2065 C 0.64298 0.50802 0.93489 0.0
C2066 C 0.65064 0.53579 0.94416 0.0
C2067 C 0.69147 0.54107 0.96244 0.0
H2068 H 0.68832 0.5857 0.95142 0.0
C2069 C 0.73954 0.59349 0.98017 0.0
C2070 C 0.7334 0.60765 0.98693 0.0
C2071 C 0.7291 0.58096 0.9734 0.0
C2072 C 0.68929 0.57329 0.95465 0.0
H2073 H 0.66271 0.49233 0.9331 0.0
H2074 H 0.68347 0.51335 0.94209 0.0
H2075 H 0.66941 0.56455 0.93948 0.0
H2076 H 0.7115 0.61969 0.99199 0.0
H2077 H 0.69332 0.59786 0.97999 0.0
H2078 H 0.71154 0.54994 0.97748 0.0
C2079 C 0.67105 0.51644 0.94137 0.0
C2080 C 0.67844 0.56117 0.94785 0.0
C2081 C 0.6592 0.50443 0.93616 0.0
C2082 C 0.71661 0.60895 0.98689 0.0
C2083 C 0.70621 0.59651 0.97994 0.0
C2084 C 0.70244 0.5532 0.9691 0.0
C2085 C 0.66688 0.53225 0.94557 0.0
C2086 C 0.67922 0.54493 0.95186 0.0
C2087 C 0.71236 0.58244 0.97307 0.0
C2088 C 0.70129 0.56945 0.96545 0.0
H2089 H 0.62641 0.52689 0.93827 0.0
H2090 H 0.6469 0.54771 0.94761 0.0
H2091 H 0.6923 0.52874 0.96597 0.0
H2092 H 0.75241 0.59211 0.98005 0.0
H2093 H 0.73414 0.57025 0.96812 0.0
C2094 C 0.23045 0.65399 0.2607 0.0
C2095 C 0.23102 0.66178 0.24601 0.0
C2096 C 0.22153 0.63916 0.26205 0.0
C2097 C 0.20284 0.60405 0.23769 0.0
H2098 H 0.17835 0.5963 0.27667 0.0
C2099 C 0.15336 0.55163 0.24341 0.0
C2100 C 0.15239 0.54377 0.25806 0.0
C2101 C 0.16428 0.56509 0.24163 0.0
C2102 C 0.18531 0.59819 0.2658 0.0
H2103 H 0.22262 0.66002 0.2212 0.0
H2104 H 0.20662 0.63436 0.22369 0.0
H2105 H 0.19425 0.62197 0.27419 0.0
H2106 H 0.16267 0.54346 0.28208 0.0
H2107 H 0.18174 0.56696 0.27893 0.0
H2108 H 0.19355 0.58032 0.22922 0.0
C2109 C 0.21333 0.63961 0.2341 0.0
C2110 C 0.19442 0.61291 0.26437 0.0
C2111 C 0.22232 0.65443 0.23273 0.0
C2112 C 0.16305 0.54926 0.27066 0.0
C2113 C 0.1739 0.56279 0.2689 0.0
C2114 C 0.19364 0.58934 0.2391 0.0
C2115 C 0.21286 0.63178 0.24877 0.0
C2116 C 0.20328 0.61603 0.25029 0.0
C2117 C 0.1744 0.57103 0.25448 0.0
C2118 C 0.18476 0.58628 0.25316 0.0
H2119 H 0.23684 0.6594 0.27123 0.0
H2120 H 0.22158 0.63339 0.27348 0.0
H2121 H 0.20972 0.60596 0.22679 0.0
H2122 H 0.14535 0.54768 0.23345 0.0
H2123 H 0.16432 0.57125 0.23041 0.0
C2124 C 0.87035 0.51797 0.05653 0.0
C2125 C 0.86692 0.51105 0.07138 0.0
C2126 C 0.86414 0.53256 0.05284 0.0
C2127 C 0.83115 0.55833 0.06287 0.0
H2128 H 0.85743 0.59008 0.03957 0.0
C2129 C 0.8047 0.61574 0.0406 0.0
C2130 C 0.80769 0.61833 0.02423 0.0
C2131 C 0.81351 0.6049 0.04879 0.0
C2132 C 0.84993 0.58133 0.04607 0.0
H2133 H 0.85422 0.51401 0.094 0.0
H2134 H 0.84341 0.53961 0.08758 0.0
H2135 H 0.86951 0.56633 0.04916 0.0
H2136 H 0.82291 0.61238 0.00392 0.0
H2137 H 0.83819 0.59356 0.01812 0.0
H2138 H 0.81146 0.57308 0.05937 0.0
C2139 C 0.85087 0.53368 0.07877 0.0
C2140 C 0.85684 0.56772 0.05153 0.0
C2141 C 0.85715 0.51908 0.08249 0.0
C2142 C 0.82028 0.61062 0.01651 0.0
C2143 C 0.82912 0.59988 0.0247 0.0
C2144 C 0.82423 0.57195 0.0574 0.0
C2145 C 0.85433 0.54059 0.06391 0.0
C2146 C 0.84743 0.55587 0.05966 0.0
C2147 C 0.82555 0.59655 0.0408 0.0
C2148 C 0.83346 0.58341 0.0486 0.0
H2149 H 0.87801 0.5122 0.04779 0.0
H2150 H 0.86685 0.53743 0.0412 0.0
H2151 H 0.82354 0.54937 0.06898 0.0
H2152 H 0.79508 0.62151 0.04688 0.0
H2153 H 0.81063 0.60273 0.06126 0.0
C2154 C 0.1575 0.06069 0.09314 0.0
C2155 C 0.14184 0.06006 0.09963 0.0
C2156 C 0.16504 0.04644 0.08955 0.0
C2157 C 0.16334 0.00229 0.09595 0.0
H2158 H 0.18259 0.00043 0.05346 0.0
C2159 C 0.19902 0.94893 0.06955 0.0
C2160 C 0.19649 0.94475 0.05309 0.0
C2161 C 0.19183 0.96221 0.07679 0.0
C2162 C 0.17719 0.00071 0.06532 0.0
H2163 H 0.12208 0.04395 0.10796 0.0
H2164 H 0.13526 0.01912 0.10171 0.0
H2165 H 0.17203 0.02545 0.06374 0.0
H2166 H 0.18351 0.95044 0.03163 0.0
H2167 H 0.1709 0.97334 0.04425 0.0
H2168 H 0.1683 0.97732 0.09729 0.0
C2169 C 0.14177 0.03064 0.09955 0.0
C2170 C 0.17134 0.01514 0.07131 0.0
C2171 C 0.13421 0.04489 0.10313 0.0
C2172 C 0.18587 0.95345 0.04429 0.0
C2173 C 0.17871 0.96665 0.05149 0.0
C2174 C 0.1693 0.98782 0.08996 0.0
C2175 C 0.15711 0.03124 0.09236 0.0
C2176 C 0.16423 0.01608 0.08663 0.0
C2177 C 0.18202 0.97151 0.06766 0.0
C2178 C 0.17609 0.98684 0.07448 0.0
H2179 H 0.16382 0.07219 0.09058 0.0
H2180 H 0.177 0.04732 0.08429 0.0
H2181 H 0.15801 0.00268 0.10784 0.0
H2182 H 0.20717 0.94247 0.07664 0.0
H2183 H 0.19459 0.96568 0.08928 0.0
loop_
_geom_bond_atom_site_label_1
_geom_bond_atom_site_label_2
_geom_bond_distance
_geom_bond_site_symmetry_2
_ccdc_geom_bond_type
C0 C1 1.384 . S
C0 H13 0.947 . S
C0 C35 1.382 . S
C1 C0 1.384 . S
C1 C2 1.378 . S
C2 C1 1.378 . S
C2 C3 1.378 . S
C2 H14 0.952 . S
C3 C2 1.378 . S
C3 H15 0.950 . S
C3 C34 1.383 . S
H4 C23 0.947 . S
H5 C24 0.946 . S
H6 C26 0.953 . S
H7 C27 0.945 . S
H8 C29 0.952 . S
H9 C30 0.949 . S
H10 C32 0.950 . S
H11 C33 0.948 . S
H12 C35 0.951 . S
H13 C0 0.947 . S
H14 C2 0.952 . S
H15 C3 0.950 . S
N16 C19 1.382 . S
N16 C21 1.363 . S
N17 C19 1.371 . S
N17 C20 1.372 . S
N18 C20 1.361 . S
N18 C21 1.377 . S
C19 N16 1.382 . S
C19 N17 1.371 . S
C19 C22 1.480 . S
C20 N17 1.372 . S
C20 N18 1.361 . S
C20 C28 1.457 . S
C21 N16 1.363 . S
C21 N18 1.377 . S
C21 C34 1.479 . S
C22 C19 1.480 . S
C22 C23 1.383 . S
C22 C27 1.385 . S
C23 H4 0.947 . S
C23 C22 1.383 . S
C23 C24 1.388 . S
C24 H5 0.946 . S
C24 C23 1.388 . S
C24 C25 1.384 . S
C25 C24 1.384 . S
C25 C26 1.377 . S
C26 H6 0.953 . S
C26 C25 1.377 . S
C26 C27 1.369 . S
C27 H7 0.945 . S
C27 C22 1.385 . S
C27 C26 1.369 . S
C28 C20 1.457 . S
C28 C29 1.372 . S
C28 C33 1.364 . S
C29 H8 0.952 . S
C29 C28 1.372 . S
C29 C30 1.389 . S
C30 H9 0.949 . S
C30 C29 1.389 . S
C30 C31 1.387 . S
C31 C30 1.387 . S
C31 C32 1.372 . S
C32 H10 0.950 . S
C32 C31 1.372 . S
C32 C33 1.379 . S
C33 H11 0.948 . S
C33 C28 1.364 . S
C33 C32 1.379 . S
C34 C3 1.383 . S
C34 C21 1.479 . S
C34 C35 1.398 . S
C35 C0 1.382 . S
C35 H12 0.951 . S
C35 C34 1.398 . S
C36 C37 1.384 . S
C36 H49 0.947 . S
C36 C71 1.382 . S
C37 C36 1.384 . S
C37 C38 1.378 . S
C38 C37 1.378 . S
C38 C39 1.378 . S
C38 H50 0.952 . S
C39 C38 1.378 . S
C39 H51 0.950 . S
C39 C70 1.383 . S
H40 C59 0.947 . S
H41 C60 0.946 . S
H42 C62 0.953 . S
H43 C63 0.945 . S
H44 C65 0.952 . S
H45 C66 0.949 . S
H46 C68 0.950 . S
H47 C69 0.948 . S
H48 C71 0.951 . S
H49 C36 0.947 . S
H50 C38 0.952 . S
H51 C39 0.950 . S
N52 C55 1.382 . S
N52 C57 1.363 . S
N53 C55 1.371 . S
N53 C56 1.372 . S
N54 C56 1.361 . S
N54 C57 1.377 . S
C55 N52 1.382 . S
C55 N53 1.371 . S
C55 C58 1.480 . S
C56 N53 1.372 . S
C56 N54 1.361 . S
C56 C64 1.457 . S
C57 N52 1.363 . S
C57 N54 1.377 . S
C57 C70 1.479 . S
C58 C55 1.480 . S
C58 C59 1.383 . S
C58 C63 1.385 . S
C59 H40 0.947 . S
C59 C58 1.383 . S
C59 C60 1.388 . S
C60 H41 0.946 . S
C60 C59 1.388 . S
C60 C61 1.384 . S
C61 C60 1.384 . S
C61 C62 1.377 . S
C62 H42 0.953 . S
C62 C61 1.377 . S
C62 C63 1.369 . S
C63 H43 0.945 . S
C63 C58 1.385 . S
C63 C62 1.369 . S
C64 C56 1.457 . S
C64 C65 1.372 . S
C64 C69 1.364 . S
C65 H44 0.952 . S
C65 C64 1.372 . S
C65 C66 1.389 . S
C66 H45 0.949 . S
C66 C65 1.389 . S
C66 C67 1.387 . S
C67 C66 1.387 . S
C67 C68 1.372 . S
C68 H46 0.950 . S
C68 C67 1.372 . S
C68 C69 1.379 . S
C69 H47 0.948 . S
C69 C64 1.364 . S
C69 C68 1.379 . S
C70 C39 1.383 . S
C70 C57 1.479 . S
C70 C71 1.398 . S
C71 C36 1.382 . S
C71 H48 0.951 . S
C71 C70 1.398 . S
C72 C73 1.384 . S
C72 H85 0.947 . S
C72 C107 1.382 . S
C73 C72 1.384 . S
C73 C74 1.378 . S
C74 C73 1.378 . S
C74 C75 1.378 . S
C74 H86 0.952 . S
C75 C74 1.378 . S
C75 H87 0.950 . S
C75 C106 1.383 . S
H76 C95 0.947 . S
H77 C96 0.946 . S
H78 C98 0.953 . S
H79 C99 0.945 . S
H80 C101 0.952 . S
H81 C102 0.949 . S
H82 C104 0.950 . S
H83 C105 0.948 . S
H84 C107 0.951 . S
H85 C72 0.947 . S
H86 C74 0.952 . S
H87 C75 0.950 . S
N88 C91 1.382 . S
N88 C93 1.363 . S
N89 C91 1.371 . S
N89 C92 1.372 . S
N90 C92 1.361 . S
N90 C93 1.377 . S
C91 N88 1.382 . S
C91 N89 1.371 . S
C91 C94 1.480 . S
C92 N89 1.372 . S
C92 N90 1.361 . S
C92 C100 1.457 . S
C93 N88 1.363 . S
C93 N90 1.377 . S
C93 C106 1.479 . S
C94 C91 1.480 . S
C94 C95 1.383 . S
C94 C99 1.385 . S
C95 H76 0.947 . S
C95 C94 1.383 . S
C95 C96 1.388 . S
C96 H77 0.946 . S
C96 C95 1.388 . S
C96 C97 1.384 . S
C97 C96 1.384 . S
C97 C98 1.377 . S
C98 H78 0.953 . S
C98 C97 1.377 . S
C98 C99 1.369 . S
C99 H79 0.945 . S
C99 C94 1.385 . S
C99 C98 1.369 . S
C100 C92 1.457 . S
C100 C101 1.372 . S
C100 C105 1.364 . S
C101 H80 0.952 . S
C101 C100 1.372 . S
C101 C102 1.389 . S
C102 H81 0.949 . S
C102 C101 1.389 . S
C102 C103 1.387 . S
C103 C102 1.387 . S
C103 C104 1.372 . S
C104 H82 0.950 . S
C104 C103 1.372 . S
C104 C105 1.379 . S
C105 H83 0.948 . S
C105 C100 1.364 . S
C105 C104 1.379 . S
C106 C75 1.383 . S
C106 C93 1.479 . S
C106 C107 1.398 . S
C107 C72 1.382 . S
C107 H84 0.951 . S
C107 C106 1.398 . S
C108 C109 1.384 . S
C108 H121 0.947 . S
C108 C143 1.382 . S
C109 C108 1.384 . S
C109 C110 1.378 . S
C110 C109 1.378 . S
C110 C111 1.378 . S
C110 H122 0.952 . S
C111 C110 1.378 . S
C111 H123 0.950 . S
C111 C142 1.383 . S
H112 C131 0.947 . S
H113 C132 0.946 . S
H114 C134 0.953 . S
H115 C135 0.945 . S
H116 C137 0.952 . S
H117 C138 0.949 . S
H118 C140 0.950 . S
H119 C141 0.948 . S
H120 C143 0.951 . S
H121 C108 0.947 . S
H122 C110 0.952 . S
H123 C111 0.950 . S
N124 C127 1.382 . S
N124 C129 1.363 . S
N125 C127 1.371 . S
N125 C128 1.372 . S
N126 C128 1.361 . S
N126 C129 1.377 . S
C127 N124 1.382 . S
C127 N125 1.371 . S
C127 C130 1.480 . S
C128 N125 1.372 . S
C128 N126 1.361 . S
C128 C136 1.457 . S
C129 N124 1.363 . S
C129 N126 1.377 . S
C129 C142 1.479 . S
C130 C127 1.480 . S
C130 C131 1.383 . S
C130 C135 1.385 . S
C131 H112 0.947 . S
C131 C130 1.383 . S
C131 C132 1.388 . S
C132 H113 0.946 . S
C132 C131 1.388 . S
C132 C133 1.384 . S
C133 C132 1.384 . S
C133 C134 1.377 . S
C134 H114 0.953 . S
C134 C133 1.377 . S
C134 C135 1.369 . S
C135 H115 0.945 . S
C135 C130 1.385 . S
C135 C134 1.369 . S
C136 C128 1.457 . S
C136 C137 1.372 . S
C136 C141 1.364 . S
C137 H116 0.952 . S
C137 C136 1.372 . S
C137 C138 1.389 . S
C138 H117 0.949 . S
C138 C137 1.389 . S
C138 C139 1.387 . S
C139 C138 1.387 . S
C139 C140 1.372 . S
C140 H118 0.950 . S
C140 C139 1.372 . S
C140 C141 1.379 . S
C141 H119 0.948 . S
C141 C136 1.364 . S
C141 C140 1.379 . S
C142 C111 1.383 . S
C142 C129 1.479 . S
C142 C143 1.398 . S
C143 C108 1.382 . S
C143 H120 0.951 . S
C143 C142 1.398 . S
C144 C145 1.384 . S
C144 H157 0.947 . S
C144 C179 1.382 . S
C145 C144 1.384 . S
C145 C146 1.378 . S
C146 C145 1.378 . S
C146 C147 1.378 . S
C146 H158 0.952 . S
C147 C146 1.378 . S
C147 H159 0.950 . S
C147 C178 1.383 . S
H148 C167 0.947 . S
H149 C168 0.946 . S
H150 C170 0.953 . S
H151 C171 0.945 . S
H152 C173 0.952 . S
H153 C174 0.949 1_545 S
H154 C176 0.950 . S
H155 C177 0.948 . S
H156 C179 0.951 . S
H157 C144 0.947 . S
H158 C146 0.952 . S
H159 C147 0.950 . S
N160 C163 1.382 . S
N160 C165 1.363 . S
N161 C163 1.371 . S
N161 C164 1.372 . S
N162 C164 1.361 . S
N162 C165 1.377 . S
C163 N160 1.382 . S
C163 N161 1.371 . S
C163 C166 1.480 . S
C164 N161 1.372 . S
C164 N162 1.361 . S
C164 C172 1.457 . S
C165 N160 1.363 . S
C165 N162 1.377 . S
C165 C178 1.479 . S
C166 C163 1.480 . S
C166 C167 1.383 . S
C166 C171 1.385 . S
C167 H148 0.947 . S
C167 C166 1.383 . S
C167 C168 1.388 . S
C168 H149 0.946 . S
C168 C167 1.388 . S
C168 C169 1.384 . S
C169 C168 1.384 . S
C169 C170 1.377 . S
C170 H150 0.953 . S
C170 C169 1.377 . S
C170 C171 1.369 . S
C171 H151 0.945 . S
C171 C166 1.385 . S
C171 C170 1.369 . S
C172 C164 1.457 . S
C172 C173 1.372 . S
C172 C177 1.364 . S
C173 H152 0.952 . S
C173 C172 1.372 . S
C173 C174 1.389 . S
C174 H153 0.949 1_565 S
C174 C173 1.389 . S
C174 C175 1.387 . S
C175 C174 1.387 . S
C175 C176 1.372 . S
C176 H154 0.950 . S
C176 C175 1.372 . S
C176 C177 1.379 . S
C177 H155 0.948 . S
C177 C172 1.364 . S
C177 C176 1.379 . S
C178 C147 1.383 . S
C178 C165 1.479 . S
C178 C179 1.398 . S
C179 C144 1.382 . S
C179 H156 0.951 . S
C179 C178 1.398 . S
C180 C181 1.384 . S
C180 H193 0.947 . S
C180 C215 1.382 . S
C181 C180 1.384 . S
C181 C182 1.378 . S
C182 C181 1.378 . S
C182 C183 1.378 . S
C182 H194 0.952 . S
C183 C182 1.378 . S
C183 H195 0.950 . S
C183 C214 1.383 . S
H184 C203 0.947 . S
H185 C204 0.946 . S
H186 C206 0.953 . S
H187 C207 0.945 . S
H188 C209 0.952 . S
H189 C210 0.949 . S
H190 C212 0.950 . S
H191 C213 0.948 . S
H192 C215 0.951 . S
H193 C180 0.947 . S
H194 C182 0.952 . S
H195 C183 0.950 . S
N196 C199 1.382 . S
N196 C201 1.363 . S
N197 C199 1.371 . S
N197 C200 1.372 . S
N198 C200 1.361 . S
N198 C201 1.377 . S
C199 N196 1.382 . S
C199 N197 1.371 . S
C199 C202 1.480 . S
C200 N197 1.372 . S
C200 N198 1.361 . S
C200 C208 1.457 . S
C201 N196 1.363 . S
C201 N198 1.377 . S
C201 C214 1.479 . S
C202 C199 1.480 . S
C202 C203 1.383 . S
C202 C207 1.385 . S
C203 H184 0.947 . S
C203 C202 1.383 . S
C203 C204 1.388 . S
C204 H185 0.946 . S
C204 C203 1.388 . S
C204 C205 1.384 . S
C205 C204 1.384 . S
C205 C206 1.377 . S
C206 H186 0.953 . S
C206 C205 1.377 . S
C206 C207 1.369 . S
C207 H187 0.945 . S
C207 C202 1.385 . S
C207 C206 1.369 . S
C208 C200 1.457 . S
C208 C209 1.372 . S
C208 C213 1.364 . S
C209 H188 0.952 . S
C209 C208 1.372 . S
C209 C210 1.389 . S
C210 H189 0.949 . S
C210 C209 1.389 . S
C210 C211 1.387 . S
C211 C210 1.387 . S
C211 C212 1.372 . S
C212 H190 0.950 . S
C212 C211 1.372 . S
C212 C213 1.379 . S
C213 H191 0.948 . S
C213 C208 1.364 . S
C213 C212 1.379 . S
C214 C183 1.383 . S
C214 C201 1.479 . S
C214 C215 1.398 . S
C215 C180 1.382 . S
C215 H192 0.951 . S
C215 C214 1.398 . S
C216 C217 1.384 . S
C216 H229 0.947 . S
C216 C251 1.382 . S
C217 C216 1.384 . S
C217 C218 1.378 . S
C218 C217 1.378 . S
C218 C219 1.378 . S
C218 H230 0.952 . S
C219 C218 1.378 . S
C219 H231 0.950 . S
C219 C250 1.383 . S
H220 C239 0.947 . S
H221 C240 0.946 . S
H222 C242 0.953 . S
H223 C243 0.945 . S
H224 C245 0.952 . S
H225 C246 0.949 . S
H226 C248 0.950 . S
H227 C249 0.948 . S
H228 C251 0.951 . S
H229 C216 0.947 . S
H230 C218 0.952 . S
H231 C219 0.950 . S
N232 C235 1.382 . S
N232 C237 1.363 . S
N233 C235 1.371 . S
N233 C236 1.372 . S
N234 C236 1.361 . S
N234 C237 1.377 . S
C235 N232 1.382 . S
C235 N233 1.371 . S
C235 C238 1.480 . S
C236 N233 1.372 . S
C236 N234 1.361 . S
C236 C244 1.457 . S
C237 N232 1.363 . S
C237 N234 1.377 . S
C237 C250 1.479 . S
C238 C235 1.480 . S
C238 C239 1.383 . S
C238 C243 1.385 . S
C239 H220 0.947 . S
C239 C238 1.383 . S
C239 C240 1.388 . S
C240 H221 0.946 . S
C240 C239 1.388 . S
C240 C241 1.384 . S
C241 C240 1.384 . S
C241 C242 1.377 . S
C242 H222 0.953 . S
C242 C241 1.377 . S
C242 C243 1.369 . S
C243 H223 0.945 . S
C243 C238 1.385 . S
C243 C242 1.369 . S
C244 C236 1.457 . S
C244 C245 1.372 . S
C244 C249 1.364 . S
C245 H224 0.952 . S
C245 C244 1.372 . S
C245 C246 1.389 . S
C246 H225 0.949 . S
C246 C245 1.389 . S
C246 C247 1.387 . S
C247 C246 1.387 . S
C247 C248 1.372 . S
C248 H226 0.950 . S
C248 C247 1.372 . S
C248 C249 1.379 . S
C249 H227 0.948 . S
C249 C244 1.364 . S
C249 C248 1.379 . S
C250 C219 1.383 . S
C250 C237 1.479 . S
C250 C251 1.398 . S
C251 C216 1.382 . S
C251 H228 0.951 . S
C251 C250 1.398 . S
C252 C253 1.384 . S
C252 H265 0.947 . S
C252 C287 1.382 . S
C253 C252 1.384 . S
C253 C254 1.378 . S
C254 C253 1.378 . S
C254 C255 1.378 . S
C254 H266 0.952 . S
C255 C254 1.378 . S
C255 H267 0.950 . S
C255 C286 1.383 . S
H256 C275 0.947 . S
H257 C276 0.946 . S
H258 C278 0.953 . S
H259 C279 0.945 . S
H260 C281 0.952 . S
H261 C282 0.949 . S
H262 C284 0.950 . S
H263 C285 0.948 . S
H264 C287 0.951 . S
H265 C252 0.947 . S
H266 C254 0.952 . S
H267 C255 0.950 . S
N268 C271 1.382 . S
N268 C273 1.363 . S
N269 C271 1.371 . S
N269 C272 1.372 . S
N270 C272 1.361 . S
N270 C273 1.377 . S
C271 N268 1.382 . S
C271 N269 1.371 . S
C271 C274 1.480 . S
C272 N269 1.372 . S
C272 N270 1.361 . S
C272 C280 1.457 . S
C273 N268 1.363 . S
C273 N270 1.377 . S
C273 C286 1.479 . S
C274 C271 1.480 . S
C274 C275 1.383 . S
C274 C279 1.385 . S
C275 H256 0.947 . S
C275 C274 1.383 . S
C275 C276 1.388 . S
C276 H257 0.946 . S
C276 C275 1.388 . S
C276 C277 1.384 . S
C277 C276 1.384 . S
C277 C278 1.377 . S
C278 H258 0.953 . S
C278 C277 1.377 . S
C278 C279 1.369 . S
C279 H259 0.945 . S
C279 C274 1.385 . S
C279 C278 1.369 . S
C280 C272 1.457 . S
C280 C281 1.372 . S
C280 C285 1.364 . S
C281 H260 0.952 . S
C281 C280 1.372 . S
C281 C282 1.389 . S
C282 H261 0.949 . S
C282 C281 1.389 . S
C282 C283 1.387 . S
C283 C282 1.387 . S
C283 C284 1.372 . S
C284 H262 0.950 . S
C284 C283 1.372 . S
C284 C285 1.379 . S
C285 H263 0.948 . S
C285 C280 1.364 . S
C285 C284 1.379 . S
C286 C255 1.383 . S
C286 C273 1.479 . S
C286 C287 1.398 . S
C287 C252 1.382 . S
C287 H264 0.951 . S
C287 C286 1.398 . S
C288 C289 1.384 . S
C288 H301 0.947 . S
C288 C323 1.382 . S
C289 C288 1.384 . S
C289 C290 1.378 . S
C290 C289 1.378 . S
C290 C291 1.378 . S
C290 H302 0.952 . S
C291 C290 1.378 . S
C291 H303 0.950 . S
C291 C322 1.383 . S
H292 C311 0.947 . S
H293 C312 0.946 . S
H294 C314 0.953 . S
H295 C315 0.945 . S
H296 C317 0.952 . S
H297 C318 0.949 . S
H298 C320 0.950 . S
H299 C321 0.948 . S
H300 C323 0.951 . S
H301 C288 0.947 . S
H302 C290 0.952 . S
H303 C291 0.950 . S
N304 C307 1.382 . S
N304 C309 1.363 . S
N305 C307 1.371 . S
N305 C308 1.372 . S
N306 C308 1.361 . S
N306 C309 1.377 . S
C307 N304 1.382 . S
C307 N305 1.371 . S
C307 C310 1.480 . S
C308 N305 1.372 . S
C308 N306 1.361 . S
C308 C316 1.457 . S
C309 N304 1.363 . S
C309 N306 1.377 . S
C309 C322 1.479 . S
C310 C307 1.480 . S
C310 C311 1.383 . S
C310 C315 1.385 . S
C311 H292 0.947 . S
C311 C310 1.383 . S
C311 C312 1.388 . S
C312 H293 0.946 . S
C312 C311 1.388 . S
C312 C313 1.384 . S
C313 C312 1.384 . S
C313 C314 1.377 . S
C314 H294 0.953 . S
C314 C313 1.377 . S
C314 C315 1.369 . S
C315 H295 0.945 . S
C315 C310 1.385 . S
C315 C314 1.369 . S
C316 C308 1.457 . S
C316 C317 1.372 . S
C316 C321 1.364 . S
C317 H296 0.952 . S
C317 C316 1.372 . S
C317 C318 1.389 . S
C318 H297 0.949 . S
C318 C317 1.389 . S
C318 C319 1.387 . S
C319 C318 1.387 . S
C319 C320 1.372 . S
C320 H298 0.950 . S
C320 C319 1.372 . S
C320 C321 1.379 . S
C321 H299 0.948 . S
C321 C316 1.364 . S
C321 C320 1.379 . S
C322 C291 1.383 . S
C322 C309 1.479 . S
C322 C323 1.398 . S
C323 C288 1.382 . S
C323 H300 0.951 . S
C323 C322 1.398 . S
C324 C325 1.384 . S
C324 H337 0.947 . S
C324 C359 1.382 . S
C325 C324 1.384 . S
C325 C326 1.378 . S
C326 C325 1.378 . S
C326 C327 1.378 . S
C326 H338 0.952 . S
C327 C326 1.378 . S
C327 H339 0.950 . S
C327 C358 1.383 . S
H328 C347 0.947 . S
H329 C348 0.946 . S
H330 C350 0.953 . S
H331 C351 0.945 . S
H332 C353 0.952 . S
H333 C354 0.949 . S
H334 C356 0.950 . S
H335 C357 0.948 . S
H336 C359 0.951 . S
H337 C324 0.947 . S
H338 C326 0.952 . S
H339 C327 0.950 . S
N340 C343 1.382 . S
N340 C345 1.363 . S
N341 C343 1.371 . S
N341 C344 1.372 . S
N342 C344 1.361 . S
N342 C345 1.377 . S
C343 N340 1.382 . S
C343 N341 1.371 . S
C343 C346 1.480 . S
C344 N341 1.372 . S
C344 N342 1.361 . S
C344 C352 1.457 . S
C345 N340 1.363 . S
C345 N342 1.377 . S
C345 C358 1.479 . S
C346 C343 1.480 . S
C346 C347 1.383 . S
C346 C351 1.385 . S
C347 H328 0.947 . S
C347 C346 1.383 . S
C347 C348 1.388 . S
C348 H329 0.946 . S
C348 C347 1.388 . S
C348 C349 1.384 . S
C349 C348 1.384 . S
C349 C350 1.377 . S
C350 H330 0.953 . S
C350 C349 1.377 . S
C350 C351 1.369 . S
C351 H331 0.945 . S
C351 C346 1.385 . S
C351 C350 1.369 . S
C352 C344 1.457 . S
C352 C353 1.372 . S
C352 C357 1.364 . S
C353 H332 0.952 . S
C353 C352 1.372 . S
C353 C354 1.389 . S
C354 H333 0.949 . S
C354 C353 1.389 . S
C354 C355 1.387 . S
C355 C354 1.387 . S
C355 C356 1.372 . S
C356 H334 0.950 . S
C356 C355 1.372 . S
C356 C357 1.379 . S
C357 H335 0.948 . S
C357 C352 1.364 . S
C357 C356 1.379 . S
C358 C327 1.383 . S
C358 C345 1.479 . S
C358 C359 1.398 . S
C359 C324 1.382 . S
C359 H336 0.951 . S
C359 C358 1.398 . S
C360 C361 1.384 . S
C360 H373 0.947 . S
C360 C395 1.382 . S
C361 C360 1.384 . S
C361 C362 1.378 . S
C362 C361 1.378 . S
C362 C363 1.378 . S
C362 H374 0.952 . S
C363 C362 1.378 . S
C363 H375 0.950 . S
C363 C394 1.383 . S
H364 C383 0.947 . S
H365 C384 0.946 . S
H366 C386 0.953 . S
H367 C387 0.945 . S
H368 C389 0.952 . S
H369 C390 0.949 . S
H370 C392 0.950 . S
H371 C393 0.948 . S
H372 C395 0.951 . S
H373 C360 0.947 . S
H374 C362 0.952 . S
H375 C363 0.950 . S
N376 C379 1.382 . S
N376 C381 1.363 . S
N377 C379 1.371 . S
N377 C380 1.372 . S
N378 C380 1.361 . S
N378 C381 1.377 . S
C379 N376 1.382 . S
C379 N377 1.371 . S
C379 C382 1.480 . S
C380 N377 1.372 . S
C380 N378 1.361 . S
C380 C388 1.457 . S
C381 N376 1.363 . S
C381 N378 1.377 . S
C381 C394 1.479 . S
C382 C379 1.480 . S
C382 C383 1.383 . S
C382 C387 1.385 . S
C383 H364 0.947 . S
C383 C382 1.383 . S
C383 C384 1.388 . S
C384 H365 0.946 . S
C384 C383 1.388 . S
C384 C385 1.384 . S
C385 C384 1.384 . S
C385 C386 1.377 . S
C386 H366 0.953 . S
C386 C385 1.377 . S
C386 C387 1.369 . S
C387 H367 0.945 . S
C387 C382 1.385 . S
C387 C386 1.369 . S
C388 C380 1.457 . S
C388 C389 1.372 . S
C388 C393 1.364 . S
C389 H368 0.952 . S
C389 C388 1.372 . S
C389 C390 1.389 . S
C390 H369 0.949 . S
C390 C389 1.389 . S
C390 C391 1.387 . S
C391 C390 1.387 . S
C391 C392 1.372 . S
C392 H370 0.950 . S
C392 C391 1.372 . S
C392 C393 1.379 . S
C393 H371 0.948 . S
C393 C388 1.364 . S
C393 C392 1.379 . S
C394 C363 1.383 . S
C394 C381 1.479 . S
C394 C395 1.398 . S
C395 C360 1.382 . S
C395 H372 0.951 . S
C395 C394 1.398 . S
C396 C397 1.384 . S
C396 H409 0.947 . S
C396 C431 1.382 . S
C397 C396 1.384 . S
C397 C398 1.378 . S
C398 C397 1.378 . S
C398 C399 1.378 . S
C398 H410 0.952 . S
C399 C398 1.378 . S
C399 H411 0.950 . S
C399 C430 1.383 . S
H400 C419 0.947 . S
H401 C420 0.946 . S
H402 C422 0.953 . S
H403 C423 0.945 . S
H404 C425 0.952 . S
H405 C426 0.949 . S
H406 C428 0.950 . S
H407 C429 0.948 . S
H408 C431 0.951 . S
H409 C396 0.947 . S
H410 C398 0.952 . S
H411 C399 0.950 . S
N412 C415 1.382 . S
N412 C417 1.363 . S
N413 C415 1.371 . S
N413 C416 1.372 . S
N414 C416 1.361 . S
N414 C417 1.377 . S
C415 N412 1.382 . S
C415 N413 1.371 . S
C415 C418 1.480 . S
C416 N413 1.372 . S
C416 N414 1.361 . S
C416 C424 1.457 . S
C417 N412 1.363 . S
C417 N414 1.377 . S
C417 C430 1.479 . S
C418 C415 1.480 . S
C418 C419 1.383 . S
C418 C423 1.385 . S
C419 H400 0.947 . S
C419 C418 1.383 . S
C419 C420 1.388 . S
C420 H401 0.946 . S
C420 C419 1.388 . S
C420 C421 1.384 . S
C421 C420 1.384 . S
C421 C422 1.377 . S
C422 H402 0.953 . S
C422 C421 1.377 . S
C422 C423 1.369 . S
C423 H403 0.945 . S
C423 C418 1.385 . S
C423 C422 1.369 . S
C424 C416 1.457 . S
C424 C425 1.372 . S
C424 C429 1.364 . S
C425 H404 0.952 . S
C425 C424 1.372 . S
C425 C426 1.389 . S
C426 H405 0.949 . S
C426 C425 1.389 . S
C426 C427 1.387 . S
C427 C426 1.387 . S
C427 C428 1.372 . S
C428 H406 0.950 . S
C428 C427 1.372 . S
C428 C429 1.379 . S
C429 H407 0.948 . S
C429 C424 1.364 . S
C429 C428 1.379 . S
C430 C399 1.383 . S
C430 C417 1.479 . S
C430 C431 1.398 . S
C431 C396 1.382 . S
C431 H408 0.951 . S
C431 C430 1.398 . S
C432 C433 1.384 . S
C432 H445 0.947 . S
C432 C467 1.382 . S
C433 C432 1.384 . S
C433 C434 1.378 . S
C434 C433 1.378 . S
C434 C435 1.378 . S
C434 H446 0.952 . S
C435 C434 1.378 . S
C435 H447 0.950 . S
C435 C466 1.383 . S
H436 C455 0.947 . S
H437 C456 0.946 . S
H438 C458 0.953 . S
H439 C459 0.945 . S
H440 C461 0.952 . S
H441 C462 0.949 . S
H442 C464 0.950 . S
H443 C465 0.948 . S
H444 C467 0.951 . S
H445 C432 0.947 . S
H446 C434 0.952 . S
H447 C435 0.950 . S
N448 C451 1.382 . S
N448 C453 1.363 . S
N449 C451 1.371 . S
N449 C452 1.372 . S
N450 C452 1.361 . S
N450 C453 1.377 . S
C451 N448 1.382 . S
C451 N449 1.371 . S
C451 C454 1.480 . S
C452 N449 1.372 . S
C452 N450 1.361 . S
C452 C460 1.457 . S
C453 N448 1.363 . S
C453 N450 1.377 . S
C453 C466 1.479 . S
C454 C451 1.480 . S
C454 C455 1.383 . S
C454 C459 1.385 . S
C455 H436 0.947 . S
C455 C454 1.383 . S
C455 C456 1.388 . S
C456 H437 0.946 . S
C456 C455 1.388 . S
C456 C457 1.384 . S
C457 C456 1.384 . S
C457 C458 1.377 . S
C458 H438 0.953 . S
C458 C457 1.377 . S
C458 C459 1.369 . S
C459 H439 0.945 . S
C459 C454 1.385 . S
C459 C458 1.369 . S
C460 C452 1.457 . S
C460 C461 1.372 . S
C460 C465 1.364 . S
C461 H440 0.952 . S
C461 C460 1.372 . S
C461 C462 1.389 . S
C462 H441 0.949 . S
C462 C461 1.389 . S
C462 C463 1.387 . S
C463 C462 1.387 . S
C463 C464 1.372 . S
C464 H442 0.950 . S
C464 C463 1.372 . S
C464 C465 1.379 . S
C465 H443 0.948 . S
C465 C460 1.364 . S
C465 C464 1.379 . S
C466 C435 1.383 . S
C466 C453 1.479 . S
C466 C467 1.398 . S
C467 C432 1.382 . S
C467 H444 0.951 . S
C467 C466 1.398 . S
C468 C469 1.384 . S
C468 H481 0.947 . S
C468 C503 1.382 . S
C469 C468 1.384 . S
C469 C470 1.378 . S
C470 C469 1.378 . S
C470 C471 1.378 . S
C470 H482 0.952 . S
C471 C470 1.378 . S
C471 H483 0.950 . S
C471 C502 1.383 . S
H472 C491 0.947 . S
H473 C492 0.946 . S
H474 C494 0.953 . S
H475 C495 0.945 . S
H476 C497 0.952 . S
H477 C498 0.949 . S
H478 C500 0.950 . S
H479 C501 0.948 . S
H480 C503 0.951 . S
H481 C468 0.947 . S
H482 C470 0.952 . S
H483 C471 0.950 . S
N484 C487 1.382 . S
N484 C489 1.363 . S
N485 C487 1.371 . S
N485 C488 1.372 . S
N486 C488 1.361 . S
N486 C489 1.377 . S
C487 N484 1.382 . S
C487 N485 1.371 . S
C487 C490 1.480 . S
C488 N485 1.372 . S
C488 N486 1.361 . S
C488 C496 1.457 . S
C489 N484 1.363 . S
C489 N486 1.377 . S
C489 C502 1.479 . S
C490 C487 1.480 . S
C490 C491 1.383 . S
C490 C495 1.385 . S
C491 H472 0.947 . S
C491 C490 1.383 . S
C491 C492 1.388 . S
C492 H473 0.946 . S
C492 C491 1.388 . S
C492 C493 1.384 . S
C493 C492 1.384 . S
C493 C494 1.377 . S
C494 H474 0.953 . S
C494 C493 1.377 . S
C494 C495 1.369 . S
C495 H475 0.945 . S
C495 C490 1.385 . S
C495 C494 1.369 . S
C496 C488 1.457 . S
C496 C497 1.372 . S
C496 C501 1.364 . S
C497 H476 0.952 . S
C497 C496 1.372 . S
C497 C498 1.389 . S
C498 H477 0.949 . S
C498 C497 1.389 . S
C498 C499 1.387 . S
C499 C498 1.387 . S
C499 C500 1.372 . S
C500 H478 0.950 . S
C500 C499 1.372 . S
C500 C501 1.379 . S
C501 H479 0.948 . S
C501 C496 1.364 . S
C501 C500 1.379 . S
C502 C471 1.383 . S
C502 C489 1.479 . S
C502 C503 1.398 . S
C503 C468 1.382 . S
C503 H480 0.951 . S
C503 C502 1.398 . S
C504 C505 1.384 . S
C504 H517 0.947 . S
C504 C539 1.382 . S
C505 C504 1.384 . S
C505 C506 1.378 . S
C506 C505 1.378 . S
C506 C507 1.378 . S
C506 H518 0.952 . S
C507 C506 1.378 . S
C507 H519 0.950 . S
C507 C538 1.383 . S
H508 C527 0.947 . S
H509 C528 0.946 . S
H510 C530 0.953 . S
H511 C531 0.945 . S
H512 C533 0.952 . S
H513 C534 0.949 . S
H514 C536 0.950 . S
H515 C537 0.948 . S
H516 C539 0.951 . S
H517 C504 0.947 . S
H518 C506 0.952 . S
H519 C507 0.950 . S
N520 C523 1.382 . S
N520 C525 1.363 . S
N521 C523 1.371 . S
N521 C524 1.372 . S
N522 C524 1.361 . S
N522 C525 1.377 . S
C523 N520 1.382 . S
C523 N521 1.371 . S
C523 C526 1.480 . S
C524 N521 1.372 . S
C524 N522 1.361 . S
C524 C532 1.457 . S
C525 N520 1.363 . S
C525 N522 1.377 . S
C525 C538 1.479 . S
C526 C523 1.480 . S
C526 C527 1.383 . S
C526 C531 1.385 . S
C527 H508 0.947 . S
C527 C526 1.383 . S
C527 C528 1.388 . S
C528 H509 0.946 . S
C528 C527 1.388 . S
C528 C529 1.384 . S
C529 C528 1.384 . S
C529 C530 1.377 . S
C530 H510 0.953 . S
C530 C529 1.377 . S
C530 C531 1.369 . S
C531 H511 0.945 . S
C531 C526 1.385 . S
C531 C530 1.369 . S
C532 C524 1.457 . S
C532 C533 1.372 . S
C532 C537 1.364 . S
C533 H512 0.952 . S
C533 C532 1.372 . S
C533 C534 1.389 . S
C534 H513 0.949 . S
C534 C533 1.389 . S
C534 C535 1.387 . S
C535 C534 1.387 . S
C535 C536 1.372 . S
C536 H514 0.950 . S
C536 C535 1.372 . S
C536 C537 1.379 . S
C537 H515 0.948 . S
C537 C532 1.364 . S
C537 C536 1.379 . S
C538 C507 1.383 . S
C538 C525 1.479 . S
C538 C539 1.398 . S
C539 C504 1.382 . S
C539 H516 0.951 . S
C539 C538 1.398 . S
C540 C541 1.384 . S
C540 H553 0.947 . S
C540 C575 1.382 . S
C541 C540 1.384 . S
C541 C542 1.378 . S
C542 C541 1.378 . S
C542 C543 1.378 . S
C542 H554 0.952 . S
C543 C542 1.378 . S
C543 H555 0.950 . S
C543 C574 1.383 . S
H544 C563 0.947 . S
H545 C564 0.946 . S
H546 C566 0.953 . S
H547 C567 0.945 . S
H548 C569 0.952 . S
H549 C570 0.949 . S
H550 C572 0.950 . S
H551 C573 0.948 . S
H552 C575 0.951 . S
H553 C540 0.947 . S
H554 C542 0.952 . S
H555 C543 0.950 . S
N556 C559 1.382 . S
N556 C561 1.363 . S
N557 C559 1.371 . S
N557 C560 1.372 . S
N558 C560 1.361 . S
N558 C561 1.377 . S
C559 N556 1.382 . S
C559 N557 1.371 . S
C559 C562 1.480 . S
C560 N557 1.372 . S
C560 N558 1.361 . S
C560 C568 1.457 . S
C561 N556 1.363 . S
C561 N558 1.377 . S
C561 C574 1.479 . S
C562 C559 1.480 . S
C562 C563 1.383 . S
C562 C567 1.385 . S
C563 H544 0.947 . S
C563 C562 1.383 . S
C563 C564 1.388 . S
C564 H545 0.946 . S
C564 C563 1.388 . S
C564 C565 1.384 . S
C565 C564 1.384 . S
C565 C566 1.377 . S
C566 H546 0.953 . S
C566 C565 1.377 . S
C566 C567 1.369 . S
C567 H547 0.945 . S
C567 C562 1.385 . S
C567 C566 1.369 . S
C568 C560 1.457 . S
C568 C569 1.372 . S
C568 C573 1.364 . S
C569 H548 0.952 . S
C569 C568 1.372 . S
C569 C570 1.389 . S
C570 H549 0.949 . S
C570 C569 1.389 . S
C570 C571 1.387 . S
C571 C570 1.387 . S
C571 C572 1.372 . S
C572 H550 0.950 . S
C572 C571 1.372 . S
C572 C573 1.379 . S
C573 H551 0.948 . S
C573 C568 1.364 . S
C573 C572 1.379 . S
C574 C543 1.383 . S
C574 C561 1.479 . S
C574 C575 1.398 . S
C575 C540 1.382 . S
C575 H552 0.951 . S
C575 C574 1.398 . S
O576 Cd577 2.223 . S
O576 C584 1.315 . S
Cd577 O576 2.223 . S
Cd577 O580 2.297 . S
Cd577 O581 2.439 . S
Cd577 O587 2.240 . S
Cd578 O579 2.240 . S
Cd578 O586 2.223 . S
Cd578 O588 2.297 . S
Cd578 O589 2.439 . S
O579 Cd578 2.240 . S
O579 C584 1.279 . S
O580 Cd577 2.297 . S
O580 C582 1.247 . S
O581 Cd577 2.439 . S
O581 C582 1.208 . S
C582 O580 1.247 . S
C582 O581 1.208 . S
C583 O588 1.247 . S
C583 O589 1.208 . S
C584 O576 1.315 . S
C584 O579 1.279 . S
C585 O586 1.315 . S
C585 O587 1.279 . S
O586 Cd578 2.223 . S
O586 C585 1.315 . S
O587 Cd577 2.240 . S
O587 C585 1.279 . S
O588 Cd578 2.297 . S
O588 C583 1.247 . S
O589 Cd578 2.439 . S
O589 C583 1.208 . S
O590 Cd591 2.223 . S
O590 C598 1.315 . S
Cd591 O590 2.223 . S
Cd591 O594 2.297 . S
Cd591 O595 2.439 . S
Cd591 O601 2.240 . S
Cd592 O593 2.240 . S
Cd592 O600 2.223 . S
Cd592 O602 2.297 . S
Cd592 O603 2.439 . S
O593 Cd592 2.240 . S
O593 C598 1.279 . S
O594 Cd591 2.297 . S
O594 C596 1.247 . S
O595 Cd591 2.439 . S
O595 C596 1.208 . S
C596 O594 1.247 . S
C596 O595 1.208 . S
C597 O602 1.247 . S
C597 O603 1.208 . S
C598 O590 1.315 . S
C598 O593 1.279 . S
C599 O600 1.315 . S
C599 O601 1.279 . S
O600 Cd592 2.223 . S
O600 C599 1.315 . S
O601 Cd591 2.240 . S
O601 C599 1.279 . S
O602 Cd592 2.297 . S
O602 C597 1.247 . S
O603 Cd592 2.439 . S
O603 C597 1.208 . S
O604 Cd605 2.223 1_556 S
O604 C612 1.315 . S
Cd605 O604 2.223 1_554 S
Cd605 O608 2.297 . S
Cd605 O609 2.439 . S
Cd605 O615 2.240 . S
Cd606 O607 2.240 . S
Cd606 O614 2.223 . S
Cd606 O616 2.297 1_556 S
Cd606 O617 2.439 1_556 S
O607 Cd606 2.240 . S
O607 C612 1.279 . S
O608 Cd605 2.297 . S
O608 C610 1.247 . S
O609 Cd605 2.439 . S
O609 C610 1.208 . S
C610 O608 1.247 . S
C610 O609 1.208 . S
C611 O616 1.247 . S
C611 O617 1.208 . S
C612 O604 1.315 . S
C612 O607 1.279 . S
C613 O614 1.315 . S
C613 O615 1.279 1_556 S
O614 Cd606 2.223 . S
O614 C613 1.315 . S
O615 Cd605 2.240 . S
O615 C613 1.279 1_554 S
O616 Cd606 2.297 1_554 S
O616 C611 1.247 . S
O617 Cd606 2.439 1_554 S
O617 C611 1.208 . S
O618 Cd619 2.223 . S
O618 C626 1.315 . S
Cd619 O618 2.223 . S
Cd619 O622 2.297 . S
Cd619 O623 2.439 . S
Cd619 O629 2.240 . S
Cd620 O621 2.240 . S
Cd620 O628 2.223 . S
Cd620 O630 2.297 . S
Cd620 O631 2.439 . S
O621 Cd620 2.240 . S
O621 C626 1.279 . S
O622 Cd619 2.297 . S
O622 C624 1.247 . S
O623 Cd619 2.439 . S
O623 C624 1.208 . S
C624 O622 1.247 . S
C624 O623 1.208 . S
C625 O630 1.247 . S
C625 O631 1.208 . S
C626 O618 1.315 . S
C626 O621 1.279 . S
C627 O628 1.315 . S
C627 O629 1.279 . S
O628 Cd620 2.223 . S
O628 C627 1.315 . S
O629 Cd619 2.240 . S
O629 C627 1.279 . S
O630 Cd620 2.297 . S
O630 C625 1.247 . S
O631 Cd620 2.439 . S
O631 C625 1.208 . S
O632 Cd633 2.223 . S
O632 C640 1.315 . S
Cd633 O632 2.223 . S
Cd633 O636 2.297 . S
Cd633 O637 2.439 . S
Cd633 O643 2.240 . S
Cd634 O635 2.240 . S
Cd634 O642 2.223 . S
Cd634 O644 2.297 . S
Cd634 O645 2.439 . S
O635 Cd634 2.240 . S
O635 C640 1.279 . S
O636 Cd633 2.297 . S
O636 C638 1.247 . S
O637 Cd633 2.439 . S
O637 C638 1.208 . S
C638 O636 1.247 . S
C638 O637 1.208 . S
C639 O644 1.247 . S
C639 O645 1.208 . S
C640 O632 1.315 . S
C640 O635 1.279 . S
C641 O642 1.315 . S
C641 O643 1.279 . S
O642 Cd634 2.223 . S
O642 C641 1.315 . S
O643 Cd633 2.240 . S
O643 C641 1.279 . S
O644 Cd634 2.297 . S
O644 C639 1.247 . S
O645 Cd634 2.439 . S
O645 C639 1.208 . S
O646 Cd647 2.223 . S
O646 C654 1.315 . S
Cd647 O646 2.223 . S
Cd647 O650 2.297 . S
Cd647 O651 2.439 . S
Cd647 O657 2.240 . S
Cd648 O649 2.240 . S
Cd648 O656 2.223 . S
Cd648 O658 2.297 . S
Cd648 O659 2.439 . S
O649 Cd648 2.240 . S
O649 C654 1.279 . S
O650 Cd647 2.297 . S
O650 C652 1.247 . S
O651 Cd647 2.439 . S
O651 C652 1.208 . S
C652 O650 1.247 . S
C652 O651 1.208 . S
C653 O658 1.247 . S
C653 O659 1.208 . S
C654 O646 1.315 . S
C654 O649 1.279 . S
C655 O656 1.315 . S
C655 O657 1.279 . S
O656 Cd648 2.223 . S
O656 C655 1.315 . S
O657 Cd647 2.240 . S
O657 C655 1.279 . S
O658 Cd648 2.297 . S
O658 C653 1.247 . S
O659 Cd648 2.439 . S
O659 C653 1.208 . S
O660 Cd661 2.223 . S
O660 C668 1.315 . S
Cd661 O660 2.223 . S
Cd661 O664 2.297 . S
Cd661 O665 2.439 . S
Cd661 O671 2.240 . S
Cd662 O663 2.240 . S
Cd662 O670 2.223 . S
Cd662 O672 2.297 . S
Cd662 O673 2.439 . S
O663 Cd662 2.240 . S
O663 C668 1.279 . S
O664 Cd661 2.297 . S
O664 C666 1.247 . S
O665 Cd661 2.439 . S
O665 C666 1.208 . S
C666 O664 1.247 . S
C666 O665 1.208 . S
C667 O672 1.247 . S
C667 O673 1.208 . S
C668 O660 1.315 . S
C668 O663 1.279 . S
C669 O670 1.315 . S
C669 O671 1.279 . S
O670 Cd662 2.223 . S
O670 C669 1.315 . S
O671 Cd661 2.240 . S
O671 C669 1.279 . S
O672 Cd662 2.297 . S
O672 C667 1.247 . S
O673 Cd662 2.439 . S
O673 C667 1.208 . S
O674 Cd675 2.223 1_545 S
O674 C682 1.315 . S
Cd675 O674 2.223 1_565 S
Cd675 O678 2.297 . S
Cd675 O679 2.439 . S
Cd675 O685 2.240 1_565 S
Cd676 O677 2.240 . S
Cd676 O684 2.223 . S
Cd676 O686 2.297 . S
Cd676 O687 2.439 1_545 S
O677 Cd676 2.240 . S
O677 C682 1.279 . S
O678 Cd675 2.297 . S
O678 C680 1.247 . S
O679 Cd675 2.439 . S
O679 C680 1.208 . S
C680 O678 1.247 . S
C680 O679 1.208 . S
C681 O686 1.247 1_565 S
C681 O687 1.208 . S
C682 O674 1.315 . S
C682 O677 1.279 . S
C683 O684 1.315 . S
C683 O685 1.279 . S
O684 Cd676 2.223 . S
O684 C683 1.315 . S
O685 Cd675 2.240 1_545 S
O685 C683 1.279 . S
O686 Cd676 2.297 . S
O686 C681 1.247 1_545 S
O687 Cd676 2.439 1_565 S
O687 C681 1.208 . S
O688 Cd689 2.223 . S
O688 C696 1.315 . S
Cd689 O688 2.223 . S
Cd689 O692 2.297 1_655 S
Cd689 O693 2.439 1_655 S
Cd689 O699 2.240 . S
Cd690 O691 2.240 . S
Cd690 O698 2.223 1_455 S
Cd690 O700 2.297 . S
Cd690 O701 2.439 . S
O691 Cd690 2.240 . S
O691 C696 1.279 1_455 S
O692 Cd689 2.297 1_455 S
O692 C694 1.247 . S
O693 Cd689 2.439 1_455 S
O693 C694 1.208 . S
C694 O692 1.247 . S
C694 O693 1.208 . S
C695 O700 1.247 . S
C695 O701 1.208 . S
C696 O688 1.315 . S
C696 O691 1.279 1_655 S
C697 O698 1.315 . S
C697 O699 1.279 . S
O698 Cd690 2.223 1_655 S
O698 C697 1.315 . S
O699 Cd689 2.240 . S
O699 C697 1.279 . S
O700 Cd690 2.297 . S
O700 C695 1.247 . S
O701 Cd690 2.439 . S
O701 C695 1.208 . S
O702 Cd703 2.223 . S
O702 C710 1.315 . S
Cd703 O702 2.223 . S
Cd703 O706 2.297 . S
Cd703 O707 2.439 . S
Cd703 O713 2.240 . S
Cd704 O705 2.240 . S
Cd704 O712 2.223 . S
Cd704 O714 2.297 . S
Cd704 O715 2.439 . S
O705 Cd704 2.240 . S
O705 C710 1.279 . S
O706 Cd703 2.297 . S
O706 C708 1.247 . S
O707 Cd703 2.439 . S
O707 C708 1.208 . S
C708 O706 1.247 . S
C708 O707 1.208 . S
C709 O714 1.247 . S
C709 O715 1.208 . S
C710 O702 1.315 . S
C710 O705 1.279 . S
C711 O712 1.315 . S
C711 O713 1.279 . S
O712 Cd704 2.223 . S
O712 C711 1.315 . S
O713 Cd703 2.240 . S
O713 C711 1.279 . S
O714 Cd704 2.297 . S
O714 C709 1.247 . S
O715 Cd704 2.439 . S
O715 C709 1.208 . S
O716 Cd717 2.223 1_655 S
O716 C724 1.315 . S
Cd717 O716 2.223 1_455 S
Cd717 O720 2.297 . S
Cd717 O721 2.439 . S
Cd717 O727 2.240 . S
Cd718 O719 2.240 . S
Cd718 O726 2.223 . S
Cd718 O728 2.297 1_655 S
Cd718 O729 2.439 1_655 S
O719 Cd718 2.240 . S
O719 C724 1.279 . S
O720 Cd717 2.297 . S
O720 C722 1.247 . S
O721 Cd717 2.439 . S
O721 C722 1.208 . S
C722 O720 1.247 . S
C722 O721 1.208 . S
C723 O728 1.247 . S
C723 O729 1.208 . S
C724 O716 1.315 . S
C724 O719 1.279 . S
C725 O726 1.315 . S
C725 O727 1.279 1_655 S
O726 Cd718 2.223 . S
O726 C725 1.315 . S
O727 Cd717 2.240 . S
O727 C725 1.279 1_455 S
O728 Cd718 2.297 1_455 S
O728 C723 1.247 . S
O729 Cd718 2.439 1_455 S
O729 C723 1.208 . S
O730 Cd731 2.223 . S
O730 C738 1.315 . S
Cd731 O730 2.223 . S
Cd731 O734 2.297 . S
Cd731 O735 2.439 . S
Cd731 O741 2.240 . S
Cd732 O733 2.240 . S
Cd732 O740 2.223 . S
Cd732 O742 2.297 . S
Cd732 O743 2.439 . S
O733 Cd732 2.240 . S
O733 C738 1.279 . S
O734 Cd731 2.297 . S
O734 C736 1.247 . S
O735 Cd731 2.439 . S
O735 C736 1.208 . S
C736 O734 1.247 . S
C736 O735 1.208 . S
C737 O742 1.247 . S
C737 O743 1.208 . S
C738 O730 1.315 . S
C738 O733 1.279 . S
C739 O740 1.315 . S
C739 O741 1.279 . S
O740 Cd732 2.223 . S
O740 C739 1.315 . S
O741 Cd731 2.240 . S
O741 C739 1.279 . S
O742 Cd732 2.297 . S
O742 C737 1.247 . S
O743 Cd732 2.439 . S
O743 C737 1.208 . S
C744 C745 1.349 . S
C744 C746 1.327 . S
C744 H769 0.950 . S
C745 C744 1.349 . S
C745 C761 1.349 . S
C746 C744 1.327 . S
C746 C765 1.429 . S
C746 H770 0.950 . S
C747 C764 1.574 . S
C747 C766 1.368 . S
C747 H771 0.949 . S
H748 C752 0.949 . S
C749 C750 1.349 . S
C749 C751 1.327 1_554 S
C749 H772 0.950 . S
C750 C749 1.349 . S
C750 C762 1.349 1_554 S
C751 C749 1.327 1_556 S
C751 C767 1.429 . S
C751 H773 0.950 . S
C752 H748 0.949 . S
C752 C760 1.574 . S
C752 C768 1.368 . S
H753 C761 0.950 . S
H754 C759 0.950 . S
H755 C760 0.949 . S
H756 C762 0.950 . S
H757 C763 0.950 . S
H758 C764 0.949 . S
C759 H754 0.950 . S
C759 C761 1.327 . S
C759 C765 1.429 . S
C760 C752 1.574 . S
C760 H755 0.949 . S
C760 C766 1.368 . S
C761 C745 1.349 . S
C761 H753 0.950 . S
C761 C759 1.327 . S
C762 C750 1.349 1_556 S
C762 H756 0.950 . S
C762 C763 1.327 . S
C763 H757 0.950 . S
C763 C762 1.327 . S
C763 C767 1.429 . S
C764 C747 1.574 . S
C764 H758 0.949 . S
C764 C768 1.368 . S
C765 C746 1.429 . S
C765 C759 1.429 . S
C765 C766 1.523 . S
C766 C747 1.368 . S
C766 C760 1.368 . S
C766 C765 1.523 . S
C767 C751 1.429 . S
C767 C763 1.429 . S
C767 C768 1.523 . S
C768 C752 1.368 . S
C768 C764 1.368 . S
C768 C767 1.523 . S
H769 C744 0.950 . S
H770 C746 0.950 . S
H771 C747 0.949 . S
H772 C749 0.950 . S
H773 C751 0.950 . S
C774 C775 1.349 . S
C774 C776 1.327 . S
C774 H799 0.950 . S
C775 C774 1.349 . S
C775 C791 1.349 . S
C776 C774 1.327 . S
C776 C795 1.429 . S
C776 H800 0.950 1_655 S
C777 C794 1.574 . S
C777 C796 1.368 . S
C777 H801 0.960 . S
H778 C782 0.949 . S
C779 C780 1.349 . S
C779 C781 1.327 . S
C779 H802 0.950 . S
C780 C779 1.349 . S
C780 C792 1.349 . S
C781 C779 1.327 . S
C781 C797 1.429 . S
C781 H803 0.950 . S
C782 H778 0.949 . S
C782 C790 1.574 . S
C782 C798 1.368 . S
H783 C791 0.950 . S
H784 C789 0.950 . S
H785 C790 0.949 . S
H786 C792 0.950 . S
H787 C793 0.950 . S
H788 C794 0.949 . S
C789 H784 0.950 . S
C789 C791 1.327 . S
C789 C795 1.429 . S
C790 C782 1.574 . S
C790 H785 0.949 . S
C790 C796 1.368 . S
C791 C775 1.349 . S
C791 H783 0.950 . S
C791 C789 1.327 . S
C792 C780 1.349 . S
C792 H786 0.950 . S
C792 C793 1.327 . S
C793 H787 0.950 . S
C793 C792 1.327 . S
C793 C797 1.429 . S
C794 C777 1.574 . S
C794 H788 0.949 . S
C794 C798 1.368 . S
C795 C776 1.429 . S
C795 C789 1.429 . S
C795 C796 1.523 1_655 S
C796 C777 1.368 . S
C796 C790 1.368 . S
C796 C795 1.523 1_455 S
C797 C781 1.429 . S
C797 C793 1.429 . S
C797 C798 1.523 . S
C798 C782 1.368 . S
C798 C794 1.368 . S
C798 C797 1.523 . S
H799 C774 0.950 . S
H800 C776 0.950 1_455 S
H801 C777 0.960 . S
H802 C779 0.950 . S
H803 C781 0.950 . S
C804 C805 1.349 . S
C804 C806 1.327 . S
C804 H829 0.950 . S
C805 C804 1.349 . S
C805 C821 1.349 . S
C806 C804 1.327 . S
C806 C825 1.429 . S
C806 H830 0.950 . S
C807 C824 1.574 . S
C807 C826 1.368 . S
C807 H831 0.949 . S
H808 C812 0.949 . S
C809 C810 1.349 . S
C809 C811 1.327 . S
C809 H832 0.950 . S
C810 C809 1.349 . S
C810 C822 1.349 . S
C811 C809 1.327 . S
C811 C827 1.429 . S
C811 H833 0.950 . S
C812 H808 0.949 . S
C812 C820 1.574 . S
C812 C828 1.368 . S
H813 C821 0.950 . S
H814 C819 0.950 . S
H815 C820 0.949 . S
H816 C822 0.950 . S
H817 C823 0.950 . S
H818 C824 0.949 . S
C819 H814 0.950 . S
C819 C821 1.327 . S
C819 C825 1.429 . S
C820 C812 1.574 . S
C820 H815 0.949 . S
C820 C826 1.368 . S
C821 C805 1.349 . S
C821 H813 0.950 . S
C821 C819 1.327 . S
C822 C810 1.349 . S
C822 H816 0.950 . S
C822 C823 1.327 . S
C823 H817 0.950 . S
C823 C822 1.327 . S
C823 C827 1.429 . S
C824 C807 1.574 . S
C824 H818 0.949 . S
C824 C828 1.368 . S
C825 C806 1.429 . S
C825 C819 1.429 . S
C825 C826 1.523 . S
C826 C807 1.368 . S
C826 C820 1.368 . S
C826 C825 1.523 . S
C827 C811 1.429 . S
C827 C823 1.429 . S
C827 C828 1.523 . S
C828 C812 1.368 . S
C828 C824 1.368 . S
C828 C827 1.523 . S
H829 C804 0.950 . S
H830 C806 0.950 . S
H831 C807 0.949 . S
H832 C809 0.950 . S
H833 C811 0.950 . S
C834 C835 1.349 . S
C834 C836 1.327 1_455 S
C834 H859 0.950 . S
C835 C834 1.349 . S
C835 C851 1.349 . S
C836 C834 1.327 1_655 S
C836 C855 1.429 . S
C836 H860 0.950 . S
C837 C854 1.574 . S
C837 C856 1.368 1_545 S
C837 H861 0.949 . S
H838 C842 0.949 . S
C839 C840 1.349 . S
C839 C841 1.327 . S
C839 H862 0.950 . S
C840 C839 1.349 . S
C840 C852 1.349 . S
C841 C839 1.327 . S
C841 C857 1.429 . S
C841 H863 0.950 . S
C842 H838 0.949 . S
C842 C850 1.574 . S
C842 C858 1.368 1_565 S
H843 C851 0.950 . S
H844 C849 0.950 1_545 S
H845 C850 0.949 . S
H846 C852 0.950 . S
H847 C853 0.950 1_565 S
H848 C854 0.949 . S
C849 H844 0.950 1_565 S
C849 C851 1.327 . S
C849 C855 1.429 1_455 S
C850 C842 1.574 . S
C850 H845 0.949 . S
C850 C856 1.368 . S
C851 C835 1.349 . S
C851 H843 0.950 . S
C851 C849 1.327 . S
C852 C840 1.349 . S
C852 H846 0.950 . S
C852 C853 1.327 . S
C853 H847 0.950 1_545 S
C853 C852 1.327 . S
C853 C857 1.429 . S
C854 C837 1.574 . S
C854 H848 0.949 . S
C854 C858 1.368 . S
C855 C836 1.429 . S
C855 C849 1.429 1_655 S
C855 C856 1.523 . S
C856 C837 1.368 1_565 S
C856 C850 1.368 . S
C856 C855 1.523 . S
C857 C841 1.429 . S
C857 C853 1.429 . S
C857 C858 1.523 . S
C858 C842 1.368 1_545 S
C858 C854 1.368 . S
C858 C857 1.523 . S
H859 C834 0.950 . S
H860 C836 0.950 . S
H861 C837 0.949 . S
H862 C839 0.950 . S
H863 C841 0.950 . S
C864 C865 1.349 . S
C864 C866 1.327 . S
C864 H889 0.950 . S
C865 C864 1.349 . S
C865 C881 1.349 . S
C866 C864 1.327 . S
C866 C885 1.429 . S
C866 H890 0.950 . S
C867 C884 1.574 . S
C867 C886 1.368 . S
C867 H891 0.949 . S
H868 C872 0.949 . S
C869 C870 1.349 . S
C869 C871 1.327 . S
C869 H892 0.950 . S
C870 C869 1.349 . S
C870 C882 1.349 . S
C871 C869 1.327 . S
C871 C887 1.429 . S
C871 H893 0.950 . S
C872 H868 0.949 . S
C872 C880 1.574 . S
C872 C888 1.368 . S
H873 C881 0.950 . S
H874 C879 0.950 . S
H875 C880 0.949 . S
H876 C882 0.950 . S
H877 C883 0.950 . S
H878 C884 0.949 . S
C879 H874 0.950 . S
C879 C881 1.327 . S
C879 C885 1.429 . S
C880 C872 1.574 . S
C880 H875 0.949 . S
C880 C886 1.368 . S
C881 C865 1.349 . S
C881 H873 0.950 . S
C881 C879 1.327 . S
C882 C870 1.349 . S
C882 H876 0.950 . S
C882 C883 1.327 . S
C883 H877 0.950 . S
C883 C882 1.327 . S
C883 C887 1.429 . S
C884 C867 1.574 . S
C884 H878 0.949 . S
C884 C888 1.368 . S
C885 C866 1.429 . S
C885 C879 1.429 . S
C885 C886 1.523 . S
C886 C867 1.368 . S
C886 C880 1.368 . S
C886 C885 1.523 . S
C887 C871 1.429 . S
C887 C883 1.429 . S
C887 C888 1.523 . S
C888 C872 1.368 . S
C888 C884 1.368 . S
C888 C887 1.523 . S
H889 C864 0.950 . S
H890 C866 0.950 . S
H891 C867 0.949 . S
H892 C869 0.950 . S
H893 C871 0.950 . S
C894 C895 1.349 . S
C894 C896 1.327 . S
C894 H919 0.950 . S
C895 C894 1.349 . S
C895 C911 1.349 . S
C896 C894 1.327 . S
C896 C915 1.429 . S
C896 H920 0.950 . S
C897 C914 1.574 . S
C897 C916 1.368 . S
C897 H921 0.949 . S
H898 C902 0.949 . S
C899 C900 1.349 . S
C899 C901 1.327 . S
C899 H922 0.950 . S
C900 C899 1.349 . S
C900 C912 1.349 . S
C901 C899 1.327 . S
C901 C917 1.429 . S
C901 H923 0.950 . S
C902 H898 0.949 . S
C902 C910 1.574 . S
C902 C918 1.368 . S
H903 C911 0.950 . S
H904 C909 0.950 . S
H905 C910 0.949 . S
H906 C912 0.950 . S
H907 C913 0.950 . S
H908 C914 0.949 . S
C909 H904 0.950 . S
C909 C911 1.327 . S
C909 C915 1.429 . S
C910 C902 1.574 . S
C910 H905 0.949 . S
C910 C916 1.368 . S
C911 C895 1.349 . S
C911 H903 0.950 . S
C911 C909 1.327 . S
C912 C900 1.349 . S
C912 H906 0.950 . S
C912 C913 1.327 . S
C913 H907 0.950 . S
C913 C912 1.327 . S
C913 C917 1.429 . S
C914 C897 1.574 . S
C914 H908 0.949 . S
C914 C918 1.368 . S
C915 C896 1.429 . S
C915 C909 1.429 . S
C915 C916 1.523 . S
C916 C897 1.368 . S
C916 C910 1.368 . S
C916 C915 1.523 . S
C917 C901 1.429 . S
C917 C913 1.429 . S
C917 C918 1.523 . S
C918 C902 1.368 . S
C918 C914 1.368 . S
C918 C917 1.523 . S
H919 C894 0.950 . S
H920 C896 0.950 . S
H921 C897 0.949 . S
H922 C899 0.950 . S
H923 C901 0.950 . S
C924 C925 1.349 . S
C924 C926 1.327 . S
C924 H949 0.950 . S
C925 C924 1.349 . S
C925 C941 1.349 . S
C926 C924 1.327 . S
C926 C945 1.429 . S
C926 H950 0.950 . S
C927 C944 1.574 . S
C927 C946 1.368 . S
C927 H951 0.949 . S
H928 C932 0.949 . S
C929 C930 1.349 . S
C929 C931 1.327 . S
C929 H952 0.950 . S
C930 C929 1.349 . S
C930 C942 1.349 . S
C931 C929 1.327 . S
C931 C947 1.429 . S
C931 H953 0.950 . S
C932 H928 0.949 . S
C932 C940 1.574 . S
C932 C948 1.368 . S
H933 C941 0.950 . S
H934 C939 0.950 . S
H935 C940 0.949 . S
H936 C942 0.950 . S
H937 C943 0.950 . S
H938 C944 0.949 . S
C939 H934 0.950 . S
C939 C941 1.327 . S
C939 C945 1.429 . S
C940 C932 1.574 . S
C940 H935 0.949 . S
C940 C946 1.368 . S
C941 C925 1.349 . S
C941 H933 0.950 . S
C941 C939 1.327 . S
C942 C930 1.349 . S
C942 H936 0.950 . S
C942 C943 1.327 . S
C943 H937 0.950 . S
C943 C942 1.327 . S
C943 C947 1.429 . S
C944 C927 1.574 . S
C944 H938 0.949 . S
C944 C948 1.368 . S
C945 C926 1.429 . S
C945 C939 1.429 . S
C945 C946 1.523 . S
C946 C927 1.368 . S
C946 C940 1.368 . S
C946 C945 1.523 . S
C947 C931 1.429 . S
C947 C943 1.429 . S
C947 C948 1.523 . S
C948 C932 1.368 . S
C948 C944 1.368 . S
C948 C947 1.523 . S
H949 C924 0.950 . S
H950 C926 0.950 . S
H951 C927 0.949 . S
H952 C929 0.950 . S
H953 C931 0.950 . S
C954 C955 1.349 . S
C954 C956 1.327 . S
C954 H979 0.950 . S
C955 C954 1.349 . S
C955 C971 1.349 . S
C956 C954 1.327 . S
C956 C975 1.429 . S
C956 H980 0.950 . S
C957 C974 1.574 . S
C957 C976 1.368 . S
C957 H981 0.949 . S
H958 C962 0.949 . S
C959 C960 1.349 . S
C959 C961 1.327 . S
C959 H982 0.950 1_565 S
C960 C959 1.349 . S
C960 C972 1.349 . S
C961 C959 1.327 . S
C961 C977 1.429 . S
C961 H983 0.950 . S
C962 H958 0.949 . S
C962 C970 1.574 . S
C962 C978 1.368 . S
H963 C971 0.950 . S
H964 C969 0.950 . S
H965 C970 0.949 . S
H966 C972 0.950 . S
H967 C973 0.950 . S
H968 C974 0.949 . S
C969 H964 0.950 . S
C969 C971 1.327 . S
C969 C975 1.429 . S
C970 C962 1.574 . S
C970 H965 0.949 . S
C970 C976 1.368 . S
C971 C955 1.349 . S
C971 H963 0.950 . S
C971 C969 1.327 . S
C972 C960 1.349 . S
C972 H966 0.950 . S
C972 C973 1.327 . S
C973 H967 0.950 . S
C973 C972 1.327 . S
C973 C977 1.429 . S
C974 C957 1.574 . S
C974 H968 0.949 . S
C974 C978 1.368 . S
C975 C956 1.429 . S
C975 C969 1.429 . S
C975 C976 1.523 . S
C976 C957 1.368 . S
C976 C970 1.368 . S
C976 C975 1.523 . S
C977 C961 1.429 . S
C977 C973 1.429 . S
C977 C978 1.523 . S
C978 C962 1.368 . S
C978 C974 1.368 . S
C978 C977 1.523 . S
H979 C954 0.950 . S
H980 C956 0.950 . S
H981 C957 0.949 . S
H982 C959 0.950 1_545 S
H983 C961 0.950 . S
C984 C985 1.349 . S
C984 C986 1.327 . S
C984 H1009 0.950 . S
C985 C984 1.349 . S
C985 C1001 1.349 . S
C986 C984 1.327 . S
C986 C1005 1.429 . S
C986 H1010 0.950 . S
C987 C1004 1.574 . S
C987 C1006 1.368 . S
C987 H1011 0.949 . S
H988 C992 0.949 . S
C989 C990 1.349 . S
C989 C991 1.327 . S
C989 H1012 0.950 . S
C990 C989 1.349 . S
C990 C1002 1.349 . S
C991 C989 1.327 . S
C991 C1007 1.429 . S
C991 H1013 0.950 . S
C992 H988 0.949 . S
C992 C1000 1.574 . S
C992 C1008 1.368 . S
H993 C1001 0.950 . S
H994 C999 0.950 . S
H995 C1000 0.949 . S
H996 C1002 0.950 . S
H997 C1003 0.950 . S
H998 C1004 0.949 . S
C999 H994 0.950 . S
C999 C1001 1.327 . S
C999 C1005 1.429 . S
C1000 C992 1.574 . S
C1000 H995 0.949 . S
C1000 C1006 1.368 . S
C1001 C985 1.349 . S
C1001 H993 0.950 . S
C1001 C999 1.327 . S
C1002 C990 1.349 . S
C1002 H996 0.950 . S
C1002 C1003 1.327 . S
C1003 H997 0.950 . S
C1003 C1002 1.327 . S
C1003 C1007 1.429 . S
C1004 C987 1.574 . S
C1004 H998 0.949 . S
C1004 C1008 1.368 . S
C1005 C986 1.429 . S
C1005 C999 1.429 . S
C1005 C1006 1.523 . S
C1006 C987 1.368 . S
C1006 C1000 1.368 . S
C1006 C1005 1.523 . S
C1007 C991 1.429 . S
C1007 C1003 1.429 . S
C1007 C1008 1.523 . S
C1008 C992 1.368 . S
C1008 C1004 1.368 . S
C1008 C1007 1.523 . S
H1009 C984 0.950 . S
H1010 C986 0.950 . S
H1011 C987 0.949 . S
H1012 C989 0.950 . S
H1013 C991 0.950 . S
C1014 C1015 1.349 . S
C1014 C1016 1.327 . S
C1014 H1039 0.950 . S
C1015 C1014 1.349 . S
C1015 C1031 1.349 . S
C1016 C1014 1.327 . S
C1016 C1035 1.429 . S
C1016 H1040 0.950 . S
C1017 C1034 1.574 . S
C1017 C1036 1.368 . S
C1017 H1041 0.949 . S
H1018 C1022 0.949 . S
C1019 C1020 1.349 . S
C1019 C1021 1.327 . S
C1019 H1042 0.950 . S
C1020 C1019 1.349 . S
C1020 C1032 1.349 . S
C1021 C1019 1.327 . S
C1021 C1037 1.429 . S
C1021 H1043 0.950 . S
C1022 H1018 0.949 . S
C1022 C1030 1.574 . S
C1022 C1038 1.368 . S
H1023 C1031 0.950 . S
H1024 C1029 0.950 . S
H1025 C1030 0.949 . S
H1026 C1032 0.950 . S
H1027 C1033 0.950 . S
H1028 C1034 0.949 . S
C1029 H1024 0.950 . S
C1029 C1031 1.327 . S
C1029 C1035 1.429 . S
C1030 C1022 1.574 . S
C1030 H1025 0.949 . S
C1030 C1036 1.368 . S
C1031 C1015 1.349 . S
C1031 H1023 0.950 . S
C1031 C1029 1.327 . S
C1032 C1020 1.349 . S
C1032 H1026 0.950 . S
C1032 C1033 1.327 . S
C1033 H1027 0.950 . S
C1033 C1032 1.327 . S
C1033 C1037 1.429 . S
C1034 C1017 1.574 . S
C1034 H1028 0.949 . S
C1034 C1038 1.368 . S
C1035 C1016 1.429 . S
C1035 C1029 1.429 . S
C1035 C1036 1.523 . S
C1036 C1017 1.368 . S
C1036 C1030 1.368 . S
C1036 C1035 1.523 . S
C1037 C1021 1.429 . S
C1037 C1033 1.429 . S
C1037 C1038 1.523 . S
C1038 C1022 1.368 . S
C1038 C1034 1.368 . S
C1038 C1037 1.523 . S
H1039 C1014 0.950 . S
H1040 C1016 0.950 . S
H1041 C1017 0.949 . S
H1042 C1019 0.950 . S
H1043 C1021 0.950 . S
C1044 C1045 1.349 . S
C1044 C1046 1.327 . S
C1044 H1069 0.950 . S
C1045 C1044 1.349 . S
C1045 C1061 1.349 . S
C1046 C1044 1.327 . S
C1046 C1065 1.429 . S
C1046 H1070 0.950 . S
C1047 C1064 1.574 . S
C1047 C1066 1.368 . S
C1047 H1071 0.949 . S
H1048 C1052 0.949 . S
C1049 C1050 1.349 . S
C1049 C1051 1.327 . S
C1049 H1072 0.950 . S
C1050 C1049 1.349 . S
C1050 C1062 1.349 . S
C1051 C1049 1.327 . S
C1051 C1067 1.429 . S
C1051 H1073 0.950 . S
C1052 H1048 0.949 . S
C1052 C1060 1.574 . S
C1052 C1068 1.368 . S
H1053 C1061 0.950 . S
H1054 C1059 0.950 . S
H1055 C1060 0.949 . S
H1056 C1062 0.950 . S
H1057 C1063 0.950 . S
H1058 C1064 0.949 . S
C1059 H1054 0.950 . S
C1059 C1061 1.327 . S
C1059 C1065 1.429 . S
C1060 C1052 1.574 . S
C1060 H1055 0.949 . S
C1060 C1066 1.368 . S
C1061 C1045 1.349 . S
C1061 H1053 0.950 . S
C1061 C1059 1.327 . S
C1062 C1050 1.349 . S
C1062 H1056 0.950 . S
C1062 C1063 1.327 . S
C1063 H1057 0.950 . S
C1063 C1062 1.327 . S
C1063 C1067 1.429 . S
C1064 C1047 1.574 . S
C1064 H1058 0.949 . S
C1064 C1068 1.368 . S
C1065 C1046 1.429 . S
C1065 C1059 1.429 . S
C1065 C1066 1.523 . S
C1066 C1047 1.368 . S
C1066 C1060 1.368 . S
C1066 C1065 1.523 . S
C1067 C1051 1.429 . S
C1067 C1063 1.429 . S
C1067 C1068 1.523 . S
C1068 C1052 1.368 . S
C1068 C1064 1.368 . S
C1068 C1067 1.523 . S
H1069 C1044 0.950 . S
H1070 C1046 0.950 . S
H1071 C1047 0.949 . S
H1072 C1049 0.950 . S
H1073 C1051 0.950 . S
C1074 C1075 1.349 . S
C1074 C1076 1.327 . S
C1074 H1099 0.950 . S
C1075 C1074 1.349 . S
C1075 C1091 1.349 . S
C1076 C1074 1.327 . S
C1076 C1095 1.429 . S
C1076 H1100 0.950 . S
C1077 C1094 1.574 . S
C1077 C1096 1.368 . S
C1077 H1101 0.949 . S
H1078 C1082 0.949 . S
C1079 C1080 1.349 . S
C1079 C1081 1.327 . S
C1079 H1102 0.950 . S
C1080 C1079 1.349 . S
C1080 C1092 1.349 . S
C1081 C1079 1.327 . S
C1081 C1097 1.429 . S
C1081 H1103 0.950 . S
C1082 H1078 0.949 . S
C1082 C1090 1.574 . S
C1082 C1098 1.368 . S
H1083 C1091 0.950 . S
H1084 C1089 0.950 . S
H1085 C1090 0.949 . S
H1086 C1092 0.950 . S
H1087 C1093 0.950 . S
H1088 C1094 0.949 . S
C1089 H1084 0.950 . S
C1089 C1091 1.327 . S
C1089 C1095 1.429 . S
C1090 C1082 1.574 . S
C1090 H1085 0.949 . S
C1090 C1096 1.368 . S
C1091 C1075 1.349 . S
C1091 H1083 0.950 . S
C1091 C1089 1.327 . S
C1092 C1080 1.349 . S
C1092 H1086 0.950 . S
C1092 C1093 1.327 . S
C1093 H1087 0.950 . S
C1093 C1092 1.327 . S
C1093 C1097 1.429 . S
C1094 C1077 1.574 . S
C1094 H1088 0.949 . S
C1094 C1098 1.368 . S
C1095 C1076 1.429 . S
C1095 C1089 1.429 . S
C1095 C1096 1.523 . S
C1096 C1077 1.368 . S
C1096 C1090 1.368 . S
C1096 C1095 1.523 . S
C1097 C1081 1.429 . S
C1097 C1093 1.429 . S
C1097 C1098 1.523 . S
C1098 C1082 1.368 . S
C1098 C1094 1.368 . S
C1098 C1097 1.523 . S
H1099 C1074 0.950 . S
H1100 C1076 0.950 . S
H1101 C1077 0.949 . S
H1102 C1079 0.950 . S
H1103 C1081 0.950 . S
C1104 C1105 1.349 . S
C1104 C1106 1.327 . S
C1104 H1129 0.950 . S
C1105 C1104 1.349 . S
C1105 C1121 1.349 . S
C1106 C1104 1.327 . S
C1106 C1125 1.429 . S
C1106 H1130 0.950 . S
C1107 C1124 1.574 . S
C1107 C1126 1.368 . S
C1107 H1131 0.949 . S
H1108 C1112 0.949 . S
C1109 C1110 1.349 . S
C1109 C1111 1.327 . S
C1109 H1132 0.950 . S
C1110 C1109 1.349 . S
C1110 C1122 1.349 . S
C1111 C1109 1.327 . S
C1111 C1127 1.429 . S
C1111 H1133 0.950 . S
C1112 H1108 0.949 . S
C1112 C1120 1.574 . S
C1112 C1128 1.368 . S
H1113 C1121 0.950 . S
H1114 C1119 0.950 . S
H1115 C1120 0.949 . S
H1116 C1122 0.950 . S
H1117 C1123 0.950 . S
H1118 C1124 0.949 . S
C1119 H1114 0.950 . S
C1119 C1121 1.327 . S
C1119 C1125 1.429 . S
C1120 C1112 1.574 . S
C1120 H1115 0.949 . S
C1120 C1126 1.368 . S
C1121 C1105 1.349 . S
C1121 H1113 0.950 . S
C1121 C1119 1.327 . S
C1122 C1110 1.349 . S
C1122 H1116 0.950 . S
C1122 C1123 1.327 . S
C1123 H1117 0.950 . S
C1123 C1122 1.327 . S
C1123 C1127 1.429 . S
C1124 C1107 1.574 . S
C1124 H1118 0.949 . S
C1124 C1128 1.368 . S
C1125 C1106 1.429 . S
C1125 C1119 1.429 . S
C1125 C1126 1.523 . S
C1126 C1107 1.368 . S
C1126 C1120 1.368 . S
C1126 C1125 1.523 . S
C1127 C1111 1.429 . S
C1127 C1123 1.429 . S
C1127 C1128 1.523 . S
C1128 C1112 1.368 . S
C1128 C1124 1.368 . S
C1128 C1127 1.523 . S
H1129 C1104 0.950 . S
H1130 C1106 0.950 . S
H1131 C1107 0.949 . S
H1132 C1109 0.950 . S
H1133 C1111 0.950 . S
C1134 C1135 1.349 . S
C1134 C1136 1.327 . S
C1134 H1159 0.950 . S
C1135 C1134 1.349 . S
C1135 C1151 1.349 . S
C1136 C1134 1.327 . S
C1136 C1155 1.429 . S
C1136 H1160 0.950 . S
C1137 C1154 1.574 . S
C1137 C1156 1.368 . S
C1137 H1161 0.949 . S
H1138 C1142 0.949 . S
C1139 C1140 1.349 . S
C1139 C1141 1.327 . S
C1139 H1162 0.950 . S
C1140 C1139 1.349 . S
C1140 C1152 1.349 . S
C1141 C1139 1.327 . S
C1141 C1157 1.429 . S
C1141 H1163 0.950 . S
C1142 H1138 0.949 . S
C1142 C1150 1.574 . S
C1142 C1158 1.368 . S
H1143 C1151 0.950 . S
H1144 C1149 0.950 . S
H1145 C1150 0.949 . S
H1146 C1152 0.950 . S
H1147 C1153 0.950 . S
H1148 C1154 0.949 . S
C1149 H1144 0.950 . S
C1149 C1151 1.327 . S
C1149 C1155 1.429 . S
C1150 C1142 1.574 . S
C1150 H1145 0.949 . S
C1150 C1156 1.368 . S
C1151 C1135 1.349 . S
C1151 H1143 0.950 . S
C1151 C1149 1.327 . S
C1152 C1140 1.349 . S
C1152 H1146 0.950 . S
C1152 C1153 1.327 . S
C1153 H1147 0.950 . S
C1153 C1152 1.327 . S
C1153 C1157 1.429 . S
C1154 C1137 1.574 . S
C1154 H1148 0.949 . S
C1154 C1158 1.368 . S
C1155 C1136 1.429 . S
C1155 C1149 1.429 . S
C1155 C1156 1.523 . S
C1156 C1137 1.368 . S
C1156 C1150 1.368 . S
C1156 C1155 1.523 . S
C1157 C1141 1.429 . S
C1157 C1153 1.429 . S
C1157 C1158 1.523 . S
C1158 C1142 1.368 . S
C1158 C1154 1.368 . S
C1158 C1157 1.523 . S
H1159 C1134 0.950 . S
H1160 C1136 0.950 . S
H1161 C1137 0.949 . S
H1162 C1139 0.950 . S
H1163 C1141 0.950 . S
C1164 C1165 1.349 . S
C1164 C1166 1.327 . S
C1164 H1189 0.950 . S
C1165 C1164 1.349 . S
C1165 C1181 1.349 . S
C1166 C1164 1.327 . S
C1166 C1185 1.429 . S
C1166 H1190 0.950 . S
C1167 C1184 1.574 . S
C1167 C1186 1.368 . S
C1167 H1191 0.949 . S
H1168 C1172 0.949 . S
C1169 C1170 1.349 . S
C1169 C1171 1.327 . S
C1169 H1192 0.950 . S
C1170 C1169 1.349 . S
C1170 C1182 1.349 . S
C1171 C1169 1.327 . S
C1171 C1187 1.429 . S
C1171 H1193 0.950 . S
C1172 H1168 0.949 . S
C1172 C1180 1.574 . S
C1172 C1188 1.368 . S
H1173 C1181 0.950 . S
H1174 C1179 0.950 . S
H1175 C1180 0.949 . S
H1176 C1182 0.950 . S
H1177 C1183 0.950 . S
H1178 C1184 0.949 . S
C1179 H1174 0.950 . S
C1179 C1181 1.327 . S
C1179 C1185 1.429 . S
C1180 C1172 1.574 . S
C1180 H1175 0.949 . S
C1180 C1186 1.368 . S
C1181 C1165 1.349 . S
C1181 H1173 0.950 . S
C1181 C1179 1.327 . S
C1182 C1170 1.349 . S
C1182 H1176 0.950 . S
C1182 C1183 1.327 . S
C1183 H1177 0.950 . S
C1183 C1182 1.327 . S
C1183 C1187 1.429 . S
C1184 C1167 1.574 . S
C1184 H1178 0.949 . S
C1184 C1188 1.368 . S
C1185 C1166 1.429 . S
C1185 C1179 1.429 . S
C1185 C1186 1.523 . S
C1186 C1167 1.368 . S
C1186 C1180 1.368 . S
C1186 C1185 1.523 . S
C1187 C1171 1.429 . S
C1187 C1183 1.429 . S
C1187 C1188 1.523 . S
C1188 C1172 1.368 . S
C1188 C1184 1.368 . S
C1188 C1187 1.523 . S
H1189 C1164 0.950 . S
H1190 C1166 0.950 . S
H1191 C1167 0.949 . S
H1192 C1169 0.950 . S
H1193 C1171 0.950 . S
C1194 C1195 1.349 . S
C1194 C1196 1.327 . S
C1194 H1219 0.950 . S
C1195 C1194 1.349 . S
C1195 C1211 1.349 . S
C1196 C1194 1.327 . S
C1196 C1215 1.429 . S
C1196 H1220 0.950 . S
C1197 C1214 1.574 . S
C1197 C1216 1.368 . S
C1197 H1221 0.949 . S
H1198 C1202 0.949 . S
C1199 C1200 1.349 . S
C1199 C1201 1.327 . S
C1199 H1222 0.950 . S
C1200 C1199 1.349 . S
C1200 C1212 1.349 . S
C1201 C1199 1.327 . S
C1201 C1217 1.429 . S
C1201 H1223 0.950 . S
C1202 H1198 0.949 . S
C1202 C1210 1.574 . S
C1202 C1218 1.368 . S
H1203 C1211 0.950 . S
H1204 C1209 0.950 . S
H1205 C1210 0.949 . S
H1206 C1212 0.950 . S
H1207 C1213 0.950 . S
H1208 C1214 0.949 . S
C1209 H1204 0.950 . S
C1209 C1211 1.327 . S
C1209 C1215 1.429 . S
C1210 C1202 1.574 . S
C1210 H1205 0.949 . S
C1210 C1216 1.368 . S
C1211 C1195 1.349 . S
C1211 H1203 0.950 . S
C1211 C1209 1.327 . S
C1212 C1200 1.349 . S
C1212 H1206 0.950 . S
C1212 C1213 1.327 . S
C1213 H1207 0.950 . S
C1213 C1212 1.327 . S
C1213 C1217 1.429 . S
C1214 C1197 1.574 . S
C1214 H1208 0.949 . S
C1214 C1218 1.368 . S
C1215 C1196 1.429 . S
C1215 C1209 1.429 . S
C1215 C1216 1.523 . S
C1216 C1197 1.368 . S
C1216 C1210 1.368 . S
C1216 C1215 1.523 . S
C1217 C1201 1.429 . S
C1217 C1213 1.429 . S
C1217 C1218 1.523 . S
C1218 C1202 1.368 . S
C1218 C1214 1.368 . S
C1218 C1217 1.523 . S
H1219 C1194 0.950 . S
H1220 C1196 0.950 . S
H1221 C1197 0.949 . S
H1222 C1199 0.950 . S
H1223 C1201 0.950 . S
C1224 C1225 1.349 . S
C1224 C1226 1.327 . S
C1224 H1249 0.950 . S
C1225 C1224 1.349 . S
C1225 C1241 1.349 . S
C1226 C1224 1.327 . S
C1226 C1245 1.429 . S
C1226 H1250 0.950 . S
C1227 C1244 1.574 . S
C1227 C1246 1.368 . S
C1227 H1251 0.949 . S
H1228 C1232 0.949 . S
C1229 C1230 1.349 . S
C1229 C1231 1.327 . S
C1229 H1252 0.950 . S
C1230 C1229 1.349 . S
C1230 C1242 1.349 . S
C1231 C1229 1.327 . S
C1231 C1247 1.429 1_545 S
C1231 H1253 0.950 . S
C1232 H1228 0.949 . S
C1232 C1240 1.574 . S
C1232 C1248 1.368 . S
H1233 C1241 0.950 . S
H1234 C1239 0.950 . S
H1235 C1240 0.949 . S
H1236 C1242 0.950 . S
H1237 C1243 0.950 . S
H1238 C1244 0.949 . S
C1239 H1234 0.950 . S
C1239 C1241 1.327 . S
C1239 C1245 1.429 . S
C1240 C1232 1.574 . S
C1240 H1235 0.949 . S
C1240 C1246 1.368 . S
C1241 C1225 1.349 . S
C1241 H1233 0.950 . S
C1241 C1239 1.327 . S
C1242 C1230 1.349 . S
C1242 H1236 0.950 . S
C1242 C1243 1.327 1_545 S
C1243 H1237 0.950 . S
C1243 C1242 1.327 1_565 S
C1243 C1247 1.429 . S
C1244 C1227 1.574 . S
C1244 H1238 0.949 . S
C1244 C1248 1.368 . S
C1245 C1226 1.429 . S
C1245 C1239 1.429 . S
C1245 C1246 1.523 . S
C1246 C1227 1.368 . S
C1246 C1240 1.368 . S
C1246 C1245 1.523 . S
C1247 C1231 1.429 1_565 S
C1247 C1243 1.429 . S
C1247 C1248 1.523 . S
C1248 C1232 1.368 . S
C1248 C1244 1.368 . S
C1248 C1247 1.523 . S
H1249 C1224 0.950 . S
H1250 C1226 0.950 . S
H1251 C1227 0.949 . S
H1252 C1229 0.950 . S
H1253 C1231 0.950 . S
C1254 C1255 1.349 . S
C1254 C1256 1.327 . S
C1254 H1279 0.950 . S
C1255 C1254 1.349 . S
C1255 C1271 1.349 . S
C1256 C1254 1.327 . S
C1256 C1275 1.429 . S
C1256 H1280 0.950 . S
C1257 C1274 1.574 . S
C1257 C1276 1.368 . S
C1257 H1281 0.949 . S
H1258 C1262 0.949 . S
C1259 C1260 1.349 . S
C1259 C1261 1.327 . S
C1259 H1282 0.950 . S
C1260 C1259 1.349 . S
C1260 C1272 1.349 . S
C1261 C1259 1.327 . S
C1261 C1277 1.429 . S
C1261 H1283 0.950 . S
C1262 H1258 0.949 . S
C1262 C1270 1.574 . S
C1262 C1278 1.368 . S
H1263 C1271 0.950 . S
H1264 C1269 0.950 . S
H1265 C1270 0.949 . S
H1266 C1272 0.950 . S
H1267 C1273 0.950 . S
H1268 C1274 0.949 . S
C1269 H1264 0.950 . S
C1269 C1271 1.327 . S
C1269 C1275 1.429 . S
C1270 C1262 1.574 . S
C1270 H1265 0.949 . S
C1270 C1276 1.368 . S
C1271 C1255 1.349 . S
C1271 H1263 0.950 . S
C1271 C1269 1.327 . S
C1272 C1260 1.349 . S
C1272 H1266 0.950 . S
C1272 C1273 1.327 . S
C1273 H1267 0.950 . S
C1273 C1272 1.327 . S
C1273 C1277 1.429 . S
C1274 C1257 1.574 . S
C1274 H1268 0.949 . S
C1274 C1278 1.368 . S
C1275 C1256 1.429 . S
C1275 C1269 1.429 . S
C1275 C1276 1.523 . S
C1276 C1257 1.368 . S
C1276 C1270 1.368 . S
C1276 C1275 1.523 . S
C1277 C1261 1.429 . S
C1277 C1273 1.429 . S
C1277 C1278 1.523 . S
C1278 C1262 1.368 . S
C1278 C1274 1.368 . S
C1278 C1277 1.523 . S
H1279 C1254 0.950 . S
H1280 C1256 0.950 . S
H1281 C1257 0.949 . S
H1282 C1259 0.950 . S
H1283 C1261 0.950 . S
C1284 C1285 1.349 . S
C1284 C1286 1.327 . S
C1284 H1309 0.950 . S
C1285 C1284 1.349 . S
C1285 C1301 1.349 . S
C1286 C1284 1.327 . S
C1286 C1305 1.429 . S
C1286 H1310 0.950 . S
C1287 C1304 1.574 . S
C1287 C1306 1.368 1_565 S
C1287 H1311 0.949 . S
H1288 C1292 0.950 . S
C1289 C1290 1.349 . S
C1289 C1291 1.327 . S
C1289 H1312 0.950 . S
C1290 C1289 1.349 . S
C1290 C1302 1.349 . S
C1291 C1289 1.327 . S
C1291 C1307 1.429 . S
C1291 H1313 0.950 1_554 S
C1292 H1288 0.950 . S
C1292 C1300 1.576 1_554 S
C1292 C1308 1.366 1_544 S
H1293 C1301 0.950 . S
H1294 C1299 0.950 . S
H1295 C1300 0.949 . S
H1296 C1302 0.950 . S
H1297 C1303 0.950 . S
H1298 C1304 0.949 . S
C1299 H1294 0.950 . S
C1299 C1301 1.327 . S
C1299 C1305 1.429 . S
C1300 C1292 1.576 1_556 S
C1300 H1295 0.949 . S
C1300 C1306 1.368 . S
C1301 C1285 1.349 . S
C1301 H1293 0.950 . S
C1301 C1299 1.327 . S
C1302 C1290 1.349 . S
C1302 H1296 0.950 . S
C1302 C1303 1.327 . S
C1303 H1297 0.950 . S
C1303 C1302 1.327 . S
C1303 C1307 1.429 . S
C1304 C1287 1.574 . S
C1304 H1298 0.949 . S
C1304 C1308 1.368 . S
C1305 C1286 1.429 . S
C1305 C1299 1.429 . S
C1305 C1306 1.523 . S
C1306 C1287 1.368 1_545 S
C1306 C1300 1.368 . S
C1306 C1305 1.523 . S
C1307 C1291 1.429 . S
C1307 C1303 1.429 . S
C1307 C1308 1.523 1_554 S
C1308 C1292 1.366 1_566 S
C1308 C1304 1.368 . S
C1308 C1307 1.523 1_556 S
H1309 C1284 0.950 . S
H1310 C1286 0.950 . S
H1311 C1287 0.949 . S
H1312 C1289 0.950 . S
H1313 C1291 0.950 1_556 S
C1314 C1315 1.349 . S
C1314 C1316 1.327 . S
C1314 H1339 0.950 . S
C1315 C1314 1.349 . S
C1315 C1331 1.349 . S
C1316 C1314 1.327 . S
C1316 C1335 1.429 . S
C1316 H1340 0.950 . S
C1317 C1334 1.574 . S
C1317 C1336 1.368 . S
C1317 H1341 0.949 . S
H1318 C1322 0.949 . S
C1319 C1320 1.349 . S
C1319 C1321 1.327 . S
C1319 H1342 0.950 . S
C1320 C1319 1.349 . S
C1320 C1332 1.349 . S
C1321 C1319 1.327 . S
C1321 C1337 1.429 . S
C1321 H1343 0.950 . S
C1322 H1318 0.949 . S
C1322 C1330 1.574 . S
C1322 C1338 1.368 . S
H1323 C1331 0.950 . S
H1324 C1329 0.950 . S
H1325 C1330 0.949 . S
H1326 C1332 0.950 . S
H1327 C1333 0.950 . S
H1328 C1334 0.949 . S
C1329 H1324 0.950 . S
C1329 C1331 1.327 . S
C1329 C1335 1.429 . S
C1330 C1322 1.574 . S
C1330 H1325 0.949 . S
C1330 C1336 1.368 . S
C1331 C1315 1.349 . S
C1331 H1323 0.950 . S
C1331 C1329 1.327 . S
C1332 C1320 1.349 . S
C1332 H1326 0.950 . S
C1332 C1333 1.327 . S
C1333 H1327 0.950 . S
C1333 C1332 1.327 . S
C1333 C1337 1.429 . S
C1334 C1317 1.574 . S
C1334 H1328 0.949 . S
C1334 C1338 1.368 . S
C1335 C1316 1.429 . S
C1335 C1329 1.429 . S
C1335 C1336 1.523 . S
C1336 C1317 1.368 . S
C1336 C1330 1.368 . S
C1336 C1335 1.523 . S
C1337 C1321 1.429 . S
C1337 C1333 1.429 . S
C1337 C1338 1.523 . S
C1338 C1322 1.368 . S
C1338 C1334 1.368 . S
C1338 C1337 1.523 . S
H1339 C1314 0.950 . S
H1340 C1316 0.950 . S
H1341 C1317 0.949 . S
H1342 C1319 0.950 . S
H1343 C1321 0.950 . S
C1344 C1345 1.349 . S
C1344 C1346 1.327 . S
C1344 H1369 0.950 . S
C1345 C1344 1.349 . S
C1345 C1361 1.349 . S
C1346 C1344 1.327 . S
C1346 C1365 1.429 . S
C1346 H1370 0.950 . S
C1347 C1364 1.574 . S
C1347 C1366 1.368 . S
C1347 H1371 0.949 . S
H1348 C1352 0.949 . S
C1349 C1350 1.349 . S
C1349 C1351 1.327 . S
C1349 H1372 0.950 . S
C1350 C1349 1.349 . S
C1350 C1362 1.349 . S
C1351 C1349 1.327 . S
C1351 C1367 1.429 . S
C1351 H1373 0.950 . S
C1352 H1348 0.949 . S
C1352 C1360 1.574 . S
C1352 C1368 1.368 . S
H1353 C1361 0.950 . S
H1354 C1359 0.950 . S
H1355 C1360 0.949 . S
H1356 C1362 0.950 . S
H1357 C1363 0.950 . S
H1358 C1364 0.949 . S
C1359 H1354 0.950 . S
C1359 C1361 1.327 . S
C1359 C1365 1.429 . S
C1360 C1352 1.574 . S
C1360 H1355 0.949 . S
C1360 C1366 1.368 . S
C1361 C1345 1.349 . S
C1361 H1353 0.950 . S
C1361 C1359 1.327 . S
C1362 C1350 1.349 . S
C1362 H1356 0.950 . S
C1362 C1363 1.327 . S
C1363 H1357 0.950 . S
C1363 C1362 1.327 . S
C1363 C1367 1.429 . S
C1364 C1347 1.574 . S
C1364 H1358 0.949 . S
C1364 C1368 1.368 . S
C1365 C1346 1.429 . S
C1365 C1359 1.429 . S
C1365 C1366 1.523 . S
C1366 C1347 1.368 . S
C1366 C1360 1.368 . S
C1366 C1365 1.523 . S
C1367 C1351 1.429 . S
C1367 C1363 1.429 . S
C1367 C1368 1.523 . S
C1368 C1352 1.368 . S
C1368 C1364 1.368 . S
C1368 C1367 1.523 . S
H1369 C1344 0.950 . S
H1370 C1346 0.950 . S
H1371 C1347 0.949 . S
H1372 C1349 0.950 . S
H1373 C1351 0.950 . S
C1374 C1375 1.349 . S
C1374 C1376 1.327 . S
C1374 H1399 0.950 . S
C1375 C1374 1.349 . S
C1375 C1391 1.349 . S
C1376 C1374 1.327 . S
C1376 C1395 1.429 . S
C1376 H1400 0.950 . S
C1377 C1394 1.574 . S
C1377 C1396 1.368 . S
C1377 H1401 0.949 . S
H1378 C1382 0.949 . S
C1379 C1380 1.349 . S
C1379 C1381 1.327 . S
C1379 H1402 0.950 . S
C1380 C1379 1.349 . S
C1380 C1392 1.349 . S
C1381 C1379 1.327 . S
C1381 C1397 1.429 . S
C1381 H1403 0.950 . S
C1382 H1378 0.949 . S
C1382 C1390 1.574 . S
C1382 C1398 1.368 . S
H1383 C1391 0.950 . S
H1384 C1389 0.950 . S
H1385 C1390 0.949 . S
H1386 C1392 0.950 . S
H1387 C1393 0.950 . S
H1388 C1394 0.949 . S
C1389 H1384 0.950 . S
C1389 C1391 1.327 . S
C1389 C1395 1.429 . S
C1390 C1382 1.574 . S
C1390 H1385 0.949 . S
C1390 C1396 1.368 . S
C1391 C1375 1.349 . S
C1391 H1383 0.950 . S
C1391 C1389 1.327 . S
C1392 C1380 1.349 . S
C1392 H1386 0.950 . S
C1392 C1393 1.327 . S
C1393 H1387 0.950 . S
C1393 C1392 1.327 . S
C1393 C1397 1.429 . S
C1394 C1377 1.574 . S
C1394 H1388 0.949 . S
C1394 C1398 1.368 . S
C1395 C1376 1.429 . S
C1395 C1389 1.429 . S
C1395 C1396 1.523 . S
C1396 C1377 1.368 . S
C1396 C1390 1.368 . S
C1396 C1395 1.523 . S
C1397 C1381 1.429 . S
C1397 C1393 1.429 . S
C1397 C1398 1.523 . S
C1398 C1382 1.368 . S
C1398 C1394 1.368 . S
C1398 C1397 1.523 . S
H1399 C1374 0.950 . S
H1400 C1376 0.950 . S
H1401 C1377 0.949 . S
H1402 C1379 0.950 . S
H1403 C1381 0.950 . S
C1404 C1405 1.349 . S
C1404 C1406 1.333 1_565 S
C1404 H1429 0.950 . S
C1405 C1404 1.349 . S
C1405 C1421 1.349 . S
C1406 C1404 1.333 1_545 S
C1406 C1425 1.424 . S
C1406 H1430 0.948 . S
C1407 C1424 1.574 . S
C1407 C1426 1.368 . S
C1407 H1431 0.949 . S
H1408 C1412 0.949 . S
C1409 C1410 1.349 . S
C1409 C1411 1.327 . S
C1409 H1432 0.950 . S
C1410 C1409 1.349 . S
C1410 C1422 1.349 . S
C1411 C1409 1.327 . S
C1411 C1427 1.429 . S
C1411 H1433 0.950 . S
C1412 H1408 0.949 . S
C1412 C1420 1.574 . S
C1412 C1428 1.368 . S
H1413 C1421 0.950 . S
H1414 C1419 0.950 . S
H1415 C1420 0.949 . S
H1416 C1422 0.950 . S
H1417 C1423 0.950 . S
H1418 C1424 0.949 . S
C1419 H1414 0.950 . S
C1419 C1421 1.327 1_545 S
C1419 C1425 1.429 . S
C1420 C1412 1.574 . S
C1420 H1415 0.949 . S
C1420 C1426 1.368 . S
C1421 C1405 1.349 . S
C1421 H1413 0.950 . S
C1421 C1419 1.327 1_565 S
C1422 C1410 1.349 . S
C1422 H1416 0.950 . S
C1422 C1423 1.327 . S
C1423 H1417 0.950 . S
C1423 C1422 1.327 . S
C1423 C1427 1.429 . S
C1424 C1407 1.574 . S
C1424 H1418 0.949 . S
C1424 C1428 1.368 . S
C1425 C1406 1.424 . S
C1425 C1419 1.429 . S
C1425 C1426 1.523 . S
C1426 C1407 1.368 . S
C1426 C1420 1.368 . S
C1426 C1425 1.523 . S
C1427 C1411 1.429 . S
C1427 C1423 1.429 . S
C1427 C1428 1.523 . S
C1428 C1412 1.368 . S
C1428 C1424 1.368 . S
C1428 C1427 1.523 . S
H1429 C1404 0.950 . S
H1430 C1406 0.948 . S
H1431 C1407 0.949 . S
H1432 C1409 0.950 . S
H1433 C1411 0.950 . S
C1434 C1435 1.349 . S
C1434 C1436 1.327 . S
C1434 H1459 0.950 . S
C1435 C1434 1.349 . S
C1435 C1451 1.349 . S
C1436 C1434 1.327 . S
C1436 C1455 1.429 . S
C1436 H1460 0.950 . S
C1437 C1454 1.574 . S
C1437 C1456 1.368 . S
C1437 H1461 0.949 . S
H1438 C1442 0.949 . S
C1439 C1440 1.349 . S
C1439 C1441 1.327 . S
C1439 H1462 0.950 . S
C1440 C1439 1.349 . S
C1440 C1452 1.349 . S
C1441 C1439 1.327 . S
C1441 C1457 1.429 . S
C1441 H1463 0.950 . S
C1442 H1438 0.949 . S
C1442 C1450 1.574 . S
C1442 C1458 1.368 . S
H1443 C1451 0.950 . S
H1444 C1449 0.950 . S
H1445 C1450 0.949 . S
H1446 C1452 0.950 . S
H1447 C1453 0.950 . S
H1448 C1454 0.949 . S
C1449 H1444 0.950 . S
C1449 C1451 1.327 . S
C1449 C1455 1.429 . S
C1450 C1442 1.574 . S
C1450 H1445 0.949 . S
C1450 C1456 1.368 . S
C1451 C1435 1.349 . S
C1451 H1443 0.950 . S
C1451 C1449 1.327 . S
C1452 C1440 1.349 . S
C1452 H1446 0.950 . S
C1452 C1453 1.327 . S
C1453 H1447 0.950 . S
C1453 C1452 1.327 . S
C1453 C1457 1.429 . S
C1454 C1437 1.574 . S
C1454 H1448 0.949 . S
C1454 C1458 1.368 . S
C1455 C1436 1.429 . S
C1455 C1449 1.429 . S
C1455 C1456 1.523 . S
C1456 C1437 1.368 . S
C1456 C1450 1.368 . S
C1456 C1455 1.523 . S
C1457 C1441 1.429 . S
C1457 C1453 1.429 . S
C1457 C1458 1.523 . S
C1458 C1442 1.368 . S
C1458 C1454 1.368 . S
C1458 C1457 1.523 . S
H1459 C1434 0.950 . S
H1460 C1436 0.950 . S
H1461 C1437 0.949 . S
H1462 C1439 0.950 . S
H1463 C1441 0.950 . S
C1464 C1465 1.349 . S
C1464 C1466 1.327 . S
C1464 H1489 0.950 . S
C1465 C1464 1.349 . S
C1465 C1481 1.349 . S
C1466 C1464 1.327 . S
C1466 C1485 1.429 . S
C1466 H1490 0.950 . S
C1467 C1484 1.574 . S
C1467 C1486 1.368 . S
C1467 H1491 0.949 . S
H1468 C1472 0.949 . S
C1469 C1470 1.349 . S
C1469 C1471 1.327 . S
C1469 H1492 0.950 . S
C1470 C1469 1.349 . S
C1470 C1482 1.349 . S
C1471 C1469 1.327 . S
C1471 C1487 1.429 . S
C1471 H1493 0.950 . S
C1472 H1468 0.949 . S
C1472 C1480 1.574 . S
C1472 C1488 1.368 . S
H1473 C1481 0.950 . S
H1474 C1479 0.950 . S
H1475 C1480 0.949 . S
H1476 C1482 0.950 . S
H1477 C1483 0.950 . S
H1478 C1484 0.949 . S
C1479 H1474 0.950 . S
C1479 C1481 1.327 . S
C1479 C1485 1.429 . S
C1480 C1472 1.574 . S
C1480 H1475 0.949 . S
C1480 C1486 1.368 . S
C1481 C1465 1.349 . S
C1481 H1473 0.950 . S
C1481 C1479 1.327 . S
C1482 C1470 1.349 . S
C1482 H1476 0.950 . S
C1482 C1483 1.327 . S
C1483 H1477 0.950 . S
C1483 C1482 1.327 . S
C1483 C1487 1.429 . S
C1484 C1467 1.574 . S
C1484 H1478 0.949 . S
C1484 C1488 1.368 . S
C1485 C1466 1.429 . S
C1485 C1479 1.429 . S
C1485 C1486 1.523 . S
C1486 C1467 1.368 . S
C1486 C1480 1.368 . S
C1486 C1485 1.523 . S
C1487 C1471 1.429 . S
C1487 C1483 1.429 . S
C1487 C1488 1.523 . S
C1488 C1472 1.368 . S
C1488 C1484 1.368 . S
C1488 C1487 1.523 . S
H1489 C1464 0.950 . S
H1490 C1466 0.950 . S
H1491 C1467 0.949 . S
H1492 C1469 0.950 . S
H1493 C1471 0.950 . S
C1494 C1495 1.349 . S
C1494 C1496 1.327 . S
C1494 H1519 0.950 . S
C1495 C1494 1.349 . S
C1495 C1511 1.349 . S
C1496 C1494 1.327 . S
C1496 C1515 1.429 . S
C1496 H1520 0.950 . S
C1497 C1514 1.574 . S
C1497 C1516 1.368 . S
C1497 H1521 0.949 . S
H1498 C1502 0.949 . S
C1499 C1500 1.349 . S
C1499 C1501 1.327 . S
C1499 H1522 0.950 . S
C1500 C1499 1.349 . S
C1500 C1512 1.349 . S
C1501 C1499 1.327 . S
C1501 C1517 1.429 . S
C1501 H1523 0.950 . S
C1502 H1498 0.949 . S
C1502 C1510 1.574 . S
C1502 C1518 1.368 . S
H1503 C1511 0.950 . S
H1504 C1509 0.950 . S
H1505 C1510 0.949 . S
H1506 C1512 0.950 . S
H1507 C1513 0.950 . S
H1508 C1514 0.949 . S
C1509 H1504 0.950 . S
C1509 C1511 1.327 . S
C1509 C1515 1.429 . S
C1510 C1502 1.574 . S
C1510 H1505 0.949 . S
C1510 C1516 1.368 . S
C1511 C1495 1.349 . S
C1511 H1503 0.950 . S
C1511 C1509 1.327 . S
C1512 C1500 1.349 . S
C1512 H1506 0.950 . S
C1512 C1513 1.327 . S
C1513 H1507 0.950 . S
C1513 C1512 1.327 . S
C1513 C1517 1.429 . S
C1514 C1497 1.574 . S
C1514 H1508 0.949 . S
C1514 C1518 1.368 . S
C1515 C1496 1.429 . S
C1515 C1509 1.429 . S
C1515 C1516 1.523 . S
C1516 C1497 1.368 . S
C1516 C1510 1.368 . S
C1516 C1515 1.523 . S
C1517 C1501 1.429 . S
C1517 C1513 1.429 . S
C1517 C1518 1.523 . S
C1518 C1502 1.368 . S
C1518 C1514 1.368 . S
C1518 C1517 1.523 . S
H1519 C1494 0.950 . S
H1520 C1496 0.950 . S
H1521 C1497 0.949 . S
H1522 C1499 0.950 . S
H1523 C1501 0.950 . S
C1524 C1525 1.349 . S
C1524 C1526 1.327 . S
C1524 H1549 0.950 . S
C1525 C1524 1.349 . S
C1525 C1541 1.349 . S
C1526 C1524 1.327 . S
C1526 C1545 1.429 . S
C1526 H1550 0.950 . S
C1527 C1544 1.574 . S
C1527 C1546 1.368 . S
C1527 H1551 0.949 . S
H1528 C1532 0.949 . S
C1529 C1530 1.349 . S
C1529 C1531 1.327 . S
C1529 H1552 0.950 . S
C1530 C1529 1.349 . S
C1530 C1542 1.349 . S
C1531 C1529 1.327 . S
C1531 C1547 1.429 . S
C1531 H1553 0.950 . S
C1532 H1528 0.949 . S
C1532 C1540 1.574 . S
C1532 C1548 1.368 . S
H1533 C1541 0.950 . S
H1534 C1539 0.950 . S
H1535 C1540 0.949 . S
H1536 C1542 0.950 . S
H1537 C1543 0.950 . S
H1538 C1544 0.949 . S
C1539 H1534 0.950 . S
C1539 C1541 1.327 . S
C1539 C1545 1.429 . S
C1540 C1532 1.574 . S
C1540 H1535 0.949 . S
C1540 C1546 1.368 . S
C1541 C1525 1.349 . S
C1541 H1533 0.950 . S
C1541 C1539 1.327 . S
C1542 C1530 1.349 . S
C1542 H1536 0.950 . S
C1542 C1543 1.327 . S
C1543 H1537 0.950 . S
C1543 C1542 1.327 . S
C1543 C1547 1.429 . S
C1544 C1527 1.574 . S
C1544 H1538 0.949 . S
C1544 C1548 1.368 . S
C1545 C1526 1.429 . S
C1545 C1539 1.429 . S
C1545 C1546 1.523 . S
C1546 C1527 1.368 . S
C1546 C1540 1.368 . S
C1546 C1545 1.523 . S
C1547 C1531 1.429 . S
C1547 C1543 1.429 . S
C1547 C1548 1.523 . S
C1548 C1532 1.368 . S
C1548 C1544 1.368 . S
C1548 C1547 1.523 . S
H1549 C1524 0.950 . S
H1550 C1526 0.950 . S
H1551 C1527 0.949 . S
H1552 C1529 0.950 . S
H1553 C1531 0.950 . S
C1554 C1555 1.349 . S
C1554 C1556 1.327 . S
C1554 H1579 0.950 . S
C1555 C1554 1.349 . S
C1555 C1571 1.349 . S
C1556 C1554 1.327 . S
C1556 C1575 1.429 . S
C1556 H1580 0.950 . S
C1557 C1574 1.574 . S
C1557 C1576 1.368 . S
C1557 H1581 0.949 . S
H1558 C1562 0.949 . S
C1559 C1560 1.349 . S
C1559 C1561 1.327 . S
C1559 H1582 0.950 . S
C1560 C1559 1.349 . S
C1560 C1572 1.349 . S
C1561 C1559 1.327 . S
C1561 C1577 1.429 . S
C1561 H1583 0.950 . S
C1562 H1558 0.949 . S
C1562 C1570 1.574 . S
C1562 C1578 1.368 . S
H1563 C1571 0.950 . S
H1564 C1569 0.950 . S
H1565 C1570 0.949 . S
H1566 C1572 0.950 . S
H1567 C1573 0.950 . S
H1568 C1574 0.949 . S
C1569 H1564 0.950 . S
C1569 C1571 1.327 . S
C1569 C1575 1.429 . S
C1570 C1562 1.574 . S
C1570 H1565 0.949 . S
C1570 C1576 1.368 . S
C1571 C1555 1.349 . S
C1571 H1563 0.950 . S
C1571 C1569 1.327 . S
C1572 C1560 1.349 . S
C1572 H1566 0.950 . S
C1572 C1573 1.327 . S
C1573 H1567 0.950 . S
C1573 C1572 1.327 . S
C1573 C1577 1.429 . S
C1574 C1557 1.574 . S
C1574 H1568 0.949 . S
C1574 C1578 1.368 . S
C1575 C1556 1.429 . S
C1575 C1569 1.429 . S
C1575 C1576 1.523 . S
C1576 C1557 1.368 . S
C1576 C1570 1.368 . S
C1576 C1575 1.523 . S
C1577 C1561 1.429 . S
C1577 C1573 1.429 . S
C1577 C1578 1.523 . S
C1578 C1562 1.368 . S
C1578 C1574 1.368 . S
C1578 C1577 1.523 . S
H1579 C1554 0.950 . S
H1580 C1556 0.950 . S
H1581 C1557 0.949 . S
H1582 C1559 0.950 . S
H1583 C1561 0.950 . S
C1584 C1585 1.349 . S
C1584 C1586 1.327 . S
C1584 H1609 0.950 . S
C1585 C1584 1.349 . S
C1585 C1601 1.349 . S
C1586 C1584 1.327 . S
C1586 C1605 1.429 . S
C1586 H1610 0.950 . S
C1587 C1604 1.574 . S
C1587 C1606 1.368 . S
C1587 H1611 0.949 . S
H1588 C1592 0.949 . S
C1589 C1590 1.349 . S
C1589 C1591 1.327 . S
C1589 H1612 0.950 . S
C1590 C1589 1.349 . S
C1590 C1602 1.349 . S
C1591 C1589 1.327 . S
C1591 C1607 1.429 . S
C1591 H1613 0.950 . S
C1592 H1588 0.949 . S
C1592 C1600 1.574 . S
C1592 C1608 1.368 . S
H1593 C1601 0.950 . S
H1594 C1599 0.950 . S
H1595 C1600 0.949 . S
H1596 C1602 0.950 . S
H1597 C1603 0.950 . S
H1598 C1604 0.949 . S
C1599 H1594 0.950 . S
C1599 C1601 1.327 . S
C1599 C1605 1.429 . S
C1600 C1592 1.574 . S
C1600 H1595 0.949 . S
C1600 C1606 1.368 . S
C1601 C1585 1.349 . S
C1601 H1593 0.950 . S
C1601 C1599 1.327 . S
C1602 C1590 1.349 . S
C1602 H1596 0.950 . S
C1602 C1603 1.327 . S
C1603 H1597 0.950 . S
C1603 C1602 1.327 . S
C1603 C1607 1.429 . S
C1604 C1587 1.574 . S
C1604 H1598 0.949 . S
C1604 C1608 1.368 . S
C1605 C1586 1.429 . S
C1605 C1599 1.429 . S
C1605 C1606 1.523 . S
C1606 C1587 1.368 . S
C1606 C1600 1.368 . S
C1606 C1605 1.523 . S
C1607 C1591 1.429 . S
C1607 C1603 1.429 . S
C1607 C1608 1.523 . S
C1608 C1592 1.368 . S
C1608 C1604 1.368 . S
C1608 C1607 1.523 . S
H1609 C1584 0.950 . S
H1610 C1586 0.950 . S
H1611 C1587 0.949 . S
H1612 C1589 0.950 . S
H1613 C1591 0.950 . S
C1614 C1615 1.349 . S
C1614 C1616 1.327 . S
C1614 H1639 0.950 . S
C1615 C1614 1.349 . S
C1615 C1631 1.349 . S
C1616 C1614 1.327 . S
C1616 C1635 1.429 . S
C1616 H1640 0.950 . S
C1617 C1634 1.574 . S
C1617 C1636 1.368 1_655 S
C1617 H1641 0.933 1_655 S
H1618 C1622 0.949 . S
C1619 C1620 1.349 . S
C1619 C1621 1.327 . S
C1619 H1642 0.950 . S
C1620 C1619 1.349 . S
C1620 C1632 1.349 . S
C1621 C1619 1.327 . S
C1621 C1637 1.429 . S
C1621 H1643 0.950 . S
C1622 H1618 0.949 . S
C1622 C1630 1.574 . S
C1622 C1638 1.368 . S
H1623 C1631 0.950 . S
H1624 C1629 0.950 . S
H1625 C1630 0.949 1_455 S
H1626 C1632 0.950 . S
H1627 C1633 0.950 . S
H1628 C1634 0.949 . S
C1629 H1624 0.950 . S
C1629 C1631 1.327 . S
C1629 C1635 1.429 . S
C1630 C1622 1.574 . S
C1630 H1625 0.949 1_655 S
C1630 C1636 1.368 1_655 S
C1631 C1615 1.349 . S
C1631 H1623 0.950 . S
C1631 C1629 1.327 . S
C1632 C1620 1.349 . S
C1632 H1626 0.950 . S
C1632 C1633 1.327 . S
C1633 H1627 0.950 . S
C1633 C1632 1.327 . S
C1633 C1637 1.429 . S
C1634 C1617 1.574 . S
C1634 H1628 0.949 . S
C1634 C1638 1.368 . S
C1635 C1616 1.429 . S
C1635 C1629 1.429 . S
C1635 C1636 1.523 . S
C1636 C1617 1.368 1_455 S
C1636 C1630 1.368 1_455 S
C1636 C1635 1.523 . S
C1637 C1621 1.429 . S
C1637 C1633 1.429 . S
C1637 C1638 1.523 . S
C1638 C1622 1.368 . S
C1638 C1634 1.368 . S
C1638 C1637 1.523 . S
H1639 C1614 0.950 . S
H1640 C1616 0.950 . S
H1641 C1617 0.933 1_455 S
H1642 C1619 0.950 . S
H1643 C1621 0.950 . S
C1644 C1645 1.349 . S
C1644 C1646 1.327 . S
C1644 H1669 0.950 . S
C1645 C1644 1.349 . S
C1645 C1661 1.349 . S
C1646 C1644 1.327 . S
C1646 C1665 1.429 . S
C1646 H1670 0.950 . S
C1647 C1664 1.574 . S
C1647 C1666 1.368 . S
C1647 H1671 0.949 . S
H1648 C1652 0.949 . S
C1649 C1650 1.349 . S
C1649 C1651 1.327 . S
C1649 H1672 0.950 . S
C1650 C1649 1.349 . S
C1650 C1662 1.349 . S
C1651 C1649 1.327 . S
C1651 C1667 1.429 . S
C1651 H1673 0.950 . S
C1652 H1648 0.949 . S
C1652 C1660 1.574 . S
C1652 C1668 1.368 . S
H1653 C1661 0.950 . S
H1654 C1659 0.950 . S
H1655 C1660 0.949 . S
H1656 C1662 0.950 . S
H1657 C1663 0.950 . S
H1658 C1664 0.949 . S
C1659 H1654 0.950 . S
C1659 C1661 1.327 . S
C1659 C1665 1.429 . S
C1660 C1652 1.574 . S
C1660 H1655 0.949 . S
C1660 C1666 1.368 . S
C1661 C1645 1.349 . S
C1661 H1653 0.950 . S
C1661 C1659 1.327 . S
C1662 C1650 1.349 . S
C1662 H1656 0.950 . S
C1662 C1663 1.327 . S
C1663 H1657 0.950 . S
C1663 C1662 1.327 . S
C1663 C1667 1.429 . S
C1664 C1647 1.574 . S
C1664 H1658 0.949 . S
C1664 C1668 1.368 . S
C1665 C1646 1.429 . S
C1665 C1659 1.429 . S
C1665 C1666 1.523 . S
C1666 C1647 1.368 . S
C1666 C1660 1.368 . S
C1666 C1665 1.523 . S
C1667 C1651 1.429 . S
C1667 C1663 1.429 . S
C1667 C1668 1.523 . S
C1668 C1652 1.368 . S
C1668 C1664 1.368 . S
C1668 C1667 1.523 . S
H1669 C1644 0.950 . S
H1670 C1646 0.950 . S
H1671 C1647 0.949 . S
H1672 C1649 0.950 . S
H1673 C1651 0.950 . S
C1674 C1675 1.349 . S
C1674 C1676 1.327 . S
C1674 H1699 0.950 . S
C1675 C1674 1.349 . S
C1675 C1691 1.349 . S
C1676 C1674 1.327 . S
C1676 C1695 1.429 . S
C1676 H1700 0.950 . S
C1677 C1694 1.574 1_655 S
C1677 C1696 1.368 . S
C1677 H1701 0.949 . S
H1678 C1682 0.949 . S
C1679 C1680 1.349 . S
C1679 C1681 1.327 . S
C1679 H1702 0.950 . S
C1680 C1679 1.349 . S
C1680 C1692 1.349 . S
C1681 C1679 1.327 . S
C1681 C1697 1.429 . S
C1681 H1703 0.950 . S
C1682 H1678 0.949 . S
C1682 C1690 1.574 . S
C1682 C1698 1.368 . S
H1683 C1691 0.950 . S
H1684 C1689 0.950 . S
H1685 C1690 0.949 . S
H1686 C1692 0.950 . S
H1687 C1693 0.950 . S
H1688 C1694 0.949 . S
C1689 H1684 0.950 . S
C1689 C1691 1.327 . S
C1689 C1695 1.429 . S
C1690 C1682 1.574 . S
C1690 H1685 0.949 . S
C1690 C1696 1.368 1_455 S
C1691 C1675 1.349 . S
C1691 H1683 0.950 . S
C1691 C1689 1.327 . S
C1692 C1680 1.349 . S
C1692 H1686 0.950 . S
C1692 C1693 1.327 . S
C1693 H1687 0.950 . S
C1693 C1692 1.327 . S
C1693 C1697 1.429 . S
C1694 C1677 1.574 1_455 S
C1694 H1688 0.949 . S
C1694 C1698 1.368 . S
C1695 C1676 1.429 . S
C1695 C1689 1.429 . S
C1695 C1696 1.523 . S
C1696 C1677 1.368 . S
C1696 C1690 1.368 1_655 S
C1696 C1695 1.523 . S
C1697 C1681 1.429 . S
C1697 C1693 1.429 . S
C1697 C1698 1.523 . S
C1698 C1682 1.368 . S
C1698 C1694 1.368 . S
C1698 C1697 1.523 . S
H1699 C1674 0.950 . S
H1700 C1676 0.950 . S
H1701 C1677 0.949 . S
H1702 C1679 0.950 . S
H1703 C1681 0.950 . S
C1704 C1705 1.349 . S
C1704 C1706 1.327 . S
C1704 H1729 0.950 . S
C1705 C1704 1.349 . S
C1705 C1721 1.349 . S
C1706 C1704 1.327 . S
C1706 C1725 1.429 . S
C1706 H1730 0.950 . S
C1707 C1724 1.574 . S
C1707 C1726 1.368 . S
C1707 H1731 0.949 . S
H1708 C1712 0.949 . S
C1709 C1710 1.349 . S
C1709 C1711 1.327 . S
C1709 H1732 0.950 . S
C1710 C1709 1.349 . S
C1710 C1722 1.349 . S
C1711 C1709 1.327 . S
C1711 C1727 1.429 . S
C1711 H1733 0.950 . S
C1712 H1708 0.949 . S
C1712 C1720 1.574 . S
C1712 C1728 1.368 . S
H1713 C1721 0.950 . S
H1714 C1719 0.950 . S
H1715 C1720 0.949 . S
H1716 C1722 0.950 . S
H1717 C1723 0.950 . S
H1718 C1724 0.949 . S
C1719 H1714 0.950 . S
C1719 C1721 1.327 . S
C1719 C1725 1.429 . S
C1720 C1712 1.574 . S
C1720 H1715 0.949 . S
C1720 C1726 1.368 . S
C1721 C1705 1.349 . S
C1721 H1713 0.950 . S
C1721 C1719 1.327 . S
C1722 C1710 1.349 . S
C1722 H1716 0.950 . S
C1722 C1723 1.327 . S
C1723 H1717 0.950 . S
C1723 C1722 1.327 . S
C1723 C1727 1.429 . S
C1724 C1707 1.574 . S
C1724 H1718 0.949 . S
C1724 C1728 1.368 . S
C1725 C1706 1.429 . S
C1725 C1719 1.429 . S
C1725 C1726 1.523 . S
C1726 C1707 1.368 . S
C1726 C1720 1.368 . S
C1726 C1725 1.523 . S
C1727 C1711 1.429 . S
C1727 C1723 1.429 . S
C1727 C1728 1.523 . S
C1728 C1712 1.368 . S
C1728 C1724 1.368 . S
C1728 C1727 1.523 . S
H1729 C1704 0.950 . S
H1730 C1706 0.950 . S
H1731 C1707 0.949 . S
H1732 C1709 0.950 . S
H1733 C1711 0.950 . S
C1734 C1735 1.349 . S
C1734 C1736 1.327 . S
C1734 H1759 0.950 . S
C1735 C1734 1.349 . S
C1735 C1751 1.349 . S
C1736 C1734 1.327 . S
C1736 C1755 1.429 . S
C1736 H1760 0.950 1_554 S
C1737 C1754 1.574 . S
C1737 C1756 1.368 . S
C1737 H1761 0.949 1_556 S
H1738 C1742 0.949 . S
C1739 C1740 1.349 . S
C1739 C1741 1.327 . S
C1739 H1762 0.950 . S
C1740 C1739 1.349 . S
C1740 C1752 1.349 . S
C1741 C1739 1.327 . S
C1741 C1757 1.429 . S
C1741 H1763 0.950 . S
C1742 H1738 0.949 . S
C1742 C1750 1.574 . S
C1742 C1758 1.368 . S
H1743 C1751 0.950 . S
H1744 C1749 0.950 . S
H1745 C1750 0.949 . S
H1746 C1752 0.950 . S
H1747 C1753 0.950 . S
H1748 C1754 0.949 . S
C1749 H1744 0.950 . S
C1749 C1751 1.327 . S
C1749 C1755 1.429 . S
C1750 C1742 1.574 . S
C1750 H1745 0.949 . S
C1750 C1756 1.368 . S
C1751 C1735 1.349 . S
C1751 H1743 0.950 . S
C1751 C1749 1.327 . S
C1752 C1740 1.349 . S
C1752 H1746 0.950 . S
C1752 C1753 1.327 . S
C1753 H1747 0.950 . S
C1753 C1752 1.327 . S
C1753 C1757 1.429 . S
C1754 C1737 1.574 . S
C1754 H1748 0.949 . S
C1754 C1758 1.368 . S
C1755 C1736 1.429 . S
C1755 C1749 1.429 . S
C1755 C1756 1.523 1_554 S
C1756 C1737 1.368 . S
C1756 C1750 1.368 . S
C1756 C1755 1.523 1_556 S
C1757 C1741 1.429 . S
C1757 C1753 1.429 . S
C1757 C1758 1.523 . S
C1758 C1742 1.368 . S
C1758 C1754 1.368 . S
C1758 C1757 1.523 . S
H1759 C1734 0.950 . S
H1760 C1736 0.950 1_556 S
H1761 C1737 0.949 1_554 S
H1762 C1739 0.950 . S
H1763 C1741 0.950 . S
C1764 C1765 1.349 . S
C1764 C1766 1.327 . S
C1764 H1789 0.950 . S
C1765 C1764 1.349 . S
C1765 C1781 1.349 . S
C1766 C1764 1.327 . S
C1766 C1785 1.429 . S
C1766 H1790 0.950 . S
C1767 C1784 1.574 . S
C1767 C1786 1.368 . S
C1767 H1791 0.949 . S
H1768 C1772 0.949 . S
C1769 C1770 1.349 . S
C1769 C1771 1.327 . S
C1769 H1792 0.950 . S
C1770 C1769 1.349 . S
C1770 C1782 1.349 . S
C1771 C1769 1.327 . S
C1771 C1787 1.429 . S
C1771 H1793 0.950 . S
C1772 H1768 0.949 . S
C1772 C1780 1.574 . S
C1772 C1788 1.368 . S
H1773 C1781 0.950 . S
H1774 C1779 0.950 . S
H1775 C1780 0.949 . S
H1776 C1782 0.950 . S
H1777 C1783 0.950 . S
H1778 C1784 0.949 . S
C1779 H1774 0.950 . S
C1779 C1781 1.327 . S
C1779 C1785 1.429 . S
C1780 C1772 1.574 . S
C1780 H1775 0.949 . S
C1780 C1786 1.368 . S
C1781 C1765 1.349 . S
C1781 H1773 0.950 . S
C1781 C1779 1.327 . S
C1782 C1770 1.349 . S
C1782 H1776 0.950 . S
C1782 C1783 1.327 . S
C1783 H1777 0.950 . S
C1783 C1782 1.327 . S
C1783 C1787 1.429 . S
C1784 C1767 1.574 . S
C1784 H1778 0.949 . S
C1784 C1788 1.368 . S
C1785 C1766 1.429 . S
C1785 C1779 1.429 . S
C1785 C1786 1.523 . S
C1786 C1767 1.368 . S
C1786 C1780 1.368 . S
C1786 C1785 1.523 . S
C1787 C1771 1.429 . S
C1787 C1783 1.429 . S
C1787 C1788 1.523 . S
C1788 C1772 1.368 . S
C1788 C1784 1.368 . S
C1788 C1787 1.523 . S
H1789 C1764 0.950 . S
H1790 C1766 0.950 . S
H1791 C1767 0.949 . S
H1792 C1769 0.950 . S
H1793 C1771 0.950 . S
C1794 C1795 1.349 . S
C1794 C1796 1.327 . S
C1794 H1819 0.950 . S
C1795 C1794 1.349 . S
C1795 C1811 1.349 . S
C1796 C1794 1.327 . S
C1796 C1815 1.429 . S
C1796 H1820 0.950 . S
C1797 C1814 1.603 . S
C1797 C1816 1.368 . S
C1797 H1821 0.949 . S
H1798 C1802 0.949 . S
C1799 C1800 1.349 . S
C1799 C1801 1.327 . S
C1799 H1822 0.950 . S
C1800 C1799 1.349 . S
C1800 C1812 1.349 . S
C1801 C1799 1.327 . S
C1801 C1817 1.429 . S
C1801 H1823 0.950 . S
C1802 H1798 0.949 . S
C1802 C1810 1.574 . S
C1802 C1818 1.368 . S
H1803 C1811 0.950 . S
H1804 C1809 0.950 . S
H1805 C1810 0.949 . S
H1806 C1812 0.950 . S
H1807 C1813 0.950 . S
H1808 C1814 0.950 . S
C1809 H1804 0.950 . S
C1809 C1811 1.327 . S
C1809 C1815 1.429 . S
C1810 C1802 1.574 . S
C1810 H1805 0.949 . S
C1810 C1816 1.368 1_556 S
C1811 C1795 1.349 . S
C1811 H1803 0.950 . S
C1811 C1809 1.327 . S
C1812 C1800 1.349 . S
C1812 H1806 0.950 . S
C1812 C1813 1.327 . S
C1813 H1807 0.950 . S
C1813 C1812 1.327 . S
C1813 C1817 1.429 . S
C1814 C1797 1.603 . S
C1814 H1808 0.950 . S
C1814 C1818 1.339 1_554 S
C1815 C1796 1.429 . S
C1815 C1809 1.429 . S
C1815 C1816 1.523 . S
C1816 C1797 1.368 . S
C1816 C1810 1.368 1_554 S
C1816 C1815 1.523 . S
C1817 C1801 1.429 . S
C1817 C1813 1.429 . S
C1817 C1818 1.523 . S
C1818 C1802 1.368 . S
C1818 C1814 1.339 1_556 S
C1818 C1817 1.523 . S
H1819 C1794 0.950 . S
H1820 C1796 0.950 . S
H1821 C1797 0.949 . S
H1822 C1799 0.950 . S
H1823 C1801 0.950 . S
C1824 C1825 1.349 . S
C1824 C1826 1.327 . S
C1824 H1849 0.950 . S
C1825 C1824 1.349 . S
C1825 C1841 1.349 . S
C1826 C1824 1.327 . S
C1826 C1845 1.429 . S
C1826 H1850 0.950 . S
C1827 C1844 1.574 . S
C1827 C1846 1.368 . S
C1827 H1851 0.949 . S
H1828 C1832 0.949 . S
C1829 C1830 1.349 . S
C1829 C1831 1.327 . S
C1829 H1852 0.950 . S
C1830 C1829 1.349 . S
C1830 C1842 1.349 . S
C1831 C1829 1.327 . S
C1831 C1847 1.429 . S
C1831 H1853 0.950 . S
C1832 H1828 0.949 . S
C1832 C1840 1.574 . S
C1832 C1848 1.368 . S
H1833 C1841 0.950 . S
H1834 C1839 0.950 . S
H1835 C1840 0.949 . S
H1836 C1842 0.950 . S
H1837 C1843 0.950 . S
H1838 C1844 0.949 . S
C1839 H1834 0.950 . S
C1839 C1841 1.327 . S
C1839 C1845 1.429 . S
C1840 C1832 1.574 . S
C1840 H1835 0.949 . S
C1840 C1846 1.368 . S
C1841 C1825 1.349 . S
C1841 H1833 0.950 . S
C1841 C1839 1.327 . S
C1842 C1830 1.349 . S
C1842 H1836 0.950 . S
C1842 C1843 1.327 . S
C1843 H1837 0.950 . S
C1843 C1842 1.327 . S
C1843 C1847 1.429 . S
C1844 C1827 1.574 . S
C1844 H1838 0.949 . S
C1844 C1848 1.368 . S
C1845 C1826 1.429 . S
C1845 C1839 1.429 . S
C1845 C1846 1.523 . S
C1846 C1827 1.368 . S
C1846 C1840 1.368 . S
C1846 C1845 1.523 . S
C1847 C1831 1.429 . S
C1847 C1843 1.429 . S
C1847 C1848 1.523 . S
C1848 C1832 1.368 . S
C1848 C1844 1.368 . S
C1848 C1847 1.523 . S
H1849 C1824 0.950 . S
H1850 C1826 0.950 . S
H1851 C1827 0.949 . S
H1852 C1829 0.950 . S
H1853 C1831 0.950 . S
C1854 C1855 1.349 . S
C1854 C1856 1.327 . S
C1854 H1879 0.950 . S
C1855 C1854 1.349 . S
C1855 C1871 1.349 . S
C1856 C1854 1.327 . S
C1856 C1875 1.429 . S
C1856 H1880 0.950 . S
C1857 C1874 1.574 . S
C1857 C1876 1.368 . S
C1857 H1881 0.949 . S
H1858 C1862 0.949 . S
C1859 C1860 1.349 . S
C1859 C1861 1.327 . S
C1859 H1882 0.950 . S
C1860 C1859 1.349 . S
C1860 C1872 1.349 . S
C1861 C1859 1.327 . S
C1861 C1877 1.429 . S
C1861 H1883 0.950 . S
C1862 H1858 0.949 . S
C1862 C1870 1.574 . S
C1862 C1878 1.368 . S
H1863 C1871 0.950 . S
H1864 C1869 0.950 . S
H1865 C1870 0.949 . S
H1866 C1872 0.950 . S
H1867 C1873 0.950 . S
H1868 C1874 0.949 . S
C1869 H1864 0.950 . S
C1869 C1871 1.327 . S
C1869 C1875 1.429 . S
C1870 C1862 1.574 . S
C1870 H1865 0.949 . S
C1870 C1876 1.368 . S
C1871 C1855 1.349 . S
C1871 H1863 0.950 . S
C1871 C1869 1.327 . S
C1872 C1860 1.349 . S
C1872 H1866 0.950 . S
C1872 C1873 1.327 . S
C1873 H1867 0.950 . S
C1873 C1872 1.327 . S
C1873 C1877 1.429 . S
C1874 C1857 1.574 . S
C1874 H1868 0.949 . S
C1874 C1878 1.368 . S
C1875 C1856 1.429 . S
C1875 C1869 1.429 . S
C1875 C1876 1.523 1_556 S
C1876 C1857 1.368 . S
C1876 C1870 1.368 . S
C1876 C1875 1.523 1_554 S
C1877 C1861 1.429 . S
C1877 C1873 1.429 . S
C1877 C1878 1.523 . S
C1878 C1862 1.368 . S
C1878 C1874 1.368 . S
C1878 C1877 1.523 . S
H1879 C1854 0.950 . S
H1880 C1856 0.950 . S
H1881 C1857 0.949 . S
H1882 C1859 0.950 . S
H1883 C1861 0.950 . S
C1884 C1885 1.349 . S
C1884 C1886 1.327 . S
C1884 H1909 0.950 . S
C1885 C1884 1.349 . S
C1885 C1901 1.349 . S
C1886 C1884 1.327 . S
C1886 C1905 1.429 . S
C1886 H1910 0.950 . S
C1887 C1904 1.574 . S
C1887 C1906 1.368 . S
C1887 H1911 0.949 . S
H1888 C1892 0.949 . S
C1889 C1890 1.349 . S
C1889 C1891 1.327 . S
C1889 H1912 0.950 . S
C1890 C1889 1.349 . S
C1890 C1902 1.349 . S
C1891 C1889 1.327 . S
C1891 C1907 1.429 . S
C1891 H1913 0.950 . S
C1892 H1888 0.949 . S
C1892 C1900 1.574 . S
C1892 C1908 1.368 . S
H1893 C1901 0.950 . S
H1894 C1899 0.950 . S
H1895 C1900 0.949 . S
H1896 C1902 0.950 . S
H1897 C1903 0.950 . S
H1898 C1904 0.949 . S
C1899 H1894 0.950 . S
C1899 C1901 1.327 . S
C1899 C1905 1.429 . S
C1900 C1892 1.574 . S
C1900 H1895 0.949 . S
C1900 C1906 1.368 . S
C1901 C1885 1.349 . S
C1901 H1893 0.950 . S
C1901 C1899 1.327 . S
C1902 C1890 1.349 . S
C1902 H1896 0.950 . S
C1902 C1903 1.327 . S
C1903 H1897 0.950 . S
C1903 C1902 1.327 . S
C1903 C1907 1.429 . S
C1904 C1887 1.574 . S
C1904 H1898 0.949 . S
C1904 C1908 1.368 . S
C1905 C1886 1.429 . S
C1905 C1899 1.429 . S
C1905 C1906 1.523 . S
C1906 C1887 1.368 . S
C1906 C1900 1.368 . S
C1906 C1905 1.523 . S
C1907 C1891 1.429 . S
C1907 C1903 1.429 . S
C1907 C1908 1.523 . S
C1908 C1892 1.368 . S
C1908 C1904 1.368 . S
C1908 C1907 1.523 . S
H1909 C1884 0.950 . S
H1910 C1886 0.950 . S
H1911 C1887 0.949 . S
H1912 C1889 0.950 . S
H1913 C1891 0.950 . S
C1914 C1915 1.349 . S
C1914 C1916 1.327 . S
C1914 H1939 0.950 . S
C1915 C1914 1.349 . S
C1915 C1931 1.349 1_556 S
C1916 C1914 1.327 . S
C1916 C1935 1.429 1_556 S
C1916 H1940 0.950 . S
C1917 C1934 1.574 . S
C1917 C1936 1.368 . S
C1917 H1941 0.949 . S
H1918 C1922 0.949 . S
C1919 C1920 1.349 . S
C1919 C1921 1.327 . S
C1919 H1942 0.950 . S
C1920 C1919 1.349 . S
C1920 C1932 1.349 . S
C1921 C1919 1.327 . S
C1921 C1937 1.429 . S
C1921 H1943 0.950 . S
C1922 H1918 0.949 . S
C1922 C1930 1.574 . S
C1922 C1938 1.368 . S
H1923 C1931 0.950 . S
H1924 C1929 0.950 . S
H1925 C1930 0.949 . S
H1926 C1932 0.950 . S
H1927 C1933 0.950 . S
H1928 C1934 0.949 . S
C1929 H1924 0.950 . S
C1929 C1931 1.327 . S
C1929 C1935 1.429 . S
C1930 C1922 1.574 . S
C1930 H1925 0.949 . S
C1930 C1936 1.368 . S
C1931 C1915 1.349 1_554 S
C1931 H1923 0.950 . S
C1931 C1929 1.327 . S
C1932 C1920 1.349 . S
C1932 H1926 0.950 . S
C1932 C1933 1.327 . S
C1933 H1927 0.950 . S
C1933 C1932 1.327 . S
C1933 C1937 1.429 . S
C1934 C1917 1.574 . S
C1934 H1928 0.949 . S
C1934 C1938 1.368 . S
C1935 C1916 1.429 1_554 S
C1935 C1929 1.429 . S
C1935 C1936 1.523 . S
C1936 C1917 1.368 . S
C1936 C1930 1.368 . S
C1936 C1935 1.523 . S
C1937 C1921 1.429 . S
C1937 C1933 1.429 . S
C1937 C1938 1.523 . S
C1938 C1922 1.368 . S
C1938 C1934 1.368 . S
C1938 C1937 1.523 . S
H1939 C1914 0.950 . S
H1940 C1916 0.950 . S
H1941 C1917 0.949 . S
H1942 C1919 0.950 . S
H1943 C1921 0.950 . S
C1944 C1945 1.349 . S
C1944 C1946 1.327 . S
C1944 H1969 0.950 . S
C1945 C1944 1.349 . S
C1945 C1961 1.349 . S
C1946 C1944 1.327 . S
C1946 C1965 1.429 . S
C1946 H1970 0.950 . S
C1947 C1964 1.574 . S
C1947 C1966 1.368 . S
C1947 H1971 0.949 . S
H1948 C1952 0.949 . S
C1949 C1950 1.349 . S
C1949 C1951 1.327 . S
C1949 H1972 0.950 . S
C1950 C1949 1.349 . S
C1950 C1962 1.349 . S
C1951 C1949 1.327 . S
C1951 C1967 1.429 . S
C1951 H1973 0.950 . S
C1952 H1948 0.949 . S
C1952 C1960 1.574 . S
C1952 C1968 1.368 . S
H1953 C1961 0.950 . S
H1954 C1959 0.950 . S
H1955 C1960 0.949 . S
H1956 C1962 0.950 . S
H1957 C1963 0.950 . S
H1958 C1964 0.949 . S
C1959 H1954 0.950 . S
C1959 C1961 1.327 . S
C1959 C1965 1.429 . S
C1960 C1952 1.574 . S
C1960 H1955 0.949 . S
C1960 C1966 1.368 . S
C1961 C1945 1.349 . S
C1961 H1953 0.950 . S
C1961 C1959 1.327 . S
C1962 C1950 1.349 . S
C1962 H1956 0.950 . S
C1962 C1963 1.327 . S
C1963 H1957 0.950 . S
C1963 C1962 1.327 . S
C1963 C1967 1.429 . S
C1964 C1947 1.574 . S
C1964 H1958 0.949 . S
C1964 C1968 1.368 . S
C1965 C1946 1.429 . S
C1965 C1959 1.429 . S
C1965 C1966 1.523 . S
C1966 C1947 1.368 . S
C1966 C1960 1.368 . S
C1966 C1965 1.523 . S
C1967 C1951 1.429 . S
C1967 C1963 1.429 . S
C1967 C1968 1.523 . S
C1968 C1952 1.368 . S
C1968 C1964 1.368 . S
C1968 C1967 1.523 . S
H1969 C1944 0.950 . S
H1970 C1946 0.950 . S
H1971 C1947 0.949 . S
H1972 C1949 0.950 . S
H1973 C1951 0.950 . S
C1974 C1975 1.349 . S
C1974 C1976 1.327 . S
C1974 H1999 0.950 . S
C1975 C1974 1.349 . S
C1975 C1991 1.349 . S
C1976 C1974 1.327 . S
C1976 C1995 1.429 . S
C1976 H2000 0.950 . S
C1977 C1994 1.574 . S
C1977 C1996 1.368 . S
C1977 H2001 0.949 . S
H1978 C1982 0.949 . S
C1979 C1980 1.349 . S
C1979 C1981 1.327 . S
C1979 H2002 0.950 . S
C1980 C1979 1.349 . S
C1980 C1992 1.349 . S
C1981 C1979 1.327 . S
C1981 C1997 1.429 . S
C1981 H2003 0.950 . S
C1982 H1978 0.949 . S
C1982 C1990 1.574 . S
C1982 C1998 1.368 . S
H1983 C1991 0.950 . S
H1984 C1989 0.950 . S
H1985 C1990 0.949 . S
H1986 C1992 0.950 . S
H1987 C1993 0.950 . S
H1988 C1994 0.949 . S
C1989 H1984 0.950 . S
C1989 C1991 1.327 . S
C1989 C1995 1.429 . S
C1990 C1982 1.574 . S
C1990 H1985 0.949 . S
C1990 C1996 1.368 . S
C1991 C1975 1.349 . S
C1991 H1983 0.950 . S
C1991 C1989 1.327 . S
C1992 C1980 1.349 . S
C1992 H1986 0.950 . S
C1992 C1993 1.327 . S
C1993 H1987 0.950 . S
C1993 C1992 1.327 . S
C1993 C1997 1.429 . S
C1994 C1977 1.574 . S
C1994 H1988 0.949 . S
C1994 C1998 1.368 . S
C1995 C1976 1.429 . S
C1995 C1989 1.429 . S
C1995 C1996 1.523 . S
C1996 C1977 1.368 . S
C1996 C1990 1.368 . S
C1996 C1995 1.523 . S
C1997 C1981 1.429 . S
C1997 C1993 1.429 . S
C1997 C1998 1.523 . S
C1998 C1982 1.368 . S
C1998 C1994 1.368 . S
C1998 C1997 1.523 . S
H1999 C1974 0.950 . S
H2000 C1976 0.950 . S
H2001 C1977 0.949 . S
H2002 C1979 0.950 . S
H2003 C1981 0.950 . S
C2004 C2005 1.349 . S
C2004 C2006 1.327 . S
C2004 H2029 0.950 . S
C2005 C2004 1.349 . S
C2005 C2021 1.349 . S
C2006 C2004 1.327 . S
C2006 C2025 1.429 . S
C2006 H2030 0.950 . S
C2007 C2024 1.574 . S
C2007 C2026 1.368 . S
C2007 H2031 0.949 . S
H2008 C2012 0.949 . S
C2009 C2010 1.349 . S
C2009 C2011 1.327 . S
C2009 H2032 0.950 . S
C2010 C2009 1.349 . S
C2010 C2022 1.349 . S
C2011 C2009 1.327 . S
C2011 C2027 1.429 . S
C2011 H2033 0.950 . S
C2012 H2008 0.949 . S
C2012 C2020 1.574 . S
C2012 C2028 1.368 . S
H2013 C2021 0.950 . S
H2014 C2019 0.950 . S
H2015 C2020 0.949 . S
H2016 C2022 0.950 . S
H2017 C2023 0.950 . S
H2018 C2024 0.949 . S
C2019 H2014 0.950 . S
C2019 C2021 1.327 . S
C2019 C2025 1.429 . S
C2020 C2012 1.574 . S
C2020 H2015 0.949 . S
C2020 C2026 1.368 . S
C2021 C2005 1.349 . S
C2021 H2013 0.950 . S
C2021 C2019 1.327 . S
C2022 C2010 1.349 . S
C2022 H2016 0.950 . S
C2022 C2023 1.327 . S
C2023 H2017 0.950 . S
C2023 C2022 1.327 . S
C2023 C2027 1.429 . S
C2024 C2007 1.574 . S
C2024 H2018 0.949 . S
C2024 C2028 1.368 . S
C2025 C2006 1.429 . S
C2025 C2019 1.429 . S
C2025 C2026 1.523 . S
C2026 C2007 1.368 . S
C2026 C2020 1.368 . S
C2026 C2025 1.523 . S
C2027 C2011 1.429 . S
C2027 C2023 1.429 . S
C2027 C2028 1.523 . S
C2028 C2012 1.368 . S
C2028 C2024 1.368 . S
C2028 C2027 1.523 . S
H2029 C2004 0.950 . S
H2030 C2006 0.950 . S
H2031 C2007 0.949 . S
H2032 C2009 0.950 . S
H2033 C2011 0.950 . S
C2034 C2035 1.349 . S
C2034 C2036 1.327 . S
C2034 H2059 0.950 . S
C2035 C2034 1.349 . S
C2035 C2051 1.349 . S
C2036 C2034 1.327 . S
C2036 C2055 1.429 . S
C2036 H2060 0.950 . S
C2037 C2054 1.574 . S
C2037 C2056 1.368 . S
C2037 H2061 0.949 . S
H2038 C2042 0.949 . S
C2039 C2040 1.349 . S
C2039 C2041 1.327 . S
C2039 H2062 0.950 . S
C2040 C2039 1.349 . S
C2040 C2052 1.349 . S
C2041 C2039 1.327 . S
C2041 C2057 1.429 . S
C2041 H2063 0.950 . S
C2042 H2038 0.949 . S
C2042 C2050 1.574 . S
C2042 C2058 1.368 . S
H2043 C2051 0.950 . S
H2044 C2049 0.950 . S
H2045 C2050 0.949 . S
H2046 C2052 0.950 . S
H2047 C2053 0.950 . S
H2048 C2054 0.949 . S
C2049 H2044 0.950 . S
C2049 C2051 1.327 . S
C2049 C2055 1.429 . S
C2050 C2042 1.574 . S
C2050 H2045 0.949 . S
C2050 C2056 1.368 . S
C2051 C2035 1.349 . S
C2051 H2043 0.950 . S
C2051 C2049 1.327 . S
C2052 C2040 1.349 . S
C2052 H2046 0.950 . S
C2052 C2053 1.327 . S
C2053 H2047 0.950 . S
C2053 C2052 1.327 . S
C2053 C2057 1.429 . S
C2054 C2037 1.574 . S
C2054 H2048 0.949 . S
C2054 C2058 1.368 . S
C2055 C2036 1.429 . S
C2055 C2049 1.429 . S
C2055 C2056 1.523 . S
C2056 C2037 1.368 . S
C2056 C2050 1.368 . S
C2056 C2055 1.523 . S
C2057 C2041 1.429 . S
C2057 C2053 1.429 . S
C2057 C2058 1.523 . S
C2058 C2042 1.368 . S
C2058 C2054 1.368 . S
C2058 C2057 1.523 . S
H2059 C2034 0.950 . S
H2060 C2036 0.950 . S
H2061 C2037 0.949 . S
H2062 C2039 0.950 . S
H2063 C2041 0.950 . S
C2064 C2065 1.349 . S
C2064 C2066 1.327 . S
C2064 H2089 0.950 . S
C2065 C2064 1.349 . S
C2065 C2081 1.349 . S
C2066 C2064 1.327 . S
C2066 C2085 1.429 . S
C2066 H2090 0.950 . S
C2067 C2084 1.574 . S
C2067 C2086 1.368 . S
C2067 H2091 0.949 . S
H2068 C2072 0.949 . S
C2069 C2070 1.349 . S
C2069 C2071 1.327 . S
C2069 H2092 0.950 . S
C2070 C2069 1.349 . S
C2070 C2082 1.349 . S
C2071 C2069 1.327 . S
C2071 C2087 1.429 . S
C2071 H2093 0.950 . S
C2072 H2068 0.949 . S
C2072 C2080 1.574 . S
C2072 C2088 1.368 . S
H2073 C2081 0.950 . S
H2074 C2079 0.950 . S
H2075 C2080 0.949 . S
H2076 C2082 0.950 . S
H2077 C2083 0.950 . S
H2078 C2084 0.949 . S
C2079 H2074 0.950 . S
C2079 C2081 1.327 . S
C2079 C2085 1.429 . S
C2080 C2072 1.574 . S
C2080 H2075 0.949 . S
C2080 C2086 1.368 . S
C2081 C2065 1.349 . S
C2081 H2073 0.950 . S
C2081 C2079 1.327 . S
C2082 C2070 1.349 . S
C2082 H2076 0.950 . S
C2082 C2083 1.327 . S
C2083 H2077 0.950 . S
C2083 C2082 1.327 . S
C2083 C2087 1.429 . S
C2084 C2067 1.574 . S
C2084 H2078 0.949 . S
C2084 C2088 1.368 . S
C2085 C2066 1.429 . S
C2085 C2079 1.429 . S
C2085 C2086 1.523 . S
C2086 C2067 1.368 . S
C2086 C2080 1.368 . S
C2086 C2085 1.523 . S
C2087 C2071 1.429 . S
C2087 C2083 1.429 . S
C2087 C2088 1.523 . S
C2088 C2072 1.368 . S
C2088 C2084 1.368 . S
C2088 C2087 1.523 . S
H2089 C2064 0.950 . S
H2090 C2066 0.950 . S
H2091 C2067 0.949 . S
H2092 C2069 0.950 . S
H2093 C2071 0.950 . S
C2094 C2095 1.349 . S
C2094 C2096 1.327 . S
C2094 H2119 0.950 . S
C2095 C2094 1.349 . S
C2095 C2111 1.349 . S
C2096 C2094 1.327 . S
C2096 C2115 1.429 . S
C2096 H2120 0.950 . S
C2097 C2114 1.574 . S
C2097 C2116 1.368 . S
C2097 H2121 0.949 . S
H2098 C2102 0.949 . S
C2099 C2100 1.349 . S
C2099 C2101 1.327 . S
C2099 H2122 0.950 . S
C2100 C2099 1.349 . S
C2100 C2112 1.349 . S
C2101 C2099 1.327 . S
C2101 C2117 1.429 . S
C2101 H2123 0.950 . S
C2102 H2098 0.949 . S
C2102 C2110 1.574 . S
C2102 C2118 1.368 . S
H2103 C2111 0.950 . S
H2104 C2109 0.950 . S
H2105 C2110 0.949 . S
H2106 C2112 0.950 . S
H2107 C2113 0.950 . S
H2108 C2114 0.949 . S
C2109 H2104 0.950 . S
C2109 C2111 1.327 . S
C2109 C2115 1.429 . S
C2110 C2102 1.574 . S
C2110 H2105 0.949 . S
C2110 C2116 1.368 . S
C2111 C2095 1.349 . S
C2111 H2103 0.950 . S
C2111 C2109 1.327 . S
C2112 C2100 1.349 . S
C2112 H2106 0.950 . S
C2112 C2113 1.327 . S
C2113 H2107 0.950 . S
C2113 C2112 1.327 . S
C2113 C2117 1.429 . S
C2114 C2097 1.574 . S
C2114 H2108 0.949 . S
C2114 C2118 1.368 . S
C2115 C2096 1.429 . S
C2115 C2109 1.429 . S
C2115 C2116 1.523 . S
C2116 C2097 1.368 . S
C2116 C2110 1.368 . S
C2116 C2115 1.523 . S
C2117 C2101 1.429 . S
C2117 C2113 1.429 . S
C2117 C2118 1.523 . S
C2118 C2102 1.368 . S
C2118 C2114 1.368 . S
C2118 C2117 1.523 . S
H2119 C2094 0.950 . S
H2120 C2096 0.950 . S
H2121 C2097 0.949 . S
H2122 C2099 0.950 . S
H2123 C2101 0.950 . S
C2124 C2125 1.349 . S
C2124 C2126 1.327 . S
C2124 H2149 0.950 . S
C2125 C2124 1.349 . S
C2125 C2141 1.349 . S
C2126 C2124 1.327 . S
C2126 C2145 1.429 . S
C2126 H2150 0.950 . S
C2127 C2144 1.574 . S
C2127 C2146 1.368 . S
C2127 H2151 0.949 . S
H2128 C2132 0.949 . S
C2129 C2130 1.349 . S
C2129 C2131 1.327 . S
C2129 H2152 0.950 . S
C2130 C2129 1.349 . S
C2130 C2142 1.349 . S
C2131 C2129 1.327 . S
C2131 C2147 1.429 . S
C2131 H2153 0.950 . S
C2132 H2128 0.949 . S
C2132 C2140 1.574 . S
C2132 C2148 1.368 . S
H2133 C2141 0.950 . S
H2134 C2139 0.950 . S
H2135 C2140 0.949 . S
H2136 C2142 0.950 . S
H2137 C2143 0.950 . S
H2138 C2144 0.949 . S
C2139 H2134 0.950 . S
C2139 C2141 1.327 . S
C2139 C2145 1.429 . S
C2140 C2132 1.574 . S
C2140 H2135 0.949 . S
C2140 C2146 1.368 . S
C2141 C2125 1.349 . S
C2141 H2133 0.950 . S
C2141 C2139 1.327 . S
C2142 C2130 1.349 . S
C2142 H2136 0.950 . S
C2142 C2143 1.327 . S
C2143 H2137 0.950 . S
C2143 C2142 1.327 . S
C2143 C2147 1.429 . S
C2144 C2127 1.574 . S
C2144 H2138 0.949 . S
C2144 C2148 1.368 . S
C2145 C2126 1.429 . S
C2145 C2139 1.429 . S
C2145 C2146 1.523 . S
C2146 C2127 1.368 . S
C2146 C2140 1.368 . S
C2146 C2145 1.523 . S
C2147 C2131 1.429 . S
C2147 C2143 1.429 . S
C2147 C2148 1.523 . S
C2148 C2132 1.368 . S
C2148 C2144 1.368 . S
C2148 C2147 1.523 . S
H2149 C2124 0.950 . S
H2150 C2126 0.950 . S
H2151 C2127 0.949 . S
H2152 C2129 0.950 . S
H2153 C2131 0.950 . S
C2154 C2155 1.349 . S
C2154 C2156 1.327 . S
C2154 H2179 0.950 . S
C2155 C2154 1.349 . S
C2155 C2171 1.349 . S
C2156 C2154 1.327 . S
C2156 C2175 1.429 . S
C2156 H2180 0.950 . S
C2157 C2174 1.574 . S
C2157 C2176 1.368 . S
C2157 H2181 0.949 . S
H2158 C2162 0.949 . S
C2159 C2160 1.349 . S
C2159 C2161 1.327 . S
C2159 H2182 0.950 . S
C2160 C2159 1.349 . S
C2160 C2172 1.349 . S
C2161 C2159 1.327 . S
C2161 C2177 1.429 . S
C2161 H2183 0.950 . S
C2162 H2158 0.949 . S
C2162 C2170 1.574 . S
C2162 C2178 1.368 . S
H2163 C2171 0.950 . S
H2164 C2169 0.950 . S
H2165 C2170 0.949 . S
H2166 C2172 0.950 . S
H2167 C2173 0.910 1_545 S
H2168 C2174 0.949 1_565 S
C2169 H2164 0.950 . S
C2169 C2171 1.327 . S
C2169 C2175 1.429 . S
C2170 C2162 1.574 . S
C2170 H2165 0.949 . S
C2170 C2176 1.368 . S
C2171 C2155 1.349 . S
C2171 H2163 0.950 . S
C2171 C2169 1.327 . S
C2172 C2160 1.349 . S
C2172 H2166 0.950 . S
C2172 C2173 1.327 . S
C2173 H2167 0.910 1_565 S
C2173 C2172 1.327 . S
C2173 C2177 1.429 . S
C2174 C2157 1.574 . S
C2174 H2168 0.949 1_545 S
C2174 C2178 1.368 . S
C2175 C2156 1.429 . S
C2175 C2169 1.429 . S
C2175 C2176 1.523 . S
C2176 C2157 1.368 . S
C2176 C2170 1.368 . S
C2176 C2175 1.523 . S
C2177 C2161 1.429 . S
C2177 C2173 1.429 . S
C2177 C2178 1.523 1_565 S
C2178 C2162 1.368 . S
C2178 C2174 1.368 . S
C2178 C2177 1.523 1_545 S
H2179 C2154 0.950 . S
H2180 C2156 0.950 . S
H2181 C2157 0.949 . S
H2182 C2159 0.950 . S
H2183 C2161 0.950 . S
C750 C584 1.641 . S
C745 C181 1.650 . S
C780 C599 1.742 . S
C775 C247 1.748 . S
C805 C283 1.747 . S
C810 C612 1.746 . S
C840 C626 1.552 . S
C835 C169 1.600 . S
C870 C638 1.693 . S
C865 C361 1.754 . S
C900 C652 1.293 . S
C895 C433 1.301 . S
C925 C421 1.811 . S
C930 C666 1.782 . S
C960 C681 1.487 . S
C955 C355 1.466 . S
C985 C427 1.718 . S
C990 C697 1.716 . S
C1020 C710 1.517 . S
C1015 C325 1.510 . S
C1045 C385 1.628 . S
C1050 C695 1.582 . S
C1080 C708 1.507 . S
C1075 C463 1.512 . S
C1105 C253 1.911 . S
C1110 C724 1.908 . S
C1135 C145 1.601 . S
C1140 C723 1.572 . S
C1165 C205 1.777 . S
C1170 C722 1.723 . S
C1195 C217 1.612 . S
C1200 C725 1.614 . S
C1225 C139 1.745 . S
C1230 C627 1.734 . S
C1255 C535 1.516 . S
C1260 C625 1.490 . S
C1290 C585 1.527 . S
C1285 C565 1.528 . S
C1320 C596 1.790 . S
C1315 C313 1.801 . S
C1345 C175 1.650 1_545 S
C1350 C641 1.624 . S
C1380 C682 1.952 . S
C1375 C397 1.953 . S
C1410 C639 1.508 . S
C1405 C349 1.477 . S
C1440 C667 1.500 . S
C1435 C457 1.522 . S
C1470 C668 1.641 . S
C1465 C505 1.649 . S
C1495 C571 1.748 . S
C1500 C683 1.742 . S
C1525 C319 1.747 . S
C1530 C640 1.746 . S
C1560 C654 1.552 . S
C1555 C493 1.600 . S
C1585 C109 1.754 . S
C1590 C610 1.693 . S
C1620 C624 1.292 . S
C1615 C1 1.300 . S
C1650 C582 1.783 . S
C1645 C61 1.811 . S
C1680 C597 1.487 . S
C1675 C103 1.466 . S
C1705 C67 1.718 . S
C1710 C711 1.716 . S
C1735 C73 1.510 . S
C1740 C696 1.516 . S
C1765 C133 1.628 . S
C1770 C709 1.582 . S
C1795 C31 1.512 . S
C1800 C694 1.508 . S
C1830 C738 1.908 . S
C1825 C289 1.911 . S
C1860 C737 1.571 . S
C1855 C469 1.600 . S
C1890 C736 1.723 . S
C1885 C529 1.778 . S
C1915 C541 1.612 . S
C1920 C739 1.614 . S
C1945 C391 1.745 . S
C1950 C655 1.734 . S
C1980 C653 1.490 . S
C1975 C211 1.516 . S
C2010 C669 1.527 . S
C2005 C241 1.528 . S
C2040 C680 1.790 . S
C2035 C277 1.801 . S
C2065 C499 1.650 . S
C2070 C613 1.624 . S
C2100 C598 1.952 . S
C2095 C37 1.953 . S
C2125 C97 1.478 . S
C2130 C611 1.509 . S
C2160 C583 1.500 . S
C2155 C25 1.521 . S
